drugbank_target|P00395 Cytochrome c oxidase subunit 1 (DB02659; DB04464; DB09140)
 OpenBabel12092119293D

  0  0  0     0  0            999 V3000
M  V30 BEGIN CTAB
M  V30 COUNTS 8044 8185 0 0 0
M  V30 BEGIN ATOM
M  V30 1 H -0.908 1.98254 -0.117106 0
M  V30 2 N 0 1.576 0 0
M  V30 3 C 0.933 2.03868 1.02534 0
M  V30 4 C 1.911 0.928543 1.3348 0
M  V30 5 O 3.095 1.19667 1.45644 0
M  V30 6 C 0.222 2.43627 2.35294 0
M  V30 7 C -0.732 3.65373 2.2001 0
M  V30 8 S 0.101 5.13292 1.52614 0
M  V30 9 C 1.257 5.56322 2.86805 0
M  V30 10 H 1.49 2.90518 0.631377 0
M  V30 11 H -0.977 1.52953 0.210867 0
M  V30 12 H 0.981 2.67203 3.11629 0
M  V30 13 H -0.358 1.57376 2.7183 0
M  V30 14 H -1.165 3.90944 3.18086 0
M  V30 15 H -1.563 3.418 1.51819 0
M  V30 16 H 0.729 5.58782 3.83104 0
M  V30 17 H 1.672 6.56266 2.65933 0
M  V30 18 H 2.08 4.83886 2.90714 0
M  V30 19 N 1.4781 -0.272755 1.55222 0
M  V30 20 C 2.7251 -1.00433 1.7584 0
M  V30 21 C 3.0531 -1.86275 0.559629 0
M  V30 22 O 2.3081 -1.90269 -0.457857 0
M  V30 23 C 2.6071 -1.91642 3.01675 0
M  V30 24 C 2.2731 -1.21548 4.34208 0
M  V30 25 C 0.9351 -1.02166 4.70229 0
M  V30 26 C 3.2871 -0.716684 5.16249 0
M  V30 27 C 0.6151 -0.316334 5.85847 0
M  V30 28 C 2.9671 -0.0249476 6.32595 0
M  V30 29 C 1.6311 0.180579 6.67256 0
M  V30 30 H 0.9011 -0.367509 0.643443 0
M  V30 31 H 3.5481 -0.276596 1.89492 0
M  V30 32 H 1.8531 -2.71037 2.82924 0
M  V30 33 H 3.5501 -2.48369 3.14824 0
M  V30 34 H 0.1401 -1.37645 4.05896 0
M  V30 35 H 4.3241 -0.854047 4.88896 0
M  V30 36 H -0.4199 -0.146378 6.11225 0
M  V30 37 H 3.7541 0.369311 6.9542 0
M  V30 38 H 1.3811 0.729098 7.56696 0
M  V30 39 N 2.9562 -1.48159 -0.537278 0
M  V30 40 C 3.9192 -1.61665 -1.62472 0
M  V30 41 C 4.9192 -0.490395 -1.5314 0
M  V30 42 O 6.1092 -0.755998 -1.5694 0
M  V30 43 C 3.2412 -1.57997 -3.02076 0
M  V30 44 H 4.4342 -2.58621 -1.51839 0
M  V30 45 H 1.9872 -1.36647 -0.758771 0
M  V30 46 H 2.7222 -0.624913 -3.18222 0
M  V30 47 H 2.5072 -2.39755 -3.10258 0
M  V30 48 H 3.9972 -1.70627 -3.81151 0
M  V30 49 N 4.4343 0.785586 -1.36625 0
M  V30 50 C 5.7113 1.53198 -1.21613 0
M  V30 51 C 6.0913 2.10187 0.196113 0
M  V30 52 O 5.4393 1.94318 1.20219 0
M  V30 53 C 5.6493 2.62388 -2.30116 0
M  V30 54 C 6.9973 3.30167 -2.66974 0
M  V30 55 O 8.0213 2.72674 -2.29188 0
M  V30 56 O 6.8803 4.34077 -3.32023 0
M  V30 57 H 3.9743 0.677865 -0.473738 0
M  V30 58 H 6.5203 0.823739 -1.48367 0
M  V30 59 H 5.2923 2.18299 -3.24748 0
M  V30 60 H 4.9153 3.40827 -2.0475 0
M  V30 61 N 5.9124 1.20967 1.01018 0
M  V30 62 C 7.3284 0.965905 1.27053 0
M  V30 63 C 7.5284 -0.350785 1.98423 0
M  V30 64 O 6.5844 -1.07773 2.28344 0
M  V30 65 C 7.8974 2.15294 2.09926 0
M  V30 66 C 9.4454 2.19463 2.23171 0
M  V30 67 C 9.9204 3.3767 3.09424 0
M  V30 68 N 11.4114 3.37724 3.17012 0
M  V30 69 C 12.1464 4.25837 3.83993 0
M  V30 70 N 11.6424 5.24138 4.53047 0
M  V30 71 N 13.4354 4.1366 3.80581 0
M  V30 72 H 5.5864 2.0565 0.531194 0
M  V30 73 H 7.8494 0.90024 0.297106 0
M  V30 74 H 7.5554 3.10684 1.64828 0
M  V30 75 H 7.4294 2.13923 3.10672 0
M  V30 76 H 9.8164 1.24632 2.6749 0
M  V30 77 H 9.8974 2.2488 1.21912 0
M  V30 78 H 9.5414 4.32791 2.65808 0
M  V30 79 H 9.4714 3.29491 4.10784 0
M  V30 80 H 11.9624 2.6658 2.6785 0
M  V30 81 H 12.2754 5.87684 5.01844 0
M  V30 82 H 10.6204 5.28068 4.5185 0
M  V30 83 H 13.8114 3.36127 3.25785 0
M  V30 84 H 13.9844 4.82538 4.32505 0
M  V30 85 N 7.3905 -1.2043 1.01659 0
M  V30 86 C 8.6365 -1.90356 0.716674 0
M  V30 87 C 8.9915 -1.77367 -0.745557 0
M  V30 88 O 8.2845 -1.1471 -1.53467 0
M  V30 89 C 8.4785 -3.40464 1.08714 0
M  V30 90 C 8.3075 -3.6806 2.58384 0
M  V30 91 C 7.0775 -3.86775 3.25167 0
M  V30 92 C 9.2755 -3.70623 3.56572 0
M  V30 93 N 7.2575 -4.01889 4.64067 0
M  V30 94 C 8.6285 -3.91161 4.81034 0
M  V30 95 C 10.6835 -3.53586 3.50544 0
M  V30 96 C 9.3865 -3.96428 6.00198 0
M  V30 97 C 11.4125 -3.60125 4.6911 0
M  V30 98 C 10.7745 -3.81135 5.92381 0
M  V30 99 H 6.8735 -0.716226 0.313918 0
M  V30 100 H 9.4575 -1.44815 1.30141 0
M  V30 101 H 7.6285 -3.84757 0.530745 0
M  V30 102 H 9.3605 -3.97863 0.740763 0
M  V30 103 H 6.1155 -3.85156 2.75594 0
M  V30 104 H 6.5395 -4.13323 5.36184 0
M  V30 105 H 11.1815 -3.36308 2.56235 0
M  V30 106 H 8.8995 -4.12502 6.94887 0
M  V30 107 H 12.4855 -3.4825 4.66062 0
M  V30 108 H 11.3655 -3.86054 6.82592 0
M  V30 109 N 8.8686 -0.792821 -1.36206 0
M  V30 110 C 9.7986 -0.207853 -2.32573 0
M  V30 111 C 10.7796 0.659055 -1.56813 0
M  V30 112 O 11.9646 0.592176 -1.84951 0
M  V30 113 C 9.0946 0.655449 -3.41059 0
M  V30 114 C 8.0486 -0.111842 -4.27854 0
M  V30 115 C 7.3746 0.872274 -5.27537 0
M  V30 116 C 8.6746 -1.30299 -5.05786 0
M  V30 117 H 10.3686 -1.01294 -2.81744 0
M  V30 118 H 7.9146 -0.48854 -1.3546 0
M  V30 119 H 9.8676 1.07464 -4.07467 0
M  V30 120 H 8.5916 1.49328 -2.90463 0
M  V30 121 H 7.2506 -0.512053 -3.63006 0
M  V30 122 H 6.8986 1.70523 -4.73214 0
M  V30 123 H 6.5986 0.363291 -5.86476 0
M  V30 124 H 8.1226 1.28996 -5.96818 0
M  V30 125 H 9.5366 -0.959379 -5.65216 0
M  V30 126 H 7.9336 -1.7455 -5.74154 0
M  V30 127 H 9.0036 -2.09663 -4.37229 0
M  V30 128 N 10.3467 1.47872 -0.545128 0
M  V30 129 C 11.5937 2.02493 -0.0165858 0
M  V30 130 C 11.9217 1.42073 1.32836 0
M  V30 131 O 11.1767 0.561459 1.87473 0
M  V30 132 C 11.4757 3.57131 0.13867 0
M  V30 133 C 11.1417 4.36411 -1.13384 0
M  V30 134 C 9.8037 4.57792 -1.48256 0
M  V30 135 C 12.1557 4.82223 -1.97764 0
M  V30 136 C 9.4837 5.22233 -2.67376 0
M  V30 137 C 11.8357 5.47977 -3.16076 0
M  V30 138 C 10.4997 5.67593 -3.51275 0
M  V30 139 H 9.7697 0.740975 -0.00606918 0
M  V30 140 H 12.4167 1.77683 -0.714207 0
M  V30 141 H 10.7217 3.80865 0.919172 0
M  V30 142 H 12.4187 3.97031 0.562782 0
M  V30 143 H 9.0087 4.2004 -0.852297 0
M  V30 144 H 13.1927 4.65493 -1.72132 0
M  V30 145 H 8.4487 5.35616 -2.94831 0
M  V30 146 H 12.6227 5.8244 -3.81755 0
M  V30 147 H 10.2497 6.17298 -4.43675 0
M  V30 148 N 11.8248 0.280983 1.55075 0
M  V30 149 C 13.0498 -0.340154 2.04592 0
M  V30 150 C 13.4748 -1.48246 1.15779 0
M  V30 151 O 12.8328 -1.80614 0.15761 0
M  V30 152 C 12.8808 -0.793104 3.5177 0
M  V30 153 O 11.9848 -1.89981 3.66034 0
M  V30 154 H 11.3258 -0.0694289 0.66036 0
M  V30 155 H 13.8558 0.416993 2.00306 0
M  V30 156 H 13.8658 -1.08729 3.93245 0
M  V30 157 H 12.5408 0.0426163 4.15878 0
M  V30 158 H 11.1178 -1.60771 3.36463 0
M  V30 159 N 13.3029 -1.57598 0.00835791 0
M  V30 160 C 14.5309 -1.95214 -0.68549 0
M  V30 161 C 14.9459 -0.883706 -1.66841 0
M  V30 162 O 14.3029 0.136565 -1.81988 0
M  V30 163 C 14.3539 -3.32865 -1.41007 0
M  V30 164 O 14.0749 -4.35609 -0.466552 0
M  V30 165 C 15.5759 -3.84991 -2.19765 0
M  V30 166 H 12.7959 -0.643422 -0.190392 0
M  V30 167 H 15.3399 -2.04406 0.0619607 0
M  V30 168 H 13.4949 -3.24956 -2.10908 0
M  V30 169 H 13.9089 -5.15288 -0.978699 0
M  V30 170 H 15.3829 -4.8371 -2.65948 0
M  V30 171 H 15.8599 -3.18137 -3.02796 0
M  V30 172 H 16.4659 -3.96103 -1.54864 0
M  V30 173 N 14.781 0.264519 -1.55364 0
M  V30 174 C 15.729 1.34702 -1.89626 0
M  V30 175 C 16.723 1.50712 -0.773459 0
M  V30 176 O 17.929 1.52395 -0.957897 0
M  V30 177 H 14.304 0.450682 -0.601988 0
M  V30 178 H 16.275 1.0306 -2.80038 0
M  V30 179 C 15.024 2.6989 -2.19214 0
M  V30 180 H 14.347 2.58365 -3.05103 0
M  V30 181 H 15.787 3.44553 -2.47102 0
M  V30 182 C 14.246 3.21637 -1.00254 0
M  V30 183 O 14.776 4.00973 -0.241501 0
M  V30 184 N 12.982 2.7943 -0.797938 0
M  V30 185 H 12.529 2.15026 -1.4185 0
M  V30 186 H 12.487 3.144 -0.00363422 0
M  V30 187 N 16.2591 1.48442 0.529413 0
M  V30 188 C 17.2091 1.59407 1.63014 0
M  V30 189 C 18.1931 0.451166 1.54445 0
M  V30 190 O 19.3851 0.702635 1.62456 0
M  V30 191 C 16.5141 1.63746 3.01732 0
M  V30 192 C 15.6001 2.83518 3.15402 0
M  V30 193 N 15.9911 4.07929 2.99045 0
M  V30 194 C 14.2891 2.80862 3.46457 0
M  V30 195 C 14.9901 4.8829 3.16146 0
M  V30 196 N 13.9661 4.21117 3.43746 0
M  V30 197 H 17.7681 2.53343 1.48978 0
M  V30 198 H 15.2821 1.44821 0.734885 0
M  V30 199 H 17.2791 1.69695 3.80801 0
M  V30 200 H 15.9391 0.709264 3.16859 0
M  V30 201 H 16.9501 4.38357 2.75796 0
M  V30 202 H 13.6271 1.97301 3.67938 0
M  V30 203 H 15.0171 5.97028 3.08232 0
M  V30 204 N 17.7372 -0.778329 1.37039 0
M  V30 205 C 18.6842 -1.89139 1.32269 0
M  V30 206 C 19.6542 -1.65017 0.189387 0
M  V30 207 O 20.8392 -1.87024 0.377693 0
M  V30 208 C 17.9792 -3.26112 1.12894 0
M  V30 209 C 17.0922 -3.62233 2.35396 0
M  V30 210 C 16.2272 -4.8838 2.08946 0
M  V30 211 C 15.2662 -5.17212 3.2735 0
M  V30 212 N 14.4032 -6.34546 3.00492 0
M  V30 213 H 19.2432 -1.92552 2.27437 0
M  V30 214 H 16.7802 -0.941473 1.13025 0
M  V30 215 H 18.7382 -4.05116 0.996835 0
M  V30 216 H 17.3682 -3.22091 0.213758 0
M  V30 217 H 16.4202 -2.78265 2.5937 0
M  V30 218 H 17.7322 -3.79481 3.23721 0
M  V30 219 H 16.8862 -5.75274 1.92729 0
M  V30 220 H 15.6252 -4.73222 1.17949 0
M  V30 221 H 14.6302 -4.28796 3.44113 0
M  V30 222 H 15.8552 -5.34283 4.19188 0
M  V30 223 H 13.8012 -6.20759 2.12118 0
M  V30 224 H 13.7182 -6.52179 3.82358 0
M  V30 225 H 14.9862 -7.24394 2.87879 0
M  V30 226 N 19.2153 -1.21501 -1.00376 0
M  V30 227 C 20.4923 -0.941745 -1.71437 0
M  V30 228 C 20.8723 0.546114 -2.03914 0
M  V30 229 O 20.2203 1.51128 -1.71384 0
M  V30 230 C 20.4303 -1.82812 -2.97289 0
M  V30 231 C 21.7783 -2.07771 -3.70292 0
M  V30 232 O 22.8023 -1.80171 -3.07273 0
M  V30 233 O 21.6613 -2.54456 -4.83647 0
M  V30 234 H 18.7553 -0.353243 -0.747762 0
M  V30 235 H 21.3013 -1.32436 -1.06108 0
M  V30 236 H 20.0733 -2.83501 -2.69709 0
M  V30 237 H 19.6963 -1.4464 -3.70358 0
M  V30 238 N 20.6934 1.19889 -1.02296 0
M  V30 239 C 21.9424 1.88743 -0.711257 0
M  V30 240 C 22.2554 1.80112 0.762817 0
M  V30 241 O 23.4614 2.44161 1.18733 0
M  V30 242 C 21.9174 3.38525 -1.22185 0
M  V30 243 C 21.5254 3.55727 -2.72328 0
M  V30 244 C 23.2694 4.12893 -0.985864 0
M  V30 245 C 21.1764 4.99369 -3.16835 0
M  V30 246 H 20.1064 0.706885 -0.262353 0
M  V30 247 H 22.7574 1.35586 -1.23648 0
M  V30 248 H 21.1394 3.91044 -0.624571 0
M  V30 249 H 22.3134 3.13564 -3.3766 0
M  V30 250 H 20.6284 2.94739 -2.9414 0
M  V30 251 H 23.2254 5.18813 -1.29374 0
M  V30 252 H 23.5684 4.16228 0.0775055 0
M  V30 253 H 24.1014 3.66494 -1.54684 0
M  V30 254 H 20.8404 5.01193 -4.22476 0
M  V30 255 H 20.3604 5.42317 -2.56228 0
M  V30 256 H 22.0394 5.67988 -3.09837 0
M  V30 257 N 22.1715 0.800033 1.35784 0
M  V30 258 C 23.4195 0.376597 1.9856 0
M  V30 259 C 23.7405 -1.05812 1.63795 0
M  V30 260 O 23.0105 -1.73103 0.917171 0
M  V30 261 H 21.5905 0.136261 0.734467 0
M  V30 262 H 24.2525 1.02442 1.65806 0
M  V30 263 H 23.3485 0.477002 3.08433 0
M  V30 264 N 23.6496 -1.47581 0.552962 0
M  V30 265 C 24.8776 -2.06875 0.0320556 0
M  V30 266 C 25.2926 -1.40625 -1.25976 0
M  V30 267 O 24.6496 -0.501349 -1.75479 0
M  V30 268 C 24.7006 -3.61092 -0.17167 0
M  V30 269 O 24.4216 -4.24858 1.06899 0
M  V30 270 C 25.9226 -4.37242 -0.730344 0
M  V30 271 H 23.1426 -0.669561 0.043915 0
M  V30 272 H 25.6866 -1.89646 0.765163 0
M  V30 273 H 23.8416 -3.7785 -0.854894 0
M  V30 274 H 24.2556 -5.17334 0.864059 0
M  V30 275 H 25.7296 -5.45842 -0.822203 0
M  V30 276 H 26.2066 -4.03235 -1.74064 0
M  V30 277 H 26.8126 -4.25219 -0.0829543 0
M  V30 278 N 25.1277 -0.289203 -1.54924 0
M  V30 279 C 26.0577 0.58549 -2.2604 0
M  V30 280 C 27.0387 1.14753 -1.25562 0
M  V30 281 O 28.2237 1.17906 -1.54311 0
M  V30 282 C 25.3537 1.76305 -2.99222 0
M  V30 283 C 24.3077 1.33191 -4.06748 0
M  V30 284 C 23.6337 2.5937 -4.6758 0
M  V30 285 C 24.9337 0.471775 -5.20165 0
M  V30 286 H 26.6277 -0.00763532 -2.99399 0
M  V30 287 H 24.1737 -0.00511229 -1.43999 0
M  V30 288 H 26.1267 2.38097 -3.47689 0
M  V30 289 H 24.8507 2.38223 -2.23422 0
M  V30 290 H 23.5097 0.737121 -3.59113 0
M  V30 291 H 23.1577 3.19576 -3.88433 0
M  V30 292 H 22.8577 2.31228 -5.40192 0
M  V30 293 H 24.3817 3.21985 -5.18804 0
M  V30 294 H 25.7957 0.995056 -5.64599 0
M  V30 295 H 24.1927 0.284639 -5.99425 0
M  V30 296 H 25.2627 -0.506041 -4.82252 0
M  V30 297 N 26.6058 1.57591 -0.0167156 0
M  V30 298 C 27.8358 1.95292 0.674149 0
M  V30 299 C 28.2438 0.891097 1.66901 0
M  V30 300 O 27.5868 -0.136908 1.83189 0
M  V30 301 C 27.6488 3.29072 1.44747 0
M  V30 302 C 27.3128 4.52879 0.612331 0
M  V30 303 C 28.3098 5.1979 -0.107126 0
M  V30 304 C 25.9948 4.99242 0.553381 0
M  V30 305 C 27.9888 6.31375 -0.874339 0
M  V30 306 C 25.6758 6.10713 -0.217546 0
M  V30 307 C 26.6738 6.76637 -0.930123 0
M  V30 308 O 26.3618 7.85969 -1.68844 0
M  V30 309 H 26.0938 0.648275 0.191615 0
M  V30 310 H 28.6478 2.05284 -0.0690148 0
M  V30 311 H 26.8778 3.15535 2.2355 0
M  V30 312 H 28.5668 3.51764 2.02526 0
M  V30 313 H 29.3328 4.84948 -0.0708392 0
M  V30 314 H 25.2118 4.47744 1.09757 0
M  V30 315 H 28.7558 6.82764 -1.43106 0
M  V30 316 H 24.6528 6.44994 -0.255593 0
M  V30 317 H 25.4208 8.02571 -1.6069 0
M  V30 318 N 28.0839 -0.256276 1.55502 0
M  V30 319 C 29.0139 -1.32102 1.92539 0
M  V30 320 C 29.9949 -1.50684 0.789194 0
M  V30 321 O 31.1799 -1.63449 1.04872 0
M  V30 322 C 28.3099 -2.67752 2.21192 0
M  V30 323 C 27.2639 -2.63878 3.36975 0
M  V30 324 C 26.5899 -4.03236 3.51147 0
M  V30 325 C 27.8899 -2.21682 4.72921 0
M  V30 326 H 29.5839 -1.01351 2.81724 0
M  V30 327 H 27.1299 -0.486105 1.35547 0
M  V30 328 H 29.0829 -3.42365 2.45691 0
M  V30 329 H 27.8069 -3.0012 1.28824 0
M  V30 330 H 26.4659 -1.91722 3.12471 0
M  V30 331 H 26.1139 -4.32854 2.56216 0
M  V30 332 H 25.8139 -4.01535 4.29003 0
M  V30 333 H 27.3379 -4.79563 3.77957 0
M  V30 334 H 28.7519 -2.86023 4.96854 0
M  V30 335 H 27.1489 -2.3111 5.53812 0
M  V30 336 H 28.2189 -1.16833 4.70615 0
M  V30 337 N 29.562 -1.4872 -0.521534 0
M  V30 338 C 30.492 -1.66771 -1.63431 0
M  V30 339 C 31.473 -0.516499 -1.62069 0
M  V30 340 O 32.658 -0.750013 -1.79132 0
M  V30 341 C 29.788 -1.71515 -3.01993 0
M  V30 342 C 28.742 -2.86222 -3.18216 0
M  V30 343 C 28.068 -2.76061 -4.57924 0
M  V30 344 C 29.368 -4.27419 -3.00184 0
M  V30 345 H 31.062 -2.59932 -1.48579 0
M  V30 346 H 28.608 -1.25089 -0.713358 0
M  V30 347 H 30.561 -1.82731 -3.7972 0
M  V30 348 H 29.285 -0.749393 -3.17886 0
M  V30 349 H 27.944 -2.74575 -2.42908 0
M  V30 350 H 27.592 -1.77437 -4.70665 0
M  V30 351 H 27.292 -3.53037 -4.69722 0
M  V30 352 H 28.816 -2.89256 -5.37739 0
M  V30 353 H 30.23 -4.39855 -3.67697 0
M  V30 354 H 28.627 -5.05458 -3.2347 0
M  V30 355 H 29.697 -4.43293 -1.96518 0
M  V30 356 N 31.0401 0.771051 -1.3745 0
M  V30 357 C 32.2871 1.52963 -1.32697 0
M  V30 358 C 32.6151 1.94299 0.0883274 0
M  V30 359 O 31.8701 1.64397 1.0617 0
M  V30 360 C 32.1691 2.80676 -2.2126 0
M  V30 361 C 31.8351 2.58389 -3.69521 0
M  V30 362 C 30.4971 2.52019 -4.09927 0
M  V30 363 C 32.8491 2.38469 -4.63446 0
M  V30 364 C 30.1771 2.23721 -5.42371 0
M  V30 365 C 32.5291 2.11694 -5.96128 0
M  V30 366 C 31.1931 2.03769 -6.35637 0
M  V30 367 H 30.4631 0.559732 -0.485573 0
M  V30 368 H 33.1101 0.888083 -1.69662 0
M  V30 369 H 31.4151 3.49392 -1.77291 0
M  V30 370 H 33.1121 3.38557 -2.14895 0
M  V30 371 H 29.7021 2.6421 -3.37478 0
M  V30 372 H 33.8861 2.4238 -4.33089 0
M  V30 373 H 29.1421 2.16081 -5.71943 0
M  V30 374 H 33.3161 1.9528 -6.6846 0
M  V30 375 H 30.9431 1.81606 -7.38189 0
M  V30 376 N 32.5182 1.22032 0.997298 0
M  V30 377 C 33.7662 1.04016 1.73278 0
M  V30 378 C 34.0872 -0.426255 1.90284 0
M  V30 379 O 33.3572 -1.30694 1.45931 0
M  V30 380 H 31.9372 0.381897 0.642 0
M  V30 381 H 34.5992 1.5347 1.20137 0
M  V30 382 H 33.6952 1.51441 2.72896 0
M  V30 383 N 33.9963 -1.19345 1.0293 0
M  V30 384 C 34.9593 -2.20793 0.615069 0
M  V30 385 C 35.9593 -1.57553 -0.321533 0
M  V30 386 O 37.1493 -1.73862 -0.108483 0
M  V30 387 C 34.2813 -3.40754 -0.0999222 0
M  V30 388 H 35.4743 -2.58955 1.51269 0
M  V30 389 H 33.0273 -1.3303 0.820534 0
M  V30 390 H 33.7623 -3.0811 -1.01187 0
M  V30 391 H 33.5473 -3.87889 0.57309 0
M  V30 392 H 35.0373 -4.15898 -0.376645 0
M  V30 393 N 35.4744 -0.807222 -1.35358 0
M  V30 394 C 36.7204 -0.397594 -1.99476 0
M  V30 395 C 37.0754 1.02405 -1.62883 0
M  V30 396 O 36.3684 1.70077 -0.882282 0
M  V30 397 C 36.5624 -0.519036 -3.53611 0
M  V30 398 C 36.3914 -1.95094 -4.05177 0
M  V30 399 C 35.1614 -2.57945 -4.34503 0
M  V30 400 C 37.3594 -2.91558 -4.23673 0
M  V30 401 N 35.3414 -3.92539 -4.72003 0
M  V30 402 C 36.7124 -4.11024 -4.64176 0
M  V30 403 C 38.7674 -2.88381 -4.05883 0
M  V30 404 C 37.4704 -5.27745 -4.88751 0
M  V30 405 C 39.4964 -4.04306 -4.31614 0
M  V30 406 C 38.8584 -5.22519 -4.72391 0
M  V30 407 H 34.9574 -0.193274 -0.75774 0
M  V30 408 H 37.5414 -1.0486 -1.6405 0
M  V30 409 H 35.7124 0.101979 -3.88266 0
M  V30 410 H 37.4444 -0.0839321 -4.04613 0
M  V30 411 H 34.1994 -2.09295 -4.24844 0
M  V30 412 H 34.6234 -4.61836 -4.95011 0
M  V30 413 H 39.2654 -1.98137 -3.73499 0
M  V30 414 H 36.9834 -6.1856 -5.20008 0
M  V30 415 H 40.5694 -4.03229 -4.19402 0
M  V30 416 H 39.4494 -6.1073 -4.91913 0
M  V30 417 N 36.9525 1.47285 -0.560781 0
M  V30 418 C 37.9155 2.28535 0.174488 0
M  V30 419 C 38.9155 1.37153 0.839388 0
M  V30 420 O 40.1055 1.59748 0.694702 0
M  V30 421 C 37.2375 3.16934 1.25561 0
M  V30 422 H 38.4305 2.95012 -0.539262 0
M  V30 423 H 35.9835 1.53034 -0.317865 0
M  V30 424 H 36.7185 2.55157 2.00164 0
M  V30 425 H 36.5035 3.8419 0.783604 0
M  V30 426 H 37.9935 3.78143 1.77193 0
M  V30 427 N 38.4306 0.297415 1.54768 0
M  V30 428 C 39.6786 -0.312295 1.99673 0
M  V30 429 C 39.9996 -1.54686 1.18732 0
M  V30 430 O 39.2696 -1.93854 0.282382 0
M  V30 431 H 37.8496 -0.118381 0.73756 0
M  V30 432 H 40.5116 0.407915 1.90583 0
M  V30 433 H 39.6076 -0.586813 3.06534 0
M  V30 434 N 39.9087 -1.5758 0.0250728 0
M  V30 435 C 41.1547 -1.91917 -0.655413 0
M  V30 436 C 41.4877 -0.901433 -1.72011 0
M  V30 437 O 40.7627 0.0764069 -1.9435 0
M  V30 438 C 41.0457 -3.36751 -1.27558 0
M  V30 439 C 40.8987 -4.49258 -0.220719 0
M  V30 440 C 42.2177 -3.81469 -2.19475 0
M  V30 441 H 39.3367 -0.697925 -0.23679 0
M  V30 442 H 41.9787 -1.89825 0.0815036 0
M  V30 443 H 40.1287 -3.38664 -1.90365 0
M  V30 444 H 41.8007 -4.59478 0.409601 0
M  V30 445 H 40.0437 -4.31415 0.454264 0
M  V30 446 H 40.7147 -5.47618 -0.694175 0
M  V30 447 H 43.1907 -3.81266 -1.66659 0
M  V30 448 H 42.0667 -4.83512 -2.59822 0
M  V30 449 H 42.3277 -3.16744 -3.08424 0
M  V30 450 N 41.3868 0.248026 -1.55636 0
M  V30 451 C 42.3168 1.31079 -1.93237 0
M  V30 452 C 43.2978 1.50264 -0.797174 0
M  V30 453 O 44.4828 1.62891 -1.05737 0
M  V30 454 C 41.6128 2.66575 -2.22609 0
M  V30 455 C 40.5668 2.62087 -3.3837 0
M  V30 456 C 39.8928 4.01369 -3.53281 0
M  V30 457 C 41.1928 2.19171 -4.7409 0
M  V30 458 H 42.8868 0.998556 -2.82257 0
M  V30 459 H 40.4328 0.47891 -1.35803 0
M  V30 460 H 42.3858 3.41057 -2.47503 0
M  V30 461 H 41.1098 2.99432 -1.30414 0
M  V30 462 H 39.7688 1.90063 -3.13483 0
M  V30 463 H 39.4168 4.31489 -2.58508 0
M  V30 464 H 39.1168 3.99254 -4.31127 0
M  V30 465 H 40.6408 4.77552 -3.80495 0
M  V30 466 H 42.0548 2.83384 -4.98363 0
M  V30 467 H 40.4518 2.2817 -5.5503 0
M  V30 468 H 41.5218 1.14336 -4.71227 0
M  V30 469 N 42.8649 1.48995 0.513639 0
M  V30 470 C 44.1129 1.57531 1.26604 0
M  V30 471 C 44.4339 0.258236 1.93283 0
M  V30 472 O 43.7039 -0.721502 1.8213 0
M  V30 473 H 42.2839 0.580387 0.470276 0
M  V30 474 H 44.9459 1.85552 0.596373 0
M  V30 475 H 44.0419 2.36486 2.03669 0
M  V30 476 N 44.343 -0.763751 1.37857 0
M  V30 477 C 45.571 -1.55293 1.36718 0
M  V30 478 C 45.986 -1.88745 -0.0455434 0
M  V30 479 O 45.343 -1.52039 -1.00947 0
M  V30 480 C 45.394 -2.85831 2.2132 0
M  V30 481 O 45.115 -2.5381 3.57089 0
M  V30 482 C 46.616 -3.80023 2.28249 0
M  V30 483 H 43.836 -0.480841 0.468009 0
M  V30 484 H 46.38 -0.946009 1.81303 0
M  V30 485 H 44.535 -3.42926 1.80223 0
M  V30 486 H 44.949 -3.37459 4.01524 0
M  V30 487 H 46.423 -4.68599 2.91752 0
M  V30 488 H 46.9 -4.1973 1.2932 0
M  V30 489 H 47.506 -3.28855 2.69693 0
M  V30 490 N 45.8211 -1.22559 -0.990812 0
M  V30 491 C 46.7841 -0.998863 -2.0629 0
M  V30 492 C 47.7841 0.0354834 -1.60761 0
M  V30 493 O 48.9741 -0.203231 -1.7301 0
M  V30 494 C 46.1061 -0.509203 -3.37076 0
M  V30 495 H 47.2991 -1.95014 -2.27837 0
M  V30 496 H 44.8521 -1.04456 -1.16269 0
M  V30 497 H 45.5871 0.446335 -3.21214 0
M  V30 498 H 45.3721 -1.25547 -3.71457 0
M  V30 499 H 46.8621 -0.370888 -4.1595 0
M  V30 500 N 47.2992 1.18797 -1.03562 0
M  V30 501 C 48.2292 2.24472 -0.643019 0
M  V30 502 C 49.2102 1.66433 0.351283 0
M  V30 503 O 50.3952 1.92803 0.232505 0
M  V30 504 C 47.5252 3.473 4.24935e-05 0
M  V30 505 C 46.4792 4.18055 -0.917257 0
M  V30 506 C 45.8052 5.34519 -0.138941 0
M  V30 507 C 47.1052 4.72109 -2.23407 0
M  V30 508 H 48.7992 2.57566 -1.52643 0
M  V30 509 H 46.3452 1.23806 -0.735394 0
M  V30 510 H 48.2982 4.20426 0.286383 0
M  V30 511 H 47.0222 3.13424 0.918299 0
M  V30 512 H 45.6812 3.46821 -1.1879 0
M  V30 513 H 45.3292 4.96891 0.781562 0
M  V30 514 H 45.0292 5.82794 -0.750005 0
M  V30 515 H 46.5532 6.10438 0.1405 0
M  V30 516 H 47.9672 5.36955 -2.00879 0
M  V30 517 H 46.3642 5.30897 -2.79765 0
M  V30 518 H 47.4342 3.89807 -2.88407 0
M  V30 519 N 48.7773 0.814389 1.34928 0
M  V30 520 C 50.0023 0.410097 2.03305 0
M  V30 521 C 50.4273 -0.973464 1.60951 0
M  V30 522 O 49.7853 -1.63185 0.789964 0
M  V30 523 C 49.8333 0.51049 3.56968 0
M  V30 524 O 48.9373 -0.473035 4.09678 0
M  V30 525 H 48.2783 0.170088 0.641846 0
M  V30 526 H 50.8083 1.10244 1.72358 0
M  V30 527 H 50.8183 0.383135 4.06197 0
M  V30 528 H 49.4933 1.51963 3.87144 0
M  V30 529 H 48.0703 -0.305272 3.71648 0
M  V30 530 N 50.2554 -1.46986 0.568584 0
M  V30 531 C 51.1854 -2.32946 -0.160753 0
M  V30 532 C 52.1664 -1.44487 -0.897631 0
M  V30 533 O 53.3514 -1.73327 -0.875867 0
M  V30 534 C 50.4814 -3.26494 -1.18403 0
M  V30 535 C 49.4354 -4.24282 -0.562895 0
M  V30 536 C 48.7614 -5.07236 -1.69163 0
M  V30 537 C 50.0614 -5.19989 0.490761 0
M  V30 538 H 51.7554 -2.94175 0.556916 0
M  V30 539 H 49.3014 -1.4146 0.26927 0
M  V30 540 H 51.2544 -3.85477 -1.70251 0
M  V30 541 H 49.9784 -2.63343 -1.93179 0
M  V30 542 H 48.6374 -3.66541 -0.0656164 0
M  V30 543 H 48.2854 -4.4048 -2.42871 0
M  V30 544 H 47.9854 -5.7345 -1.28174 0
M  V30 545 H 49.5094 -5.6908 -2.21314 0
M  V30 546 H 50.9234 -5.73271 0.0579047 0
M  V30 547 H 49.3204 -5.94469 0.820165 0
M  V30 548 H 50.3904 -4.64777 1.3824 0
M  V30 549 N 51.7335 -0.305618 -1.54608 0
M  V30 550 C 52.6635 0.561482 -2.26649 0
M  V30 551 C 53.6445 1.13415 -1.26772 0
M  V30 552 O 54.8295 1.16262 -1.55553 0
M  V30 553 C 51.9595 1.73122 -3.01075 0
M  V30 554 C 50.9135 1.2887 -4.08138 0
M  V30 555 C 50.2395 2.54396 -4.70305 0
M  V30 556 C 51.5395 0.416578 -5.20636 0
M  V30 557 H 53.2335 -0.0393902 -2.99374 0
M  V30 558 H 50.7795 -0.020385 -1.43986 0
M  V30 559 H 52.7325 2.34396 -3.50195 0
M  V30 560 H 51.4565 2.3584 -2.25936 0
M  V30 561 H 50.1155 0.698991 -3.59875 0
M  V30 562 H 49.7635 3.15439 -3.918 0
M  V30 563 H 49.4635 2.25486 -5.42614 0
M  V30 564 H 50.9875 3.16464 -5.2219 0
M  V30 565 H 52.4015 0.935116 -5.65622 0
M  V30 566 H 50.7985 0.221046 -5.99693 0
M  V30 567 H 51.8685 -0.557162 -4.81688 0
M  V30 568 N 53.2116 1.57565 -0.0334293 0
M  V30 569 C 54.4606 1.91155 0.643639 0
M  V30 570 C 54.7736 0.91192 1.73042 0
M  V30 571 O 55.9796 1.13923 2.46442 0
M  V30 572 C 54.4356 3.39443 1.1961 0
M  V30 573 C 54.0436 4.47774 0.142381 0
M  V30 574 C 55.7876 3.82094 1.84944 0
M  V30 575 C 53.6946 5.87162 0.706727 0
M  V30 576 H 52.6246 0.713368 0.244176 0
M  V30 577 H 55.2756 1.8323 -0.0994323 0
M  V30 578 H 53.6576 3.42313 1.99092 0
M  V30 579 H 54.8316 4.56469 -0.630296 0
M  V30 580 H 53.1466 4.14352 -0.412446 0
M  V30 581 H 55.7436 4.83591 2.2813 0
M  V30 582 H 56.0866 3.17386 2.69392 0
M  V30 583 H 56.6196 3.81665 1.12145 0
M  V30 584 H 53.3586 6.55424 -0.0997178 0
M  V30 585 H 52.8786 5.82064 1.44779 0
M  V30 586 H 54.5576 6.35866 1.19514 0
M  V30 587 N 54.6897 -0.239769 1.55765 0
M  V30 588 C 56.1057 -0.588624 1.48349 0
M  V30 589 C 56.3057 -1.88005 0.72502 0
M  V30 590 O 55.3617 -2.51186 0.257269 0
M  V30 591 C 56.6747 -0.68474 2.928 0
M  V30 592 C 58.2227 -0.77659 3.03213 0
M  V30 593 C 58.6977 -0.904207 4.48986 0
M  V30 594 N 60.1887 -0.968896 4.52953 0
M  V30 595 C 60.9237 -1.08703 5.63002 0
M  V30 596 N 60.4197 -1.17026 6.82845 0
M  V30 597 N 62.2127 -1.12074 5.50814 0
M  V30 598 H 54.3637 0.607911 2.03515 0
M  V30 599 H 56.6267 0.21083 0.924259 0
M  V30 600 H 56.3327 0.194284 3.51163 0
M  V30 601 H 56.2067 -1.55435 3.43686 0
M  V30 602 H 58.5937 -1.64606 2.44926 0
M  V30 603 H 58.6747 0.118315 2.55526 0
M  V30 604 H 58.3187 -0.0392633 5.07885 0
M  V30 605 H 58.2487 -1.81426 4.9436 0
M  V30 606 H 60.7397 -0.915633 3.6664 0
M  V30 607 H 61.0527 -1.25966 7.62465 0
M  V30 608 H 59.3977 -1.13971 6.85591 0
M  V30 609 H 62.5887 -1.05226 4.5612 0
M  V30 610 H 62.7617 -1.20936 6.36615 0
M  V30 611 N 56.1678 -1.49265 -0.50573 0
M  V30 612 C 57.1308 -1.65075 -1.59006 0
M  V30 613 C 58.1308 -0.522768 -1.52065 0
M  V30 614 O 59.3208 -0.789117 -1.55302 0
M  V30 615 C 56.4528 -1.64369 -2.98656 0
M  V30 616 H 57.6458 -2.61784 -1.46319 0
M  V30 617 H 55.1988 -1.38226 -0.729616 0
M  V30 618 H 55.9338 -0.692272 -3.16825 0
M  V30 619 H 55.7188 -2.46282 -3.05103 0
M  V30 620 H 57.2088 -1.78674 -3.77446 0
M  V30 621 N 57.6459 0.756429 -1.3826 0
M  V30 622 C 58.5559 1.9009 -1.37488 0
M  V30 623 C 59.5719 1.71855 -0.272366 0
M  V30 624 O 60.7479 1.94827 -0.510318 0
M  V30 625 C 57.8129 3.25421 -1.19592 0
M  V30 626 C 56.8739 3.56202 -2.39622 0
M  V30 627 C 56.1069 4.85075 -2.2257 0
M  V30 628 O 56.3299 5.57246 -1.21793 0
M  V30 629 O 55.2639 5.15269 -3.11098 0
M  V30 630 H 59.0899 1.93695 -2.33914 0
M  V30 631 H 56.6749 0.901313 -1.1915 0
M  V30 632 H 58.5569 4.06337 -1.11661 0
M  V30 633 H 57.2319 3.22634 -0.262486 0
M  V30 634 H 56.1389 2.75458 -2.53128 0
M  V30 635 H 57.4719 3.63747 -3.31586 0
M  V30 636 N 59.124 1.23083 0.984299 0
M  V30 637 C 60.054 1.03292 2.09411 0
M  V30 638 C 61.035 -0.048923 1.7003 0
M  V30 639 O 62.22 0.114967 1.93859 0
M  V30 640 C 59.35 0.619155 3.41736 0
M  V30 641 C 58.304 1.64791 3.95004 0
M  V30 642 C 57.63 1.0897 5.23478 0
M  V30 643 C 58.93 3.03999 4.24714 0
M  V30 644 H 60.624 1.96119 2.26225 0
M  V30 645 H 58.17 0.944344 1.08711 0
M  V30 646 H 60.123 0.467777 4.18796 0
M  V30 647 H 58.847 -0.344786 3.24775 0
M  V30 648 H 57.506 1.78721 3.20085 0
M  V30 649 H 57.154 0.11686 5.02864 0
M  V30 650 H 56.854 1.77704 5.60085 0
M  V30 651 H 58.378 0.950093 6.03163 0
M  V30 652 H 59.792 2.93393 4.92538 0
M  V30 653 H 58.189 3.69936 4.72512 0
M  V30 654 H 59.259 3.53285 3.32142 0
M  V30 655 N 60.6021 -1.18246 1.0419 0
M  V30 656 C 61.8501 -1.87886 0.744543 0
M  V30 657 C 62.1711 -1.8082 -0.730006 0
M  V30 658 O 61.4411 -1.22736 -1.52685 0
M  V30 659 H 60.0211 -0.695556 0.272417 0
M  V30 660 H 62.6831 -1.43494 1.31892 0
M  V30 661 H 61.7791 -2.9389 1.05049 0
M  V30 662 N 62.0802 -0.821533 -1.34494 0
M  V30 663 C 63.0122 -0.199946 -2.28326 0
M  V30 664 C 64.0252 0.609377 -1.50965 0
M  V30 665 O 65.2142 0.439285 -1.7301 0
M  V30 666 C 62.3142 0.738431 -3.30757 0
M  V30 667 C 61.4872 -0.0277632 -4.37391 0
M  V30 668 C 60.5462 0.831332 -5.19591 0
M  V30 669 O 59.5722 0.276822 -5.68526 0
M  V30 670 N 60.7742 2.15132 -5.39165 0
M  V30 671 H 63.5392 -1.00609 -2.82308 0
M  V30 672 H 61.1002 -0.678366 -1.47003 0
M  V30 673 H 63.0922 1.31773 -3.82646 0
M  V30 674 H 61.6622 1.44533 -2.7718 0
M  V30 675 H 60.8822 -0.788359 -3.86236 0
M  V30 676 H 62.1702 -0.555251 -5.05761 0
M  V30 677 H 61.5682 2.62559 -5.01078 0
M  V30 678 H 60.1252 2.6795 -5.94177 0
M  V30 679 N 63.5583 1.46682 -0.576371 0
M  V30 680 C 64.9693 1.86112 -0.148091 0
M  V30 681 C 65.3203 1.48073 1.2872 0
M  V30 682 O 64.4453 0.892656 1.97131 0
M  V30 683 C 65.0403 3.37786 -0.261982 0
M  V30 684 C 63.5993 3.76235 0.111384 0
M  V30 685 C 62.7463 2.70713 -0.60083 0
M  V30 686 H 65.6973 1.37927 -0.78497 0
M  V30 687 H 65.7183 3.77007 0.514364 0
M  V30 688 H 65.2303 3.6544 -1.30671 0
M  V30 689 H 63.3313 3.54198 1.15649 0
M  V30 690 H 63.4443 4.78391 -0.26052 0
M  V30 691 H 61.8083 2.54666 -0.0417783 0
M  V30 692 H 62.5913 3.01208 -1.64708 0
M  V30 693 N 65.0364 0.313813 1.54444 0
M  V30 694 C 66.2844 -0.291099 1.99993 0
M  V30 695 C 66.6054 -1.53418 1.20366 0
M  V30 696 O 65.8754 -1.93544 0.302927 0
M  V30 697 H 64.4554 -0.110552 0.738774 0
M  V30 698 H 67.1174 0.428106 1.9014 0
M  V30 699 H 66.2134 -0.554268 3.07139 0
M  V30 700 N 66.5145 -1.57545 0.0417849 0
M  V30 701 C 67.4625 -2.12148 -0.953723 0
M  V30 702 C 68.4565 -1.05104 -1.32852 0
M  V30 703 O 69.6625 -1.23524 -1.30927 0
M  V30 704 H 66.0375 -0.677957 -0.325389 0
M  V30 705 H 68.0085 -2.94707 -0.467991 0
M  V30 706 C 66.7575 -2.6739 -2.22257 0
M  V30 707 H 66.0805 -3.49413 -1.94295 0
M  V30 708 H 67.5205 -3.09227 -2.90094 0
M  V30 709 C 65.9795 -1.60723 -2.96091 0
M  V30 710 O 66.5095 -1.01449 -3.88679 0
M  V30 711 N 64.7155 -1.32466 -2.58652 0
M  V30 712 H 64.2625 -1.80856 -1.83437 0
M  V30 713 H 64.2205 -0.61325 -3.08361 0
M  V30 714 N 67.9926 0.231505 -1.5589 0
M  V30 715 C 68.9226 1.29022 -1.94617 0
M  V30 716 C 69.9036 1.4941 -0.813067 0
M  V30 717 O 71.0886 1.6176 -1.07459 0
M  V30 718 C 68.2186 2.64199 -2.25424 0
M  V30 719 C 67.1726 2.58484 -3.41131 0
M  V30 720 C 66.4986 3.97599 -3.57518 0
M  V30 721 C 67.7986 2.1413 -4.76388 0
M  V30 722 H 69.4926 0.968563 -2.83301 0
M  V30 723 H 67.0386 0.464479 -1.36303 0
M  V30 724 H 68.9916 3.38413 -2.51107 0
M  V30 725 H 67.7156 2.98032 -1.33583 0
M  V30 726 H 66.3746 1.86727 -3.15481 0
M  V30 727 H 66.0226 4.28723 -2.6307 0
M  V30 728 H 65.7226 3.94659 -4.35337 0
M  V30 729 H 67.2466 4.7349 -3.85538 0
M  V30 730 H 68.6606 2.78083 -5.01341 0
M  V30 731 H 67.0576 2.2227 -5.57419 0
M  V30 732 H 68.1276 1.09331 -4.72414 0
M  V30 733 N 69.4707 1.49531 0.497807 0
M  V30 734 C 70.4007 1.6935 1.60757 0
M  V30 735 C 71.3817 0.542218 1.61227 0
M  V30 736 O 72.5667 0.778417 1.77917 0
M  V30 737 C 69.6967 1.76298 2.99226 0
M  V30 738 C 68.6507 2.91248 3.13622 0
M  V30 739 C 67.9767 2.83312 4.53474 0
M  V30 740 C 69.2767 4.3214 2.93346 0
M  V30 741 H 70.9707 2.62263 1.44425 0
M  V30 742 H 68.5167 1.26208 0.693367 0
M  V30 743 H 70.4697 1.88749 3.76765 0
M  V30 744 H 69.1937 0.799871 3.16654 0
M  V30 745 H 67.8527 2.78404 2.38509 0
M  V30 746 H 67.5007 1.84902 4.67782 0
M  V30 747 H 67.2007 3.60465 4.64046 0
M  V30 748 H 68.7247 2.97775 5.33069 0
M  V30 749 H 70.1387 4.45649 3.60652 0
M  V30 750 H 68.5357 5.1054 3.15387 0
M  V30 751 H 69.6057 4.46363 1.89441 0
M  V30 752 N 70.9488 -0.749086 1.3866 0
M  V30 753 C 72.1968 -1.50535 1.34847 0
M  V30 754 C 72.5178 -1.94909 -0.0595016 0
M  V30 755 O 71.7878 -1.67973 -1.00806 0
M  V30 756 H 70.3678 -0.558395 0.49619 0
M  V30 757 H 73.0298 -0.890165 1.73384 0
M  V30 758 H 72.1258 -2.39413 2.00219 0
M  V30 759 N 72.4269 -1.23603 -0.977757 0
M  V30 760 C 73.3749 -1.01704 -2.09187 0
M  V30 761 C 74.3689 0.0448214 -1.69341 0
M  V30 762 O 75.5749 -0.108902 -1.7967 0
M  V30 763 H 71.9499 -0.311803 -0.684312 0
M  V30 764 H 73.9209 -1.96207 -2.24823 0
M  V30 765 C 72.6699 -0.627746 -3.41986 0
M  V30 766 H 71.9929 -1.43656 -3.73099 0
M  V30 767 H 73.4329 -0.514053 -4.20872 0
M  V30 768 C 71.8919 0.664238 -3.30287 0
M  V30 769 O 72.4219 1.71268 -3.6336 0
M  V30 770 N 70.6279 0.641156 -2.83439 0
M  V30 771 H 70.1749 -0.212376 -2.56723 0
M  V30 772 H 70.1329 1.50583 -2.75993 0
M  V30 773 N 73.905 1.17692 -1.04816 0
M  V30 774 C 75.182 1.83768 -0.669963 0
M  V30 775 C 75.562 1.93232 0.849986 0
M  V30 776 O 74.91 1.46397 1.75443 0
M  V30 777 C 75.12 3.21641 -1.35455 0
M  V30 778 C 76.468 3.97592 -1.49017 0
M  V30 779 O 77.492 3.31107 -1.31326 0
M  V30 780 O 76.351 5.16729 -1.77914 0
M  V30 781 H 73.445 0.792799 -0.235368 0
M  V30 782 H 75.991 1.25021 -1.14751 0
M  V30 783 H 74.763 3.097 -2.39168 0
M  V30 784 H 74.386 3.88052 -0.866107 0
M  V30 785 N 75.3831 0.828654 1.34056 0
M  V30 786 C 76.3331 0.226828 2.26869 0
M  V30 787 C 77.3171 -0.612243 1.48796 0
M  V30 788 O 78.5091 -0.465884 1.70759 0
M  V30 789 C 75.6381 -0.605654 3.37915 0
M  V30 790 C 74.7241 0.244361 4.23395 0
M  V30 791 N 75.1151 1.31815 4.88322 0
M  V30 792 C 73.4131 0.0296616 4.4599 0
M  V30 793 C 74.1141 1.83895 5.51867 0
M  V30 794 N 73.0901 1.14196 5.3147 0
M  V30 795 H 76.8921 1.04811 2.74576 0
M  V30 796 H 74.4061 0.67205 1.47842 0
M  V30 797 H 76.4031 -1.05302 4.03382 0
M  V30 798 H 75.0631 -1.42504 2.91758 0
M  V30 799 H 76.0741 1.70099 4.8917 0
M  V30 800 H 72.7511 -0.757097 4.10578 0
M  V30 801 H 74.1411 2.7376 6.136 0
M  V30 802 N 76.8612 -1.46375 0.584142 0
M  V30 803 C 78.1102 -2.01585 0.0679741 0
M  V30 804 C 78.4232 -1.46109 -1.30045 0
M  V30 805 O 79.6292 -1.93148 -1.90804 0
M  V30 806 C 78.0852 -3.5983 0.0709207 0
M  V30 807 C 77.6932 -4.24303 1.43775 0
M  V30 808 C 79.4372 -4.22693 -0.391228 0
M  V30 809 C 77.3442 -5.74631 1.39834 0
M  V30 810 H 76.2742 -0.753689 0.0216421 0
M  V30 811 H 78.9252 -1.68093 0.736001 0
M  V30 812 H 77.3072 -3.90405 -0.663299 0
M  V30 813 H 78.4812 -4.05335 2.19181 0
M  V30 814 H 76.7962 -3.73539 1.84004 0
M  V30 815 H 79.3932 -5.3289 -0.439524 0
M  V30 816 H 79.7362 -3.91728 -1.40906 0
M  V30 817 H 80.2692 -3.96749 0.288974 0
M  V30 818 H 77.0082 -6.10258 2.39303 0
M  V30 819 H 76.5282 -5.95858 0.686505 0
M  V30 820 H 78.2072 -6.37375 1.11187 0
M  V30 821 N 78.3393 -0.321999 -1.54275 0
M  V30 822 C 79.5693 0.282642 -2.04658 0
M  V30 823 C 79.9773 1.46453 -1.19784 0
M  V30 824 O 79.3203 1.82367 -0.220932 0
M  V30 825 C 79.3823 0.781857 -3.50895 0
M  V30 826 C 79.0463 -0.277517 -4.56157 0
M  V30 827 C 80.0433 -1.11307 -5.07845 0
M  V30 828 C 77.7283 -0.425256 -5.00497 0
M  V30 829 C 79.7223 -2.08211 -6.02434 0
M  V30 830 C 77.4093 -1.39771 -5.94901 0
M  V30 831 C 78.4073 -2.2246 -6.45756 0
M  V30 832 O 78.0953 -3.18054 -7.38307 0
M  V30 833 H 77.8273 0.0622636 -0.673126 0
M  V30 834 H 80.3813 -0.465792 -2.00049 0
M  V30 835 H 78.6113 1.58118 -3.52896 0
M  V30 836 H 80.3003 1.30467 -3.84361 0
M  V30 837 H 81.0663 -1.00991 -4.74369 0
M  V30 838 H 76.9453 0.20847 -4.60528 0
M  V30 839 H 80.4893 -2.72791 -6.42052 0
M  V30 840 H 76.3863 -1.50152 -6.27794 0
M  V30 841 H 77.1543 -3.13275 -7.56175 0
M  V30 842 N 79.8174 1.5752 -0.0501392 0
M  V30 843 C 80.7654 2.12651 0.942459 0
M  V30 844 C 81.7594 1.05807 1.32292 0
M  V30 845 O 82.9654 1.24217 1.3027 0
M  V30 846 H 79.3404 0.679673 0.321789 0
M  V30 847 H 81.3114 2.94951 0.452356 0
M  V30 848 C 80.0604 2.68565 2.20836 0
M  V30 849 H 79.3834 3.50439 1.92439 0
M  V30 850 H 80.8234 3.10761 2.8845 0
M  V30 851 C 79.2824 1.62291 2.95234 0
M  V30 852 O 79.8124 1.03508 3.88135 0
M  V30 853 N 78.0184 1.33836 2.57946 0
M  V30 854 H 77.5654 1.81826 1.82475 0
M  V30 855 H 77.5234 0.629595 3.08032 0
M  V30 856 N 81.2955 -0.223234 1.56011 0
M  V30 857 C 82.5415 -0.949279 1.79211 0
M  V30 858 C 82.8745 -1.84054 0.619494 0
M  V30 859 O 82.1495 -1.90726 -0.381317 0
M  V30 860 C 82.4325 -1.78965 3.12479 0
M  V30 861 C 82.2855 -0.924997 4.40186 0
M  V30 862 C 83.6045 -2.76774 3.42175 0
M  V30 863 H 80.7235 -0.343676 0.651963 0
M  V30 864 H 83.3655 -0.218253 1.88742 0
M  V30 865 H 81.5155 -2.41291 3.04485 0
M  V30 866 H 83.1875 -0.318615 4.60198 0
M  V30 867 H 81.4305 -0.230344 4.33188 0
M  V30 868 H 82.1015 -1.54735 5.29869 0
M  V30 869 H 84.5775 -2.24584 3.50287 0
M  V30 870 H 83.4535 -3.32678 4.36597 0
M  V30 871 H 83.7145 -3.54429 2.64258 0
M  V30 872 N 82.7736 -1.49793 -0.48987 0
M  V30 873 C 84.0226 -1.59085 -1.23995 0
M  V30 874 C 84.3356 -0.287907 -1.9347 0
M  V30 875 O 85.5416 -0.259506 -2.70257 0
M  V30 876 C 83.9976 -2.80736 -2.252 0
M  V30 877 C 83.6056 -4.17833 -1.61614 0
M  V30 878 C 85.3496 -2.99364 -3.00967 0
M  V30 879 C 83.2566 -5.30693 -2.60996 0
M  V30 880 H 82.1866 -0.592372 -0.466488 0
M  V30 881 H 84.8376 -1.76197 -0.51252 0
M  V30 882 H 83.2196 -2.57142 -3.01154 0
M  V30 883 H 84.3936 -4.51608 -0.915774 0
M  V30 884 H 82.7086 -4.04656 -0.981977 0
M  V30 885 H 85.3056 -3.80851 -3.75308 0
M  V30 886 H 85.6486 -2.10356 -3.59244 0
M  V30 887 H 86.1816 -3.2305 -2.32128 0
M  V30 888 H 82.9206 -6.21796 -2.07485 0
M  V30 889 H 82.4406 -5.01359 -3.2924 0
M  V30 890 H 84.1196 -5.6049 -3.23202 0
M  V30 891 N 84.2517 0.741722 -1.39055 0
M  V30 892 C 85.4977 1.50336 -1.36113 0
M  V30 893 C 85.8307 1.94148 0.0450796 0
M  V30 894 O 85.1057 1.66301 1.00868 0
M  V30 895 C 85.3887 2.74773 -2.32749 0
M  V30 896 C 85.2417 2.37023 -3.82283 0
M  V30 897 C 86.5607 3.76846 -2.27322 0
M  V30 898 H 83.6797 0.545351 -0.495743 0
M  V30 899 H 86.3217 0.848624 -1.69995 0
M  V30 900 H 84.4717 3.30639 -2.03986 0
M  V30 901 H 86.1437 1.8684 -4.21768 0
M  V30 902 H 84.3867 1.69334 -3.99385 0
M  V30 903 H 85.0577 3.26104 -4.45376 0
M  V30 904 H 87.5337 3.30548 -2.5274 0
M  V30 905 H 86.4097 4.6159 -2.97028 0
M  V30 906 H 86.6707 4.23286 -1.27599 0
M  V30 907 N 85.7298 1.2412 0.971189 0
M  V30 908 C 86.9578 1.10575 1.74874 0
M  V30 909 C 87.3728 -0.342017 1.85676 0
M  V30 910 O 86.7298 -1.23617 1.34258 0
M  V30 911 C 86.7808 1.73579 3.171 0
M  V30 912 O 86.5018 3.12695 3.06844 0
M  V30 913 C 88.0028 1.65598 4.11208 0
M  V30 914 H 85.2228 0.386504 0.548503 0
M  V30 915 H 87.7668 1.64156 1.21955 0
M  V30 916 H 85.9218 1.24009 3.67016 0
M  V30 917 H 86.3358 3.43412 3.96445 0
M  V30 918 H 87.8098 2.1437 5.08674 0
M  V30 919 H 88.2868 0.616532 4.34851 0
M  V30 920 H 88.8928 2.14578 3.67201 0
M  V30 921 N 87.2079 -1.17134 1.05439 0
M  V30 922 C 88.1709 -2.19439 0.661764 0
M  V30 923 C 89.1709 -1.58199 -0.288042 0
M  V30 924 O 90.3609 -1.74053 -0.0715803 0
M  V30 925 C 87.4929 -3.40889 -0.0276209 0
M  V30 926 H 88.6859 -2.55688 1.56728 0
M  V30 927 H 86.2389 -1.31259 0.848567 0
M  V30 928 H 86.9739 -3.10187 -0.94629 0
M  V30 929 H 86.7589 -3.86586 0.655238 0
M  V30 930 H 88.2489 -4.16603 -0.288342 0
M  V30 931 N 88.686 -0.835752 -1.33615 0
M  V30 932 C 89.636 -0.238856 -2.26745 0
M  V30 933 C 90.62 0.604343 -1.49119 0
M  V30 934 O 91.812 0.456822 -1.71003 0
M  V30 935 C 88.941 0.587725 -3.38232 0
M  V30 936 C 88.027 -0.266811 -4.2326 0
M  V30 937 N 88.418 -1.34403 -4.87616 0
M  V30 938 C 86.716 -0.0533131 -4.45968 0
M  V30 939 C 87.417 -1.86819 -5.50884 0
M  V30 940 N 86.393 -1.17013 -5.30857 0
M  V30 941 H 90.195 -1.06266 -2.74016 0
M  V30 942 H 87.709 -0.679881 -1.47483 0
M  V30 943 H 89.706 1.03161 -4.03935 0
M  V30 944 H 88.366 1.40954 -2.9251 0
M  V30 945 H 89.377 -1.7269 -4.88261 0
M  V30 946 H 86.054 0.735312 -4.10974 0
M  V30 947 H 87.444 -2.7701 -6.1214 0
M  V30 948 N 90.1641 1.46063 -0.591896 0
M  V30 949 C 91.1271 2.28854 0.125973 0
M  V30 950 C 92.1271 1.38903 0.810107 0
M  V30 951 O 93.3171 1.61186 0.66066 0
M  V30 952 C 90.4491 3.19526 1.1881 0
M  V30 953 H 91.6421 2.93802 -0.601717 0
M  V30 954 H 89.1951 1.52325 -0.350254 0
M  V30 955 H 89.9301 2.59345 1.94707 0
M  V30 956 H 89.7151 3.85766 0.701936 0
M  V30 957 H 91.2051 3.81817 1.69132 0
M  V30 958 N 91.6422 0.330177 1.54103 0
M  V30 959 C 92.8892 -0.270405 2.00686 0
M  V30 960 C 93.2172 -1.51621 1.21825 0
M  V30 961 O 92.4722 -1.93536 0.29025 0
M  V30 962 C 92.7712 -0.643134 3.51566 0
M  V30 963 C 92.4372 0.504251 4.48072 0
M  V30 964 C 91.0992 0.819163 4.74176 0
M  V30 965 C 93.4512 1.27465 5.05373 0
M  V30 966 C 90.7792 1.90708 5.5484 0
M  V30 967 C 93.1312 2.35271 5.87223 0
M  V30 968 C 91.7952 2.67336 6.11627 0
M  V30 969 H 91.0652 -0.0989482 0.734364 0
M  V30 970 H 93.7122 0.455324 1.86008 0
M  V30 971 H 92.0172 -1.44938 3.64006 0
M  V30 972 H 93.7142 -1.11949 3.85056 0
M  V30 973 H 90.3042 0.248733 4.27878 0
M  V30 974 H 94.4882 1.04462 4.85182 0
M  V30 975 H 89.7442 2.15991 5.71977 0
M  V30 976 H 93.9182 2.95405 6.30641 0
M  V30 977 H 91.5452 3.51763 6.73919 0
M  V30 978 N 93.1203 -1.57491 0.0584922 0
M  V30 979 C 94.3663 -1.93264 -0.614558 0
M  V30 980 C 94.6993 -0.937717 -1.7006 0
M  V30 981 O 93.9743 0.0351652 -1.94468 0
M  V30 982 C 94.2573 -3.3938 -1.20386 0
M  V30 983 C 94.1103 -4.49625 -0.125375 0
M  V30 984 C 95.4293 -3.86039 -2.11334 0
M  V30 985 H 92.5483 -0.702791 -0.221933 0
M  V30 986 H 95.1903 -1.8961 0.12175 0
M  V30 987 H 93.3403 -3.42626 -1.83139 0
M  V30 988 H 95.0123 -4.58506 0.506971 0
M  V30 989 H 93.2553 -4.30354 0.545672 0
M  V30 990 H 93.9263 -5.48967 -0.577861 0
M  V30 991 H 96.4023 -3.84716 -1.58534 0
M  V30 992 H 95.2783 -4.88914 -2.49507 0
M  V30 993 H 95.5393 -3.23215 -3.01636 0
M  V30 994 N 94.5984 0.214957 -1.56127 0
M  V30 995 C 95.5314 1.29382 -1.87977 0
M  V30 996 C 96.5094 1.44897 -0.737807 0
M  V30 997 O 97.6934 1.60605 -0.986833 0
M  V30 998 C 94.8204 2.66325 -2.09258 0
M  V30 999 C 93.8664 2.67789 -3.31951 0
M  V30 1000 S 94.6994 2.21198 -4.8768 0
M  V30 1001 C 95.8554 3.60003 -5.12004 0
M  V30 1002 H 96.0884 1.02173 -2.79192 0
M  V30 1003 H 93.6214 0.417516 -1.48648 0
M  V30 1004 H 95.5794 3.45162 -2.22201 0
M  V30 1005 H 94.2404 2.90755 -1.18829 0
M  V30 1006 H 93.4334 3.68436 -3.43906 0
M  V30 1007 H 93.0354 1.9702 -3.17898 0
M  V30 1008 H 95.3274 4.55739 -5.01307 0
M  V30 1009 H 96.2704 3.52959 -6.13861 0
M  V30 1010 H 96.6784 3.53996 -4.39712 0
M  V30 1011 N 96.0765 1.50051 0.48192 0
M  V30 1012 C 97.3255 1.59741 1.23149 0
M  V30 1013 C 97.6385 0.298163 1.93314 0
M  V30 1014 O 98.8445 0.273835 2.70116 0
M  V30 1015 C 97.3005 2.81926 2.23708 0
M  V30 1016 C 96.9085 4.18685 1.59396 0
M  V30 1017 C 98.6525 3.00956 2.99375 0
M  V30 1018 C 96.5595 5.3207 2.58178 0
M  V30 1019 H 95.4895 0.594838 0.46334 0
M  V30 1020 H 98.1405 1.76467 0.503169 0
M  V30 1021 H 96.5225 2.58736 2.99786 0
M  V30 1022 H 97.6965 4.52088 0.891811 0
M  V30 1023 H 96.0115 4.05171 0.960503 0
M  V30 1024 H 98.6085 3.82836 3.73283 0
M  V30 1025 H 98.9515 2.12258 3.58123 0
M  V30 1026 H 99.4845 3.24277 2.30411 0
M  V30 1027 H 96.2235 6.22888 2.04184 0
M  V30 1028 H 95.7435 5.03098 3.26577 0
M  V30 1029 H 97.4225 5.62196 3.20225 0
M  V30 1030 N 97.5546 -0.734337 1.39446 0
M  V30 1031 C 98.8016 -1.49391 1.36706 0
M  V30 1032 C 99.1296 -1.94465 -0.0367813 0
M  V30 1033 O 98.3846 -1.67154 -1.01774 0
M  V30 1034 C 98.6836 -2.74711 2.28623 0
M  V30 1035 C 98.3496 -2.48501 3.76242 0
M  V30 1036 C 97.0116 -2.41062 4.16464 0
M  V30 1037 C 99.3636 -2.26098 4.69606 0
M  V30 1038 C 96.6916 -2.09262 5.48112 0
M  V30 1039 C 99.0436 -1.95814 6.01531 0
M  V30 1040 C 97.7076 -1.86845 6.40816 0
M  V30 1041 H 96.9776 -0.546661 0.500243 0
M  V30 1042 H 99.6246 -0.842788 1.71957 0
M  V30 1043 H 97.9296 -3.44569 1.86492 0
M  V30 1044 H 99.6266 -3.32741 2.23796 0
M  V30 1045 H 96.2166 -2.55169 3.44364 0
M  V30 1046 H 100.401 -2.30812 4.39363 0
M  V30 1047 H 95.6566 -2.00841 5.77471 0
M  V30 1048 H 99.8306 -1.77488 6.73403 0
M  V30 1049 H 97.4576 -1.6197 7.42745 0
M  V30 1050 N 99.0327 -1.24633 -0.964593 0
M  V30 1051 C 100.28 -1.08788 -1.70796 0
M  V30 1052 C 100.608 0.372783 -1.90894 0
M  V30 1053 O 99.8627 1.29167 -1.47018 0
M  V30 1054 C 100.162 -1.7763 -3.10133 0
M  V30 1055 C 99.8277 -3.27557 -3.09866 0
M  V30 1056 C 98.4897 -3.6846 -3.09501 0
M  V30 1057 C 100.842 -4.23389 -3.03959 0
M  V30 1058 C 98.1697 -5.03624 -3.00965 0
M  V30 1059 C 100.522 -5.58565 -2.96965 0
M  V30 1060 C 99.1857 -5.98809 -2.9493 0
M  V30 1061 H 98.4557 -0.398084 -0.624988 0
M  V30 1062 H 101.103 -1.54777 -1.12767 0
M  V30 1063 H 99.4077 -1.24044 -3.71645 0
M  V30 1064 H 101.105 -1.62832 -3.66451 0
M  V30 1065 H 97.6947 -2.95006 -3.10917 0
M  V30 1066 H 101.879 -3.92787 -3.03368 0
M  V30 1067 H 97.1347 -5.33998 -2.97752 0
M  V30 1068 H 101.309 -6.32523 -2.91354 0
M  V30 1069 H 98.9357 -7.03505 -2.88071 0
M  V30 1070 N 100.511 1.16574 -1.06058 0
M  V30 1071 C 101.444 2.19798 -0.61352 0
M  V30 1072 C 102.422 1.58509 0.362453 0
M  V30 1073 O 103.606 1.86527 0.271994 0
M  V30 1074 C 100.733 3.3855 0.100915 0
M  V30 1075 C 99.7788 4.18317 -0.831438 0
M  V30 1076 S 100.612 4.82375 -2.32539 0
M  V30 1077 C 101.768 6.04508 -1.62238 0
M  V30 1078 H 102.001 2.5738 -1.48805 0
M  V30 1079 H 99.5338 1.27327 -0.873338 0
M  V30 1080 H 101.492 4.07358 0.506898 0
M  V30 1081 H 100.153 2.99338 0.951604 0
M  V30 1082 H 99.3458 5.03232 -0.278071 0
M  V30 1083 H 98.9478 3.5499 -1.17719 0
M  V30 1084 H 101.24 6.71133 -0.926622 0
M  V30 1085 H 102.183 6.64389 -2.44934 0
M  V30 1086 H 102.591 5.53559 -1.106 0
M  V30 1087 N 101.989 0.842826 1.3317 0
M  V30 1088 C 103.235 0.441099 1.97945 0
M  V30 1089 C 103.568 -0.998024 1.66593 0
M  V30 1090 O 102.843 -1.69839 0.947898 0
M  V30 1091 C 103.126 0.666841 3.53872 0
M  V30 1092 C 102.979 2.15352 3.94897 0
M  V30 1093 C 104.298 0.115544 4.39948 0
M  V30 1094 H 101.417 0.161739 0.719034 0
M  V30 1095 H 104.059 1.05907 1.57746 0
M  V30 1096 H 102.209 0.140828 3.88245 0
M  V30 1097 H 103.881 2.7447 3.70761 0
M  V30 1098 H 102.124 2.63653 3.44484 0
M  V30 1099 H 102.795 2.26221 5.03516 0
M  V30 1100 H 105.271 0.565213 4.12243 0
M  V30 1101 H 104.147 0.303152 5.48062 0
M  V30 1102 H 104.408 -0.980935 4.3108 0
M  V30 1103 N 103.467 -1.45747 0.599634 0
M  V30 1104 C 104.4 -2.27547 -0.172552 0
M  V30 1105 C 105.378 -1.36657 -0.881116 0
M  V30 1106 O 106.562 -1.66081 -0.891595 0
M  V30 1107 C 103.689 -3.14829 -1.24903 0
M  V30 1108 C 102.735 -4.21603 -0.644465 0
M  V30 1109 S 103.568 -5.32754 0.541606 0
M  V30 1110 C 104.724 -6.23604 -0.535656 0
M  V30 1111 H 104.957 -2.92691 0.521468 0
M  V30 1112 H 102.49 -1.49473 0.386947 0
M  V30 1113 H 104.448 -3.65675 -1.86527 0
M  V30 1114 H 103.109 -2.48965 -1.91508 0
M  V30 1115 H 102.302 -4.82566 -1.45417 0
M  V30 1116 H 101.904 -3.73857 -0.103534 0
M  V30 1117 H 104.196 -6.62519 -1.41686 0
M  V30 1118 H 105.139 -7.0809 0.0376246 0
M  V30 1119 H 105.547 -5.58103 -0.84741 0
M  V30 1120 N 104.945 -0.338344 -1.53925 0
M  V30 1121 C 106.356 0.146651 -1.86123 0
M  V30 1122 C 106.707 1.5042 -1.2597 0
M  V30 1123 O 105.832 2.08723 -0.571294 0
M  V30 1124 C 106.427 0.272879 -3.37699 0
M  V30 1125 C 104.986 0.702103 -3.69794 0
M  V30 1126 C 104.133 -0.167304 -2.76795 0
M  V30 1127 H 107.084 -0.558123 -1.48562 0
M  V30 1128 H 107.105 1.10128 -3.64214 0
M  V30 1129 H 106.617 -0.715307 -3.81451 0
M  V30 1130 H 104.718 1.6995 -3.31584 0
M  V30 1131 H 104.831 0.495604 -4.7653 0
M  V30 1132 H 103.195 0.359527 -2.5215 0
M  V30 1133 H 103.978 -1.15253 -3.23375 0
M  V30 1134 N 106.423 1.57458 -0.0668435 0
M  V30 1135 C 107.672 1.92477 0.602947 0
M  V30 1136 C 107.985 0.948419 1.71068 0
M  V30 1137 O 109.191 1.19124 2.43971 0
M  V30 1138 C 107.647 3.41903 1.12383 0
M  V30 1139 C 107.255 4.47975 0.04737 0
M  V30 1140 C 108.999 3.85931 1.76797 0
M  V30 1141 C 106.906 5.88529 0.582022 0
M  V30 1142 H 105.836 0.718387 0.22899 0
M  V30 1143 H 108.487 1.82978 -0.138276 0
M  V30 1144 H 106.869 3.46459 1.91787 0
M  V30 1145 H 108.043 4.55029 -0.726978 0
M  V30 1146 H 106.358 4.13384 -0.500243 0
M  V30 1147 H 108.955 4.88322 2.17821 0
M  V30 1148 H 109.298 3.23029 2.62599 0
M  V30 1149 H 109.831 3.83958 1.04024 0
M  V30 1150 H 106.57 6.55065 -0.238721 0
M  V30 1151 H 106.09 5.85004 1.324 0
M  V30 1152 H 107.769 6.38258 1.05999 0
M  V30 1153 N 107.901 -0.206675 1.56239 0
M  V30 1154 C 108.834 -1.28383 1.88661 0
M  V30 1155 C 109.812 -1.44504 0.745481 0
M  V30 1156 O 110.996 -1.60079 0.995336 0
M  V30 1157 C 108.123 -2.65211 2.10667 0
M  V30 1158 C 107.169 -2.66025 3.33366 0
M  V30 1159 S 108.002 -2.18609 4.88846 0
M  V30 1160 C 109.158 -3.57283 5.13906 0
M  V30 1161 H 109.391 -1.00691 2.7973 0
M  V30 1162 H 106.924 -0.409627 1.48867 0
M  V30 1163 H 108.882 -3.43979 2.24029 0
M  V30 1164 H 107.543 -2.90121 1.20369 0
M  V30 1165 H 106.736 -3.66607 3.45855 0
M  V30 1166 H 106.338 -1.95331 3.18938 0
M  V30 1167 H 108.63 -4.53074 5.03717 0
M  V30 1168 H 109.573 -3.49699 6.15724 0
M  V30 1169 H 109.981 -3.51659 4.41583 0
M  V30 1170 N 109.379 -1.50304 -0.473955 0
M  V30 1171 C 110.628 -1.60392 -1.22301 0
M  V30 1172 C 110.941 -0.308411 -1.93153 0
M  V30 1173 O 112.147 -0.288156 -2.69966 0
M  V30 1174 C 110.603 -2.83109 -2.2221 0
M  V30 1175 C 110.211 -4.19524 -1.57173 0
M  V30 1176 C 111.955 -3.0254 -2.97775 0
M  V30 1177 C 109.862 -5.33431 -2.55353 0
M  V30 1178 H 108.792 -0.597286 -0.460179 0
M  V30 1179 H 111.443 -1.76731 -0.493803 0
M  V30 1180 H 109.825 -2.60322 -2.9841 0
M  V30 1181 H 110.999 -4.52554 -0.867824 0
M  V30 1182 H 109.314 -4.05674 -0.939002 0
M  V30 1183 H 111.911 -3.84811 -3.71248 0
M  V30 1184 H 112.254 -2.14154 -3.56992 0
M  V30 1185 H 112.787 -3.25494 -2.28688 0
M  V30 1186 H 109.526 -6.23962 -2.00878 0
M  V30 1187 H 109.046 -5.04823 -3.23904 0
M  V30 1188 H 110.725 -5.63887 -3.17239 0
M  V30 1189 N 110.857 0.726932 -1.39834 0
M  V30 1190 C 112.105 1.4837 -1.37225 0
M  V30 1191 C 112.426 1.94979 0.0284857 0
M  V30 1192 O 111.696 1.69555 0.981213 0
M  V30 1193 H 110.276 0.55043 -0.505011 0
M  V30 1194 H 112.938 0.862468 -1.74778 0
M  V30 1195 H 112.034 2.36198 -2.04003 0
M  V30 1196 N 112.336 1.25143 0.95797 0
M  V30 1197 C 113.584 1.09476 1.69881 0
M  V30 1198 C 113.905 -0.365502 1.91544 0
M  V30 1199 O 113.175 -1.25985 1.50015 0
M  V30 1200 H 111.755 0.402128 0.629525 0
M  V30 1201 H 114.417 1.57214 1.15194 0
M  V30 1202 H 113.513 1.60046 2.6794 0
M  V30 1203 N 113.814 -1.1601 1.06675 0
M  V30 1204 C 115.061 -1.86633 0.785781 0
M  V30 1205 C 115.389 -1.81929 -0.687896 0
M  V30 1206 O 114.644 -1.23253 -1.52011 0
M  V30 1207 C 114.943 -3.35547 1.23057 0
M  V30 1208 C 114.609 -3.60448 2.70902 0
M  V30 1209 C 113.271 -3.66954 3.11285 0
M  V30 1210 C 115.623 -3.7071 3.66365 0
M  V30 1211 C 112.951 -3.81225 4.45965 0
M  V30 1212 C 115.303 -3.86503 5.00797 0
M  V30 1213 C 113.967 -3.91252 5.40813 0
M  V30 1214 H 113.237 -0.682937 0.287538 0
M  V30 1215 H 115.884 -1.37146 1.33654 0
M  V30 1216 H 114.189 -3.87193 0.59907 0
M  V30 1217 H 115.886 -3.88583 0.990163 0
M  V30 1218 H 112.476 -3.56021 2.38636 0
M  V30 1219 H 116.66 -3.64991 3.36296 0
M  V30 1220 H 111.916 -3.83155 4.76447 0
M  V30 1221 H 116.09 -3.93385 5.74649 0
M  V30 1222 H 113.717 -4.02062 6.45174 0
M  V30 1223 N 115.292 -0.849877 -1.32721 0
M  V30 1224 C 116.54 -0.450032 -1.97026 0
M  V30 1225 C 116.861 0.996604 -1.67609 0
M  V30 1226 O 116.131 1.6958 -0.980786 0
M  V30 1227 H 114.711 -0.163426 -0.728904 0
M  V30 1228 H 117.373 -1.08526 -1.6189 0
M  V30 1229 H 116.469 -0.591146 -3.0645 0
M  V30 1230 N 116.77 1.45427 -0.607355 0
M  V30 1231 C 117.718 2.32269 0.12411 0
M  V30 1232 C 118.712 1.45955 0.859854 0
M  V30 1233 O 119.918 1.6244 0.775447 0
M  V30 1234 H 116.293 0.749691 0.0588839 0
M  V30 1235 H 118.264 2.91743 -0.626762 0
M  V30 1236 C 117.013 3.29567 1.1082 0
M  V30 1237 H 116.336 3.95978 0.551492 0
M  V30 1238 H 117.776 3.93061 1.58995 0
M  V30 1239 C 116.235 2.56722 2.18164 0
M  V30 1240 O 116.765 2.34842 3.25902 0
M  V30 1241 N 114.971 2.16861 1.93442 0
M  V30 1242 H 114.518 2.34855 1.05834 0
M  V30 1243 H 114.476 1.68444 2.65469 0
M  V30 1244 N 118.248 0.346503 1.53744 0
M  V30 1245 C 119.494 -0.242135 2.01954 0
M  V30 1246 C 119.849 -1.47962 1.22984 0
M  V30 1247 O 119.142 -1.89077 0.309924 0
M  V30 1248 C 119.336 -0.605809 3.52228 0
M  V30 1249 C 119.165 0.594882 4.45748 0
M  V30 1250 C 117.935 1.1011 4.93157 0
M  V30 1251 C 120.133 1.45425 4.93311 0
M  V30 1252 N 118.115 2.26381 5.70636 0
M  V30 1253 C 119.486 2.46383 5.68942 0
M  V30 1254 C 121.541 1.47935 4.75415 0
M  V30 1255 C 120.244 3.49684 6.28581 0
M  V30 1256 C 122.27 2.50119 5.35905 0
M  V30 1257 C 121.632 3.49803 6.11406 0
M  V30 1258 H 117.731 -0.0518296 0.780281 0
M  V30 1259 H 120.315 0.486736 1.88518 0
M  V30 1260 H 118.486 -1.30378 3.65864 0
M  V30 1261 H 120.218 -1.17789 3.87179 0
M  V30 1262 H 116.973 0.668721 4.68855 0
M  V30 1263 H 117.397 2.85094 6.14044 0
M  V30 1264 H 122.039 0.722274 4.16585 0
M  V30 1265 H 119.757 4.26285 6.86518 0
M  V30 1266 H 123.343 2.52892 5.23963 0
M  V30 1267 H 122.223 4.27576 6.5738 0
M  V30 1268 N 119.726 -1.57421 0.075193 0
M  V30 1269 C 120.656 -2.15942 -0.888324 0
M  V30 1270 C 121.637 -1.08737 -1.30806 0
M  V30 1271 O 122.822 -1.36787 -1.37851 0
M  V30 1272 C 119.952 -2.72379 -2.1547 0
M  V30 1273 C 118.906 -3.8478 -1.87425 0
M  V30 1274 C 118.232 -4.27834 -3.20721 0
M  V30 1275 C 119.532 -5.08869 -1.17684 0
M  V30 1276 H 121.226 -2.96705 -0.400799 0
M  V30 1277 H 118.772 -1.42723 -0.191342 0
M  V30 1278 H 120.725 -3.11965 -2.83295 0
M  V30 1279 H 119.449 -1.88841 -2.6647 0
M  V30 1280 H 118.108 -3.45703 -1.22004 0
M  V30 1281 H 117.756 -3.41214 -3.6957 0
M  V30 1282 H 117.456 -5.03605 -3.02746 0
M  V30 1283 H 118.98 -4.70039 -3.89738 0
M  V30 1284 H 120.394 -5.4575 -1.75584 0
M  V30 1285 H 118.791 -5.8994 -1.09956 0
M  V30 1286 H 119.861 -4.84648 -0.156453 0
M  V30 1287 N 121.204 0.198386 -1.56346 0
M  V30 1288 C 122.45 0.920648 -1.80698 0
M  V30 1289 C 122.783 1.83045 -0.648697 0
M  V30 1290 O 122.058 1.91308 0.350925 0
M  V30 1291 C 122.341 1.73971 -3.15287 0
M  V30 1292 C 122.194 0.85485 -4.41602 0
M  V30 1293 C 123.513 2.71296 -3.46535 0
M  V30 1294 H 120.632 0.333261 -0.657348 0
M  V30 1295 H 123.274 0.188198 -1.89066 0
M  V30 1296 H 121.424 2.36416 -3.08285 0
M  V30 1297 H 123.096 0.245362 -4.60647 0
M  V30 1298 H 121.339 0.161398 -4.335 0
M  V30 1299 H 122.01 1.46286 -5.32264 0
M  V30 1300 H 124.486 2.18983 -3.53816 0
M  V30 1301 H 123.362 3.2569 -4.41834 0
M  V30 1302 H 123.623 3.5018 -2.69864 0
M  V30 1303 N 122.682 1.50554 0.465978 0
M  V30 1304 C 124.093 1.54599 1.04671 0
M  V30 1305 C 124.444 0.352488 1.93008 0
M  V30 1306 O 123.569 -0.534044 2.09707 0
M  V30 1307 C 124.164 2.80166 1.90505 0
M  V30 1308 C 122.723 2.86876 2.43678 0
M  V30 1309 C 121.87 2.48947 1.22151 0
M  V30 1310 H 124.821 1.56744 0.248384 0
M  V30 1311 H 124.842 2.62311 2.75633 0
M  V30 1312 H 124.354 3.67013 1.26186 0
M  V30 1313 H 122.455 2.04393 3.11536 0
M  V30 1314 H 122.568 3.89885 2.78436 0
M  V30 1315 H 120.932 2.01498 1.5579 0
M  V30 1316 H 121.715 3.38107 0.594866 0
M  V30 1317 N 124.16 -0.719506 1.40217 0
M  V30 1318 C 125.09 -1.8465 1.42922 0
M  V30 1319 C 126.071 -1.67599 0.29062 0
M  V30 1320 O 127.256 -1.87688 0.498677 0
M  V30 1321 C 124.386 -3.22565 1.28722 0
M  V30 1322 C 123.34 -3.54281 2.40144 0
M  V30 1323 C 122.666 -4.91298 2.11023 0
M  V30 1324 C 123.966 -3.55676 3.82481 0
M  V30 1325 H 125.66 -1.82644 2.37237 0
M  V30 1326 H 123.206 -0.877305 1.1419 0
M  V30 1327 H 125.159 -4.01095 1.29232 0
M  V30 1328 H 123.883 -3.25137 0.308811 0
M  V30 1329 H 122.542 -2.78088 2.38877 0
M  V30 1330 H 122.19 -4.90468 1.11582 0
M  V30 1331 H 121.89 -5.13485 2.8567 0
M  V30 1332 H 123.414 -5.72166 2.13209 0
M  V30 1333 H 124.828 -4.24254 3.85592 0
M  V30 1334 H 123.225 -3.89388 4.56614 0
M  V30 1335 H 124.295 -2.55144 4.12346 0
M  V30 1336 N 125.638 -1.25649 -0.95132 0
M  V30 1337 C 126.571 -1.00644 -2.04807 0
M  V30 1338 C 127.549 0.0654271 -1.62468 0
M  V30 1339 O 128.733 -0.074911 -1.88351 0
M  V30 1340 C 125.86 -0.522052 -3.34653 0
M  V30 1341 C 124.906 -1.58495 -3.95957 0
M  V30 1342 S 125.739 -3.17108 -4.31512 0
M  V30 1343 C 126.895 -2.70412 -5.64471 0
M  V30 1344 H 127.128 -1.93508 -2.25703 0
M  V30 1345 H 124.661 -1.09216 -1.09139 0
M  V30 1346 H 126.619 -0.24923 -4.09743 0
M  V30 1347 H 125.28 0.386146 -3.11717 0
M  V30 1348 H 124.473 -1.1968 -4.89584 0
M  V30 1349 H 124.075 -1.80862 -3.2736 0
M  V30 1350 H 126.367 -2.14245 -6.42733 0
M  V30 1351 H 127.31 -3.62693 -6.08161 0
M  V30 1352 H 127.718 -2.10302 -5.23864 0
M  V30 1353 N 127.117 1.15442 -1.07289 0
M  V30 1354 C 128.366 1.85557 -0.790669 0
M  V30 1355 C 128.679 1.83186 0.685739 0
M  V30 1356 O 129.885 2.48977 1.0827 0
M  V30 1357 C 128.341 3.33038 -1.36433 0
M  V30 1358 C 127.949 3.43856 -2.8717 0
M  V30 1359 C 129.693 4.0834 -1.1601 0
M  V30 1360 C 127.6 4.85482 -3.3773 0
M  V30 1361 H 126.53 0.695122 -0.292098 0
M  V30 1362 H 129.181 1.30219 -1.29287 0
M  V30 1363 H 127.563 3.88043 -0.789864 0
M  V30 1364 H 128.737 2.98961 -3.50655 0
M  V30 1365 H 127.052 2.81998 -3.06376 0
M  V30 1366 H 129.649 5.12859 -1.51262 0
M  V30 1367 H 129.992 4.16182 -0.0991007 0
M  V30 1368 H 130.525 3.59603 -1.70089 0
M  V30 1369 H 127.264 4.82823 -4.43353 0
M  V30 1370 H 126.784 5.30961 -2.78999 0
M  V30 1371 H 128.463 5.54335 -3.33648 0
M  V30 1372 N 128.595 0.856903 1.32268 0
M  V30 1373 C 129.843 0.460474 1.96784 0
M  V30 1374 C 130.164 -0.987701 1.68135 0
M  V30 1375 O 129.434 -1.69058 0.989765 0
M  V30 1376 H 128.014 0.167289 0.728027 0
M  V30 1377 H 130.676 1.09383 1.61312 0
M  V30 1378 H 129.772 0.60739 3.06133 0
M  V30 1379 N 130.073 -1.45103 0.615059 0
M  V30 1380 C 131.036 -2.29025 -0.0895485 0
M  V30 1381 C 132.036 -1.40174 -0.787906 0
M  V30 1382 O 133.226 -1.62217 -0.634933 0
M  V30 1383 C 130.358 -3.21376 -1.13711 0
M  V30 1384 H 131.551 -2.92807 0.648382 0
M  V30 1385 H 129.104 -1.51749 0.374444 0
M  V30 1386 H 129.839 -2.6241 -1.90556 0
M  V30 1387 H 129.624 -3.86834 -0.640475 0
M  V30 1388 H 131.114 -3.84459 -1.63036 0
M  V30 1389 N 131.551 -0.354651 -1.53558 0
M  V30 1390 C 132.962 0.126902 -1.86268 0
M  V30 1391 C 133.313 1.49075 -1.27558 0
M  V30 1392 O 132.438 2.08105 -0.5934 0
M  V30 1393 C 133.033 0.237046 -3.3797 0
M  V30 1394 C 131.592 0.662842 -3.70518 0
M  V30 1395 C 130.739 -0.196652 -2.76602 0
M  V30 1396 H 133.69 -0.573849 -1.47962 0
M  V30 1397 H 133.711 1.06259 -3.65362 0
M  V30 1398 H 133.223 -0.755725 -3.80671 0
M  V30 1399 H 131.324 1.66424 -3.33367 0
M  V30 1400 H 131.437 0.445034 -4.77029 0
M  V30 1401 H 129.801 0.332763 -2.52517 0
M  V30 1402 H 130.584 -1.18676 -3.22135 0
M  V30 1403 N 133.029 1.57378 -0.0835403 0
M  V30 1404 C 134.306 1.85363 0.624507 0
M  V30 1405 C 134.686 0.978239 1.87066 0
M  V30 1406 O 134.034 0.0475908 2.2845 0
M  V30 1407 C 134.244 3.35795 0.950947 0
M  V30 1408 C 135.592 4.03581 1.31939 0
M  V30 1409 O 136.616 3.40609 1.04232 0
M  V30 1410 O 135.475 5.14672 1.83779 0
M  V30 1411 H 132.569 0.766162 0.311329 0
M  V30 1412 H 135.115 1.69307 -0.115362 0
M  V30 1413 H 133.887 3.91244 0.0663899 0
M  V30 1414 H 133.51 3.57154 1.74719 0
M  V30 1415 N 134.507 -0.190092 1.56449 0
M  V30 1416 C 135.44 -1.26375 1.90012 0
M  V30 1417 C 136.418 -1.43705 0.760765 0
M  V30 1418 O 137.602 -1.59014 1.01226 0
M  V30 1419 C 134.729 -2.62962 2.13468 0
M  V30 1420 C 133.775 -2.62474 3.36169 0
M  V30 1421 S 134.608 -2.13412 4.91137 0
M  V30 1422 C 135.764 -3.51812 5.17667 0
M  V30 1423 H 135.997 -0.977181 2.80782 0
M  V30 1424 H 133.53 -0.393814 1.49293 0
M  V30 1425 H 135.488 -3.41583 2.27664 0
M  V30 1426 H 134.149 -2.88828 1.23439 0
M  V30 1427 H 133.342 -3.62918 3.49723 0
M  V30 1428 H 132.944 -1.91937 3.20992 0
M  V30 1429 H 135.236 -4.47706 5.08494 0
M  V30 1430 H 136.179 -3.43148 6.19399 0
M  V30 1431 H 136.587 -3.46956 4.45288 0
M  V30 1432 N 135.985 -1.50799 -0.457987 0
M  V30 1433 C 136.948 -1.7005 -1.53674 0
M  V30 1434 C 137.948 -0.570881 -1.50325 0
M  V30 1435 O 139.138 -0.838126 -1.52712 0
M  V30 1436 C 136.27 -1.73788 -2.93276 0
M  V30 1437 H 137.463 -2.66306 -1.37917 0
M  V30 1438 H 135.016 -1.40477 -0.685271 0
M  V30 1439 H 135.751 -0.792717 -3.14462 0
M  V30 1440 H 135.536 -2.55864 -2.97113 0
M  V30 1441 H 137.026 -1.90591 -3.71571 0
M  V30 1442 N 137.463 0.71206 -1.40597 0
M  V30 1443 C 138.71 1.47197 -1.39065 0
M  V30 1444 C 139.038 1.94499 0.00583891 0
M  V30 1445 O 138.293 1.68752 0.99102 0
M  V30 1446 C 138.592 2.71039 -2.32965 0
M  V30 1447 C 138.258 2.42484 -3.80148 0
M  V30 1448 C 136.92 2.34406 -4.20247 0
M  V30 1449 C 139.272 2.18598 -4.73143 0
M  V30 1450 C 136.6 2.00516 -5.51371 0
M  V30 1451 C 138.952 1.8622 -6.0457 0
M  V30 1452 C 137.616 1.76626 -6.43708 0
M  V30 1453 H 136.886 0.538634 -0.508876 0
M  V30 1454 H 139.533 0.815325 -1.73276 0
M  V30 1455 H 137.838 3.41558 -1.91951 0
M  V30 1456 H 139.535 3.29138 -2.29061 0
M  V30 1457 H 136.125 2.49659 -3.4838 0
M  V30 1458 H 140.309 2.23793 -4.42979 0
M  V30 1459 H 135.565 1.91628 -5.80593 0
M  V30 1460 H 139.739 1.66752 -6.76141 0
M  V30 1461 H 137.366 1.50133 -7.45228 0
M  V30 1462 N 138.941 1.26152 0.944643 0
M  V30 1463 C 140.352 1.10454 1.50522 0
M  V30 1464 C 140.703 -0.31635 1.93633 0
M  V30 1465 O 139.828 -1.20746 1.79581 0
M  V30 1466 C 140.423 1.99891 2.73549 0
M  V30 1467 C 138.982 1.88348 3.25886 0
M  V30 1468 C 138.129 1.93447 1.9868 0
M  V30 1469 H 141.08 1.39292 0.760489 0
M  V30 1470 H 141.101 1.54477 3.47732 0
M  V30 1471 H 140.613 3.03297 2.42141 0
M  V30 1472 H 138.714 0.878636 3.62092 0
M  V30 1473 H 138.827 2.73696 3.93227 0
M  V30 1474 H 137.191 1.37456 2.14425 0
M  V30 1475 H 137.974 2.98476 1.69607 0
M  V30 1476 N 140.419 -1.14872 1.07899 0
M  V30 1477 C 141.835 -1.37776 0.805606 0
M  V30 1478 C 142.035 -1.92743 -0.587555 0
M  V30 1479 O 141.091 -2.13678 -1.34528 0
M  V30 1480 C 142.404 -2.34361 1.88402 0
M  V30 1481 C 143.952 -2.48012 1.90942 0
M  V30 1482 C 144.427 -3.47893 2.97883 0
M  V30 1483 N 145.918 -3.55433 2.97021 0
M  V30 1484 C 146.653 -4.32553 3.76412 0
M  V30 1485 N 146.149 -5.12959 4.65666 0
M  V30 1486 N 147.942 -4.27697 3.64735 0
M  V30 1487 H 140.093 -0.775365 1.97742 0
M  V30 1488 H 142.356 -0.403521 0.857831 0
M  V30 1489 H 142.062 -2.01098 2.88535 0
M  V30 1490 H 141.936 -3.34206 1.74889 0
M  V30 1491 H 144.323 -2.8057 0.914579 0
M  V30 1492 H 144.404 -1.48147 2.08534 0
M  V30 1493 H 144.048 -3.16069 3.97571 0
M  V30 1494 H 143.978 -4.47527 2.77538 0
M  V30 1495 H 146.469 -2.98048 2.32326 0
M  V30 1496 H 146.782 -5.69065 5.22862 0
M  V30 1497 H 145.127 -5.12245 4.69712 0
M  V30 1498 H 148.318 -3.63949 2.94378 0
M  V30 1499 H 148.491 -4.8755 4.26848 0
M  V30 1500 N 141.898 -0.863906 -1.31812 0
M  V30 1501 C 142.831 -0.259963 -2.26714 0
M  V30 1502 C 143.809 0.607392 -1.50829 0
M  V30 1503 O 144.993 0.562155 -1.79922 0
M  V30 1504 C 142.12 0.632456 -3.32743 0
M  V30 1505 C 141.166 -0.162743 -4.26189 0
M  V30 1506 S 141.999 -1.53726 -5.12961 0
M  V30 1507 C 143.155 -0.650803 -6.22507 0
M  V30 1508 H 143.388 -1.06445 -2.77591 0
M  V30 1509 H 140.921 -0.662071 -1.39485 0
M  V30 1510 H 142.879 1.14167 -3.94305 0
M  V30 1511 H 141.54 1.41083 -2.80632 0
M  V30 1512 H 140.733 0.517366 -5.01338 0
M  V30 1513 H 140.335 -0.60385 -3.69093 0
M  V30 1514 H 142.627 0.141134 -6.77353 0
M  V30 1515 H 143.57 -1.37322 -6.94657 0
M  V30 1516 H 143.978 -0.221041 -5.64067 0
M  V30 1517 N 143.376 1.44774 -0.622745 0
M  V30 1518 C 144.324 2.32387 0.0994683 0
M  V30 1519 C 145.318 1.46859 0.844326 0
M  V30 1520 O 146.524 1.63254 0.758174 0
M  V30 1521 H 142.899 0.750273 0.0509291 0
M  V30 1522 H 144.87 2.91062 -0.65767 0
M  V30 1523 C 143.619 3.30723 1.07319 0
M  V30 1524 H 142.942 3.96541 0.509462 0
M  V30 1525 H 144.382 3.94725 1.54817 0
M  V30 1526 C 142.841 2.59021 2.15429 0
M  V30 1527 O 143.371 2.38286 3.23393 0
M  V30 1528 N 141.577 2.189 1.91131 0
M  V30 1529 H 141.124 2.35964 1.03337 0
M  V30 1530 H 141.082 1.71251 2.63668 0
M  V30 1531 N 144.854 0.36279 1.53368 0
M  V30 1532 C 145.802 -0.500155 2.27159 0
M  V30 1533 C 146.796 -1.08575 1.3003 0
M  V30 1534 O 148.002 -1.02927 1.47668 0
M  V30 1535 H 144.377 -0.180009 0.730138 0
M  V30 1536 H 146.348 0.14401 2.98052 0
M  V30 1537 C 145.097 -1.62937 3.07159 0
M  V30 1538 H 144.42 -1.18806 3.8174 0
M  V30 1539 H 145.86 -2.20795 3.61975 0
M  V30 1540 C 144.319 -2.57007 2.17829 0
M  V30 1541 O 144.849 -3.59752 1.78721 0
M  V30 1542 N 143.055 -2.26131 1.82518 0
M  V30 1543 H 142.602 -1.42616 2.14519 0
M  V30 1544 H 142.56 -2.89327 1.23034 0
M  V30 1545 N 146.332 -1.57332 0.0918853 0
M  V30 1546 C 147.265 -2.09499 -0.904735 0
M  V30 1547 C 148.243 -1.00479 -1.27839 0
M  V30 1548 O 149.427 -1.27954 -1.38419 0
M  V30 1549 C 146.554 -2.56931 -2.2069 0
M  V30 1550 C 145.6 -3.77579 -1.98334 0
M  V30 1551 S 146.433 -5.21317 -1.22428 0
M  V30 1552 C 147.589 -5.72097 -2.53882 0
M  V30 1553 H 147.822 -2.93705 -0.460922 0
M  V30 1554 H 145.355 -1.53923 -0.121332 0
M  V30 1555 H 147.313 -2.84917 -2.95521 0
M  V30 1556 H 145.974 -1.72956 -2.62192 0
M  V30 1557 H 145.167 -4.08824 -2.94752 0
M  V30 1558 H 144.769 -3.5007 -1.31633 0
M  V30 1559 H 147.061 -5.80168 -3.49874 0
M  V30 1560 H 148.004 -6.70654 -2.27219 0
M  V30 1561 H 148.412 -5.00012 -2.62007 0
M  V30 1562 N 147.81 0.181792 -1.56548 0
M  V30 1563 C 149.035 0.920019 -1.85877 0
M  V30 1564 C 149.46 1.75494 -0.677021 0
M  V30 1565 O 148.818 1.77399 0.374056 0
M  V30 1566 C 148.866 1.78112 -3.13542 0
M  V30 1567 O 147.97 2.88152 -2.95029 0
M  V30 1568 H 147.311 0.258334 -0.611686 0
M  V30 1569 H 149.841 0.183092 -2.03779 0
M  V30 1570 H 149.851 2.18314 -3.44678 0
M  V30 1571 H 148.526 1.16777 -3.99169 0
M  V30 1572 H 147.103 2.51609 -2.75222 0
M  V30 1573 N 149.288 1.51039 0.449983 0
M  V30 1574 C 150.535 1.63081 1.20045 0
M  V30 1575 C 150.863 0.341024 1.91487 0
M  V30 1576 O 150.118 -0.674276 1.83717 0
M  V30 1577 C 150.417 2.77556 2.25161 0
M  V30 1578 C 150.083 4.17289 1.70823 0
M  V30 1579 C 148.745 4.55305 1.55725 0
M  V30 1580 C 151.097 5.04536 1.3074 0
M  V30 1581 C 148.425 5.78287 0.989999 0
M  V30 1582 C 150.777 6.28085 0.754482 0
M  V30 1583 C 149.441 6.64885 0.590308 0
M  V30 1584 H 148.711 0.596755 0.439277 0
M  V30 1585 H 151.358 1.85037 0.49333 0
M  V30 1586 H 149.663 2.49771 3.01863 0
M  V30 1587 H 151.36 2.84073 2.83026 0
M  V30 1588 H 147.95 3.8731 1.83546 0
M  V30 1589 H 152.134 4.75782 1.41229 0
M  V30 1590 H 147.39 6.05456 0.850451 0
M  V30 1591 H 151.564 6.95038 0.435324 0
M  V30 1592 H 149.191 7.60055 0.14862 0
M  V30 1593 N 150.766 -0.704594 1.40972 0
M  V30 1594 C 152.012 -1.46546 1.41053 0
M  V30 1595 C 152.367 -1.92393 0.0159714 0
M  V30 1596 O 151.66 -1.66017 -0.956506 0
M  V30 1597 C 151.854 -2.698 2.34399 0
M  V30 1598 C 151.683 -2.36008 3.82793 0
M  V30 1599 C 150.453 -2.26812 4.51536 0
M  V30 1600 C 152.651 -1.99565 4.74003 0
M  V30 1601 N 150.633 -1.8581 5.85105 0
M  V30 1602 C 152.004 -1.69251 5.96451 0
M  V30 1603 C 154.059 -1.86296 4.61734 0
M  V30 1604 C 152.762 -1.27003 7.07999 0
M  V30 1605 C 154.788 -1.45452 5.73234 0
M  V30 1606 C 154.15 -1.16043 6.94776 0
M  V30 1607 H 150.249 -0.533896 0.571383 0
M  V30 1608 H 152.833 -0.816061 1.76773 0
M  V30 1609 H 151.004 -3.32473 2.00789 0
M  V30 1610 H 152.736 -3.36214 2.25261 0
M  V30 1611 H 149.491 -2.44913 4.05357 0
M  V30 1612 H 149.915 -1.67817 6.55871 0
M  V30 1613 H 154.557 -2.0769 3.68273 0
M  V30 1614 H 152.275 -1.04353 8.01334 0
M  V30 1615 H 155.861 -1.35748 5.65742 0
M  V30 1616 H 154.741 -0.84915 7.79589 0
M  V30 1617 N 152.244 -1.26651 -0.937939 0
M  V30 1618 C 153.174 -1.10993 -2.05433 0
M  V30 1619 C 154.155 -0.0142161 -1.70094 0
M  V30 1620 O 155.34 -0.186837 -1.93299 0
M  V30 1621 C 152.47 -0.745561 -3.39203 0
M  V30 1622 C 151.424 -1.79337 -3.88616 0
M  V30 1623 C 150.75 -1.28324 -5.19073 0
M  V30 1624 C 152.05 -3.19553 -4.13138 0
M  V30 1625 H 153.744 -2.0438 -2.1879 0
M  V30 1626 H 151.29 -0.984041 -1.05131 0
M  V30 1627 H 153.243 -0.622888 -4.16771 0
M  V30 1628 H 151.967 0.22401 -3.25831 0
M  V30 1629 H 150.626 -1.90477 -3.13231 0
M  V30 1630 H 150.274 -0.303414 -5.02084 0
M  V30 1631 H 149.974 -1.98369 -5.53103 0
M  V30 1632 H 151.498 -1.1733 -5.99221 0
M  V30 1633 H 152.912 -3.11471 -4.81309 0
M  V30 1634 H 151.309 -3.87218 -4.58457 0
M  V30 1635 H 152.379 -3.65368 -3.18801 0
M  V30 1636 N 153.722 1.14298 -1.08507 0
M  V30 1637 C 154.652 2.21542 -0.737646 0
M  V30 1638 C 155.633 1.67773 0.280377 0
M  V30 1639 O 156.818 1.93616 0.150521 0
M  V30 1640 C 153.948 3.46988 -0.147259 0
M  V30 1641 C 152.902 4.13789 -1.09374 0
M  V30 1642 C 152.228 5.33449 -0.365524 0
M  V30 1643 C 153.528 4.62208 -2.4323 0
M  V30 1644 H 155.222 2.5086 -1.6343 0
M  V30 1645 H 152.768 1.20576 -0.787243 0
M  V30 1646 H 154.721 4.21262 0.107808 0
M  V30 1647 H 153.445 3.17037 0.784538 0
M  V30 1648 H 152.104 3.4147 -1.33393 0
M  V30 1649 H 151.752 4.99759 0.57011 0
M  V30 1650 H 151.452 5.79088 -0.996512 0
M  V30 1651 H 152.976 6.10485 -0.118534 0
M  V30 1652 H 154.39 5.27952 -2.23472 0
M  V30 1653 H 152.787 5.18553 -3.02031 0
M  V30 1654 H 153.857 3.77224 -3.04681 0
M  V30 1655 N 155.201 0.870884 1.31352 0
M  V30 1656 C 156.612 0.534714 1.78879 0
M  V30 1657 C 156.963 -0.948423 1.71754 0
M  V30 1658 O 156.088 -1.74055 1.28584 0
M  V30 1659 C 156.683 0.963839 3.24801 0
M  V30 1660 C 155.242 0.679311 3.70219 0
M  V30 1661 C 154.389 1.15465 2.52117 0
M  V30 1662 H 157.34 1.05651 1.18421 0
M  V30 1663 H 157.361 0.286892 3.79417 0
M  V30 1664 H 156.873 2.04332 3.29955 0
M  V30 1665 H 154.974 -0.388769 3.70566 0
M  V30 1666 H 155.087 1.25698 4.62317 0
M  V30 1667 H 153.451 0.574383 2.48139 0
M  V30 1668 H 154.234 2.24157 2.60016 0
M  V30 1669 N 156.679 -1.44442 0.630414 0
M  V30 1670 C 158.09 -1.85434 0.217063 0
M  V30 1671 C 158.441 -1.52748 -1.23136 0
M  V30 1672 O 157.566 -0.965205 -1.93682 0
M  V30 1673 C 158.161 -3.36581 0.387168 0
M  V30 1674 C 156.72 -3.76389 0.0283297 0
M  V30 1675 C 155.867 -2.68296 0.700889 0
M  V30 1676 H 158.818 -1.34919 0.83562 0
M  V30 1677 H 158.839 -3.78657 -0.374086 0
M  V30 1678 H 158.351 -3.60339 1.44144 0
M  V30 1679 H 156.452 -3.58246 -1.02423 0
M  V30 1680 H 156.565 -4.77095 0.437892 0
M  V30 1681 H 154.929 -2.54335 0.136267 0
M  V30 1682 H 155.712 -2.94887 1.75774 0
M  V30 1683 N 158.157 -0.370918 -1.53173 0
M  V30 1684 C 159.382 0.220293 -2.06227 0
M  V30 1685 C 159.807 1.41243 -1.24225 0
M  V30 1686 O 159.165 1.79387 -0.262645 0
M  V30 1687 C 159.213 0.586663 -3.55796 0
M  V30 1688 O 158.317 1.68317 -3.76488 0
M  V30 1689 H 157.658 0.0308099 -0.663285 0
M  V30 1690 H 160.188 -0.533068 -1.97534 0
M  V30 1691 H 160.198 0.85617 -3.98916 0
M  V30 1692 H 158.873 -0.285013 -4.14922 0
M  V30 1693 H 157.45 1.40881 -3.45264 0
M  V30 1694 N 159.635 1.57281 -0.100228 0
M  V30 1695 C 160.565 2.17328 0.853857 0
M  V30 1696 C 161.546 1.10804 1.2906 0
M  V30 1697 O 162.731 1.38963 1.35657 0
M  V30 1698 C 159.861 2.75772 2.11109 0
M  V30 1699 C 158.815 3.87713 1.81279 0
M  V30 1700 C 158.141 4.32882 3.13874 0
M  V30 1701 C 159.441 5.10677 1.09574 0
M  V30 1702 H 161.135 2.97305 0.353545 0
M  V30 1703 H 158.681 1.43009 0.168612 0
M  V30 1704 H 160.634 3.16433 2.78296 0
M  V30 1705 H 159.358 1.93057 2.63432 0
M  V30 1706 H 158.017 3.476 1.16489 0
M  V30 1707 H 157.665 3.47051 3.64095 0
M  V30 1708 H 157.365 5.08358 2.94696 0
M  V30 1709 H 158.889 4.7618 3.82211 0
M  V30 1710 H 160.303 5.48474 1.66879 0
M  V30 1711 H 158.7 5.91615 1.00557 0
M  V30 1712 H 159.77 4.84835 0.0793299 0
M  V30 1713 N 161.113 -0.173488 1.56642 0
M  V30 1714 C 162.043 -1.2171 1.99271 0
M  V30 1715 C 163.024 -1.46289 0.867959 0
M  V30 1716 O 164.209 -1.5766 1.13388 0
M  V30 1717 C 161.339 -2.55651 2.35074 0
M  V30 1718 C 160.293 -2.45645 3.50489 0
M  V30 1719 C 159.619 -3.84056 3.72028 0
M  V30 1720 C 160.919 -1.96302 4.84007 0
M  V30 1721 H 162.613 -0.86275 2.867 0
M  V30 1722 H 160.159 -0.413571 1.37933 0
M  V30 1723 H 162.112 -3.2886 2.63494 0
M  V30 1724 H 160.836 -2.92869 1.44552 0
M  V30 1725 H 159.495 -1.7489 3.22194 0
M  V30 1726 H 159.143 -4.18664 2.788 0
M  V30 1727 H 158.843 -3.7823 4.49684 0
M  V30 1728 H 160.367 -4.58854 4.02846 0
M  V30 1729 H 161.781 -2.59284 5.11317 0
M  V30 1730 H 160.178 -2.01429 5.65284 0
M  V30 1731 H 161.248 -0.917226 4.76146 0
M  V30 1732 N 162.591 -1.51276 -0.441967 0
M  V30 1733 C 163.521 -1.752 -1.54361 0
M  V30 1734 C 164.502 -0.601682 -1.59103 0
M  V30 1735 O 165.687 -0.843913 -1.74905 0
M  V30 1736 C 162.817 -1.87282 -2.92477 0
M  V30 1737 C 161.771 -3.02687 -3.02596 0
M  V30 1738 C 161.097 -2.99947 -4.42647 0
M  V30 1739 C 162.397 -4.4273 -2.77106 0
M  V30 1740 H 164.091 -2.67442 -1.34592 0
M  V30 1741 H 161.637 -1.28694 -0.646048 0
M  V30 1742 H 163.59 -2.02602 -3.695 0
M  V30 1743 H 162.314 -0.916844 -3.13467 0
M  V30 1744 H 160.973 -2.87065 -2.28012 0
M  V30 1745 H 160.621 -2.02136 -4.60597 0
M  V30 1746 H 160.321 -3.77439 -4.50348 0
M  V30 1747 H 161.845 -3.17354 -5.2165 0
M  V30 1748 H 163.259 -4.58727 -3.43864 0
M  V30 1749 H 161.656 -5.21893 -2.96222 0
M  V30 1750 H 162.726 -4.53087 -1.72744 0
M  V30 1751 N 164.069 0.697108 -1.41344 0
M  V30 1752 C 164.999 1.82353 -1.45841 0
M  V30 1753 C 165.98 1.67115 -0.317247 0
M  V30 1754 O 167.165 1.86871 -0.528474 0
M  V30 1755 C 164.295 3.20476 -1.33838 0
M  V30 1756 C 163.249 3.50415 -2.4575 0
M  V30 1757 C 162.575 4.87878 -2.18813 0
M  V30 1758 C 163.875 3.49546 -3.88091 0
M  V30 1759 H 165.569 1.78846 -2.40113 0
M  V30 1760 H 163.115 0.859028 -1.15571 0
M  V30 1761 H 165.068 3.98988 -1.35596 0
M  V30 1762 H 163.792 3.24604 -0.360498 0
M  V30 1763 H 162.451 2.74253 -2.43271 0
M  V30 1764 H 162.099 4.8863 -1.19371 0
M  V30 1765 H 161.799 5.08875 -2.93803 0
M  V30 1766 H 163.323 5.68702 -2.22284 0
M  V30 1767 H 164.737 4.18066 -3.92293 0
M  V30 1768 H 163.134 3.82075 -4.62751 0
M  V30 1769 H 164.204 2.48552 -4.16353 0
M  V30 1770 N 165.547 1.27147 0.931209 0
M  V30 1771 C 166.477 1.12081 2.04842 0
M  V30 1772 C 167.458 0.0232364 1.70084 0
M  V30 1773 O 168.643 0.197085 1.93197 0
M  V30 1774 C 165.773 0.76354 3.38803 0
M  V30 1775 C 164.727 1.81396 3.87659 0
M  V30 1776 C 164.053 1.31075 5.18385 0
M  V30 1777 C 165.353 3.21739 4.11438 0
M  V30 1778 H 167.047 2.05537 2.17703 0
M  V30 1779 H 164.593 0.989603 1.04608 0
M  V30 1780 H 166.546 0.644982 4.16435 0
M  V30 1781 H 165.27 -0.206727 3.25945 0
M  V30 1782 H 163.929 1.92136 3.12217 0
M  V30 1783 H 163.577 0.330037 5.01916 0
M  V30 1784 H 163.277 2.013 5.52044 0
M  V30 1785 H 164.801 1.20506 5.98591 0
M  V30 1786 H 166.215 3.14019 4.79651 0
M  V30 1787 H 164.612 3.89644 4.56397 0
M  V30 1788 H 165.682 3.67054 3.16859 0
M  V30 1789 N 167.025 -1.13721 1.09112 0
M  V30 1790 C 167.988 -2.17222 0.731241 0
M  V30 1791 C 168.988 -1.59035 -0.237566 0
M  V30 1792 O 170.178 -1.74192 -0.0161704 0
M  V30 1793 C 167.31 -3.40804 0.0808443 0
M  V30 1794 H 168.503 -2.50573 1.64783 0
M  V30 1795 H 166.056 -1.28493 0.889897 0
M  V30 1796 H 166.791 -3.1304 -0.847127 0
M  V30 1797 H 166.576 -3.84306 0.777896 0
M  V30 1798 H 168.066 -4.1731 -0.155657 0
M  V30 1799 N 168.503 -0.877838 -1.30888 0
M  V30 1800 C 169.728 -0.506629 -2.01117 0
M  V30 1801 C 170.153 0.895564 -1.65412 0
M  V30 1802 O 169.511 1.5923 -0.866922 0
M  V30 1803 C 169.559 -0.680223 -3.54126 0
M  V30 1804 O 168.663 0.277033 -4.11468 0
M  V30 1805 H 168.004 -0.200518 -0.633 0
M  V30 1806 H 170.534 -1.18342 -1.66902 0
M  V30 1807 H 170.544 -0.5765 -4.03907 0
M  V30 1808 H 169.219 -1.70261 -3.79452 0
M  V30 1809 H 167.796 0.127606 -3.72682 0
M  V30 1810 N 169.982 1.44106 -0.638065 0
M  V30 1811 C 170.945 2.29138 0.0531013 0
M  V30 1812 C 171.945 1.41409 0.765506 0
M  V30 1813 O 173.135 1.63206 0.609046 0
M  V30 1814 C 170.267 3.23144 1.08584 0
M  V30 1815 H 171.46 2.91739 -0.694883 0
M  V30 1816 H 169.013 1.51134 -0.398538 0
M  V30 1817 H 169.748 2.65408 1.86357 0
M  V30 1818 H 169.533 3.87804 0.578852 0
M  V30 1819 H 171.023 3.87004 1.56899 0
M  V30 1820 N 171.46 0.379036 1.52974 0
M  V30 1821 C 172.393 -0.504932 2.22544 0
M  V30 1822 C 173.371 -1.0723 1.22231 0
M  V30 1823 O 174.555 -1.12589 1.51182 0
M  V30 1824 C 171.682 -1.69794 2.93066 0
M  V30 1825 C 170.728 -1.25678 4.07563 0
M  V30 1826 S 171.561 -0.246852 5.34931 0
M  V30 1827 C 172.717 -1.44588 6.08971 0
M  V30 1828 H 172.95 0.0858666 2.97176 0
M  V30 1829 H 170.483 0.163183 1.53535 0
M  V30 1830 H 172.441 -2.38219 3.34308 0
M  V30 1831 H 171.102 -2.26002 2.18133 0
M  V30 1832 H 170.295 -2.14725 4.5597 0
M  V30 1833 H 169.897 -0.651584 3.6828 0
M  V30 1834 H 172.189 -2.37469 6.34519 0
M  V30 1835 H 173.132 -1.00292 7.00962 0
M  V30 1836 H 173.54 -1.65804 5.39601 0
M  V30 1837 N 172.938 -1.57226 0.108567 0
M  V30 1838 C 174.184 -1.95121 -0.552761 0
M  V30 1839 C 174.517 -0.991345 -1.66991 0
M  V30 1840 O 173.792 -0.0267211 -1.94482 0
M  V30 1841 C 174.075 -3.43039 -1.09528 0
M  V30 1842 C 173.928 -4.49797 0.0177332 0
M  V30 1843 C 175.247 -3.92567 -1.98945 0
M  V30 1844 H 172.366 -0.709496 -0.199461 0
M  V30 1845 H 175.008 -1.89126 0.182011 0
M  V30 1846 H 173.158 -3.48279 -1.72146 0
M  V30 1847 H 174.83 -4.56661 0.652584 0
M  V30 1848 H 173.073 -4.284 0.682309 0
M  V30 1849 H 173.744 -5.50528 -0.402919 0
M  V30 1850 H 176.22 -3.89565 -1.46214 0
M  V30 1851 H 175.096 -4.96605 -2.33827 0
M  V30 1852 H 175.357 -3.32648 -2.91201 0
M  V30 1853 N 174.416 0.165178 -1.56732 0
M  V30 1854 C 175.326 1.22423 -2.00125 0
M  V30 1855 C 176.342 1.48084 -0.913619 0
M  V30 1856 O 177.518 1.60112 -1.22172 0
M  V30 1857 C 174.583 2.54197 -2.35764 0
M  V30 1858 C 173.644 2.36343 -3.58386 0
M  V30 1859 C 172.877 3.61834 -3.92316 0
M  V30 1860 O 173.1 4.67267 -3.27135 0
M  V30 1861 O 172.034 3.55579 -4.85641 0
M  V30 1862 H 175.86 0.885886 -2.90492 0
M  V30 1863 H 173.445 0.372518 -1.44681 0
M  V30 1864 H 175.327 3.3192 -2.59629 0
M  V30 1865 H 174.002 2.87598 -1.48557 0
M  V30 1866 H 172.909 1.56632 -3.39731 0
M  V30 1867 H 174.242 2.07865 -4.46154 0
M  V30 1868 N 175.894 1.51508 0.433938 0
M  V30 1869 C 176.857 1.72473 1.50949 0
M  V30 1870 C 177.857 0.594725 1.49398 0
M  V30 1871 O 179.047 0.862315 1.5136 0
M  V30 1872 C 176.179 1.78431 2.90474 0
M  V30 1873 H 177.372 2.68467 1.33662 0
M  V30 1874 H 174.925 1.41549 0.662836 0
M  V30 1875 H 175.66 0.842645 3.13161 0
M  V30 1876 H 175.445 2.60558 2.93005 0
M  V30 1877 H 176.935 1.96479 3.68491 0
M  V30 1878 N 177.372 -0.689602 1.41712 0
M  V30 1879 C 178.62 -1.4468 1.4111 0
M  V30 1880 C 178.941 -1.94986 0.0232196 0
M  V30 1881 O 178.211 -1.72097 -0.935913 0
M  V30 1882 H 176.791 -0.536847 0.519427 0
M  V30 1883 H 179.453 -0.815825 1.77004 0
M  V30 1884 H 178.549 -2.30706 2.10193 0
M  V30 1885 N 178.85 -1.27639 -0.924453 0
M  V30 1886 C 179.813 -1.10681 -2.00705 0
M  V30 1887 C 180.813 -0.0497823 -1.60723 0
M  V30 1888 O 182.003 -0.294654 -1.7169 0
M  V30 1889 C 179.135 -0.687164 -3.33902 0
M  V30 1890 H 180.328 -2.06817 -2.17179 0
M  V30 1891 H 177.881 -1.10473 -1.10569 0
M  V30 1892 H 178.616 0.275439 -3.23128 0
M  V30 1893 H 178.401 -1.45061 -3.6428 0
M  V30 1894 H 179.891 -0.590853 -4.13399 0
M  V30 1895 N 180.328 1.1314 -1.09713 0
M  V30 1896 C 181.576 1.84119 -0.833338 0
M  V30 1897 C 181.897 1.84097 0.642904 0
M  V30 1898 O 181.167 1.29881 1.46655 0
M  V30 1899 H 179.747 0.681766 -0.305293 0
M  V30 1900 H 182.409 1.37038 -1.38588 0
M  V30 1901 H 181.505 2.88543 -1.18951 0
M  V30 1902 N 181.806 0.884767 1.30421 0
M  V30 1903 C 183.034 0.518044 2.0031 0
M  V30 1904 C 183.449 -0.893408 1.66324 0
M  V30 1905 O 182.806 -1.5875 0.900262 0
M  V30 1906 C 182.857 0.682997 3.54989 0
M  V30 1907 O 182.578 2.03888 3.87764 0
M  V30 1908 C 184.079 0.31924 4.42149 0
M  V30 1909 H 181.299 0.200265 0.640418 0
M  V30 1910 H 183.843 1.19001 1.6631 0
M  V30 1911 H 181.998 0.0584052 3.87356 0
M  V30 1912 H 182.412 2.05735 4.82466 0
M  V30 1913 H 183.886 0.485555 5.4986 0
M  V30 1914 H 184.363 -0.742717 4.32875 0
M  V30 1915 H 184.969 0.920147 4.15227 0
M  V30 1916 N 183.284 -1.43765 0.645699 0
M  V30 1917 C 184.532 -2.01499 0.155731 0
M  V30 1918 C 184.853 -1.51151 -1.232 0
M  V30 1919 O 184.123 -0.721044 -1.82148 0
M  V30 1920 H 182.703 -0.745003 0.0545817 0
M  V30 1921 H 185.365 -1.76075 0.835677 0
M  V30 1922 H 184.461 -3.1181 0.134577 0
M  V30 1923 N 184.763 -0.387143 -1.52771 0
M  V30 1924 C 186.009 0.188506 -2.02525 0
M  V30 1925 C 186.364 1.44649 -1.26864 0
M  V30 1926 O 185.657 1.88189 -0.359945 0
M  V30 1927 C 185.851 0.512209 -3.53711 0
M  V30 1928 C 185.68 -0.712855 -4.44014 0
M  V30 1929 C 184.45 -1.23147 -4.90064 0
M  V30 1930 C 186.648 -1.58453 -4.89282 0
M  V30 1931 N 184.63 -2.41431 -5.64433 0
M  V30 1932 C 186.001 -2.61381 -5.6221 0
M  V30 1933 C 188.056 -1.60488 -4.71326 0
M  V30 1934 C 186.759 -3.66227 -6.19088 0
M  V30 1935 C 188.785 -2.6424 -5.29085 0
M  V30 1936 C 188.147 -3.6589 -6.01917 0
M  V30 1937 H 184.246 0.0311236 -0.78138 0
M  V30 1938 H 186.83 -0.536548 -1.87161 0
M  V30 1939 H 185.001 1.20632 -3.69192 0
M  V30 1940 H 186.733 1.07482 -3.90166 0
M  V30 1941 H 183.488 -0.792795 -4.66917 0
M  V30 1942 H 183.912 -3.01274 -6.0627 0
M  V30 1943 H 188.554 -0.83247 -4.14524 0
M  V30 1944 H 186.272 -4.44337 -6.74974 0
M  V30 1945 H 189.858 -2.66695 -5.17074 0
M  V30 1946 H 188.738 -4.44855 -6.45813 0
M  V30 1947 N 186.241 1.57166 -0.116904 0
M  V30 1948 C 187.469 1.99473 0.549383 0
M  V30 1949 C 187.884 0.996541 1.60357 0
M  V30 1950 O 187.241 -0.0108731 1.82497 0
M  V30 1951 C 187.292 3.41788 1.17741 0
M  V30 1952 O 187.013 4.37788 0.165362 0
M  V30 1953 C 188.514 3.99216 1.92722 0
M  V30 1954 H 185.734 0.655009 0.145616 0
M  V30 1955 H 188.278 2.03494 -0.202625 0
M  V30 1956 H 186.433 3.38713 1.88021 0
M  V30 1957 H 186.847 5.20806 0.621403 0
M  V30 1958 H 188.321 5.00882 2.31995 0
M  V30 1959 H 188.798 3.3824 2.80161 0
M  V30 1960 H 189.404 4.0583 1.27209 0
M  V30 1961 N 187.719 -0.156864 1.56817 0
M  V30 1962 C 188.965 -0.872416 1.83076 0
M  V30 1963 C 189.298 -1.81261 0.697001 0
M  V30 1964 O 188.573 -1.92171 -0.30008 0
M  V30 1965 C 188.856 -1.65551 3.19789 0
M  V30 1966 C 188.709 -0.737467 4.43713 0
M  V30 1967 C 190.028 -2.62012 3.53606 0
M  V30 1968 H 187.147 -0.315715 0.665953 0
M  V30 1969 H 189.789 -0.138004 1.89498 0
M  V30 1970 H 187.939 -2.28159 3.14445 0
M  V30 1971 H 189.611 -0.123143 4.61136 0
M  V30 1972 H 187.854 -0.0464067 4.33775 0
M  V30 1973 H 188.525 -1.32122 5.35955 0
M  V30 1974 H 191.001 -2.09525 3.59497 0
M  V30 1975 H 189.877 -3.13861 4.50314 0
M  V30 1976 H 190.138 -3.42902 2.79053 0
M  V30 1977 N 189.197 -1.51736 -0.425897 0
M  V30 1978 C 190.427 -1.68549 -1.19476 0
M  V30 1979 C 190.835 -0.387288 -1.85194 0
M  V30 1980 O 190.178 0.645142 -1.71999 0
M  V30 1981 C 190.24 -2.75275 -2.31223 0
M  V30 1982 C 189.904 -4.17534 -1.8578 0
M  V30 1983 C 190.901 -5.01936 -1.35485 0
M  V30 1984 C 188.586 -4.6369 -1.93123 0
M  V30 1985 C 190.58 -6.30559 -0.931347 0
M  V30 1986 C 188.267 -5.92307 -1.50384 0
M  V30 1987 C 189.265 -6.75569 -1.00473 0
M  V30 1988 O 188.953 -8.0178 -0.583452 0
M  V30 1989 H 188.685 -0.568525 -0.365725 0
M  V30 1990 H 191.239 -1.98982 -0.509444 0
M  V30 1991 H 189.469 -2.40182 -3.03067 0
M  V30 1992 H 191.158 -2.80853 -2.93047 0
M  V30 1993 H 191.924 -4.67475 -1.29197 0
M  V30 1994 H 187.803 -3.98997 -2.30916 0
M  V30 1995 H 191.347 -6.95498 -0.541084 0
M  V30 1996 H 187.244 -6.2628 -1.56346 0
M  V30 1997 H 188.012 -8.1543 -0.708275 0
M  V30 1998 N 190.675 0.682077 -1.42076 0
M  V30 1999 C 192.086 1.26246 -1.37546 0
M  V30 2000 C 192.437 1.96092 -0.0651481 0
M  V30 2001 O 191.562 1.99587 0.836297 0
M  V30 2002 C 192.157 2.29594 -2.49143 0
M  V30 2003 C 190.716 2.83175 -2.47969 0
M  V30 2004 C 189.863 1.57395 -2.28303 0
M  V30 2005 H 192.814 0.475937 -1.51395 0
M  V30 2006 H 192.835 3.11175 -2.18976 0
M  V30 2007 H 192.347 1.78729 -3.44496 0
M  V30 2008 H 190.448 3.3818 -1.56413 0
M  V30 2009 H 190.561 3.32687 -3.44755 0
M  V30 2010 H 188.925 1.83699 -1.76428 0
M  V30 2011 H 189.708 1.08507 -3.25701 0
M  V30 2012 N 192.153 1.28127 0.917671 0
M  V30 2013 C 193.564 1.13622 1.48145 0
M  V30 2014 C 193.915 -0.275207 1.9426 0
M  V30 2015 O 193.04 -1.1691 1.82102 0
M  V30 2016 C 193.635 2.05648 2.69248 0
M  V30 2017 C 192.194 1.95219 3.21818 0
M  V30 2018 C 191.341 1.97618 1.94532 0
M  V30 2019 H 194.292 1.40874 0.730772 0
M  V30 2020 H 194.313 1.61818 3.44377 0
M  V30 2021 H 193.825 3.08365 2.35653 0
M  V30 2022 H 191.926 0.955244 3.60147 0
M  V30 2023 H 192.039 2.81976 3.87333 0
M  V30 2024 H 190.403 1.41973 2.11461 0
M  V30 2025 H 191.186 3.02007 1.63238 0
M  V30 2026 N 193.631 -1.12557 1.10312 0
M  V30 2027 C 194.561 -2.20341 0.772798 0
M  V30 2028 C 195.542 -1.68198 -0.25365 0
M  V30 2029 O 196.727 -1.93831 -0.119699 0
M  V30 2030 C 193.857 -3.46709 0.202443 0
M  V30 2031 C 192.811 -4.11996 1.15943 0
M  V30 2032 C 192.137 -5.328 0.450345 0
M  V30 2033 C 193.437 -4.5828 2.50552 0
M  V30 2034 H 195.131 -2.48229 1.674 0
M  V30 2035 H 192.677 -1.19308 0.806326 0
M  V30 2036 H 194.63 -4.2138 -0.0407752 0
M  V30 2037 H 193.354 -3.18245 -0.734001 0
M  V30 2038 H 192.013 -3.39305 1.38808 0
M  V30 2039 H 191.661 -5.00602 -0.490531 0
M  V30 2040 H 191.361 -5.7743 1.08851 0
M  V30 2041 H 192.885 -6.10219 0.215642 0
M  V30 2042 H 194.299 -5.2433 2.31843 0
M  V30 2043 H 192.696 -5.13683 3.10242 0
M  V30 2044 H 193.766 -3.72329 3.10643 0
M  V30 2045 N 195.109 -0.891671 -1.2995 0
M  V30 2046 C 196.072 -0.36828 -2.26222 0
M  V30 2047 C 197.072 0.493014 -1.53056 0
M  V30 2048 O 198.262 0.299213 -1.71611 0
M  V30 2049 C 195.394 0.47442 -3.37583 0
M  V30 2050 H 196.587 -1.21844 -2.74033 0
M  V30 2051 H 194.14 -0.669107 -1.41254 0
M  V30 2052 H 194.875 1.34489 -2.95099 0
M  V30 2053 H 194.66 -0.142615 -3.91841 0
M  V30 2054 H 196.15 0.83218 -4.09224 0
M  V30 2055 N 196.587 1.43421 -0.653314 0
M  V30 2056 C 197.835 2.01414 -0.166415 0
M  V30 2057 C 198.156 1.51803 1.22397 0
M  V30 2058 O 197.426 0.730693 1.81763 0
M  V30 2059 H 196.006 0.744703 -0.0585319 0
M  V30 2060 H 198.668 1.75629 -0.845003 0
M  V30 2061 H 197.764 3.11734 -0.151111 0
M  V30 2062 N 198.065 0.39524 1.52563 0
M  V30 2063 C 199.013 -0.451859 2.28169 0
M  V30 2064 C 200.007 -1.05792 1.32304 0
M  V30 2065 O 201.213 -0.997718 1.49818 0
M  V30 2066 H 197.588 -0.164481 0.733792 0
M  V30 2067 H 199.559 0.207199 2.9768 0
M  V30 2068 C 198.308 -1.56385 3.10546 0
M  V30 2069 H 197.631 -1.10682 3.84174 0
M  V30 2070 H 199.071 -2.13067 3.66577 0
M  V30 2071 C 197.53 -2.52328 2.23231 0
M  V30 2072 O 198.06 -3.5588 1.86312 0
M  V30 2073 N 196.266 -2.22209 1.87274 0
M  V30 2074 H 195.813 -1.38033 2.17496 0
M  V30 2075 H 195.771 -2.86652 1.29143 0
M  V30 2076 N 199.544 -1.57102 0.125237 0
M  V30 2077 C 200.774 -1.99472 -0.538015 0
M  V30 2078 C 201.182 -1.00395 -1.60366 0
M  V30 2079 O 200.525 0.0103875 -1.83697 0
M  V30 2080 C 200.587 -3.38262 -1.21734 0
M  V30 2081 C 200.251 -4.56021 -0.298897 0
M  V30 2082 C 201.248 -5.17817 0.464943 0
M  V30 2083 C 198.933 -5.01869 -0.208149 0
M  V30 2084 C 200.927 -6.23852 1.3072 0
M  V30 2085 C 198.614 -6.07763 0.637736 0
M  V30 2086 C 199.612 -6.68622 1.39403 0
M  V30 2087 O 199.3 -7.7247 2.22586 0
M  V30 2088 H 199.032 -0.659934 -0.146501 0
M  V30 2089 H 201.586 -2.04321 0.210267 0
M  V30 2090 H 199.816 -3.30185 -2.01282 0
M  V30 2091 H 201.505 -3.6488 -1.77813 0
M  V30 2092 H 202.271 -4.83308 0.404741 0
M  V30 2093 H 198.15 -4.54241 -0.786522 0
M  V30 2094 H 201.694 -6.71284 1.898 0
M  V30 2095 H 197.591 -6.41701 0.699309 0
M  V30 2096 H 198.359 -7.89595 2.15596 0
M  V30 2097 N 201.022 0.148545 -1.56898 0
M  V30 2098 C 202.247 0.880385 -1.87787 0
M  V30 2099 C 202.672 1.74018 -0.714093 0
M  V30 2100 O 202.03 1.78153 0.336343 0
M  V30 2101 C 202.078 1.71422 -3.17249 0
M  V30 2102 O 201.182 2.8183 -3.01074 0
M  V30 2103 H 200.523 0.245301 -0.617028 0
M  V30 2104 H 203.053 0.139826 -2.04122 0
M  V30 2105 H 203.063 2.10954 -3.49231 0
M  V30 2106 H 201.738 1.08284 -4.01556 0
M  V30 2107 H 200.315 2.45715 -2.80497 0
M  V30 2108 N 202.5 1.5196 0.417844 0
M  V30 2109 C 203.45 1.7106 1.5074 0
M  V30 2110 C 204.434 0.564487 1.50673 0
M  V30 2111 O 205.626 0.821206 1.56797 0
M  V30 2112 C 202.755 1.85677 2.88754 0
M  V30 2113 C 201.841 3.06133 2.93502 0
M  V30 2114 N 202.232 4.28987 2.67962 0
M  V30 2115 C 200.53 3.05787 3.24669 0
M  V30 2116 C 201.231 5.10395 2.79055 0
M  V30 2117 N 200.207 4.45455 3.11561 0
M  V30 2118 H 204.009 2.63696 1.29775 0
M  V30 2119 H 201.523 1.49873 0.625436 0
M  V30 2120 H 203.52 1.97475 3.67164 0
M  V30 2121 H 202.18 0.942348 3.10725 0
M  V30 2122 H 203.191 4.57607 2.4252 0
M  V30 2123 H 199.868 2.2405 3.52289 0
M  V30 2124 H 201.258 6.18247 2.63097 0
M  V30 2125 N 203.978 -0.674533 1.42435 0
M  V30 2126 C 205.389 -1.25514 1.38214 0
M  V30 2127 C 205.74 -1.96055 0.0755464 0
M  V30 2128 O 204.865 -2.00028 -0.8257 0
M  V30 2129 C 205.46 -2.28269 2.50357 0
M  V30 2130 C 204.019 -2.81856 2.49467 0
M  V30 2131 C 203.166 -1.56182 2.29134 0
M  V30 2132 H 206.117 -0.467902 1.51646 0
M  V30 2133 H 206.138 -3.10009 2.20624 0
M  V30 2134 H 205.65 -1.769 3.45439 0
M  V30 2135 H 203.751 -3.37346 1.58204 0
M  V30 2136 H 203.864 -3.30854 3.46515 0
M  V30 2137 H 202.228 -1.82761 1.774 0
M  V30 2138 H 203.011 -1.06778 3.26272 0
M  V30 2139 N 205.456 -1.28612 -0.910864 0
M  V30 2140 C 206.704 -1.15705 -1.65701 0
M  V30 2141 C 207.025 0.29416 -1.92769 0
M  V30 2142 O 206.295 1.20331 -1.54588 0
M  V30 2143 H 204.875 -0.425216 -0.614167 0
M  V30 2144 H 207.537 -1.61381 -1.0928 0
M  V30 2145 H 206.633 -1.6988 -2.61815 0
M  V30 2146 N 206.934 1.1197 -1.10907 0
M  V30 2147 C 207.897 2.16031 -0.765707 0
M  V30 2148 C 208.897 1.59393 0.212235 0
M  V30 2149 O 210.087 1.74196 -0.0115441 0
M  V30 2150 C 207.219 3.40632 -0.135053 0
M  V30 2151 H 208.412 2.47919 -1.68748 0
M  V30 2152 H 205.965 1.27061 -0.910226 0
M  V30 2153 H 206.7 3.14348 0.797218 0
M  V30 2154 H 206.485 3.8302 -0.838937 0
M  V30 2155 H 207.975 4.17505 0.0892469 0
M  V30 2156 N 208.412 0.89855 1.29475 0
M  V30 2157 C 209.637 0.538561 2.00285 0
M  V30 2158 C 210.062 -0.869135 1.66816 0
M  V30 2159 O 209.42 -1.57831 0.892145 0
M  V30 2160 C 209.468 0.736475 3.52999 0
M  V30 2161 O 208.572 -0.211537 4.11857 0
M  V30 2162 H 207.913 0.210563 0.62973 0
M  V30 2163 H 210.443 1.20982 1.64998 0
M  V30 2164 H 210.453 0.640685 4.02938 0
M  V30 2165 H 209.128 1.76276 3.76696 0
M  V30 2166 H 207.705 -0.0682991 3.72837 0
M  V30 2167 N 209.89 -1.43072 0.660911 0
M  V30 2168 C 211.136 -2.0202 0.177708 0
M  V30 2169 C 211.469 -1.52066 -1.20787 0
M  V30 2170 O 210.744 -0.716987 -1.80802 0
M  V30 2171 C 211.027 -3.59561 0.197019 0
M  V30 2172 C 210.88 -4.19727 1.61706 0
M  V30 2173 C 212.199 -4.37664 -0.462396 0
M  V30 2174 H 209.318 -0.734034 0.0660494 0
M  V30 2175 H 211.96 -1.70272 0.843058 0
M  V30 2176 H 210.11 -3.86739 -0.369527 0
M  V30 2177 H 211.782 -4.03553 2.23479 0
M  V30 2178 H 210.025 -3.76084 2.16201 0
M  V30 2179 H 210.696 -5.28834 1.58237 0
M  V30 2180 H 213.172 -4.16095 0.0197215 0
M  V30 2181 H 212.048 -5.47305 -0.418188 0
M  V30 2182 H 212.309 -4.14493 -1.53778 0
M  V30 2183 N 211.368 -0.403325 -1.52352 0
M  V30 2184 C 212.645 0.232611 -1.94212 0
M  V30 2185 C 213.025 1.63133 -1.33981 0
M  V30 2186 O 212.373 2.22659 -0.513344 0
M  V30 2187 C 212.583 0.244811 -3.4814 0
M  V30 2188 C 213.931 0.46698 -4.22024 0
M  V30 2189 O 214.955 0.324419 -3.5472 0
M  V30 2190 O 213.814 0.74747 -5.41364 0
M  V30 2191 H 210.908 0.148223 -0.813609 0
M  V30 2192 H 213.454 -0.458848 -1.63379 0
M  V30 2193 H 212.226 -0.734378 -3.84347 0
M  V30 2194 H 211.849 0.980611 -3.85318 0
M  V30 2195 N 212.846 1.57033 -0.133567 0
M  V30 2196 C 213.776 2.1909 0.807567 0
M  V30 2197 C 214.757 1.13517 1.26681 0
M  V30 2198 O 215.942 1.41809 1.32679 0
M  V30 2199 C 213.072 2.80188 2.05212 0
M  V30 2200 C 212.026 3.91471 1.73015 0
M  V30 2201 C 211.352 4.39443 3.04622 0
M  V30 2202 C 212.652 5.12886 0.987168 0
M  V30 2203 H 214.346 2.97988 0.290403 0
M  V30 2204 H 211.892 1.43335 0.138239 0
M  V30 2205 H 213.845 3.22264 2.71521 0
M  V30 2206 H 212.569 1.98601 2.59278 0
M  V30 2207 H 211.228 3.49993 1.0909 0
M  V30 2208 H 210.876 3.54695 3.56651 0
M  V30 2209 H 210.576 5.14495 2.83847 0
M  V30 2210 H 212.1 4.8418 3.72024 0
M  V30 2211 H 213.514 5.51891 1.55208 0
M  V30 2212 H 211.911 5.93615 0.87985 0
M  V30 2213 H 212.981 4.84894 -0.0235286 0
M  V30 2214 N 214.325 -0.140222 1.56975 0
M  V30 2215 C 215.553 -0.866437 1.87884 0
M  V30 2216 C 215.968 -1.74428 0.722517 0
M  V30 2217 O 215.325 -1.79891 -0.30749 0
M  V30 2218 C 215.376 -1.71753 3.18093 0
M  V30 2219 O 215.097 -0.875056 4.29272 0
M  V30 2220 C 216.598 -2.55074 3.62563 0
M  V30 2221 H 213.818 -0.25019 0.622612 0
M  V30 2222 H 216.362 -0.130977 2.0408 0
M  V30 2223 H 214.517 -2.40598 3.03631 0
M  V30 2224 H 214.931 -1.46002 5.03769 0
M  V30 2225 H 216.405 -3.10356 4.5649 0
M  V30 2226 H 216.882 -3.31434 2.88181 0
M  V30 2227 H 217.488 -1.91509 3.79743 0
M  V30 2228 N 215.803 -1.52179 -0.40978 0
M  V30 2229 C 217.052 -1.65434 -1.15388 0
M  V30 2230 C 217.365 -0.390056 -1.91671 0
M  V30 2231 O 218.571 -0.402399 -2.68501 0
M  V30 2232 C 217.027 -2.92279 -2.10003 0
M  V30 2233 C 216.635 -4.25813 -1.39239 0
M  V30 2234 C 218.379 -3.14897 -2.84675 0
M  V30 2235 C 216.286 -5.43782 -2.32498 0
M  V30 2236 H 215.216 -0.616267 -0.434432 0
M  V30 2237 H 217.867 -1.78666 -0.418401 0
M  V30 2238 H 216.249 -2.72744 -2.871 0
M  V30 2239 H 217.423 -4.55828 -0.675099 0
M  V30 2240 H 215.738 -4.09292 -0.766097 0
M  V30 2241 H 218.335 -4.0021 -3.54593 0
M  V30 2242 H 218.678 -2.29103 -3.47588 0
M  V30 2243 H 219.211 -3.34901 -2.14677 0
M  V30 2244 H 215.95 -6.3192 -1.74233 0
M  V30 2245 H 215.47 -5.18106 -3.02201 0
M  V30 2246 H 217.149 -5.76834 -2.93038 0
M  V30 2247 N 217.281 0.66697 -1.42791 0
M  V30 2248 C 218.528 1.42699 -1.43678 0
M  V30 2249 C 218.856 1.94419 -0.0560425 0
M  V30 2250 O 218.111 1.7182 0.936831 0
M  V30 2251 C 218.41 2.6349 -2.4147 0
M  V30 2252 C 218.076 2.30267 -3.8767 0
M  V30 2253 C 216.738 2.20918 -4.27491 0
M  V30 2254 C 219.09 2.03435 -4.79858 0
M  V30 2255 C 216.418 1.82873 -5.57471 0
M  V30 2256 C 218.77 1.66892 -6.10188 0
M  V30 2257 C 217.434 1.56058 -6.49001 0
M  V30 2258 H 216.704 0.522171 -0.525755 0
M  V30 2259 H 219.351 0.759785 -1.75783 0
M  V30 2260 H 217.656 3.35279 -2.0272 0
M  V30 2261 H 219.353 3.21684 -2.39417 0
M  V30 2262 H 215.943 2.38449 -3.56146 0
M  V30 2263 H 220.127 2.09586 -4.49875 0
M  V30 2264 H 215.383 1.7306 -5.86396 0
M  V30 2265 H 219.557 1.45157 -6.81104 0
M  V30 2266 H 217.184 1.26348 -7.49627 0
M  V30 2267 N 218.759 1.29093 0.90403 0
M  V30 2268 C 219.984 1.19809 1.69294 0
M  V30 2269 C 220.409 -0.238481 1.86582 0
M  V30 2270 O 219.767 -1.1723 1.383 0
M  V30 2271 C 219.815 1.91202 3.05736 0
M  V30 2272 O 218.919 1.22611 3.93752 0
M  V30 2273 H 218.26 0.415385 0.518027 0
M  V30 2274 H 220.79 1.70586 1.12967 0
M  V30 2275 H 220.8 1.99487 3.55906 0
M  V30 2276 H 219.475 2.95692 2.92471 0
M  V30 2277 H 218.052 1.22554 3.52186 0
M  V30 2278 N 220.237 -1.11381 1.11499 0
M  V30 2279 C 221.167 -2.19509 0.796125 0
M  V30 2280 C 222.148 -1.68458 -0.235796 0
M  V30 2281 O 223.333 -1.93947 -0.0991344 0
M  V30 2282 C 220.463 -3.46475 0.239205 0
M  V30 2283 C 219.417 -4.10744 1.20307 0
M  V30 2284 C 218.743 -5.32293 0.50683 0
M  V30 2285 C 220.043 -4.55597 2.55399 0
M  V30 2286 H 221.737 -2.46439 1.70024 0
M  V30 2287 H 219.283 -1.18446 0.818935 0
M  V30 2288 H 221.236 -4.214 0.00392006 0
M  V30 2289 H 219.96 -3.19006 -0.700206 0
M  V30 2290 H 218.619 -3.37813 1.42399 0
M  V30 2291 H 218.267 -5.01095 -0.437408 0
M  V30 2292 H 217.967 -5.76243 1.1497 0
M  V30 2293 H 219.491 -6.09956 0.280351 0
M  V30 2294 H 220.905 -5.21841 2.37391 0
M  V30 2295 H 219.302 -5.10363 3.15673 0
M  V30 2296 H 220.372 -3.69013 3.14575 0
M  V30 2297 N 221.715 -0.905404 -1.28997 0
M  V30 2298 C 222.665 -0.358713 -2.25161 0
M  V30 2299 C 223.649 0.524449 -1.52113 0
M  V30 2300 O 224.841 0.365534 -1.73184 0
M  V30 2301 C 221.97 0.407609 -3.40872 0
M  V30 2302 C 221.056 -0.490797 -4.21251 0
M  V30 2303 N 221.447 -1.60061 -4.79806 0
M  V30 2304 C 219.745 -0.289636 -4.45059 0
M  V30 2305 C 220.446 -2.15757 -5.40207 0
M  V30 2306 N 219.422 -1.44988 -5.23908 0
M  V30 2307 H 223.224 -1.20642 -2.67998 0
M  V30 2308 H 220.738 -0.757103 -1.43672 0
M  V30 2309 H 222.735 0.816046 -4.08835 0
M  V30 2310 H 221.395 1.25251 -2.9957 0
M  V30 2311 H 222.406 -1.98329 -4.7842 0
M  V30 2312 H 219.083 0.51643 -4.14294 0
M  V30 2313 H 220.473 -3.09069 -5.96595 0
M  V30 2314 N 223.193 1.4272 -0.668489 0
M  V30 2315 C 224.123 2.335 -0.000100175 0
M  V30 2316 C 225.104 1.50328 0.795964 0
M  V30 2317 O 226.289 1.78949 0.754385 0
M  V30 2318 C 223.419 3.33874 0.956302 0
M  V30 2319 C 222.373 4.27152 0.269278 0
M  V30 2320 C 221.699 5.17684 1.33818 0
M  V30 2321 C 222.999 5.15373 -0.847805 0
M  V30 2322 H 224.693 2.89639 -0.758244 0
M  V30 2323 H 222.239 1.39269 -0.366079 0
M  V30 2324 H 224.192 3.9629 1.43292 0
M  V30 2325 H 222.916 2.76025 1.74579 0
M  V30 2326 H 221.575 3.66123 -0.187042 0
M  V30 2327 H 221.223 4.56165 2.1195 0
M  V30 2328 H 220.923 5.80918 0.883659 0
M  V30 2329 H 222.447 5.82974 1.81586 0
M  V30 2330 H 223.861 5.7151 -0.452681 0
M  V30 2331 H 222.258 5.87407 -1.22773 0
M  V30 2332 H 223.328 4.5415 -1.69929 0
M  V30 2333 N 224.671 0.411399 1.52136 0
M  V30 2334 C 225.634 -0.401089 2.25663 0
M  V30 2335 C 226.634 -0.971732 1.28117 0
M  V30 2336 O 227.824 -0.850254 1.52041 0
M  V30 2337 C 224.956 -1.56483 3.02863 0
M  V30 2338 H 226.149 0.24295 2.98914 0
M  V30 2339 H 223.702 0.163968 1.55438 0
M  V30 2340 H 224.437 -2.24567 2.33967 0
M  V30 2341 H 224.222 -1.16211 3.74483 0
M  V30 2342 H 225.712 -2.13951 3.58629 0
M  V30 2343 N 226.149 -1.5696 0.141893 0
M  V30 2344 C 227.397 -1.95573 -0.509484 0
M  V30 2345 C 227.718 -1.02746 -1.65736 0
M  V30 2346 O 226.988 -0.0880311 -1.95702 0
M  V30 2347 H 225.568 -0.722115 -0.191205 0
M  V30 2348 H 228.23 -1.93697 0.216196 0
M  V30 2349 H 227.326 -2.99171 -0.889 0
M  V30 2350 N 227.627 0.131896 -1.57047 0
M  V30 2351 C 228.873 0.843179 -1.84441 0
M  V30 2352 C 229.206 1.80129 -0.725749 0
M  V30 2353 O 228.481 1.92624 0.269469 0
M  V30 2354 C 228.764 1.60442 -3.22382 0
M  V30 2355 C 228.617 0.666782 -4.4483 0
M  V30 2356 C 229.936 2.56354 -3.5773 0
M  V30 2357 H 227.055 0.305081 -0.670891 0
M  V30 2358 H 229.697 0.107839 -1.89694 0
M  V30 2359 H 227.847 2.23128 -3.18035 0
M  V30 2360 H 229.519 0.0497646 -4.61273 0
M  V30 2361 H 227.762 -0.022609 -4.33794 0
M  V30 2362 H 228.433 1.23579 -5.37989 0
M  V30 2363 H 230.909 2.0378 -3.62785 0
M  V30 2364 H 229.785 3.06657 -4.5525 0
M  V30 2365 H 230.046 3.38419 -2.84473 0
M  V30 2366 N 229.106 1.52395 0.401703 0
M  V30 2367 C 230.331 1.70972 1.17403 0
M  V30 2368 C 230.756 0.421615 1.83314 0
M  V30 2369 O 230.114 -0.621564 1.70312 0
M  V30 2370 C 230.162 2.85151 2.20728 0
M  V30 2371 O 229.266 2.51238 3.27037 0
M  V30 2372 H 228.607 0.568927 0.342372 0
M  V30 2373 H 231.137 1.99131 0.469891 0
M  V30 2374 H 231.147 3.10279 2.64936 0
M  V30 2375 H 229.822 3.78603 1.7214 0
M  V30 2376 H 228.399 2.36808 2.88057 0
M  V30 2377 N 230.584 -0.659388 1.43143 0
M  V30 2378 C 231.809 -1.45221 1.48073 0
M  V30 2379 C 232.234 -1.87845 0.097995 0
M  V30 2380 O 231.592 -1.56985 -0.90694 0
M  V30 2381 C 231.64 -2.66748 2.42647 0
M  V30 2382 O 230.744 -3.65583 1.90848 0
M  V30 2383 H 230.085 -0.435669 0.501088 0
M  V30 2384 H 232.615 -0.807432 1.87994 0
M  V30 2385 H 232.625 -3.14637 2.59745 0
M  V30 2386 H 231.3 -2.35067 3.43098 0
M  V30 2387 H 229.877 -3.24693 1.83381 0
M  V30 2388 N 232.062 -1.29571 -0.897171 0
M  V30 2389 C 233.311 -1.1706 -1.64256 0
M  V30 2390 C 233.624 0.276476 -1.93636 0
M  V30 2391 O 234.83 0.52294 -2.66416 0
M  V30 2392 C 233.286 -2.0475 -2.95982 0
M  V30 2393 C 232.894 -3.54295 -2.74187 0
M  V30 2394 C 234.638 -2.0097 -3.73914 0
M  V30 2395 C 232.545 -4.34081 -4.01656 0
M  V30 2396 H 231.475 -0.43452 -0.616205 0
M  V30 2397 H 234.126 -1.54229 -0.994268 0
M  V30 2398 H 232.508 -1.60452 -3.62038 0
M  V30 2399 H 233.682 -4.06662 -2.1671 0
M  V30 2400 H 231.997 -3.59773 -2.09648 0
M  V30 2401 H 234.594 -2.57838 -4.68427 0
M  V30 2402 H 234.937 -0.990273 -4.0435 0
M  V30 2403 H 235.47 -2.43325 -3.14703 0
M  V30 2404 H 232.209 -5.36671 -3.76384 0
M  V30 2405 H 231.729 -3.86483 -4.58684 0
M  V30 2406 H 233.408 -4.44877 -4.69781 0
M  V30 2407 N 233.54 1.10788 -1.12088 0
M  V30 2408 C 234.47 2.19083 -0.807755 0
M  V30 2409 C 235.451 1.6858 0.226859 0
M  V30 2410 O 236.636 1.93997 0.0888475 0
M  V30 2411 C 233.766 3.46344 -0.257576 0
M  V30 2412 C 232.72 4.101 -1.22483 0
M  V30 2413 C 232.046 5.32016 -0.535052 0
M  V30 2414 C 233.346 4.54236 -2.57811 0
M  V30 2415 H 235.04 2.45534 -1.71328 0
M  V30 2416 H 232.586 1.1801 -0.825205 0
M  V30 2417 H 234.539 4.21392 -0.0262679 0
M  V30 2418 H 233.263 3.19373 0.683278 0
M  V30 2419 H 231.922 3.37054 -1.44189 0
M  V30 2420 H 231.57 5.01319 0.410827 0
M  V30 2421 H 231.27 5.75625 -1.18024 0
M  V30 2422 H 232.794 6.09799 -0.312695 0
M  V30 2423 H 234.208 5.20575 -2.40155 0
M  V30 2424 H 232.605 5.08682 -3.18375 0
M  V30 2425 H 233.675 3.6734 -3.16528 0
M  V30 2426 N 235.018 0.912232 1.28515 0
M  V30 2427 C 236.266 0.543523 1.94654 0
M  V30 2428 C 236.587 -0.9155 1.72173 0
M  V30 2429 O 235.857 -1.64708 1.06058 0
M  V30 2430 H 234.437 0.198017 0.720277 0
M  V30 2431 H 237.099 1.16126 1.56527 0
M  V30 2432 H 236.195 0.736684 3.03281 0
M  V30 2433 N 236.496 -1.42363 0.676048 0
M  V30 2434 C 237.459 -2.29199 0.00766941 0
M  V30 2435 C 238.459 -1.43389 -0.727745 0
M  V30 2436 O 239.649 -1.64764 -0.56556 0
M  V30 2437 C 236.781 -3.2591 -0.999785 0
M  V30 2438 H 237.974 -2.89794 0.771988 0
M  V30 2439 H 235.527 -1.50024 0.438468 0
M  V30 2440 H 236.262 -2.70256 -1.79255 0
M  V30 2441 H 236.047 -3.89202 -0.475829 0
M  V30 2442 H 237.537 -3.91028 -1.46583 0
M  V30 2443 N 237.974 -0.419461 -1.51915 0
M  V30 2444 C 239.223 0.154346 -2.01109 0
M  V30 2445 C 239.536 1.45338 -1.30905 0
M  V30 2446 O 240.742 2.10906 -1.7097 0
M  V30 2447 C 239.198 0.325615 -3.58424 0
M  V30 2448 C 238.806 -0.961934 -4.37551 0
M  V30 2449 C 240.55 0.854155 -4.15818 0
M  V30 2450 C 238.457 -0.757287 -5.86531 0
M  V30 2451 H 237.387 0.0614563 -0.751491 0
M  V30 2452 H 240.038 -0.54649 -1.75173 0
M  V30 2453 H 238.42 1.08903 -3.80731 0
M  V30 2454 H 239.594 -1.7323 -4.26999 0
M  V30 2455 H 237.909 -1.41766 -3.91524 0
M  V30 2456 H 240.506 1.02346 -5.24814 0
M  V30 2457 H 240.849 1.83172 -3.73837 0
M  V30 2458 H 241.382 0.149528 -3.97519 0
M  V30 2459 H 238.121 -1.70671 -6.32892 0
M  V30 2460 H 237.641 -0.0264061 -5.99794 0
M  V30 2461 H 239.32 -0.403482 -6.45741 0
M  V30 2462 N 239.452 1.56882 -0.150215 0
M  V30 2463 C 240.4 2.18214 0.805313 0
M  V30 2464 C 241.394 1.14006 1.25296 0
M  V30 2465 O 242.6 1.3225 1.22107 0
M  V30 2466 H 238.975 0.698762 0.277913 0
M  V30 2467 H 240.946 2.97231 0.263862 0
M  V30 2468 C 239.695 2.82065 2.03309 0
M  V30 2469 H 239.018 3.61968 1.69763 0
M  V30 2470 H 240.458 3.28477 2.68103 0
M  V30 2471 C 238.917 1.80739 2.84315 0
M  V30 2472 O 239.447 1.27983 3.80767 0
M  V30 2473 N 237.653 1.4997 2.48913 0
M  V30 2474 H 237.2 1.93062 1.70542 0
M  V30 2475 H 237.158 0.824217 3.03404 0
M  V30 2476 N 240.93 -0.123565 1.57115 0
M  V30 2477 C 242.177 -0.832153 1.84612 0
M  V30 2478 C 242.505 -1.80093 0.734627 0
M  V30 2479 O 241.76 -1.93766 -0.27442 0
M  V30 2480 C 242.059 -1.62016 3.18568 0
M  V30 2481 C 241.725 -0.796084 4.43817 0
M  V30 2482 C 240.387 -0.568816 4.77826 0
M  V30 2483 C 242.739 -0.221364 5.2073 0
M  V30 2484 C 240.067 0.243499 5.86194 0
M  V30 2485 C 242.419 0.578117 6.29953 0
M  V30 2486 C 241.083 0.815744 6.62497 0
M  V30 2487 H 240.353 -0.304507 0.675542 0
M  V30 2488 H 243 -0.0947248 1.91266 0
M  V30 2489 H 241.305 -2.42837 3.0747 0
M  V30 2490 H 243.002 -2.17231 3.37064 0
M  V30 2491 H 239.592 -0.983307 4.17168 0
M  V30 2492 H 243.776 -0.384173 4.94811 0
M  V30 2493 H 239.032 0.436871 6.09837 0
M  V30 2494 H 243.206 1.03046 6.88734 0
M  V30 2495 H 240.833 1.44701 7.46301 0
M  V30 2496 N 242.408 -1.52605 -0.393616 0
M  V30 2497 C 243.657 -1.66649 -1.13627 0
M  V30 2498 C 243.97 -0.410364 -1.91247 0
M  V30 2499 O 245.176 -0.430854 -2.68059 0
M  V30 2500 C 243.632 -2.9449 -2.06891 0
M  V30 2501 C 243.24 -4.27266 -1.34714 0
M  V30 2502 C 244.984 -3.17899 -2.81319 0
M  V30 2503 C 242.891 -5.46217 -2.26717 0
M  V30 2504 H 241.821 -0.62084 -0.427871 0
M  V30 2505 H 244.472 -1.791 -0.399428 0
M  V30 2506 H 242.854 -2.75774 -2.84191 0
M  V30 2507 H 244.028 -4.56518 -0.626714 0
M  V30 2508 H 242.343 -4.10081 -0.722643 0
M  V30 2509 H 244.94 -4.03949 -3.50328 0
M  V30 2510 H 245.283 -2.32777 -3.45139 0
M  V30 2511 H 245.816 -3.37159 -2.11113 0
M  V30 2512 H 242.555 -6.33733 -1.67521 0
M  V30 2513 H 242.075 -5.21283 -2.96689 0
M  V30 2514 H 243.754 -5.7991 -2.86903 0
M  V30 2515 N 243.887 0.651787 -1.4349 0
M  V30 2516 C 245.115 1.43937 -1.48626 0
M  V30 2517 C 245.53 1.8851 -0.104587 0
M  V30 2518 O 244.887 1.5958 0.885464 0
M  V30 2519 C 244.938 2.6734 -2.43334 0
M  V30 2520 O 244.659 2.24631 -3.76128 0
M  V30 2521 C 246.16 3.60683 -2.57726 0
M  V30 2522 H 243.38 0.44213 -0.504739 0
M  V30 2523 H 245.924 0.798944 -1.88248 0
M  V30 2524 H 244.079 3.2752 -2.06904 0
M  V30 2525 H 244.493 3.04485 -4.2707 0
M  V30 2526 H 245.967 4.43933 -3.28067 0
M  V30 2527 H 246.444 4.08126 -1.62265 0
M  V30 2528 H 247.05 3.06384 -2.94973 0
M  V30 2529 N 245.365 1.30045 0.890287 0
M  V30 2530 C 246.593 1.21472 1.67487 0
M  V30 2531 C 247.008 -0.223241 1.87476 0
M  V30 2532 O 246.365 -1.14828 1.41847 0
M  V30 2533 C 246.416 1.93394 3.05419 0
M  V30 2534 O 246.137 3.31576 2.86337 0
M  V30 2535 C 247.638 1.91414 3.99844 0
M  V30 2536 H 244.858 0.420604 0.522813 0
M  V30 2537 H 247.402 1.7158 1.11268 0
M  V30 2538 H 245.557 1.47099 3.58386 0
M  V30 2539 H 245.971 3.67929 3.73802 0
M  V30 2540 H 247.445 2.46285 4.94012 0
M  V30 2541 H 247.922 0.891833 4.3005 0
M  V30 2542 H 248.528 2.37496 3.52811 0
M  V30 2543 N 246.843 -1.10192 1.12674 0
M  V30 2544 C 248.092 -1.81573 0.8783 0
M  V30 2545 C 248.405 -1.86249 -0.597557 0
M  V30 2546 O 249.611 -2.5386 -0.962681 0
M  V30 2547 C 248.067 -3.26149 1.52167 0
M  V30 2548 C 247.675 -3.29763 3.03249 0
M  V30 2549 C 249.419 -4.0234 1.3536 0
M  V30 2550 C 247.326 -4.68815 3.60508 0
M  V30 2551 H 246.256 -0.680394 0.324931 0
M  V30 2552 H 248.907 -1.23902 1.35353 0
M  V30 2553 H 247.289 -3.83832 0.974104 0
M  V30 2554 H 248.463 -2.8189 3.6452 0
M  V30 2555 H 246.778 -2.67059 3.19481 0
M  V30 2556 H 249.375 -5.05058 1.75559 0
M  V30 2557 H 249.718 -4.15235 0.297554 0
M  V30 2558 H 250.251 -3.51079 1.87052 0
M  V30 2559 H 246.99 -4.61121 4.65884 0
M  V30 2560 H 246.51 -5.17045 3.04014 0
M  V30 2561 H 248.189 -5.37785 3.59717 0
M  V30 2562 N 248.321 -0.919034 -1.28029 0
M  V30 2563 C 249.57 -0.550802 -1.94034 0
M  V30 2564 C 249.883 0.910877 -1.73096 0
M  V30 2565 O 251.089 1.3875 -2.33368 0
M  V30 2566 C 249.545 -0.934249 -3.47563 0
M  V30 2567 C 249.153 -2.41602 -3.7727 0
M  V30 2568 C 250.897 -0.636854 -4.19696 0
M  V30 2569 C 248.804 -2.73932 -5.24133 0
M  V30 2570 H 247.734 -0.202273 -0.726362 0
M  V30 2571 H 250.385 -1.11867 -1.45458 0
M  V30 2572 H 248.767 -0.295115 -3.94899 0
M  V30 2573 H 249.941 -3.10233 -3.40723 0
M  V30 2574 H 248.256 -2.68441 -3.18321 0
M  V30 2575 H 250.853 -0.855005 -5.2782 0
M  V30 2576 H 251.196 0.425575 -4.14119 0
M  V30 2577 H 251.729 -1.23469 -3.78154 0
M  V30 2578 H 248.468 -3.79049 -5.34792 0
M  V30 2579 H 247.988 -2.09942 -5.61858 0
M  V30 2580 H 249.667 -2.61215 -5.91925 0
M  V30 2581 N 249.799 1.42003 -0.683588 0
M  V30 2582 C 250.747 2.326 0.000815408 0
M  V30 2583 C 251.741 1.50308 0.781278 0
M  V30 2584 O 252.947 1.66322 0.688251 0
M  V30 2585 H 249.322 0.751758 0.0190616 0
M  V30 2586 H 251.293 2.88011 -0.780528 0
M  V30 2587 C 250.042 3.34978 0.93195 0
M  V30 2588 H 249.365 3.98345 0.340817 0
M  V30 2589 H 250.805 4.00936 1.37936 0
M  V30 2590 C 249.264 2.67925 2.04249 0
M  V30 2591 O 249.794 2.51788 3.12995 0
M  V30 2592 N 248 2.2681 1.81675 0
M  V30 2593 H 247.547 2.40135 0.932363 0
M  V30 2594 H 247.505 1.8228 2.56167 0
M  V30 2595 N 251.277 0.427512 1.51691 0
M  V30 2596 C 252.21 -0.433876 2.24037 0
M  V30 2597 C 253.188 -1.03287 1.25581 0
M  V30 2598 O 254.372 -1.07722 1.54688 0
M  V30 2599 C 251.499 -1.60385 2.98319 0
M  V30 2600 C 250.545 -1.12648 4.11355 0
M  V30 2601 S 251.378 -0.076543 5.35445 0
M  V30 2602 C 252.534 -1.25141 6.13262 0
M  V30 2603 H 252.767 0.180367 2.96752 0
M  V30 2604 H 250.3 0.211946 1.52938 0
M  V30 2605 H 252.258 -2.27462 3.41718 0
M  V30 2606 H 250.919 -2.18948 2.25213 0
M  V30 2607 H 250.112 -2.0011 4.62571 0
M  V30 2608 H 249.714 -0.534088 3.70167 0
M  V30 2609 H 252.006 -2.17162 6.41753 0
M  V30 2610 H 252.949 -0.779411 7.03797 0
M  V30 2611 H 253.357 -1.48553 5.44603 0
M  V30 2612 N 252.755 -1.56801 0.158532 0
M  V30 2613 C 253.702 -2.17337 -0.776729 0
M  V30 2614 C 254.672 -1.1096 -1.23601 0
M  V30 2615 O 255.857 -1.39054 -1.30647 0
M  V30 2616 C 252.997 -2.80822 -2.00582 0
M  V30 2617 C 252.11 -4.01624 -1.59129 0
M  V30 2618 C 251.245 -4.53072 -2.77306 0
M  V30 2619 C 250.284 -5.66314 -2.32282 0
M  V30 2620 N 249.421 -6.12329 -3.43508 0
M  V30 2621 H 254.261 -2.96918 -0.253701 0
M  V30 2622 H 251.798 -1.46661 -0.113504 0
M  V30 2623 H 253.756 -3.15779 -2.72652 0
M  V30 2624 H 252.386 -2.03866 -2.50277 0
M  V30 2625 H 251.438 -3.72571 -0.767806 0
M  V30 2626 H 252.75 -4.83633 -1.2207 0
M  V30 2627 H 251.904 -4.90145 -3.57551 0
M  V30 2628 H 250.643 -3.70095 -3.17617 0
M  V30 2629 H 249.648 -5.28806 -1.5048 0
M  V30 2630 H 250.873 -6.51085 -1.93043 0
M  V30 2631 H 248.819 -5.32284 -3.83418 0
M  V30 2632 H 248.736 -6.89293 -3.105 0
M  V30 2633 H 250.004 -6.5405 -4.24075 0
M  V30 2634 N 254.233 0.115231 -1.57178 0
M  V30 2635 C 255.644 0.67197 -1.74188 0
M  V30 2636 C 255.995 1.80125 -0.777777 0
M  V30 2637 O 255.12 2.16346 0.0484376 0
M  V30 2638 C 255.715 1.22573 -3.1585 0
M  V30 2639 C 254.274 1.72872 -3.34353 0
M  V30 2640 C 253.421 0.629972 -2.70049 0
M  V30 2641 H 256.372 -0.110712 -1.58313 0
M  V30 2642 H 256.393 2.09535 -3.17609 0
M  V30 2643 H 255.905 0.403598 -3.85996 0
M  V30 2644 H 254.006 2.5755 -2.69256 0
M  V30 2645 H 254.119 1.83557 -4.42542 0
M  V30 2646 H 252.483 1.0645 -2.31388 0
M  V30 2647 H 253.266 -0.181241 -3.42821 0
M  V30 2648 N 255.711 1.52812 0.385517 0
M  V30 2649 C 257.122 1.5993 0.963293 0
M  V30 2650 C 257.473 0.454302 1.90868 0
M  V30 2651 O 256.598 -0.422132 2.12243 0
M  V30 2652 C 257.193 2.89871 1.75387 0
M  V30 2653 C 255.752 2.99389 2.28129 0
M  V30 2654 C 254.899 2.55071 1.08783 0
M  V30 2655 H 257.85 1.5784 0.164948 0
M  V30 2656 H 257.871 2.76553 2.61341 0
M  V30 2657 H 257.383 3.73186 1.06554 0
M  V30 2658 H 255.484 2.20619 3.00263 0
M  V30 2659 H 255.597 4.04096 2.57377 0
M  V30 2660 H 253.961 2.09473 1.4489 0
M  V30 2661 H 254.744 3.40785 0.414807 0
M  V30 2662 N 257.189 -0.644168 1.43834 0
M  V30 2663 C 258.152 -1.73857 1.49353 0
M  V30 2664 C 259.152 -1.56315 0.377112 0
M  V30 2665 O 260.342 -1.62048 0.639226 0
M  V30 2666 C 257.474 -3.12819 1.35488 0
M  V30 2667 H 258.667 -1.70342 2.46827 0
M  V30 2668 H 256.22 -0.856652 1.30733 0
M  V30 2669 H 256.955 -3.2194 0.390569 0
M  V30 2670 H 256.74 -3.26958 2.16428 0
M  V30 2671 H 258.23 -3.92606 1.42302 0
M  V30 2672 N 258.668 -1.30515 -0.883378 0
M  V30 2673 C 259.601 -1.11359 -1.99184 0
M  V30 2674 C 260.579 -0.0207858 -1.62587 0
M  V30 2675 O 261.763 -0.174646 -1.87689 0
M  V30 2676 C 258.89 -0.69871 -3.31415 0
M  V30 2677 C 257.936 -1.79261 -3.86998 0
M  V30 2678 S 258.769 -3.39536 -4.14096 0
M  V30 2679 C 259.925 -2.99954 -5.49344 0
M  V30 2680 H 260.158 -2.052 -2.15128 0
M  V30 2681 H 257.691 -1.14847 -1.03196 0
M  V30 2682 H 259.649 -0.466075 -4.07846 0
M  V30 2683 H 258.31 0.220368 -3.13326 0
M  V30 2684 H 257.503 -1.45464 -4.82552 0
M  V30 2685 H 257.105 -1.97961 -3.17313 0
M  V30 2686 H 259.397 -2.48013 -6.30473 0
M  V30 2687 H 260.34 -3.9442 -5.8808 0
M  V30 2688 H 260.748 -2.37775 -5.1198 0
M  V30 2689 N 260.146 1.09593 -1.13257 0
M  V30 2690 C 261.374 1.855 -0.916378 0
M  V30 2691 C 261.789 1.81069 0.534738 0
M  V30 2692 O 261.146 1.20562 1.37007 0
M  V30 2693 C 261.197 3.33546 -1.39388 0
M  V30 2694 O 260.918 3.37927 -2.78813 0
M  V30 2695 C 262.419 4.26299 -1.21588 0
M  V30 2696 H 259.639 0.585991 -0.326887 0
M  V30 2697 H 262.183 1.38488 -1.5047 0
M  V30 2698 H 260.338 3.77992 -0.848597 0
M  V30 2699 H 260.752 4.30254 -2.9997 0
M  V30 2700 H 262.226 5.28341 -1.59876 0
M  V30 2701 H 262.703 4.38918 -0.157376 0
M  V30 2702 H 263.309 3.87668 -1.7491 0
M  V30 2703 N 261.624 0.925811 1.2754 0
M  V30 2704 C 262.556 0.380753 2.26015 0
M  V30 2705 C 263.569 -0.487485 1.5533 0
M  V30 2706 O 264.758 -0.300413 1.75954 0
M  V30 2707 C 261.858 -0.473259 3.35579 0
M  V30 2708 C 261.031 0.375249 4.35787 0
M  V30 2709 C 260.09 -0.415809 5.24555 0
M  V30 2710 O 259.116 0.175834 5.68928 0
M  V30 2711 N 260.318 -1.71607 5.54555 0
M  V30 2712 H 263.083 1.22725 2.73421 0
M  V30 2713 H 260.644 0.793037 1.41147 0
M  V30 2714 H 262.636 -1.00949 3.91907 0
M  V30 2715 H 261.206 -1.2205 2.87789 0
M  V30 2716 H 260.426 1.09279 3.7875 0
M  V30 2717 H 261.714 0.955399 4.99749 0
M  V30 2718 H 261.112 -2.2191 5.20358 0
M  V30 2719 H 259.669 -2.19887 6.1359 0
M  V30 2720 N 263.102 -1.41638 0.69111 0
M  V30 2721 C 264.332 -2.0533 0.228758 0
M  V30 2722 C 264.74 -1.52089 -1.12541 0
M  V30 2723 O 264.083 -0.662145 -1.71351 0
M  V30 2724 C 264.145 -3.59349 0.10407 0
M  V30 2725 C 263.809 -4.35362 1.38956 0
M  V30 2726 C 264.806 -4.64942 2.32648 0
M  V30 2727 C 262.491 -4.74714 1.64169 0
M  V30 2728 C 264.485 -5.32828 3.49818 0
M  V30 2729 C 262.172 -5.42338 2.81625 0
M  V30 2730 C 263.17 -5.71322 3.74273 0
M  V30 2731 O 262.858 -6.37554 4.89673 0
M  V30 2732 H 262.59 -0.667796 0.104997 0
M  V30 2733 H 265.144 -1.82477 0.942938 0
M  V30 2734 H 263.374 -3.80924 -0.665839 0
M  V30 2735 H 265.063 -4.04633 -0.320519 0
M  V30 2736 H 265.829 -4.35025 2.14425 0
M  V30 2737 H 261.708 -4.51538 0.929202 0
M  V30 2738 H 265.252 -5.55368 4.22152 0
M  V30 2739 H 261.149 -5.71673 2.99768 0
M  V30 2740 H 261.917 -6.56049 4.8943 0
M  V30 2741 N 264.58 -0.43555 -1.51462 0
M  V30 2742 C 265.512 0.41257 -2.25456 0
M  V30 2743 C 266.525 0.987822 -1.29406 0
M  V30 2744 O 267.714 0.882266 -1.55172 0
M  V30 2745 C 264.814 1.58894 -2.99342 0
M  V30 2746 C 263.987 1.13288 -4.22474 0
M  V30 2747 C 263.046 2.17917 -4.78956 0
M  V30 2748 O 262.072 1.77425 -5.40841 0
M  V30 2749 N 263.274 3.50382 -4.62832 0
M  V30 2750 H 266.039 -0.221603 -2.9888 0
M  V30 2751 H 263.6 -0.264342 -1.59727 0
M  V30 2752 H 265.592 2.28508 -3.34015 0
M  V30 2753 H 264.162 2.12849 -2.28941 0
M  V30 2754 H 263.382 0.263881 -3.93316 0
M  V30 2755 H 264.67 0.805542 -5.02383 0
M  V30 2756 H 264.068 3.86013 -4.13534 0
M  V30 2757 H 262.625 4.15895 -5.01871 0
M  V30 2758 N 266.058 1.56714 -0.166846 0
M  V30 2759 C 267.286 2.0112 0.485644 0
M  V30 2760 C 267.701 1.04705 1.57106 0
M  V30 2761 O 267.058 0.0471923 1.82439 0
M  V30 2762 C 267.109 3.45361 1.06808 0
M  V30 2763 O 266.83 4.38092 0.0259995 0
M  V30 2764 C 268.331 4.05145 1.79924 0
M  V30 2765 H 265.551 0.65931 0.124704 0
M  V30 2766 H 268.095 2.02746 -0.267262 0
M  V30 2767 H 266.25 3.44524 1.7715 0
M  V30 2768 H 266.664 5.22519 0.455398 0
M  V30 2769 H 268.138 5.08009 2.15942 0
M  V30 2770 H 268.615 3.46982 2.69258 0
M  V30 2771 H 269.221 4.09672 1.14234 0
M  V30 2772 N 267.536 -0.106894 1.57237 0
M  V30 2773 C 268.947 -0.662723 1.74542 0
M  V30 2774 C 269.298 -1.7971 0.787319 0
M  V30 2775 O 268.423 -2.16368 -0.0369636 0
M  V30 2776 C 269.018 -1.20896 3.16496 0
M  V30 2777 C 267.577 -1.71096 3.35266 0
M  V30 2778 C 266.724 -0.615642 2.7038 0
M  V30 2779 H 269.675 0.119106 1.58252 0
M  V30 2780 H 269.696 -2.07847 3.18716 0
M  V30 2781 H 269.208 -0.383122 3.86204 0
M  V30 2782 H 267.309 -2.56119 2.70618 0
M  V30 2783 H 267.422 -1.81208 4.43509 0
M  V30 2784 H 265.786 -1.05222 2.31949 0
M  V30 2785 H 266.569 0.199419 3.4272 0
M  V30 2786 N 269.014 -1.53014 -0.377408 0
M  V30 2787 C 269.944 -1.81589 -1.46791 0
M  V30 2788 C 270.925 -0.668622 -1.56408 0
M  V30 2789 O 272.11 -0.917337 -1.71168 0
M  V30 2790 C 269.24 -1.99519 -2.8427 0
M  V30 2791 C 268.194 -3.15249 -2.89486 0
M  V30 2792 C 267.52 -3.18451 -4.29527 0
M  V30 2793 C 268.82 -4.54084 -2.58079 0
M  V30 2794 H 270.514 -2.7291 -1.23127 0
M  V30 2795 H 268.06 -1.31319 -0.590883 0
M  V30 2796 H 270.013 -2.18092 -3.60575 0
M  V30 2797 H 268.737 -1.04897 -3.09296 0
M  V30 2798 H 267.396 -2.96477 -2.15631 0
M  V30 2799 H 267.044 -2.2149 -4.5161 0
M  V30 2800 H 266.744 -3.962 -4.33934 0
M  V30 2801 H 268.268 -3.39193 -5.07721 0
M  V30 2802 H 269.682 -4.72899 -3.24098 0
M  V30 2803 H 268.079 -5.33987 -2.7382 0
M  V30 2804 H 269.149 -4.60006 -1.53372 0
M  V30 2805 N 270.492 0.636531 -1.44174 0
M  V30 2806 C 271.739 1.39619 -1.46672 0
M  V30 2807 C 272.067 1.94257 -0.0972691 0
M  V30 2808 O 271.322 1.73768 0.900175 0
M  V30 2809 C 271.621 2.58309 -2.47005 0
M  V30 2810 C 271.287 2.21992 -3.92467 0
M  V30 2811 C 269.949 2.118 -4.32081 0
M  V30 2812 C 272.301 1.9321 -4.84065 0
M  V30 2813 C 269.629 1.71007 -5.61225 0
M  V30 2814 C 271.981 1.53911 -6.13591 0
M  V30 2815 C 270.645 1.42257 -6.52165 0
M  V30 2816 H 269.915 0.510902 -0.536712 0
M  V30 2817 H 272.562 0.722328 -1.77355 0
M  V30 2818 H 270.867 3.30903 -2.09786 0
M  V30 2819 H 272.564 3.16533 -2.46186 0
M  V30 2820 H 269.154 2.30841 -3.61124 0
M  V30 2821 H 273.338 1.99997 -4.54219 0
M  V30 2822 H 268.594 1.60583 -5.89935 0
M  V30 2823 H 272.768 1.30677 -6.8403 0
M  V30 2824 H 270.395 1.10419 -7.52138 0
M  V30 2825 N 271.97 1.30982 0.876444 0
M  V30 2826 C 273.216 1.20474 1.63138 0
M  V30 2827 C 273.549 -0.238096 1.92735 0
M  V30 2828 O 272.824 -1.1692 1.55435 0
M  V30 2829 C 273.107 2.04244 2.96574 0
M  V30 2830 C 272.96 3.56793 2.73896 0
M  V30 2831 C 274.279 1.88684 3.97601 0
M  V30 2832 H 271.398 0.439001 0.591985 0
M  V30 2833 H 274.04 1.60704 1.01361 0
M  V30 2834 H 272.19 1.70063 3.493 0
M  V30 2835 H 273.862 4.01077 2.27892 0
M  V30 2836 H 272.105 3.80548 2.08245 0
M  V30 2837 H 272.776 4.10706 3.68815 0
M  V30 2838 H 275.252 2.18584 3.54062 0
M  V30 2839 H 274.128 2.4961 4.88862 0
M  V30 2840 H 274.389 0.848343 4.33884 0
M  V30 2841 N 273.449 -1.08991 1.13837 0
M  V30 2842 C 274.695 -1.81699 0.91417 0
M  V30 2843 C 275.05 -1.84264 -0.553594 0
M  V30 2844 O 274.343 -1.30313 -1.4046 0
M  V30 2845 C 274.537 -3.27042 1.44147 0
M  V30 2846 C 274.366 -3.38637 2.95897 0
M  V30 2847 C 273.136 -3.50177 3.64286 0
M  V30 2848 C 275.334 -3.30791 3.93804 0
M  V30 2849 N 273.316 -3.50501 5.04006 0
M  V30 2850 C 274.687 -3.38037 5.19741 0
M  V30 2851 C 276.742 -3.14488 3.86007 0
M  V30 2852 C 275.445 -3.30659 6.38793 0
M  V30 2853 C 277.471 -3.08438 5.04599 0
M  V30 2854 C 276.833 -3.1628 6.29402 0
M  V30 2855 H 272.932 -0.678967 0.387979 0
M  V30 2856 H 275.516 -1.30224 1.4474 0
M  V30 2857 H 273.687 -3.76976 0.935091 0
M  V30 2858 H 275.419 -3.87785 1.1578 0
M  V30 2859 H 272.174 -3.53815 3.1482 0
M  V30 2860 H 272.598 -3.54236 5.76928 0
M  V30 2861 H 277.24 -3.07291 2.90399 0
M  V30 2862 H 274.958 -3.36618 7.34652 0
M  V30 2863 H 278.544 -2.96952 5.0031 0
M  V30 2864 H 277.424 -3.1162 7.19627 0
M  V30 2865 N 274.927 -0.932562 -1.27047 0
M  V30 2866 C 276.152 -0.591474 -1.98787 0
M  V30 2867 C 276.577 0.824601 -1.69062 0
M  V30 2868 O 275.935 1.5541 -0.933677 0
M  V30 2869 C 275.983 -0.829808 -3.50922 0
M  V30 2870 O 275.087 0.102266 -4.12273 0
M  V30 2871 H 274.428 -0.227185 -0.623926 0
M  V30 2872 H 276.958 -1.25314 -1.61733 0
M  V30 2873 H 276.968 -0.747292 -4.01098 0
M  V30 2874 H 275.643 -1.86201 -3.7189 0
M  V30 2875 H 274.22 -0.0305761 -3.72887 0
M  V30 2876 N 276.405 1.4127 -0.698611 0
M  V30 2877 C 277.651 2.01478 -0.231207 0
M  V30 2878 C 277.984 1.55215 1.16713 0
M  V30 2879 O 277.259 0.764672 1.78838 0
M  V30 2880 C 277.542 3.58912 -0.292281 0
M  V30 2881 C 277.395 4.15293 -1.72778 0
M  V30 2882 C 278.714 4.38736 0.346194 0
M  V30 2883 H 275.833 0.732025 -0.0854878 0
M  V30 2884 H 278.475 1.67977 -0.887906 0
M  V30 2885 H 276.625 3.87582 0.26686 0
M  V30 2886 H 278.297 3.97486 -2.341 0
M  V30 2887 H 276.54 3.7022 -2.26096 0
M  V30 2888 H 277.211 5.24452 -1.72202 0
M  V30 2889 H 279.687 4.15897 -0.130035 0
M  V30 2890 H 278.563 5.48221 0.272932 0
M  V30 2891 H 278.824 4.18425 1.42734 0
M  V30 2892 N 277.883 0.443576 1.51229 0
M  V30 2893 C 278.813 -0.355142 2.30783 0
M  V30 2894 C 279.794 -1.0154 1.36468 0
M  V30 2895 O 280.979 -1.01785 1.65389 0
M  V30 2896 C 278.109 -1.45312 3.15439 0
M  V30 2897 C 277.063 -0.916002 4.18083 0
M  V30 2898 C 276.389 -2.1102 4.91299 0
M  V30 2899 C 277.689 0.0538602 5.22272 0
M  V30 2900 H 279.383 0.308767 2.97804 0
M  V30 2901 H 276.929 0.149937 1.43217 0
M  V30 2902 H 278.882 -2.01914 3.69876 0
M  V30 2903 H 277.606 -2.14541 2.46252 0
M  V30 2904 H 276.265 -0.372145 3.64706 0
M  V30 2905 H 275.913 -2.78882 4.18609 0
M  V30 2906 H 275.613 -1.75717 5.60712 0
M  V30 2907 H 277.137 -2.68164 5.48562 0
M  V30 2908 H 278.551 -0.422069 5.71744 0
M  V30 2909 H 276.948 0.319776 5.99247 0
M  V30 2910 H 278.018 0.98858 4.74716 0
M  V30 2911 N 279.361 -1.56624 0.175154 0
M  V30 2912 C 280.61 -1.96173 -0.468921 0
M  V30 2913 C 280.923 -1.06401 -1.64128 0
M  V30 2914 O 282.129 -1.35648 -2.35185 0
M  V30 2915 C 280.585 -3.48833 -0.885633 0
M  V30 2916 C 280.193 -4.47237 0.261343 0
M  V30 2917 C 281.937 -3.97194 -1.49791 0
M  V30 2918 C 279.844 -5.9114 -0.175214 0
M  V30 2919 H 278.774 -0.732455 -0.178958 0
M  V30 2920 H 281.425 -1.81591 0.263997 0
M  V30 2921 H 279.807 -3.58848 -1.67464 0
M  V30 2922 H 280.981 -4.4894 1.03871 0
M  V30 2923 H 279.296 -4.08956 0.783827 0
M  V30 2924 H 281.893 -5.02167 -1.83665 0
M  V30 2925 H 282.236 -3.40351 -2.39722 0
M  V30 2926 H 282.769 -3.90212 -0.773267 0
M  V30 2927 H 279.508 -6.51865 0.689414 0
M  V30 2928 H 279.028 -5.92735 -0.91786 0
M  V30 2929 H 280.707 -6.44044 -0.617792 0
M  V30 2930 N 280.839 0.0985539 -1.57292 0
M  V30 2931 C 282.067 0.816318 -1.90115 0
M  V30 2932 C 282.482 1.72451 -0.768509 0
M  V30 2933 O 281.839 1.80643 0.259687 0
M  V30 2934 C 281.89 1.63259 -3.22535 0
M  V30 2935 O 281.611 0.760934 -4.31441 0
M  V30 2936 C 283.112 2.45372 -3.69199 0
M  V30 2937 H 280.332 0.233595 -0.629027 0
M  V30 2938 H 282.876 0.0768229 -2.04356 0
M  V30 2939 H 281.031 2.32463 -3.09903 0
M  V30 2940 H 281.445 1.32595 -5.07463 0
M  V30 2941 H 282.919 2.98144 -4.64558 0
M  V30 2942 H 283.396 3.23677 -2.96867 0
M  V30 2943 H 284.002 1.81373 -3.84687 0
M  V30 2944 N 282.317 1.53212 0.369288 0
M  V30 2945 C 283.28 1.7872 1.43498 0
M  V30 2946 C 284.28 0.657554 1.46741 0
M  V30 2947 O 285.47 0.925736 1.47566 0
M  V30 2948 C 282.602 1.90591 2.82645 0
M  V30 2949 H 283.795 2.73894 1.22156 0
M  V30 2950 H 281.348 1.44233 0.602203 0
M  V30 2951 H 282.083 0.974709 3.09306 0
M  V30 2952 H 281.868 2.72751 2.8169 0
M  V30 2953 H 283.358 2.11931 3.59826 0
M  V30 2954 N 283.795 -0.628877 1.44509 0
M  V30 2955 C 285.041 -1.39045 1.47629 0
M  V30 2956 C 285.374 -1.93892 0.109343 0
M  V30 2957 O 284.649 -1.7379 -0.87334 0
M  V30 2958 C 284.932 -2.55408 2.53848 0
M  V30 2959 C 284.785 -2.05896 3.99909 0
M  V30 2960 C 286.104 -3.5759 2.56549 0
M  V30 2961 H 283.223 -0.504232 0.537512 0
M  V30 2962 H 285.865 -0.710854 1.76201 0
M  V30 2963 H 284.015 -3.13384 2.29615 0
M  V30 2964 H 285.687 -1.52734 4.35282 0
M  V30 2965 H 283.93 -1.37061 4.11578 0
M  V30 2966 H 284.601 -2.89681 4.69882 0
M  V30 2967 H 287.077 -3.09419 2.78207 0
M  V30 2968 H 285.953 -4.36527 3.32769 0
M  V30 2969 H 286.214 -4.11808 1.60832 0
M  V30 2970 N 285.273 -1.31445 -0.869486 0
M  V30 2971 C 286.203 -1.21727 -1.99261 0
M  V30 2972 C 287.184 -0.104359 -1.6978 0
M  V30 2973 O 288.369 -0.289038 -1.92037 0
M  V30 2974 C 285.499 -0.924317 -3.34774 0
M  V30 2975 C 284.453 -1.99685 -3.78563 0
M  V30 2976 C 283.779 -1.55658 -5.11541 0
M  V30 2977 C 285.079 -3.41003 -3.95619 0
M  V30 2978 H 286.773 -2.1569 -2.07649 0
M  V30 2979 H 284.319 -1.03839 -0.997675 0
M  V30 2980 H 286.272 -0.842934 -4.12883 0
M  V30 2981 H 284.996 0.0509793 -3.2656 0
M  V30 2982 H 283.655 -2.06813 -3.02694 0
M  V30 2983 H 283.303 -0.569132 -4.9977 0
M  V30 2984 H 283.003 -2.27409 -5.41811 0
M  V30 2985 H 284.527 -1.48928 -5.92159 0
M  V30 2986 H 285.941 -3.36547 -4.64122 0
M  V30 2987 H 284.338 -4.10975 -4.37286 0
M  V30 2988 H 285.408 -3.81754 -2.98985 0
M  V30 2989 N 286.751 1.08385 -1.14413 0
M  V30 2990 C 287.681 2.17321 -0.854044 0
M  V30 2991 C 288.662 1.69024 0.191049 0
M  V30 2992 O 289.847 1.94141 0.0476779 0
M  V30 2993 C 286.977 3.45719 -0.330983 0
M  V30 2994 C 285.931 4.07409 -1.31155 0
M  V30 2995 C 285.257 5.30762 -0.64778 0
M  V30 2996 C 286.557 4.48665 -2.67388 0
M  V30 2997 H 288.251 2.41845 -1.76498 0
M  V30 2998 H 285.797 1.16233 -0.850051 0
M  V30 2999 H 287.75 4.21241 -0.115645 0
M  V30 3000 H 286.474 3.2075 0.615381 0
M  V30 3001 H 285.133 3.33919 -1.51306 0
M  V30 3002 H 284.781 5.02078 0.304398 0
M  V30 3003 H 284.481 5.72992 -1.30207 0
M  V30 3004 H 286.005 6.08998 -0.441972 0
M  V30 3005 H 287.419 5.15364 -2.51143 0
M  V30 3006 H 285.816 5.01814 -3.29093 0
M  V30 3007 H 286.886 3.60543 -3.24248 0
M  V30 3008 N 288.23 0.939286 1.26551 0
M  V30 3009 C 289.16 0.465044 2.28822 0
M  V30 3010 C 290.141 -0.480692 1.63167 0
M  V30 3011 O 291.326 -0.382955 1.90387 0
M  V30 3012 C 288.456 -0.27234 3.46231 0
M  V30 3013 C 287.41 0.58666 4.2396 0
M  V30 3014 C 286.736 -0.280573 5.33963 0
M  V30 3015 C 288.036 1.85704 4.88171 0
M  V30 3016 H 289.73 1.31979 2.68741 0
M  V30 3017 H 287.276 0.636061 1.29191 0
M  V30 3018 H 289.229 -0.615133 4.16886 0
M  V30 3019 H 287.953 -1.16121 3.0526 0
M  V30 3020 H 286.612 0.91232 3.55067 0
M  V30 3021 H 286.26 -1.16874 4.89234 0
M  V30 3022 H 285.96 0.29076 5.8688 0
M  V30 3023 H 287.484 -0.618678 6.07458 0
M  V30 3024 H 288.898 1.58161 5.51052 0
M  V30 3025 H 287.295 2.37279 5.51197 0
M  V30 3026 H 288.365 2.56957 4.11219 0
M  V30 3027 N 289.708 -1.40897 0.706093 0
M  V30 3028 C 290.638 -2.33418 0.0620085 0
M  V30 3029 C 291.619 -1.52385 -0.755827 0
M  V30 3030 O 292.804 -1.80886 -0.706674 0
M  V30 3031 C 289.934 -3.36293 -0.867445 0
M  V30 3032 C 288.888 -4.27716 -0.155932 0
M  V30 3033 C 288.214 -5.2105 -1.20046 0
M  V30 3034 C 289.514 -5.12944 0.984149 0
M  V30 3035 H 291.208 -2.87527 0.83477 0
M  V30 3036 H 288.754 -1.38249 0.402875 0
M  V30 3037 H 290.707 -3.99949 -1.32735 0
M  V30 3038 H 289.431 -2.80556 -1.67199 0
M  V30 3039 H 288.09 -3.65498 0.284047 0
M  V30 3040 H 287.738 -4.61624 -1.99781 0
M  V30 3041 H 287.438 -5.83056 -0.729328 0
M  V30 3042 H 288.962 -5.87584 -1.66066 0
M  V30 3043 H 290.376 -5.70109 0.604048 0
M  V30 3044 H 288.773 -5.83945 1.38304 0
M  V30 3045 H 289.843 -4.49485 1.81911 0
M  V30 3046 N 291.186 -0.45159 -1.50991 0
M  V30 3047 C 292.411 0.110667 -2.07105 0
M  V30 3048 C 292.836 1.3446 -1.31538 0
M  V30 3049 O 292.194 1.77743 -0.357365 0
M  V30 3050 C 292.242 0.397238 -3.58405 0
M  V30 3051 O 291.346 1.48124 -3.84881 0
M  V30 3052 H 290.687 -0.00439271 -0.663985 0
M  V30 3053 H 293.217 -0.637026 -1.9443 0
M  V30 3054 H 293.227 0.64351 -4.02893 0
M  V30 3055 H 291.902 -0.504553 -4.12828 0
M  V30 3056 H 290.479 1.22381 -3.52246 0
M  V30 3057 N 292.664 1.56529 -0.183458 0
M  V30 3058 C 293.594 2.21549 0.737456 0
M  V30 3059 C 294.575 1.17489 1.23005 0
M  V30 3060 O 295.76 1.45959 1.281 0
M  V30 3061 C 292.89 2.86575 1.96194 0
M  V30 3062 C 291.844 3.96778 1.60473 0
M  V30 3063 C 291.17 4.48911 2.90487 0
M  V30 3064 C 292.47 5.15767 0.823497 0
M  V30 3065 H 294.164 2.98761 0.195453 0
M  V30 3066 H 291.71 1.43702 0.0925686 0
M  V30 3067 H 293.663 3.30739 2.61131 0
M  V30 3068 H 292.387 2.06749 2.52828 0
M  V30 3069 H 291.046 3.53286 0.978997 0
M  V30 3070 H 290.694 3.65862 3.45186 0
M  V30 3071 H 290.394 5.23265 2.67335 0
M  V30 3072 H 291.918 4.95771 3.56432 0
M  V30 3073 H 293.332 5.56549 1.37571 0
M  V30 3074 H 291.729 5.96114 0.690551 0
M  V30 3075 H 292.799 4.84574 -0.177782 0
M  V30 3076 N 294.142 -0.090211 1.57342 0
M  V30 3077 C 295.553 -0.644173 1.75235 0
M  V30 3078 C 295.904 -1.78865 0.806335 0
M  V30 3079 O 295.029 -2.16395 -0.0140128 0
M  V30 3080 C 295.624 -1.17532 3.1776 0
M  V30 3081 C 294.183 -1.67531 3.37061 0
M  V30 3082 C 293.33 -0.58693 2.71017 0
M  V30 3083 H 296.281 0.135884 1.58117 0
M  V30 3084 H 296.302 -2.04455 3.20902 0
M  V30 3085 H 295.814 -0.342138 3.86589 0
M  V30 3086 H 293.915 -2.53234 2.73319 0
M  V30 3087 H 294.028 -1.76493 4.45406 0
M  V30 3088 H 292.392 -1.02756 2.33052 0
M  V30 3089 H 293.175 0.235758 3.4249 0
M  V30 3090 N 295.62 -1.53406 -0.361157 0
M  V30 3091 C 296.866 -1.70054 -1.10496 0
M  V30 3092 C 297.199 -0.453278 -1.88836 0
M  V30 3093 O 296.474 0.5495 -1.86576 0
M  V30 3094 C 296.757 -2.95317 -2.06058 0
M  V30 3095 C 296.61 -4.3021 -1.31298 0
M  V30 3096 C 297.929 -3.16193 -3.06121 0
M  V30 3097 H 295.048 -0.618799 -0.400321 0
M  V30 3098 H 297.69 -1.86052 -0.385318 0
M  V30 3099 H 295.84 -2.81809 -2.67425 0
M  V30 3100 H 297.512 -4.55538 -0.726807 0
M  V30 3101 H 295.755 -4.29421 -0.614853 0
M  V30 3102 H 296.426 -5.14 -2.01265 0
M  V30 3103 H 298.902 -3.28916 -2.5486 0
M  V30 3104 H 297.778 -4.05266 -3.70204 0
M  V30 3105 H 298.039 -2.31676 -3.76535 0
M  V30 3106 N 297.098 0.621204 -1.44841 0
M  V30 3107 C 298.028 1.74366 -1.55303 0
M  V30 3108 C 299.009 1.65199 -0.405385 0
M  V30 3109 O 300.194 1.83807 -0.626787 0
M  V30 3110 C 297.324 3.12931 -1.50637 0
M  V30 3111 C 296.278 3.36896 -2.63979 0
M  V30 3112 C 295.604 4.75594 -2.44366 0
M  V30 3113 C 296.904 3.28483 -4.06074 0
M  V30 3114 H 298.598 1.65867 -2.49256 0
M  V30 3115 H 296.144 0.796558 -1.19962 0
M  V30 3116 H 298.097 3.9124 -1.56555 0
M  V30 3117 H 296.821 3.22237 -0.532057 0
M  V30 3118 H 295.48 2.60972 -2.57467 0
M  V30 3119 H 295.128 4.81616 -1.45105 0
M  V30 3120 H 294.828 4.92586 -3.20364 0
M  V30 3121 H 296.352 5.5612 -2.52117 0
M  V30 3122 H 297.766 3.96684 -4.13902 0
M  V30 3123 H 296.163 3.57008 -4.82354 0
M  V30 3124 H 297.233 2.26133 -4.28943 0
M  V30 3125 N 298.576 1.31904 0.862503 0
M  V30 3126 C 299.539 1.20131 1.95195 0
M  V30 3127 C 300.539 0.126409 1.60302 0
M  V30 3128 O 301.729 0.376234 1.70089 0
M  V30 3129 C 298.861 0.845691 3.30244 0
M  V30 3130 H 300.054 2.16943 2.07064 0
M  V30 3131 H 297.607 1.15622 1.05172 0
M  V30 3132 H 298.342 -0.120957 3.24074 0
M  V30 3133 H 298.127 1.62276 3.56944 0
M  V30 3134 H 299.617 0.787418 4.10109 0
M  V30 3135 N 300.054 -1.07777 1.14986 0
M  V30 3136 C 301.017 -2.13041 0.845358 0
M  V30 3137 C 302.017 -1.60071 -0.152931 0
M  V30 3138 O 303.207 -1.74033 0.0761879 0
M  V30 3139 C 300.339 -3.39896 0.261383 0
M  V30 3140 H 301.532 -2.41485 1.77834 0
M  V30 3141 H 299.085 -1.23595 0.956757 0
M  V30 3142 H 299.82 -3.17091 -0.68 0
M  V30 3143 H 299.605 -3.79642 0.980514 0
M  V30 3144 H 301.095 -4.17548 0.0657687 0
M  V30 3145 N 301.532 -0.945985 -1.26051 0
M  V30 3146 C 302.78 -0.594941 -1.93145 0
M  V30 3147 C 303.101 0.86953 -1.7454 0
M  V30 3148 O 302.371 1.61838 -1.10387 0
M  V30 3149 H 300.951 -0.217044 -0.714773 0
M  V30 3150 H 303.613 -1.20235 -1.53393 0
M  V30 3151 H 302.709 -0.816835 -3.01221 0
M  V30 3152 N 303.011 1.40521 -0.713556 0
M  V30 3153 C 304.26 2.00155 -0.249192 0
M  V30 3154 C 304.573 1.57224 1.16362 0
M  V30 3155 O 305.779 2.09542 1.72639 0
M  V30 3156 C 304.235 3.5773 -0.3946 0
M  V30 3157 C 303.843 4.09635 -1.81392 0
M  V30 3158 C 305.587 4.24499 0.00907364 0
M  V30 3159 C 303.494 5.59707 -1.91003 0
M  V30 3160 H 302.424 0.74868 -0.0894114 0
M  V30 3161 H 305.075 1.60784 -0.884352 0
M  V30 3162 H 303.457 3.94792 0.30911 0
M  V30 3163 H 304.631 3.83955 -2.54785 0
M  V30 3164 H 302.946 3.55456 -2.16888 0
M  V30 3165 H 305.543 5.34683 -0.0420404 0
M  V30 3166 H 305.886 4.02824 1.05065 0
M  V30 3167 H 306.419 3.92536 -0.645007 0
M  V30 3168 H 303.158 5.86234 -2.93275 0
M  V30 3169 H 302.678 5.87258 -1.22019 0
M  V30 3170 H 304.357 6.24776 -1.6812 0
M  V30 3171 N 304.489 0.459591 1.5075 0
M  V30 3172 C 305.717 -0.0973749 2.06671 0
M  V30 3173 C 306.132 -1.34524 1.32472 0
M  V30 3174 O 305.489 -1.7827 0.390634 0
M  V30 3175 C 305.54 -0.39714 3.59312 0
M  V30 3176 O 305.261 0.801214 4.30711 0
M  V30 3177 C 306.762 -1.00234 4.31819 0
M  V30 3178 H 303.982 0.00195854 0.670997 0
M  V30 3179 H 306.526 0.645072 1.94059 0
M  V30 3180 H 304.681 -1.08951 3.71764 0
M  V30 3181 H 305.095 0.538857 5.21725 0
M  V30 3182 H 306.569 -1.16193 5.39632 0
M  V30 3183 H 307.046 -1.98939 3.91561 0
M  V30 3184 H 307.652 -0.348699 4.23868 0
M  V30 3185 N 305.967 -1.56429 0.191757 0
M  V30 3186 C 306.9 -2.14829 -0.76967 0
M  V30 3187 C 307.878 -1.08405 -1.2119 0
M  V30 3188 O 309.062 -1.36498 -1.30002 0
M  V30 3189 C 306.189 -2.70446 -2.03903 0
M  V30 3190 C 305.235 -3.89428 -1.7392 0
M  V30 3191 S 306.068 -5.28048 -0.890265 0
M  V30 3192 C 307.224 -5.87085 -2.16984 0
M  V30 3193 H 307.457 -2.96042 -0.273204 0
M  V30 3194 H 304.99 -1.54383 -0.0231975 0
M  V30 3195 H 306.948 -3.03134 -2.76803 0
M  V30 3196 H 305.609 -1.89281 -2.50662 0
M  V30 3197 H 304.802 -4.26742 -2.68155 0
M  V30 3198 H 304.404 -3.57732 -1.09103 0
M  V30 3199 H 306.696 -6.01244 -3.12269 0
M  V30 3200 H 307.639 -6.83747 -1.84108 0
M  V30 3201 H 308.047 -5.15663 -2.29678 0
M  V30 3202 N 307.445 0.0818655 -1.57387 0
M  V30 3203 C 308.375 1.09885 -2.06028 0
M  V30 3204 C 309.356 1.4098 -0.951774 0
M  V30 3205 O 310.541 1.50781 -1.22387 0
M  V30 3206 C 307.671 2.4151 -2.4958 0
M  V30 3207 C 306.625 2.24792 -3.64215 0
M  V30 3208 C 305.951 3.61712 -3.93787 0
M  V30 3209 C 307.251 1.67749 -4.94629 0
M  V30 3210 H 308.945 0.694128 -2.91243 0
M  V30 3211 H 306.491 0.332448 -1.4011 0
M  V30 3212 H 308.444 3.12939 -2.82219 0
M  V30 3213 H 307.168 2.83943 -1.61381 0
M  V30 3214 H 305.827 1.55807 -3.31843 0
M  V30 3215 H 305.475 4.01697 -3.02735 0
M  V30 3216 H 305.175 3.51368 -4.70971 0
M  V30 3217 H 306.699 4.34587 -4.28913 0
M  V30 3218 H 308.113 2.29032 -5.25564 0
M  V30 3219 H 306.51 1.68128 -5.76067 0
M  V30 3220 H 307.58 0.638059 -4.80684 0
M  V30 3221 N 308.923 1.53595 0.353017 0
M  V30 3222 C 309.853 1.83902 1.43883 0
M  V30 3223 C 310.834 0.693421 1.55324 0
M  V30 3224 O 312.019 0.944452 1.69687 0
M  V30 3225 C 309.149 2.04016 2.8106 0
M  V30 3226 C 308.103 3.19814 2.84434 0
M  V30 3227 C 307.429 3.25244 4.24406 0
M  V30 3228 C 308.729 4.58133 2.50822 0
M  V30 3229 H 310.423 2.74835 1.1877 0
M  V30 3230 H 307.969 1.32242 0.569917 0
M  V30 3231 H 309.922 2.238 3.57059 0
M  V30 3232 H 308.646 1.09804 3.07588 0
M  V30 3233 H 307.305 2.9987 2.10887 0
M  V30 3234 H 306.953 2.28646 4.48029 0
M  V30 3235 H 306.653 4.03054 4.27576 0
M  V30 3236 H 308.177 3.47228 5.0226 0
M  V30 3237 H 309.591 4.77995 3.16534 0
M  V30 3238 H 307.988 5.38276 2.6529 0
M  V30 3239 H 309.058 4.62387 1.46034 0
M  V30 3240 N 310.401 -0.613514 1.45168 0
M  V30 3241 C 311.629 -1.39946 1.5239 0
M  V30 3242 C 312.044 -1.88167 0.154531 0
M  V30 3243 O 311.401 -1.61872 -0.842843 0
M  V30 3244 C 311.452 -2.60795 2.50337 0
M  V30 3245 O 311.173 -2.1458 3.81952 0
M  V30 3246 C 312.674 -3.53723 2.67198 0
M  V30 3247 H 309.894 -0.428593 0.516284 0
M  V30 3248 H 312.438 -0.748753 1.903 0
M  V30 3249 H 310.593 -3.21919 2.15515 0
M  V30 3250 H 311.007 -2.93055 4.34993 0
M  V30 3251 H 312.481 -4.35079 3.39721 0
M  V30 3252 H 312.958 -4.0368 1.73029 0
M  V30 3253 H 313.564 -2.98456 3.02992 0
M  V30 3254 N 311.879 -1.3236 -0.855495 0
M  V30 3255 C 313.156 -1.13491 -1.59309 0
M  V30 3256 C 313.536 0.30503 -2.08885 0
M  V30 3257 O 312.884 1.30151 -1.87811 0
M  V30 3258 C 313.094 -2.16176 -2.73987 0
M  V30 3259 C 314.442 -2.49463 -3.43589 0
M  V30 3260 O 315.466 -2.14715 -2.84211 0
M  V30 3261 O 314.325 -3.09027 -4.50738 0
M  V30 3262 H 311.419 -0.437887 -0.701559 0
M  V30 3263 H 313.965 -1.43887 -0.899696 0
M  V30 3264 H 312.737 -3.1297 -2.34873 0
M  V30 3265 H 312.36 -1.86769 -3.51003 0
M  V30 3266 N 313.357 1.07166 -1.15556 0
M  V30 3267 C 314.773 1.31899 -0.898603 0
M  V30 3268 C 314.973 1.96333 0.453383 0
M  V30 3269 O 314.029 2.22438 1.19489 0
M  V30 3270 C 315.342 2.20826 -2.04099 0
M  V30 3271 C 316.89 2.34269 -2.07574 0
M  V30 3272 C 317.365 3.26546 -3.21141 0
M  V30 3273 N 318.856 3.34127 -3.20801 0
M  V30 3274 C 319.591 4.05595 -4.05315 0
M  V30 3275 N 319.087 4.79661 -4.99897 0
M  V30 3276 N 320.88 4.01555 -3.93332 0
M  V30 3277 H 313.031 0.637302 -2.02613 0
M  V30 3278 H 315.294 0.343468 -0.883591 0
M  V30 3279 H 315 1.80744 -3.01703 0
M  V30 3280 H 314.874 3.21364 -1.97496 0
M  V30 3281 H 317.261 2.73603 -1.10568 0
M  V30 3282 H 317.342 1.33429 -2.18244 0
M  V30 3283 H 316.986 2.87931 -4.184 0
M  V30 3284 H 316.916 4.27345 -3.07708 0
M  V30 3285 H 319.407 2.81336 -2.52306 0
M  V30 3286 H 319.72 5.31694 -5.60822 0
M  V30 3287 H 318.065 4.78671 -5.03884 0
M  V30 3288 H 321.256 3.42806 -3.18751 0
M  V30 3289 H 321.429 4.56987 -4.5942 0
M  V30 3290 N 314.835 0.952656 1.25548 0
M  V30 3291 C 315.783 0.462354 2.27958 0
M  V30 3292 C 316.777 -0.46634 1.62855 0
M  V30 3293 O 317.983 -0.343287 1.76696 0
M  V30 3294 H 314.358 0.13101 0.7405 0
M  V30 3295 H 316.329 1.33839 2.66702 0
M  V30 3296 C 315.078 -0.24628 3.46827 0
M  V30 3297 H 314.401 0.459192 3.97154 0
M  V30 3298 H 315.841 -0.553393 4.20373 0
M  V30 3299 C 314.3 -1.4681 3.0323 0
M  V30 3300 O 314.83 -2.56591 3.09069 0
M  V30 3301 N 313.036 -1.32874 2.58443 0
M  V30 3302 H 312.583 -0.435536 2.53891 0
M  V30 3303 H 312.541 -2.14742 2.29637 0
M  V30 3304 N 316.313 -1.40141 0.720998 0
M  V30 3305 C 317.243 -2.33339 0.0867621 0
M  V30 3306 C 318.224 -1.53178 -0.739622 0
M  V30 3307 O 319.409 -1.81625 -0.687449 0
M  V30 3308 C 316.539 -3.37194 -0.831728 0
M  V30 3309 C 315.493 -4.27857 -0.110558 0
M  V30 3310 C 314.819 -5.22294 -1.14513 0
M  V30 3311 C 316.119 -5.11872 1.0385 0
M  V30 3312 H 317.813 -2.86626 0.865219 0
M  V30 3313 H 315.359 -1.37814 0.417516 0
M  V30 3314 H 317.312 -4.01335 -1.28485 0
M  V30 3315 H 316.036 -2.82314 -1.64214 0
M  V30 3316 H 314.695 -3.65176 0.322797 0
M  V30 3317 H 314.343 -4.63717 -1.94874 0
M  V30 3318 H 314.043 -5.83797 -0.667446 0
M  V30 3319 H 315.567 -5.89312 -1.59824 0
M  V30 3320 H 316.981 -5.69436 0.664482 0
M  V30 3321 H 315.378 -5.82445 1.4449 0
M  V30 3322 H 316.448 -4.4753 1.86668 0
M  V30 3323 N 317.792 -0.46758 -1.50504 0
M  V30 3324 C 318.74 0.342482 -2.30065 0
M  V30 3325 C 319.734 0.993596 -1.37201 0
M  V30 3326 O 320.94 0.925102 -1.54408 0
M  V30 3327 H 317.315 0.129283 -0.740803 0
M  V30 3328 H 319.286 -0.34899 -2.96352 0
M  V30 3329 C 318.035 1.4139 -3.17654 0
M  V30 3330 H 317.358 0.922264 -3.89017 0
M  V30 3331 H 318.798 1.95335 -3.76325 0
M  V30 3332 C 317.257 2.4139 -2.35016 0
M  V30 3333 O 317.787 3.46586 -2.03079 0
M  V30 3334 N 315.993 2.13021 -1.97662 0
M  V30 3335 H 315.54 1.27499 -2.23834 0
M  V30 3336 H 315.498 2.80164 -1.42673 0
M  V30 3337 N 319.27 1.56325 -0.20005 0
M  V30 3338 C 320.498 2.02105 0.442874 0
M  V30 3339 C 320.913 1.08014 1.5485 0
M  V30 3340 O 320.27 0.0858797 1.82298 0
M  V30 3341 C 320.321 3.47549 0.994583 0
M  V30 3342 O 320.042 4.38049 -0.0669322 0
M  V30 3343 C 321.543 4.0887 1.7129 0
M  V30 3344 H 318.763 0.661807 0.110691 0
M  V30 3345 H 321.307 2.02134 -0.310207 0
M  V30 3346 H 319.462 3.48204 1.69803 0
M  V30 3347 H 319.876 5.23368 0.344462 0
M  V30 3348 H 321.35 5.12475 2.05118 0
M  V30 3349 H 321.827 3.52615 2.61838 0
M  V30 3350 H 322.433 4.12002 1.05518 0
M  V30 3351 N 320.748 -0.0735177 1.57428 0
M  V30 3352 C 321.976 -0.785969 1.9139 0
M  V30 3353 C 322.391 -1.71207 0.795847 0
M  V30 3354 O 321.748 -1.81033 -0.230915 0
M  V30 3355 C 321.799 -1.58107 3.25091 0
M  V30 3356 O 321.52 -0.6922 4.32597 0
M  V30 3357 C 323.021 -2.39467 3.73055 0
M  V30 3358 H 320.241 -0.223558 0.632663 0
M  V30 3359 H 322.785 -0.044302 2.04452 0
M  V30 3360 H 320.94 -2.27503 3.13562 0
M  V30 3361 H 321.354 -1.24504 5.09508 0
M  V30 3362 H 322.828 -2.90716 4.69242 0
M  V30 3363 H 323.305 -3.18913 3.01979 0
M  V30 3364 H 323.911 -1.7523 3.87523 0
M  V30 3365 N 322.226 -1.5378 -0.344866 0
M  V30 3366 C 323.473 -1.70963 -1.08526 0
M  V30 3367 C 323.801 -0.472126 -1.88683 0
M  V30 3368 O 323.056 0.546116 -1.87926 0
M  V30 3369 C 323.355 -2.92407 -2.05506 0
M  V30 3370 C 323.021 -4.28066 -1.41671 0
M  V30 3371 C 321.683 -4.64951 -1.2399 0
M  V30 3372 C 324.035 -5.12344 -0.956726 0
M  V30 3373 C 321.363 -5.83733 -0.589277 0
M  V30 3374 C 323.715 -6.3179 -0.320015 0
M  V30 3375 C 322.379 -6.67372 -0.130881 0
M  V30 3376 H 321.649 -0.625598 -0.397124 0
M  V30 3377 H 324.296 -1.87995 -0.36469 0
M  V30 3378 H 322.601 -2.69973 -2.8394 0
M  V30 3379 H 324.298 -3.02895 -2.62784 0
M  V30 3380 H 320.888 -3.99034 -1.56429 0
M  V30 3381 H 325.072 -4.8438 -1.08118 0
M  V30 3382 H 320.328 -6.09877 -0.431344 0
M  V30 3383 H 324.502 -6.96386 0.0445072 0
M  V30 3384 H 322.129 -7.59273 0.375318 0
M  V30 3385 N 323.704 0.605807 -1.45491 0
M  V30 3386 C 324.951 1.36476 -1.49601 0
M  V30 3387 C 325.279 1.94007 -0.138452 0
M  V30 3388 O 324.534 1.75638 0.863114 0
M  V30 3389 C 324.833 2.53012 -2.52428 0
M  V30 3390 C 324.499 2.13617 -3.97087 0
M  V30 3391 C 323.161 2.02587 -4.36477 0
M  V30 3392 C 325.513 1.82899 -4.88055 0
M  V30 3393 C 322.841 1.59064 -5.64726 0
M  V30 3394 C 325.193 1.40861 -6.16718 0
M  V30 3395 C 323.857 1.28391 -6.55036 0
M  V30 3396 H 323.127 0.499402 -0.547429 0
M  V30 3397 H 325.774 0.684546 -1.78847 0
M  V30 3398 H 324.079 3.26379 -2.16758 0
M  V30 3399 H 325.776 3.1124 -2.52845 0
M  V30 3400 H 322.366 2.23129 -3.65939 0
M  V30 3401 H 326.55 1.90317 -4.58359 0
M  V30 3402 H 321.806 1.48034 -5.93208 0
M  V30 3403 H 325.98 1.16138 -6.86648 0
M  V30 3404 H 323.607 0.944403 -7.54311 0
M  V30 3405 N 325.182 1.32811 0.848464 0
M  V30 3406 C 326.459 1.14334 1.58704 0
M  V30 3407 C 326.839 -0.293948 2.09043 0
M  V30 3408 O 326.187 -1.29153 1.88499 0
M  V30 3409 C 326.397 2.17626 2.72837 0
M  V30 3410 C 327.745 2.51282 3.42261 0
M  V30 3411 O 328.769 2.16219 2.83068 0
M  V30 3412 O 327.628 3.11413 4.49093 0
M  V30 3413 H 324.722 0.441601 0.699226 0
M  V30 3414 H 327.268 1.44362 0.892053 0
M  V30 3415 H 326.04 3.14211 2.3321 0
M  V30 3416 H 325.663 1.88628 3.50008 0
M  V30 3417 N 326.66 -1.06551 1.16123 0
M  V30 3418 C 328.071 -1.60768 0.949232 0
M  V30 3419 C 328.422 -1.89523 -0.507508 0
M  V30 3420 O 327.547 -1.66671 -1.38021 0
M  V30 3421 C 328.142 -2.92086 1.71671 0
M  V30 3422 C 326.701 -3.43015 1.54977 0
M  V30 3423 C 325.848 -2.16947 1.72711 0
M  V30 3424 H 328.799 -0.895354 1.31031 0
M  V30 3425 H 328.82 -3.6138 1.19099 0
M  V30 3426 H 328.332 -2.71127 2.7769 0
M  V30 3427 H 326.433 -3.69039 0.513873 0
M  V30 3428 H 326.546 -4.18516 2.33198 0
M  V30 3429 H 324.91 -2.27041 1.15431 0
M  V30 3430 H 325.693 -1.98473 2.80113 0
M  V30 3431 N 328.138 -0.959301 -1.25041 0
M  V30 3432 C 329.101 -0.487677 -2.23952 0
M  V30 3433 C 330.101 0.41119 -1.55454 0
M  V30 3434 O 331.291 0.207825 -1.72956 0
M  V30 3435 C 328.423 0.294807 -3.39623 0
M  V30 3436 H 329.616 -1.36198 -2.67189 0
M  V30 3437 H 327.169 -0.743042 -1.37508 0
M  V30 3438 H 327.904 1.18658 -3.01813 0
M  V30 3439 H 327.689 -0.35012 -3.90534 0
M  V30 3440 H 329.179 0.614089 -4.1306 0
M  V30 3441 N 329.616 1.39756 -0.72842 0
M  V30 3442 C 330.864 2.00248 -0.272946 0
M  V30 3443 C 331.185 1.58077 1.14178 0
M  V30 3444 O 330.455 0.826014 1.77634 0
M  V30 3445 H 329.035 0.740554 -0.0979247 0
M  V30 3446 H 331.697 1.70903 -0.936912 0
M  V30 3447 H 330.793 3.10495 -0.316142 0
M  V30 3448 N 331.094 0.475555 1.50254 0
M  V30 3449 C 332.342 -0.077738 2.0195 0
M  V30 3450 C 332.663 -1.39813 1.35931 0
M  V30 3451 O 331.933 -1.89249 0.506123 0
M  V30 3452 H 330.513 -0.031719 0.746326 0
M  V30 3453 H 333.175 0.626995 1.84539 0
M  V30 3454 H 332.271 -0.225995 3.11281 0
M  V30 3455 N 332.573 -1.56217 0.208337 0
M  V30 3456 C 333.821 -1.97558 -0.426076 0
M  V30 3457 C 334.142 -1.09683 -1.61229 0
M  V30 3458 O 333.412 -0.170956 -1.95153 0
M  V30 3459 H 331.992 -0.729575 -0.160405 0
M  V30 3460 H 334.654 -1.92606 0.298155 0
M  V30 3461 H 333.75 -3.02672 -0.761312 0
M  V30 3462 N 334.051 0.0651679 -1.57465 0
M  V30 3463 C 335.328 0.79644 -1.78651 0
M  V30 3464 C 335.708 1.95454 -0.797566 0
M  V30 3465 O 335.056 2.27882 0.167946 0
M  V30 3466 C 335.266 1.26322 -3.25337 0
M  V30 3467 C 336.614 1.6939 -3.89348 0
M  V30 3468 O 337.638 1.35872 -3.29268 0
M  V30 3469 O 336.497 2.31471 -4.95059 0
M  V30 3470 H 333.591 0.382157 -0.733407 0
M  V30 3471 H 336.137 0.0447311 -1.69641 0
M  V30 3472 H 334.909 0.434859 -3.88876 0
M  V30 3473 H 334.532 2.07604 -3.39096 0
M  V30 3474 N 335.529 1.53961 0.336706 0
M  V30 3475 C 336.94 1.62914 0.911925 0
M  V30 3476 C 337.291 0.514795 1.89326 0
M  V30 3477 O 336.416 -0.354395 2.13478 0
M  V30 3478 C 337.011 2.95304 1.66076 0
M  V30 3479 C 335.57 3.06496 2.18489 0
M  V30 3480 C 334.717 2.58403 1.00613 0
M  V30 3481 H 337.668 1.58285 0.114649 0
M  V30 3482 H 337.689 2.84727 2.5241 0
M  V30 3483 H 337.201 3.76387 0.946276 0
M  V30 3484 H 335.302 2.3006 2.93092 0
M  V30 3485 H 335.415 4.1208 2.44391 0
M  V30 3486 H 333.779 2.13977 1.38152 0
M  V30 3487 H 334.562 3.41932 0.306179 0
M  V30 3488 N 337.007 -0.598083 1.45811 0
M  V30 3489 C 338.256 -1.35295 1.49594 0
M  V30 3490 C 338.569 -1.95057 0.145679 0
M  V30 3491 O 339.775 -2.71431 0.0612099 0
M  V30 3492 C 338.231 -2.45124 2.63519 0
M  V30 3493 C 337.839 -1.91732 4.04899 0
M  V30 3494 C 339.583 -3.2205 2.76558 0
M  V30 3495 C 337.49 -2.991 5.1019 0
M  V30 3496 H 336.42 -0.508552 0.556679 0
M  V30 3497 H 339.071 -0.639977 1.71978 0
M  V30 3498 H 337.453 -3.19149 2.34435 0
M  V30 3499 H 338.627 -1.24352 4.43704 0
M  V30 3500 H 336.942 -1.27522 3.96393 0
M  V30 3501 H 339.539 -4.0215 3.52391 0
M  V30 3502 H 339.882 -3.73663 1.83526 0
M  V30 3503 H 340.415 -2.55127 3.05213 0
M  V30 3504 H 337.154 -2.52393 6.04961 0
M  V30 3505 H 336.674 -3.65017 4.75944 0
M  V30 3506 H 338.353 -3.63318 5.35359 0
M  V30 3507 N 338.485 -1.33259 -0.841409 0
M  V30 3508 C 339.415 -1.25926 -1.96634 0
M  V30 3509 C 340.396 -0.140349 -1.6952 0
M  V30 3510 O 341.581 -0.329707 -1.91381 0
M  V30 3511 C 338.711 -0.99512 -3.32738 0
M  V30 3512 C 337.665 -2.0767 -3.74242 0
M  V30 3513 C 336.991 -1.66474 -5.08125 0
M  V30 3514 C 338.291 -3.49318 -3.88297 0
M  V30 3515 H 339.985 -2.20046 -2.03027 0
M  V30 3516 H 337.531 -1.05931 -0.975425 0
M  V30 3517 H 339.484 -0.930323 -4.11002 0
M  V30 3518 H 338.208 -0.0183004 -3.26595 0
M  V30 3519 H 336.867 -2.13187 -2.98239 0
M  V30 3520 H 336.515 -0.675012 -4.9845 0
M  V30 3521 H 336.215 -2.3885 -5.36865 0
M  V30 3522 H 337.739 -1.61455 -5.88867 0
M  V30 3523 H 339.153 -3.46316 -4.56879 0
M  V30 3524 H 337.55 -4.20158 -4.28471 0
M  V30 3525 H 338.62 -3.8801 -2.9082 0
M  V30 3526 N 339.963 1.05934 -1.16686 0
M  V30 3527 C 341.193 1.82226 -0.973515 0
M  V30 3528 C 341.601 1.8297 0.481532 0
M  V30 3529 O 340.944 1.25009 1.34604 0
M  V30 3530 C 341.006 3.29897 -1.42858 0
M  V30 3531 C 340.67 3.52849 -2.90425 0
M  V30 3532 C 341.667 3.45595 -3.88407 0
M  V30 3533 C 339.352 3.80053 -3.28428 0
M  V30 3534 C 341.346 3.65217 -5.22394 0
M  V30 3535 C 339.033 3.99325 -4.62583 0
M  V30 3536 C 340.031 3.91905 -5.59374 0
M  V30 3537 O 339.719 4.10647 -6.91104 0
M  V30 3538 H 339.451 0.581314 -0.345036 0
M  V30 3539 H 342.005 1.3453 -1.55212 0
M  V30 3540 H 340.235 3.78472 -0.793477 0
M  V30 3541 H 341.924 3.87692 -1.20207 0
M  V30 3542 H 342.69 3.24564 -3.60393 0
M  V30 3543 H 338.569 3.84936 -2.53664 0
M  V30 3544 H 342.113 3.59341 -5.9793 0
M  V30 3545 H 338.01 4.19846 -4.90306 0
M  V30 3546 H 338.778 4.27915 -6.97733 0
M  V30 3547 N 341.441 0.965919 1.2453 0
M  V30 3548 C 342.373 0.452465 2.2469 0
M  V30 3549 C 343.386 -0.437821 1.56802 0
M  V30 3550 O 344.575 -0.244283 1.76821 0
M  V30 3551 C 341.675 -0.366258 3.36915 0
M  V30 3552 C 340.848 0.513701 4.34373 0
M  V30 3553 C 339.907 -0.248716 5.25612 0
M  V30 3554 O 338.933 0.356745 5.68081 0
M  V30 3555 N 340.135 -1.53877 5.59734 0
M  V30 3556 H 342.9 1.31361 2.69378 0
M  V30 3557 H 340.461 0.837541 1.38553 0
M  V30 3558 H 342.453 -0.884297 3.94921 0
M  V30 3559 H 341.023 -1.12832 2.91526 0
M  V30 3560 H 340.243 1.21273 3.75082 0
M  V30 3561 H 341.531 1.11391 4.96457 0
M  V30 3562 H 340.929 -2.05243 5.27154 0
M  V30 3563 H 339.486 -2.00254 6.20275 0
M  V30 3564 N 342.919 -1.39368 0.735821 0
M  V30 3565 C 343.869 -2.27885 0.0724287 0
M  V30 3566 C 344.853 -1.44301 -0.711756 0
M  V30 3567 O 346.045 -1.67206 -0.58063 0
M  V30 3568 C 343.174 -3.33029 -0.833454 0
M  V30 3569 C 342.26 -4.24078 -0.0433749 0
M  V30 3570 N 342.651 -4.96138 0.983903 0
M  V30 3571 C 340.949 -4.45164 -0.272905 0
M  V30 3572 C 341.65 -5.63069 1.4604 0
M  V30 3573 N 340.626 -5.37991 0.778857 0
M  V30 3574 H 344.428 -2.81052 0.859467 0
M  V30 3575 H 341.942 -1.5206 0.570227 0
M  V30 3576 H 343.939 -3.95311 -1.32419 0
M  V30 3577 H 342.599 -2.81421 -1.61964 0
M  V30 3578 H 343.61 -4.9958 1.36528 0
M  V30 3579 H 340.287 -4.04497 -1.03383 0
M  V30 3580 H 341.677 -6.30755 2.31511 0
M  V30 3581 N 344.397 -0.483516 -1.5 0
M  V30 3582 C 345.327 0.293829 -2.31644 0
M  V30 3583 C 346.308 0.978864 -1.39112 0
M  V30 3584 O 347.493 0.973644 -1.68029 0
M  V30 3585 C 344.623 1.36897 -3.19181 0
M  V30 3586 C 343.577 0.804833 -4.20365 0
M  V30 3587 C 342.903 1.9792 -4.96721 0
M  V30 3588 C 344.203 -0.192313 -5.21946 0
M  V30 3589 H 345.897 -0.387616 -2.9688 0
M  V30 3590 H 343.443 -0.187856 -1.42769 0
M  V30 3591 H 345.396 1.92037 -3.751 0
M  V30 3592 H 344.12 2.07936 -2.51853 0
M  V30 3593 H 342.779 0.275319 -3.65565 0
M  V30 3594 H 342.427 2.67686 -4.25856 0
M  V30 3595 H 342.127 1.60789 -5.65173 0
M  V30 3596 H 343.651 2.53526 -5.55479 0
M  V30 3597 H 345.065 0.270333 -5.72662 0
M  V30 3598 H 343.462 -0.478543 -5.98189 0
M  V30 3599 H 344.532 -1.11409 -4.71928 0
M  V30 3600 N 345.875 1.56104 -0.216619 0
M  V30 3601 C 347.122 1.98172 0.416416 0
M  V30 3602 C 347.45 1.10413 1.60122 0
M  V30 3603 O 346.705 0.147967 1.9514 0
M  V30 3604 C 347.004 3.45923 0.898464 0
M  V30 3605 C 346.67 4.50559 -0.175288 0
M  V30 3606 C 345.332 4.78897 -0.470271 0
M  V30 3607 C 347.684 5.1334 -0.901728 0
M  V30 3608 C 345.012 5.67299 -1.4963 0
M  V30 3609 C 347.364 6.02853 -1.91705 0
M  V30 3610 C 346.028 6.29537 -2.21901 0
M  V30 3611 H 345.298 0.725164 0.152377 0
M  V30 3612 H 347.945 1.88839 -0.318103 0
M  V30 3613 H 346.25 3.52434 1.71165 0
M  V30 3614 H 347.947 3.75841 1.39803 0
M  V30 3615 H 344.537 4.28551 0.0647806 0
M  V30 3616 H 348.721 4.91521 -0.687072 0
M  V30 3617 H 343.977 5.86239 -1.73592 0
M  V30 3618 H 348.151 6.50552 -2.48505 0
M  V30 3619 H 345.778 6.97835 -3.01548 0
M  V30 3620 N 347.353 -0.0568162 1.57498 0
M  V30 3621 C 348.599 -0.748893 1.89111 0
M  V30 3622 C 348.954 -1.74422 0.81208 0
M  V30 3623 O 348.247 -1.90731 -0.182247 0
M  V30 3624 C 348.441 -1.48359 3.25153 0
M  V30 3625 C 348.27 -0.560924 4.46188 0
M  V30 3626 C 347.04 -0.192264 5.04934 0
M  V30 3627 C 349.238 0.148824 5.14085 0
M  V30 3628 N 347.22 0.734555 6.0949 0
M  V30 3629 C 348.591 0.932286 6.12951 0
M  V30 3630 C 350.646 0.218713 4.97419 0
M  V30 3631 C 349.349 1.77917 6.96949 0
M  V30 3632 C 351.375 1.05262 5.81957 0
M  V30 3633 C 350.737 1.82409 6.80372 0
M  V30 3634 H 346.836 -0.249002 0.741298 0
M  V30 3635 H 349.42 -0.00984926 1.94698 0
M  V30 3636 H 347.591 -2.19326 3.20547 0
M  V30 3637 H 349.323 -2.12586 3.44368 0
M  V30 3638 H 346.078 -0.548421 4.70414 0
M  V30 3639 H 346.502 1.19165 6.6643 0
M  V30 3640 H 351.144 -0.363407 4.21235 0
M  V30 3641 H 348.862 2.3722 7.72497 0
M  V30 3642 H 352.448 1.10987 5.71116 0
M  V30 3643 H 351.328 2.45895 7.44651 0
M  V30 3644 N 348.832 -1.54138 -0.328536 0
M  V30 3645 C 350.079 -1.72105 -1.06706 0
M  V30 3646 C 350.407 -0.492111 -1.88171 0
M  V30 3647 O 349.662 0.526153 -1.88494 0
M  V30 3648 C 349.961 -2.9457 -2.02393 0
M  V30 3649 C 349.627 -4.29544 -1.37122 0
M  V30 3650 C 348.289 -4.6624 -1.19052 0
M  V30 3651 C 350.641 -5.1333 -0.902331 0
M  V30 3652 C 347.969 -5.84325 -0.527331 0
M  V30 3653 C 350.321 -6.32094 -0.252988 0
M  V30 3654 C 348.985 -6.67473 -0.0600901 0
M  V30 3655 H 348.255 -0.629775 -0.390466 0
M  V30 3656 H 350.902 -1.88372 -0.34473 0
M  V30 3657 H 349.207 -2.72969 -2.81061 0
M  V30 3658 H 350.904 -3.05665 -2.59557 0
M  V30 3659 H 347.494 -4.0067 -1.52188 0
M  V30 3660 H 351.678 -4.855 -1.02974 0
M  V30 3661 H 346.934 -6.103 -0.366634 0
M  V30 3662 H 351.108 -6.96299 0.118366 0
M  V30 3663 H 348.735 -7.58832 0.455828 0
M  V30 3664 N 350.31 0.590341 -1.46126 0
M  V30 3665 C 351.557 1.34882 -1.5104 0
M  V30 3666 C 351.885 1.93849 -0.159021 0
M  V30 3667 O 351.14 1.76544 0.844436 0
M  V30 3668 C 351.439 2.5032 -2.55097 0
M  V30 3669 C 351.105 2.09394 -3.99331 0
M  V30 3670 C 349.767 1.97947 -4.38601 0
M  V30 3671 C 352.119 1.77712 -4.89967 0
M  V30 3672 C 349.447 1.53065 -5.66381 0
M  V30 3673 C 351.799 1.34312 -6.18177 0
M  V30 3674 C 350.463 1.21436 -6.56361 0
M  V30 3675 H 349.733 0.493568 -0.552695 0
M  V30 3676 H 352.38 0.665539 -1.79563 0
M  V30 3677 H 350.685 3.24062 -2.20207 0
M  V30 3678 H 352.382 3.08541 -2.56132 0
M  V30 3679 H 348.972 2.19235 -3.68285 0
M  V30 3680 H 353.156 1.85445 -4.60352 0
M  V30 3681 H 348.412 1.41733 -5.94745 0
M  V30 3682 H 352.586 1.08849 -6.87841 0
M  V30 3683 H 350.213 0.864345 -7.5527 0
M  V30 3684 N 351.788 1.33704 0.83433 0
M  V30 3685 C 353.036 1.25169 1.58673 0
M  V30 3686 C 353.357 -0.18127 1.94156 0
M  V30 3687 O 352.627 -1.11113 1.6134 0
M  V30 3688 H 351.207 0.4603 0.58833 0
M  V30 3689 H 353.869 1.67478 0.996847 0
M  V30 3690 H 352.965 1.84856 2.51465 0
M  V30 3691 N 353.266 -1.05314 1.17247 0
M  V30 3692 C 354.216 -2.11313 0.856196 0
M  V30 3693 C 355.2 -1.60013 -0.168694 0
M  V30 3694 O 356.392 -1.76968 0.0335624 0
M  V30 3695 C 353.521 -3.41301 0.369917 0
M  V30 3696 C 352.607 -3.99401 1.42616 0
M  V30 3697 N 352.998 -4.31481 2.63928 0
M  V30 3698 C 351.296 -4.27126 1.28373 0
M  V30 3699 C 351.997 -4.77799 3.31787 0
M  V30 3700 N 350.973 -4.77843 2.59166 0
M  V30 3701 H 354.775 -2.33976 1.77856 0
M  V30 3702 H 352.289 -1.2295 1.06099 0
M  V30 3703 H 354.286 -4.16713 0.124897 0
M  V30 3704 H 352.946 -3.20072 -0.546253 0
M  V30 3705 H 353.957 -4.21519 3.00902 0
M  V30 3706 H 350.634 -4.15289 0.429111 0
M  V30 3707 H 352.024 -5.11743 4.35395 0
M  V30 3708 N 354.744 -0.972509 -1.24016 0
M  V30 3709 C 356.155 -0.67517 -1.74064 0
M  V30 3710 C 356.506 0.808939 -1.78747 0
M  V30 3711 O 355.631 1.63286 -1.42009 0
M  V30 3712 C 356.226 -1.21889 -3.16115 0
M  V30 3713 C 354.785 -0.971358 -3.6365 0
M  V30 3714 C 353.932 -1.35134 -2.42145 0
M  V30 3715 H 356.883 -1.14727 -1.09651 0
M  V30 3716 H 356.904 -0.587489 -3.75937 0
M  V30 3717 H 356.416 -2.29906 -3.12674 0
M  V30 3718 H 354.517 0.0930686 -3.72484 0
M  V30 3719 H 354.63 -1.62039 -4.50866 0
M  V30 3720 H 352.994 -0.769751 -2.4279 0
M  V30 3721 H 353.777 -2.4411 -2.41381 0
M  V30 3722 N 356.222 1.38976 -0.743202 0
M  V30 3723 C 357.132 2.3434 -0.110399 0
M  V30 3724 C 358.148 1.58741 0.712559 0
M  V30 3725 O 359.324 1.9099 0.639125 0
M  V30 3726 C 356.389 3.37812 0.780012 0
M  V30 3727 C 355.45 4.29263 -0.0561319 0
M  V30 3728 C 354.683 5.27793 0.791875 0
M  V30 3729 O 354.906 5.33043 2.03031 0
M  V30 3730 O 353.84 6.01512 0.216183 0
M  V30 3731 H 357.666 2.90129 -0.897714 0
M  V30 3732 H 355.251 1.40643 -0.503966 0
M  V30 3733 H 357.133 4.01194 1.28923 0
M  V30 3734 H 355.808 2.84395 1.546 0
M  V30 3735 H 354.715 3.69076 -0.611056 0
M  V30 3736 H 356.048 4.85907 -0.784531 0
M  V30 3737 N 357.7 0.491464 1.49741 0
M  V30 3738 C 358.946 -0.0565092 2.02721 0
M  V30 3739 C 359.279 -1.37522 1.37118 0
M  V30 3740 O 358.554 -1.87866 0.503645 0
M  V30 3741 C 358.837 -0.219051 3.59433 0
M  V30 3742 C 358.69 1.12211 4.35579 0
M  V30 3743 C 360.009 -0.964157 4.29409 0
M  V30 3744 H 357.128 -0.0190627 0.736753 0
M  V30 3745 H 359.77 0.641021 1.7886 0
M  V30 3746 H 357.92 -0.813165 3.79895 0
M  V30 3747 H 359.592 1.75437 4.26637 0
M  V30 3748 H 357.835 1.71377 3.98513 0
M  V30 3749 H 358.506 0.961794 5.43556 0
M  V30 3750 H 360.982 -0.460378 4.13545 0
M  V30 3751 H 359.858 -1.04671 5.38828 0
M  V30 3752 H 360.119 -2.00563 3.93988 0
M  V30 3753 N 359.178 -1.55987 0.224894 0
M  V30 3754 C 360.408 -2.02489 -0.41007 0
M  V30 3755 C 360.816 -1.10391 -1.53657 0
M  V30 3756 O 360.159 -0.106458 -1.83391 0
M  V30 3757 C 360.221 -3.45319 -0.999757 0
M  V30 3758 C 359.885 -4.56999 -0.00827976 0
M  V30 3759 C 360.882 -5.13812 0.793314 0
M  V30 3760 C 358.567 -5.02176 0.111442 0
M  V30 3761 C 360.561 -6.14276 1.7013 0
M  V30 3762 C 358.248 -6.02477 1.02296 0
M  V30 3763 C 359.246 -6.58403 1.81643 0
M  V30 3764 O 358.934 -7.56751 2.71262 0
M  V30 3765 H 358.666 -0.667915 -0.104235 0
M  V30 3766 H 361.22 -2.0257 0.339782 0
M  V30 3767 H 359.45 -3.42318 -1.79876 0
M  V30 3768 H 361.139 -3.7545 -1.54248 0
M  V30 3769 H 361.905 -4.79756 0.711288 0
M  V30 3770 H 357.784 -4.58323 -0.49605 0
M  V30 3771 H 361.328 -6.57854 2.32107 0
M  V30 3772 H 357.225 -6.35954 1.10599 0
M  V30 3773 H 357.993 -7.74286 2.65375 0
M  V30 3774 N 360.656 0.0484629 -1.57525 0
M  V30 3775 C 361.905 0.742065 -1.87553 0
M  V30 3776 C 362.218 1.77545 -0.820802 0
M  V30 3777 O 363.424 2.52027 -1.00967 0
M  V30 3778 C 361.88 1.37081 -3.32771 0
M  V30 3779 C 361.488 0.374786 -4.4643 0
M  V30 3780 C 363.232 2.04542 -3.71972 0
M  V30 3781 C 361.139 1.01077 -5.82698 0
M  V30 3782 H 360.069 0.280903 -0.699721 0
M  V30 3783 H 362.72 -0.00411877 -1.835 0
M  V30 3784 H 361.102 2.16605 -3.31509 0
M  V30 3785 H 362.276 -0.392331 -4.59127 0
M  V30 3786 H 360.591 -0.196653 -4.15935 0
M  V30 3787 H 363.188 2.52943 -4.71088 0
M  V30 3788 H 363.531 2.85515 -3.02964 0
M  V30 3789 H 364.064 1.31819 -3.75325 0
M  V30 3790 H 360.803 0.240878 -6.55057 0
M  V30 3791 H 360.323 1.74819 -5.73758 0
M  V30 3792 H 362.002 1.52383 -6.28799 0
M  V30 3793 N 362.134 1.5431 0.320358 0
M  V30 3794 C 363.064 1.86912 1.3995 0
M  V30 3795 C 364.045 0.726211 1.53819 0
M  V30 3796 O 365.23 0.980233 1.67646 0
M  V30 3797 C 362.36 2.09932 2.7667 0
M  V30 3798 C 361.314 3.25776 2.77586 0
M  V30 3799 C 360.64 3.34173 4.17412 0
M  V30 3800 C 361.94 4.6335 2.41048 0
M  V30 3801 H 363.634 2.77292 1.12914 0
M  V30 3802 H 361.18 1.33421 0.541738 0
M  V30 3803 H 363.133 2.31324 3.52232 0
M  V30 3804 H 361.857 1.16304 3.0519 0
M  V30 3805 H 360.516 3.04276 2.04479 0
M  V30 3806 H 360.164 2.38098 4.43078 0
M  V30 3807 H 359.864 4.12033 4.18931 0
M  V30 3808 H 361.388 3.57803 4.94782 0
M  V30 3809 H 362.802 4.84602 3.06324 0
M  V30 3810 H 361.199 5.43782 2.53813 0
M  V30 3811 H 362.269 4.65381 1.36193 0
M  V30 3812 N 363.613 -0.582584 1.46437 0
M  V30 3813 C 364.862 -1.337 1.5102 0
M  V30 3814 C 365.175 -1.94891 0.166359 0
M  V30 3815 O 366.381 -2.71351 0.0899954 0
M  V30 3816 C 364.837 -2.42315 2.66104 0
M  V30 3817 C 364.445 -1.87427 4.06909 0
M  V30 3818 C 366.189 -3.19099 2.79958 0
M  V30 3819 C 364.096 -2.93672 5.13333 0
M  V30 3820 H 363.026 -0.502619 0.562041 0
M  V30 3821 H 365.677 -0.621701 1.72647 0
M  V30 3822 H 364.059 -3.16645 2.37807 0
M  V30 3823 H 365.233 -1.19639 4.44998 0
M  V30 3824 H 363.548 -1.2331 3.97723 0
M  V30 3825 H 366.145 -3.9839 3.56636 0
M  V30 3826 H 366.488 -3.71695 1.87479 0
M  V30 3827 H 367.021 -2.51875 3.07902 0
M  V30 3828 H 363.76 -2.45962 6.07604 0
M  V30 3829 H 363.28 -3.59948 4.79789 0
M  V30 3830 H 364.959 -3.5762 5.39182 0
M  V30 3831 N 365.091 -1.34144 -0.827227 0
M  V30 3832 C 366.021 -1.28005 -1.95287 0
M  V30 3833 C 367.002 -0.158321 -1.69362 0
M  V30 3834 O 368.187 -0.349987 -1.9102 0
M  V30 3835 C 365.317 -1.03036 -3.31664 0
M  V30 3836 C 364.271 -2.11628 -3.72019 0
M  V30 3837 C 363.597 -1.71854 -5.0633 0
M  V30 3838 C 364.897 -3.53417 -3.8457 0
M  V30 3839 H 366.591 -2.22187 -2.00682 0
M  V30 3840 H 364.137 -1.0696 -0.964135 0
M  V30 3841 H 366.09 -0.973863 -4.09993 0
M  V30 3842 H 364.814 -0.0529391 -3.26557 0
M  V30 3843 H 363.473 -2.16339 -2.95961 0
M  V30 3844 H 363.121 -0.727841 -4.97706 0
M  V30 3845 H 362.821 -2.44531 -5.34302 0
M  V30 3846 H 364.345 -1.67692 -5.87122 0
M  V30 3847 H 365.759 -3.51142 -4.5318 0
M  V30 3848 H 364.156 -4.24679 -4.2399 0
M  V30 3849 H 365.226 -3.91072 -2.86689 0
M  V30 3850 N 366.569 1.04691 -1.17803 0
M  V30 3851 C 367.98 1.59238 -0.974689 0
M  V30 3852 C 368.331 1.90306 0.477292 0
M  V30 3853 O 367.456 1.68846 1.35352 0
M  V30 3854 C 368.051 2.89318 -1.76296 0
M  V30 3855 C 366.61 3.40506 -1.60414 0
M  V30 3856 C 365.757 2.14172 -1.76141 0
M  V30 3857 H 368.708 0.874395 -1.32439 0
M  V30 3858 H 368.729 3.5944 -1.24833 0
M  V30 3859 H 368.241 2.66675 -2.81968 0
M  V30 3860 H 366.342 3.68175 -0.572519 0
M  V30 3861 H 366.455 4.14753 -2.39827 0
M  V30 3862 H 364.819 2.25176 -1.19028 0
M  V30 3863 H 365.602 1.93992 -2.83235 0
M  V30 3864 N 368.047 0.979072 1.23499 0
M  V30 3865 C 369.295 0.645941 1.91499 0
M  V30 3866 C 369.616 -0.822948 1.76784 0
M  V30 3867 O 368.886 -1.58854 1.14639 0
M  V30 3868 H 367.466 0.235919 0.708767 0
M  V30 3869 H 370.128 1.2426 1.50152 0
M  V30 3870 H 369.224 0.896411 2.9895 0
M  V30 3871 N 369.525 -1.3858 0.750561 0
M  V30 3872 C 370.772 -2.00184 0.305373 0
M  V30 3873 C 371.1 -1.59575 -1.11203 0
M  V30 3874 O 370.355 -0.823236 -1.77542 0
M  V30 3875 C 370.654 -3.55455 0.372373 0
M  V30 3876 C 370.32 -4.15765 1.745 0
M  V30 3877 C 368.982 -4.31951 2.12065 0
M  V30 3878 C 371.334 -4.49067 2.64553 0
M  V30 3879 C 368.662 -4.78734 3.39162 0
M  V30 3880 C 371.014 -4.97265 3.91038 0
M  V30 3881 C 369.678 -5.11658 4.28676 0
M  V30 3882 H 368.948 -0.732526 0.111744 0
M  V30 3883 H 371.595 -1.65673 0.960451 0
M  V30 3884 H 369.9 -3.90084 -0.366272 0
M  V30 3885 H 371.597 -4.00999 0.00953918 0
M  V30 3886 H 368.187 -4.03579 1.44297 0
M  V30 3887 H 372.371 -4.36166 2.36796 0
M  V30 3888 H 367.627 -4.88062 3.68246 0
M  V30 3889 H 371.801 -5.22003 4.60962 0
M  V30 3890 H 369.428 -5.47668 5.27222 0
M  V30 3891 N 371.003 -0.499398 -1.49478 0
M  V30 3892 C 372.251 0.0455996 -2.02049 0
M  V30 3893 C 372.572 1.37633 -1.38138 0
M  V30 3894 O 371.842 1.8842 -0.536166 0
M  V30 3895 H 370.422 0.0198416 -0.746736 0
M  V30 3896 H 373.084 -0.656274 -1.83519 0
M  V30 3897 H 372.18 0.176445 -3.11601 0
M  V30 3898 N 372.481 1.55866 -0.233164 0
M  V30 3899 C 373.414 2.16794 0.712442 0
M  V30 3900 C 374.392 1.1158 1.18273 0
M  V30 3901 O 375.576 1.39897 1.26337 0
M  V30 3902 C 372.703 2.75757 1.96661 0
M  V30 3903 C 371.749 3.93902 1.63533 0
M  V30 3904 S 372.582 5.30223 0.74995 0
M  V30 3905 C 373.738 5.92631 2.01343 0
M  V30 3906 H 373.971 2.96662 0.194617 0
M  V30 3907 H 371.504 1.5439 -0.0177425 0
M  V30 3908 H 373.462 3.10367 2.68668 0
M  V30 3909 H 372.123 1.9586 2.45556 0
M  V30 3910 H 371.316 4.33702 2.56747 0
M  V30 3911 H 370.918 3.60499 0.995804 0
M  V30 3912 H 373.21 6.09312 2.96219 0
M  V30 3913 H 374.153 6.88388 1.65915 0
M  V30 3914 H 374.561 5.21571 2.15925 0
M  V30 3915 N 373.959 -0.0401083 1.57549 0
M  V30 3916 C 375.208 -0.732108 1.87944 0
M  V30 3917 C 375.521 -1.77107 0.830206 0
M  V30 3918 O 376.727 -2.51488 1.02302 0
M  V30 3919 C 375.183 -1.35315 3.33494 0
M  V30 3920 C 374.791 -0.351105 4.46622 0
M  V30 3921 C 376.535 -2.02566 3.73051 0
M  V30 3922 C 374.442 -0.979859 5.83226 0
M  V30 3923 H 373.372 -0.277188 0.701201 0
M  V30 3924 H 376.023 0.0138501 1.83495 0
M  V30 3925 H 374.405 -2.14844 3.32653 0
M  V30 3926 H 375.579 0.416674 4.58912 0
M  V30 3927 H 373.894 0.218708 4.15825 0
M  V30 3928 H 376.491 -2.50441 4.72423 0
M  V30 3929 H 376.834 -2.83904 3.04474 0
M  V30 3930 H 377.367 -1.29827 3.76018 0
M  V30 3931 H 374.106 -0.206135 6.55176 0
M  V30 3932 H 373.626 -1.71774 5.74677 0
M  V30 3933 H 375.305 -1.49046 6.29599 0
M  V30 3934 N 375.437 -1.54477 -0.31217 0
M  V30 3935 C 376.662 -1.77526 -1.07235 0
M  V30 3936 C 377.087 -0.527775 -1.80544 0
M  V30 3937 O 376.445 0.52121 -1.73646 0
M  V30 3938 C 376.493 -2.97535 -2.03728 0
M  V30 3939 O 375.597 -2.69878 -3.11833 0
M  V30 3940 H 374.938 -0.58792 -0.30862 0
M  V30 3941 H 377.468 -2.01532 -0.352993 0
M  V30 3942 H 377.478 -3.25198 -2.46395 0
M  V30 3943 H 376.153 -3.87996 -1.49774 0
M  V30 3944 H 374.73 -2.53199 -2.7376 0
M  V30 3945 N 376.915 0.57481 -1.46744 0
M  V30 3946 C 377.865 1.67838 -1.54319 0
M  V30 3947 C 378.849 1.55759 -0.40346 0
M  V30 3948 O 380.041 1.6454 -0.652347 0
M  V30 3949 C 377.17 3.06624 -1.5439 0
M  V30 3950 C 376.256 3.23971 -2.73685 0
M  V30 3951 N 376.647 3.11447 -3.9854 0
M  V30 3952 C 374.945 3.5493 -2.70075 0
M  V30 3953 C 375.646 3.31011 -4.78337 0
M  V30 3954 N 374.622 3.56533 -4.10348 0
M  V30 3955 H 378.424 1.56698 -2.48642 0
M  V30 3956 H 375.938 0.779071 -1.42493 0
M  V30 3957 H 377.935 3.85839 -1.57905 0
M  V30 3958 H 376.595 3.1889 -0.611493 0
M  V30 3959 H 377.606 2.89145 -4.29669 0
M  V30 3960 H 374.283 3.73832 -1.85893 0
M  V30 3961 H 375.673 3.26445 -5.87268 0
M  V30 3962 N 378.394 1.34581 0.820102 0
M  V30 3963 C 379.643 1.26437 1.57151 0
M  V30 3964 C 379.956 -0.163111 1.94919 0
M  V30 3965 O 381.162 -0.366722 2.69012 0
M  V30 3966 C 379.618 2.21658 2.83541 0
M  V30 3967 C 379.226 3.69679 2.53065 0
M  V30 3968 C 380.97 2.22428 3.61561 0
M  V30 3969 C 378.877 4.56761 3.75664 0
M  V30 3970 H 377.807 0.469707 0.589823 0
M  V30 3971 H 380.458 1.59763 0.902656 0
M  V30 3972 H 378.84 1.81287 3.52067 0
M  V30 3973 H 380.014 4.18605 1.92631 0
M  V30 3974 H 378.329 3.71384 1.88316 0
M  V30 3975 H 380.926 2.8471 4.52597 0
M  V30 3976 H 381.269 1.22434 3.97889 0
M  V30 3977 H 381.802 2.61259 2.99981 0
M  V30 3978 H 378.541 5.57702 3.44454 0
M  V30 3979 H 378.061 4.12568 4.35371 0
M  V30 3980 H 379.74 4.71509 4.43044 0
M  V30 3981 N 379.872 -1.04064 1.18357 0
M  V30 3982 C 381.118 -1.77528 0.980397 0
M  V30 3983 C 381.451 -1.87948 -0.48879 0
M  V30 3984 O 380.726 -1.3876 -1.36293 0
M  V30 3985 C 381.009 -3.20797 1.63588 0
M  V30 3986 C 380.862 -3.1832 3.17793 0
M  V30 3987 C 382.181 -4.18911 1.34914 0
M  V30 3988 H 379.3 -0.644443 0.357578 0
M  V30 3989 H 381.942 -1.2156 1.46024 0
M  V30 3990 H 380.092 -3.68586 1.22788 0
M  V30 3991 H 381.764 -2.78521 3.67728 0
M  V30 3992 H 380.007 -2.56351 3.49952 0
M  V30 3993 H 380.678 -4.19489 3.58794 0
M  V30 3994 H 383.154 -3.7967 1.70265 0
M  V30 3995 H 382.03 -5.17374 1.83346 0
M  V30 3996 H 382.291 -4.41262 0.272027 0
M  V30 3997 N 381.35 -0.985608 -1.22978 0
M  V30 3998 C 382.578 -0.675582 -1.95559 0
M  V30 3999 C 382.993 0.758413 -1.72897 0
M  V30 4000 O 382.35 1.51094 -1.02357 0
M  V30 4001 C 382.401 -0.96293 -3.48439 0
M  V30 4002 O 382.122 -2.34057 -3.70336 0
M  V30 4003 C 383.623 -0.669585 -4.38214 0
M  V30 4004 H 380.843 -0.250523 -0.622478 0
M  V30 4005 H 383.387 -1.3184 -1.56328 0
M  V30 4006 H 381.542 -0.366033 -3.85667 0
M  V30 4007 H 381.956 -2.43424 -4.64591 0
M  V30 4008 H 383.43 -0.920967 -5.44263 0
M  V30 4009 H 383.907 0.396383 -4.37408 0
M  V30 4010 H 384.513 -1.2472 -4.06602 0
M  V30 4011 N 382.828 1.3818 -0.7579 0
M  V30 4012 C 384.058 2.04004 -0.326463 0
M  V30 4013 C 384.466 1.57286 1.05156 0
M  V30 4014 O 383.809 0.743144 1.67997 0
M  V30 4015 C 383.871 3.58444 -0.275402 0
M  V30 4016 C 383.535 4.28237 -1.59569 0
M  V30 4017 C 384.532 4.53312 -2.54566 0
M  V30 4018 C 382.217 4.66341 -1.86631 0
M  V30 4019 C 384.211 5.15531 -3.74842 0
M  V30 4020 C 381.898 5.28283 -3.0718 0
M  V30 4021 C 382.896 5.52814 -4.01106 0
M  V30 4022 O 382.584 6.13465 -5.19534 0
M  V30 4023 H 382.316 0.662026 -0.136739 0
M  V30 4024 H 384.87 1.7777 -1.02893 0
M  V30 4025 H 383.1 3.83667 0.483337 0
M  V30 4026 H 384.789 4.05701 0.127099 0
M  V30 4027 H 385.555 4.24299 -2.34936 0
M  V30 4028 H 381.434 4.46591 -1.14358 0
M  V30 4029 H 384.978 5.34594 -4.48168 0
M  V30 4030 H 380.875 5.56719 -3.26702 0
M  V30 4031 H 381.643 6.31951 -5.20173 0
M  V30 4032 N 384.306 0.507319 1.49211 0
M  V30 4033 C 385.536 -0.0315292 2.06576 0
M  V30 4034 C 385.944 -1.30791 1.36713 0
M  V30 4035 O 385.287 -1.78324 0.441181 0
M  V30 4036 C 385.349 -0.349104 3.57801 0
M  V30 4037 C 385.013 0.830475 4.49391 0
M  V30 4038 C 386.01 1.72271 4.90529 0
M  V30 4039 C 383.695 1.03107 4.91604 0
M  V30 4040 C 385.689 2.79964 5.72625 0
M  V30 4041 C 383.376 2.11116 5.73475 0
M  V30 4042 C 384.374 2.99379 6.1389 0
M  V30 4043 O 384.062 4.05523 6.94123 0
M  V30 4044 H 383.794 0.0201002 0.675701 0
M  V30 4045 H 386.348 0.705737 1.92895 0
M  V30 4046 H 384.578 -1.14005 3.69513 0
M  V30 4047 H 386.267 -0.827319 3.97379 0
M  V30 4048 H 387.033 1.57958 4.58557 0
M  V30 4049 H 382.912 0.353417 4.59643 0
M  V30 4050 H 386.456 3.48884 6.04091 0
M  V30 4051 H 382.353 2.25421 6.0486 0
M  V30 4052 H 383.121 4.02953 7.1244 0
M  V30 4053 N 385.784 -1.5574 0.241426 0
M  V30 4054 C 387.009 -2.0366 -0.392111 0
M  V30 4055 C 387.434 -1.11969 -1.51144 0
M  V30 4056 O 386.792 -0.111594 -1.80956 0
M  V30 4057 C 386.84 -3.49638 -0.882371 0
M  V30 4058 O 385.944 -3.6108 -1.99235 0
M  V30 4059 H 385.285 -0.658379 -0.0862122 0
M  V30 4060 H 387.815 -2.01302 0.365881 0
M  V30 4061 H 387.825 -3.90351 -1.18702 0
M  V30 4062 H 386.5 -4.15852 -0.0632361 0
M  V30 4063 H 385.077 -3.32262 -1.69282 0
M  V30 4064 N 387.262 0.0317525 -1.57568 0
M  V30 4065 C 388.51 0.721676 -1.88776 0
M  V30 4066 C 388.831 1.76039 -0.838772 0
M  V30 4067 O 388.101 1.95482 0.127935 0
M  V30 4068 H 386.681 0.269534 -0.696678 0
M  V30 4069 H 389.343 -0.00165879 -1.949 0
M  V30 4070 H 388.439 1.21293 -2.87566 0
M  V30 4071 N 388.74 1.54641 0.303973 0
M  V30 4072 C 389.687 1.85386 1.37479 0
M  V30 4073 C 390.657 0.702528 1.50512 0
M  V30 4074 O 391.842 0.950867 1.65418 0
M  V30 4075 C 388.982 2.10413 2.73533 0
M  V30 4076 C 388.095 3.38049 2.68974 0
M  V30 4077 C 387.23 3.52934 3.97002 0
M  V30 4078 C 386.269 4.74373 3.86829 0
M  V30 4079 N 385.406 4.8608 5.06627 0
M  V30 4080 H 390.246 2.76732 1.1056 0
M  V30 4081 H 387.783 1.37034 0.534805 0
M  V30 4082 H 389.741 2.22919 3.52652 0
M  V30 4083 H 388.371 1.22338 2.98719 0
M  V30 4084 H 387.423 3.3418 1.81736 0
M  V30 4085 H 388.735 4.27288 2.57346 0
M  V30 4086 H 387.889 3.65088 4.84557 0
M  V30 4087 H 386.628 2.61824 4.1146 0
M  V30 4088 H 385.633 4.62255 2.97658 0
M  V30 4089 H 386.858 5.66888 3.73918 0
M  V30 4090 H 384.804 3.97891 5.21554 0
M  V30 4091 H 384.721 5.69315 4.9741 0
M  V30 4092 H 385.989 5.02587 5.95841 0
M  V30 4093 N 390.218 -0.567019 1.47046 0
M  V30 4094 C 391.165 -1.67489 1.58796 0
M  V30 4095 C 392.135 -1.60399 0.43144 0
M  V30 4096 O 393.32 -1.79378 0.650233 0
M  V30 4097 C 390.46 -3.05821 1.59899 0
M  V30 4098 C 389.573 -3.2342 2.86397 0
M  V30 4099 C 388.708 -4.52093 2.789 0
M  V30 4100 C 387.747 -4.6309 4.00267 0
M  V30 4101 N 386.884 -5.83106 3.91064 0
M  V30 4102 H 391.724 -1.56785 2.53422 0
M  V30 4103 H 389.261 -0.763896 1.2571 0
M  V30 4104 H 391.219 -3.8591 1.58522 0
M  V30 4105 H 389.849 -3.15384 0.687929 0
M  V30 4106 H 388.901 -2.3683 2.97684 0
M  V30 4107 H 390.213 -3.27412 3.76301 0
M  V30 4108 H 389.367 -5.4043 2.75718 0
M  V30 4109 H 388.106 -4.50565 1.86662 0
M  V30 4110 H 387.111 -3.73168 4.03765 0
M  V30 4111 H 388.336 -4.66386 4.93621 0
M  V30 4112 H 386.282 -5.82546 3.01623 0
M  V30 4113 H 386.199 -5.88434 4.74638 0
M  V30 4114 H 387.467 -6.73831 3.91882 0
M  V30 4115 N 391.696 -1.35014 -0.812953 0
M  V30 4116 C 392.606 -1.2951 -1.95613 0
M  V30 4117 C 393.622 -0.20107 -1.72834 0
M  V30 4118 O 394.798 -0.42932 -1.96771 0
M  V30 4119 C 391.863 -1.06033 -3.30088 0
M  V30 4120 C 390.924 -2.24688 -3.65805 0
M  V30 4121 C 390.157 -2.02322 -4.93864 0
M  V30 4122 O 390.38 -0.986464 -5.61805 0
M  V30 4123 O 389.314 -2.89525 -5.27692 0
M  V30 4124 H 393.14 -2.25705 -2.03202 0
M  V30 4125 H 390.725 -1.15321 -0.949811 0
M  V30 4126 H 392.607 -0.94763 -4.10607 0
M  V30 4127 H 391.282 -0.128852 -3.23443 0
M  V30 4128 H 390.189 -2.41521 -2.85689 0
M  V30 4129 H 391.522 -3.16261 -3.77147 0
M  V30 4130 N 393.175 1.03435 -1.18907 0
M  V30 4131 C 394.586 1.58195 -0.991523 0
M  V30 4132 C 394.937 1.90801 0.457081 0
M  V30 4133 O 394.062 1.70272 1.33553 0
M  V30 4134 C 394.657 2.87432 -1.79355 0
M  V30 4135 C 393.216 3.38785 -1.64017 0
M  V30 4136 C 392.363 2.12292 -1.78402 0
M  V30 4137 H 395.314 0.860299 -1.33359 0
M  V30 4138 H 395.335 3.58096 -1.28638 0
M  V30 4139 H 394.847 2.63669 -2.84781 0
M  V30 4140 H 392.948 3.67547 -0.611536 0
M  V30 4141 H 393.061 4.12186 -2.44212 0
M  V30 4142 H 391.425 2.23901 -1.2141 0
M  V30 4143 H 392.208 1.90977 -2.85277 0
M  V30 4144 N 394.653 0.992116 1.22453 0
M  V30 4145 C 395.9 0.667534 1.91181 0
M  V30 4146 C 396.228 -0.800317 1.77271 0
M  V30 4147 O 395.483 -1.59421 1.13505 0
M  V30 4148 C 395.782 1.01832 3.42586 0
M  V30 4149 C 395.448 2.47831 3.76684 0
M  V30 4150 C 394.11 2.87729 3.85701 0
M  V30 4151 C 396.462 3.42466 3.92895 0
M  V30 4152 C 393.79 4.21252 4.08367 0
M  V30 4153 C 396.142 4.75648 4.17064 0
M  V30 4154 C 394.806 5.15288 4.24305 0
M  V30 4155 H 394.076 0.244268 0.699581 0
M  V30 4156 H 396.723 1.24816 1.45235 0
M  V30 4157 H 395.028 0.355769 3.90181 0
M  V30 4158 H 396.725 0.745228 3.94014 0
M  V30 4159 H 393.315 2.15905 3.70247 0
M  V30 4160 H 397.499 3.12814 3.85307 0
M  V30 4161 H 392.755 4.51554 4.122 0
M  V30 4162 H 396.929 5.48924 4.2855 0
M  V30 4163 H 394.556 6.18769 4.41621 0
M  V30 4164 N 396.131 -1.37776 0.765217 0
M  V30 4165 C 397.379 -1.99454 0.325943 0
M  V30 4166 C 397.7 -1.61049 -1.09947 0
M  V30 4167 O 396.97 -0.872821 -1.75381 0
M  V30 4168 H 395.55 -0.737697 0.117525 0
M  V30 4169 H 398.212 -1.68359 0.981895 0
M  V30 4170 H 397.308 -3.09547 0.398353 0
M  V30 4171 N 397.609 -0.515225 -1.4894 0
M  V30 4172 C 398.839 0.0205735 -2.0659 0
M  V30 4173 C 399.247 1.30064 -1.37405 0
M  V30 4174 O 398.59 1.78087 -0.450632 0
M  V30 4175 C 398.652 0.330124 -3.57981 0
M  V30 4176 C 398.316 -0.854295 -4.48944 0
M  V30 4177 C 399.313 -1.7487 -4.89609 0
M  V30 4178 C 396.998 -1.05712 -4.9105 0
M  V30 4179 C 398.992 -2.82996 -5.71132 0
M  V30 4180 C 396.679 -2.14154 -5.72347 0
M  V30 4181 C 397.677 -3.0263 -6.12294 0
M  V30 4182 O 397.365 -4.09198 -6.91962 0
M  V30 4183 H 397.097 -0.0236833 -0.675585 0
M  V30 4184 H 399.651 -0.715956 -1.92518 0
M  V30 4185 H 397.881 1.12044 -3.70112 0
M  V30 4186 H 399.57 0.806233 -3.97812 0
M  V30 4187 H 400.336 -1.60388 -4.57712 0
M  V30 4188 H 396.215 -0.377788 -4.59449 0
M  V30 4189 H 399.759 -3.52083 -6.02232 0
M  V30 4190 H 395.656 -2.28626 -6.03656 0
M  V30 4191 H 396.424 -4.06726 -7.10293 0
M  V30 4192 N 399.087 1.5561 -0.249682 0
M  V30 4193 C 400.02 2.17537 0.689408 0
M  V30 4194 C 400.998 1.12829 1.17083 0
M  V30 4195 O 402.182 1.41229 1.24846 0
M  V30 4196 C 399.309 2.77828 1.93725 0
M  V30 4197 C 398.355 3.95615 1.59346 0
M  V30 4198 S 399.188 5.30988 0.69367 0
M  V30 4199 C 400.344 5.94734 1.95046 0
M  V30 4200 H 400.577 2.96852 0.163142 0
M  V30 4201 H 398.11 1.54362 -0.0341166 0
M  V30 4202 H 400.068 3.13199 2.65361 0
M  V30 4203 H 398.729 1.98454 2.43465 0
M  V30 4204 H 397.922 4.364 2.52132 0
M  V30 4205 H 397.524 3.61535 0.957512 0
M  V30 4206 H 399.816 6.12419 2.89739 0
M  V30 4207 H 400.759 6.90109 1.58604 0
M  V30 4208 H 401.167 5.23832 2.10381 0
M  V30 4209 N 400.565 -0.0233959 1.57583 0
M  V30 4210 C 401.813 -0.711654 1.89156 0
M  V30 4211 C 402.134 -1.75591 0.848096 0
M  V30 4212 O 401.404 -1.95547 -0.117566 0
M  V30 4213 H 399.984 -0.265835 0.698098 0
M  V30 4214 H 402.646 0.0119948 1.94896 0
M  V30 4215 H 401.742 -1.19766 2.88206 0
M  V30 4216 N 402.043 -1.548 -0.295768 0
M  V30 4217 C 402.976 -1.81003 -1.38972 0
M  V30 4218 C 403.954 -0.661544 -1.48534 0
M  V30 4219 O 405.138 -0.902074 -1.65514 0
M  V30 4220 C 402.265 -1.95141 -2.76835 0
M  V30 4221 C 401.311 -3.17592 -2.84671 0
M  V30 4222 S 402.144 -4.75531 -2.46232 0
M  V30 4223 C 403.3 -4.92613 -3.86114 0
M  V30 4224 H 403.533 -2.73507 -1.16537 0
M  V30 4225 H 401.066 -1.46278 -0.494168 0
M  V30 4226 H 403.024 -2.03972 -3.56238 0
M  V30 4227 H 401.685 -1.03565 -2.96535 0
M  V30 4228 H 400.878 -3.24303 -3.85803 0
M  V30 4229 H 400.48 -3.07235 -2.13267 0
M  V30 4230 H 402.772 -4.76957 -4.81164 0
M  V30 4231 H 403.715 -5.94698 -3.8437 0
M  V30 4232 H 404.123 -4.2073 -3.76359 0
M  V30 4233 N 403.521 0.559213 -1.47345 0
M  V30 4234 C 404.767 1.31843 -1.54095 0
M  V30 4235 C 405.1 1.93149 -0.201726 0
M  V30 4236 O 404.375 1.77759 0.789428 0
M  V30 4237 C 404.658 2.43006 -2.65744 0
M  V30 4238 C 404.511 1.86581 -4.09277 0
M  V30 4239 C 405.83 3.44943 -2.73318 0
M  V30 4240 H 402.949 0.478012 -0.560957 0
M  V30 4241 H 405.591 0.625977 -1.79392 0
M  V30 4242 H 403.741 3.02072 -2.44305 0
M  V30 4243 H 405.413 1.31792 -4.42073 0
M  V30 4244 H 403.656 1.17268 -4.17649 0
M  V30 4245 H 404.327 2.66933 -4.83168 0
M  V30 4246 H 406.803 2.95793 -2.92653 0
M  V30 4247 H 405.679 4.20153 -3.53218 0
M  V30 4248 H 405.94 4.03665 -1.80296 0
M  V30 4249 N 404.999 1.35443 0.805782 0
M  V30 4250 C 406.245 1.2996 1.56467 0
M  V30 4251 C 406.6 -0.124742 1.91995 0
M  V30 4252 O 405.893 -1.07533 1.58579 0
M  V30 4253 C 406.087 2.14045 2.86216 0
M  V30 4254 C 405.916 3.64512 2.63365 0
M  V30 4255 C 404.686 4.33744 2.59219 0
M  V30 4256 C 406.884 4.58142 2.33688 0
M  V30 4257 N 404.866 5.69953 2.28094 0
M  V30 4258 C 406.237 5.8248 2.12408 0
M  V30 4259 C 408.292 4.46877 2.19558 0
M  V30 4260 C 406.995 6.96818 1.78429 0
M  V30 4261 C 409.021 5.61065 1.86976 0
M  V30 4262 C 408.383 6.84431 1.66532 0
M  V30 4263 H 404.482 0.530817 0.574245 0
M  V30 4264 H 407.066 1.70333 0.943126 0
M  V30 4265 H 405.237 1.75942 3.46264 0
M  V30 4266 H 406.969 2.00075 3.51784 0
M  V30 4267 H 403.724 3.86365 2.73896 0
M  V30 4268 H 404.148 6.41845 2.15323 0
M  V30 4269 H 408.79 3.52102 2.34061 0
M  V30 4270 H 406.508 7.91559 1.62664 0
M  V30 4271 H 410.094 5.54302 1.7675 0
M  V30 4272 H 408.974 7.71294 1.41688 0
M  V30 4273 N 406.477 -1.02803 1.19454 0
M  V30 4274 C 407.44 -2.09264 0.934955 0
M  V30 4275 C 408.44 -1.60576 -0.0849015 0
M  V30 4276 O 409.63 -1.73554 0.149933 0
M  V30 4277 C 406.762 -3.38482 0.40531 0
M  V30 4278 H 407.955 -2.33726 1.87916 0
M  V30 4279 H 405.508 -1.19426 1.00832 0
M  V30 4280 H 406.243 -3.19689 -0.544899 0
M  V30 4281 H 406.028 -3.75142 1.14065 0
M  V30 4282 H 407.518 -4.16894 0.242806 0
M  V30 4283 N 407.956 -0.998596 -1.21925 0
M  V30 4284 C 408.889 -0.498517 -2.22688 0
M  V30 4285 C 409.867 0.444301 -1.56412 0
M  V30 4286 O 411.051 0.368518 -1.84863 0
M  V30 4287 C 408.178 0.276639 -3.37568 0
M  V30 4288 C 407.224 -0.61302 -4.22071 0
M  V30 4289 S 408.057 -2.07168 -4.93803 0
M  V30 4290 C 409.213 -1.30617 -6.12119 0
M  V30 4291 H 409.446 -1.35234 -2.64762 0
M  V30 4292 H 406.979 -0.806018 -1.31692 0
M  V30 4293 H 408.937 0.717817 -4.04175 0
M  V30 4294 H 407.598 1.10581 -2.93991 0
M  V30 4295 H 406.791 -0.0162909 -5.03997 0
M  V30 4296 H 406.393 -0.991202 -3.60626 0
M  V30 4297 H 408.685 -0.57675 -6.75041 0
M  V30 4298 H 409.628 -2.10091 -6.76215 0
M  V30 4299 H 410.036 -0.816957 -5.58557 0
M  V30 4300 N 409.434 1.37368 -0.772513 0
M  V30 4301 C 410.367 2.27956 -0.105593 0
M  V30 4302 C 411.345 1.46362 0.708295 0
M  V30 4303 O 412.529 1.75695 0.682895 0
M  V30 4304 C 409.656 3.27687 0.856686 0
M  V30 4305 C 408.702 4.26312 0.1267 0
M  V30 4306 S 409.535 5.22206 -1.1858 0
M  V30 4307 C 410.691 6.25488 -0.227081 0
M  V30 4308 H 410.924 2.84171 -0.87372 0
M  V30 4309 H 408.457 1.43654 -0.565939 0
M  V30 4310 H 410.415 3.85653 1.40648 0
M  V30 4311 H 409.076 2.70417 1.59793 0
M  V30 4312 H 408.269 4.96674 0.856212 0
M  V30 4313 H 407.871 3.72339 -0.352117 0
M  V30 4314 H 410.163 6.74836 0.600231 0
M  V30 4315 H 411.106 7.02371 -0.898899 0
M  V30 4316 H 411.514 5.64267 0.162053 0
M  V30 4317 N 410.912 0.523116 1.48665 0
M  V30 4318 C 412.137 -0.0117284 2.07397 0
M  V30 4319 C 412.562 -1.28031 1.37803 0
M  V30 4320 O 411.92 -1.75836 0.441762 0
M  V30 4321 C 411.968 -0.225786 3.59892 0
M  V30 4322 O 411.072 -1.29592 3.91509 0
M  V30 4323 H 410.413 0.0360673 0.66302 0
M  V30 4324 H 412.943 0.729066 1.9117 0
M  V30 4325 H 412.953 -0.450552 4.05505 0
M  V30 4326 H 411.628 0.700944 4.09951 0
M  V30 4327 H 410.205 -1.05436 3.57684 0
M  V30 4328 N 412.39 -1.55475 0.257931 0
M  V30 4329 C 413.639 -1.98383 -0.364275 0
M  V30 4330 C 413.952 -1.14952 -1.58258 0
M  V30 4331 O 415.158 -1.47924 -2.27664 0
M  V30 4332 C 413.614 -3.53037 -0.699479 0
M  V30 4333 C 413.222 -4.45223 0.498046 0
M  V30 4334 C 414.966 -4.04575 -1.28526 0
M  V30 4335 C 412.873 -5.91238 0.138383 0
M  V30 4336 H 411.803 -0.740911 -0.13988 0
M  V30 4337 H 414.454 -1.79936 0.359883 0
M  V30 4338 H 412.836 -3.6722 -1.48207 0
M  V30 4339 H 414.01 -4.42803 1.27522 0
M  V30 4340 H 412.325 -4.04226 0.999503 0
M  V30 4341 H 414.922 -5.11196 -1.56788 0
M  V30 4342 H 415.265 -3.5258 -2.21344 0
M  V30 4343 H 415.798 -3.93762 -0.565337 0
M  V30 4344 H 412.537 -6.47294 1.03398 0
M  V30 4345 H 412.057 -5.96768 -0.602374 0
M  V30 4346 H 413.736 -6.46413 -0.27553 0
M  V30 4347 N 413.868 0.0150385 -1.57593 0
M  V30 4348 C 415.116 0.701613 -1.8953 0
M  V30 4349 C 415.437 1.75139 -0.857396 0
M  V30 4350 O 414.707 1.95607 0.107194 0
M  V30 4351 H 413.287 0.26213 -0.699498 0
M  V30 4352 H 415.949 -0.0223304 -1.94887 0
M  V30 4353 H 415.045 1.18236 -2.88837 0
M  V30 4354 N 415.346 1.54954 0.287554 0
M  V30 4355 C 416.593 1.74873 1.02106 0
M  V30 4356 C 416.921 0.541829 1.86801 0
M  V30 4357 O 416.176 -0.475992 1.89823 0
M  V30 4358 C 416.475 2.99833 1.94512 0
M  V30 4359 C 416.141 4.33029 1.25686 0
M  V30 4360 C 414.803 4.69233 1.06649 0
M  V30 4361 C 417.155 5.15542 0.765913 0
M  V30 4362 C 414.483 5.85518 0.372222 0
M  V30 4363 C 416.835 6.32542 0.0853101 0
M  V30 4364 C 415.499 6.67398 -0.1169 0
M  V30 4365 H 414.769 0.639906 0.373632 0
M  V30 4366 H 417.416 1.89219 0.294665 0
M  V30 4367 H 415.721 2.80325 2.73725 0
M  V30 4368 H 417.418 3.1244 2.51361 0
M  V30 4369 H 414.008 4.04564 1.41512 0
M  V30 4370 H 418.192 4.88059 0.90066 0
M  V30 4371 H 413.448 6.11057 0.204695 0
M  V30 4372 H 417.622 6.95741 -0.302936 0
M  V30 4373 H 415.249 7.57357 -0.656859 0
M  V30 4374 N 416.824 -0.551391 1.4764 0
M  V30 4375 C 417.754 -1.66757 1.63445 0
M  V30 4376 C 418.735 -1.63077 0.483742 0
M  V30 4377 O 419.92 -1.80607 0.71377 0
M  V30 4378 C 417.05 -3.05387 1.65396 0
M  V30 4379 C 416.004 -3.23918 2.79752 0
M  V30 4380 C 415.33 -4.63393 2.66779 0
M  V30 4381 C 416.63 -3.08735 4.21284 0
M  V30 4382 H 418.324 -1.53786 2.56886 0
M  V30 4383 H 415.87 -0.738415 1.23626 0
M  V30 4384 H 417.823 -3.83325 1.75043 0
M  V30 4385 H 416.547 -3.19332 0.685195 0
M  V30 4386 H 415.206 -2.48391 2.69625 0
M  V30 4387 H 414.854 -4.74144 1.67918 0
M  V30 4388 H 414.554 -4.7674 3.43501 0
M  V30 4389 H 416.078 -5.43458 2.78364 0
M  V30 4390 H 417.492 -3.76484 4.32357 0
M  V30 4391 H 415.889 -3.33588 4.98838 0
M  V30 4392 H 416.959 -2.0541 4.39243 0
M  V30 4393 N 418.302 -1.35869 -0.798587 0
M  V30 4394 C 419.55 -1.29332 -1.55298 0
M  V30 4395 C 419.871 0.129729 -1.94568 0
M  V30 4396 O 419.141 1.06796 -1.6423 0
M  V30 4397 H 417.721 -0.475737 -0.57592 0
M  V30 4398 H 420.383 -1.70062 -0.952093 0
M  V30 4399 H 419.479 -1.91458 -2.46476 0
M  V30 4400 N 419.78 1.02168 -1.19998 0
M  V30 4401 C 421.027 1.75685 -1.00702 0
M  V30 4402 C 421.355 1.88947 0.461426 0
M  V30 4403 O 420.61 1.40832 1.35885 0
M  V30 4404 C 420.909 3.18081 -1.62969 0
M  V30 4405 C 420.575 3.24809 -3.12746 0
M  V30 4406 C 419.237 3.26352 -3.53621 0
M  V30 4407 C 421.589 3.23379 -4.08749 0
M  V30 4408 C 418.917 3.2413 -4.89036 0
M  V30 4409 C 421.269 3.22698 -5.44104 0
M  V30 4410 C 419.933 3.22542 -5.84399 0
M  V30 4411 H 419.203 0.642877 -0.368496 0
M  V30 4412 H 421.85 1.19865 -1.49348 0
M  V30 4413 H 420.155 3.77027 -1.06573 0
M  V30 4414 H 421.852 3.73648 -1.45561 0
M  V30 4415 H 418.442 3.2434 -2.80181 0
M  V30 4416 H 422.626 3.21361 -3.78207 0
M  V30 4417 H 417.882 3.22338 -5.19527 0
M  V30 4418 H 422.056 3.20543 -6.18244 0
M  V30 4419 H 419.683 3.20575 -6.89301 0
M  V30 4420 N 421.258 1.00505 1.21394 0
M  V30 4421 C 422.507 0.683159 1.89778 0
M  V30 4422 C 422.82 -0.789471 1.7896 0
M  V30 4423 O 424.026 -1.22344 2.42372 0
M  V30 4424 C 422.482 1.17146 3.40301 0
M  V30 4425 C 422.09 2.67017 3.5973 0
M  V30 4426 C 423.834 0.924461 4.14311 0
M  V30 4427 C 421.741 3.09387 5.04017 0
M  V30 4428 H 420.671 0.25183 0.710702 0
M  V30 4429 H 423.322 1.21622 1.37406 0
M  V30 4430 H 421.704 0.566451 3.91928 0
M  V30 4431 H 422.878 3.32968 3.18542 0
M  V30 4432 H 421.193 2.89732 2.99073 0
M  V30 4433 H 423.79 1.21658 5.20676 0
M  V30 4434 H 424.133 -0.139286 4.16067 0
M  V30 4435 H 424.666 1.49226 3.6875 0
M  V30 4436 H 421.405 4.14989 5.07409 0
M  V30 4437 H 420.925 2.48149 5.46061 0
M  V30 4438 H 422.604 3.01371 5.72525 0
M  V30 4439 N 422.737 -1.36956 0.779787 0
M  V30 4440 C 423.983 -1.99787 0.348281 0
M  V30 4441 C 424.316 -1.61756 -1.07465 0
M  V30 4442 O 423.591 -0.867639 -1.74075 0
M  V30 4443 C 423.874 -3.56597 0.50104 0
M  V30 4444 C 423.727 -4.04513 1.96697 0
M  V30 4445 C 425.046 -4.40008 -0.0898097 0
M  V30 4446 H 422.165 -0.725796 0.128022 0
M  V30 4447 H 424.807 -1.62514 0.984331 0
M  V30 4448 H 422.957 -3.88479 -0.0404347 0
M  V30 4449 H 424.629 -3.83161 2.56876 0
M  V30 4450 H 422.872 -3.56408 2.47297 0
M  V30 4451 H 423.543 -5.1352 2.02486 0
M  V30 4452 H 426.019 -4.14431 0.372293 0
M  V30 4453 H 424.895 -5.4888 0.0471605 0
M  V30 4454 H 425.156 -4.26035 -1.18096 0
M  V30 4455 N 424.215 -0.530993 -1.48385 0
M  V30 4456 C 425.461 -0.00538653 -2.03399 0
M  V30 4457 C 425.816 1.31899 -1.40073 0
M  V30 4458 O 425.109 1.83901 -0.537676 0
M  V30 4459 C 425.303 0.172742 -3.56982 0
M  V30 4460 C 425.132 -1.13282 -4.35198 0
M  V30 4461 C 423.902 -1.69296 -4.76096 0
M  V30 4462 C 426.1 -2.04367 -4.71952 0
M  V30 4463 N 424.082 -2.9413 -5.38851 0
M  V30 4464 C 425.453 -3.13777 -5.34737 0
M  V30 4465 C 427.508 -2.04681 -4.53883 0
M  V30 4466 C 426.211 -4.23567 -5.81363 0
M  V30 4467 C 428.237 -3.13466 -5.01491 0
M  V30 4468 C 427.599 -4.21595 -5.64302 0
M  V30 4469 H 423.698 -0.0434945 -0.780789 0
M  V30 4470 H 426.282 -0.712495 -1.81195 0
M  V30 4471 H 424.453 0.848937 -3.79009 0
M  V30 4472 H 426.185 0.698046 -3.98634 0
M  V30 4473 H 422.94 -1.23422 -4.57235 0
M  V30 4474 H 423.364 -3.57689 -5.74794 0
M  V30 4475 H 428.006 -1.22378 -4.04702 0
M  V30 4476 H 425.724 -5.06648 -6.2955 0
M  V30 4477 H 429.31 -3.14765 -4.893 0
M  V30 4478 H 428.19 -5.04384 -6.00472 0
M  V30 4479 N 425.693 1.55336 -0.266172 0
M  V30 4480 C 426.656 2.20878 0.612001 0
M  V30 4481 C 427.656 1.18388 1.08816 0
M  V30 4482 O 428.846 1.4335 0.989774 0
M  V30 4483 C 425.978 2.86765 1.84332 0
M  V30 4484 H 427.171 2.99873 0.0398718 0
M  V30 4485 H 424.724 1.56291 -0.0167309 0
M  V30 4486 H 425.459 2.11759 2.45619 0
M  V30 4487 H 425.244 3.61862 1.5099 0
M  V30 4488 H 426.734 3.36867 2.46801 0
M  V30 4489 N 427.171 -0.0066808 1.57599 0
M  V30 4490 C 428.121 -1.0086 2.04478 0
M  V30 4491 C 429.105 -1.30714 0.938231 0
M  V30 4492 O 430.297 -1.29924 1.20203 0
M  V30 4493 C 427.426 -2.30273 2.54615 0
M  V30 4494 C 426.512 -2.03413 3.72134 0
M  V30 4495 N 426.903 -1.46688 4.84062 0
M  V30 4496 C 425.201 -2.33589 3.79937 0
M  V30 4497 C 425.902 -1.36146 5.65543 0
M  V30 4498 N 424.878 -1.84477 5.1134 0
M  V30 4499 H 428.68 -0.564402 2.8843 0
M  V30 4500 H 426.194 -0.212521 1.61003 0
M  V30 4501 H 428.191 -3.02885 2.86472 0
M  V30 4502 H 426.851 -2.75352 1.72079 0
M  V30 4503 H 427.862 -1.14658 5.05049 0
M  V30 4504 H 424.539 -2.81589 3.08243 0
M  V30 4505 H 425.929 -0.925873 6.6549 0
M  V30 4506 N 428.649 -1.55105 -0.279332 0
M  V30 4507 C 429.599 -1.83937 -1.34727 0
M  V30 4508 C 430.583 -0.69785 -1.44979 0
M  V30 4509 O 431.775 -0.95904 -1.48766 0
M  V30 4510 C 428.904 -2.1092 -2.70864 0
M  V30 4511 C 427.99 -3.31314 -2.64748 0
M  V30 4512 N 428.381 -4.51371 -2.2825 0
M  V30 4513 C 426.679 -3.33777 -2.95819 0
M  V30 4514 C 427.38 -5.33447 -2.31969 0
M  V30 4515 N 426.356 -4.71697 -2.7019 0
M  V30 4516 H 430.158 -2.74309 -1.05506 0
M  V30 4517 H 427.672 -1.54896 -0.487959 0
M  V30 4518 H 429.669 -2.2973 -3.47893 0
M  V30 4519 H 428.329 -1.21828 -3.00979 0
M  V30 4520 H 429.34 -4.77584 -2.00335 0
M  V30 4521 H 426.017 -2.54858 -3.30687 0
M  V30 4522 H 427.407 -6.39424 -2.06365 0
M  V30 4523 N 430.127 0.543554 -1.4793 0
M  V30 4524 C 431.06 1.66556 -1.55995 0
M  V30 4525 C 432.038 1.57315 -0.411205 0
M  V30 4526 O 433.222 1.7798 -0.620922 0
M  V30 4527 C 430.349 3.04883 -1.47527 0
M  V30 4528 C 429.395 3.32526 -2.67074 0
M  V30 4529 S 430.228 3.20282 -4.29162 0
M  V30 4530 C 431.384 4.61079 -4.23269 0
M  V30 4531 H 431.617 1.59462 -2.50917 0
M  V30 4532 H 429.15 0.725456 -1.36296 0
M  V30 4533 H 431.108 3.84665 -1.43328 0
M  V30 4534 H 429.769 3.09429 -0.539665 0
M  V30 4535 H 428.962 4.33403 -2.5725 0
M  V30 4536 H 428.564 2.60389 -2.68466 0
M  V30 4537 H 430.856 5.52318 -3.92365 0
M  V30 4538 H 431.799 4.75959 -5.24279 0
M  V30 4539 H 432.207 4.39766 -3.5393 0
M  V30 4540 N 431.605 1.3629 0.791371 0
M  V30 4541 C 432.852 1.30412 1.54916 0
M  V30 4542 C 433.18 -0.117162 1.94147 0
M  V30 4543 O 432.435 -1.08599 1.62803 0
M  V30 4544 C 432.734 2.17068 2.8393 0
M  V30 4545 C 432.4 3.65645 2.63846 0
M  V30 4546 C 431.062 4.0614 2.58077 0
M  V30 4547 C 433.414 4.59855 2.45322 0
M  V30 4548 C 430.742 5.3899 2.31748 0
M  V30 4549 C 433.094 5.9292 2.2052 0
M  V30 4550 C 431.758 6.32542 2.13183 0
M  V30 4551 H 431.028 0.47721 0.566879 0
M  V30 4552 H 433.675 1.68325 0.913172 0
M  V30 4553 H 431.98 1.72085 3.51986 0
M  V30 4554 H 433.677 2.09846 3.4171 0
M  V30 4555 H 430.267 3.33518 2.69191 0
M  V30 4556 H 434.451 4.29443 2.48782 0
M  V30 4557 H 429.707 5.68672 2.24548 0
M  V30 4558 H 433.881 6.65487 2.05182 0
M  V30 4559 H 431.508 7.35412 1.92544 0
M  V30 4560 N 433.083 -1.0153 1.20538 0
M  V30 4561 C 434.311 -1.78746 1.04199 0
M  V30 4562 C 434.726 -1.84323 -0.408733 0
M  V30 4563 O 434.083 -1.29714 -1.28377 0
M  V30 4564 C 434.134 -3.23152 1.62035 0
M  V30 4565 O 433.855 -3.17918 3.0143 0
M  V30 4566 C 435.356 -4.16911 1.50666 0
M  V30 4567 H 432.576 -0.56208 0.366479 0
M  V30 4568 H 435.12 -1.27794 1.59653 0
M  V30 4569 H 433.275 -3.71248 1.10697 0
M  V30 4570 H 433.689 -4.08567 3.28897 0
M  V30 4571 H 435.163 -5.16072 1.95892 0
M  V30 4572 H 435.64 -4.36791 0.459363 0
M  V30 4573 H 436.246 -3.74698 2.01201 0
M  V30 4574 N 434.561 -1.01147 -1.20859 0
M  V30 4575 C 435.807 -0.698899 -1.90377 0
M  V30 4576 C 436.14 0.76904 -1.78324 0
M  V30 4577 O 435.415 1.55817 -1.16409 0
M  V30 4578 C 435.698 -1.12878 -3.41951 0
M  V30 4579 C 435.551 -2.65665 -3.62963 0
M  V30 4580 C 436.87 -0.696114 -4.3456 0
M  V30 4581 H 433.989 -0.255372 -0.691342 0
M  V30 4582 H 436.631 -1.25831 -1.42361 0
M  V30 4583 H 434.781 -0.652827 -3.82976 0
M  V30 4584 H 436.453 -3.21074 -3.31224 0
M  V30 4585 H 434.696 -3.06878 -3.06608 0
M  V30 4586 H 435.367 -2.90797 -4.69192 0
M  V30 4587 H 437.843 -1.10521 -4.01154 0
M  V30 4588 H 436.719 -1.025 -5.39245 0
M  V30 4589 H 436.98 0.402465 -4.40264 0
M  V30 4590 N 436.039 1.36541 -0.78704 0
M  V30 4591 C 437.287 1.98911 -0.357633 0
M  V30 4592 C 437.608 1.62778 1.07371 0
M  V30 4593 O 436.878 0.900612 1.73971 0
M  V30 4594 H 435.458 0.735734 -0.129246 0
M  V30 4595 H 438.12 1.66776 -1.00855 0
M  V30 4596 H 437.216 3.08874 -0.447549 0
M  V30 4597 N 437.518 0.538854 1.48102 0
M  V30 4598 C 438.451 -0.266495 2.26639 0
M  V30 4599 C 439.429 -0.93687 1.32897 0
M  V30 4600 O 440.613 -0.959507 1.62252 0
M  V30 4601 C 437.74 -1.37814 3.09394 0
M  V30 4602 C 436.786 -0.818247 4.18577 0
M  V30 4603 S 437.619 0.320848 5.34538 0
M  V30 4604 C 438.775 -0.793059 6.20855 0
M  V30 4605 H 439.008 0.399994 2.94597 0
M  V30 4606 H 436.541 0.324808 1.50945 0
M  V30 4607 H 438.499 -2.01488 3.57649 0
M  V30 4608 H 437.16 -2.01639 2.40833 0
M  V30 4609 H 436.353 -1.65247 4.7614 0
M  V30 4610 H 435.955 -0.258036 3.73109 0
M  V30 4611 H 438.247 -1.68961 6.56093 0
M  V30 4612 H 439.19 -0.255204 7.0764 0
M  V30 4613 H 439.598 -1.07746 5.54122 0
M  V30 4614 N 438.996 -1.55193 0.274407 0
M  V30 4615 C 440.273 -1.91584 -0.394331 0
M  V30 4616 C 440.653 -1.19858 -1.73774 0
M  V30 4617 O 440.001 -0.3252 -2.26174 0
M  V30 4618 C 440.211 -3.4487 -0.535311 0
M  V30 4619 C 441.559 -4.16636 -0.818534 0
M  V30 4620 O 442.583 -3.5076 -0.620146 0
M  V30 4621 O 441.442 -5.33209 -1.19792 0
M  V30 4622 H 438.536 -0.798349 -0.215794 0
M  V30 4623 H 441.082 -1.66646 0.320507 0
M  V30 4624 H 439.854 -3.89145 0.410141 0
M  V30 4625 H 439.477 -3.75759 -1.29964 0
M  V30 4626 N 440.474 -0.00167713 -1.576 0
M  V30 4627 C 441.72 0.683832 -1.90923 0
M  V30 4628 C 442.053 1.7333 -0.875799 0
M  V30 4629 O 441.328 1.94215 0.10525 0
M  V30 4630 C 441.611 1.32543 -3.3482 0
M  V30 4631 C 441.464 0.287387 -4.48881 0
M  V30 4632 C 442.783 2.25114 -3.78169 0
M  V30 4633 H 439.902 0.247125 -0.694333 0
M  V30 4634 H 442.544 -0.0533149 -1.89925 0
M  V30 4635 H 440.694 1.95372 -3.35801 0
M  V30 4636 H 442.366 -0.341346 -4.60035 0
M  V30 4637 H 440.609 -0.39017 -4.32042 0
M  V30 4638 H 441.28 0.775393 -5.46527 0
M  V30 4639 H 443.756 1.723 -3.7875 0
M  V30 4640 H 442.632 2.66971 -4.79602 0
M  V30 4641 H 442.893 3.13092 -3.12131 0
M  V30 4642 N 441.952 1.55251 0.271103 0
M  V30 4643 C 443.229 1.66664 1.02384 0
M  V30 4644 C 443.609 0.534363 2.04225 0
M  V30 4645 O 442.957 -0.465337 2.23712 0
M  V30 4646 C 443.167 3.05961 1.67895 0
M  V30 4647 C 444.515 3.63772 2.18986 0
M  V30 4648 O 445.539 3.08606 1.77878 0
M  V30 4649 O 444.398 4.60429 2.94393 0
M  V30 4650 H 441.492 0.676957 0.475035 0
M  V30 4651 H 444.038 1.67589 0.26681 0
M  V30 4652 H 442.81 3.79815 0.941071 0
M  V30 4653 H 442.433 3.08943 2.5028 0
M  V30 4654 N 443.43 -0.535701 1.48216 0
M  V30 4655 C 444.658 -1.31671 1.59594 0
M  V30 4656 C 445.073 -1.87083 0.254056 0
M  V30 4657 O 444.43 -1.66112 -0.755854 0
M  V30 4658 C 444.481 -2.47158 2.63809 0
M  V30 4659 O 444.202 -1.94032 3.92789 0
M  V30 4660 C 445.703 -3.39062 2.85573 0
M  V30 4661 H 442.923 -0.400623 0.538277 0
M  V30 4662 H 445.467 -0.646827 1.94001 0
M  V30 4663 H 443.622 -3.10043 2.32276 0
M  V30 4664 H 444.036 -2.69585 4.49916 0
M  V30 4665 H 445.51 -4.16459 3.62306 0
M  V30 4666 H 445.987 -3.93941 1.94184 0
M  V30 4667 H 446.593 -2.81975 3.18387 0
M  V30 4668 N 444.908 -1.36708 -0.784132 0
M  V30 4669 C 446.324 -1.17237 -1.08294 0
M  V30 4670 C 446.524 -5.93947e-05 -2.015 0
M  V30 4671 O 445.58 0.663686 -2.43622 0
M  V30 4672 C 446.893 -2.48557 -1.69233 0
M  V30 4673 C 448.441 -2.54968 -1.8155 0
M  V30 4674 C 448.916 -3.86388 -2.45904 0
M  V30 4675 N 450.407 -3.87762 -2.53367 0
M  V30 4676 C 451.142 -4.86191 -3.03983 0
M  V30 4677 N 450.638 -5.95015 -3.54866 0
M  V30 4678 N 452.431 -4.73606 -3.02743 0
M  V30 4679 H 444.582 -2.11758 -0.16501 0
M  V30 4680 H 446.845 -0.93822 -0.135822 0
M  V30 4681 H 446.551 -3.34638 -1.08215 0
M  V30 4682 H 446.425 -2.64748 -2.68679 0
M  V30 4683 H 448.812 -1.69302 -2.41704 0
M  V30 4684 H 448.893 -2.42672 -0.80895 0
M  V30 4685 H 448.537 -4.72462 -1.86392 0
M  V30 4686 H 448.467 -3.95982 -3.4714 0
M  V30 4687 H 450.958 -3.09145 -2.17343 0
M  V30 4688 H 451.271 -6.66086 -3.91854 0
M  V30 4689 H 449.616 -5.98676 -3.53003 0
M  V30 4690 H 452.807 -3.87717 -2.62284 0
M  V30 4691 H 452.98 -5.50473 -3.41881 0
M  V30 4692 N 446.386 1.0089 -1.21074 0
M  V30 4693 C 447.349 2.0775 -0.968129 0
M  V30 4694 C 448.349 1.6069 0.0593445 0
M  V30 4695 O 449.539 1.73293 -0.177525 0
M  V30 4696 C 446.671 3.37794 -0.459108 0
M  V30 4697 H 447.864 2.30707 -1.9161 0
M  V30 4698 H 445.417 1.17807 -1.02719 0
M  V30 4699 H 446.152 3.20516 0.49397 0
M  V30 4700 H 445.937 3.7328 -1.20019 0
M  V30 4701 H 447.427 4.16454 -0.309099 0
M  V30 4702 N 447.864 1.01787 1.20321 0
M  V30 4703 C 449.094 0.72614 1.93419 0
M  V30 4704 C 449.502 -0.717317 1.75075 0
M  V30 4705 O 448.845 -1.49836 1.06278 0
M  V30 4706 C 448.907 0.983621 3.45782 0
M  V30 4707 C 448.571 2.41645 3.87888 0
M  V30 4708 C 449.568 3.39732 3.93545 0
M  V30 4709 C 447.253 2.75752 4.19841 0
M  V30 4710 C 449.247 4.69988 4.30569 0
M  V30 4711 C 446.934 4.06221 4.56539 0
M  V30 4712 C 447.932 5.0315 4.61876 0
M  V30 4713 O 447.62 6.31284 4.97731 0
M  V30 4714 H 447.352 0.265824 0.621541 0
M  V30 4715 H 449.906 1.3623 1.53722 0
M  V30 4716 H 448.136 0.290301 3.85609 0
M  V30 4717 H 449.825 0.683279 4.00108 0
M  V30 4718 H 450.591 3.14718 3.69022 0
M  V30 4719 H 446.47 2.00993 4.14877 0
M  V30 4720 H 450.014 5.45642 4.3465 0
M  V30 4721 H 445.911 4.31013 4.80518 0
M  V30 4722 H 446.679 6.35591 5.15719 0
M  V30 4723 N 449.342 -1.36122 0.79427 0
M  V30 4724 C 450.589 -1.99111 0.368905 0
M  V30 4725 C 450.917 -1.63032 -1.0607 0
M  V30 4726 O 450.172 -0.879303 -1.74833 0
M  V30 4727 C 450.471 -3.5409 0.48527 0
M  V30 4728 C 450.137 -4.10003 1.87638 0
M  V30 4729 C 448.799 -4.24986 2.257 0
M  V30 4730 C 451.151 -4.40423 2.78706 0
M  V30 4731 C 448.479 -4.67701 3.54221 0
M  V30 4732 C 450.831 -4.84573 4.0666 0
M  V30 4733 C 449.495 -4.97761 4.44737 0
M  V30 4734 H 448.765 -0.7286 0.134992 0
M  V30 4735 H 451.412 -1.62534 1.01267 0
M  V30 4736 H 449.717 -3.91052 -0.241984 0
M  V30 4737 H 451.414 -4.00766 0.137109 0
M  V30 4738 H 448.004 -3.98784 1.57064 0
M  V30 4739 H 452.188 -4.28412 2.50553 0
M  V30 4740 H 447.444 -4.761 3.83587 0
M  V30 4741 H 451.618 -5.07074 4.77336 0
M  V30 4742 H 449.245 -5.30618 5.44379 0
M  V30 4743 N 450.82 -0.546701 -1.47814 0
M  V30 4744 C 452.048 -0.0232857 -2.06887 0
M  V30 4745 C 452.463 1.26571 -1.4009 0
M  V30 4746 O 451.82 1.7569 -0.493906 0
M  V30 4747 C 451.871 0.186975 -3.61016 0
M  V30 4748 O 451.592 -1.05097 -4.25307 0
M  V30 4749 C 453.093 0.748872 -4.36929 0
M  V30 4750 H 450.313 -0.0410763 -0.669742 0
M  V30 4751 H 452.857 -0.757117 -1.89968 0
M  V30 4752 H 451.012 0.870903 -3.77484 0
M  V30 4753 H 451.426 -0.842121 -5.17695 0
M  V30 4754 H 452.9 0.845334 -5.45489 0
M  V30 4755 H 453.377 1.75772 -4.02493 0
M  V30 4756 H 453.983 0.100979 -4.2518 0
M  V30 4757 N 452.299 1.55045 -0.282633 0
M  V30 4758 C 453.524 2.04628 0.337977 0
M  V30 4759 C 453.949 1.15937 1.48123 0
M  V30 4760 O 453.307 0.159532 1.80597 0
M  V30 4761 C 453.355 3.51854 0.78936 0
M  V30 4762 O 452.459 3.66236 1.89592 0
M  V30 4763 H 451.8 0.660434 0.0687261 0
M  V30 4764 H 454.33 2.00261 -0.419124 0
M  V30 4765 H 454.34 3.93361 1.08311 0
M  V30 4766 H 453.015 4.15873 -0.0470419 0
M  V30 4767 H 451.592 3.36633 1.60413 0
M  V30 4768 N 453.777 0.010035 1.57597 0
M  V30 4769 C 454.74 -0.963029 2.07986 0
M  V30 4770 C 455.74 -1.26619 0.991173 0
M  V30 4771 O 456.93 -1.2097 1.25347 0
M  V30 4772 C 454.062 -2.2851 2.52974 0
M  V30 4773 H 455.255 -0.526971 2.95234 0
M  V30 4774 H 452.808 -0.237639 1.54483 0
M  V30 4775 H 453.543 -2.76784 1.69 0
M  V30 4776 H 453.328 -2.07824 3.32493 0
M  V30 4777 H 454.818 -2.98294 2.9225 0
M  V30 4778 N 455.255 -1.55392 -0.262866 0
M  V30 4779 C 456.483 -1.80513 -1.01108 0
M  V30 4780 C 456.898 -0.583533 -1.79556 0
M  V30 4781 O 456.255 0.447585 -1.76926 0
M  V30 4782 C 456.306 -3.03648 -1.96164 0
M  V30 4783 O 456.027 -4.2109 -1.20893 0
M  V30 4784 C 457.528 -3.41448 -2.82715 0
M  V30 4785 H 454.748 -0.601079 -0.298236 0
M  V30 4786 H 457.292 -2.02425 -0.290582 0
M  V30 4787 H 455.447 -2.83832 -2.63663 0
M  V30 4788 H 455.861 -4.90771 -1.85051 0
M  V30 4789 H 457.335 -4.30751 -3.45192 0
M  V30 4790 H 457.812 -2.61308 -3.53008 0
M  V30 4791 H 458.418 -3.63559 -2.20693 0
M  V30 4792 N 456.733 0.527833 -1.48498 0
M  V30 4793 C 457.666 1.64892 -1.57753 0
M  V30 4794 C 458.644 1.5687 -0.427867 0
M  V30 4795 O 459.828 1.77311 -0.639764 0
M  V30 4796 C 456.955 3.03301 -1.50752 0
M  V30 4797 C 456.001 3.29675 -2.70586 0
M  V30 4798 S 456.834 3.15712 -4.32535 0
M  V30 4799 C 457.99 4.56564 -4.28136 0
M  V30 4800 H 458.223 1.56792 -2.52594 0
M  V30 4801 H 455.756 0.710959 -1.37057 0
M  V30 4802 H 457.714 3.83123 -1.474 0
M  V30 4803 H 456.375 3.08839 -0.572454 0
M  V30 4804 H 455.568 4.3065 -2.61833 0
M  V30 4805 H 455.17 2.57526 -2.71212 0
M  V30 4806 H 457.462 5.48126 -3.98201 0
M  V30 4807 H 458.405 4.70371 -5.29298 0
M  V30 4808 H 458.813 4.35987 -3.58574 0
M  V30 4809 N 458.211 1.37122 0.776871 0
M  V30 4810 C 459.46 1.31373 1.53049 0
M  V30 4811 C 459.773 -0.101016 1.95339 0
M  V30 4812 O 460.979 -0.280953 2.70042 0
M  V30 4813 C 459.435 2.30567 2.76346 0
M  V30 4814 C 459.043 3.77543 2.41175 0
M  V30 4815 C 460.787 2.33818 3.54301 0
M  V30 4816 C 458.694 4.68481 3.60943 0
M  V30 4817 H 457.624 0.488234 0.574581 0
M  V30 4818 H 460.275 1.62554 0.851372 0
M  V30 4819 H 458.657 1.92396 3.46121 0
M  V30 4820 H 459.831 4.24521 1.79216 0
M  V30 4821 H 458.146 3.77187 1.76405 0
M  V30 4822 H 460.743 2.98965 4.4331 0
M  V30 4823 H 461.086 1.3503 3.93793 0
M  V30 4824 H 461.619 2.7067 2.91518 0
M  V30 4825 H 458.358 5.68378 3.26537 0
M  V30 4826 H 457.878 4.2621 4.22025 0
M  V30 4827 H 459.557 4.85366 4.27819 0
M  V30 4828 N 459.689 -1.00246 1.21608 0
M  V30 4829 C 460.938 -1.73476 1.02902 0
M  V30 4830 C 461.251 -1.90643 -0.437561 0
M  V30 4831 O 462.457 -2.61105 -0.74407 0
M  V30 4832 C 460.913 -3.12079 1.79261 0
M  V30 4833 C 460.521 -3.02877 3.30106 0
M  V30 4834 C 462.265 -3.89421 1.68972 0
M  V30 4835 C 460.172 -4.36575 3.98944 0
M  V30 4836 H 459.102 -0.650408 0.381425 0
M  V30 4837 H 461.753 -1.11985 1.45367 0
M  V30 4838 H 460.135 -3.74196 1.2959 0
M  V30 4839 H 461.309 -2.49983 3.87098 0
M  V30 4840 H 459.624 -2.39022 3.40965 0
M  V30 4841 H 462.221 -4.88362 2.17731 0
M  V30 4842 H 462.564 -4.1122 0.648397 0
M  V30 4843 H 463.097 -3.33963 2.16133 0
M  V30 4844 H 459.836 -4.19978 5.03288 0
M  V30 4845 H 459.356 -4.8942 3.4674 0
M  V30 4846 H 461.035 -5.05364 4.04 0
M  V30 4847 N 461.167 -1.02423 -1.1978 0
M  V30 4848 C 462.13 -0.605703 -2.21052 0
M  V30 4849 C 463.13 0.328209 -1.57415 0
M  V30 4850 O 464.32 0.115853 -1.73814 0
M  V30 4851 C 461.452 0.114366 -3.40708 0
M  V30 4852 H 462.645 -1.5017 -2.59594 0
M  V30 4853 H 460.198 -0.814888 -1.33376 0
M  V30 4854 H 460.933 1.02492 -3.07678 0
M  V30 4855 H 460.718 -0.556641 -3.88129 0
M  V30 4856 H 462.208 0.394272 -4.15735 0
M  V30 4857 N 462.645 1.35699 -0.801477 0
M  V30 4858 C 463.894 1.98165 -0.375979 0
M  V30 4859 C 464.207 1.64306 1.06127 0
M  V30 4860 O 465.413 2.20097 1.58964 0
M  V30 4861 C 463.869 3.54497 -0.621305 0
M  V30 4862 C 463.477 3.9727 -2.07076 0
M  V30 4863 C 465.221 4.23697 -0.26091 0
M  V30 4864 C 463.128 5.46427 -2.26211 0
M  V30 4865 H 462.058 0.741478 -0.136844 0
M  V30 4866 H 464.709 1.54834 -0.984814 0
M  V30 4867 H 463.091 3.95958 0.0574112 0
M  V30 4868 H 464.265 3.66974 -2.78687 0
M  V30 4869 H 462.58 3.40943 -2.39054 0
M  V30 4870 H 465.177 5.33334 -0.381994 0
M  V30 4871 H 465.52 4.0869 0.792344 0
M  V30 4872 H 466.053 3.87639 -0.893339 0
M  V30 4873 H 462.792 5.66396 -3.29963 0
M  V30 4874 H 462.312 5.78309 -1.59119 0
M  V30 4875 H 463.991 6.12819 -2.07513 0
M  V30 4876 N 464.123 0.554532 1.47522 0
M  V30 4877 C 465.534 0.120446 1.86311 0
M  V30 4878 C 465.885 -1.30904 1.46145 0
M  V30 4879 O 465.01 -1.98434 0.863294 0
M  V30 4880 C 465.605 0.211808 3.38137 0
M  V30 4881 C 464.164 -0.167224 3.76028 0
M  V30 4882 C 463.311 0.560576 2.71575 0
M  V30 4883 H 466.262 0.764408 1.39077 0
M  V30 4884 H 466.283 -0.570275 3.76202 0
M  V30 4885 H 465.795 1.25232 3.6734 0
M  V30 4886 H 463.896 -1.20894 3.52442 0
M  V30 4887 H 464.009 0.189473 4.78725 0
M  V30 4888 H 462.373 0.00396836 2.547 0
M  V30 4889 H 463.156 1.60219 3.0362 0
M  V30 4890 N 465.601 -1.54893 0.290851 0
M  V30 4891 C 466.829 -2.04343 -0.324288 0
M  V30 4892 C 467.244 -1.16859 -1.48289 0
M  V30 4893 O 466.601 -0.192018 -1.81487 0
M  V30 4894 C 466.652 -3.52756 -0.79026 0
M  V30 4895 O 466.373 -4.36913 0.322213 0
M  V30 4896 C 467.874 -4.18161 -1.4716 0
M  V30 4897 H 465.094 -0.667135 -0.0719173 0
M  V30 4898 H 467.638 -1.99981 0.427529 0
M  V30 4899 H 465.793 -3.57511 -1.49213 0
M  V30 4900 H 466.207 -5.24486 -0.0387372 0
M  V30 4901 H 467.681 -5.23562 -1.7489 0
M  V30 4902 H 468.158 -3.67282 -2.40834 0
M  V30 4903 H 468.764 -4.17454 -0.813178 0
M  V30 4904 N 467.08 -0.0183926 -1.57589 0
M  V30 4905 C 468.328 0.661253 -1.90976 0
M  V30 4906 C 468.649 1.73281 -0.894353 0
M  V30 4907 O 467.919 1.9579 0.0656788 0
M  V30 4908 H 466.499 0.247233 -0.704901 0
M  V30 4909 H 469.161 -0.0636639 -1.94796 0
M  V30 4910 H 468.257 1.12083 -2.9128 0
M  V30 4911 N 468.558 1.5553 0.254621 0
M  V30 4912 C 469.804 1.77262 0.985193 0
M  V30 4913 C 470.137 0.582286 1.85265 0
M  V30 4914 O 469.412 -0.419666 1.89919 0
M  V30 4915 C 469.695 3.0881 1.85225 0
M  V30 4916 C 469.548 4.38233 1.0135 0
M  V30 4917 C 470.867 3.3653 2.83612 0
M  V30 4918 H 467.986 0.644906 0.356742 0
M  V30 4919 H 470.628 1.88264 0.256236 0
M  V30 4920 H 468.778 2.99562 2.47376 0
M  V30 4921 H 470.45 4.59463 0.411269 0
M  V30 4922 H 468.693 4.32636 0.317574 0
M  V30 4923 H 469.364 5.26644 1.65379 0
M  V30 4924 H 471.84 3.45691 2.31596 0
M  V30 4925 H 470.716 4.29805 3.41407 0
M  V30 4926 H 470.977 2.57064 3.59681 0
M  V30 4927 N 470.036 -0.519951 1.48776 0
M  V30 4928 C 470.983 -1.62352 1.64044 0
M  V30 4929 C 471.953 -1.58945 0.482251 0
M  V30 4930 O 473.138 -1.77219 0.706971 0
M  V30 4931 C 470.278 -3.00579 1.69547 0
M  V30 4932 C 469.391 -3.14145 2.96541 0
M  V30 4933 C 468.526 -4.42991 2.93142 0
M  V30 4934 C 467.565 -4.50122 4.14797 0
M  V30 4935 N 466.702 -5.7037 4.09418 0
M  V30 4936 H 471.542 -1.48643 2.58281 0
M  V30 4937 H 469.079 -0.723516 1.28077 0
M  V30 4938 H 471.037 -3.80671 1.70719 0
M  V30 4939 H 469.667 -3.13036 0.787918 0
M  V30 4940 H 468.719 -2.27239 3.05068 0
M  V30 4941 H 470.031 -3.15275 3.86527 0
M  V30 4942 H 469.185 -5.31385 2.92772 0
M  V30 4943 H 467.924 -4.44398 2.00902 0
M  V30 4944 H 466.929 -3.60133 4.15433 0
M  V30 4945 H 468.154 -4.50445 5.08208 0
M  V30 4946 H 466.1 -5.72655 3.20004 0
M  V30 4947 H 466.017 -5.73036 4.93119 0
M  V30 4948 H 467.285 -6.61023 4.13121 0
M  V30 4949 N 471.514 -1.37532 -0.769588 0
M  V30 4950 C 472.76 -1.33057 -1.53048 0
M  V30 4951 C 473.093 0.0841865 -1.94017 0
M  V30 4952 O 472.368 1.04198 -1.64235 0
M  V30 4953 C 472.651 -2.27166 -2.79406 0
M  V30 4954 C 472.504 -3.77429 -2.44677 0
M  V30 4955 C 473.823 -2.19683 -3.81349 0
M  V30 4956 H 470.942 -0.484655 -0.555228 0
M  V30 4957 H 473.584 -1.68251 -0.882702 0
M  V30 4958 H 471.734 -1.97283 -3.34682 0
M  V30 4959 H 473.406 -4.17918 -1.953 0
M  V30 4960 H 471.649 -3.95892 -1.77346 0
M  V30 4961 H 472.32 -4.38716 -3.35011 0
M  V30 4962 H 474.796 -2.46029 -3.35573 0
M  V30 4963 H 473.672 -2.87668 -4.67481 0
M  V30 4964 H 473.933 -1.19045 -4.25771 0
M  V30 4965 N 472.992 0.995999 -1.22138 0
M  V30 4966 C 474.239 1.7351 -1.04406 0
M  V30 4967 C 474.567 1.89884 0.421244 0
M  V30 4968 O 473.822 1.43683 1.32867 0
M  V30 4969 C 474.121 3.14553 -1.6968 0
M  V30 4970 C 473.787 3.18102 -3.19565 0
M  V30 4971 C 472.449 3.18778 -3.60464 0
M  V30 4972 C 474.801 3.14636 -4.15516 0
M  V30 4973 C 472.129 3.13684 -4.95801 0
M  V30 4974 C 474.481 3.11084 -5.50826 0
M  V30 4975 C 473.145 3.10074 -5.91109 0
M  V30 4976 H 472.415 0.634916 -0.38205 0
M  V30 4977 H 475.062 1.1667 -1.51857 0
M  V30 4978 H 473.367 3.74682 -1.14546 0
M  V30 4979 H 475.064 3.70477 -1.53454 0
M  V30 4980 H 471.654 3.18324 -2.86998 0
M  V30 4981 H 475.838 3.13266 -3.84939 0
M  V30 4982 H 471.094 3.11245 -5.26247 0
M  V30 4983 H 475.268 3.07357 -6.24904 0
M  V30 4984 H 472.895 3.05882 -6.95946 0
M  V30 4985 N 474.47 1.03057 1.19235 0
M  V30 4986 C 475.695 0.74757 1.93458 0
M  V30 4987 C 476.12 -0.687648 1.7508 0
M  V30 4988 O 475.478 -1.47499 1.05422 0
M  V30 4989 C 475.526 1.10604 3.43219 0
M  V30 4990 O 474.63 0.225671 4.11782 0
M  V30 4991 H 473.971 0.276047 0.603899 0
M  V30 4992 H 476.501 1.3777 1.51263 0
M  V30 4993 H 476.511 1.06366 3.93891 0
M  V30 4994 H 475.186 2.15165 3.55917 0
M  V30 4995 H 473.763 0.326795 3.71465 0
M  V30 4996 N 475.948 -1.35272 0.808662 0
M  V30 4997 C 477.194 -1.99434 0.399717 0
M  V30 4998 C 477.549 -1.62992 -1.02232 0
M  V30 4999 O 476.842 -0.884091 -1.69983 0
M  V30 5000 C 477.036 -3.53556 0.522798 0
M  V30 5001 C 476.865 -4.04969 1.95525 0
M  V30 5002 C 475.635 -4.34228 2.58407 0
M  V30 5003 C 477.833 -4.23362 2.92009 0
M  V30 5004 N 475.815 -4.71585 3.93041 0
M  V30 5005 C 477.186 -4.63739 4.11517 0
M  V30 5006 C 479.241 -4.05576 2.88813 0
M  V30 5007 C 477.944 -4.88189 5.28265 0
M  V30 5008 C 479.97 -4.31184 4.04765 0
M  V30 5009 C 479.332 -4.71834 5.23022 0
M  V30 5010 H 475.431 -0.757534 0.19408 0
M  V30 5011 H 478.015 -1.63939 1.05034 0
M  V30 5012 H 476.186 -3.88277 -0.0978471 0
M  V30 5013 H 477.918 -4.04604 0.0882378 0
M  V30 5014 H 474.673 -4.24621 2.09747 0
M  V30 5015 H 475.097 -4.9452 4.62363 0
M  V30 5016 H 479.739 -3.73288 1.98535 0
M  V30 5017 H 477.457 -5.1935 6.19113 0
M  V30 5018 H 481.043 -4.18972 4.03675 0
M  V30 5019 H 479.923 -4.91263 6.11253 0
M  V30 5020 N 477.426 -0.562348 -1.47226 0
M  V30 5021 C 478.356 0.170627 -2.32876 0
M  V30 5022 C 479.337 0.903748 -1.44106 0
M  V30 5023 O 480.522 0.883206 -1.72954 0
M  V30 5024 C 477.652 1.19786 -3.25989 0
M  V30 5025 C 476.606 0.580875 -4.2404 0
M  V30 5026 C 475.932 1.71311 -5.06514 0
M  V30 5027 C 477.232 -0.468714 -5.20193 0
M  V30 5028 H 478.926 -0.544441 -2.94408 0
M  V30 5029 H 476.472 -0.263271 -1.41573 0
M  V30 5030 H 478.425 1.71884 -3.84752 0
M  V30 5031 H 477.149 1.94294 -2.62521 0
M  V30 5032 H 475.808 0.0811538 -3.6651 0
M  V30 5033 H 475.456 2.44736 -4.39447 0
M  V30 5034 H 475.156 1.30604 -5.72902 0
M  V30 5035 H 476.68 2.23725 -5.68137 0
M  V30 5036 H 478.094 -0.0336028 -5.7329 0
M  V30 5037 H 476.491 -0.794957 -5.94811 0
M  V30 5038 H 477.561 -1.36269 -4.65359 0
M  V30 5039 N 478.904 1.54736 -0.299062 0
M  V30 5040 C 479.867 2.22127 0.565012 0
M  V30 5041 C 480.867 1.20669 1.06281 0
M  V30 5042 O 482.057 1.45417 0.959145 0
M  V30 5043 C 479.189 2.90611 1.78208 0
M  V30 5044 H 480.382 2.99891 -0.0237448 0
M  V30 5045 H 477.935 1.5622 -0.0498788 0
M  V30 5046 H 478.67 2.16921 2.41072 0
M  V30 5047 H 478.455 3.64984 1.43281 0
M  V30 5048 H 479.945 3.42026 2.396 0
M  V30 5049 N 480.382 0.0267497 1.57577 0
M  V30 5050 C 481.61 -0.662661 1.96001 0
M  V30 5051 C 482.025 -1.65799 0.903117 0
M  V30 5052 O 481.382 -1.82135 -0.115317 0
M  V30 5053 C 481.433 -1.37112 3.34488 0
M  V30 5054 O 481.154 -0.415683 4.36123 0
M  V30 5055 C 482.655 -2.15257 3.8753 0
M  V30 5056 H 479.875 -0.18287 0.6456 0
M  V30 5057 H 482.419 0.0858116 2.0432 0
M  V30 5058 H 480.574 -2.07101 3.27395 0
M  V30 5059 H 480.988 -0.918496 5.16395 0
M  V30 5060 H 482.462 -2.60285 4.86781 0
M  V30 5061 H 482.939 -2.99063 3.21649 0
M  V30 5062 H 483.545 -1.50231 3.97883 0
M  V30 5063 N 481.861 -1.55662 -0.24637 0
M  V30 5064 C 482.791 -1.93377 -1.30873 0
M  V30 5065 C 483.772 -0.798773 -1.50179 0
M  V30 5066 O 484.957 -1.0591 -1.62778 0
M  V30 5067 C 482.087 -2.22893 -2.66338 0
M  V30 5068 C 481.041 -3.38649 -2.61727 0
M  V30 5069 C 480.367 -3.53708 -4.00992 0
M  V30 5070 C 481.667 -4.74323 -2.18666 0
M  V30 5071 H 483.361 -2.82363 -0.995552 0
M  V30 5072 H 480.907 -1.35854 -0.477464 0
M  V30 5073 H 482.86 -2.47866 -3.40794 0
M  V30 5074 H 481.584 -1.30733 -2.99293 0
M  V30 5075 H 480.243 -3.13685 -1.89729 0
M  V30 5076 H 479.891 -2.58967 -4.31214 0
M  V30 5077 H 479.591 -4.31551 -3.98795 0
M  V30 5078 H 481.115 -3.81003 -4.77147 0
M  V30 5079 H 482.529 -4.98665 -2.82854 0
M  V30 5080 H 480.926 -5.55273 -2.27579 0
M  V30 5081 H 481.996 -4.71349 -1.13834 0
M  V30 5082 N 483.339 0.512053 -1.4905 0
M  V30 5083 C 484.289 1.61142 -1.61298 0
M  V30 5084 C 485.273 1.53908 -0.46916 0
M  V30 5085 O 486.465 1.61625 -0.721547 0
M  V30 5086 C 483.594 2.998 -1.67256 0
M  V30 5087 C 482.68 3.12072 -2.87179 0
M  V30 5088 N 483.071 2.94263 -4.11391 0
M  V30 5089 C 481.369 3.43156 -2.84886 0
M  V30 5090 C 482.07 3.10426 -4.91946 0
M  V30 5091 N 481.046 3.38808 -4.251 0
M  V30 5092 H 484.848 1.46011 -2.55065 0
M  V30 5093 H 482.362 0.717934 -1.45669 0
M  V30 5094 H 484.359 3.78794 -1.74128 0
M  V30 5095 H 483.019 3.1601 -0.746195 0
M  V30 5096 H 484.03 2.70661 -4.41546 0
M  V30 5097 H 480.707 3.65611 -2.01581 0
M  V30 5098 H 482.097 3.01243 -6.00585 0
M  V30 5099 N 484.817 1.37938 0.762283 0
M  V30 5100 C 486.065 1.33404 1.51815 0
M  V30 5101 C 486.386 -0.0780975 1.94844 0
M  V30 5102 O 485.656 -1.02405 1.67003 0
M  V30 5103 H 484.236 0.490839 0.563104 0
M  V30 5104 H 486.898 1.72527 0.906669 0
M  V30 5105 H 485.994 1.97926 2.41313 0
M  V30 5106 N 486.295 -0.989507 1.22664 0
M  V30 5107 C 487.52 -1.77031 1.08051 0
M  V30 5108 C 487.945 -1.84535 -0.364483 0
M  V30 5109 O 487.303 -1.3003 -1.2634 0
M  V30 5110 C 487.351 -3.18 1.70024 0
M  V30 5111 O 486.455 -4.01161 0.956216 0
M  V30 5112 H 485.796 -0.545008 0.379292 0
M  V30 5113 H 488.326 -1.24277 1.62531 0
M  V30 5114 H 488.336 -3.68616 1.74888 0
M  V30 5115 H 487.011 -3.11853 2.75174 0
M  V30 5116 H 485.588 -3.59687 0.98384 0
M  V30 5117 N 487.773 -1.03688 -1.18687 0
M  V30 5118 C 488.721 -0.618292 -2.24232 0
M  V30 5119 C 489.715 0.353045 -1.6568 0
M  V30 5120 O 490.921 0.220749 -1.78641 0
M  V30 5121 H 487.296 -0.181711 -0.729716 0
M  V30 5122 H 489.267 -1.51893 -2.56848 0
M  V30 5123 C 488.016 0.00677342 -3.47699 0
M  V30 5124 H 487.339 -0.731692 -3.93047 0
M  V30 5125 H 488.779 0.262492 -4.23187 0
M  V30 5126 C 487.238 1.25572 -3.12623 0
M  V30 5127 O 487.768 2.34691 -3.26011 0
M  V30 5128 N 485.974 1.14755 -2.66982 0
M  V30 5129 H 485.521 0.259601 -2.56289 0
M  V30 5130 H 485.479 1.98412 -2.43885 0
M  V30 5131 N 489.251 1.34841 -0.815825 0
M  V30 5132 C 490.184 2.27504 -0.178062 0
M  V30 5133 C 491.162 1.48542 0.661373 0
M  V30 5134 O 492.346 1.77779 0.626653 0
M  V30 5135 C 489.473 3.30246 0.752002 0
M  V30 5136 C 488.519 4.26499 -0.00899172 0
M  V30 5137 S 489.352 5.18169 -1.35134 0
M  V30 5138 C 490.508 6.24449 -0.42596 0
M  V30 5139 H 490.741 2.81248 -0.963684 0
M  V30 5140 H 488.274 1.41781 -0.611355 0
M  V30 5141 H 490.232 3.89933 1.28308 0
M  V30 5142 H 488.893 2.75363 1.51109 0
M  V30 5143 H 488.086 4.99146 0.697766 0
M  V30 5144 H 487.688 3.7103 -0.470396 0
M  V30 5145 H 489.98 6.76404 0.385234 0
M  V30 5146 H 490.923 6.99156 -1.1219 0
M  V30 5147 H 491.331 5.64497 -0.0175461 0
M  V30 5148 N 490.729 0.570148 1.46925 0
M  V30 5149 C 491.676 -0.170257 2.30171 0
M  V30 5150 C 492.646 -0.896099 1.39855 0
M  V30 5151 O 493.831 -0.889248 1.68811 0
M  V30 5152 C 490.971 -1.18605 3.24079 0
M  V30 5153 C 490.084 -0.464947 4.29491 0
M  V30 5154 C 489.219 -1.46716 5.10537 0
M  V30 5155 C 488.258 -0.731758 6.0771 0
M  V30 5156 N 487.395 -1.68142 6.81669 0
M  V30 5157 H 492.235 0.545713 2.92961 0
M  V30 5158 H 489.772 0.280938 1.44392 0
M  V30 5159 H 491.73 -1.78771 3.76957 0
M  V30 5160 H 490.36 -1.86989 2.63125 0
M  V30 5161 H 489.412 0.251506 3.79568 0
M  V30 5162 H 490.724 0.110548 4.98677 0
M  V30 5163 H 489.878 -2.14199 5.6763 0
M  V30 5164 H 488.617 -2.07658 4.41282 0
M  V30 5165 H 487.622 -0.0430787 5.49783 0
M  V30 5166 H 488.847 -0.127904 6.7898 0
M  V30 5167 H 486.793 -2.27918 6.15134 0
M  V30 5168 H 486.71 -1.15841 7.47072 0
M  V30 5169 H 487.978 -2.347 7.43328 0
M  V30 5170 N 492.207 -1.54576 0.307264 0
M  V30 5171 C 493.453 -2.01272 -0.293453 0
M  V30 5172 C 493.808 -1.19178 -1.51044 0
M  V30 5173 O 493.101 -0.261704 -1.89804 0
M  V30 5174 C 493.295 -3.50572 -0.695253 0
M  V30 5175 C 493.124 -4.47118 0.481249 0
M  V30 5176 C 491.894 -4.958 0.97524 0
M  V30 5177 C 494.092 -4.96853 1.32823 0
M  V30 5178 N 492.074 -5.76212 2.11785 0
M  V30 5179 C 493.445 -5.75028 2.31824 0
M  V30 5180 C 495.5 -4.79026 1.35788 0
M  V30 5181 C 494.203 -6.37276 3.33574 0
M  V30 5182 C 496.229 -5.42097 2.364 0
M  V30 5183 C 495.591 -6.2011 3.34129 0
M  V30 5184 H 491.69 -0.778709 -0.0716705 0
M  V30 5185 H 494.274 -1.89695 0.438602 0
M  V30 5186 H 492.445 -3.62427 -1.39647 0
M  V30 5187 H 494.177 -3.84056 -1.27604 0
M  V30 5188 H 490.932 -4.70405 0.549184 0
M  V30 5189 H 491.356 -6.21101 2.69375 0
M  V30 5190 H 495.998 -4.18288 0.616021 0
M  V30 5191 H 493.716 -6.97144 4.08676 0
M  V30 5192 H 497.302 -5.30229 2.39475 0
M  V30 5193 H 496.182 -6.68049 4.10707 0
M  V30 5194 N 493.685 -0.035106 -1.57561 0
M  V30 5195 C 494.91 0.655802 -1.96759 0
M  V30 5196 C 495.335 1.64523 -0.911809 0
M  V30 5197 O 494.693 1.80857 0.126673 0
M  V30 5198 C 494.741 1.33326 -3.35047 0
M  V30 5199 O 493.845 2.44866 -3.31835 0
M  V30 5200 H 493.186 0.171807 -0.641388 0
M  V30 5201 H 495.716 -0.0987369 -2.04362 0
M  V30 5202 H 495.726 1.68867 -3.71413 0
M  V30 5203 H 494.401 0.608033 -4.11431 0
M  V30 5204 H 492.978 2.11392 -3.07193 0
M  V30 5205 N 495.163 1.55791 0.238111 0
M  V30 5206 C 496.126 1.90239 1.27835 0
M  V30 5207 C 497.126 0.779552 1.4064 0
M  V30 5208 O 498.316 1.04747 1.3919 0
M  V30 5209 C 495.448 2.13859 2.65475 0
M  V30 5210 H 496.641 2.83262 0.985034 0
M  V30 5211 H 494.194 1.48818 0.477799 0
M  V30 5212 H 494.929 1.23334 2.99932 0
M  V30 5213 H 494.714 2.95643 2.57561 0
M  V30 5214 H 496.204 2.41664 3.40571 0
M  V30 5215 N 496.642 -0.504142 1.49319 0
M  V30 5216 C 497.605 -1.5883 1.65244 0
M  V30 5217 C 498.605 -1.52009 0.524386 0
M  V30 5218 O 499.795 -1.55218 0.79077 0
M  V30 5219 C 496.927 -2.98481 1.64687 0
M  V30 5220 H 498.12 -1.4604 2.61939 0
M  V30 5221 H 495.673 -0.728144 1.38303 0
M  V30 5222 H 496.408 -3.16751 0.695644 0
M  V30 5223 H 496.193 -3.0484 2.46607 0
M  V30 5224 H 497.683 -3.77256 1.79075 0
M  V30 5225 N 498.12 -1.38341 -0.754957 0
M  V30 5226 C 499.366 -1.34672 -1.51628 0
M  V30 5227 C 499.699 0.0636036 -1.94096 0
M  V30 5228 O 498.974 1.0245 -1.6533 0
M  V30 5229 C 499.257 -2.30116 -2.76981 0
M  V30 5230 C 499.11 -3.80003 -2.4066 0
M  V30 5231 C 500.429 -2.23715 -3.78998 0
M  V30 5232 H 497.548 -0.490517 -0.550056 0
M  V30 5233 H 500.19 -1.69178 -0.864807 0
M  V30 5234 H 498.34 -2.00821 -3.3257 0
M  V30 5235 H 500.012 -4.19966 -1.90856 0
M  V30 5236 H 498.255 -3.97751 -1.73137 0
M  V30 5237 H 498.926 -4.42244 -3.30339 0
M  V30 5238 H 501.402 -2.49574 -3.32945 0
M  V30 5239 H 500.278 -2.9261 -4.64403 0
M  V30 5240 H 500.539 -1.23554 -4.24484 0
M  V30 5241 N 499.598 0.982988 -1.23187 0
M  V30 5242 C 500.528 2.09301 -1.03515 0
M  V30 5243 C 501.509 1.70035 0.0471136 0
M  V30 5244 O 502.694 1.93847 -0.117029 0
M  V30 5245 C 499.824 3.4167 -0.622791 0
M  V30 5246 C 498.778 3.94828 -1.65211 0
M  V30 5247 C 498.104 5.23362 -1.09527 0
M  V30 5248 C 499.404 4.2439 -3.04451 0
M  V30 5249 H 501.098 2.26016 -1.96359 0
M  V30 5250 H 498.644 1.08611 -0.945501 0
M  V30 5251 H 500.597 4.18746 -0.472233 0
M  V30 5252 H 499.321 3.24811 0.341329 0
M  V30 5253 H 497.98 3.19895 -1.79061 0
M  V30 5254 H 497.628 5.02852 -0.122211 0
M  V30 5255 H 497.328 5.59895 -1.783 0
M  V30 5256 H 498.852 6.03062 -0.956511 0
M  V30 5257 H 500.266 4.92225 -2.93917 0
M  V30 5258 H 498.663 4.72118 -3.70438 0
M  V30 5259 H 499.733 3.31765 -3.53638 0
M  V30 5260 N 501.076 1.04316 1.18135 0
M  V30 5261 C 502.322 0.758899 1.88712 0
M  V30 5262 C 502.677 -0.705863 1.78984 0
M  V30 5263 O 501.97 -1.50874 1.18101 0
M  V30 5264 C 502.164 1.16271 3.37958 0
M  V30 5265 C 501.993 2.66518 3.62213 0
M  V30 5266 C 500.763 3.33702 3.79436 0
M  V30 5267 C 502.961 3.64739 3.62588 0
M  V30 5268 N 500.943 4.72904 3.91452 0
M  V30 5269 C 502.314 4.89627 3.80348 0
M  V30 5270 C 504.369 3.58333 3.4569 0
M  V30 5271 C 503.072 6.08879 3.8296 0
M  V30 5272 C 505.098 4.77016 3.49586 0
M  V30 5273 C 504.46 6.00724 3.67845 0
M  V30 5274 H 500.559 0.329795 0.709055 0
M  V30 5275 H 503.143 1.33334 1.4188 0
M  V30 5276 H 501.314 0.616319 3.83479 0
M  V30 5277 H 503.046 0.829205 3.96114 0
M  V30 5278 H 499.801 2.84105 3.78921 0
M  V30 5279 H 500.225 5.45258 4.01277 0
M  V30 5280 H 504.867 2.63663 3.30517 0
M  V30 5281 H 502.585 7.03903 3.96921 0
M  V30 5282 H 506.171 4.73703 3.37782 0
M  V30 5283 H 505.051 6.91022 3.70753 0
M  V30 5284 N 502.554 -1.34406 0.822964 0
M  V30 5285 C 503.517 -2.2783 0.250271 0
M  V30 5286 C 504.517 -1.50288 -0.571854 0
M  V30 5287 O 505.707 -1.69825 -0.387952 0
M  V30 5288 C 502.839 -3.34663 -0.649137 0
M  V30 5289 H 504.032 -2.79992 1.07444 0
M  V30 5290 H 501.585 -1.44539 0.594829 0
M  V30 5291 H 502.32 -2.87714 -1.49637 0
M  V30 5292 H 502.105 -3.92052 -0.0611199 0
M  V30 5293 H 503.595 -4.04349 -1.04363 0
M  V30 5294 N 504.032 -0.577932 -1.46621 0
M  V30 5295 C 504.962 0.145917 -2.33044 0
M  V30 5296 C 505.943 0.888412 -1.45056 0
M  V30 5297 O 507.128 0.864812 -1.73881 0
M  V30 5298 C 504.258 1.16322 -3.27241 0
M  V30 5299 C 503.212 0.535868 -4.24632 0
M  V30 5300 C 502.538 1.65929 -5.08303 0
M  V30 5301 C 503.838 -0.523861 -5.19666 0
M  V30 5302 H 505.532 -0.575636 -2.93814 0
M  V30 5303 H 503.078 -0.278272 -1.41286 0
M  V30 5304 H 505.031 1.67793 -3.86553 0
M  V30 5305 H 503.755 1.91498 -2.64567 0
M  V30 5306 H 502.414 0.0422759 -3.66576 0
M  V30 5307 H 502.062 2.40061 -4.42018 0
M  V30 5308 H 501.762 1.2452 -5.74255 0
M  V30 5309 H 503.286 2.17686 -5.70478 0
M  V30 5310 H 504.7 -0.0944059 -5.73222 0
M  V30 5311 H 503.097 -0.858 -5.93935 0
M  V30 5312 H 504.167 -1.41197 -4.63887 0
M  V30 5313 N 505.51 1.54411 -0.315457 0
M  V30 5314 C 506.758 2.00023 0.288971 0
M  V30 5315 C 507.079 1.20529 1.5329 0
M  V30 5316 O 506.349 0.304986 1.93511 0
M  V30 5317 H 504.929 0.738891 0.109766 0
M  V30 5318 H 507.591 1.90094 -0.430129 0
M  V30 5319 H 506.687 3.07198 0.550999 0
M  V30 5320 N 506.988 0.0434614 1.5754 0
M  V30 5321 C 508.235 -0.632035 1.92384 0
M  V30 5322 C 508.563 -1.71304 0.921157 0
M  V30 5323 O 507.818 -1.95583 -0.067744 0
M  V30 5324 C 508.117 -1.2738 3.3393 0
M  V30 5325 C 507.783 -0.321757 4.49751 0
M  V30 5326 C 506.445 -0.0597611 4.81163 0
M  V30 5327 C 508.797 0.331158 5.20147 0
M  V30 5328 C 506.125 0.862715 5.80322 0
M  V30 5329 C 508.477 1.24178 6.20292 0
M  V30 5330 C 507.141 1.51252 6.50138 0
M  V30 5331 H 506.411 -0.231278 0.703983 0
M  V30 5332 H 509.058 0.108294 1.91194 0
M  V30 5333 H 507.363 -2.08921 3.3145 0
M  V30 5334 H 509.06 -1.80326 3.58167 0
M  V30 5335 H 505.65 -0.53614 4.25233 0
M  V30 5336 H 509.834 0.141826 4.96097 0
M  V30 5337 H 505.09 1.08003 6.01785 0
M  V30 5338 H 509.264 1.75381 6.73954 0
M  V30 5339 H 506.891 2.22897 7.26788 0
M  V30 5340 N 508.466 -1.55915 -0.229846 0
M  V30 5341 C 509.715 -1.77742 -0.953455 0
M  V30 5342 C 510.028 -0.610524 -1.85828 0
M  V30 5343 O 511.234 -0.712219 -2.61992 0
M  V30 5344 C 509.69 -3.14738 -1.74551 0
M  V30 5345 C 509.298 -4.39126 -0.887242 0
M  V30 5346 C 511.042 -3.45895 -2.46084 0
M  V30 5347 C 508.949 -5.67149 -1.67617 0
M  V30 5348 H 507.879 -0.662648 -0.359741 0
M  V30 5349 H 510.53 -1.82322 -0.207576 0
M  V30 5350 H 508.912 -3.04311 -2.53399 0
M  V30 5351 H 510.086 -4.60588 -0.139892 0
M  V30 5352 H 508.401 -4.15427 -0.284443 0
M  V30 5353 H 510.998 -4.38767 -3.05594 0
M  V30 5354 H 511.341 -2.68007 -3.18556 0
M  V30 5355 H 511.874 -3.57614 -1.74233 0
M  V30 5356 H 508.613 -6.47906 -0.994881 0
M  V30 5357 H 508.133 -5.49763 -2.39836 0
M  V30 5358 H 509.812 -6.07025 -2.23898 0
M  V30 5359 N 509.944 0.496216 -1.49584 0
M  V30 5360 C 511.191 1.25003 -1.59312 0
M  V30 5361 C 511.519 1.92445 -0.28198 0
M  V30 5362 O 510.774 1.81557 0.730452 0
M  V30 5363 C 511.073 2.3359 -2.705 0
M  V30 5364 C 510.739 1.83574 -4.11839 0
M  V30 5365 C 509.401 1.69653 -4.50302 0
M  V30 5366 C 511.753 1.46193 -5.00277 0
M  V30 5367 C 509.081 1.16736 -5.74969 0
M  V30 5368 C 511.433 0.947265 -6.25468 0
M  V30 5369 C 510.097 0.794485 -6.62755 0
M  V30 5370 H 509.367 0.45742 -0.582965 0
M  V30 5371 H 512.014 0.549996 -1.83432 0
M  V30 5372 H 510.319 3.09401 -2.40371 0
M  V30 5373 H 512.016 2.91627 -2.75235 0
M  V30 5374 H 508.606 1.9537 -3.81482 0
M  V30 5375 H 512.79 1.55793 -4.71214 0
M  V30 5376 H 508.046 1.03623 -6.02555 0
M  V30 5377 H 512.22 0.648846 -6.93371 0
M  V30 5378 H 509.847 0.382271 -7.59238 0
M  V30 5379 N 511.423 1.38739 0.74761 0
M  V30 5380 C 512.353 1.39173 1.87492 0
M  V30 5381 C 513.334 0.256794 1.6815 0
M  V30 5382 O 514.519 0.460762 1.88655 0
M  V30 5383 C 511.649 1.22197 3.25093 0
M  V30 5384 C 510.603 2.32957 3.59047 0
M  V30 5385 C 509.929 2.01082 4.95449 0
M  V30 5386 C 511.229 3.75237 3.6331 0
M  V30 5387 H 512.923 2.3351 1.87386 0
M  V30 5388 H 510.469 1.12399 0.900134 0
M  V30 5389 H 512.422 1.21124 4.03617 0
M  V30 5390 H 511.146 0.243241 3.25693 0
M  V30 5391 H 509.805 2.33226 2.82845 0
M  V30 5392 H 509.453 1.01678 4.92616 0
M  V30 5393 H 509.153 2.75267 5.19136 0
M  V30 5394 H 510.677 2.01638 5.76346 0
M  V30 5395 H 512.091 3.76966 4.31937 0
M  V30 5396 H 510.488 4.48677 3.98509 0
M  V30 5397 H 511.558 4.07122 2.634 0
M  V30 5398 N 512.901 -0.976442 1.23707 0
M  V30 5399 C 514.148 -1.71827 1.07153 0
M  V30 5400 C 514.476 -1.9053 -0.390982 0
M  V30 5401 O 513.731 -1.45779 -1.30564 0
M  V30 5402 C 514.03 -3.11814 1.74662 0
M  V30 5403 C 513.696 -3.12978 3.24585 0
M  V30 5404 C 512.358 -3.13003 3.6549 0
M  V30 5405 C 514.71 -3.07986 4.20469 0
M  V30 5406 C 512.038 -3.05757 5.00729 0
M  V30 5407 C 514.39 -3.02282 5.55705 0
M  V30 5408 C 513.054 -3.00631 5.95968 0
M  V30 5409 H 512.324 -0.628758 0.392102 0
M  V30 5410 H 514.971 -1.14239 1.53693 0
M  V30 5411 H 513.276 -3.72812 1.20492 0
M  V30 5412 H 514.973 -3.67989 1.59328 0
M  V30 5413 H 511.563 -3.13718 2.92026 0
M  V30 5414 H 515.747 -3.07103 3.89874 0
M  V30 5415 H 511.003 -3.02834 5.31132 0
M  V30 5416 H 515.177 -2.97376 6.29714 0
M  V30 5417 H 512.804 -2.94771 7.00724 0
M  V30 5418 N 514.379 -1.04941 -1.1758 0
M  V30 5419 C 515.607 -0.778294 -1.91703 0
M  V30 5420 C 516.022 0.665697 -1.76675 0
M  V30 5421 O 515.379 1.45456 -1.10222 0
M  V30 5422 C 515.43 -1.14628 -3.42845 0
M  V30 5423 O 515.151 -2.53359 -3.57409 0
M  V30 5424 C 516.652 -0.900931 -4.34049 0
M  V30 5425 H 513.872 -0.283167 -0.608323 0
M  V30 5426 H 516.416 -1.39942 -1.49119 0
M  V30 5427 H 514.571 -0.569953 -3.83184 0
M  V30 5428 H 514.985 -2.67709 -4.51035 0
M  V30 5429 H 516.459 -1.20817 -5.38616 0
M  V30 5430 H 516.936 0.163966 -4.38894 0
M  V30 5431 H 517.542 -1.46097 -3.99419 0
M  V30 5432 N 515.857 1.33968 -0.830081 0
M  V30 5433 C 517.103 1.98357 -0.422191 0
M  V30 5434 C 517.436 1.65633 1.01387 0
M  V30 5435 O 516.711 0.931648 1.70735 0
M  V30 5436 C 516.994 3.54492 -0.633043 0
M  V30 5437 C 516.847 3.96934 -2.11574 0
M  V30 5438 C 518.166 4.40039 -0.0735584 0
M  V30 5439 H 515.285 0.720544 -0.154871 0
M  V30 5440 H 517.927 1.58749 -1.04397 0
M  V30 5441 H 516.077 3.88361 -0.103775 0
M  V30 5442 H 517.749 3.73363 -2.7092 0
M  V30 5443 H 515.992 3.46984 -2.60354 0
M  V30 5444 H 516.663 5.05651 -2.21406 0
M  V30 5445 H 519.139 4.12764 -0.52585 0
M  V30 5446 H 518.015 5.48327 -0.250841 0
M  V30 5447 H 518.276 4.30124 1.02202 0
M  V30 5448 N 517.335 0.585699 1.46312 0
M  V30 5449 C 518.583 0.072278 2.01971 0
M  V30 5450 C 518.904 -1.29345 1.45928 0
M  V30 5451 O 518.174 -1.84973 0.645109 0
M  V30 5452 H 516.754 0.023729 0.746623 0
M  V30 5453 H 519.416 0.762155 1.7938 0
M  V30 5454 H 518.512 0.00552767 3.121 0
M  V30 5455 N 518.813 -1.54241 0.323641 0
M  V30 5456 C 520.061 -2.00174 -0.278359 0
M  V30 5457 C 520.382 -1.2134 -1.52648 0
M  V30 5458 O 519.652 -0.315244 -1.93347 0
M  V30 5459 H 518.232 -0.739463 -0.105845 0
M  V30 5460 H 520.894 -1.89864 0.440204 0
M  V30 5461 H 519.99 -3.07486 -0.5347 0
M  V30 5462 N 520.291 -0.0518155 -1.57515 0
M  V30 5463 C 521.221 0.920283 -2.146 0
M  V30 5464 C 522.202 1.32406 -1.06783 0
M  V30 5465 O 523.387 1.39866 -1.34726 0
M  V30 5466 C 520.517 2.1949 -2.6915 0
M  V30 5467 C 519.471 1.93116 -3.81956 0
M  V30 5468 C 518.797 3.27037 -4.23026 0
M  V30 5469 C 520.097 1.25225 -5.07066 0
M  V30 5470 H 521.791 0.444801 -2.96077 0
M  V30 5471 H 519.337 0.212508 -1.42423 0
M  V30 5472 H 521.29 2.87894 -3.07725 0
M  V30 5473 H 520.014 2.69244 -1.84865 0
M  V30 5474 H 518.673 1.27123 -3.43854 0
M  V30 5475 H 518.321 3.74595 -3.3569 0
M  V30 5476 H 518.021 3.10189 -4.99056 0
M  V30 5477 H 519.545 3.96673 -4.64202 0
M  V30 5478 H 520.959 1.83666 -5.43083 0
M  V30 5479 H 519.356 1.18702 -5.88243 0
M  V30 5480 H 520.426 0.228382 -4.84362 0
M  V30 5481 N 521.769 1.56035 0.221574 0
M  V30 5482 C 522.997 1.8313 0.962864 0
M  V30 5483 C 523.412 0.630934 1.77946 0
M  V30 5484 O 522.769 -0.400519 1.78051 0
M  V30 5485 C 522.82 3.08742 1.88045 0
M  V30 5486 O 522.541 4.24147 1.09686 0
M  V30 5487 C 524.042 3.48824 2.73563 0
M  V30 5488 H 521.262 0.608775 0.282194 0
M  V30 5489 H 523.806 2.03124 0.23681 0
M  V30 5490 H 521.961 2.90723 2.56045 0
M  V30 5491 H 522.375 4.95505 1.71974 0
M  V30 5492 H 523.849 4.39752 3.3365 0
M  V30 5493 H 524.326 2.70575 3.45956 0
M  V30 5494 H 524.932 3.69282 2.10976 0
M  V30 5495 N 523.247 -0.488276 1.49845 0
M  V30 5496 C 524.495 -1.23911 1.59657 0
M  V30 5497 C 524.816 -1.92816 0.291005 0
M  V30 5498 O 524.086 -1.83328 -0.690485 0
M  V30 5499 H 522.666 -0.460357 0.588286 0
M  V30 5500 H 525.328 -0.564794 1.86537 0
M  V30 5501 H 524.424 -1.99625 2.39909 0
M  V30 5502 N 524.725 -1.39134 -0.740242 0
M  V30 5503 C 525.974 -1.35384 -1.49512 0
M  V30 5504 C 526.287 0.04919 -1.95538 0
M  V30 5505 O 527.493 0.209257 -2.70692 0
M  V30 5506 C 525.949 -2.37812 -2.70136 0
M  V30 5507 C 525.557 -3.83804 -2.31081 0
M  V30 5508 C 527.301 -2.4313 -3.47977 0
M  V30 5509 C 525.208 -4.77886 -3.48395 0
M  V30 5510 H 524.138 -0.503297 -0.561434 0
M  V30 5511 H 526.789 -1.64754 -0.807974 0
M  V30 5512 H 525.171 -2.01505 -3.40899 0
M  V30 5513 H 526.345 -4.29123 -1.67898 0
M  V30 5514 H 524.66 -3.81732 -1.66343 0
M  V30 5515 H 527.257 -3.10614 -4.35228 0
M  V30 5516 H 527.6 -1.45423 -3.90074 0
M  V30 5517 H 528.133 -2.78304 -2.84239 0
M  V30 5518 H 524.872 -5.76836 -3.11353 0
M  V30 5519 H 524.392 -4.3725 -4.10576 0
M  V30 5520 H 526.071 -4.96538 -4.148 0
M  V30 5521 N 526.204 0.969867 -1.24223 0
M  V30 5522 C 527.45 1.7151 -1.08223 0
M  V30 5523 C 527.783 1.90478 0.37838 0
M  V30 5524 O 527.058 1.4647 1.27971 0
M  V30 5525 C 527.341 3.10714 -1.82013 0
M  V30 5526 C 527.194 2.9925 -3.35811 0
M  V30 5527 C 528.513 4.10332 -1.59108 0
M  V30 5528 H 525.632 0.622499 -0.394543 0
M  V30 5529 H 528.274 1.1284 -1.52863 0
M  V30 5530 H 526.424 3.608 -1.44068 0
M  V30 5531 H 528.096 2.56608 -3.83341 0
M  V30 5532 H 526.339 2.35512 -3.64303 0
M  V30 5533 H 527.01 3.97857 -3.82641 0
M  V30 5534 H 529.486 3.69097 -1.92111 0
M  V30 5535 H 528.362 5.05804 -2.13198 0
M  V30 5536 H 528.623 4.38926 -0.528832 0
M  V30 5537 N 527.682 1.05563 1.17022 0
M  V30 5538 C 528.612 0.681026 2.23348 0
M  V30 5539 C 529.593 -0.322983 1.67005 0
M  V30 5540 O 530.778 -0.199746 1.9317 0
M  V30 5541 C 527.908 0.0589053 3.4725 0
M  V30 5542 C 526.862 0.988082 4.16438 0
M  V30 5543 C 526.188 0.229646 5.34207 0
M  V30 5544 C 527.488 2.31388 4.68249 0
M  V30 5545 H 529.182 1.56993 2.54938 0
M  V30 5546 H 526.728 0.756302 1.2254 0
M  V30 5547 H 528.681 -0.214982 4.20851 0
M  V30 5548 H 527.405 -0.864968 3.14938 0
M  V30 5549 H 526.064 1.24659 3.44754 0
M  V30 5550 H 525.712 -0.697111 4.98146 0
M  V30 5551 H 525.412 0.848815 5.81437 0
M  V30 5552 H 526.936 -0.0368694 6.10589 0
M  V30 5553 H 528.35 2.09964 5.33468 0
M  V30 5554 H 526.747 2.88736 5.26072 0
M  V30 5555 H 527.817 2.94982 3.84855 0
M  V30 5556 N 529.16 -1.33526 0.837174 0
M  V30 5557 C 530.123 -2.27551 0.274421 0
M  V30 5558 C 531.123 -1.50886 -0.555881 0
M  V30 5559 O 532.313 -1.70227 -0.369918 0
M  V30 5560 C 529.445 -3.35332 -0.613605 0
M  V30 5561 H 530.638 -2.78837 1.10408 0
M  V30 5562 H 528.191 -1.439 0.610126 0
M  V30 5563 H 528.926 -2.89285 -1.46577 0
M  V30 5564 H 528.711 -3.92095 -0.0195341 0
M  V30 5565 H 530.201 -4.05433 -1.00068 0
M  V30 5566 N 530.638 -0.59345 -1.46 0
M  V30 5567 C 531.586 0.146268 -2.3214 0
M  V30 5568 C 532.58 0.873743 -1.45128 0
M  V30 5569 O 533.786 0.790912 -1.61693 0
M  V30 5570 H 530.161 0.0660349 -0.749095 0
M  V30 5571 H 532.132 -0.598895 -2.92328 0
M  V30 5572 C 530.881 1.1396 -3.28494 0
M  V30 5573 H 530.204 0.589252 -3.95434 0
M  V30 5574 H 531.644 1.62738 -3.91526 0
M  V30 5575 C 530.103 2.20604 -2.54628 0
M  V30 5576 O 530.633 3.28128 -2.31722 0
M  V30 5577 N 528.839 1.95502 -2.15005 0
M  V30 5578 H 528.386 1.0807 -2.33834 0
M  V30 5579 H 528.344 2.67064 -1.65904 0
M  V30 5580 N 532.116 1.54067 -0.331816 0
M  V30 5581 C 533.341 2.05599 0.272705 0
M  V30 5582 C 533.766 1.2059 1.44359 0
M  V30 5583 O 533.124 0.216907 1.79998 0
M  V30 5584 C 533.172 3.54188 0.677021 0
M  V30 5585 O 532.276 3.72082 1.77844 0
M  V30 5586 H 531.617 0.662286 0.0476801 0
M  V30 5587 H 534.147 1.98826 -0.482624 0
M  V30 5588 H 534.157 3.96608 0.957415 0
M  V30 5589 H 532.832 4.15513 -0.179325 0
M  V30 5590 H 531.409 3.41566 1.49622 0
M  V30 5591 N 533.594 0.0601682 1.57485 0
M  V30 5592 C 534.819 -0.624416 1.97777 0
M  V30 5593 C 535.244 -1.63051 0.937867 0
M  V30 5594 O 534.602 -1.81036 -0.0978845 0
M  V30 5595 C 534.65 -1.27979 3.37126 0
M  V30 5596 O 533.754 -2.39556 3.35688 0
M  V30 5597 H 533.095 -0.161581 0.64404 0
M  V30 5598 H 535.625 0.131237 2.04179 0
M  V30 5599 H 535.635 -1.62937 3.74053 0
M  V30 5600 H 534.31 -0.542501 4.12347 0
M  V30 5601 H 532.887 -2.06478 3.10517 0
M  V30 5602 N 535.072 -1.5615 -0.213296 0
M  V30 5603 C 536.002 -1.96109 -1.26742 0
M  V30 5604 C 536.983 -0.830448 -1.48451 0
M  V30 5605 O 538.168 -1.09339 -1.60495 0
M  V30 5606 C 535.298 -2.28492 -2.61551 0
M  V30 5607 C 534.252 -3.44124 -2.54485 0
M  V30 5608 C 533.578 -3.62134 -3.93399 0
M  V30 5609 C 534.878 -4.78855 -2.08556 0
M  V30 5610 H 536.572 -2.84412 -0.935434 0
M  V30 5611 H 534.118 -1.36836 -0.44854 0
M  V30 5612 H 536.071 -2.55039 -3.3546 0
M  V30 5613 H 534.795 -1.37052 -2.96453 0
M  V30 5614 H 533.454 -3.17639 -1.83033 0
M  V30 5615 H 533.102 -2.68055 -4.25623 0
M  V30 5616 H 532.802 -4.39913 -3.89551 0
M  V30 5617 H 534.326 -3.91038 -4.68958 0
M  V30 5618 H 535.74 -5.04552 -2.72213 0
M  V30 5619 H 534.137 -5.59975 -2.1575 0
M  V30 5620 H 535.207 -4.73657 -1.03811 0
M  V30 5621 N 536.55 0.480323 -1.50102 0
M  V30 5622 C 537.827 1.24159 -1.51142 0
M  V30 5623 C 538.207 2.09605 -0.250818 0
M  V30 5624 O 537.555 2.15274 0.766118 0
M  V30 5625 C 537.765 2.08057 -2.80202 0
M  V30 5626 C 539.113 2.66556 -3.30504 0
M  V30 5627 O 540.137 2.18308 -2.81461 0
M  V30 5628 O 538.996 3.54442 -4.15973 0
M  V30 5629 H 536.09 0.562928 -0.605839 0
M  V30 5630 H 538.636 0.492899 -1.62384 0
M  V30 5631 H 537.408 1.45032 -3.6343 0
M  V30 5632 H 537.031 2.90079 -2.71919 0
M  V30 5633 N 538.028 1.39524 0.732853 0
M  V30 5634 C 539.277 1.36175 1.48792 0
M  V30 5635 C 539.59 -0.0388195 1.95561 0
M  V30 5636 O 540.796 -0.194899 2.708 0
M  V30 5637 C 539.252 2.39242 2.68871 0
M  V30 5638 C 538.86 3.85024 2.29042 0
M  V30 5639 C 540.604 2.44972 3.46683 0
M  V30 5640 C 538.511 4.79727 3.45856 0
M  V30 5641 H 537.441 0.506267 0.558757 0
M  V30 5642 H 540.092 1.65181 0.799226 0
M  V30 5643 H 538.474 2.0331 3.39825 0
M  V30 5644 H 539.648 4.30008 1.6562 0
M  V30 5645 H 537.963 3.82609 1.64316 0
M  V30 5646 H 540.56 3.12918 4.33574 0
M  V30 5647 H 540.903 1.4749 3.89297 0
M  V30 5648 H 541.436 2.79808 2.82759 0
M  V30 5649 H 538.175 5.78479 3.08289 0
M  V30 5650 H 537.695 4.39421 4.08251 0
M  V30 5651 H 539.374 4.98731 4.12161 0
M  V30 5652 N 539.506 -0.963266 1.24736 0
M  V30 5653 C 540.752 -1.70933 1.09131 0
M  V30 5654 C 541.085 -1.90676 -0.368273 0
M  V30 5655 O 540.36 -1.47147 -1.27193 0
M  V30 5656 C 540.643 -3.09744 1.83658 0
M  V30 5657 C 540.496 -2.97465 3.37394 0
M  V30 5658 C 541.815 -4.09483 1.61282 0
M  V30 5659 H 538.934 -0.620398 0.397838 0
M  V30 5660 H 541.576 -1.12028 1.53459 0
M  V30 5661 H 539.726 -3.60031 1.4598 0
M  V30 5662 H 541.398 -2.54571 3.84696 0
M  V30 5663 H 539.641 -2.33576 3.65547 0
M  V30 5664 H 540.312 -3.95822 3.84745 0
M  V30 5665 H 542.788 -3.68073 1.94066 0
M  V30 5666 H 541.664 -5.04666 2.15878 0
M  V30 5667 H 541.925 -4.38639 0.552102 0
M  V30 5668 N 540.985 -1.06182 -1.16461 0
M  V30 5669 C 541.915 -0.692861 -2.22984 0
M  V30 5670 C 542.896 0.314122 -1.67174 0
M  V30 5671 O 544.081 0.189499 -1.93273 0
M  V30 5672 C 541.211 -0.07732 -3.47214 0
M  V30 5673 C 540.165 -1.01015 -4.15909 0
M  V30 5674 C 539.491 -0.257973 -5.34077 0
M  V30 5675 C 540.791 -2.33868 -4.67015 0
M  V30 5676 H 542.485 -1.58343 -2.54102 0
M  V30 5677 H 540.031 -0.76279 -1.22137 0
M  V30 5678 H 541.984 0.19266 -4.20959 0
M  V30 5679 H 540.708 0.848254 -3.15392 0
M  V30 5680 H 539.367 -1.26486 -3.44088 0
M  V30 5681 H 539.015 0.670684 -4.98509 0
M  V30 5682 H 538.715 -0.879638 -5.80979 0
M  V30 5683 H 540.239 0.00448788 -6.106 0
M  V30 5684 H 541.653 -2.1279 -5.32347 0
M  V30 5685 H 540.05 -2.91522 -5.24533 0
M  V30 5686 H 541.12 -2.97019 -3.83286 0
M  V30 5687 N 542.463 1.3308 -0.844243 0
M  V30 5688 C 543.413 2.26589 -0.253289 0
M  V30 5689 C 544.397 1.49501 0.594836 0
M  V30 5690 O 545.589 1.71291 0.445924 0
M  V30 5691 C 542.718 3.38599 0.566176 0
M  V30 5692 C 541.804 4.23081 -0.293756 0
M  V30 5693 N 542.195 4.86751 -1.37505 0
M  V30 5694 C 540.493 4.45925 -0.0817086 0
M  V30 5695 C 541.194 5.49684 -1.90323 0
M  V30 5696 N 540.17 5.30101 -1.20391 0
M  V30 5697 H 543.972 2.73334 -1.08009 0
M  V30 5698 H 541.486 1.47048 -0.689258 0
M  V30 5699 H 543.483 4.04584 1.00587 0
M  V30 5700 H 542.143 2.93401 1.39089 0
M  V30 5701 H 543.154 4.87151 -1.75796 0
M  V30 5702 H 539.831 4.11434 0.709129 0
M  V30 5703 H 541.221 6.10363 -2.80902 0
M  V30 5704 N 543.941 0.601185 1.45683 0
M  V30 5705 C 545.218 0.0261659 1.95582 0
M  V30 5706 C 545.598 -1.4399 1.5437 0
M  V30 5707 O 544.946 -2.13919 0.80318 0
M  V30 5708 C 545.156 0.217557 3.48321 0
M  V30 5709 C 546.504 0.0950076 4.24494 0
M  V30 5710 O 547.528 0.147345 3.55895 0
M  V30 5711 O 546.387 -0.025261 5.46494 0
M  V30 5712 H 543.481 -0.0393688 0.826062 0
M  V30 5713 H 546.027 0.670798 1.55879 0
M  V30 5714 H 544.799 1.23601 3.71266 0
M  V30 5715 H 544.422 -0.46264 3.94899 0
M  V30 5716 N 545.419 -1.53889 0.339982 0
M  V30 5717 C 546.647 -2.05271 -0.259114 0
M  V30 5718 C 547.062 -1.21517 -1.44496 0
M  V30 5719 O 546.419 -0.24966 -1.80784 0
M  V30 5720 C 546.47 -3.55092 -0.677634 0
M  V30 5721 O 546.191 -4.35667 0.461051 0
M  V30 5722 C 547.692 -4.22631 -1.33782 0
M  V30 5723 H 544.912 -0.669085 -0.0506566 0
M  V30 5724 H 547.456 -1.9852 0.490935 0
M  V30 5725 H 545.611 -3.62077 -1.37763 0
M  V30 5726 H 546.025 -5.24343 0.128144 0
M  V30 5727 H 547.499 -5.28861 -1.58145 0
M  V30 5728 H 547.976 -3.74758 -2.29027 0
M  V30 5729 H 548.582 -4.19829 -0.679957 0
M  V30 5730 N 546.897 -0.0685191 -1.57451 0
M  V30 5731 C 548.127 0.609577 -1.97402 0
M  V30 5732 C 548.535 1.63882 -0.945489 0
M  V30 5733 O 547.878 1.8354 0.0766052 0
M  V30 5734 C 547.94 1.3385 -3.33653 0
M  V30 5735 C 547.604 0.463103 -4.54648 0
M  V30 5736 C 548.601 -0.277964 -5.19156 0
M  V30 5737 C 546.286 0.388941 -5.00792 0
M  V30 5738 C 548.28 -1.08145 -6.28159 0
M  V30 5739 C 545.967 -0.418217 -6.09667 0
M  V30 5740 C 546.965 -1.15208 -6.73213 0
M  V30 5741 O 546.653 -1.94594 -7.79993 0
M  V30 5742 H 546.385 0.170197 -0.654224 0
M  V30 5743 H 548.939 -0.13647 -2.04946 0
M  V30 5744 H 547.169 2.13055 -3.22714 0
M  V30 5745 H 548.858 1.90851 -3.58233 0
M  V30 5746 H 549.624 -0.230241 -4.84453 0
M  V30 5747 H 545.503 0.949769 -4.5111 0
M  V30 5748 H 549.047 -1.65476 -6.7769 0
M  V30 5749 H 544.944 -0.467515 -6.43805 0
M  V30 5750 H 545.712 -1.8699 -7.96854 0
M  V30 5751 N 548.375 1.56261 0.205012 0
M  V30 5752 C 549.605 1.83874 0.942018 0
M  V30 5753 C 550.013 0.647595 1.77772 0
M  V30 5754 O 549.356 -0.393098 1.79445 0
M  V30 5755 C 549.418 3.05453 1.89575 0
M  V30 5756 C 549.082 4.39772 1.24296 0
M  V30 5757 C 550.079 5.16133 0.624724 0
M  V30 5758 C 547.764 4.86504 1.24978 0
M  V30 5759 C 549.758 6.37396 0.0220117 0
M  V30 5760 C 547.445 6.07705 0.643232 0
M  V30 5761 C 548.443 6.82993 0.0304164 0
M  V30 5762 O 548.131 8.019 -0.566654 0
M  V30 5763 H 547.863 0.614896 0.280854 0
M  V30 5764 H 550.417 2.04215 0.220285 0
M  V30 5765 H 548.647 2.80972 2.65691 0
M  V30 5766 H 550.336 3.19797 2.4997 0
M  V30 5767 H 551.102 4.81127 0.611666 0
M  V30 5768 H 546.981 4.27865 1.71616 0
M  V30 5769 H 550.525 6.96102 -0.456926 0
M  V30 5770 H 546.422 6.42181 0.653759 0
M  V30 5771 H 547.19 8.17192 -0.462588 0
M  V30 5772 N 549.853 -0.472356 1.50355 0
M  V30 5773 C 551.099 -1.22634 1.6152 0
M  V30 5774 C 551.432 -1.91645 0.313995 0
M  V30 5775 O 550.707 -1.82059 -0.684446 0
M  V30 5776 C 550.99 -2.27099 2.7946 0
M  V30 5777 C 550.843 -1.62402 4.19459 0
M  V30 5778 C 552.162 -3.28421 2.92964 0
M  V30 5779 H 549.281 -0.444494 0.587873 0
M  V30 5780 H 551.923 -0.520321 1.82737 0
M  V30 5781 H 550.073 -2.87314 2.61501 0
M  V30 5782 H 551.745 -1.05793 4.49005 0
M  V30 5783 H 549.988 -0.927184 4.23776 0
M  V30 5784 H 550.659 -2.38309 4.97909 0
M  V30 5785 H 553.135 -2.78227 3.09401 0
M  V30 5786 H 552.011 -3.98845 3.77113 0
M  V30 5787 H 552.272 -3.92467 2.03525 0
M  V30 5788 N 551.331 -1.39911 -0.725443 0
M  V30 5789 C 552.577 -1.37858 -1.48738 0
M  V30 5790 C 552.91 0.0224187 -1.94187 0
M  V30 5791 O 552.185 0.989204 -1.67466 0
M  V30 5792 C 552.468 -2.3594 -2.72038 0
M  V30 5793 C 552.321 -3.85023 -2.32546 0
M  V30 5794 C 553.64 -2.31704 -3.74167 0
M  V30 5795 H 550.759 -0.502074 -0.539528 0
M  V30 5796 H 553.401 -1.70974 -0.828728 0
M  V30 5797 H 551.551 -2.0783 -3.28236 0
M  V30 5798 H 553.223 -4.2392 -1.81905 0
M  V30 5799 H 551.466 -4.01334 -1.64661 0
M  V30 5800 H 552.137 -4.49152 -3.20884 0
M  V30 5801 H 554.613 -2.5658 -3.27576 0
M  V30 5802 H 553.489 -3.02395 -4.58092 0
M  V30 5803 H 553.75 -1.3253 -4.21768 0
M  V30 5804 N 552.809 0.956637 -1.25245 0
M  V30 5805 C 553.772 2.03457 -1.05537 0
M  V30 5806 C 554.772 1.60798 -0.00886317 0
M  V30 5807 O 555.962 1.72384 -0.250865 0
M  V30 5808 C 553.094 3.35543 -0.601965 0
M  V30 5809 H 554.287 2.22372 -2.01223 0
M  V30 5810 H 551.84 1.13344 -1.07623 0
M  V30 5811 H 552.575 3.22323 0.357584 0
M  V30 5812 H 552.36 3.67854 -1.35743 0
M  V30 5813 H 553.85 4.14769 -0.485454 0
M  V30 5814 N 554.287 1.06798 1.15896 0
M  V30 5815 C 555.237 0.653213 2.18443 0
M  V30 5816 C 556.221 -0.318763 1.57711 0
M  V30 5817 O 557.413 -0.133388 1.76497 0
M  V30 5818 C 554.542 0.0465785 3.43268 0
M  V30 5819 C 553.628 1.04336 4.11066 0
M  V30 5820 N 554.019 2.22084 4.54436 0
M  V30 5821 C 552.317 0.875433 4.37324 0
M  V30 5822 C 553.018 2.85276 5.06944 0
M  V30 5823 N 551.994 2.12973 5.00143 0
M  V30 5824 H 555.796 1.55011 2.49698 0
M  V30 5825 H 553.31 0.940384 1.32403 0
M  V30 5826 H 555.307 -0.26843 4.16035 0
M  V30 5827 H 553.967 -0.845504 3.13499 0
M  V30 5828 H 554.978 2.59833 4.48004 0
M  V30 5829 H 551.655 0.0357721 4.17485 0
M  V30 5830 H 553.045 3.85223 5.50503 0
M  V30 5831 N 555.766 -1.3263 0.851289 0
M  V30 5832 C 557.013 -1.97368 0.453023 0
M  V30 5833 C 557.341 -1.67384 -0.990596 0
M  V30 5834 O 556.596 -0.952665 -1.70947 0
M  V30 5835 C 556.895 -3.51713 0.635015 0
M  V30 5836 C 556.561 -4.01676 2.04859 0
M  V30 5837 C 555.223 -4.15031 2.43522 0
M  V30 5838 C 557.575 -4.28206 2.97135 0
M  V30 5839 C 554.903 -4.52257 3.73739 0
M  V30 5840 C 557.255 -4.66889 4.26846 0
M  V30 5841 C 555.919 -4.7845 4.65448 0
M  V30 5842 H 555.189 -0.722219 0.165773 0
M  V30 5843 H 557.836 -1.58092 1.0807 0
M  V30 5844 H 556.141 -3.91726 -0.0759081 0
M  V30 5845 H 557.838 -3.99823 0.306964 0
M  V30 5846 H 554.428 -3.91764 1.73836 0
M  V30 5847 H 558.612 -4.174 2.68498 0
M  V30 5848 H 553.868 -4.59402 4.03435 0
M  V30 5849 H 558.042 -4.86372 4.98413 0
M  V30 5850 H 555.669 -5.07052 5.66395 0
M  V30 5851 N 557.244 -0.608902 -1.45362 0
M  V30 5852 C 558.194 0.130616 -2.27626 0
M  V30 5853 C 559.178 0.837323 -1.37396 0
M  V30 5854 O 560.37 0.727096 -1.61376 0
M  V30 5855 C 557.499 1.12646 -3.24293 0
M  V30 5856 C 556.585 0.42052 -4.2201 0
M  V30 5857 N 556.976 -0.538569 -5.02925 0
M  V30 5858 C 555.274 0.667901 -4.40971 0
M  V30 5859 C 555.975 -0.953625 -5.7383 0
M  V30 5860 N 554.951 -0.297097 -5.42788 0
M  V30 5861 H 558.753 -0.605996 -2.87585 0
M  V30 5862 H 556.267 -0.432672 -1.5653 0
M  V30 5863 H 558.264 1.67066 -3.81961 0
M  V30 5864 H 556.924 1.86361 -2.65894 0
M  V30 5865 H 557.935 -0.915375 -5.09746 0
M  V30 5866 H 554.612 1.38963 -3.93695 0
M  V30 5867 H 556.002 -1.74473 -6.48852 0
M  V30 5868 N 558.722 1.53707 -0.348139 0
M  V30 5869 C 559.952 2.05108 0.247864 0
M  V30 5870 C 560.36 1.22252 1.44399 0
M  V30 5871 O 559.703 0.251853 1.81965 0
M  V30 5872 C 559.765 3.52171 0.722187 0
M  V30 5873 C 559.429 4.5562 -0.354902 0
M  V30 5874 C 560.426 5.05883 -1.19911 0
M  V30 5875 C 558.111 4.99703 -0.510145 0
M  V30 5876 C 560.105 5.98814 -2.18406 0
M  V30 5877 C 557.792 5.92443 -1.49848 0
M  V30 5878 C 558.79 6.41887 -2.33389 0
M  V30 5879 O 558.478 7.32802 -3.3054 0
M  V30 5880 H 558.21 0.674086 0.0508296 0
M  V30 5881 H 560.764 1.99229 -0.49968 0
M  V30 5882 H 558.994 3.55529 1.52105 0
M  V30 5883 H 560.683 3.8652 1.23925 0
M  V30 5884 H 561.449 4.72586 -1.09028 0
M  V30 5885 H 557.328 4.60816 0.130274 0
M  V30 5886 H 560.872 6.3733 -2.83649 0
M  V30 5887 H 556.769 6.25155 -1.60786 0
M  V30 5888 H 557.537 7.50749 -3.26064 0
M  V30 5889 N 560.2 0.0768682 1.57412 0
M  V30 5890 C 561.446 -0.591961 1.93968 0
M  V30 5891 C 561.779 -1.68954 0.9575 0
M  V30 5892 O 561.054 -1.94496 -0.0124675 0
M  V30 5893 C 561.337 -1.16418 3.40762 0
M  V30 5894 C 561.19 -0.0728933 4.49741 0
M  V30 5895 C 562.509 -2.06814 3.88479 0
M  V30 5896 H 559.628 -0.213716 0.705333 0
M  V30 5897 H 562.27 0.14387 1.89455 0
M  V30 5898 H 560.42 -1.79128 3.4474 0
M  V30 5899 H 562.092 0.560446 4.57883 0
M  V30 5900 H 560.335 0.595859 4.29688 0
M  V30 5901 H 561.006 -0.513755 5.49604 0
M  V30 5902 H 563.482 -1.54033 3.8654 0
M  V30 5903 H 562.358 -2.43785 4.91793 0
M  V30 5904 H 562.619 -2.97844 3.26713 0
M  V30 5905 N 561.678 -1.56367 -0.196722 0
M  V30 5906 C 562.608 -1.97442 -1.24655 0
M  V30 5907 C 563.589 -0.846147 -1.47561 0
M  V30 5908 O 564.774 -1.11035 -1.59326 0
M  V30 5909 C 561.904 -2.31253 -2.59112 0
M  V30 5910 C 560.858 -3.46804 -2.50821 0
M  V30 5911 C 560.184 -3.66286 -3.89536 0
M  V30 5912 C 561.484 -4.8104 -2.03465 0
M  V30 5913 H 563.178 -2.85388 -0.905216 0
M  V30 5914 H 560.724 -1.37304 -0.434002 0
M  V30 5915 H 562.677 -2.58583 -3.32736 0
M  V30 5916 H 561.401 -1.40188 -2.94983 0
M  V30 5917 H 560.06 -3.19563 -1.79653 0
M  V30 5918 H 559.708 -2.72555 -4.22756 0
M  V30 5919 H 559.408 -4.4402 -3.84864 0
M  V30 5920 H 560.932 -3.9599 -4.64784 0
M  V30 5921 H 562.346 -5.07411 -2.66846 0
M  V30 5922 H 560.743 -5.62232 -2.09798 0
M  V30 5923 H 561.813 -4.74732 -0.98781 0
M  V30 5924 N 563.156 0.464375 -1.50603 0
M  V30 5925 C 564.381 1.24372 -1.65971 0
M  V30 5926 C 564.806 1.84901 -0.345453 0
M  V30 5927 O 564.164 1.67596 0.691457 0
M  V30 5928 C 564.212 2.32331 -2.7578 0
M  V30 5929 O 563.316 3.37146 -2.375 0
M  V30 5930 H 562.657 0.365604 -0.554283 0
M  V30 5931 H 565.187 0.55183 -1.97018 0
M  V30 5932 H 565.197 2.77539 -2.99059 0
M  V30 5933 H 563.872 1.87648 -3.71162 0
M  V30 5934 H 562.449 2.97602 -2.24694 0
M  V30 5935 N 564.634 1.40294 0.718013 0
M  V30 5936 C 565.567 1.34767 1.84155 0
M  V30 5937 C 566.545 0.218455 1.61126 0
M  V30 5938 O 567.729 0.401716 1.8417 0
M  V30 5939 C 564.856 1.09676 3.20451 0
M  V30 5940 C 563.902 2.25016 3.62312 0
M  V30 5941 S 564.735 3.87397 3.69707 0
M  V30 5942 C 565.891 3.64565 5.08766 0
M  V30 5943 H 566.124 2.29851 1.88562 0
M  V30 5944 H 563.657 1.2655 0.884555 0
M  V30 5945 H 565.615 0.95885 3.99144 0
M  V30 5946 H 564.276 0.162502 3.13679 0
M  V30 5947 H 563.469 2.03097 4.61268 0
M  V30 5948 H 563.071 2.35098 2.90869 0
M  V30 5949 H 565.363 3.22882 5.95612 0
M  V30 5950 H 566.306 4.63043 5.35721 0
M  V30 5951 H 566.714 2.98303 4.79245 0
M  V30 5952 N 566.112 -0.949982 1.2575 0
M  V30 5953 C 567.36 -1.6918 1.10555 0
M  V30 5954 C 567.681 -1.91773 -0.353298 0
M  V30 5955 O 566.951 -1.50814 -1.25027 0
M  V30 5956 H 565.531 -0.626952 0.406129 0
M  V30 5957 H 568.193 -1.1419 1.57945 0
M  V30 5958 H 567.289 -2.66915 1.61749 0
M  V30 5959 N 567.59 -1.07411 -1.15328 0
M  V30 5960 C 568.553 -0.698914 -2.18284 0
M  V30 5961 C 569.553 0.261149 -1.58665 0
M  V30 5962 O 570.743 0.0420277 -1.74149 0
M  V30 5963 C 567.875 -0.0302427 -3.40887 0
M  V30 5964 H 569.068 -1.61045 -2.52991 0
M  V30 5965 H 566.621 -0.870724 -1.298 0
M  V30 5966 H 567.356 0.893505 -3.11748 0
M  V30 5967 H 567.141 -0.720759 -3.85419 0
M  V30 5968 H 568.631 0.21759 -4.17033 0
M  V30 5969 N 569.068 1.32177 -0.85831 0
M  V30 5970 C 570.314 1.97417 -0.46417 0
M  V30 5971 C 570.647 1.67746 0.978514 0
M  V30 5972 O 569.922 0.967654 1.68721 0
M  V30 5973 C 570.205 3.53069 -0.708094 0
M  V30 5974 C 570.058 3.92357 -2.19946 0
M  V30 5975 C 571.377 4.39783 -0.166881 0
M  V30 5976 H 568.496 0.717097 -0.17012 0
M  V30 5977 H 571.138 1.56499 -1.07741 0
M  V30 5978 H 569.288 3.88054 -0.186128 0
M  V30 5979 H 570.96 3.67533 -2.78779 0
M  V30 5980 H 569.203 3.41384 -2.67656 0
M  V30 5981 H 569.874 5.00841 -2.32082 0
M  V30 5982 H 572.35 4.11556 -0.613285 0
M  V30 5983 H 571.226 5.47671 -0.367093 0
M  V30 5984 H 571.487 4.32196 0.930559 0
M  V30 5985 N 570.547 0.616602 1.45037 0
M  V30 5986 C 571.794 0.115331 2.02171 0
M  V30 5987 C 572.122 -1.25748 1.48383 0
M  V30 5988 O 571.377 -1.84511 0.652229 0
M  V30 5989 C 571.676 0.0356829 3.57382 0
M  V30 5990 C 571.342 1.34535 4.30362 0
M  V30 5991 C 570.004 1.70408 4.50016 0
M  V30 5992 C 572.356 2.21049 4.72003 0
M  V30 5993 C 569.684 2.92529 5.0857 0
M  V30 5994 C 572.036 3.42427 5.31908 0
M  V30 5995 C 570.7 3.78541 5.49784 0
M  V30 5996 H 569.97 0.0422024 0.739797 0
M  V30 5997 H 572.617 0.80002 1.73988 0
M  V30 5998 H 570.922 -0.732314 3.84895 0
M  V30 5999 H 572.619 -0.368463 3.99304 0
M  V30 6000 H 569.209 1.05615 4.15383 0
M  V30 6001 H 573.393 1.94632 4.56544 0
M  V30 6002 H 568.649 3.20605 5.20598 0
M  V30 6003 H 572.823 4.09709 5.63127 0
M  V30 6004 H 570.45 4.73255 5.94923 0
M  V30 6005 N 572.025 -1.5352 0.356285 0
M  V30 6006 C 572.988 -2.24071 -0.482182 0
M  V30 6007 C 573.988 -1.24531 -1.01729 0
M  V30 6008 O 575.178 -1.48876 -0.904513 0
M  V30 6009 C 572.31 -2.97025 -1.67299 0
M  V30 6010 H 573.503 -2.99596 0.135031 0
M  V30 6011 H 571.056 -1.55928 0.107825 0
M  V30 6012 H 571.791 -2.25719 -2.32855 0
M  V30 6013 H 571.576 -3.7005 -1.29636 0
M  V30 6014 H 573.066 -3.50683 -2.26741 0
M  V30 6015 N 573.503 -0.0852151 -1.57369 0
M  V30 6016 C 574.752 0.580443 -1.93168 0
M  V30 6017 C 575.065 1.6995 -0.968319 0
M  V30 6018 O 576.271 2.42564 -1.21963 0
M  V30 6019 C 574.727 1.08386 -3.43192 0
M  V30 6020 C 574.335 -0.00491388 -4.48 0
M  V30 6021 C 576.079 1.72281 -3.87968 0
M  V30 6022 C 573.986 0.513299 -5.89168 0
M  V30 6023 H 572.916 0.22059 -0.72101 0
M  V30 6024 H 575.567 -0.159621 -1.82804 0
M  V30 6025 H 573.949 1.8773 -3.48674 0
M  V30 6026 H 575.123 -0.780032 -4.5415 0
M  V30 6027 H 573.438 -0.548453 -4.12772 0
M  V30 6028 H 576.035 2.12108 -4.9083 0
M  V30 6029 H 576.378 2.58811 -3.26071 0
M  V30 6030 H 576.911 0.995359 -3.85146 0
M  V30 6031 H 573.65 -0.315153 -6.54742 0
M  V30 6032 H 573.17 1.25564 -5.8651 0
M  V30 6033 H 574.849 0.985433 -6.39451 0
M  V30 6034 N 574.981 1.5647 0.188427 0
M  V30 6035 C 575.914 1.90146 1.26173 0
M  V30 6036 C 576.892 0.762294 1.43624 0
M  V30 6037 O 578.076 1.01395 1.58907 0
M  V30 6038 C 575.203 2.13748 2.62735 0
M  V30 6039 C 574.249 3.36448 2.62116 0
M  V30 6040 S 575.082 4.91364 2.12889 0
M  V30 6041 C 576.238 5.18041 3.51261 0
M  V30 6042 H 576.471 2.80886 0.974192 0
M  V30 6043 H 574.004 1.49335 0.392226 0
M  V30 6044 H 575.962 2.28028 3.41341 0
M  V30 6045 H 574.623 1.23747 2.88696 0
M  V30 6046 H 573.816 3.50109 3.62546 0
M  V30 6047 H 573.418 3.21196 1.91596 0
M  V30 6048 H 575.71 5.0897 4.47164 0
M  V30 6049 H 576.653 6.19764 3.42489 0
M  V30 6050 H 577.061 4.45657 3.46482 0
M  V30 6051 N 576.459 -0.456382 1.50847 0
M  V30 6052 C 577.707 -1.20497 1.62249 0
M  V30 6053 C 578.028 -1.92156 0.331839 0
M  V30 6054 O 577.298 -1.84751 -0.651443 0
M  V30 6055 H 575.878 -0.447775 0.597918 0
M  V30 6056 H 578.54 -0.525099 1.87693 0
M  V30 6057 H 577.636 -1.94492 2.44089 0
M  V30 6058 N 577.937 -1.40673 -0.710563 0
M  V30 6059 C 579.185 -1.38947 -1.46759 0
M  V30 6060 C 579.506 0.00572879 -1.94999 0
M  V30 6061 O 578.776 0.961358 -1.70689 0
M  V30 6062 H 577.356 -0.5114 -0.544499 0
M  V30 6063 H 580.018 -1.75773 -0.842012 0
M  V30 6064 H 579.114 -2.06745 -2.33801 0
M  V30 6065 N 579.415 0.9433 -1.26252 0
M  V30 6066 C 580.662 1.68925 -1.11672 0
M  V30 6067 C 580.99 1.91499 0.340329 0
M  V30 6068 O 580.245 1.49189 1.26653 0
M  V30 6069 C 580.544 3.07073 -1.82868 0
M  V30 6070 C 580.21 3.04262 -3.32769 0
M  V30 6071 C 578.872 3.03203 -3.7366 0
M  V30 6072 C 581.224 2.96729 -4.28487 0
M  V30 6073 C 578.552 2.92373 -5.0866 0
M  V30 6074 C 580.904 2.87442 -5.63525 0
M  V30 6075 C 579.568 2.84724 -6.03729 0
M  V30 6076 H 578.838 0.618141 -0.408635 0
M  V30 6077 H 581.485 1.10124 -1.56668 0
M  V30 6078 H 579.79 3.69486 -1.30335 0
M  V30 6079 H 581.487 3.63635 -1.69029 0
M  V30 6080 H 578.077 3.05865 -3.00241 0
M  V30 6081 H 582.261 2.96658 -3.97879 0
M  V30 6082 H 577.517 2.88645 -5.38975 0
M  V30 6083 H 581.691 2.80576 -6.37377 0
M  V30 6084 H 579.318 2.76089 -7.08293 0
M  V30 6085 N 580.893 1.08022 1.14757 0
M  V30 6086 C 582.142 0.802468 1.8505 0
M  V30 6087 C 582.455 -0.674061 1.83619 0
M  V30 6088 O 583.661 -1.06683 2.49662 0
M  V30 6089 C 582.117 1.38551 3.32162 0
M  V30 6090 C 581.725 2.89354 3.42021 0
M  V30 6091 C 583.469 1.18608 4.07594 0
M  V30 6092 C 581.376 3.40815 4.83321 0
M  V30 6093 H 580.306 0.296518 0.693248 0
M  V30 6094 H 582.957 1.30114 1.29393 0
M  V30 6095 H 581.339 0.814556 3.87532 0
M  V30 6096 H 582.513 3.52552 2.96722 0
M  V30 6097 H 580.828 3.08165 2.80041 0
M  V30 6098 H 583.425 1.54525 5.11885 0
M  V30 6099 H 583.768 0.125599 4.1611 0
M  V30 6100 H 584.301 1.72375 3.58513 0
M  V30 6101 H 581.04 4.46418 4.79991 0
M  V30 6102 H 580.56 2.82374 5.29174 0
M  V30 6103 H 582.239 3.37171 5.522 0
M  V30 6104 N 582.371 -1.3172 0.865308 0
M  V30 6105 C 583.321 -2.26157 0.289305 0
M  V30 6106 C 584.305 -1.50428 -0.570977 0
M  V30 6107 O 585.497 -1.71978 -0.418617 0
M  V30 6108 C 582.626 -3.39457 -0.512237 0
M  V30 6109 C 581.712 -4.22561 0.361028 0
M  V30 6110 N 582.103 -4.84501 1.45231 0
M  V30 6111 C 580.401 -4.45739 0.152641 0
M  V30 6112 C 581.102 -5.46586 1.99043 0
M  V30 6113 N 580.078 -5.28119 1.28809 0
M  V30 6114 H 583.88 -2.71581 1.12344 0
M  V30 6115 H 581.394 -1.45932 0.712565 0
M  V30 6116 H 583.391 -4.06133 -0.941379 0
M  V30 6117 H 582.051 -2.95577 -1.34404 0
M  V30 6118 H 583.062 -4.84293 1.83524 0
M  V30 6119 H 579.739 -4.1251 -0.643583 0
M  V30 6120 H 581.129 -6.05817 2.90577 0
M  V30 6121 N 583.85 -0.624285 -1.44708 0
M  V30 6122 C 585.096 -0.13473 -2.02953 0
M  V30 6123 C 585.451 1.22724 -1.48178 0
M  V30 6124 O 584.744 1.80109 -0.653542 0
M  V30 6125 C 584.938 -0.0546353 -3.57358 0
M  V30 6126 C 584.767 -1.40729 -4.27113 0
M  V30 6127 C 583.537 -1.99231 -4.64365 0
M  V30 6128 C 585.735 -2.33968 -4.58 0
M  V30 6129 N 583.716 -3.27803 -5.19055 0
M  V30 6130 C 585.088 -3.47149 -5.137 0
M  V30 6131 C 587.143 -2.33132 -4.39948 0
M  V30 6132 C 585.846 -4.59682 -5.53249 0
M  V30 6133 C 587.872 -3.44724 -4.8054 0
M  V30 6134 C 587.234 -4.56629 -5.36348 0
M  V30 6135 H 583.332 -0.0930617 -0.776443 0
M  V30 6136 H 585.917 -0.826286 -1.76297 0
M  V30 6137 H 584.088 0.606183 -3.8364 0
M  V30 6138 H 585.82 0.443116 -4.02267 0
M  V30 6139 H 582.575 -1.52251 -4.4846 0
M  V30 6140 H 582.999 -3.93519 -5.50883 0
M  V30 6141 H 587.641 -1.47868 -3.961 0
M  V30 6142 H 585.359 -5.4566 -5.96054 0
M  V30 6143 H 588.945 -3.45245 -4.68291 0
M  V30 6144 H 587.825 -5.41551 -5.67179 0
M  V30 6145 N 585.328 1.53329 -0.364422 0
M  V30 6146 C 586.575 2.01239 0.225634 0
M  V30 6147 C 586.903 1.25172 1.48869 0
M  V30 6148 O 586.158 0.333289 1.92841 0
M  V30 6149 C 586.457 3.52911 0.564661 0
M  V30 6150 C 586.123 4.46837 -0.603936 0
M  V30 6151 C 584.785 4.72234 -0.924585 0
M  V30 6152 C 587.137 5.02409 -1.38691 0
M  V30 6153 C 584.465 5.50454 -2.0302 0
M  V30 6154 C 586.817 5.81836 -2.48293 0
M  V30 6155 C 585.481 6.0552 -2.80894 0
M  V30 6156 H 584.751 0.736386 0.0825654 0
M  V30 6157 H 587.398 1.84948 -0.496645 0
M  V30 6158 H 585.703 3.67144 1.36794 0
M  V30 6159 H 587.4 3.87455 1.03344 0
M  V30 6160 H 583.99 4.27217 -0.343983 0
M  V30 6161 H 588.174 4.82735 -1.15243 0
M  V30 6162 H 583.43 5.67024 -2.28678 0
M  V30 6163 H 587.604 6.23905 -3.0938 0
M  V30 6164 H 585.231 6.65916 -3.66688 0
M  V30 6165 N 586.806 0.0935595 1.57322 0
M  V30 6166 C 588.217 -0.435807 1.81542 0
M  V30 6167 C 588.568 -1.68263 1.00907 0
M  V30 6168 O 587.693 -2.15087 0.237983 0
M  V30 6169 C 588.288 -0.797436 3.29282 0
M  V30 6170 C 586.847 -1.27155 3.54272 0
M  V30 6171 C 585.994 -0.267455 2.76007 0
M  V30 6172 H 588.945 0.31902 1.5546 0
M  V30 6173 H 588.966 -1.6571 3.42521 0
M  V30 6174 H 588.478 0.110206 3.87943 0
M  V30 6175 H 586.579 -2.19696 3.00939 0
M  V30 6176 H 586.692 -1.23445 4.62923 0
M  V30 6177 H 585.056 -0.749282 2.43429 0
M  V30 6178 H 585.839 0.632839 3.37417 0
M  V30 6179 N 588.284 -1.56567 -0.180126 0
M  V30 6180 C 589.214 -1.98753 -1.22553 0
M  V30 6181 C 590.195 -0.86175 -1.46656 0
M  V30 6182 O 591.38 -1.12719 -1.58139 0
M  V30 6183 C 588.51 -2.33988 -2.56645 0
M  V30 6184 C 587.464 -3.49445 -2.47128 0
M  V30 6185 C 586.79 -3.70397 -3.8563 0
M  V30 6186 C 588.09 -4.83171 -1.98352 0
M  V30 6187 H 589.784 -2.86332 -0.874896 0
M  V30 6188 H 587.33 -1.37757 -0.419414 0
M  V30 6189 H 589.283 -2.62097 -3.29974 0
M  V30 6190 H 588.007 -1.43309 -2.93479 0
M  V30 6191 H 586.666 -3.2145 -1.76254 0
M  V30 6192 H 586.314 -2.77023 -4.19842 0
M  V30 6193 H 586.014 -4.48077 -3.80132 0
M  V30 6194 H 587.538 -4.00897 -4.60558 0
M  V30 6195 H 588.952 -5.10213 -2.61449 0
M  V30 6196 H 587.349 -5.64425 -2.03823 0
M  V30 6197 H 588.419 -4.75753 -0.937402 0
M  V30 6198 N 589.762 0.448376 -1.51087 0
M  V30 6199 C 591.009 1.19872 -1.63209 0
M  V30 6200 C 591.337 1.91451 -0.343062 0
M  V30 6201 O 590.592 1.83789 0.672321 0
M  V30 6202 C 590.891 2.24866 -2.77795 0
M  V30 6203 C 590.557 1.70378 -4.17471 0
M  V30 6204 C 589.219 1.55241 -4.55471 0
M  V30 6205 C 591.571 1.30203 -5.04675 0
M  V30 6206 C 588.899 0.983844 -5.78392 0
M  V30 6207 C 591.251 0.747798 -6.28165 0
M  V30 6208 C 589.915 0.583233 -6.64947 0
M  V30 6209 H 589.185 0.438642 -0.597222 0
M  V30 6210 H 591.832 0.49136 -1.85089 0
M  V30 6211 H 590.137 3.01598 -2.50092 0
M  V30 6212 H 591.834 2.82723 -2.84374 0
M  V30 6213 H 588.424 1.83134 -3.87505 0
M  V30 6214 H 592.608 1.40723 -4.75932 0
M  V30 6215 H 587.864 0.844007 -6.05546 0
M  V30 6216 H 592.038 0.427927 -6.95084 0
M  V30 6217 H 589.665 0.140532 -7.6007 0
M  V30 6218 N 591.24 1.41047 0.703093 0
M  V30 6219 C 592.465 1.43537 1.49706 0
M  V30 6220 C 592.89 0.0401853 1.88057 0
M  V30 6221 O 592.248 -0.954785 1.54122 0
M  V30 6222 C 592.296 2.3433 2.74084 0
M  V30 6223 O 591.4 1.79515 3.71279 0
M  V30 6224 H 590.741 0.487454 0.450871 0
M  V30 6225 H 593.271 1.85422 0.86486 0
M  V30 6226 H 593.281 2.49947 3.22476 0
M  V30 6227 H 591.956 3.35708 2.45506 0
M  V30 6228 H 590.533 1.7331 3.30179 0
M  V30 6229 N 592.718 -0.936591 1.26751 0
M  V30 6230 C 593.966 -1.67998 1.12343 0
M  V30 6231 C 594.287 -1.92137 -0.332938 0
M  V30 6232 O 593.557 -1.52132 -1.23421 0
M  V30 6233 H 592.137 -0.622609 0.412756 0
M  V30 6234 H 594.799 -1.12509 1.59147 0
M  V30 6235 H 593.895 -2.65185 1.64571 0
M  V30 6236 N 594.196 -1.08629 -1.14182 0
M  V30 6237 C 595.426 -0.837673 -1.88856 0
M  V30 6238 C 595.834 0.614024 -1.78959 0
M  V30 6239 O 595.177 1.43384 -1.14833 0
M  V30 6240 C 595.239 -1.18355 -3.39459 0
M  V30 6241 C 594.903 -2.63848 -3.73139 0
M  V30 6242 C 595.9 -3.62099 -3.73069 0
M  V30 6243 C 593.585 -2.99761 -4.03049 0
M  V30 6244 C 595.579 -4.94292 -4.02435 0
M  V30 6245 C 593.266 -4.32147 -4.32078 0
M  V30 6246 C 594.264 -5.29223 -4.31755 0
M  V30 6247 O 593.952 -6.59229 -4.60079 0
M  V30 6248 H 593.684 -0.301609 -0.604986 0
M  V30 6249 H 596.238 -1.44961 -1.45518 0
M  V30 6250 H 594.468 -0.514628 -3.8326 0
M  V30 6251 H 596.157 -0.915391 -3.95443 0
M  V30 6252 H 596.923 -3.35698 -3.50046 0
M  V30 6253 H 592.802 -2.2484 -4.02453 0
M  V30 6254 H 596.346 -5.70055 -4.02098 0
M  V30 6255 H 592.243 -4.58296 -4.54571 0
M  V30 6256 H 593.011 -6.64578 -4.77785 0
M  V30 6257 N 595.674 1.31259 -0.872281 0
M  V30 6258 C 596.902 2.00795 -0.498907 0
M  V30 6259 C 597.317 1.65464 0.909238 0
M  V30 6260 O 596.674 0.885073 1.59602 0
M  V30 6261 C 596.725 3.55625 -0.649092 0
M  V30 6262 O 596.446 3.89692 -2.00179 0
M  V30 6263 C 597.947 4.42434 -0.277034 0
M  V30 6264 H 595.167 0.642299 -0.194145 0
M  V30 6265 H 597.711 1.67438 -1.17408 0
M  V30 6266 H 595.866 3.87394 -0.0214402 0
M  V30 6267 H 596.28 4.84407 -2.01122 0
M  V30 6268 H 597.754 5.50299 -0.433064 0
M  V30 6269 H 598.231 4.32146 0.783989 0
M  V30 6270 H 598.837 4.16086 -0.880483 0
M  V30 6271 N 597.152 0.631951 1.44375 0
M  V30 6272 C 598.082 -0.0593243 2.33425 0
M  V30 6273 C 599.063 -0.833964 1.48253 0
M  V30 6274 O 600.248 -0.799682 1.76971 0
M  V30 6275 C 597.378 -1.04096 3.31333 0
M  V30 6276 C 596.332 -0.377899 4.26328 0
M  V30 6277 C 595.658 -1.4695 5.14111 0
M  V30 6278 C 596.958 0.716371 5.17364 0
M  V30 6279 H 598.652 0.684287 2.91475 0
M  V30 6280 H 596.198 0.330518 1.40156 0
M  V30 6281 H 598.151 -1.53331 3.92514 0
M  V30 6282 H 596.875 -1.81547 2.71493 0
M  V30 6283 H 595.534 0.0938054 3.6648 0
M  V30 6284 H 595.182 -2.2349 4.50623 0
M  V30 6285 H 594.882 -1.03121 5.78481 0
M  V30 6286 H 596.406 -1.96363 5.78164 0
M  V30 6287 H 597.82 0.307089 5.72477 0
M  V30 6288 H 596.217 1.07784 5.90341 0
M  V30 6289 H 597.287 1.58316 4.58327 0
M  V30 6290 N 598.631 -1.53133 0.372548 0
M  V30 6291 C 599.908 -1.93704 -0.271693 0
M  V30 6292 C 600.288 -1.30667 -1.65799 0
M  V30 6293 O 599.636 -0.46838 -2.23648 0
M  V30 6294 C 599.846 -3.47576 -0.314903 0
M  V30 6295 C 601.194 -4.20998 -0.551912 0
M  V30 6296 O 602.218 -3.53994 -0.39582 0
M  V30 6297 O 601.077 -5.39748 -0.85639 0
M  V30 6298 H 598.171 -0.810457 -0.164586 0
M  V30 6299 H 600.717 -1.6427 0.425838 0
M  V30 6300 H 599.489 -3.85749 0.656792 0
M  V30 6301 H 599.112 -3.83264 -1.05804 0
M  V30 6302 N 600.109 -0.101901 -1.5727 0
M  V30 6303 C 601.041 0.884723 -2.11436 0
M  V30 6304 C 602.054 1.24149 -1.05314 0
M  V30 6305 O 603.243 1.19341 -1.3274 0
M  V30 6306 C 600.343 2.19179 -2.58484 0
M  V30 6307 C 599.516 2.00933 -3.88516 0
M  V30 6308 C 598.575 3.15213 -4.2134 0
M  V30 6309 O 597.601 2.88877 -4.90448 0
M  V30 6310 N 598.803 4.41174 -3.77288 0
M  V30 6311 H 601.568 0.422058 -2.96713 0
M  V30 6312 H 599.129 0.0830128 -1.61687 0
M  V30 6313 H 601.121 2.94593 -2.77484 0
M  V30 6314 H 599.691 2.56847 -1.7818 0
M  V30 6315 H 598.911 1.09809 -3.78597 0
M  V30 6316 H 600.199 1.86026 -4.73573 0
M  V30 6317 H 599.597 4.6545 -3.21516 0
M  V30 6318 H 598.154 5.13515 -4.01429 0
M  V30 6319 N 601.587 1.56661 0.17182 0
M  V30 6320 C 602.815 1.861 0.904115 0
M  V30 6321 C 603.23 0.687227 1.75848 0
M  V30 6322 O 602.587 -0.343671 1.79235 0
M  V30 6323 C 602.638 3.14568 1.78127 0
M  V30 6324 O 602.359 4.27422 0.961366 0
M  V30 6325 C 603.86 3.5735 2.62327 0
M  V30 6326 H 601.08 0.617445 0.262684 0
M  V30 6327 H 603.624 2.03775 0.172068 0
M  V30 6328 H 601.779 2.98721 2.46666 0
M  V30 6329 H 602.193 5.00725 1.56123 0
M  V30 6330 H 603.667 4.50144 3.1949 0
M  V30 6331 H 604.144 2.81445 3.37173 0
M  V30 6332 H 604.75 3.75807 1.99121 0
M  V30 6333 N 603.065 -0.440357 1.51323 0
M  V30 6334 C 604.295 -1.21079 1.67402 0
M  V30 6335 C 604.703 -1.85555 0.369599 0
M  V30 6336 O 604.046 -1.71375 -0.661525 0
M  V30 6337 C 604.108 -2.33839 2.73056 0
M  V30 6338 C 603.772 -1.89755 4.15743 0
M  V30 6339 C 604.769 -1.40268 5.0062 0
M  V30 6340 C 602.454 -1.97539 4.61826 0
M  V30 6341 C 604.448 -0.991474 6.29642 0
M  V30 6342 C 602.135 -1.56029 5.90845 0
M  V30 6343 C 603.133 -1.06915 6.7458 0
M  V30 6344 O 602.821 -0.659933 8.01187 0
M  V30 6345 H 602.553 -0.371133 0.56501 0
M  V30 6346 H 605.107 -0.528409 1.98487 0
M  V30 6347 H 603.337 -3.05345 2.37279 0
M  V30 6348 H 605.026 -2.95713 2.78044 0
M  V30 6349 H 605.792 -1.33652 4.66221 0
M  V30 6350 H 601.671 -2.34713 3.96776 0
M  V30 6351 H 605.215 -0.607425 6.9495 0
M  V30 6352 H 601.112 -1.62315 6.24759 0
M  V30 6353 H 601.88 -0.786052 8.14717 0
M  V30 6354 N 604.543 -1.41418 -0.695603 0
M  V30 6355 C 605.506 -1.42988 -1.79129 0
M  V30 6356 C 606.506 -0.320514 -1.57573 0
M  V30 6357 O 607.696 -0.58039 -1.64247 0
M  V30 6358 C 604.828 -1.24122 -3.175 0
M  V30 6359 H 606.021 -2.40526 -1.7913 0
M  V30 6360 H 603.574 -1.2756 -0.903225 0
M  V30 6361 H 604.309 -0.274253 -3.23138 0
M  V30 6362 H 604.094 -2.045 -3.34547 0
M  V30 6363 H 605.584 -1.28056 -3.97481 0
M  V30 6364 N 606.021 0.929856 -1.27246 0
M  V30 6365 C 606.968 2.03017 -1.09785 0
M  V30 6366 C 607.938 1.661 0.000456744 0
M  V30 6367 O 609.123 1.90116 -0.161462 0
M  V30 6368 C 606.263 3.36878 -0.748816 0
M  V30 6369 C 605.376 3.86763 -1.92453 0
M  V30 6370 C 604.511 5.09061 -1.51758 0
M  V30 6371 C 603.55 5.51237 -2.66091 0
M  V30 6372 N 602.687 6.64732 -2.25999 0
M  V30 6373 H 607.527 2.17285 -2.03939 0
M  V30 6374 H 605.064 1.06448 -1.01524 0
M  V30 6375 H 607.022 4.13855 -0.527283 0
M  V30 6376 H 605.652 3.22424 0.155771 0
M  V30 6377 H 604.704 3.06086 -2.25867 0
M  V30 6378 H 606.016 4.13994 -2.78227 0
M  V30 6379 H 605.17 5.93532 -1.25716 0
M  V30 6380 H 603.909 4.83602 -0.630896 0
M  V30 6381 H 602.914 4.65316 -2.92849 0
M  V30 6382 H 604.139 5.78692 -3.55377 0
M  V30 6383 H 602.085 6.40935 -1.3978 0
M  V30 6384 H 602.002 6.91607 -3.05313 0
M  V30 6385 H 603.27 7.52549 -2.03199 0
M  V30 6386 N 607.499 1.09233 1.13605 0
M  V30 6387 C 608.748 0.82205 1.84188 0
M  V30 6388 C 609.061 -0.654548 1.84323 0
M  V30 6389 O 610.267 -1.04029 2.50779 0
M  V30 6390 C 608.723 1.42066 3.30674 0
M  V30 6391 C 608.331 2.92965 3.38933 0
M  V30 6392 C 610.075 1.22924 4.06313 0
M  V30 6393 C 607.982 3.45922 4.79679 0
M  V30 6394 H 606.912 0.303854 0.690064 0
M  V30 6395 H 609.563 1.31479 1.28006 0
M  V30 6396 H 607.945 0.855613 3.86646 0
M  V30 6397 H 609.119 3.55679 2.92966 0
M  V30 6398 H 607.434 3.11118 2.76757 0
M  V30 6399 H 610.031 1.59945 5.10217 0
M  V30 6400 H 610.374 0.169726 4.15954 0
M  V30 6401 H 610.907 1.76168 3.56665 0
M  V30 6402 H 607.646 4.51484 4.75229 0
M  V30 6403 H 607.166 2.87971 5.26149 0
M  V30 6404 H 608.845 3.43009 5.48592 0
M  V30 6405 N 608.977 -1.30795 0.87923 0
M  V30 6406 C 609.927 -2.25838 0.313276 0
M  V30 6407 C 610.911 -1.51025 -0.55499 0
M  V30 6408 O 612.103 -1.72413 -0.400353 0
M  V30 6409 C 609.232 -3.39981 -0.476204 0
M  V30 6410 C 608.318 -4.22154 0.405826 0
M  V30 6411 N 608.709 -4.82934 1.50362 0
M  V30 6412 C 607.007 -4.45552 0.199909 0
M  V30 6413 C 607.708 -5.44444 2.0483 0
M  V30 6414 N 606.684 -5.26723 1.34403 0
M  V30 6415 H 610.486 -2.70374 1.15218 0
M  V30 6416 H 608 -1.45168 0.728003 0
M  V30 6417 H 609.997 -4.07108 -0.898251 0
M  V30 6418 H 608.657 -2.96986 -1.31261 0
M  V30 6419 H 609.668 -4.82319 1.8865 0
M  V30 6420 H 606.345 -4.13169 -0.599795 0
M  V30 6421 H 607.735 -6.02701 2.96986 0
M  V30 6422 N 610.455 -0.639598 -1.44038 0
M  V30 6423 C 611.702 -0.14748 -2.01962 0
M  V30 6424 C 612.03 1.23372 -1.50365 0
M  V30 6425 O 611.285 1.8345 -0.681501 0
M  V30 6426 C 611.584 -0.0925348 -3.5728 0
M  V30 6427 C 611.25 -1.41365 -4.28167 0
M  V30 6428 C 609.912 -1.77545 -4.47248 0
M  V30 6429 C 612.264 -2.2853 -4.68427 0
M  V30 6430 C 609.592 -3.00583 -5.03852 0
M  V30 6431 C 611.944 -3.50846 -5.26393 0
M  V30 6432 C 610.608 -3.8724 -5.43692 0
M  V30 6433 H 609.878 -0.0539666 -0.739032 0
M  V30 6434 H 612.525 -0.827599 -1.72694 0
M  V30 6435 H 610.83 0.670987 -3.86012 0
M  V30 6436 H 612.527 0.304891 -3.99839 0
M  V30 6437 H 609.117 -1.1221 -4.13651 0
M  V30 6438 H 613.301 -2.0187 -4.5339 0
M  V30 6439 H 608.557 -3.28846 -5.15432 0
M  V30 6440 H 612.731 -4.18616 -5.56537 0
M  V30 6441 H 610.358 -4.8266 -5.87319 0
M  V30 6442 N 611.933 1.52934 -0.380664 0
M  V30 6443 C 613.161 2.05886 0.204599 0
M  V30 6444 C 613.576 1.25305 1.41223 0
M  V30 6445 O 612.933 0.297504 1.80059 0
M  V30 6446 C 612.984 3.56764 0.583249 0
M  V30 6447 O 612.705 4.34292 -0.576398 0
M  V30 6448 C 614.206 4.2603 1.2253 0
M  V30 6449 H 611.426 0.670193 0.0328991 0
M  V30 6450 H 613.97 1.97148 -0.543397 0
M  V30 6451 H 612.125 3.65603 1.28115 0
M  V30 6452 H 612.539 5.23819 -0.267119 0
M  V30 6453 H 614.013 5.32868 1.44068 0
M  V30 6454 H 614.49 3.80698 2.19011 0
M  V30 6455 H 615.096 4.21485 0.568407 0
M  V30 6456 N 613.412 0.11024 1.57214 0
M  V30 6457 C 614.661 -0.549638 1.94067 0
M  V30 6458 C 614.974 -1.68388 0.995234 0
M  V30 6459 O 616.18 -2.40593 1.25807 0
M  V30 6460 C 614.636 -1.02912 3.44873 0
M  V30 6461 C 614.244 0.0761861 4.47935 0
M  V30 6462 C 615.988 -1.66087 3.9066 0
M  V30 6463 C 613.895 -0.419502 5.8991 0
M  V30 6464 H 612.825 -0.209092 0.724428 0
M  V30 6465 H 615.476 0.188683 1.82527 0
M  V30 6466 H 613.858 -1.82159 3.51616 0
M  V30 6467 H 615.032 0.852185 4.52851 0
M  V30 6468 H 613.347 0.614052 4.11847 0
M  V30 6469 H 615.944 -2.04272 4.94143 0
M  V30 6470 H 616.287 -2.53591 3.30148 0
M  V30 6471 H 616.82 -0.933959 3.86681 0
M  V30 6472 H 613.559 0.419277 6.54158 0
M  V30 6473 H 613.079 -1.16217 5.88433 0
M  V30 6474 H 614.758 -0.883577 6.40938 0
M  V30 6475 N 614.89 -1.56749 -0.16351 0
M  V30 6476 C 615.823 -1.9213 -1.23132 0
M  V30 6477 C 616.801 -0.785047 -1.42393 0
M  V30 6478 O 617.985 -1.0391 -1.57273 0
M  V30 6479 C 615.112 -2.17901 -2.59301 0
M  V30 6480 C 614.158 -3.40576 -2.5673 0
M  V30 6481 S 614.991 -4.94689 -2.05045 0
M  V30 6482 C 616.147 -5.23564 -3.42975 0
M  V30 6483 H 616.38 -2.824 -0.929383 0
M  V30 6484 H 613.913 -1.4994 -0.368418 0
M  V30 6485 H 615.871 -2.33429 -3.3767 0
M  V30 6486 H 614.532 -1.28324 -2.86691 0
M  V30 6487 H 613.725 -3.55833 -3.5693 0
M  V30 6488 H 613.327 -3.24204 -1.86462 0
M  V30 6489 H 615.619 -5.16019 -4.3901 0
M  V30 6490 H 616.562 -6.25134 -3.32586 0
M  V30 6491 H 616.97 -4.51113 -3.39348 0
M  V30 6492 N 616.368 0.432326 -1.51554 0
M  V30 6493 C 617.615 1.18134 -1.64471 0
M  V30 6494 C 617.943 1.91076 -0.363349 0
M  V30 6495 O 617.198 1.84492 0.65279 0
M  V30 6496 C 617.497 2.21907 -2.80164 0
M  V30 6497 C 617.163 1.65941 -4.19255 0
M  V30 6498 C 615.825 1.50401 -4.57092 0
M  V30 6499 C 618.177 1.24843 -5.06027 0
M  V30 6500 C 615.505 0.922443 -5.79403 0
M  V30 6501 C 617.857 0.68113 -6.28922 0
M  V30 6502 C 616.521 0.512673 -6.65528 0
M  V30 6503 H 615.791 0.432283 -0.601841 0
M  V30 6504 H 618.438 0.471701 -1.856 0
M  V30 6505 H 616.743 2.98928 -2.53277 0
M  V30 6506 H 618.44 2.79691 -2.87357 0
M  V30 6507 H 615.03 1.79014 -3.89425 0
M  V30 6508 H 619.214 1.35667 -4.77397 0
M  V30 6509 H 614.47 0.779733 -6.06408 0
M  V30 6510 H 618.644 0.35418 -6.95499 0
M  V30 6511 H 616.271 0.0599084 -7.60176 0
M  V30 6512 N 617.846 1.41785 0.688094 0
M  V30 6513 C 619.095 1.4084 1.44385 0
M  V30 6514 C 619.408 0.0234166 1.95586 0
M  V30 6515 O 620.614 -0.108647 2.71283 0
M  V30 6516 C 619.07 2.47675 2.61123 0
M  V30 6517 C 618.678 3.92116 2.16677 0
M  V30 6518 C 620.422 2.55877 3.38714 0
M  V30 6519 C 618.329 4.90487 3.30419 0
M  V30 6520 H 617.259 0.523787 0.542368 0
M  V30 6521 H 619.91 1.6764 0.74627 0
M  V30 6522 H 618.292 2.14018 3.33185 0
M  V30 6523 H 619.466 4.35059 1.51856 0
M  V30 6524 H 617.781 3.87642 1.5206 0
M  V30 6525 H 620.378 3.26553 4.234 0
M  V30 6526 H 620.721 1.59801 3.84408 0
M  V30 6527 H 621.254 2.88662 2.73714 0
M  V30 6528 H 617.993 5.87994 2.89729 0
M  V30 6529 H 617.513 4.52187 3.94065 0
M  V30 6530 H 619.192 5.11591 3.96085 0
M  V30 6531 N 619.324 -0.923095 1.27737 0
M  V30 6532 C 620.572 -1.66797 1.14119 0
M  V30 6533 C 620.893 -1.92479 -0.312541 0
M  V30 6534 O 620.163 -1.53432 -1.218 0
M  V30 6535 H 618.743 -0.618196 0.419336 0
M  V30 6536 H 621.405 -1.10815 1.60331 0
M  V30 6537 H 620.501 -2.63424 1.67374 0
M  V30 6538 N 620.802 -1.09834 -1.13024 0
M  V30 6539 C 622.048 -0.83819 -1.84668 0
M  V30 6540 C 622.381 0.634645 -1.83537 0
M  V30 6541 O 621.656 1.46753 -1.27647 0
M  V30 6542 C 621.939 -1.37933 -3.32636 0
M  V30 6543 C 621.792 -2.91857 -3.42257 0
M  V30 6544 C 623.111 -1.01654 -4.28199 0
M  V30 6545 H 620.23 -0.30595 -0.670495 0
M  V30 6546 H 622.872 -1.36044 -1.32635 0
M  V30 6547 H 621.022 -0.935111 -3.77078 0
M  V30 6548 H 622.694 -3.44759 -3.06495 0
M  V30 6549 H 620.937 -3.28776 -2.83 0
M  V30 6550 H 621.608 -3.24799 -4.46329 0
M  V30 6551 H 624.084 -1.39973 -3.9185 0
M  V30 6552 H 622.96 -1.42217 -5.30156 0
M  V30 6553 H 623.221 0.0747794 -4.42037 0
M  V30 6554 N 622.28 1.30327 -0.886154 0
M  V30 6555 C 623.228 2.30052 -0.343317 0
M  V30 6556 C 624.222 1.60212 0.550305 0
M  V30 6557 O 625.428 1.74674 0.434609 0
M  V30 6558 H 621.803 0.746306 -0.0923681 0
M  V30 6559 H 623.774 2.73294 -1.19804 0
M  V30 6560 C 622.523 3.45079 0.426107 0
M  V30 6561 H 621.846 3.99003 -0.25227 0
M  V30 6562 H 623.286 4.16931 0.771009 0
M  V30 6563 C 621.745 2.95195 1.62363 0
M  V30 6564 O 622.275 2.95323 2.723 0
M  V30 6565 N 620.481 2.51192 1.4612 0
M  V30 6566 H 620.028 2.51286 0.566832 0
M  V30 6567 H 619.986 2.18173 2.2638 0
M  V30 6568 N 623.758 0.647228 1.43697 0
M  V30 6569 C 624.688 -0.0345631 2.33474 0
M  V30 6570 C 625.669 -0.818193 1.4913 0
M  V30 6571 O 626.854 -0.780867 1.77809 0
M  V30 6572 C 623.984 -1.00576 3.32418 0
M  V30 6573 C 622.938 -0.33266 4.26705 0
M  V30 6574 C 622.264 -1.41489 5.1564 0
M  V30 6575 C 623.564 0.771204 5.16575 0
M  V30 6576 H 625.258 0.715163 2.90733 0
M  V30 6577 H 622.804 0.345364 1.39797 0
M  V30 6578 H 624.757 -1.49159 3.94119 0
M  V30 6579 H 623.481 -1.78657 2.73403 0
M  V30 6580 H 622.14 0.13267 3.6636 0
M  V30 6581 H 621.788 -2.18698 4.52968 0
M  V30 6582 H 621.488 -0.969799 5.79542 0
M  V30 6583 H 623.012 -1.9022 5.80214 0
M  V30 6584 H 624.426 0.36779 5.72119 0
M  V30 6585 H 622.823 1.1404 5.89165 0
M  V30 6586 H 623.893 1.63169 4.56622 0
M  V30 6587 N 625.236 -1.5273 0.388769 0
M  V30 6588 C 626.464 -2.05992 -0.193677 0
M  V30 6589 C 626.879 -1.26053 -1.40557 0
M  V30 6590 O 626.236 -0.307049 -1.79898 0
M  V30 6591 C 626.287 -3.57068 -0.564321 0
M  V30 6592 O 626.008 -4.3398 0.599422 0
M  V30 6593 C 627.509 -4.26674 -1.20269 0
M  V30 6594 H 624.729 -0.670358 -0.0293445 0
M  V30 6595 H 627.273 -1.96857 0.553844 0
M  V30 6596 H 625.428 -3.66277 -1.26174 0
M  V30 6597 H 625.842 -5.2367 0.294895 0
M  V30 6598 H 627.316 -5.33625 -1.4124 0
M  V30 6599 H 627.793 -3.81854 -2.16989 0
M  V30 6600 H 628.399 -4.2178 -0.546047 0
M  V30 6601 N 626.714 -0.118576 -1.57153 0
M  V30 6602 C 627.961 0.539526 -1.9518 0
M  V30 6603 C 628.289 1.66714 -1.00184 0
M  V30 6604 O 627.544 1.95683 -0.0256482 0
M  V30 6605 C 627.843 1.11303 -3.39627 0
M  V30 6606 C 627.509 0.106809 -4.50773 0
M  V30 6607 C 626.171 -0.169876 -4.809 0
M  V30 6608 C 628.523 -0.57895 -5.17975 0
M  V30 6609 C 625.851 -1.13861 -5.75545 0
M  V30 6610 C 628.203 -1.53631 -6.13661 0
M  V30 6611 C 626.867 -1.82099 -6.42181 0
M  V30 6612 H 626.137 0.197427 -0.714215 0
M  V30 6613 H 628.784 -0.199391 -1.90459 0
M  V30 6614 H 627.089 1.92869 -3.4104 0
M  V30 6615 H 628.786 1.63032 -3.66363 0
M  V30 6616 H 625.376 0.332645 -4.27307 0
M  V30 6617 H 629.56 -0.378359 -4.94856 0
M  V30 6618 H 624.816 -1.36592 -5.95947 0
M  V30 6619 H 628.99 -2.07337 -6.64819 0
M  V30 6620 H 626.617 -2.57319 -7.15326 0
M  V30 6621 N 628.193 1.56834 0.155195 0
M  V30 6622 C 629.44 1.82898 0.869179 0
M  V30 6623 C 629.768 0.698194 1.81537 0
M  V30 6624 O 629.023 -0.313404 1.93174 0
M  V30 6625 C 629.322 3.15239 1.68402 0
M  V30 6626 C 628.988 4.42123 0.885341 0
M  V30 6627 C 627.65 4.76583 0.664971 0
M  V30 6628 C 630.002 5.20178 0.326234 0
M  V30 6629 C 627.33 5.86566 -0.125346 0
M  V30 6630 C 629.682 6.3099 -0.45108 0
M  V30 6631 C 628.346 6.64006 -0.682102 0
M  V30 6632 H 627.616 0.66927 0.318055 0
M  V30 6633 H 630.263 1.91036 0.133241 0
M  V30 6634 H 628.568 3.02515 2.48982 0
M  V30 6635 H 630.265 3.32618 2.23978 0
M  V30 6636 H 626.855 4.15102 1.06716 0
M  V30 6637 H 631.039 4.93936 0.483787 0
M  V30 6638 H 626.295 6.10594 -0.313915 0
M  V30 6639 H 630.469 6.9067 -0.89149 0
M  V30 6640 H 628.096 7.49065 -1.29636 0
M  V30 6641 N 629.671 -0.424282 1.51781 0
M  V30 6642 C 631.082 -1.00368 1.57427 0
M  V30 6643 C 631.433 -1.91962 0.40558 0
M  V30 6644 O 630.558 -2.111 -0.47601 0
M  V30 6645 C 631.153 -1.82707 2.85313 0
M  V30 6646 C 629.712 -2.35675 2.93487 0
M  V30 6647 C 628.859 -1.1524 2.5222 0
M  V30 6648 H 631.81 -0.205064 1.5737 0
M  V30 6649 H 631.831 -2.68294 2.69812 0
M  V30 6650 H 631.343 -1.16017 3.70353 0
M  V30 6651 H 629.444 -3.05781 2.12906 0
M  V30 6652 H 629.557 -2.67578 3.97415 0
M  V30 6653 H 627.921 -1.50174 2.05718 0
M  V30 6654 H 628.704 -0.5014 3.39619 0
M  V30 6655 N 631.149 -1.42148 -0.680565 0
M  V30 6656 C 632.081 -1.41119 -1.80605 0
M  V30 6657 C 633.094 -0.311099 -1.598 0
M  V30 6658 O 634.283 -0.573813 -1.69026 0
M  V30 6659 C 631.383 -1.18204 -3.17618 0
M  V30 6660 C 630.556 -2.40537 -3.65322 0
M  V30 6661 C 629.615 -2.13254 -4.8105 0
M  V30 6662 O 628.641 -2.8641 -4.91892 0
M  V30 6663 N 629.843 -1.13208 -5.69354 0
M  V30 6664 H 632.608 -2.38128 -1.81975 0
M  V30 6665 H 630.169 -1.36953 -0.863446 0
M  V30 6666 H 632.161 -0.97878 -3.92686 0
M  V30 6667 H 630.731 -0.29738 -3.11182 0
M  V30 6668 H 629.951 -2.76468 -2.80996 0
M  V30 6669 H 631.239 -3.22012 -3.93936 0
M  V30 6670 H 630.637 -0.526893 -5.63241 0
M  V30 6671 H 629.194 -0.988699 -6.44258 0
M  V30 6672 N 632.627 0.916307 -1.28225 0
M  V30 6673 C 633.577 2.00488 -1.08574 0
M  V30 6674 C 634.561 1.60897 -0.0101874 0
M  V30 6675 O 635.753 1.75499 -0.230034 0
M  V30 6676 C 632.882 3.35076 -0.746943 0
M  V30 6677 C 631.968 3.81077 -1.86121 0
M  V30 6678 N 632.359 3.99475 -3.10247 0
M  V30 6679 C 630.657 4.10212 -1.75048 0
M  V30 6680 C 631.358 4.37965 -3.82834 0
M  V30 6681 N 630.334 4.4608 -3.10667 0
M  V30 6682 H 634.136 2.1276 -2.02757 0
M  V30 6683 H 631.65 1.10397 -1.19107 0
M  V30 6684 H 633.647 4.12743 -0.587252 0
M  V30 6685 H 632.307 3.2416 0.187146 0
M  V30 6686 H 633.318 3.85466 -3.45885 0
M  V30 6687 H 629.995 4.07947 -0.887999 0
M  V30 6688 H 631.385 4.60183 -4.89572 0
M  V30 6689 N 634.105 1.10431 1.1244 0
M  V30 6690 C 635.352 0.846717 1.83948 0
M  V30 6691 C 635.68 -0.627709 1.84093 0
M  V30 6692 O 634.935 -1.47876 1.28184 0
M  V30 6693 C 635.234 1.34022 3.3132 0
M  V30 6694 C 634.9 2.82606 3.51347 0
M  V30 6695 C 633.562 3.23182 3.56521 0
M  V30 6696 C 635.914 3.78356 3.58464 0
M  V30 6697 C 633.242 4.58258 3.66356 0
M  V30 6698 C 635.594 5.13234 3.69829 0
M  V30 6699 C 634.258 5.53384 3.73259 0
M  V30 6700 H 633.528 0.309836 0.673114 0
M  V30 6701 H 636.175 1.38091 1.32677 0
M  V30 6702 H 634.48 0.726047 3.85014 0
M  V30 6703 H 636.177 1.11739 3.85118 0
M  V30 6704 H 632.767 2.50212 3.47983 0
M  V30 6705 H 636.951 3.48115 3.53737 0
M  V30 6706 H 632.207 4.88787 3.67284 0
M  V30 6707 H 636.381 5.87272 3.74279 0
M  V30 6708 H 634.008 6.58045 3.80633 0
M  V30 6709 N 635.583 -1.29855 0.893053 0
M  V30 6710 C 636.513 -2.3035 0.382249 0
M  V30 6711 C 637.494 -1.61328 -0.539203 0
M  V30 6712 O 638.679 -1.88882 -0.451342 0
M  V30 6713 C 635.809 -3.45024 -0.396983 0
M  V30 6714 C 634.763 -4.258 0.433437 0
M  V30 6715 C 634.089 -5.32605 -0.472889 0
M  V30 6716 C 635.389 -4.94549 1.67984 0
M  V30 6717 H 637.083 -2.73325 1.22205 0
M  V30 6718 H 634.629 -1.314 0.589073 0
M  V30 6719 H 636.582 -4.14398 -0.765024 0
M  V30 6720 H 635.306 -3.00875 -1.2705 0
M  V30 6721 H 633.965 -3.58125 0.783723 0
M  V30 6722 H 633.613 -4.84702 -1.34435 0
M  V30 6723 H 633.313 -5.87547 0.0789958 0
M  V30 6724 H 634.837 -6.04832 -0.837269 0
M  V30 6725 H 636.251 -5.56395 1.38192 0
M  V30 6726 H 634.648 -5.59393 2.17254 0
M  V30 6727 H 635.718 -4.20215 2.41965 0
M  V30 6728 N 637.061 -0.65484 -1.43351 0
M  V30 6729 C 638.309 -0.168559 -2.01396 0
M  V30 6730 C 638.63 1.22235 -1.51933 0
M  V30 6731 O 637.9 1.81685 -0.732627 0
M  V30 6732 H 636.48 -0.0593244 -0.744641 0
M  V30 6733 H 639.142 -0.846871 -1.75539 0
M  V30 6734 H 638.238 -0.154428 -3.11718 0
M  V30 6735 N 638.539 1.52521 -0.396863 0
M  V30 6736 C 639.469 2.29582 0.425941 0
M  V30 6737 C 640.45 1.33281 1.05689 0
M  V30 6738 O 641.635 1.62181 1.06823 0
M  V30 6739 C 638.765 3.10821 1.54943 0
M  V30 6740 C 637.719 4.15069 1.04413 0
M  V30 6741 C 637.045 4.84578 2.26028 0
M  V30 6742 C 638.345 5.22191 0.106767 0
M  V30 6743 H 640.039 2.98612 -0.217045 0
M  V30 6744 H 637.585 1.43611 -0.105826 0
M  V30 6745 H 639.538 3.63492 2.13193 0
M  V30 6746 H 638.262 2.39538 2.22011 0
M  V30 6747 H 636.921 3.63389 0.484118 0
M  V30 6748 H 636.569 4.09835 2.91623 0
M  V30 6749 H 636.269 5.55043 1.92876 0
M  V30 6750 H 637.793 5.40056 2.84906 0
M  V30 6751 H 639.207 5.70176 0.597685 0
M  V30 6752 H 637.604 5.99947 -0.135352 0
M  V30 6753 H 638.674 4.77531 -0.842134 0
M  V30 6754 N 640.017 0.126909 1.57088 0
M  V30 6755 C 641.242 -0.53997 2.00248 0
M  V30 6756 C 641.667 -1.58927 1.00618 0
M  V30 6757 O 641.025 -1.81288 -0.0210131 0
M  V30 6758 C 641.073 -1.13565 3.4225 0
M  V30 6759 O 640.177 -2.25103 3.45547 0
M  V30 6760 H 639.518 -0.13412 0.650314 0
M  V30 6761 H 642.048 0.217718 2.03438 0
M  V30 6762 H 642.058 -1.46925 3.80627 0
M  V30 6763 H 640.733 -0.367122 4.14277 0
M  V30 6764 H 639.31 -1.93123 3.18995 0
M  V30 6765 N 641.495 -1.56914 -0.146875 0
M  V30 6766 C 642.743 -1.82994 -0.85777 0
M  V30 6767 C 643.064 -0.707814 -1.817 0
M  V30 6768 O 642.334 0.270521 -1.94023 0
M  V30 6769 H 640.914 -0.675106 -0.319751 0
M  V30 6770 H 643.576 -1.9439 -0.140849 0
M  V30 6771 H 642.672 -2.77928 -1.41994 0
M  V30 6772 N 642.974 0.416227 -1.52004 0
M  V30 6773 C 643.907 1.52736 -1.6955 0
M  V30 6774 C 644.885 1.53264 -0.54305 0
M  V30 6775 O 646.069 1.72077 -0.769527 0
M  V30 6776 C 643.196 2.91283 -1.72835 0
M  V30 6777 C 642.242 3.08695 -2.94295 0
M  V30 6778 S 643.075 2.82758 -4.54762 0
M  V30 6779 C 644.231 4.23548 -4.60823 0
M  V30 6780 H 644.464 1.37623 -2.63528 0
M  V30 6781 H 641.997 0.607335 -1.41954 0
M  V30 6782 H 643.955 3.71134 -1.75413 0
M  V30 6783 H 642.616 3.03742 -0.799966 0
M  V30 6784 H 641.809 4.10042 -2.93056 0
M  V30 6785 H 641.411 2.36699 -2.89568 0
M  V30 6786 H 643.703 5.17078 -4.37763 0
M  V30 6787 H 644.646 4.29813 -5.62731 0
M  V30 6788 H 645.054 4.08188 -3.89927 0
M  V30 6789 N 644.452 1.42507 0.673017 0
M  V30 6790 C 645.863 1.38347 1.25367 0
M  V30 6791 C 646.214 0.0776327 1.96046 0
M  V30 6792 O 645.339 -0.823571 2.00116 0
M  V30 6793 C 645.934 2.506 2.28002 0
M  V30 6794 C 644.493 2.49767 2.81591 0
M  V30 6795 C 643.64 2.293 1.55938 0
M  V30 6796 H 646.591 1.51695 0.466288 0
M  V30 6797 H 646.612 2.20953 3.09774 0
M  V30 6798 H 646.124 3.45627 1.76532 0
M  V30 6799 H 644.225 1.58563 3.37177 0
M  V30 6800 H 644.338 3.46867 3.30485 0
M  V30 6801 H 642.702 1.77594 1.82572 0
M  V30 6802 H 643.485 3.26385 1.06431 0
M  V30 6803 N 645.93 -0.909495 1.28709 0
M  V30 6804 C 647.346 -1.18862 1.06508 0
M  V30 6805 C 647.546 -2.00604 -0.189864 0
M  V30 6806 O 646.602 -2.36281 -0.890355 0
M  V30 6807 C 647.915 -1.91908 2.31499 0
M  V30 6808 C 649.463 -2.04773 2.36721 0
M  V30 6809 C 649.938 -2.81228 3.6149 0
M  V30 6810 N 651.429 -2.88787 3.62155 0
M  V30 6811 C 652.164 -3.48455 4.55375 0
M  V30 6812 N 651.66 -4.09369 5.58918 0
M  V30 6813 N 653.453 -3.46035 4.42963 0
M  V30 6814 H 645.604 -0.363867 2.0926 0
M  V30 6815 H 647.867 -0.223649 0.921241 0
M  V30 6816 H 647.573 -1.39275 3.22948 0
M  V30 6817 H 647.447 -2.92436 2.38245 0
M  V30 6818 H 649.834 -2.56585 1.45767 0
M  V30 6819 H 649.915 -1.03408 2.33967 0
M  V30 6820 H 649.559 -2.30094 4.5279 0
M  V30 6821 H 649.489 -3.82917 3.61499 0
M  V30 6822 H 651.98 -2.45514 2.87283 0
M  V30 6823 H 652.293 -4.52891 6.26187 0
M  V30 6824 H 650.638 -4.0786 5.62739 0
M  V30 6825 H 653.829 -2.9766 3.6127 0
M  V30 6826 H 654.002 -3.92244 5.15799 0
M  V30 6827 N 647.408 -1.11026 -1.11852 0
M  V30 6828 C 648.824 -0.843294 -1.35502 0
M  V30 6829 C 649.024 0.534179 -1.9429 0
M  V30 6830 O 648.08 1.28585 -2.17307 0
M  V30 6831 C 649.393 -1.94793 -2.29077 0
M  V30 6832 C 650.941 -1.97709 -2.42652 0
M  V30 6833 C 651.416 -3.07364 -3.39546 0
M  V30 6834 N 652.907 -3.0671 -3.47107 0
M  V30 6835 C 653.642 -3.88197 -4.22008 0
M  V30 6836 N 653.138 -4.79635 -4.99922 0
M  V30 6837 N 654.931 -3.76391 -4.17476 0
M  V30 6838 H 647.082 -1.99805 -0.720538 0
M  V30 6839 H 649.345 -0.868633 -0.379711 0
M  V30 6840 H 649.051 -2.93971 -1.93065 0
M  V30 6841 H 648.925 -1.84039 -3.29256 0
M  V30 6842 H 651.312 -0.991604 -2.77941 0
M  V30 6843 H 651.393 -2.1254 -1.4234 0
M  V30 6844 H 651.037 -4.06136 -3.04985 0
M  V30 6845 H 650.967 -2.89774 -4.39703 0
M  V30 6846 H 653.458 -2.40457 -2.91528 0
M  V30 6847 H 653.771 -5.38357 -5.54429 0
M  V30 6848 H 652.116 -4.8366 -4.99097 0
M  V30 6849 H 655.307 -3.04303 -3.55693 0
M  V30 6850 H 655.48 -4.40131 -4.75593 0
M  V30 6851 N 648.886 1.2938 -0.899927 0
M  V30 6852 C 650.116 1.99402 -0.540601 0
M  V30 6853 C 650.524 1.67534 0.87914 0
M  V30 6854 O 649.867 0.916821 1.59186 0
M  V30 6855 C 649.929 3.53514 -0.653326 0
M  V30 6856 C 649.593 4.08937 -2.04009 0
M  V30 6857 C 650.59 4.23815 -3.01126 0
M  V30 6858 C 648.275 4.43962 -2.34953 0
M  V30 6859 C 650.269 4.72951 -4.27313 0
M  V30 6860 C 647.956 4.92795 -3.61382 0
M  V30 6861 C 648.954 5.07244 -4.57376 0
M  V30 6862 O 648.642 5.55017 -5.8156 0
M  V30 6863 H 648.374 0.64383 -0.206057 0
M  V30 6864 H 650.928 1.65878 -1.21134 0
M  V30 6865 H 649.158 3.86628 0.0744449 0
M  V30 6866 H 650.847 4.04767 -0.303118 0
M  V30 6867 H 651.613 3.97043 -2.78535 0
M  V30 6868 H 647.492 4.31974 -1.60994 0
M  V30 6869 H 651.036 4.84144 -5.02245 0
M  V30 6870 H 646.933 5.19004 -3.83804 0
M  V30 6871 H 647.701 5.73331 -5.84153 0
M  V30 6872 N 650.364 0.662433 1.43002 0
M  V30 6873 C 651.589 0.186003 2.06564 0
M  V30 6874 C 652.014 -1.14314 1.49379 0
M  V30 6875 O 651.372 -1.70824 0.607346 0
M  V30 6876 C 651.42 0.118269 3.60406 0
M  V30 6877 O 650.524 -0.916859 4.02079 0
M  V30 6878 H 649.865 0.0990981 0.656563 0
M  V30 6879 H 652.395 0.907958 1.8335 0
M  V30 6880 H 652.405 -0.0619981 4.07953 0
M  V30 6881 H 651.08 1.08849 4.01403 0
M  V30 6882 H 649.657 -0.708635 3.66105 0
M  V30 6883 N 651.842 -1.52309 0.404946 0
M  V30 6884 C 653.119 -1.94237 -0.230544 0
M  V30 6885 C 653.499 -1.34154 -1.6299 0
M  V30 6886 O 652.847 -0.515713 -2.22604 0
M  V30 6887 C 653.057 -3.48166 -0.241106 0
M  V30 6888 C 654.405 -4.22074 -0.462488 0
M  V30 6889 O 655.429 -3.54754 -0.320644 0
M  V30 6890 O 654.288 -5.41443 -0.741708 0
M  V30 6891 H 651.382 -0.813766 -0.147358 0
M  V30 6892 H 653.928 -1.6333 0.460587 0
M  V30 6893 H 652.7 -3.84269 0.738467 0
M  V30 6894 H 652.323 -3.85422 -0.97651 0
M  V30 6895 N 653.32 -0.135238 -1.57019 0
M  V30 6896 C 654.55 0.525303 -1.9981 0
M  V30 6897 C 654.958 1.59724 -1.01415 0
M  V30 6898 O 654.301 1.837 -0.00130938 0
M  V30 6899 C 654.363 1.19578 -3.3903 0
M  V30 6900 C 654.027 0.269855 -4.56203 0
M  V30 6901 C 655.024 -0.497905 -5.1751 0
M  V30 6902 C 652.709 0.176188 -5.01991 0
M  V30 6903 C 654.703 -1.3469 -6.23007 0
M  V30 6904 C 652.39 -0.676422 -6.07345 0
M  V30 6905 C 653.388 -1.43658 -6.67721 0
M  V30 6906 O 653.076 -2.27501 -7.71037 0
M  V30 6907 H 652.808 0.142296 -0.660854 0
M  V30 6908 H 655.362 -0.223272 -2.04183 0
M  V30 6909 H 653.592 1.99176 -3.3146 0
M  V30 6910 H 655.281 1.75486 -3.66005 0
M  V30 6911 H 656.047 -0.435507 -4.83041 0
M  V30 6912 H 651.926 0.757583 -4.54733 0
M  V30 6913 H 655.47 -1.9407 -6.70062 0
M  V30 6914 H 651.367 -0.740154 -6.41243 0
M  V30 6915 H 652.135 -2.20619 -7.88206 0
M  V30 6916 N 654.798 1.5699 0.138552 0
M  V30 6917 C 656.209 1.73171 0.697754 0
M  V30 6918 C 656.56 0.750952 1.8126 0
M  V30 6919 O 655.685 -0.080549 2.1625 0
M  V30 6920 C 656.28 3.13996 1.27248 0
M  V30 6921 C 654.839 3.3175 1.77816 0
M  V30 6922 C 653.986 2.69084 0.669991 0
M  V30 6923 H 656.937 1.5846 -0.0871979 0
M  V30 6924 H 656.958 3.14463 2.14227 0
M  V30 6925 H 656.47 3.85354 0.460855 0
M  V30 6926 H 654.571 2.65403 2.61519 0
M  V30 6927 H 654.684 4.39768 1.90107 0
M  V30 6928 H 653.048 2.29782 1.09874 0
M  V30 6929 H 653.831 3.43053 -0.130329 0
M  V30 6930 N 656.276 -0.40816 1.52223 0
M  V30 6931 C 657.553 -1.16807 1.56893 0
M  V30 6932 C 657.933 -2.08169 0.350537 0
M  V30 6933 O 657.281 -2.18684 -0.662536 0
M  V30 6934 C 657.491 -1.94451 2.8981 0
M  V30 6935 C 658.839 -2.50484 3.42845 0
M  V30 6936 O 659.863 -2.0463 2.91556 0
M  V30 6937 O 658.722 -3.34192 4.3241 0
M  V30 6938 H 655.816 -0.533382 0.632007 0
M  V30 6939 H 658.362 -0.414862 1.64551 0
M  V30 6940 H 657.134 -1.27527 3.69936 0
M  V30 6941 H 656.757 -2.76775 2.85449 0
M  V30 6942 N 657.755 -1.42862 -0.66545 0
M  V30 6943 C 658.718 -1.46756 -1.76055 0
M  V30 6944 C 659.718 -0.353866 -1.56858 0
M  V30 6945 O 660.908 -0.615099 -1.62979 0
M  V30 6946 C 658.04 -1.30829 -3.14796 0
M  V30 6947 H 659.233 -2.44271 -1.73987 0
M  V30 6948 H 656.786 -1.29447 -0.875965 0
M  V30 6949 H 657.521 -0.342733 -3.22484 0
M  V30 6950 H 657.306 -2.11551 -3.30134 0
M  V30 6951 H 658.796 -1.36458 -3.94676 0
M  V30 6952 N 659.233 0.902656 -1.29189 0
M  V30 6953 C 660.463 1.68394 -1.19695 0
M  V30 6954 C 660.871 1.87602 0.245384 0
M  V30 6955 O 660.214 1.41084 1.17648 0
M  V30 6956 C 660.276 3.09094 -1.83578 0
M  V30 6957 C 659.94 3.1313 -3.32864 0
M  V30 6958 C 660.937 2.93497 -4.29134 0
M  V30 6959 C 658.622 3.3529 -3.74013 0
M  V30 6960 C 660.616 2.95953 -5.64527 0
M  V30 6961 C 658.303 3.37377 -5.09529 0
M  V30 6962 C 659.301 3.1773 -6.04596 0
M  V30 6963 O 658.989 3.196 -7.37639 0
M  V30 6964 H 658.721 0.532815 -0.416034 0
M  V30 6965 H 661.275 1.1374 -1.71033 0
M  V30 6966 H 659.505 3.65338 -1.26747 0
M  V30 6967 H 661.194 3.69297 -1.68447 0
M  V30 6968 H 661.96 2.76192 -3.98677 0
M  V30 6969 H 657.839 3.49623 -3.00474 0
M  V30 6970 H 661.383 2.80536 -6.38706 0
M  V30 6971 H 657.28 3.54213 -5.39633 0
M  V30 6972 H 658.048 3.35887 -7.46406 0
M  V30 6973 N 660.711 1.11618 1.11262 0
M  V30 6974 C 661.939 0.888739 1.8684 0
M  V30 6975 C 662.354 -0.561558 1.80255 0
M  V30 6976 O 661.711 -1.38782 1.18515 0
M  V30 6977 C 661.762 1.34422 3.35579 0
M  V30 6978 O 661.483 2.73766 3.42029 0
M  V30 6979 C 662.984 1.15246 4.28058 0
M  V30 6980 H 660.204 0.318152 0.590779 0
M  V30 6981 H 662.748 1.48398 1.40707 0
M  V30 6982 H 660.903 0.79239 3.7921 0
M  V30 6983 H 661.317 2.9355 4.34659 0
M  V30 6984 H 662.791 1.52015 5.30656 0
M  V30 6985 H 663.268 0.0922007 4.39103 0
M  V30 6986 H 663.874 1.69136 3.90222 0
M  V30 6987 N 662.189 -1.289 0.906776 0
M  V30 6988 C 663.417 -1.99401 0.551969 0
M  V30 6989 C 663.832 -1.67816 -0.865048 0
M  V30 6990 O 663.189 -0.927078 -1.57199 0
M  V30 6991 C 663.24 -3.53779 0.743152 0
M  V30 6992 O 662.961 -3.84248 2.1044 0
M  V30 6993 C 664.462 -4.41543 0.39424 0
M  V30 6994 H 661.682 -0.636926 0.211106 0
M  V30 6995 H 664.226 -1.64266 1.21807 0
M  V30 6996 H 662.381 -3.87201 0.124143 0
M  V30 6997 H 662.795 -4.78904 2.13895 0
M  V30 6998 H 664.269 -5.48957 0.578814 0
M  V30 6999 H 664.746 -4.34073 -0.669137 0
M  V30 7000 H 665.352 -4.13605 0.990491 0
M  V30 7001 N 663.667 -0.670007 -1.42649 0
M  V30 7002 C 664.913 -0.19923 -2.02422 0
M  V30 7003 C 665.268 1.17947 -1.52007 0
M  V30 7004 O 664.561 1.77939 -0.710512 0
M  V30 7005 C 664.755 -0.168298 -3.57004 0
M  V30 7006 C 664.584 -1.54246 -4.22419 0
M  V30 7007 C 663.354 -2.13904 -4.57792 0
M  V30 7008 C 665.552 -2.4842 -4.50324 0
M  V30 7009 N 663.534 -3.44151 -5.08364 0
M  V30 7010 C 664.905 -3.63317 -5.02395 0
M  V30 7011 C 666.96 -2.47011 -4.32308 0
M  V30 7012 C 665.663 -4.77051 -5.38345 0
M  V30 7013 C 667.689 -3.59838 -4.6933 0
M  V30 7014 C 667.051 -4.73462 -5.21549 0
M  V30 7015 H 663.15 -0.117717 -0.773089 0
M  V30 7016 H 665.734 -0.881955 -1.73579 0
M  V30 7017 H 663.905 0.483824 -3.85375 0
M  V30 7018 H 665.637 0.314914 -4.03473 0
M  V30 7019 H 662.392 -1.66441 -4.4339 0
M  V30 7020 H 662.816 -4.10846 -5.38084 0
M  V30 7021 H 667.458 -1.60394 -3.91195 0
M  V30 7022 H 665.176 -5.64347 -5.78393 0
M  V30 7023 H 668.762 -3.59969 -4.57071 0
M  V30 7024 H 667.642 -5.59321 -5.49663 0
M  V30 7025 N 665.145 1.52092 -0.413018 0
M  V30 7026 C 666.093 2.28681 0.425199 0
M  V30 7027 C 667.087 1.3353 1.04241 0
M  V30 7028 O 668.293 1.50973 0.980166 0
M  V30 7029 H 664.668 0.735661 0.155906 0
M  V30 7030 H 666.639 2.97418 -0.241926 0
M  V30 7031 C 665.388 3.1235 1.5275 0
M  V30 7032 H 664.711 3.85439 1.06191 0
M  V30 7033 H 666.151 3.69038 2.08774 0
M  V30 7034 C 664.61 2.26161 2.49706 0
M  V30 7035 O 665.14 1.90452 3.53682 0
M  V30 7036 N 663.346 1.89854 2.20008 0
M  V30 7037 H 662.893 2.19092 1.35486 0
M  V30 7038 H 662.851 1.3248 2.85125 0
M  V30 7039 N 666.623 0.143563 1.56945 0
M  V30 7040 C 667.872 -0.50835 1.95189 0
M  V30 7041 C 668.185 -1.66239 1.03073 0
M  V30 7042 O 669.391 -2.3787 1.30882 0
M  V30 7043 C 667.847 -0.955735 3.46978 0
M  V30 7044 C 667.455 0.171183 4.47673 0
M  V30 7045 C 669.199 -1.57763 3.94095 0
M  V30 7046 C 667.106 -0.294279 5.90667 0
M  V30 7047 H 666.036 -0.193679 0.728701 0
M  V30 7048 H 668.687 0.227357 1.82086 0
M  V30 7049 H 667.069 -1.7466 3.55401 0
M  V30 7050 H 668.243 0.948049 4.50942 0
M  V30 7051 H 666.558 0.701273 4.10452 0
M  V30 7052 H 669.155 -1.93745 4.98364 0
M  V30 7053 H 669.498 -2.46531 3.35452 0
M  V30 7054 H 670.031 -0.851728 3.88575 0
M  V30 7055 H 666.77 0.557939 6.53121 0
M  V30 7056 H 666.29 -1.0371 5.90766 0
M  V30 7057 H 667.969 -0.747426 6.42668 0
M  V30 7058 N 668.101 -1.57061 -0.130224 0
M  V30 7059 C 669.031 -2.02552 -1.16168 0
M  V30 7060 C 670.012 -0.907971 -1.4384 0
M  V30 7061 O 671.197 -1.17693 -1.54473 0
M  V30 7062 C 668.327 -2.42035 -2.49071 0
M  V30 7063 C 667.281 -3.5713 -2.35886 0
M  V30 7064 C 666.607 -3.82478 -3.7365 0
M  V30 7065 C 667.907 -4.89236 -1.8288 0
M  V30 7066 H 669.601 -2.8897 -0.783359 0
M  V30 7067 H 667.147 -1.39021 -0.375376 0
M  V30 7068 H 669.1 -2.72462 -3.21469 0
M  V30 7069 H 667.824 -1.52573 -2.88771 0
M  V30 7070 H 666.483 -3.26895 -1.65938 0
M  V30 7071 H 666.131 -2.9024 -4.10816 0
M  V30 7072 H 665.831 -4.59944 -3.65685 0
M  V30 7073 H 667.355 -4.15347 -4.47571 0
M  V30 7074 H 668.769 -5.18272 -2.45085 0
M  V30 7075 H 667.166 -5.70624 -1.85763 0
M  V30 7076 H 668.236 -4.78494 -0.785571 0
M  V30 7077 N 669.579 0.400081 -1.52437 0
M  V30 7078 C 670.804 1.17221 -1.71096 0
M  V30 7079 C 671.229 1.83269 -0.423565 0
M  V30 7080 O 670.587 1.70378 0.619751 0
M  V30 7081 C 670.635 2.20425 -2.85386 0
M  V30 7082 O 669.739 3.26769 -2.51586 0
M  V30 7083 H 669.08 0.341766 -0.569291 0
M  V30 7084 H 671.61 0.467772 -1.99181 0
M  V30 7085 H 671.62 2.64605 -3.10561 0
M  V30 7086 H 670.295 1.71737 -3.78786 0
M  V30 7087 H 668.872 2.87804 -2.37114 0
M  V30 7088 N 671.057 1.43213 0.657864 0
M  V30 7089 C 672.282 1.48227 1.45064 0
M  V30 7090 C 672.707 0.0999939 1.87834 0
M  V30 7091 O 672.065 -0.905269 1.57081 0
M  V30 7092 C 672.113 2.42931 2.6649 0
M  V30 7093 O 671.217 1.91237 3.6538 0
M  V30 7094 H 670.558 0.501551 0.435135 0
M  V30 7095 H 673.088 1.8808 0.805431 0
M  V30 7096 H 673.098 2.6008 3.1436 0
M  V30 7097 H 671.773 3.43348 2.34701 0
M  V30 7098 H 670.35 1.83726 3.24498 0
M  V30 7099 N 672.536 -0.895792 1.29666 0
M  V30 7100 C 673.782 -1.64908 1.18039 0
M  V30 7101 C 674.115 -1.9236 -0.266682 0
M  V30 7102 O 673.39 -1.53682 -1.19214 0
M  V30 7103 C 673.673 -2.99574 1.99819 0
M  V30 7104 C 673.526 -2.79163 3.52687 0
M  V30 7105 C 674.845 -4.00358 1.82761 0
M  V30 7106 H 671.964 -0.598437 0.430165 0
M  V30 7107 H 674.606 -1.03736 1.59182 0
M  V30 7108 H 672.756 -3.51786 1.64859 0
M  V30 7109 H 674.428 -2.33821 3.9765 0
M  V30 7110 H 672.671 -2.13871 3.77414 0
M  V30 7111 H 673.342 -3.74871 4.05186 0
M  V30 7112 H 675.818 -3.57268 2.13304 0
M  V30 7113 H 674.694 -4.92514 2.42325 0
M  V30 7114 H 674.955 -4.35096 0.783839 0
M  V30 7115 N 674.014 -1.12206 -1.10668 0
M  V30 7116 C 675.262 -0.874144 -1.82217 0
M  V30 7117 C 675.583 0.601736 -1.85484 0
M  V30 7118 O 674.853 1.43725 -1.33116 0
M  V30 7119 H 673.433 -0.320404 -0.674797 0
M  V30 7120 H 676.095 -1.41606 -1.33917 0
M  V30 7121 H 675.191 -1.25349 -2.85822 0
M  V30 7122 N 675.492 1.28418 -0.913599 0
M  V30 7123 C 676.717 1.99643 -0.561899 0
M  V30 7124 C 677.142 1.67819 0.849608 0
M  V30 7125 O 676.5 0.910503 1.56779 0
M  V30 7126 C 676.548 3.52116 -0.777622 0
M  V30 7127 O 675.652 4.12076 0.163457 0
M  V30 7128 H 674.993 0.627229 -0.217898 0
M  V30 7129 H 677.523 1.63575 -1.229 0
M  V30 7130 H 677.533 4.02163 -0.687666 0
M  V30 7131 H 676.208 3.74613 -1.8066 0
M  V30 7132 H 674.785 3.72892 0.0247827 0
M  V30 7133 N 676.97 0.677563 1.42291 0
M  V30 7134 C 678.217 0.200975 2.015 0
M  V30 7135 C 678.545 -1.19342 1.53583 0
M  V30 7136 O 677.8 -1.81579 0.7299 0
M  V30 7137 C 678.099 0.187229 3.56909 0
M  V30 7138 C 677.765 1.52667 4.24268 0
M  V30 7139 C 676.427 1.89341 4.42384 0
M  V30 7140 C 678.779 2.40869 4.62203 0
M  V30 7141 C 676.107 3.13836 4.95705 0
M  V30 7142 C 678.459 3.64679 5.16906 0
M  V30 7143 C 677.123 4.01519 5.33234 0
M  V30 7144 H 676.393 0.0735418 0.737342 0
M  V30 7145 H 679.04 0.873095 1.70439 0
M  V30 7146 H 677.345 -0.568407 3.87655 0
M  V30 7147 H 679.042 -0.198773 4.00507 0
M  V30 7148 H 675.632 1.23138 4.1053 0
M  V30 7149 H 679.816 2.1382 4.47878 0
M  V30 7150 H 675.072 3.42396 5.06532 0
M  V30 7151 H 679.246 4.33224 5.45243 0
M  V30 7152 H 676.873 4.98062 5.74316 0
M  V30 7153 N 678.448 -1.51871 0.421078 0
M  V30 7154 C 679.697 -2.01125 -0.152206 0
M  V30 7155 C 680.01 -1.3106 -1.45199 0
M  V30 7156 O 681.216 -1.71195 -2.10724 0
M  V30 7157 C 679.672 -3.58458 -0.3218 0
M  V30 7158 C 679.28 -4.37448 0.96659 0
M  V30 7159 C 681.024 -4.15908 -0.84973 0
M  V30 7160 C 678.931 -5.86451 0.763529 0
M  V30 7161 H 677.861 -0.751556 -0.0606565 0
M  V30 7162 H 680.512 -1.75115 0.548354 0
M  V30 7163 H 678.894 -3.80847 -1.08498 0
M  V30 7164 H 680.068 -4.26814 1.73684 0
M  V30 7165 H 678.383 -3.91373 1.42183 0
M  V30 7166 H 680.98 -5.24922 -1.01788 0
M  V30 7167 H 681.323 -3.74031 -1.82774 0
M  V30 7168 H 681.856 -3.97535 -0.145297 0
M  V30 7169 H 678.595 -6.3271 1.71344 0
M  V30 7170 H 678.115 -5.99791 0.0327889 0
M  V30 7171 H 679.794 -6.45697 0.410354 0
M  V30 7172 N 679.926 -0.151884 -1.56866 0
M  V30 7173 C 681.151 0.508044 -2.01081 0
M  V30 7174 C 681.576 1.57306 -1.03134 0
M  V30 7175 O 680.934 1.81298 -0.0078309 0
M  V30 7176 C 680.982 1.08106 -3.44014 0
M  V30 7177 O 680.086 2.19577 -3.49084 0
M  V30 7178 H 679.427 0.123757 -0.652365 0
M  V30 7179 H 681.957 -0.250055 -2.03066 0
M  V30 7180 H 681.967 1.40851 -3.82916 0
M  V30 7181 H 680.642 0.301168 -4.14808 0
M  V30 7182 H 679.219 1.88023 -3.22027 0
M  V30 7183 N 681.404 1.57128 0.121893 0
M  V30 7184 C 682.334 2.03165 1.15092 0
M  V30 7185 C 683.315 0.915587 1.43356 0
M  V30 7186 O 684.5 1.1851 1.53847 0
M  V30 7187 C 681.63 2.43352 2.47784 0
M  V30 7188 C 680.584 3.58376 2.33989 0
M  V30 7189 C 679.91 3.84454 3.71617 0
M  V30 7190 C 681.21 4.90199 1.80283 0
M  V30 7191 H 682.904 2.89382 0.768023 0
M  V30 7192 H 680.45 1.39218 0.367998 0
M  V30 7193 H 682.403 2.74163 3.20019 0
M  V30 7194 H 681.127 1.54103 2.87958 0
M  V30 7195 H 679.786 3.2777 1.64202 0
M  V30 7196 H 679.434 2.92414 4.09271 0
M  V30 7197 H 679.134 4.61877 3.6324 0
M  V30 7198 H 680.658 4.17714 4.45362 0
M  V30 7199 H 682.072 5.19565 2.42333 0
M  V30 7200 H 680.469 5.71601 1.82735 0
M  V30 7201 H 681.539 4.78904 0.760184 0
M  V30 7202 N 682.882 -0.391992 1.52647 0
M  V30 7203 C 684.11 -1.1586 1.71418 0
M  V30 7204 C 684.525 -1.8381 0.431216 0
M  V30 7205 O 683.882 -1.7256 -0.594085 0
M  V30 7206 C 683.933 -2.20888 2.86165 0
M  V30 7207 O 683.654 -1.5571 4.09495 0
M  V30 7208 C 685.155 -3.103 3.1659 0
M  V30 7209 H 682.375 -0.347494 0.574011 0
M  V30 7210 H 684.919 -0.458972 1.99283 0
M  V30 7211 H 683.074 -2.86492 2.6077 0
M  V30 7212 H 683.488 -2.25474 4.73563 0
M  V30 7213 H 684.962 -3.8003 4.00351 0
M  V30 7214 H 685.439 -3.73639 2.30848 0
M  V30 7215 H 686.045 -2.50345 3.43813 0
M  V30 7216 N 684.36 -1.4356 -0.65026 0
M  V30 7217 C 685.323 -1.48615 -1.74489 0
M  V30 7218 C 686.323 -0.370483 -1.56474 0
M  V30 7219 O 687.513 -0.632351 -1.62317 0
M  V30 7220 C 684.645 -1.34161 -3.13391 0
M  V30 7221 H 685.838 -2.46103 -1.71387 0
M  V30 7222 H 683.391 -1.30369 -0.862186 0
M  V30 7223 H 684.126 -0.376918 -3.22102 0
M  V30 7224 H 683.911 -2.1504 -3.27872 0
M  V30 7225 H 685.401 -1.40637 -3.93206 0
M  V30 7226 N 685.838 0.888903 -1.30139 0
M  V30 7227 C 687.084 1.6428 -1.18912 0
M  V30 7228 C 687.417 1.92499 0.256477 0
M  V30 7229 O 686.692 1.54312 1.18397 0
M  V30 7230 C 686.975 2.9851 -2.01405 0
M  V30 7231 C 686.828 2.77288 -3.54163 0
M  V30 7232 C 688.147 3.99383 -1.84882 0
M  V30 7233 H 685.266 0.596148 -0.433333 0
M  V30 7234 H 687.908 1.0289 -1.5973 0
M  V30 7235 H 686.058 3.50907 -1.66722 0
M  V30 7236 H 687.73 2.31709 -3.98884 0
M  V30 7237 H 685.973 2.11867 -3.78543 0
M  V30 7238 H 686.644 3.72717 -4.07168 0
M  V30 7239 H 689.12 3.56132 -2.15196 0
M  V30 7240 H 687.996 4.91222 -2.44934 0
M  V30 7241 H 688.257 4.34674 -0.806902 0
M  V30 7242 N 687.317 1.12792 1.10072 0
M  V30 7243 C 688.25 0.742921 2.15768 0
M  V30 7244 C 689.228 -0.267714 1.60381 0
M  V30 7245 O 690.412 -0.160782 1.87813 0
M  V30 7246 C 687.539 0.100244 3.38552 0
M  V30 7247 C 686.585 1.07831 4.12644 0
M  V30 7248 S 687.418 2.60765 4.6772 0
M  V30 7249 C 688.574 1.97838 5.9381 0
M  V30 7250 H 688.807 1.63822 2.48092 0
M  V30 7251 H 686.34 0.947385 1.21918 0
M  V30 7252 H 688.298 -0.264175 4.09649 0
M  V30 7253 H 686.959 -0.772223 3.04459 0
M  V30 7254 H 686.152 0.576325 5.00694 0
M  V30 7255 H 685.754 1.38586 3.47376 0
M  V30 7256 H 688.046 1.32341 6.64449 0
M  V30 7257 H 688.989 2.83943 6.48677 0
M  V30 7258 H 689.397 1.43267 5.46017 0
M  V30 7259 N 688.795 -1.27931 0.920396 0
M  V30 7260 C 689.725 -2.29487 0.431024 0
M  V30 7261 C 690.706 -1.62435 -0.504861 0
M  V30 7262 O 691.891 -1.89797 -0.411176 0
M  V30 7263 C 689.021 -3.45788 -0.323709 0
M  V30 7264 C 687.975 -4.24784 0.523658 0
M  V30 7265 C 687.301 -5.33488 -0.359809 0
M  V30 7266 C 688.601 -4.90874 1.78437 0
M  V30 7267 H 690.295 -2.70671 1.27975 0
M  V30 7268 H 687.841 -1.30121 0.616813 0
M  V30 7269 H 689.794 -4.15927 -0.676952 0
M  V30 7270 H 688.518 -3.03502 -1.2064 0
M  V30 7271 H 687.177 -3.56382 0.85951 0
M  V30 7272 H 686.825 -4.87445 -1.24124 0
M  V30 7273 H 686.525 -5.87247 0.203605 0
M  V30 7274 H 688.049 -6.06472 -0.708787 0
M  V30 7275 H 689.463 -5.53339 1.49963 0
M  V30 7276 H 687.86 -5.54659 2.29071 0
M  V30 7277 H 688.93 -4.14988 2.50824 0
M  V30 7278 N 690.273 -0.685099 -1.4193 0
M  V30 7279 C 691.206 0.0371639 -2.2817 0
M  V30 7280 C 692.184 0.798436 -1.41647 0
M  V30 7281 O 693.368 0.791428 -1.71081 0
M  V30 7282 C 690.495 1.05993 -3.21688 0
M  V30 7283 C 689.541 0.393043 -4.24685 0
M  V30 7284 S 690.374 -0.856921 -5.28599 0
M  V30 7285 C 691.53 0.164508 -6.25684 0
M  V30 7286 H 691.763 -0.694305 -2.89079 0
M  V30 7287 H 689.296 -0.474999 -1.46912 0
M  V30 7288 H 691.254 1.64489 -3.76103 0
M  V30 7289 H 689.915 1.7639 -2.59895 0
M  V30 7290 H 689.108 1.16513 -4.90348 0
M  V30 7291 H 688.71 -0.118589 -3.73812 0
M  V30 7292 H 691.002 1.02106 -6.69762 0
M  V30 7293 H 691.945 -0.457917 -7.06618 0
M  V30 7294 H 692.353 0.514596 -5.6215 0
M  V30 7295 N 691.751 1.51645 -0.429126 0
M  V30 7296 C 693 2.01203 0.141538 0
M  V30 7297 C 693.313 1.31828 1.44502 0
M  V30 7298 O 694.519 1.7231 2.09813 0
M  V30 7299 C 692.975 3.58624 0.302786 0
M  V30 7300 C 692.583 4.3693 -0.989775 0
M  V30 7301 C 694.327 4.16353 0.827661 0
M  V30 7302 C 692.234 5.86037 -0.794619 0
M  V30 7303 H 691.164 0.751867 0.05667 0
M  V30 7304 H 693.815 1.74822 -0.557633 0
M  V30 7305 H 692.197 3.81417 1.06476 0
M  V30 7306 H 693.371 4.25887 -1.75945 0
M  V30 7307 H 691.686 3.90614 -1.44256 0
M  V30 7308 H 694.283 5.25455 0.990026 0
M  V30 7309 H 694.626 3.74995 1.80787 0
M  V30 7310 H 695.159 3.97606 0.124213 0
M  V30 7311 H 691.898 6.31792 -1.74697 0
M  V30 7312 H 691.418 5.99765 -0.0645968 0
M  V30 7313 H 693.097 6.45471 -0.444591 0
M  V30 7314 N 693.229 0.160201 1.56784 0
M  V30 7315 C 694.476 -0.487588 1.96542 0
M  V30 7316 C 694.804 -1.63999 1.04569 0
M  V30 7317 O 694.059 -1.95546 0.0775211 0
M  V30 7318 C 694.358 -1.02259 3.42459 0
M  V30 7319 C 694.024 0.0127436 4.50898 0
M  V30 7320 C 692.686 0.297318 4.80281 0
M  V30 7321 C 695.038 0.716078 5.16257 0
M  V30 7322 C 692.366 1.29081 5.72324 0
M  V30 7323 C 694.718 1.69847 6.09372 0
M  V30 7324 C 693.382 1.99061 6.37127 0
M  V30 7325 H 692.652 -0.178421 0.719199 0
M  V30 7326 H 695.299 0.249818 1.89864 0
M  V30 7327 H 693.604 -1.8376 3.46034 0
M  V30 7328 H 695.301 -1.53261 3.70556 0
M  V30 7329 H 691.891 -0.219235 4.28039 0
M  V30 7330 H 696.075 0.509428 4.93679 0
M  V30 7331 H 691.331 1.52344 5.92116 0
M  V30 7332 H 695.505 2.2489 6.59088 0
M  V30 7333 H 693.132 2.76194 7.08252 0
M  V30 7334 N 694.707 -1.5719 -0.113559 0
M  V30 7335 C 695.64 -1.9595 -1.16957 0
M  V30 7336 C 696.618 -0.829951 -1.39823 0
M  V30 7337 O 697.802 -1.08861 -1.53888 0
M  V30 7338 C 694.929 -2.2604 -2.52237 0
M  V30 7339 C 693.975 -3.48571 -2.45765 0
M  V30 7340 S 694.808 -5.00962 -1.89203 0
M  V30 7341 C 695.964 -5.3421 -3.26145 0
M  V30 7342 H 696.197 -2.85214 -0.839069 0
M  V30 7343 H 693.73 -1.51036 -0.320529 0
M  V30 7344 H 695.688 -2.44054 -3.30073 0
M  V30 7345 H 694.349 -1.3738 -2.82463 0
M  V30 7346 H 693.542 -3.67008 -3.45429 0
M  V30 7347 H 693.144 -3.29972 -1.76053 0
M  V30 7348 H 695.436 -5.29725 -4.22371 0
M  V30 7349 H 696.379 -6.35398 -3.12529 0
M  V30 7350 H 696.787 -4.61681 -3.24825 0
M  V30 7351 N 696.185 0.383891 -1.52853 0
M  V30 7352 C 697.434 1.12563 -1.67369 0
M  V30 7353 C 697.747 1.90982 -0.422533 0
M  V30 7354 O 698.953 2.6778 -0.447914 0
M  V30 7355 C 697.409 2.05011 -2.95801 0
M  V30 7356 C 697.017 1.31991 -4.28115 0
M  V30 7357 C 698.761 2.79289 -3.19684 0
M  V30 7358 C 696.668 2.23235 -5.4765 0
M  V30 7359 H 695.598 0.42391 -0.623552 0
M  V30 7360 H 698.249 0.388016 -1.79351 0
M  V30 7361 H 696.631 2.82429 -2.77578 0
M  V30 7362 H 697.805 0.597633 -4.56908 0
M  V30 7363 H 696.12 0.696517 -4.10533 0
M  V30 7364 H 698.717 3.47749 -4.06171 0
M  V30 7365 H 699.06 3.43649 -2.3497 0
M  V30 7366 H 699.593 2.08962 -3.38496 0
M  V30 7367 H 696.332 1.63482 -6.34786 0
M  V30 7368 H 695.852 2.93364 -5.23161 0
M  V30 7369 H 697.531 2.83205 -5.81725 0
M  V30 7370 N 697.663 1.43903 0.642637 0
M  V30 7371 C 698.909 1.47291 1.40275 0
M  V30 7372 C 699.264 0.0996024 1.92142 0
M  V30 7373 O 698.557 -0.883423 1.70018 0
M  V30 7374 C 698.751 2.45907 2.59354 0
M  V30 7375 C 698.58 3.92691 2.19143 0
M  V30 7376 C 697.35 4.6097 2.06966 0
M  V30 7377 C 699.548 4.82231 1.78768 0
M  V30 7378 N 697.53 5.9263 1.60196 0
M  V30 7379 C 698.901 6.03246 1.43159 0
M  V30 7380 C 700.956 4.69397 1.66045 0
M  V30 7381 C 699.659 7.12851 0.961014 0
M  V30 7382 C 701.685 5.79016 1.20392 0
M  V30 7383 C 701.047 6.99164 0.857271 0
M  V30 7384 H 697.146 0.594055 0.50855 0
M  V30 7385 H 699.73 1.80153 0.738434 0
M  V30 7386 H 697.901 2.15054 3.23429 0
M  V30 7387 H 699.633 2.39665 3.26102 0
M  V30 7388 H 696.388 4.15622 2.27058 0
M  V30 7389 H 696.812 6.62547 1.39143 0
M  V30 7390 H 701.454 3.76954 1.91482 0
M  V30 7391 H 699.172 8.05113 0.694148 0
M  V30 7392 H 702.758 5.71109 1.11023 0
M  V30 7393 H 701.638 7.82544 0.509408 0
M  V30 7394 N 699.141 -0.881989 1.30609 0
M  V30 7395 C 700.051 -2.02076 1.19174 0
M  V30 7396 C 701.067 -1.73645 0.11102 0
M  V30 7397 O 702.243 -1.98735 0.326528 0
M  V30 7398 C 699.308 -3.3515 0.887438 0
M  V30 7399 C 698.369 -3.76983 2.05383 0
M  V30 7400 C 697.602 -5.03707 1.76395 0
M  V30 7401 O 697.825 -5.66171 0.693302 0
M  V30 7402 O 696.759 -5.42019 2.61723 0
M  V30 7403 H 700.585 -2.14652 2.14845 0
M  V30 7404 H 698.17 -1.00843 1.10232 0
M  V30 7405 H 700.052 -4.14975 0.73306 0
M  V30 7406 H 698.727 -3.23676 -0.0393354 0
M  V30 7407 H 697.634 -2.97849 2.26355 0
M  V30 7408 H 698.967 -3.93066 2.96243 0
M  V30 7409 N 700.619 -1.13374 -1.09472 0
M  V30 7410 C 701.582 -0.813639 -2.14272 0
M  V30 7411 C 702.582 0.176677 -1.59826 0
M  V30 7412 O 703.772 -0.0503441 -1.74127 0
M  V30 7413 C 700.904 -0.210897 -3.40247 0
M  V30 7414 H 702.097 -1.74229 -2.44099 0
M  V30 7415 H 699.65 -0.938304 -1.25002 0
M  V30 7416 H 700.385 0.726998 -3.16046 0
M  V30 7417 H 700.17 -0.924048 -3.81056 0
M  V30 7418 H 701.66 -0.00377603 -4.176 0
M  V30 7419 N 702.098 1.27442 -0.927168 0
M  V30 7420 C 703.345 1.94391 -0.567324 0
M  V30 7421 C 703.673 1.72875 0.891321 0
M  V30 7422 O 702.928 1.05071 1.65102 0
M  V30 7423 C 703.227 3.47413 -0.838994 0
M  V30 7424 C 702.893 3.89049 -2.2793 0
M  V30 7425 C 701.555 4.00127 -2.67305 0
M  V30 7426 C 703.907 4.10154 -3.21595 0
M  V30 7427 C 701.235 4.29697 -3.99471 0
M  V30 7428 C 703.587 4.41208 -4.53341 0
M  V30 7429 C 702.251 4.50499 -4.92551 0
M  V30 7430 H 701.521 0.711325 -0.207598 0
M  V30 7431 H 704.168 1.51523 -1.17103 0
M  V30 7432 H 702.473 3.91503 -0.152609 0
M  V30 7433 H 704.17 3.97354 -0.53955 0
M  V30 7434 H 700.76 3.80962 -1.96381 0
M  V30 7435 H 704.944 4.01036 -2.92377 0
M  V30 7436 H 700.2 4.35099 -4.29533 0
M  V30 7437 H 704.374 4.56486 -5.25922 0
M  V30 7438 H 702.001 4.73167 -5.94994 0
M  V30 7439 N 703.576 0.692616 1.41565 0
M  V30 7440 C 704.539 0.0344174 2.29174 0
M  V30 7441 C 705.539 -0.710961 1.44229 0
M  V30 7442 O 706.729 -0.546293 1.65412 0
M  V30 7443 C 703.861 -0.961682 3.27054 0
M  V30 7444 H 705.054 0.805755 2.88873 0
M  V30 7445 H 702.607 0.455947 1.49502 0
M  V30 7446 H 703.342 -1.76089 2.72329 0
M  V30 7447 H 703.127 -0.430375 3.89731 0
M  V30 7448 H 704.617 -1.4201 3.92712 0
M  V30 7449 N 705.054 -1.51416 0.437162 0
M  V30 7450 C 706.279 -2.0699 -0.130424 0
M  V30 7451 C 706.704 -1.30249 -1.35709 0
M  V30 7452 O 706.062 -0.340388 -1.78076 0
M  V30 7453 C 706.11 -3.5801 -0.43142 0
M  V30 7454 O 705.214 -3.8345 -1.5179 0
M  V30 7455 H 704.555 -0.663997 -0.00194339 0
M  V30 7456 H 707.085 -1.95029 0.618445 0
M  V30 7457 H 707.095 -4.02261 -0.681926 0
M  V30 7458 H 705.77 -4.13291 0.465137 0
M  V30 7459 H 704.347 -3.51062 -1.25737 0
M  V30 7460 N 706.532 -0.168513 -1.56696 0
M  V30 7461 C 707.479 0.762875 -2.17828 0
M  V30 7462 C 708.449 1.22892 -1.11745 0
M  V30 7463 O 709.634 1.29759 -1.39883 0
M  V30 7464 C 706.774 1.9879 -2.82093 0
M  V30 7465 C 705.887 1.56568 -4.02629 0
M  V30 7466 C 705.022 2.74416 -4.54829 0
M  V30 7467 C 704.061 2.28671 -5.67782 0
M  V30 7468 N 703.198 3.39602 -6.14504 0
M  V30 7469 H 708.038 0.23479 -2.97074 0
M  V30 7470 H 705.575 0.104163 -1.46731 0
M  V30 7471 H 707.533 2.70636 -3.17509 0
M  V30 7472 H 706.163 2.48973 -2.05456 0
M  V30 7473 H 705.215 0.744067 -3.73052 0
M  V30 7474 H 706.527 1.18988 -4.844 0
M  V30 7475 H 705.681 3.54423 -4.92412 0
M  V30 7476 H 704.42 3.15254 -3.7211 0
M  V30 7477 H 703.425 1.4711 -5.29753 0
M  V30 7478 H 704.65 1.88894 -6.52301 0
M  V30 7479 H 702.596 3.80021 -5.34715 0
M  V30 7480 H 702.513 3.06105 -6.91257 0
M  V30 7481 H 703.781 4.19902 -6.56737 0
M  V30 7482 N 708.01 1.57248 0.105221 0
M  V30 7483 C 709.426 1.52853 0.459153 0
M  V30 7484 C 709.626 0.883674 1.8109 0
M  V30 7485 O 708.682 0.471864 2.48052 0
M  V30 7486 C 709.995 2.97596 0.43096 0
M  V30 7487 C 711.543 3.08758 0.513536 0
M  V30 7488 C 712.018 4.55089 0.515593 0
M  V30 7489 N 713.509 4.59597 0.576639 0
M  V30 7490 C 714.244 5.70253 0.599904 0
M  V30 7491 N 713.74 6.90368 0.579985 0
M  V30 7492 N 715.533 5.58399 0.643953 0
M  V30 7493 H 707.684 1.97547 -0.780306 0
M  V30 7494 H 709.947 0.902758 -0.289363 0
M  V30 7495 H 709.653 3.48201 -0.494903 0
M  V30 7496 H 709.527 3.55756 1.2537 0
M  V30 7497 H 711.914 2.58148 1.42982 0
M  V30 7498 H 711.995 2.53568 -0.337148 0
M  V30 7499 H 711.639 5.06348 -0.396701 0
M  V30 7500 H 711.569 5.08105 1.38335 0
M  V30 7501 H 714.06 3.73144 0.597639 0
M  V30 7502 H 714.373 7.70462 0.600741 0
M  V30 7503 H 712.718 6.92843 0.547191 0
M  V30 7504 H 715.909 4.63467 0.656975 0
M  V30 7505 H 716.082 6.44644 0.658616 0
M  V30 7506 N 709.488 -0.375779 1.53054 0
M  V30 7507 C 710.435 -1.45978 1.78771 0
M  V30 7508 C 711.405 -1.53625 0.631552 0
M  V30 7509 O 712.59 -1.69674 0.872667 0
M  V30 7510 C 709.73 -2.8305 1.97425 0
M  V30 7511 C 708.843 -2.84451 3.25134 0
M  V30 7512 C 707.978 -4.13034 3.34031 0
M  V30 7513 C 707.017 -4.08536 4.55812 0
M  V30 7514 N 706.154 -5.2875 4.61918 0
M  V30 7515 H 710.994 -1.23349 2.71273 0
M  V30 7516 H 708.531 -0.598147 1.3439 0
M  V30 7517 H 710.489 -3.62666 2.06225 0
M  V30 7518 H 709.119 -3.04101 1.0827 0
M  V30 7519 H 708.171 -1.97127 3.25338 0
M  V30 7520 H 709.483 -2.76998 4.14818 0
M  V30 7521 H 708.637 -5.0106 3.42087 0
M  V30 7522 H 707.376 -4.23226 2.42345 0
M  V30 7523 H 706.381 -3.18897 4.47867 0
M  V30 7524 H 707.606 -3.99955 5.48828 0
M  V30 7525 H 705.552 -5.39547 3.73129 0
M  V30 7526 H 705.469 -5.23426 5.45492 0
M  V30 7527 H 706.737 -6.18637 4.74245 0
M  V30 7528 N 710.966 -1.44241 -0.634997 0
M  V30 7529 C 712.212 -1.47038 -1.39669 0
M  V30 7530 C 712.545 -0.101122 -1.93937 0
M  V30 7531 O 711.82 0.880699 -1.73418 0
M  V30 7532 C 712.103 -2.52763 -2.56482 0
M  V30 7533 C 711.956 -3.99032 -2.07589 0
M  V30 7534 C 713.275 -2.55031 -3.58674 0
M  V30 7535 H 710.394 -0.53537 -0.506506 0
M  V30 7536 H 713.036 -1.75898 -0.718317 0
M  V30 7537 H 711.186 -2.28284 -3.14354 0
M  V30 7538 H 712.858 -4.3463 -1.54577 0
M  V30 7539 H 711.101 -4.10994 -1.38804 0
M  V30 7540 H 711.772 -4.68649 -2.91671 0
M  V30 7541 H 714.248 -2.76893 -3.10595 0
M  V30 7542 H 713.124 -3.30916 -4.37934 0
M  V30 7543 H 713.385 -1.59085 -4.12486 0
M  V30 7544 N 712.444 0.87505 -1.31075 0
M  V30 7545 C 713.374 1.99775 -1.20881 0
M  V30 7546 C 714.355 1.69822 -0.0971612 0
M  V30 7547 O 715.54 1.92158 -0.280895 0
M  V30 7548 C 712.67 3.35163 -0.910118 0
M  V30 7549 C 711.624 3.79406 -1.98078 0
M  V30 7550 C 710.95 5.12197 -1.53488 0
M  V30 7551 C 712.25 3.97061 -3.39323 0
M  V30 7552 H 713.944 2.08562 -2.14808 0
M  V30 7553 H 711.49 1.00207 -1.03415 0
M  V30 7554 H 713.443 4.13237 -0.825423 0
M  V30 7555 H 712.167 3.26536 0.064822 0
M  V30 7556 H 710.826 3.03568 -2.05528 0
M  V30 7557 H 710.474 5.00007 -0.547941 0
M  V30 7558 H 710.174 5.4277 -2.2511 0
M  V30 7559 H 711.698 5.92785 -1.46417 0
M  V30 7560 H 713.112 4.65545 -3.34576 0
M  V30 7561 H 711.509 4.39025 -4.09118 0
M  V30 7562 H 712.579 3.00601 -3.80483 0
M  V30 7563 N 713.922 1.13953 1.08869 0
M  V30 7564 C 714.855 0.765765 2.14968 0
M  V30 7565 C 715.833 -0.250689 1.60656 0
M  V30 7566 O 717.017 -0.140852 1.87973 0
M  V30 7567 C 714.144 0.136146 3.38426 0
M  V30 7568 C 713.19 1.12201 4.11477 0
M  V30 7569 S 714.023 2.65711 4.64928 0
M  V30 7570 C 715.179 2.04125 5.91679 0
M  V30 7571 H 715.412 1.66444 2.46341 0
M  V30 7572 H 712.945 0.960263 1.20906 0
M  V30 7573 H 714.903 -0.220712 4.09906 0
M  V30 7574 H 713.564 -0.739887 3.05261 0
M  V30 7575 H 712.757 0.629398 5.00055 0
M  V30 7576 H 712.359 1.42262 3.45886 0
M  V30 7577 H 714.651 1.39381 6.63008 0
M  V30 7578 H 715.594 2.90808 6.45629 0
M  V30 7579 H 716.002 1.4905 5.44467 0
M  V30 7580 N 715.4 -1.26948 0.933913 0
M  V30 7581 C 716.646 -1.94374 0.57848 0
M  V30 7582 C 716.979 -1.73166 -0.879048 0
M  V30 7583 O 716.254 -1.06438 -1.62792 0
M  V30 7584 C 716.537 -3.4834 0.912739 0
M  V30 7585 C 716.39 -3.78866 2.42448 0
M  V30 7586 C 717.709 -4.38062 0.423003 0
M  V30 7587 H 714.828 -0.705959 0.211639 0
M  V30 7588 H 717.47 -1.49951 1.16682 0
M  V30 7589 H 715.62 -3.86309 0.412058 0
M  V30 7590 H 717.292 -3.50654 2.99733 0
M  V30 7591 H 715.535 -3.25198 2.87104 0
M  V30 7592 H 716.206 -4.86458 2.60887 0
M  V30 7593 H 718.682 -4.0728 0.852191 0
M  V30 7594 H 717.558 -5.44599 0.685776 0
M  V30 7595 H 717.819 -4.36886 -0.676994 0
M  V30 7596 N 716.879 -0.700114 -1.41195 0
M  V30 7597 C 717.789 -0.0382854 -2.34569 0
M  V30 7598 C 718.805 0.761036 -1.56474 0
M  V30 7599 O 719.981 0.697553 -1.88934 0
M  V30 7600 C 717.046 0.883522 -3.35253 0
M  V30 7601 C 716.107 0.0758957 -4.29233 0
M  V30 7602 C 715.34 0.9538 -5.25108 0
M  V30 7603 O 715.563 2.19326 -5.26547 0
M  V30 7604 O 714.497 0.401049 -6.00562 0
M  V30 7605 H 718.323 -0.808073 -2.92752 0
M  V30 7606 H 715.908 -0.460479 -1.42127 0
M  V30 7607 H 717.79 1.41199 -3.9704 0
M  V30 7608 H 716.465 1.63272 -2.79506 0
M  V30 7609 H 715.372 -0.497274 -3.7078 0
M  V30 7610 H 716.705 -0.634741 -4.8809 0
M  V30 7611 N 718.357 1.51182 -0.445186 0
M  V30 7612 C 719.267 2.31692 0.368255 0
M  V30 7613 C 720.283 1.40942 1.02036 0
M  V30 7614 O 721.459 1.74011 1.01401 0
M  V30 7615 C 718.524 3.14903 1.45041 0
M  V30 7616 C 717.585 4.21442 0.817615 0
M  V30 7617 C 716.818 5.00677 1.8482 0
M  V30 7618 O 717.041 4.80644 3.07145 0
M  V30 7619 O 715.975 5.84559 1.43438 0
M  V30 7620 H 719.801 3.0232 -0.289219 0
M  V30 7621 H 717.386 1.47951 -0.207555 0
M  V30 7622 H 719.268 3.66612 2.07783 0
M  V30 7623 H 717.943 2.47031 2.09182 0
M  V30 7624 H 716.85 3.73791 0.151931 0
M  V30 7625 H 718.183 4.9171 0.219564 0
M  V30 7626 N 719.835 0.176821 1.56605 0
M  V30 7627 C 721.246 -0.338963 1.83597 0
M  V30 7628 C 721.597 -1.62677 1.09684 0
M  V30 7629 O 720.722 -2.13524 0.351661 0
M  V30 7630 C 721.317 -0.62177 3.33046 0
M  V30 7631 C 719.876 -1.08198 3.60514 0
M  V30 7632 C 719.023 -0.120774 2.77037 0
M  V30 7633 H 721.974 0.400978 1.53551 0
M  V30 7634 H 721.995 -1.47321 3.50823 0
M  V30 7635 H 721.507 0.315692 3.86814 0
M  V30 7636 H 719.608 -2.03435 3.12162 0
M  V30 7637 H 719.721 -0.987329 4.68816 0
M  V30 7638 H 718.085 -0.619192 2.47059 0
M  V30 7639 H 718.868 0.810806 3.33588 0
M  V30 7640 N 721.313 -1.57302 -0.09688 0
M  V30 7641 C 722.538 -1.9058 -0.818169 0
M  V30 7642 C 722.963 -0.770921 -1.71576 0
M  V30 7643 O 722.321 0.277588 -1.79162 0
M  V30 7644 C 722.369 -3.22714 -1.60898 0
M  V30 7645 O 721.473 -3.10178 -2.71779 0
M  V30 7646 H 720.814 -0.624759 -0.224882 0
M  V30 7647 H 723.344 -2.04471 -0.07264 0
M  V30 7648 H 723.354 -3.55978 -1.99358 0
M  V30 7649 H 722.029 -4.04899 -0.950227 0
M  V30 7650 H 720.606 -2.88424 -2.3636 0
M  V30 7651 N 722.791 0.367657 -1.53252 0
M  V30 7652 C 723.724 1.47264 -1.74323 0
M  V30 7653 C 724.702 1.51458 -0.591535 0
M  V30 7654 O 725.886 1.69542 -0.823883 0
M  V30 7655 C 723.013 2.85637 -1.82015 0
M  V30 7656 C 722.059 2.99176 -3.03967 0
M  V30 7657 S 722.892 2.68147 -4.63527 0
M  V30 7658 C 724.048 4.08673 -4.74065 0
M  V30 7659 H 724.281 1.29169 -2.67773 0
M  V30 7660 H 721.814 0.561866 -1.43814 0
M  V30 7661 H 723.772 3.65365 -1.87132 0
M  V30 7662 H 722.433 3.01043 -0.896195 0
M  V30 7663 H 721.626 4.00511 -3.05953 0
M  V30 7664 H 721.228 2.27367 -2.96952 0
M  V30 7665 H 723.52 5.02889 -4.53992 0
M  V30 7666 H 724.463 4.11693 -5.7612 0
M  V30 7667 H 724.871 3.95576 -4.02716 0
M  V30 7668 N 724.269 1.44576 0.627338 0
M  V30 7669 C 725.217 1.52039 1.76031 0
M  V30 7670 C 726.211 0.391796 1.64807 0
M  V30 7671 O 727.417 0.5669 1.7084 0
M  V30 7672 H 723.792 0.477165 0.581221 0
M  V30 7673 H 725.763 2.47387 1.6686 0
M  V30 7674 C 724.512 1.48539 3.14375 0
M  V30 7675 H 723.835 2.34699 3.23661 0
M  V30 7676 H 725.275 1.57821 3.93534 0
M  V30 7677 C 723.734 0.20672 3.36265 0
M  V30 7678 O 724.264 -0.72154 3.95167 0
M  V30 7679 N 722.47 0.108654 2.90397 0
M  V30 7680 H 722.017 0.864884 2.42647 0
M  V30 7681 H 721.975 -0.746121 3.05418 0
M  V30 7682 N 725.747 -0.868086 1.31537 0
M  V30 7683 C 726.677 -1.99131 1.21939 0
M  V30 7684 C 727.658 -1.69768 0.106166 0
M  V30 7685 O 728.843 -1.92006 0.291081 0
M  V30 7686 C 725.973 -3.34676 0.927879 0
M  V30 7687 C 724.927 -3.7835 2.00088 0
M  V30 7688 C 724.253 -5.11375 1.56203 0
M  V30 7689 C 725.553 -3.95256 3.41424 0
M  V30 7690 H 727.247 -2.07419 2.15911 0
M  V30 7691 H 724.793 -0.996569 1.03945 0
M  V30 7692 H 726.746 -4.12793 0.847327 0
M  V30 7693 H 725.47 -3.26565 -0.0475042 0
M  V30 7694 H 724.129 -3.02474 2.07135 0
M  V30 7695 H 723.777 -4.99709 0.57445 0
M  V30 7696 H 723.477 -5.41568 2.27985 0
M  V30 7697 H 725.001 -5.92001 1.49558 0
M  V30 7698 H 726.415 -4.63764 3.3704 0
M  V30 7699 H 724.812 -4.36849 4.1144 0
M  V30 7700 H 725.882 -2.98579 3.82072 0
M  V30 7701 N 727.225 -1.14528 -1.08264 0
M  V30 7702 C 728.135 -0.84728 -2.18765 0
M  V30 7703 C 729.151 0.172826 -1.7314 0
M  V30 7704 O 730.327 0.000985336 -2.014 0
M  V30 7705 C 727.392 -0.330633 -3.4512 0
M  V30 7706 C 726.453 -1.41348 -4.05363 0
M  V30 7707 C 725.686 -0.921387 -5.25686 0
M  V30 7708 O 725.909 0.236587 -5.69909 0
M  V30 7709 O 724.843 -1.70101 -5.77364 0
M  V30 7710 H 728.669 -1.7708 -2.46731 0
M  V30 7711 H 726.254 -0.923661 -1.17426 0
M  V30 7712 H 728.136 -0.0485053 -4.21372 0
M  V30 7713 H 726.811 0.565147 -3.18728 0
M  V30 7714 H 725.718 -1.74908 -3.30693 0
M  V30 7715 H 727.051 -2.28383 -4.36007 0
M  V30 7716 N 728.703 1.26451 -0.940633 0
M  V30 7717 C 729.949 1.94401 -0.598303 0
M  V30 7718 C 730.304 1.72449 0.853178 0
M  V30 7719 O 729.597 1.0506 1.60228 0
M  V30 7720 C 729.791 3.46503 -0.875794 0
M  V30 7721 C 729.62 3.83247 -2.3527 0
M  V30 7722 C 728.39 4.06032 -3.00776 0
M  V30 7723 C 730.588 3.91841 -3.33114 0
M  V30 7724 N 728.57 4.29656 -4.38485 0
M  V30 7725 C 729.941 4.19991 -4.56078 0
M  V30 7726 C 731.996 3.74466 -3.28146 0
M  V30 7727 C 730.699 4.32574 -5.74693 0
M  V30 7728 C 732.725 3.88281 -4.46085 0
M  V30 7729 C 732.087 4.16829 -5.67831 0
M  V30 7730 H 728.186 0.734168 -0.269297 0
M  V30 7731 H 730.77 1.52541 -1.20992 0
M  V30 7732 H 728.941 3.87292 -0.293223 0
M  V30 7733 H 730.673 4.01664 -0.494788 0
M  V30 7734 H 727.428 4.01369 -2.51396 0
M  V30 7735 H 727.852 4.45501 -5.09762 0
M  V30 7736 H 732.494 3.51424 -2.35077 0
M  V30 7737 H 730.212 4.54438 -6.68215 0
M  V30 7738 H 733.798 3.76241 -4.43773 0
M  V30 7739 H 732.678 4.27284 -6.5757 0
M  V30 7740 N 730.181 0.707592 1.40822 0
M  V30 7741 C 731.111 0.0644925 2.33411 0
M  V30 7742 C 732.092 -0.754205 1.52466 0
M  V30 7743 O 733.277 -0.704749 1.80961 0
M  V30 7744 C 730.407 -0.863865 3.36385 0
M  V30 7745 C 729.361 -0.15138 4.27732 0
M  V30 7746 C 728.687 -1.19491 5.21177 0
M  V30 7747 C 729.987 0.989607 5.12839 0
M  V30 7748 H 731.681 0.837829 2.87438 0
M  V30 7749 H 729.227 0.404346 1.38207 0
M  V30 7750 H 731.18 -1.32309 4.0009 0
M  V30 7751 H 729.904 -1.66901 2.80734 0
M  V30 7752 H 728.563 0.287937 3.65467 0
M  V30 7753 H 728.211 -1.9929 4.61836 0
M  V30 7754 H 727.911 -0.723123 5.83134 0
M  V30 7755 H 729.435 -1.6544 5.8776 0
M  V30 7756 H 730.849 0.610114 5.70044 0
M  V30 7757 H 729.246 1.38926 5.83798 0
M  V30 7758 H 730.316 1.82389 4.49291 0
M  V30 7759 N 731.66 -1.50943 0.453197 0
M  V30 7760 C 732.89 -2.06328 -0.105981 0
M  V30 7761 C 733.298 -1.31909 -1.35634 0
M  V30 7762 O 732.641 -0.376607 -1.79798 0
M  V30 7763 C 732.703 -3.5631 -0.477868 0
M  V30 7764 C 732.367 -4.52093 0.667925 0
M  V30 7765 C 733.364 -4.96421 1.54475 0
M  V30 7766 C 731.049 -4.95001 0.853168 0
M  V30 7767 C 733.043 -5.82346 2.59138 0
M  V30 7768 C 730.73 -5.80713 1.90305 0
M  V30 7769 C 731.728 -6.24284 2.77053 0
M  V30 7770 O 731.416 -7.08291 3.80236 0
M  V30 7771 H 731.148 -0.675986 -0.00427247 0
M  V30 7772 H 733.702 -1.95314 0.635738 0
M  V30 7773 H 731.932 -3.65163 -1.27252 0
M  V30 7774 H 733.621 -3.94138 -0.970039 0
M  V30 7775 H 734.387 -4.63953 1.41324 0
M  V30 7776 H 730.266 -4.60619 0.187482 0
M  V30 7777 H 733.81 -6.16276 3.2688 0
M  V30 7778 H 729.707 -6.12593 2.03469 0
M  V30 7779 H 730.475 -7.26504 3.77007 0
M  V30 7780 N 733.138 -0.185124 -1.56509 0
M  V30 7781 C 734.386 0.455357 -1.96903 0
M  V30 7782 C 734.707 1.62839 -1.07277 0
M  V30 7783 O 733.977 1.95385 -0.141966 0
M  V30 7784 H 732.557 0.171218 -0.727113 0
M  V30 7785 H 735.219 -0.26953 -1.93027 0
M  V30 7786 H 734.315 0.80616 -3.01509 0
M  V30 7787 N 734.616 1.57351 0.0885366 0
M  V30 7788 C 735.856 1.88248 0.796362 0
M  V30 7789 C 736.22 0.776915 1.75579 0
M  V30 7790 O 737.421 0.968485 2.50747 0
M  V30 7791 C 735.692 3.24385 1.50031 0
M  V30 7792 S 737.251 3.76991 2.24551 0
M  V30 7793 H 734.069 0.659697 0.265181 0
M  V30 7794 H 736.671 1.95428 0.0531843 0
M  V30 7795 H 735.375 4.02764 0.788 0
M  V30 7796 H 734.906 3.20361 2.28325 0
M  V30 7797 H 736.921 3.50933 3.508 0
M  V30 7798 N 736.094 -0.359525 1.53444 0
M  V30 7799 C 737.505 -0.936009 1.61542 0
M  V30 7800 C 737.856 -1.90069 0.486633 0
M  V30 7801 O 736.981 -2.12929 -0.386047 0
M  V30 7802 C 737.576 -1.70441 2.92806 0
M  V30 7803 C 736.135 -2.23015 3.03218 0
M  V30 7804 C 735.282 -1.04438 2.56881 0
M  V30 7805 H 738.233 -0.138134 1.58098 0
M  V30 7806 H 738.254 -2.56609 2.80948 0
M  V30 7807 H 737.766 -1.00205 3.74941 0
M  V30 7808 H 735.867 -2.96475 2.25684 0
M  V30 7809 H 735.98 -2.50481 4.08407 0
M  V30 7810 H 734.344 -1.41314 2.11902 0
M  V30 7811 H 735.127 -0.356905 3.4144 0
M  V30 7812 N 737.572 -1.44907 -0.619662 0
M  V30 7813 C 738.983 -1.42905 -1.20146 0
M  V30 7814 C 739.334 -0.150341 -1.95623 0
M  V30 7815 O 738.459 0.748732 -2.03034 0
M  V30 7816 C 739.054 -2.58889 -2.18545 0
M  V30 7817 C 737.613 -2.60046 -2.72127 0
M  V30 7818 C 736.76 -2.3493 -1.4732 0
M  V30 7819 H 739.711 -1.53321 -0.409666 0
M  V30 7820 H 739.732 -2.32298 -3.0136 0
M  V30 7821 H 739.244 -3.51941 -1.63583 0
M  V30 7822 H 737.345 -1.70968 -3.3106 0
M  V30 7823 H 737.458 -3.58893 -3.17384 0
M  V30 7824 H 735.822 -1.84248 -1.75855 0
M  V30 7825 H 736.605 -3.3011 -0.942442 0
M  V30 7826 N 739.05 0.861098 -1.31996 0
M  V30 7827 C 740.461 1.43065 -1.19955 0
M  V30 7828 C 740.812 1.95273 0.190489 0
M  V30 7829 O 739.937 1.87012 1.08882 0
M  V30 7830 C 740.532 2.60052 -2.1716 0
M  V30 7831 C 739.091 3.13026 -2.09026 0
M  V30 7832 C 738.238 1.85756 -2.05888 0
M  V30 7833 H 741.189 0.668834 -1.43918 0
M  V30 7834 H 741.21 3.37016 -1.76637 0
M  V30 7835 H 740.722 2.22024 -3.18319 0
M  V30 7836 H 738.823 3.55653 -1.11092 0
M  V30 7837 H 738.936 3.74707 -2.98549 0
M  V30 7838 H 737.3 2.05088 -1.51033 0
M  V30 7839 H 738.083 1.49954 -3.08818 0
M  V30 7840 N 740.528 1.15101 1.07655 0
M  V30 7841 C 741.758 0.946357 1.83651 0
M  V30 7842 C 742.166 -0.508641 1.82235 0
M  V30 7843 O 741.509 -1.36445 1.22997 0
M  V30 7844 C 741.571 1.37945 3.31981 0
M  V30 7845 C 741.235 2.85155 3.57122 0
M  V30 7846 C 742.232 3.83234 3.51323 0
M  V30 7847 C 739.917 3.2275 3.84887 0
M  V30 7848 C 741.911 5.16914 3.72932 0
M  V30 7849 C 739.598 4.56604 4.06148 0
M  V30 7850 C 740.596 5.53495 4.00165 0
M  V30 7851 O 740.284 6.84931 4.20861 0
M  V30 7852 H 740.016 0.336368 0.586372 0
M  V30 7853 H 742.57 1.53198 1.36819 0
M  V30 7854 H 740.8 0.737205 3.79608 0
M  V30 7855 H 742.489 1.14439 3.89434 0
M  V30 7856 H 743.255 3.55535 3.29878 0
M  V30 7857 H 739.134 2.47921 3.88659 0
M  V30 7858 H 742.678 5.92529 3.68178 0
M  V30 7859 H 738.575 4.84019 4.27078 0
M  V30 7860 H 739.343 6.91304 4.38226 0
M  V30 7861 N 742.006 -1.2595 0.947325 0
M  V30 7862 C 742.956 -2.23859 0.432547 0
M  V30 7863 C 743.94 -1.53755 -0.474154 0
M  V30 7864 O 745.132 -1.74293 -0.308397 0
M  V30 7865 C 742.261 -3.42027 -0.295318 0
M  V30 7866 C 741.347 -4.19409 0.62903 0
M  V30 7867 N 741.738 -4.74284 1.7575 0
M  V30 7868 C 740.036 -4.43866 0.435805 0
M  V30 7869 C 740.737 -5.32821 2.33401 0
M  V30 7870 N 739.713 -5.18858 1.62135 0
M  V30 7871 H 743.515 -2.63886 1.29388 0
M  V30 7872 H 741.029 -1.41105 0.80393 0
M  V30 7873 H 743.026 -4.11297 -0.681188 0
M  V30 7874 H 741.686 -3.03526 -1.15334 0
M  V30 7875 H 742.697 -4.71641 2.13952 0
M  V30 7876 H 739.374 -4.15768 -0.37994 0
M  V30 7877 H 740.764 -5.86111 3.28517 0
M  V30 7878 N 743.484 -0.715051 -1.40445 0
M  V30 7879 C 744.712 -0.263959 -2.05209 0
M  V30 7880 C 745.127 1.09403 -1.53871 0
M  V30 7881 O 744.484 1.68746 -0.695064 0
M  V30 7882 C 744.535 -0.234545 -3.60738 0
M  V30 7883 O 744.256 -1.53891 -4.10182 0
M  V30 7884 C 745.757 0.235164 -4.42676 0
M  V30 7885 H 742.977 -0.11876 -0.660407 0
M  V30 7886 H 745.521 -0.973107 -1.79864 0
M  V30 7887 H 743.676 0.425563 -3.85055 0
M  V30 7888 H 744.09 -1.43903 -5.04373 0
M  V30 7889 H 745.564 0.204598 -5.51621 0
M  V30 7890 H 746.041 1.27724 -4.20218 0
M  V30 7891 H 746.647 -0.394649 -4.23465 0
M  V30 7892 N 744.962 1.50701 -0.461195 0
M  V30 7893 C 746.209 2.02267 0.0971971 0
M  V30 7894 C 746.537 1.34387 1.40608 0
M  V30 7895 O 745.792 0.455254 1.90331 0
M  V30 7896 C 746.091 3.55788 0.33908 0
M  V30 7897 C 745.757 4.42092 -0.886885 0
M  V30 7898 C 744.419 4.65398 -1.22304 0
M  V30 7899 C 746.771 4.92571 -1.70361 0
M  V30 7900 C 744.099 5.36429 -2.37616 0
M  V30 7901 C 746.451 5.64868 -2.84793 0
M  V30 7902 C 745.115 5.86431 -3.18834 0
M  V30 7903 H 744.385 0.740146 0.0355669 0
M  V30 7904 H 747.032 1.81415 -0.61326 0
M  V30 7905 H 745.337 3.751 1.13168 0
M  V30 7906 H 747.034 3.93243 0.784937 0
M  V30 7907 H 743.624 4.24165 -0.614981 0
M  V30 7908 H 747.808 4.74428 -1.4571 0
M  V30 7909 H 743.064 5.51333 -2.64276 0
M  V30 7910 H 747.238 6.02966 -3.48432 0
M  V30 7911 H 744.865 6.41248 -4.08296 0
M  V30 7912 N 746.441 0.193421 1.56409 0
M  V30 7913 C 747.351 -0.740112 2.2262 0
M  V30 7914 C 748.367 -1.23597 1.22474 0
M  V30 7915 O 749.543 -1.28348 1.55206 0
M  V30 7916 C 746.608 -1.94317 2.87127 0
M  V30 7917 C 745.669 -1.49205 4.02538 0
M  V30 7918 C 744.902 -2.63776 4.63959 0
M  V30 7919 O 745.125 -3.81215 4.24301 0
M  V30 7920 O 744.059 -2.36585 5.53454 0
M  V30 7921 H 747.885 -0.206238 3.02999 0
M  V30 7922 H 745.47 -0.0357938 1.49357 0
M  V30 7923 H 747.352 -2.64633 3.27944 0
M  V30 7924 H 746.027 -2.46568 2.09728 0
M  V30 7925 H 744.934 -0.757738 3.66346 0
M  V30 7926 H 746.267 -1.01622 4.81595 0
M  V30 7927 N 747.919 -1.57396 -0.0801906 0
M  V30 7928 C 748.829 -2.06451 -1.11423 0
M  V30 7929 C 749.845 -0.992352 -1.42928 0
M  V30 7930 O 751.021 -1.30651 -1.53272 0
M  V30 7931 C 748.086 -2.49164 -2.41077 0
M  V30 7932 C 747.147 -3.70641 -2.16619 0
M  V30 7933 C 746.38 -4.11307 -3.40092 0
M  V30 7934 O 746.603 -3.51922 -4.48895 0
M  V30 7935 O 745.537 -5.04157 -3.288 0
M  V30 7936 H 749.363 -2.94857 -0.727519 0
M  V30 7937 H 746.948 -1.46484 -0.293743 0
M  V30 7938 H 748.83 -2.77196 -3.17396 0
M  V30 7939 H 747.505 -1.6389 -2.79145 0
M  V30 7940 H 746.412 -3.47703 -1.38033 0
M  V30 7941 H 747.745 -4.5674 -1.83437 0
M  V30 7942 N 749.397 0.351382 -1.53633 0
M  V30 7943 C 750.808 0.927429 -1.62036 0
M  V30 7944 C 751.159 1.89809 -0.496706 0
M  V30 7945 O 750.284 2.1313 0.374749 0
M  V30 7946 C 750.879 1.68886 -2.93706 0
M  V30 7947 C 749.438 2.21404 -3.04397 0
M  V30 7948 C 748.585 1.03075 -2.57431 0
M  V30 7949 H 751.536 0.129748 -1.58169 0
M  V30 7950 H 751.557 2.55116 -2.82305 0
M  V30 7951 H 751.069 0.982149 -3.75467 0
M  V30 7952 H 749.17 2.95274 -2.27253 0
M  V30 7953 H 749.283 2.48312 -4.09729 0
M  V30 7954 H 747.647 1.40188 -2.12649 0
M  V30 7955 H 748.43 0.338793 -3.41624 0
M  V30 7956 N 750.875 1.45233 0.611969 0
M  V30 7957 C 752.121 1.49242 1.37312 0
M  V30 7958 C 752.454 0.131963 1.93751 0
M  V30 7959 O 751.729 -0.852999 1.74798 0
M  V30 7960 C 752.012 2.56811 2.52428 0
M  V30 7961 C 751.865 4.02284 2.01215 0
M  V30 7962 C 753.184 2.60705 3.54572 0
M  V30 7963 H 750.303 0.54336 0.497925 0
M  V30 7964 H 752.945 1.77019 0.690242 0
M  V30 7965 H 751.095 2.33256 3.10683 0
M  V30 7966 H 752.767 4.37035 1.47643 0
M  V30 7967 H 751.01 4.1315 1.32248 0
M  V30 7968 H 751.681 4.7323 2.84178 0
M  V30 7969 H 754.157 2.81799 3.06151 0
M  V30 7970 H 753.033 3.37841 4.32614 0
M  V30 7971 H 753.294 1.65627 4.09903 0
M  V30 7972 N 752.353 -0.854086 1.3245 0
M  V30 7973 C 753.583 -1.63836 1.25862 0
M  V30 7974 C 753.991 -1.88383 -0.175588 0
M  V30 7975 O 753.334 -1.45353 -1.1233 0
M  V30 7976 C 753.396 -3.02068 1.94923 0
M  V30 7977 C 753.06 -3.0056 3.44257 0
M  V30 7978 C 754.057 -2.77368 4.39731 0
M  V30 7979 C 751.742 -3.21177 3.862 0
M  V30 7980 C 753.736 -2.74797 5.75122 0
M  V30 7981 C 751.423 -3.18234 5.217 0
M  V30 7982 C 752.421 -2.95072 6.15972 0
M  V30 7983 O 752.109 -2.92003 7.48992 0
M  V30 7984 H 751.841 -0.517007 0.435523 0
M  V30 7985 H 754.395 -1.07314 1.75137 0
M  V30 7986 H 752.625 -3.60382 1.40219 0
M  V30 7987 H 754.314 -3.62791 1.82037 0
M  V30 7988 H 755.08 -2.61205 4.08653 0
M  V30 7989 H 750.959 -3.38231 3.13243 0
M  V30 7990 H 754.503 -2.56638 6.48678 0
M  V30 7991 H 750.4 -3.33941 5.52407 0
M  V30 7992 H 751.168 -3.07953 7.58358 0
M  V30 7993 N 753.831 -1.1567 -1.07043 0
M  V30 7994 C 754.764 -0.799867 -2.13723 0
M  V30 7995 C 755.742 0.225098 -1.61034 0
M  V30 7996 O 756.926 0.11093 -1.88173 0
M  V30 7997 C 754.053 -0.18997 -3.38167 0
M  V30 7998 C 753.099 -1.18733 -4.0964 0
M  V30 7999 S 753.932 -2.73074 -4.60642 0
M  V30 8000 C 755.088 -2.13512 -5.88356 0
M  V30 8001 H 755.321 -1.70342 -2.43661 0
M  V30 8002 H 752.854 -0.979377 -1.19363 0
M  V30 8003 H 754.812 0.155471 -4.10205 0
M  V30 8004 H 753.473 0.691229 -3.064 0
M  V30 8005 H 752.666 -0.708873 -4.9899 0
M  V30 8006 H 752.268 -1.47747 -3.43579 0
M  V30 8007 H 754.56 -1.49911 -6.60706 0
M  V30 8008 H 755.503 -3.01042 -6.40921 0
M  V30 8009 H 755.911 -1.57693 -5.42027 0
M  V30 8010 N 755.309 1.25446 -0.953992 0
M  V30 8011 C 756.256 2.25912 -0.472485 0
M  V30 8012 C 757.226 1.59173 0.47469 0
M  V30 8013 O 758.411 1.86812 0.388082 0
M  V30 8014 C 755.551 3.44235 0.244218 0
M  V30 8015 C 754.664 4.25613 -0.740121 0
M  V30 8016 C 753.799 5.312 -0.000922267 0
M  V30 8017 C 752.838 6.04265 -0.976236 0
M  V30 8018 N 751.975 7.01589 -0.267952 0
M  V30 8019 H 756.815 2.66469 -1.3341 0
M  V30 8020 H 754.352 1.31005 -0.669045 0
M  V30 8021 H 756.31 4.11682 0.676314 0
M  V30 8022 H 754.94 3.04554 1.06988 0
M  V30 8023 H 753.992 3.57834 -1.2907 0
M  V30 8024 H 755.304 4.762 -1.48441 0
M  V30 8025 H 754.458 6.04719 0.48984 0
M  V30 8026 H 753.197 4.81484 0.776159 0
M  V30 8027 H 752.202 5.29561 -1.478 0
M  V30 8028 H 753.427 6.5607 -1.75354 0
M  V30 8029 H 751.373 6.54164 0.490403 0
M  V30 8030 H 751.29 7.4999 -0.951344 0
M  V30 8031 H 752.558 7.7924 0.201294 0
M  V30 8032 N 756.787 0.722489 1.40064 0
M  V30 8033 C 758.012 0.273446 2.05589 0
M  V30 8034 C 758.437 -1.07875 1.54093 0
M  V30 8035 O 757.795 -1.68095 0.679252 0
M  V30 8036 C 757.843 0.271023 3.5958 0
M  V30 8037 O 756.947 -0.745499 4.05606 0
M  V30 8038 H 756.288 0.126856 0.65177 0
M  V30 8039 H 758.818 0.984906 1.79334 0
M  V30 8040 H 758.828 0.111084 4.07849 0
M  V30 8041 H 757.503 1.25776 3.96425 0
M  V30 8042 H 756.08 -0.552719 3.68781 0
M  V30 8043 O 758.304 -1.49494 0.611055 0
M  V30 8044 H 758.995 -1.93303 0.123934 0
M  V30 END ATOM
M  V30 BEGIN BOND
M  V30 END BOND
M  V30 END CTAB
M  END
$$$$
