drugbank_target|P00437 Protocatechuate 3,4-dioxygenase beta chain (DB01702)
 OpenBabel12092120453D

  0  0  0     0  0            999 V3000
M  V30 BEGIN CTAB
M  V30 COUNTS 3741 3797 0 0 0
M  V30 BEGIN ATOM
M  V30 1 H -0.908 1.98254 -0.117106 0
M  V30 2 N 0 1.576 0 0
M  V30 3 C 0.933 2.03868 1.02534 0
M  V30 4 C 1.911 0.928543 1.3348 0
M  V30 5 O 3.095 1.19667 1.45644 0
M  V30 6 C 0.222 2.43627 2.35294 0
M  V30 7 C -0.732 3.65373 2.2001 0
M  V30 8 S 0.101 5.13292 1.52614 0
M  V30 9 C 1.257 5.56322 2.86805 0
M  V30 10 H 1.49 2.90518 0.631377 0
M  V30 11 H -0.977 1.52953 0.210867 0
M  V30 12 H 0.981 2.67203 3.11629 0
M  V30 13 H -0.358 1.57376 2.7183 0
M  V30 14 H -1.165 3.90944 3.18086 0
M  V30 15 H -1.563 3.418 1.51819 0
M  V30 16 H 0.729 5.58782 3.83104 0
M  V30 17 H 1.672 6.56266 2.65933 0
M  V30 18 H 2.08 4.83886 2.90714 0
M  V30 19 N 1.4781 -0.272755 1.55222 0
M  V30 20 C 2.8891 -0.84378 1.66545 0
M  V30 21 C 3.2401 -1.87035 0.592641 0
M  V30 22 O 2.3651 -2.14761 -0.265818 0
M  V30 23 C 2.9601 -1.53723 3.01918 0
M  V30 24 C 1.5191 -2.05628 3.15268 0
M  V30 25 C 0.6661 -0.898424 2.62343 0
M  V30 26 H 3.6171 -0.0490998 1.58624 0
M  V30 27 H 3.6381 -2.40421 2.94921 0
M  V30 28 H 3.1501 -0.78983 3.79978 0
M  V30 29 H 1.2511 -2.83329 2.41983 0
M  V30 30 H 1.3641 -2.27142 4.21833 0
M  V30 31 H -0.2719 -1.29186 2.19506 0
M  V30 32 H 0.5111 -0.164528 3.42906 0
M  V30 33 N 2.9562 -1.48159 -0.537278 0
M  V30 34 C 3.9192 -1.61665 -1.62472 0
M  V30 35 C 4.9192 -0.490395 -1.5314 0
M  V30 36 O 6.1092 -0.755998 -1.5694 0
M  V30 37 C 3.2412 -1.57997 -3.02076 0
M  V30 38 H 4.4342 -2.58621 -1.51839 0
M  V30 39 H 1.9872 -1.36647 -0.758771 0
M  V30 40 H 2.7222 -0.624913 -3.18222 0
M  V30 41 H 2.5072 -2.39755 -3.10258 0
M  V30 42 H 3.9972 -1.70627 -3.81151 0
M  V30 43 N 4.4343 0.785586 -1.36625 0
M  V30 44 C 5.3663 1.90711 -1.2713 0
M  V30 45 C 6.3793 1.61688 -0.189986 0
M  V30 46 O 7.5683 1.72864 -0.445014 0
M  V30 47 C 4.6683 3.25611 -0.939713 0
M  V30 48 C 3.8413 3.82385 -2.12369 0
M  V30 49 C 2.9003 4.95732 -1.76456 0
M  V30 50 O 1.9263 5.12047 -2.48589 0
M  V30 51 N 3.1283 5.76258 -0.700492 0
M  V30 52 H 5.8933 1.99376 -2.23762 0
M  V30 53 H 3.4543 0.964041 -1.30069 0
M  V30 54 H 5.4463 3.98937 -0.680554 0
M  V30 55 H 4.0163 3.12538 -0.0624074 0
M  V30 56 H 3.2363 3.01001 -2.54543 0
M  V30 57 H 4.5243 4.17047 -2.9146 0
M  V30 58 H 3.9223 5.65609 -0.101624 0
M  V30 59 H 2.4793 6.4987 -0.501165 0
M  V30 60 N 5.9124 1.20967 1.01018 0
M  V30 61 C 7.1894 0.93264 1.71934 0
M  V30 62 C 7.5694 -0.55692 2.03621 0
M  V30 63 O 6.9174 -1.52035 1.7058 0
M  V30 64 C 7.1274 1.81233 2.98254 0
M  V30 65 C 8.4754 2.05804 3.71389 0
M  V30 66 O 9.4994 1.78539 3.08225 0
M  V30 67 O 8.3584 2.51888 4.84989 0
M  V30 68 H 5.4524 0.349272 0.749625 0
M  V30 69 H 7.9984 1.31871 1.06808 0
M  V30 70 H 6.7704 2.82067 2.71208 0
M  V30 71 H 6.3934 1.42674 3.7112 0
M  V30 72 N 7.3905 -1.2043 1.01659 0
M  V30 73 C 8.3385 -2.25249 0.580143 0
M  V30 74 C 9.3325 -1.65057 -0.381115 0
M  V30 75 O 10.5385 -1.78241 -0.251039 0
M  V30 76 H 6.9135 -0.732695 0.169299 0
M  V30 77 H 8.8845 -2.59389 1.47512 0
M  V30 78 C 7.6335 -3.47638 -0.065788 0
M  V30 79 H 6.9565 -3.94233 0.664874 0
M  V30 80 H 8.3965 -4.2268 -0.334282 0
M  V30 81 C 6.8555 -3.10447 -1.3086 0
M  V30 82 O 7.3855 -3.21981 -2.4019 0
M  V30 83 N 5.5915 -2.64996 -1.1927 0
M  V30 84 H 5.1385 -2.55811 -0.303064 0
M  V30 85 H 5.0965 -2.40482 -2.02523 0
M  V30 86 N 8.8686 -0.792821 -1.36206 0
M  V30 87 C 10.0936 -0.377701 -2.03932 0
M  V30 88 C 10.5186 0.998947 -1.59382 0
M  V30 89 O 9.8766 1.64421 -0.763903 0
M  V30 90 C 9.9246 -0.453635 -3.57735 0
M  V30 91 O 9.0286 0.538151 -4.08874 0
M  V30 92 H 8.3696 -0.159855 -0.644471 0
M  V30 93 H 10.8996 -1.07488 -1.7409 0
M  V30 94 H 10.9096 -0.318464 -4.06755 0
M  V30 95 H 9.5846 -1.45784 -3.89512 0
M  V30 96 H 8.1616 0.364359 -3.71116 0
M  V30 97 N 10.3467 1.47872 -0.545128 0
M  V30 98 C 11.7627 1.5829 -0.204032 0
M  V30 99 C 11.9627 1.54529 1.29317 0
M  V30 100 O 11.0187 1.44232 2.07252 0
M  V30 101 C 12.3317 2.89304 -0.819987 0
M  V30 102 C 13.8797 3.02864 -0.790105 0
M  V30 103 C 14.3547 4.3656 -1.38491 0
M  V30 104 N 15.8457 4.43165 -1.34755 0
M  V30 105 C 16.5807 5.45153 -1.77753 0
M  V30 106 N 16.0767 6.54016 -2.2855 0
M  V30 107 N 17.8697 5.36125 -1.68897 0
M  V30 108 H 10.0207 1.4856 -1.51802 0
M  V30 109 H 12.2837 0.706305 -0.632327 0
M  V30 110 H 11.9897 2.97757 -1.87173 0
M  V30 111 H 11.8637 3.75957 -0.305915 0
M  V30 112 H 14.2507 2.94014 0.252913 0
M  V30 113 H 14.3317 2.17782 -1.34181 0
M  V30 114 H 13.9757 4.46164 -2.42693 0
M  V30 115 H 13.9057 5.20353 -0.808754 0
M  V30 116 H 16.3967 3.65083 -0.975855 0
M  V30 117 H 16.7097 7.27994 -2.59314 0
M  V30 118 H 15.0547 6.54938 -2.32553 0
M  V30 119 H 18.2457 4.49975 -1.28998 0
M  V30 120 H 18.4187 6.15472 -2.02726 0
M  V30 121 N 11.8248 0.280983 1.55075 0
M  V30 122 C 13.0718 -0.334115 1.99725 0
M  V30 123 C 13.3998 -1.5542 1.1694 0
M  V30 124 O 12.6548 -1.94361 0.228531 0
M  V30 125 C 12.9538 -0.754656 3.49342 0
M  V30 126 C 12.6198 0.361445 4.49449 0
M  V30 127 C 11.2818 0.667893 4.76542 0
M  V30 128 C 13.6338 1.11322 5.09173 0
M  V30 129 C 10.9618 1.7296 5.60626 0
M  V30 130 C 13.3138 2.1647 5.9441 0
M  V30 131 C 11.9778 2.47742 6.19822 0
M  V30 132 H 11.2478 -0.122261 0.730844 0
M  V30 133 H 13.8948 0.395917 1.87363 0
M  V30 134 H 12.1998 -1.56446 3.5921 0
M  V30 135 H 13.8968 -1.24142 3.813 0
M  V30 136 H 10.4868 0.112481 4.28452 0
M  V30 137 H 14.6708 0.88973 4.8826 0
M  V30 138 H 9.9268 1.97684 5.78559 0
M  V30 139 H 14.1008 2.75193 6.3972 0
M  V30 140 H 11.7278 3.30145 6.84769 0
M  V30 141 N 13.3029 -1.57598 0.00835791 0
M  V30 142 C 14.5489 -1.91211 -0.675732 0
M  V30 143 C 14.8819 -0.883139 -1.72958 0
M  V30 144 O 14.1569 0.097016 -1.94258 0
M  V30 145 C 14.4399 -3.35379 -1.31123 0
M  V30 146 C 14.2929 -4.48999 -0.268356 0
M  V30 147 C 15.6119 -3.7912 -2.23508 0
M  V30 148 H 12.7309 -0.695374 -0.244179 0
M  V30 149 H 15.3729 -1.89901 0.0613655 0
M  V30 150 H 13.5229 -3.36626 -1.93946 0
M  V30 151 H 15.1949 -4.59887 0.360844 0
M  V30 152 H 13.4379 -4.31873 0.408482 0
M  V30 153 H 14.1089 -5.46851 -0.752218 0
M  V30 154 H 16.5849 -3.79477 -1.70693 0
M  V30 155 H 15.4609 -4.80729 -2.64936 0
M  V30 156 H 15.7219 -3.13455 -3.11766 0
M  V30 157 N 14.781 0.264519 -1.55364 0
M  V30 158 C 16.03 0.992812 -1.75574 0
M  V30 159 C 16.343 1.87142 -0.568979 0
M  V30 160 O 17.549 2.63513 -0.653682 0
M  V30 161 C 16.005 1.81519 -3.10771 0
M  V30 162 C 15.613 0.984839 -4.37041 0
M  V30 163 C 17.357 2.53727 -3.40327 0
M  V30 164 C 15.264 1.80209 -5.63275 0
M  V30 165 H 14.194 0.374412 -0.65447 0
M  V30 166 H 16.845 0.248138 -1.81815 0
M  V30 167 H 15.227 2.60115 -2.98591 0
M  V30 168 H 16.401 0.242455 -4.60162 0
M  V30 169 H 14.716 0.37691 -4.14691 0
M  V30 170 H 17.313 3.15292 -4.3185 0
M  V30 171 H 17.656 3.24447 -2.60845 0
M  V30 172 H 18.189 1.82156 -3.53644 0
M  V30 173 H 14.928 1.13896 -6.45529 0
M  V30 174 H 14.448 2.52022 -5.44284 0
M  V30 175 H 16.127 2.37364 -6.01887 0
M  V30 176 N 16.2591 1.48442 0.529413 0
M  V30 177 C 17.6751 1.34575 0.858004 0
M  V30 178 C 17.8751 0.3572 1.98309 0
M  V30 179 O 16.9311 -0.221379 2.51528 0
M  V30 180 C 18.2441 2.74617 1.22499 0
M  V30 181 C 19.7921 2.83109 1.33484 0
M  V30 182 C 20.2671 4.23854 1.73526 0
M  V30 183 N 21.7581 4.2653 1.80628 0
M  V30 184 C 22.4931 5.32372 2.12997 0
M  V30 185 N 21.9891 6.48491 2.43786 0
M  V30 186 N 23.7821 5.19766 2.14008 0
M  V30 187 H 15.9331 2.1133 -0.212925 0
M  V30 188 H 18.1961 0.947439 -0.0326199 0
M  V30 189 H 17.9021 3.4852 0.471905 0
M  V30 190 H 17.7761 3.08177 2.17501 0
M  V30 191 H 20.1631 2.09462 2.0787 0
M  V30 192 H 20.2441 2.53168 0.366027 0
M  V30 193 H 19.8881 4.98018 0.997013 0
M  V30 194 H 19.8181 4.5124 2.71459 0
M  V30 195 H 22.3091 3.42772 1.59108 0
M  V30 196 H 22.6221 7.24993 2.67592 0
M  V30 197 H 20.9671 6.51765 2.41304 0
M  V30 198 H 24.1581 4.28066 1.89412 0
M  V30 199 H 24.3311 6.02354 2.38902 0
M  V30 200 N 17.7372 -0.778329 1.37039 0
M  V30 201 C 19.0142 -1.52551 1.22424 0
M  V30 202 C 19.3942 -2.10288 -0.184964 0
M  V30 203 O 18.7422 -1.94953 -1.19187 0
M  V30 204 C 18.9522 -2.61164 2.31504 0
M  V30 205 C 20.3002 -3.28746 2.68721 0
M  V30 206 O 21.3242 -2.71455 2.30631 0
M  V30 207 O 20.1832 -4.3231 3.3432 0
M  V30 208 H 17.2772 -0.675343 0.477326 0
M  V30 209 H 19.8232 -0.815859 1.48801 0
M  V30 210 H 18.5952 -2.16574 3.25901 0
M  V30 211 H 18.2182 -3.39737 2.06554 0
M  V30 212 N 19.2153 -1.21501 -1.00376 0
M  V30 213 C 20.6313 -0.972629 -1.26539 0
M  V30 214 C 20.8313 0.340257 -1.98606 0
M  V30 215 O 19.8873 1.06561 -2.28913 0
M  V30 216 C 21.2003 -2.16404 -2.08781 0
M  V30 217 C 22.7483 -2.20643 -2.22004 0
M  V30 218 C 23.2233 -3.39306 -3.07629 0
M  V30 219 N 24.7143 -3.39401 -3.15217 0
M  V30 220 C 25.4493 -4.27867 -3.81729 0
M  V30 221 N 24.9453 -5.26533 -4.5026 0
M  V30 222 N 26.7383 -4.15672 -3.78382 0
M  V30 223 H 18.8893 -2.05929 -0.520281 0
M  V30 224 H 21.1523 -0.901803 -0.292328 0
M  V30 225 H 20.8583 -3.11554 -1.63178 0
M  V30 226 H 20.7323 -2.15567 -3.09533 0
M  V30 227 H 23.1193 -1.26048 -2.66825 0
M  V30 228 H 23.2003 -2.25523 -1.20718 0
M  V30 229 H 22.8443 -4.34195 -2.63509 0
M  V30 230 H 22.7743 -3.31665 -4.09031 0
M  V30 231 H 25.2653 -2.67997 -2.66432 0
M  V30 232 H 25.5783 -5.90337 -4.98721 0
M  V30 233 H 23.9233 -5.30457 -4.49044 0
M  V30 234 H 27.1143 -3.3785 -3.23998 0
M  V30 235 H 27.2873 -4.84825 -4.2994 0
M  V30 236 N 20.6934 1.19889 -1.02296 0
M  V30 237 C 21.6414 2.24938 -0.592081 0
M  V30 238 C 22.6354 1.65257 0.372357 0
M  V30 239 O 23.8414 1.78371 0.241583 0
M  V30 240 H 20.2164 0.731787 -0.173182 0
M  V30 241 H 22.1874 2.58603 -1.48885 0
M  V30 242 C 20.9364 3.47668 0.047351 0
M  V30 243 H 20.2594 3.93875 -0.685772 0
M  V30 244 H 21.6994 4.22852 0.311862 0
M  V30 245 C 20.1584 3.11136 1.29212 0
M  V30 246 O 20.6884 3.2325 2.38479 0
M  V30 247 N 18.8944 2.65625 1.17863 0
M  V30 248 H 18.4414 2.55968 0.289493 0
M  V30 249 H 18.3994 2.41553 2.01245 0
M  V30 250 N 22.1715 0.800033 1.35784 0
M  V30 251 C 23.4175 0.38701 1.99684 0
M  V30 252 C 23.7725 -1.03268 1.62338 0
M  V30 253 O 23.0655 -1.70543 0.87325 0
M  V30 254 C 23.2595 0.500276 3.53881 0
M  V30 255 C 23.0885 1.92942 4.06206 0
M  V30 256 C 21.8585 2.55637 4.35865 0
M  V30 257 C 24.0565 2.89307 4.25213 0
M  V30 258 N 22.0385 3.9003 4.74078 0
M  V30 259 C 23.4095 4.08556 4.66349 0
M  V30 260 C 25.4645 2.86225 4.07406 0
M  V30 261 C 24.1675 5.25146 4.91543 0
M  V30 262 C 26.1935 4.02011 4.33752 0
M  V30 263 C 25.5555 5.20007 4.75155 0
M  V30 264 H 21.6545 0.189252 0.758754 0
M  V30 265 H 24.2385 1.03988 1.64604 0
M  V30 266 H 22.4095 -0.122568 3.88207 0
M  V30 267 H 24.1415 0.0624733 4.04652 0
M  V30 268 H 20.8965 2.07039 4.25948 0
M  V30 269 H 21.3205 4.59205 4.97454 0
M  V30 270 H 25.9625 1.96154 3.74544 0
M  V30 271 H 23.6805 6.15794 5.23281 0
M  V30 272 H 27.2665 4.00999 4.21534 0
M  V30 273 H 26.1465 6.08113 4.95145 0
M  V30 274 N 23.6496 -1.47581 0.552962 0
M  V30 275 C 24.5996 -2.26961 -0.217423 0
M  V30 276 C 25.5836 -1.34099 -0.889168 0
M  V30 277 O 26.7756 -1.58483 -0.788176 0
M  V30 278 C 23.9046 -3.19756 -1.24944 0
M  V30 279 C 22.9906 -4.20097 -0.581327 0
M  V30 280 N 23.3816 -5.04614 0.346171 0
M  V30 281 C 21.6796 -4.38099 -0.835767 0
M  V30 282 C 22.3806 -5.77052 0.733854 0
M  V30 283 N 21.3566 -5.43526 0.0896567 0
M  V30 284 H 25.1586 -2.89688 0.495761 0
M  V30 285 H 22.6726 -1.58068 0.372597 0
M  V30 286 H 24.6696 -3.75305 -1.81527 0
M  V30 287 H 23.3296 -2.58585 -1.96376 0
M  V30 288 H 24.3406 -5.12869 0.720098 0
M  V30 289 H 21.0176 -3.88102 -1.53892 0
M  V30 290 H 22.4076 -6.5504 1.49574 0
M  V30 291 N 25.1277 -0.289203 -1.54924 0
M  V30 292 C 26.5387 0.205791 -1.85562 0
M  V30 293 C 26.8897 1.54351 -1.2112 0
M  V30 294 O 26.0147 2.10435 -0.504601 0
M  V30 295 C 26.6097 0.380177 -3.3666 0
M  V30 296 C 25.1687 0.819395 -3.67373 0
M  V30 297 C 24.3157 -0.079159 -2.77187 0
M  V30 298 H 27.2667 -0.510577 -1.50262 0
M  V30 299 H 27.2877 1.21659 -3.60526 0
M  V30 300 H 26.7997 -0.593589 -3.83534 0
M  V30 301 H 24.9007 1.80413 -3.26009 0
M  V30 302 H 25.0137 0.646957 -4.74712 0
M  V30 303 H 23.3777 0.439565 -2.50878 0
M  V30 304 H 24.1607 -1.04906 -3.26878 0
M  V30 305 N 26.6058 1.57591 -0.0167156 0
M  V30 306 C 27.5528 2.09462 0.969251 0
M  V30 307 C 28.5228 0.99381 1.33089 0
M  V30 308 O 29.7078 1.26726 1.42636 0
M  V30 309 C 26.8478 2.61622 2.25051 0
M  V30 310 C 25.9608 3.85666 1.94642 0
M  V30 311 C 25.0958 4.26266 3.16972 0
M  V30 312 C 24.1348 5.43101 2.82326 0
M  V30 313 N 23.2718 5.78915 3.97243 0
M  V30 314 H 28.1118 2.93428 0.519997 0
M  V30 315 H 25.6488 1.45044 0.245087 0
M  V30 316 H 27.6068 2.89949 2.99976 0
M  V30 317 H 26.2368 1.80505 2.67615 0
M  V30 318 H 25.2888 3.64145 1.10013 0
M  V30 319 H 26.6008 4.70678 1.65117 0
M  V30 320 H 25.7548 4.55963 4.00228 0
M  V30 321 H 24.4938 3.39996 3.49648 0
M  V30 322 H 23.4988 5.1311 1.97479 0
M  V30 323 H 24.7238 6.3106 2.50879 0
M  V30 324 H 22.6698 4.95602 4.29785 0
M  V30 325 H 22.5868 6.58539 3.71299 0
M  V30 326 H 23.8548 6.13212 4.81239 0
M  V30 327 N 28.0839 -0.256276 1.55502 0
M  V30 328 C 29.0469 -1.30047 1.88734 0
M  V30 329 C 30.0469 -1.4154 0.763086 0
M  V30 330 O 31.2369 -1.40403 1.03115 0
M  V30 331 C 28.3689 -2.67953 2.10747 0
M  V30 332 H 29.5619 -1.01802 2.82093 0
M  V30 333 H 27.1149 -0.495134 1.4825 0
M  V30 334 H 27.8499 -3.01351 1.19825 0
M  V30 335 H 27.6349 -2.60993 2.92617 0
M  V30 336 H 29.1249 -3.43368 2.37673 0
M  V30 337 N 29.562 -1.4872 -0.521534 0
M  V30 338 C 30.492 -1.66771 -1.63431 0
M  V30 339 C 31.473 -0.516499 -1.62069 0
M  V30 340 O 32.658 -0.750013 -1.79132 0
M  V30 341 C 29.788 -1.71515 -3.01993 0
M  V30 342 C 28.742 -2.86222 -3.18216 0
M  V30 343 C 28.068 -2.76061 -4.57924 0
M  V30 344 C 29.368 -4.27419 -3.00184 0
M  V30 345 H 31.062 -2.59932 -1.48579 0
M  V30 346 H 28.608 -1.25089 -0.713358 0
M  V30 347 H 30.561 -1.82731 -3.7972 0
M  V30 348 H 29.285 -0.749393 -3.17886 0
M  V30 349 H 27.944 -2.74575 -2.42908 0
M  V30 350 H 27.592 -1.77437 -4.70665 0
M  V30 351 H 27.292 -3.53037 -4.69722 0
M  V30 352 H 28.816 -2.89256 -5.37739 0
M  V30 353 H 30.23 -4.39855 -3.67697 0
M  V30 354 H 28.627 -5.05458 -3.2347 0
M  V30 355 H 29.697 -4.43293 -1.96518 0
M  V30 356 N 31.0401 0.771051 -1.3745 0
M  V30 357 C 32.2681 1.56015 -1.35893 0
M  V30 358 C 32.6831 1.88718 0.0555523 0
M  V30 359 O 32.0401 1.51502 1.01752 0
M  V30 360 C 32.0911 2.87001 -2.19801 0
M  V30 361 O 31.8121 2.557 -3.55738 0
M  V30 362 C 33.3131 3.81228 -2.26231 0
M  V30 363 H 30.5331 0.483317 -0.465453 0
M  V30 364 H 33.0771 0.955611 -1.80799 0
M  V30 365 H 31.2321 3.43877 -1.78402 0
M  V30 366 H 31.6461 3.39584 -3.99729 0
M  V30 367 H 33.1201 4.70139 -2.89263 0
M  V30 368 H 33.5971 4.20409 -1.27093 0
M  V30 369 H 34.2031 3.30281 -2.67945 0
M  V30 370 N 32.5182 1.22032 0.997298 0
M  V30 371 C 33.9292 1.0397 1.55071 0
M  V30 372 C 34.2802 -0.398192 1.92117 0
M  V30 373 O 33.4052 -1.28254 1.74298 0
M  V30 374 C 34.0002 1.88109 2.81781 0
M  V30 375 C 32.5592 1.74357 3.33581 0
M  V30 376 C 31.7062 1.84846 2.06706 0
M  V30 377 H 34.6572 1.35941 0.818883 0
M  V30 378 H 34.6782 1.39589 3.53971 0
M  V30 379 H 34.1902 2.92754 2.54787 0
M  V30 380 H 32.2912 0.72427 3.65493 0
M  V30 381 H 32.4042 2.56772 4.04481 0
M  V30 382 H 30.7682 1.28238 2.20062 0
M  V30 383 H 31.5512 2.91014 1.82114 0
M  V30 384 N 33.9963 -1.19345 1.0293 0
M  V30 385 C 35.2733 -1.84811 0.640642 0
M  V30 386 C 35.6533 -1.91855 -0.88062 0
M  V30 387 O 35.0013 -1.43587 -1.7775 0
M  V30 388 C 35.2113 -3.23755 1.30321 0
M  V30 389 C 36.5593 -3.99912 1.42673 0
M  V30 390 O 37.5833 -3.33155 1.26041 0
M  V30 391 O 36.4423 -5.19494 1.6967 0
M  V30 392 H 33.5363 -0.796443 0.222726 0
M  V30 393 H 36.0823 -1.26831 1.12748 0
M  V30 394 H 34.8543 -3.13466 2.34211 0
M  V30 395 H 34.4773 -3.89381 0.804261 0
M  V30 396 N 35.4744 -0.807222 -1.35358 0
M  V30 397 C 36.7044 -0.399796 -2.02695 0
M  V30 398 C 37.1124 0.994176 -1.60974 0
M  V30 399 O 36.4554 1.65209 -0.803226 0
M  V30 400 C 36.5174 -0.404445 -3.57218 0
M  V30 401 C 36.1814 -1.74904 -4.22206 0
M  V30 402 C 37.1784 -2.70743 -4.4384 0
M  V30 403 C 34.8634 -2.03322 -4.5931 0
M  V30 404 C 36.8574 -3.93183 -5.01683 0
M  V30 405 C 34.5444 -3.26026 -5.16866 0
M  V30 406 C 35.5424 -4.20774 -5.37994 0
M  V30 407 O 35.2304 -5.41312 -5.94337 0
M  V30 408 H 34.9624 -0.160517 -0.656666 0
M  V30 409 H 37.5164 -1.09235 -1.73945 0
M  V30 410 H 35.7464 0.344707 -3.85161 0
M  V30 411 H 37.4354 -0.0192429 -4.05895 0
M  V30 412 H 38.2014 -2.5008 -4.15554 0
M  V30 413 H 34.0804 -1.30384 -4.42178 0
M  V30 414 H 37.6244 -4.6715 -5.1809 0
M  V30 415 H 33.5214 -3.46559 -5.44579 0
M  V30 416 H 34.2894 -5.42618 -6.12787 0
M  V30 417 N 36.9525 1.47285 -0.560781 0
M  V30 418 C 37.8995 2.30058 0.18491 0
M  V30 419 C 38.8695 1.39281 0.904986 0
M  V30 420 O 40.0545 1.68241 0.899979 0
M  V30 421 C 37.1945 3.23317 1.20666 0
M  V30 422 C 36.3075 4.29186 0.492285 0
M  V30 423 C 35.4425 5.09592 1.49964 0
M  V30 424 C 34.4815 6.07232 0.770439 0
M  V30 425 N 33.6185 6.80584 1.72479 0
M  V30 426 H 38.4585 2.93302 -0.527048 0
M  V30 427 H 35.9955 1.44568 -0.271738 0
M  V30 428 H 37.9535 3.75811 1.81168 0
M  V30 429 H 36.5835 2.61929 1.88661 0
M  V30 430 H 35.6355 3.7972 -0.227333 0
M  V30 431 H 36.9475 4.98738 -0.0787929 0
M  V30 432 H 36.1015 5.66254 2.17809 0
M  V30 433 H 34.8405 4.3995 2.10464 0
M  V30 434 H 33.8455 5.49745 0.0780846 0
M  V30 435 H 35.0705 6.78884 0.171134 0
M  V30 436 H 33.0165 6.1367 2.3183 0
M  V30 437 H 32.9335 7.46319 1.20596 0
M  V30 438 H 34.2015 7.41818 2.39428 0
M  V30 439 N 38.4306 0.297415 1.54768 0
M  V30 440 C 39.6586 -0.315623 2.04478 0
M  V30 441 C 40.0736 -1.47792 1.17486 0
M  V30 442 O 39.4306 -1.81404 0.19971 0
M  V30 443 C 39.4816 -0.7753 3.53088 0
M  V30 444 O 39.2026 0.340732 4.36773 0
M  V30 445 C 40.7036 -1.45386 4.18781 0
M  V30 446 H 37.9236 -0.0690887 0.667434 0
M  V30 447 H 40.4676 0.436003 1.99798 0
M  V30 448 H 38.6226 -1.47696 3.58141 0
M  V30 449 H 39.0366 -0.0165035 5.24497 0
M  V30 450 H 40.5106 -1.72669 5.24299 0
M  V30 451 H 40.9876 -2.39275 3.68299 0
M  V30 452 H 41.5936 -0.795475 4.17795 0
M  V30 453 N 39.9087 -1.5758 0.0250728 0
M  V30 454 C 41.1337 -1.96337 -0.668317 0
M  V30 455 C 41.5587 -0.901314 -1.651 0
M  V30 456 O 40.9167 0.138187 -1.80773 0
M  V30 457 C 40.9647 -3.34191 -1.35457 0
M  V30 458 O 40.0687 -3.30269 -2.46974 0
M  V30 459 H 39.4097 -0.640281 -0.175887 0
M  V30 460 H 41.9397 -2.0442 0.0857224 0
M  V30 461 H 41.9497 -3.70331 -1.71228 0
M  V30 462 H 40.6247 -4.11036 -0.634218 0
M  V30 463 H 39.2017 -3.05841 -2.13344 0
M  V30 464 N 41.3868 0.248026 -1.55636 0
M  V30 465 C 42.6358 0.974134 -1.76617 0
M  V30 466 C 42.9488 1.86528 -0.588796 0
M  V30 467 O 44.1548 2.62805 -0.681594 0
M  V30 468 C 42.6108 1.78213 -3.12679 0
M  V30 469 C 42.2188 0.93843 -4.38061 0
M  V30 470 C 43.9628 2.50104 -3.42999 0
M  V30 471 C 41.8698 1.74225 -5.65155 0
M  V30 472 H 40.7998 0.36745 -0.658405 0
M  V30 473 H 43.4508 0.22884 -1.82067 0
M  V30 474 H 41.8328 2.56933 -3.01333 0
M  V30 475 H 43.0068 0.193635 -4.60393 0
M  V30 476 H 41.3218 0.332905 -4.15067 0
M  V30 477 H 43.9188 3.10694 -4.3517 0
M  V30 478 H 44.2618 3.21662 -2.64271 0
M  V30 479 H 44.7948 1.78395 -3.55556 0
M  V30 480 H 41.5338 1.07043 -6.46701 0
M  V30 481 H 41.0538 2.46235 -5.46926 0
M  V30 482 H 42.7328 2.30967 -6.0437 0
M  V30 483 N 42.8649 1.48995 0.513639 0
M  V30 484 C 43.8279 1.64229 1.59879 0
M  V30 485 C 44.8279 0.514696 1.5234 0
M  V30 486 O 46.0179 0.78087 1.55718 0
M  V30 487 C 43.1499 1.62783 2.99524 0
M  V30 488 H 44.3429 2.61004 1.47705 0
M  V30 489 H 41.8959 1.37837 0.736936 0
M  V30 490 H 42.6309 0.675461 3.17188 0
M  V30 491 H 42.4159 2.4466 3.06404 0
M  V30 492 H 43.9059 1.76669 3.78388 0
M  V30 493 N 44.343 -0.763751 1.37857 0
M  V30 494 C 45.759 -1.06542 1.18832 0
M  V30 495 C 45.959 -2.01478 0.0299722 0
M  V30 496 O 45.015 -2.4458 -0.627447 0
M  V30 497 C 46.328 -1.65525 2.51042 0
M  V30 498 C 47.876 -1.77745 2.57635 0
M  V30 499 C 48.351 -2.4014 3.89996 0
M  V30 500 N 49.842 -2.47582 3.91481 0
M  V30 501 C 50.577 -2.96732 4.9065 0
M  V30 502 N 50.073 -3.45993 6.00217 0
M  V30 503 N 51.866 -2.95679 4.78048 0
M  V30 504 H 44.017 -0.133556 2.1198 0
M  V30 505 H 46.28 -0.121879 0.940133 0
M  V30 506 H 45.986 -1.03236 3.36207 0
M  V30 507 H 45.86 -2.64719 2.68707 0
M  V30 508 H 48.247 -2.39164 1.72872 0
M  V30 509 H 48.328 -0.772836 2.43846 0
M  V30 510 H 47.972 -1.79358 4.75177 0
M  V30 511 H 47.902 -3.41223 4.01092 0
M  V30 512 H 50.393 -2.1273 3.12337 0
M  V30 513 H 50.706 -3.81922 6.7183 0
M  V30 514 H 49.051 -3.44077 6.03851 0
M  V30 515 H 52.242 -2.56499 3.91568 0
M  V30 516 H 52.415 -3.33672 5.55488 0
M  V30 517 N 45.8211 -1.22559 -0.990812 0
M  V30 518 C 47.0461 -1.07862 -1.77145 0
M  V30 519 C 47.4711 0.366447 -1.84496 0
M  V30 520 O 46.8291 1.26478 -1.29896 0
M  V30 521 C 46.8771 -1.69686 -3.18181 0
M  V30 522 O 45.9811 -0.951946 -4.01263 0
M  V30 523 H 45.3221 -0.378712 -0.545411 0
M  V30 524 H 47.8521 -1.62399 -1.2445 0
M  V30 525 H 47.8621 -1.74496 -3.68802 0
M  V30 526 H 46.5371 -2.74841 -3.12146 0
M  V30 527 H 45.1141 -0.980011 -3.59792 0
M  V30 528 N 47.2992 1.18797 -1.03562 0
M  V30 529 C 48.7102 1.70322 -0.764676 0
M  V30 530 C 49.0612 1.82708 0.714996 0
M  V30 531 O 48.1862 1.50299 1.55689 0
M  V30 532 C 48.7812 3.09356 -1.38145 0
M  V30 533 C 47.3402 3.58114 -1.15895 0
M  V30 534 C 46.4872 2.34798 -1.4753 0
M  V30 535 H 49.4382 1.03543 -1.20268 0
M  V30 536 H 49.4592 3.72378 -0.781977 0
M  V30 537 H 48.9712 3.00309 -2.45837 0
M  V30 538 H 47.0722 3.72464 -0.100544 0
M  V30 539 H 47.1852 4.4184 -1.8524 0
M  V30 540 H 45.5492 2.38464 -0.894829 0
M  V30 541 H 46.3322 2.28375 -2.56319 0
M  V30 542 N 48.7773 0.814389 1.34928 0
M  V30 543 C 50.1933 0.499084 1.51596 0
M  V30 544 C 50.3933 -0.978319 1.76157 0
M  V30 545 O 49.4493 -1.76309 1.80752 0
M  V30 546 C 50.7623 1.35121 2.68631 0
M  V30 547 C 52.3103 1.34746 2.82511 0
M  V30 548 C 52.7853 2.18388 4.0258 0
M  V30 549 N 54.2763 2.15966 4.09772 0
M  V30 550 C 55.0113 2.77437 5.01813 0
M  V30 551 N 54.5073 3.47866 5.99134 0
M  V30 552 N 56.3003 2.67037 4.94619 0
M  V30 553 H 48.4513 1.7711 1.17243 0
M  V30 554 H 50.7143 0.754256 0.574284 0
M  V30 555 H 50.4203 2.40001 2.57085 0
M  V30 556 H 50.2943 1.00991 3.63429 0
M  V30 557 H 52.6813 0.30648 2.93504 0
M  V30 558 H 52.7623 1.72869 1.88547 0
M  V30 559 H 52.4063 3.2253 3.92347 0
M  V30 560 H 52.3363 1.77621 4.9574 0
M  V30 561 H 54.8273 1.64729 3.40107 0
M  V30 562 H 55.1403 3.92038 6.65977 0
M  V30 563 H 53.4853 3.51972 5.99284 0
M  V30 564 H 56.6763 2.11597 4.17546 0
M  V30 565 H 56.8493 3.15232 5.66156 0
M  V30 566 N 50.2554 -1.46986 0.568584 0
M  V30 567 C 51.1874 -2.28233 -0.210337 0
M  V30 568 C 52.2004 -1.37682 -0.868767 0
M  V30 569 O 53.3894 -1.62406 -0.740705 0
M  V30 570 C 50.4894 -3.12293 -1.3163 0
M  V30 571 C 49.6624 -4.30878 -0.7525 0
M  V30 572 C 48.7214 -4.96445 -1.74439 0
M  V30 573 O 47.7474 -5.54482 -1.286 0
M  V30 574 N 48.9494 -4.92171 -3.07812 0
M  V30 575 H 51.7144 -2.95723 0.486648 0
M  V30 576 H 49.2754 -1.56742 0.405409 0
M  V30 577 H 51.2674 -3.53022 -1.97883 0
M  V30 578 H 49.8374 -2.46971 -1.91636 0
M  V30 579 H 49.0574 -3.94104 0.0871128 0
M  V30 580 H 50.3454 -5.07558 -0.35536 0
M  V30 581 H 49.7434 -4.46239 -3.47688 0
M  V30 582 H 48.3004 -5.36884 -3.69592 0
M  V30 583 N 51.7335 -0.305618 -1.54608 0
M  V30 584 C 52.6965 0.555591 -2.22364 0
M  V30 585 C 53.6965 1.05768 -1.21119 0
M  V30 586 O 54.8865 0.952972 -1.45822 0
M  V30 587 C 52.0185 1.76974 -2.91364 0
M  V30 588 H 53.2115 -0.0364572 -2.99878 0
M  V30 589 H 50.7645 -0.0565007 -1.56198 0
M  V30 590 H 51.4995 2.40151 -2.17941 0
M  V30 591 H 51.2845 1.41732 -3.65588 0
M  V30 592 H 52.7745 2.38148 -3.43038 0
M  V30 593 N 53.2116 1.57565 -0.0334293 0
M  V30 594 C 54.1416 2.13511 0.945265 0
M  V30 595 C 55.1226 1.05231 1.33643 0
M  V30 596 O 56.3076 1.33084 1.41429 0
M  V30 597 C 53.4376 2.6657 2.22616 0
M  V30 598 C 52.3916 3.79676 1.97561 0
M  V30 599 C 51.7176 4.1918 3.31952 0
M  V30 600 C 53.0176 5.0557 1.31135 0
M  V30 601 H 54.7116 2.95538 0.479325 0
M  V30 602 H 52.2576 1.42166 0.229115 0
M  V30 603 H 54.2106 3.04344 2.91466 0
M  V30 604 H 52.9346 1.8171 2.71384 0
M  V30 605 H 51.5936 3.42347 1.31127 0
M  V30 606 H 51.2416 3.31296 3.78487 0
M  V30 607 H 50.9416 4.95402 3.15992 0
M  V30 608 H 52.4656 4.59541 4.02063 0
M  V30 609 H 53.8796 5.40903 1.89992 0
M  V30 610 H 52.2766 5.86818 1.25559 0
M  V30 611 H 53.3466 4.84062 0.284894 0
M  V30 612 N 54.6897 -0.239769 1.55765 0
M  V30 613 C 55.9357 -0.968234 1.78194 0
M  V30 614 C 56.2687 -1.84701 0.599938 0
M  V30 615 O 55.5437 -1.9031 -0.401524 0
M  V30 616 C 55.8267 -1.8227 3.10564 0
M  V30 617 C 55.6797 -0.971633 4.3918 0
M  V30 618 C 56.9987 -2.80388 3.39221 0
M  V30 619 H 54.1177 -0.350572 0.648281 0
M  V30 620 H 56.7597 -0.238259 1.885 0
M  V30 621 H 54.9097 -2.44507 3.01908 0
M  V30 622 H 56.5817 -0.367408 4.59835 0
M  V30 623 H 54.8247 -0.276276 4.32919 0
M  V30 624 H 55.4957 -1.60346 5.28198 0
M  V30 625 H 57.9717 -2.28287 3.47885 0
M  V30 626 H 56.8477 -3.3729 4.33044 0
M  V30 627 H 57.1087 -3.57212 2.60484 0
M  V30 628 N 56.1678 -1.49265 -0.50573 0
M  V30 629 C 57.3928 -1.62478 -1.28902 0
M  V30 630 C 57.8178 -0.294332 -1.85783 0
M  V30 631 O 57.1758 0.737412 -1.65626 0
M  V30 632 C 57.2238 -2.69268 -2.39848 0
M  V30 633 O 56.3278 -2.28113 -3.43567 0
M  V30 634 H 55.6688 -0.54399 -0.380751 0
M  V30 635 H 58.1988 -1.95421 -0.605952 0
M  V30 636 H 58.2088 -2.91291 -2.85681 0
M  V30 637 H 56.8838 -3.65846 -1.97812 0
M  V30 638 H 55.4608 -2.16401 -3.03685 0
M  V30 639 N 57.6459 0.756429 -1.3826 0
M  V30 640 C 58.8949 1.51082 -1.3363 0
M  V30 641 C 59.2079 1.95467 0.0720068 0
M  V30 642 O 60.4139 2.7043 0.240834 0
M  V30 643 C 58.8699 2.72893 -2.34644 0
M  V30 644 C 58.4779 2.35544 -3.81081 0
M  V30 645 C 60.2219 3.50791 -2.39052 0
M  V30 646 C 58.1289 3.53948 -4.73787 0
M  V30 647 H 57.0589 0.56727 -0.49671 0
M  V30 648 H 59.7099 0.827147 -1.638 0
M  V30 649 H 58.0919 3.43227 -1.97513 0
M  V30 650 H 59.2659 1.72894 -4.27135 0
M  V30 651 H 57.5809 1.70786 -3.79764 0
M  V30 652 H 60.1779 4.38823 -3.05513 0
M  V30 653 H 60.5209 3.91745 -1.40861 0
M  V30 654 H 61.0539 2.87467 -2.74968 0
M  V30 655 H 57.7929 3.18064 -5.73163 0
M  V30 656 H 57.3129 4.15651 -4.32428 0
M  V30 657 H 58.9919 4.20566 -4.91663 0
M  V30 658 N 59.124 1.23083 0.984299 0
M  V30 659 C 60.535 1.05609 1.5396 0
M  V30 660 C 60.886 -0.377793 1.92528 0
M  V30 661 O 60.011 -1.26398 1.75649 0
M  V30 662 C 60.606 1.91087 2.7977 0
M  V30 663 C 59.165 1.77885 3.31713 0
M  V30 664 C 58.312 1.87028 2.04733 0
M  V30 665 H 61.263 1.36802 0.804419 0
M  V30 666 H 61.284 1.43336 3.5247 0
M  V30 667 H 60.796 2.9544 2.51668 0
M  V30 668 H 58.897 0.762995 3.64704 0
M  V30 669 H 59.01 2.61047 4.01735 0
M  V30 670 H 57.374 1.30565 2.18689 0
M  V30 671 H 58.157 2.92929 1.79017 0
M  V30 672 N 60.6021 -1.18246 1.0419 0
M  V30 673 C 61.5341 -2.2142 0.592088 0
M  V30 674 C 62.5471 -1.59233 -0.338909 0
M  V30 675 O 63.7361 -1.78002 -0.133231 0
M  V30 676 C 60.8361 -3.38546 -0.154854 0
M  V30 677 C 60.0091 -4.3031 0.784328 0
M  V30 678 C 59.0681 -5.26138 0.0804583 0
M  V30 679 O 58.0941 -5.64738 0.711292 0
M  V30 680 N 59.2961 -5.68261 -1.18574 0
M  V30 681 H 62.0611 -2.60636 1.47949 0
M  V30 682 H 59.6221 -1.33044 0.922544 0
M  V30 683 H 61.6141 -3.99678 -0.635606 0
M  V30 684 H 60.1841 -2.98012 -0.943811 0
M  V30 685 H 59.4041 -3.66764 1.44491 0
M  V30 686 H 60.6921 -4.8852 1.42218 0
M  V30 687 H 60.0901 -5.38957 -1.71876 0
M  V30 688 H 58.6471 -6.31584 -1.61074 0
M  V30 689 N 62.0802 -0.821533 -1.34494 0
M  V30 690 C 63.3052 -0.420873 -2.03085 0
M  V30 691 C 63.7302 0.964915 -1.61465 0
M  V30 692 O 63.0882 1.62763 -0.798607 0
M  V30 693 C 63.1362 -0.529414 -3.56693 0
M  V30 694 O 62.2402 0.451302 -4.09923 0
M  V30 695 H 61.5812 -0.173489 -0.640935 0
M  V30 696 H 64.1112 -1.11157 -1.71771 0
M  V30 697 H 64.1212 -0.404671 -4.05988 0
M  V30 698 H 62.7962 -1.54014 -3.86332 0
M  V30 699 H 61.3732 0.285558 -3.71805 0
M  V30 700 N 63.5583 1.46682 -0.576371 0
M  V30 701 C 64.8073 2.01619 -0.0572825 0
M  V30 702 C 65.1203 1.45417 1.30818 0
M  V30 703 O 66.3263 1.92133 1.91825 0
M  V30 704 C 64.7823 3.59863 -0.0518371 0
M  V30 705 C 64.3903 4.25059 -1.41523 0
M  V30 706 C 66.1343 4.2248 0.413639 0
M  V30 707 C 64.0413 5.75364 -1.36785 0
M  V30 708 H 62.9713 0.753794 -0.0176448 0
M  V30 709 H 65.6223 1.68481 -0.727076 0
M  V30 710 H 64.0043 3.90048 0.683994 0
M  V30 711 H 65.1783 4.06491 -2.17029 0
M  V30 712 H 63.4933 3.7451 -1.8202 0
M  V30 713 H 66.0903 5.3265 0.467779 0
M  V30 714 H 66.4333 3.90976 1.42982 0
M  V30 715 H 66.9663 3.96897 -0.267929 0
M  V30 716 H 63.7053 6.11518 -2.36063 0
M  V30 717 H 63.2253 5.96214 -0.654895 0
M  V30 718 H 64.9043 6.37955 -1.07805 0
M  V30 719 N 65.0364 0.313813 1.54444 0
M  V30 720 C 66.2614 -0.296681 2.05267 0
M  V30 721 C 66.6864 -1.45757 1.18897 0
M  V30 722 O 66.0444 -1.80239 0.195886 0
M  V30 723 C 66.0924 -0.71831 3.53373 0
M  V30 724 O 65.1964 -1.82175 3.69981 0
M  V30 725 H 64.5374 -0.0554061 0.661684 0
M  V30 726 H 67.0674 0.459387 1.99376 0
M  V30 727 H 67.0774 -1.00364 3.95463 0
M  V30 728 H 65.7524 0.130821 4.15694 0
M  V30 729 H 64.3294 -1.53598 3.39797 0
M  V30 730 N 66.5145 -1.57545 0.0417849 0
M  V30 731 C 67.4245 -2.14451 -0.951213 0
M  V30 732 C 68.4405 -1.09992 -1.34825 0
M  V30 733 O 69.6165 -1.42114 -1.42708 0
M  V30 734 C 66.6815 -2.67063 -2.21084 0
M  V30 735 C 65.7425 -3.86284 -1.87304 0
M  V30 736 C 64.9755 -4.36378 -3.07261 0
M  V30 737 O 65.1985 -3.85587 -4.20332 0
M  V30 738 O 64.1325 -5.28077 -2.88822 0
M  V30 739 H 67.9585 -2.99601 -0.497287 0
M  V30 740 H 65.5435 -1.48317 -0.179567 0
M  V30 741 H 67.4255 -3.00914 -2.95006 0
M  V30 742 H 66.1005 -1.84989 -2.65633 0
M  V30 743 H 65.0075 -3.57338 -1.10727 0
M  V30 744 H 66.3405 -4.6956 -1.47562 0
M  V30 745 N 67.9926 0.231505 -1.5589 0
M  V30 746 C 69.2206 0.974505 -1.82513 0
M  V30 747 C 69.6356 1.78344 -0.619591 0
M  V30 748 O 68.9926 1.77792 0.411848 0
M  V30 749 C 69.0436 1.90007 -3.07538 0
M  V30 750 O 68.7646 1.12385 -4.2344 0
M  V30 751 C 70.2656 2.75779 -3.47075 0
M  V30 752 H 67.4856 0.286065 -0.606966 0
M  V30 753 H 70.0296 0.249739 -2.02969 0
M  V30 754 H 68.1846 2.57891 -2.89086 0
M  V30 755 H 68.5986 1.75125 -4.944 0
M  V30 756 H 70.0726 3.36443 -4.37619 0
M  V30 757 H 70.5496 3.47672 -2.68367 0
M  V30 758 H 71.1556 2.13323 -3.67931 0
M  V30 759 N 69.4707 1.49531 0.497807 0
M  V30 760 C 70.6987 1.62893 1.27567 0
M  V30 761 C 71.1137 0.301585 1.86376 0
M  V30 762 O 70.4707 -0.713335 1.67982 0
M  V30 763 C 70.5217 2.70013 2.40364 0
M  V30 764 O 70.2427 3.976 1.83972 0
M  V30 765 C 71.7437 2.94109 3.31685 0
M  V30 766 H 68.9637 0.548298 0.386794 0
M  V30 767 H 71.5077 1.95584 0.597245 0
M  V30 768 H 69.6627 2.40092 3.04031 0
M  V30 769 H 70.0767 4.56631 2.58047 0
M  V30 770 H 71.5507 3.72788 4.07104 0
M  V30 771 H 72.0277 2.04147 3.88871 0
M  V30 772 H 72.6337 3.2546 2.73781 0
M  V30 773 N 70.9488 -0.749086 1.3866 0
M  V30 774 C 72.1968 -1.50535 1.34847 0
M  V30 775 C 72.5178 -1.94909 -0.0595016 0
M  V30 776 O 71.7878 -1.67973 -1.00806 0
M  V30 777 H 70.3678 -0.558395 0.49619 0
M  V30 778 H 73.0298 -0.890165 1.73384 0
M  V30 779 H 72.1258 -2.39413 2.00219 0
M  V30 780 N 72.4269 -1.23603 -0.977757 0
M  V30 781 C 73.8379 -1.06424 -1.53398 0
M  V30 782 C 74.1889 0.367578 -1.92726 0
M  V30 783 O 73.3139 1.25465 -1.76316 0
M  V30 784 C 73.9089 -1.92568 -2.78753 0
M  V30 785 C 72.4679 -1.79642 -3.30765 0
M  V30 786 C 71.6149 -1.88111 -2.03739 0
M  V30 787 H 74.5659 -1.37227 -0.797152 0
M  V30 788 H 74.5869 -1.45203 -3.51705 0
M  V30 789 H 74.0989 -2.96771 -2.50098 0
M  V30 790 H 72.1999 -0.782325 -3.64294 0
M  V30 791 H 72.3129 -2.63174 -4.00345 0
M  V30 792 H 70.6769 -1.31723 -2.17994 0
M  V30 793 H 71.4599 -2.93875 -1.77461 0
M  V30 794 N 73.905 1.17692 -1.04816 0
M  V30 795 C 74.853 2.23632 -0.63966 0
M  V30 796 C 75.847 1.6601 0.337219 0
M  V30 797 O 77.053 1.78844 0.203693 0
M  V30 798 H 73.428 0.727949 -0.188665 0
M  V30 799 H 75.399 2.55387 -1.54337 0
M  V30 800 C 74.148 3.4769 -0.0264051 0
M  V30 801 H 73.471 3.92331 -0.769164 0
M  V30 802 H 74.911 4.23418 0.222098 0
M  V30 803 C 73.37 3.13807 1.22584 0
M  V30 804 O 73.9 3.28236 2.31569 0
M  V30 805 N 72.106 2.68065 1.12202 0
M  V30 806 H 71.653 2.56525 0.235133 0
M  V30 807 H 71.611 2.45767 1.96076 0
M  V30 808 N 75.3831 0.828654 1.34056 0
M  V30 809 C 76.6301 0.419458 1.98108 0
M  V30 810 C 76.9581 -1.01886 1.65679 0
M  V30 811 O 76.2131 -1.72539 0.923512 0
M  V30 812 C 76.5121 0.575226 3.52741 0
M  V30 813 C 76.1781 1.98012 4.05095 0
M  V30 814 C 74.8401 2.36442 4.19104 0
M  V30 815 C 77.1921 2.89824 4.33188 0
M  V30 816 C 74.5201 3.66009 4.58535 0
M  V30 817 C 76.8721 4.1886 4.74066 0
M  V30 818 C 75.5361 4.5726 4.86281 0
M  V30 819 H 74.8061 0.153491 0.724929 0
M  V30 820 H 77.4531 1.05371 1.59904 0
M  V30 821 H 75.7581 -0.142385 3.91541 0
M  V30 822 H 77.4551 0.239057 4.00287 0
M  V30 823 H 74.0451 1.67162 3.94658 0
M  V30 824 H 78.2291 2.61375 4.21897 0
M  V30 825 H 73.4851 3.95579 4.66184 0
M  V30 826 H 77.6591 4.90086 4.94761 0
M  V30 827 H 75.2861 5.57707 5.16592 0
M  V30 828 N 76.8612 -1.46375 0.584142 0
M  V30 829 C 78.0862 -2.07268 0.0740405 0
M  V30 830 C 78.5112 -1.42979 -1.22223 0
M  V30 831 O 77.8692 -0.514092 -1.73859 0
M  V30 832 C 77.9172 -3.60518 -0.0767769 0
M  V30 833 O 77.0212 -3.96533 -1.13292 0
M  V30 834 H 76.3622 -0.660961 0.0634524 0
M  V30 835 H 78.8922 -1.87991 0.807492 0
M  V30 836 H 78.9022 -4.07021 -0.282489 0
M  V30 837 H 77.5772 -4.06702 0.86986 0
M  V30 838 H 76.1542 -3.61738 -0.905553 0
M  V30 839 N 78.3393 -0.321999 -1.54275 0
M  V30 840 C 79.2893 0.560185 -2.21011 0
M  V30 841 C 80.2733 1.08283 -1.19011 0
M  V30 842 O 81.4653 1.02011 -1.44647 0
M  V30 843 C 78.5943 1.72137 -2.97025 0
M  V30 844 C 77.6803 1.21369 -4.06363 0
M  V30 845 N 78.0713 0.425566 -5.04007 0
M  V30 846 C 76.3693 1.49255 -4.20284 0
M  V30 847 C 77.0703 0.152601 -5.815 0
M  V30 848 N 76.0463 0.738294 -5.38563 0
M  V30 849 H 79.8483 -0.049265 -2.93859 0
M  V30 850 H 77.3623 -0.127779 -1.61897 0
M  V30 851 H 79.3593 2.36512 -3.43319 0
M  V30 852 H 78.0193 2.33431 -2.25699 0
M  V30 853 H 79.0303 0.068551 -5.17855 0
M  V30 854 H 75.7073 2.11145 -3.60172 0
M  V30 855 H 77.0973 -0.481764 -6.70171 0
M  V30 856 N 79.8174 1.5752 -0.0501392 0
M  V30 857 C 80.7474 2.14502 0.922566 0
M  V30 858 C 81.7284 1.06642 1.3252 0
M  V30 859 O 82.9134 1.34577 1.4001 0
M  V30 860 C 80.0434 2.68916 2.19776 0
M  V30 861 C 78.9974 3.8175 1.93523 0
M  V30 862 C 78.3234 4.22677 3.27487 0
M  V30 863 C 79.6234 5.06932 1.25765 0
M  V30 864 H 81.3174 2.9603 0.447952 0
M  V30 865 H 78.8634 1.42401 0.214024 0
M  V30 866 H 80.8164 3.07419 2.88222 0
M  V30 867 H 79.5404 1.84578 2.69441 0
M  V30 868 H 78.1994 3.43718 1.27489 0
M  V30 869 H 77.8474 3.35291 3.74952 0
M  V30 870 H 77.5474 4.98725 3.1072 0
M  V30 871 H 79.0714 4.63779 3.97166 0
M  V30 872 H 80.4854 5.42888 1.84244 0
M  V30 873 H 78.8824 5.88116 1.19328 0
M  V30 874 H 79.9524 4.84337 0.233536 0
M  V30 875 N 81.2955 -0.223234 1.56011 0
M  V30 876 C 82.5435 -0.946003 1.78592 0
M  V30 877 C 82.8645 -1.84936 0.618349 0
M  V30 878 O 82.1345 -1.92473 -0.364833 0
M  V30 879 H 80.7145 -0.352298 0.658707 0
M  V30 880 H 83.3765 -0.235494 1.93472 0
M  V30 881 H 82.4725 -1.55381 2.70672 0
M  V30 882 N 82.7736 -1.49793 -0.48987 0
M  V30 883 C 84.0206 -1.59841 -1.24327 0
M  V30 884 C 84.3486 -0.290135 -1.92324 0
M  V30 885 O 83.6036 0.722749 -1.81865 0
M  V30 886 C 83.9026 -2.71488 -2.32441 0
M  V30 887 C 83.5686 -4.12614 -1.81826 0
M  V30 888 C 82.2306 -4.51017 -1.67742 0
M  V30 889 C 84.5826 -5.00892 -1.4407 0
M  V30 890 C 81.9106 -5.75459 -1.14297 0
M  V30 891 C 84.2626 -6.25863 -0.920742 0
M  V30 892 C 82.9266 -6.63086 -0.766383 0
M  V30 893 H 82.1966 -0.584899 -0.454944 0
M  V30 894 H 84.8436 -1.83663 -0.542215 0
M  V30 895 H 83.1486 -2.4168 -3.0838 0
M  V30 896 H 84.8456 -2.76469 -2.90458 0
M  V30 897 H 81.4356 -3.82307 -1.93751 0
M  V30 898 H 85.6196 -4.7187 -1.53794 0
M  V30 899 H 80.8756 -6.02989 -1.01068 0
M  V30 900 H 85.0496 -6.9364 -0.619448 0
M  V30 901 H 82.6766 -7.59393 -0.350083 0
M  V30 902 N 84.2517 0.741722 -1.39055 0
M  V30 903 C 85.4997 1.49818 -1.35643 0
M  V30 904 C 85.8207 1.94938 0.0491642 0
M  V30 905 O 85.0907 1.68505 0.999141 0
M  V30 906 H 83.6707 0.555755 -0.499144 0
M  V30 907 H 86.3327 0.880957 -1.73854 0
M  V30 908 H 85.4287 2.38348 -2.01486 0
M  V30 909 N 85.7298 1.2412 0.971189 0
M  V30 910 C 86.6928 1.03156 2.04674 0
M  V30 911 C 87.6928 -0.00990322 1.60797 0
M  V30 912 O 88.8828 0.230729 1.72665 0
M  V30 913 C 86.0148 0.562765 3.36223 0
M  V30 914 H 87.2078 1.98614 2.24705 0
M  V30 915 H 84.7608 1.06293 1.14593 0
M  V30 916 H 85.4958 -0.395176 3.21883 0
M  V30 917 H 85.2808 1.31441 3.69413 0
M  V30 918 H 86.7708 0.437015 4.15307 0
M  V30 919 N 87.2079 -1.17134 1.05439 0
M  V30 920 C 88.1579 -2.1919 0.627675 0
M  V30 921 C 89.1419 -1.57328 -0.337147 0
M  V30 922 O 90.3339 -1.76329 -0.153976 0
M  V30 923 C 87.4629 -3.43299 0.00651435 0
M  V30 924 C 86.5489 -4.12255 0.995312 0
M  V30 925 N 86.9399 -4.56997 2.16765 0
M  V30 926 C 85.2379 -4.38316 0.824336 0
M  V30 927 C 85.9389 -5.10239 2.7934 0
M  V30 928 N 84.9149 -5.02595 2.07122 0
M  V30 929 H 88.7169 -2.5149 1.52086 0
M  V30 930 H 86.2309 -1.33491 0.924868 0
M  V30 931 H 88.2279 -4.15693 -0.316965 0
M  V30 932 H 86.8879 -3.1249 -0.882033 0
M  V30 933 H 87.8989 -4.51006 2.54587 0
M  V30 934 H 84.5759 -4.17498 -0.0129526 0
M  V30 935 H 85.9659 -5.54961 3.78772 0
M  V30 936 N 88.686 -0.835752 -1.33615 0
M  V30 937 C 89.963 -0.352017 -1.92406 0
M  V30 938 C 90.343 1.16225 -1.76224 0
M  V30 939 O 89.691 1.97526 -1.14873 0
M  V30 940 C 89.901 -0.795485 -3.39813 0
M  V30 941 C 91.249 -0.801703 -4.16963 0
M  V30 942 O 92.273 -0.738889 -3.48452 0
M  V30 943 O 91.132 -0.886607 -5.3926 0
M  V30 944 H 88.226 -0.0989641 -0.821057 0
M  V30 945 H 90.772 -0.921397 -1.42507 0
M  V30 946 H 89.544 -1.83795 -3.45449 0
M  V30 947 H 89.167 -0.202505 -3.97084 0
M  V30 948 N 90.1641 1.46063 -0.591896 0
M  V30 949 C 91.1141 2.27458 0.157172 0
M  V30 950 C 92.0981 1.3641 0.853301 0
M  V30 951 O 93.2901 1.60517 0.74588 0
M  V30 952 C 90.4191 3.22956 1.16423 0
M  V30 953 C 89.5051 4.2149 0.469742 0
M  V30 954 N 89.8961 5.03519 -0.479839 0
M  V30 955 C 88.1941 4.40161 0.719319 0
M  V30 956 C 88.8951 5.74904 -0.886591 0
M  V30 957 N 87.8711 5.43097 -0.233731 0
M  V30 958 H 91.6731 2.88272 -0.572392 0
M  V30 959 H 89.1871 1.57024 -0.414375 0
M  V30 960 H 91.1841 3.79986 1.71513 0
M  V30 961 H 89.8441 2.63701 1.89451 0
M  V30 962 H 90.8551 5.1078 -0.855823 0
M  V30 963 H 87.5321 3.92046 1.43548 0
M  V30 964 H 88.9221 6.50844 -1.66888 0
M  V30 965 N 91.6422 0.330177 1.54103 0
M  V30 966 C 92.9192 -0.325007 1.92881 0
M  V30 967 C 93.2992 -1.6934 1.26045 0
M  V30 968 O 92.6472 -2.24855 0.406526 0
M  V30 969 C 92.8572 -0.410634 3.46576 0
M  V30 970 C 94.2052 -0.667801 4.19316 0
M  V30 971 O 95.2292 -0.49329 3.52768 0
M  V30 972 O 94.0882 -1.00491 5.37181 0
M  V30 973 H 91.1822 -0.186873 0.80561 0
M  V30 974 H 93.7282 0.380376 1.65382 0
M  V30 975 H 92.5002 0.550164 3.87413 0
M  V30 976 H 92.1232 -1.16333 3.802 0
M  V30 977 N 93.1203 -1.57491 0.0584922 0
M  V30 978 C 94.0503 -2.14988 -0.911178 0
M  V30 979 C 95.0313 -1.07343 -1.31952 0
M  V30 980 O 96.2163 -1.35318 -1.39294 0
M  V30 981 C 93.3463 -2.70078 -2.18347 0
M  V30 982 C 92.3003 -3.82771 -1.91495 0
M  V30 983 C 91.6263 -4.24408 -3.25241 0
M  V30 984 C 92.9263 -5.07592 -1.23075 0
M  V30 985 H 94.6203 -2.96263 -0.432246 0
M  V30 986 H 92.1663 -1.42512 -0.206469 0
M  V30 987 H 94.1193 -3.08943 -2.86587 0
M  V30 988 H 92.8433 -1.86005 -2.68458 0
M  V30 989 H 91.5023 -3.44389 -1.25664 0
M  V30 990 H 91.1503 -3.37275 -3.73168 0
M  V30 991 H 90.8503 -5.00366 -3.08071 0
M  V30 992 H 92.3743 -4.65879 -3.94701 0
M  V30 993 H 93.7883 -5.43857 -1.81362 0
M  V30 994 H 92.1853 -5.88741 -1.16207 0
M  V30 995 H 93.2553 -4.84454 -0.207847 0
M  V30 996 N 94.5984 0.214957 -1.56127 0
M  V30 997 C 95.5284 1.2695 -1.95974 0
M  V30 998 C 96.5094 1.48539 -0.828868 0
M  V30 999 O 97.6944 1.60611 -1.09168 0
M  V30 1000 C 94.8244 2.61794 -2.28214 0
M  V30 1001 C 93.7784 2.54851 -3.43853 0
M  V30 1002 C 93.1044 3.93785 -3.61715 0
M  V30 1003 C 94.4044 2.09065 -4.78632 0
M  V30 1004 H 96.0984 0.93846 -2.84312 0
M  V30 1005 H 93.6444 0.449996 -1.36788 0
M  V30 1006 H 95.5974 3.35731 -2.54682 0
M  V30 1007 H 94.3214 2.96599 -1.36736 0
M  V30 1008 H 92.9804 1.8337 -3.17444 0
M  V30 1009 H 92.6284 4.25908 -2.67602 0
M  V30 1010 H 92.3284 3.90019 -4.39498 0
M  V30 1011 H 93.8524 4.69374 -3.90539 0
M  V30 1012 H 95.2664 2.7275 -5.04262 0
M  V30 1013 H 93.6634 2.16346 -5.59745 0
M  V30 1014 H 94.7334 1.04315 -4.73547 0
M  V30 1015 N 96.0765 1.50051 0.48192 0
M  V30 1016 C 97.0065 1.71046 1.58951 0
M  V30 1017 C 97.9875 0.559288 1.60642 0
M  V30 1018 O 99.1725 0.797243 1.77081 0
M  V30 1019 C 96.3025 1.79462 2.97339 0
M  V30 1020 C 95.2565 2.94558 3.10515 0
M  V30 1021 C 94.5825 2.88105 4.50444 0
M  V30 1022 C 95.8825 4.35227 2.88747 0
M  V30 1023 H 97.5765 2.6378 1.41635 0
M  V30 1024 H 95.1225 1.26936 0.679942 0
M  V30 1025 H 97.0755 1.92734 3.74742 0
M  V30 1026 H 95.7995 0.833412 3.15788 0
M  V30 1027 H 94.4585 2.80918 2.35543 0
M  V30 1028 H 94.1065 1.89853 4.65795 0
M  V30 1029 H 93.8065 3.65366 4.60197 0
M  V30 1030 H 95.3305 3.03412 5.29881 0
M  V30 1031 H 96.7445 4.49449 3.55905 0
M  V30 1032 H 95.1415 5.13856 3.09955 0
M  V30 1033 H 96.2115 4.48347 1.84696 0
M  V30 1034 N 97.5546 -0.734337 1.39446 0
M  V30 1035 C 98.5026 -1.86971 1.38364 0
M  V30 1036 C 99.4966 -1.67288 0.266687 0
M  V30 1037 O 100.703 -1.74621 0.436755 0
M  V30 1038 H 97.0776 -0.615474 0.432082 0
M  V30 1039 H 99.0486 -1.85 2.34132 0
M  V30 1040 C 97.7976 -3.2466 1.24465 0
M  V30 1041 H 97.1206 -3.40402 2.09682 0
M  V30 1042 H 98.5606 -4.04292 1.27764 0
M  V30 1043 C 97.0196 -3.36867 -0.0468674 0
M  V30 1044 O 97.5496 -3.88618 -1.01681 0
M  V30 1045 N 95.7556 -2.90391 -0.110145 0
M  V30 1046 H 95.3026 -2.48466 0.679868 0
M  V30 1047 H 95.2606 -2.98939 -0.973799 0
M  V30 1048 N 99.0327 -1.24633 -0.964593 0
M  V30 1049 C 100.28 -1.08788 -1.70796 0
M  V30 1050 C 100.608 0.372783 -1.90894 0
M  V30 1051 O 99.8627 1.29167 -1.47018 0
M  V30 1052 C 100.162 -1.7763 -3.10133 0
M  V30 1053 C 99.8277 -3.27557 -3.09866 0
M  V30 1054 C 98.4897 -3.6846 -3.09501 0
M  V30 1055 C 100.842 -4.23389 -3.03959 0
M  V30 1056 C 98.1697 -5.03624 -3.00965 0
M  V30 1057 C 100.522 -5.58565 -2.96965 0
M  V30 1058 C 99.1857 -5.98809 -2.9493 0
M  V30 1059 H 98.4557 -0.398084 -0.624988 0
M  V30 1060 H 101.103 -1.54777 -1.12767 0
M  V30 1061 H 99.4077 -1.24044 -3.71645 0
M  V30 1062 H 101.105 -1.62832 -3.66451 0
M  V30 1063 H 97.6947 -2.95006 -3.10917 0
M  V30 1064 H 101.879 -3.92787 -3.03368 0
M  V30 1065 H 97.1347 -5.33998 -2.97752 0
M  V30 1066 H 101.309 -6.32523 -2.91354 0
M  V30 1067 H 98.9357 -7.03505 -2.88071 0
M  V30 1068 N 100.511 1.16574 -1.06058 0
M  V30 1069 C 101.459 2.22941 -0.663343 0
M  V30 1070 C 102.453 1.66358 0.319593 0
M  V30 1071 O 103.659 1.7905 0.184713 0
M  V30 1072 H 100.034 0.725907 -0.196376 0
M  V30 1073 H 102.005 2.53736 -1.57037 0
M  V30 1074 C 100.754 3.47642 -0.0632808 0
M  V30 1075 H 100.077 3.91493 -0.810733 0
M  V30 1076 H 101.517 4.2363 0.177177 0
M  V30 1077 C 99.9758 3.1509 1.19248 0
M  V30 1078 O 100.506 3.30673 2.28075 0
M  V30 1079 N 98.7118 2.6924 1.09353 0
M  V30 1080 H 98.2588 2.5676 0.207912 0
M  V30 1081 H 98.2168 2.47833 1.93458 0
M  V30 1082 N 101.989 0.842826 1.3317 0
M  V30 1083 C 102.937 0.267495 2.31057 0
M  V30 1084 C 103.931 -0.602682 1.58316 0
M  V30 1085 O 105.137 -0.491803 1.73151 0
M  V30 1086 H 101.512 0.0677813 0.748939 0
M  V30 1087 H 103.483 1.10754 2.77085 0
M  V30 1088 C 102.232 -0.539331 3.43492 0
M  V30 1089 H 101.555 0.12095 3.99617 0
M  V30 1090 H 102.995 -0.90767 4.14171 0
M  V30 1091 C 101.454 -1.71981 2.89697 0
M  V30 1092 O 101.984 -2.81862 2.86211 0
M  V30 1093 N 100.19 -1.54299 2.46252 0
M  V30 1094 H 99.7369 -0.649143 2.49287 0
M  V30 1095 H 99.6949 -2.33431 2.10612 0
M  V30 1096 N 103.467 -1.45747 0.599634 0
M  V30 1097 C 104.715 -2.01893 0.0915472 0
M  V30 1098 C 105.036 -1.47155 -1.27946 0
M  V30 1099 O 104.306 -0.66273 -1.84349 0
M  V30 1100 H 102.886 -0.746363 0.0308524 0
M  V30 1101 H 105.548 -1.78645 0.779237 0
M  V30 1102 H 104.644 -3.1208 0.0353086 0
M  V30 1103 N 104.945 -0.338344 -1.53925 0
M  V30 1104 C 106.193 0.259245 -2.0043 0
M  V30 1105 C 106.514 1.51484 -1.22791 0
M  V30 1106 O 105.784 1.93037 -0.33368 0
M  V30 1107 H 104.364 0.0987845 -0.740439 0
M  V30 1108 H 107.026 -0.458302 -1.89435 0
M  V30 1109 H 106.122 0.505334 -3.07982 0
M  V30 1110 N 106.423 1.57458 -0.0668435 0
M  V30 1111 C 107.353 2.15468 0.899764 0
M  V30 1112 C 108.334 1.08042 1.31381 0
M  V30 1113 O 109.519 1.36054 1.38574 0
M  V30 1114 C 106.649 2.71232 2.16911 0
M  V30 1115 C 105.603 3.83781 1.89463 0
M  V30 1116 C 104.929 4.26127 3.22986 0
M  V30 1117 C 106.229 5.08238 1.20381 0
M  V30 1118 H 107.923 2.96488 0.416529 0
M  V30 1119 H 105.469 1.4262 0.198908 0
M  V30 1120 H 107.422 3.10458 2.84945 0
M  V30 1121 H 106.146 1.87426 2.67468 0
M  V30 1122 H 104.805 3.45051 1.23836 0
M  V30 1123 H 104.453 3.39249 3.71374 0
M  V30 1124 H 104.153 5.01993 3.05413 0
M  V30 1125 H 105.677 4.67966 3.92225 0
M  V30 1126 H 107.091 5.44811 1.78475 0
M  V30 1127 H 105.488 5.89349 1.13083 0
M  V30 1128 H 106.558 4.84558 0.182153 0
M  V30 1129 N 107.901 -0.206675 1.56239 0
M  V30 1130 C 109.312 -0.772383 1.69974 0
M  V30 1131 C 109.663 -1.84353 0.671436 0
M  V30 1132 O 108.788 -2.15695 -0.174491 0
M  V30 1133 C 109.383 -1.40779 3.08167 0
M  V30 1134 C 107.942 -1.92072 3.23706 0
M  V30 1135 C 107.089 -0.786347 2.65917 0
M  V30 1136 H 110.04 0.0182223 1.5869 0
M  V30 1137 H 110.061 -2.27696 3.04852 0
M  V30 1138 H 109.573 -0.627958 3.82986 0
M  V30 1139 H 107.674 -2.7281 2.53782 0
M  V30 1140 H 107.787 -2.09046 4.31087 0
M  V30 1141 H 106.151 -1.1976 2.24788 0
M  V30 1142 H 106.934 -0.0189416 3.43295 0
M  V30 1143 N 109.379 -1.50304 -0.473955 0
M  V30 1144 C 110.628 -1.60392 -1.22301 0
M  V30 1145 C 110.941 -0.308411 -1.93153 0
M  V30 1146 O 112.147 -0.288156 -2.69966 0
M  V30 1147 C 110.603 -2.83109 -2.2221 0
M  V30 1148 C 110.211 -4.19524 -1.57173 0
M  V30 1149 C 111.955 -3.0254 -2.97775 0
M  V30 1150 C 109.862 -5.33431 -2.55353 0
M  V30 1151 H 108.792 -0.597286 -0.460179 0
M  V30 1152 H 111.443 -1.76731 -0.493803 0
M  V30 1153 H 109.825 -2.60322 -2.9841 0
M  V30 1154 H 110.999 -4.52554 -0.867824 0
M  V30 1155 H 109.314 -4.05674 -0.939002 0
M  V30 1156 H 111.911 -3.84811 -3.71248 0
M  V30 1157 H 112.254 -2.14154 -3.56992 0
M  V30 1158 H 112.787 -3.25494 -2.28688 0
M  V30 1159 H 109.526 -6.23962 -2.00878 0
M  V30 1160 H 109.046 -5.04823 -3.23904 0
M  V30 1161 H 110.725 -5.63887 -3.17239 0
M  V30 1162 N 110.857 0.726932 -1.39834 0
M  V30 1163 C 112.105 1.4837 -1.37225 0
M  V30 1164 C 112.426 1.94979 0.0284857 0
M  V30 1165 O 111.696 1.69555 0.981213 0
M  V30 1166 H 110.276 0.55043 -0.505011 0
M  V30 1167 H 112.938 0.862468 -1.74778 0
M  V30 1168 H 112.034 2.36198 -2.04003 0
M  V30 1169 N 112.336 1.25143 0.95797 0
M  V30 1170 C 113.246 1.06968 2.08794 0
M  V30 1171 C 114.262 0.00773911 1.73998 0
M  V30 1172 O 115.438 0.207972 2.00323 0
M  V30 1173 C 112.503 0.68691 3.39827 0
M  V30 1174 C 111.564 1.82641 3.88511 0
M  V30 1175 C 110.797 1.46181 5.1329 0
M  V30 1176 O 111.02 0.355971 5.69288 0
M  V30 1177 O 109.954 2.29085 5.566 0
M  V30 1178 H 113.78 2.01723 2.27027 0
M  V30 1179 H 111.365 1.04051 1.07209 0
M  V30 1180 H 113.247 0.485417 4.18595 0
M  V30 1181 H 111.922 -0.231417 3.22872 0
M  V30 1182 H 110.829 2.08274 3.10762 0
M  V30 1183 H 112.162 2.72386 4.09959 0
M  V30 1184 N 113.814 -1.1601 1.06675 0
M  V30 1185 C 115.23 -1.38622 0.790948 0
M  V30 1186 C 115.43 -1.92109 -0.607965 0
M  V30 1187 O 114.486 -2.12239 -1.36787 0
M  V30 1188 C 115.799 -2.36347 1.85905 0
M  V30 1189 C 117.347 -2.50023 1.88301 0
M  V30 1190 C 117.822 -3.51033 2.94176 0
M  V30 1191 N 119.313 -3.58563 2.93235 0
M  V30 1192 C 120.048 -4.36521 3.71803 0
M  V30 1193 N 119.544 -5.17869 4.602 0
M  V30 1194 N 121.337 -4.31541 3.60178 0
M  V30 1195 H 113.488 -0.796294 1.96908 0
M  V30 1196 H 115.751 -0.412597 0.853503 0
M  V30 1197 H 115.457 -2.04147 2.86386 0
M  V30 1198 H 115.331 -3.36042 1.71334 0
M  V30 1199 H 117.718 -2.81524 0.884769 0
M  V30 1200 H 117.799 -1.5035 2.06951 0
M  V30 1201 H 117.443 -3.20268 3.94196 0
M  V30 1202 H 117.373 -4.50445 2.72776 0
M  V30 1203 H 119.864 -3.00496 2.29152 0
M  V30 1204 H 120.177 -5.74578 5.16797 0
M  V30 1205 H 118.522 -5.17199 4.64253 0
M  V30 1206 H 121.713 -3.67051 2.90502 0
M  V30 1207 H 121.886 -4.9205 4.21653 0
M  V30 1208 N 115.292 -0.849877 -1.32721 0
M  V30 1209 C 116.541 -0.447175 -1.96681 0
M  V30 1210 C 116.854 1.00135 -1.68025 0
M  V30 1211 O 118.06 1.50926 -2.25685 0
M  V30 1212 C 116.516 -0.7487 -3.52026 0
M  V30 1213 C 116.124 -2.21264 -3.89546 0
M  V30 1214 C 117.868 -0.413487 -4.22481 0
M  V30 1215 C 115.775 -2.45763 -5.37917 0
M  V30 1216 H 114.705 -0.163486 -0.736063 0
M  V30 1217 H 117.356 -1.03999 -1.51183 0
M  V30 1218 H 115.738 -0.0853727 -3.95908 0
M  V30 1219 H 116.912 -2.91736 -3.56689 0
M  V30 1220 H 115.227 -2.5119 -3.32103 0
M  V30 1221 H 117.824 -0.574017 -5.3161 0
M  V30 1222 H 118.167 0.644492 -4.11281 0
M  V30 1223 H 118.7 -1.03251 -3.84167 0
M  V30 1224 H 115.439 -3.50168 -5.54132 0
M  V30 1225 H 114.959 -1.79864 -5.72197 0
M  V30 1226 H 116.638 -2.29471 -6.0494 0
M  V30 1227 N 116.77 1.45427 -0.607355 0
M  V30 1228 C 118.019 2.01452 -0.100036 0
M  V30 1229 C 118.332 1.48159 1.27704 0
M  V30 1230 O 119.538 1.96159 1.87707 0
M  V30 1231 C 117.994 3.59672 -0.128158 0
M  V30 1232 C 117.602 4.21962 -1.50507 0
M  V30 1233 C 119.346 4.23262 0.323932 0
M  V30 1234 C 117.253 5.72333 -1.48959 0
M  V30 1235 H 116.183 0.75325 -0.0336299 0
M  V30 1236 H 118.834 1.66901 -0.76265 0
M  V30 1237 H 117.216 3.91411 0.601105 0
M  V30 1238 H 118.39 4.01796 -2.25602 0
M  V30 1239 H 116.705 3.70565 -1.89923 0
M  V30 1240 H 119.302 5.33522 0.354691 0
M  V30 1241 H 119.645 3.93921 1.34656 0
M  V30 1242 H 120.178 3.96239 -0.352056 0
M  V30 1243 H 116.917 6.06373 -2.48981 0
M  V30 1244 H 116.437 5.94691 -0.781214 0
M  V30 1245 H 118.116 6.35525 -1.21313 0
M  V30 1246 N 118.248 0.346503 1.53744 0
M  V30 1247 C 119.494 -0.249473 2.0126 0
M  V30 1248 C 119.827 -1.49965 1.23386 0
M  V30 1249 O 119.102 -1.91811 0.32229 0
M  V30 1250 C 119.385 -0.560643 3.55709 0
M  V30 1251 C 119.238 0.701836 4.44291 0
M  V30 1252 C 120.557 -1.36905 4.18264 0
M  V30 1253 H 117.676 -0.0891987 0.731582 0
M  V30 1254 H 120.318 0.467624 1.84156 0
M  V30 1255 H 118.468 -1.17156 3.70414 0
M  V30 1256 H 120.14 1.33974 4.41417 0
M  V30 1257 H 118.383 1.32612 4.13033 0
M  V30 1258 H 119.054 0.43933 5.50249 0
M  V30 1259 H 121.53 -0.852448 4.07275 0
M  V30 1260 H 120.406 -1.55553 5.26398 0
M  V30 1261 H 120.667 -2.37203 3.73078 0
M  V30 1262 N 119.726 -1.57421 0.075193 0
M  V30 1263 C 120.689 -2.11791 -0.876203 0
M  V30 1264 C 121.689 -1.04268 -1.22412 0
M  V30 1265 O 122.879 -1.30242 -1.15684 0
M  V30 1266 C 120.011 -2.62207 -2.17854 0
M  V30 1267 H 121.204 -2.9716 -0.40444 0
M  V30 1268 H 118.757 -1.55333 -0.173557 0
M  V30 1269 H 119.492 -1.803 -2.6956 0
M  V30 1270 H 119.277 -3.40802 -1.93897 0
M  V30 1271 H 120.767 -3.04335 -2.85955 0
M  V30 1272 N 121.204 0.198386 -1.56346 0
M  V30 1273 C 122.452 0.91747 -1.80075 0
M  V30 1274 C 122.773 1.83929 -0.647692 0
M  V30 1275 O 122.043 1.93029 0.334166 0
M  V30 1276 H 120.623 0.341774 -0.664228 0
M  V30 1277 H 123.285 0.204684 -1.93822 0
M  V30 1278 H 122.381 1.51055 -2.7311 0
M  V30 1279 N 122.682 1.50554 0.465978 0
M  V30 1280 C 124.098 1.38093 0.800154 0
M  V30 1281 C 124.298 0.440988 1.96615 0
M  V30 1282 O 123.354 -0.114499 2.5224 0
M  V30 1283 C 124.667 2.79565 1.10742 0
M  V30 1284 C 126.215 2.88516 1.21357 0
M  V30 1285 C 126.69 4.30833 1.55393 0
M  V30 1286 N 128.181 4.33807 1.62375 0
M  V30 1287 C 128.916 5.40927 1.90225 0
M  V30 1288 N 128.412 6.58247 2.16062 0
M  V30 1289 N 130.205 5.28376 1.9177 0
M  V30 1290 H 122.356 2.10237 -0.302366 0
M  V30 1291 H 124.619 0.945203 -0.0727746 0
M  V30 1292 H 124.325 3.50208 0.323661 0
M  V30 1293 H 124.199 3.17125 2.04234 0
M  V30 1294 H 126.586 2.1809 1.98799 0
M  V30 1295 H 126.667 2.54492 0.258321 0
M  V30 1296 H 126.311 5.01799 0.784889 0
M  V30 1297 H 126.241 4.62347 2.52076 0
M  V30 1298 H 128.732 3.49212 1.44427 0
M  V30 1299 H 129.045 7.3569 2.36601 0
M  V30 1300 H 127.39 6.61413 2.13444 0
M  V30 1301 H 130.581 4.35715 1.71085 0
M  V30 1302 H 130.754 6.11944 2.13139 0
M  V30 1303 N 124.16 -0.719506 1.40217 0
M  V30 1304 C 125.406 -1.48152 1.38488 0
M  V30 1305 C 125.739 -1.94195 -0.0141867 0
M  V30 1306 O 125.014 -1.67884 -0.982096 0
M  V30 1307 C 125.297 -2.71035 2.37091 0
M  V30 1308 C 125.15 -2.30912 3.86005 0
M  V30 1309 C 126.469 -3.73182 2.33288 0
M  V30 1310 H 123.588 -0.537395 0.504357 0
M  V30 1311 H 126.23 -0.821472 1.71324 0
M  V30 1312 H 124.38 -3.27352 2.0922 0
M  V30 1313 H 126.052 -1.80107 4.24687 0
M  V30 1314 H 124.295 -1.62958 4.02029 0
M  V30 1315 H 124.966 -3.18978 4.50508 0
M  V30 1316 H 127.442 -3.26485 2.57966 0
M  V30 1317 H 126.318 -4.56806 3.04334 0
M  V30 1318 H 126.579 -4.21202 1.34317 0
M  V30 1319 N 125.638 -1.25649 -0.95132 0
M  V30 1320 C 126.884 -1.10757 -1.69884 0
M  V30 1321 C 127.217 0.350061 -1.91019 0
M  V30 1322 O 126.492 1.25783 -1.48354 0
M  V30 1323 C 126.775 -1.86606 -3.07978 0
M  V30 1324 C 126.628 -3.40217 -2.94232 0
M  V30 1325 C 127.947 -1.65182 -4.07925 0
M  V30 1326 H 125.066 -0.40374 -0.616574 0
M  V30 1327 H 127.708 -1.54521 -1.10558 0
M  V30 1328 H 125.858 -1.49409 -3.58621 0
M  V30 1329 H 127.53 -3.87108 -2.50889 0
M  V30 1330 H 125.773 -3.67759 -2.30078 0
M  V30 1331 H 126.444 -3.88505 -3.92133 0
M  V30 1332 H 128.92 -1.9757 -3.66204 0
M  V30 1333 H 127.796 -2.20683 -5.02583 0
M  V30 1334 H 128.057 -0.593933 -4.38092 0
M  V30 1335 N 127.117 1.15442 -1.07289 0
M  V30 1336 C 128.394 1.82306 -0.708792 0
M  V30 1337 C 128.774 1.94991 0.808807 0
M  V30 1338 O 128.122 1.50085 1.72298 0
M  V30 1339 C 128.332 3.18695 -1.42247 0
M  V30 1340 C 129.68 3.94341 -1.57417 0
M  V30 1341 O 130.704 3.28247 -1.38319 0
M  V30 1342 O 129.563 5.12839 -1.88834 0
M  V30 1343 H 126.657 0.787628 -0.252132 0
M  V30 1344 H 129.203 1.22559 -1.17377 0
M  V30 1345 H 127.975 3.04557 -2.45684 0
M  V30 1346 H 127.598 3.86128 -0.948223 0
M  V30 1347 N 128.595 0.856903 1.32268 0
M  V30 1348 C 129.527 0.260412 2.27716 0
M  V30 1349 C 130.54 -0.569137 1.52528 0
M  V30 1350 O 131.729 -0.39326 1.74114 0
M  V30 1351 C 128.829 -0.650477 3.32599 0
M  V30 1352 C 128.002 0.14372 4.37164 0
M  V30 1353 C 127.061 -0.69328 5.21613 0
M  V30 1354 O 126.087 -0.12599 5.69061 0
M  V30 1355 N 127.289 -2.00761 5.44679 0
M  V30 1356 H 130.054 1.08059 2.79541 0
M  V30 1357 H 127.615 0.717103 1.45152 0
M  V30 1358 H 129.607 -1.21581 3.86005 0
M  V30 1359 H 128.177 -1.37133 2.80915 0
M  V30 1360 H 127.397 0.890486 3.8401 0
M  V30 1361 H 128.685 0.68915 5.04111 0
M  V30 1362 H 128.083 -2.49181 5.07863 0
M  V30 1363 H 126.64 -2.52103 6.01072 0
M  V30 1364 N 130.073 -1.45103 0.615059 0
M  V30 1365 C 131.303 -2.06254 0.119596 0
M  V30 1366 C 131.711 -1.4591 -1.20445 0
M  V30 1367 O 131.054 -0.570384 -1.7462 0
M  V30 1368 C 131.116 -3.59396 -0.0865591 0
M  V30 1369 C 130.78 -4.42116 1.15683 0
M  V30 1370 C 131.777 -4.7662 2.07676 0
M  V30 1371 C 129.462 -4.82749 1.38775 0
M  V30 1372 C 131.456 -5.50622 3.21082 0
M  V30 1373 C 129.143 -5.56504 2.52481 0
M  V30 1374 C 130.141 -5.90358 3.43463 0
M  V30 1375 O 129.829 -6.62615 4.55189 0
M  V30 1376 H 129.561 -0.672423 0.0694512 0
M  V30 1377 H 132.115 -1.87219 0.844885 0
M  V30 1378 H 130.345 -3.76859 -0.866823 0
M  V30 1379 H 132.034 -4.02365 -0.534555 0
M  V30 1380 H 132.8 -4.4578 1.91063 0
M  V30 1381 H 128.679 -4.55829 0.688545 0
M  V30 1382 H 132.223 -5.76965 3.92119 0
M  V30 1383 H 128.12 -5.86759 2.69043 0
M  V30 1384 H 128.888 -6.81071 4.53966 0
M  V30 1385 N 131.551 -0.354651 -1.53558 0
M  V30 1386 C 132.799 0.237972 -2.00694 0
M  V30 1387 C 133.12 1.50173 -1.24391 0
M  V30 1388 O 132.39 1.92673 -0.354135 0
M  V30 1389 H 130.97 0.0909256 -0.741446 0
M  V30 1390 H 133.632 -0.478368 -1.88938 0
M  V30 1391 H 132.728 0.47264 -3.085 0
M  V30 1392 N 133.029 1.57378 -0.0835403 0
M  V30 1393 C 133.976 2.13384 0.879539 0
M  V30 1394 C 134.946 1.04936 1.28754 0
M  V30 1395 O 136.131 1.32662 1.37133 0
M  V30 1396 C 133.271 2.70932 2.13752 0
M  V30 1397 C 132.384 3.93575 1.7811 0
M  V30 1398 C 131.519 4.39326 2.98607 0
M  V30 1399 C 130.558 5.54587 2.59037 0
M  V30 1400 N 129.695 5.95243 3.72331 0
M  V30 1401 H 134.535 2.9537 0.395076 0
M  V30 1402 H 132.072 1.45953 0.183349 0
M  V30 1403 H 134.03 3.02411 2.87408 0
M  V30 1404 H 132.66 1.91693 2.59718 0
M  V30 1405 H 131.712 3.68483 0.94469 0
M  V30 1406 H 133.024 4.77258 1.45005 0
M  V30 1407 H 132.178 4.72528 3.80529 0
M  V30 1408 H 130.917 3.5452 3.34913 0
M  V30 1409 H 129.922 5.21024 1.75539 0
M  V30 1410 H 131.147 6.41133 2.23887 0
M  V30 1411 H 129.093 5.13385 4.08378 0
M  V30 1412 H 129.01 6.73694 3.43034 0
M  V30 1413 H 130.278 6.33072 4.54797 0
M  V30 1414 N 134.507 -0.190092 1.56449 0
M  V30 1415 C 135.918 -0.754312 1.70784 0
M  V30 1416 C 136.269 -1.83631 0.690951 0
M  V30 1417 O 135.394 -2.15868 -0.151604 0
M  V30 1418 C 135.989 -1.37503 3.09642 0
M  V30 1419 C 134.548 -1.88628 3.25725 0
M  V30 1420 C 133.695 -0.758098 2.66736 0
M  V30 1421 H 136.646 0.0350524 1.58661 0
M  V30 1422 H 136.667 -2.2445 3.0725 0
M  V30 1423 H 136.179 -0.587302 3.83631 0
M  V30 1424 H 134.28 -2.70103 2.56661 0
M  V30 1425 H 134.393 -2.04462 4.3328 0
M  V30 1426 H 132.757 -1.17369 2.26046 0
M  V30 1427 H 133.54 0.0174705 3.43296 0
M  V30 1428 N 135.985 -1.50799 -0.457987 0
M  V30 1429 C 137.231 -1.62683 -1.21088 0
M  V30 1430 C 137.564 -0.332268 -1.91336 0
M  V30 1431 O 136.839 0.667043 -1.82704 0
M  V30 1432 C 137.122 -2.81615 -2.24422 0
M  V30 1433 C 136.975 -4.20989 -1.58392 0
M  V30 1434 C 138.294 -2.96085 -3.2561 0
M  V30 1435 H 135.413 -0.592087 -0.438864 0
M  V30 1436 H 138.055 -1.83225 -0.50286 0
M  V30 1437 H 136.205 -2.64231 -2.84806 0
M  V30 1438 H 137.877 -4.49994 -1.01504 0
M  V30 1439 H 136.12 -4.24641 -0.886704 0
M  V30 1440 H 136.791 -5.0016 -2.33547 0
M  V30 1441 H 139.267 -3.12042 -2.75262 0
M  V30 1442 H 138.143 -3.80902 -3.95228 0
M  V30 1443 H 138.404 -2.0726 -3.90507 0
M  V30 1444 N 137.463 0.71206 -1.40597 0
M  V30 1445 C 138.874 1.29135 -1.34837 0
M  V30 1446 C 139.225 1.96186 -0.0235395 0
M  V30 1447 O 138.35 1.97768 0.878444 0
M  V30 1448 C 138.945 2.34827 -2.44217 0
M  V30 1449 C 137.504 2.88371 -2.41907 0
M  V30 1450 C 136.651 1.62202 -2.24913 0
M  V30 1451 H 139.602 0.507944 -1.50352 0
M  V30 1452 H 139.623 3.15749 -2.12327 0
M  V30 1453 H 139.135 1.85996 -3.40627 0
M  V30 1454 H 137.236 3.41422 -1.49204 0
M  V30 1455 H 137.349 3.39925 -3.37621 0
M  V30 1456 H 135.713 1.874 -1.72492 0
M  V30 1457 H 136.496 1.15391 -3.23326 0
M  V30 1458 N 138.941 1.26152 0.944643 0
M  V30 1459 C 139.889 1.07215 2.06417 0
M  V30 1460 C 140.883 9.2007e-05 1.694 0
M  V30 1461 O 142.089 0.1565 1.79318 0
M  V30 1462 H 138.464 0.329837 0.675805 0
M  V30 1463 H 140.435 2.02099 2.19541 0
M  V30 1464 C 139.184 0.718197 3.40202 0
M  V30 1465 H 138.507 1.53497 3.69159 0
M  V30 1466 H 139.947 0.625459 4.19361 0
M  V30 1467 C 138.406 -0.576435 3.31932 0
M  V30 1468 O 138.936 -1.61574 3.67773 0
M  V30 1469 N 137.142 -0.565781 2.85039 0
M  V30 1470 H 136.689 0.280367 2.5607 0
M  V30 1471 H 136.647 -1.43213 2.79888 0
M  V30 1472 N 140.419 -1.14872 1.07899 0
M  V30 1473 C 141.647 -1.89661 0.82683 0
M  V30 1474 C 142.062 -1.78312 -0.620519 0
M  V30 1475 O 141.419 -1.13888 -1.42604 0
M  V30 1476 C 141.47 -3.39817 1.23316 0
M  V30 1477 O 141.191 -3.50845 2.62372 0
M  V30 1478 C 142.692 -4.31615 1.0111 0
M  V30 1479 H 139.912 -0.60092 0.298557 0
M  V30 1480 H 142.456 -1.4551 1.43691 0
M  V30 1481 H 140.611 -3.8161 0.667286 0
M  V30 1482 H 141.025 -4.44076 2.79101 0
M  V30 1483 H 142.499 -5.35367 1.34486 0
M  V30 1484 H 142.976 -4.39169 -0.0522168 0
M  V30 1485 H 143.582 -3.95572 1.56215 0
M  V30 1486 N 141.898 -0.863906 -1.31812 0
M  V30 1487 C 142.828 -0.330843 -2.31144 0
M  V30 1488 C 143.809 0.575005 -1.60087 0
M  V30 1489 O 144.994 0.493304 -1.8783 0
M  V30 1490 C 142.124 0.47374 -3.44054 0
M  V30 1491 C 141.078 -0.338481 -4.26659 0
M  V30 1492 C 140.404 0.591412 -5.31419 0
M  V30 1493 C 141.704 -1.56926 -4.98168 0
M  V30 1494 H 143.398 -1.16086 -2.75979 0
M  V30 1495 H 140.944 -0.559657 -1.32679 0
M  V30 1496 H 142.897 0.857143 -4.12591 0
M  V30 1497 H 141.621 1.33721 -2.9797 0
M  V30 1498 H 140.28 -0.703754 -3.59782 0
M  V30 1499 H 139.928 1.45199 -4.81587 0
M  V30 1500 H 139.628 0.0519022 -5.87577 0
M  V30 1501 H 141.152 0.97179 -6.02817 0
M  V30 1502 H 142.566 -1.25764 -5.59336 0
M  V30 1503 H 140.963 -2.04739 -5.64094 0
M  V30 1504 H 142.033 -2.32544 -4.25501 0
M  V30 1505 N 143.376 1.44774 -0.622745 0
M  V30 1506 C 144.622 2.0242 -0.124083 0
M  V30 1507 C 144.955 1.4881 1.24777 0
M  V30 1508 O 144.23 0.668799 1.8264 0
M  V30 1509 C 144.513 3.59957 -0.101619 0
M  V30 1510 C 144.366 4.23867 -1.50521 0
M  V30 1511 C 145.685 4.36284 0.578272 0
M  V30 1512 H 142.804 0.735528 -0.0465645 0
M  V30 1513 H 145.446 1.72447 -0.797617 0
M  V30 1514 H 143.596 3.85623 0.471934 0
M  V30 1515 H 145.268 4.09336 -2.12701 0
M  V30 1516 H 143.511 3.81684 -2.06154 0
M  V30 1517 H 144.182 5.32843 -1.4416 0
M  V30 1518 H 146.658 4.16001 0.0906057 0
M  V30 1519 H 145.534 5.46004 0.563149 0
M  V30 1520 H 145.795 4.10271 1.64713 0
M  V30 1521 N 144.854 0.36279 1.53368 0
M  V30 1522 C 145.764 -0.492994 2.29362 0
M  V30 1523 C 146.78 -1.09507 1.35219 0
M  V30 1524 O 147.956 -1.10662 1.68273 0
M  V30 1525 C 145.021 -1.61855 3.066 0
M  V30 1526 C 144.082 -1.04429 4.16405 0
M  V30 1527 C 143.315 -2.11621 4.89951 0
M  V30 1528 O 143.538 -3.32684 4.63333 0
M  V30 1529 O 142.472 -1.74835 5.75948 0
M  V30 1530 H 146.298 0.125331 3.03441 0
M  V30 1531 H 143.883 0.127253 1.48857 0
M  V30 1532 H 145.765 -2.27302 3.54841 0
M  V30 1533 H 144.44 -2.22233 2.3536 0
M  V30 1534 H 143.347 -0.353819 3.72423 0
M  V30 1535 H 144.68 -0.485113 4.89804 0
M  V30 1536 N 146.332 -1.57332 0.0918853 0
M  V30 1537 C 147.265 -2.09499 -0.904735 0
M  V30 1538 C 148.243 -1.00479 -1.27839 0
M  V30 1539 O 149.427 -1.27954 -1.38419 0
M  V30 1540 C 146.554 -2.56931 -2.2069 0
M  V30 1541 C 145.6 -3.77579 -1.98334 0
M  V30 1542 S 146.433 -5.21317 -1.22428 0
M  V30 1543 C 147.589 -5.72097 -2.53882 0
M  V30 1544 H 147.822 -2.93705 -0.460922 0
M  V30 1545 H 145.355 -1.53923 -0.121332 0
M  V30 1546 H 147.313 -2.84917 -2.95521 0
M  V30 1547 H 145.974 -1.72956 -2.62192 0
M  V30 1548 H 145.167 -4.08824 -2.94752 0
M  V30 1549 H 144.769 -3.5007 -1.31633 0
M  V30 1550 H 147.061 -5.80168 -3.49874 0
M  V30 1551 H 148.004 -6.70654 -2.27219 0
M  V30 1552 H 148.412 -5.00012 -2.62007 0
M  V30 1553 N 147.81 0.181792 -1.56548 0
M  V30 1554 C 149.056 0.896803 -1.82562 0
M  V30 1555 C 149.411 1.80324 -0.670908 0
M  V30 1556 O 148.704 1.8868 0.333235 0
M  V30 1557 C 148.898 1.73728 -3.12335 0
M  V30 1558 C 148.727 0.913714 -4.4032 0
M  V30 1559 C 147.497 0.592903 -5.01809 0
M  V30 1560 C 149.695 0.260164 -5.13642 0
M  V30 1561 N 147.677 -0.247901 -6.13399 0
M  V30 1562 C 149.048 -0.442256 -6.18421 0
M  V30 1563 C 151.103 0.177253 -4.97584 0
M  V30 1564 C 149.806 -1.21971 -7.08883 0
M  V30 1565 C 151.832 -0.586839 -5.88481 0
M  V30 1566 C 151.194 -1.27766 -6.92716 0
M  V30 1567 H 147.293 0.307122 -0.719166 0
M  V30 1568 H 149.877 0.164535 -1.94004 0
M  V30 1569 H 148.048 2.44105 -3.02105 0
M  V30 1570 H 149.78 2.39279 -3.26386 0
M  V30 1571 H 146.535 0.920502 -4.64568 0
M  V30 1572 H 146.959 -0.658304 -6.73792 0
M  V30 1573 H 151.601 0.696993 -4.17015 0
M  V30 1574 H 149.319 -1.75083 -7.88905 0
M  V30 1575 H 152.905 -0.652522 -5.78129 0
M  V30 1576 H 151.785 -1.85943 -7.61836 0
M  V30 1577 N 149.288 1.51039 0.449983 0
M  V30 1578 C 150.22 1.67617 1.56324 0
M  V30 1579 C 151.233 0.557083 1.52972 0
M  V30 1580 O 152.422 0.830989 1.57977 0
M  V30 1581 C 149.522 1.66402 2.95235 0
M  V30 1582 C 148.695 2.9469 3.23229 0
M  V30 1583 C 147.754 2.85832 4.41799 0
M  V30 1584 O 146.78 3.59785 4.41071 0
M  V30 1585 N 147.982 2.00821 5.44657 0
M  V30 1586 H 150.747 2.63648 1.42512 0
M  V30 1587 H 148.308 1.48767 0.638737 0
M  V30 1588 H 150.3 1.58062 3.72557 0
M  V30 1589 H 148.87 0.780182 3.02708 0
M  V30 1590 H 148.09 3.16996 2.34323 0
M  V30 1591 H 149.378 3.79636 3.38754 0
M  V30 1592 H 148.776 1.40091 5.48079 0
M  V30 1593 H 147.333 1.98368 6.20881 0
M  V30 1594 N 150.766 -0.704594 1.40972 0
M  V30 1595 C 151.729 -1.80035 1.41845 0
M  V30 1596 C 152.729 -1.57774 0.310474 0
M  V30 1597 O 153.919 -1.64613 0.56992 0
M  V30 1598 C 151.051 -3.18284 1.22098 0
M  V30 1599 H 152.244 -1.80658 2.3938 0
M  V30 1600 H 149.797 -0.911329 1.26982 0
M  V30 1601 H 150.532 -3.23306 0.253672 0
M  V30 1602 H 150.317 -3.35843 2.02366 0
M  V30 1603 H 151.807 -3.98289 1.25522 0
M  V30 1604 N 152.244 -1.26651 -0.937939 0
M  V30 1605 C 153.192 -1.08308 -2.05845 0
M  V30 1606 C 154.186 -0.0090757 -1.69398 0
M  V30 1607 O 155.392 -0.166007 -1.79233 0
M  V30 1608 H 151.767 -0.333416 -0.674046 0
M  V30 1609 H 153.738 -2.03261 -2.18467 0
M  V30 1610 C 152.487 -0.736229 -3.39816 0
M  V30 1611 H 151.81 -1.55453 -3.6834 0
M  V30 1612 H 153.25 -0.64769 -4.19024 0
M  V30 1613 C 151.709 0.558824 -3.32233 0
M  V30 1614 O 152.239 1.59621 -3.68624 0
M  V30 1615 N 150.445 0.550657 -2.85335 0
M  V30 1616 H 149.992 -0.293943 -2.55917 0
M  V30 1617 H 149.95 1.41726 -2.80644 0
M  V30 1618 N 153.722 1.14298 -1.08507 0
M  V30 1619 C 154.685 2.17607 -0.719711 0
M  V30 1620 C 155.685 1.58907 0.245997 0
M  V30 1621 O 156.875 1.74181 0.0254081 0
M  V30 1622 C 154.007 3.40842 -0.0627695 0
M  V30 1623 H 155.2 2.51443 -1.63452 0
M  V30 1624 H 152.753 1.28963 -0.88307 0
M  V30 1625 H 153.488 3.12587 0.863716 0
M  V30 1626 H 153.273 3.84713 -0.757504 0
M  V30 1627 H 154.763 4.17221 0.177786 0
M  V30 1628 N 155.201 0.870884 1.31352 0
M  V30 1629 C 156.449 0.48132 1.96285 0
M  V30 1630 C 156.77 -0.969813 1.69173 0
M  V30 1631 O 156.04 -1.67998 1.00764 0
M  V30 1632 H 154.62 0.175002 0.726212 0
M  V30 1633 H 157.282 1.11087 1.60143 0
M  V30 1634 H 156.378 0.639825 3.05471 0
M  V30 1635 N 156.679 -1.44442 0.630414 0
M  V30 1636 C 157.927 -2.01653 0.134351 0
M  V30 1637 C 158.248 -1.49836 -1.24796 0
M  V30 1638 O 157.518 -0.701684 -1.82902 0
M  V30 1639 H 156.098 -0.74554 0.0466769 0
M  V30 1640 H 158.76 -1.76952 0.816955 0
M  V30 1641 H 157.856 -3.11935 0.101498 0
M  V30 1642 N 158.157 -0.370918 -1.53173 0
M  V30 1643 C 159.573 -0.0200818 -1.59587 0
M  V30 1644 C 159.773 1.46279 -1.38581 0
M  V30 1645 O 158.829 2.22506 -1.19363 0
M  V30 1646 C 160.142 -0.4808 -2.96831 0
M  V30 1647 C 161.69 -0.435477 -3.09956 0
M  V30 1648 C 162.165 -0.872092 -4.4962 0
M  V30 1649 N 163.656 -0.827364 -4.55751 0
M  V30 1650 C 164.391 -1.13683 -5.62018 0
M  V30 1651 N 163.887 -1.51584 -6.76014 0
M  V30 1652 N 165.68 -1.05927 -5.52029 0
M  V30 1653 H 157.831 -1.33652 -1.65079 0
M  V30 1654 H 160.094 -0.546634 -0.774529 0
M  V30 1655 H 159.8 -1.51577 -3.1736 0
M  V30 1656 H 159.674 0.129796 -3.76977 0
M  V30 1657 H 162.061 0.590371 -2.89134 0
M  V30 1658 H 162.142 -1.08164 -2.31806 0
M  V30 1659 H 161.786 -1.89608 -4.71181 0
M  V30 1660 H 161.716 -0.203127 -5.26208 0
M  V30 1661 H 164.207 -0.548216 -3.73902 0
M  V30 1662 H 164.52 -1.73609 -7.53047 0
M  V30 1663 H 162.865 -1.55454 -6.77391 0
M  V30 1664 H 166.056 -0.762321 -4.61851 0
M  V30 1665 H 166.229 -1.30378 -6.34749 0
M  V30 1666 N 159.635 1.57281 -0.100228 0
M  V30 1667 C 160.865 1.98591 0.569681 0
M  V30 1668 C 161.273 0.978315 1.61943 0
M  V30 1669 O 160.616 -0.0396108 1.83657 0
M  V30 1670 C 160.678 3.36282 1.271 0
M  V30 1671 C 160.342 4.55488 0.371409 0
M  V30 1672 C 161.339 5.18491 -0.382504 0
M  V30 1673 C 159.024 5.01474 0.287965 0
M  V30 1674 C 161.018 6.25852 -1.20779 0
M  V30 1675 C 158.705 6.08701 -0.540965 0
M  V30 1676 C 159.703 6.70755 -1.28749 0
M  V30 1677 O 159.391 7.75914 -2.10269 0
M  V30 1678 H 159.123 0.65752 0.156982 0
M  V30 1679 H 161.677 2.0463 -0.177734 0
M  V30 1680 H 159.907 3.26941 2.0651 0
M  V30 1681 H 161.596 3.62005 1.83595 0
M  V30 1682 H 162.362 4.83891 -0.3278 0
M  V30 1683 H 158.241 4.52932 0.858689 0
M  V30 1684 H 161.785 6.74218 -1.79096 0
M  V30 1685 H 157.682 6.42732 -0.597131 0
M  V30 1686 H 158.45 7.92925 -2.03007 0
M  V30 1687 N 161.113 -0.173488 1.56642 0
M  V30 1688 C 162.529 -0.525174 1.50712 0
M  V30 1689 C 162.729 -1.8476 0.804107 0
M  V30 1690 O 161.785 -2.49869 0.363574 0
M  V30 1691 C 163.098 -0.559937 2.95441 0
M  V30 1692 C 164.646 -0.647288 3.06234 0
M  V30 1693 C 165.121 -0.712963 4.52417 0
M  V30 1694 N 166.612 -0.775911 4.56655 0
M  V30 1695 C 167.347 -0.847264 5.67106 0
M  V30 1696 N 166.843 -0.879585 6.87194 0
M  V30 1697 N 168.636 -0.886117 5.55071 0
M  V30 1698 H 160.787 0.693681 2.00753 0
M  V30 1699 H 163.05 0.249841 0.914485 0
M  V30 1700 H 162.756 0.343049 3.50023 0
M  V30 1701 H 162.63 -1.40718 3.49969 0
M  V30 1702 H 165.017 -1.5407 2.51687 0
M  V30 1703 H 165.098 0.226586 2.54794 0
M  V30 1704 H 164.742 0.176183 5.07594 0
M  V30 1705 H 164.672 -1.60295 5.0161 0
M  V30 1706 H 167.163 -0.759304 3.70193 0
M  V30 1707 H 167.476 -0.935144 7.67121 0
M  V30 1708 H 165.821 -0.847898 6.89808 0
M  V30 1709 H 169.012 -0.857853 4.60172 0
M  V30 1710 H 169.185 -0.938263 6.41171 0
M  V30 1711 N 162.591 -1.51276 -0.441967 0
M  V30 1712 C 163.541 -1.6864 -1.53442 0
M  V30 1713 C 164.525 -0.540444 -1.51552 0
M  V30 1714 O 165.717 -0.796157 -1.58083 0
M  V30 1715 C 162.846 -1.8106 -2.91672 0
M  V30 1716 C 161.932 -3.01424 -2.98336 0
M  V30 1717 N 162.323 -4.2467 -2.74752 0
M  V30 1718 C 160.621 -3.00584 -3.29493 0
M  V30 1719 C 161.322 -5.05891 -2.87139 0
M  V30 1720 N 160.298 -4.40442 -3.18609 0
M  V30 1721 H 164.1 -2.61598 -1.33954 0
M  V30 1722 H 161.614 -1.4886 -0.6492 0
M  V30 1723 H 163.611 -1.91609 -3.70259 0
M  V30 1724 H 162.271 -0.892795 -3.12185 0
M  V30 1725 H 163.282 -4.53691 -2.49769 0
M  V30 1726 H 159.959 -2.18417 -3.55809 0
M  V30 1727 H 161.349 -6.13983 -2.72899 0
M  V30 1728 N 164.069 0.697108 -1.41344 0
M  V30 1729 C 165.016 1.81106 -1.43071 0
M  V30 1730 C 165.986 1.63632 -0.285275 0
M  V30 1731 O 167.171 1.84504 -0.486091 0
M  V30 1732 C 164.311 3.18975 -1.31715 0
M  V30 1733 C 163.424 3.47892 -2.56115 0
M  V30 1734 C 162.559 4.75367 -2.37064 0
M  V30 1735 C 161.598 4.97247 -3.56948 0
M  V30 1736 N 160.735 6.15947 -3.36977 0
M  V30 1737 H 165.575 1.78965 -2.38276 0
M  V30 1738 H 163.112 0.873975 -1.18322 0
M  V30 1739 H 165.07 3.98615 -1.23133 0
M  V30 1740 H 163.7 3.20297 -0.401183 0
M  V30 1741 H 162.752 2.62669 -2.75153 0
M  V30 1742 H 164.064 3.59962 -3.45295 0
M  V30 1743 H 163.218 5.63059 -2.25941 0
M  V30 1744 H 161.957 4.65541 -1.45338 0
M  V30 1745 H 160.962 4.08004 -3.68527 0
M  V30 1746 H 162.187 5.08934 -4.49626 0
M  V30 1747 H 160.133 6.07336 -2.47949 0
M  V30 1748 H 160.05 6.28777 -4.19732 0
M  V30 1749 H 161.318 7.06377 -3.29623 0
M  V30 1750 N 165.547 1.27147 0.931209 0
M  V30 1751 C 166.495 1.09398 2.05268 0
M  V30 1752 C 167.489 0.0180591 1.6939 0
M  V30 1753 O 168.695 0.17551 1.79142 0
M  V30 1754 H 165.07 0.336986 0.672268 0
M  V30 1755 H 167.041 2.04416 2.17386 0
M  V30 1756 C 165.79 0.75424 3.39421 0
M  V30 1757 H 165.113 1.57404 3.67511 0
M  V30 1758 H 166.553 0.669903 4.18674 0
M  V30 1759 C 165.012 -0.541197 3.32525 0
M  V30 1760 O 165.542 -1.57664 3.69466 0
M  V30 1761 N 163.748 -0.535517 2.85623 0
M  V30 1762 H 163.295 0.307511 2.55758 0
M  V30 1763 H 163.253 -1.40236 2.81392 0
M  V30 1764 N 167.025 -1.13721 1.09112 0
M  V30 1765 C 168.302 -1.81155 0.737706 0
M  V30 1766 C 168.682 -1.96253 -0.777683 0
M  V30 1767 O 168.03 -1.52807 -1.69889 0
M  V30 1768 C 168.24 -3.16392 1.47299 0
M  V30 1769 C 169.588 -3.91787 1.63671 0
M  V30 1770 O 170.612 -3.26005 1.43524 0
M  V30 1771 O 169.471 -5.0977 1.96969 0
M  V30 1772 H 166.565 -0.783518 0.26463 0
M  V30 1773 H 169.111 -1.20676 1.19312 0
M  V30 1774 H 167.883 -3.0061 2.50498 0
M  V30 1775 H 167.506 -3.8457 1.00953 0
M  V30 1776 N 168.503 -0.877838 -1.30888 0
M  V30 1777 C 169.919 -0.570844 -1.49042 0
M  V30 1778 C 170.119 0.893159 -1.80624 0
M  V30 1779 O 169.175 1.67485 -1.88958 0
M  V30 1780 C 170.488 -1.47784 -2.61878 0
M  V30 1781 C 172.036 -1.48071 -2.75761 0
M  V30 1782 C 172.511 -2.37347 -3.91702 0
M  V30 1783 N 174.002 -2.35271 -3.99001 0
M  V30 1784 C 174.737 -3.01063 -4.88004 0
M  V30 1785 N 174.233 -3.76055 -5.81854 0
M  V30 1786 N 176.026 -2.90332 -4.81315 0
M  V30 1787 H 168.177 -1.82502 -1.0866 0
M  V30 1788 H 170.44 -0.780797 -0.537644 0
M  V30 1789 H 170.146 -2.51993 -2.45341 0
M  V30 1790 H 170.02 -1.18215 -3.58197 0
M  V30 1791 H 172.407 -0.446166 -2.91708 0
M  V30 1792 H 172.488 -1.81668 -1.80085 0
M  V30 1793 H 172.132 -3.40883 -3.76512 0
M  V30 1794 H 172.062 -2.01071 -4.86701 0
M  V30 1795 H 174.553 -1.80768 -3.3186 0
M  V30 1796 H 174.866 -4.23366 -6.46514 0
M  V30 1797 H 173.211 -3.80163 -5.81808 0
M  V30 1798 H 176.402 -2.31278 -4.06974 0
M  V30 1799 H 176.575 -3.41885 -5.50471 0
M  V30 1800 N 169.982 1.44106 -0.638065 0
M  V30 1801 C 171.212 2.06037 -0.152394 0
M  V30 1802 C 171.62 1.47808 1.18108 0
M  V30 1803 O 170.963 0.598092 1.73691 0
M  V30 1804 C 171.025 3.59488 0.0293714 0
M  V30 1805 C 170.689 4.4022 -1.22702 0
M  V30 1806 C 171.686 4.73256 -2.15232 0
M  V30 1807 C 169.371 4.8048 -1.46437 0
M  V30 1808 C 171.365 5.45444 -3.29802 0
M  V30 1809 C 169.052 5.52417 -2.61303 0
M  V30 1810 C 170.05 5.84819 -3.52811 0
M  V30 1811 O 169.738 6.55289 -4.65673 0
M  V30 1812 H 169.47 0.671233 -0.0801401 0
M  V30 1813 H 172.024 1.85851 -0.874563 0
M  V30 1814 H 170.254 3.78191 0.806758 0
M  V30 1815 H 171.943 4.03164 0.470475 0
M  V30 1816 H 172.709 4.42684 -1.98131 0
M  V30 1817 H 168.588 4.54676 -0.760977 0
M  V30 1818 H 172.132 5.70653 -4.01249 0
M  V30 1819 H 168.029 5.82404 -2.78344 0
M  V30 1820 H 168.797 6.73762 -4.64744 0
M  V30 1821 N 171.46 0.379036 1.52974 0
M  V30 1822 C 172.39 -0.452706 2.29069 0
M  V30 1823 C 173.371 -1.07237 1.32039 0
M  V30 1824 O 174.556 -1.08708 1.60923 0
M  V30 1825 C 171.686 -1.5856 3.08992 0
M  V30 1826 C 170.64 -1.0925 4.13822 0
M  V30 1827 C 169.966 -2.31668 4.81907 0
M  V30 1828 C 171.266 -0.167702 5.22031 0
M  V30 1829 H 172.96 0.182181 2.98845 0
M  V30 1830 H 170.506 0.0890592 1.43724 0
M  V30 1831 H 172.459 -2.1742 3.6098 0
M  V30 1832 H 171.183 -2.24792 2.36931 0
M  V30 1833 H 169.842 -0.526494 3.628 0
M  V30 1834 H 169.49 -2.96386 4.06404 0
M  V30 1835 H 169.19 -1.9934 5.52754 0
M  V30 1836 H 170.714 -2.91189 5.36695 0
M  V30 1837 H 172.128 -0.664186 5.6944 0
M  V30 1838 H 170.525 0.0653265 6.00064 0
M  V30 1839 H 171.595 0.786347 4.78482 0
M  V30 1840 N 172.938 -1.57226 0.108567 0
M  V30 1841 C 173.901 -2.13602 -0.831082 0
M  V30 1842 C 174.901 -1.06841 -1.20173 0
M  V30 1843 O 176.091 -1.32666 -1.12895 0
M  V30 1844 C 173.223 -2.66769 -2.12243 0
M  V30 1845 H 174.416 -2.97951 -0.341317 0
M  V30 1846 H 171.969 -1.55667 -0.14057 0
M  V30 1847 H 172.704 -1.85977 -2.65675 0
M  V30 1848 H 172.489 -3.44839 -1.86625 0
M  V30 1849 H 173.979 -3.10332 -2.79435 0
M  V30 1850 N 174.416 0.165178 -1.56732 0
M  V30 1851 C 175.827 0.727046 -1.71962 0
M  V30 1852 C 176.178 1.82508 -0.720078 0
M  V30 1853 O 175.303 2.16082 0.117242 0
M  V30 1854 C 175.898 1.32559 -3.11791 0
M  V30 1855 C 174.457 1.83422 -3.28684 0
M  V30 1856 C 173.604 0.715567 -2.67908 0
M  V30 1857 H 176.555 -0.0602896 -1.58585 0
M  V30 1858 H 176.576 2.19533 -3.10782 0
M  V30 1859 H 176.088 0.526195 -3.84516 0
M  V30 1860 H 174.189 2.65986 -2.60926 0
M  V30 1861 H 174.302 1.97543 -4.36478 0
M  V30 1862 H 172.666 1.13758 -2.27884 0
M  V30 1863 H 173.449 -0.0720836 -3.43224 0
M  V30 1864 N 175.894 1.51508 0.433938 0
M  V30 1865 C 176.824 1.76016 1.53429 0
M  V30 1866 C 177.805 0.610112 1.58782 0
M  V30 1867 O 178.99 0.853177 1.74455 0
M  V30 1868 C 176.12 1.88831 2.9148 0
M  V30 1869 C 175.074 3.04288 3.00987 0
M  V30 1870 C 174.4 3.0229 4.4105 0
M  V30 1871 C 175.7 4.44193 2.74754 0
M  V30 1872 H 177.394 2.68152 1.33171 0
M  V30 1873 H 174.94 1.29035 0.639214 0
M  V30 1874 H 176.893 2.04559 3.6842 0
M  V30 1875 H 175.617 0.933455 3.12976 0
M  V30 1876 H 174.276 2.8827 2.26486 0
M  V30 1877 H 173.924 2.04576 4.59519 0
M  V30 1878 H 173.624 3.79822 4.4834 0
M  V30 1879 H 175.148 3.20116 5.1996 0
M  V30 1880 H 176.562 4.60544 3.41426 0
M  V30 1881 H 174.959 5.23457 2.9345 0
M  V30 1882 H 176.029 4.53996 1.70339 0
M  V30 1883 N 177.372 -0.689602 1.41712 0
M  V30 1884 C 178.649 -1.44457 1.31877 0
M  V30 1885 C 179.029 -2.11039 -0.0508537 0
M  V30 1886 O 178.377 -2.02138 -1.06547 0
M  V30 1887 C 178.587 -2.45913 2.47645 0
M  V30 1888 C 179.935 -3.10991 2.89084 0
M  V30 1889 O 180.959 -2.56238 2.47428 0
M  V30 1890 O 179.818 -4.10174 3.61137 0
M  V30 1891 H 176.912 -0.64362 0.519309 0
M  V30 1892 H 179.458 -0.719576 1.53689 0
M  V30 1893 H 178.23 -1.95409 3.39015 0
M  V30 1894 H 177.853 -3.25913 2.27742 0
M  V30 1895 N 178.85 -1.27639 -0.924453 0
M  V30 1896 C 180.261 -1.12834 -1.48746 0
M  V30 1897 C 180.612 0.285505 -1.94112 0
M  V30 1898 O 179.737 1.17874 -1.81479 0
M  V30 1899 C 180.332 -2.04217 -2.70334 0
M  V30 1900 C 178.891 -1.93509 -3.22848 0
M  V30 1901 C 178.038 -1.96583 -1.95577 0
M  V30 1902 H 180.989 -1.40484 -0.738233 0
M  V30 1903 H 181.01 -1.59989 -3.4523 0
M  V30 1904 H 180.522 -3.07111 -2.37285 0
M  V30 1905 H 178.623 -0.936131 -3.60649 0
M  V30 1906 H 178.736 -2.79917 -3.88823 0
M  V30 1907 H 177.1 -1.4085 -2.12211 0
M  V30 1908 H 177.883 -3.01137 -1.64837 0
M  V30 1909 N 180.328 1.1314 -1.09713 0
M  V30 1910 C 181.276 2.20717 -0.733934 0
M  V30 1911 C 182.27 1.6729 0.266506 0
M  V30 1912 O 183.476 1.79547 0.127656 0
M  V30 1913 H 179.851 0.719292 -0.21937 0
M  V30 1914 H 181.822 2.48611 -1.6503 0
M  V30 1915 C 180.571 3.47265 -0.173849 0
M  V30 1916 H 179.894 3.88716 -0.934873 0
M  V30 1917 H 181.334 4.23979 0.0423126 0
M  V30 1918 C 179.793 3.18724 1.09164 0
M  V30 1919 O 180.323 3.37762 2.17439 0
M  V30 1920 N 178.529 2.72583 1.00732 0
M  V30 1921 H 178.076 2.57291 0.126121 0
M  V30 1922 H 178.034 2.53862 1.85476 0
M  V30 1923 N 181.806 0.884767 1.30421 0
M  V30 1924 C 183.053 0.503105 1.96151 0
M  V30 1925 C 183.381 -0.947676 1.69851 0
M  V30 1926 O 182.636 -1.68467 0.995861 0
M  V30 1927 C 182.935 0.724318 3.49983 0
M  V30 1928 C 182.601 2.15015 3.96332 0
M  V30 1929 C 181.263 2.54005 4.08699 0
M  V30 1930 C 183.615 3.07936 4.20505 0
M  V30 1931 C 180.943 3.85128 4.42599 0
M  V30 1932 C 183.295 4.3859 4.55874 0
M  V30 1933 C 181.959 4.77474 4.66449 0
M  V30 1934 H 181.229 0.184099 0.717766 0
M  V30 1935 H 183.876 1.12058 1.55291 0
M  V30 1936 H 182.181 0.0238086 3.91793 0
M  V30 1937 H 183.878 0.408617 3.98913 0
M  V30 1938 H 180.468 1.8375 3.87213 0
M  V30 1939 H 184.652 2.79033 4.10431 0
M  V30 1940 H 179.908 4.14996 4.48986 0
M  V30 1941 H 184.082 5.10629 4.7353 0
M  V30 1942 H 181.709 5.79115 4.92473 0
M  V30 1943 N 183.284 -1.43765 0.645699 0
M  V30 1944 C 184.532 -2.01499 0.155731 0
M  V30 1945 C 184.853 -1.51151 -1.232 0
M  V30 1946 O 184.123 -0.721044 -1.82148 0
M  V30 1947 H 182.703 -0.745003 0.0545817 0
M  V30 1948 H 185.365 -1.76075 0.835677 0
M  V30 1949 H 184.461 -3.1181 0.134577 0
M  V30 1950 N 184.763 -0.387143 -1.52771 0
M  V30 1951 C 186.011 0.195349 -2.01154 0
M  V30 1952 C 186.332 1.475 -1.27549 0
M  V30 1953 O 185.602 1.91878 -0.394924 0
M  V30 1954 H 184.182 0.075178 -0.743207 0
M  V30 1955 H 186.844 -0.518337 -1.87881 0
M  V30 1956 H 185.94 0.407096 -3.09434 0
M  V30 1957 N 186.241 1.57166 -0.116904 0
M  V30 1958 C 187.487 1.95412 0.542405 0
M  V30 1959 C 187.82 1.00019 1.66463 0
M  V30 1960 O 187.095 0.0370346 1.94465 0
M  V30 1961 C 187.378 3.43615 1.07708 0
M  V30 1962 C 187.231 4.49781 -0.0415868 0
M  V30 1963 C 188.55 3.93616 1.96861 0
M  V30 1964 H 185.669 0.710543 0.195696 0
M  V30 1965 H 188.311 1.89027 -0.192038 0
M  V30 1966 H 186.461 3.49187 1.70296 0
M  V30 1967 H 188.133 4.56308 -0.676793 0
M  V30 1968 H 186.376 4.28033 -0.705019 0
M  V30 1969 H 187.047 5.50733 0.373717 0
M  V30 1970 H 189.523 3.90335 1.44146 0
M  V30 1971 H 188.399 4.97838 2.3119 0
M  V30 1972 H 188.66 3.34188 2.89432 0
M  V30 1973 N 187.719 -0.156864 1.56817 0
M  V30 1974 C 188.967 -0.869404 1.82444 0
M  V30 1975 C 189.288 -1.82147 0.69623 0
M  V30 1976 O 188.558 -1.93847 -0.28287 0
M  V30 1977 H 187.138 -0.324043 0.673056 0
M  V30 1978 H 189.8 -0.153224 1.94297 0
M  V30 1979 H 188.896 -1.43761 2.77019 0
M  V30 1980 N 189.197 -1.51736 -0.425897 0
M  V30 1981 C 190.613 -1.40166 -0.76326 0
M  V30 1982 C 190.813 -0.492962 -1.95377 0
M  V30 1983 O 189.869 0.0475815 -2.52455 0
M  V30 1984 C 191.182 -2.82403 -1.03291 0
M  V30 1985 C 192.73 -2.91632 -1.13665 0
M  V30 1986 C 193.205 -4.34801 -1.43916 0
M  V30 1987 N 194.696 -4.3796 -1.50816 0
M  V30 1988 C 195.431 -5.4578 -1.75817 0
M  V30 1989 N 194.927 -6.63744 -1.98534 0
M  V30 1990 N 196.72 -5.33274 -1.77694 0
M  V30 1991 H 188.871 -2.09361 0.358 0
M  V30 1992 H 191.134 -0.942941 0.0978094 0
M  V30 1993 H 190.84 -3.50943 -0.230696 0
M  V30 1994 H 190.714 -3.22428 -1.95754 0
M  V30 1995 H 193.101 -2.23284 -1.92947 0
M  V30 1996 H 193.182 -2.55088 -0.190756 0
M  V30 1997 H 192.826 -5.03703 -0.65157 0
M  V30 1998 H 192.756 -4.68868 -2.39729 0
M  V30 1999 H 195.247 -3.52919 -1.35118 0
M  V30 2000 H 195.56 -7.41704 -2.17013 0
M  V30 2001 H 193.905 -6.66839 -1.95832 0
M  V30 2002 H 197.096 -4.40098 -1.59473 0
M  V30 2003 H 197.269 -6.1738 -1.9684 0
M  V30 2004 N 190.675 0.682077 -1.42076 0
M  V30 2005 C 191.915 1.45424 -1.43636 0
M  V30 2006 C 192.279 1.91939 -0.0484001 0
M  V30 2007 O 193.48 2.6873 0.0612514 0
M  V30 2008 C 191.751 2.62427 -2.42625 0
M  V30 2009 S 193.31 3.51379 -2.62827 0
M  V30 2010 H 190.128 0.496779 -0.508657 0
M  V30 2011 H 192.73 0.794645 -1.78621 0
M  V30 2012 H 191.434 2.26481 -3.42249 0
M  V30 2013 H 190.965 3.33266 -2.09039 0
M  V30 2014 H 192.98 4.58141 -1.9058 0
M  V30 2015 N 192.153 1.28127 0.917671 0
M  V30 2016 C 193.083 1.14248 2.03641 0
M  V30 2017 C 194.064 0.0412748 1.7005 0
M  V30 2018 O 195.249 0.217566 1.92977 0
M  V30 2019 C 192.379 0.799431 3.37974 0
M  V30 2020 C 191.333 1.85497 3.85713 0
M  V30 2021 C 190.659 1.36565 5.16966 0
M  V30 2022 C 191.959 3.26085 4.08002 0
M  V30 2023 H 193.653 2.07835 2.15511 0
M  V30 2024 H 191.199 1.00064 1.03553 0
M  V30 2025 H 193.152 0.689114 4.15727 0
M  V30 2026 H 191.876 -0.172145 3.26146 0
M  V30 2027 H 190.535 1.95437 3.10161 0
M  V30 2028 H 190.183 0.383253 5.01538 0
M  V30 2029 H 189.883 2.07143 5.49878 0
M  V30 2030 H 191.407 1.26848 5.97279 0
M  V30 2031 H 192.821 3.19089 4.76293 0
M  V30 2032 H 191.218 3.94462 4.52238 0
M  V30 2033 H 192.288 3.70394 3.12948 0
M  V30 2034 N 193.631 -1.12557 1.10312 0
M  V30 2035 C 194.859 -1.87864 0.866873 0
M  V30 2036 C 195.274 -1.79588 -0.582557 0
M  V30 2037 O 194.631 -1.16887 -1.40156 0
M  V30 2038 C 194.682 -3.37125 1.30496 0
M  V30 2039 O 194.403 -3.45201 2.69755 0
M  V30 2040 C 195.904 -4.29373 1.10243 0
M  V30 2041 H 193.124 -0.594452 0.311236 0
M  V30 2042 H 195.668 -1.42429 1.46745 0
M  V30 2043 H 193.823 -3.80109 0.748081 0
M  V30 2044 H 194.237 -4.38056 2.88457 0
M  V30 2045 H 195.711 -5.32394 1.45811 0
M  V30 2046 H 196.188 -4.39181 0.0409492 0
M  V30 2047 H 196.794 -3.92169 1.64571 0
M  V30 2048 N 195.109 -0.891671 -1.2995 0
M  V30 2049 C 196.386 -0.433307 -1.9074 0
M  V30 2050 C 196.766 1.08646 -1.80995 0
M  V30 2051 O 196.114 1.92476 -1.23147 0
M  V30 2052 C 196.324 -0.938895 -3.36134 0
M  V30 2053 C 197.672 -0.977829 -4.13187 0
M  V30 2054 O 198.696 -0.886015 -3.45005 0
M  V30 2055 O 197.555 -1.11453 -5.35015 0
M  V30 2056 H 194.649 -0.133699 -0.816121 0
M  V30 2057 H 197.195 -0.981011 -1.38471 0
M  V30 2058 H 195.967 -1.98281 -3.37343 0
M  V30 2059 H 195.59 -0.37074 -3.95868 0
M  V30 2060 N 196.587 1.43421 -0.653314 0
M  V30 2061 C 197.812 2.06678 -0.172846 0
M  V30 2062 C 198.237 1.48648 1.15262 0
M  V30 2063 O 197.595 0.596457 1.71208 0
M  V30 2064 C 197.643 3.60474 -0.0953184 0
M  V30 2065 O 196.747 4.01487 0.942442 0
M  V30 2066 H 196.088 0.657181 -0.0949155 0
M  V30 2067 H 198.618 1.83925 -0.896265 0
M  V30 2068 H 198.628 4.07905 0.0879728 0
M  V30 2069 H 197.303 4.02088 -1.06291 0
M  V30 2070 H 195.88 3.65646 0.731932 0
M  V30 2071 N 198.065 0.39524 1.52563 0
M  V30 2072 C 199.342 -0.242908 1.94086 0
M  V30 2073 C 199.722 -1.63841 1.33114 0
M  V30 2074 O 199.07 -2.22928 0.501529 0
M  V30 2075 C 199.28 -0.26327 3.48006 0
M  V30 2076 C 200.628 -0.489354 4.21771 0
M  V30 2077 O 201.652 -0.343226 3.54543 0
M  V30 2078 O 200.511 -0.776169 5.4096 0
M  V30 2079 H 197.605 -0.152536 0.812811 0
M  V30 2080 H 200.151 0.450178 1.6362 0
M  V30 2081 H 198.923 0.713985 3.84731 0
M  V30 2082 H 198.546 -1.00103 3.84792 0
M  V30 2083 N 199.544 -1.57102 0.125237 0
M  V30 2084 C 200.792 -1.95021 -0.530198 0
M  V30 2085 C 201.113 -1.00982 -1.66816 0
M  V30 2086 O 200.383 -0.0672693 -1.95784 0
M  V30 2087 H 198.963 -0.720046 -0.198853 0
M  V30 2088 H 201.625 -1.93916 0.19564 0
M  V30 2089 H 200.721 -2.98211 -0.920681 0
M  V30 2090 N 201.022 0.148545 -1.56898 0
M  V30 2091 C 202.252 0.875118 -1.8715 0
M  V30 2092 C 202.66 1.75322 -0.711262 0
M  V30 2093 O 202.003 1.80745 0.328151 0
M  V30 2094 C 202.065 1.7844 -3.12089 0
M  V30 2095 C 201.729 1.08361 -4.43967 0
M  V30 2096 C 202.726 0.438247 -5.1805 0
M  V30 2097 C 200.411 1.07358 -4.90693 0
M  V30 2098 C 202.405 -0.20779 -6.37061 0
M  V30 2099 C 200.092 0.42373 -6.09629 0
M  V30 2100 C 201.09 -0.215829 -6.82659 0
M  V30 2101 O 200.778 -0.855378 -7.99336 0
M  V30 2102 H 200.51 0.258504 -0.624621 0
M  V30 2103 H 203.064 0.14652 -2.04877 0
M  V30 2104 H 201.294 2.55389 -2.90367 0
M  V30 2105 H 202.983 2.38279 -3.286 0
M  V30 2106 H 203.749 0.437817 -4.8302 0
M  V30 2107 H 199.628 1.5608 -4.33774 0
M  V30 2108 H 203.172 -0.70758 -6.94002 0
M  V30 2109 H 199.069 0.421822 -6.4412 0
M  V30 2110 H 199.837 -0.756892 -8.14993 0
M  V30 2111 N 202.5 1.5196 0.417844 0
M  V30 2112 C 203.73 1.69181 1.18581 0
M  V30 2113 C 204.138 0.397104 1.84986 0
M  V30 2114 O 203.481 -0.636011 1.72339 0
M  V30 2115 C 203.543 2.76497 2.29759 0
M  V30 2116 C 203.207 4.18514 1.83563 0
M  V30 2117 C 204.204 5.02648 1.32821 0
M  V30 2118 C 201.889 4.64708 1.90661 0
M  V30 2119 C 203.883 6.31044 0.897894 0
M  V30 2120 C 201.57 5.93096 1.47241 0
M  V30 2121 C 202.568 6.76093 0.968891 0
M  V30 2122 O 202.256 8.02078 0.540924 0
M  V30 2123 H 201.988 0.570457 0.362705 0
M  V30 2124 H 204.542 1.99249 0.498885 0
M  V30 2125 H 202.772 2.41786 3.01789 0
M  V30 2126 H 204.461 2.82403 2.91553 0
M  V30 2127 H 205.227 4.68154 1.26716 0
M  V30 2128 H 201.106 4.00216 2.28797 0
M  V30 2129 H 204.65 6.95776 0.504192 0
M  V30 2130 H 200.547 6.271 1.53022 0
M  V30 2131 H 201.315 8.15794 0.66502 0
M  V30 2132 N 203.978 -0.674533 1.42435 0
M  V30 2133 C 205.203 -1.46784 1.46524 0
M  V30 2134 C 205.628 -1.87938 0.078066 0
M  V30 2135 O 204.986 -1.56014 -0.92354 0
M  V30 2136 C 205.034 -2.69307 2.39805 0
M  V30 2137 O 204.138 -3.67587 1.86959 0
M  V30 2138 H 203.479 -0.440959 0.496439 0
M  V30 2139 H 206.009 -0.827326 1.87127 0
M  V30 2140 H 206.019 -3.17374 2.56393 0
M  V30 2141 H 204.694 -2.38692 3.40586 0
M  V30 2142 H 203.271 -3.2662 1.79927 0
M  V30 2143 N 205.456 -1.28612 -0.910864 0
M  V30 2144 C 206.703 -1.15934 -1.66029 0
M  V30 2145 C 207.031 0.291483 -1.92303 0
M  V30 2146 O 206.286 1.22816 -1.52364 0
M  V30 2147 C 206.585 -1.90624 -3.0232 0
M  V30 2148 C 206.251 -3.40405 -2.95695 0
M  V30 2149 C 204.913 -3.81255 -2.93595 0
M  V30 2150 C 207.265 -4.359 -2.85728 0
M  V30 2151 C 204.593 -5.15936 -2.79334 0
M  V30 2152 C 206.945 -5.70657 -2.73007 0
M  V30 2153 C 205.609 -6.10779 -2.69267 0
M  V30 2154 H 204.879 -0.424234 -0.607541 0
M  V30 2155 H 207.526 -1.5942 -1.06101 0
M  V30 2156 H 205.831 -1.39696 -3.6605 0
M  V30 2157 H 207.528 -1.78228 -3.59215 0
M  V30 2158 H 204.118 -3.07927 -2.98125 0
M  V30 2159 H 208.302 -4.053 -2.86436 0
M  V30 2160 H 203.558 -5.46146 -2.74835 0
M  V30 2161 H 207.732 -6.44311 -2.64264 0
M  V30 2162 H 205.359 -7.1509 -2.57974 0
M  V30 2163 N 206.934 1.1197 -1.10907 0
M  V30 2164 C 208.35 1.35591 -0.841852 0
M  V30 2165 C 208.55 1.94233 0.536246 0
M  V30 2166 O 207.606 2.1717 1.28816 0
M  V30 2167 C 208.919 2.29284 -1.94549 0
M  V30 2168 C 210.467 2.42862 -1.97451 0
M  V30 2169 C 210.942 3.39873 -3.07002 0
M  V30 2170 N 212.433 3.47433 -3.06341 0
M  V30 2171 C 213.168 4.22421 -3.87748 0
M  V30 2172 N 212.664 5.00432 -4.79103 0
M  V30 2173 N 214.457 4.17876 -3.75946 0
M  V30 2174 H 206.608 0.722664 -1.99728 0
M  V30 2175 H 208.871 0.380635 -0.868229 0
M  V30 2176 H 208.577 1.93378 -2.93765 0
M  V30 2177 H 208.451 3.29452 -1.83688 0
M  V30 2178 H 210.838 2.78046 -0.988645 0
M  V30 2179 H 210.919 1.42566 -2.12388 0
M  V30 2180 H 210.563 3.05417 -4.05811 0
M  V30 2181 H 210.493 4.40011 -2.89306 0
M  V30 2182 H 212.984 2.91784 -2.40147 0
M  V30 2183 H 213.297 5.55002 -5.37766 0
M  V30 2184 H 211.642 4.99612 -4.83128 0
M  V30 2185 H 214.833 3.56016 -3.03924 0
M  V30 2186 H 215.006 4.76061 -4.39624 0
M  V30 2187 N 208.412 0.89855 1.29475 0
M  V30 2188 C 209.64 0.539261 1.99749 0
M  V30 2189 C 210.055 -0.875716 1.67262 0
M  V30 2190 O 209.412 -1.57786 0.917049 0
M  V30 2191 C 209.463 0.72061 3.54245 0
M  V30 2192 O 209.184 2.07989 3.8558 0
M  V30 2193 C 210.685 0.366118 4.41786 0
M  V30 2194 H 207.905 0.207047 0.638258 0
M  V30 2195 H 210.449 1.20758 1.65039 0
M  V30 2196 H 208.604 0.0994862 3.87272 0
M  V30 2197 H 209.018 2.10841 4.80257 0
M  V30 2198 H 210.492 0.543848 5.49314 0
M  V30 2199 H 210.969 -0.696763 4.33638 0
M  V30 2200 H 211.575 0.964135 4.14228 0
M  V30 2201 N 209.89 -1.43072 0.660911 0
M  V30 2202 C 211.139 -2.00942 0.174735 0
M  V30 2203 C 211.452 -1.52797 -1.22117 0
M  V30 2204 O 212.658 -2.02991 -1.80297 0
M  V30 2205 C 211.114 -3.58948 0.261559 0
M  V30 2206 C 210.722 -4.16085 1.66064 0
M  V30 2207 C 212.466 -4.24173 -0.166617 0
M  V30 2208 C 210.373 -5.6641 1.70098 0
M  V30 2209 H 209.303 -0.751483 0.0615631 0
M  V30 2210 H 211.954 -1.63955 0.824069 0
M  V30 2211 H 210.336 -3.93372 -0.455421 0
M  V30 2212 H 211.51 -3.93147 2.40359 0
M  V30 2213 H 209.825 -3.6326 2.03546 0
M  V30 2214 H 212.422 -5.34471 -0.156433 0
M  V30 2215 H 212.765 -3.98647 -1.19943 0
M  V30 2216 H 213.298 -3.94659 0.498875 0
M  V30 2217 H 210.037 -5.96715 2.71315 0
M  V30 2218 H 209.557 -5.91382 1.00139 0
M  V30 2219 H 211.236 -6.30585 1.44816 0
M  V30 2220 N 211.368 -0.403325 -1.52352 0
M  V30 2221 C 212.315 0.425011 -2.26853 0
M  V30 2222 C 213.285 1.04598 -1.29029 0
M  V30 2223 O 214.47 1.07135 -1.57882 0
M  V30 2224 C 211.61 1.53888 -3.08889 0
M  V30 2225 C 210.723 0.939396 -4.21663 0
M  V30 2226 C 209.858 2.02547 -4.91068 0
M  V30 2227 C 208.897 1.40263 -5.95813 0
M  V30 2228 N 208.034 2.4286 -6.58759 0
M  V30 2229 H 212.874 -0.21674 -2.97211 0
M  V30 2230 H 210.411 -0.118722 -1.4662 0
M  V30 2231 H 212.369 2.19558 -3.54753 0
M  V30 2232 H 210.999 2.15074 -2.40714 0
M  V30 2233 H 210.051 0.171898 -3.80011 0
M  V30 2234 H 211.363 0.44436 -4.96817 0
M  V30 2235 H 210.517 2.75958 -5.40308 0
M  V30 2236 H 209.256 2.55415 -4.15469 0
M  V30 2237 H 208.261 0.653833 -5.45898 0
M  V30 2238 H 209.486 0.881719 -6.73352 0
M  V30 2239 H 207.432 2.94871 -5.85992 0
M  V30 2240 H 207.349 1.98152 -7.2957 0
M  V30 2241 H 208.617 3.15858 -7.12639 0
M  V30 2242 N 212.846 1.57033 -0.133567 0
M  V30 2243 C 214.257 1.82593 0.389464 0
M  V30 2244 C 214.608 1.05156 1.6564 0
M  V30 2245 O 213.733 0.292644 2.14412 0
M  V30 2246 C 214.328 3.31204 0.713377 0
M  V30 2247 C 212.887 3.57393 1.18098 0
M  V30 2248 C 212.034 2.76598 0.197126 0
M  V30 2249 H 214.985 1.54598 -0.358481 0
M  V30 2250 H 215.006 3.46627 1.56939 0
M  V30 2251 H 214.518 3.87537 -0.2089 0
M  V30 2252 H 212.619 3.06433 2.11966 0
M  V30 2253 H 212.732 4.65915 1.11624 0
M  V30 2254 H 211.096 2.45257 0.687088 0
M  V30 2255 H 211.879 3.35697 -0.718504 0
M  V30 2256 N 214.325 -0.140222 1.56975 0
M  V30 2257 C 215.573 -0.850005 1.83356 0
M  V30 2258 C 215.894 -1.81399 0.71551 0
M  V30 2259 O 215.164 -1.94136 -0.262294 0
M  V30 2260 H 213.744 -0.316886 0.676456 0
M  V30 2261 H 216.406 -0.132608 1.94448 0
M  V30 2262 H 215.502 -1.40814 2.78528 0
M  V30 2263 N 215.803 -1.52179 -0.40978 0
M  V30 2264 C 217.214 -1.58377 -0.988615 0
M  V30 2265 C 217.565 -0.423879 -1.91566 0
M  V30 2266 O 216.69 0.455844 -2.11544 0
M  V30 2267 C 217.285 -2.87044 -1.79976 0
M  V30 2268 C 215.844 -2.95722 -2.32863 0
M  V30 2269 C 214.991 -2.53309 -1.12828 0
M  V30 2270 H 217.942 -1.57558 -0.190039 0
M  V30 2271 H 217.963 -2.7236 -2.65707 0
M  V30 2272 H 217.475 -3.71444 -1.12478 0
M  V30 2273 H 215.576 -2.15814 -3.03735 0
M  V30 2274 H 215.689 -3.99951 -2.63773 0
M  V30 2275 H 214.053 -2.07142 -1.48204 0
M  V30 2276 H 214.836 -3.40082 -0.46897 0
M  V30 2277 N 217.281 0.66697 -1.42791 0
M  V30 2278 C 218.511 1.45294 -1.46878 0
M  V30 2279 C 218.919 1.89027 -0.0809861 0
M  V30 2280 O 218.262 1.59219 0.916246 0
M  V30 2281 C 218.324 2.72908 -2.34012 0
M  V30 2282 C 217.988 2.51203 -3.81767 0
M  V30 2283 C 218.985 2.15302 -4.73224 0
M  V30 2284 C 216.67 2.65954 -4.26115 0
M  V30 2285 C 218.664 1.94431 -6.07022 0
M  V30 2286 C 216.351 2.44699 -5.59969 0
M  V30 2287 C 217.349 2.08992 -6.5024 0
M  V30 2288 O 217.037 1.87948 -7.81621 0
M  V30 2289 H 216.769 0.453306 -0.501487 0
M  V30 2290 H 219.323 0.826232 -1.88049 0
M  V30 2291 H 217.553 3.38089 -1.87703 0
M  V30 2292 H 219.242 3.34816 -2.29462 0
M  V30 2293 H 220.008 2.03495 -4.40244 0
M  V30 2294 H 215.887 2.92724 -3.56137 0
M  V30 2295 H 219.431 1.66484 -6.77443 0
M  V30 2296 H 215.328 2.56105 -5.9252 0
M  V30 2297 H 216.096 2.02483 -7.93059 0
M  V30 2298 N 218.759 1.29093 0.90403 0
M  V30 2299 C 220.17 1.15186 1.46932 0
M  V30 2300 C 220.521 -0.254587 1.94541 0
M  V30 2301 O 219.646 -1.14972 1.83332 0
M  V30 2302 C 220.241 2.08492 2.67051 0
M  V30 2303 C 218.8 1.98621 3.19729 0
M  V30 2304 C 217.947 1.9967 1.92425 0
M  V30 2305 H 220.898 1.41641 0.715789 0
M  V30 2306 H 220.919 1.65461 3.42641 0
M  V30 2307 H 220.431 3.10847 2.3237 0
M  V30 2308 H 218.532 0.993389 3.59114 0
M  V30 2309 H 218.645 2.86068 3.8432 0
M  V30 2310 H 217.009 1.44208 2.09943 0
M  V30 2311 H 217.792 3.03721 1.60026 0
M  V30 2312 N 220.237 -1.11381 1.11499 0
M  V30 2313 C 221.483 -1.83597 0.875423 0
M  V30 2314 C 221.838 -1.83048 -0.592555 0
M  V30 2315 O 221.131 -1.27304 -1.43193 0
M  V30 2316 C 221.325 -3.30026 1.37177 0
M  V30 2317 C 221.154 -3.44837 2.88647 0
M  V30 2318 C 219.924 -3.57825 3.56776 0
M  V30 2319 C 222.122 -3.3907 3.86699 0
M  V30 2320 N 220.104 -3.61113 4.96458 0
M  V30 2321 C 221.475 -3.48986 5.12454 0
M  V30 2322 C 223.53 -3.22605 3.7925 0
M  V30 2323 C 222.233 -3.44135 6.31636 0
M  V30 2324 C 224.259 -3.19072 4.97943 0
M  V30 2325 C 223.621 -3.29559 6.22551 0
M  V30 2326 H 219.72 -0.687044 0.37349 0
M  V30 2327 H 222.304 -1.33265 1.41946 0
M  V30 2328 H 220.475 -3.78874 0.854919 0
M  V30 2329 H 222.207 -3.90153 1.07529 0
M  V30 2330 H 218.962 -3.60414 3.07244 0
M  V30 2331 H 219.386 -3.66394 5.69284 0
M  V30 2332 H 224.028 -3.13382 2.83816 0
M  V30 2333 H 221.746 -3.52126 7.27347 0
M  V30 2334 H 225.332 -3.07498 4.93899 0
M  V30 2335 H 224.212 -3.26815 7.12855 0
M  V30 2336 N 221.715 -0.905404 -1.28997 0
M  V30 2337 C 223.131 -0.60233 -1.47798 0
M  V30 2338 C 223.331 0.854645 -1.82478 0
M  V30 2339 O 222.387 1.63439 -1.92468 0
M  V30 2340 C 223.7 -1.53306 -2.58685 0
M  V30 2341 C 225.248 -1.53887 -2.72558 0
M  V30 2342 C 225.723 -2.45602 -3.86579 0
M  V30 2343 N 227.214 -2.43681 -3.93921 0
M  V30 2344 C 227.949 -3.11347 -4.81509 0
M  V30 2345 N 227.445 -3.88313 -5.73746 0
M  V30 2346 N 229.238 -3.00476 -4.75048 0
M  V30 2347 H 221.389 -1.84765 -1.04764 0
M  V30 2348 H 223.652 -0.792025 -0.520961 0
M  V30 2349 H 223.358 -2.57141 -2.39941 0
M  V30 2350 H 223.232 -1.25787 -3.55609 0
M  V30 2351 H 225.619 -0.507941 -2.90696 0
M  V30 2352 H 225.7 -1.85447 -1.76191 0
M  V30 2353 H 225.344 -3.48792 -3.69197 0
M  V30 2354 H 225.274 -2.11349 -4.82327 0
M  V30 2355 H 227.765 -1.87767 -3.27951 0
M  V30 2356 H 228.078 -4.36985 -6.37389 0
M  V30 2357 H 226.423 -3.92419 -5.73614 0
M  V30 2358 H 229.614 -2.39858 -4.01977 0
M  V30 2359 H 229.787 -3.53485 -5.43095 0
M  V30 2360 N 223.193 1.4272 -0.668489 0
M  V30 2361 C 224.141 2.32586 0.0254857 0
M  V30 2362 C 225.135 1.49471 0.797176 0
M  V30 2363 O 226.341 1.65583 0.705853 0
M  V30 2364 H 222.716 0.751514 0.0270339 0
M  V30 2365 H 224.687 2.88823 -0.749936 0
M  V30 2366 C 223.436 3.3397 0.967427 0
M  V30 2367 H 222.759 3.97961 0.383048 0
M  V30 2368 H 224.199 3.9945 1.42181 0
M  V30 2369 C 222.658 2.65744 2.0708 0
M  V30 2370 O 223.188 2.48454 3.15648 0
M  V30 2371 N 221.394 2.2487 1.8407 0
M  V30 2372 H 220.941 2.39132 0.95778 0
M  V30 2373 H 220.899 1.79552 2.58086 0
M  V30 2374 N 224.671 0.411399 1.52136 0
M  V30 2375 C 225.919 -0.163322 2.01439 0
M  V30 2376 C 226.24 -1.45453 1.29879 0
M  V30 2377 O 225.51 -1.91225 0.4254 0
M  V30 2378 H 224.09 -0.0633447 0.744309 0
M  V30 2379 H 226.752 0.548161 1.87033 0
M  V30 2380 H 225.848 -0.357817 3.10042 0
M  V30 2381 N 226.149 -1.5696 0.141893 0
M  V30 2382 C 227.56 -1.82797 -0.379776 0
M  V30 2383 C 227.911 -1.06033 -1.6508 0
M  V30 2384 O 227.036 -0.304011 -2.14254 0
M  V30 2385 C 227.631 -3.31578 -0.695802 0
M  V30 2386 C 226.19 -3.58014 -1.16201 0
M  V30 2387 C 225.337 -2.76699 -0.182455 0
M  V30 2388 H 228.288 -1.54406 0.366675 0
M  V30 2389 H 228.309 -3.47454 -1.55099 0
M  V30 2390 H 227.821 -3.87421 0.229449 0
M  V30 2391 H 225.922 -3.07553 -2.10338 0
M  V30 2392 H 226.035 -4.66501 -1.09151 0
M  V30 2393 H 224.399 -2.45618 -0.674072 0
M  V30 2394 H 225.182 -3.35311 0.736297 0
M  V30 2395 N 227.627 0.131896 -1.57047 0
M  V30 2396 C 228.575 1.18146 -2.0036 0
M  V30 2397 C 229.569 1.43614 -0.898406 0
M  V30 2398 O 230.775 1.43729 -1.08361 0
M  V30 2399 H 227.15 0.398042 -0.638018 0
M  V30 2400 H 229.121 0.789564 -2.87765 0
M  V30 2401 C 227.87 2.50341 -2.41298 0
M  V30 2402 H 227.193 2.31578 -3.25902 0
M  V30 2403 H 228.633 3.22371 -2.75414 0
M  V30 2404 C 227.092 3.11984 -1.27153 0
M  V30 2405 O 227.622 3.97484 -0.580459 0
M  V30 2406 N 225.828 2.71662 -1.03189 0
M  V30 2407 H 225.375 2.02231 -1.59564 0
M  V30 2408 H 225.333 3.13238 -0.270077 0
M  V30 2409 N 229.106 1.52395 0.401703 0
M  V30 2410 C 230.383 1.57387 1.16141 0
M  V30 2411 C 230.763 0.359359 2.08019 0
M  V30 2412 O 230.111 -0.65326 2.18963 0
M  V30 2413 C 230.321 2.90631 1.93221 0
M  V30 2414 C 231.669 3.43904 2.49028 0
M  V30 2415 O 232.693 2.92421 2.03393 0
M  V30 2416 O 231.552 4.33823 3.32356 0
M  V30 2417 H 228.646 0.634262 0.530698 0
M  V30 2418 H 231.192 1.64725 0.407883 0
M  V30 2419 H 229.964 3.70473 1.25958 0
M  V30 2420 H 229.587 2.8662 2.75563 0
M  V30 2421 N 230.584 -0.659388 1.43143 0
M  V30 2422 C 231.83 -1.41984 1.45644 0
M  V30 2423 C 232.185 -1.92245 0.0771718 0
M  V30 2424 O 231.478 -1.68976 -0.903205 0
M  V30 2425 C 231.672 -2.62206 2.42864 0
M  V30 2426 C 231.501 -2.23711 3.90107 0
M  V30 2427 C 230.271 -2.12332 4.58523 0
M  V30 2428 C 232.469 -1.84384 4.80112 0
M  V30 2429 N 230.451 -1.67102 5.9072 0
M  V30 2430 C 231.822 -1.5019 6.01534 0
M  V30 2431 C 233.877 -1.71512 4.67427 0
M  V30 2432 C 232.58 -1.04414 7.11681 0
M  V30 2433 C 234.606 -1.27142 5.77572 0
M  V30 2434 C 233.968 -0.938808 6.98116 0
M  V30 2435 H 230.067 -0.515448 0.588079 0
M  V30 2436 H 232.651 -0.759409 1.79279 0
M  V30 2437 H 230.822 -3.25917 2.11265 0
M  V30 2438 H 232.554 -3.28877 2.35843 0
M  V30 2439 H 229.309 -2.31893 4.12944 0
M  V30 2440 H 229.733 -1.46866 6.60878 0
M  V30 2441 H 234.375 -1.95868 3.74694 0
M  V30 2442 H 232.093 -0.788061 8.04248 0
M  V30 2443 H 235.679 -1.17681 5.69774 0
M  V30 2444 H 234.559 -0.6007 7.81896 0
M  V30 2445 N 232.062 -1.29571 -0.897171 0
M  V30 2446 C 233.478 -1.07637 -1.17841 0
M  V30 2447 C 233.678 0.170713 -2.00776 0
M  V30 2448 O 232.734 0.867768 -2.3712 0
M  V30 2449 C 234.047 -2.3332 -1.8969 0
M  V30 2450 C 235.595 -2.38664 -2.02505 0
M  V30 2451 C 236.07 -3.64157 -2.77765 0
M  V30 2452 N 237.561 -3.64894 -2.85318 0
M  V30 2453 C 238.296 -4.58679 -3.44094 0
M  V30 2454 N 237.792 -5.62799 -4.04017 0
M  V30 2455 N 239.585 -4.46245 -3.41793 0
M  V30 2456 H 231.736 -2.09598 -0.343883 0
M  V30 2457 H 233.999 -0.923333 -0.214848 0
M  V30 2458 H 233.705 -3.24262 -1.36187 0
M  V30 2459 H 233.579 -2.41025 -2.9015 0
M  V30 2460 H 235.966 -1.48208 -2.55183 0
M  V30 2461 H 236.047 -2.34943 -1.01171 0
M  V30 2462 H 235.691 -4.54965 -2.25763 0
M  V30 2463 H 235.621 -3.65137 -3.7945 0
M  V30 2464 H 238.112 -2.89613 -2.42761 0
M  V30 2465 H 238.425 -6.3048 -4.46895 0
M  V30 2466 H 236.77 -5.66605 -4.02472 0
M  V30 2467 H 239.961 -3.64094 -2.94199 0
M  V30 2468 H 240.134 -5.19518 -3.87304 0
M  V30 2469 N 233.54 1.10788 -1.12088 0
M  V30 2470 C 234.951 1.64181 -0.88891 0
M  V30 2471 C 235.302 1.87508 0.577498 0
M  V30 2472 O 234.427 1.61434 1.44112 0
M  V30 2473 C 235.022 2.98257 -1.60712 0
M  V30 2474 C 233.581 3.4853 -1.42139 0
M  V30 2475 C 232.728 2.23208 -1.6454 0
M  V30 2476 H 235.679 0.943368 -1.27618 0
M  V30 2477 H 235.7 3.65552 -1.05604 0
M  V30 2478 H 235.212 2.81246 -2.67436 0
M  V30 2479 H 233.313 3.70692 -0.376552 0
M  V30 2480 H 233.426 4.26882 -2.17505 0
M  V30 2481 H 231.79 2.31169 -1.06925 0
M  V30 2482 H 232.573 2.08733 -2.72554 0
M  V30 2483 N 235.018 0.912232 1.28515 0
M  V30 2484 C 235.981 0.404223 2.25607 0
M  V30 2485 C 236.981 -0.468602 1.53821 0
M  V30 2486 O 238.171 -0.271873 1.72065 0
M  V30 2487 C 235.303 -0.420653 3.38295 0
M  V30 2488 H 236.496 1.26188 2.7206 0
M  V30 2489 H 234.049 0.691495 1.40171 0
M  V30 2490 H 234.784 -1.29777 2.97201 0
M  V30 2491 H 234.569 0.204935 3.91564 0
M  V30 2492 H 236.059 -0.766971 4.10496 0
M  V30 2493 N 236.496 -1.42363 0.676048 0
M  V30 2494 C 237.446 -2.27987 -0.0242903 0
M  V30 2495 C 238.43 -1.41153 -0.772319 0
M  V30 2496 O 239.622 -1.64592 -0.651025 0
M  V30 2497 C 236.751 -3.29195 -0.973953 0
M  V30 2498 C 235.837 -4.23512 -0.223202 0
M  V30 2499 N 236.228 -4.99865 0.772589 0
M  V30 2500 C 234.526 -4.43606 -0.461469 0
M  V30 2501 C 235.227 -5.68757 1.22027 0
M  V30 2502 N 234.203 -5.40811 0.549975 0
M  V30 2503 H 238.005 -2.84445 0.73949 0
M  V30 2504 H 235.519 -1.54341 0.50522 0
M  V30 2505 H 237.516 -3.89339 -1.49067 0
M  V30 2506 H 236.176 -2.74298 -1.73755 0
M  V30 2507 H 237.187 -5.04921 1.15217 0
M  V30 2508 H 233.864 -3.99749 -1.20446 0
M  V30 2509 H 235.254 -6.40007 2.0455 0
M  V30 2510 N 237.974 -0.419461 -1.51915 0
M  V30 2511 C 239.223 0.154346 -2.01109 0
M  V30 2512 C 239.536 1.45338 -1.30905 0
M  V30 2513 O 240.742 2.10906 -1.7097 0
M  V30 2514 C 239.198 0.325615 -3.58424 0
M  V30 2515 C 238.806 -0.961934 -4.37551 0
M  V30 2516 C 240.55 0.854155 -4.15818 0
M  V30 2517 C 238.457 -0.757287 -5.86531 0
M  V30 2518 H 237.387 0.0614563 -0.751491 0
M  V30 2519 H 240.038 -0.54649 -1.75173 0
M  V30 2520 H 238.42 1.08903 -3.80731 0
M  V30 2521 H 239.594 -1.7323 -4.26999 0
M  V30 2522 H 237.909 -1.41766 -3.91524 0
M  V30 2523 H 240.506 1.02346 -5.24814 0
M  V30 2524 H 240.849 1.83172 -3.73837 0
M  V30 2525 H 241.382 0.149528 -3.97519 0
M  V30 2526 H 238.121 -1.70671 -6.32892 0
M  V30 2527 H 237.641 -0.0264061 -5.99794 0
M  V30 2528 H 239.32 -0.403482 -6.45741 0
M  V30 2529 N 239.452 1.56882 -0.150215 0
M  V30 2530 C 240.402 2.13501 0.800071 0
M  V30 2531 C 241.386 1.06368 1.20726 0
M  V30 2532 O 242.578 1.32538 1.17314 0
M  V30 2533 C 239.707 2.76271 2.03787 0
M  V30 2534 C 238.793 3.90533 1.65364 0
M  V30 2535 N 239.184 4.96259 0.977794 0
M  V30 2536 C 237.482 4.013 1.94613 0
M  V30 2537 C 238.183 5.76286 0.791794 0
M  V30 2538 N 237.159 5.27163 1.32666 0
M  V30 2539 H 240.961 2.92615 0.274517 0
M  V30 2540 H 238.475 1.62319 0.0512144 0
M  V30 2541 H 240.472 3.15197 2.72867 0
M  V30 2542 H 239.132 1.98631 2.56857 0
M  V30 2543 H 240.143 5.13953 0.638193 0
M  V30 2544 H 236.82 3.3474 2.4951 0
M  V30 2545 H 238.21 6.71401 0.258894 0
M  V30 2546 N 240.93 -0.123565 1.57115 0
M  V30 2547 C 242.177 -0.832153 1.84612 0
M  V30 2548 C 242.505 -1.80093 0.734627 0
M  V30 2549 O 241.76 -1.93766 -0.27442 0
M  V30 2550 C 242.059 -1.62016 3.18568 0
M  V30 2551 C 241.725 -0.796084 4.43817 0
M  V30 2552 C 240.387 -0.568816 4.77826 0
M  V30 2553 C 242.739 -0.221364 5.2073 0
M  V30 2554 C 240.067 0.243499 5.86194 0
M  V30 2555 C 242.419 0.578117 6.29953 0
M  V30 2556 C 241.083 0.815744 6.62497 0
M  V30 2557 H 240.353 -0.304507 0.675542 0
M  V30 2558 H 243 -0.0947248 1.91266 0
M  V30 2559 H 241.305 -2.42837 3.0747 0
M  V30 2560 H 243.002 -2.17231 3.37064 0
M  V30 2561 H 239.592 -0.983307 4.17168 0
M  V30 2562 H 243.776 -0.384173 4.94811 0
M  V30 2563 H 239.032 0.436871 6.09837 0
M  V30 2564 H 243.206 1.03046 6.88734 0
M  V30 2565 H 240.833 1.44701 7.46301 0
M  V30 2566 N 242.408 -1.52605 -0.393616 0
M  V30 2567 C 243.656 -1.67093 -1.13685 0
M  V30 2568 C 243.977 -0.411011 -1.90619 0
M  V30 2569 O 243.247 0.574491 -1.87287 0
M  V30 2570 H 241.827 -0.615923 -0.422668 0
M  V30 2571 H 244.489 -1.89704 -0.447039 0
M  V30 2572 H 243.585 -2.51922 -1.84232 0
M  V30 2573 N 243.887 0.651787 -1.4349 0
M  V30 2574 C 245.136 1.40754 -1.44469 0
M  V30 2575 C 245.449 1.95463 -0.0731845 0
M  V30 2576 O 246.655 2.71471 0.0395721 0
M  V30 2577 C 245.111 2.54735 -2.5424 0
M  V30 2578 C 244.719 2.06628 -3.97504 0
M  V30 2579 C 246.463 3.32092 -2.64414 0
M  V30 2580 C 244.37 3.17829 -4.98737 0
M  V30 2581 H 243.3 0.528862 -0.53742 0
M  V30 2582 H 245.951 0.703365 -1.69485 0
M  V30 2583 H 244.333 3.2763 -2.22428 0
M  V30 2584 H 245.507 1.40734 -4.38783 0
M  V30 2585 H 243.822 1.42146 -3.91387 0
M  V30 2586 H 246.419 4.14952 -3.37223 0
M  V30 2587 H 246.762 3.80217 -1.69532 0
M  V30 2588 H 247.295 2.66279 -2.95534 0
M  V30 2589 H 244.034 2.74671 -5.95177 0
M  V30 2590 H 243.554 3.82429 -4.62069 0
M  V30 2591 H 245.233 3.82937 -5.21505 0
M  V30 2592 N 245.365 1.30045 0.890287 0
M  V30 2593 C 246.59 1.21598 1.68014 0
M  V30 2594 C 247.015 -0.218678 1.86825 0
M  V30 2595 O 246.373 -1.15756 1.39536 0
M  V30 2596 C 246.421 1.94434 3.03691 0
M  V30 2597 O 245.525 1.2678 3.92429 0
M  V30 2598 H 244.866 0.420856 0.513592 0
M  V30 2599 H 247.396 1.71775 1.11151 0
M  V30 2600 H 247.406 2.03251 3.5377 0
M  V30 2601 H 246.081 2.98777 2.89318 0
M  V30 2602 H 244.658 1.26282 3.50866 0
M  V30 2603 N 246.843 -1.10192 1.12674 0
M  V30 2604 C 248.091 -1.81845 0.881861 0
M  V30 2605 C 248.412 -1.85737 -0.593867 0
M  V30 2606 O 247.682 -1.33724 -1.4316 0
M  V30 2607 H 246.262 -0.673432 0.323261 0
M  V30 2608 H 248.924 -1.33316 1.42172 0
M  V30 2609 H 248.02 -2.85288 1.2656 0
M  V30 2610 N 248.321 -0.919034 -1.28029 0
M  V30 2611 C 249.732 -0.600735 -1.76771 0
M  V30 2612 C 250.083 0.884024 -1.75156 0
M  V30 2613 O 249.208 1.69163 -1.34956 0
M  V30 2614 C 249.803 -1.08372 -3.21 0
M  V30 2615 C 248.362 -0.816248 -3.67443 0
M  V30 2616 C 247.509 -1.24742 -2.47658 0
M  V30 2617 H 250.46 -1.09974 -1.14418 0
M  V30 2618 H 250.481 -0.427512 -3.78091 0
M  V30 2619 H 249.993 -2.16437 -3.22144 0
M  V30 2620 H 248.094 0.250968 -3.71754 0
M  V30 2621 H 248.207 -1.4277 -4.57333 0
M  V30 2622 H 246.571 -0.666083 -2.45836 0
M  V30 2623 H 247.354 -2.33653 -2.51518 0
M  V30 2624 N 249.799 1.42003 -0.683588 0
M  V30 2625 C 251.024 2.06265 -0.216647 0
M  V30 2626 C 251.449 1.51059 1.12083 0
M  V30 2627 O 250.807 0.632638 1.69904 0
M  V30 2628 C 250.855 3.60191 -0.171759 0
M  V30 2629 O 249.959 4.03396 0.857069 0
M  V30 2630 H 249.3 0.65502 -0.108834 0
M  V30 2631 H 251.83 1.81982 -0.935077 0
M  V30 2632 H 251.84 4.08 0.0014303 0
M  V30 2633 H 250.515 3.99743 -1.14796 0
M  V30 2634 H 249.092 3.67117 0.654208 0
M  V30 2635 N 251.277 0.427512 1.51691 0
M  V30 2636 C 252.526 -0.143679 2.01188 0
M  V30 2637 C 252.839 -1.44642 1.31674 0
M  V30 2638 O 254.045 -2.09997 1.72086 0
M  V30 2639 C 252.501 -0.306602 3.58592 0
M  V30 2640 C 252.109 0.985125 4.37035 0
M  V30 2641 C 253.853 -0.832091 4.16265 0
M  V30 2642 C 251.76 0.788382 5.86122 0
M  V30 2643 H 250.69 -0.0574701 0.751807 0
M  V30 2644 H 253.341 0.555772 1.74881 0
M  V30 2645 H 251.723 -1.06882 3.81303 0
M  V30 2646 H 252.897 1.75492 4.26074 0
M  V30 2647 H 251.212 1.4384 3.90767 0
M  V30 2648 H 253.809 -0.995617 5.25349 0
M  V30 2649 H 254.152 -1.81186 3.74803 0
M  V30 2650 H 254.685 -0.128444 3.97593 0
M  V30 2651 H 251.424 1.74025 6.31978 0
M  V30 2652 H 250.944 0.0582143 5.99772 0
M  V30 2653 H 252.623 0.437722 6.45518 0
M  V30 2654 N 252.755 -1.56801 0.158532 0
M  V30 2655 C 253.718 -2.16138 -0.762705 0
M  V30 2656 C 254.718 -1.1061 -1.16713 0
M  V30 2657 O 255.908 -1.36191 -1.08617 0
M  V30 2658 C 253.04 -2.73386 -2.03649 0
M  V30 2659 H 254.233 -2.98886 -0.246354 0
M  V30 2660 H 251.786 -1.56035 -0.0909744 0
M  V30 2661 H 252.521 -1.94335 -2.59623 0
M  V30 2662 H 252.306 -3.50601 -1.75559 0
M  V30 2663 H 253.796 -3.19065 -2.6942 0
M  V30 2664 N 254.233 0.115231 -1.57178 0
M  V30 2665 C 255.461 0.836437 -1.89239 0
M  V30 2666 C 255.876 1.73256 -0.750175 0
M  V30 2667 O 255.233 1.80357 0.278832 0
M  V30 2668 C 255.284 1.66671 -3.20785 0
M  V30 2669 O 255.005 0.806652 -4.3061 0
M  V30 2670 C 256.506 2.49274 -3.66575 0
M  V30 2671 H 253.726 0.240253 -0.626514 0
M  V30 2672 H 256.27 0.0984932 -2.04263 0
M  V30 2673 H 254.425 2.35737 -3.0742 0
M  V30 2674 H 254.839 1.37969 -5.06028 0
M  V30 2675 H 256.313 3.03055 -4.6137 0
M  V30 2676 H 256.79 3.26807 -2.93417 0
M  V30 2677 H 257.396 1.85443 -3.82741 0
M  V30 2678 N 255.711 1.52812 0.385517 0
M  V30 2679 C 256.658 1.77838 1.47113 0
M  V30 2680 C 257.628 0.621757 1.54024 0
M  V30 2681 O 258.813 0.861846 1.70226 0
M  V30 2682 C 255.953 1.95618 2.84302 0
M  V30 2683 C 255.066 3.23316 2.86515 0
M  V30 2684 C 254.201 3.31394 4.15152 0
M  V30 2685 C 253.24 4.53201 4.1143 0
M  V30 2686 N 252.377 4.58542 5.3168 0
M  V30 2687 H 257.217 2.70482 1.25073 0
M  V30 2688 H 254.754 1.34006 0.606692 0
M  V30 2689 H 256.712 2.03912 3.63972 0
M  V30 2690 H 255.342 1.06331 3.04784 0
M  V30 2691 H 254.394 3.24076 1.99195 0
M  V30 2692 H 255.706 4.13045 2.79634 0
M  V30 2693 H 254.86 3.3889 5.03228 0
M  V30 2694 H 253.599 2.39645 4.24761 0
M  V30 2695 H 252.604 4.45827 3.21742 0
M  V30 2696 H 253.829 5.46271 4.03442 0
M  V30 2697 H 251.775 3.69686 5.41912 0
M  V30 2698 H 251.692 5.42148 5.26889 0
M  V30 2699 H 252.96 4.70296 6.21644 0
M  V30 2700 N 257.189 -0.644168 1.43834 0
M  V30 2701 C 258.119 -1.76814 1.52509 0
M  V30 2702 C 259.1 -1.65823 0.379052 0
M  V30 2703 O 260.285 -1.84781 0.597466 0
M  V30 2704 C 257.415 -3.15288 1.4564 0
M  V30 2705 C 256.369 -3.41053 2.58586 0
M  V30 2706 C 255.695 -4.79421 2.36769 0
M  V30 2707 C 256.995 -3.34902 4.00797 0
M  V30 2708 H 258.689 -1.69812 2.46586 0
M  V30 2709 H 256.235 -0.815542 1.1868 0
M  V30 2710 H 258.188 -3.93681 1.50311 0
M  V30 2711 H 256.912 -3.23043 0.480725 0
M  V30 2712 H 255.571 -2.65035 2.53282 0
M  V30 2713 H 255.219 -4.83863 1.37424 0
M  V30 2714 H 254.919 -4.9762 3.12487 0
M  V30 2715 H 256.443 -5.6006 2.43238 0
M  V30 2716 H 257.857 -4.03218 4.07539 0
M  V30 2717 H 256.254 -3.64637 4.76613 0
M  V30 2718 H 257.324 -2.32928 4.25291 0
M  V30 2719 N 258.668 -1.30515 -0.883378 0
M  V30 2720 C 259.917 -1.18795 -1.63005 0
M  V30 2721 C 260.23 0.255923 -1.93919 0
M  V30 2722 O 261.436 0.494654 -2.66956 0
M  V30 2723 C 259.892 -2.07878 -2.93794 0
M  V30 2724 C 259.5 -3.57184 -2.70414 0
M  V30 2725 C 261.244 -2.04924 -3.71761 0
M  V30 2726 C 259.151 -4.38317 -3.97029 0
M  V30 2727 H 258.081 -0.441031 -0.611562 0
M  V30 2728 H 260.732 -1.55275 -0.977854 0
M  V30 2729 H 259.114 -1.64283 -3.60315 0
M  V30 2730 H 260.288 -4.08937 -2.12384 0
M  V30 2731 H 258.603 -3.61976 -2.0582 0
M  V30 2732 H 261.2 -2.62792 -4.65665 0
M  V30 2733 H 261.543 -1.0331 -4.03277 0
M  V30 2734 H 262.076 -2.46649 -3.12104 0
M  V30 2735 H 258.815 -5.40632 -3.70671 0
M  V30 2736 H 258.335 -3.91326 -4.54559 0
M  V30 2737 H 260.014 -4.49834 -4.65036 0
M  V30 2738 N 260.146 1.09593 -1.13257 0
M  V30 2739 C 261.374 1.855 -0.916378 0
M  V30 2740 C 261.789 1.81069 0.534738 0
M  V30 2741 O 261.146 1.20562 1.37007 0
M  V30 2742 C 261.197 3.33546 -1.39388 0
M  V30 2743 O 260.918 3.37927 -2.78813 0
M  V30 2744 C 262.419 4.26299 -1.21588 0
M  V30 2745 H 259.639 0.585991 -0.326887 0
M  V30 2746 H 262.183 1.38488 -1.5047 0
M  V30 2747 H 260.338 3.77992 -0.848597 0
M  V30 2748 H 260.752 4.30254 -2.9997 0
M  V30 2749 H 262.226 5.28341 -1.59876 0
M  V30 2750 H 262.703 4.38918 -0.157376 0
M  V30 2751 H 263.309 3.87668 -1.7491 0
M  V30 2752 N 261.624 0.925811 1.2754 0
M  V30 2753 C 262.556 0.380753 2.26015 0
M  V30 2754 C 263.569 -0.487485 1.5533 0
M  V30 2755 O 264.758 -0.300413 1.75954 0
M  V30 2756 C 261.858 -0.473259 3.35579 0
M  V30 2757 C 261.031 0.375249 4.35787 0
M  V30 2758 C 260.09 -0.415809 5.24555 0
M  V30 2759 O 259.116 0.175834 5.68928 0
M  V30 2760 N 260.318 -1.71607 5.54555 0
M  V30 2761 H 263.083 1.22725 2.73421 0
M  V30 2762 H 260.644 0.793037 1.41147 0
M  V30 2763 H 262.636 -1.00949 3.91907 0
M  V30 2764 H 261.206 -1.2205 2.87789 0
M  V30 2765 H 260.426 1.09279 3.7875 0
M  V30 2766 H 261.714 0.955399 4.99749 0
M  V30 2767 H 261.112 -2.2191 5.20358 0
M  V30 2768 H 259.669 -2.19887 6.1359 0
M  V30 2769 N 263.102 -1.41638 0.69111 0
M  V30 2770 C 264.032 -2.3347 0.037248 0
M  V30 2771 C 265.013 -1.51575 -0.771947 0
M  V30 2772 O 266.198 -1.80126 -0.72582 0
M  V30 2773 C 263.328 -3.35354 -0.903064 0
M  V30 2774 C 262.282 -4.27526 -0.201288 0
M  V30 2775 C 261.608 -5.19747 -1.25565 0
M  V30 2776 C 262.908 -5.13959 0.929689 0
M  V30 2777 H 264.602 -2.88397 0.804227 0
M  V30 2778 H 262.148 -1.38669 0.388189 0
M  V30 2779 H 264.101 -3.98519 -1.36969 0
M  V30 2780 H 262.825 -2.78767 -1.70166 0
M  V30 2781 H 261.484 -3.65779 0.245265 0
M  V30 2782 H 261.132 -4.59479 -2.04666 0
M  V30 2783 H 260.832 -5.8225 -0.791128 0
M  V30 2784 H 262.356 -5.85789 -1.72288 0
M  V30 2785 H 263.77 -5.70718 0.543546 0
M  V30 2786 H 262.167 -5.85379 1.32103 0
M  V30 2787 H 263.237 -4.51389 1.77133 0
M  V30 2788 N 264.58 -0.43555 -1.51462 0
M  V30 2789 C 265.81 0.130053 -2.0619 0
M  V30 2790 C 266.218 1.37164 -1.30317 0
M  V30 2791 O 265.561 1.80225 -0.355598 0
M  V30 2792 C 265.623 0.519418 -3.55728 0
M  V30 2793 C 265.287 -0.615119 -4.52841 0
M  V30 2794 C 266.284 -1.48671 -4.9819 0
M  V30 2795 C 263.969 -0.795341 -4.95963 0
M  V30 2796 C 265.963 -2.52324 -5.8533 0
M  V30 2797 C 263.65 -1.83514 -5.82894 0
M  V30 2798 C 264.648 -2.69748 -6.27475 0
M  V30 2799 O 264.336 -3.71944 -7.1268 0
M  V30 2800 H 264.068 0.0121612 -0.675891 0
M  V30 2801 H 266.622 -0.6129 -1.96043 0
M  V30 2802 H 264.852 1.31505 -3.63653 0
M  V30 2803 H 266.541 1.01597 -3.92979 0
M  V30 2804 H 267.307 -1.359 -4.65571 0
M  V30 2805 H 263.186 -0.133713 -4.60806 0
M  V30 2806 H 266.73 -3.19665 -6.20048 0
M  V30 2807 H 262.627 -1.96306 -6.14926 0
M  V30 2808 H 263.395 -3.68503 -7.30854 0
M  V30 2809 N 266.058 1.56714 -0.166846 0
M  V30 2810 C 267.305 1.96747 0.479252 0
M  V30 2811 C 267.633 1.05263 1.63554 0
M  V30 2812 O 266.888 0.0858098 1.95512 0
M  V30 2813 C 267.187 3.42889 1.00806 0
M  V30 2814 C 266.853 4.50889 -0.0318574 0
M  V30 2815 C 265.515 4.8015 -0.317675 0
M  V30 2816 C 267.867 5.15949 -0.737956 0
M  V30 2817 C 265.195 5.71772 -1.31506 0
M  V30 2818 C 267.547 6.08647 -1.72429 0
M  V30 2819 C 266.211 6.36277 -2.0176 0
M  V30 2820 H 265.481 0.719949 0.175371 0
M  V30 2821 H 268.128 1.89756 -0.257864 0
M  V30 2822 H 266.433 3.4681 1.82291 0
M  V30 2823 H 268.13 3.71203 1.51689 0
M  V30 2824 H 264.72 4.28128 0.201088 0
M  V30 2825 H 268.904 4.93458 -0.530351 0
M  V30 2826 H 264.16 5.91465 -1.54853 0
M  V30 2827 H 268.334 6.58129 -2.27682 0
M  V30 2828 H 265.961 7.07075 -2.79194 0
M  V30 2829 N 267.536 -0.106894 1.57237 0
M  V30 2830 C 268.446 -1.14911 2.0453 0
M  V30 2831 C 269.462 -1.44592 0.96795 0
M  V30 2832 O 270.638 -1.55468 1.2803 0
M  V30 2833 C 267.703 -2.45272 2.45036 0
M  V30 2834 C 266.764 -2.22879 3.66911 0
M  V30 2835 C 265.997 -3.47024 4.05475 0
M  V30 2836 O 266.22 -4.54804 3.44252 0
M  V30 2837 O 265.154 -3.3731 4.98504 0
M  V30 2838 H 268.98 -0.777461 2.9358 0
M  V30 2839 H 266.565 -0.318563 1.45964 0
M  V30 2840 H 268.447 -3.22055 2.71769 0
M  V30 2841 H 267.122 -2.81886 1.59129 0
M  V30 2842 H 266.029 -1.43915 3.45311 0
M  V30 2843 H 267.362 -1.91163 4.53561 0
M  V30 2844 N 269.014 -1.53014 -0.377408 0
M  V30 2845 C 270.262 -1.6829 -1.11906 0
M  V30 2846 C 270.583 -0.431206 -1.90173 0
M  V30 2847 O 269.853 0.554595 -1.87886 0
M  V30 2848 H 268.433 -0.620371 -0.416112 0
M  V30 2849 H 271.095 -1.90167 -0.426893 0
M  V30 2850 H 270.191 -2.53862 -1.8155 0
M  V30 2851 N 270.492 0.636531 -1.44174 0
M  V30 2852 C 271.769 1.39463 -1.37148 0
M  V30 2853 C 272.149 2.11082 -0.027507 0
M  V30 2854 O 271.497 2.05954 0.989716 0
M  V30 2855 C 271.707 2.36552 -2.56601 0
M  V30 2856 C 273.055 3.00048 -3.00427 0
M  V30 2857 O 274.079 2.46878 -2.56767 0
M  V30 2858 O 272.938 3.96488 -3.76111 0
M  V30 2859 H 270.032 0.623903 -0.542839 0
M  V30 2860 H 272.578 0.662039 -1.56253 0
M  V30 2861 H 271.35 1.82692 -3.46034 0
M  V30 2862 H 270.973 3.17236 -2.39681 0
M  V30 2863 N 271.97 1.30982 0.876444 0
M  V30 2864 C 273.381 1.18277 1.44456 0
M  V30 2865 C 273.732 -0.213265 1.95037 0
M  V30 2866 O 272.857 -1.11057 1.85729 0
M  V30 2867 C 273.452 2.1411 2.62569 0
M  V30 2868 C 272.011 2.05358 3.15444 0
M  V30 2869 C 271.158 2.03706 1.88146 0
M  V30 2870 H 274.109 1.43127 0.685584 0
M  V30 2871 H 274.13 1.72692 3.39054 0
M  V30 2872 H 273.642 3.15706 2.25724 0
M  V30 2873 H 271.743 1.06934 3.56926 0
M  V30 2874 H 271.856 2.94156 3.78166 0
M  V30 2875 H 270.22 1.48629 2.06837 0
M  V30 2876 H 271.003 3.07047 1.53547 0
M  V30 2877 N 273.449 -1.08991 1.13837 0
M  V30 2878 C 274.379 -2.17771 0.842507 0
M  V30 2879 C 275.36 -1.6892 -0.20001 0
M  V30 2880 O 276.545 -1.94113 -0.0579731 0
M  V30 2881 C 273.675 -3.4589 0.312644 0
M  V30 2882 C 272.629 -4.08099 1.28992 0
M  V30 2883 C 271.955 -5.31098 0.619623 0
M  V30 2884 C 273.255 -4.50077 2.65005 0
M  V30 2885 H 274.949 -2.42777 1.75213 0
M  V30 2886 H 272.495 -1.16682 0.843875 0
M  V30 2887 H 274.448 -4.21297 0.0933043 0
M  V30 2888 H 273.172 -3.20419 -0.632382 0
M  V30 2889 H 271.831 -3.34717 1.49533 0
M  V30 2890 H 271.479 -5.0191 -0.33102 0
M  V30 2891 H 271.179 -5.73674 1.27167 0
M  V30 2892 H 272.703 -6.09224 0.409669 0
M  V30 2893 H 274.117 -5.16688 2.48407 0
M  V30 2894 H 272.514 -5.03553 3.26427 0
M  V30 2895 H 273.584 -3.62257 3.22332 0
M  V30 2896 N 274.927 -0.932562 -1.27047 0
M  V30 2897 C 276.176 -0.571351 -1.93439 0
M  V30 2898 C 276.489 0.892467 -1.74053 0
M  V30 2899 O 277.695 1.36267 -2.34826 0
M  V30 2900 C 276.151 -0.97106 -3.46552 0
M  V30 2901 C 275.759 -2.4559 -3.74686 0
M  V30 2902 C 277.503 -0.681333 -4.18997 0
M  V30 2903 C 275.41 -2.79475 -5.21198 0
M  V30 2904 H 274.34 -0.209966 -0.724176 0
M  V30 2905 H 276.991 -1.13403 -1.44263 0
M  V30 2906 H 275.373 -0.336983 -3.94564 0
M  V30 2907 H 276.547 -3.13829 -3.37414 0
M  V30 2908 H 274.862 -2.71802 -3.15456 0
M  V30 2909 H 277.459 -0.910939 -5.26883 0
M  V30 2910 H 277.802 0.381628 -4.14547 0
M  V30 2911 H 278.335 -1.27473 -3.76823 0
M  V30 2912 H 275.074 -3.847 -5.30741 0
M  V30 2913 H 274.594 -2.1589 -5.596 0
M  V30 2914 H 276.273 -2.67478 -5.89122 0
M  V30 2915 N 276.405 1.4127 -0.698611 0
M  V30 2916 C 277.816 1.84187 -0.305289 0
M  V30 2917 C 278.167 1.58449 1.15708 0
M  V30 2918 O 277.292 1.05651 1.88856 0
M  V30 2919 C 277.887 3.3435 -0.547314 0
M  V30 2920 C 276.446 3.75826 -0.207878 0
M  V30 2921 C 275.593 2.64647 -0.828099 0
M  V30 2922 H 278.544 1.30778 -0.89904 0
M  V30 2923 H 278.565 3.8001 0.192998 0
M  V30 2924 H 278.077 3.53051 -1.61172 0
M  V30 2925 H 276.178 3.62725 0.852143 0
M  V30 2926 H 276.291 4.74462 -0.665021 0
M  V30 2927 H 274.655 2.53395 -0.257458 0
M  V30 2928 H 275.438 2.86165 -1.89643 0
M  V30 2929 N 277.883 0.443576 1.51229 0
M  V30 2930 C 278.816 -0.410089 2.24485 0
M  V30 2931 C 279.794 -1.01949 1.26669 0
M  V30 2932 O 280.978 -1.06075 1.55821 0
M  V30 2933 C 278.105 -1.57211 3.00004 0
M  V30 2934 C 277.151 -1.08279 4.12526 0
M  V30 2935 S 277.984 -0.0197476 5.35496 0
M  V30 2936 C 279.14 -1.18629 6.14555 0
M  V30 2937 H 279.373 0.211832 2.96544 0
M  V30 2938 H 276.906 0.228156 1.52705 0
M  V30 2939 H 278.864 -2.23825 3.44111 0
M  V30 2940 H 277.525 -2.16547 2.27522 0
M  V30 2941 H 276.718 -1.95193 4.64667 0
M  V30 2942 H 276.32 -0.494797 3.70713 0
M  V30 2943 H 278.612 -2.10344 6.4402 0
M  V30 2944 H 279.555 -0.70472 7.04584 0
M  V30 2945 H 279.963 -1.42768 5.46148 0
M  V30 2946 N 279.361 -1.56624 0.175154 0
M  V30 2947 C 280.601 -1.98894 -0.471221 0
M  V30 2948 C 280.965 -1.05889 -1.60161 0
M  V30 2949 O 282.166 -1.37315 -2.3108 0
M  V30 2950 C 280.437 -3.44865 -0.938241 0
M  V30 2951 S 281.996 -4.09164 -1.58526 0
M  V30 2952 H 278.814 -0.694686 -0.151434 0
M  V30 2953 H 281.416 -1.93577 0.27352 0
M  V30 2954 H 280.12 -4.10265 -0.10518 0
M  V30 2955 H 279.651 -3.53956 -1.71693 0
M  V30 2956 H 281.666 -4.04528 -2.87352 0
M  V30 2957 N 280.839 0.0985539 -1.57292 0
M  V30 2958 C 282.25 0.653457 -1.74891 0
M  V30 2959 C 282.601 1.7929 -0.796838 0
M  V30 2960 O 281.726 2.16385 0.0254886 0
M  V30 2961 C 282.321 1.19216 -3.17133 0
M  V30 2962 C 280.88 1.69316 -3.36168 0
M  V30 2963 C 280.027 0.601294 -2.70702 0
M  V30 2964 H 282.978 -0.127497 -1.58187 0
M  V30 2965 H 282.999 2.06154 -3.19814 0
M  V30 2966 H 282.511 0.362635 -3.86402 0
M  V30 2967 H 280.612 2.5468 -2.71972 0
M  V30 2968 H 280.725 1.78853 -4.44464 0
M  V30 2969 H 279.089 1.0399 -2.32504 0
M  V30 2970 H 279.872 -0.217592 -3.4261 0
M  V30 2971 N 282.317 1.53212 0.369288 0
M  V30 2972 C 283.566 1.68436 1.10961 0
M  V30 2973 C 283.879 0.440738 1.9057 0
M  V30 2974 O 285.085 0.473446 2.6734 0
M  V30 2975 C 283.541 2.97744 2.0218 0
M  V30 2976 C 283.149 4.29355 1.279 0
M  V30 2977 C 284.893 3.22334 2.76226 0
M  V30 2978 C 282.8 5.49755 2.17999 0
M  V30 2979 H 281.73 0.627568 0.41794 0
M  V30 2980 H 284.381 1.79713 0.370884 0
M  V30 2981 H 282.763 2.8026 2.79768 0
M  V30 2982 H 283.937 4.57458 0.554007 0
M  V30 2983 H 282.252 4.11179 0.657311 0
M  V30 2984 H 284.849 4.09471 3.43857 0
M  V30 2985 H 285.192 2.38238 3.41392 0
M  V30 2986 H 285.725 3.40475 2.05723 0
M  V30 2987 H 282.464 6.36318 1.57417 0
M  V30 2988 H 281.984 5.25937 2.88359 0
M  V30 2989 H 283.663 5.84401 2.77641 0
M  V30 2990 N 283.795 -0.628877 1.44509 0
M  V30 2991 C 285.041 -1.39045 1.47629 0
M  V30 2992 C 285.374 -1.93892 0.109343 0
M  V30 2993 O 284.649 -1.7379 -0.87334 0
M  V30 2994 C 284.932 -2.55408 2.53848 0
M  V30 2995 C 284.785 -2.05896 3.99909 0
M  V30 2996 C 286.104 -3.5759 2.56549 0
M  V30 2997 H 283.223 -0.504232 0.537512 0
M  V30 2998 H 285.865 -0.710854 1.76201 0
M  V30 2999 H 284.015 -3.13384 2.29615 0
M  V30 3000 H 285.687 -1.52734 4.35282 0
M  V30 3001 H 283.93 -1.37061 4.11578 0
M  V30 3002 H 284.601 -2.89681 4.69882 0
M  V30 3003 H 287.077 -3.09419 2.78207 0
M  V30 3004 H 285.953 -4.36527 3.32769 0
M  V30 3005 H 286.214 -4.11808 1.60832 0
M  V30 3006 N 285.273 -1.31445 -0.869486 0
M  V30 3007 C 286.22 -1.19135 -1.97675 0
M  V30 3008 C 287.19 -0.0770266 -1.65921 0
M  V30 3009 O 288.375 -0.249972 -1.89155 0
M  V30 3010 C 285.515 -0.905149 -3.33018 0
M  V30 3011 C 284.628 -2.10285 -3.77365 0
M  V30 3012 C 283.763 -1.75339 -5.01427 0
M  V30 3013 C 282.802 -2.91515 -5.38224 0
M  V30 3014 N 281.939 -2.56762 -6.53466 0
M  V30 3015 H 286.779 -2.13853 -2.07535 0
M  V30 3016 H 284.316 -1.06379 -1.01597 0
M  V30 3017 H 286.274 -0.719765 -4.10944 0
M  V30 3018 H 284.904 0.00519624 -3.228 0
M  V30 3019 H 283.956 -2.39899 -2.95216 0
M  V30 3020 H 285.268 -2.97237 -4.00564 0
M  V30 3021 H 284.422 -1.53266 -5.87022 0
M  V30 3022 H 283.161 -0.855801 -4.80133 0
M  V30 3023 H 282.166 -3.14237 -4.51149 0
M  V30 3024 H 283.391 -3.81985 -5.61484 0
M  V30 3025 H 281.337 -1.69526 -6.33717 0
M  V30 3026 H 281.254 -3.37243 -6.76612 0
M  V30 3027 H 282.522 -2.38083 -7.42251 0
M  V30 3028 N 286.751 1.08385 -1.14413 0
M  V30 3029 C 287.976 1.85057 -0.936413 0
M  V30 3030 C 288.401 1.81055 0.509971 0
M  V30 3031 O 287.759 1.1958 1.36273 0
M  V30 3032 C 287.807 3.30505 -1.44217 0
M  V30 3033 O 286.911 4.07491 -0.634409 0
M  V30 3034 H 286.252 0.573425 -0.334784 0
M  V30 3035 H 288.782 1.36799 -1.52142 0
M  V30 3036 H 288.792 3.81348 -1.45043 0
M  V30 3037 H 287.467 3.32734 -2.49522 0
M  V30 3038 H 286.044 3.66368 -0.694902 0
M  V30 3039 N 288.23 0.939286 1.26551 0
M  V30 3040 C 289.479 0.581601 1.93133 0
M  V30 3041 C 289.792 -0.883224 1.74524 0
M  V30 3042 O 290.998 -1.3502 2.35546 0
M  V30 3043 C 289.454 0.989425 3.46032 0
M  V30 3044 C 289.062 2.47573 3.73379 0
M  V30 3045 C 290.806 0.703544 4.18629 0
M  V30 3046 C 288.713 2.82235 5.19709 0
M  V30 3047 H 287.643 0.213803 0.723052 0
M  V30 3048 H 290.294 1.14167 1.4366 0
M  V30 3049 H 288.676 0.357902 3.94379 0
M  V30 3050 H 289.85 3.15614 3.35744 0
M  V30 3051 H 288.165 2.73471 3.1401 0
M  V30 3052 H 290.762 0.938869 5.26393 0
M  V30 3053 H 291.105 -0.359639 4.14744 0
M  V30 3054 H 291.638 1.2947 3.76141 0
M  V30 3055 H 288.377 3.87509 5.28694 0
M  V30 3056 H 287.897 2.18854 5.58447 0
M  V30 3057 H 289.576 2.70599 5.87695 0
M  V30 3058 N 289.708 -1.40897 0.706093 0
M  V30 3059 C 290.671 -2.29131 0.0562841 0
M  V30 3060 C 291.671 -1.44901 -0.697166 0
M  V30 3061 O 292.861 -1.65926 -0.530484 0
M  V30 3062 C 289.993 -3.27957 -0.93043 0
M  V30 3063 H 291.186 -2.88091 0.833284 0
M  V30 3064 H 288.739 -1.4906 0.470192 0
M  V30 3065 H 289.474 -2.73997 -1.73482 0
M  V30 3066 H 289.259 -3.90124 -0.393166 0
M  V30 3067 H 290.749 -3.94049 -1.38256 0
M  V30 3068 N 291.186 -0.45159 -1.50991 0
M  V30 3069 C 292.134 0.366864 -2.29689 0
M  V30 3070 C 293.128 1.00809 -1.36139 0
M  V30 3071 O 294.334 0.941427 -1.53418 0
M  V30 3072 H 290.709 0.137133 -0.739391 0
M  V30 3073 H 292.68 -0.317538 -2.96706 0
M  V30 3074 C 291.429 1.44751 -3.16137 0
M  V30 3075 H 290.752 0.963473 -3.88017 0
M  V30 3076 H 292.192 1.99315 -3.74232 0
M  V30 3077 C 290.651 2.43869 -2.32442 0
M  V30 3078 O 291.181 3.4872 -1.99392 0
M  V30 3079 N 289.387 2.15105 -1.95392 0
M  V30 3080 H 288.934 1.29866 -2.22469 0
M  V30 3081 H 288.892 2.81661 -1.39693 0
M  V30 3082 N 292.664 1.56529 -0.183458 0
M  V30 3083 C 294.075 1.83739 0.331177 0
M  V30 3084 C 294.426 1.10373 1.62211 0
M  V30 3085 O 293.551 0.36071 2.13373 0
M  V30 3086 C 294.146 3.33306 0.607646 0
M  V30 3087 C 292.705 3.60969 1.06668 0
M  V30 3088 C 291.852 2.77086 0.109029 0
M  V30 3089 H 294.803 1.53379 -0.407484 0
M  V30 3090 H 294.824 3.51444 1.45832 0
M  V30 3091 H 294.336 3.86677 -0.332086 0
M  V30 3092 H 292.437 3.13021 2.0211 0
M  V30 3093 H 292.55 4.69231 0.967447 0
M  V30 3094 H 290.914 2.47319 0.608714 0
M  V30 3095 H 291.697 3.33241 -0.82494 0
M  V30 3096 N 294.142 -0.090211 1.57342 0
M  V30 3097 C 295.052 -1.12735 2.05738 0
M  V30 3098 C 296.068 -1.43557 0.983231 0
M  V30 3099 O 297.244 -1.54101 1.29672 0
M  V30 3100 C 294.309 -2.42659 2.47624 0
M  V30 3101 C 293.37 -2.18975 3.69254 0
M  V30 3102 C 292.603 -3.42704 4.09133 0
M  V30 3103 O 292.826 -4.51127 3.49057 0
M  V30 3104 O 291.76 -3.32003 5.02053 0
M  V30 3105 H 295.586 -0.746279 2.94388 0
M  V30 3106 H 293.171 -0.303064 1.46294 0
M  V30 3107 H 295.053 -3.19155 2.7517 0
M  V30 3108 H 293.728 -2.80182 1.62109 0
M  V30 3109 H 292.635 -1.40244 3.46818 0
M  V30 3110 H 293.968 -1.86342 4.55563 0
M  V30 3111 N 295.62 -1.53406 -0.361157 0
M  V30 3112 C 296.583 -1.79479 -1.42548 0
M  V30 3113 C 297.583 -0.665327 -1.4639 0
M  V30 3114 O 298.773 -0.933549 -1.47073 0
M  V30 3115 C 295.905 -1.92087 -2.8163 0
M  V30 3116 H 297.098 -2.74538 -1.20701 0
M  V30 3117 H 294.651 -1.4455 -0.594546 0
M  V30 3118 H 295.386 -0.991099 -3.08784 0
M  V30 3119 H 295.171 -2.74241 -2.80239 0
M  V30 3120 H 296.661 -2.13836 -3.58697 0
M  V30 3121 N 297.098 0.621204 -1.44841 0
M  V30 3122 C 298.344 1.3826 -1.48365 0
M  V30 3123 C 298.677 1.93831 -0.119624 0
M  V30 3124 O 297.952 1.74251 0.864111 0
M  V30 3125 C 298.235 2.54058 -2.55199 0
M  V30 3126 C 298.088 2.03772 -4.00995 0
M  V30 3127 C 299.407 3.56225 -2.58442 0
M  V30 3128 H 296.526 0.501374 -0.540179 0
M  V30 3129 H 299.168 0.7015 -1.76576 0
M  V30 3130 H 297.318 3.12162 -2.31274 0
M  V30 3131 H 298.99 1.50423 -4.36086 0
M  V30 3132 H 297.233 1.34876 -4.12299 0
M  V30 3133 H 297.904 2.87185 -4.71411 0
M  V30 3134 H 300.38 3.07939 -2.79844 0
M  V30 3135 H 299.256 4.34756 -3.3508 0
M  V30 3136 H 299.517 4.10949 -1.63013 0
M  V30 3137 N 298.576 1.31904 0.862503 0
M  V30 3138 C 299.508 1.16005 1.97675 0
M  V30 3139 C 300.521 0.0971234 1.6251 0
M  V30 3140 O 301.71 0.345337 1.75128 0
M  V30 3141 C 298.81 0.751791 3.30456 0
M  V30 3142 C 297.983 1.90133 3.93914 0
M  V30 3143 C 297.042 1.4779 5.05019 0
M  V30 3144 O 296.068 2.18872 5.25437 0
M  V30 3145 N 297.27 0.369491 5.79323 0
M  V30 3146 H 300.035 2.11982 2.11857 0
M  V30 3147 H 297.596 1.24337 1.03691 0
M  V30 3148 H 299.588 0.451084 4.02178 0
M  V30 3149 H 298.158 -0.116593 3.12382 0
M  V30 3150 H 297.378 2.36896 3.15078 0
M  V30 3151 H 298.666 2.67111 4.33047 0
M  V30 3152 H 298.064 -0.222299 5.65263 0
M  V30 3153 H 296.621 0.128354 6.51674 0
M  V30 3154 N 300.054 -1.07777 1.14986 0
M  V30 3155 C 300.986 -2.14769 0.800436 0
M  V30 3156 C 301.999 -1.61739 -0.185595 0
M  V30 3157 O 303.188 -1.78462 0.0370358 0
M  V30 3158 C 300.288 -3.38481 0.168533 0
M  V30 3159 C 299.461 -4.20876 1.1909 0
M  V30 3160 C 298.52 -5.22976 0.581575 0
M  V30 3161 O 297.546 -5.55388 1.24633 0
M  V30 3162 N 298.748 -5.76976 -0.638706 0
M  V30 3163 H 301.513 -2.45348 1.72118 0
M  V30 3164 H 299.074 -1.23645 1.04515 0
M  V30 3165 H 301.066 -4.03916 -0.251764 0
M  V30 3166 H 299.636 -3.05651 -0.655467 0
M  V30 3167 H 298.856 -3.51322 1.78791 0
M  V30 3168 H 300.144 -4.7274 1.88133 0
M  V30 3169 H 299.542 -5.52886 -1.19723 0
M  V30 3170 H 298.099 -6.44061 -1.00142 0
M  V30 3171 N 301.532 -0.945985 -1.26051 0
M  V30 3172 C 302.462 -0.477172 -2.28572 0
M  V30 3173 C 303.443 0.472032 -1.63419 0
M  V30 3174 O 304.628 0.372853 -1.90587 0
M  V30 3175 C 301.758 0.253975 -3.4637 0
M  V30 3176 C 300.712 -0.609135 -4.23643 0
M  V30 3177 C 300.038 0.252252 -5.34105 0
M  V30 3178 C 301.338 -1.8829 -4.8718 0
M  V30 3179 H 303.032 -1.33402 -2.68038 0
M  V30 3180 H 300.578 -0.642904 -1.28852 0
M  V30 3181 H 302.531 0.593016 -4.17207 0
M  V30 3182 H 301.255 1.145 -3.05871 0
M  V30 3183 H 299.914 -0.931138 -3.54578 0
M  V30 3184 H 299.562 1.14278 -4.89846 0
M  V30 3185 H 299.262 -0.32188 -5.86718 0
M  V30 3186 H 300.786 0.586454 -6.07777 0
M  V30 3187 H 302.2 -1.61081 -5.50205 0
M  V30 3188 H 300.597 -2.40199 -5.49931 0
M  V30 3189 H 301.667 -2.59134 -4.09851 0
M  V30 3190 N 303.011 1.40521 -0.713556 0
M  V30 3191 C 304.26 2.00155 -0.249192 0
M  V30 3192 C 304.573 1.57224 1.16362 0
M  V30 3193 O 305.779 2.09542 1.72639 0
M  V30 3194 C 304.235 3.5773 -0.3946 0
M  V30 3195 C 303.843 4.09635 -1.81392 0
M  V30 3196 C 305.587 4.24499 0.00907364 0
M  V30 3197 C 303.494 5.59707 -1.91003 0
M  V30 3198 H 302.424 0.74868 -0.0894114 0
M  V30 3199 H 305.075 1.60784 -0.884352 0
M  V30 3200 H 303.457 3.94792 0.30911 0
M  V30 3201 H 304.631 3.83955 -2.54785 0
M  V30 3202 H 302.946 3.55456 -2.16888 0
M  V30 3203 H 305.543 5.34683 -0.0420404 0
M  V30 3204 H 305.886 4.02824 1.05065 0
M  V30 3205 H 306.419 3.92536 -0.645007 0
M  V30 3206 H 303.158 5.86234 -2.93275 0
M  V30 3207 H 302.678 5.87258 -1.22019 0
M  V30 3208 H 304.357 6.24776 -1.6812 0
M  V30 3209 N 304.489 0.459591 1.5075 0
M  V30 3210 C 305.452 -0.329093 2.26825 0
M  V30 3211 C 306.452 -0.930481 1.31144 0
M  V30 3212 O 307.642 -0.801453 1.54669 0
M  V30 3213 C 304.774 -1.46768 3.07688 0
M  V30 3214 H 305.967 0.337924 2.9799 0
M  V30 3215 H 303.52 0.213336 1.54837 0
M  V30 3216 H 304.255 -2.17009 2.40993 0
M  V30 3217 H 304.04 -1.04238 3.77991 0
M  V30 3218 H 305.53 -2.02433 3.65254 0
M  V30 3219 N 305.967 -1.56429 0.191757 0
M  V30 3220 C 306.914 -2.18936 -0.730454 0
M  V30 3221 C 307.884 -1.13557 -1.21219 0
M  V30 3222 O 309.069 -1.41794 -1.27668 0
M  V30 3223 C 306.209 -2.85013 -1.9458 0
M  V30 3224 C 305.322 -4.04909 -1.50574 0
M  V30 3225 C 304.457 -4.58853 -2.67634 0
M  V30 3226 C 303.496 -5.71114 -2.20217 0
M  V30 3227 N 302.633 -6.19478 -3.30442 0
M  V30 3228 H 307.473 -2.97389 -0.190664 0
M  V30 3229 H 305.01 -1.46869 -0.0823694 0
M  V30 3230 H 306.968 -3.21492 -2.65893 0
M  V30 3231 H 305.598 -2.09129 -2.45896 0
M  V30 3232 H 304.65 -3.74115 -0.688605 0
M  V30 3233 H 305.962 -4.86113 -1.11784 0
M  V30 3234 H 305.116 -4.97619 -3.47074 0
M  V30 3235 H 303.855 -3.76749 -3.09696 0
M  V30 3236 H 302.86 -5.31879 -1.3923 0
M  V30 3237 H 304.085 -6.55033 -1.79189 0
M  V30 3238 H 302.031 -5.40297 -3.72041 0
M  V30 3239 H 301.948 -6.95725 -2.9581 0
M  V30 3240 H 303.216 -6.62898 -4.10106 0
M  V30 3241 N 307.445 0.0818655 -1.57387 0
M  V30 3242 C 308.375 1.09885 -2.06028 0
M  V30 3243 C 309.356 1.4098 -0.951774 0
M  V30 3244 O 310.541 1.50781 -1.22387 0
M  V30 3245 C 307.671 2.4151 -2.4958 0
M  V30 3246 C 306.625 2.24792 -3.64215 0
M  V30 3247 C 305.951 3.61712 -3.93787 0
M  V30 3248 C 307.251 1.67749 -4.94629 0
M  V30 3249 H 308.945 0.694128 -2.91243 0
M  V30 3250 H 306.491 0.332448 -1.4011 0
M  V30 3251 H 308.444 3.12939 -2.82219 0
M  V30 3252 H 307.168 2.83943 -1.61381 0
M  V30 3253 H 305.827 1.55807 -3.31843 0
M  V30 3254 H 305.475 4.01697 -3.02735 0
M  V30 3255 H 305.175 3.51368 -4.70971 0
M  V30 3256 H 306.699 4.34587 -4.28913 0
M  V30 3257 H 308.113 2.29032 -5.25564 0
M  V30 3258 H 306.51 1.68128 -5.76067 0
M  V30 3259 H 307.58 0.638059 -4.80684 0
M  V30 3260 N 308.923 1.53595 0.353017 0
M  V30 3261 C 310.2 1.61002 1.11075 0
M  V30 3262 C 310.58 0.425356 2.0677 0
M  V30 3263 O 309.928 -0.583267 2.2093 0
M  V30 3264 C 310.138 2.96631 1.83877 0
M  V30 3265 C 311.486 3.51653 2.37961 0
M  V30 3266 O 312.51 2.98743 1.93987 0
M  V30 3267 O 311.369 4.44177 3.18386 0
M  V30 3268 H 308.463 0.650825 0.510251 0
M  V30 3269 H 311.009 1.6594 0.35527 0
M  V30 3270 H 309.781 3.74293 1.14108 0
M  V30 3271 H 309.404 2.95242 2.66304 0
M  V30 3272 N 310.401 -0.613514 1.45168 0
M  V30 3273 C 311.334 -1.73809 1.47871 0
M  V30 3274 C 312.312 -1.59097 0.33568 0
M  V30 3275 O 313.496 -1.8074 0.535299 0
M  V30 3276 C 310.623 -3.11574 1.32813 0
M  V30 3277 C 309.669 -3.4489 2.50905 0
M  V30 3278 S 310.502 -3.40393 4.13392 0
M  V30 3279 C 311.658 -4.80749 4.00789 0
M  V30 3280 H 311.891 -1.71252 2.43023 0
M  V30 3281 H 309.424 -0.789658 1.32679 0
M  V30 3282 H 311.382 -3.91065 1.24812 0
M  V30 3283 H 310.043 -3.11652 0.391418 0
M  V30 3284 H 309.236 -4.45183 2.36279 0
M  V30 3285 H 308.838 -2.72901 2.55736 0
M  V30 3286 H 311.13 -5.7041 3.65567 0
M  V30 3287 H 312.073 -5.00431 5.00974 0
M  V30 3288 H 312.481 -4.56151 3.32545 0
M  V30 3289 N 311.879 -1.3236 -0.855495 0
M  V30 3290 C 312.827 -1.2118 -1.9854 0
M  V30 3291 C 313.821 -0.116788 -1.68997 0
M  V30 3292 O 315.027 -0.279657 -1.77814 0
M  V30 3293 H 311.402 -0.375608 -0.651477 0
M  V30 3294 H 313.373 -2.16743 -2.05098 0
M  V30 3295 C 312.122 -0.950849 -3.34446 0
M  V30 3296 H 311.445 -1.78563 -3.57708 0
M  V30 3297 H 312.885 -0.912863 -4.14057 0
M  V30 3298 C 311.344 0.346404 -3.35114 0
M  V30 3299 O 311.874 1.35855 -3.7803 0
M  V30 3300 N 310.08 0.36808 -2.88259 0
M  V30 3301 H 309.627 -0.456102 -2.5353 0
M  V30 3302 H 309.585 1.23591 -2.89089 0
M  V30 3303 N 313.357 1.07166 -1.15556 0
M  V30 3304 C 314.305 2.16517 -0.8499 0
M  V30 3305 C 315.299 1.68468 0.177454 0
M  V30 3306 O 316.505 1.79971 0.0323026 0
M  V30 3307 H 312.88 0.706652 -0.25719 0
M  V30 3308 H 314.851 2.39514 -1.77976 0
M  V30 3309 C 313.6 3.45855 -0.357682 0
M  V30 3310 H 312.923 3.83214 -1.13961 0
M  V30 3311 H 314.363 4.23607 -0.182489 0
M  V30 3312 C 312.822 3.24062 0.921152 0
M  V30 3313 O 313.352 3.48813 1.9923 0
M  V30 3314 N 311.558 2.77539 0.86141 0
M  V30 3315 H 311.105 2.57598 -0.0104408 0
M  V30 3316 H 311.063 2.63337 1.71758 0
M  V30 3317 N 314.835 0.952656 1.25548 0
M  V30 3318 C 315.798 0.475794 2.24207 0
M  V30 3319 C 316.798 -0.419428 1.55234 0
M  V30 3320 O 317.988 -0.216994 1.72843 0
M  V30 3321 C 315.12 -0.312814 3.39462 0
M  V30 3322 H 316.313 1.34779 2.67908 0
M  V30 3323 H 313.866 0.735739 1.37901 0
M  V30 3324 H 314.601 -1.20257 3.01179 0
M  V30 3325 H 314.386 0.329404 3.90714 0
M  V30 3326 H 315.876 -0.635986 4.12729 0
M  V30 3327 N 316.313 -1.40141 0.720998 0
M  V30 3328 C 317.261 -2.3252 0.0608547 0
M  V30 3329 C 318.255 -1.52326 -0.741152 0
M  V30 3330 O 319.461 -1.68089 -0.643911 0
M  V30 3331 H 315.836 -0.751999 0.000876664 0
M  V30 3332 H 317.807 -2.8584 0.856614 0
M  V30 3333 C 316.556 -3.37331 -0.842809 0
M  V30 3334 H 315.879 -3.99108 -0.235084 0
M  V30 3335 H 317.319 -4.04452 -1.27257 0
M  V30 3336 C 315.778 -2.73246 -1.97074 0
M  V30 3337 O 316.308 -2.59998 -3.06209 0
M  V30 3338 N 314.514 -2.31547 -1.75597 0
M  V30 3339 H 314.061 -2.42522 -0.868368 0
M  V30 3340 H 314.019 -1.89007 -2.51244 0
M  V30 3341 N 317.792 -0.46758 -1.50504 0
M  V30 3342 C 319.203 -0.0116166 -1.86696 0
M  V30 3343 C 319.554 1.39202 -1.38265 0
M  V30 3344 O 318.679 2.0313 -0.746132 0
M  V30 3345 C 319.274 -0.0143044 -3.38797 0
M  V30 3346 C 317.833 0.386175 -3.74414 0
M  V30 3347 C 316.98 -0.401287 -2.74381 0
M  V30 3348 H 319.931 -0.682022 -1.43297 0
M  V30 3349 H 319.952 0.788641 -3.72237 0
M  V30 3350 H 319.464 -1.03602 -3.74016 0
M  V30 3351 H 317.565 1.41237 -3.44794 0
M  V30 3352 H 317.678 0.0899596 -4.79016 0
M  V30 3353 H 316.042 0.144536 -2.5429 0
M  V30 3354 H 316.825 -1.42244 -3.12444 0
M  V30 3355 N 319.27 1.56325 -0.20005 0
M  V30 3356 C 320.203 2.15234 0.758267 0
M  V30 3357 C 321.181 1.09046 1.20614 0
M  V30 3358 O 322.365 1.37186 1.29276 0
M  V30 3359 C 319.492 2.71524 2.02466 0
M  V30 3360 C 318.538 3.90345 1.71852 0
M  V30 3361 S 319.371 5.28513 0.862249 0
M  V30 3362 C 320.527 5.88227 2.13868 0
M  V30 3363 H 320.76 2.96183 0.2575 0
M  V30 3364 H 318.293 1.54393 0.0150099 0
M  V30 3365 H 320.251 3.04598 2.75191 0
M  V30 3366 H 318.912 1.90607 2.49655 0
M  V30 3367 H 318.105 4.28158 2.65888 0
M  V30 3368 H 317.707 3.58306 1.07205 0
M  V30 3369 H 319.999 6.02891 3.09076 0
M  V30 3370 H 320.942 6.84714 1.80479 0
M  V30 3371 H 321.35 5.16874 2.2694 0
M  V30 3372 N 320.748 -0.0735177 1.57428 0
M  V30 3373 C 322.025 -0.805903 1.78226 0
M  V30 3374 C 322.405 -1.95874 0.787189 0
M  V30 3375 O 321.753 -2.2779 -0.180029 0
M  V30 3376 C 321.963 -1.28045 3.24662 0
M  V30 3377 C 323.311 -1.71453 3.88444 0
M  V30 3378 O 324.335 -1.37616 3.28543 0
M  V30 3379 O 323.194 -2.34093 4.93825 0
M  V30 3380 H 320.288 -0.386041 0.73137 0
M  V30 3381 H 322.834 -0.0537269 1.69615 0
M  V30 3382 H 321.606 -0.455476 3.8864 0
M  V30 3383 H 321.229 -2.094 3.37991 0
M  V30 3384 N 322.226 -1.5378 -0.344866 0
M  V30 3385 C 323.466 -1.72677 -1.09371 0
M  V30 3386 C 323.83 -0.479084 -1.85927 0
M  V30 3387 O 325.031 -0.54505 -2.63216 0
M  V30 3388 C 323.302 -2.95457 -2.01097 0
M  V30 3389 S 324.861 -3.35158 -2.83222 0
M  V30 3390 H 321.679 -0.607402 -0.369573 0
M  V30 3391 H 324.281 -1.91922 -0.372307 0
M  V30 3392 H 322.985 -3.84437 -1.43655 0
M  V30 3393 H 322.516 -2.78673 -2.77678 0
M  V30 3394 H 324.531 -2.88789 -4.03504 0
M  V30 3395 N 323.704 0.605807 -1.45491 0
M  V30 3396 C 324.634 1.72709 -1.57143 0
M  V30 3397 C 325.615 1.6476 -0.422884 0
M  V30 3398 O 326.8 1.83132 -0.646247 0
M  V30 3399 C 323.93 3.11316 -1.53948 0
M  V30 3400 C 322.884 3.34077 -2.67537 0
M  V30 3401 C 322.21 4.72975 -2.49397 0
M  V30 3402 C 323.51 3.24158 -4.09535 0
M  V30 3403 H 325.204 1.63214 -2.51001 0
M  V30 3404 H 322.75 0.78379 -1.208 0
M  V30 3405 H 324.703 3.89557 -1.60696 0
M  V30 3406 H 323.427 3.21655 -0.566205 0
M  V30 3407 H 322.086 2.58227 -2.6022 0
M  V30 3408 H 321.734 4.8005 -1.50205 0
M  V30 3409 H 321.434 4.8916 -3.25571 0
M  V30 3410 H 322.958 5.53414 -2.58002 0
M  V30 3411 H 324.372 3.92271 -4.18086 0
M  V30 3412 H 322.769 3.51872 -4.86113 0
M  V30 3413 H 323.839 2.2157 -4.31317 0
M  V30 3414 N 325.182 1.32811 0.848464 0
M  V30 3415 C 326.145 1.22194 1.9391 0
M  V30 3416 C 327.145 0.143404 1.60159 0
M  V30 3417 O 328.335 0.394253 1.6968 0
M  V30 3418 C 325.467 0.88067 3.29328 0
M  V30 3419 H 326.66 2.19127 2.04752 0
M  V30 3420 H 324.213 1.16731 1.0394 0
M  V30 3421 H 324.948 -0.0865776 3.24184 0
M  V30 3422 H 324.733 1.66052 3.55203 0
M  V30 3423 H 326.223 0.830871 4.09251 0
M  V30 3424 N 326.66 -1.06551 1.16123 0
M  V30 3425 C 327.89 -1.8274 0.963838 0
M  V30 3426 C 328.298 -1.82712 -0.491228 0
M  V30 3427 O 327.641 -1.24294 -1.35265 0
M  V30 3428 C 327.703 -3.3065 1.41106 0
M  V30 3429 C 327.367 -3.54384 2.88549 0
M  V30 3430 C 328.364 -3.4765 3.86569 0
M  V30 3431 C 326.049 -3.81789 3.26408 0
M  V30 3432 C 328.043 -3.67982 5.2045 0
M  V30 3433 C 325.73 -4.01772 4.60459 0
M  V30 3434 C 326.728 -3.94866 5.57288 0
M  V30 3435 O 326.416 -4.14306 6.88916 0
M  V30 3436 H 326.148 -0.583136 0.341948 0
M  V30 3437 H 328.702 -1.35351 1.54497 0
M  V30 3438 H 326.932 -3.78887 0.773394 0
M  V30 3439 H 328.621 -3.88324 1.1815 0
M  V30 3440 H 329.387 -3.2647 3.58667 0
M  V30 3441 H 325.266 -3.86276 2.51619 0
M  V30 3442 H 328.81 -3.62507 5.96015 0
M  V30 3443 H 324.707 -4.2244 4.88072 0
M  V30 3444 H 325.475 -4.31609 6.95454 0
M  V30 3445 N 328.138 -0.959301 -1.25041 0
M  V30 3446 C 329.554 -0.664474 -1.4511 0
M  V30 3447 C 329.754 0.776481 -1.85938 0
M  V30 3448 O 328.81 1.55128 -1.99227 0
M  V30 3449 C 330.123 -1.64139 -2.5195 0
M  V30 3450 C 331.671 -1.65309 -2.65786 0
M  V30 3451 C 332.146 -2.61777 -3.75815 0
M  V30 3452 N 333.637 -2.60169 -3.83231 0
M  V30 3453 C 334.372 -3.31489 -4.6787 0
M  V30 3454 N 333.868 -4.12298 -5.56761 0
M  V30 3455 N 335.661 -3.20354 -4.61876 0
M  V30 3456 H 327.812 -1.89043 -0.968332 0
M  V30 3457 H 330.075 -0.813408 -0.4869 0
M  V30 3458 H 329.781 -2.67086 -2.28819 0
M  V30 3459 H 329.655 -1.40756 -3.49954 0
M  V30 3460 H 332.042 -0.630778 -2.8828 0
M  V30 3461 H 332.123 -1.92753 -1.68167 0
M  V30 3462 H 331.767 -3.64137 -3.54071 0
M  V30 3463 H 331.697 -2.31616 -4.72929 0
M  V30 3464 H 334.188 -2.01507 -3.19692 0
M  V30 3465 H 334.501 -4.63625 -6.18281 0
M  V30 3466 H 332.846 -4.16395 -5.56454 0
M  V30 3467 H 336.037 -2.56692 -3.91442 0
M  V30 3468 H 336.21 -3.76201 -5.27614 0
M  V30 3469 N 329.616 1.39756 -0.72842 0
M  V30 3470 C 330.863 2.00645 -0.273487 0
M  V30 3471 C 331.191 1.57786 1.13727 0
M  V30 3472 O 330.446 0.794886 1.7883 0
M  V30 3473 C 330.745 3.56002 -0.315776 0
M  V30 3474 C 330.411 4.18489 -1.67863 0
M  V30 3475 C 329.073 4.3527 -2.05166 0
M  V30 3476 C 331.425 4.53219 -2.57375 0
M  V30 3477 C 328.753 4.84069 -3.31503 0
M  V30 3478 C 331.105 5.03423 -3.83077 0
M  V30 3479 C 329.769 5.18413 -4.20481 0
M  V30 3480 H 329.039 0.734211 -0.100076 0
M  V30 3481 H 331.686 1.6718 -0.933972 0
M  V30 3482 H 329.991 3.89452 0.428285 0
M  V30 3483 H 331.688 4.00963 0.0542575 0
M  V30 3484 H 328.278 4.05824 -1.37858 0
M  V30 3485 H 332.462 4.39878 -2.29827 0
M  V30 3486 H 327.718 4.93859 -3.60435 0
M  V30 3487 H 331.892 5.2927 -4.52599 0
M  V30 3488 H 329.519 5.55987 -5.18443 0
M  V30 3489 N 331.094 0.475555 1.50254 0
M  V30 3490 C 332.371 -0.139685 1.95101 0
M  V30 3491 C 332.751 -1.56555 1.41611 0
M  V30 3492 O 332.099 -2.19956 0.618993 0
M  V30 3493 C 332.309 -0.0784298 3.48912 0
M  V30 3494 C 333.657 -0.265095 4.23772 0
M  V30 3495 O 334.681 -0.154808 3.55863 0
M  V30 3496 O 333.54 -0.488327 5.44314 0
M  V30 3497 H 330.634 -0.109236 0.819754 0
M  V30 3498 H 333.18 0.536276 1.61004 0
M  V30 3499 H 331.952 0.916918 3.80405 0
M  V30 3500 H 331.575 -0.795655 3.89558 0
M  V30 3501 N 332.573 -1.56217 0.208337 0
M  V30 3502 C 333.822 -1.97124 -0.427204 0
M  V30 3503 C 334.135 -1.09859 -1.61835 0
M  V30 3504 O 335.341 -1.40606 -2.32255 0
M  V30 3505 C 333.797 -3.50633 -0.811442 0
M  V30 3506 C 333.405 -4.46582 0.35615 0
M  V30 3507 C 335.149 -4.00282 -1.41332 0
M  V30 3508 C 333.056 -5.91379 -0.0497852 0
M  V30 3509 H 331.986 -0.736086 -0.163381 0
M  V30 3510 H 334.637 -1.8099 0.302456 0
M  V30 3511 H 333.019 -3.62319 -1.59815 0
M  V30 3512 H 334.193 -4.46636 1.1337 0
M  V30 3513 H 332.508 -4.07202 0.870396 0
M  V30 3514 H 335.105 -5.0595 -1.72972 0
M  V30 3515 H 335.448 -3.45359 -2.32449 0
M  V30 3516 H 335.981 -3.91764 -0.690323 0
M  V30 3517 H 332.72 -6.50255 0.827529 0
M  V30 3518 H 332.24 -5.94549 -0.791926 0
M  V30 3519 H 333.919 -6.45209 -0.481042 0
M  V30 3520 N 334.051 0.0651679 -1.57465 0
M  V30 3521 C 335.297 0.764193 -1.87851 0
M  V30 3522 C 335.63 1.76889 -0.801495 0
M  V30 3523 O 334.905 1.93594 0.187528 0
M  V30 3524 C 335.188 1.46625 -3.28897 0
M  V30 3525 C 335.041 0.477515 -4.47258 0
M  V30 3526 C 336.36 2.4095 -3.68281 0
M  V30 3527 H 333.479 0.276351 -0.683227 0
M  V30 3528 H 336.121 0.0272868 -1.8998 0
M  V30 3529 H 334.271 2.09438 -3.27212 0
M  V30 3530 H 335.943 -0.145922 -4.61069 0
M  V30 3531 H 334.186 -0.206576 -4.33308 0
M  V30 3532 H 334.857 1.0065 -5.42746 0
M  V30 3533 H 337.333 1.88209 -3.71102 0
M  V30 3534 H 336.209 2.87072 -4.67847 0
M  V30 3535 H 336.47 3.26049 -2.98571 0
M  V30 3536 N 335.529 1.53961 0.336706 0
M  V30 3537 C 336.459 1.85417 1.41925 0
M  V30 3538 C 337.44 0.709856 1.5458 0
M  V30 3539 O 338.625 0.962396 1.68676 0
M  V30 3540 C 335.755 2.06985 2.78881 0
M  V30 3541 C 334.709 3.22813 2.81026 0
M  V30 3542 C 334.035 3.29727 4.20932 0
M  V30 3543 C 335.335 4.60767 2.45949 0
M  V30 3544 H 337.029 2.76079 1.15848 0
M  V30 3545 H 334.575 1.32839 0.555859 0
M  V30 3546 H 336.528 2.27575 3.54665 0
M  V30 3547 H 335.252 1.13061 3.06406 0
M  V30 3548 H 333.911 3.0209 2.07695 0
M  V30 3549 H 333.559 2.33385 4.45579 0
M  V30 3550 H 333.259 4.07566 4.23277 0
M  V30 3551 H 334.783 3.52536 4.98549 0
M  V30 3552 H 336.197 4.81325 3.11446 0
M  V30 3553 H 334.594 5.4106 2.59566 0
M  V30 3554 H 335.664 4.6391 1.41122 0
M  V30 3555 N 337.007 -0.598083 1.45811 0
M  V30 3556 C 338.423 -0.919847 1.30426 0
M  V30 3557 C 338.623 -1.99759 0.264303 0
M  V30 3558 O 337.679 -2.50221 -0.338472 0
M  V30 3559 C 338.992 -1.35176 2.68603 0
M  V30 3560 C 340.54 -1.46546 2.76574 0
M  V30 3561 C 341.015 -1.9311 4.15298 0
M  V30 3562 N 342.506 -2.00328 4.1764 0
M  V30 3563 C 343.241 -2.37599 5.21856 0
M  V30 3564 N 342.737 -2.73771 6.36413 0
M  V30 3565 N 344.53 -2.38021 5.09218 0
M  V30 3566 H 336.681 0.114111 2.12093 0
M  V30 3567 H 338.944 -0.0116121 0.947929 0
M  V30 3568 H 338.65 -0.633969 3.45939 0
M  V30 3569 H 338.524 -2.3164 2.97696 0
M  V30 3570 H 340.911 -2.17415 1.99537 0
M  V30 3571 H 340.992 -0.483727 2.51185 0
M  V30 3572 H 340.636 -1.22824 4.92825 0
M  V30 3573 H 340.566 -2.92213 4.38086 0
M  V30 3574 H 343.057 -1.74925 3.34977 0
M  V30 3575 H 343.37 -3.0112 7.11721 0
M  V30 3576 H 341.715 -2.71445 6.39799 0
M  V30 3577 H 344.906 -2.09174 4.18765 0
M  V30 3578 H 345.079 -2.66741 5.90554 0
M  V30 3579 N 338.485 -1.33259 -0.841409 0
M  V30 3580 C 339.733 -1.24326 -1.59334 0
M  V30 3581 C 340.054 0.191564 -1.94057 0
M  V30 3582 O 339.324 1.11967 -1.60749 0
M  V30 3583 H 337.904 -0.457174 -0.590763 0
M  V30 3584 H 340.566 -1.66947 -1.00571 0
M  V30 3585 H 339.662 -1.8352 -2.52442 0
M  V30 3586 N 339.963 1.05934 -1.16686 0
M  V30 3587 C 340.895 2.13468 -0.834503 0
M  V30 3588 C 341.908 1.62013 0.15984 0
M  V30 3589 O 343.097 1.7838 -0.0654228 0
M  V30 3590 C 340.197 3.3817 -0.222361 0
M  V30 3591 C 339.37 4.18928 -1.25771 0
M  V30 3592 C 338.429 5.21985 -0.664703 0
M  V30 3593 O 337.455 5.53334 -1.33453 0
M  V30 3594 N 338.657 5.77919 0.546834 0
M  V30 3595 H 341.422 2.42578 -1.75999 0
M  V30 3596 H 338.983 1.21967 -1.06469 0
M  V30 3597 H 340.975 4.04266 0.187472 0
M  V30 3598 H 339.545 3.06655 0.606758 0
M  V30 3599 H 338.765 3.48433 -1.84358 0
M  V30 3600 H 340.053 4.69687 -1.95631 0
M  V30 3601 H 339.451 5.54721 1.10912 0
M  V30 3602 H 338.008 6.45573 0.898829 0
M  V30 3603 N 341.441 0.965919 1.2453 0
M  V30 3604 C 342.857 0.67216 1.44756 0
M  V30 3605 C 343.057 -0.766609 1.86347 0
M  V30 3606 O 342.113 -1.5407 2.00047 0
M  V30 3607 C 343.426 1.65473 2.51076 0
M  V30 3608 C 344.974 1.66716 2.64905 0
M  V30 3609 C 345.449 2.63766 3.74421 0
M  V30 3610 N 346.94 2.62198 3.81846 0
M  V30 3611 C 347.675 3.33966 4.66106 0
M  V30 3612 N 347.171 4.15245 5.54566 0
M  V30 3613 N 348.964 3.22799 4.60171 0
M  V30 3614 H 341.115 1.89553 0.958293 0
M  V30 3615 H 343.378 0.815979 0.482579 0
M  V30 3616 H 343.084 2.68296 2.27399 0
M  V30 3617 H 342.958 1.4261 3.49202 0
M  V30 3618 H 345.345 0.646057 2.87941 0
M  V30 3619 H 345.426 1.93642 1.67142 0
M  V30 3620 H 345.07 3.6601 3.52135 0
M  V30 3621 H 345 2.34121 4.71694 0
M  V30 3622 H 347.491 2.032 3.18619 0
M  V30 3623 H 347.804 4.66898 6.15814 0
M  V30 3624 H 346.149 4.1934 5.54237 0
M  V30 3625 H 349.34 2.58764 3.90075 0
M  V30 3626 H 349.513 3.78994 5.25612 0
M  V30 3627 N 342.919 -1.39368 0.735821 0
M  V30 3628 C 343.866 -2.30599 0.0963825 0
M  V30 3629 C 344.836 -1.49257 -0.728794 0
M  V30 3630 O 346.021 -1.77941 -0.688588 0
M  V30 3631 C 343.161 -3.35596 -0.804305 0
M  V30 3632 C 342.274 -4.31987 0.0335761 0
M  V30 3633 C 341.409 -5.24053 -0.868461 0
M  V30 3634 C 340.448 -6.12095 -0.0258776 0
M  V30 3635 N 339.585 -6.96514 -0.883893 0
M  V30 3636 H 344.425 -2.8471 0.880002 0
M  V30 3637 H 341.962 -1.40188 0.445619 0
M  V30 3638 H 343.92 -3.95062 -1.34096 0
M  V30 3639 H 342.55 -2.82938 -1.55389 0
M  V30 3640 H 341.602 -3.74133 0.68766 0
M  V30 3641 H 342.914 -4.94074 0.685036 0
M  V30 3642 H 342.068 -5.88549 -1.47293 0
M  V30 3643 H 340.807 -4.62289 -1.5537 0
M  V30 3644 H 339.812 -5.4661 0.591386 0
M  V30 3645 H 341.037 -6.75923 0.656156 0
M  V30 3646 H 338.983 -6.37318 -1.55441 0
M  V30 3647 H 338.9 -7.55448 -0.288931 0
M  V30 3648 H 340.168 -7.65439 -1.4739 0
M  V30 3649 N 344.397 -0.483516 -1.5 0
M  V30 3650 C 345.625 0.0644831 -2.06799 0
M  V30 3651 C 346.04 1.32399 -1.34596 0
M  V30 3652 O 345.397 1.77626 -0.418946 0
M  V30 3653 C 345.448 0.339927 -3.59898 0
M  V30 3654 O 345.169 -0.869635 -4.29382 0
M  V30 3655 C 346.67 0.933515 -4.33359 0
M  V30 3656 H 343.89 -0.0126333 -0.670881 0
M  V30 3657 H 346.434 -0.675864 -1.93009 0
M  V30 3658 H 344.589 1.03022 -3.7345 0
M  V30 3659 H 345.003 -0.62179 -5.20801 0
M  V30 3660 H 346.477 1.07593 -5.41413 0
M  V30 3661 H 346.954 1.92685 -3.94676 0
M  V30 3662 H 347.56 0.281221 -4.24369 0
M  V30 3663 N 345.875 1.56104 -0.216619 0
M  V30 3664 C 346.825 2.16703 0.708798 0
M  V30 3665 C 347.809 1.11392 1.16106 0
M  V30 3666 O 349.001 1.37395 1.11587 0
M  V30 3667 C 346.13 2.84666 1.91886 0
M  V30 3668 C 345.216 3.97195 1.48651 0
M  V30 3669 N 345.607 4.99959 0.766434 0
M  V30 3670 C 343.905 4.09193 1.77418 0
M  V30 3671 C 344.606 5.79126 0.546659 0
M  V30 3672 N 343.582 5.32315 1.10188 0
M  V30 3673 H 347.384 2.93516 0.150162 0
M  V30 3674 H 344.898 1.6239 -0.0176768 0
M  V30 3675 H 346.895 3.26486 2.59253 0
M  V30 3676 H 345.555 2.09347 2.48202 0
M  V30 3677 H 346.566 5.16197 0.419634 0
M  V30 3678 H 343.243 3.45021 2.35088 0
M  V30 3679 H 344.633 6.71895 -0.026103 0
M  V30 3680 N 347.353 -0.0568162 1.57498 0
M  V30 3681 C 348.6 -0.753104 1.87975 0
M  V30 3682 C 348.928 -1.76815 0.81035 0
M  V30 3683 O 348.183 -1.94756 -0.19199 0
M  V30 3684 C 348.482 -1.48359 3.25153 0
M  V30 3685 C 348.148 -0.60713 4.46794 0
M  V30 3686 C 346.81 -0.365642 4.79809 0
M  V30 3687 C 349.162 -0.000305978 5.212 0
M  V30 3688 C 346.49 0.491905 5.84634 0
M  V30 3689 C 348.842 0.844781 6.26934 0
M  V30 3690 C 347.506 1.096 6.58441 0
M  V30 3691 H 346.776 -0.27558 0.687849 0
M  V30 3692 H 349.423 -0.0135173 1.91495 0
M  V30 3693 H 347.728 -2.29577 3.17492 0
M  V30 3694 H 349.425 -2.02739 3.45974 0
M  V30 3695 H 346.015 -0.805487 4.20963 0
M  V30 3696 H 350.199 -0.173961 4.95995 0
M  V30 3697 H 345.455 0.695131 6.07436 0
M  V30 3698 H 349.629 1.32165 6.83744 0
M  V30 3699 H 347.256 1.76224 7.39492 0
M  V30 3700 N 348.832 -1.54138 -0.328536 0
M  V30 3701 C 349.742 -1.86192 -1.42723 0
M  V30 3702 C 350.758 -0.753382 -1.56844 0
M  V30 3703 O 351.934 -1.04718 -1.72035 0
M  V30 3704 C 348.999 -2.07824 -2.77507 0
M  V30 3705 C 348.06 -3.31641 -2.72603 0
M  V30 3706 C 347.293 -3.52232 -4.00959 0
M  V30 3707 O 347.516 -2.7636 -4.9898 0
M  V30 3708 O 346.45 -4.45699 -4.0452 0
M  V30 3709 H 350.276 -2.79608 -1.18547 0
M  V30 3710 H 347.861 -1.3998 -0.522104 0
M  V30 3711 H 349.743 -2.23411 -3.57303 0
M  V30 3712 H 348.418 -1.17596 -3.01584 0
M  V30 3713 H 347.325 -3.21444 -1.91376 0
M  V30 3714 H 348.658 -4.2191 -2.53481 0
M  V30 3715 N 350.31 0.590341 -1.46126 0
M  V30 3716 C 351.258 1.72105 -1.5647 0
M  V30 3717 C 352.252 1.63756 -0.433612 0
M  V30 3718 O 353.458 1.69342 -0.610194 0
M  V30 3719 H 349.833 0.568889 -0.491802 0
M  V30 3720 H 351.804 1.6051 -2.51553 0
M  V30 3721 C 350.553 3.10493 -1.56491 0
M  V30 3722 H 349.876 3.17583 -2.4286 0
M  V30 3723 H 351.316 3.8939 -1.67785 0
M  V30 3724 C 349.775 3.3563 -0.292231 0
M  V30 3725 O 350.305 3.96875 0.620739 0
M  V30 3726 N 348.511 2.90026 -0.182523 0
M  V30 3727 H 348.058 2.40367 -0.926356 0
M  V30 3728 H 348.016 3.07218 0.668152 0
M  V30 3729 N 351.788 1.33704 0.83433 0
M  V30 3730 C 353.028 1.26754 1.60352 0
M  V30 3731 C 353.392 -0.163182 1.91305 0
M  V30 3732 O 354.593 -0.3567 2.66423 0
M  V30 3733 C 352.864 2.12262 2.8754 0
M  V30 3734 S 354.423 2.22549 3.78176 0
M  V30 3735 H 351.241 0.450879 0.549753 0
M  V30 3736 H 353.843 1.68788 0.986444 0
M  V30 3737 H 352.547 3.15238 2.62779 0
M  V30 3738 H 352.078 1.71082 3.54252 0
M  V30 3739 H 354.093 1.3899 4.76336 0
M  V30 3740 O 353.305 -0.972346 1.28948 0
M  V30 3741 H 353.996 -1.59791 1.09484 0
M  V30 END ATOM
M  V30 BEGIN BOND
M  V30 END BOND
M  V30 END CTAB
M  END
$$$$
