drugbank_target|Q9GV41 Prostaglandin F synthase (DB03461; DB04272)
 OpenBabel12092120273D

  0  0  0     0  0            999 V3000
M  V30 BEGIN CTAB
M  V30 COUNTS 4349 4399 0 0 0
M  V30 BEGIN ATOM
M  V30 1 H -0.908 1.98254 -0.117106 0
M  V30 2 N 0 1.576 0 0
M  V30 3 C 0.933 2.03868 1.02534 0
M  V30 4 C 1.911 0.928543 1.3348 0
M  V30 5 O 3.095 1.19667 1.45644 0
M  V30 6 C 0.222 2.43627 2.35294 0
M  V30 7 C -0.732 3.65373 2.2001 0
M  V30 8 S 0.101 5.13292 1.52614 0
M  V30 9 C 1.257 5.56322 2.86805 0
M  V30 10 H 1.49 2.90518 0.631377 0
M  V30 11 H -0.977 1.52953 0.210867 0
M  V30 12 H 0.981 2.67203 3.11629 0
M  V30 13 H -0.358 1.57376 2.7183 0
M  V30 14 H -1.165 3.90944 3.18086 0
M  V30 15 H -1.563 3.418 1.51819 0
M  V30 16 H 0.729 5.58782 3.83104 0
M  V30 17 H 1.672 6.56266 2.65933 0
M  V30 18 H 2.08 4.83886 2.90714 0
M  V30 19 N 1.4781 -0.272755 1.55222 0
M  V30 20 C 2.4411 -1.32041 1.87344 0
M  V30 21 C 3.4411 -1.42342 0.74803 0
M  V30 22 O 4.6311 -1.41488 1.0162 0
M  V30 23 C 1.7631 -2.70173 2.07893 0
M  V30 24 H 2.9561 -1.04789 2.80997 0
M  V30 25 H 0.5091 -0.51083 1.47717 0
M  V30 26 H 1.2441 -3.02605 1.16622 0
M  V30 27 H 1.0291 -2.64082 2.89833 0
M  V30 28 H 2.5191 -3.45869 2.34017 0
M  V30 29 N 2.9562 -1.48159 -0.537278 0
M  V30 30 C 3.8862 -1.65029 -1.6519 0
M  V30 31 C 4.8672 -0.499281 -1.62607 0
M  V30 32 O 6.0522 -0.730972 -1.79918 0
M  V30 33 C 3.1822 -1.68303 -3.03795 0
M  V30 34 C 2.1362 -2.8283 -3.21234 0
M  V30 35 C 1.4622 -2.71189 -4.60826 0
M  V30 36 C 2.7622 -4.24211 -3.04701 0
M  V30 37 H 4.4562 -2.58341 -1.51328 0
M  V30 38 H 2.0022 -1.24325 -0.726585 0
M  V30 39 H 3.9552 -1.78693 -3.81637 0
M  V30 40 H 2.6792 -0.715635 -3.18663 0
M  V30 41 H 1.3382 -2.71983 -2.45807 0
M  V30 42 H 0.9862 -1.72435 -4.7252 0
M  V30 43 H 0.6862 -3.48035 -4.7344 0
M  V30 44 H 2.2102 -2.83537 -5.40777 0
M  V30 45 H 3.6242 -4.3593 -3.72341 0
M  V30 46 H 2.0212 -5.01998 -3.28813 0
M  V30 47 H 3.0912 -4.41184 -2.01209 0
M  V30 48 N 4.4343 0.785586 -1.36625 0
M  V30 49 C 5.6623 1.57448 -1.3423 0
M  V30 50 C 6.0773 1.88649 0.0755653 0
M  V30 51 O 5.4343 1.50414 1.03354 0
M  V30 52 C 5.4853 2.89316 -2.16745 0
M  V30 53 O 5.2063 2.59459 -3.53005 0
M  V30 54 C 6.7073 3.83606 -2.22174 0
M  V30 55 H 3.9273 0.488226 -0.4603 0
M  V30 56 H 6.4713 0.974733 -1.79775 0
M  V30 57 H 4.6263 3.4575 -1.74745 0
M  V30 58 H 5.0403 3.43804 -3.96105 0
M  V30 59 H 6.5143 4.73181 -2.8426 0
M  V30 60 H 6.9913 4.21734 -1.22627 0
M  V30 61 H 7.5973 3.33104 -2.64427 0
M  V30 62 N 5.9124 1.20967 1.01018 0
M  V30 63 C 6.8444 0.922059 2.09835 0
M  V30 64 C 7.8574 -0.0927106 1.62536 0
M  V30 65 O 9.0464 0.139127 1.77957 0
M  V30 66 C 6.1464 0.362004 3.36961 0
M  V30 67 C 5.3194 1.42986 4.13369 0
M  V30 68 C 4.3784 0.879976 5.1879 0
M  V30 69 O 3.4044 1.56219 5.47343 0
M  V30 70 N 4.6064 -0.307396 5.79686 0
M  V30 71 H 7.3714 1.8588 2.35093 0
M  V30 72 H 4.9324 1.11422 1.1746 0
M  V30 73 H 6.9244 -0.0201474 4.04695 0
M  V30 74 H 5.4944 -0.479437 3.08902 0
M  V30 75 H 4.7144 1.98608 3.40512 0
M  V30 76 H 6.0024 2.14885 4.61196 0
M  V30 77 H 5.4004 -0.878796 5.58832 0
M  V30 78 H 3.9574 -0.631115 6.48737 0
M  V30 79 N 7.3905 -1.2043 1.01659 0
M  V30 80 C 8.6155 -1.94318 0.724942 0
M  V30 81 C 9.0405 -1.74266 -0.708034 0
M  V30 82 O 8.3985 -1.03694 -1.48719 0
M  V30 83 C 8.4465 -3.44486 1.06591 0
M  V30 84 O 7.5505 -4.12017 0.177599 0
M  V30 85 H 6.8915 -0.60708 0.26898 0
M  V30 86 H 9.4215 -1.52861 1.35995 0
M  V30 87 H 9.4315 -3.95106 1.01762 0
M  V30 88 H 8.1065 -3.58404 2.10997 0
M  V30 89 H 6.6835 -3.71821 0.283421 0
M  V30 90 N 8.8686 -0.792821 -1.36206 0
M  V30 91 C 9.7986 -0.207853 -2.32573 0
M  V30 92 C 10.7796 0.659055 -1.56813 0
M  V30 93 O 11.9646 0.592176 -1.84951 0
M  V30 94 C 9.0946 0.655449 -3.41059 0
M  V30 95 C 8.0486 -0.111842 -4.27854 0
M  V30 96 C 7.3746 0.872274 -5.27537 0
M  V30 97 C 8.6746 -1.30299 -5.05786 0
M  V30 98 H 10.3686 -1.01294 -2.81744 0
M  V30 99 H 7.9146 -0.48854 -1.3546 0
M  V30 100 H 9.8676 1.07464 -4.07467 0
M  V30 101 H 8.5916 1.49328 -2.90463 0
M  V30 102 H 7.2506 -0.512053 -3.63006 0
M  V30 103 H 6.8986 1.70523 -4.73214 0
M  V30 104 H 6.5986 0.363291 -5.86476 0
M  V30 105 H 8.1226 1.28996 -5.96818 0
M  V30 106 H 9.5366 -0.959379 -5.65216 0
M  V30 107 H 7.9336 -1.7455 -5.74154 0
M  V30 108 H 9.0036 -2.09663 -4.37229 0
M  V30 109 N 10.3467 1.47872 -0.545128 0
M  V30 110 C 11.2937 2.29849 0.2093 0
M  V30 111 C 12.2637 1.38313 0.919707 0
M  V30 112 O 13.4487 1.67277 0.917772 0
M  V30 113 C 10.5887 3.22019 1.24088 0
M  V30 114 C 9.7017 4.2864 0.537778 0
M  V30 115 C 8.8367 5.07973 1.5536 0
M  V30 116 C 7.8757 6.06381 0.8348 0
M  V30 117 N 7.0127 6.78717 1.79688 0
M  V30 118 H 11.8527 2.93845 -0.49591 0
M  V30 119 H 9.3897 1.44848 -0.256389 0
M  V30 120 H 11.3477 3.73868 1.85144 0
M  V30 121 H 9.9777 2.59914 1.91428 0
M  V30 122 H 9.0297 3.7994 -0.187046 0
M  V30 123 H 10.3417 4.98793 -0.0258907 0
M  V30 124 H 9.4957 5.63912 2.23803 0
M  V30 125 H 8.2347 4.37693 2.15118 0
M  V30 126 H 7.2397 5.49631 0.136388 0
M  V30 127 H 8.4647 6.78665 0.24313 0
M  V30 128 H 6.4107 6.11177 2.38326 0
M  V30 129 H 6.3277 7.44998 1.28505 0
M  V30 130 H 7.5957 7.39237 2.47282 0
M  V30 131 N 11.8248 0.280983 1.55075 0
M  V30 132 C 12.7548 -0.597469 2.25727 0
M  V30 133 C 13.7358 -1.15417 1.24952 0
M  V30 134 O 14.9208 -1.18722 1.53684 0
M  V30 135 C 12.0508 -1.7789 2.98283 0
M  V30 136 C 11.0048 -1.35347 4.06036 0
M  V30 137 C 10.3308 -2.61846 4.66198 0
M  V30 138 C 11.6308 -0.499354 5.19907 0
M  V30 139 H 13.3248 -0.00824265 2.99399 0
M  V30 140 H 10.8708 -0.0025244 1.44 0
M  V30 141 H 12.8238 -2.39937 3.46422 0
M  V30 142 H 11.5478 -2.39405 2.22155 0
M  V30 143 H 10.2068 -0.756156 3.58717 0
M  V30 144 H 9.8548 -3.21632 3.86732 0
M  V30 145 H 9.5548 -2.3409 5.38958 0
M  V30 146 H 11.0788 -3.24732 5.1709 0
M  V30 147 H 12.4928 -1.02498 5.64063 0
M  V30 148 H 10.8898 -0.316424 5.99265 0
M  V30 149 H 11.9598 0.480459 4.82514 0
M  V30 150 N 13.3029 -1.57598 0.00835791 0
M  V30 151 C 14.5279 -1.95617 -0.689103 0
M  V30 152 C 14.9529 -0.883753 -1.66046 0
M  V30 153 O 14.3109 0.157352 -1.80616 0
M  V30 154 C 14.3589 -3.32736 -1.38994 0
M  V30 155 O 13.4629 -3.27631 -2.50463 0
M  V30 156 H 12.8039 -0.638379 -0.182668 0
M  V30 157 H 15.3339 -2.045 0.064036 0
M  V30 158 H 15.3439 -3.68494 -1.75147 0
M  V30 159 H 14.0189 -4.1034 -0.677778 0
M  V30 160 H 12.5959 -3.03561 -2.16576 0
M  V30 161 N 14.781 0.264519 -1.55364 0
M  V30 162 C 15.729 1.34702 -1.89626 0
M  V30 163 C 16.723 1.50712 -0.773459 0
M  V30 164 O 17.929 1.52395 -0.957897 0
M  V30 165 H 14.304 0.450682 -0.601988 0
M  V30 166 H 16.275 1.0306 -2.80038 0
M  V30 167 C 15.024 2.6989 -2.19214 0
M  V30 168 H 14.347 2.58365 -3.05103 0
M  V30 169 H 15.787 3.44553 -2.47102 0
M  V30 170 C 14.246 3.21637 -1.00254 0
M  V30 171 O 14.776 4.00973 -0.241501 0
M  V30 172 N 12.982 2.7943 -0.797938 0
M  V30 173 H 12.529 2.15026 -1.4185 0
M  V30 174 H 12.487 3.144 -0.00363422 0
M  V30 175 N 16.2591 1.48442 0.529413 0
M  V30 176 C 17.5071 1.56179 1.28267 0
M  V30 177 C 17.8281 0.237721 1.93546 0
M  V30 178 O 17.0981 -0.740779 1.81354 0
M  V30 179 H 15.6781 0.575367 0.476405 0
M  V30 180 H 18.3401 1.84909 0.61602 0
M  V30 181 H 17.4361 2.34312 2.06165 0
M  V30 182 N 17.7372 -0.778329 1.37039 0
M  V30 183 C 18.9832 -1.53892 1.32079 0
M  V30 184 C 19.3162 -1.9396 -0.0965386 0
M  V30 185 O 18.5912 -1.63568 -1.05242 0
M  V30 186 C 18.8742 -2.80847 2.25382 0
M  V30 187 C 18.7272 -2.47076 3.75864 0
M  V30 188 C 20.0462 -3.82741 2.1725 0
M  V30 189 H 17.1652 -0.558303 0.48111 0
M  V30 190 H 19.8072 -0.893397 1.67685 0
M  V30 191 H 17.9572 -3.35931 1.95148 0
M  V30 192 H 19.6292 -1.97957 4.16666 0
M  V30 193 H 17.8722 -1.79863 3.94755 0
M  V30 194 H 18.5432 -3.37798 4.36574 0
M  V30 195 H 21.0192 -3.37133 2.43887 0
M  V30 196 H 19.8952 -4.69303 2.84686 0
M  V30 197 H 20.1562 -4.2652 1.16331 0
M  V30 198 N 19.2153 -1.21501 -1.00376 0
M  V30 199 C 20.1483 -0.918669 -2.08892 0
M  V30 200 C 21.1263 0.134277 -1.62045 0
M  V30 201 O 22.3103 0.00504255 -1.88499 0
M  V30 202 C 19.4373 -0.379645 -3.36566 0
M  V30 203 C 18.4833 -1.41559 -4.02323 0
M  V30 204 S 19.3163 -2.98521 -4.44574 0
M  V30 205 C 20.4723 -2.46228 -5.75433 0
M  V30 206 H 20.7053 -1.83761 -2.33707 0
M  V30 207 H 18.2383 -1.04489 -1.13673 0
M  V30 208 H 20.1963 -0.0752195 -4.10431 0
M  V30 209 H 18.8573 0.518008 -3.09799 0
M  V30 210 H 18.0503 -0.988076 -4.9422 0
M  V30 211 H 17.6523 -1.66815 -3.34737 0
M  V30 212 H 19.9443 -1.86791 -6.51241 0
M  V30 213 H 20.8873 -3.36572 -6.22997 0
M  V30 214 H 21.2953 -1.87894 -5.32312 0
M  V30 215 N 20.6934 1.19889 -1.02296 0
M  V30 216 C 21.6264 2.21639 -0.543282 0
M  V30 217 C 22.6044 1.57275 0.412698 0
M  V30 218 O 23.7884 1.85568 0.331198 0
M  V30 219 C 20.9154 3.38057 0.208571 0
M  V30 220 C 19.9614 4.20751 -0.697933 0
M  V30 221 S 20.7944 4.89529 -2.17075 0
M  V30 222 C 21.9504 6.09363 -1.42923 0
M  V30 223 H 22.1834 2.61984 -1.40541 0
M  V30 224 H 19.7164 1.30041 -0.832387 0
M  V30 225 H 21.6744 4.05539 0.63624 0
M  V30 226 H 20.3354 2.96159 1.04635 0
M  V30 227 H 19.5284 5.03862 -0.117831 0
M  V30 228 H 19.1304 3.58556 -1.06366 0
M  V30 229 H 21.4224 6.73742 -0.712637 0
M  V30 230 H 22.3654 6.71845 -2.23673 0
M  V30 231 H 22.7734 5.56798 -0.929327 0
M  V30 232 N 22.1715 0.800033 1.35784 0
M  V30 233 C 23.5825 0.439142 1.81462 0
M  V30 234 C 23.9335 -1.03813 1.66485 0
M  V30 235 O 23.0585 -1.80626 1.19177 0
M  V30 236 C 23.6535 0.790314 3.29453 0
M  V30 237 C 22.2125 0.482111 3.733 0
M  V30 238 C 21.3595 1.01938 2.57883 0
M  V30 239 H 24.3105 0.992254 1.23855 0
M  V30 240 H 24.3315 0.0853677 3.80404 0
M  V30 241 H 23.8435 1.86554 3.40322 0
M  V30 242 H 21.9445 -0.584652 3.67984 0
M  V30 243 H 22.0575 1.01015 4.6833 0
M  V30 244 H 20.4215 0.442043 2.50835 0
M  V30 245 H 21.2045 2.10059 2.71533 0
M  V30 246 N 23.6496 -1.47581 0.552962 0
M  V30 247 C 24.8956 -2.02782 0.0273648 0
M  V30 248 C 25.2286 -1.42687 -1.31734 0
M  V30 249 O 24.5036 -0.580897 -1.85623 0
M  V30 250 C 24.7866 -3.60031 -0.0702371 0
M  V30 251 C 24.6396 -4.30566 1.30126 0
M  V30 252 C 25.9586 -4.33028 -0.785771 0
M  V30 253 H 23.0776 -0.736912 0.0114185 0
M  V30 254 H 25.7196 -1.76056 0.714432 0
M  V30 255 H 23.8696 -3.82932 -0.655382 0
M  V30 256 H 25.5416 -4.19018 1.92929 0
M  V30 257 H 23.7846 -3.91086 1.87709 0
M  V30 258 H 24.4556 -5.39114 1.18573 0
M  V30 259 H 26.9316 -4.15095 -0.288982 0
M  V30 260 H 25.8076 -5.42695 -0.823013 0
M  V30 261 H 26.0686 -4.01945 -1.841 0
M  V30 262 N 25.1277 -0.289203 -1.54924 0
M  V30 263 C 26.0577 0.58549 -2.2604 0
M  V30 264 C 27.0387 1.14753 -1.25562 0
M  V30 265 O 28.2237 1.17906 -1.54311 0
M  V30 266 C 25.3537 1.76305 -2.99222 0
M  V30 267 C 24.3077 1.33191 -4.06748 0
M  V30 268 C 23.6337 2.5937 -4.6758 0
M  V30 269 C 24.9337 0.471775 -5.20165 0
M  V30 270 H 26.6277 -0.00763532 -2.99399 0
M  V30 271 H 24.1737 -0.00511229 -1.43999 0
M  V30 272 H 26.1267 2.38097 -3.47689 0
M  V30 273 H 24.8507 2.38223 -2.23422 0
M  V30 274 H 23.5097 0.737121 -3.59113 0
M  V30 275 H 23.1577 3.19576 -3.88433 0
M  V30 276 H 22.8577 2.31228 -5.40192 0
M  V30 277 H 24.3817 3.21985 -5.18804 0
M  V30 278 H 25.7957 0.995056 -5.64599 0
M  V30 279 H 24.1927 0.284639 -5.99425 0
M  V30 280 H 25.2627 -0.506041 -4.82252 0
M  V30 281 N 26.6058 1.57591 -0.0167156 0
M  V30 282 C 27.8538 1.90906 0.663285 0
M  V30 283 C 28.1748 0.892509 1.73376 0
M  V30 284 O 27.4448 -0.0677623 1.95783 0
M  V30 285 H 26.0248 0.704637 0.247983 0
M  V30 286 H 28.6868 1.94803 -0.0615909 0
M  V30 287 H 27.7828 2.9116 1.12393 0
M  V30 288 N 28.0839 -0.256276 1.55502 0
M  V30 289 C 29.3309 -0.985619 1.76895 0
M  V30 290 C 29.6589 -1.85671 0.579355 0
M  V30 291 O 28.9139 -1.90744 -0.437651 0
M  V30 292 C 29.2129 -1.88432 3.03691 0
M  V30 293 C 28.8789 -1.16936 4.35473 0
M  V30 294 C 27.5409 -0.97173 4.71286 0
M  V30 295 C 29.8929 -0.661889 5.1698 0
M  V30 296 C 27.2209 -0.254179 5.86149 0
M  V30 297 C 29.5729 0.042149 6.32586 0
M  V30 298 C 28.2369 0.25134 6.67027 0
M  V30 299 H 27.5069 -0.360663 0.647304 0
M  V30 300 H 30.1539 -0.256483 1.89775 0
M  V30 301 H 28.4589 -2.68021 2.85783 0
M  V30 302 H 30.1559 -2.45015 3.1744 0
M  V30 303 H 26.7459 -1.33332 4.07333 0
M  V30 304 H 30.9299 -0.802145 4.89775 0
M  V30 305 H 26.1859 -0.0815408 6.11346 0
M  V30 306 H 30.3599 0.443049 6.94989 0
M  V30 307 H 27.9869 0.809314 7.5588 0
M  V30 308 N 29.562 -1.4872 -0.521534 0
M  V30 309 C 30.81 -1.56857 -1.27437 0
M  V30 310 C 31.131 -0.247982 -1.93417 0
M  V30 311 O 30.401 0.731151 -1.81744 0
M  V30 312 H 28.981 -0.577885 -0.473347 0
M  V30 313 H 31.643 -1.85233 -0.606205 0
M  V30 314 H 30.739 -2.35402 -2.0492 0
M  V30 315 N 31.0401 0.771051 -1.3745 0
M  V30 316 C 31.9731 1.89166 -1.27638 0
M  V30 317 C 32.9511 1.61842 -0.156782 0
M  V30 318 O 34.1351 1.85569 -0.331111 0
M  V30 319 C 31.2621 3.24405 -0.973621 0
M  V30 320 C 30.3081 3.70638 -2.1102 0
M  V30 321 S 31.1411 3.84228 -3.73 0
M  V30 322 C 32.2971 5.22313 -3.44876 0
M  V30 323 H 32.5301 1.972 -2.22485 0
M  V30 324 H 30.0631 0.932224 -1.23081 0
M  V30 325 H 32.0211 4.02514 -0.805766 0
M  V30 326 H 30.6821 3.14071 -0.0426279 0
M  V30 327 H 29.8751 4.68685 -1.85338 0
M  V30 328 H 29.4771 2.99632 -2.23822 0
M  V30 329 H 31.7691 6.07505 -2.99908 0
M  V30 330 H 32.7121 5.53008 -4.42253 0
M  V30 331 H 33.1201 4.90284 -2.79789 0
M  V30 332 N 32.5182 1.22032 0.997298 0
M  V30 333 C 33.7642 1.05382 1.73972 0
M  V30 334 C 34.1192 -0.407419 1.88037 0
M  V30 335 O 33.4122 -1.29811 1.40924 0
M  V30 336 C 33.6062 1.69345 3.14733 0
M  V30 337 C 33.4352 3.21537 3.14395 0
M  V30 338 C 32.2052 3.9062 3.20537 0
M  V30 339 C 34.4032 4.18527 2.98897 0
M  V30 340 N 32.3852 5.29935 3.09906 0
M  V30 341 C 33.7562 5.44645 2.96247 0
M  V30 342 C 35.8112 4.09476 2.83255 0
M  V30 343 C 34.5142 6.62752 2.79557 0
M  V30 344 C 36.5402 5.27228 2.67926 0
M  V30 345 C 35.9022 6.52262 2.65959 0
M  V30 346 H 32.0012 0.440018 0.646458 0
M  V30 347 H 34.5852 1.54505 1.18475 0
M  V30 348 H 32.7562 1.22778 3.68484 0
M  V30 349 H 34.4882 1.45828 3.77513 0
M  V30 350 H 31.2432 3.41592 3.28043 0
M  V30 351 H 31.6672 6.02926 3.07912 0
M  V30 352 H 36.3092 3.13598 2.83577 0
M  V30 353 H 34.0272 7.58783 2.77982 0
M  V30 354 H 37.6132 5.22053 2.56812 0
M  V30 355 H 36.4932 7.41844 2.54239 0
M  V30 356 N 33.9963 -1.19345 1.0293 0
M  V30 357 C 34.9433 -2.2258 0.610464 0
M  V30 358 C 35.9133 -1.6179 -0.375946 0
M  V30 359 O 37.0983 -1.88844 -0.272511 0
M  V30 360 C 34.2383 -3.45085 -0.0321473 0
M  V30 361 C 33.3513 -4.20258 1.00035 0
M  V30 362 C 32.4863 -5.3019 0.32746 0
M  V30 363 C 31.5253 -5.97121 1.34584 0
M  V30 364 N 30.6623 -6.98615 0.698726 0
M  V30 365 H 35.5023 -2.57764 1.49538 0
M  V30 366 H 33.0393 -1.26644 0.748311 0
M  V30 367 H 34.9973 -4.15061 -0.421966 0
M  V30 368 H 33.6273 -3.10555 -0.88064 0
M  V30 369 H 32.6793 -3.49223 1.50823 0
M  V30 370 H 33.9913 -4.66175 1.77433 0
M  V30 371 H 33.1453 -6.06587 -0.11718 0
M  V30 372 H 31.8843 -4.85345 -0.478713 0
M  V30 373 H 30.8893 -5.19474 1.80074 0
M  V30 374 H 32.1143 -6.4405 2.15352 0
M  V30 375 H 30.0603 -6.55942 -0.0873471 0
M  V30 376 H 29.9773 -7.42724 1.41058 0
M  V30 377 H 31.2453 -7.79004 0.278102 0
M  V30 378 N 35.4744 -0.807222 -1.35358 0
M  V30 379 C 36.4044 -0.232509 -2.3234 0
M  V30 380 C 37.3854 0.642386 -1.57504 0
M  V30 381 O 38.5704 0.572526 -1.85569 0
M  V30 382 C 35.7004 0.619238 -3.41735 0
M  V30 383 C 34.6544 -0.157215 -4.27711 0
M  V30 384 C 33.9804 0.816273 -5.28433 0
M  V30 385 C 35.2804 -1.35656 -5.04376 0
M  V30 386 H 36.9744 -1.04276 -2.80654 0
M  V30 387 H 34.5204 -0.50288 -1.34934 0
M  V30 388 H 36.4734 1.03137 -4.08584 0
M  V30 389 H 35.1974 1.46239 -2.92031 0
M  V30 390 H 33.8564 -0.550525 -3.62443 0
M  V30 391 H 33.5044 1.65494 -4.74996 0
M  V30 392 H 33.2044 0.301067 -5.86828 0
M  V30 393 H 34.7284 1.22659 -5.98153 0
M  V30 394 H 36.1424 -1.01927 -5.64166 0
M  V30 395 H 34.5394 -1.8063 -5.7227 0
M  V30 396 H 35.6094 -2.14288 -4.34981 0
M  V30 397 N 36.9525 1.47285 -0.560781 0
M  V30 398 C 37.8845 2.28118 0.222438 0
M  V30 399 C 38.8975 1.37219 0.876056 0
M  V30 400 O 40.0865 1.62011 0.749307 0
M  V30 401 C 37.1865 3.1159 1.33285 0
M  V30 402 C 36.3595 4.30473 0.77534 0
M  V30 403 C 35.4185 4.95513 1.77069 0
M  V30 404 O 34.4445 5.53792 1.31539 0
M  V30 405 N 35.6465 4.90531 3.10418 0
M  V30 406 H 38.4115 2.95976 -0.470958 0
M  V30 407 H 35.9725 1.56955 -0.39709 0
M  V30 408 H 37.9645 3.51967 1.99752 0
M  V30 409 H 36.5345 2.45951 1.92943 0
M  V30 410 H 35.7545 3.94144 -0.0662113 0
M  V30 411 H 37.0425 5.07362 0.382272 0
M  V30 412 H 36.4405 4.44389 3.5005 0
M  V30 413 H 34.9975 5.34917 3.72434 0
M  V30 414 N 38.4306 0.297415 1.54768 0
M  V30 415 C 39.7076 -0.365847 1.92148 0
M  V30 416 C 40.0876 -1.71975 1.22424 0
M  V30 417 O 39.4356 -2.25666 0.358739 0
M  V30 418 C 39.6456 -0.484056 3.45627 0
M  V30 419 C 40.9936 -0.756594 4.17805 0
M  V30 420 O 42.0176 -0.568007 3.51642 0
M  V30 421 O 40.8766 -1.11863 5.34929 0
M  V30 422 H 37.9706 -0.203919 0.801465 0
M  V30 423 H 40.5166 0.34521 1.66152 0
M  V30 424 H 39.2886 0.467865 3.88493 0
M  V30 425 H 38.9116 -1.24372 3.77647 0
M  V30 426 N 39.9087 -1.5758 0.0250728 0
M  V30 427 C 41.1567 -1.91255 -0.653151 0
M  V30 428 C 41.4777 -0.901691 -1.729 0
M  V30 429 O 40.7477 0.0573785 -1.95816 0
M  V30 430 H 39.3277 -0.705942 -0.244243 0
M  V30 431 H 41.9897 -1.94767 0.0719209 0
M  V30 432 H 41.0857 -2.91752 -1.10847 0
M  V30 433 N 41.3868 0.248026 -1.55636 0
M  V30 434 C 42.3348 1.32683 -1.91045 0
M  V30 435 C 43.3288 1.49883 -0.789401 0
M  V30 436 O 44.5348 1.51371 -0.974007 0
M  V30 437 H 40.9098 0.444272 -0.606734 0
M  V30 438 H 42.8808 1.00085 -2.81115 0
M  V30 439 C 41.6298 2.6755 -2.22064 0
M  V30 440 H 40.9528 2.55114 -3.07826 0
M  V30 441 H 42.3928 3.41912 -2.50743 0
M  V30 442 C 40.8518 3.20556 -1.0366 0
M  V30 443 O 41.3818 4.00695 -0.284016 0
M  V30 444 N 39.5878 2.78568 -0.82753 0
M  V30 445 H 39.1348 2.1351 -1.44123 0
M  V30 446 H 39.0928 3.14378 -0.0369803 0
M  V30 447 N 42.8649 1.48995 0.513639 0
M  V30 448 C 43.7749 1.67443 1.64317 0
M  V30 449 C 44.7909 0.556947 1.64846 0
M  V30 450 O 45.9669 0.830082 1.83498 0
M  V30 451 C 43.0319 1.72515 3.00732 0
M  V30 452 C 42.0929 2.96009 3.1093 0
M  V30 453 C 41.3259 3.00829 4.40837 0
M  V30 454 O 41.5489 2.13594 5.28898 0
M  V30 455 O 40.4829 3.93168 4.55744 0
M  V30 456 H 44.3089 2.63106 1.51687 0
M  V30 457 H 41.8939 1.32588 0.688543 0
M  V30 458 H 43.7759 1.78277 3.81831 0
M  V30 459 H 42.4509 0.800278 3.13651 0
M  V30 460 H 41.3579 2.9577 2.29065 0
M  V30 461 H 42.6909 3.87934 3.02933 0
M  V30 462 N 44.343 -0.763751 1.37857 0
M  V30 463 C 45.306 -1.85889 1.34081 0
M  V30 464 C 46.306 -1.58949 0.243277 0
M  V30 465 O 47.496 -1.66882 0.499589 0
M  V30 466 C 44.628 -3.23176 1.08489 0
M  V30 467 H 45.821 -1.90648 2.31502 0
M  V30 468 H 43.374 -0.964367 1.23003 0
M  V30 469 H 44.109 -3.24091 0.116318 0
M  V30 470 H 43.894 -3.44124 1.8794 0
M  V30 471 H 45.384 -4.03254 1.08517 0
M  V30 472 N 45.8211 -1.22559 -0.990812 0
M  V30 473 C 46.7311 -1.01394 -2.11557 0
M  V30 474 C 47.7471 0.0383962 -1.73958 0
M  V30 475 O 48.9231 -0.154787 -2.00804 0
M  V30 476 C 45.9881 -0.596569 -3.41529 0
M  V30 477 C 45.0491 -1.72276 -3.93217 0
M  V30 478 C 44.2821 -1.32521 -5.16985 0
M  V30 479 O 44.5051 -0.204909 -5.70032 0
M  V30 480 O 43.4391 -2.14247 -5.62478 0
M  V30 481 H 47.2651 -1.95633 -2.32296 0
M  V30 482 H 44.8501 -1.01172 -1.0993 0
M  V30 483 H 46.7321 -0.374263 -4.19735 0
M  V30 484 H 45.4071 0.316939 -3.22145 0
M  V30 485 H 44.3141 -1.99961 -3.16174 0
M  V30 486 H 45.6471 -2.61421 -4.17037 0
M  V30 487 N 47.2992 1.18797 -1.03562 0
M  V30 488 C 48.5272 1.92599 -0.755869 0
M  V30 489 C 48.9422 1.75886 0.686271 0
M  V30 490 O 48.2992 1.08517 1.46732 0
M  V30 491 C 48.3502 3.44159 -1.10619 0
M  V30 492 O 48.0712 3.60341 -2.4917 0
M  V30 493 C 49.5722 4.3507 -0.850214 0
M  V30 494 H 46.7922 0.611587 -0.276048 0
M  V30 495 H 49.3362 1.50742 -1.38192 0
M  V30 496 H 47.4912 3.83823 -0.525194 0
M  V30 497 H 47.9052 4.54128 -2.62427 0
M  V30 498 H 49.3792 5.39989 -1.14523 0
M  V30 499 H 49.8562 4.38673 0.215176 0
M  V30 500 H 50.4622 4.01097 -1.41426 0
M  V30 501 N 48.7773 0.814389 1.34928 0
M  V30 502 C 49.7403 0.235759 2.27984 0
M  V30 503 C 50.7403 -0.581412 1.49921 0
M  V30 504 O 51.9303 -0.398758 1.69575 0
M  V30 505 C 49.0623 -0.670433 3.34242 0
M  V30 506 H 50.2553 1.05659 2.80671 0
M  V30 507 H 47.8083 0.585614 1.44915 0
M  V30 508 H 48.5433 -1.51466 2.86755 0
M  V30 509 H 48.3283 -0.0860822 3.92005 0
M  V30 510 H 49.8183 -1.06935 4.03676 0
M  V30 511 N 50.2554 -1.46986 0.568584 0
M  V30 512 C 51.4834 -2.0683 0.0539956 0
M  V30 513 C 51.8984 -1.41953 -1.24478 0
M  V30 514 O 51.2554 -0.519933 -1.74937 0
M  V30 515 C 51.3064 -3.61254 -0.133362 0
M  V30 516 O 51.0274 -4.237 1.11399 0
M  V30 517 C 52.5284 -4.37992 -0.683927 0
M  V30 518 H 49.7484 -0.669058 0.0510141 0
M  V30 519 H 52.2924 -1.88824 0.785234 0
M  V30 520 H 50.4474 -3.78735 -0.81477 0
M  V30 521 H 50.8614 -5.16388 0.91888 0
M  V30 522 H 52.3354 -5.46684 -0.764263 0
M  V30 523 H 52.8124 -4.05058 -1.69778 0
M  V30 524 H 53.4184 -4.25283 -0.0378494 0
M  V30 525 N 51.7335 -0.305618 -1.54608 0
M  V30 526 C 52.6665 0.610536 -2.19881 0
M  V30 527 C 53.6445 1.1294 -1.16976 0
M  V30 528 O 54.8285 1.19673 -1.45638 0
M  V30 529 C 51.9555 1.83583 -2.84631 0
M  V30 530 C 51.0015 1.4498 -4.01102 0
M  V30 531 S 51.8345 0.501793 -5.33144 0
M  V30 532 C 52.9905 1.73478 -6.01379 0
M  V30 533 H 53.2235 0.0560177 -2.97247 0
M  V30 534 H 50.7565 -0.0897434 -1.54139 0
M  V30 535 H 52.7145 2.53898 -3.22562 0
M  V30 536 H 51.3755 2.36152 -2.07102 0
M  V30 537 H 50.5685 2.36236 -4.45206 0
M  V30 538 H 50.1705 0.826553 -3.64752 0
M  V30 539 H 52.4625 2.67473 -6.22467 0
M  V30 540 H 53.4055 1.33622 -6.95378 0
M  V30 541 H 53.8135 1.9136 -5.31076 0
M  V30 542 N 53.2116 1.57565 -0.0334293 0
M  V30 543 C 54.4576 1.93088 0.639417 0
M  V30 544 C 54.8126 0.910589 1.69488 0
M  V30 545 O 54.1056 -0.0727725 1.91462 0
M  V30 546 C 54.2996 3.33112 1.29504 0
M  V30 547 C 54.1286 4.48667 0.304604 0
M  V30 548 C 52.8986 5.05207 -0.0970777 0
M  V30 549 C 55.0966 5.1239 -0.442845 0
M  V30 550 N 53.0786 6.04286 -1.08223 0
M  V30 551 C 54.4496 6.06609 -1.28161 0
M  V30 552 C 56.5046 4.95352 -0.50308 0
M  V30 553 C 55.2076 6.85622 -2.17519 0
M  V30 554 C 57.2336 5.74978 -1.38401 0
M  V30 555 C 56.5956 6.68816 -2.21054 0
M  V30 556 H 52.6946 0.754335 0.206161 0
M  V30 557 H 55.2786 1.94435 -0.101613 0
M  V30 558 H 53.4496 3.32576 2.00618 0
M  V30 559 H 55.1816 3.55972 1.92525 0
M  V30 560 H 51.9366 4.72782 0.278255 0
M  V30 561 H 52.3606 6.58516 -1.57117 0
M  V30 562 H 57.0026 4.22625 0.121694 0
M  V30 563 H 54.7206 7.57652 -2.81049 0
M  V30 564 H 58.3066 5.63826 -1.43496 0
M  V30 565 H 57.1866 7.29355 -2.88116 0
M  V30 566 N 54.6897 -0.239769 1.55765 0
M  V30 567 C 55.6527 -1.28038 1.90103 0
M  V30 568 C 56.6527 -1.40723 0.778055 0
M  V30 569 O 57.8427 -1.39301 1.04599 0
M  V30 570 C 54.9747 -2.65702 2.13577 0
M  V30 571 H 56.1677 -0.988048 2.83157 0
M  V30 572 H 53.7207 -0.479382 1.48767 0
M  V30 573 H 54.4557 -3.00063 1.23015 0
M  V30 574 H 54.2407 -2.57875 2.95369 0
M  V30 575 H 55.7307 -3.40828 2.41301 0
M  V30 576 N 56.1678 -1.49265 -0.50573 0
M  V30 577 C 57.4168 -1.57761 -1.25675 0
M  V30 578 C 57.7298 -0.267371 -1.93764 0
M  V30 579 O 58.9358 -0.230827 -2.70517 0
M  V30 580 C 57.3918 -2.78332 -2.28165 0
M  V30 581 C 56.9998 -4.16096 -1.66037 0
M  V30 582 C 58.7438 -2.96155 -3.04125 0
M  V30 583 C 56.6508 -5.27895 -2.6661 0
M  V30 584 H 55.5808 -0.587391 -0.472745 0
M  V30 585 H 58.2318 -1.75644 -0.53118 0
M  V30 586 H 56.6138 -2.53934 -3.03865 0
M  V30 587 H 57.7878 -4.50612 -0.963622 0
M  V30 588 H 56.1028 -4.03591 -1.02484 0
M  V30 589 H 58.6998 -3.76849 -3.79327 0
M  V30 590 H 59.0428 -2.06534 -3.61455 0
M  V30 591 H 59.5758 -3.2057 -2.35541 0
M  V30 592 H 56.3148 -6.1956 -2.14068 0
M  V30 593 H 55.8348 -4.97839 -3.34539 0
M  V30 594 H 57.5138 -5.57031 -3.29129 0
M  V30 595 N 57.6459 0.756429 -1.3826 0
M  V30 596 C 58.5929 1.87011 -1.35261 0
M  V30 597 C 59.5629 1.64695 -0.215616 0
M  V30 598 O 60.7479 1.864 -0.407399 0
M  V30 599 C 57.8879 3.24275 -1.18068 0
M  V30 600 C 57.0009 3.58442 -2.41129 0
M  V30 601 C 56.1359 4.84994 -2.16689 0
M  V30 602 C 55.1749 5.11939 -3.35537 0
M  V30 603 N 54.3119 6.29685 -3.10549 0
M  V30 604 H 59.1519 1.8891 -2.30472 0
M  V30 605 H 56.6889 0.923373 -1.14509 0
M  V30 606 H 58.6469 4.03479 -1.06116 0
M  V30 607 H 57.2769 3.21711 -0.264973 0
M  V30 608 H 56.3289 2.74103 -2.63764 0
M  V30 609 H 57.6409 3.74283 -3.29717 0
M  V30 610 H 56.7949 5.72135 -2.01857 0
M  V30 611 H 55.5339 4.71286 -1.25462 0
M  V30 612 H 54.5389 4.23268 -3.50891 0
M  V30 613 H 55.7639 5.27546 -4.27635 0
M  V30 614 H 53.7099 6.17306 -2.21967 0
M  V30 615 H 53.6269 6.46014 -3.92686 0
M  V30 616 H 54.8949 7.19722 -2.99367 0
M  V30 617 N 59.124 1.23083 0.984299 0
M  V30 618 C 60.349 1.088 1.76571 0
M  V30 619 C 60.774 -0.356657 1.84688 0
M  V30 620 O 60.132 -1.25788 1.30565 0
M  V30 621 C 60.18 1.71371 3.17277 0
M  V30 622 O 59.284 0.973213 4.00752 0
M  V30 623 H 58.625 0.381599 0.543395 0
M  V30 624 H 61.155 1.63057 1.23587 0
M  V30 625 H 61.165 1.76449 3.67872 0
M  V30 626 H 59.84 2.76493 3.10684 0
M  V30 627 H 58.417 0.999078 3.59267 0
M  V30 628 N 60.6021 -1.18246 1.0419 0
M  V30 629 C 61.8501 -1.87886 0.744543 0
M  V30 630 C 62.1711 -1.8082 -0.730006 0
M  V30 631 O 61.4411 -1.22736 -1.52685 0
M  V30 632 H 60.0211 -0.695556 0.272417 0
M  V30 633 H 62.6831 -1.43494 1.31892 0
M  V30 634 H 61.7791 -2.9389 1.05049 0
M  V30 635 N 62.0802 -0.821533 -1.34494 0
M  V30 636 C 63.3102 -0.421272 -2.02259 0
M  V30 637 C 63.7182 0.977047 -1.6202 0
M  V30 638 O 63.0612 1.64348 -0.820703 0
M  V30 639 C 63.1232 -0.44231 -3.56769 0
M  V30 640 C 62.7872 -1.79372 -4.20327 0
M  V30 641 C 63.7842 -2.75435 -4.40944 0
M  V30 642 C 61.4692 -2.08182 -4.57127 0
M  V30 643 C 63.4632 -3.98482 -4.97484 0
M  V30 644 C 61.1502 -3.31489 -5.13379 0
M  V30 645 C 62.1482 -4.26457 -5.33501 0
M  V30 646 O 61.8362 -5.47585 -5.88562 0
M  V30 647 H 61.5682 -0.167473 -0.654927 0
M  V30 648 H 64.1222 -1.11073 -1.72777 0
M  V30 649 H 62.3522 0.303836 -3.85505 0
M  V30 650 H 64.0412 -0.0622925 -4.05852 0
M  V30 651 H 64.8072 -2.54473 -4.12878 0
M  V30 652 H 60.6862 -1.35066 -4.4077 0
M  V30 653 H 64.2302 -4.72618 -5.13106 0
M  V30 654 H 60.1272 -3.52316 -5.40873 0
M  V30 655 H 60.8952 -5.49086 -6.06998 0
M  V30 656 N 63.5583 1.46682 -0.576371 0
M  V30 657 C 64.9743 1.57822 -0.237562 0
M  V30 658 C 65.1743 1.57237 1.26011 0
M  V30 659 O 64.2303 1.48596 2.04146 0
M  V30 660 C 65.5433 2.87499 -0.881168 0
M  V30 661 C 67.0913 3.01119 -0.85417 0
M  V30 662 C 67.5663 4.33524 -1.4772 0
M  V30 663 N 69.0573 4.40207 -1.44125 0
M  V30 664 C 69.7923 5.4126 -1.89276 0
M  V30 665 N 69.2883 6.49021 -2.42371 0
M  V30 666 N 71.0813 5.32422 -1.80231 0
M  V30 667 H 63.2323 1.45306 -1.54919 0
M  V30 668 H 65.4953 0.692733 -0.647167 0
M  V30 669 H 65.2013 2.9372 -1.93447 0
M  V30 670 H 65.0753 3.75224 -0.385592 0
M  V30 671 H 67.4623 2.94485 0.190491 0
M  V30 672 H 67.5433 2.14887 -1.3877 0
M  V30 673 H 67.1873 4.40916 -2.52103 0
M  V30 674 H 67.1173 5.1852 -0.918947 0
M  V30 675 H 69.6083 3.62931 -1.05307 0
M  V30 676 H 69.9213 7.2233 -2.74698 0
M  V30 677 H 68.2663 6.49858 -2.46393 0
M  V30 678 H 71.4573 4.47137 -1.38514 0
M  V30 679 H 71.6303 6.11034 -2.15735 0
M  V30 680 N 65.0364 0.313813 1.54444 0
M  V30 681 C 65.9864 -0.571898 2.20711 0
M  V30 682 C 66.9704 -1.08913 1.18435 0
M  V30 683 O 68.1624 -1.02777 1.44104 0
M  V30 684 C 65.2914 -1.7371 2.96108 0
M  V30 685 C 64.3774 -1.23522 4.05713 0
M  V30 686 N 64.7684 -0.452288 5.03774 0
M  V30 687 C 63.0664 -1.51482 4.19487 0
M  V30 688 C 63.7674 -0.183438 5.81411 0
M  V30 689 N 62.7434 -0.766845 5.38164 0
M  V30 690 H 66.5454 0.0336802 2.93881 0
M  V30 691 H 64.0594 0.119192 1.61962 0
M  V30 692 H 66.0564 -2.38329 3.4206 0
M  V30 693 H 64.7164 -2.34625 2.24458 0
M  V30 694 H 65.7274 -0.0960131 5.17811 0
M  V30 695 H 62.4044 -2.13053 3.59047 0
M  V30 696 H 63.7944 0.446216 6.70417 0
M  V30 697 N 66.5145 -1.57545 0.0417849 0
M  V30 698 C 67.7635 -1.91494 -0.633492 0
M  V30 699 C 68.0765 -0.921084 -1.72556 0
M  V30 700 O 69.2825 -1.15228 -2.45835 0
M  V30 701 C 67.7385 -3.40072 -1.17808 0
M  V30 702 C 67.3465 -4.47843 -0.118633 0
M  V30 703 C 69.0905 -3.8307 -1.82915 0
M  V30 704 C 66.9975 -5.87529 -0.675578 0
M  V30 705 H 65.9275 -0.714653 -0.24039 0
M  V30 706 H 68.5785 -1.83175 0.109148 0
M  V30 707 H 66.9605 -3.43364 -1.97274 0
M  V30 708 H 68.1345 -4.56128 0.654494 0
M  V30 709 H 66.4495 -4.14128 0.434414 0
M  V30 710 H 69.0465 -4.84794 -2.25563 0
M  V30 711 H 69.3895 -3.1881 -2.67705 0
M  V30 712 H 69.9225 -3.82255 -1.10119 0
M  V30 713 H 66.6615 -6.55362 0.134475 0
M  V30 714 H 66.1815 -5.82824 -1.4169 0
M  V30 715 H 67.8605 -6.36491 -1.1614 0
M  V30 716 N 67.9926 0.231505 -1.5589 0
M  V30 717 C 69.2696 0.981096 -1.69215 0
M  V30 718 C 69.6496 2.02799 -0.586164 0
M  V30 719 O 68.9976 2.24823 0.408253 0
M  V30 720 C 69.2076 1.60054 -3.10135 0
M  V30 721 C 70.5556 2.09658 -3.69227 0
M  V30 722 O 71.5796 1.69967 -3.13033 0
M  V30 723 O 70.4386 2.8258 -4.67772 0
M  V30 724 H 67.5326 0.457653 -0.688827 0
M  V30 725 H 70.0786 0.224073 -1.68214 0
M  V30 726 H 68.8506 0.844105 -3.82087 0
M  V30 727 H 68.4736 2.42336 -3.15212 0
M  V30 728 N 69.4707 1.49531 0.497807 0
M  V30 729 C 70.6987 1.62893 1.27567 0
M  V30 730 C 71.1137 0.301585 1.86376 0
M  V30 731 O 70.4707 -0.713335 1.67982 0
M  V30 732 C 70.5217 2.70013 2.40364 0
M  V30 733 O 70.2427 3.976 1.83972 0
M  V30 734 C 71.7437 2.94109 3.31685 0
M  V30 735 H 68.9637 0.548298 0.386794 0
M  V30 736 H 71.5077 1.95584 0.597245 0
M  V30 737 H 69.6627 2.40092 3.04031 0
M  V30 738 H 70.0767 4.56631 2.58047 0
M  V30 739 H 71.5507 3.72788 4.07104 0
M  V30 740 H 72.0277 2.04147 3.88871 0
M  V30 741 H 72.6337 3.2546 2.73781 0
M  V30 742 N 70.9488 -0.749086 1.3866 0
M  V30 743 C 71.9118 -1.84457 1.36045 0
M  V30 744 C 72.9118 -1.58682 0.260122 0
M  V30 745 O 74.1018 -1.66343 0.517261 0
M  V30 746 C 71.2338 -3.22008 1.11911 0
M  V30 747 H 72.4268 -1.88182 2.33512 0
M  V30 748 H 69.9798 -0.951266 1.24019 0
M  V30 749 H 70.7148 -3.2395 0.150686 0
M  V30 750 H 70.4998 -3.42111 1.91579 0
M  V30 751 H 71.9898 -4.0208 1.12788 0
M  V30 752 N 72.4269 -1.23603 -0.977757 0
M  V30 753 C 73.3899 -1.02069 -2.05218 0
M  V30 754 C 74.3899 0.0184305 -1.60789 0
M  V30 755 O 75.5799 -0.221569 -1.72785 0
M  V30 756 C 72.7119 -0.544926 -3.36517 0
M  V30 757 H 73.9049 -1.9742 -2.25755 0
M  V30 758 H 71.4579 -1.05684 -1.15155 0
M  V30 759 H 72.1929 0.412241 -3.21669 0
M  V30 760 H 71.9779 -1.2948 -3.70105 0
M  V30 761 H 73.4679 -0.414985 -4.15533 0
M  V30 762 N 73.905 1.17692 -1.04816 0
M  V30 763 C 75.154 1.87192 -0.751132 0
M  V30 764 C 75.467 1.8169 0.724441 0
M  V30 765 O 76.673 2.46625 1.13527 0
M  V30 766 C 75.129 3.35857 -1.29338 0
M  V30 767 C 74.737 3.4987 -2.79812 0
M  V30 768 C 76.481 4.10709 -1.07322 0
M  V30 769 C 74.388 4.92536 -3.27356 0
M  V30 770 H 73.318 0.701162 -0.277288 0
M  V30 771 H 75.969 1.32932 -1.26496 0
M  V30 772 H 74.351 3.89631 -0.707376 0
M  V30 773 H 75.525 3.06332 -3.44235 0
M  V30 774 H 73.84 2.88433 -3.00325 0
M  V30 775 H 76.437 5.15952 -1.4035 0
M  V30 776 H 76.78 4.16299 -0.0108001 0
M  V30 777 H 77.313 3.6313 -1.62423 0
M  V30 778 H 74.052 4.92119 -4.33012 0
M  V30 779 H 73.572 5.3676 -2.67673 0
M  V30 780 H 75.251 5.61288 -3.21815 0
M  V30 781 N 75.3831 0.828654 1.34056 0
M  V30 782 C 76.6131 0.431993 2.02033 0
M  V30 783 C 77.0211 -0.96844 1.62536 0
M  V30 784 O 76.3641 -1.6391 0.829408 0
M  V30 785 C 76.4261 0.461224 3.56529 0
M  V30 786 C 76.0901 1.81599 4.1937 0
M  V30 787 C 77.0871 2.7777 4.39477 0
M  V30 788 C 74.7721 2.10604 4.56017 0
M  V30 789 C 76.7661 4.01115 4.95364 0
M  V30 790 C 74.4531 3.34207 5.11614 0
M  V30 791 C 75.4511 4.2928 5.31232 0
M  V30 792 O 75.1391 5.50699 5.8565 0
M  V30 793 H 74.8711 0.170943 0.654029 0
M  V30 794 H 77.4251 1.11988 1.72185 0
M  V30 795 H 75.6551 -0.283388 3.8566 0
M  V30 796 H 77.3441 0.0838149 4.05813 0
M  V30 797 H 78.1101 2.56659 4.11523 0
M  V30 798 H 73.9891 1.37402 4.40047 0
M  V30 799 H 77.5331 4.75333 5.10592 0
M  V30 800 H 73.4301 3.55179 5.38997 0
M  V30 801 H 74.1981 5.52298 6.04077 0
M  V30 802 N 76.8612 -1.46375 0.584142 0
M  V30 803 C 77.8082 -2.30323 -0.148286 0
M  V30 804 C 78.7782 -1.40703 -0.882713 0
M  V30 805 O 79.9632 -1.69651 -0.873099 0
M  V30 806 C 77.1032 -3.25196 -1.15507 0
M  V30 807 C 76.2162 -4.29915 -0.423943 0
M  V30 808 C 75.3512 -5.11914 -1.41838 0
M  V30 809 C 74.3902 -6.08381 -0.673736 0
M  V30 810 N 73.5272 -6.83242 -1.6163 0
M  V30 811 H 78.3672 -2.92427 0.573644 0
M  V30 812 H 75.9042 -1.44118 0.294703 0
M  V30 813 H 77.8622 -3.78646 -1.75166 0
M  V30 814 H 76.4922 -2.64898 -1.8447 0
M  V30 815 H 75.5442 -3.7931 0.287714 0
M  V30 816 H 76.8562 -4.98549 0.158128 0
M  V30 817 H 76.0102 -5.69648 -2.08773 0
M  V30 818 H 74.7492 -4.43243 -2.03438 0
M  V30 819 H 73.7542 -5.49799 0.00938483 0
M  V30 820 H 74.9792 -6.79071 -0.0631082 0
M  V30 821 H 72.9252 -6.1728 -2.22038 0
M  V30 822 H 72.8422 -7.48144 -1.08707 0
M  V30 823 H 74.1102 -7.45534 -2.27596 0
M  V30 824 N 78.3393 -0.321999 -1.54275 0
M  V30 825 C 79.2873 0.560206 -2.25753 0
M  V30 826 C 80.2813 1.11984 -1.27106 0
M  V30 827 O 81.4873 1.06806 -1.44888 0
M  V30 828 H 77.8623 0.199304 -0.725108 0
M  V30 829 H 79.8333 -0.0649365 -2.98329 0
M  V30 830 C 78.5823 1.71023 -3.02731 0
M  V30 831 H 77.9053 1.28885 -3.78456 0
M  V30 832 H 79.3453 2.30314 -3.55993 0
M  V30 833 C 77.8043 2.62692 -2.10938 0
M  V30 834 O 78.3343 3.64364 -1.6912 0
M  V30 835 N 76.5403 2.30891 -1.76459 0
M  V30 836 H 76.0873 1.48253 -2.10663 0
M  V30 837 H 76.0453 2.92487 -1.1532 0
M  V30 838 N 79.8174 1.5752 -0.0501392 0
M  V30 839 C 80.7274 2.14952 0.939827 0
M  V30 840 C 81.7434 1.10706 1.34239 0
M  V30 841 O 82.9194 1.42869 1.41952 0
M  V30 842 C 79.9844 2.68232 2.19665 0
M  V30 843 C 79.0454 3.87272 1.85253 0
M  V30 844 C 78.2784 4.38002 3.04943 0
M  V30 845 O 78.5014 3.87811 4.18281 0
M  V30 846 O 77.4354 5.29602 2.86017 0
M  V30 847 H 81.2614 2.9986 0.481392 0
M  V30 848 H 78.8464 1.4841 0.171699 0
M  V30 849 H 80.7284 3.02475 2.93406 0
M  V30 850 H 79.4034 1.86395 2.64648 0
M  V30 851 H 78.3104 3.5792 1.0883 0
M  V30 852 H 79.6434 4.70336 1.4507 0
M  V30 853 N 81.2955 -0.223234 1.56011 0
M  V30 854 C 82.2055 -1.29766 1.95443 0
M  V30 855 C 83.2215 -1.51373 0.858028 0
M  V30 856 O 84.3975 -1.64536 1.16146 0
M  V30 857 C 81.4625 -2.62772 2.26167 0
M  V30 858 C 80.5235 -2.49482 3.49367 0
M  V30 859 C 79.7565 -3.76145 3.78616 0
M  V30 860 O 79.9795 -4.79087 3.09568 0
M  V30 861 O 78.9135 -3.73358 4.72109 0
M  V30 862 H 82.7395 -0.99309 2.87004 0
M  V30 863 H 80.3245 -0.425958 1.43199 0
M  V30 864 H 82.2065 -3.41327 2.47131 0
M  V30 865 H 80.8815 -2.92913 1.37781 0
M  V30 866 H 79.7885 -1.69133 3.33684 0
M  V30 867 H 81.1215 -2.2428 4.38131 0
M  V30 868 N 82.7736 -1.49793 -0.48987 0
M  V30 869 C 83.9986 -1.63836 -1.27172 0
M  V30 870 C 84.4236 -0.31402 -1.8546 0
M  V30 871 O 83.7816 0.719803 -1.66399 0
M  V30 872 C 83.8296 -2.71797 -2.36978 0
M  V30 873 O 82.9336 -2.31744 -3.41128 0
M  V30 874 H 82.2746 -0.547997 -0.37496 0
M  V30 875 H 84.8046 -1.96053 -0.585191 0
M  V30 876 H 84.8146 -2.94305 -2.82575 0
M  V30 877 H 83.4896 -3.67923 -1.93921 0
M  V30 878 H 82.0666 -2.1961 -3.01373 0
M  V30 879 N 84.2517 0.741722 -1.39055 0
M  V30 880 C 85.2147 1.83733 -1.37021 0
M  V30 881 C 86.2147 1.58542 -0.268534 0
M  V30 882 O 87.4047 1.66067 -0.526076 0
M  V30 883 C 84.5367 3.2141 -1.13617 0
M  V30 884 H 85.7297 1.86941 -2.34506 0
M  V30 885 H 83.2827 0.944676 -1.24521 0
M  V30 886 H 84.0177 3.23865 -0.167863 0
M  V30 887 H 83.8027 3.4109 -1.93391 0
M  V30 888 H 85.2927 4.01477 -1.14918 0
M  V30 889 N 85.7298 1.2412 0.971189 0
M  V30 890 C 86.9778 1.07668 1.71032 0
M  V30 891 C 87.2988 -0.385797 1.91146 0
M  V30 892 O 86.5688 -1.27569 1.4867 0
M  V30 893 H 85.1488 0.395429 0.633755 0
M  V30 894 H 87.8108 1.55984 1.16855 0
M  V30 895 H 86.9068 1.57195 2.69622 0
M  V30 896 N 87.2079 -1.17134 1.05439 0
M  V30 897 C 88.6239 -1.39454 0.776201 0
M  V30 898 C 88.8239 -1.91454 -0.628307 0
M  V30 899 O 87.8799 -2.10777 -1.39031 0
M  V30 900 C 89.1929 -2.38305 1.83388 0
M  V30 901 C 90.7409 -2.52006 1.85639 0
M  V30 902 C 91.2159 -3.54133 2.90437 0
M  V30 903 N 92.7069 -3.61653 2.89415 0
M  V30 904 C 93.4419 -4.4044 3.67152 0
M  V30 905 N 92.9379 -5.22721 4.54681 0
M  V30 906 N 94.7309 -4.35337 3.55581 0
M  V30 907 H 86.8819 -0.817134 1.96053 0
M  V30 908 H 89.1449 -0.421626 0.849079 0
M  V30 909 H 88.8509 -2.07173 2.84204 0
M  V30 910 H 88.7249 -3.37841 1.67761 0
M  V30 911 H 91.1119 -2.82447 0.85486 0
M  V30 912 H 91.1929 -1.52537 2.05344 0
M  V30 913 H 90.8369 -3.24431 3.90777 0
M  V30 914 H 90.7669 -4.53313 2.67983 0
M  V30 915 H 93.2579 -3.02909 2.25952 0
M  V30 916 H 93.5709 -5.80027 5.10674 0
M  V30 917 H 91.9159 -5.22093 4.58741 0
M  V30 918 H 95.1069 -3.70112 2.86592 0
M  V30 919 H 95.2799 -4.96494 4.1641 0
M  V30 920 N 88.686 -0.835752 -1.33615 0
M  V30 921 C 89.649 -0.272 -2.2758 0
M  V30 922 C 90.649 0.557487 -1.50827 0
M  V30 923 O 91.839 0.37173 -1.70188 0
M  V30 924 C 88.971 0.617173 -3.35267 0
M  V30 925 H 90.164 -1.10111 -2.78954 0
M  V30 926 H 87.717 -0.608594 -1.43965 0
M  V30 927 H 88.452 1.46884 -2.89129 0
M  V30 928 H 88.237 0.0237066 -3.92093 0
M  V30 929 H 89.727 1.005 -4.05326 0
M  V30 930 N 90.1641 1.46063 -0.591896 0
M  V30 931 C 91.4131 2.01547 -0.0786637 0
M  V30 932 C 91.7261 1.46796 1.29268 0
M  V30 933 O 92.9321 1.94157 1.89777 0
M  V30 934 C 91.3881 3.59787 -0.0900024 0
M  V30 935 C 90.9961 4.23534 -1.46023 0
M  V30 936 C 92.7401 4.22895 0.368806 0
M  V30 937 C 90.6471 5.73881 -1.4288 0
M  V30 938 H 89.5771 0.753564 -0.0256388 0
M  V30 939 H 92.2281 1.677 -0.744905 0
M  V30 940 H 90.6101 3.90752 0.642586 0
M  V30 941 H 91.7841 4.04167 -2.21328 0
M  V30 942 H 90.0991 3.72558 -1.85982 0
M  V30 943 H 92.6961 5.33116 0.411258 0
M  V30 944 H 93.0391 3.9247 1.38827 0
M  V30 945 H 93.5721 3.9659 -0.31001 0
M  V30 946 H 90.3111 6.0898 -2.42536 0
M  V30 947 H 89.8311 5.95486 -0.718095 0
M  V30 948 H 91.5101 6.36776 -1.14565 0
M  V30 949 N 91.6422 0.330177 1.54103 0
M  V30 950 C 92.6052 -0.520144 2.2322 0
M  V30 951 C 93.6052 -1.03828 1.22786 0
M  V30 952 O 94.7952 -0.929652 1.4732 0
M  V30 953 C 91.9272 -1.72317 2.94142 0
M  V30 954 H 93.1202 0.0841605 2.99782 0
M  V30 955 H 90.6732 0.0813433 1.56088 0
M  V30 956 H 91.4082 -2.36653 2.21734 0
M  V30 957 H 91.1932 -1.35898 3.67796 0
M  V30 958 H 92.6832 -2.3266 3.46784 0
M  V30 959 N 93.1203 -1.57491 0.0584922 0
M  V30 960 C 94.3453 -1.97711 -0.62652 0
M  V30 961 C 94.7703 -0.936132 -1.63151 0
M  V30 962 O 94.1283 0.099811 -1.81025 0
M  V30 963 C 94.1763 -3.36989 -1.28338 0
M  V30 964 O 93.2803 -3.35433 -2.39913 0
M  V30 965 H 92.6213 -0.643868 -0.162266 0
M  V30 966 H 95.1513 -2.04193 0.129064 0
M  V30 967 H 95.1613 -3.73879 -1.63335 0
M  V30 968 H 93.8363 -4.12289 -0.546889 0
M  V30 969 H 92.4133 -3.10298 -2.06809 0
M  V30 970 N 94.5984 0.214957 -1.56127 0
M  V30 971 C 95.8384 0.945364 -1.81224 0
M  V30 972 C 96.2024 1.81265 -0.633005 0
M  V30 973 O 97.4034 2.57731 -0.763423 0
M  V30 974 C 95.6744 1.75665 -3.1125 0
M  V30 975 S 97.2334 2.54179 -3.57685 0
M  V30 976 H 94.0514 0.317443 -0.6362 0
M  V30 977 H 96.6534 0.210381 -1.94365 0
M  V30 978 H 95.3574 1.10977 -3.9511 0
M  V30 979 H 94.8884 2.53381 -3.00934 0
M  V30 980 H 96.9034 3.7792 -3.21545 0
M  V30 981 N 96.0765 1.50051 0.48192 0
M  V30 982 C 97.3245 1.60181 1.23234 0
M  V30 983 C 97.6455 0.299176 1.92691 0
M  V30 984 O 96.9155 -0.682708 1.83619 0
M  V30 985 H 95.4955 0.590232 0.457859 0
M  V30 986 H 98.1575 1.86775 0.556881 0
M  V30 987 H 97.2535 2.40753 1.98607 0
M  V30 988 N 97.5546 -0.734337 1.39446 0
M  V30 989 C 98.8006 -1.49613 1.36908 0
M  V30 990 C 99.1336 -1.94169 -0.0347829 0
M  V30 991 O 98.4086 -1.66833 -0.999847 0
M  V30 992 C 98.6916 -2.73534 2.34203 0
M  V30 993 C 98.5446 -2.34993 3.83534 0
M  V30 994 C 99.8636 -3.75635 2.29317 0
M  V30 995 H 96.9826 -0.542714 0.498629 0
M  V30 996 H 99.6246 -0.839597 1.70443 0
M  V30 997 H 97.7746 -3.29553 2.05736 0
M  V30 998 H 99.4466 -1.84601 4.22753 0
M  V30 999 H 97.6896 -1.67213 4.00278 0
M  V30 1000 H 98.3606 -3.23738 4.47099 0
M  V30 1001 H 100.837 -3.29203 2.54489 0
M  V30 1002 H 99.7126 -4.60008 2.99472 0
M  V30 1003 H 99.9736 -4.22603 1.29842 0
M  V30 1004 N 99.0327 -1.24633 -0.964593 0
M  V30 1005 C 100.444 -1.08045 -1.5226 0
M  V30 1006 C 100.795 0.347116 -1.93105 0
M  V30 1007 O 99.9197 1.23588 -1.77637 0
M  V30 1008 C 100.515 -1.95514 -2.76695 0
M  V30 1009 C 99.0737 -1.8314 -3.28841 0
M  V30 1010 C 98.2207 -1.90262 -2.01732 0
M  V30 1011 H 101.172 -1.38064 -0.782553 0
M  V30 1012 H 101.193 -1.48925 -3.50145 0
M  V30 1013 H 100.705 -2.99407 -2.46936 0
M  V30 1014 H 98.8057 -0.82092 -3.63444 0
M  V30 1015 H 98.9187 -2.67406 -3.97531 0
M  V30 1016 H 97.2827 -1.34027 -2.16584 0
M  V30 1017 H 98.0657 -2.9574 -1.74334 0
M  V30 1018 N 100.511 1.16574 -1.06058 0
M  V30 1019 C 101.927 1.3904 -0.783585 0
M  V30 1020 C 102.127 1.91784 0.618145 0
M  V30 1021 O 101.183 2.11511 1.37911 0
M  V30 1022 C 102.496 2.37329 -1.84649 0
M  V30 1023 C 104.044 2.51018 -1.86973 0
M  V30 1024 C 104.519 3.52588 -2.92311 0
M  V30 1025 N 106.01 3.60113 -2.91329 0
M  V30 1026 C 106.745 4.38486 -3.69482 0
M  V30 1027 N 106.241 5.20302 -4.57447 0
M  V30 1028 N 108.034 4.33446 -3.57885 0
M  V30 1029 H 100.185 0.806725 -1.96483 0
M  V30 1030 H 102.448 0.417117 -0.851303 0
M  V30 1031 H 102.154 2.05663 -2.85299 0
M  V30 1032 H 102.028 3.36946 -1.6955 0
M  V30 1033 H 104.415 2.81989 -0.869827 0
M  V30 1034 H 104.496 1.51445 -2.0615 0
M  V30 1035 H 104.14 3.22354 -3.92492 0
M  V30 1036 H 104.07 4.51886 -2.70383 0
M  V30 1037 H 106.561 3.01707 -2.27555 0
M  V30 1038 H 106.874 5.77311 -5.13743 0
M  V30 1039 H 105.219 5.19653 -4.61503 0
M  V30 1040 H 108.41 3.68586 -2.88551 0
M  V30 1041 H 108.583 4.94279 -4.19037 0
M  V30 1042 N 101.989 0.842826 1.3317 0
M  V30 1043 C 102.899 0.281444 2.32906 0
M  V30 1044 C 103.915 -0.594587 1.63526 0
M  V30 1045 O 105.091 -0.49777 1.95152 0
M  V30 1046 C 102.156 -0.530929 3.42611 0
M  V30 1047 C 101.217 0.369843 4.27704 0
M  V30 1048 C 100.45 -0.403853 5.3217 0
M  V30 1049 O 100.673 -1.63513 5.46461 0
M  V30 1050 O 99.6069 0.224199 6.01482 0
M  V30 1051 H 103.433 1.10744 2.82789 0
M  V30 1052 H 101.018 0.60545 1.36582 0
M  V30 1053 H 102.9 -0.992437 4.09547 0
M  V30 1054 H 101.575 -1.33392 2.94938 0
M  V30 1055 H 100.482 0.879275 3.6362 0
M  V30 1056 H 101.815 1.13771 4.78871 0
M  V30 1057 N 103.467 -1.45747 0.599634 0
M  V30 1058 C 104.377 -2.34262 -0.125888 0
M  V30 1059 C 105.393 -1.50768 -0.868625 0
M  V30 1060 O 106.569 -1.83592 -0.828003 0
M  V30 1061 C 103.634 -3.28252 -1.11587 0
M  V30 1062 C 102.695 -4.27651 -0.375956 0
M  V30 1063 C 101.928 -5.1715 -1.31877 0
M  V30 1064 O 102.151 -5.09916 -2.55621 0
M  V30 1065 O 101.085 -5.96286 -0.820157 0
M  V30 1066 H 104.911 -2.97688 0.601315 0
M  V30 1067 H 102.496 -1.44999 0.359934 0
M  V30 1068 H 104.378 -3.86191 -1.68626 0
M  V30 1069 H 103.053 -2.67401 -1.82424 0
M  V30 1070 H 101.96 -3.7335 0.236698 0
M  V30 1071 H 103.293 -4.91334 0.29177 0
M  V30 1072 N 104.945 -0.338344 -1.53925 0
M  V30 1073 C 105.875 0.51328 -2.27789 0
M  V30 1074 C 106.856 1.107 -1.29149 0
M  V30 1075 O 108.041 1.12937 -1.57984 0
M  V30 1076 C 105.171 1.66697 -3.04679 0
M  V30 1077 C 104.125 1.20183 -4.1078 0
M  V30 1078 C 103.451 2.44363 -4.75595 0
M  V30 1079 C 104.751 0.30605 -5.21403 0
M  V30 1080 H 106.445 -0.102883 -2.99223 0
M  V30 1081 H 103.991 -0.0509219 -1.4391 0
M  V30 1082 H 105.944 2.26915 -3.55088 0
M  V30 1083 H 104.668 2.30995 -2.30887 0
M  V30 1084 H 103.327 0.622499 -3.61276 0
M  V30 1085 H 102.975 3.07057 -3.98403 0
M  V30 1086 H 102.675 2.13925 -5.47275 0
M  V30 1087 H 104.199 3.05317 -5.28786 0
M  V30 1088 H 105.613 0.814929 -5.67478 0
M  V30 1089 H 104.01 0.0937929 -6.00027 0
M  V30 1090 H 105.08 -0.65921 -4.80398 0
M  V30 1091 N 106.423 1.57458 -0.0668435 0
M  V30 1092 C 107.67 1.93301 0.603406 0
M  V30 1093 C 107.998 0.946486 1.69917 0
M  V30 1094 O 107.253 -0.0387021 1.95662 0
M  V30 1095 C 107.552 3.35784 1.22409 0
M  V30 1096 C 107.218 4.50179 0.254955 0
M  V30 1097 C 105.88 4.81199 -0.0116746 0
M  V30 1098 C 108.232 5.19598 -0.408338 0
M  V30 1099 C 105.56 5.78978 -0.94877 0
M  V30 1100 C 107.912 6.18381 -1.33372 0
M  V30 1101 C 106.576 6.47821 -1.60887 0
M  V30 1102 H 105.846 0.707338 0.220802 0
M  V30 1103 H 108.493 1.91012 -0.136665 0
M  V30 1104 H 106.798 3.34515 2.03978 0
M  V30 1105 H 108.495 3.60804 1.74989 0
M  V30 1106 H 105.085 4.25983 0.472954 0
M  V30 1107 H 109.269 4.95832 -0.215456 0
M  V30 1108 H 104.525 6.00115 -1.16925 0
M  V30 1109 H 108.699 6.71277 -1.85367 0
M  V30 1110 H 106.326 7.23399 -2.33661 0
M  V30 1111 N 107.901 -0.206675 1.56239 0
M  V30 1112 C 109.147 -0.930218 1.80208 0
M  V30 1113 C 109.48 -1.83387 0.638981 0
M  V30 1114 O 108.755 -1.91119 -0.361066 0
M  V30 1115 C 109.038 -1.75641 3.1436 0
M  V30 1116 C 108.891 -0.878257 4.41142 0
M  V30 1117 C 110.21 -2.73129 3.45092 0
M  V30 1118 H 107.329 -0.336742 0.655571 0
M  V30 1119 H 109.971 -0.198222 1.88963 0
M  V30 1120 H 108.121 -2.38048 3.07027 0
M  V30 1121 H 109.793 -0.269787 4.6051 0
M  V30 1122 H 108.036 -0.184385 4.33408 0
M  V30 1123 H 108.707 -1.49106 5.3148 0
M  V30 1124 H 111.183 -2.20856 3.52649 0
M  V30 1125 H 110.059 -3.28028 4.40101 0
M  V30 1126 H 110.32 -3.51606 2.68003 0
M  V30 1127 N 109.379 -1.50304 -0.473955 0
M  V30 1128 C 110.607 -1.64902 -1.24959 0
M  V30 1129 C 111.022 -0.331198 -1.85872 0
M  V30 1130 O 110.379 0.68652 -1.69095 0
M  V30 1131 C 110.43 -2.73803 -2.36038 0
M  V30 1132 O 110.151 -4.00477 -1.77624 0
M  V30 1133 C 111.652 -2.99349 -3.26964 0
M  V30 1134 H 108.872 -0.554383 -0.378022 0
M  V30 1135 H 111.416 -1.9651 -0.566054 0
M  V30 1136 H 109.571 -2.44898 -3.00173 0
M  V30 1137 H 109.985 -4.60678 -2.5075 0
M  V30 1138 H 111.459 -3.79217 -4.01121 0
M  V30 1139 H 111.936 -2.10307 -3.85574 0
M  V30 1140 H 112.542 -3.29774 -2.68569 0
M  V30 1141 N 110.857 0.726932 -1.39834 0
M  V30 1142 C 112.085 1.51613 -1.40787 0
M  V30 1143 C 112.5 1.88799 -0.00451505 0
M  V30 1144 O 111.857 1.54662 0.968809 0
M  V30 1145 C 111.908 2.79863 -2.28821 0
M  V30 1146 O 111.629 2.44253 -3.63692 0
M  V30 1147 C 113.13 3.73837 -2.38245 0
M  V30 1148 H 110.35 0.468264 -0.480593 0
M  V30 1149 H 112.894 0.897607 -1.83748 0
M  V30 1150 H 111.049 3.38027 -1.89252 0
M  V30 1151 H 111.463 3.26695 -4.1033 0
M  V30 1152 H 112.937 4.60699 -3.04073 0
M  V30 1153 H 113.414 4.16153 -1.40403 0
M  V30 1154 H 114.02 3.21589 -2.78317 0
M  V30 1155 N 112.336 1.25143 0.95797 0
M  V30 1156 C 113.283 1.05235 2.05412 0
M  V30 1157 C 114.253 -0.0374561 1.66058 0
M  V30 1158 O 115.438 0.119073 1.90428 0
M  V30 1159 C 112.578 0.673589 3.38462 0
M  V30 1160 C 111.691 1.8379 3.90954 0
M  V30 1161 C 110.826 1.40381 5.12315 0
M  V30 1162 C 109.865 2.53746 5.57027 0
M  V30 1163 N 109.002 2.11136 6.69601 0
M  V30 1164 H 113.842 1.99048 2.21774 0
M  V30 1165 H 111.379 0.991277 1.08683 0
M  V30 1166 H 113.337 0.434964 4.14926 0
M  V30 1167 H 111.967 -0.227554 3.21997 0
M  V30 1168 H 111.019 2.18992 3.11041 0
M  V30 1169 H 112.331 2.68937 4.20089 0
M  V30 1170 H 111.485 1.12464 5.96185 0
M  V30 1171 H 110.224 0.523015 4.84887 0
M  V30 1172 H 109.229 2.82412 4.71724 0
M  V30 1173 H 110.454 3.42398 5.86464 0
M  V30 1174 H 108.4 1.25468 6.4389 0
M  V30 1175 H 108.317 2.89832 6.98236 0
M  V30 1176 H 109.585 1.86385 7.56889 0
M  V30 1177 N 113.814 -1.1601 1.06675 0
M  V30 1178 C 114.744 -2.22688 0.702307 0
M  V30 1179 C 115.725 -1.67306 -0.307032 0
M  V30 1180 O 116.91 -1.93352 -0.181305 0
M  V30 1181 C 114.04 -3.47178 0.092038 0
M  V30 1182 C 112.994 -4.15477 1.02777 0
M  V30 1183 C 112.32 -5.33963 0.28061 0
M  V30 1184 C 113.62 -4.66019 2.35846 0
M  V30 1185 H 115.314 -2.53429 1.59419 0
M  V30 1186 H 112.86 -1.21813 0.767961 0
M  V30 1187 H 114.813 -4.21037 -0.174814 0
M  V30 1188 H 113.537 -3.15749 -0.834877 0
M  V30 1189 H 112.196 -3.43549 1.27944 0
M  V30 1190 H 111.844 -4.98788 -0.649545 0
M  V30 1191 H 111.544 -5.806 0.904258 0
M  V30 1192 H 113.068 -6.10596 0.021396 0
M  V30 1193 H 114.482 -5.3144 2.15045 0
M  V30 1194 H 112.879 -5.23293 2.93743 0
M  V30 1195 H 113.949 -3.82023 2.98641 0
M  V30 1196 N 115.292 -0.849877 -1.32721 0
M  V30 1197 C 116.538 -0.460855 -1.9811 0
M  V30 1198 C 116.893 0.971716 -1.66059 0
M  V30 1199 O 116.186 1.67184 -0.935944 0
M  V30 1200 C 116.38 -0.631272 -3.51781 0
M  V30 1201 C 116.209 -2.07886 -3.98765 0
M  V30 1202 C 114.979 -2.71637 -4.26077 0
M  V30 1203 C 117.177 -3.04889 -4.14182 0
M  V30 1204 N 115.159 -4.07356 -4.59276 0
M  V30 1205 C 116.53 -4.25583 -4.50865 0
M  V30 1206 C 118.585 -3.01148 -3.96503 0
M  V30 1207 C 117.288 -5.43027 -4.71714 0
M  V30 1208 C 119.314 -4.17832 -4.18533 0
M  V30 1209 C 118.676 -5.37284 -4.55528 0
M  V30 1210 H 114.775 -0.217283 -0.751207 0
M  V30 1211 H 117.359 -1.10026 -1.60631 0
M  V30 1212 H 115.53 -0.0215966 -3.88394 0
M  V30 1213 H 117.262 -0.212614 -4.04141 0
M  V30 1214 H 114.017 -2.22705 -4.17971 0
M  V30 1215 H 114.441 -4.77351 -4.80068 0
M  V30 1216 H 119.083 -2.0992 -3.67006 0
M  V30 1217 H 116.801 -6.34791 -5.00066 0
M  V30 1218 H 120.387 -4.16368 -4.06361 0
M  V30 1219 H 119.267 -6.26071 -4.72234 0
M  V30 1220 N 116.77 1.45427 -0.607355 0
M  V30 1221 C 117.718 2.32269 0.12411 0
M  V30 1222 C 118.712 1.45955 0.859854 0
M  V30 1223 O 119.918 1.6244 0.775447 0
M  V30 1224 H 116.293 0.749691 0.0588839 0
M  V30 1225 H 118.264 2.91743 -0.626762 0
M  V30 1226 C 117.013 3.29567 1.1082 0
M  V30 1227 H 116.336 3.95978 0.551492 0
M  V30 1228 H 117.776 3.93061 1.58995 0
M  V30 1229 C 116.235 2.56722 2.18164 0
M  V30 1230 O 116.765 2.34842 3.25902 0
M  V30 1231 N 114.971 2.16861 1.93442 0
M  V30 1232 H 114.518 2.34855 1.05834 0
M  V30 1233 H 114.476 1.68444 2.65469 0
M  V30 1234 N 118.248 0.346503 1.53744 0
M  V30 1235 C 119.473 -0.253074 2.0585 0
M  V30 1236 C 119.898 -1.43202 1.21962 0
M  V30 1237 O 119.256 -1.79783 0.234073 0
M  V30 1238 C 119.304 -0.643193 3.54817 0
M  V30 1239 O 118.408 -1.74286 3.73762 0
M  V30 1240 H 117.749 -0.0413583 0.662711 0
M  V30 1241 H 120.279 0.501574 1.98357 0
M  V30 1242 H 120.289 -0.919526 3.97503 0
M  V30 1243 H 118.964 0.218966 4.15323 0
M  V30 1244 H 117.541 -1.46356 3.42979 0
M  V30 1245 N 119.726 -1.57421 0.075193 0
M  V30 1246 C 121.003 -1.85029 -0.634329 0
M  V30 1247 C 121.383 -0.968305 -1.87582 0
M  V30 1248 O 120.731 -0.0354749 -2.28472 0
M  V30 1249 C 120.941 -3.35286 -0.968742 0
M  V30 1250 C 122.289 -4.02875 -1.34077 0
M  V30 1251 O 123.313 -3.40051 -1.06037 0
M  V30 1252 O 122.172 -5.13691 -1.86506 0
M  V30 1253 H 119.266 -0.7645 -0.315387 0
M  V30 1254 H 121.812 -1.69366 0.106382 0
M  V30 1255 H 120.584 -3.91203 -0.0871376 0
M  V30 1256 H 120.207 -3.56223 -1.7661 0
M  V30 1257 N 121.204 0.198386 -1.56346 0
M  V30 1258 C 122.136 1.26987 -1.90806 0
M  V30 1259 C 123.149 1.41877 -0.798419 0
M  V30 1260 O 124.338 1.42362 -1.07682 0
M  V30 1261 C 121.438 2.64246 -2.12196 0
M  V30 1262 C 120.611 2.71007 -3.43328 0
M  V30 1263 C 119.67 3.89439 -3.5387 0
M  V30 1264 O 118.696 3.76695 -4.26719 0
M  V30 1265 N 119.898 5.04752 -2.86715 0
M  V30 1266 H 122.663 0.977433 -2.83313 0
M  V30 1267 H 120.224 0.388322 -1.57174 0
M  V30 1268 H 122.216 3.41896 -2.1654 0
M  V30 1269 H 120.786 2.85992 -1.26204 0
M  V30 1270 H 120.006 1.79657 -3.50881 0
M  V30 1271 H 121.294 2.72512 -4.29668 0
M  V30 1272 H 120.692 5.18004 -2.2735 0
M  V30 1273 H 119.249 5.8036 -2.96691 0
M  V30 1274 N 122.682 1.50554 0.465978 0
M  V30 1275 C 123.93 1.61479 1.21528 0
M  V30 1276 C 124.251 0.319596 1.92363 0
M  V30 1277 O 123.521 -0.663194 1.84333 0
M  V30 1278 H 122.101 0.595055 0.451573 0
M  V30 1279 H 124.763 1.87355 0.53704 0
M  V30 1280 H 123.859 2.42846 1.96042 0
M  V30 1281 N 124.16 -0.719506 1.40217 0
M  V30 1282 C 125.39 -1.50646 1.41384 0
M  V30 1283 C 125.798 -1.89197 0.0107743 0
M  V30 1284 O 125.141 -1.55709 -0.974708 0
M  V30 1285 C 125.203 -2.81405 2.23722 0
M  V30 1286 C 124.867 -2.65199 3.72181 0
M  V30 1287 C 125.864 -2.32717 4.64907 0
M  V30 1288 C 123.549 -2.81586 4.1595 0
M  V30 1289 C 125.543 -2.16827 5.99387 0
M  V30 1290 C 123.23 -2.65313 5.50502 0
M  V30 1291 C 124.228 -2.32981 6.42035 0
M  V30 1292 O 123.916 -2.16827 7.74107 0
M  V30 1293 H 123.648 -0.471606 0.484318 0
M  V30 1294 H 126.202 -0.895456 1.84853 0
M  V30 1295 H 124.432 -3.44823 1.75026 0
M  V30 1296 H 126.121 -3.43102 2.16878 0
M  V30 1297 H 126.887 -2.19694 4.32388 0
M  V30 1298 H 122.766 -3.0574 3.45027 0
M  V30 1299 H 126.31 -1.91513 6.70797 0
M  V30 1300 H 122.207 -2.7792 5.82607 0
M  V30 1301 H 122.975 -2.31778 7.84998 0
M  V30 1302 N 125.638 -1.25649 -0.95132 0
M  V30 1303 C 126.548 -1.08073 -2.08224 0
M  V30 1304 C 127.564 -0.0169666 -1.73992 0
M  V30 1305 O 128.74 -0.218593 -2.0021 0
M  V30 1306 C 125.805 -0.704922 -3.39458 0
M  V30 1307 C 124.866 -1.84699 -3.87537 0
M  V30 1308 C 124.099 -1.48902 -5.12508 0
M  V30 1309 O 124.322 -0.386156 -5.69091 0
M  V30 1310 O 123.256 -2.32033 -5.55378 0
M  V30 1311 H 127.082 -2.02924 -2.25954 0
M  V30 1312 H 124.667 -1.04618 -1.06656 0
M  V30 1313 H 126.549 -0.507609 -4.18332 0
M  V30 1314 H 125.224 0.214291 -3.2299 0
M  V30 1315 H 124.131 -2.09919 -3.09653 0
M  V30 1316 H 125.464 -2.74557 -4.08509 0
M  V30 1317 N 127.117 1.15442 -1.07289 0
M  V30 1318 C 128.342 1.90638 -0.816828 0
M  V30 1319 C 128.767 1.77445 0.624083 0
M  V30 1320 O 128.125 1.10671 1.43602 0
M  V30 1321 C 128.173 3.39008 -1.22906 0
M  V30 1322 O 127.277 4.10701 -0.373975 0
M  V30 1323 H 126.618 0.593555 -0.297638 0
M  V30 1324 H 129.148 1.46198 -1.43134 0
M  V30 1325 H 129.158 3.89801 -1.20497 0
M  V30 1326 H 127.833 3.47929 -2.27856 0
M  V30 1327 H 126.41 3.70046 -0.460499 0
M  V30 1328 N 128.595 0.856903 1.32268 0
M  V30 1329 C 129.823 0.475439 2.01363 0
M  V30 1330 C 130.238 -0.928486 1.64392 0
M  V30 1331 O 129.595 -1.60624 0.866387 0
M  V30 1332 C 129.646 0.607545 3.56358 0
M  V30 1333 O 129.367 1.95617 3.92002 0
M  V30 1334 C 130.868 0.225382 4.42727 0
M  V30 1335 H 128.088 0.186636 0.644521 0
M  V30 1336 H 130.632 1.15446 1.68797 0
M  V30 1337 H 128.787 -0.0237719 3.87393 0
M  V30 1338 H 129.201 1.95455 4.86721 0
M  V30 1339 H 130.675 0.368813 5.50767 0
M  V30 1340 H 131.152 -0.834369 4.31202 0
M  V30 1341 H 131.758 0.831864 4.17085 0
M  V30 1342 N 130.073 -1.45103 0.615059 0
M  V30 1343 C 131.003 -2.33339 -0.0865619 0
M  V30 1344 C 131.984 -1.4727 -0.851209 0
M  V30 1345 O 133.169 -1.76026 -0.820281 0
M  V30 1346 C 130.299 -3.30095 -1.07956 0
M  V30 1347 C 129.253 -4.25858 -0.427628 0
M  V30 1348 C 128.579 -5.12361 -1.5294 0
M  V30 1349 C 129.879 -5.18165 0.655944 0
M  V30 1350 H 131.573 -2.92254 0.650224 0
M  V30 1351 H 129.119 -1.40532 0.314138 0
M  V30 1352 H 131.072 -3.90698 -1.57901 0
M  V30 1353 H 129.796 -2.69355 -1.84703 0
M  V30 1354 H 128.455 -3.66564 0.0510292 0
M  V30 1355 H 128.103 -4.47984 -2.28734 0
M  V30 1356 H 127.803 -5.77238 -1.09865 0
M  V30 1357 H 129.327 -5.75833 -2.03098 0
M  V30 1358 H 130.741 -5.72796 0.240257 0
M  V30 1359 H 129.138 -5.91559 1.00888 0
M  V30 1360 H 130.208 -4.60144 1.52957 0
M  V30 1361 N 131.551 -0.354651 -1.53558 0
M  V30 1362 C 132.776 0.242153 -2.05981 0
M  V30 1363 C 133.201 1.42553 -1.2272 0
M  V30 1364 O 132.559 1.79656 -0.243604 0
M  V30 1365 C 132.607 0.624367 -3.55154 0
M  V30 1366 O 131.711 1.72301 -3.74681 0
M  V30 1367 H 131.052 0.0378432 -0.662921 0
M  V30 1368 H 133.582 -0.512087 -1.98088 0
M  V30 1369 H 133.592 0.898433 -3.97985 0
M  V30 1370 H 132.267 -0.240989 -4.15201 0
M  V30 1371 H 130.844 1.44535 -3.4375 0
M  V30 1372 N 133.029 1.57378 -0.0835403 0
M  V30 1373 C 133.992 2.12252 0.864959 0
M  V30 1374 C 134.992 1.04916 1.21858 0
M  V30 1375 O 136.182 1.30853 1.14991 0
M  V30 1376 C 133.314 2.63358 2.16461 0
M  V30 1377 H 134.507 2.97371 0.388676 0
M  V30 1378 H 132.06 1.55423 0.165317 0
M  V30 1379 H 132.795 1.81727 2.686 0
M  V30 1380 H 132.58 3.41826 1.92087 0
M  V30 1381 H 134.07 3.05847 2.84337 0
M  V30 1382 N 134.507 -0.190092 1.56449 0
M  V30 1383 C 135.754 -0.909705 1.80916 0
M  V30 1384 C 136.082 -1.83047 0.657583 0
M  V30 1385 O 135.337 -1.92428 -0.356356 0
M  V30 1386 C 135.636 -1.75382 3.1141 0
M  V30 1387 C 135.302 -0.983606 4.40041 0
M  V30 1388 C 133.964 -0.770967 4.74984 0
M  V30 1389 C 136.316 -0.442024 5.19322 0
M  V30 1390 C 133.644 -0.0053448 5.867 0
M  V30 1391 C 135.996 0.310412 6.31838 0
M  V30 1392 C 134.66 0.534023 6.6536 0
M  V30 1393 H 133.93 -0.332885 0.662019 0
M  V30 1394 H 136.577 -0.175762 1.90692 0
M  V30 1395 H 134.882 -2.55659 2.96893 0
M  V30 1396 H 136.579 -2.31331 3.27547 0
M  V30 1397 H 133.169 -1.15936 4.12622 0
M  V30 1398 H 137.353 -0.593693 4.92736 0
M  V30 1399 H 132.609 0.177825 6.11141 0
M  V30 1400 H 136.783 0.737419 6.92485 0
M  V30 1401 H 134.41 1.12918 7.51767 0
M  V30 1402 N 135.985 -1.50799 -0.457987 0
M  V30 1403 C 136.895 -1.73426 -1.57989 0
M  V30 1404 C 137.911 -0.617745 -1.62665 0
M  V30 1405 O 139.087 -0.897614 -1.80291 0
M  V30 1406 C 136.152 -1.83557 -2.94122 0
M  V30 1407 C 135.213 -3.07345 -2.99729 0
M  V30 1408 C 134.446 -3.16983 -4.29368 0
M  V30 1409 O 134.669 -2.33077 -5.20607 0
M  V30 1410 O 133.603 -4.09812 -4.40837 0
M  V30 1411 H 137.429 -2.68555 -1.41817 0
M  V30 1412 H 135.014 -1.35052 -0.638859 0
M  V30 1413 H 136.896 -1.92326 -3.74952 0
M  V30 1414 H 135.571 -0.916137 -3.10465 0
M  V30 1415 H 134.478 -3.04068 -2.1793 0
M  V30 1416 H 135.811 -3.9891 -2.88326 0
M  V30 1417 N 137.463 0.71206 -1.40597 0
M  V30 1418 C 138.41 1.82613 -1.41142 0
M  V30 1419 C 139.38 1.63925 -0.267903 0
M  V30 1420 O 140.565 1.85009 -0.466495 0
M  V30 1421 C 137.705 3.20354 -1.28324 0
M  V30 1422 C 136.818 3.50589 -2.52411 0
M  V30 1423 C 135.953 4.77855 -2.32009 0
M  V30 1424 C 134.992 5.01005 -3.51654 0
M  V30 1425 N 134.129 6.19487 -3.30425 0
M  V30 1426 H 138.969 1.81482 -2.36365 0
M  V30 1427 H 136.506 0.886475 -1.17388 0
M  V30 1428 H 138.464 3.99899 -1.18899 0
M  V30 1429 H 137.094 3.20705 -0.367189 0
M  V30 1430 H 136.146 2.65573 -2.72351 0
M  V30 1431 H 137.458 3.63604 -3.41458 0
M  V30 1432 H 136.612 5.65424 -2.19956 0
M  V30 1433 H 135.351 4.67056 -1.40392 0
M  V30 1434 H 134.356 4.1189 -3.64179 0
M  V30 1435 H 135.581 5.13674 -4.44202 0
M  V30 1436 H 133.527 6.09932 -2.41494 0
M  V30 1437 H 133.444 6.33194 -4.13039 0
M  V30 1438 H 134.712 7.09834 -3.22113 0
M  V30 1439 N 138.941 1.26152 0.944643 0
M  V30 1440 C 140.166 1.14363 1.7302 0
M  V30 1441 C 140.591 -0.29772 1.85729 0
M  V30 1442 O 139.949 -1.2157 1.34501 0
M  V30 1443 C 139.997 1.81378 3.11664 0
M  V30 1444 O 139.101 1.10022 3.97453 0
M  V30 1445 H 138.442 0.398694 0.53098 0
M  V30 1446 H 140.972 1.66906 1.18337 0
M  V30 1447 H 140.982 1.88064 3.62072 0
M  V30 1448 H 139.657 2.86237 3.0173 0
M  V30 1449 H 138.234 1.11287 3.55907 0
M  V30 1450 N 140.419 -1.14872 1.07899 0
M  V30 1451 C 141.668 -1.85135 0.800499 0
M  V30 1452 C 141.981 -1.83547 -0.676014 0
M  V30 1453 O 143.187 -2.49548 -1.06948 0
M  V30 1454 C 141.643 -3.3231 1.38197 0
M  V30 1455 C 141.251 -3.42329 2.8899 0
M  V30 1456 C 142.995 -4.0772 1.18174 0
M  V30 1457 C 140.902 -4.83684 3.403 0
M  V30 1458 H 139.832 -0.693563 0.29578 0
M  V30 1459 H 142.483 -1.29532 1.29976 0
M  V30 1460 H 140.865 -3.87618 0.810431 0
M  V30 1461 H 142.039 -2.97097 3.52236 0
M  V30 1462 H 140.354 -2.80369 3.07867 0
M  V30 1463 H 142.951 -5.12049 1.5398 0
M  V30 1464 H 143.294 -4.16124 0.12117 0
M  V30 1465 H 143.827 -3.58696 1.71994 0
M  V30 1466 H 140.566 -4.80465 4.45907 0
M  V30 1467 H 140.086 -5.29474 2.81811 0
M  V30 1468 H 141.765 -5.52558 3.36584 0
M  V30 1469 N 141.898 -0.863906 -1.31812 0
M  V30 1470 C 142.845 -0.313303 -2.28664 0
M  V30 1471 C 143.815 0.584868 -1.55462 0
M  V30 1472 O 145 0.517805 -1.83639 0
M  V30 1473 C 142.14 0.48441 -3.41683 0
M  V30 1474 C 141.253 -0.440594 -4.29747 0
M  V30 1475 C 140.388 0.370652 -5.29905 0
M  V30 1476 C 139.427 -0.551164 -6.09613 0
M  V30 1477 N 138.564 0.223462 -7.01744 0
M  V30 1478 H 143.404 -1.14444 -2.75148 0
M  V30 1479 H 140.941 -0.575769 -1.35364 0
M  V30 1480 H 142.899 0.962627 -4.05943 0
M  V30 1481 H 141.529 1.28029 -2.96325 0
M  V30 1482 H 140.581 -1.03724 -3.65986 0
M  V30 1483 H 141.893 -1.14767 -4.85417 0
M  V30 1484 H 141.047 0.911638 -5.99812 0
M  V30 1485 H 139.786 1.11105 -4.74876 0
M  V30 1486 H 138.791 -1.10396 -5.38603 0
M  V30 1487 H 140.016 -1.29032 -6.66729 0
M  V30 1488 H 137.962 0.946787 -6.49132 0
M  V30 1489 H 137.879 -0.424399 -7.54808 0
M  V30 1490 H 139.147 0.745876 -7.75923 0
M  V30 1491 N 143.376 1.44774 -0.622745 0
M  V30 1492 C 144.323 2.30635 0.0871679 0
M  V30 1493 C 145.293 1.42994 0.845097 0
M  V30 1494 O 146.478 1.71907 0.827812 0
M  V30 1495 C 143.618 3.28144 1.06844 0
M  V30 1496 C 142.731 4.30888 0.309809 0
M  V30 1497 C 141.866 5.15494 1.28215 0
M  V30 1498 C 140.905 6.09953 0.512198 0
M  V30 1499 N 140.042 6.87287 1.43458 0
M  V30 1500 H 144.882 2.90803 -0.650974 0
M  V30 1501 H 142.419 1.43286 -0.33281 0
M  V30 1502 H 144.377 3.83157 1.65066 0
M  V30 1503 H 143.007 2.69695 1.77382 0
M  V30 1504 H 142.059 3.78414 -0.388181 0
M  V30 1505 H 143.371 4.97955 -0.290254 0
M  V30 1506 H 142.525 5.74983 1.93596 0
M  V30 1507 H 141.264 4.48481 1.91614 0
M  V30 1508 H 140.269 5.49581 -0.155151 0
M  V30 1509 H 141.494 6.78999 -0.116958 0
M  V30 1510 H 139.44 6.2295 2.05594 0
M  V30 1511 H 139.357 7.50763 0.888335 0
M  V30 1512 H 140.625 7.51306 2.07749 0
M  V30 1513 N 144.854 0.36279 1.53368 0
M  V30 1514 C 145.784 -0.476976 2.28576 0
M  V30 1515 C 146.765 -1.08631 1.30894 0
M  V30 1516 O 147.95 -1.10409 1.59761 0
M  V30 1517 C 145.08 -1.61828 3.07293 0
M  V30 1518 C 144.034 -1.13633 4.1264 0
M  V30 1519 C 143.36 -2.36766 4.79423 0
M  V30 1520 C 144.66 -0.223061 5.21823 0
M  V30 1521 H 146.354 0.150474 2.99022 0
M  V30 1522 H 143.9 0.0738103 1.43811 0
M  V30 1523 H 145.853 -2.21237 3.58653 0
M  V30 1524 H 144.577 -2.27292 2.34533 0
M  V30 1525 H 143.236 -0.564945 3.62221 0
M  V30 1526 H 142.884 -3.0068 4.03238 0
M  V30 1527 H 142.584 -2.05192 5.50609 0
M  V30 1528 H 144.108 -2.96865 5.33576 0
M  V30 1529 H 145.522 -0.724545 5.68703 0
M  V30 1530 H 143.919 0.001678 6.001 0
M  V30 1531 H 144.989 0.735553 4.79289 0
M  V30 1532 N 146.332 -1.57332 0.0918853 0
M  V30 1533 C 147.58 -1.93853 -0.571446 0
M  V30 1534 C 147.901 -0.974212 -1.6892 0
M  V30 1535 O 147.171 -0.0257254 -1.95883 0
M  V30 1536 H 145.751 -0.715666 -0.214082 0
M  V30 1537 H 148.413 -1.94287 0.154464 0
M  V30 1538 H 147.509 -2.96191 -0.983729 0
M  V30 1539 N 147.81 0.181792 -1.56548 0
M  V30 1540 C 148.74 1.22765 -1.98623 0
M  V30 1541 C 149.721 1.46747 -0.860189 0
M  V30 1542 O 150.906 1.58259 -1.12551 0
M  V30 1543 C 148.036 2.56894 -2.33715 0
M  V30 1544 C 146.99 2.475 -3.49182 0
M  V30 1545 C 146.316 3.86023 -3.69986 0
M  V30 1546 C 147.616 1.98866 -4.82959 0
M  V30 1547 H 149.31 0.877942 -2.86239 0
M  V30 1548 H 146.856 0.42088 -1.37712 0
M  V30 1549 H 148.809 3.30253 -2.61746 0
M  V30 1550 H 147.533 2.93632 -1.42997 0
M  V30 1551 H 146.192 1.76596 -3.21262 0
M  V30 1552 H 145.84 4.20136 -2.76576 0
M  V30 1553 H 145.54 3.80609 -4.47672 0
M  V30 1554 H 147.064 4.60984 -4.00407 0
M  V30 1555 H 148.478 2.61992 -5.09934 0
M  V30 1556 H 146.875 2.04424 -5.64208 0
M  V30 1557 H 147.945 0.942465 -4.75653 0
M  V30 1558 N 149.288 1.51039 0.449983 0
M  V30 1559 C 150.198 1.74261 1.57067 0
M  V30 1560 C 151.214 0.626363 1.62335 0
M  V30 1561 O 152.39 0.907162 1.79812 0
M  V30 1562 C 149.455 1.85114 2.93144 0
M  V30 1563 C 148.516 3.0893 2.98095 0
M  V30 1564 C 147.749 3.19256 4.27681 0
M  V30 1565 O 147.972 2.35835 5.19363 0
M  V30 1566 O 146.906 4.12144 4.38658 0
M  V30 1567 H 150.732 2.69303 1.40391 0
M  V30 1568 H 148.317 1.35389 0.631688 0
M  V30 1569 H 150.199 1.94311 3.73926 0
M  V30 1570 H 148.874 0.932588 3.09975 0
M  V30 1571 H 147.781 3.0522 2.16314 0
M  V30 1572 H 149.114 4.00433 2.86206 0
M  V30 1573 N 150.766 -0.704594 1.40972 0
M  V30 1574 C 151.996 -1.49138 1.42974 0
M  V30 1575 C 152.404 -1.89175 0.0308406 0
M  V30 1576 O 151.747 -1.56734 -0.958138 0
M  V30 1577 C 151.809 -2.79016 2.26694 0
M  V30 1578 C 151.473 -2.61236 3.74973 0
M  V30 1579 C 152.47 -2.27773 4.67349 0
M  V30 1580 C 150.155 -2.77158 4.18914 0
M  V30 1581 C 152.149 -2.10457 6.01653 0
M  V30 1582 C 149.836 -2.59459 5.53285 0
M  V30 1583 C 150.834 -2.26158 6.4447 0
M  V30 1584 O 150.522 -2.08605 7.76363 0
M  V30 1585 H 150.254 -0.466443 0.489292 0
M  V30 1586 H 152.808 -0.8758 1.85793 0
M  V30 1587 H 151.038 -3.42947 1.78673 0
M  V30 1588 H 152.727 -3.40782 2.20504 0
M  V30 1589 H 153.493 -2.15095 4.34694 0
M  V30 1590 H 149.372 -3.02064 3.48251 0
M  V30 1591 H 152.916 -1.84387 6.72791 0
M  V30 1592 H 148.813 -2.71725 5.85522 0
M  V30 1593 H 149.581 -2.23439 7.87412 0
M  V30 1594 N 152.244 -1.26651 -0.937939 0
M  V30 1595 C 153.49 -1.12553 -1.687 0
M  V30 1596 C 153.823 0.329782 -1.91379 0
M  V30 1597 O 153.098 1.24202 -1.4968 0
M  V30 1598 C 153.381 -1.89862 -3.05981 0
M  V30 1599 C 153.234 -3.43318 -2.90607 0
M  V30 1600 C 154.553 -1.69499 -4.0615 0
M  V30 1601 H 151.672 -0.410257 -0.612257 0
M  V30 1602 H 154.314 -1.55685 -1.08913 0
M  V30 1603 H 152.464 -1.53204 -3.57017 0
M  V30 1604 H 154.136 -3.89747 -2.46769 0
M  V30 1605 H 152.379 -3.70179 -2.26164 0
M  V30 1606 H 153.05 -3.92642 -3.8799 0
M  V30 1607 H 155.526 -2.01442 -3.64088 0
M  V30 1608 H 154.402 -2.26002 -5.00214 0
M  V30 1609 H 154.663 -0.640365 -4.37438 0
M  V30 1610 N 153.722 1.14298 -1.08507 0
M  V30 1611 C 154.999 1.81544 -0.728088 0
M  V30 1612 C 155.379 1.95838 0.78808 0
M  V30 1613 O 154.727 1.51904 1.70697 0
M  V30 1614 C 154.937 3.17169 -1.45619 0
M  V30 1615 C 156.285 3.9265 -1.61591 0
M  V30 1616 O 157.309 3.26762 -1.41793 0
M  V30 1617 O 156.168 5.10807 -1.94263 0
M  V30 1618 H 153.262 0.78491 -0.260471 0
M  V30 1619 H 155.808 1.21307 -1.18671 0
M  V30 1620 H 154.58 3.01934 -2.489 0
M  V30 1621 H 154.203 3.851 -0.989124 0
M  V30 1622 N 155.201 0.870884 1.31352 0
M  V30 1623 C 156.131 0.343096 2.30966 0
M  V30 1624 C 157.112 -0.566507 1.60389 0
M  V30 1625 O 158.297 -0.483336 1.88089 0
M  V30 1626 C 155.427 -0.455487 3.443 0
M  V30 1627 C 154.381 0.361103 4.26474 0
M  V30 1628 C 153.707 -0.563221 5.31725 0
M  V30 1629 C 155.007 1.59566 4.97329 0
M  V30 1630 H 156.701 1.17548 2.75359 0
M  V30 1631 H 154.247 0.566686 1.32381 0
M  V30 1632 H 156.2 -0.83525 4.13039 0
M  V30 1633 H 154.924 -1.32139 2.98675 0
M  V30 1634 H 153.583 0.722825 3.59403 0
M  V30 1635 H 153.231 -1.42643 4.82351 0
M  V30 1636 H 152.931 -0.0207409 5.87596 0
M  V30 1637 H 154.455 -0.939808 6.03324 0
M  V30 1638 H 155.869 1.28728 5.58661 0
M  V30 1639 H 154.266 2.07728 5.63 0
M  V30 1640 H 155.336 2.34798 4.24262 0
M  V30 1641 N 156.679 -1.44442 0.630414 0
M  V30 1642 C 157.909 -2.06115 0.141465 0
M  V30 1643 C 158.317 -1.47179 -1.1889 0
M  V30 1644 O 157.66 -0.588873 -1.74006 0
M  V30 1645 C 157.722 -3.59467 -0.0484355 0
M  V30 1646 C 157.386 -4.40864 1.20366 0
M  V30 1647 C 158.383 -4.74391 2.12719 0
M  V30 1648 C 156.068 -4.8125 1.43887 0
M  V30 1649 C 158.062 -5.47186 3.26904 0
M  V30 1650 C 155.749 -5.53795 2.5837 0
M  V30 1651 C 156.747 -5.86682 3.49705 0
M  V30 1652 O 156.435 -6.57749 4.62191 0
M  V30 1653 H 156.167 -0.671648 0.0765792 0
M  V30 1654 H 158.721 -1.86312 0.864695 0
M  V30 1655 H 156.951 -3.77758 -0.826803 0
M  V30 1656 H 158.64 -4.02909 -0.491849 0
M  V30 1657 H 159.406 -4.43728 1.95781 0
M  V30 1658 H 155.285 -4.55073 0.736853 0
M  V30 1659 H 158.829 -5.72773 3.98217 0
M  V30 1660 H 154.726 -5.83872 2.75251 0
M  V30 1661 H 155.494 -6.76217 4.61164 0
M  V30 1662 N 158.157 -0.370918 -1.53173 0
M  V30 1663 C 159.087 0.464847 -2.28826 0
M  V30 1664 C 160.068 1.07936 -1.31468 0
M  V30 1665 O 161.253 1.0956 -1.60344 0
M  V30 1666 C 158.383 1.60196 -3.08147 0
M  V30 1667 C 157.337 1.11443 -4.13237 0
M  V30 1668 C 156.663 2.3422 -4.80672 0
M  V30 1669 C 157.963 0.195384 -5.21934 0
M  V30 1670 H 159.657 -0.166329 -2.98938 0
M  V30 1671 H 157.203 -0.0814359 -1.4377 0
M  V30 1672 H 159.156 2.19332 -3.59822 0
M  V30 1673 H 157.88 2.26045 -2.35735 0
M  V30 1674 H 156.539 0.545727 -3.62515 0
M  V30 1675 H 156.187 2.98537 -4.04827 0
M  V30 1676 H 155.887 2.02269 -5.51689 0
M  V30 1677 H 157.411 2.94032 -5.35143 0
M  V30 1678 H 158.825 0.694375 -5.69079 0
M  V30 1679 H 157.222 -0.0335027 -6.00091 0
M  V30 1680 H 158.292 -0.760961 -4.78892 0
M  V30 1681 N 159.635 1.57281 -0.100228 0
M  V30 1682 C 160.884 1.93713 0.561984 0
M  V30 1683 C 161.197 0.984492 1.69018 0
M  V30 1684 O 162.403 1.24273 2.41389 0
M  V30 1685 C 160.859 3.4421 1.05106 0
M  V30 1686 C 160.467 4.47975 -0.0476628 0
M  V30 1687 C 162.211 3.89595 1.68571 0
M  V30 1688 C 160.118 5.89631 0.457055 0
M  V30 1689 H 159.048 0.723082 0.2137 0
M  V30 1690 H 161.699 1.82644 -0.177057 0
M  V30 1691 H 160.081 3.50449 1.84395 0
M  V30 1692 H 161.255 4.53385 -0.823333 0
M  V30 1693 H 159.57 4.1223 -0.587816 0
M  V30 1694 H 162.167 4.92832 2.07414 0
M  V30 1695 H 162.51 3.28526 2.55688 0
M  V30 1696 H 163.043 3.86078 0.958562 0
M  V30 1697 H 159.782 6.54411 -0.377616 0
M  V30 1698 H 159.302 5.87681 1.19962 0
M  V30 1699 H 160.981 6.40363 0.92437 0
M  V30 1700 N 161.113 -0.173488 1.56642 0
M  V30 1701 C 162.063 -1.21941 1.92651 0
M  V30 1702 C 163.047 -1.39912 0.794577 0
M  V30 1703 O 164.239 -1.41919 1.05773 0
M  V30 1704 C 161.368 -2.55935 2.28806 0
M  V30 1705 C 160.454 -2.41667 3.48508 0
M  V30 1706 N 160.845 -1.9711 4.65813 0
M  V30 1707 C 159.143 -2.72499 3.53072 0
M  V30 1708 C 159.844 -1.95253 5.47952 0
M  V30 1709 N 158.82 -2.37575 4.88937 0
M  V30 1710 H 162.622 -0.866581 2.80834 0
M  V30 1711 H 160.136 -0.381776 1.57849 0
M  V30 1712 H 162.133 -3.31511 2.52797 0
M  V30 1713 H 160.793 -2.92022 1.41961 0
M  V30 1714 H 161.804 -1.67481 4.90072 0
M  V30 1715 H 158.481 -3.12639 2.767 0
M  V30 1716 H 159.871 -1.6252 6.51948 0
M  V30 1717 N 162.591 -1.51276 -0.441967 0
M  V30 1718 C 163.837 -1.6492 -1.1905 0
M  V30 1719 C 164.192 -0.358731 -1.89026 0
M  V30 1720 O 163.485 0.645193 -1.8041 0
M  V30 1721 C 163.679 -2.78746 -2.23686 0
M  V30 1722 C 163.508 -4.18737 -1.63979 0
M  V30 1723 C 162.278 -4.84739 -1.42674 0
M  V30 1724 C 164.476 -5.01988 -1.11858 0
M  V30 1725 N 162.458 -6.08858 -0.785159 0
M  V30 1726 C 163.829 -6.17071 -0.601989 0
M  V30 1727 C 165.884 -4.87551 -1.0099 0
M  V30 1728 C 164.587 -7.19299 0.0126012 0
M  V30 1729 C 166.613 -5.89983 -0.409206 0
M  V30 1730 C 165.975 -7.04333 0.0968651 0
M  V30 1731 H 162.074 -0.657416 -0.423471 0
M  V30 1732 H 164.658 -1.8849 -0.48782 0
M  V30 1733 H 162.829 -2.56848 -2.91348 0
M  V30 1734 H 164.561 -2.81595 -2.90666 0
M  V30 1735 H 161.316 -4.42528 -1.68719 0
M  V30 1736 H 161.74 -6.75282 -0.481942 0
M  V30 1737 H 166.382 -3.99401 -1.38703 0
M  V30 1738 H 164.1 -8.071 0.401879 0
M  V30 1739 H 167.686 -5.8088 -0.327079 0
M  V30 1740 H 166.566 -7.82238 0.554373 0
M  V30 1741 N 164.069 0.697108 -1.41344 0
M  V30 1742 C 165.48 1.27697 -1.36199 0
M  V30 1743 C 165.831 1.9615 -0.0443463 0
M  V30 1744 O 164.956 1.98689 0.857419 0
M  V30 1745 C 165.551 2.32223 -2.46694 0
M  V30 1746 C 164.11 2.8579 -2.44952 0
M  V30 1747 C 163.257 1.59807 -2.26621 0
M  V30 1748 H 166.208 0.491968 -1.50882 0
M  V30 1749 H 166.229 3.1348 -2.15664 0
M  V30 1750 H 165.741 1.82373 -3.42581 0
M  V30 1751 H 163.842 3.3982 -1.52817 0
M  V30 1752 H 163.955 3.36325 -3.41207 0
M  V30 1753 H 162.319 1.8556 -1.7447 0
M  V30 1754 H 163.102 1.11956 -3.24532 0
M  V30 1755 N 165.547 1.27147 0.931209 0
M  V30 1756 C 166.795 1.13055 1.6752 0
M  V30 1757 C 167.116 -0.324791 1.92276 0
M  V30 1758 O 166.386 -1.22775 1.52654 0
M  V30 1759 H 164.966 0.415391 0.620854 0
M  V30 1760 H 167.628 1.59623 1.11833 0
M  V30 1761 H 166.724 1.65694 2.64485 0
M  V30 1762 N 167.025 -1.13721 1.09112 0
M  V30 1763 C 167.972 -2.19031 0.727591 0
M  V30 1764 C 168.942 -1.63555 -0.289656 0
M  V30 1765 O 170.127 -1.90023 -0.172026 0
M  V30 1766 C 167.267 -3.4477 0.15082 0
M  V30 1767 C 166.38 -4.14365 1.22172 0
M  V30 1768 C 165.515 -5.27709 0.608042 0
M  V30 1769 C 164.554 -5.89147 1.66047 0
M  V30 1770 N 163.691 -6.93929 1.06806 0
M  V30 1771 H 168.531 -2.49475 1.62991 0
M  V30 1772 H 166.068 -1.22499 0.81439 0
M  V30 1773 H 168.026 -4.16714 -0.201358 0
M  V30 1774 H 166.656 -3.14787 -0.714783 0
M  V30 1775 H 165.708 -3.40737 1.69122 0
M  V30 1776 H 167.02 -4.56114 2.01895 0
M  V30 1777 H 166.174 -6.06355 0.204523 0
M  V30 1778 H 164.913 -4.872 -0.220769 0
M  V30 1779 H 163.918 -5.09198 2.07357 0
M  V30 1780 H 165.143 -6.31729 2.49189 0
M  V30 1781 H 163.089 -6.55483 0.260476 0
M  V30 1782 H 163.006 -7.34202 1.8023 0
M  V30 1783 H 164.274 -7.76434 0.690644 0
M  V30 1784 N 168.503 -0.877838 -1.30888 0
M  V30 1785 C 169.78 -0.413052 -1.91189 0
M  V30 1786 C 170.16 1.1056 -1.79832 0
M  V30 1787 O 169.508 1.93771 -1.21099 0
M  V30 1788 C 169.718 -0.903191 -3.3711 0
M  V30 1789 C 171.066 -0.93395 -4.14201 0
M  V30 1790 O 172.09 -0.849373 -3.45925 0
M  V30 1791 O 170.949 -1.05772 -5.36167 0
M  V30 1792 H 168.043 -0.125035 -0.817493 0
M  V30 1793 H 170.589 -0.966269 -1.39504 0
M  V30 1794 H 169.361 -1.94692 -3.39427 0
M  V30 1795 H 168.984 -0.328732 -3.96239 0
M  V30 1796 N 169.982 1.44106 -0.638065 0
M  V30 1797 C 170.929 2.30715 0.062701 0
M  V30 1798 C 171.899 1.43882 0.829883 0
M  V30 1799 O 173.084 1.72775 0.809532 0
M  V30 1800 C 170.224 3.29258 1.03358 0
M  V30 1801 C 169.337 4.31192 0.26409 0
M  V30 1802 C 168.472 5.16825 1.22741 0
M  V30 1803 C 167.511 6.10462 0.447475 0
M  V30 1804 N 166.648 6.8877 1.36161 0
M  V30 1805 H 171.488 2.90096 -0.681781 0
M  V30 1806 H 169.025 1.42925 -0.347988 0
M  V30 1807 H 170.983 3.84886 1.60992 0
M  V30 1808 H 169.613 2.71562 1.74511 0
M  V30 1809 H 168.665 3.77981 -0.428295 0
M  V30 1810 H 169.977 4.97619 -0.343052 0
M  V30 1811 H 169.131 5.77004 1.87487 0
M  V30 1812 H 167.87 4.50488 1.86847 0
M  V30 1813 H 166.875 5.49386 -0.213433 0
M  V30 1814 H 168.1 6.78837 -0.188968 0
M  V30 1815 H 166.046 6.25096 1.98975 0
M  V30 1816 H 165.963 7.51663 0.808656 0
M  V30 1817 H 167.231 7.53467 1.99769 0
M  V30 1818 N 171.46 0.379036 1.52974 0
M  V30 1819 C 172.707 -0.206421 2.01445 0
M  V30 1820 C 173.035 -1.47668 1.26587 0
M  V30 1821 O 172.29 -1.92514 0.351675 0
M  V30 1822 C 172.589 -0.53096 3.53434 0
M  V30 1823 C 172.255 0.646546 4.46241 0
M  V30 1824 C 170.917 0.969604 4.7133 0
M  V30 1825 C 173.269 1.43479 5.01062 0
M  V30 1826 C 170.597 2.08263 5.48492 0
M  V30 1827 C 172.949 2.53834 5.7944 0
M  V30 1828 C 171.613 2.86659 6.02812 0
M  V30 1829 H 170.883 -0.0755349 0.73714 0
M  V30 1830 H 173.53 0.514271 1.84465 0
M  V30 1831 H 171.835 -1.33285 3.68432 0
M  V30 1832 H 173.532 -0.996417 3.88423 0
M  V30 1833 H 170.122 0.384734 4.2687 0
M  V30 1834 H 174.306 1.19844 4.81613 0
M  V30 1835 H 169.562 2.34078 5.64816 0
M  V30 1836 H 173.736 3.15319 6.20924 0
M  V30 1837 H 171.363 3.73026 6.62387 0
M  V30 1838 N 172.938 -1.57226 0.108567 0
M  V30 1839 C 174.187 -1.94008 -0.551703 0
M  V30 1840 C 174.5 -0.993442 -1.68494 0
M  V30 1841 O 175.706 -1.25551 -2.40726 0
M  V30 1842 C 174.162 -3.44763 -1.03279 0
M  V30 1843 C 173.77 -4.47943 0.0714193 0
M  V30 1844 C 175.514 -3.90483 -1.66503 0
M  V30 1845 C 173.421 -5.89865 -0.425779 0
M  V30 1846 H 172.351 -0.724206 -0.209863 0
M  V30 1847 H 175.002 -1.82547 0.186741 0
M  V30 1848 H 173.384 -3.51422 -1.82533 0
M  V30 1849 H 174.558 -4.52942 0.847365 0
M  V30 1850 H 172.873 -4.11913 0.609669 0
M  V30 1851 H 175.47 -4.93925 -2.04798 0
M  V30 1852 H 175.813 -3.29877 -2.53942 0
M  V30 1853 H 176.346 -3.86581 -0.938074 0
M  V30 1854 H 173.085 -6.54202 0.412316 0
M  V30 1855 H 172.605 -5.88309 -1.16843 0
M  V30 1856 H 174.284 -6.40844 -0.890397 0
M  V30 1857 N 174.416 0.165178 -1.56732 0
M  V30 1858 C 175.693 0.908443 -1.73224 0
M  V30 1859 C 176.073 2.0013 -0.67165 0
M  V30 1860 O 175.421 2.26353 0.31253 0
M  V30 1861 C 175.631 1.46756 -3.16644 0
M  V30 1862 C 176.979 1.93809 -3.77787 0
M  V30 1863 O 178.003 1.56537 -3.1996 0
M  V30 1864 O 176.862 2.62486 -4.79336 0
M  V30 1865 H 173.956 0.428025 -0.707618 0
M  V30 1866 H 176.502 0.152526 -1.69013 0
M  V30 1867 H 175.274 0.68129 -3.85323 0
M  V30 1868 H 174.897 2.28749 -3.25207 0
M  V30 1869 N 175.894 1.51508 0.433938 0
M  V30 1870 C 177.122 1.68157 1.20543 0
M  V30 1871 C 177.537 0.380362 1.84929 0
M  V30 1872 O 176.894 -0.641446 1.70856 0
M  V30 1873 C 176.945 2.79965 2.28696 0
M  V30 1874 O 176.666 4.05045 1.66943 0
M  V30 1875 C 178.167 3.07912 3.18912 0
M  V30 1876 H 175.387 0.56421 0.363191 0
M  V30 1877 H 177.931 1.97941 0.513754 0
M  V30 1878 H 176.086 2.5277 2.93574 0
M  V30 1879 H 176.5 4.67165 2.38448 0
M  V30 1880 H 177.974 3.89719 3.90926 0
M  V30 1881 H 178.451 2.20456 3.79863 0
M  V30 1882 H 179.057 3.36779 2.59731 0
M  V30 1883 N 177.372 -0.689602 1.41712 0
M  V30 1884 C 178.618 -1.45041 1.42599 0
M  V30 1885 C 178.973 -1.92366 0.0363764 0
M  V30 1886 O 178.266 -1.67022 -0.938844 0
M  V30 1887 C 178.46 -2.67298 2.37247 0
M  V30 1888 C 178.289 -2.31935 3.85274 0
M  V30 1889 C 177.059 -2.2201 4.53916 0
M  V30 1890 C 179.257 -1.94526 4.76093 0
M  V30 1891 N 177.239 -1.79594 5.87043 0
M  V30 1892 C 178.61 -1.62915 5.98213 0
M  V30 1893 C 180.665 -1.81388 4.63684 0
M  V30 1894 C 179.368 -1.19486 7.09306 0
M  V30 1895 C 181.394 -1.39364 5.74745 0
M  V30 1896 C 180.756 -1.08668 6.95967 0
M  V30 1897 H 176.855 -0.527806 0.577014 0
M  V30 1898 H 179.439 -0.797266 1.77628 0
M  V30 1899 H 177.61 -3.30325 2.04304 0
M  V30 1900 H 179.342 -3.33806 2.28814 0
M  V30 1901 H 176.097 -2.406 4.07932 0
M  V30 1902 H 176.521 -1.60851 6.57614 0
M  V30 1903 H 181.163 -2.03772 3.70455 0
M  V30 1904 H 178.881 -0.958477 8.02396 0
M  V30 1905 H 182.467 -1.2974 5.6715 0
M  V30 1906 H 181.347 -0.766417 7.80446 0
M  V30 1907 N 178.85 -1.27639 -0.924453 0
M  V30 1908 C 179.797 -1.10644 -2.0255 0
M  V30 1909 C 180.767 -0.00658438 -1.66099 0
M  V30 1910 O 181.952 -0.16952 -1.90045 0
M  V30 1911 C 179.092 -0.76309 -3.36557 0
M  V30 1912 C 178.205 -1.94091 -3.85944 0
M  V30 1913 C 177.34 -1.53914 -5.08413 0
M  V30 1914 C 176.379 -2.68425 -5.50104 0
M  V30 1915 N 175.516 -2.28815 -6.63768 0
M  V30 1916 H 180.356 -2.04858 -2.16419 0
M  V30 1917 H 177.893 -1.01974 -1.06017 0
M  V30 1918 H 179.851 -0.544822 -4.13627 0
M  V30 1919 H 178.481 0.142102 -3.22487 0
M  V30 1920 H 177.533 -2.27162 -3.05125 0
M  V30 1921 H 178.845 -2.7998 -4.12811 0
M  V30 1922 H 177.999 -1.28231 -5.92994 0
M  V30 1923 H 176.738 -0.651391 -4.8333 0
M  V30 1924 H 175.743 -2.94819 -4.64071 0
M  V30 1925 H 176.968 -3.57826 -5.7718 0
M  V30 1926 H 174.914 -1.42495 -6.40337 0
M  V30 1927 H 174.831 -3.08242 -6.90306 0
M  V30 1928 H 176.099 -2.06387 -7.51681 0
M  V30 1929 N 180.328 1.1314 -1.09713 0
M  V30 1930 C 181.291 2.16831 -0.742751 0
M  V30 1931 C 182.291 1.59159 0.229129 0
M  V30 1932 O 183.481 1.74199 0.00693237 0
M  V30 1933 C 180.613 3.40756 -0.0989168 0
M  V30 1934 H 181.806 2.49695 -1.66109 0
M  V30 1935 H 179.359 1.2802 -0.896699 0
M  V30 1936 H 180.094 3.13485 0.830514 0
M  V30 1937 H 179.879 3.83888 -0.798265 0
M  V30 1938 H 181.369 4.17386 0.133524 0
M  V30 1939 N 181.806 0.884767 1.30421 0
M  V30 1940 C 183.053 0.503105 1.96151 0
M  V30 1941 C 183.381 -0.947676 1.69851 0
M  V30 1942 O 182.636 -1.68467 0.995861 0
M  V30 1943 C 182.935 0.724318 3.49983 0
M  V30 1944 C 182.601 2.15015 3.96332 0
M  V30 1945 C 181.263 2.54005 4.08699 0
M  V30 1946 C 183.615 3.07936 4.20505 0
M  V30 1947 C 180.943 3.85128 4.42599 0
M  V30 1948 C 183.295 4.3859 4.55874 0
M  V30 1949 C 181.959 4.77474 4.66449 0
M  V30 1950 H 181.229 0.184099 0.717766 0
M  V30 1951 H 183.876 1.12058 1.55291 0
M  V30 1952 H 182.181 0.0238086 3.91793 0
M  V30 1953 H 183.878 0.408617 3.98913 0
M  V30 1954 H 180.468 1.8375 3.87213 0
M  V30 1955 H 184.652 2.79033 4.10431 0
M  V30 1956 H 179.908 4.14996 4.48986 0
M  V30 1957 H 184.082 5.10629 4.7353 0
M  V30 1958 H 181.709 5.79115 4.92473 0
M  V30 1959 N 183.284 -1.43765 0.645699 0
M  V30 1960 C 184.194 -2.34544 -0.0512957 0
M  V30 1961 C 185.21 -1.53455 -0.82022 0
M  V30 1962 O 186.386 -1.86133 -0.769176 0
M  V30 1963 C 183.451 -3.31636 -1.01087 0
M  V30 1964 C 182.512 -4.2863 -0.239712 0
M  V30 1965 C 181.745 -5.21084 -1.15358 0
M  V30 1966 O 181.968 -5.1779 -2.39269 0
M  V30 1967 O 180.902 -5.98593 -0.630038 0
M  V30 1968 H 184.728 -2.95624 0.695718 0
M  V30 1969 H 182.313 -1.43781 0.405882 0
M  V30 1970 H 184.195 -3.9136 -1.56254 0
M  V30 1971 H 182.87 -2.73069 -1.73824 0
M  V30 1972 H 181.777 -3.72408 0.355356 0
M  V30 1973 H 183.11 -4.90157 0.447936 0
M  V30 1974 N 184.763 -0.387143 -1.52771 0
M  V30 1975 C 185.71 0.449048 -2.26389 0
M  V30 1976 C 186.68 1.05961 -1.27912 0
M  V30 1977 O 187.865 1.08804 -1.56737 0
M  V30 1978 C 185.005 1.57155 -3.0724 0
M  V30 1979 C 184.118 0.984066 -4.20643 0
M  V30 1980 C 183.253 2.07745 -4.88892 0
M  V30 1981 C 182.292 1.46574 -5.94292 0
M  V30 1982 N 181.429 2.49834 -6.56146 0
M  V30 1983 H 186.269 -0.185205 -2.97424 0
M  V30 1984 H 183.806 -0.103164 -1.46738 0
M  V30 1985 H 185.764 2.23309 -3.52405 0
M  V30 1986 H 184.394 2.17615 -2.38419 0
M  V30 1987 H 183.446 0.212193 -3.79808 0
M  V30 1988 H 184.758 0.497029 -4.96318 0
M  V30 1989 H 183.912 2.81673 -5.3735 0
M  V30 1990 H 182.651 2.59807 -4.12737 0
M  V30 1991 H 181.656 0.711696 -5.45174 0
M  V30 1992 H 182.881 0.953088 -6.72379 0
M  V30 1993 H 180.827 3.0107 -5.82832 0
M  V30 1994 H 180.744 2.05879 -7.27427 0
M  V30 1995 H 182.012 3.23399 -7.09249 0
M  V30 1996 N 186.241 1.57166 -0.116904 0
M  V30 1997 C 187.171 2.18222 0.830759 0
M  V30 1998 C 188.152 1.12167 1.27877 0
M  V30 1999 O 189.337 1.40394 1.34176 0
M  V30 2000 C 186.467 2.77996 2.08172 0
M  V30 2001 C 185.421 3.89614 1.77157 0
M  V30 2002 C 184.747 4.36187 3.09265 0
M  V30 2003 C 186.047 5.1181 1.04151 0
M  V30 2004 H 187.741 2.97664 0.321992 0
M  V30 2005 H 185.287 1.4318 0.153434 0
M  V30 2006 H 187.24 3.19366 2.74924 0
M  V30 2007 H 185.964 1.9584 2.6137 0
M  V30 2008 H 184.623 3.48816 1.12796 0
M  V30 2009 H 184.271 3.50893 3.60393 0
M  V30 2010 H 183.971 5.11455 2.89288 0
M  V30 2011 H 185.495 4.80207 3.77139 0
M  V30 2012 H 186.909 5.50214 1.61052 0
M  V30 2013 H 185.306 5.92648 0.942762 0
M  V30 2014 H 186.376 4.84892 0.0279022 0
M  V30 2015 N 187.719 -0.156864 1.56817 0
M  V30 2016 C 188.949 -0.885031 1.86684 0
M  V30 2017 C 189.357 -1.75696 0.701954 0
M  V30 2018 O 188.7 -1.80569 -0.337732 0
M  V30 2019 C 188.762 -1.80092 3.11138 0
M  V30 2020 C 188.426 -1.10714 4.43386 0
M  V30 2021 C 189.423 -0.465714 5.1781 0
M  V30 2022 C 187.108 -1.09959 4.90117 0
M  V30 2023 C 189.102 0.174002 6.37162 0
M  V30 2024 C 186.789 -0.456055 6.09396 0
M  V30 2025 C 187.787 0.179622 6.82764 0
M  V30 2026 O 187.475 0.812975 7.99779 0
M  V30 2027 H 187.207 -0.261813 0.623242 0
M  V30 2028 H 189.761 -0.157383 2.04796 0
M  V30 2029 H 187.991 -2.56926 2.89009 0
M  V30 2030 H 189.68 -2.40018 3.27332 0
M  V30 2031 H 190.446 -0.463427 4.82781 0
M  V30 2032 H 186.325 -1.58378 4.3294 0
M  V30 2033 H 189.869 0.670765 6.94368 0
M  V30 2034 H 185.766 -0.455975 6.43888 0
M  V30 2035 H 186.534 0.71366 8.15383 0
M  V30 2036 N 189.197 -1.51736 -0.425897 0
M  V30 2037 C 190.16 -1.73271 -1.50032 0
M  V30 2038 C 191.16 -0.602639 -1.4908 0
M  V30 2039 O 192.35 -0.87033 -1.509 0
M  V30 2040 C 189.482 -1.79969 -2.89523 0
M  V30 2041 H 190.675 -2.69172 -1.32237 0
M  V30 2042 H 188.228 -1.41899 -0.65532 0
M  V30 2043 H 188.963 -0.859241 -3.1271 0
M  V30 2044 H 188.748 -2.62109 -2.91619 0
M  V30 2045 H 190.238 -1.9843 -3.67444 0
M  V30 2046 N 190.675 0.682077 -1.42076 0
M  V30 2047 C 191.952 1.43755 -1.32642 0
M  V30 2048 C 192.332 2.11063 0.0396611 0
M  V30 2049 O 191.68 2.02701 1.05474 0
M  V30 2050 C 191.89 2.44596 -2.48946 0
M  V30 2051 C 193.238 3.09454 -2.9073 0
M  V30 2052 O 194.262 2.54922 -2.48783 0
M  V30 2053 O 193.121 4.08253 -3.63307 0
M  V30 2054 H 190.215 0.640857 -0.522715 0
M  V30 2055 H 192.761 0.711415 -1.54068 0
M  V30 2056 H 191.533 1.93609 -3.40046 0
M  V30 2057 H 191.156 3.24701 -2.29467 0
M  V30 2058 N 192.153 1.28127 0.917671 0
M  V30 2059 C 193.1 1.11717 2.0196 0
M  V30 2060 C 194.07 0.0153929 1.66093 0
M  V30 2061 O 195.255 0.179596 1.89953 0
M  V30 2062 C 192.395 0.780927 3.36148 0
M  V30 2063 C 191.508 1.96135 3.84909 0
M  V30 2064 C 190.643 1.56609 5.0759 0
M  V30 2065 C 189.682 2.71339 5.48673 0
M  V30 2066 N 188.819 2.32332 6.62545 0
M  V30 2067 H 193.659 2.06003 2.15329 0
M  V30 2068 H 191.196 1.02535 1.05475 0
M  V30 2069 H 193.154 0.56675 4.13333 0
M  V30 2070 H 191.784 -0.124998 3.22558 0
M  V30 2071 H 190.836 2.28777 3.03916 0
M  V30 2072 H 192.148 2.82165 4.1132 0
M  V30 2073 H 191.302 1.31374 5.92305 0
M  V30 2074 H 190.041 0.677014 4.82978 0
M  V30 2075 H 189.046 2.97276 4.62501 0
M  V30 2076 H 190.271 3.60882 5.75274 0
M  V30 2077 H 188.217 1.45889 6.39572 0
M  V30 2078 H 188.134 3.11899 6.88662 0
M  V30 2079 H 189.402 2.10371 7.50576 0
M  V30 2080 N 193.631 -1.12557 1.10312 0
M  V30 2081 C 194.578 -2.18247 0.750781 0
M  V30 2082 C 195.548 -1.63853 -0.272293 0
M  V30 2083 O 196.733 -1.90195 -0.151862 0
M  V30 2084 C 193.873 -3.44591 0.187379 0
M  V30 2085 C 192.986 -4.13046 1.2656 0
M  V30 2086 C 192.121 -5.27034 0.663978 0
M  V30 2087 C 191.16 -5.87353 1.72287 0
M  V30 2088 N 190.297 -6.92757 1.1416 0
M  V30 2089 H 195.137 -2.47732 1.65628 0
M  V30 2090 H 192.674 -1.21629 0.827337 0
M  V30 2091 H 194.632 -4.16904 -0.157148 0
M  V30 2092 H 193.262 -3.15527 -0.681355 0
M  V30 2093 H 192.314 -3.38924 1.72727 0
M  V30 2094 H 193.626 -4.53947 2.06721 0
M  V30 2095 H 192.78 -6.06104 0.268824 0
M  V30 2096 H 191.519 -4.87407 -0.169082 0
M  V30 2097 H 190.524 -5.06971 2.12746 0
M  V30 2098 H 191.749 -6.29051 2.55875 0
M  V30 2099 H 189.695 -6.5517 0.329984 0
M  V30 2100 H 189.612 -7.3225 1.88007 0
M  V30 2101 H 190.88 -7.75658 0.772956 0
M  V30 2102 N 195.109 -0.891671 -1.2995 0
M  V30 2103 C 196.355 -0.514261 -1.96171 0
M  V30 2104 C 196.688 0.935506 -1.70182 0
M  V30 2105 O 195.963 1.66204 -1.01028 0
M  V30 2106 C 196.246 -0.797719 -3.51153 0
M  V30 2107 C 196.099 -2.2986 -3.86632 0
M  V30 2108 C 197.418 -0.278749 -4.39216 0
M  V30 2109 H 194.537 -0.188314 -0.712535 0
M  V30 2110 H 197.179 -1.11689 -1.53706 0
M  V30 2111 H 195.329 -0.284826 -3.87455 0
M  V30 2112 H 197.001 -2.88042 -3.60319 0
M  V30 2113 H 195.244 -2.76257 -3.34462 0
M  V30 2114 H 195.915 -2.44753 -4.94773 0
M  V30 2115 H 198.391 -0.717825 -4.09862 0
M  V30 2116 H 197.267 -0.506353 -5.46559 0
M  V30 2117 H 197.528 0.820266 -4.34424 0
M  V30 2118 N 196.587 1.43421 -0.653314 0
M  V30 2119 C 198.003 1.56341 -0.320886 0
M  V30 2120 C 198.203 1.63696 1.17499 0
M  V30 2121 O 197.259 1.59208 1.95982 0
M  V30 2122 C 198.572 2.82424 -1.03233 0
M  V30 2123 C 200.12 2.96168 -1.01259 0
M  V30 2124 C 200.595 4.25084 -1.70492 0
M  V30 2125 N 202.086 4.31948 -1.67257 0
M  V30 2126 C 202.821 5.30466 -2.17701 0
M  V30 2127 N 202.317 6.35261 -2.76434 0
M  V30 2128 N 204.11 5.2212 -2.082 0
M  V30 2129 H 196.261 1.3689 -1.62403 0
M  V30 2130 H 198.524 0.657455 -0.682977 0
M  V30 2131 H 198.23 2.83053 -2.08744 0
M  V30 2132 H 198.104 3.72653 -0.583948 0
M  V30 2133 H 200.491 2.9508 0.0341235 0
M  V30 2134 H 200.572 2.07229 -1.49966 0
M  V30 2135 H 200.216 4.26932 -2.7512 0
M  V30 2136 H 200.146 5.1292 -1.19251 0
M  V30 2137 H 202.637 3.56838 -1.24398 0
M  V30 2138 H 202.95 7.06754 -3.12601 0
M  V30 2139 H 201.295 6.35884 -2.80495 0
M  V30 2140 H 204.486 4.39166 -1.62021 0
M  V30 2141 H 204.659 5.98739 -2.47822 0
M  V30 2142 N 198.065 0.39524 1.52563 0
M  V30 2143 C 199.028 -0.425001 2.25225 0
M  V30 2144 C 200.028 -0.985266 1.27079 0
M  V30 2145 O 201.218 -0.866332 1.5113 0
M  V30 2146 C 198.35 -1.59686 3.01186 0
M  V30 2147 H 199.543 0.211233 2.99155 0
M  V30 2148 H 197.096 0.147472 1.55603 0
M  V30 2149 H 197.831 -2.27035 2.31572 0
M  V30 2150 H 197.616 -1.20176 3.73229 0
M  V30 2151 H 199.106 -2.17743 3.5634 0
M  V30 2152 N 199.544 -1.57102 0.125237 0
M  V30 2153 C 200.793 -1.94582 -0.531095 0
M  V30 2154 C 201.106 -1.01126 -1.6743 0
M  V30 2155 O 202.312 -1.28097 -2.39381 0
M  V30 2156 C 200.768 -3.45839 -0.996164 0
M  V30 2157 C 200.376 -4.47842 0.118926 0
M  V30 2158 C 202.12 -3.92227 -1.62352 0
M  V30 2159 C 200.027 -5.90284 -0.363192 0
M  V30 2160 H 198.957 -0.726391 -0.20217 0
M  V30 2161 H 201.608 -1.82339 0.206092 0
M  V30 2162 H 199.99 -3.53338 -1.78796 0
M  V30 2163 H 201.164 -4.52018 0.895358 0
M  V30 2164 H 199.479 -4.11243 0.653324 0
M  V30 2165 H 202.076 -4.96069 -1.99548 0
M  V30 2166 H 202.419 -3.32552 -2.50429 0
M  V30 2167 H 202.952 -3.87554 -0.897019 0
M  V30 2168 H 199.691 -6.53728 0.481679 0
M  V30 2169 H 199.211 -5.89515 -1.10597 0
M  V30 2170 H 200.89 -6.41752 -0.822377 0
M  V30 2171 N 201.022 0.148545 -1.56898 0
M  V30 2172 C 202.27 0.859717 -1.82902 0
M  V30 2173 C 202.591 1.81775 -0.70588 0
M  V30 2174 O 201.861 1.93994 0.272586 0
M  V30 2175 H 200.441 0.320469 -0.674766 0
M  V30 2176 H 203.103 0.142918 -1.94375 0
M  V30 2177 H 202.199 1.4229 -2.77777 0
M  V30 2178 N 202.5 1.5196 0.417844 0
M  V30 2179 C 203.746 1.65836 1.16732 0
M  V30 2180 C 204.079 0.382881 1.90388 0
M  V30 2181 O 203.354 -0.618368 1.84408 0
M  V30 2182 C 203.637 2.87466 2.16876 0
M  V30 2183 C 203.49 4.25041 1.47174 0
M  V30 2184 C 204.809 3.04613 3.17646 0
M  V30 2185 H 201.928 0.603515 0.423011 0
M  V30 2186 H 204.57 1.84494 0.454105 0
M  V30 2187 H 202.72 2.71689 2.777 0
M  V30 2188 H 204.392 4.52527 0.895376 0
M  V30 2189 H 202.635 4.26843 0.773806 0
M  V30 2190 H 203.306 5.06176 2.20204 0
M  V30 2191 H 205.782 3.1923 2.66892 0
M  V30 2192 H 204.658 3.91247 3.8499 0
M  V30 2193 H 204.919 2.17541 3.84874 0
M  V30 2194 N 203.978 -0.674533 1.42435 0
M  V30 2195 C 205.203 -1.46784 1.46524 0
M  V30 2196 C 205.628 -1.87938 0.078066 0
M  V30 2197 O 204.986 -1.56014 -0.92354 0
M  V30 2198 C 205.034 -2.69307 2.39805 0
M  V30 2199 O 204.138 -3.67587 1.86959 0
M  V30 2200 H 203.479 -0.440959 0.496439 0
M  V30 2201 H 206.009 -0.827326 1.87127 0
M  V30 2202 H 206.019 -3.17374 2.56393 0
M  V30 2203 H 204.694 -2.38692 3.40586 0
M  V30 2204 H 203.271 -3.2662 1.79927 0
M  V30 2205 N 205.456 -1.28612 -0.910864 0
M  V30 2206 C 206.404 -1.1265 -2.03501 0
M  V30 2207 C 207.398 -0.0450054 -1.6934 0
M  V30 2208 O 208.604 -0.203988 -1.7884 0
M  V30 2209 H 204.979 -0.347639 -0.666822 0
M  V30 2210 H 206.95 -2.07849 -2.14106 0
M  V30 2211 C 205.699 -0.808143 -3.38178 0
M  V30 2212 H 205.022 -1.63231 -3.6496 0
M  V30 2213 H 206.462 -0.736426 -4.17556 0
M  V30 2214 C 204.921 0.488226 -3.33344 0
M  V30 2215 O 205.451 1.51766 -3.71927 0
M  V30 2216 N 203.657 0.490009 -2.86439 0
M  V30 2217 H 203.204 -0.348161 -2.55236 0
M  V30 2218 H 203.162 1.35741 -2.83587 0
M  V30 2219 N 206.934 1.1197 -1.10907 0
M  V30 2220 C 208.181 1.83588 -0.854507 0
M  V30 2221 C 208.509 1.84357 0.6199 0
M  V30 2222 O 207.764 1.28809 1.47332 0
M  V30 2223 C 208.063 3.30749 -1.35425 0
M  V30 2224 C 207.729 3.50146 -2.84093 0
M  V30 2225 C 206.391 3.55148 -3.2469 0
M  V30 2226 C 208.743 3.56857 -3.79872 0
M  V30 2227 C 206.071 3.6441 -4.59806 0
M  V30 2228 C 208.423 3.6765 -5.14797 0
M  V30 2229 C 207.087 3.7091 -5.54961 0
M  V30 2230 H 206.357 0.671795 -0.312686 0
M  V30 2231 H 209.004 1.32091 -1.38652 0
M  V30 2232 H 207.309 3.84703 -0.742361 0
M  V30 2233 H 209.006 3.8464 -1.1337 0
M  V30 2234 H 205.596 3.46919 -2.51685 0
M  V30 2235 H 209.78 3.52258 -3.49611 0
M  V30 2236 H 205.036 3.65208 -4.9034 0
M  V30 2237 H 209.21 3.71786 -5.88853 0
M  V30 2238 H 206.837 3.7784 -6.59652 0
M  V30 2239 N 208.412 0.89855 1.29475 0
M  V30 2240 C 209.362 0.346767 2.25348 0
M  V30 2241 C 210.346 -0.532509 1.51833 0
M  V30 2242 O 211.538 -0.374714 1.72988 0
M  V30 2243 C 208.667 -0.425681 3.40651 0
M  V30 2244 C 207.753 0.46845 4.21505 0
M  V30 2245 N 208.144 1.57514 4.80648 0
M  V30 2246 C 206.442 0.26603 4.45206 0
M  V30 2247 C 207.143 2.12889 5.41344 0
M  V30 2248 N 206.119 1.42208 5.24669 0
M  V30 2249 H 209.921 1.19219 2.68634 0
M  V30 2250 H 207.435 0.749473 1.44072 0
M  V30 2251 H 209.432 -0.837716 4.08397 0
M  V30 2252 H 208.092 -1.26838 2.98902 0
M  V30 2253 H 209.103 1.95789 4.79465 0
M  V30 2254 H 205.78 -0.538394 4.14014 0
M  V30 2255 H 207.17 3.05901 5.98226 0
M  V30 2256 N 209.89 -1.43072 0.660911 0
M  V30 2257 C 210.8 -2.34585 -0.0264163 0
M  V30 2258 C 211.816 -1.54316 -0.803898 0
M  V30 2259 O 212.992 -1.86939 -0.749391 0
M  V30 2260 C 210.057 -3.32689 -0.975639 0
M  V30 2261 C 209.118 -4.2886 -0.194236 0
M  V30 2262 C 208.351 -5.22278 -1.09825 0
M  V30 2263 O 208.574 -5.20299 -2.33763 0
M  V30 2264 O 207.508 -5.99228 -0.566513 0
M  V30 2265 H 211.334 -2.94869 0.727034 0
M  V30 2266 H 208.919 -1.43342 0.42111 0
M  V30 2267 H 210.801 -3.92995 -1.52094 0
M  V30 2268 H 209.476 -2.74898 -1.70918 0
M  V30 2269 H 208.383 -3.72011 0.394835 0
M  V30 2270 H 209.716 -4.89655 0.499899 0
M  V30 2271 N 211.368 -0.403325 -1.52352 0
M  V30 2272 C 212.318 0.442244 -2.2367 0
M  V30 2273 C 213.302 1.01823 -1.24583 0
M  V30 2274 O 214.494 0.942005 -1.49851 0
M  V30 2275 C 211.623 1.5615 -3.05732 0
M  V30 2276 C 210.709 0.996575 -4.12225 0
M  V30 2277 N 211.1 0.157804 -5.05554 0
M  V30 2278 C 209.398 1.26767 -4.27605 0
M  V30 2279 C 210.099 -0.155853 -5.81491 0
M  V30 2280 N 209.075 0.451775 -5.41719 0
M  V30 2281 H 212.877 -0.204964 -2.93184 0
M  V30 2282 H 210.391 -0.213418 -1.60992 0
M  V30 2283 H 212.388 2.17981 -3.55373 0
M  V30 2284 H 211.048 2.21139 -2.37755 0
M  V30 2285 H 212.059 -0.206049 -5.1749 0
M  V30 2286 H 208.736 1.91757 -3.70858 0
M  V30 2287 H 210.126 -0.836329 -6.66675 0
M  V30 2288 N 212.846 1.57033 -0.133567 0
M  V30 2289 C 213.796 2.12641 0.822671 0
M  V30 2290 C 214.78 1.05081 1.21847 0
M  V30 2291 O 215.972 1.31287 1.18713 0
M  V30 2292 C 213.101 2.74094 2.06706 0
M  V30 2293 C 212.187 3.88757 1.69497 0
M  V30 2294 N 212.578 4.95194 1.03037 0
M  V30 2295 C 210.876 3.99213 1.98859 0
M  V30 2296 C 211.577 5.75414 0.852873 0
M  V30 2297 N 210.553 5.25726 1.3825 0
M  V30 2298 H 214.355 2.92308 0.305537 0
M  V30 2299 H 211.869 1.62256 0.0684276 0
M  V30 2300 H 213.866 3.12285 2.76195 0
M  V30 2301 H 212.526 1.95896 2.5895 0
M  V30 2302 H 213.537 5.13247 0.692669 0
M  V30 2303 H 210.214 3.32075 2.53047 0
M  V30 2304 H 211.604 6.71089 0.330091 0
M  V30 2305 N 214.325 -0.140222 1.56975 0
M  V30 2306 C 215.574 -0.850152 1.82908 0
M  V30 2307 C 215.887 -1.82028 0.715892 0
M  V30 2308 O 217.093 -2.57485 0.861016 0
M  V30 2309 C 215.549 -1.5625 3.24213 0
M  V30 2310 C 215.157 -0.63443 4.43485 0
M  V30 2311 C 216.901 -2.25881 3.59413 0
M  V30 2312 C 214.808 -1.34879 5.75814 0
M  V30 2313 H 213.738 -0.321221 0.682153 0
M  V30 2314 H 216.389 -0.102874 1.83211 0
M  V30 2315 H 214.771 -2.35565 3.18316 0
M  V30 2316 H 215.945 0.12398 4.60633 0
M  V30 2317 H 214.26 -0.0461836 4.16374 0
M  V30 2318 H 216.857 -2.79978 4.5554 0
M  V30 2319 H 217.2 -3.02693 2.85802 0
M  V30 2320 H 217.733 -1.53477 3.67001 0
M  V30 2321 H 214.472 -0.622385 6.52539 0
M  V30 2322 H 213.992 -2.07974 5.6259 0
M  V30 2323 H 215.671 -1.88784 6.18845 0
M  V30 2324 N 215.803 -1.52179 -0.40978 0
M  V30 2325 C 216.713 -1.78364 -1.52392 0
M  V30 2326 C 217.729 -0.669183 -1.60617 0
M  V30 2327 O 218.905 -0.954518 -1.77344 0
M  V30 2328 C 215.97 -1.92822 -2.88133 0
M  V30 2329 C 215.031 -3.16725 -2.898 0
M  V30 2330 C 214.264 -3.30483 -4.19067 0
M  V30 2331 O 214.487 -2.49522 -5.12928 0
M  V30 2332 O 213.421 -4.2363 -4.27576 0
M  V30 2333 H 217.247 -2.72931 -1.33201 0
M  V30 2334 H 214.832 -1.37016 -0.59557 0
M  V30 2335 H 216.714 -2.04157 -3.68643 0
M  V30 2336 H 215.389 -1.01444 -3.07393 0
M  V30 2337 H 214.296 -3.10848 -2.08146 0
M  V30 2338 H 215.629 -4.07881 -2.75489 0
M  V30 2339 N 217.281 0.66697 -1.42791 0
M  V30 2340 C 218.191 1.80962 -1.49299 0
M  V30 2341 C 219.207 1.69775 -0.381108 0
M  V30 2342 O 220.383 1.91188 -0.633188 0
M  V30 2343 C 217.448 3.17156 -1.40045 0
M  V30 2344 C 216.509 3.40242 -2.6179 0
M  V30 2345 C 215.742 4.69939 -2.52969 0
M  V30 2346 O 215.965 5.48372 -1.56985 0
M  V30 2347 O 214.899 4.94441 -3.43237 0
M  V30 2348 H 218.725 1.78427 -2.45759 0
M  V30 2349 H 216.31 0.823713 -1.24641 0
M  V30 2350 H 218.192 3.98413 -1.37276 0
M  V30 2351 H 216.867 3.20312 -0.467138 0
M  V30 2352 H 215.774 2.58802 -2.70134 0
M  V30 2353 H 217.107 3.41923 -3.54047 0
M  V30 2354 N 218.759 1.29093 0.90403 0
M  V30 2355 C 219.689 1.16401 2.02418 0
M  V30 2356 C 220.67 0.0593085 1.69997 0
M  V30 2357 O 221.855 0.238021 1.92736 0
M  V30 2358 C 218.985 0.835233 3.37107 0
M  V30 2359 C 217.939 1.89578 3.83724 0
M  V30 2360 C 217.265 1.42041 5.15489 0
M  V30 2361 C 218.565 3.30394 4.04521 0
M  V30 2362 H 220.259 2.10109 2.13295 0
M  V30 2363 H 217.805 1.01157 1.02486 0
M  V30 2364 H 219.758 0.733169 4.14973 0
M  V30 2365 H 218.482 -0.137543 3.2631 0
M  V30 2366 H 217.141 1.98715 3.08071 0
M  V30 2367 H 216.789 0.436426 5.01103 0
M  V30 2368 H 216.489 2.12964 5.4765 0
M  V30 2369 H 218.013 1.33176 5.959 0
M  V30 2370 H 219.427 3.24123 4.72882 0
M  V30 2371 H 217.824 3.99237 4.48029 0
M  V30 2372 H 218.894 3.73692 3.09002 0
M  V30 2373 N 220.237 -1.11381 1.11499 0
M  V30 2374 C 221.167 -2.19509 0.796125 0
M  V30 2375 C 222.148 -1.68458 -0.235796 0
M  V30 2376 O 223.333 -1.93947 -0.0991344 0
M  V30 2377 C 220.463 -3.46475 0.239205 0
M  V30 2378 C 219.417 -4.10744 1.20307 0
M  V30 2379 C 218.743 -5.32293 0.50683 0
M  V30 2380 C 220.043 -4.55597 2.55399 0
M  V30 2381 H 221.737 -2.46439 1.70024 0
M  V30 2382 H 219.283 -1.18446 0.818935 0
M  V30 2383 H 221.236 -4.214 0.00392006 0
M  V30 2384 H 219.96 -3.19006 -0.700206 0
M  V30 2385 H 218.619 -3.37813 1.42399 0
M  V30 2386 H 218.267 -5.01095 -0.437408 0
M  V30 2387 H 217.967 -5.76243 1.1497 0
M  V30 2388 H 219.491 -6.09956 0.280351 0
M  V30 2389 H 220.905 -5.21841 2.37391 0
M  V30 2390 H 219.302 -5.10363 3.15673 0
M  V30 2391 H 220.372 -3.69013 3.14575 0
M  V30 2392 N 221.715 -0.905404 -1.28997 0
M  V30 2393 C 222.662 -0.385892 -2.27551 0
M  V30 2394 C 223.632 0.535113 -1.57244 0
M  V30 2395 O 224.817 0.459119 -1.85194 0
M  V30 2396 C 221.957 0.375461 -3.43051 0
M  V30 2397 C 221.07 -0.577092 -4.28128 0
M  V30 2398 C 220.205 0.201879 -5.30816 0
M  V30 2399 C 219.244 -0.744829 -6.07551 0
M  V30 2400 N 218.381 9.42587e-05 -7.021 0
M  V30 2401 H 223.221 -1.23139 -2.71368 0
M  V30 2402 H 220.758 -0.618542 -1.33463 0
M  V30 2403 H 222.716 0.832992 -4.088 0
M  V30 2404 H 221.346 1.18537 -3.00248 0
M  V30 2405 H 220.398 -1.15315 -3.62501 0
M  V30 2406 H 221.71 -1.30152 -4.8152 0
M  V30 2407 H 220.864 0.720351 -6.02408 0
M  V30 2408 H 219.603 0.959413 -4.7817 0
M  V30 2409 H 218.608 -1.27475 -5.34818 0
M  V30 2410 H 219.833 -1.50178 -6.62286 0
M  V30 2411 H 217.779 0.739791 -6.51815 0
M  V30 2412 H 217.696 -0.664321 -7.53076 0
M  V30 2413 H 218.964 0.498644 -7.77903 0
M  V30 2414 N 223.193 1.4272 -0.668489 0
M  V30 2415 C 224.143 2.27971 0.0363806 0
M  V30 2416 C 225.127 1.40741 0.779794 0
M  V30 2417 O 226.319 1.64245 0.659745 0
M  V30 2418 C 223.448 3.28673 0.991398 0
M  V30 2419 C 222.534 4.23388 0.245658 0
M  V30 2420 N 222.925 5.00267 -0.746069 0
M  V30 2421 C 221.223 4.43355 0.484988 0
M  V30 2422 C 221.924 5.69396 -1.19009 0
M  V30 2423 N 220.9 5.41095 -0.521287 0
M  V30 2424 H 224.702 2.84833 -0.724394 0
M  V30 2425 H 222.216 1.54607 -0.497028 0
M  V30 2426 H 224.213 3.88543 1.51129 0
M  V30 2427 H 222.873 2.73373 1.75207 0
M  V30 2428 H 223.884 5.05525 -1.12537 0
M  V30 2429 H 220.561 3.99104 1.22565 0
M  V30 2430 H 221.951 6.41083 -2.01153 0
M  V30 2431 N 224.671 0.411399 1.52136 0
M  V30 2432 C 225.911 -0.163143 2.03748 0
M  V30 2433 C 226.275 -1.42187 1.29022 0
M  V30 2434 O 227.476 -2.075 1.70872 0
M  V30 2435 C 225.747 -0.402651 3.55125 0
M  V30 2436 S 227.306 -0.944315 4.28519 0
M  V30 2437 H 224.124 -0.0439833 0.709638 0
M  V30 2438 H 226.726 0.56484 1.87163 0
M  V30 2439 H 225.43 0.520212 4.0709 0
M  V30 2440 H 224.961 -1.15844 3.75957 0
M  V30 2441 H 226.976 -2.22463 4.43536 0
M  V30 2442 N 226.149 -1.5696 0.141893 0
M  V30 2443 C 227.096 -2.16501 -0.799737 0
M  V30 2444 C 228.066 -1.09643 -1.24771 0
M  V30 2445 O 229.251 -1.3766 -1.32115 0
M  V30 2446 C 226.391 -2.78679 -2.03549 0
M  V30 2447 C 225.504 -3.99914 -1.6338 0
M  V30 2448 C 224.639 -4.50106 -2.82096 0
M  V30 2449 C 223.678 -5.63819 -2.38275 0
M  V30 2450 N 222.815 -6.08651 -3.49983 0
M  V30 2451 H 227.655 -2.96632 -0.285179 0
M  V30 2452 H 225.192 -1.46533 -0.129053 0
M  V30 2453 H 227.15 -3.1287 -2.75986 0
M  V30 2454 H 225.78 -2.012 -2.52425 0
M  V30 2455 H 224.832 -3.71735 -0.807279 0
M  V30 2456 H 226.144 -4.82311 -1.27192 0
M  V30 2457 H 225.298 -4.86325 -3.62729 0
M  V30 2458 H 224.037 -3.66706 -3.21525 0
M  V30 2459 H 223.042 -5.2718 -1.56081 0
M  V30 2460 H 224.267 -6.49 -1.99938 0
M  V30 2461 H 222.213 -5.28188 -3.89042 0
M  V30 2462 H 222.13 -6.85961 -3.17794 0
M  V30 2463 H 223.398 -6.49515 -4.30988 0
M  V30 2464 N 227.627 0.131896 -1.57047 0
M  V30 2465 C 228.873 0.843179 -1.84441 0
M  V30 2466 C 229.206 1.80129 -0.725749 0
M  V30 2467 O 228.481 1.92624 0.269469 0
M  V30 2468 C 228.764 1.60442 -3.22382 0
M  V30 2469 C 228.617 0.666782 -4.4483 0
M  V30 2470 C 229.936 2.56354 -3.5773 0
M  V30 2471 H 227.055 0.305081 -0.670891 0
M  V30 2472 H 229.697 0.107839 -1.89694 0
M  V30 2473 H 227.847 2.23128 -3.18035 0
M  V30 2474 H 229.519 0.0497646 -4.61273 0
M  V30 2475 H 227.762 -0.022609 -4.33794 0
M  V30 2476 H 228.433 1.23579 -5.37989 0
M  V30 2477 H 230.909 2.0378 -3.62785 0
M  V30 2478 H 229.785 3.06657 -4.5525 0
M  V30 2479 H 230.046 3.38419 -2.84473 0
M  V30 2480 N 229.106 1.52395 0.401703 0
M  V30 2481 C 230.069 1.75636 1.47257 0
M  V30 2482 C 231.069 0.62628 1.48103 0
M  V30 2483 O 232.259 0.894227 1.49497 0
M  V30 2484 C 229.391 1.84553 2.86624 0
M  V30 2485 H 230.584 2.71241 1.27938 0
M  V30 2486 H 228.137 1.42923 0.632662 0
M  V30 2487 H 228.872 0.908882 3.11303 0
M  V30 2488 H 228.657 2.66715 2.87412 0
M  V30 2489 H 230.147 2.04251 3.64241 0
M  V30 2490 N 230.584 -0.659388 1.43143 0
M  V30 2491 C 231.995 -1.24041 1.39537 0
M  V30 2492 C 232.346 -1.95963 0.0963364 0
M  V30 2493 O 231.471 -2.00892 -0.804438 0
M  V30 2494 C 232.066 -2.25601 2.52764 0
M  V30 2495 C 230.625 -2.79195 2.52443 0
M  V30 2496 C 229.772 -1.53743 2.30778 0
M  V30 2497 H 232.723 -0.451792 1.52133 0
M  V30 2498 H 232.744 -3.07651 2.23899 0
M  V30 2499 H 232.256 -1.73226 3.47296 0
M  V30 2500 H 230.357 -3.35649 1.61773 0
M  V30 2501 H 230.47 -3.2716 3.50004 0
M  V30 2502 H 228.834 -1.80869 1.79328 0
M  V30 2503 H 229.617 -1.03312 3.27386 0
M  V30 2504 N 232.062 -1.29571 -0.897171 0
M  V30 2505 C 232.995 -1.0924 -2.00354 0
M  V30 2506 C 233.973 -0.00354011 -1.626 0
M  V30 2507 O 235.157 -0.15473 -1.87864 0
M  V30 2508 C 232.284 -0.66352 -3.32137 0
M  V30 2509 C 231.33 -1.75146 -3.88878 0
M  V30 2510 S 232.163 -3.35124 -4.17674 0
M  V30 2511 C 233.319 -2.9411 -5.52494 0
M  V30 2512 H 233.552 -2.02907 -2.17292 0
M  V30 2513 H 231.085 -1.13746 -1.04408 0
M  V30 2514 H 233.043 -0.422791 -4.08317 0
M  V30 2515 H 231.704 0.253588 -3.13075 0
M  V30 2516 H 230.897 -1.40337 -4.84068 0
M  V30 2517 H 230.499 -1.94584 -3.19395 0
M  V30 2518 H 232.791 -2.41312 -6.33068 0
M  V30 2519 H 233.734 -3.88161 -5.9223 0
M  V30 2520 H 234.142 -2.32332 -5.14473 0
M  V30 2521 N 233.54 1.10788 -1.12088 0
M  V30 2522 C 234.786 1.82942 -0.875226 0
M  V30 2523 C 235.119 1.84779 0.597538 0
M  V30 2524 O 234.394 1.30578 1.44152 0
M  V30 2525 C 234.677 3.29789 -1.44606 0
M  V30 2526 C 234.53 3.36307 -2.98693 0
M  V30 2527 C 235.849 4.26064 -1.10261 0
M  V30 2528 H 232.968 0.664195 -0.319397 0
M  V30 2529 H 235.61 1.29867 -1.38689 0
M  V30 2530 H 233.76 3.75118 -1.01089 0
M  V30 2531 H 235.432 2.99487 -3.50864 0
M  V30 2532 H 233.675 2.76318 -3.34411 0
M  V30 2533 H 234.346 4.39694 -3.33726 0
M  V30 2534 H 236.822 3.88951 -1.4784 0
M  V30 2535 H 235.698 5.27183 -1.52869 0
M  V30 2536 H 235.959 4.42098 -0.0142953 0
M  V30 2537 N 235.018 0.912232 1.28515 0
M  V30 2538 C 235.966 0.389597 2.29314 0
M  V30 2539 C 236.96 -0.517915 1.61289 0
M  V30 2540 O 238.166 -0.399328 1.75515 0
M  V30 2541 H 234.541 0.107386 0.744293 0
M  V30 2542 H 236.512 1.25286 2.70825 0
M  V30 2543 C 235.261 -0.356496 3.45868 0
M  V30 2544 H 234.584 0.332608 3.98414 0
M  V30 2545 H 236.024 -0.686851 4.184 0
M  V30 2546 C 234.483 -1.56383 2.98406 0
M  V30 2547 O 235.013 -2.66294 3.00749 0
M  V30 2548 N 233.219 -1.41029 2.54085 0
M  V30 2549 H 232.766 -0.516089 2.52377 0
M  V30 2550 H 232.724 -2.21939 2.22689 0
M  V30 2551 N 236.496 -1.42363 0.676048 0
M  V30 2552 C 237.428 -2.29164 -0.0404605 0
M  V30 2553 C 238.441 -1.43747 -0.764245 0
M  V30 2554 O 239.63 -1.67453 -0.618195 0
M  V30 2555 C 236.73 -3.21196 -1.08103 0
M  V30 2556 C 235.903 -4.35273 -0.430812 0
M  V30 2557 C 234.962 -5.08017 -1.37133 0
M  V30 2558 O 233.988 -5.62494 -0.87116 0
M  V30 2559 N 235.19 -5.13647 -2.70456 0
M  V30 2560 H 237.955 -2.91298 0.704667 0
M  V30 2561 H 235.516 -1.53303 0.520559 0
M  V30 2562 H 237.508 -3.66728 -1.71152 0
M  V30 2563 H 236.078 -2.60505 -1.72788 0
M  V30 2564 H 235.298 -3.92372 0.379209 0
M  V30 2565 H 236.586 -5.08795 0.0221132 0
M  V30 2566 H 235.984 -4.708 -3.1363 0
M  V30 2567 H 234.541 -5.62821 -3.28749 0
M  V30 2568 N 237.974 -0.419461 -1.51915 0
M  V30 2569 C 239.223 0.154346 -2.01109 0
M  V30 2570 C 239.536 1.45338 -1.30905 0
M  V30 2571 O 240.742 2.10906 -1.7097 0
M  V30 2572 C 239.198 0.325615 -3.58424 0
M  V30 2573 C 238.806 -0.961934 -4.37551 0
M  V30 2574 C 240.55 0.854155 -4.15818 0
M  V30 2575 C 238.457 -0.757287 -5.86531 0
M  V30 2576 H 237.387 0.0614563 -0.751491 0
M  V30 2577 H 240.038 -0.54649 -1.75173 0
M  V30 2578 H 238.42 1.08903 -3.80731 0
M  V30 2579 H 239.594 -1.7323 -4.26999 0
M  V30 2580 H 237.909 -1.41766 -3.91524 0
M  V30 2581 H 240.506 1.02346 -5.24814 0
M  V30 2582 H 240.849 1.83172 -3.73837 0
M  V30 2583 H 241.382 0.149528 -3.97519 0
M  V30 2584 H 238.121 -1.70671 -6.32892 0
M  V30 2585 H 237.641 -0.0264061 -5.99794 0
M  V30 2586 H 239.32 -0.403482 -6.45741 0
M  V30 2587 N 239.452 1.56882 -0.150215 0
M  V30 2588 C 240.362 2.20494 0.801222 0
M  V30 2589 C 241.378 1.19019 1.26927 0
M  V30 2590 O 242.554 1.51607 1.32579 0
M  V30 2591 C 239.619 2.81659 2.02161 0
M  V30 2592 C 238.68 3.9827 1.60249 0
M  V30 2593 C 237.913 4.56508 2.7647 0
M  V30 2594 O 238.136 4.13627 3.92771 0
M  V30 2595 O 237.07 5.46719 2.51757 0
M  V30 2596 H 240.896 3.02315 0.289717 0
M  V30 2597 H 238.481 1.49202 0.0769684 0
M  V30 2598 H 240.363 3.20522 2.73576 0
M  V30 2599 H 239.038 2.02849 2.52258 0
M  V30 2600 H 237.945 3.64117 0.858477 0
M  V30 2601 H 239.278 4.78609 1.14864 0
M  V30 2602 N 240.93 -0.123565 1.57115 0
M  V30 2603 C 241.86 -1.15309 2.03042 0
M  V30 2604 C 242.841 -1.43454 0.914061 0
M  V30 2605 O 244.026 -1.53973 1.18347 0
M  V30 2606 C 241.156 -2.48043 2.43089 0
M  V30 2607 C 240.11 -2.3437 3.58127 0
M  V30 2608 C 239.436 -3.72026 3.84059 0
M  V30 2609 C 240.736 -1.80804 4.90007 0
M  V30 2610 H 242.43 -0.771102 2.893 0
M  V30 2611 H 239.976 -0.369479 1.39179 0
M  V30 2612 H 241.929 -3.20311 2.73823 0
M  V30 2613 H 240.653 -2.88122 1.53796 0
M  V30 2614 H 239.312 -1.64551 3.27595 0
M  V30 2615 H 238.96 -4.09582 2.91979 0
M  V30 2616 H 238.66 -3.63732 4.6149 0
M  V30 2617 H 240.184 -4.45806 4.1724 0
M  V30 2618 H 241.598 -2.42886 5.19307 0
M  V30 2619 H 239.995 -1.83343 5.71407 0
M  V30 2620 H 241.065 -0.76528 4.78823 0
M  V30 2621 N 242.408 -1.52605 -0.393616 0
M  V30 2622 C 243.358 -1.73436 -1.48 0
M  V30 2623 C 244.342 -0.588386 -1.49756 0
M  V30 2624 O 245.534 -0.846047 -1.5547 0
M  V30 2625 C 242.663 -1.90247 -2.85764 0
M  V30 2626 C 241.749 -3.10763 -2.88595 0
M  V30 2627 N 242.14 -4.33196 -2.61103 0
M  V30 2628 C 240.438 -3.10914 -3.19763 0
M  V30 2629 C 241.139 -5.1477 -2.70899 0
M  V30 2630 N 240.115 -4.50356 -3.04435 0
M  V30 2631 H 243.917 -2.65727 -1.25563 0
M  V30 2632 H 241.431 -1.5085 -0.601513 0
M  V30 2633 H 243.428 -2.03291 -3.63976 0
M  V30 2634 H 242.088 -0.991663 -3.09186 0
M  V30 2635 H 243.099 -4.61408 -2.35209 0
M  V30 2636 H 239.776 -2.29626 -3.4868 0
M  V30 2637 H 241.166 -6.22355 -2.53227 0
M  V30 2638 N 243.887 0.651787 -1.4349 0
M  V30 2639 C 245.298 1.233 -1.40193 0
M  V30 2640 C 245.649 1.9591 -0.106727 0
M  V30 2641 O 244.774 2.01316 0.793773 0
M  V30 2642 C 245.369 2.24257 -2.53957 0
M  V30 2643 C 243.928 2.77852 -2.5392 0
M  V30 2644 C 243.075 1.52517 -2.3159 0
M  V30 2645 H 246.026 0.443717 -1.52371 0
M  V30 2646 H 246.047 3.0646 -2.25528 0
M  V30 2647 H 245.559 1.71382 -3.4821 0
M  V30 2648 H 243.66 3.34786 -1.63551 0
M  V30 2649 H 243.773 3.25299 -3.51735 0
M  V30 2650 H 242.137 1.79915 -1.80285 0
M  V30 2651 H 242.92 1.01574 -3.27929 0
M  V30 2652 N 245.365 1.30045 0.890287 0
M  V30 2653 C 246.295 1.18541 2.01172 0
M  V30 2654 C 247.276 0.0773356 1.69924 0
M  V30 2655 O 248.461 0.25845 1.92473 0
M  V30 2656 C 245.591 0.870941 3.36202 0
M  V30 2657 C 244.545 1.93637 3.81692 0
M  V30 2658 C 243.871 1.475 5.13953 0
M  V30 2659 C 245.171 3.34666 4.00994 0
M  V30 2660 H 246.865 2.12359 2.11054 0
M  V30 2661 H 244.411 1.02238 1.01407 0
M  V30 2662 H 246.364 0.777141 4.14172 0
M  V30 2663 H 245.088 -0.102926 3.26438 0
M  V30 2664 H 243.747 2.01972 3.05946 0
M  V30 2665 H 243.395 0.489551 5.00612 0
M  V30 2666 H 243.095 2.1876 5.4536 0
M  V30 2667 H 244.619 1.39489 5.94454 0
M  V30 2668 H 246.033 3.2912 4.69417 0
M  V30 2669 H 244.43 4.03966 4.43769 0
M  V30 2670 H 245.5 3.76949 3.05021 0
M  V30 2671 N 246.843 -1.10192 1.12674 0
M  V30 2672 C 247.773 -2.18652 0.819362 0
M  V30 2673 C 248.754 -1.68698 -0.217915 0
M  V30 2674 O 249.939 -1.94041 -0.0785581 0
M  V30 2675 C 247.069 -3.46202 0.27594 0
M  V30 2676 C 246.023 -4.09444 1.24656 0
M  V30 2677 C 245.349 -5.31725 0.563258 0
M  V30 2678 C 246.649 -4.52863 2.60217 0
M  V30 2679 H 248.343 -2.44622 1.72628 0
M  V30 2680 H 245.889 -1.17571 0.831451 0
M  V30 2681 H 247.842 -4.21372 0.0486149 0
M  V30 2682 H 246.566 -3.1973 -0.666331 0
M  V30 2683 H 245.225 -3.36284 1.45974 0
M  V30 2684 H 244.873 -5.0153 -0.384235 0
M  V30 2685 H 244.573 -5.74991 1.21075 0
M  V30 2686 H 246.097 -6.09624 0.34503 0
M  V30 2687 H 247.511 -5.19294 2.42913 0
M  V30 2688 H 245.908 -5.06986 3.21068 0
M  V30 2689 H 246.978 -3.65656 3.18471 0
M  V30 2690 N 248.321 -0.919034 -1.28029 0
M  V30 2691 C 249.269 -0.401753 -2.29104 0
M  V30 2692 C 250.263 0.509354 -1.61561 0
M  V30 2693 O 251.469 0.390014 -1.75724 0
M  V30 2694 H 247.844 -0.111331 -0.743713 0
M  V30 2695 H 249.815 -1.2672 -2.70156 0
M  V30 2696 C 248.564 0.338148 -3.46052 0
M  V30 2697 H 247.887 -0.353732 -3.98232 0
M  V30 2698 H 249.327 0.664653 -4.18758 0
M  V30 2699 C 247.786 1.54798 -2.99231 0
M  V30 2700 O 248.316 2.64696 -3.02157 0
M  V30 2701 N 246.522 1.3968 -2.54829 0
M  V30 2702 H 246.069 0.502698 -2.52647 0
M  V30 2703 H 246.027 2.20755 -2.23863 0
M  V30 2704 N 249.799 1.42003 -0.683588 0
M  V30 2705 C 250.731 2.29183 0.0283068 0
M  V30 2706 C 251.744 1.4415 0.756611 0
M  V30 2707 O 252.933 1.67779 0.609306 0
M  V30 2708 C 250.033 3.21765 1.06398 0
M  V30 2709 C 249.206 4.35496 0.407723 0
M  V30 2710 C 248.265 5.08737 1.34437 0
M  V30 2711 O 247.291 5.62948 0.841318 0
M  V30 2712 N 248.493 5.15075 2.67728 0
M  V30 2713 H 251.258 2.9092 -0.720105 0
M  V30 2714 H 248.819 1.53025 -0.528682 0
M  V30 2715 H 250.811 3.6763 1.69204 0
M  V30 2716 H 249.381 2.61418 1.71404 0
M  V30 2717 H 248.601 3.92165 -0.400012 0
M  V30 2718 H 249.889 5.08776 -0.0490956 0
M  V30 2719 H 249.287 4.72457 3.11129 0
M  V30 2720 H 247.844 5.64556 3.2576 0
M  V30 2721 N 251.277 0.427512 1.51691 0
M  V30 2722 C 252.224 -0.388867 2.275 0
M  V30 2723 C 253.194 -1.02532 1.30677 0
M  V30 2724 O 254.379 -1.0461 1.59566 0
M  V30 2725 C 251.519 -1.48954 3.11298 0
M  V30 2726 C 250.632 -0.872194 4.23104 0
M  V30 2727 C 249.767 -1.94709 4.94228 0
M  V30 2728 C 248.806 -1.30766 5.97969 0
M  V30 2729 N 247.943 -2.32349 6.62539 0
M  V30 2730 H 252.783 0.263997 2.96828 0
M  V30 2731 H 250.32 0.142033 1.46413 0
M  V30 2732 H 252.278 -2.13887 3.58201 0
M  V30 2733 H 250.908 -2.11217 2.44105 0
M  V30 2734 H 249.96 -0.111419 3.80237 0
M  V30 2735 H 251.272 -0.365264 4.97461 0
M  V30 2736 H 250.426 -2.67327 5.44629 0
M  V30 2737 H 249.165 -2.48773 4.1948 0
M  V30 2738 H 248.17 -0.566902 5.4687 0
M  V30 2739 H 249.395 -0.774483 6.74669 0
M  V30 2740 H 247.341 -2.85511 5.90609 0
M  V30 2741 H 247.258 -1.8652 7.3263 0
M  V30 2742 H 248.526 -3.04481 7.17574 0
M  V30 2743 N 252.755 -1.56801 0.158532 0
M  V30 2744 C 253.718 -2.16138 -0.762705 0
M  V30 2745 C 254.718 -1.1061 -1.16713 0
M  V30 2746 O 255.908 -1.36191 -1.08617 0
M  V30 2747 C 253.04 -2.73386 -2.03649 0
M  V30 2748 H 254.233 -2.98886 -0.246354 0
M  V30 2749 H 251.786 -1.56035 -0.0909744 0
M  V30 2750 H 252.521 -1.94335 -2.59623 0
M  V30 2751 H 252.306 -3.50601 -1.75559 0
M  V30 2752 H 253.796 -3.19065 -2.6942 0
M  V30 2753 N 254.233 0.115231 -1.57178 0
M  V30 2754 C 255.163 1.1423 -2.03651 0
M  V30 2755 C 256.144 1.42967 -0.921655 0
M  V30 2756 O 257.329 1.53343 -1.19162 0
M  V30 2757 C 254.459 2.4675 -2.44401 0
M  V30 2758 C 253.413 2.32467 -3.59365 0
M  V30 2759 C 252.739 3.69984 -3.86026 0
M  V30 2760 C 254.039 1.78203 -4.90959 0
M  V30 2761 H 255.733 0.755749 -2.89705 0
M  V30 2762 H 253.279 0.362093 -1.39373 0
M  V30 2763 H 255.232 3.18854 -2.75517 0
M  V30 2764 H 253.956 2.87302 -1.55322 0
M  V30 2765 H 252.615 1.62811 -3.28463 0
M  V30 2766 H 252.263 4.08028 -2.94147 0
M  V30 2767 H 251.963 3.61279 -4.63412 0
M  V30 2768 H 253.487 4.43587 -4.19599 0
M  V30 2769 H 254.901 2.40128 -5.20587 0
M  V30 2770 H 253.298 1.8031 -5.72371 0
M  V30 2771 H 254.368 0.739876 -4.79222 0
M  V30 2772 N 255.711 1.52812 0.385517 0
M  V30 2773 C 256.951 1.69716 1.13911 0
M  V30 2774 C 257.315 0.42962 1.87132 0
M  V30 2775 O 258.516 0.475071 2.64569 0
M  V30 2776 C 256.787 2.90021 2.0886 0
M  V30 2777 S 258.346 3.27531 2.92009 0
M  V30 2778 H 255.164 0.59739 0.385547 0
M  V30 2779 H 257.766 1.90868 0.423061 0
M  V30 2780 H 256.47 3.80493 1.53797 0
M  V30 2781 H 256.001 2.71213 2.84969 0
M  V30 2782 H 258.016 2.77989 4.11019 0
M  V30 2783 N 257.189 -0.644168 1.43834 0
M  V30 2784 C 258.099 -1.78563 1.52159 0
M  V30 2785 C 259.115 -1.69147 0.408069 0
M  V30 2786 O 260.291 -1.90156 0.663524 0
M  V30 2787 C 257.356 -3.14888 1.45073 0
M  V30 2788 C 256.417 -3.36034 2.6717 0
M  V30 2789 C 255.65 -4.65855 2.60413 0
M  V30 2790 O 255.873 -5.45805 1.65689 0
M  V30 2791 O 254.807 -4.88918 3.5106 0
M  V30 2792 H 258.633 -1.74494 2.48567 0
M  V30 2793 H 256.218 -0.80378 1.25935 0
M  V30 2794 H 258.1 -3.96179 1.43597 0
M  V30 2795 H 256.775 -3.19528 0.518037 0
M  V30 2796 H 255.682 -2.54472 2.74217 0
M  V30 2797 H 257.015 -3.36247 3.59442 0
M  V30 2798 N 258.668 -1.30515 -0.883378 0
M  V30 2799 C 259.898 -1.22182 -1.66599 0
M  V30 2800 C 260.306 0.217507 -1.87946 0
M  V30 2801 O 259.649 1.1554 -1.42815 0
M  V30 2802 C 259.711 -1.88146 -3.06335 0
M  V30 2803 C 259.375 -3.37476 -3.08154 0
M  V30 2804 C 260.372 -4.33443 -2.87094 0
M  V30 2805 C 258.057 -3.7895 -3.29701 0
M  V30 2806 C 260.051 -5.68858 -2.8754 0
M  V30 2807 C 257.738 -5.14482 -3.29776 0
M  V30 2808 C 258.736 -6.09246 -3.0872 0
M  V30 2809 O 258.424 -7.42302 -3.08615 0
M  V30 2810 H 258.156 -0.423898 -0.52658 0
M  V30 2811 H 260.71 -1.72703 -1.11188 0
M  V30 2812 H 258.94 -1.32157 -3.63416 0
M  V30 2813 H 260.629 -1.7391 -3.66756 0
M  V30 2814 H 261.395 -4.02733 -2.70243 0
M  V30 2815 H 257.274 -3.05631 -3.45124 0
M  V30 2816 H 260.818 -6.428 -2.71024 0
M  V30 2817 H 256.715 -5.44832 -3.46163 0
M  V30 2818 H 257.483 -7.5131 -3.24769 0
M  V30 2819 N 260.146 1.09593 -1.13257 0
M  V30 2820 C 261.386 1.83349 -0.903472 0
M  V30 2821 C 261.75 1.83641 0.560351 0
M  V30 2822 O 262.951 2.53037 0.906947 0
M  V30 2823 C 261.222 3.25629 -1.47311 0
M  V30 2824 S 262.781 4.16408 -1.38382 0
M  V30 2825 H 259.599 0.632014 -0.325699 0
M  V30 2826 H 262.201 1.31817 -1.44376 0
M  V30 2827 H 260.905 3.22991 -2.53189 0
M  V30 2828 H 260.436 3.82233 -0.930689 0
M  V30 2829 H 262.451 4.94884 -0.361113 0
M  V30 2830 N 261.624 0.925811 1.2754 0
M  V30 2831 C 262.571 0.422045 2.26908 0
M  V30 2832 C 263.541 -0.510029 1.58076 0
M  V30 2833 O 264.726 -0.429599 1.85901 0
M  V30 2834 C 261.866 -0.320837 3.43605 0
M  V30 2835 C 260.979 0.64513 4.27156 0
M  V30 2836 C 260.114 -0.117405 5.3107 0
M  V30 2837 C 259.153 0.841391 6.0629 0
M  V30 2838 N 258.29 0.111604 7.02011 0
M  V30 2839 H 263.13 1.27441 2.69375 0
M  V30 2840 H 260.667 0.639697 1.32462 0
M  V30 2841 H 262.625 -0.76785 4.10073 0
M  V30 2842 H 261.255 -1.13745 3.02096 0
M  V30 2843 H 260.307 1.21067 3.6062 0
M  V30 2844 H 261.619 1.37797 4.79389 0
M  V30 2845 H 260.773 -0.624422 6.03478 0
M  V30 2846 H 259.512 -0.883219 4.79636 0
M  V30 2847 H 258.517 1.35967 5.32722 0
M  V30 2848 H 259.742 1.60696 6.59813 0
M  V30 2849 H 257.688 -0.635999 6.5291 0
M  V30 2850 H 257.605 0.784044 7.51923 0
M  V30 2851 H 258.873 -0.374823 7.78598 0
M  V30 2852 N 263.102 -1.41638 0.69111 0
M  V30 2853 C 264.327 -2.06148 0.227583 0
M  V30 2854 C 264.752 -1.51652 -1.11281 0
M  V30 2855 O 264.11 -0.64164 -1.69566 0
M  V30 2856 C 264.158 -3.60095 0.190858 0
M  V30 2857 O 263.262 -4.03845 -0.835664 0
M  V30 2858 H 262.603 -0.654434 0.112306 0
M  V30 2859 H 265.133 -1.81484 0.944714 0
M  V30 2860 H 265.143 -4.07995 0.020207 0
M  V30 2861 H 263.818 -3.99129 1.16915 0
M  V30 2862 H 262.395 -3.67458 -0.63473 0
M  V30 2863 N 264.58 -0.43555 -1.51462 0
M  V30 2864 C 265.527 0.376797 -2.27703 0
M  V30 2865 C 266.497 1.01838 -1.31219 0
M  V30 2866 O 267.682 1.03762 -1.60119 0
M  V30 2867 C 264.822 1.47301 -3.12084 0
M  V30 2868 C 263.935 0.849744 -4.2356 0
M  V30 2869 C 263.07 1.92086 -4.95254 0
M  V30 2870 C 262.109 1.27593 -5.98654 0
M  V30 2871 N 261.246 2.28833 -6.63762 0
M  V30 2872 H 266.086 -0.279734 -2.96684 0
M  V30 2873 H 263.623 -0.149795 -1.46335 0
M  V30 2874 H 265.581 2.11984 -3.59331 0
M  V30 2875 H 264.211 2.0992 -2.45221 0
M  V30 2876 H 263.263 0.0912529 -3.80291 0
M  V30 2877 H 264.575 0.338878 -4.97648 0
M  V30 2878 H 263.729 2.64435 -5.46039 0
M  V30 2879 H 262.468 2.46545 -4.20793 0
M  V30 2880 H 261.473 0.537893 -5.47162 0
M  V30 2881 H 262.698 0.738693 -6.7507 0
M  V30 2882 H 260.644 2.82375 -5.92115 0
M  V30 2883 H 260.561 1.82632 -7.33608 0
M  V30 2884 H 261.829 3.00671 -7.19178 0
M  V30 2885 N 266.058 1.56714 -0.166846 0
M  V30 2886 C 267.006 2.19056 0.782123 0
M  V30 2887 C 268 1.15328 1.24079 0
M  V30 2888 O 269.206 1.33537 1.20697 0
M  V30 2889 H 265.581 0.70167 0.270486 0
M  V30 2890 H 267.552 2.97494 0.232322 0
M  V30 2891 C 266.301 2.84206 2.00306 0
M  V30 2892 H 265.624 3.63748 1.65914 0
M  V30 2893 H 267.064 3.31302 2.64604 0
M  V30 2894 C 265.523 1.83744 2.82382 0
M  V30 2895 O 266.053 1.32014 3.79388 0
M  V30 2896 N 264.259 1.52601 2.47308 0
M  V30 2897 H 263.806 1.9486 1.68485 0
M  V30 2898 H 263.764 0.856351 3.02513 0
M  V30 2899 N 267.536 -0.106894 1.57237 0
M  V30 2900 C 268.785 -0.811163 1.8467 0
M  V30 2901 C 269.098 -1.80469 0.754342 0
M  V30 2902 O 270.304 -2.55601 0.915439 0
M  V30 2903 C 268.76 -1.49337 3.27454 0
M  V30 2904 C 268.368 -0.540217 4.44731 0
M  V30 2905 C 270.112 -2.18206 3.64124 0
M  V30 2906 C 268.019 -1.22634 5.78545 0
M  V30 2907 H 266.949 -0.306679 0.688813 0
M  V30 2908 H 269.6 -0.0639887 1.83388 0
M  V30 2909 H 267.982 -2.2876 3.23241 0
M  V30 2910 H 269.156 0.221659 4.60267 0
M  V30 2911 H 267.471 0.042146 4.16379 0
M  V30 2912 H 270.068 -2.70253 4.61376 0
M  V30 2913 H 270.411 -2.96562 2.92158 0
M  V30 2914 H 270.944 -1.45658 3.70174 0
M  V30 2915 H 267.683 -0.483832 6.53712 0
M  V30 2916 H 267.203 -1.95993 5.66874 0
M  V30 2917 H 268.882 -1.75615 6.2271 0
M  V30 2918 N 269.014 -1.53014 -0.377408 0
M  V30 2919 C 269.977 -1.77957 -1.44444 0
M  V30 2920 C 270.977 -0.649763 -1.47087 0
M  V30 2921 O 272.167 -0.917897 -1.48055 0
M  V30 2922 C 269.299 -1.89089 -2.83651 0
M  V30 2923 H 270.492 -2.73243 -1.23606 0
M  V30 2924 H 268.045 -1.43912 -0.609844 0
M  V30 2925 H 268.78 -0.958293 -3.09818 0
M  V30 2926 H 268.565 -2.71254 -2.83132 0
M  V30 2927 H 270.055 -2.1002 -3.60945 0
M  V30 2928 N 270.492 0.636531 -1.44174 0
M  V30 2929 C 271.738 1.39826 -1.4689 0
M  V30 2930 C 272.071 1.93947 -0.0990585 0
M  V30 2931 O 271.346 1.73325 0.882544 0
M  V30 2932 C 271.629 2.56751 -2.5249 0
M  V30 2933 C 271.482 2.08014 -3.98811 0
M  V30 2934 C 272.801 3.58946 -2.54649 0
M  V30 2935 H 269.92 0.507075 -0.53483 0
M  V30 2936 H 272.562 0.720188 -1.75822 0
M  V30 2937 H 270.712 3.14597 -2.2795 0
M  V30 2938 H 272.384 1.5504 -4.34466 0
M  V30 2939 H 270.627 1.39242 -4.10846 0
M  V30 2940 H 271.298 2.92169 -4.68339 0
M  V30 2941 H 273.774 3.1089 -2.76563 0
M  V30 2942 H 272.65 4.38286 -3.3045 0
M  V30 2943 H 272.911 4.12655 -1.58646 0
M  V30 2944 N 271.97 1.30982 0.876444 0
M  V30 2945 C 273.198 1.23242 1.6619 0
M  V30 2946 C 273.613 -0.203345 1.87702 0
M  V30 2947 O 272.97 -1.13317 1.43057 0
M  V30 2948 C 273.021 1.96623 3.03351 0
M  V30 2949 O 272.742 3.34594 2.82804 0
M  V30 2950 C 274.243 1.95644 3.97792 0
M  V30 2951 H 271.463 0.426126 0.518322 0
M  V30 2952 H 274.007 1.7275 1.09442 0
M  V30 2953 H 272.162 1.50892 3.56806 0
M  V30 2954 H 272.576 3.71873 3.69879 0
M  V30 2955 H 274.05 2.51511 4.91372 0
M  V30 2956 H 274.527 0.937395 4.2908 0
M  V30 2957 H 275.133 2.41225 3.50272 0
M  V30 2958 N 273.449 -1.08991 1.13837 0
M  V30 2959 C 274.412 -2.13925 0.822715 0
M  V30 2960 C 275.412 -1.599 -0.1699 0
M  V30 2961 O 276.602 -1.74104 0.0577251 0
M  V30 2962 C 273.734 -3.40155 0.225318 0
M  V30 2963 H 274.927 -2.43358 1.75262 0
M  V30 2964 H 272.48 -1.24603 0.943594 0
M  V30 2965 H 273.215 -3.16352 -0.713594 0
M  V30 2966 H 273 -3.80661 0.940193 0
M  V30 2967 H 274.49 -4.17594 0.0214784 0
M  V30 2968 N 274.927 -0.932562 -1.27047 0
M  V30 2969 C 276.173 -0.585913 -1.94778 0
M  V30 2970 C 276.528 0.864142 -1.71902 0
M  V30 2971 O 275.821 1.60894 -1.04037 0
M  V30 2972 C 276.015 -0.853713 -3.47054 0
M  V30 2973 C 275.844 -2.32825 -3.84737 0
M  V30 2974 C 274.614 -2.98184 -4.07939 0
M  V30 2975 C 276.812 -3.30612 -3.93954 0
M  V30 2976 N 274.794 -4.3574 -4.3244 0
M  V30 2977 C 276.165 -4.53395 -4.22887 0
M  V30 2978 C 278.22 -3.25755 -3.76548 0
M  V30 2979 C 276.923 -5.71927 -4.36224 0
M  V30 2980 C 278.949 -4.43604 -3.91113 0
M  V30 2981 C 278.311 -5.65166 -4.20437 0
M  V30 2982 H 274.41 -0.264617 -0.735868 0
M  V30 2983 H 276.994 -1.20019 -1.53309 0
M  V30 2984 H 275.165 -0.268557 -3.8747 0
M  V30 2985 H 276.897 -0.469202 -4.01971 0
M  V30 2986 H 273.652 -2.48835 -4.02961 0
M  V30 2987 H 274.076 -5.06915 -4.48738 0
M  V30 2988 H 278.718 -2.32835 -3.52913 0
M  V30 2989 H 276.436 -6.65308 -4.58683 0
M  V30 2990 H 280.022 -4.41368 -3.79059 0
M  V30 2991 H 278.902 -6.54836 -4.31462 0
M  V30 2992 N 276.405 1.4127 -0.698611 0
M  V30 2993 C 277.63 2.06024 -0.238512 0
M  V30 2994 C 278.055 1.5224 1.10475 0
M  V30 2995 O 277.413 0.650623 1.69223 0
M  V30 2996 C 277.461 3.59988 -0.209952 0
M  V30 2997 O 276.565 4.04282 0.814235 0
M  V30 2998 H 275.906 0.653829 -0.115775 0
M  V30 2999 H 278.436 1.8098 -0.954326 0
M  V30 3000 H 278.446 4.07979 -0.0418436 0
M  V30 3001 H 277.121 3.98503 -1.1903 0
M  V30 3002 H 275.698 3.6779 0.615234 0
M  V30 3003 N 277.883 0.443576 1.51229 0
M  V30 3004 C 279.294 -0.0180867 1.86691 0
M  V30 3005 C 279.645 -1.41384 1.36033 0
M  V30 3006 O 278.77 -2.04291 0.713722 0
M  V30 3007 C 279.365 -0.039597 3.38777 0
M  V30 3008 C 277.924 -0.445692 3.73752 0
M  V30 3009 C 277.071 0.357584 2.74985 0
M  V30 3010 H 280.022 0.659138 1.44364 0
M  V30 3011 H 280.043 -0.847761 3.70936 0
M  V30 3012 H 279.555 0.976382 3.75617 0
M  V30 3013 H 277.656 -1.46704 3.42503 0
M  V30 3014 H 277.769 -0.166155 4.78812 0
M  V30 3015 H 276.133 -0.184973 2.54027 0
M  V30 3016 H 276.916 1.37256 3.14668 0
M  V30 3017 N 279.361 -1.56624 0.175154 0
M  V30 3018 C 280.291 -2.21155 -0.749195 0
M  V30 3019 C 281.272 -1.16836 -1.23626 0
M  V30 3020 O 282.457 -1.45277 -1.28873 0
M  V30 3021 C 279.587 -2.8553 -1.97711 0
M  V30 3022 C 278.541 -3.95921 -1.62575 0
M  V30 3023 C 277.867 -4.47365 -2.92864 0
M  V30 3024 C 279.167 -5.15323 -0.850838 0
M  V30 3025 H 280.861 -2.98653 -0.211295 0
M  V30 3026 H 278.407 -1.43651 -0.100188 0
M  V30 3027 H 280.36 -3.2935 -2.62881 0
M  V30 3028 H 279.084 -2.05406 -2.53921 0
M  V30 3029 H 277.743 -3.52762 -0.997719 0
M  V30 3030 H 277.391 -3.64027 -3.47122 0
M  V30 3031 H 277.091 -5.21839 -2.70106 0
M  V30 3032 H 278.615 -4.93873 -3.59056 0
M  V30 3033 H 280.029 -5.55812 -1.40521 0
M  V30 3034 H 278.426 -5.95739 -0.722154 0
M  V30 3035 H 279.496 -4.84661 0.152082 0
M  V30 3036 N 280.839 0.0985539 -1.57292 0
M  V30 3037 C 282.087 0.801092 -1.85545 0
M  V30 3038 C 282.408 1.79438 -0.763353 0
M  V30 3039 O 281.678 1.94763 0.21073 0
M  V30 3040 H 280.258 0.29884 -0.684619 0
M  V30 3041 H 282.92 0.0810064 -1.94732 0
M  V30 3042 H 282.016 1.3338 -2.82163 0
M  V30 3043 N 282.317 1.53212 0.369288 0
M  V30 3044 C 283.249 1.75668 1.47219 0
M  V30 3045 C 284.262 0.637387 1.49804 0
M  V30 3046 O 285.451 0.913561 1.5335 0
M  V30 3047 C 282.551 1.81818 2.85999 0
M  V30 3048 C 281.724 3.11409 3.07153 0
M  V30 3049 C 280.783 3.08849 4.26026 0
M  V30 3050 O 279.809 3.82659 4.2138 0
M  V30 3051 N 281.011 2.29409 5.33246 0
M  V30 3052 H 283.776 2.70832 1.28337 0
M  V30 3053 H 281.337 1.51944 0.55898 0
M  V30 3054 H 283.329 1.77588 3.63655 0
M  V30 3055 H 281.899 0.939544 2.98146 0
M  V30 3056 H 281.119 3.28971 2.1719 0
M  V30 3057 H 282.407 3.97059 3.18154 0
M  V30 3058 H 281.805 1.68946 5.39883 0
M  V30 3059 H 280.362 2.31001 6.09493 0
M  V30 3060 N 283.795 -0.628877 1.44509 0
M  V30 3061 C 285.043 -1.38565 1.4712 0
M  V30 3062 C 285.364 -1.94712 0.105899 0
M  V30 3063 O 284.634 -1.75912 -0.862079 0
M  V30 3064 H 283.214 -0.514333 0.541729 0
M  V30 3065 H 285.876 -0.740018 1.80305 0
M  V30 3066 H 284.972 -2.21583 2.19789 0
M  V30 3067 N 285.273 -1.31445 -0.869486 0
M  V30 3068 C 286.223 -1.15731 -1.96444 0
M  V30 3069 C 287.207 -0.0681855 -1.60755 0
M  V30 3070 O 288.399 -0.293154 -1.74555 0
M  V30 3071 C 285.528 -0.867255 -3.32165 0
M  V30 3072 C 284.614 -1.99738 -3.74119 0
M  V30 3073 N 285.005 -3.24447 -3.88031 0
M  V30 3074 C 283.303 -1.89723 -4.03635 0
M  V30 3075 C 284.004 -3.98374 -4.23879 0
M  V30 3076 N 282.98 -3.26547 -4.3459 0
M  V30 3077 H 286.782 -2.10296 -2.05312 0
M  V30 3078 H 284.296 -1.23009 -1.06031 0
M  V30 3079 H 286.293 -0.735668 -4.10358 0
M  V30 3080 H 284.953 0.0701614 -3.24624 0
M  V30 3081 H 285.964 -3.59557 -3.72746 0
M  V30 3082 H 282.641 -1.03449 -4.04481 0
M  V30 3083 H 284.031 -5.05844 -4.42235 0
M  V30 3084 N 286.751 1.08385 -1.14413 0
M  V30 3085 C 287.681 2.17321 -0.854044 0
M  V30 3086 C 288.662 1.69024 0.191049 0
M  V30 3087 O 289.847 1.94141 0.0476779 0
M  V30 3088 C 286.977 3.45719 -0.330983 0
M  V30 3089 C 285.931 4.07409 -1.31155 0
M  V30 3090 C 285.257 5.30762 -0.64778 0
M  V30 3091 C 286.557 4.48665 -2.67388 0
M  V30 3092 H 288.251 2.41845 -1.76498 0
M  V30 3093 H 285.797 1.16233 -0.850051 0
M  V30 3094 H 287.75 4.21241 -0.115645 0
M  V30 3095 H 286.474 3.2075 0.615381 0
M  V30 3096 H 285.133 3.33919 -1.51306 0
M  V30 3097 H 284.781 5.02078 0.304398 0
M  V30 3098 H 284.481 5.72992 -1.30207 0
M  V30 3099 H 286.005 6.08998 -0.441972 0
M  V30 3100 H 287.419 5.15364 -2.51143 0
M  V30 3101 H 285.816 5.01814 -3.29093 0
M  V30 3102 H 286.886 3.60543 -3.24248 0
M  V30 3103 N 288.23 0.939286 1.26551 0
M  V30 3104 C 289.476 0.586715 1.94128 0
M  V30 3105 C 289.809 -0.8717 1.73537 0
M  V30 3106 O 289.084 -1.62339 1.07127 0
M  V30 3107 C 289.367 0.927497 3.4795 0
M  V30 3108 C 289.22 2.44052 3.77834 0
M  V30 3109 C 290.539 0.441569 4.37879 0
M  V30 3110 H 287.658 0.21463 0.705055 0
M  V30 3111 H 290.3 1.17316 1.49455 0
M  V30 3112 H 288.45 0.428431 3.8613 0
M  V30 3113 H 290.122 3.01216 3.4938 0
M  V30 3114 H 288.365 2.8848 3.23978 0
M  V30 3115 H 289.036 2.62947 4.85348 0
M  V30 3116 H 291.512 0.869448 4.06915 0
M  V30 3117 H 290.388 0.708856 5.44304 0
M  V30 3118 H 290.649 -0.658467 4.37169 0
M  V30 3119 N 289.708 -1.40897 0.706093 0
M  V30 3120 C 290.618 -2.3455 0.0482286 0
M  V30 3121 C 291.634 -1.56796 -0.754396 0
M  V30 3122 O 292.81 -1.89228 -0.689538 0
M  V30 3123 C 289.875 -3.35625 -0.869303 0
M  V30 3124 C 288.936 -4.29261 -0.0576994 0
M  V30 3125 C 288.169 -5.25508 -0.931531 0
M  V30 3126 O 288.392 -5.27472 -2.17092 0
M  V30 3127 O 287.326 -6.00727 -0.375587 0
M  V30 3128 H 291.152 -2.92407 0.820476 0
M  V30 3129 H 288.737 -1.4193 0.4665 0
M  V30 3130 H 290.619 -3.97635 -1.39514 0
M  V30 3131 H 289.294 -2.80196 -1.62086 0
M  V30 3132 H 288.201 -3.70566 0.512988 0
M  V30 3133 H 289.534 -4.87817 0.655426 0
M  V30 3134 N 291.186 -0.45159 -1.50991 0
M  V30 3135 C 292.463 0.170707 -1.94854 0
M  V30 3136 C 292.843 1.58788 -1.39103 0
M  V30 3137 O 292.191 2.20913 -0.583921 0
M  V30 3138 C 292.401 0.133929 -3.48743 0
M  V30 3139 C 293.749 0.33248 -4.23296 0
M  V30 3140 O 294.773 0.211403 -3.55572 0
M  V30 3141 O 293.632 0.57486 -5.43468 0
M  V30 3142 H 290.726 0.122264 -0.817912 0
M  V30 3143 H 293.272 -0.510594 -1.61836 0
M  V30 3144 H 292.044 -0.856283 -3.81816 0
M  V30 3145 H 291.667 0.857529 -3.88242 0
M  V30 3146 N 292.664 1.56529 -0.183458 0
M  V30 3147 C 293.627 2.17324 0.728223 0
M  V30 3148 C 294.627 1.12453 1.14939 0
M  V30 3149 O 295.817 1.37902 1.06437 0
M  V30 3150 C 292.949 2.76591 1.99274 0
M  V30 3151 H 294.142 2.99241 0.198772 0
M  V30 3152 H 291.695 1.5616 0.0661391 0
M  V30 3153 H 292.43 1.98441 2.56499 0
M  V30 3154 H 292.215 3.5335 1.69959 0
M  V30 3155 H 293.705 3.23311 2.6431 0
M  V30 3156 N 294.142 -0.090211 1.57342 0
M  V30 3157 C 295.558 -0.444547 1.53284 0
M  V30 3158 C 295.758 -1.80238 0.900914 0
M  V30 3159 O 294.814 -2.4759 0.495513 0
M  V30 3160 C 296.127 -0.402543 2.97993 0
M  V30 3161 C 297.675 -0.48405 3.09234 0
M  V30 3162 C 298.15 -0.472144 4.5556 0
M  V30 3163 N 299.641 -0.532757 4.60126 0
M  V30 3164 C 300.376 -0.545462 5.708 0
M  V30 3165 N 299.872 -0.514082 6.9089 0
M  V30 3166 N 301.665 -0.59064 5.58988 0
M  V30 3167 H 293.816 0.799121 1.96794 0
M  V30 3168 H 296.079 0.297965 0.899956 0
M  V30 3169 H 295.785 0.528106 3.47712 0
M  V30 3170 H 295.659 -1.21969 3.56936 0
M  V30 3171 H 298.046 -1.40512 2.595 0
M  V30 3172 H 298.127 0.361328 2.53235 0
M  V30 3173 H 297.771 0.445 5.05947 0
M  V30 3174 H 297.701 -1.3348 5.09402 0
M  V30 3175 H 300.192 -0.562006 3.73698 0
M  V30 3176 H 300.505 -0.527195 7.71 0
M  V30 3177 H 298.85 -0.481054 6.93333 0
M  V30 3178 H 302.041 -0.61272 4.64073 0
M  V30 3179 H 302.214 -0.597073 6.45243 0
M  V30 3180 N 295.62 -1.53406 -0.361157 0
M  V30 3181 C 296.55 -1.83136 -1.44857 0
M  V30 3182 C 297.531 -0.685174 -1.5569 0
M  V30 3183 O 298.716 -0.93544 -1.70186 0
M  V30 3184 C 295.846 -2.02522 -2.82138 0
M  V30 3185 C 294.8 -3.18302 -2.86126 0
M  V30 3186 C 294.126 -3.22989 -4.26125 0
M  V30 3187 C 295.426 -4.56796 -2.53248 0
M  V30 3188 H 297.12 -2.74201 -1.20226 0
M  V30 3189 H 294.666 -1.31938 -0.576922 0
M  V30 3190 H 296.619 -2.21904 -3.58241 0
M  V30 3191 H 295.343 -1.08172 -3.08166 0
M  V30 3192 H 294.002 -2.98747 -2.12475 0
M  V30 3193 H 293.65 -2.26267 -4.49235 0
M  V30 3194 H 293.35 -4.00781 -4.29708 0
M  V30 3195 H 294.874 -3.44559 -5.04094 0
M  V30 3196 H 296.288 -4.7631 -3.19064 0
M  V30 3197 H 294.685 -5.36862 -2.68141 0
M  V30 3198 H 295.755 -4.61606 -1.48484 0
M  V30 3199 N 297.098 0.621204 -1.44841 0
M  V30 3200 C 298.045 1.73267 -1.5247 0
M  V30 3201 C 299.015 1.6189 -0.371611 0
M  V30 3202 O 300.2 1.81668 -0.58321 0
M  V30 3203 C 297.34 3.11545 -1.48438 0
M  V30 3204 C 296.453 3.33827 -2.74196 0
M  V30 3205 C 295.588 4.62133 -2.61929 0
M  V30 3206 C 294.627 4.77627 -3.82804 0
M  V30 3207 N 293.764 5.97219 -3.69153 0
M  V30 3208 H 298.604 1.66082 -2.47428 0
M  V30 3209 H 296.141 0.810026 -1.22788 0
M  V30 3210 H 298.099 3.91528 -1.4409 0
M  V30 3211 H 296.729 3.1772 -0.570402 0
M  V30 3212 H 295.781 2.47715 -2.88689 0
M  V30 3213 H 297.093 3.41153 -3.6389 0
M  V30 3214 H 296.247 5.50291 -2.5547 0
M  V30 3215 H 294.986 4.57182 -1.69811 0
M  V30 3216 H 293.991 3.87896 -3.89637 0
M  V30 3217 H 295.216 4.84385 -4.75971 0
M  V30 3218 H 293.162 5.93339 -2.79794 0
M  V30 3219 H 293.079 6.05644 -4.52472 0
M  V30 3220 H 294.347 6.87912 -3.66603 0
M  V30 3221 N 298.576 1.31904 0.862503 0
M  V30 3222 C 299.539 1.20131 1.95195 0
M  V30 3223 C 300.539 0.126409 1.60302 0
M  V30 3224 O 301.729 0.376234 1.70089 0
M  V30 3225 C 298.861 0.845691 3.30244 0
M  V30 3226 H 300.054 2.16943 2.07064 0
M  V30 3227 H 297.607 1.15622 1.05172 0
M  V30 3228 H 298.342 -0.120957 3.24074 0
M  V30 3229 H 298.127 1.62276 3.56944 0
M  V30 3230 H 299.617 0.787418 4.10109 0
M  V30 3231 N 300.054 -1.07777 1.14986 0
M  V30 3232 C 301.303 -1.79669 0.916617 0
M  V30 3233 C 301.616 -1.87474 -0.557917 0
M  V30 3234 O 302.822 -2.55845 -0.908617 0
M  V30 3235 C 301.278 -3.22848 1.59051 0
M  V30 3236 C 300.886 -3.23257 3.10176 0
M  V30 3237 C 302.63 -3.99379 1.43864 0
M  V30 3238 C 300.537 -4.61063 3.70372 0
M  V30 3239 H 299.467 -0.673349 0.33929 0
M  V30 3240 H 302.118 -1.21003 1.37951 0
M  V30 3241 H 300.5 -3.8168 1.0553 0
M  V30 3242 H 301.674 -2.74095 3.70417 0
M  V30 3243 H 299.989 -2.60222 3.25074 0
M  V30 3244 H 302.586 -5.0122 1.86232 0
M  V30 3245 H 302.929 -4.14511 0.385564 0
M  V30 3246 H 303.462 -3.47032 1.94457 0
M  V30 3247 H 300.201 -4.51135 4.7556 0
M  V30 3248 H 299.721 -5.1048 3.14913 0
M  V30 3249 H 301.4 -5.30034 3.71043 0
M  V30 3250 N 301.532 -0.945985 -1.26051 0
M  V30 3251 C 302.78 -0.594941 -1.93145 0
M  V30 3252 C 303.101 0.86953 -1.7454 0
M  V30 3253 O 302.371 1.61838 -1.10387 0
M  V30 3254 H 300.951 -0.217044 -0.714773 0
M  V30 3255 H 303.613 -1.20235 -1.53393 0
M  V30 3256 H 302.709 -0.816835 -3.01221 0
M  V30 3257 N 303.011 1.40521 -0.713556 0
M  V30 3258 C 304.259 2.00527 -0.251692 0
M  V30 3259 C 304.58 1.56857 1.15848 0
M  V30 3260 O 303.85 0.807127 1.785 0
M  V30 3261 H 302.43 0.741551 -0.0900646 0
M  V30 3262 H 305.092 1.71887 -0.918733 0
M  V30 3263 H 304.188 3.10813 -0.283192 0
M  V30 3264 N 304.489 0.459591 1.5075 0
M  V30 3265 C 305.436 -0.340524 2.28274 0
M  V30 3266 C 306.406 -0.997371 1.32822 0
M  V30 3267 O 307.591 -1.01202 1.61749 0
M  V30 3268 C 304.731 -1.42317 3.14388 0
M  V30 3269 C 303.844 -0.782251 4.24859 0
M  V30 3270 C 302.979 -1.84182 4.98247 0
M  V30 3271 C 302.018 -1.18053 6.00608 0
M  V30 3272 N 301.155 -2.18244 6.67319 0
M  V30 3273 H 305.995 0.326899 2.96202 0
M  V30 3274 H 303.532 0.173057 1.46078 0
M  V30 3275 H 305.49 -2.06241 3.62658 0
M  V30 3276 H 304.12 -2.05992 2.4853 0
M  V30 3277 H 303.172 -0.0307404 3.80388 0
M  V30 3278 H 304.484 -0.259663 4.98124 0
M  V30 3279 H 303.638 -2.55714 5.50177 0
M  V30 3280 H 302.377 -2.39819 4.24662 0
M  V30 3281 H 301.382 -0.450776 5.47949 0
M  V30 3282 H 302.607 -0.631202 6.7616 0
M  V30 3283 H 300.553 -2.72919 5.96533 0
M  V30 3284 H 300.47 -1.70938 7.36421 0
M  V30 3285 H 301.738 -2.89191 7.23871 0
M  V30 3286 N 305.967 -1.56429 0.191757 0
M  V30 3287 C 307.197 -2.01574 -0.452928 0
M  V30 3288 C 307.605 -1.07107 -1.55964 0
M  V30 3289 O 306.948 -0.067534 -1.83576 0
M  V30 3290 C 307.01 -3.43121 -1.07278 0
M  V30 3291 C 306.674 -4.56879 -0.105214 0
M  V30 3292 C 307.671 -5.15379 0.684149 0
M  V30 3293 C 305.356 -5.023 0.00489824 0
M  V30 3294 C 307.35 -6.17746 1.57062 0
M  V30 3295 C 305.037 -6.04511 0.894935 0
M  V30 3296 C 306.035 -6.62108 1.67637 0
M  V30 3297 O 305.723 -7.62335 2.55149 0
M  V30 3298 H 305.455 -0.665554 -0.118379 0
M  V30 3299 H 308.009 -2.03245 0.296737 0
M  V30 3300 H 306.239 -3.38425 -1.87097 0
M  V30 3301 H 307.928 -3.72093 -1.62177 0
M  V30 3302 H 308.694 -4.81157 0.609365 0
M  V30 3303 H 304.573 -4.57168 -0.593156 0
M  V30 3304 H 308.117 -6.6263 2.181 0
M  V30 3305 H 304.014 -6.38157 0.970847 0
M  V30 3306 H 304.782 -7.79741 2.48892 0
M  V30 3307 N 307.445 0.0818655 -1.57387 0
M  V30 3308 C 308.693 0.781368 -1.86384 0
M  V30 3309 C 309.014 1.78618 -0.782342 0
M  V30 3310 O 308.284 1.94976 0.190061 0
M  V30 3311 H 306.864 0.291562 -0.687751 0
M  V30 3312 H 309.526 0.060348 -1.94807 0
M  V30 3313 H 308.622 1.3038 -2.83562 0
M  V30 3314 N 308.923 1.53595 0.353017 0
M  V30 3315 C 309.87 1.80919 1.43308 0
M  V30 3316 C 310.84 0.654288 1.5267 0
M  V30 3317 O 312.025 0.897759 1.6836 0
M  V30 3318 C 309.165 2.01605 2.80089 0
M  V30 3319 C 308.278 3.29321 2.79593 0
M  V30 3320 C 307.413 3.40125 4.0803 0
M  V30 3321 C 306.452 4.61826 4.01725 0
M  V30 3322 N 305.589 4.69716 5.21834 0
M  V30 3323 H 310.429 2.73074 1.19308 0
M  V30 3324 H 307.966 1.35263 0.578131 0
M  V30 3325 H 309.924 2.11586 3.59565 0
M  V30 3326 H 308.554 1.12772 3.0246 0
M  V30 3327 H 307.606 3.28229 1.92276 0
M  V30 3328 H 308.918 4.18884 2.70809 0
M  V30 3329 H 308.072 3.49488 4.95927 0
M  V30 3330 H 306.811 2.48601 4.19582 0
M  V30 3331 H 305.816 4.52552 3.12213 0
M  V30 3332 H 307.041 5.54705 3.91764 0
M  V30 3333 H 304.987 3.81097 5.33948 0
M  V30 3334 H 304.904 5.53202 5.1527 0
M  V30 3335 H 306.172 4.83376 6.11529 0
M  V30 3336 N 310.401 -0.613514 1.45168 0
M  V30 3337 C 311.629 -1.39946 1.5239 0
M  V30 3338 C 312.044 -1.88167 0.154531 0
M  V30 3339 O 311.401 -1.61872 -0.842843 0
M  V30 3340 C 311.452 -2.60795 2.50337 0
M  V30 3341 O 311.173 -2.1458 3.81952 0
M  V30 3342 C 312.674 -3.53723 2.67198 0
M  V30 3343 H 309.894 -0.428593 0.516284 0
M  V30 3344 H 312.438 -0.748753 1.903 0
M  V30 3345 H 310.593 -3.21919 2.15515 0
M  V30 3346 H 311.007 -2.93055 4.34993 0
M  V30 3347 H 312.481 -4.35079 3.39721 0
M  V30 3348 H 312.958 -4.0368 1.73029 0
M  V30 3349 H 313.564 -2.98456 3.02992 0
M  V30 3350 N 311.879 -1.3236 -0.855495 0
M  V30 3351 C 312.842 -1.21164 -1.94556 0
M  V30 3352 C 313.842 -0.134908 -1.60233 0
M  V30 3353 O 315.032 -0.385249 -1.69887 0
M  V30 3354 C 312.164 -0.863192 -3.29791 0
M  V30 3355 H 313.357 -2.18038 -2.05911 0
M  V30 3356 H 310.91 -1.16179 -1.04557 0
M  V30 3357 H 311.645 0.103769 -3.24134 0
M  V30 3358 H 311.43 -1.64166 -3.56078 0
M  V30 3359 H 312.92 -0.809156 -4.09686 0
M  V30 3360 N 313.357 1.07166 -1.15556 0
M  V30 3361 C 314.32 2.12589 -0.856644 0
M  V30 3362 C 315.32 1.6015 0.14444 0
M  V30 3363 O 316.51 1.7399 -0.0854163 0
M  V30 3364 C 313.642 3.39753 -0.279405 0
M  V30 3365 H 314.835 2.40539 -1.79112 0
M  V30 3366 H 312.388 1.23086 -0.963298 0
M  V30 3367 H 313.123 3.17447 0.663174 0
M  V30 3368 H 312.908 3.79117 -1.00063 0
M  V30 3369 H 314.398 4.17507 -0.0879113 0
M  V30 3370 N 314.835 0.952656 1.25548 0
M  V30 3371 C 315.767 0.428609 2.25157 0
M  V30 3372 C 316.78 -0.454428 1.56329 0
M  V30 3373 O 317.969 -0.263023 1.76552 0
M  V30 3374 C 315.069 -0.401972 3.36508 0
M  V30 3375 C 314.242 0.467601 4.34893 0
M  V30 3376 C 313.301 -0.30445 5.25319 0
M  V30 3377 O 312.327 0.296473 5.68427 0
M  V30 3378 N 313.529 -1.59805 5.5807 0
M  V30 3379 H 316.294 1.28497 2.70756 0
M  V30 3380 H 313.855 0.822798 1.39433 0
M  V30 3381 H 315.847 -0.926134 3.9396 0
M  V30 3382 H 314.417 -1.15918 2.90313 0
M  V30 3383 H 313.637 1.17288 3.76347 0
M  V30 3384 H 314.925 1.06119 4.97611 0
M  V30 3385 H 314.323 -2.10823 5.24948 0
M  V30 3386 H 312.88 -2.06822 6.18116 0
M  V30 3387 N 316.313 -1.40141 0.720998 0
M  V30 3388 C 317.559 -2.01084 0.263231 0
M  V30 3389 C 317.892 -1.57052 -1.14229 0
M  V30 3390 O 317.167 -0.793027 -1.77599 0
M  V30 3391 C 317.45 -3.58401 0.349344 0
M  V30 3392 C 317.303 -4.12491 1.79363 0
M  V30 3393 C 318.622 -4.39231 -0.276351 0
M  V30 3394 H 315.741 -0.730572 0.0971228 0
M  V30 3395 H 318.383 -1.66543 0.914518 0
M  V30 3396 H 316.533 -3.87958 -0.205165 0
M  V30 3397 H 318.205 -3.93711 2.40394 0
M  V30 3398 H 316.448 -3.66576 2.31958 0
M  V30 3399 H 317.119 -5.21646 1.80524 0
M  V30 3400 H 319.595 -4.15637 0.196184 0
M  V30 3401 H 318.471 -5.48586 -0.185681 0
M  V30 3402 H 318.732 -4.20643 -1.36059 0
M  V30 3403 N 317.792 -0.46758 -1.50504 0
M  V30 3404 C 318.725 0.374324 -2.25109 0
M  V30 3405 C 319.703 0.99921 -1.28275 0
M  V30 3406 O 320.887 1.03583 -1.57489 0
M  V30 3407 C 318.014 1.52419 -3.02467 0
M  V30 3408 C 317.06 1.01702 -4.14197 0
M  V30 3409 S 317.893 -0.0654477 -5.3546 0
M  V30 3410 C 319.049 1.08837 -6.16365 0
M  V30 3411 H 319.282 -0.258983 -2.9617 0
M  V30 3412 H 316.815 -0.252421 -1.52323 0
M  V30 3413 H 318.773 2.18322 -3.47628 0
M  V30 3414 H 317.434 2.129 -2.30938 0
M  V30 3415 H 316.627 1.87776 -4.67714 0
M  V30 3416 H 316.229 0.435757 -3.71453 0
M  V30 3417 H 318.521 2.00071 -6.47285 0
M  V30 3418 H 319.464 0.592538 -7.05616 0
M  V30 3419 H 319.872 1.34061 -5.4835 0
M  V30 3420 N 319.27 1.56325 -0.20005 0
M  V30 3421 C 320.2 2.22318 0.713916 0
M  V30 3422 C 321.181 1.18788 1.21752 0
M  V30 3423 O 322.366 1.47309 1.26545 0
M  V30 3424 C 319.496 2.88639 1.93144 0
M  V30 3425 C 318.45 3.98457 1.56255 0
M  V30 3426 C 317.776 4.51967 2.85709 0
M  V30 3427 C 319.076 5.16612 0.768747 0
M  V30 3428 H 320.77 2.98952 0.163755 0
M  V30 3429 H 318.316 1.43792 0.0773219 0
M  V30 3430 H 320.269 3.33491 2.57608 0
M  V30 3431 H 318.993 2.09419 2.50621 0
M  V30 3432 H 317.652 3.54305 0.941471 0
M  V30 3433 H 317.3 3.69503 3.41287 0
M  V30 3434 H 317 5.26071 2.6177 0
M  V30 3435 H 318.524 4.99523 3.51154 0
M  V30 3436 H 319.938 5.57977 1.3166 0
M  V30 3437 H 318.335 5.96812 0.627286 0
M  V30 3438 H 319.405 4.84358 -0.229168 0
M  V30 3439 N 320.748 -0.0735177 1.57428 0
M  V30 3440 C 322.164 -0.428264 1.53747 0
M  V30 3441 C 322.364 -1.79272 0.91998 0
M  V30 3442 O 321.42 -2.47051 0.521745 0
M  V30 3443 C 322.733 -0.370914 2.98404 0
M  V30 3444 C 324.281 -0.451224 3.0973 0
M  V30 3445 C 324.756 -0.4238 4.56035 0
M  V30 3446 N 326.247 -0.483925 4.60665 0
M  V30 3447 C 326.982 -0.484891 5.71346 0
M  V30 3448 N 326.478 -0.440775 6.91396 0
M  V30 3449 N 328.271 -0.531319 5.59583 0
M  V30 3450 H 320.422 0.819949 1.95935 0
M  V30 3451 H 322.685 0.307493 0.896745 0
M  V30 3452 H 322.391 0.564956 3.47133 0
M  V30 3453 H 322.265 -1.18176 3.5821 0
M  V30 3454 H 324.652 -1.37752 2.60976 0
M  V30 3455 H 324.733 0.388167 2.52838 0
M  V30 3456 H 324.377 0.498638 5.05446 0
M  V30 3457 H 324.307 -1.2807 5.10789 0
M  V30 3458 H 326.798 -0.522338 3.74273 0
M  V30 3459 H 327.111 -0.44539 7.71515 0
M  V30 3460 H 325.456 -0.40749 6.93804 0
M  V30 3461 H 328.647 -0.563464 4.64696 0
M  V30 3462 H 328.82 -0.528603 6.4584 0
M  V30 3463 N 322.226 -1.5378 -0.344866 0
M  V30 3464 C 323.472 -1.72158 -1.0832 0
M  V30 3465 C 323.827 -0.478218 -1.86362 0
M  V30 3466 O 323.12 0.529152 -1.84148 0
M  V30 3467 C 323.314 -2.92407 -2.05506 0
M  V30 3468 C 323.143 -4.28318 -1.37017 0
M  V30 3469 C 321.913 -4.92832 -1.11558 0
M  V30 3470 C 324.111 -5.08086 -0.797071 0
M  V30 3471 N 322.093 -6.12619 -0.396358 0
M  V30 3472 C 323.464 -6.1965 -0.208336 0
M  V30 3473 C 325.519 -4.92986 -0.697787 0
M  V30 3474 C 324.222 -7.17763 0.470023 0
M  V30 3475 C 326.248 -5.91391 -0.033171 0
M  V30 3476 C 325.61 -7.02292 0.544599 0
M  V30 3477 H 321.709 -0.683017 -0.380805 0
M  V30 3478 H 324.293 -1.91211 -0.366961 0
M  V30 3479 H 322.464 -2.74857 -2.74423 0
M  V30 3480 H 324.196 -2.9951 -2.72169 0
M  V30 3481 H 320.951 -4.52362 -1.40234 0
M  V30 3482 H 321.375 -6.7698 -0.0515119 0
M  V30 3483 H 326.017 -4.07414 -1.13022 0
M  V30 3484 H 323.735 -8.0291 0.914351 0
M  V30 3485 H 327.321 -5.81784 0.0430009 0
M  V30 3486 H 326.201 -7.77129 1.05073 0
M  V30 3487 N 323.704 0.605807 -1.45491 0
M  V30 3488 C 324.614 1.74466 -1.56839 0
M  V30 3489 C 325.63 1.68006 -0.452772 0
M  V30 3490 O 326.806 1.8833 -0.713708 0
M  V30 3491 C 323.871 3.10931 -1.53371 0
M  V30 3492 C 322.932 3.28832 -2.75986 0
M  V30 3493 C 322.165 4.58787 -2.72673 0
M  V30 3494 O 322.388 5.4122 -1.80102 0
M  V30 3495 O 321.322 4.79438 -3.63899 0
M  V30 3496 H 325.148 1.67843 -2.53106 0
M  V30 3497 H 322.733 0.770108 -1.28022 0
M  V30 3498 H 324.615 3.92233 -1.54051 0
M  V30 3499 H 323.29 3.18042 -0.602572 0
M  V30 3500 H 322.197 2.47112 -2.80867 0
M  V30 3501 H 323.53 3.26599 -3.68231 0
M  V30 3502 N 325.182 1.32811 0.848464 0
M  V30 3503 C 326.431 1.23075 1.59798 0
M  V30 3504 C 326.744 -0.204419 1.94529 0
M  V30 3505 O 327.95 -0.423701 2.68173 0
M  V30 3506 C 326.406 2.15594 2.88179 0
M  V30 3507 C 326.014 3.64228 2.60849 0
M  V30 3508 C 327.758 2.14709 3.66197 0
M  V30 3509 C 325.665 4.48689 3.85269 0
M  V30 3510 H 324.595 0.457091 0.599653 0
M  V30 3511 H 327.246 1.57813 0.936342 0
M  V30 3512 H 325.628 1.73778 3.55833 0
M  V30 3513 H 326.802 4.14424 2.01467 0
M  V30 3514 H 325.117 3.67306 1.96151 0
M  V30 3515 H 327.714 2.75046 4.58534 0
M  V30 3516 H 328.057 1.13966 4.00397 0
M  V30 3517 H 328.59 2.54837 3.05455 0
M  V30 3518 H 325.329 5.5027 3.56207 0
M  V30 3519 H 324.849 4.03241 4.44024 0
M  V30 3520 H 326.528 4.62006 4.52946 0
M  V30 3521 N 326.66 -1.06551 1.16123 0
M  V30 3522 C 327.592 -2.13908 0.823171 0
M  V30 3523 C 328.605 -1.61926 -0.16843 0
M  V30 3524 O 329.794 -1.78412 0.055962 0
M  V30 3525 C 326.894 -3.38283 0.204424 0
M  V30 3526 C 326.067 -4.19589 1.23548 0
M  V30 3527 C 325.126 -5.2233 0.637011 0
M  V30 3528 O 324.152 -5.54034 1.30516 0
M  V30 3529 N 325.354 -5.77621 -0.577474 0
M  V30 3530 H 328.119 -2.43508 1.74711 0
M  V30 3531 H 325.68 -1.2253 1.05821 0
M  V30 3532 H 327.672 -4.0416 -0.208909 0
M  V30 3533 H 326.242 -3.06329 -0.623012 0
M  V30 3534 H 325.462 -3.49406 1.82507 0
M  V30 3535 H 326.75 -4.70718 1.93137 0
M  V30 3536 H 326.148 -5.54125 -1.13853 0
M  V30 3537 H 324.705 -6.45087 -0.933053 0
M  V30 3538 N 328.138 -0.959301 -1.25041 0
M  V30 3539 C 329.101 -0.487677 -2.23952 0
M  V30 3540 C 330.101 0.41119 -1.55454 0
M  V30 3541 O 331.291 0.207825 -1.72956 0
M  V30 3542 C 328.423 0.294807 -3.39623 0
M  V30 3543 H 329.616 -1.36198 -2.67189 0
M  V30 3544 H 327.169 -0.743042 -1.37508 0
M  V30 3545 H 327.904 1.18658 -3.01813 0
M  V30 3546 H 327.689 -0.35012 -3.90534 0
M  V30 3547 H 329.179 0.614089 -4.1306 0
M  V30 3548 N 329.616 1.39756 -0.72842 0
M  V30 3549 C 330.864 2.00248 -0.272946 0
M  V30 3550 C 331.185 1.58077 1.14178 0
M  V30 3551 O 330.455 0.826014 1.77634 0
M  V30 3552 H 329.035 0.740554 -0.0979247 0
M  V30 3553 H 331.697 1.70903 -0.936912 0
M  V30 3554 H 330.793 3.10495 -0.316142 0
M  V30 3555 N 331.094 0.475555 1.50254 0
M  V30 3556 C 332.34 -0.0780073 2.0265 0
M  V30 3557 C 332.673 -1.38968 1.35652 0
M  V30 3558 O 331.948 -1.8839 0.483691 0
M  V30 3559 C 332.231 -0.257161 3.59181 0
M  V30 3560 C 332.084 1.07585 4.36744 0
M  V30 3561 C 333.403 -1.00965 4.28362 0
M  V30 3562 H 330.522 -0.0268758 0.73651 0
M  V30 3563 H 333.164 0.622015 1.7953 0
M  V30 3564 H 331.314 -0.853412 3.79011 0
M  V30 3565 H 332.986 1.70902 4.28474 0
M  V30 3566 H 331.229 1.6714 4.00308 0
M  V30 3567 H 331.9 0.904088 5.44546 0
M  V30 3568 H 334.376 -0.504214 4.13034 0
M  V30 3569 H 333.252 -1.10381 5.37687 0
M  V30 3570 H 333.513 -2.04731 3.91839 0
M  V30 3571 N 332.573 -1.56217 0.208337 0
M  V30 3572 C 333.822 -1.97124 -0.427204 0
M  V30 3573 C 334.135 -1.09859 -1.61835 0
M  V30 3574 O 335.341 -1.40606 -2.32255 0
M  V30 3575 C 333.797 -3.50633 -0.811442 0
M  V30 3576 C 333.405 -4.46582 0.35615 0
M  V30 3577 C 335.149 -4.00282 -1.41332 0
M  V30 3578 C 333.056 -5.91379 -0.0497852 0
M  V30 3579 H 331.986 -0.736086 -0.163381 0
M  V30 3580 H 334.637 -1.8099 0.302456 0
M  V30 3581 H 333.019 -3.62319 -1.59815 0
M  V30 3582 H 334.193 -4.46636 1.1337 0
M  V30 3583 H 332.508 -4.07202 0.870396 0
M  V30 3584 H 335.105 -5.0595 -1.72972 0
M  V30 3585 H 335.448 -3.45359 -2.32449 0
M  V30 3586 H 335.981 -3.91764 -0.690323 0
M  V30 3587 H 332.72 -6.50255 0.827529 0
M  V30 3588 H 332.24 -5.94549 -0.791926 0
M  V30 3589 H 333.919 -6.45209 -0.481042 0
M  V30 3590 N 334.051 0.0651679 -1.57465 0
M  V30 3591 C 335.279 0.775808 -1.91804 0
M  V30 3592 C 335.694 1.70782 -0.804916 0
M  V30 3593 O 335.051 1.81153 0.221311 0
M  V30 3594 C 335.102 1.56381 -3.25925 0
M  V30 3595 O 334.823 0.669248 -4.32958 0
M  V30 3596 C 336.324 2.37485 -3.7432 0
M  V30 3597 H 333.544 0.2202 -0.63384 0
M  V30 3598 H 336.088 0.0334587 -2.04473 0
M  V30 3599 H 334.243 2.25837 -3.14764 0
M  V30 3600 H 334.657 1.21801 -5.10162 0
M  V30 3601 H 336.131 2.88223 -4.70778 0
M  V30 3602 H 336.608 3.17307 -3.03666 0
M  V30 3603 H 337.214 1.73173 -3.88447 0
M  V30 3604 N 335.529 1.53961 0.336706 0
M  V30 3605 C 336.778 1.70751 1.07363 0
M  V30 3606 C 337.091 0.481061 1.89592 0
M  V30 3607 O 338.297 0.530046 2.66276 0
M  V30 3608 C 336.753 3.01965 1.95818 0
M  V30 3609 C 336.361 4.31971 1.18764 0
M  V30 3610 C 338.105 3.28121 2.69327 0
M  V30 3611 C 336.012 5.54255 2.06289 0
M  V30 3612 H 334.942 0.636292 0.404535 0
M  V30 3613 H 337.593 1.80459 0.332681 0
M  V30 3614 H 335.975 2.86132 2.7376 0
M  V30 3615 H 337.149 4.5853 0.456849 0
M  V30 3616 H 335.464 4.12481 0.569946 0
M  V30 3617 H 338.061 4.16673 3.35094 0
M  V30 3618 H 338.404 2.45426 3.36261 0
M  V30 3619 H 338.937 3.44762 1.98454 0
M  V30 3620 H 335.676 6.39513 1.43885 0
M  V30 3621 H 335.196 5.31935 2.77138 0
M  V30 3622 H 336.875 5.90159 2.65182 0
M  V30 3623 N 337.007 -0.598083 1.45811 0
M  V30 3624 C 338.418 -1.18011 1.44673 0
M  V30 3625 C 338.769 -1.95378 0.179364 0
M  V30 3626 O 337.894 -2.04124 -0.718509 0
M  V30 3627 C 338.489 -2.14677 2.62105 0
M  V30 3628 C 337.048 -2.68236 2.64057 0
M  V30 3629 C 336.195 -1.43816 2.37091 0
M  V30 3630 H 339.146 -0.38686 1.53913 0
M  V30 3631 H 339.167 -2.97878 2.36746 0
M  V30 3632 H 338.679 -1.5834 3.5433 0
M  V30 3633 H 336.78 -3.28486 1.75864 0
M  V30 3634 H 336.893 -3.12021 3.63566 0
M  V30 3635 H 335.257 -1.731 1.86838 0
M  V30 3636 H 336.04 -0.893333 3.31473 0
M  V30 3637 N 338.485 -1.33259 -0.841409 0
M  V30 3638 C 339.432 -1.23302 -1.95103 0
M  V30 3639 C 340.402 -0.112204 -1.65721 0
M  V30 3640 O 341.587 -0.290038 -1.88583 0
M  V30 3641 C 338.727 -0.975583 -3.31023 0
M  V30 3642 C 337.84 -2.18243 -3.72819 0
M  V30 3643 C 336.975 -1.85936 -4.97595 0
M  V30 3644 C 336.014 -3.02866 -5.3192 0
M  V30 3645 N 335.151 -2.70565 -6.47873 0
M  V30 3646 H 339.991 -2.18207 -2.02952 0
M  V30 3647 H 337.528 -1.0851 -0.993173 0
M  V30 3648 H 339.486 -0.80677 -4.09325 0
M  V30 3649 H 338.116 -0.0632755 -3.22738 0
M  V30 3650 H 337.168 -2.46107 -2.90061 0
M  V30 3651 H 338.48 -3.05666 -3.94169 0
M  V30 3652 H 337.634 -1.65684 -5.83638 0
M  V30 3653 H 336.373 -0.957452 -4.78209 0
M  V30 3654 H 335.378 -3.23736 -4.44382 0
M  V30 3655 H 336.603 -3.93809 -5.53255 0
M  V30 3656 H 334.549 -1.8293 -6.29978 0
M  V30 3657 H 334.466 -3.51519 -6.69306 0
M  V30 3658 H 335.734 -2.53774 -7.37034 0
M  V30 3659 N 339.963 1.05934 -1.16686 0
M  V30 3660 C 341.188 1.83029 -0.975455 0
M  V30 3661 C 341.613 1.82096 0.471452 0
M  V30 3662 O 340.971 1.22443 1.33706 0
M  V30 3663 C 341.019 3.27372 -1.51195 0
M  V30 3664 O 340.123 4.06054 -0.720701 0
M  V30 3665 H 339.464 0.566194 -0.346872 0
M  V30 3666 H 341.994 1.33541 -1.55009 0
M  V30 3667 H 342.004 3.78186 -1.53099 0
M  V30 3668 H 340.679 3.27366 -2.56523 0
M  V30 3669 H 339.256 3.64812 -0.772458 0
M  V30 3670 N 341.441 0.965919 1.2453 0
M  V30 3671 C 342.689 0.625593 1.92174 0
M  V30 3672 C 343.01 -0.841652 1.75901 0
M  V30 3673 O 342.28 -1.60061 1.12948 0
M  V30 3674 H 340.86 0.228388 0.71123 0
M  V30 3675 H 343.522 1.2266 1.51461 0
M  V30 3676 H 342.618 0.864653 2.99884 0
M  V30 3677 N 342.919 -1.39368 0.735821 0
M  V30 3678 C 343.867 -2.32443 0.0855131 0
M  V30 3679 C 344.861 -1.53104 -0.724954 0
M  V30 3680 O 346.067 -1.68762 -0.626047 0
M  V30 3681 H 342.442 -0.751948 0.00885257 0
M  V30 3682 H 344.413 -2.84916 0.886883 0
M  V30 3683 C 343.162 -3.38206 -0.806983 0
M  V30 3684 H 342.485 -3.99335 -0.19274 0
M  V30 3685 H 343.925 -4.05779 -1.2296 0
M  V30 3686 C 342.384 -2.75321 -1.94165 0
M  V30 3687 O 342.914 -2.63231 -3.03435 0
M  V30 3688 N 341.12 -2.33396 -1.73132 0
M  V30 3689 H 340.667 -2.4343 -0.842596 0
M  V30 3690 H 340.625 -1.91661 -2.49225 0
M  V30 3691 N 344.397 -0.483516 -1.5 0
M  V30 3692 C 345.307 0.309172 -2.32554 0
M  V30 3693 C 346.323 0.984159 -1.43493 0
M  V30 3694 O 347.499 0.969399 -1.76535 0
M  V30 3695 C 344.564 1.36979 -3.18493 0
M  V30 3696 C 343.625 0.710095 -4.23387 0
M  V30 3697 C 342.858 1.72018 -5.05218 0
M  V30 3698 O 343.081 2.94813 -4.88305 0
M  V30 3699 O 342.015 1.28515 -5.8802 0
M  V30 3700 H 345.841 -0.366064 -3.01486 0
M  V30 3701 H 343.426 -0.24514 -1.47375 0
M  V30 3702 H 345.308 1.98385 -3.71781 0
M  V30 3703 H 343.983 2.02828 -2.52275 0
M  V30 3704 H 342.89 0.0567539 -3.74057 0
M  V30 3705 H 344.223 0.0943557 -4.9211 0
M  V30 3706 N 345.875 1.56104 -0.216619 0
M  V30 3707 C 346.838 2.18819 0.681962 0
M  V30 3708 C 347.838 1.14866 1.12528 0
M  V30 3709 O 349.028 1.40128 1.03488 0
M  V30 3710 C 346.16 2.80756 1.93362 0
M  V30 3711 H 347.353 2.99595 0.135254 0
M  V30 3712 H 344.906 1.56265 0.0330003 0
M  V30 3713 H 345.641 2.03837 2.52232 0
M  V30 3714 H 345.426 3.56876 1.62426 0
M  V30 3715 H 346.916 3.28844 2.57393 0
M  V30 3716 N 347.353 -0.0568162 1.57498 0
M  V30 3717 C 348.769 -0.411933 1.54192 0
M  V30 3718 C 348.969 -1.78287 0.938942 0
M  V30 3719 O 348.025 -2.46483 0.547919 0
M  V30 3720 C 349.338 -0.339244 2.9878 0
M  V30 3721 C 350.886 -0.418348 3.10192 0
M  V30 3722 C 351.361 -0.375407 4.56459 0
M  V30 3723 N 352.852 -0.435038 4.61153 0
M  V30 3724 C 353.587 -0.424265 5.71828 0
M  V30 3725 N 353.083 -0.367418 6.91825 0
M  V30 3726 N 354.876 -0.471938 5.60115 0
M  V30 3727 H 347.027 0.840684 1.95055 0
M  V30 3728 H 349.29 0.316987 0.893433 0
M  V30 3729 H 348.996 0.601742 3.46514 0
M  V30 3730 H 348.87 -1.14371 3.59443 0
M  V30 3731 H 351.257 -1.34976 2.62422 0
M  V30 3732 H 351.338 0.414962 2.52412 0
M  V30 3733 H 350.982 0.552219 5.04889 0
M  V30 3734 H 350.912 -1.22645 5.12119 0
M  V30 3735 H 353.403 -0.482612 3.74806 0
M  V30 3736 H 353.716 -0.363535 7.71944 0
M  V30 3737 H 352.061 -0.333879 6.94198 0
M  V30 3738 H 355.252 -0.514145 4.65268 0
M  V30 3739 H 355.425 -0.460073 6.46365 0
M  V30 3740 N 348.832 -1.54138 -0.328536 0
M  V30 3741 C 350.081 -1.71318 -1.06456 0
M  V30 3742 C 350.394 -0.491109 -1.89334 0
M  V30 3743 O 351.6 -0.54416 -2.65991 0
M  V30 3744 C 350.056 -3.03 -1.94214 0
M  V30 3745 C 349.664 -4.32595 -1.16471 0
M  V30 3746 C 351.408 -3.29544 -2.67583 0
M  V30 3747 C 349.315 -5.55341 -2.03347 0
M  V30 3748 H 348.245 -0.638429 -0.401155 0
M  V30 3749 H 350.896 -1.80633 -0.323106 0
M  V30 3750 H 349.278 -2.87579 -2.72239 0
M  V30 3751 H 350.452 -4.58766 -0.432525 0
M  V30 3752 H 348.767 -4.12777 -0.548063 0
M  V30 3753 H 351.364 -4.18444 -3.3288 0
M  V30 3754 H 351.707 -2.47206 -3.34955 0
M  V30 3755 H 352.24 -3.45809 -1.96623 0
M  V30 3756 H 348.979 -6.40268 -1.40491 0
M  V30 3757 H 348.499 -5.33397 -2.74313 0
M  V30 3758 H 350.178 -5.91557 -2.62049 0
M  V30 3759 N 350.31 0.590341 -1.46126 0
M  V30 3760 C 351.257 1.69994 -1.56111 0
M  V30 3761 C 352.227 1.61065 -0.405867 0
M  V30 3762 O 353.412 1.8039 -0.621613 0
M  V30 3763 C 350.552 3.08326 -1.55013 0
M  V30 3764 C 349.665 3.27936 -2.81215 0
M  V30 3765 C 348.8 4.56473 -2.71673 0
M  V30 3766 C 347.839 4.694 -3.92849 0
M  V30 3767 N 346.976 5.89254 -3.81738 0
M  V30 3768 H 351.816 1.60797 -2.50895 0
M  V30 3769 H 349.353 0.783799 -1.24479 0
M  V30 3770 H 351.311 3.88383 -1.52362 0
M  V30 3771 H 349.941 3.16439 -0.637667 0
M  V30 3772 H 348.993 2.41536 -2.93879 0
M  V30 3773 H 350.305 3.33357 -3.71045 0
M  V30 3774 H 349.459 5.44748 -2.67085 0
M  V30 3775 H 348.198 4.53477 -1.7947 0
M  V30 3776 H 347.203 3.79544 -3.97777 0
M  V30 3777 H 348.428 4.7418 -4.86138 0
M  V30 3778 H 346.374 5.87271 -2.92317 0
M  V30 3779 H 346.291 5.95911 -4.65217 0
M  V30 3780 H 347.559 6.79981 -3.81112 0
M  V30 3781 N 351.788 1.33704 0.83433 0
M  V30 3782 C 352.698 1.26382 1.97648 0
M  V30 3783 C 353.714 0.173548 1.73132 0
M  V30 3784 O 354.89 0.397962 1.97429 0
M  V30 3785 C 351.955 1.00769 3.31733 0
M  V30 3786 C 351.016 2.1884 3.69334 0
M  V30 3787 C 350.249 1.9444 4.9702 0
M  V30 3788 O 350.472 0.896961 5.63303 0
M  V30 3789 O 349.406 2.81093 5.32231 0
M  V30 3790 H 353.232 2.22444 2.06767 0
M  V30 3791 H 350.817 1.13795 0.968037 0
M  V30 3792 H 352.699 0.882186 4.12062 0
M  V30 3793 H 351.374 0.0773783 3.23608 0
M  V30 3794 H 350.281 2.36946 2.89495 0
M  V30 3795 H 351.614 3.10221 3.82131 0
M  V30 3796 N 353.266 -1.05314 1.17247 0
M  V30 3797 C 354.214 -2.15137 0.884238 0
M  V30 3798 C 355.208 -1.68729 -0.15063 0
M  V30 3799 O 356.414 -1.8 -0.00366673 0
M  V30 3800 H 352.789 -0.702471 0.2684 0
M  V30 3801 H 354.76 -2.36652 1.81764 0
M  V30 3802 C 353.509 -3.45243 0.412659 0
M  V30 3803 H 352.832 -3.81352 1.20043 0
M  V30 3804 H 354.272 -4.23263 0.249858 0
M  V30 3805 C 352.731 -3.25487 -0.86948 0
M  V30 3806 O 353.261 -3.51938 -1.93655 0
M  V30 3807 N 351.467 -2.78875 -0.817147 0
M  V30 3808 H 351.014 -2.57549 0.0514211 0
M  V30 3809 H 350.972 -2.66036 -1.67547 0
M  V30 3810 N 354.744 -0.972509 -1.24016 0
M  V30 3811 C 355.992 -0.635776 -1.91839 0
M  V30 3812 C 356.313 0.832312 -1.76345 0
M  V30 3813 O 355.583 1.5946 -1.13795 0
M  V30 3814 H 354.163 -0.232157 -0.710009 0
M  V30 3815 H 356.825 -1.23462 -1.50809 0
M  V30 3816 H 355.921 -0.880545 -2.99421 0
M  V30 3817 N 356.222 1.38976 -0.743202 0
M  V30 3818 C 357.17 2.32394 -0.0978389 0
M  V30 3819 C 358.164 1.53486 0.716824 0
M  V30 3820 O 359.37 1.69092 0.617088 0
M  V30 3821 H 355.745 0.75189 -0.0128402 0
M  V30 3822 H 357.716 2.84441 -0.901981 0
M  V30 3823 C 356.465 3.38629 0.789036 0
M  V30 3824 H 355.788 3.99432 0.171559 0
M  V30 3825 H 357.228 4.06426 1.20807 0
M  V30 3826 C 355.687 2.76347 1.92702 0
M  V30 3827 O 356.217 2.64836 3.02034 0
M  V30 3828 N 354.423 2.34311 1.71891 0
M  V30 3829 H 353.97 2.43873 0.829675 0
M  V30 3830 H 353.928 1.9298 2.48205 0
M  V30 3831 N 357.7 0.491464 1.49741 0
M  V30 3832 C 358.949 -0.0582189 2.01616 0
M  V30 3833 C 359.262 -1.38927 1.3769 0
M  V30 3834 O 360.468 -2.02509 1.80838 0
M  V30 3835 C 358.924 -0.154235 3.59569 0
M  V30 3836 C 358.532 1.1696 4.32463 0
M  V30 3837 C 360.276 -0.65479 4.1942 0
M  V30 3838 C 358.183 1.03627 5.8225 0
M  V30 3839 H 357.113 -0.0255317 0.753568 0
M  V30 3840 H 359.764 0.629445 1.72367 0
M  V30 3841 H 358.146 -0.906138 3.85493 0
M  V30 3842 H 359.32 1.93405 4.18248 0
M  V30 3843 H 357.635 1.60285 3.84315 0
M  V30 3844 H 360.232 -0.771903 5.29099 0
M  V30 3845 H 360.575 -1.65127 3.8215 0
M  V30 3846 H 361.108 0.040304 3.9778 0
M  V30 3847 H 357.847 2.00672 6.24028 0
M  V30 3848 H 357.367 0.312546 5.98985 0
M  V30 3849 H 359.046 0.711114 6.4308 0
M  V30 3850 N 359.178 -1.55987 0.224894 0
M  V30 3851 C 360.425 -1.9839 -0.4059 0
M  V30 3852 C 360.753 -1.11261 -1.59535 0
M  V30 3853 O 360.008 -0.158314 -1.95059 0
M  V30 3854 C 360.307 -3.46394 -0.880106 0
M  V30 3855 C 359.973 -4.5046 0.19918 0
M  V30 3856 C 358.635 -4.7864 0.495661 0
M  V30 3857 C 360.987 -5.12855 0.928939 0
M  V30 3858 C 358.315 -5.66497 1.52636 0
M  V30 3859 C 360.667 -6.01828 1.949 0
M  V30 3860 C 359.331 -6.28351 2.25236 0
M  V30 3861 H 358.601 -0.725961 -0.148529 0
M  V30 3862 H 361.248 -1.88668 0.328113 0
M  V30 3863 H 359.553 -3.53337 -1.69294 0
M  V30 3864 H 361.25 -3.76577 -1.37808 0
M  V30 3865 H 357.84 -4.28579 -0.0420526 0
M  V30 3866 H 362.024 -4.9115 0.713129 0
M  V30 3867 H 357.28 -5.8531 1.76698 0
M  V30 3868 H 361.454 -6.49225 2.51951 0
M  V30 3869 H 359.081 -6.96226 3.05244 0
M  V30 3870 N 360.656 0.0484629 -1.57525 0
M  V30 3871 C 361.933 0.777447 -1.79486 0
M  V30 3872 C 362.313 1.94597 -0.818251 0
M  V30 3873 O 361.661 2.28047 0.143767 0
M  V30 3874 C 361.871 1.22864 -3.26658 0
M  V30 3875 C 363.219 1.65251 -3.91123 0
M  V30 3876 O 364.243 1.32372 -3.3069 0
M  V30 3877 O 363.102 2.26207 -4.97486 0
M  V30 3878 H 360.196 0.374357 -0.737419 0
M  V30 3879 H 362.742 0.0267359 -1.69679 0
M  V30 3880 H 361.514 0.393589 -3.89316 0
M  V30 3881 H 361.137 2.03996 -3.41279 0
M  V30 3882 N 362.134 1.5431 0.320358 0
M  V30 3883 C 363.381 1.72668 1.05792 0
M  V30 3884 C 363.709 0.502084 1.87908 0
M  V30 3885 O 362.964 -0.516149 1.88771 0
M  V30 3886 C 363.263 2.95639 2.00828 0
M  V30 3887 C 362.929 4.30265 1.34843 0
M  V30 3888 C 361.591 4.66865 1.16578 0
M  V30 3889 C 363.943 5.13801 0.875095 0
M  V30 3890 C 361.271 5.84597 0.496336 0
M  V30 3891 C 363.623 6.32219 0.219463 0
M  V30 3892 C 362.287 6.67495 0.0246915 0
M  V30 3893 H 361.557 0.631837 0.387121 0
M  V30 3894 H 364.204 1.88552 0.334735 0
M  V30 3895 H 362.509 2.74456 2.79609 0
M  V30 3896 H 364.206 3.07038 2.57932 0
M  V30 3897 H 360.796 4.01472 1.50061 0
M  V30 3898 H 364.98 4.86039 1.00398 0
M  V30 3899 H 360.236 6.10486 0.334264 0
M  V30 3900 H 364.41 6.96227 -0.155291 0
M  V30 3901 H 362.037 7.5858 -0.496065 0
M  V30 3902 N 363.613 -0.582584 1.46437 0
M  V30 3903 C 364.523 -1.71949 1.59595 0
M  V30 3904 C 365.539 -1.67264 0.479443 0
M  V30 3905 O 366.715 -1.87171 0.743579 0
M  V30 3906 C 363.78 -3.08452 1.58298 0
M  V30 3907 C 362.841 -3.244 2.81182 0
M  V30 3908 C 362.074 -4.54391 2.79937 0
M  V30 3909 O 362.297 -5.38287 1.8869 0
M  V30 3910 O 361.231 -4.73588 3.71481 0
M  V30 3911 H 365.057 -1.63795 2.55744 0
M  V30 3912 H 362.642 -0.749643 1.29231 0
M  V30 3913 H 364.524 -3.89732 1.60271 0
M  V30 3914 H 363.199 -3.17043 0.653094 0
M  V30 3915 H 362.106 -2.42613 2.84763 0
M  V30 3916 H 363.439 -3.20699 3.7338 0
M  V30 3917 N 365.091 -1.34144 -0.827227 0
M  V30 3918 C 366.021 -1.28005 -1.95287 0
M  V30 3919 C 367.002 -0.158321 -1.69362 0
M  V30 3920 O 368.187 -0.349987 -1.9102 0
M  V30 3921 C 365.317 -1.03036 -3.31664 0
M  V30 3922 C 364.271 -2.11628 -3.72019 0
M  V30 3923 C 363.597 -1.71854 -5.0633 0
M  V30 3924 C 364.897 -3.53417 -3.8457 0
M  V30 3925 H 366.591 -2.22187 -2.00682 0
M  V30 3926 H 364.137 -1.0696 -0.964135 0
M  V30 3927 H 366.09 -0.973863 -4.09993 0
M  V30 3928 H 364.814 -0.0529391 -3.26557 0
M  V30 3929 H 363.473 -2.16339 -2.95961 0
M  V30 3930 H 363.121 -0.727841 -4.97706 0
M  V30 3931 H 362.821 -2.44531 -5.34302 0
M  V30 3932 H 364.345 -1.67692 -5.87122 0
M  V30 3933 H 365.759 -3.51142 -4.5318 0
M  V30 3934 H 364.156 -4.24679 -4.2399 0
M  V30 3935 H 365.226 -3.91072 -2.86689 0
M  V30 3936 N 366.569 1.04691 -1.17803 0
M  V30 3937 C 367.797 1.81446 -0.99423 0
M  V30 3938 C 368.212 1.83174 0.457459 0
M  V30 3939 O 367.569 1.26265 1.31771 0
M  V30 3940 C 367.62 3.27334 -1.5341 0
M  V30 3941 O 367.341 3.25798 -2.92895 0
M  V30 3942 C 368.842 4.20759 -1.39559 0
M  V30 3943 H 366.062 0.571599 -0.351447 0
M  V30 3944 H 368.606 1.31982 -1.56208 0
M  V30 3945 H 366.761 3.74052 -1.00815 0
M  V30 3946 H 367.175 4.17144 -3.17949 0
M  V30 3947 H 368.649 5.21084 -1.82141 0
M  V30 3948 H 369.126 4.37856 -0.343394 0
M  V30 3949 H 369.732 3.79901 -1.91195 0
M  V30 3950 N 368.047 0.979072 1.23499 0
M  V30 3951 C 369.01 0.523244 2.23147 0
M  V30 3952 C 370.01 -0.386406 1.56088 0
M  V30 3953 O 371.2 -0.180283 1.73265 0
M  V30 3954 C 368.332 -0.240739 3.40049 0
M  V30 3955 H 369.525 1.40432 2.64989 0
M  V30 3956 H 367.078 0.764824 1.36309 0
M  V30 3957 H 367.813 -1.13841 3.03662 0
M  V30 3958 H 367.598 0.412207 3.89927 0
M  V30 3959 H 369.088 -0.548297 4.13985 0
M  V30 3960 N 369.525 -1.3858 0.750561 0
M  V30 3961 C 370.435 -2.34278 0.122825 0
M  V30 3962 C 371.451 -1.59116 -0.704131 0
M  V30 3963 O 372.627 -1.91326 -0.628987 0
M  V30 3964 C 369.692 -3.38221 -0.762086 0
M  V30 3965 C 368.753 -4.29227 0.078896 0
M  V30 3966 C 367.986 -5.28205 -0.763874 0
M  V30 3967 O 368.209 -5.34112 -2.00201 0
M  V30 3968 O 367.143 -6.01618 -0.18428 0
M  V30 3969 H 370.969 -2.89649 0.913088 0
M  V30 3970 H 368.554 -1.40374 0.511417 0
M  V30 3971 H 370.436 -4.01872 -1.26793 0
M  V30 3972 H 369.111 -2.85211 -1.5309 0
M  V30 3973 H 368.018 -3.68747 0.630621 0
M  V30 3974 H 369.351 -4.85484 0.810289 0
M  V30 3975 N 371.003 -0.499398 -1.49478 0
M  V30 3976 C 372.28 0.108629 -1.95298 0
M  V30 3977 C 372.66 1.54282 -1.44084 0
M  V30 3978 O 372.008 2.18944 -0.653908 0
M  V30 3979 C 372.218 0.0229111 -3.48992 0
M  V30 3980 C 373.566 0.197643 -4.2414 0
M  V30 3981 O 374.59 0.0981735 -3.56065 0
M  V30 3982 O 373.449 0.401669 -5.45022 0
M  V30 3983 H 370.543 0.096181 -0.821388 0
M  V30 3984 H 373.089 -0.561822 -1.6013 0
M  V30 3985 H 371.861 -0.977321 -3.78899 0
M  V30 3986 H 371.484 0.733579 -3.90774 0
M  V30 3987 N 372.481 1.55866 -0.233164 0
M  V30 3988 C 373.73 1.97779 0.39579 0
M  V30 3989 C 374.043 1.12419 1.60066 0
M  V30 3990 O 375.249 1.44283 2.29988 0
M  V30 3991 C 373.705 3.5188 0.755556 0
M  V30 3992 C 373.313 4.45959 -0.427152 0
M  V30 3993 C 375.057 4.02479 1.34946 0
M  V30 3994 C 372.964 5.91383 -0.0443043 0
M  V30 3995 H 371.894 0.738592 0.15165 0
M  V30 3996 H 374.545 1.80486 -0.331212 0
M  V30 3997 H 372.927 3.64816 1.5403 0
M  V30 3998 H 374.101 4.44776 -1.20462 0
M  V30 3999 H 372.416 4.05765 -0.935068 0
M  V30 4000 H 375.013 5.08637 1.649 0
M  V30 4001 H 375.356 3.49014 2.26925 0
M  V30 4002 H 375.889 3.92813 0.62791 0
M  V30 4003 H 372.628 6.48857 -0.930874 0
M  V30 4004 H 372.148 5.95734 0.697238 0
M  V30 4005 H 373.827 6.45893 0.378334 0
M  V30 4006 N 373.959 -0.0401083 1.57549 0
M  V30 4007 C 374.891 -1.07149 2.02612 0
M  V30 4008 C 375.904 -1.33126 0.937085 0
M  V30 4009 O 377.093 -1.30808 1.21456 0
M  V30 4010 C 374.193 -2.41561 2.37701 0
M  V30 4011 C 373.366 -2.35096 3.68848 0
M  V30 4012 C 372.425 -3.51867 3.91249 0
M  V30 4013 O 371.451 -3.3186 4.62447 0
M  V30 4014 N 372.653 -4.73351 3.36035 0
M  V30 4015 H 375.418 -0.687485 2.91708 0
M  V30 4016 H 372.979 -0.228248 1.60283 0
M  V30 4017 H 374.971 -3.18379 2.49833 0
M  V30 4018 H 373.541 -2.71846 1.54332 0
M  V30 4019 H 372.761 -1.4345 3.67173 0
M  V30 4020 H 374.049 -2.27908 4.54901 0
M  V30 4021 H 373.447 -4.92507 2.78304 0
M  V30 4022 H 372.004 -5.47572 3.53565 0
M  V30 4023 N 375.437 -1.54477 -0.31217 0
M  V30 4024 C 376.683 -1.73483 -1.0503 0
M  V30 4025 C 377.016 -0.513125 -1.87298 0
M  V30 4026 O 376.291 0.489864 -1.8823 0
M  V30 4027 C 376.574 -3.01723 -1.96558 0
M  V30 4028 C 376.427 -4.3417 -1.17545 0
M  V30 4029 C 377.746 -3.25772 -2.95907 0
M  V30 4030 H 374.865 -0.631222 -0.380432 0
M  V30 4031 H 377.507 -1.87184 -0.325932 0
M  V30 4032 H 375.657 -2.90174 -2.58324 0
M  V30 4033 H 377.329 -4.5762 -0.581513 0
M  V30 4034 H 375.572 -4.31159 -0.477925 0
M  V30 4035 H 376.243 -5.20143 -1.84811 0
M  V30 4036 H 378.719 -3.36857 -2.44267 0
M  V30 4037 H 377.595 -4.16838 -3.57123 0
M  V30 4038 H 377.856 -2.43537 -3.68974 0
M  V30 4039 N 376.915 0.57481 -1.46744 0
M  V30 4040 C 378.164 1.32898 -1.51727 0
M  V30 4041 C 378.477 1.948 -0.176692 0
M  V30 4042 O 379.683 2.71299 -0.104385 0
M  V30 4043 C 378.139 2.40901 -2.67385 0
M  V30 4044 C 377.747 1.85266 -4.07898 0
M  V30 4045 C 379.491 3.17609 -2.81646 0
M  V30 4046 C 377.398 2.90945 -5.14883 0
M  V30 4047 H 376.328 0.499631 -0.564699 0
M  V30 4048 H 378.979 0.612536 -1.72975 0
M  V30 4049 H 377.361 3.15379 -2.39483 0
M  V30 4050 H 378.535 1.17278 -4.45626 0
M  V30 4051 H 376.85 1.21199 -3.98371 0
M  V30 4052 H 379.447 3.96493 -3.58744 0
M  V30 4053 H 379.79 3.70696 -1.89448 0
M  V30 4054 H 380.323 2.50239 -3.09233 0
M  V30 4055 H 377.062 2.42736 -6.089 0
M  V30 4056 H 376.582 3.57398 -4.81691 0
M  V30 4057 H 378.261 3.54755 -5.41071 0
M  V30 4058 N 378.394 1.34581 0.820102 0
M  V30 4059 C 379.671 1.17675 1.56244 0
M  V30 4060 C 380.051 -0.249541 2.0962 0
M  V30 4061 O 379.399 -1.25125 1.91196 0
M  V30 4062 C 379.609 2.23364 2.6816 0
M  V30 4063 C 380.957 2.58485 3.36854 0
M  V30 4064 O 381.981 2.22175 2.78418 0
M  V30 4065 O 380.84 3.20868 4.42386 0
M  V30 4066 H 377.934 0.456333 0.689702 0
M  V30 4067 H 380.48 1.46222 0.861231 0
M  V30 4068 H 379.252 3.19087 2.26493 0
M  V30 4069 H 378.875 1.96009 3.45928 0
M  V30 4070 N 379.872 -1.04064 1.18357 0
M  V30 4071 C 381.12 -1.76915 0.977013 0
M  V30 4072 C 381.441 -1.88624 -0.494577 0
M  V30 4073 O 380.711 -1.41125 -1.3587 0
M  V30 4074 H 379.291 -0.65535 0.358504 0
M  V30 4075 H 381.953 -1.25592 1.49039 0
M  V30 4076 H 381.049 -2.78178 1.41504 0
M  V30 4077 N 381.35 -0.985608 -1.22978 0
M  V30 4078 C 382.283 -0.47487 -2.23204 0
M  V30 4079 C 383.261 0.460865 -1.55932 0
M  V30 4080 O 384.445 0.388105 -1.84461 0
M  V30 4081 C 381.572 0.312427 -3.37256 0
M  V30 4082 C 380.618 -0.568219 -4.22698 0
M  V30 4083 S 381.451 -2.01919 -4.95973 0
M  V30 4084 C 382.607 -1.24118 -6.1347 0
M  V30 4085 H 382.84 -1.32419 -2.66181 0
M  V30 4086 H 380.373 -0.792005 -1.32539 0
M  V30 4087 H 382.331 0.760645 -4.03391 0
M  V30 4088 H 380.992 1.13693 -2.92801 0
M  V30 4089 H 380.185 0.0371657 -5.03986 0
M  V30 4090 H 379.787 -0.952897 -3.61657 0
M  V30 4091 H 382.079 -0.505121 -6.75614 0
M  V30 4092 H 383.022 -2.02907 -6.78406 0
M  V30 4093 H 383.43 -0.757669 -5.59392 0
M  V30 4094 N 382.828 1.3818 -0.7579 0
M  V30 4095 C 383.776 2.32277 -0.122482 0
M  V30 4096 C 384.77 1.54238 0.700505 0
M  V30 4097 O 385.976 1.69737 0.599119 0
M  V30 4098 H 382.351 0.751712 -0.0208143 0
M  V30 4099 H 384.322 2.83469 -0.932099 0
M  V30 4100 C 383.071 3.39447 0.753076 0
M  V30 4101 H 382.394 3.99591 0.129184 0
M  V30 4102 H 383.834 4.07684 1.16489 0
M  V30 4103 C 382.293 2.78375 1.8976 0
M  V30 4104 O 382.823 2.68025 2.99208 0
M  V30 4105 N 381.029 2.36121 1.69397 0
M  V30 4106 H 380.576 2.4474 0.803762 0
M  V30 4107 H 380.534 1.95602 2.46145 0
M  V30 4108 N 384.306 0.507319 1.49211 0
M  V30 4109 C 385.269 -0.256763 2.27757 0
M  V30 4110 C 386.269 -0.888287 1.34038 0
M  V30 4111 O 387.459 -0.751841 1.5714 0
M  V30 4112 C 384.591 -1.36905 3.12202 0
M  V30 4113 H 385.784 0.432557 2.96764 0
M  V30 4114 H 383.337 0.262488 1.5408 0
M  V30 4115 H 384.072 -2.09233 2.47775 0
M  V30 4116 H 383.857 -0.921599 3.81115 0
M  V30 4117 H 385.347 -1.9071 3.7151 0
M  V30 4118 N 385.784 -1.5574 0.241426 0
M  V30 4119 C 387.032 -1.98417 -0.384075 0
M  V30 4120 C 387.353 -1.13078 -1.58866 0
M  V30 4121 O 386.623 -0.212312 -1.94746 0
M  V30 4122 H 385.203 -0.732813 -0.144894 0
M  V30 4123 H 387.865 -1.9193 0.338943 0
M  V30 4124 H 386.961 -3.04219 -0.696939 0
M  V30 4125 N 387.262 0.0317525 -1.57568 0
M  V30 4126 C 388.212 1.04101 -2.02847 0
M  V30 4127 C 389.196 1.3219 -0.917317 0
M  V30 4128 O 390.388 1.31819 -1.18121 0
M  V30 4129 C 387.517 2.34295 -2.5092 0
M  V30 4130 C 386.603 2.09308 -3.68851 0
M  V30 4131 N 386.994 1.5437 -4.81667 0
M  V30 4132 C 385.292 2.39604 -3.76172 0
M  V30 4133 C 385.993 1.45126 -5.63306 0
M  V30 4134 N 384.969 1.92589 -5.08341 0
M  V30 4135 H 388.771 0.610217 -2.87495 0
M  V30 4136 H 386.285 0.238108 -1.60645 0
M  V30 4137 H 388.282 3.07404 -2.81617 0
M  V30 4138 H 386.942 2.78055 -1.67677 0
M  V30 4139 H 387.953 1.22678 -5.03161 0
M  V30 4140 H 384.63 2.86457 -3.03724 0
M  V30 4141 H 386.02 1.03163 -6.63933 0
M  V30 4142 N 388.74 1.54641 0.303973 0
M  V30 4143 C 390.156 1.45788 0.649463 0
M  V30 4144 C 390.356 0.64666 1.90842 0
M  V30 4145 O 389.412 0.153183 2.52035 0
M  V30 4146 C 390.725 2.89718 0.805227 0
M  V30 4147 C 392.273 2.99742 0.901305 0
M  V30 4148 C 392.748 4.44863 1.08909 0
M  V30 4149 N 394.239 4.48559 1.15536 0
M  V30 4150 C 394.974 5.58026 1.3189 0
M  V30 4151 N 394.47 6.77422 1.45161 0
M  V30 4152 N 396.263 5.45708 1.34755 0
M  V30 4153 H 388.414 2.05854 -0.523237 0
M  V30 4154 H 390.677 0.932186 -0.172431 0
M  V30 4155 H 390.383 3.51666 -0.0489108 0
M  V30 4156 H 390.257 3.36964 1.69513 0
M  V30 4157 H 392.644 2.3791 1.74593 0
M  V30 4158 H 392.725 2.55797 -0.0125531 0
M  V30 4159 H 392.369 5.07288 0.249241 0
M  V30 4160 H 392.299 4.86436 2.01713 0
M  V30 4161 H 394.79 3.6254 1.06646 0
M  V30 4162 H 395.103 7.56604 1.57387 0
M  V30 4163 H 393.448 6.80292 1.42223 0
M  V30 4164 H 396.639 4.51378 1.23996 0
M  V30 4165 H 396.812 6.3107 1.47157 0
M  V30 4166 N 390.218 -0.567019 1.47046 0
M  V30 4167 C 391.448 -1.34831 1.56538 0
M  V30 4168 C 391.856 -1.8802 0.21101 0
M  V30 4169 O 391.199 -1.65152 -0.804387 0
M  V30 4170 C 391.261 -2.56139 2.52256 0
M  V30 4171 C 390.925 -2.24307 3.98165 0
M  V30 4172 C 391.922 -1.82192 4.86931 0
M  V30 4173 C 389.607 -2.35968 4.43423 0
M  V30 4174 C 391.601 -1.52153 6.18973 0
M  V30 4175 C 389.288 -2.05542 5.75496 0
M  V30 4176 C 390.286 -1.63701 6.63092 0
M  V30 4177 O 389.974 -1.33657 7.92711 0
M  V30 4178 H 389.706 -0.417683 0.531523 0
M  V30 4179 H 392.26 -0.694726 1.93294 0
M  V30 4180 H 390.49 -3.24356 2.10548 0
M  V30 4181 H 392.179 -3.18214 2.51982 0
M  V30 4182 H 392.945 -1.72684 4.53217 0
M  V30 4183 H 388.824 -2.67495 3.75456 0
M  V30 4184 H 392.368 -1.19421 6.87302 0
M  V30 4185 H 388.265 -2.14679 6.08755 0
M  V30 4186 H 389.033 -1.4737 8.05124 0
M  V30 4187 N 391.696 -1.35014 -0.812953 0
M  V30 4188 C 392.944 -1.27678 -1.56661 0
M  V30 4189 C 393.265 0.150359 -1.94419 0
M  V30 4190 O 392.535 1.08532 -1.63088 0
M  V30 4191 H 391.115 -0.469602 -0.580933 0
M  V30 4192 H 393.777 -1.69043 -0.970076 0
M  V30 4193 H 392.873 -1.88833 -2.48492 0
M  V30 4194 N 393.175 1.03435 -1.18907 0
M  V30 4195 C 394.586 1.58195 -0.991523 0
M  V30 4196 C 394.937 1.90801 0.457081 0
M  V30 4197 O 394.062 1.70272 1.33553 0
M  V30 4198 C 394.657 2.87432 -1.79355 0
M  V30 4199 C 393.216 3.38785 -1.64017 0
M  V30 4200 C 392.363 2.12292 -1.78402 0
M  V30 4201 H 395.314 0.860299 -1.33359 0
M  V30 4202 H 395.335 3.58096 -1.28638 0
M  V30 4203 H 394.847 2.63669 -2.84781 0
M  V30 4204 H 392.948 3.67547 -0.611536 0
M  V30 4205 H 393.061 4.12186 -2.44212 0
M  V30 4206 H 391.425 2.23901 -1.2141 0
M  V30 4207 H 392.208 1.90977 -2.85277 0
M  V30 4208 N 394.653 0.992116 1.22453 0
M  V30 4209 C 395.93 0.583508 1.86694 0
M  V30 4210 C 396.31 -0.9392 1.89056 0
M  V30 4211 O 395.658 -1.82081 1.38053 0
M  V30 4212 C 395.868 1.20304 3.2761 0
M  V30 4213 C 397.216 1.30308 4.0411 0
M  V30 4214 O 398.24 1.15737 3.36873 0
M  V30 4215 O 397.099 1.53615 5.24466 0
M  V30 4216 H 394.193 0.198129 0.802916 0
M  V30 4217 H 396.739 1.08794 1.30238 0
M  V30 4218 H 395.511 2.24461 3.2052 0
M  V30 4219 H 395.134 0.684144 3.9167 0
M  V30 4220 N 396.131 -1.37776 0.765217 0
M  V30 4221 C 397.542 -1.82521 0.392819 0
M  V30 4222 C 397.893 -1.63789 -1.08017 0
M  V30 4223 O 397.018 -1.14542 -1.83601 0
M  V30 4224 C 397.613 -3.31358 0.706214 0
M  V30 4225 C 396.172 -3.74406 0.386952 0
M  V30 4226 C 395.319 -2.60394 0.953422 0
M  V30 4227 H 398.27 -1.2634 0.960412 0
M  V30 4228 H 398.291 -3.80498 -0.0114706 0
M  V30 4229 H 397.803 -3.44959 1.77833 0
M  V30 4230 H 395.904 -3.66377 -0.678112 0
M  V30 4231 H 396.017 -4.70749 0.890636 0
M  V30 4232 H 394.381 -2.51878 0.378064 0
M  V30 4233 H 395.164 -2.76791 2.03081 0
M  V30 4234 N 397.609 -0.515225 -1.4894 0
M  V30 4235 C 398.519 0.259774 -2.33157 0
M  V30 4236 C 399.535 0.953501 -1.45548 0
M  V30 4237 O 400.711 0.931735 -1.78552 0
M  V30 4238 C 397.776 1.30193 -3.21326 0
M  V30 4239 C 396.837 0.620129 -4.24797 0
M  V30 4240 C 396.07 1.61263 -5.08753 0
M  V30 4241 O 396.293 2.84389 -4.94448 0
M  V30 4242 O 395.227 1.16013 -5.90614 0
M  V30 4243 H 399.053 -0.429932 -3.00641 0
M  V30 4244 H 396.638 -0.276346 -1.46822 0
M  V30 4245 H 398.52 1.90455 -3.75905 0
M  V30 4246 H 397.195 1.97431 -2.56521 0
M  V30 4247 H 396.102 -0.0226019 -3.74093 0
M  V30 4248 H 397.435 -0.0100493 -4.92199 0
M  V30 4249 N 399.087 1.5561 -0.249682 0
M  V30 4250 C 400.333 1.99306 0.374841 0
M  V30 4251 C 400.666 1.13767 1.57387 0
M  V30 4252 O 399.941 0.201711 1.93451 0
M  V30 4253 C 400.224 3.51507 0.781986 0
M  V30 4254 C 400.077 4.4781 -0.422629 0
M  V30 4255 C 401.396 4.08884 1.62793 0
M  V30 4256 H 398.515 0.724572 0.134773 0
M  V30 4257 H 401.157 1.86719 -0.351549 0
M  V30 4258 H 399.307 3.62363 1.4009 0
M  V30 4259 H 400.979 4.48931 -1.06108 0
M  V30 4260 H 399.222 4.20518 -1.06524 0
M  V30 4261 H 399.893 5.51919 -0.0943766 0
M  V30 4262 H 402.369 4.01147 1.10547 0
M  V30 4263 H 401.245 5.1564 1.88166 0
M  V30 4264 H 401.506 3.57515 2.60068 0
M  V30 4265 N 400.565 -0.0233959 1.57583 0
M  V30 4266 C 401.812 -0.713063 1.8953 0
M  V30 4267 C 402.14 -1.75056 0.847673 0
M  V30 4268 O 401.395 -1.95119 -0.150636 0
M  V30 4269 C 401.694 -1.41428 3.28227 0
M  V30 4270 C 401.36 -0.512222 4.47981 0
M  V30 4271 C 400.022 -0.263785 4.80476 0
M  V30 4272 C 402.374 0.110248 5.21083 0
M  V30 4273 C 399.702 0.615804 5.83459 0
M  V30 4274 C 402.054 0.977573 6.25001 0
M  V30 4275 C 400.718 1.23542 6.55968 0
M  V30 4276 H 399.988 -0.260928 0.69354 0
M  V30 4277 H 402.635 0.0271047 1.91481 0
M  V30 4278 H 400.94 -2.22791 3.22291 0
M  V30 4279 H 402.637 -1.95355 3.50196 0
M  V30 4280 H 399.227 -0.716013 4.22577 0
M  V30 4281 H 403.411 -0.0687137 4.96252 0
M  V30 4282 H 398.667 0.82382 6.05824 0
M  V30 4283 H 402.841 1.46638 6.80786 0
M  V30 4284 H 400.468 1.91871 7.35588 0
M  V30 4285 N 402.043 -1.548 -0.295768 0
M  V30 4286 C 402.976 -1.81003 -1.38972 0
M  V30 4287 C 403.954 -0.661544 -1.48534 0
M  V30 4288 O 405.138 -0.902074 -1.65514 0
M  V30 4289 C 402.265 -1.95141 -2.76835 0
M  V30 4290 C 401.311 -3.17592 -2.84671 0
M  V30 4291 S 402.144 -4.75531 -2.46232 0
M  V30 4292 C 403.3 -4.92613 -3.86114 0
M  V30 4293 H 403.533 -2.73507 -1.16537 0
M  V30 4294 H 401.066 -1.46278 -0.494168 0
M  V30 4295 H 403.024 -2.03972 -3.56238 0
M  V30 4296 H 401.685 -1.03565 -2.96535 0
M  V30 4297 H 400.878 -3.24303 -3.85803 0
M  V30 4298 H 400.48 -3.07235 -2.13267 0
M  V30 4299 H 402.772 -4.76957 -4.81164 0
M  V30 4300 H 403.715 -5.94698 -3.8437 0
M  V30 4301 H 404.123 -4.2073 -3.76359 0
M  V30 4302 N 403.521 0.559213 -1.47345 0
M  V30 4303 C 404.469 1.68747 -1.60085 0
M  V30 4304 C 405.463 1.628 -0.46825 0
M  V30 4305 O 406.669 1.68009 -0.645977 0
M  V30 4306 H 403.044 0.558329 -0.503759 0
M  V30 4307 H 405.015 1.55138 -2.54902 0
M  V30 4308 C 403.764 3.07103 -1.63042 0
M  V30 4309 H 403.087 3.12361 -2.49541 0
M  V30 4310 H 404.527 3.85743 -1.76006 0
M  V30 4311 C 402.986 3.34935 -0.363357 0
M  V30 4312 O 403.516 3.98102 0.536416 0
M  V30 4313 N 401.722 2.89574 -0.244 0
M  V30 4314 H 401.269 2.38348 -0.977133 0
M  V30 4315 H 401.227 3.08566 0.602836 0
M  V30 4316 N 404.999 1.35443 0.805782 0
M  V30 4317 C 406.276 1.19325 1.54987 0
M  V30 4318 C 406.656 -0.227294 2.09873 0
M  V30 4319 O 406.004 -1.2309 1.92512 0
M  V30 4320 C 406.214 2.26196 2.65775 0
M  V30 4321 C 407.562 2.62043 3.34094 0
M  V30 4322 O 408.586 2.25115 2.76046 0
M  V30 4323 O 407.445 3.25542 4.38958 0
M  V30 4324 H 404.539 0.463623 0.684823 0
M  V30 4325 H 407.085 1.47127 0.845674 0
M  V30 4326 H 405.857 3.21471 2.23096 0
M  V30 4327 H 405.48 1.99667 3.43829 0
M  V30 4328 N 406.477 -1.02803 1.19454 0
M  V30 4329 C 407.724 -1.76217 0.997693 0
M  V30 4330 C 408.052 -1.887 -0.47144 0
M  V30 4331 O 407.307 -1.4011 -1.3663 0
M  V30 4332 C 407.606 -3.18941 1.6128 0
M  V30 4333 C 407.272 -3.26463 3.11019 0
M  V30 4334 C 405.934 -3.28223 3.51885 0
M  V30 4335 C 408.286 -3.25542 4.07028 0
M  V30 4336 C 405.614 -3.26719 4.8731 0
M  V30 4337 C 407.966 -3.25579 5.42385 0
M  V30 4338 C 406.63 -3.25637 5.82681 0
M  V30 4339 H 405.9 -0.644823 0.365082 0
M  V30 4340 H 408.547 -1.20655 1.4871 0
M  V30 4341 H 406.852 -3.77587 1.04572 0
M  V30 4342 H 408.549 -3.74415 1.43577 0
M  V30 4343 H 405.139 -3.25822 2.78457 0
M  V30 4344 H 409.323 -3.23362 3.76498 0
M  V30 4345 H 404.579 -3.25089 5.1781 0
M  V30 4346 H 408.753 -3.23817 6.16535 0
M  V30 4347 H 406.38 -3.24226 6.87591 0
M  V30 4348 O 407.994 -1.12654 -1.15721 0
M  V30 4349 H 408.685 -0.83899 -1.74587 0
M  V30 END ATOM
M  V30 BEGIN BOND
M  V30 END BOND
M  V30 END CTAB
M  END
$$$$
