drugbank_target|Q15878 Voltage-dependent R-type calcium channel subunit alpha-1E (DB00153; DB00228; DB00421; DB11148; DB13746)
 OpenBabel12092121003D

  0  0  0     0  0            999 V3000
M  V30 BEGIN CTAB
M  V30 COUNTS 36749 37161 0 0 0
M  V30 BEGIN ATOM
M  V30 1 H -0.908 1.98254 -0.117106 0
M  V30 2 N 0 1.576 0 0
M  V30 3 C 0.933 2.03868 1.02534 0
M  V30 4 C 1.911 0.928543 1.3348 0
M  V30 5 O 3.095 1.19667 1.45644 0
M  V30 6 C 0.222 2.43627 2.35294 0
M  V30 7 C -0.732 3.65373 2.2001 0
M  V30 8 S 0.101 5.13292 1.52614 0
M  V30 9 C 1.257 5.56322 2.86805 0
M  V30 10 H 1.49 2.90518 0.631377 0
M  V30 11 H -0.977 1.52953 0.210867 0
M  V30 12 H 0.981 2.67203 3.11629 0
M  V30 13 H -0.358 1.57376 2.7183 0
M  V30 14 H -1.165 3.90944 3.18086 0
M  V30 15 H -1.563 3.418 1.51819 0
M  V30 16 H 0.729 5.58782 3.83104 0
M  V30 17 H 1.672 6.56266 2.65933 0
M  V30 18 H 2.08 4.83886 2.90714 0
M  V30 19 N 1.4781 -0.272755 1.55222 0
M  V30 20 C 2.4411 -1.32041 1.87344 0
M  V30 21 C 3.4411 -1.42342 0.74803 0
M  V30 22 O 4.6311 -1.41488 1.0162 0
M  V30 23 C 1.7631 -2.70173 2.07893 0
M  V30 24 H 2.9561 -1.04789 2.80997 0
M  V30 25 H 0.5091 -0.51083 1.47717 0
M  V30 26 H 1.2441 -3.02605 1.16622 0
M  V30 27 H 1.0291 -2.64082 2.89833 0
M  V30 28 H 2.5191 -3.45869 2.34017 0
M  V30 29 N 2.9562 -1.48159 -0.537278 0
M  V30 30 C 4.3722 -1.34118 -0.865129 0
M  V30 31 C 4.5722 -0.346678 -1.98495 0
M  V30 32 O 3.6282 0.234715 -2.51407 0
M  V30 33 C 4.9412 -2.73963 -1.23954 0
M  V30 34 C 6.4892 -2.82397 -1.34984 0
M  V30 35 C 6.9642 -4.22928 -1.75772 0
M  V30 36 N 8.4552 -4.25566 -1.82887 0
M  V30 37 C 9.1902 -5.31235 -2.15817 0
M  V30 38 N 8.6862 -6.47189 -2.47222 0
M  V30 39 N 10.4792 -5.18624 -2.16761 0
M  V30 40 H 2.6302 -2.1144 0.201715 0
M  V30 41 H 4.8932 -0.947598 0.0275949 0
M  V30 42 H 4.5992 -3.48264 -0.490381 0
M  V30 43 H 4.4732 -3.0702 -2.19132 0
M  V30 44 H 6.8602 -2.08356 -2.08978 0
M  V30 45 H 6.9412 -2.5297 -0.379448 0
M  V30 46 H 6.5852 -4.97482 -1.02341 0
M  V30 47 H 6.5152 -4.49794 -2.73848 0
M  V30 48 H 9.0062 -3.41924 -1.60924 0
M  V30 49 H 9.3192 -7.23564 -2.71433 0
M  V30 50 H 7.6642 -6.50476 -2.44757 0
M  V30 51 H 10.8552 -4.27056 -1.91679 0
M  V30 52 H 11.0282 -6.01078 -2.42093 0
M  V30 53 N 4.4343 0.785586 -1.36625 0
M  V30 54 C 5.6813 1.54362 -1.31067 0
M  V30 55 C 6.0093 1.94195 0.10893 0
M  V30 56 O 5.2643 1.63262 1.07908 0
M  V30 57 C 5.5633 2.83007 -2.1827 0
M  V30 58 C 5.2293 2.62294 -3.6676 0
M  V30 59 C 3.8913 2.56353 -4.0723 0
M  V30 60 C 6.2433 2.43371 -4.6089 0
M  V30 61 C 3.5713 2.29461 -5.39967 0
M  V30 62 C 5.9233 2.18005 -5.93849 0
M  V30 63 C 4.5873 2.105 -6.3344 0
M  V30 64 H 3.8573 0.564851 -0.479609 0
M  V30 65 H 6.5043 0.906028 -1.68711 0
M  V30 66 H 4.8093 3.51253 -1.73576 0
M  V30 67 H 6.5063 3.40817 -2.11292 0
M  V30 68 H 3.0963 2.67774 -3.34656 0
M  V30 69 H 7.2803 2.46959 -4.30494 0
M  V30 70 H 2.5363 2.22135 -5.69619 0
M  V30 71 H 6.7103 2.02359 -6.66351 0
M  V30 72 H 4.3373 1.89425 -7.36222 0
M  V30 73 N 5.9124 1.20967 1.01018 0
M  V30 74 C 7.1604 1.02172 1.74371 0
M  V30 75 C 7.4814 -0.446414 1.89821 0
M  V30 76 O 6.7514 -1.32234 1.44537 0
M  V30 77 H 5.3314 0.375066 0.646014 0
M  V30 78 H 7.9934 1.52187 1.21758 0
M  V30 79 H 7.0894 1.48538 2.74487 0
M  V30 80 N 7.3905 -1.2043 1.01659 0
M  V30 81 C 8.3005 -2.2689 0.596484 0
M  V30 82 C 9.3165 -1.70107 -0.36599 0
M  V30 83 O 10.4925 -2.00117 -0.226942 0
M  V30 84 C 7.5575 -3.4665 -0.0586659 0
M  V30 85 C 6.6185 -4.18662 0.949751 0
M  V30 86 C 5.8515 -5.32705 0.32577 0
M  V30 87 O 6.0745 -5.63656 -0.874509 0
M  V30 88 O 5.0085 -5.92803 1.04249 0
M  V30 89 H 8.8345 -2.65041 1.4828 0
M  V30 90 H 6.4195 -1.27048 0.786082 0
M  V30 91 H 8.3015 -4.19256 -0.424564 0
M  V30 92 H 6.9765 -3.10375 -0.91918 0
M  V30 93 H 5.8835 -3.48229 1.36702 0
M  V30 94 H 7.2165 -4.58878 1.78023 0
M  V30 95 N 8.8686 -0.792821 -1.36206 0
M  V30 96 C 9.8316 -0.199459 -2.2833 0
M  V30 97 C 10.8316 0.605189 -1.48977 0
M  V30 98 O 12.0216 0.425685 -1.68919 0
M  V30 99 C 9.1536 0.723523 -3.33134 0
M  V30 100 H 10.3466 -1.01181 -2.82316 0
M  V30 101 H 7.8996 -0.562485 -1.45828 0
M  V30 102 H 8.6346 1.56008 -2.84309 0
M  V30 103 H 8.4196 0.148436 -3.91819 0
M  V30 104 H 9.9096 1.13344 -4.01924 0
M  V30 105 N 10.3467 1.47872 -0.545128 0
M  V30 106 C 11.5927 2.02793 -0.0166104 0
M  V30 107 C 11.9257 1.41987 1.32489 0
M  V30 108 O 11.2007 0.571045 1.85928 0
M  V30 109 C 11.4837 3.59989 0.0893294 0
M  V30 110 C 11.3367 4.3125 -1.27841 0
M  V30 111 C 12.6557 4.32606 0.808724 0
M  V30 112 H 9.7747 0.736962 -0.00751035 0
M  V30 113 H 12.4167 1.76433 -0.705085 0
M  V30 114 H 10.5667 3.82579 0.675681 0
M  V30 115 H 12.2387 4.20035 -1.90704 0
M  V30 116 H 10.4817 3.92076 -1.85632 0
M  V30 117 H 11.1527 5.39736 -1.15713 0
M  V30 118 H 13.6287 4.14936 0.310992 0
M  V30 119 H 12.5047 5.42251 0.851782 0
M  V30 120 H 12.7657 4.00963 1.86229 0
M  V30 121 N 11.8248 0.280983 1.55075 0
M  V30 122 C 13.0708 -0.33461 2.00021 0
M  V30 123 C 13.4038 -1.55063 1.16915 0
M  V30 124 O 12.6788 -1.93006 0.240646 0
M  V30 125 C 12.9618 -0.711007 3.53011 0
M  V30 126 C 12.8148 0.512766 4.46868 0
M  V30 127 C 14.1338 -1.54522 4.12081 0
M  V30 128 H 11.2528 -0.120147 0.727141 0
M  V30 129 H 13.8948 0.389097 1.85973 0
M  V30 130 H 12.0448 -1.32761 3.65112 0
M  V30 131 H 13.7168 1.15131 4.46702 0
M  V30 132 H 11.9598 1.14975 4.18286 0
M  V30 133 H 12.6308 0.205556 5.51617 0
M  V30 134 H 15.1068 -1.02442 4.03293 0
M  V30 135 H 13.9828 -1.77739 5.19327 0
M  V30 136 H 14.2438 -2.52813 3.62682 0
M  V30 137 N 13.3029 -1.57598 0.00835791 0
M  V30 138 C 14.2659 -2.07884 -0.965242 0
M  V30 139 C 15.2659 -0.989825 -1.26725 0
M  V30 140 O 16.4559 -1.25218 -1.21104 0
M  V30 141 C 13.5879 -2.52731 -2.28779 0
M  V30 142 H 14.7809 -2.95178 -0.530112 0
M  V30 143 H 12.3339 -1.54458 -0.239283 0
M  V30 144 H 13.0689 -1.68705 -2.76964 0
M  V30 145 H 12.8539 -3.32272 -2.08177 0
M  V30 146 H 14.3439 -2.91933 -2.98605 0
M  V30 147 N 14.781 0.264519 -1.55364 0
M  V30 148 C 16.197 0.61215 -1.47394 0
M  V30 149 C 16.397 1.89134 -0.695018 0
M  V30 150 O 15.453 2.51563 -0.217275 0
M  V30 151 C 16.766 0.731235 -2.91674 0
M  V30 152 C 18.314 0.82473 -3.01939 0
M  V30 153 C 18.789 0.975522 -4.4749 0
M  V30 154 N 20.28 1.04083 -4.51354 0
M  V30 155 C 21.015 1.17646 -5.61201 0
M  V30 156 N 20.511 1.27874 -6.80896 0
M  V30 157 N 22.304 1.20823 -5.48961 0
M  V30 158 H 14.455 -0.575456 -2.04456 0
M  V30 159 H 16.718 -0.196099 -0.927496 0
M  V30 160 H 16.424 -0.138392 -3.51428 0
M  V30 161 H 16.298 1.60883 -3.41169 0
M  V30 162 H 18.685 1.68482 -2.42276 0
M  V30 163 H 18.766 -0.0776479 -2.55682 0
M  V30 164 H 18.41 0.120058 -5.07758 0
M  V30 165 H 18.34 1.89268 -4.91412 0
M  V30 166 H 20.831 0.973846 -3.65136 0
M  V30 167 H 21.144 1.38081 -7.60364 0
M  V30 168 H 19.489 1.24863 -6.83692 0
M  V30 169 H 22.68 1.12469 -4.54388 0
M  V30 170 H 22.853 1.31049 -6.3461 0
M  V30 171 N 16.2591 1.48442 0.529413 0
M  V30 172 C 17.6701 1.5002 1.11134 0
M  V30 173 C 18.0211 0.27031 1.94329 0
M  V30 174 O 17.1461 -0.622507 2.07253 0
M  V30 175 C 17.7411 2.71834 2.02217 0
M  V30 176 C 16.3001 2.76283 2.55627 0
M  V30 177 C 15.4471 2.43542 1.326 0
M  V30 178 H 18.3981 1.5555 0.314641 0
M  V30 179 H 18.4191 2.50384 2.8651 0
M  V30 180 H 17.9311 3.61331 1.41639 0
M  V30 181 H 16.0321 1.90995 3.19924 0
M  V30 182 H 16.1451 3.77725 2.94721 0
M  V30 183 H 14.5091 1.94709 1.64196 0
M  V30 184 H 15.2921 3.3528 0.737734 0
M  V30 185 N 17.7372 -0.778329 1.37039 0
M  V30 186 C 18.9852 -1.53361 1.31623 0
M  V30 187 C 19.3062 -1.94739 -0.100831 0
M  V30 188 O 18.5762 -1.65797 -1.04347 0
M  V30 189 H 17.1562 -0.568794 0.484234 0
M  V30 190 H 19.8182 -0.926742 1.71457 0
M  V30 191 H 18.9142 -2.43606 1.95096 0
M  V30 192 N 19.2153 -1.21501 -1.00376 0
M  V30 193 C 20.4403 -1.05977 -1.78279 0
M  V30 194 C 20.8653 0.385994 -1.84097 0
M  V30 195 O 20.2233 1.27849 -1.28547 0
M  V30 196 C 20.2713 -1.66302 -3.19963 0
M  V30 197 O 19.3753 -0.909333 -4.0225 0
M  V30 198 H 18.7163 -0.372906 -0.549397 0
M  V30 199 H 21.2463 -1.6107 -1.26165 0
M  V30 200 H 21.2563 -1.70574 -3.70632 0
M  V30 201 H 19.9313 -2.71515 -3.15043 0
M  V30 202 H 18.5083 -0.941795 -3.60811 0
M  V30 203 N 20.6934 1.19889 -1.02296 0
M  V30 204 C 21.9414 1.89046 -0.714558 0
M  V30 205 C 22.2624 1.79636 0.758681 0
M  V30 206 O 21.5324 1.20292 1.54618 0
M  V30 207 H 20.1124 0.699802 -0.261317 0
M  V30 208 H 22.7744 1.45574 -1.29592 0
M  V30 209 H 21.8704 2.95524 -1.0036 0
M  V30 210 N 22.1715 0.800033 1.35784 0
M  V30 211 C 23.4485 0.30088 1.93272 0
M  V30 212 C 23.8285 -1.20857 1.73081 0
M  V30 213 O 23.1765 -2.00502 1.09596 0
M  V30 214 C 23.3865 0.70511 3.41803 0
M  V30 215 C 24.7345 0.690871 4.18942 0
M  V30 216 O 25.7585 0.646244 3.50289 0
M  V30 217 O 24.6175 0.74332 5.41421 0
M  V30 218 H 21.7115 0.0771605 0.823393 0
M  V30 219 H 24.2575 0.88329 1.449 0
M  V30 220 H 23.0295 1.74571 3.50201 0
M  V30 221 H 22.6525 0.0971541 3.97481 0
M  V30 222 N 23.6496 -1.47581 0.552962 0
M  V30 223 C 24.8976 -2.02082 0.0272703 0
M  V30 224 C 25.2186 -1.4301 -1.32563 0
M  V30 225 O 24.4886 -0.603745 -1.86365 0
M  V30 226 H 23.0686 -0.746966 0.00709182 0
M  V30 227 H 25.7306 -1.81033 0.722008 0
M  V30 228 H 24.8266 -3.12034 -0.0639951 0
M  V30 229 N 25.1277 -0.289203 -1.54924 0
M  V30 230 C 26.4047 0.376032 -1.91951 0
M  V30 231 C 26.7847 1.72622 -1.21511 0
M  V30 232 O 26.1327 2.25853 -0.346767 0
M  V30 233 C 26.3427 0.502378 -3.45365 0
M  V30 234 C 27.6907 0.778741 -4.17398 0
M  V30 235 O 28.7147 0.586647 -3.51336 0
M  V30 236 O 27.5737 1.14698 -5.34328 0
M  V30 237 H 24.6677 0.208167 -0.800372 0
M  V30 238 H 27.2137 -0.336394 -1.66332 0
M  V30 239 H 25.9857 -0.447255 -3.88736 0
M  V30 240 H 25.6087 1.26373 -3.76982 0
M  V30 241 N 26.6058 1.57591 -0.0167156 0
M  V30 242 C 27.8308 1.9598 0.67872 0
M  V30 243 C 28.2558 0.892546 1.65575 0
M  V30 244 O 27.6138 -0.147772 1.80697 0
M  V30 245 C 27.6618 3.33468 1.37227 0
M  V30 246 O 26.7658 3.28954 2.48722 0
M  V30 247 H 26.1068 0.639339 0.17928 0
M  V30 248 H 28.6368 2.04463 -0.0748802 0
M  V30 249 H 28.6468 3.69417 1.7319 0
M  V30 250 H 27.3218 4.10694 0.656007 0
M  V30 251 H 25.8988 3.04705 2.14963 0
M  V30 252 N 28.0839 -0.256276 1.55502 0
M  V30 253 C 29.3609 -1.00789 1.67633 0
M  V30 254 C 29.7409 -2.03706 0.553826 0
M  V30 255 O 29.0889 -2.24145 -0.443969 0
M  V30 256 C 29.2989 -1.64968 3.07549 0
M  V30 257 C 30.6469 -2.15505 3.65845 0
M  V30 258 O 31.6709 -1.74925 3.1029 0
M  V30 259 O 30.5299 -2.89986 4.63217 0
M  V30 260 H 27.6239 -0.468553 0.681459 0
M  V30 261 H 30.1699 -0.250806 1.67836 0
M  V30 262 H 28.9419 -0.904785 3.80696 0
M  V30 263 H 28.5649 -2.47321 3.11317 0
M  V30 264 N 29.562 -1.4872 -0.521534 0
M  V30 265 C 30.494 -1.59968 -1.64143 0
M  V30 266 C 31.507 -0.483463 -1.55456 0
M  V30 267 O 32.696 -0.75467 -1.61762 0
M  V30 268 C 29.796 -1.52127 -3.02838 0
M  V30 269 C 28.969 -2.78932 -3.36921 0
M  V30 270 C 28.028 -2.64428 -4.54933 0
M  V30 271 O 27.054 -3.38331 -4.57735 0
M  V30 272 N 28.256 -1.74606 -5.53618 0
M  V30 273 H 31.021 -2.56548 -1.54929 0
M  V30 274 H 28.582 -1.45551 -0.708988 0
M  V30 275 H 30.574 -1.40106 -3.79674 0
M  V30 276 H 29.144 -0.634868 -3.06085 0
M  V30 277 H 28.364 -3.05455 -2.4918 0
M  V30 278 H 29.652 -3.63041 -3.56481 0
M  V30 279 H 29.05 -1.13782 -5.54139 0
M  V30 280 H 27.607 -1.6852 -6.29638 0
M  V30 281 N 31.0401 0.771051 -1.3745 0
M  V30 282 C 32.2651 1.56529 -1.36065 0
M  V30 283 C 32.6901 1.88029 0.0515859 0
M  V30 284 O 32.0481 1.49282 1.02882 0
M  V30 285 C 32.0961 2.85187 -2.20683 0
M  V30 286 O 31.2001 3.79593 -1.61193 0
M  V30 287 H 30.5411 0.47411 -0.464883 0
M  V30 288 H 33.0711 0.954269 -1.80983 0
M  V30 289 H 33.0811 3.34283 -2.33921 0
M  V30 290 H 31.7561 2.61588 -3.23334 0
M  V30 291 H 30.3331 3.38239 -1.56999 0
M  V30 292 N 32.5182 1.22032 0.997298 0
M  V30 293 C 33.9342 0.979326 1.26021 0
M  V30 294 C 34.1342 -0.32972 1.98784 0
M  V30 295 O 33.1902 -1.05345 2.29475 0
M  V30 296 C 34.5032 2.17509 2.07631 0
M  V30 297 C 36.0512 2.21817 2.2083 0
M  V30 298 C 36.5262 3.40933 3.05825 0
M  V30 299 N 38.0172 3.41067 3.13412 0
M  V30 300 C 38.7522 4.29885 3.79455 0
M  V30 301 N 38.2482 5.28914 4.47462 0
M  V30 302 N 40.0412 4.17673 3.76173 0
M  V30 303 H 32.1922 2.06202 0.509352 0
M  V30 304 H 34.4552 0.90334 0.287541 0
M  V30 305 H 34.1612 3.12415 1.61524 0
M  V30 306 H 34.0352 2.17206 3.08385 0
M  V30 307 H 36.4222 1.27462 2.66153 0
M  V30 308 H 36.5032 2.2616 1.1952 0
M  V30 309 H 36.1472 4.35586 2.61203 0
M  V30 310 H 36.0772 3.33829 4.07266 0
M  V30 311 H 38.5682 2.69406 2.65007 0
M  V30 312 H 38.8812 5.92973 4.95583 0
M  V30 313 H 37.2262 5.32831 4.46224 0
M  V30 314 H 40.4172 3.39564 3.22202 0
M  V30 315 H 40.5902 4.87098 4.27363 0
M  V30 316 N 33.9963 -1.19345 1.0293 0
M  V30 317 C 34.9443 -2.24621 0.604001 0
M  V30 318 C 35.9383 -1.65452 -0.363587 0
M  V30 319 O 37.1443 -1.78497 -0.23212 0
M  V30 320 H 33.5193 -0.730858 0.177061 0
M  V30 321 H 35.4903 -2.5781 1.50255 0
M  V30 322 C 34.2393 -3.47688 -0.0289127 0
M  V30 323 H 33.5623 -3.93505 0.706651 0
M  V30 324 H 35.0023 -4.23011 -0.289432 0
M  V30 325 C 33.4613 -3.11817 -1.2756 0
M  V30 326 O 33.9913 -3.2451 -2.36762 0
M  V30 327 N 32.1973 -2.66246 -1.16453 0
M  V30 328 H 31.7443 -2.56118 -0.275914 0
M  V30 329 H 31.7023 -2.42617 -1.99961 0
M  V30 330 N 35.4744 -0.807222 -1.35358 0
M  V30 331 C 36.8904 -0.491038 -1.51858 0
M  V30 332 C 37.0904 0.987648 -1.75635 0
M  V30 333 O 36.1464 1.77265 -1.79815 0
M  V30 334 C 37.4594 -1.33695 -2.69344 0
M  V30 335 C 39.0074 -1.33246 -2.83222 0
M  V30 336 C 39.4824 -2.1625 -4.03733 0
M  V30 337 N 40.9734 -2.1379 -4.10911 0
M  V30 338 C 41.7084 -2.74772 -5.03277 0
M  V30 339 N 41.2044 -3.44684 -6.0097 0
M  V30 340 N 42.9974 -2.6441 -4.96028 0
M  V30 341 H 35.1484 -1.76485 -1.18181 0
M  V30 342 H 37.4114 -0.751199 -0.578276 0
M  V30 343 H 37.1174 -2.38634 -2.58354 0
M  V30 344 H 36.9914 -0.990618 -3.6396 0
M  V30 345 H 39.3784 -0.290911 -2.93663 0
M  V30 346 H 39.4594 -1.71866 -1.89461 0
M  V30 347 H 39.1034 -3.20445 -3.94052 0
M  V30 348 H 39.0334 -1.74989 -4.96675 0
M  V30 349 H 41.5244 -1.62923 -3.40976 0
M  V30 350 H 41.8374 -3.88501 -6.68047 0
M  V30 351 H 40.1824 -3.48788 -6.01142 0
M  V30 352 H 43.3734 -2.0938 -4.18662 0
M  V30 353 H 43.5464 -3.12225 -5.6782 0
M  V30 354 N 36.9525 1.47285 -0.560781 0
M  V30 355 C 37.8845 2.28118 0.222438 0
M  V30 356 C 38.8975 1.37219 0.876056 0
M  V30 357 O 40.0865 1.62011 0.749307 0
M  V30 358 C 37.1865 3.1159 1.33285 0
M  V30 359 C 36.3595 4.30473 0.77534 0
M  V30 360 C 35.4185 4.95513 1.77069 0
M  V30 361 O 34.4445 5.53792 1.31539 0
M  V30 362 N 35.6465 4.90531 3.10418 0
M  V30 363 H 38.4115 2.95976 -0.470958 0
M  V30 364 H 35.9725 1.56955 -0.39709 0
M  V30 365 H 37.9645 3.51967 1.99752 0
M  V30 366 H 36.5345 2.45951 1.92943 0
M  V30 367 H 35.7545 3.94144 -0.0662113 0
M  V30 368 H 37.0425 5.07362 0.382272 0
M  V30 369 H 36.4405 4.44389 3.5005 0
M  V30 370 H 34.9975 5.34917 3.72434 0
M  V30 371 N 38.4306 0.297415 1.54768 0
M  V30 372 C 39.6786 -0.312295 1.99673 0
M  V30 373 C 39.9996 -1.54686 1.18732 0
M  V30 374 O 39.2696 -1.93854 0.282382 0
M  V30 375 H 37.8496 -0.118381 0.73756 0
M  V30 376 H 40.5116 0.407915 1.90583 0
M  V30 377 H 39.6076 -0.586813 3.06534 0
M  V30 378 N 39.9087 -1.5758 0.0250728 0
M  V30 379 C 41.1367 -1.9593 -0.664747 0
M  V30 380 C 41.5517 -0.901352 -1.65895 0
M  V30 381 O 40.9087 0.117255 -1.82123 0
M  V30 382 C 40.9597 -3.34342 -1.37468 0
M  V30 383 O 40.6807 -4.36079 -0.420324 0
M  V30 384 C 42.1817 -3.873 -2.1567 0
M  V30 385 H 39.4017 -0.645405 -0.183557 0
M  V30 386 H 41.9457 -2.04329 0.0836372 0
M  V30 387 H 40.1007 -3.27175 -2.0745 0
M  V30 388 H 40.5147 -5.16297 -0.923991 0
M  V30 389 H 41.9887 -4.86504 -2.60803 0
M  V30 390 H 42.4657 -3.21331 -2.99405 0
M  V30 391 H 43.0717 -3.97723 -1.50654 0
M  V30 392 N 41.3868 0.248026 -1.55636 0
M  V30 393 C 42.7978 0.817177 -1.67866 0
M  V30 394 C 43.1488 1.86069 -0.622322 0
M  V30 395 O 42.2738 2.15157 0.231618 0
M  V30 396 C 42.8688 1.489 -3.04326 0
M  V30 397 C 41.4278 2.00587 -3.185 0
M  V30 398 C 40.5748 0.856573 -2.63739 0
M  V30 399 H 43.5258 0.0238579 -1.58682 0
M  V30 400 H 43.5468 2.35698 -2.98708 0
M  V30 401 H 43.0588 0.729279 -3.81186 0
M  V30 402 H 41.1598 2.79443 -2.4646 0
M  V30 403 H 41.2728 2.20402 -4.25393 0
M  V30 404 H 39.6368 1.25678 -2.21534 0
M  V30 405 H 40.4198 0.109953 -3.43124 0
M  V30 406 N 42.8649 1.48995 0.513639 0
M  V30 407 C 44.1109 1.58076 1.27042 0
M  V30 408 C 44.4439 0.261026 1.92438 0
M  V30 409 O 43.7189 -0.734393 1.80103 0
M  V30 410 C 44.0019 2.73091 2.34719 0
M  V30 411 C 43.8549 4.14821 1.73907 0
M  V30 412 C 45.1739 2.83796 3.36375 0
M  V30 413 H 42.2929 0.575391 0.460536 0
M  V30 414 H 44.9349 1.81232 0.570516 0
M  V30 415 H 43.0849 2.53479 2.94416 0
M  V30 416 H 44.7569 4.45917 1.18135 0
M  V30 417 H 42.9999 4.21058 1.0437 0
M  V30 418 H 43.6709 4.91147 2.51949 0
M  V30 419 H 46.1469 3.01611 2.86653 0
M  V30 420 H 45.0229 3.65971 4.09093 0
M  V30 421 H 45.2839 1.92624 3.9793 0
M  V30 422 N 44.343 -0.763751 1.37857 0
M  V30 423 C 45.754 -1.3405 1.29952 0
M  V30 424 C 46.105 -1.96138 -0.0492898 0
M  V30 425 O 45.23 -1.94372 -0.951239 0
M  V30 426 C 45.825 -2.43729 2.35333 0
M  V30 427 C 44.384 -2.97151 2.31037 0
M  V30 428 C 43.531 -1.70438 2.18738 0
M  V30 429 H 46.482 -0.563396 1.48363 0
M  V30 430 H 46.503 -3.23412 2.00462 0
M  V30 431 H 46.015 -1.9851 3.33489 0
M  V30 432 H 44.116 -3.46724 1.3643 0
M  V30 433 H 44.229 -3.52221 3.24772 0
M  V30 434 H 42.593 -1.93673 1.65418 0
M  V30 435 H 43.376 -1.27312 3.18821 0
M  V30 436 N 45.8211 -1.22559 -0.990812 0
M  V30 437 C 46.7841 -0.998863 -2.0629 0
M  V30 438 C 47.7841 0.0354834 -1.60761 0
M  V30 439 O 48.9741 -0.203231 -1.7301 0
M  V30 440 C 46.1061 -0.509203 -3.37076 0
M  V30 441 H 47.2991 -1.95014 -2.27837 0
M  V30 442 H 44.8521 -1.04456 -1.16269 0
M  V30 443 H 45.5871 0.446335 -3.21214 0
M  V30 444 H 45.3721 -1.25547 -3.71457 0
M  V30 445 H 46.8621 -0.370888 -4.1595 0
M  V30 446 N 47.2992 1.18797 -1.03562 0
M  V30 447 C 48.5242 1.9314 -0.755764 0
M  V30 448 C 48.9492 1.7537 0.68022 0
M  V30 449 O 48.3072 1.06046 1.47051 0
M  V30 450 C 48.3552 3.42747 -1.12058 0
M  V30 451 O 47.4592 4.11683 -0.243124 0
M  V30 452 H 46.8002 0.602724 -0.278604 0
M  V30 453 H 49.3302 1.50678 -1.3841 0
M  V30 454 H 49.3402 3.93437 -1.08035 0
M  V30 455 H 48.0152 3.55002 -2.16672 0
M  V30 456 H 46.5922 3.71323 -0.342539 0
M  V30 457 N 48.7773 0.814389 1.34928 0
M  V30 458 C 50.0253 0.397636 1.9815 0
M  V30 459 C 50.3463 -1.04069 1.64908 0
M  V30 460 O 49.6163 -1.72121 0.93548 0
M  V30 461 H 48.1963 0.144043 0.732981 0
M  V30 462 H 50.8583 1.04195 1.6471 0
M  V30 463 H 49.9543 0.509688 3.0791 0
M  V30 464 N 50.2554 -1.46986 0.568584 0
M  V30 465 C 51.1874 -2.28233 -0.210337 0
M  V30 466 C 52.2004 -1.37682 -0.868767 0
M  V30 467 O 53.3894 -1.62406 -0.740705 0
M  V30 468 C 50.4894 -3.12293 -1.3163 0
M  V30 469 C 49.6624 -4.30878 -0.7525 0
M  V30 470 C 48.7214 -4.96445 -1.74439 0
M  V30 471 O 47.7474 -5.54482 -1.286 0
M  V30 472 N 48.9494 -4.92171 -3.07812 0
M  V30 473 H 51.7144 -2.95723 0.486648 0
M  V30 474 H 49.2754 -1.56742 0.405409 0
M  V30 475 H 51.2674 -3.53022 -1.97883 0
M  V30 476 H 49.8374 -2.46971 -1.91636 0
M  V30 477 H 49.0574 -3.94104 0.0871128 0
M  V30 478 H 50.3454 -5.07558 -0.35536 0
M  V30 479 H 49.7434 -4.46239 -3.47688 0
M  V30 480 H 48.3004 -5.36884 -3.69592 0
M  V30 481 N 51.7335 -0.305618 -1.54608 0
M  V30 482 C 52.6965 0.555591 -2.22364 0
M  V30 483 C 53.6965 1.05768 -1.21119 0
M  V30 484 O 54.8865 0.952972 -1.45822 0
M  V30 485 C 52.0185 1.76974 -2.91364 0
M  V30 486 H 53.2115 -0.0364572 -2.99878 0
M  V30 487 H 50.7645 -0.0565007 -1.56198 0
M  V30 488 H 51.4995 2.40151 -2.17941 0
M  V30 489 H 51.2845 1.41732 -3.65588 0
M  V30 490 H 52.7745 2.38148 -3.43038 0
M  V30 491 N 53.2116 1.57565 -0.0334293 0
M  V30 492 C 54.1746 2.09393 0.932048 0
M  V30 493 C 55.1746 1.00986 1.25134 0
M  V30 494 O 56.3646 1.27129 1.19096 0
M  V30 495 C 53.4966 2.56338 2.2473 0
M  V30 496 H 54.6896 2.95984 0.483085 0
M  V30 497 H 52.2426 1.54819 0.21468 0
M  V30 498 H 52.9776 1.7309 2.74245 0
M  V30 499 H 52.7626 3.35542 2.02865 0
M  V30 500 H 54.2526 2.96646 2.93923 0
M  V30 501 N 54.6897 -0.239769 1.55765 0
M  V30 502 C 55.6527 -1.28038 1.90103 0
M  V30 503 C 56.6527 -1.40723 0.778055 0
M  V30 504 O 57.8427 -1.39301 1.04599 0
M  V30 505 C 54.9747 -2.65702 2.13577 0
M  V30 506 H 56.1677 -0.988048 2.83157 0
M  V30 507 H 53.7207 -0.479382 1.48767 0
M  V30 508 H 54.4557 -3.00063 1.23015 0
M  V30 509 H 54.2407 -2.57875 2.95369 0
M  V30 510 H 55.7307 -3.40828 2.41301 0
M  V30 511 N 56.1678 -1.49265 -0.50573 0
M  V30 512 C 57.3978 -1.61979 -1.28243 0
M  V30 513 C 57.8058 -0.288576 -1.86986 0
M  V30 514 O 57.1488 0.735408 -1.68337 0
M  V30 515 C 57.2108 -2.62632 -2.45489 0
M  V30 516 C 56.8748 -4.071 -2.07651 0
M  V30 517 C 57.8718 -4.94049 -1.61901 0
M  V30 518 C 55.5568 -4.52801 -2.17431 0
M  V30 519 C 57.5508 -6.24736 -1.26428 0
M  V30 520 C 55.2378 -5.83503 -1.8157 0
M  V30 521 C 56.2358 -6.69294 -1.36142 0
M  V30 522 O 55.9238 -7.9756 -1.00764 0
M  V30 523 H 55.6558 -0.54834 -0.395347 0
M  V30 524 H 58.2098 -1.96002 -0.614204 0
M  V30 525 H 56.4398 -2.2378 -3.15372 0
M  V30 526 H 58.1288 -2.64925 -3.07522 0
M  V30 527 H 58.8948 -4.5997 -1.53795 0
M  V30 528 H 54.7738 -3.86196 -2.51742 0
M  V30 529 H 58.3178 -6.91652 -0.908992 0
M  V30 530 H 54.2148 -6.17112 -1.89324 0
M  V30 531 H 54.9828 -8.10529 -1.13952 0
M  V30 532 N 57.6459 0.756429 -1.3826 0
M  V30 533 C 58.5929 1.87011 -1.35261 0
M  V30 534 C 59.5629 1.64695 -0.215616 0
M  V30 535 O 60.7479 1.864 -0.407399 0
M  V30 536 C 57.8879 3.24275 -1.18068 0
M  V30 537 C 57.0009 3.58442 -2.41129 0
M  V30 538 C 56.1359 4.84994 -2.16689 0
M  V30 539 C 55.1749 5.11939 -3.35537 0
M  V30 540 N 54.3119 6.29685 -3.10549 0
M  V30 541 H 59.1519 1.8891 -2.30472 0
M  V30 542 H 56.6889 0.923373 -1.14509 0
M  V30 543 H 58.6469 4.03479 -1.06116 0
M  V30 544 H 57.2769 3.21711 -0.264973 0
M  V30 545 H 56.3289 2.74103 -2.63764 0
M  V30 546 H 57.6409 3.74283 -3.29717 0
M  V30 547 H 56.7949 5.72135 -2.01857 0
M  V30 548 H 55.5339 4.71286 -1.25462 0
M  V30 549 H 54.5389 4.23268 -3.50891 0
M  V30 550 H 55.7639 5.27546 -4.27635 0
M  V30 551 H 53.7099 6.17306 -2.21967 0
M  V30 552 H 53.6269 6.46014 -3.92686 0
M  V30 553 H 54.8949 7.19722 -2.99367 0
M  V30 554 N 59.124 1.23083 0.984299 0
M  V30 555 C 60.056 0.96636 2.07832 0
M  V30 556 C 61.069 -0.0582135 1.62696 0
M  V30 557 O 62.258 0.176843 1.77622 0
M  V30 558 C 59.358 0.433397 3.36117 0
M  V30 559 C 58.531 1.51722 4.10243 0
M  V30 560 C 57.59 0.989821 5.16807 0
M  V30 561 O 56.616 1.67794 5.43906 0
M  V30 562 N 57.818 -0.184367 5.80207 0
M  V30 563 H 60.583 1.90824 2.31098 0
M  V30 564 H 58.144 1.13888 1.1507 0
M  V30 565 H 60.136 0.065699 4.04647 0
M  V30 566 H 58.706 -0.413806 3.09849 0
M  V30 567 H 57.926 2.05786 3.36223 0
M  V30 568 H 59.214 2.24619 4.56534 0
M  V30 569 H 58.612 -0.760062 5.60571 0
M  V30 570 H 57.169 -0.493366 6.4993 0
M  V30 571 N 60.6021 -1.18246 1.0419 0
M  V30 572 C 61.8301 -1.92195 0.766072 0
M  V30 573 C 62.2451 -1.76247 -0.676933 0
M  V30 574 O 61.6021 -1.09293 -1.46155 0
M  V30 575 C 61.6531 -3.43568 1.12442 0
M  V30 576 O 61.3741 -3.59015 2.51078 0
M  V30 577 C 62.8751 -4.34613 0.873275 0
M  V30 578 H 60.0951 -0.610114 0.279288 0
M  V30 579 H 62.6391 -1.50007 1.38989 0
M  V30 580 H 60.7941 -3.8354 0.545542 0
M  V30 581 H 61.2081 -4.5273 2.64831 0
M  V30 582 H 62.6821 -5.39374 1.17385 0
M  V30 583 H 63.1591 -4.38781 -0.191909 0
M  V30 584 H 63.7651 -4.00341 1.43551 0
M  V30 585 N 62.0802 -0.821533 -1.34494 0
M  V30 586 C 63.0272 -0.240397 -2.29545 0
M  V30 587 C 63.9972 0.634031 -1.53523 0
M  V30 588 O 65.1822 0.575966 -1.81899 0
M  V30 589 C 62.3222 0.592869 -3.39969 0
M  V30 590 C 61.4352 -0.30365 -4.30932 0
M  V30 591 C 60.5702 0.539049 -5.28458 0
M  V30 592 C 59.6092 -0.356942 -6.11058 0
M  V30 593 N 58.7462 0.446603 -7.00678 0
M  V30 594 H 63.5862 -1.05632 -2.7865 0
M  V30 595 H 61.1232 -0.532413 -1.37127 0
M  V30 596 H 63.0812 1.09129 -4.02675 0
M  V30 597 H 61.7112 1.37392 -2.92102 0
M  V30 598 H 60.7632 -0.920276 -3.691 0
M  V30 599 H 62.0752 -0.992661 -4.88823 0
M  V30 600 H 61.2292 1.102 -5.96608 0
M  V30 601 H 59.9682 1.26157 -4.71101 0
M  V30 602 H 58.9732 -0.932047 -5.41842 0
M  V30 603 H 60.1982 -1.07755 -6.70497 0
M  V30 604 H 58.1442 1.15282 -6.45791 0
M  V30 605 H 58.0612 -0.184048 -7.55776 0
M  V30 606 H 59.3292 0.992352 -7.73158 0
M  V30 607 N 63.5583 1.46682 -0.576371 0
M  V30 608 C 64.5213 2.28707 0.150239 0
M  V30 609 C 65.5213 1.38035 0.824794 0
M  V30 610 O 66.7113 1.60476 0.677719 0
M  V30 611 C 63.8433 3.18248 1.22192 0
M  V30 612 H 65.0363 2.94423 -0.570521 0
M  V30 613 H 62.5893 1.52688 -0.334078 0
M  V30 614 H 63.3243 2.57265 1.97447 0
M  V30 615 H 63.1093 3.85 0.742812 0
M  V30 616 H 64.5993 3.80001 1.73172 0
M  V30 617 N 65.0364 0.313813 1.54444 0
M  V30 618 C 65.9684 -0.590425 2.21465 0
M  V30 619 C 66.9814 -1.08753 1.21147 0
M  V30 620 O 68.1704 -1.00278 1.4767 0
M  V30 621 C 65.2704 -1.82179 2.85769 0
M  V30 622 C 64.4434 -1.46502 4.12136 0
M  V30 623 C 63.5024 -2.55288 4.60124 0
M  V30 624 O 62.5284 -2.19842 5.25032 0
M  V30 625 N 63.7304 -3.86053 4.33525 0
M  V30 626 H 66.4954 -0.0166033 2.99695 0
M  V30 627 H 64.0564 0.136578 1.61323 0
M  V30 628 H 66.0484 -2.54328 3.14801 0
M  V30 629 H 64.6184 -2.30369 2.11303 0
M  V30 630 H 63.8384 -0.575595 3.89975 0
M  V30 631 H 65.1264 -1.20221 4.94393 0
M  V30 632 H 64.5244 -4.17654 3.81552 0
M  V30 633 H 63.0814 -4.54461 4.67235 0
M  V30 634 N 66.5145 -1.57545 0.0417849 0
M  V30 635 C 67.9305 -1.56467 -0.314704 0
M  V30 636 C 68.1305 -1.04859 -1.72066 0
M  V30 637 O 67.1865 -0.700983 -2.42575 0
M  V30 638 C 68.4995 -3.00317 -0.15174 0
M  V30 639 C 70.0475 -3.12201 -0.223553 0
M  V30 640 C 70.5225 -4.57913 -0.0892295 0
M  V30 641 N 72.0135 -4.6297 -0.145808 0
M  V30 642 C 72.7485 -5.73362 -0.0658459 0
M  V30 643 N 72.2445 -6.92769 0.0659282 0
M  V30 644 N 74.0375 -5.6197 -0.12075 0
M  V30 645 H 66.1885 -1.89416 0.961014 0
M  V30 646 H 68.4515 -0.871862 0.372237 0
M  V30 647 H 68.1575 -3.42073 0.817254 0
M  V30 648 H 68.0315 -3.65892 -0.916692 0
M  V30 649 H 70.4185 -2.70349 -1.18301 0
M  V30 650 H 70.4995 -2.49323 0.571994 0
M  V30 651 H 70.1435 -5.00448 0.866867 0
M  V30 652 H 70.0735 -5.18786 -0.903802 0
M  V30 653 H 72.5645 -3.7709 -0.247286 0
M  V30 654 H 72.8775 -7.72707 0.119905 0
M  V30 655 H 71.2225 -6.94927 0.100885 0
M  V30 656 H 74.4135 -4.67572 -0.222187 0
M  V30 657 H 74.5865 -6.47977 -0.0549735 0
M  V30 658 N 67.9926 0.231505 -1.5589 0
M  V30 659 C 68.9556 1.27028 -1.90779 0
M  V30 660 C 69.9556 1.40308 -0.785507 0
M  V30 661 O 71.1456 1.38744 -1.05336 0
M  V30 662 C 68.2776 2.64566 -2.14983 0
M  V30 663 H 69.4706 0.973017 -2.83677 0
M  V30 664 H 67.0236 0.471486 -1.49019 0
M  V30 665 H 67.7586 2.99406 -1.24604 0
M  V30 666 H 67.5436 2.56305 -2.96732 0
M  V30 667 H 69.0336 3.39543 -2.43105 0
M  V30 668 N 69.4707 1.49531 0.497807 0
M  V30 669 C 70.8867 1.36365 0.829266 0
M  V30 670 C 71.0867 0.399184 1.97506 0
M  V30 671 O 70.1427 -0.167977 2.51941 0
M  V30 672 C 71.4557 2.77153 1.16647 0
M  V30 673 C 73.0037 2.85877 1.27449 0
M  V30 674 C 73.4787 4.2744 1.64497 0
M  V30 675 N 74.9697 4.30265 1.7154 0
M  V30 676 C 75.7047 5.3677 2.01656 0
M  V30 677 N 75.2007 6.53516 2.29976 0
M  V30 678 N 76.9937 5.24189 2.02934 0
M  V30 679 H 69.1447 2.10831 -0.257703 0
M  V30 680 H 71.4077 0.946534 -0.0527091 0
M  V30 681 H 71.1137 3.49442 0.397872 0
M  V30 682 H 70.9877 3.12722 2.10915 0
M  V30 683 H 73.3747 2.13824 2.0338 0
M  V30 684 H 73.4557 2.53887 0.312244 0
M  V30 685 H 73.0997 5.00021 0.891151 0
M  V30 686 H 73.0297 4.56896 2.61827 0
M  V30 687 H 75.5207 3.4607 1.51802 0
M  V30 688 H 75.8337 7.30506 2.52153 0
M  V30 689 H 74.1787 6.56737 2.27425 0
M  V30 690 H 77.3697 4.31988 1.80289 0
M  V30 691 H 77.5427 6.07286 2.26071 0
M  V30 692 N 70.9488 -0.749086 1.3866 0
M  V30 693 C 72.1768 -1.53834 1.38358 0
M  V30 694 C 72.5918 -1.88783 -0.0255219 0
M  V30 695 O 71.9488 -1.53101 -0.993292 0
M  V30 696 C 71.9998 -2.83468 2.2434 0
M  V30 697 O 71.7208 -2.50008 3.5976 0
M  V30 698 C 73.2218 -3.7758 2.32267 0
M  V30 699 H 70.4418 -0.47585 0.473083 0
M  V30 700 H 72.9858 -0.926726 1.82297 0
M  V30 701 H 71.1408 -3.40995 1.83851 0
M  V30 702 H 71.5548 -3.33182 4.05081 0
M  V30 703 H 73.0288 -4.65478 2.96706 0
M  V30 704 H 73.5058 -4.18334 1.33765 0
M  V30 705 H 74.1118 -3.25976 2.73166 0
M  V30 706 N 72.4269 -1.23603 -0.977757 0
M  V30 707 C 73.3599 -0.962772 -2.06896 0
M  V30 708 C 74.3379 0.0998743 -1.62293 0
M  V30 709 O 75.5219 -0.0349421 -1.88468 0
M  V30 710 C 72.6489 -0.45095 -3.35685 0
M  V30 711 C 71.6949 -1.50061 -3.99229 0
M  V30 712 S 72.5279 -3.07884 -4.38142 0
M  V30 713 C 73.6839 -2.58378 -5.7008 0
M  V30 714 H 73.9169 -1.88677 -2.29757 0
M  V30 715 H 71.4499 -1.06876 -1.11431 0
M  V30 716 H 73.4079 -0.162261 -4.10179 0
M  V30 717 H 72.0689 0.452179 -3.10828 0
M  V30 718 H 71.2619 -1.09269 -4.92013 0
M  V30 719 H 70.8639 -1.73878 -3.31123 0
M  V30 720 H 73.1559 -2.00563 -6.47133 0
M  V30 721 H 74.0989 -3.49711 -6.15717 0
M  V30 722 H 74.5069 -1.99143 -5.28207 0
M  V30 723 N 73.905 1.17692 -1.04816 0
M  V30 724 C 74.868 2.19787 -0.650117 0
M  V30 725 C 75.868 1.58044 0.296427 0
M  V30 726 O 77.058 1.74012 0.0808097 0
M  V30 727 C 74.19 3.40869 0.0456987 0
M  V30 728 H 75.383 2.56516 -1.5537 0
M  V30 729 H 72.936 1.31708 -0.841594 0
M  V30 730 H 73.671 3.09681 0.962726 0
M  V30 731 H 73.456 3.86928 -0.634727 0
M  V30 732 H 74.946 4.16445 0.310432 0
M  V30 733 N 75.3831 0.828654 1.34056 0
M  V30 734 C 76.3131 0.269443 2.3194 0
M  V30 735 C 77.2941 -0.617247 1.58506 0
M  V30 736 O 78.4791 -0.542931 1.86456 0
M  V30 737 C 75.6091 -0.564793 3.42677 0
M  V30 738 C 74.5631 0.225241 4.27407 0
M  V30 739 C 73.8891 -0.7321 5.29664 0
M  V30 740 C 75.1891 1.43663 5.02154 0
M  V30 741 H 76.8831 1.08728 2.7896 0
M  V30 742 H 74.4291 0.524283 1.34117 0
M  V30 743 H 76.3821 -0.966233 4.10173 0
M  V30 744 H 75.1061 -1.41574 2.9432 0
M  V30 745 H 73.7651 0.608117 3.61521 0
M  V30 746 H 73.4131 -1.57916 4.77568 0
M  V30 747 H 73.1131 -0.20767 5.87233 0
M  V30 748 H 74.6371 -1.13128 6.00029 0
M  V30 749 H 76.0511 1.1089 5.62473 0
M  V30 750 H 74.4481 1.89711 5.69324 0
M  V30 751 H 75.5181 2.21181 4.31517 0
M  V30 752 N 76.8612 -1.46375 0.584142 0
M  V30 753 C 78.0912 -2.06461 0.0758195 0
M  V30 754 C 78.4992 -1.43322 -1.23512 0
M  V30 755 O 77.8422 -0.533216 -1.75791 0
M  V30 756 C 77.9042 -3.59131 -0.162773 0
M  V30 757 C 77.5682 -4.4447 1.06279 0
M  V30 758 C 78.5652 -4.80918 1.97519 0
M  V30 759 C 76.2502 -4.85584 1.28504 0
M  V30 760 C 78.2442 -5.57309 3.09331 0
M  V30 761 C 75.9312 -5.61734 2.4062 0
M  V30 762 C 76.9292 -5.9751 3.30863 0
M  V30 763 O 76.6172 -6.72121 4.41032 0
M  V30 764 H 76.3492 -0.673745 0.0551725 0
M  V30 765 H 78.9032 -1.88969 0.804984 0
M  V30 766 H 77.1332 -3.74936 -0.946565 0
M  V30 767 H 78.8222 -4.0114 -0.619782 0
M  V30 768 H 79.5882 -4.49732 1.81565 0
M  V30 769 H 75.4672 -4.57187 0.591702 0
M  V30 770 H 79.0112 -5.85152 3.79793 0
M  V30 771 H 74.9082 -5.92334 2.56537 0
M  V30 772 H 75.6762 -6.90547 4.39417 0
M  V30 773 N 78.3393 -0.321999 -1.54275 0
M  V30 774 C 79.2873 0.560206 -2.25753 0
M  V30 775 C 80.2813 1.11984 -1.27106 0
M  V30 776 O 81.4873 1.06806 -1.44888 0
M  V30 777 H 77.8623 0.199304 -0.725108 0
M  V30 778 H 79.8333 -0.0649365 -2.98329 0
M  V30 779 C 78.5823 1.71023 -3.02731 0
M  V30 780 H 77.9053 1.28885 -3.78456 0
M  V30 781 H 79.3453 2.30314 -3.55993 0
M  V30 782 C 77.8043 2.62692 -2.10938 0
M  V30 783 O 78.3343 3.64364 -1.6912 0
M  V30 784 N 76.5403 2.30891 -1.76459 0
M  V30 785 H 76.0873 1.48253 -2.10663 0
M  V30 786 H 76.0453 2.92487 -1.1532 0
M  V30 787 N 79.8174 1.5752 -0.0501392 0
M  V30 788 C 81.2284 1.80271 0.485705 0
M  V30 789 C 81.5794 0.96228 1.70981 0
M  V30 790 O 80.7044 0.178578 2.15662 0
M  V30 791 C 81.2994 3.26957 0.887938 0
M  V30 792 C 79.8584 3.5063 1.36877 0
M  V30 793 C 79.0054 2.75165 0.343468 0
M  V30 794 H 81.9564 1.56281 -0.276028 0
M  V30 795 H 81.9774 3.37821 1.75093 0
M  V30 796 H 81.4894 3.881 -0.0031809 0
M  V30 797 H 79.5904 2.94766 2.27911 0
M  V30 798 H 79.7034 4.59343 1.36164 0
M  V30 799 H 78.0674 2.4127 0.816128 0
M  V30 800 H 78.8504 3.39034 -0.539548 0
M  V30 801 N 81.2955 -0.223234 1.56011 0
M  V30 802 C 82.5445 -0.945912 1.78144 0
M  V30 803 C 82.8575 -1.85567 0.618396 0
M  V30 804 O 84.0635 -2.61688 0.723318 0
M  V30 805 C 82.5195 -1.73216 3.15475 0
M  V30 806 C 82.1275 -0.868619 4.39499 0
M  V30 807 C 83.8715 -2.44615 3.46935 0
M  V30 808 C 81.7785 -1.65212 5.67855 0
M  V30 809 H 80.7085 -0.356929 0.664167 0
M  V30 810 H 83.3595 -0.199845 1.82409 0
M  V30 811 H 81.7415 -2.52107 3.05382 0
M  V30 812 H 82.9155 -0.120366 4.60643 0
M  V30 813 H 81.2305 -0.26683 4.15544 0
M  V30 814 H 83.8275 -3.03732 4.40058 0
M  V30 815 H 84.1705 -3.17417 2.69355 0
M  V30 816 H 84.7035 -1.72715 3.58349 0
M  V30 817 H 81.4425 -0.967407 6.48322 0
M  V30 818 H 80.9625 -2.37503 5.50774 0
M  V30 819 H 82.6415 -2.21322 6.07968 0
M  V30 820 N 82.7736 -1.49793 -0.48987 0
M  V30 821 C 84.1846 -1.52914 -1.07118 0
M  V30 822 C 84.5356 -0.321738 -1.93544 0
M  V30 823 O 83.6606 0.567338 -2.08831 0
M  V30 824 C 84.2556 -2.771 -1.94938 0
M  V30 825 C 82.8146 -2.82963 -2.48212 0
M  V30 826 C 81.9616 -2.46972 -1.26096 0
M  V30 827 H 84.9126 -1.56329 -0.273289 0
M  V30 828 H 84.9336 -2.57892 -2.79771 0
M  V30 829 H 84.4456 -3.64959 -1.32009 0
M  V30 830 H 82.5466 -1.99411 -3.14748 0
M  V30 831 H 82.6596 -3.85406 -2.84603 0
M  V30 832 H 81.0236 -1.98994 -1.58976 0
M  V30 833 H 81.8066 -3.37118 -0.648581 0
M  V30 834 N 84.2517 0.741722 -1.39055 0
M  V30 835 C 85.4977 1.50336 -1.36113 0
M  V30 836 C 85.8307 1.94148 0.0450796 0
M  V30 837 O 85.1057 1.66301 1.00868 0
M  V30 838 C 85.3887 2.74773 -2.32749 0
M  V30 839 C 85.2417 2.37023 -3.82283 0
M  V30 840 C 86.5607 3.76846 -2.27322 0
M  V30 841 H 83.6797 0.545351 -0.495743 0
M  V30 842 H 86.3217 0.848624 -1.69995 0
M  V30 843 H 84.4717 3.30639 -2.03986 0
M  V30 844 H 86.1437 1.8684 -4.21768 0
M  V30 845 H 84.3867 1.69334 -3.99385 0
M  V30 846 H 85.0577 3.26104 -4.45376 0
M  V30 847 H 87.5337 3.30548 -2.5274 0
M  V30 848 H 86.4097 4.6159 -2.97028 0
M  V30 849 H 86.6707 4.23286 -1.27599 0
M  V30 850 N 85.7298 1.2412 0.971189 0
M  V30 851 C 87.1458 1.00584 1.23916 0
M  V30 852 C 87.3458 -0.287481 1.99439 0
M  V30 853 O 86.4018 -1.00454 2.31658 0
M  V30 854 C 87.7148 2.21864 2.0297 0
M  V30 855 C 89.2628 2.26452 2.16076 0
M  V30 856 C 89.7378 3.47343 2.98524 0
M  V30 857 N 91.2288 3.47639 3.06107 0
M  V30 858 C 91.9638 4.37837 3.70251 0
M  V30 859 N 91.4598 5.38286 4.36142 0
M  V30 860 N 93.2528 4.25558 3.67228 0
M  V30 861 H 85.4038 2.07236 0.465499 0
M  V30 862 H 87.6668 0.909236 0.268315 0
M  V30 863 H 87.3728 3.15771 1.54861 0
M  V30 864 H 87.2468 2.23698 3.03709 0
M  V30 865 H 89.6338 1.33078 2.6339 0
M  V30 866 H 89.7148 2.28645 1.14696 0
M  V30 867 H 89.3588 4.41029 2.51905 0
M  V30 868 H 89.2888 3.42393 4.00093 0
M  V30 869 H 91.7798 2.74966 2.59233 0
M  V30 870 H 92.0928 6.03352 4.82894 0
M  V30 871 H 90.4378 5.42176 4.34822 0
M  V30 872 H 93.6288 3.46322 3.14927 0
M  V30 873 H 93.8018 4.96054 4.16935 0
M  V30 874 N 87.2079 -1.17134 1.05439 0
M  V30 875 C 88.1399 -2.2078 0.615539 0
M  V30 876 C 89.1529 -1.59584 -0.322001 0
M  V30 877 O 90.3419 -1.78133 -0.114344 0
M  V30 878 C 87.4419 -3.38691 -0.118938 0
M  V30 879 C 86.6149 -4.29454 0.829924 0
M  V30 880 C 85.6739 -5.26024 0.136258 0
M  V30 881 O 84.6999 -5.63952 0.77115 0
M  V30 882 N 85.9019 -5.69487 -1.1254 0
M  V30 883 H 88.6669 -2.59052 1.50705 0
M  V30 884 H 86.2279 -1.32058 0.936603 0
M  V30 885 H 88.2199 -4.00329 -0.593179 0
M  V30 886 H 86.7899 -2.98996 -0.91215 0
M  V30 887 H 86.0099 -3.65211 1.48373 0
M  V30 888 H 87.2979 -4.86984 1.47392 0
M  V30 889 H 86.6959 -5.4075 -1.6615 0
M  V30 890 H 85.2529 -6.33257 -1.54366 0
M  V30 891 N 88.686 -0.835752 -1.33615 0
M  V30 892 C 89.634 -0.255238 -2.31195 0
M  V30 893 C 90.628 0.61107 -1.57995 0
M  V30 894 O 91.834 0.500979 -1.72888 0
M  V30 895 H 88.209 -0.0638085 -0.749288 0
M  V30 896 H 90.18 -1.09283 -2.77669 0
M  V30 897 C 88.929 0.55754 -3.43201 0
M  V30 898 H 88.252 -0.0997553 -3.99676 0
M  V30 899 H 89.692 0.929622 -4.13683 0
M  V30 900 C 88.151 1.73515 -2.88781 0
M  V30 901 O 88.681 2.83376 -2.84712 0
M  V30 902 N 86.887 1.55603 -2.4543 0
M  V30 903 H 86.434 0.662354 -2.48939 0
M  V30 904 H 86.392 2.34545 -2.09371 0
M  V30 905 N 90.1641 1.46063 -0.591896 0
M  V30 906 C 91.4041 2.04228 -0.0838014 0
M  V30 907 C 91.7681 1.45231 1.25587 0
M  V30 908 O 92.9691 1.94653 1.85375 0
M  V30 909 C 91.2401 3.57389 -0.0286282 0
M  V30 910 S 92.7991 4.3678 0.420557 0
M  V30 911 H 89.6171 0.709762 -0.0419319 0
M  V30 912 H 92.2191 1.78983 -0.786465 0
M  V30 913 H 90.9231 3.97843 -1.00743 0
M  V30 914 H 90.4541 3.87185 0.69652 0
M  V30 915 H 92.4691 4.67131 1.67341 0
M  V30 916 N 91.6422 0.330177 1.54103 0
M  V30 917 C 92.8892 -0.270405 2.00686 0
M  V30 918 C 93.2172 -1.51621 1.21825 0
M  V30 919 O 92.4722 -1.93536 0.29025 0
M  V30 920 C 92.7712 -0.643134 3.51566 0
M  V30 921 C 92.4372 0.504251 4.48072 0
M  V30 922 C 91.0992 0.819163 4.74176 0
M  V30 923 C 93.4512 1.27465 5.05373 0
M  V30 924 C 90.7792 1.90708 5.5484 0
M  V30 925 C 93.1312 2.35271 5.87223 0
M  V30 926 C 91.7952 2.67336 6.11627 0
M  V30 927 H 91.0652 -0.0989482 0.734364 0
M  V30 928 H 93.7122 0.455324 1.86008 0
M  V30 929 H 92.0172 -1.44938 3.64006 0
M  V30 930 H 93.7142 -1.11949 3.85056 0
M  V30 931 H 90.3042 0.248733 4.27878 0
M  V30 932 H 94.4882 1.04462 4.85182 0
M  V30 933 H 89.7442 2.15991 5.71977 0
M  V30 934 H 93.9182 2.95405 6.30641 0
M  V30 935 H 91.5452 3.51763 6.73919 0
M  V30 936 N 93.1203 -1.57491 0.0584922 0
M  V30 937 C 94.3483 -1.97296 -0.623037 0
M  V30 938 C 94.7633 -0.936338 -1.63946 0
M  V30 939 O 94.1203 0.0785981 -1.82331 0
M  V30 940 C 94.1713 -3.37183 -1.30345 0
M  V30 941 O 93.8923 -4.36872 -0.32773 0
M  V30 942 C 95.3933 -3.91788 -2.07406 0
M  V30 943 H 92.6133 -0.649153 -0.169826 0
M  V30 944 H 95.1573 -2.04106 0.12696 0
M  V30 945 H 93.3123 -3.31502 -2.00463 0
M  V30 946 H 93.7263 -5.18141 -0.814269 0
M  V30 947 H 95.2003 -4.91926 -2.50425 0
M  V30 948 H 95.6773 -3.27609 -2.92521 0
M  V30 949 H 96.2833 -4.00829 -1.42184 0
M  V30 950 N 94.5984 0.214957 -1.56127 0
M  V30 951 C 95.8444 0.939762 -1.79712 0
M  V30 952 C 96.1774 1.83723 -0.629247 0
M  V30 953 O 95.4524 1.90925 0.371197 0
M  V30 954 C 95.7354 1.77306 -3.13424 0
M  V30 955 C 95.5884 0.90164 -4.40671 0
M  V30 956 C 96.9074 2.74956 -3.43638 0
M  V30 957 H 94.0264 0.340214 -0.653776 0
M  V30 958 H 96.6684 0.20824 -1.88855 0
M  V30 959 H 94.8184 2.39673 -3.0576 0
M  V30 960 H 96.4904 0.294206 -4.60361 0
M  V30 961 H 94.7334 0.207368 -4.33304 0
M  V30 962 H 95.4044 1.51923 -5.30682 0
M  V30 963 H 97.8804 2.22724 -3.51473 0
M  V30 964 H 96.7564 3.30358 -4.38355 0
M  V30 965 H 97.0174 3.53023 -2.66134 0
M  V30 966 N 96.0765 1.50051 0.48192 0
M  V30 967 C 97.0245 1.68635 1.60203 0
M  V30 968 C 98.0185 0.552184 1.60148 0
M  V30 969 O 99.2245 0.732377 1.64427 0
M  V30 970 H 95.5995 0.532081 0.531407 0
M  V30 971 H 97.5705 2.62616 1.41688 0
M  V30 972 C 96.3195 1.78775 2.9822 0
M  V30 973 H 95.6425 2.6543 2.98976 0
M  V30 974 H 97.0825 1.95806 3.7608 0
M  V30 975 C 95.5415 0.536849 3.32595 0
M  V30 976 O 96.0715 -0.328897 4.00351 0
M  V30 977 N 94.2775 0.394091 2.87915 0
M  V30 978 H 93.8245 1.09962 2.32951 0
M  V30 979 H 93.7825 -0.441737 3.11281 0
M  V30 980 N 97.5546 -0.734337 1.39446 0
M  V30 981 C 98.9706 -1.03997 1.21065 0
M  V30 982 C 99.1706 -2.01369 0.0727019 0
M  V30 983 O 98.2266 -2.45856 -0.575426 0
M  V30 984 C 99.5396 -1.60163 2.54496 0
M  V30 985 C 101.088 -1.7224 2.61347 0
M  V30 986 C 101.563 -2.31814 3.95002 0
M  V30 987 N 103.054 -2.39223 3.96644 0
M  V30 988 C 103.789 -2.86258 4.96834 0
M  V30 989 N 103.285 -3.33184 6.07421 0
M  V30 990 N 105.078 -2.85473 4.84213 0
M  V30 991 H 97.2286 -0.0885624 2.12215 0
M  V30 992 H 99.4916 -0.10191 0.942506 0
M  V30 993 H 99.1976 -0.960811 3.38321 0
M  V30 994 H 99.0716 -2.5896 2.74262 0
M  V30 995 H 101.459 -2.35443 1.77906 0
M  V30 996 H 101.54 -0.720939 2.4543 0
M  V30 997 H 101.184 -1.69238 4.78875 0
M  V30 998 H 101.114 -3.32638 4.08239 0
M  V30 999 H 103.605 -2.06057 3.16779 0
M  V30 1000 H 103.918 -3.67586 6.7978 0
M  V30 1001 H 102.263 -3.31191 6.11013 0
M  V30 1002 H 105.454 -2.48136 3.96921 0
M  V30 1003 H 105.627 -3.21814 5.62441 0
M  V30 1004 N 99.0327 -1.24633 -0.964593 0
M  V30 1005 C 100.258 -1.11596 -1.74818 0
M  V30 1006 C 100.683 0.32723 -1.85232 0
M  V30 1007 O 100.041 1.23695 -1.32549 0
M  V30 1008 C 100.089 -1.76397 -3.1451 0
M  V30 1009 O 99.1927 -1.03685 -3.99153 0
M  V30 1010 H 98.5337 -0.390196 -0.537255 0
M  V30 1011 H 101.064 -1.65002 -1.20977 0
M  V30 1012 H 101.074 -1.8228 -3.65018 0
M  V30 1013 H 99.7487 -2.81401 -3.06246 0
M  V30 1014 H 98.3257 -1.05611 -3.57632 0
M  V30 1015 N 100.511 1.16574 -1.06058 0
M  V30 1016 C 101.441 2.23057 -0.690488 0
M  V30 1017 C 102.422 1.67141 0.315901 0
M  V30 1018 O 103.607 1.93253 0.191556 0
M  V30 1019 C 100.737 3.47222 -0.073625 0
M  V30 1020 C 99.6908 4.16016 -1.00573 0
M  V30 1021 C 99.0168 5.34104 -0.252289 0
M  V30 1022 C 100.317 4.67264 -2.33371 0
M  V30 1023 H 102.011 2.54271 -1.58072 0
M  V30 1024 H 99.5568 1.22218 -0.76149 0
M  V30 1025 H 101.51 4.20939 0.19714 0
M  V30 1026 H 100.234 3.15302 0.85161 0
M  V30 1027 H 98.8928 3.44223 -1.2612 0
M  V30 1028 H 98.5408 4.98437 0.675988 0
M  V30 1029 H 98.2408 5.81072 -0.873455 0
M  V30 1030 H 99.7648 6.10599 0.0109857 0
M  V30 1031 H 101.179 5.32573 -2.12223 0
M  V30 1032 H 99.5758 5.24843 -2.90963 0
M  V30 1033 H 100.646 3.83602 -2.96611 0
M  V30 1034 N 101.989 0.842826 1.3317 0
M  V30 1035 C 103.236 0.440447 1.97652 0
M  V30 1036 C 103.564 -1.00123 1.6675 0
M  V30 1037 O 102.819 -1.7155 0.941761 0
M  V30 1038 C 103.118 0.612607 3.52111 0
M  V30 1039 C 102.784 2.02297 4.02972 0
M  V30 1040 C 101.446 2.40874 4.16573 0
M  V30 1041 C 103.798 2.94402 4.30089 0
M  V30 1042 C 101.126 3.70852 4.54627 0
M  V30 1043 C 103.478 4.23865 4.69597 0
M  V30 1044 C 102.142 4.62392 4.81404 0
M  V30 1045 H 101.412 0.161171 0.72326 0
M  V30 1046 H 104.059 1.07061 1.58777 0
M  V30 1047 H 102.364 -0.100849 3.9167 0
M  V30 1048 H 104.061 0.2815 4.00011 0
M  V30 1049 H 100.651 1.71338 3.92863 0
M  V30 1050 H 104.835 2.65835 4.19101 0
M  V30 1051 H 100.091 4.00501 4.61962 0
M  V30 1052 H 104.265 4.95306 4.89536 0
M  V30 1053 H 101.892 5.63154 5.10648 0
M  V30 1054 N 103.467 -1.45747 0.599634 0
M  V30 1055 C 104.716 -2.01502 0.0893511 0
M  V30 1056 C 105.029 -1.4748 -1.28488 0
M  V30 1057 O 106.235 -1.95161 -1.88745 0
M  V30 1058 C 104.691 -3.59735 0.109082 0
M  V30 1059 C 104.299 -4.22754 1.48267 0
M  V30 1060 C 106.043 -4.23085 -0.346374 0
M  V30 1061 C 103.95 -5.73115 1.45921 0
M  V30 1062 H 102.88 -0.753417 0.0296347 0
M  V30 1063 H 105.531 -1.67303 0.753788 0
M  V30 1064 H 103.913 -3.91087 -0.621854 0
M  V30 1065 H 105.087 -4.02987 2.23468 0
M  V30 1066 H 103.402 -3.71567 1.87955 0
M  V30 1067 H 105.999 -5.33327 -0.38298 0
M  V30 1068 H 106.342 -3.93201 -1.36743 0
M  V30 1069 H 106.875 -3.9642 0.331038 0
M  V30 1070 H 103.614 -6.07685 2.45762 0
M  V30 1071 H 103.134 -5.95097 0.749665 0
M  V30 1072 H 104.813 -6.3616 1.17941 0
M  V30 1073 N 104.945 -0.338344 -1.53925 0
M  V30 1074 C 106.192 0.259758 -2.00827 0
M  V30 1075 C 106.52 1.50973 -1.22628 0
M  V30 1076 O 105.775 1.93379 -0.300509 0
M  V30 1077 C 106.074 0.62448 -3.51902 0
M  V30 1078 C 105.74 -0.528006 -4.47798 0
M  V30 1079 C 104.402 -0.844298 -4.73735 0
M  V30 1080 C 106.754 -1.30143 -5.0469 0
M  V30 1081 C 104.082 -1.93648 -5.53821 0
M  V30 1082 C 106.434 -2.38382 -5.85967 0
M  V30 1083 C 105.098 -2.70576 -6.10201 0
M  V30 1084 H 104.368 0.0950523 -0.734878 0
M  V30 1085 H 107.015 -0.465182 -1.85764 0
M  V30 1086 H 105.32 1.43006 -3.64769 0
M  V30 1087 H 107.017 1.09905 -3.85645 0
M  V30 1088 H 103.607 -0.271421 -4.2774 0
M  V30 1089 H 107.791 -1.07033 -4.84621 0
M  V30 1090 H 103.047 -2.19021 -5.70824 0
M  V30 1091 H 107.221 -2.98746 -6.29066 0
M  V30 1092 H 104.848 -3.55333 -6.72044 0
M  V30 1093 N 106.423 1.57458 -0.0668435 0
M  V30 1094 C 107.671 1.92919 0.602214 0
M  V30 1095 C 107.992 0.947215 1.70449 0
M  V30 1096 O 107.262 -0.00544117 1.95899 0
M  V30 1097 H 105.842 0.71217 0.22544 0
M  V30 1098 H 108.504 1.94508 -0.123535 0
M  V30 1099 H 107.6 2.94589 1.03073 0
M  V30 1100 N 107.901 -0.206675 1.56239 0
M  V30 1101 C 108.811 -1.27686 1.96808 0
M  V30 1102 C 109.827 -1.50455 0.874035 0
M  V30 1103 O 111.003 -1.63295 1.17884 0
M  V30 1104 C 108.068 -2.60358 2.28942 0
M  V30 1105 C 107.129 -2.45762 3.51994 0
M  V30 1106 C 106.362 -3.72108 3.82585 0
M  V30 1107 O 106.585 -4.75776 3.14631 0
M  V30 1108 O 105.519 -3.6833 4.76043 0
M  V30 1109 H 109.345 -0.962593 2.88041 0
M  V30 1110 H 106.93 -0.410746 1.43643 0
M  V30 1111 H 108.812 -3.38687 2.50737 0
M  V30 1112 H 107.487 -2.91435 1.4088 0
M  V30 1113 H 106.394 -1.65584 3.35459 0
M  V30 1114 H 107.727 -2.19621 4.40486 0
M  V30 1115 N 109.379 -1.50304 -0.473955 0
M  V30 1116 C 110.656 -1.51667 -1.23518 0
M  V30 1117 C 111.036 -0.259701 -2.09496 0
M  V30 1118 O 110.384 0.756986 -2.15597 0
M  V30 1119 C 110.594 -2.81082 -2.06868 0
M  V30 1120 C 111.942 -3.31631 -2.65153 0
M  V30 1121 O 112.966 -2.82384 -2.17113 0
M  V30 1122 O 111.825 -4.17471 -3.52675 0
M  V30 1123 H 108.919 -0.60822 -0.560355 0
M  V30 1124 H 111.465 -1.62592 -0.486011 0
M  V30 1125 H 110.237 -3.64041 -1.4349 0
M  V30 1126 H 109.86 -2.73146 -2.88924 0
M  V30 1127 N 110.857 0.726932 -1.39834 0
M  V30 1128 C 111.805 1.86235 -1.39353 0
M  V30 1129 C 112.799 1.67144 -0.275555 0
M  V30 1130 O 114.005 1.74387 -0.44601 0
M  V30 1131 H 110.38 0.613174 -0.43534 0
M  V30 1132 H 112.351 1.83756 -2.35109 0
M  V30 1133 C 111.1 3.23995 -1.26185 0
M  V30 1134 H 110.423 3.39285 -2.11484 0
M  V30 1135 H 111.863 4.03609 -1.29907 0
M  V30 1136 C 110.322 3.36888 0.0290018 0
M  V30 1137 O 110.852 3.89152 0.99619 0
M  V30 1138 N 109.058 2.90446 0.0947437 0
M  V30 1139 H 108.605 2.48102 -0.693035 0
M  V30 1140 H 108.563 2.99451 0.957932 0
M  V30 1141 N 112.336 1.25143 0.95797 0
M  V30 1142 C 113.585 1.0909 1.69654 0
M  V30 1143 C 113.898 -0.368548 1.92097 0
M  V30 1144 O 115.104 -0.649455 2.63618 0
M  V30 1145 C 113.56 1.90395 3.05414 0
M  V30 1146 C 113.168 3.4081 2.90779 0
M  V30 1147 C 114.912 1.82901 3.83076 0
M  V30 1148 C 112.819 4.14423 4.21909 0
M  V30 1149 H 111.749 0.404625 0.636235 0
M  V30 1150 H 114.4 1.4931 1.06672 0
M  V30 1151 H 112.782 1.42996 3.69281 0
M  V30 1152 H 113.956 3.95859 2.35865 0
M  V30 1153 H 112.271 3.49361 2.26575 0
M  V30 1154 H 114.868 2.35196 4.80195 0
M  V30 1155 H 115.211 0.796224 4.08615 0
M  V30 1156 H 115.744 2.28033 3.25954 0
M  V30 1157 H 112.483 5.18102 4.01561 0
M  V30 1158 H 112.003 3.64159 4.76601 0
M  V30 1159 H 113.682 4.21956 4.90471 0
M  V30 1160 N 113.814 -1.1601 1.06675 0
M  V30 1161 C 115.06 -1.86909 0.786945 0
M  V30 1162 C 115.393 -1.81717 -0.685018 0
M  V30 1163 O 114.668 -1.23551 -1.50218 0
M  V30 1164 C 114.951 -3.36313 1.28707 0
M  V30 1165 C 114.804 -3.50175 2.82308 0
M  V30 1166 C 116.123 -4.3084 0.898071 0
M  V30 1167 H 113.242 -0.678677 0.287343 0
M  V30 1168 H 115.884 -1.36336 1.32334 0
M  V30 1169 H 114.034 -3.79513 0.830768 0
M  V30 1170 H 115.706 -3.15886 3.36175 0
M  V30 1171 H 113.949 -2.91959 3.20847 0
M  V30 1172 H 114.62 -4.55116 3.12368 0
M  V30 1173 H 117.096 -3.95561 1.29114 0
M  V30 1174 H 115.972 -5.33876 1.27543 0
M  V30 1175 H 116.233 -4.41662 -0.196651 0
M  V30 1176 N 115.292 -0.849877 -1.32721 0
M  V30 1177 C 116.708 -0.539102 -1.50219 0
M  V30 1178 C 116.908 0.931271 -1.78689 0
M  V30 1179 O 115.964 1.71455 -1.85363 0
M  V30 1180 C 117.277 -1.42196 -2.64954 0
M  V30 1181 C 118.825 -1.42189 -2.78839 0
M  V30 1182 C 119.3 -2.28985 -3.96648 0
M  V30 1183 N 120.791 -2.26754 -4.03902 0
M  V30 1184 C 121.526 -2.90644 -4.94281 0
M  V30 1185 N 121.022 -3.63629 -5.897 0
M  V30 1186 N 122.815 -2.80057 -4.87365 0
M  V30 1187 H 114.966 -1.80156 -1.12506 0
M  V30 1188 H 117.229 -0.769217 -0.554085 0
M  V30 1189 H 116.935 -2.46733 -2.50631 0
M  V30 1190 H 116.809 -1.10591 -3.60624 0
M  V30 1191 H 119.196 -0.38419 -2.92588 0
M  V30 1192 H 119.277 -1.77807 -1.83898 0
M  V30 1193 H 118.921 -3.32819 -3.83658 0
M  V30 1194 H 118.851 -1.90702 -4.90857 0
M  V30 1195 H 121.342 -1.73688 -3.3562 0
M  V30 1196 H 121.655 -4.09558 -6.55349 0
M  V30 1197 H 120 -3.67737 -5.89741 0
M  V30 1198 H 123.191 -2.22593 -4.11789 0
M  V30 1199 H 123.364 -3.30132 -5.57599 0
M  V30 1200 N 116.77 1.45427 -0.607355 0
M  V30 1201 C 117.717 2.3053 0.111625 0
M  V30 1202 C 118.687 1.4209 0.860216 0
M  V30 1203 O 119.872 1.71019 0.845998 0
M  V30 1204 C 117.012 3.26992 1.10319 0
M  V30 1205 C 116.125 4.30535 0.355493 0
M  V30 1206 C 115.26 5.14105 1.33676 0
M  V30 1207 C 114.299 6.09376 0.576862 0
M  V30 1208 N 113.436 6.85727 1.5074 0
M  V30 1209 H 118.276 2.91477 -0.620093 0
M  V30 1210 H 115.813 1.43631 -0.317594 0
M  V30 1211 H 117.771 3.81385 1.6912 0
M  V30 1212 H 116.401 2.67799 1.80232 0
M  V30 1213 H 115.453 3.78805 -0.348023 0
M  V30 1214 H 116.765 4.98235 -0.237423 0
M  V30 1215 H 115.919 5.72897 1.99684 0
M  V30 1216 H 114.658 4.46423 1.9636 0
M  V30 1217 H 113.663 5.49715 -0.0968519 0
M  V30 1218 H 114.888 6.79085 -0.0449341 0
M  V30 1219 H 112.834 6.20735 2.12189 0
M  V30 1220 H 112.751 7.49778 0.967913 0
M  V30 1221 H 114.019 7.4906 2.15706 0
M  V30 1222 N 118.248 0.346503 1.53744 0
M  V30 1223 C 119.478 -0.250047 2.05081 0
M  V30 1224 C 119.886 -1.44529 1.22098 0
M  V30 1225 O 119.229 -1.81992 0.249917 0
M  V30 1226 C 119.291 -0.725934 3.52094 0
M  V30 1227 C 118.955 0.350053 4.55657 0
M  V30 1228 C 119.952 1.19372 5.0601 0
M  V30 1229 C 117.637 0.504827 4.99757 0
M  V30 1230 C 119.631 2.17768 5.99046 0
M  V30 1231 C 117.318 1.49218 5.92602 0
M  V30 1232 C 118.316 2.32706 6.42135 0
M  V30 1233 O 118.004 3.2976 7.33153 0
M  V30 1234 H 117.736 -0.0515469 0.674032 0
M  V30 1235 H 120.29 0.497559 1.99282 0
M  V30 1236 H 118.52 -1.52483 3.55367 0
M  V30 1237 H 120.209 -1.24336 3.86388 0
M  V30 1238 H 120.975 1.08525 4.72702 0
M  V30 1239 H 116.854 -0.135178 4.60802 0
M  V30 1240 H 120.398 2.82971 6.37631 0
M  V30 1241 H 116.295 1.6012 6.25325 0
M  V30 1242 H 117.063 3.25265 7.51096 0
M  V30 1243 N 119.726 -1.57421 0.075193 0
M  V30 1244 C 120.689 -2.11791 -0.876203 0
M  V30 1245 C 121.689 -1.04268 -1.22412 0
M  V30 1246 O 122.879 -1.30242 -1.15684 0
M  V30 1247 C 120.011 -2.62207 -2.17854 0
M  V30 1248 H 121.204 -2.9716 -0.40444 0
M  V30 1249 H 118.757 -1.55333 -0.173557 0
M  V30 1250 H 119.492 -1.803 -2.6956 0
M  V30 1251 H 119.277 -3.40802 -1.93897 0
M  V30 1252 H 120.767 -3.04335 -2.85955 0
M  V30 1253 N 121.204 0.198386 -1.56346 0
M  V30 1254 C 122.151 1.24589 -1.94284 0
M  V30 1255 C 123.121 1.454 -0.802997 0
M  V30 1256 O 124.306 1.58588 -1.06087 0
M  V30 1257 C 121.446 2.58631 -2.28482 0
M  V30 1258 C 120.559 2.45426 -3.55514 0
M  V30 1259 C 119.694 3.7215 -3.79049 0
M  V30 1260 C 118.733 3.53763 -4.99518 0
M  V30 1261 N 117.87 4.72491 -5.19323 0
M  V30 1262 H 122.71 0.915356 -2.83593 0
M  V30 1263 H 120.247 0.440629 -1.40346 0
M  V30 1264 H 122.205 3.3672 -2.46324 0
M  V30 1265 H 120.835 2.89734 -1.42317 0
M  V30 1266 H 119.887 1.58652 -3.45737 0
M  V30 1267 H 121.199 2.27772 -4.43758 0
M  V30 1268 H 120.353 4.58679 -3.97113 0
M  V30 1269 H 119.092 3.92754 -2.89129 0
M  V30 1270 H 118.097 2.65619 -4.8138 0
M  V30 1271 H 119.322 3.34607 -5.90944 0
M  V30 1272 H 117.268 4.93365 -4.3235 0
M  V30 1273 H 117.185 4.5765 -6.01741 0
M  V30 1274 H 118.453 5.6038 -5.41843 0
M  V30 1275 N 122.682 1.50554 0.465978 0
M  V30 1276 C 123.629 1.6979 1.56333 0
M  V30 1277 C 124.599 0.539239 1.57103 0
M  V30 1278 O 125.784 0.770401 1.74555 0
M  V30 1279 C 122.924 1.80273 2.94271 0
M  V30 1280 C 122.037 3.07674 3.0325 0
M  V30 1281 C 121.172 3.08922 4.32135 0
M  V30 1282 C 120.211 4.30755 4.34875 0
M  V30 1283 N 119.348 4.29714 5.55239 0
M  V30 1284 H 124.188 2.63472 1.39235 0
M  V30 1285 H 121.725 1.30602 0.676873 0
M  V30 1286 H 123.683 1.84332 3.74269 0
M  V30 1287 H 122.313 0.900258 3.09992 0
M  V30 1288 H 121.365 3.13062 2.16094 0
M  V30 1289 H 122.677 3.97642 3.01135 0
M  V30 1290 H 121.831 3.11738 5.20485 0
M  V30 1291 H 120.57 2.16792 4.36866 0
M  V30 1292 H 119.575 4.28146 3.44922 0
M  V30 1293 H 120.8 5.24117 4.31831 0
M  V30 1294 H 118.746 3.4044 5.60746 0
M  V30 1295 H 118.663 5.13456 5.54886 0
M  V30 1296 H 119.931 4.36683 6.457 0
M  V30 1297 N 124.16 -0.719506 1.40217 0
M  V30 1298 C 125.09 -1.8465 1.42922 0
M  V30 1299 C 126.071 -1.67599 0.29062 0
M  V30 1300 O 127.256 -1.87688 0.498677 0
M  V30 1301 C 124.386 -3.22565 1.28722 0
M  V30 1302 C 123.34 -3.54281 2.40144 0
M  V30 1303 C 122.666 -4.91298 2.11023 0
M  V30 1304 C 123.966 -3.55676 3.82481 0
M  V30 1305 H 125.66 -1.82644 2.37237 0
M  V30 1306 H 123.206 -0.877305 1.1419 0
M  V30 1307 H 125.159 -4.01095 1.29232 0
M  V30 1308 H 123.883 -3.25137 0.308811 0
M  V30 1309 H 122.542 -2.78088 2.38877 0
M  V30 1310 H 122.19 -4.90468 1.11582 0
M  V30 1311 H 121.89 -5.13485 2.8567 0
M  V30 1312 H 123.414 -5.72166 2.13209 0
M  V30 1313 H 124.828 -4.24254 3.85592 0
M  V30 1314 H 123.225 -3.89388 4.56614 0
M  V30 1315 H 124.295 -2.55144 4.12346 0
M  V30 1316 N 125.638 -1.25649 -0.95132 0
M  V30 1317 C 126.887 -1.09988 -1.69073 0
M  V30 1318 C 127.2 0.358355 -1.92289 0
M  V30 1319 O 128.406 0.635466 -2.63958 0
M  V30 1320 C 126.862 -1.92012 -3.044 0
M  V30 1321 C 126.47 -3.42347 -2.88968 0
M  V30 1322 C 128.214 -1.8493 -3.82101 0
M  V30 1323 C 126.121 -4.16655 -4.19705 0
M  V30 1324 H 125.051 -0.407993 -0.63408 0
M  V30 1325 H 127.702 -1.49873 -1.05879 0
M  V30 1326 H 126.084 -1.44952 -3.68517 0
M  V30 1327 H 127.258 -3.97104 -2.33762 0
M  V30 1328 H 125.573 -3.50557 -2.24719 0
M  V30 1329 H 128.17 -2.37739 -4.78941 0
M  V30 1330 H 128.513 -0.817883 -4.08187 0
M  V30 1331 H 129.046 -2.29758 -3.2474 0
M  V30 1332 H 125.785 -5.20224 -3.98807 0
M  V30 1333 H 125.305 -3.66681 -4.74663 0
M  V30 1334 H 126.984 -4.24551 -4.88227 0
M  V30 1335 N 127.117 1.15442 -1.07289 0
M  V30 1336 C 128.394 1.82306 -0.708792 0
M  V30 1337 C 128.774 1.94991 0.808807 0
M  V30 1338 O 128.122 1.50085 1.72298 0
M  V30 1339 C 128.332 3.18695 -1.42247 0
M  V30 1340 C 129.68 3.94341 -1.57417 0
M  V30 1341 O 130.704 3.28247 -1.38319 0
M  V30 1342 O 129.563 5.12839 -1.88834 0
M  V30 1343 H 126.657 0.787628 -0.252132 0
M  V30 1344 H 129.203 1.22559 -1.17377 0
M  V30 1345 H 127.975 3.04557 -2.45684 0
M  V30 1346 H 127.598 3.86128 -0.948223 0
M  V30 1347 N 128.595 0.856903 1.32268 0
M  V30 1348 C 129.841 0.471355 1.97863 0
M  V30 1349 C 130.196 -0.962896 1.66572 0
M  V30 1350 O 129.489 -1.66686 0.944797 0
M  V30 1351 C 129.683 0.649919 3.51441 0
M  V30 1352 C 129.512 2.09997 3.97657 0
M  V30 1353 C 128.282 2.73893 4.2463 0
M  V30 1354 C 130.48 3.07081 4.1256 0
M  V30 1355 N 128.462 4.09786 4.57109 0
M  V30 1356 C 129.833 4.27968 4.48602 0
M  V30 1357 C 131.888 3.03247 3.949 0
M  V30 1358 C 130.591 5.45521 4.68827 0
M  V30 1359 C 132.617 4.20046 4.16311 0
M  V30 1360 C 131.979 5.39692 4.52672 0
M  V30 1361 H 128.078 0.221263 0.750044 0
M  V30 1362 H 130.662 1.10876 1.60045 0
M  V30 1363 H 128.833 0.0421938 3.88377 0
M  V30 1364 H 130.565 0.234044 4.04023 0
M  V30 1365 H 127.32 2.24918 4.16784 0
M  V30 1366 H 127.744 4.7989 4.7753 0
M  V30 1367 H 132.386 2.11863 3.65888 0
M  V30 1368 H 130.104 6.37434 4.96693 0
M  V30 1369 H 133.69 4.18517 4.04147 0
M  V30 1370 H 132.57 6.28566 4.68907 0
M  V30 1371 N 130.073 -1.45103 0.615059 0
M  V30 1372 C 131.484 -1.85654 0.197383 0
M  V30 1373 C 131.835 -1.51433 -1.24749 0
M  V30 1374 O 130.96 -0.944608 -1.94695 0
M  V30 1375 C 131.555 -3.36972 0.351448 0
M  V30 1376 C 130.114 -3.76398 -0.011593 0
M  V30 1377 C 129.261 -2.69024 0.672394 0
M  V30 1378 H 132.212 -1.35797 0.821263 0
M  V30 1379 H 132.233 -3.78239 -0.414227 0
M  V30 1380 H 131.745 -3.61847 1.40314 0
M  V30 1381 H 129.846 -3.5714 -1.06217 0
M  V30 1382 H 129.959 -4.77532 0.387265 0
M  V30 1383 H 128.323 -2.54465 0.109284 0
M  V30 1384 H 129.106 -2.96735 1.72636 0
M  V30 1385 N 131.551 -0.354651 -1.53558 0
M  V30 1386 C 132.962 0.126902 -1.86268 0
M  V30 1387 C 133.313 1.49075 -1.27558 0
M  V30 1388 O 132.438 2.08105 -0.5934 0
M  V30 1389 C 133.033 0.237046 -3.3797 0
M  V30 1390 C 131.592 0.662842 -3.70518 0
M  V30 1391 C 130.739 -0.196652 -2.76602 0
M  V30 1392 H 133.69 -0.573849 -1.47962 0
M  V30 1393 H 133.711 1.06259 -3.65362 0
M  V30 1394 H 133.223 -0.755725 -3.80671 0
M  V30 1395 H 131.324 1.66424 -3.33367 0
M  V30 1396 H 131.437 0.445034 -4.77029 0
M  V30 1397 H 129.801 0.332763 -2.52517 0
M  V30 1398 H 130.584 -1.18676 -3.22135 0
M  V30 1399 N 133.029 1.57378 -0.0835403 0
M  V30 1400 C 134.276 1.9393 0.58287 0
M  V30 1401 C 134.604 0.964455 1.68904 0
M  V30 1402 O 133.859 -0.0179474 1.95692 0
M  V30 1403 C 134.158 3.37063 1.1884 0
M  V30 1404 C 133.824 4.50424 0.207194 0
M  V30 1405 C 132.486 4.81159 -0.0627115 0
M  V30 1406 C 134.838 5.19136 -0.463426 0
M  V30 1407 C 132.166 5.77939 -1.01012 0
M  V30 1408 C 134.518 6.16931 -1.39924 0
M  V30 1409 C 133.182 6.46078 -1.67749 0
M  V30 1410 H 132.452 0.70964 0.213287 0
M  V30 1411 H 135.099 1.90856 -0.156916 0
M  V30 1412 H 133.404 3.3666 2.00418 0
M  V30 1413 H 135.101 3.6264 1.71153 0
M  V30 1414 H 131.691 4.2646 0.427747 0
M  V30 1415 H 135.875 4.95576 -0.268034 0
M  V30 1416 H 131.131 5.98842 -1.23283 0
M  V30 1417 H 135.305 6.69273 -1.92476 0
M  V30 1418 H 132.932 7.2088 -2.41321 0
M  V30 1419 N 134.507 -0.190092 1.56449 0
M  V30 1420 C 135.417 -1.25591 1.98152 0
M  V30 1421 C 136.433 -1.49519 0.889944 0
M  V30 1422 O 137.609 -1.62036 1.19609 0
M  V30 1423 C 134.674 -2.57916 2.3169 0
M  V30 1424 C 133.735 -2.42015 3.5458 0
M  V30 1425 C 132.968 -3.6803 3.8651 0
M  V30 1426 O 133.191 -4.72413 3.1966 0
M  V30 1427 O 132.125 -3.6326 4.79923 0
M  V30 1428 H 135.951 -0.931988 2.89046 0
M  V30 1429 H 133.536 -0.395488 1.4407 0
M  V30 1430 H 135.418 -3.36008 2.54316 0
M  V30 1431 H 134.093 -2.89925 1.43963 0
M  V30 1432 H 133 -1.62017 3.37196 0
M  V30 1433 H 134.333 -2.14937 4.4279 0
M  V30 1434 N 135.985 -1.50799 -0.457987 0
M  V30 1435 C 137.215 -1.65977 -1.23025 0
M  V30 1436 C 137.623 -0.347918 -1.85974 0
M  V30 1437 O 136.966 0.68148 -1.70592 0
M  V30 1438 C 137.028 -2.70309 -2.3701 0
M  V30 1439 C 136.692 -4.135 -1.94594 0
M  V30 1440 C 137.689 -4.98949 -1.46101 0
M  V30 1441 C 135.374 -4.5949 -2.02915 0
M  V30 1442 C 137.368 -6.28442 -1.06489 0
M  V30 1443 C 135.055 -5.88984 -1.62914 0
M  V30 1444 C 136.053 -6.73286 -1.1478 0
M  V30 1445 O 135.741 -8.00362 -0.75339 0
M  V30 1446 H 135.473 -0.56064 -0.377702 0
M  V30 1447 H 138.027 -1.97857 -0.551537 0
M  V30 1448 H 136.257 -2.337 -3.08093 0
M  V30 1449 H 137.946 -2.74574 -2.98938 0
M  V30 1450 H 138.712 -4.6463 -1.39084 0
M  V30 1451 H 134.591 -3.94009 -2.39328 0
M  V30 1452 H 138.135 -6.94194 -0.688488 0
M  V30 1453 H 134.032 -6.22822 -1.69595 0
M  V30 1454 H 134.8 -8.13744 -0.88108 0
M  V30 1455 N 137.463 0.71206 -1.40597 0
M  V30 1456 C 138.396 1.83582 -1.35546 0
M  V30 1457 C 139.374 1.61032 -0.225284 0
M  V30 1458 O 140.558 1.83998 -0.409519 0
M  V30 1459 C 137.685 3.19983 -1.11034 0
M  V30 1460 C 136.731 3.61355 -2.2655 0
M  V30 1461 S 137.564 3.68062 -3.88961 0
M  V30 1462 C 138.72 5.07216 -3.66719 0
M  V30 1463 H 138.953 1.87586 -2.30648 0
M  V30 1464 H 136.486 0.879182 -1.26924 0
M  V30 1465 H 138.444 3.98734 -0.975761 0
M  V30 1466 H 137.105 3.13608 -0.175798 0
M  V30 1467 H 136.298 4.60403 -2.0505 0
M  V30 1468 H 135.9 2.8987 -2.36329 0
M  V30 1469 H 138.192 5.94238 -3.25404 0
M  V30 1470 H 139.135 5.33753 -4.6531 0
M  V30 1471 H 139.543 4.77976 -3.00332 0
M  V30 1472 N 138.941 1.26152 0.944643 0
M  V30 1473 C 140.19 1.10883 1.68487 0
M  V30 1474 C 140.503 -0.348153 1.92477 0
M  V30 1475 O 141.709 -0.621459 2.64292 0
M  V30 1476 C 140.165 1.93624 3.03377 0
M  V30 1477 C 139.773 3.43875 2.87148 0
M  V30 1478 C 141.517 1.86954 3.81115 0
M  V30 1479 C 139.424 4.18875 4.1749 0
M  V30 1480 H 138.354 0.41135 0.631907 0
M  V30 1481 H 141.005 1.50433 1.05082 0
M  V30 1482 H 139.387 1.46904 3.67743 0
M  V30 1483 H 140.561 3.98338 2.31653 0
M  V30 1484 H 138.876 3.51744 2.22856 0
M  V30 1485 H 141.473 2.40275 4.77673 0
M  V30 1486 H 141.816 0.839518 4.07747 0
M  V30 1487 H 142.349 2.31477 3.23517 0
M  V30 1488 H 139.088 5.22332 3.96043 0
M  V30 1489 H 138.608 3.69193 4.72712 0
M  V30 1490 H 140.287 4.27134 4.85968 0
M  V30 1491 N 140.419 -1.14872 1.07899 0
M  V30 1492 C 141.349 -2.2193 0.725887 0
M  V30 1493 C 142.33 -1.67622 -0.28927 0
M  V30 1494 O 143.515 -1.93533 -0.160787 0
M  V30 1495 C 140.645 -3.47061 0.128856 0
M  V30 1496 C 139.599 -4.14363 1.07178 0
M  V30 1497 C 138.925 -5.33636 0.337229 0
M  V30 1498 C 140.225 -4.63492 2.40775 0
M  V30 1499 H 141.919 -2.51724 1.62097 0
M  V30 1500 H 139.465 -1.20991 0.780838 0
M  V30 1501 H 141.418 -4.21199 -0.130147 0
M  V30 1502 H 140.142 -3.16617 -0.80134 0
M  V30 1503 H 138.801 -3.42173 1.3158 0
M  V30 1504 H 138.449 -4.99449 -0.596606 0
M  V30 1505 H 138.149 -5.79609 0.965788 0
M  V30 1506 H 139.673 -6.10539 0.0861567 0
M  V30 1507 H 141.087 -5.2913 2.20669 0
M  V30 1508 H 139.484 -5.20148 2.99276 0
M  V30 1509 H 140.554 -3.78834 3.02676 0
M  V30 1510 N 141.898 -0.863906 -1.31812 0
M  V30 1511 C 142.861 -0.320212 -2.26952 0
M  V30 1512 C 143.861 0.525369 -1.51975 0
M  V30 1513 O 145.051 0.335547 -1.70938 0
M  V30 1514 C 142.183 0.545919 -3.365 0
M  V30 1515 H 143.376 -1.16004 -2.76556 0
M  V30 1516 H 140.929 -0.638995 -1.42641 0
M  V30 1517 H 141.664 1.40718 -2.92179 0
M  V30 1518 H 141.449 -0.0594674 -3.92055 0
M  V30 1519 H 142.939 0.918796 -4.07367 0
M  V30 1520 N 143.376 1.44774 -0.622745 0
M  V30 1521 C 144.604 2.06487 -0.130722 0
M  V30 1522 C 145.019 1.46476 1.19123 0
M  V30 1523 O 144.376 0.584502 1.72887 0
M  V30 1524 C 144.427 3.615 -0.000807207 0
M  V30 1525 O 144.148 4.19274 -1.27048 0
M  V30 1526 C 145.649 4.40229 0.520898 0
M  V30 1527 H 142.869 0.666704 -0.0758106 0
M  V30 1528 H 145.413 1.85779 -0.854774 0
M  V30 1529 H 143.568 3.81498 0.673643 0
M  V30 1530 H 143.982 5.12622 -1.1099 0
M  V30 1531 H 145.456 5.49144 0.560838 0
M  V30 1532 H 145.933 4.1108 1.54627 0
M  V30 1533 H 146.539 4.25131 -0.120018 0
M  V30 1534 N 144.854 0.36279 1.53368 0
M  V30 1535 C 146.103 -0.22888 2.00397 0
M  V30 1536 C 146.416 -1.50096 1.25421 0
M  V30 1537 O 147.622 -2.17106 1.63025 0
M  V30 1538 C 146.078 -0.458417 3.56969 0
M  V30 1539 C 145.686 0.798877 4.4082 0
M  V30 1540 C 147.43 -1.00789 4.12361 0
M  V30 1541 C 145.337 0.539078 5.88938 0
M  V30 1542 H 144.267 -0.089305 0.748693 0
M  V30 1543 H 146.918 0.481099 1.77081 0
M  V30 1544 H 145.3 -1.22959 3.76427 0
M  V30 1545 H 146.474 1.57262 4.33134 0
M  V30 1546 H 144.789 1.27137 3.96516 0
M  V30 1547 H 147.386 -1.21754 5.20653 0
M  V30 1548 H 147.729 -1.9692 3.66781 0
M  V30 1549 H 148.262 -0.296961 3.9669 0
M  V30 1550 H 145.001 1.47064 6.3879 0
M  V30 1551 H 144.521 -0.196222 5.99479 0
M  V30 1552 H 146.2 0.163542 6.46793 0
M  V30 1553 N 146.332 -1.57332 0.0918853 0
M  V30 1554 C 147.581 -1.93412 -0.572249 0
M  V30 1555 C 147.894 -0.975515 -1.69538 0
M  V30 1556 O 149.1 -1.22991 -2.42045 0
M  V30 1557 C 147.556 -3.43648 -1.0693 0
M  V30 1558 C 147.164 -4.47994 0.0239049 0
M  V30 1559 C 148.908 -3.88695 -1.70635 0
M  V30 1560 C 146.815 -5.89381 -0.488319 0
M  V30 1561 H 145.745 -0.721939 -0.217532 0
M  V30 1562 H 148.396 -1.82735 0.167369 0
M  V30 1563 H 146.778 -3.49466 -1.8625 0
M  V30 1564 H 147.952 -4.53815 0.799277 0
M  V30 1565 H 146.267 -4.12536 0.565946 0
M  V30 1566 H 148.864 -4.91725 -2.10025 0
M  V30 1567 H 149.207 -3.27166 -2.57426 0
M  V30 1568 H 149.74 -3.85564 -0.979023 0
M  V30 1569 H 146.479 -6.54602 0.342906 0
M  V30 1570 H 145.999 -5.87037 -1.23077 0
M  V30 1571 H 147.678 -6.39863 -0.958317 0
M  V30 1572 N 147.81 0.181792 -1.56548 0
M  V30 1573 C 148.773 1.20894 -1.94724 0
M  V30 1574 C 149.773 1.37738 -0.829747 0
M  V30 1575 O 150.963 1.35323 -1.09697 0
M  V30 1576 C 148.095 2.57593 -2.23291 0
M  V30 1577 H 149.288 0.882275 -2.86629 0
M  V30 1578 H 146.841 0.423838 -1.50444 0
M  V30 1579 H 147.576 2.95291 -1.34067 0
M  V30 1580 H 147.361 2.46735 -3.04736 0
M  V30 1581 H 148.851 3.31637 -2.53785 0
M  V30 1582 N 149.288 1.51039 0.449983 0
M  V30 1583 C 150.236 1.71995 1.5659 0
M  V30 1584 C 151.23 0.586029 1.5894 0
M  V30 1585 O 152.436 0.76709 1.62837 0
M  V30 1586 H 148.811 0.543233 0.520001 0
M  V30 1587 H 150.782 2.65562 1.36085 0
M  V30 1588 C 149.531 1.8506 2.9436 0
M  V30 1589 H 148.854 2.71712 2.93279 0
M  V30 1590 H 150.294 2.0374 3.71842 0
M  V30 1591 C 148.753 0.607277 3.31382 0
M  V30 1592 O 149.283 -0.243903 4.00959 0
M  V30 1593 N 147.489 0.455073 2.87015 0
M  V30 1594 H 147.036 1.14879 2.30566 0
M  V30 1595 H 146.994 -0.375611 3.12148 0
M  V30 1596 N 150.766 -0.704594 1.40972 0
M  V30 1597 C 152.006 -1.47691 1.41304 0
M  V30 1598 C 152.37 -1.91992 0.0178582 0
M  V30 1599 O 153.571 -2.68599 -0.103996 0
M  V30 1600 C 151.842 -2.66254 2.38419 0
M  V30 1601 S 153.401 -3.55516 2.57204 0
M  V30 1602 H 150.219 -0.504808 0.500689 0
M  V30 1603 H 152.821 -0.822962 1.77335 0
M  V30 1604 H 151.525 -2.31897 3.38603 0
M  V30 1605 H 151.056 -3.3655 2.03711 0
M  V30 1606 H 153.071 -4.61115 1.83268 0
M  V30 1607 N 152.244 -1.26651 -0.937939 0
M  V30 1608 C 153.493 -1.11775 -1.67897 0
M  V30 1609 C 153.806 0.33794 -1.92659 0
M  V30 1610 O 155.012 0.607434 -2.64618 0
M  V30 1611 C 153.468 -1.9523 -3.02346 0
M  V30 1612 C 153.076 -3.45393 -2.8532 0
M  V30 1613 C 154.82 -1.88972 -3.80118 0
M  V30 1614 C 152.727 -4.21083 -4.15263 0
M  V30 1615 H 151.657 -0.414696 -0.629717 0
M  V30 1616 H 154.308 -1.50988 -1.04283 0
M  V30 1617 H 152.69 -1.48853 -3.66959 0
M  V30 1618 H 153.864 -3.99561 -2.29537 0
M  V30 1619 H 152.179 -3.52921 -2.20988 0
M  V30 1620 H 154.776 -2.42805 -4.76392 0
M  V30 1621 H 155.119 -0.86113 -4.07296 0
M  V30 1622 H 155.652 -2.33189 -3.22285 0
M  V30 1623 H 152.391 -5.24425 -3.93267 0
M  V30 1624 H 151.911 -3.71695 -4.70747 0
M  V30 1625 H 153.59 -4.29706 -4.83696 0
M  V30 1626 N 153.722 1.14298 -1.08507 0
M  V30 1627 C 154.968 1.85633 -0.816581 0
M  V30 1628 C 155.301 1.82784 0.656021 0
M  V30 1629 O 154.576 1.25926 1.48233 0
M  V30 1630 C 154.859 3.34223 -1.34041 0
M  V30 1631 C 154.712 3.45639 -2.87843 0
M  V30 1632 C 156.031 4.29356 -0.9665 0
M  V30 1633 H 153.15 0.67402 -0.298104 0
M  V30 1634 H 155.792 1.34214 -1.34487 0
M  V30 1635 H 153.942 3.78144 -0.89104 0
M  V30 1636 H 155.614 3.10498 -3.41158 0
M  V30 1637 H 153.857 2.86817 -3.25451 0
M  V30 1638 H 154.528 4.50089 -3.19569 0
M  V30 1639 H 157.004 3.93457 -1.35391 0
M  V30 1640 H 155.88 5.3178 -1.3602 0
M  V30 1641 H 156.141 4.41919 0.126362 0
M  V30 1642 N 155.201 0.870884 1.31352 0
M  V30 1643 C 156.131 0.343096 2.30966 0
M  V30 1644 C 157.112 -0.566507 1.60389 0
M  V30 1645 O 158.297 -0.483336 1.88089 0
M  V30 1646 C 155.427 -0.455487 3.443 0
M  V30 1647 C 154.381 0.361103 4.26474 0
M  V30 1648 C 153.707 -0.563221 5.31725 0
M  V30 1649 C 155.007 1.59566 4.97329 0
M  V30 1650 H 156.701 1.17548 2.75359 0
M  V30 1651 H 154.247 0.566686 1.32381 0
M  V30 1652 H 156.2 -0.83525 4.13039 0
M  V30 1653 H 154.924 -1.32139 2.98675 0
M  V30 1654 H 153.583 0.722825 3.59403 0
M  V30 1655 H 153.231 -1.42643 4.82351 0
M  V30 1656 H 152.931 -0.0207409 5.87596 0
M  V30 1657 H 154.455 -0.939808 6.03324 0
M  V30 1658 H 155.869 1.28728 5.58661 0
M  V30 1659 H 154.266 2.07728 5.63 0
M  V30 1660 H 155.336 2.34798 4.24262 0
M  V30 1661 N 156.679 -1.44442 0.630414 0
M  V30 1662 C 157.642 -2.29107 -0.0652523 0
M  V30 1663 C 158.642 -1.41002 -0.772995 0
M  V30 1664 O 159.832 -1.62881 -0.617692 0
M  V30 1665 C 156.964 -3.22564 -1.10296 0
M  V30 1666 H 158.157 -2.92103 0.679401 0
M  V30 1667 H 155.71 -1.51343 0.390517 0
M  V30 1668 H 156.445 -2.64416 -1.87762 0
M  V30 1669 H 156.23 -3.87491 -0.59941 0
M  V30 1670 H 157.72 -3.86167 -1.5895 0
M  V30 1671 N 158.157 -0.370918 -1.53173 0
M  V30 1672 C 159.087 0.464847 -2.28826 0
M  V30 1673 C 160.068 1.07936 -1.31468 0
M  V30 1674 O 161.253 1.0956 -1.60344 0
M  V30 1675 C 158.383 1.60196 -3.08147 0
M  V30 1676 C 157.337 1.11443 -4.13237 0
M  V30 1677 C 156.663 2.3422 -4.80672 0
M  V30 1678 C 157.963 0.195384 -5.21934 0
M  V30 1679 H 159.657 -0.166329 -2.98938 0
M  V30 1680 H 157.203 -0.0814359 -1.4377 0
M  V30 1681 H 159.156 2.19332 -3.59822 0
M  V30 1682 H 157.88 2.26045 -2.35735 0
M  V30 1683 H 156.539 0.545727 -3.62515 0
M  V30 1684 H 156.187 2.98537 -4.04827 0
M  V30 1685 H 155.887 2.02269 -5.51689 0
M  V30 1686 H 157.411 2.94032 -5.35143 0
M  V30 1687 H 158.825 0.694375 -5.69079 0
M  V30 1688 H 157.222 -0.0335027 -6.00091 0
M  V30 1689 H 158.292 -0.760961 -4.78892 0
M  V30 1690 N 159.635 1.57281 -0.100228 0
M  V30 1691 C 160.545 2.17833 0.870965 0
M  V30 1692 C 161.561 1.14921 1.30649 0
M  V30 1693 O 162.737 1.47313 1.37335 0
M  V30 1694 C 159.802 2.75085 2.1102 0
M  V30 1695 C 158.863 3.9297 1.72838 0
M  V30 1696 C 158.096 4.47482 2.90854 0
M  V30 1697 O 158.319 4.00922 4.05731 0
M  V30 1698 O 157.253 5.38433 2.69023 0
M  V30 1699 H 161.079 3.0124 0.38575 0
M  V30 1700 H 158.664 1.48881 0.124397 0
M  V30 1701 H 160.546 3.11656 2.83634 0
M  V30 1702 H 159.221 1.94721 2.58584 0
M  V30 1703 H 158.128 3.61201 0.973883 0
M  V30 1704 H 159.461 4.74713 1.30033 0
M  V30 1705 N 161.113 -0.173488 1.56642 0
M  V30 1706 C 162.045 -1.23935 1.92802 0
M  V30 1707 C 163.058 -1.40589 0.820889 0
M  V30 1708 O 164.247 -1.40631 1.09933 0
M  V30 1709 C 161.347 -2.60837 2.16373 0
M  V30 1710 C 160.52 -2.6551 3.47596 0
M  V30 1711 C 159.579 -3.8376 3.60021 0
M  V30 1712 O 158.605 -3.69859 4.32658 0
M  V30 1713 N 159.807 -5.00127 2.94709 0
M  V30 1714 H 162.572 -0.932236 2.84832 0
M  V30 1715 H 160.133 -0.363268 1.57772 0
M  V30 1716 H 162.125 -3.38407 2.21952 0
M  V30 1717 H 160.695 -2.83948 1.30738 0
M  V30 1718 H 159.915 -1.74052 3.53694 0
M  V30 1719 H 161.203 -2.65641 4.33949 0
M  V30 1720 H 160.601 -5.14322 2.35563 0
M  V30 1721 H 159.158 -5.75567 3.05886 0
M  V30 1722 N 162.591 -1.51276 -0.441967 0
M  V30 1723 C 163.541 -1.6864 -1.53442 0
M  V30 1724 C 164.525 -0.540444 -1.51552 0
M  V30 1725 O 165.717 -0.796157 -1.58083 0
M  V30 1726 C 162.846 -1.8106 -2.91672 0
M  V30 1727 C 161.932 -3.01424 -2.98336 0
M  V30 1728 N 162.323 -4.2467 -2.74752 0
M  V30 1729 C 160.621 -3.00584 -3.29493 0
M  V30 1730 C 161.322 -5.05891 -2.87139 0
M  V30 1731 N 160.298 -4.40442 -3.18609 0
M  V30 1732 H 164.1 -2.61598 -1.33954 0
M  V30 1733 H 161.614 -1.4886 -0.6492 0
M  V30 1734 H 163.611 -1.91609 -3.70259 0
M  V30 1735 H 162.271 -0.892795 -3.12185 0
M  V30 1736 H 163.282 -4.53691 -2.49769 0
M  V30 1737 H 159.959 -2.18417 -3.55809 0
M  V30 1738 H 161.349 -6.13983 -2.72899 0
M  V30 1739 N 164.069 0.697108 -1.41344 0
M  V30 1740 C 164.999 1.82353 -1.45841 0
M  V30 1741 C 165.98 1.67115 -0.317247 0
M  V30 1742 O 167.165 1.86871 -0.528474 0
M  V30 1743 C 164.295 3.20476 -1.33838 0
M  V30 1744 C 163.249 3.50415 -2.4575 0
M  V30 1745 C 162.575 4.87878 -2.18813 0
M  V30 1746 C 163.875 3.49546 -3.88091 0
M  V30 1747 H 165.569 1.78846 -2.40113 0
M  V30 1748 H 163.115 0.859028 -1.15571 0
M  V30 1749 H 165.068 3.98988 -1.35596 0
M  V30 1750 H 163.792 3.24604 -0.360498 0
M  V30 1751 H 162.451 2.74253 -2.43271 0
M  V30 1752 H 162.099 4.8863 -1.19371 0
M  V30 1753 H 161.799 5.08875 -2.93803 0
M  V30 1754 H 163.323 5.68702 -2.22284 0
M  V30 1755 H 164.737 4.18066 -3.92293 0
M  V30 1756 H 163.134 3.82075 -4.62751 0
M  V30 1757 H 164.204 2.48552 -4.16353 0
M  V30 1758 N 165.547 1.27147 0.931209 0
M  V30 1759 C 166.958 1.12044 1.49342 0
M  V30 1760 C 167.309 -0.295795 1.93957 0
M  V30 1761 O 166.434 -1.18835 1.80852 0
M  V30 1762 C 167.029 2.02781 2.71414 0
M  V30 1763 C 165.588 1.91794 3.2387 0
M  V30 1764 C 164.735 1.95543 1.96617 0
M  V30 1765 H 167.686 1.40091 0.745672 0
M  V30 1766 H 167.707 1.58156 3.46074 0
M  V30 1767 H 167.219 3.05848 2.38911 0
M  V30 1768 H 165.32 0.916992 3.6114 0
M  V30 1769 H 165.433 2.77852 3.90302 0
M  V30 1770 H 163.797 1.39722 2.12955 0
M  V30 1771 H 164.58 3.00259 1.66432 0
M  V30 1772 N 167.025 -1.13721 1.09112 0
M  V30 1773 C 167.935 -2.22638 0.73957 0
M  V30 1774 C 168.951 -1.72091 -0.257068 0
M  V30 1775 O 170.127 -2.01155 -0.0992154 0
M  V30 1776 C 167.192 -3.46322 0.16191 0
M  V30 1777 C 166.253 -4.11775 1.21408 0
M  V30 1778 C 165.486 -5.29555 0.663891 0
M  V30 1779 O 165.709 -5.68077 -0.514274 0
M  V30 1780 O 164.643 -5.84973 1.41738 0
M  V30 1781 H 168.469 -2.55074 1.64836 0
M  V30 1782 H 166.054 -1.21791 0.865289 0
M  V30 1783 H 167.936 -4.21107 -0.157073 0
M  V30 1784 H 166.611 -3.15593 -0.719932 0
M  V30 1785 H 165.518 -3.3883 1.58571 0
M  V30 1786 H 166.851 -4.46627 2.06845 0
M  V30 1787 N 168.503 -0.877838 -1.30888 0
M  V30 1788 C 169.78 -0.413052 -1.91189 0
M  V30 1789 C 170.16 1.1056 -1.79832 0
M  V30 1790 O 169.508 1.93771 -1.21099 0
M  V30 1791 C 169.718 -0.903191 -3.3711 0
M  V30 1792 C 171.066 -0.93395 -4.14201 0
M  V30 1793 O 172.09 -0.849373 -3.45925 0
M  V30 1794 O 170.949 -1.05772 -5.36167 0
M  V30 1795 H 168.043 -0.125035 -0.817493 0
M  V30 1796 H 170.589 -0.966269 -1.39504 0
M  V30 1797 H 169.361 -1.94692 -3.39427 0
M  V30 1798 H 168.984 -0.328732 -3.96239 0
M  V30 1799 N 169.982 1.44106 -0.638065 0
M  V30 1800 C 171.259 1.95453 -0.0759321 0
M  V30 1801 C 171.639 1.57984 1.40015 0
M  V30 1802 O 170.987 0.857361 2.11806 0
M  V30 1803 C 171.197 3.47655 -0.306132 0
M  V30 1804 C 172.545 4.24114 -0.203008 0
M  V30 1805 O 173.569 3.55405 -0.237871 0
M  V30 1806 O 172.428 5.46381 -0.113827 0
M  V30 1807 H 169.522 0.826797 0.0183332 0
M  V30 1808 H 172.068 1.54122 -0.710251 0
M  V30 1809 H 170.84 3.68 -1.3301 0
M  V30 1810 H 170.463 3.95949 0.361991 0
M  V30 1811 N 171.46 0.379036 1.52974 0
M  V30 1812 C 172.407 -0.461048 2.26148 0
M  V30 1813 C 173.377 -1.06637 1.27349 0
M  V30 1814 O 174.562 -1.09633 1.56157 0
M  V30 1815 C 171.702 -1.58782 3.06402 0
M  V30 1816 C 170.815 -1.00636 4.20115 0
M  V30 1817 C 169.95 -2.10334 4.87784 0
M  V30 1818 C 168.989 -1.49724 5.93506 0
M  V30 1819 N 168.126 -2.5331 6.54812 0
M  V30 1820 H 172.966 0.169429 2.97518 0
M  V30 1821 H 170.503 0.0953806 1.4679 0
M  V30 1822 H 172.461 -2.25174 3.51215 0
M  V30 1823 H 171.091 -2.18876 2.37261 0
M  V30 1824 H 170.143 -0.232332 3.7969 0
M  V30 1825 H 171.455 -0.523343 4.96047 0
M  V30 1826 H 170.609 -2.84519 5.35849 0
M  V30 1827 H 169.348 -2.61992 4.11353 0
M  V30 1828 H 168.353 -0.740598 5.44789 0
M  V30 1829 H 169.578 -0.988732 6.71864 0
M  V30 1830 H 167.524 -3.04156 5.81227 0
M  V30 1831 H 167.441 -2.09734 7.26325 0
M  V30 1832 H 168.709 -3.27155 7.07524 0
M  V30 1833 N 172.938 -1.57226 0.108567 0
M  V30 1834 C 174.166 -1.99179 -0.559954 0
M  V30 1835 C 174.581 -0.988022 -1.60884 0
M  V30 1836 O 173.938 0.0205512 -1.82488 0
M  V30 1837 C 173.989 -3.41159 -1.19552 0
M  V30 1838 O 173.71 -4.37694 -0.188577 0
M  V30 1839 C 175.211 -3.98188 -1.94837 0
M  V30 1840 H 172.431 -0.654228 -0.149088 0
M  V30 1841 H 174.975 -2.03598 0.19183 0
M  V30 1842 H 173.13 -3.37711 -1.89815 0
M  V30 1843 H 173.544 -5.20469 -0.649014 0
M  V30 1844 H 175.018 -4.99644 -2.34648 0
M  V30 1845 H 175.495 -3.3675 -2.81951 0
M  V30 1846 H 176.101 -4.0515 -1.2936 0
M  V30 1847 N 174.416 0.165178 -1.56732 0
M  V30 1848 C 175.827 0.727046 -1.71962 0
M  V30 1849 C 176.178 1.82508 -0.720078 0
M  V30 1850 O 175.303 2.16082 0.117242 0
M  V30 1851 C 175.898 1.32559 -3.11791 0
M  V30 1852 C 174.457 1.83422 -3.28684 0
M  V30 1853 C 173.604 0.715567 -2.67908 0
M  V30 1854 H 176.555 -0.0602896 -1.58585 0
M  V30 1855 H 176.576 2.19533 -3.10782 0
M  V30 1856 H 176.088 0.526195 -3.84516 0
M  V30 1857 H 174.189 2.65986 -2.60926 0
M  V30 1858 H 174.302 1.97543 -4.36478 0
M  V30 1859 H 172.666 1.13758 -2.27884 0
M  V30 1860 H 173.449 -0.0720836 -3.43224 0
M  V30 1861 N 175.894 1.51508 0.433938 0
M  V30 1862 C 176.827 1.67756 1.54704 0
M  V30 1863 C 177.805 0.525127 1.53887 0
M  V30 1864 O 178.989 0.749393 1.72963 0
M  V30 1865 C 176.116 1.69424 2.9328 0
M  V30 1866 C 175.162 2.90673 3.12108 0
M  V30 1867 S 175.995 4.51431 2.88046 0
M  V30 1868 C 177.151 4.55849 4.28897 0
M  V30 1869 H 177.384 2.61904 1.40689 0
M  V30 1870 H 174.917 1.41235 0.62386 0
M  V30 1871 H 176.875 1.7107 3.73156 0
M  V30 1872 H 175.536 0.764464 3.04655 0
M  V30 1873 H 174.729 2.88251 4.13434 0
M  V30 1874 H 174.331 2.86786 2.40062 0
M  V30 1875 H 176.623 4.31699 5.22152 0
M  V30 1876 H 177.566 5.57676 4.36351 0
M  V30 1877 H 177.974 3.85137 4.12711 0
M  V30 1878 N 177.372 -0.689602 1.41712 0
M  V30 1879 C 178.597 -1.48329 1.44959 0
M  V30 1880 C 179.022 -1.8801 0.0581283 0
M  V30 1881 O 178.38 -1.55026 -0.940035 0
M  V30 1882 C 178.428 -2.71835 2.36935 0
M  V30 1883 O 177.532 -3.69549 1.8305 0
M  V30 1884 H 176.873 -0.446199 0.491734 0
M  V30 1885 H 179.403 -0.847127 1.86239 0
M  V30 1886 H 179.413 -3.20076 2.53013 0
M  V30 1887 H 178.088 -2.42291 3.38035 0
M  V30 1888 H 176.665 -3.2851 1.76452 0
M  V30 1889 N 178.85 -1.27639 -0.924453 0
M  V30 1890 C 180.266 -1.05113 -1.20097 0
M  V30 1891 C 180.466 0.213262 -2.00368 0
M  V30 1892 O 179.522 0.91787 -2.35226 0
M  V30 1893 C 180.835 -2.29244 -1.94596 0
M  V30 1894 C 182.383 -2.34315 -2.07522 0
M  V30 1895 C 182.858 -3.58183 -2.85427 0
M  V30 1896 N 184.349 -3.5876 -2.92994 0
M  V30 1897 C 185.084 -4.51277 -3.53746 0
M  V30 1898 N 184.58 -5.54102 -4.15863 0
M  V30 1899 N 186.373 -4.38894 -3.51181 0
M  V30 1900 H 178.524 -2.08821 -0.388264 0
M  V30 1901 H 180.787 -0.918568 -0.234385 0
M  V30 1902 H 180.493 -3.21301 -1.43034 0
M  V30 1903 H 180.367 -2.34816 -2.95197 0
M  V30 1904 H 182.754 -1.42762 -2.58269 0
M  V30 1905 H 182.835 -2.32744 -1.06131 0
M  V30 1906 H 182.479 -4.50074 -2.35363 0
M  V30 1907 H 182.409 -3.57006 -3.8711 0
M  V30 1908 H 184.9 -2.84398 -2.4885 0
M  V30 1909 H 185.213 -6.20859 -4.60168 0
M  V30 1910 H 183.558 -5.57941 -4.144 0
M  V30 1911 H 186.749 -3.57772 -3.01856 0
M  V30 1912 H 186.922 -5.11186 -3.98237 0
M  V30 1913 N 180.328 1.1314 -1.09713 0
M  V30 1914 C 181.744 1.36477 -0.827423 0
M  V30 1915 C 181.944 1.93654 0.556817 0
M  V30 1916 O 181 2.15791 1.31112 0
M  V30 1917 C 182.313 2.31334 -1.92106 0
M  V30 1918 C 183.861 2.44943 -1.94864 0
M  V30 1919 C 184.336 3.4311 -3.0338 0
M  V30 1920 N 185.827 3.50662 -3.02639 0
M  V30 1921 C 186.562 4.2651 -3.83246 0
M  V30 1922 N 186.058 5.05485 -4.73768 0
M  V30 1923 N 187.851 4.2184 -3.71493 0
M  V30 1924 H 180.002 0.743807 -1.9895 0
M  V30 1925 H 182.265 0.389823 -0.864143 0
M  V30 1926 H 181.971 1.96483 -2.91698 0
M  V30 1927 H 181.845 3.31381 -1.80184 0
M  V30 1928 H 184.232 2.79079 -0.959099 0
M  V30 1929 H 184.313 1.4481 -2.10864 0
M  V30 1930 H 183.957 3.09704 -4.02549 0
M  V30 1931 H 183.887 4.43055 -2.84622 0
M  V30 1932 H 186.378 2.94315 -2.37039 0
M  V30 1933 H 186.691 5.60675 -5.3185 0
M  V30 1934 H 185.036 5.04708 -4.77802 0
M  V30 1935 H 188.227 3.5922 -3.00131 0
M  V30 1936 H 188.4 4.80697 -4.3455 0
M  V30 1937 N 181.806 0.884767 1.30421 0
M  V30 1938 C 182.736 0.367574 2.30589 0
M  V30 1939 C 183.717 -0.549464 1.60981 0
M  V30 1940 O 184.902 -0.46336 1.88591 0
M  V30 1941 C 182.032 -0.418944 3.44764 0
M  V30 1942 C 180.986 0.406316 4.26067 0
M  V30 1943 C 180.312 -0.506793 5.32293 0
M  V30 1944 C 181.612 1.64832 4.95608 0
M  V30 1945 H 183.306 1.20462 2.74097 0
M  V30 1946 H 180.852 0.580695 1.31772 0
M  V30 1947 H 182.805 -0.791395 4.13902 0
M  V30 1948 H 181.529 -1.28964 3.0006 0
M  V30 1949 H 180.188 0.760903 3.58617 0
M  V30 1950 H 179.836 -1.37519 4.83836 0
M  V30 1951 H 179.536 0.0415828 5.87585 0
M  V30 1952 H 181.06 -0.875764 6.04287 0
M  V30 1953 H 182.474 1.34646 5.57264 0
M  V30 1954 H 180.871 2.13688 5.60765 0
M  V30 1955 H 181.941 2.39284 4.21748 0
M  V30 1956 N 183.284 -1.43765 0.645699 0
M  V30 1957 C 184.194 -2.34544 -0.0512957 0
M  V30 1958 C 185.21 -1.53455 -0.82022 0
M  V30 1959 O 186.386 -1.86133 -0.769176 0
M  V30 1960 C 183.451 -3.31636 -1.01087 0
M  V30 1961 C 182.512 -4.2863 -0.239712 0
M  V30 1962 C 181.745 -5.21084 -1.15358 0
M  V30 1963 O 181.968 -5.1779 -2.39269 0
M  V30 1964 O 180.902 -5.98593 -0.630038 0
M  V30 1965 H 184.728 -2.95624 0.695718 0
M  V30 1966 H 182.313 -1.43781 0.405882 0
M  V30 1967 H 184.195 -3.9136 -1.56254 0
M  V30 1968 H 182.87 -2.73069 -1.73824 0
M  V30 1969 H 181.777 -3.72408 0.355356 0
M  V30 1970 H 183.11 -4.90157 0.447936 0
M  V30 1971 N 184.763 -0.387143 -1.52771 0
M  V30 1972 C 185.71 0.449048 -2.26389 0
M  V30 1973 C 186.68 1.05961 -1.27912 0
M  V30 1974 O 187.865 1.08804 -1.56737 0
M  V30 1975 C 185.005 1.57155 -3.0724 0
M  V30 1976 C 184.118 0.984066 -4.20643 0
M  V30 1977 C 183.253 2.07745 -4.88892 0
M  V30 1978 C 182.292 1.46574 -5.94292 0
M  V30 1979 N 181.429 2.49834 -6.56146 0
M  V30 1980 H 186.269 -0.185205 -2.97424 0
M  V30 1981 H 183.806 -0.103164 -1.46738 0
M  V30 1982 H 185.764 2.23309 -3.52405 0
M  V30 1983 H 184.394 2.17615 -2.38419 0
M  V30 1984 H 183.446 0.212193 -3.79808 0
M  V30 1985 H 184.758 0.497029 -4.96318 0
M  V30 1986 H 183.912 2.81673 -5.3735 0
M  V30 1987 H 182.651 2.59807 -4.12737 0
M  V30 1988 H 181.656 0.711696 -5.45174 0
M  V30 1989 H 182.881 0.953088 -6.72379 0
M  V30 1990 H 180.827 3.0107 -5.82832 0
M  V30 1991 H 180.744 2.05879 -7.27427 0
M  V30 1992 H 182.012 3.23399 -7.09249 0
M  V30 1993 N 186.241 1.57166 -0.116904 0
M  V30 1994 C 187.469 1.99473 0.549383 0
M  V30 1995 C 187.884 0.996541 1.60357 0
M  V30 1996 O 187.241 -0.0108731 1.82497 0
M  V30 1997 C 187.292 3.41788 1.17741 0
M  V30 1998 O 187.013 4.37788 0.165362 0
M  V30 1999 C 188.514 3.99216 1.92722 0
M  V30 2000 H 185.734 0.655009 0.145616 0
M  V30 2001 H 188.278 2.03494 -0.202625 0
M  V30 2002 H 186.433 3.38713 1.88021 0
M  V30 2003 H 186.847 5.20806 0.621403 0
M  V30 2004 H 188.321 5.00882 2.31995 0
M  V30 2005 H 188.798 3.3824 2.80161 0
M  V30 2006 H 189.404 4.0583 1.27209 0
M  V30 2007 N 187.719 -0.156864 1.56817 0
M  V30 2008 C 188.629 -1.2136 2.00771 0
M  V30 2009 C 189.645 -1.47598 0.921459 0
M  V30 2010 O 190.821 -1.59462 1.2302 0
M  V30 2011 C 187.886 -2.52943 2.37109 0
M  V30 2012 C 186.947 -2.34439 3.59634 0
M  V30 2013 C 186.18 -3.59748 3.94229 0
M  V30 2014 O 186.403 -4.65526 3.29609 0
M  V30 2015 O 185.337 -3.52998 4.8752 0
M  V30 2016 H 189.163 -0.870468 2.90958 0
M  V30 2017 H 186.748 -0.36484 1.44877 0
M  V30 2018 H 188.63 -3.30538 2.61386 0
M  V30 2019 H 187.305 -2.86806 1.5008 0
M  V30 2020 H 186.212 -1.54828 3.40557 0
M  V30 2021 H 187.545 -2.05496 4.4725 0
M  V30 2022 N 189.197 -1.51736 -0.425897 0
M  V30 2023 C 190.608 -1.5732 -1.00536 0
M  V30 2024 C 190.959 -0.403537 -1.92005 0
M  V30 2025 O 190.084 0.478256 -2.11049 0
M  V30 2026 C 190.679 -2.85119 -1.8301 0
M  V30 2027 C 189.238 -2.93236 -2.35987 0
M  V30 2028 C 188.385 -2.52098 -1.15508 0
M  V30 2029 H 191.336 -1.57348 -0.206739 0
M  V30 2030 H 191.357 -2.69526 -2.68581 0
M  V30 2031 H 190.869 -3.7023 -1.16411 0
M  V30 2032 H 188.97 -2.12581 -3.06007 0
M  V30 2033 H 189.083 -3.9713 -2.68001 0
M  V30 2034 H 187.447 -2.05558 -1.50393 0
M  V30 2035 H 188.23 -3.39565 -0.505014 0
M  V30 2036 N 190.675 0.682077 -1.42076 0
M  V30 2037 C 191.905 1.46844 -1.45329 0
M  V30 2038 C 192.313 1.89102 -0.0609328 0
M  V30 2039 O 191.656 1.58238 0.933082 0
M  V30 2040 C 191.718 2.75375 -2.31104 0
M  V30 2041 C 191.382 2.55238 -3.79081 0
M  V30 2042 C 192.379 2.20309 -4.70914 0
M  V30 2043 C 190.064 2.70459 -4.2327 0
M  V30 2044 C 192.058 2.00859 -6.04925 0
M  V30 2045 C 189.745 2.50624 -5.57343 0
M  V30 2046 C 190.743 2.15876 -6.47986 0
M  V30 2047 O 190.431 1.96227 -7.79583 0
M  V30 2048 H 190.163 0.4586 -0.496651 0
M  V30 2049 H 192.717 0.846131 -1.87162 0
M  V30 2050 H 190.947 3.40061 -1.84107 0
M  V30 2051 H 192.636 3.37231 -2.25898 0
M  V30 2052 H 193.402 2.08153 -4.38061 0
M  V30 2053 H 189.281 2.96485 -3.53012 0
M  V30 2054 H 192.825 1.7366 -6.75639 0
M  V30 2055 H 188.722 2.62375 -5.89771 0
M  V30 2056 H 189.49 2.10883 -7.90867 0
M  V30 2057 N 192.153 1.28127 0.917671 0
M  V30 2058 C 193.4 1.15052 1.66641 0
M  V30 2059 C 193.728 -0.301677 1.92146 0
M  V30 2060 O 192.983 -1.23622 1.51711 0
M  V30 2061 C 193.282 1.89018 3.03327 0
M  V30 2062 C 192.948 3.38832 2.97496 0
M  V30 2063 C 191.61 3.79693 2.95613 0
M  V30 2064 C 193.962 4.34378 2.88036 0
M  V30 2065 C 191.29 5.14447 2.82066 0
M  V30 2066 C 193.642 5.69201 2.7603 0
M  V30 2067 C 192.306 6.09343 2.72502 0
M  V30 2068 H 191.576 0.421006 0.609783 0
M  V30 2069 H 194.223 1.58855 1.06945 0
M  V30 2070 H 192.528 1.37752 3.66785 0
M  V30 2071 H 194.225 1.76321 3.60156 0
M  V30 2072 H 190.815 3.06342 2.99754 0
M  V30 2073 H 194.999 4.03775 2.88581 0
M  V30 2074 H 190.255 5.44681 2.77728 0
M  V30 2075 H 194.429 6.42901 2.67678 0
M  V30 2076 H 192.056 7.13712 2.61762 0
M  V30 2077 N 193.631 -1.12557 1.10312 0
M  V30 2078 C 194.88 -1.83395 0.839588 0
M  V30 2079 C 195.193 -1.84939 -0.636929 0
M  V30 2080 O 196.399 -2.51761 -1.01631 0
M  V30 2081 C 194.855 -3.29303 1.45215 0
M  V30 2082 C 194.463 -3.36122 2.96186 0
M  V30 2083 C 196.207 -4.05121 1.26796 0
M  V30 2084 C 194.114 -4.76357 3.50483 0
M  V30 2085 H 193.044 -0.687133 0.310425 0
M  V30 2086 H 195.695 -1.26746 1.32694 0
M  V30 2087 H 194.077 -3.85812 0.892469 0
M  V30 2088 H 195.251 -2.89559 3.58458 0
M  V30 2089 H 193.566 -2.73776 3.13745 0
M  V30 2090 H 196.163 -5.08668 1.64806 0
M  V30 2091 H 196.506 -4.15773 0.209409 0
M  V30 2092 H 197.039 -3.54967 1.79563 0
M  V30 2093 H 193.778 -4.70899 4.55998 0
M  V30 2094 H 193.298 -5.23377 2.92978 0
M  V30 2095 H 194.977 -5.45294 3.48228 0
M  V30 2096 N 195.109 -0.891671 -1.2995 0
M  V30 2097 C 196.357 -0.512486 -1.95494 0
M  V30 2098 C 196.678 0.942776 -1.70695 0
M  V30 2099 O 195.948 1.66374 -1.03424 0
M  V30 2100 H 194.528 -0.186533 -0.723336 0
M  V30 2101 H 197.19 -1.13621 -1.58355 0
M  V30 2102 H 196.286 -0.688342 -3.04415 0
M  V30 2103 N 196.587 1.43421 -0.653314 0
M  V30 2104 C 197.836 2.01032 -0.164076 0
M  V30 2105 C 198.149 1.52147 1.22926 0
M  V30 2106 O 199.355 2.02031 1.81371 0
M  V30 2107 C 197.811 3.59082 -0.24252 0
M  V30 2108 C 197.419 4.1696 -1.63855 0
M  V30 2109 C 199.163 4.24079 0.18911 0
M  V30 2110 C 197.07 5.67304 -1.67092 0
M  V30 2111 H 196 0.751798 -0.0575769 0
M  V30 2112 H 198.651 1.6439 -0.815362 0
M  V30 2113 H 197.033 3.93125 0.476276 0
M  V30 2114 H 198.207 3.94416 -2.38271 0
M  V30 2115 H 196.522 3.64335 -2.01616 0
M  V30 2116 H 199.119 5.34381 0.184775 0
M  V30 2117 H 199.462 3.98005 1.22056 0
M  V30 2118 H 199.995 3.94918 -0.477938 0
M  V30 2119 H 196.734 5.98145 -2.68146 0
M  V30 2120 H 196.254 5.91904 -0.970014 0
M  V30 2121 H 197.933 6.31344 -1.4147 0
M  V30 2122 N 198.065 0.39524 1.52563 0
M  V30 2123 C 199.312 -0.185044 2.01653 0
M  V30 2124 C 199.64 -1.46317 1.28146 0
M  V30 2125 O 198.895 -1.9213 0.372074 0
M  V30 2126 C 199.194 -0.493444 3.53977 0
M  V30 2127 C 198.86 0.69384 4.4553 0
M  V30 2128 C 197.522 1.01954 4.70275 0
M  V30 2129 C 199.874 1.48785 4.99512 0
M  V30 2130 C 197.202 2.14069 5.46252 0
M  V30 2131 C 199.554 2.59965 5.76716 0
M  V30 2132 C 198.218 2.93037 5.99738 0
M  V30 2133 H 197.488 -0.0677123 0.7379 0
M  V30 2134 H 200.135 0.533807 1.8391 0
M  V30 2135 H 198.44 -1.29369 3.69825 0
M  V30 2136 H 200.137 -0.955163 3.89458 0
M  V30 2137 H 196.727 0.429987 4.26438 0
M  V30 2138 H 200.911 1.24946 4.80315 0
M  V30 2139 H 196.167 2.40056 5.62302 0
M  V30 2140 H 200.341 3.21887 6.17545 0
M  V30 2141 H 197.968 3.8003 6.58393 0
M  V30 2142 N 199.544 -1.57102 0.125237 0
M  V30 2143 C 200.784 -1.97294 -0.534259 0
M  V30 2144 C 201.148 -1.0074 -1.63449 0
M  V30 2145 O 202.349 -1.29893 -2.35332 0
M  V30 2146 C 200.62 -3.41705 -1.04748 0
M  V30 2147 S 202.179 -4.03913 -1.71463 0
M  V30 2148 H 198.997 -0.689517 -0.173458 0
M  V30 2149 H 201.599 -1.94349 0.211797 0
M  V30 2150 H 200.303 -4.09723 -0.235649 0
M  V30 2151 H 199.834 -3.48315 -1.82867 0
M  V30 2152 H 201.849 -3.95182 -3.00077 0
M  V30 2153 N 201.022 0.148545 -1.56898 0
M  V30 2154 C 202.269 0.861418 -1.83264 0
M  V30 2155 C 202.597 1.81239 -0.705883 0
M  V30 2156 O 201.852 1.93305 0.305212 0
M  V30 2157 C 202.151 1.67064 -3.1595 0
M  V30 2158 C 201.817 0.866591 -4.42494 0
M  V30 2159 C 200.479 0.644762 -4.76861 0
M  V30 2160 C 202.831 0.30418 -5.20312 0
M  V30 2161 C 200.159 -0.15021 -5.86508 0
M  V30 2162 C 202.511 -0.477824 -6.30793 0
M  V30 2163 C 201.175 -0.710244 -6.63711 0
M  V30 2164 H 200.445 0.315215 -0.670612 0
M  V30 2165 H 203.092 0.125142 -1.91091 0
M  V30 2166 H 201.397 2.47698 -3.03567 0
M  V30 2167 H 203.094 2.22566 -3.33565 0
M  V30 2168 H 199.684 1.04955 -4.15551 0
M  V30 2169 H 203.868 0.462844 -4.94137 0
M  V30 2170 H 199.124 -0.339796 -6.10455 0
M  V30 2171 H 203.298 -0.92076 -6.90286 0
M  V30 2172 H 200.925 -1.3281 -7.48509 0
M  V30 2173 N 202.5 1.5196 0.417844 0
M  V30 2174 C 203.41 1.77554 1.53336 0
M  V30 2175 C 204.426 0.660655 1.6097 0
M  V30 2176 O 205.602 0.945099 1.77848 0
M  V30 2177 C 202.667 1.91291 2.89152 0
M  V30 2178 C 201.728 3.15183 2.91475 0
M  V30 2179 C 200.961 3.28256 4.20813 0
M  V30 2180 O 201.184 2.46798 5.14244 0
M  V30 2181 O 200.118 4.21356 4.29817 0
M  V30 2182 H 203.944 2.7222 1.34647 0
M  V30 2183 H 201.529 1.36698 0.602828 0
M  V30 2184 H 203.411 2.02199 3.69721 0
M  V30 2185 H 202.086 0.998129 3.07927 0
M  V30 2186 H 200.993 3.09739 2.09791 0
M  V30 2187 H 202.326 4.06414 2.77648 0
M  V30 2188 N 203.978 -0.674533 1.42435 0
M  V30 2189 C 204.941 -1.76986 1.45632 0
M  V30 2190 C 205.941 -1.5708 0.343871 0
M  V30 2191 O 207.131 -1.63367 0.604709 0
M  V30 2192 C 204.263 -3.15623 1.28822 0
M  V30 2193 H 205.456 -1.75539 2.43158 0
M  V30 2194 H 203.009 -0.884189 1.28887 0
M  V30 2195 H 203.744 -3.22696 0.322193 0
M  V30 2196 H 203.529 -3.31475 2.09444 0
M  V30 2197 H 205.019 -3.95537 1.33942 0
M  V30 2198 N 205.456 -1.28612 -0.910864 0
M  V30 2199 C 206.704 -1.15705 -1.65701 0
M  V30 2200 C 207.025 0.29416 -1.92769 0
M  V30 2201 O 206.295 1.20331 -1.54588 0
M  V30 2202 H 204.875 -0.425216 -0.614167 0
M  V30 2203 H 207.537 -1.61381 -1.0928 0
M  V30 2204 H 206.633 -1.6988 -2.61815 0
M  V30 2205 N 206.934 1.1197 -1.10907 0
M  V30 2206 C 208.183 1.82947 -0.849302 0
M  V30 2207 C 208.496 1.85275 0.627112 0
M  V30 2208 O 209.702 2.52296 1.00295 0
M  V30 2209 C 208.158 3.28529 -1.46959 0
M  V30 2210 C 207.766 3.34546 -2.97965 0
M  V30 2211 C 209.51 4.04443 -1.28942 0
M  V30 2212 C 207.417 4.74491 -3.53004 0
M  V30 2213 H 206.347 0.685477 -0.314065 0
M  V30 2214 H 208.998 1.2604 -1.33365 0
M  V30 2215 H 207.38 3.85333 -0.912917 0
M  V30 2216 H 208.554 2.87654 -3.59989 0
M  V30 2217 H 206.869 2.72108 -3.15192 0
M  V30 2218 H 209.466 5.07787 -1.67502 0
M  V30 2219 H 209.809 4.15656 -0.231456 0
M  V30 2220 H 210.342 3.5401 -1.81443 0
M  V30 2221 H 207.081 4.68474 -4.58489 0
M  V30 2222 H 206.601 5.21816 -2.9575 0
M  V30 2223 H 208.28 5.4344 -3.51115 0
M  V30 2224 N 208.412 0.89855 1.29475 0
M  V30 2225 C 209.359 0.373819 2.27753 0
M  V30 2226 C 210.329 -0.543444 1.56958 0
M  V30 2227 O 211.514 -0.468934 1.84948 0
M  V30 2228 C 208.654 -0.393648 3.42848 0
M  V30 2229 C 207.767 0.554379 4.28428 0
M  V30 2230 C 206.902 -0.230026 5.30702 0
M  V30 2231 C 205.941 0.712599 6.07938 0
M  V30 2232 N 205.078 -0.0373283 7.0209 0
M  V30 2233 H 209.918 1.21699 2.72017 0
M  V30 2234 H 207.455 0.611456 1.33789 0
M  V30 2235 H 209.413 -0.85466 4.08352 0
M  V30 2236 H 208.043 -1.20128 2.99615 0
M  V30 2237 H 207.095 1.13391 3.63107 0
M  V30 2238 H 208.407 1.27597 4.82204 0
M  V30 2239 H 207.561 -0.752288 6.02018 0
M  V30 2240 H 206.3 -0.984758 4.77654 0
M  V30 2241 H 205.305 1.24637 5.35486 0
M  V30 2242 H 206.53 1.46664 6.63074 0
M  V30 2243 H 204.476 -0.774348 6.51414 0
M  V30 2244 H 204.393 0.624374 7.53417 0
M  V30 2245 H 205.661 -0.539891 7.77628 0
M  V30 2246 N 209.89 -1.43072 0.660911 0
M  V30 2247 C 211.139 -2.00942 0.174735 0
M  V30 2248 C 211.452 -1.52797 -1.22117 0
M  V30 2249 O 212.658 -2.02991 -1.80297 0
M  V30 2250 C 211.114 -3.58948 0.261559 0
M  V30 2251 C 210.722 -4.16085 1.66064 0
M  V30 2252 C 212.466 -4.24173 -0.166617 0
M  V30 2253 C 210.373 -5.6641 1.70098 0
M  V30 2254 H 209.303 -0.751483 0.0615631 0
M  V30 2255 H 211.954 -1.63955 0.824069 0
M  V30 2256 H 210.336 -3.93372 -0.455421 0
M  V30 2257 H 211.51 -3.93147 2.40359 0
M  V30 2258 H 209.825 -3.6326 2.03546 0
M  V30 2259 H 212.422 -5.34471 -0.156433 0
M  V30 2260 H 212.765 -3.98647 -1.19943 0
M  V30 2261 H 213.298 -3.94659 0.498875 0
M  V30 2262 H 210.037 -5.96715 2.71315 0
M  V30 2263 H 209.557 -5.91382 1.00139 0
M  V30 2264 H 211.236 -6.30585 1.44816 0
M  V30 2265 N 211.368 -0.403325 -1.52352 0
M  V30 2266 C 212.614 0.174605 -2.02047 0
M  V30 2267 C 212.947 1.45282 -1.28867 0
M  V30 2268 O 212.222 1.90483 -0.393257 0
M  V30 2269 C 212.505 0.428238 -3.57545 0
M  V30 2270 C 212.358 -0.866248 -4.4138 0
M  V30 2271 C 213.677 1.21287 -4.23057 0
M  V30 2272 H 210.796 0.0619851 -0.734389 0
M  V30 2273 H 213.438 -0.53565 -1.82293 0
M  V30 2274 H 211.588 1.03327 -3.74507 0
M  V30 2275 H 213.26 -1.50265 -4.3614 0
M  V30 2276 H 211.503 -1.47851 -4.07827 0
M  V30 2277 H 212.174 -0.643249 -5.48239 0
M  V30 2278 H 214.65 0.700703 -4.10158 0
M  V30 2279 H 213.526 1.35909 -5.31808 0
M  V30 2280 H 213.787 2.23193 -3.81625 0
M  V30 2281 N 212.846 1.57033 -0.133567 0
M  V30 2282 C 213.809 2.14897 0.796995 0
M  V30 2283 C 214.809 1.0874 1.18458 0
M  V30 2284 O 215.999 1.34446 1.1077 0
M  V30 2285 C 213.131 2.70112 2.07973 0
M  V30 2286 H 214.324 2.98457 0.293873 0
M  V30 2287 H 211.877 1.55871 0.115787 0
M  V30 2288 H 212.612 1.9018 2.62682 0
M  V30 2289 H 212.397 3.47764 1.81115 0
M  V30 2290 H 213.887 3.14738 2.74462 0
M  V30 2291 N 214.325 -0.140222 1.56975 0
M  V30 2292 C 215.255 -1.17456 2.01808 0
M  V30 2293 C 216.236 -1.44415 0.898794 0
M  V30 2294 O 217.421 -1.5522 1.16707 0
M  V30 2295 C 214.551 -2.50607 2.40444 0
M  V30 2296 C 213.505 -2.38155 3.55621 0
M  V30 2297 C 212.831 -3.76078 3.80091 0
M  V30 2298 C 214.131 -1.85991 4.88062 0
M  V30 2299 H 215.825 -0.801743 2.88466 0
M  V30 2300 H 213.371 -0.38422 1.38779 0
M  V30 2301 H 215.324 -3.23197 2.7041 0
M  V30 2302 H 214.048 -2.89737 1.50732 0
M  V30 2303 H 212.707 -1.68016 3.25832 0
M  V30 2304 H 212.355 -4.12656 2.87618 0
M  V30 2305 H 212.055 -3.68606 4.57606 0
M  V30 2306 H 213.579 -4.50206 4.12488 0
M  V30 2307 H 214.993 -2.4838 5.16701 0
M  V30 2308 H 213.39 -1.89393 5.6943 0
M  V30 2309 H 214.46 -0.816023 4.77984 0
M  V30 2310 N 215.803 -1.52179 -0.40978 0
M  V30 2311 C 217.051 -1.65878 -1.15451 0
M  V30 2312 C 217.372 -0.390771 -1.91044 0
M  V30 2313 O 216.642 0.594323 -1.86667 0
M  V30 2314 H 215.222 -0.611405 -0.429177 0
M  V30 2315 H 217.884 -1.89219 -0.467134 0
M  V30 2316 H 216.98 -2.49954 -1.86894 0
M  V30 2317 N 217.281 0.66697 -1.42791 0
M  V30 2318 C 218.528 1.42699 -1.43678 0
M  V30 2319 C 218.856 1.94419 -0.0560425 0
M  V30 2320 O 218.111 1.7182 0.936831 0
M  V30 2321 C 218.41 2.6349 -2.4147 0
M  V30 2322 C 218.076 2.30267 -3.8767 0
M  V30 2323 C 216.738 2.20918 -4.27491 0
M  V30 2324 C 219.09 2.03435 -4.79858 0
M  V30 2325 C 216.418 1.82873 -5.57471 0
M  V30 2326 C 218.77 1.66892 -6.10188 0
M  V30 2327 C 217.434 1.56058 -6.49001 0
M  V30 2328 H 216.704 0.522171 -0.525755 0
M  V30 2329 H 219.351 0.759785 -1.75783 0
M  V30 2330 H 217.656 3.35279 -2.0272 0
M  V30 2331 H 219.353 3.21684 -2.39417 0
M  V30 2332 H 215.943 2.38449 -3.56146 0
M  V30 2333 H 220.127 2.09586 -4.49875 0
M  V30 2334 H 215.383 1.7306 -5.86396 0
M  V30 2335 H 219.557 1.45157 -6.81104 0
M  V30 2336 H 217.184 1.26348 -7.49627 0
M  V30 2337 N 218.759 1.29093 0.90403 0
M  V30 2338 C 220.008 1.16187 1.64874 0
M  V30 2339 C 220.321 -0.286742 1.93487 0
M  V30 2340 O 221.527 -0.537062 2.66135 0
M  V30 2341 C 219.983 2.03177 2.97064 0
M  V30 2342 C 219.591 3.52836 2.76062 0
M  V30 2343 C 221.335 1.98984 3.74974 0
M  V30 2344 C 219.242 4.31945 4.03952 0
M  V30 2345 H 218.172 0.431246 0.618501 0
M  V30 2346 H 220.823 1.53699 1.00243 0
M  V30 2347 H 219.205 1.5853 3.62883 0
M  V30 2348 H 220.379 4.05507 2.18863 0
M  V30 2349 H 218.694 3.58656 2.11553 0
M  V30 2350 H 221.291 2.55351 4.69787 0
M  V30 2351 H 221.634 0.968815 4.0487 0
M  V30 2352 H 222.167 2.41652 3.15989 0
M  V30 2353 H 218.906 5.34667 3.79225 0
M  V30 2354 H 218.426 3.84045 4.60727 0
M  V30 2355 H 220.105 4.42379 4.72133 0
M  V30 2356 N 220.237 -1.11381 1.11499 0
M  V30 2357 C 221.484 -1.83132 0.864231 0
M  V30 2358 C 221.812 -1.84683 -0.610114 0
M  V30 2359 O 221.067 -1.29589 -1.46646 0
M  V30 2360 C 221.366 -3.30026 1.37177 0
M  V30 2361 C 221.032 -3.48634 2.85946 0
M  V30 2362 C 219.694 -3.53421 3.26569 0
M  V30 2363 C 222.046 -3.54837 3.81759 0
M  V30 2364 C 219.374 -3.61967 4.61733 0
M  V30 2365 C 221.726 -3.64915 5.1674 0
M  V30 2366 C 220.39 -3.67962 5.5692 0
M  V30 2367 H 219.66 -0.670127 0.316245 0
M  V30 2368 H 222.307 -1.31354 1.3935 0
M  V30 2369 H 220.612 -3.84304 0.762753 0
M  V30 2370 H 222.309 -3.84034 1.15408 0
M  V30 2371 H 218.899 -3.45579 2.53521 0
M  V30 2372 H 223.083 -3.50399 3.51474 0
M  V30 2373 H 218.339 -3.62603 4.92269 0
M  V30 2374 H 222.513 -3.68658 5.90816 0
M  V30 2375 H 220.14 -3.74336 6.61647 0
M  V30 2376 N 221.715 -0.905404 -1.28997 0
M  V30 2377 C 222.665 -0.358713 -2.25161 0
M  V30 2378 C 223.649 0.524449 -1.52113 0
M  V30 2379 O 224.841 0.365534 -1.73184 0
M  V30 2380 C 221.97 0.407609 -3.40872 0
M  V30 2381 C 221.056 -0.490797 -4.21251 0
M  V30 2382 N 221.447 -1.60061 -4.79806 0
M  V30 2383 C 219.745 -0.289636 -4.45059 0
M  V30 2384 C 220.446 -2.15757 -5.40207 0
M  V30 2385 N 219.422 -1.44988 -5.23908 0
M  V30 2386 H 223.224 -1.20642 -2.67998 0
M  V30 2387 H 220.738 -0.757103 -1.43672 0
M  V30 2388 H 222.735 0.816046 -4.08835 0
M  V30 2389 H 221.395 1.25251 -2.9957 0
M  V30 2390 H 222.406 -1.98329 -4.7842 0
M  V30 2391 H 219.083 0.51643 -4.14294 0
M  V30 2392 H 220.473 -3.09069 -5.96595 0
M  V30 2393 N 223.193 1.4272 -0.668489 0
M  V30 2394 C 224.14 2.30796 0.0137489 0
M  V30 2395 C 225.11 1.4561 0.799177 0
M  V30 2396 O 226.295 1.74453 0.772702 0
M  V30 2397 C 223.435 3.31377 0.963507 0
M  V30 2398 C 222.548 4.31655 0.172569 0
M  V30 2399 C 221.683 5.19312 1.1175 0
M  V30 2400 C 220.722 6.11274 0.317886 0
M  V30 2401 N 219.859 6.91504 1.2152 0
M  V30 2402 H 224.699 2.88585 -0.743161 0
M  V30 2403 H 222.236 1.42154 -0.378226 0
M  V30 2404 H 224.194 3.88214 1.52792 0
M  V30 2405 H 222.824 2.75202 1.68712 0
M  V30 2406 H 221.876 3.76988 -0.508374 0
M  V30 2407 H 223.188 4.96779 -0.448527 0
M  V30 2408 H 222.342 5.80851 1.75206 0
M  V30 2409 H 221.081 4.5435 1.77249 0
M  V30 2410 H 220.086 5.48809 -0.329918 0
M  V30 2411 H 221.311 6.78283 -0.332917 0
M  V30 2412 H 219.257 6.29176 1.85671 0
M  V30 2413 H 219.174 7.53209 0.649036 0
M  V30 2414 H 220.442 7.57535 1.83742 0
M  V30 2415 N 224.671 0.411399 1.52136 0
M  V30 2416 C 225.919 -0.163322 2.01439 0
M  V30 2417 C 226.24 -1.45453 1.29879 0
M  V30 2418 O 225.51 -1.91225 0.4254 0
M  V30 2419 H 224.09 -0.0633447 0.744309 0
M  V30 2420 H 226.752 0.548161 1.87033 0
M  V30 2421 H 225.848 -0.357817 3.10042 0
M  V30 2422 N 226.149 -1.5696 0.141893 0
M  V30 2423 C 227.374 -2.00754 -0.520838 0
M  V30 2424 C 227.799 -1.0213 -1.57959 0
M  V30 2425 O 227.157 0.00371324 -1.813 0
M  V30 2426 C 227.205 -3.43318 -1.10294 0
M  V30 2427 O 226.309 -3.47679 -2.21795 0
M  V30 2428 H 225.65 -0.651564 -0.127908 0
M  V30 2429 H 228.18 -2.03221 0.23712 0
M  V30 2430 H 228.19 -3.82012 -1.43287 0
M  V30 2431 H 226.865 -4.14608 -0.327574 0
M  V30 2432 H 225.442 -3.20824 -1.9007 0
M  V30 2433 N 227.627 0.131896 -1.57047 0
M  V30 2434 C 228.857 0.855219 -1.88068 0
M  V30 2435 C 229.265 1.74557 -0.729817 0
M  V30 2436 O 228.608 1.81083 0.308962 0
M  V30 2437 C 228.67 1.75119 -3.13964 0
M  V30 2438 C 228.334 1.03646 -4.45091 0
M  V30 2439 C 229.331 0.383276 -5.18485 0
M  V30 2440 C 227.016 1.02148 -4.91804 0
M  V30 2441 C 229.01 -0.275347 -6.36805 0
M  V30 2442 C 226.697 0.359047 -6.10044 0
M  V30 2443 C 227.695 -0.288222 -6.82392 0
M  V30 2444 O 227.383 -0.94011 -7.98384 0
M  V30 2445 H 227.115 0.251864 -0.627328 0
M  V30 2446 H 229.669 0.124782 -2.05021 0
M  V30 2447 H 227.899 2.52295 -2.9306 0
M  V30 2448 H 229.588 2.3478 -3.31109 0
M  V30 2449 H 230.354 0.386562 -4.83457 0
M  V30 2450 H 226.233 1.5147 -4.35405 0
M  V30 2451 H 229.777 -0.781148 -6.93213 0
M  V30 2452 H 225.674 0.35348 -6.44531 0
M  V30 2453 H 226.442 -0.84329 -8.14144 0
M  V30 2454 N 229.106 1.52395 0.401703 0
M  V30 2455 C 230.036 1.79231 1.49661 0
M  V30 2456 C 231.017 0.643654 1.57452 0
M  V30 2457 O 232.202 0.889989 1.72606 0
M  V30 2458 C 229.332 1.94971 2.87409 0
M  V30 2459 C 228.286 3.10604 2.94465 0
M  V30 2460 C 227.612 3.11577 4.34538 0
M  V30 2461 C 228.912 4.49921 2.6527 0
M  V30 2462 H 230.606 2.70917 1.27454 0
M  V30 2463 H 228.152 1.30362 0.6117 0
M  V30 2464 H 230.105 2.12328 3.63999 0
M  V30 2465 H 228.829 0.999632 3.10926 0
M  V30 2466 H 227.488 2.93009 2.20321 0
M  V30 2467 H 227.136 2.14277 4.55076 0
M  V30 2468 H 226.836 3.89247 4.40183 0
M  V30 2469 H 228.36 3.31073 5.13053 0
M  V30 2470 H 229.774 4.67683 3.31581 0
M  V30 2471 H 228.171 5.29564 2.82281 0
M  V30 2472 H 229.241 4.57507 1.60671 0
M  V30 2473 N 230.584 -0.659388 1.43143 0
M  V30 2474 C 232 -0.974337 1.26407 0
M  V30 2475 C 232.2 -2.007 0.179341 0
M  V30 2476 O 231.256 -2.4856 -0.444295 0
M  V30 2477 C 232.569 -1.46447 2.62628 0
M  V30 2478 C 234.117 -1.58144 2.7011 0
M  V30 2479 C 234.592 -2.1055 4.06734 0
M  V30 2480 N 236.083 -2.17861 4.08767 0
M  V30 2481 C 236.818 -2.59519 5.1131 0
M  V30 2482 N 236.314 -3.00518 6.24228 0
M  V30 2483 N 238.107 -2.59404 4.98664 0
M  V30 2484 H 230.258 0.0240528 2.12386 0
M  V30 2485 H 232.521 -0.0518065 0.946583 0
M  V30 2486 H 232.227 -0.780123 3.42939 0
M  V30 2487 H 232.101 -2.44058 2.87603 0
M  V30 2488 H 234.488 -2.25682 1.90136 0
M  V30 2489 H 234.569 -0.589828 2.48907 0
M  V30 2490 H 234.213 -1.43616 4.87172 0
M  V30 2491 H 234.143 -3.10531 4.25298 0
M  V30 2492 H 236.634 -1.88975 3.27257 0
M  V30 2493 H 236.947 -3.31036 6.98309 0
M  V30 2494 H 235.292 -2.98337 6.2771 0
M  V30 2495 H 238.483 -2.26747 4.09516 0
M  V30 2496 H 238.656 -2.91548 5.78709 0
M  V30 2497 N 232.062 -1.29571 -0.897171 0
M  V30 2498 C 233.01 -1.14802 -2.02295 0
M  V30 2499 C 234.004 -0.0629637 -1.69283 0
M  V30 2500 O 235.21 -0.222945 -1.78614 0
M  V30 2501 H 231.585 -0.354692 -0.663097 0
M  V30 2502 H 233.556 -2.10108 -2.11889 0
M  V30 2503 C 232.305 -0.843966 -3.37302 0
M  V30 2504 H 231.628 -1.67093 -3.63208 0
M  V30 2505 H 233.068 -0.780672 -4.16751 0
M  V30 2506 C 231.527 0.452843 -3.33843 0
M  V30 2507 O 232.057 1.47813 -3.73516 0
M  V30 2508 N 230.263 0.459601 -2.86943 0
M  V30 2509 H 229.81 -0.375213 -2.54853 0
M  V30 2510 H 229.768 1.32726 -2.85011 0
M  V30 2511 N 233.54 1.10788 -1.12088 0
M  V30 2512 C 234.788 1.8231 -0.872205 0
M  V30 2513 C 235.109 1.85419 0.603709 0
M  V30 2514 O 234.379 1.32963 1.43867 0
M  V30 2515 H 232.959 0.675137 -0.319686 0
M  V30 2516 H 235.621 1.34068 -1.41463 0
M  V30 2517 H 234.717 2.85955 -1.25045 0
M  V30 2518 N 235.018 0.912232 1.28515 0
M  V30 2519 C 236.264 0.554851 1.95686 0
M  V30 2520 C 236.619 -0.89138 1.70506 0
M  V30 2521 O 235.912 -1.62529 1.01464 0
M  V30 2522 C 236.106 0.798392 3.48368 0
M  V30 2523 C 235.935 2.26674 3.88393 0
M  V30 2524 C 234.705 2.91657 4.12631 0
M  V30 2525 C 236.903 3.24303 3.99164 0
M  V30 2526 N 234.885 4.28805 4.39317 0
M  V30 2527 C 236.256 4.4661 4.30046 0
M  V30 2528 C 238.311 3.19723 3.81683 0
M  V30 2529 C 237.014 5.64915 4.45268 0
M  V30 2530 C 239.04 4.37325 3.98121 0
M  V30 2531 C 238.402 5.58406 4.29375 0
M  V30 2532 H 234.501 0.252876 0.739985 0
M  V30 2533 H 237.085 1.17565 1.55199 0
M  V30 2534 H 235.256 0.20688 3.87849 0
M  V30 2535 H 236.988 0.405193 4.02666 0
M  V30 2536 H 233.743 2.42393 4.06869 0
M  V30 2537 H 234.167 4.99712 4.56746 0
M  V30 2538 H 238.809 2.27191 3.56573 0
M  V30 2539 H 236.527 6.57927 4.6921 0
M  V30 2540 H 240.113 4.35282 3.86033 0
M  V30 2541 H 238.993 6.47889 4.41825 0
M  V30 2542 N 236.496 -1.42363 0.676048 0
M  V30 2543 C 237.444 -2.32596 -0.0131507 0
M  V30 2544 C 238.438 -1.49891 -0.789238 0
M  V30 2545 O 239.644 -1.65955 -0.697061 0
M  V30 2546 H 236.019 -0.751647 -0.0230481 0
M  V30 2547 H 237.99 -2.88421 0.765243 0
M  V30 2548 C 236.739 -3.34479 -0.949702 0
M  V30 2549 H 236.062 -3.98158 -0.361938 0
M  V30 2550 H 237.502 -4.00199 -1.4006 0
M  V30 2551 C 235.961 -2.66838 -2.05667 0
M  V30 2552 O 236.491 -2.50124 -3.14326 0
M  V30 2553 N 234.697 -2.25843 -1.82875 0
M  V30 2554 H 234.244 -2.39637 -0.945085 0
M  V30 2555 H 234.202 -1.80918 -2.5713 0
M  V30 2556 N 237.974 -0.419461 -1.51915 0
M  V30 2557 C 239.22 0.153166 -2.02221 0
M  V30 2558 C 239.553 1.43907 -1.30401 0
M  V30 2559 O 238.828 1.90055 -0.413438 0
M  V30 2560 C 239.111 0.390291 -3.57979 0
M  V30 2561 C 238.964 -0.913014 -4.40436 0
M  V30 2562 C 240.283 1.16794 -4.2432 0
M  V30 2563 H 237.402 0.0541924 -0.735005 0
M  V30 2564 H 240.044 -0.554955 -1.81715 0
M  V30 2565 H 238.194 0.993491 -3.75582 0
M  V30 2566 H 239.866 -1.54882 -4.34522 0
M  V30 2567 H 238.109 -1.52168 -4.06236 0
M  V30 2568 H 238.78 -0.701361 -5.47526 0
M  V30 2569 H 241.256 0.657161 -4.10878 0
M  V30 2570 H 240.132 1.3026 -5.3322 0
M  V30 2571 H 240.393 2.19132 -3.83971 0
M  V30 2572 N 239.452 1.56882 -0.150215 0
M  V30 2573 C 240.385 2.12712 0.826358 0
M  V30 2574 C 241.363 1.05154 1.24022 0
M  V30 2575 O 242.547 1.33004 1.33575 0
M  V30 2576 C 239.674 2.64945 2.11002 0
M  V30 2577 C 238.72 3.8468 1.84183 0
M  V30 2578 S 239.553 5.25502 1.02995 0
M  V30 2579 C 240.709 5.81125 2.32474 0
M  V30 2580 H 240.942 2.95214 0.351598 0
M  V30 2581 H 238.475 1.54267 0.0641211 0
M  V30 2582 H 240.433 2.95689 2.84742 0
M  V30 2583 H 239.094 1.82568 2.55593 0
M  V30 2584 H 238.287 4.19482 2.79375 0
M  V30 2585 H 237.889 3.54714 1.1855 0
M  V30 2586 H 240.181 5.92753 3.281 0
M  V30 2587 H 241.124 6.78625 2.02171 0
M  V30 2588 H 241.532 5.09392 2.43269 0
M  V30 2589 N 240.93 -0.123565 1.57115 0
M  V30 2590 C 242.207 -0.862196 1.75572 0
M  V30 2591 C 242.587 -1.98279 0.724475 0
M  V30 2592 O 241.935 -2.27102 -0.252407 0
M  V30 2593 C 242.145 -1.38309 3.20424 0
M  V30 2594 C 243.493 -1.83724 3.82793 0
M  V30 2595 O 244.517 -1.47999 3.23998 0
M  V30 2596 O 243.376 -2.49685 4.86127 0
M  V30 2597 H 240.47 -0.409113 0.718718 0
M  V30 2598 H 243.016 -0.107661 1.69358 0
M  V30 2599 H 241.788 -0.578889 3.86994 0
M  V30 2600 H 241.411 -2.20046 3.31158 0
M  V30 2601 N 242.408 -1.52605 -0.393616 0
M  V30 2602 C 243.655 -1.67424 -1.1391 0
M  V30 2603 C 243.983 -0.411859 -1.90089 0
M  V30 2604 O 243.238 0.605626 -1.86093 0
M  V30 2605 C 243.537 -2.85721 -2.14705 0
M  V30 2606 C 243.203 -4.23342 -1.55218 0
M  V30 2607 C 241.865 -4.60771 -1.3872 0
M  V30 2608 C 244.217 -5.09041 -1.11924 0
M  V30 2609 C 241.545 -5.81563 -0.774689 0
M  V30 2610 C 243.897 -6.30452 -0.520853 0
M  V30 2611 C 242.561 -6.66617 -0.343134 0
M  V30 2612 H 241.831 -0.612648 -0.416826 0
M  V30 2613 H 244.478 -1.8674 -0.424315 0
M  V30 2614 H 242.783 -2.60803 -2.92385 0
M  V30 2615 H 244.48 -2.94382 -2.72288 0
M  V30 2616 H 241.07 -3.93855 -1.69045 0
M  V30 2617 H 245.254 -4.80695 -1.23473 0
M  V30 2618 H 240.51 -6.08196 -0.625154 0
M  V30 2619 H 244.684 -6.96175 -0.177065 0
M  V30 2620 H 242.311 -7.60083 0.133571 0
M  V30 2621 N 243.887 0.651787 -1.4349 0
M  V30 2622 C 245.136 1.40754 -1.44469 0
M  V30 2623 C 245.449 1.95463 -0.0731845 0
M  V30 2624 O 246.655 2.71471 0.0395721 0
M  V30 2625 C 245.111 2.54735 -2.5424 0
M  V30 2626 C 244.719 2.06628 -3.97504 0
M  V30 2627 C 246.463 3.32092 -2.64414 0
M  V30 2628 C 244.37 3.17829 -4.98737 0
M  V30 2629 H 243.3 0.528862 -0.53742 0
M  V30 2630 H 245.951 0.703365 -1.69485 0
M  V30 2631 H 244.333 3.2763 -2.22428 0
M  V30 2632 H 245.507 1.40734 -4.38783 0
M  V30 2633 H 243.822 1.42146 -3.91387 0
M  V30 2634 H 246.419 4.14952 -3.37223 0
M  V30 2635 H 246.762 3.80217 -1.69532 0
M  V30 2636 H 247.295 2.66279 -2.95534 0
M  V30 2637 H 244.034 2.74671 -5.95177 0
M  V30 2638 H 243.554 3.82429 -4.62069 0
M  V30 2639 H 245.233 3.82937 -5.21505 0
M  V30 2640 N 245.365 1.30045 0.890287 0
M  V30 2641 C 246.611 1.18737 1.64406 0
M  V30 2642 C 246.944 -0.258525 1.92472 0
M  V30 2643 O 246.219 -1.18562 1.54186 0
M  V30 2644 C 246.502 2.01087 2.98724 0
M  V30 2645 C 246.355 3.53867 2.77665 0
M  V30 2646 C 247.674 1.84457 3.9958 0
M  V30 2647 H 244.793 0.432698 0.596608 0
M  V30 2648 H 247.435 1.5962 1.0306 0
M  V30 2649 H 245.585 1.66349 3.51084 0
M  V30 2650 H 247.257 3.98637 2.32133 0
M  V30 2651 H 245.5 3.78318 2.12269 0
M  V30 2652 H 246.171 4.06772 3.7315 0
M  V30 2653 H 248.647 2.14817 3.56361 0
M  V30 2654 H 247.523 2.44411 4.91482 0
M  V30 2655 H 247.784 0.802276 4.3476 0
M  V30 2656 N 246.843 -1.10192 1.12674 0
M  V30 2657 C 248.089 -1.82475 0.884915 0
M  V30 2658 C 248.422 -1.85093 -0.58773 0
M  V30 2659 O 247.697 -1.3134 -1.43457 0
M  V30 2660 C 247.98 -3.29018 1.46353 0
M  V30 2661 C 247.833 -3.34718 3.00473 0
M  V30 2662 C 249.152 -4.25473 1.12519 0
M  V30 2663 H 246.271 -0.662492 0.322915 0
M  V30 2664 H 248.913 -1.2913 1.39375 0
M  V30 2665 H 247.063 -3.74576 1.03077 0
M  V30 2666 H 248.735 -2.97622 3.52447 0
M  V30 2667 H 246.978 -2.74541 3.35872 0
M  V30 2668 H 247.649 -4.37918 3.36053 0
M  V30 2669 H 250.125 -3.88161 1.499 0
M  V30 2670 H 249.001 -5.26365 1.55663 0
M  V30 2671 H 249.262 -4.42084 0.0377407 0
M  V30 2672 N 248.321 -0.919034 -1.28029 0
M  V30 2673 C 249.251 -0.428581 -2.29533 0
M  V30 2674 C 250.232 0.50659 -1.62381 0
M  V30 2675 O 251.417 0.413195 -1.89753 0
M  V30 2676 C 248.547 0.327388 -3.45753 0
M  V30 2677 C 247.501 -0.519137 -4.2484 0
M  V30 2678 C 246.827 0.365486 -5.33449 0
M  V30 2679 C 248.127 -1.77914 -4.91064 0
M  V30 2680 H 249.821 -1.27687 -2.70807 0
M  V30 2681 H 247.367 -0.615428 -1.30186 0
M  V30 2682 H 249.32 0.681378 -4.15855 0
M  V30 2683 H 248.044 1.20963 -3.03374 0
M  V30 2684 H 246.703 -0.855717 -3.56473 0
M  V30 2685 H 246.351 1.24642 -4.87312 0
M  V30 2686 H 246.051 -0.197356 -5.87268 0
M  V30 2687 H 247.575 0.715241 -6.06396 0
M  V30 2688 H 248.989 -1.49374 -5.53498 0
M  V30 2689 H 247.386 -2.2848 -5.54903 0
M  V30 2690 H 248.456 -2.50382 -4.15255 0
M  V30 2691 N 249.799 1.42003 -0.683588 0
M  V30 2692 C 251.024 2.06265 -0.216647 0
M  V30 2693 C 251.449 1.51059 1.12083 0
M  V30 2694 O 250.807 0.632638 1.69904 0
M  V30 2695 C 250.855 3.60191 -0.171759 0
M  V30 2696 O 249.959 4.03396 0.857069 0
M  V30 2697 H 249.3 0.65502 -0.108834 0
M  V30 2698 H 251.83 1.81982 -0.935077 0
M  V30 2699 H 251.84 4.08 0.0014303 0
M  V30 2700 H 250.515 3.99743 -1.14796 0
M  V30 2701 H 249.092 3.67117 0.654208 0
M  V30 2702 N 251.277 0.427512 1.51691 0
M  V30 2703 C 252.525 -0.141948 2.01601 0
M  V30 2704 C 252.846 -1.44067 1.31414 0
M  V30 2705 O 252.116 -1.90763 0.445658 0
M  V30 2706 H 250.696 -0.0554468 0.744939 0
M  V30 2707 H 253.358 0.567968 1.86441 0
M  V30 2708 H 252.454 -0.324913 3.10404 0
M  V30 2709 N 252.755 -1.56801 0.158532 0
M  V30 2710 C 254.004 -1.95665 -0.489702 0
M  V30 2711 C 254.317 -1.04654 -1.65248 0
M  V30 2712 O 255.523 -1.33146 -2.3661 0
M  V30 2713 C 253.979 -3.47874 -0.922582 0
M  V30 2714 C 253.587 -4.47489 0.213893 0
M  V30 2715 C 255.331 -3.95583 -1.53996 0
M  V30 2716 C 253.238 -5.90921 -0.237903 0
M  V30 2717 H 252.168 -0.730516 -0.186716 0
M  V30 2718 H 254.819 -1.81861 0.244722 0
M  V30 2719 H 253.201 -3.57051 -1.71261 0
M  V30 2720 H 254.375 -4.50017 0.991036 0
M  V30 2721 H 252.69 -4.09764 0.740407 0
M  V30 2722 H 255.287 -5.0019 -1.8898 0
M  V30 2723 H 255.63 -3.37789 -2.43319 0
M  V30 2724 H 256.163 -3.8937 -0.814611 0
M  V30 2725 H 252.902 -6.52559 0.620236 0
M  V30 2726 H 252.422 -5.91729 -0.980676 0
M  V30 2727 H 254.101 -6.43352 -0.686067 0
M  V30 2728 N 254.233 0.115231 -1.57178 0
M  V30 2729 C 255.163 1.1423 -2.03651 0
M  V30 2730 C 256.144 1.42967 -0.921655 0
M  V30 2731 O 257.329 1.53343 -1.19162 0
M  V30 2732 C 254.459 2.4675 -2.44401 0
M  V30 2733 C 253.413 2.32467 -3.59365 0
M  V30 2734 C 252.739 3.69984 -3.86026 0
M  V30 2735 C 254.039 1.78203 -4.90959 0
M  V30 2736 H 255.733 0.755749 -2.89705 0
M  V30 2737 H 253.279 0.362093 -1.39373 0
M  V30 2738 H 255.232 3.18854 -2.75517 0
M  V30 2739 H 253.956 2.87302 -1.55322 0
M  V30 2740 H 252.615 1.62811 -3.28463 0
M  V30 2741 H 252.263 4.08028 -2.94147 0
M  V30 2742 H 251.963 3.61279 -4.63412 0
M  V30 2743 H 253.487 4.43587 -4.19599 0
M  V30 2744 H 254.901 2.40128 -5.20587 0
M  V30 2745 H 253.298 1.8031 -5.72371 0
M  V30 2746 H 254.368 0.739876 -4.79222 0
M  V30 2747 N 255.711 1.52812 0.385517 0
M  V30 2748 C 256.674 1.77188 1.45386 0
M  V30 2749 C 257.674 0.641953 1.4743 0
M  V30 2750 O 258.864 0.910033 1.4854 0
M  V30 2751 C 255.996 1.87582 2.8465 0
M  V30 2752 H 257.189 2.72583 1.25054 0
M  V30 2753 H 254.742 1.43586 0.617467 0
M  V30 2754 H 255.477 0.941849 3.10322 0
M  V30 2755 H 255.262 2.69748 2.84567 0
M  V30 2756 H 256.752 2.08102 3.62054 0
M  V30 2757 N 257.189 -0.644168 1.43834 0
M  V30 2758 C 258.417 -1.43147 1.49387 0
M  V30 2759 C 258.832 -1.88452 0.114583 0
M  V30 2760 O 258.189 -1.60047 -0.876989 0
M  V30 2761 C 258.24 -2.66046 2.44748 0
M  V30 2762 O 257.961 -2.22633 3.77314 0
M  V30 2763 C 259.462 -3.59311 2.59635 0
M  V30 2764 H 256.682 -0.439447 0.507077 0
M  V30 2765 H 259.226 -0.78895 1.88669 0
M  V30 2766 H 257.381 -3.26418 2.08638 0
M  V30 2767 H 257.795 -3.02216 4.28679 0
M  V30 2768 H 259.269 -4.42187 3.30416 0
M  V30 2769 H 259.746 -4.07259 1.64427 0
M  V30 2770 H 260.352 -3.04816 2.96593 0
M  V30 2771 N 258.668 -1.30515 -0.883378 0
M  V30 2772 C 259.631 -1.1701 -1.97082 0
M  V30 2773 C 260.631 -0.10089 -1.60483 0
M  V30 2774 O 261.821 -0.349127 -1.70666 0
M  V30 2775 C 258.953 -0.793045 -3.31547 0
M  V30 2776 H 260.146 -2.13622 -2.10489 0
M  V30 2777 H 257.699 -1.13935 -1.06998 0
M  V30 2778 H 258.434 0.172499 -3.23841 0
M  V30 2779 H 258.219 -1.56576 -3.5948 0
M  V30 2780 H 259.709 -0.722073 -4.1131 0
M  V30 2781 N 260.146 1.09593 -1.13257 0
M  V30 2782 C 261.394 1.81375 -0.891492 0
M  V30 2783 C 261.715 1.86049 0.584009 0
M  V30 2784 O 260.985 1.34481 1.42449 0
M  V30 2785 H 259.565 0.671708 -0.326828 0
M  V30 2786 H 262.227 1.3256 -1.42877 0
M  V30 2787 H 261.323 2.84612 -1.28071 0
M  V30 2788 N 261.624 0.925811 1.2754 0
M  V30 2789 C 262.852 0.581509 1.9856 0
M  V30 2790 C 263.267 -0.840041 1.69082 0
M  V30 2791 O 262.624 -1.55805 0.950312 0
M  V30 2792 C 262.675 0.795589 3.52637 0
M  V30 2793 O 262.396 2.16121 3.81082 0
M  V30 2794 C 263.897 0.459744 4.4091 0
M  V30 2795 H 261.117 0.220538 0.633722 0
M  V30 2796 H 263.661 1.24232 1.6244 0
M  V30 2797 H 261.816 0.18161 3.86974 0
M  V30 2798 H 262.23 2.2098 4.75676 0
M  V30 2799 H 263.704 0.660244 5.48037 0
M  V30 2800 H 264.181 -0.604625 4.35018 0
M  V30 2801 H 264.787 1.05178 4.12089 0
M  V30 2802 N 263.102 -1.41638 0.69111 0
M  V30 2803 C 264.052 -2.28 -0.000107832 0
M  V30 2804 C 265.036 -1.41964 -0.757304 0
M  V30 2805 O 266.228 -1.65274 -0.633532 0
M  V30 2806 C 263.357 -3.30209 -0.938983 0
M  V30 2807 C 262.443 -4.23725 -0.17827 0
M  V30 2808 N 262.834 -4.99017 0.825563 0
M  V30 2809 C 261.132 -4.44071 -0.414392 0
M  V30 2810 C 261.833 -5.67431 1.28052 0
M  V30 2811 N 260.809 -5.40197 0.607304 0
M  V30 2812 H 264.611 -2.83644 0.769617 0
M  V30 2813 H 262.125 -1.53797 0.521562 0
M  V30 2814 H 264.122 -3.90898 -1.44929 0
M  V30 2815 H 262.782 -2.76126 -1.70836 0
M  V30 2816 H 263.793 -5.03671 1.20566 0
M  V30 2817 H 260.47 -4.01004 -1.162 0
M  V30 2818 H 261.86 -6.37801 2.11327 0
M  V30 2819 N 264.58 -0.43555 -1.51462 0
M  V30 2820 C 265.827 0.131514 -2.02072 0
M  V30 2821 C 266.155 1.42868 -1.31981 0
M  V30 2822 O 265.41 1.91076 -0.422883 0
M  V30 2823 C 265.709 0.39942 -3.55161 0
M  V30 2824 C 265.375 -0.81172 -4.43533 0
M  V30 2825 C 264.037 -1.14387 -4.67407 0
M  V30 2826 C 266.389 -1.61976 -4.95392 0
M  V30 2827 C 263.717 -2.28477 -5.40384 0
M  V30 2828 C 266.069 -2.75164 -5.6962 0
M  V30 2829 C 264.733 -3.08835 -5.91758 0
M  V30 2830 H 264.003 0.0481244 -0.739436 0
M  V30 2831 H 266.65 -0.58238 -1.8243 0
M  V30 2832 H 264.955 1.19519 -3.73125 0
M  V30 2833 H 266.652 0.85157 -3.91854 0
M  V30 2834 H 263.242 -0.542898 -4.25148 0
M  V30 2835 H 267.426 -1.37637 -4.76833 0
M  V30 2836 H 262.682 -2.5488 -5.55739 0
M  V30 2837 H 266.856 -3.38147 -6.08793 0
M  V30 2838 H 264.483 -3.97353 -6.48086 0
M  V30 2839 N 266.058 1.56714 -0.166846 0
M  V30 2840 C 267.006 2.19056 0.782123 0
M  V30 2841 C 268 1.15328 1.24079 0
M  V30 2842 O 269.206 1.33537 1.20697 0
M  V30 2843 H 265.581 0.70167 0.270486 0
M  V30 2844 H 267.552 2.97494 0.232322 0
M  V30 2845 C 266.301 2.84206 2.00306 0
M  V30 2846 H 265.624 3.63748 1.65914 0
M  V30 2847 H 267.064 3.31302 2.64604 0
M  V30 2848 C 265.523 1.83744 2.82382 0
M  V30 2849 O 266.053 1.32014 3.79388 0
M  V30 2850 N 264.259 1.52601 2.47308 0
M  V30 2851 H 263.806 1.9486 1.68485 0
M  V30 2852 H 263.764 0.856351 3.02513 0
M  V30 2853 N 267.536 -0.106894 1.57237 0
M  V30 2854 C 268.764 -0.826389 1.8968 0
M  V30 2855 C 269.179 -1.72856 0.759353 0
M  V30 2856 O 268.536 -1.80503 -0.269263 0
M  V30 2857 C 268.587 -1.64967 3.21665 0
M  V30 2858 O 268.308 -0.783804 4.31031 0
M  V30 2859 C 269.809 -2.47326 3.67892 0
M  V30 2860 H 267.029 -0.236927 0.627779 0
M  V30 2861 H 269.573 -0.0876593 2.04312 0
M  V30 2862 H 267.728 -2.34103 3.08666 0
M  V30 2863 H 268.142 -1.35284 5.06753 0
M  V30 2864 H 269.616 -3.00604 4.6297 0
M  V30 2865 H 270.093 -3.25247 2.95146 0
M  V30 2866 H 270.699 -1.83411 3.83719 0
M  V30 2867 N 269.014 -1.53014 -0.377408 0
M  V30 2868 C 269.964 -1.74996 -1.46152 0
M  V30 2869 C 270.948 -0.604236 -1.49123 0
M  V30 2870 O 272.14 -0.862489 -1.54564 0
M  V30 2871 C 269.269 -1.93267 -2.8373 0
M  V30 2872 C 268.355 -3.13807 -2.85283 0
M  V30 2873 N 268.746 -4.35941 -2.56493 0
M  V30 2874 C 267.044 -3.14288 -3.16448 0
M  V30 2875 C 267.745 -5.17615 -2.65424 0
M  V30 2876 N 266.721 -4.53559 -2.99641 0
M  V30 2877 H 270.523 -2.67044 -1.22738 0
M  V30 2878 H 268.037 -1.51479 -0.585479 0
M  V30 2879 H 270.034 -2.0714 -3.61799 0
M  V30 2880 H 268.694 -1.0244 -3.08117 0
M  V30 2881 H 269.705 -4.63876 -2.30302 0
M  V30 2882 H 266.382 -2.33312 -3.46225 0
M  V30 2883 H 267.772 -6.25006 -2.46612 0
M  V30 2884 N 270.492 0.636531 -1.44174 0
M  V30 2885 C 271.738 1.39826 -1.4689 0
M  V30 2886 C 272.071 1.93947 -0.0990585 0
M  V30 2887 O 271.346 1.73325 0.882544 0
M  V30 2888 C 271.629 2.56751 -2.5249 0
M  V30 2889 C 271.482 2.08014 -3.98811 0
M  V30 2890 C 272.801 3.58946 -2.54649 0
M  V30 2891 H 269.92 0.507075 -0.53483 0
M  V30 2892 H 272.562 0.720188 -1.75822 0
M  V30 2893 H 270.712 3.14597 -2.2795 0
M  V30 2894 H 272.384 1.5504 -4.34466 0
M  V30 2895 H 270.627 1.39242 -4.10846 0
M  V30 2896 H 271.298 2.92169 -4.68339 0
M  V30 2897 H 273.774 3.1089 -2.76563 0
M  V30 2898 H 272.65 4.38286 -3.3045 0
M  V30 2899 H 272.911 4.12655 -1.58646 0
M  V30 2900 N 271.97 1.30982 0.876444 0
M  V30 2901 C 273.247 1.10942 1.61094 0
M  V30 2902 C 273.627 -0.338223 2.08373 0
M  V30 2903 O 272.975 -1.33122 1.85717 0
M  V30 2904 C 273.185 2.11789 2.77392 0
M  V30 2905 C 274.533 2.43965 3.47514 0
M  V30 2906 O 275.557 2.10166 2.87591 0
M  V30 2907 O 274.416 3.01817 4.55597 0
M  V30 2908 H 271.51 0.42667 0.708436 0
M  V30 2909 H 274.056 1.42438 0.922474 0
M  V30 2910 H 272.828 3.09194 2.39823 0
M  V30 2911 H 272.451 1.81161 3.5393 0
M  V30 2912 N 273.449 -1.08991 1.13837 0
M  V30 2913 C 274.379 -2.17771 0.842507 0
M  V30 2914 C 275.36 -1.6892 -0.20001 0
M  V30 2915 O 276.545 -1.94113 -0.0579731 0
M  V30 2916 C 273.675 -3.4589 0.312644 0
M  V30 2917 C 272.629 -4.08099 1.28992 0
M  V30 2918 C 271.955 -5.31098 0.619623 0
M  V30 2919 C 273.255 -4.50077 2.65005 0
M  V30 2920 H 274.949 -2.42777 1.75213 0
M  V30 2921 H 272.495 -1.16682 0.843875 0
M  V30 2922 H 274.448 -4.21297 0.0933043 0
M  V30 2923 H 273.172 -3.20419 -0.632382 0
M  V30 2924 H 271.831 -3.34717 1.49533 0
M  V30 2925 H 271.479 -5.0191 -0.33102 0
M  V30 2926 H 271.179 -5.73674 1.27167 0
M  V30 2927 H 272.703 -6.09224 0.409669 0
M  V30 2928 H 274.117 -5.16688 2.48407 0
M  V30 2929 H 272.514 -5.03553 3.26427 0
M  V30 2930 H 273.584 -3.62257 3.22332 0
M  V30 2931 N 274.927 -0.932562 -1.27047 0
M  V30 2932 C 276.343 -0.633544 -1.46487 0
M  V30 2933 C 276.543 0.815746 -1.84249 0
M  V30 2934 O 275.599 1.59319 -1.95892 0
M  V30 2935 C 276.912 -1.58758 -2.55375 0
M  V30 2936 C 278.46 -1.59634 -2.69232 0
M  V30 2937 C 278.935 -2.53747 -3.81283 0
M  V30 2938 N 280.426 -2.51982 -3.88664 0
M  V30 2939 C 281.161 -3.21491 -4.74796 0
M  V30 2940 N 280.657 -4.00395 -5.65381 0
M  V30 2941 N 282.45 -3.10485 -4.68568 0
M  V30 2942 H 274.601 -1.86946 -1.00821 0
M  V30 2943 H 276.864 -0.802897 -0.504044 0
M  V30 2944 H 276.57 -2.62172 -2.34432 0
M  V30 2945 H 276.444 -1.33301 -3.52861 0
M  V30 2946 H 278.831 -0.569488 -2.89553 0
M  V30 2947 H 278.912 -1.89142 -1.72218 0
M  V30 2948 H 278.556 -3.56545 -3.61715 0
M  V30 2949 H 278.486 -2.21532 -4.77735 0
M  V30 2950 H 280.977 -1.94681 -3.23895 0
M  V30 2951 H 281.29 -4.50406 -6.27976 0
M  V30 2952 H 279.635 -4.04498 -5.65161 0
M  V30 2953 H 282.826 -2.48331 -3.96799 0
M  V30 2954 H 282.999 -3.64925 -5.35475 0
M  V30 2955 N 276.405 1.4127 -0.698611 0
M  V30 2956 C 277.633 2.05503 -0.239992 0
M  V30 2957 C 278.048 1.52584 1.11191 0
M  V30 2958 O 277.405 0.675323 1.69545 0
M  V30 2959 C 277.456 3.60987 -0.192429 0
M  V30 2960 O 277.177 4.1195 -1.49094 0
M  V30 2961 C 278.678 4.42371 0.28681 0
M  V30 2962 H 275.898 0.661748 -0.111045 0
M  V30 2963 H 278.442 1.80987 -0.95205 0
M  V30 2964 H 276.597 3.84533 0.470472 0
M  V30 2965 H 277.011 5.06018 -1.38007 0
M  V30 2966 H 278.485 5.51344 0.26896 0
M  V30 2967 H 278.962 4.18699 1.32619 0
M  V30 2968 H 279.568 4.23897 -0.345201 0
M  V30 2969 N 277.883 0.443576 1.51229 0
M  V30 2970 C 278.813 -0.355142 2.30783 0
M  V30 2971 C 279.794 -1.0154 1.36468 0
M  V30 2972 O 280.979 -1.01785 1.65389 0
M  V30 2973 C 278.109 -1.45312 3.15439 0
M  V30 2974 C 277.063 -0.916002 4.18083 0
M  V30 2975 C 276.389 -2.1102 4.91299 0
M  V30 2976 C 277.689 0.0538602 5.22272 0
M  V30 2977 H 279.383 0.308767 2.97804 0
M  V30 2978 H 276.929 0.149937 1.43217 0
M  V30 2979 H 278.882 -2.01914 3.69876 0
M  V30 2980 H 277.606 -2.14541 2.46252 0
M  V30 2981 H 276.265 -0.372145 3.64706 0
M  V30 2982 H 275.913 -2.78882 4.18609 0
M  V30 2983 H 275.613 -1.75717 5.60712 0
M  V30 2984 H 277.137 -2.68164 5.48562 0
M  V30 2985 H 278.551 -0.422069 5.71744 0
M  V30 2986 H 276.948 0.319776 5.99247 0
M  V30 2987 H 278.018 0.98858 4.74716 0
M  V30 2988 N 279.361 -1.56624 0.175154 0
M  V30 2989 C 280.777 -1.58571 -0.180966 0
M  V30 2990 C 280.977 -1.19065 -1.6256 0
M  V30 2991 O 280.033 -0.904044 -2.35761 0
M  V30 2992 C 281.346 -3.00522 0.103326 0
M  V30 2993 C 282.894 -3.12972 0.0418426 0
M  V30 2994 C 283.369 -4.57022 0.299175 0
M  V30 2995 N 284.86 -4.62541 0.247086 0
M  V30 2996 C 285.595 -5.71857 0.420318 0
M  V30 2997 N 285.091 -6.89717 0.652816 0
M  V30 2998 N 286.884 -5.60972 0.355957 0
M  V30 2999 H 279.035 -1.80589 1.11809 0
M  V30 3000 H 281.298 -0.837178 0.444788 0
M  V30 3001 H 281.004 -3.33916 1.10422 0
M  V30 3002 H 280.878 -3.72344 -0.603299 0
M  V30 3003 H 283.265 -2.79403 -0.949636 0
M  V30 3004 H 283.346 -2.43578 0.781238 0
M  V30 3005 H 282.99 -4.913 1.28788 0
M  V30 3006 H 282.92 -5.24579 -0.460876 0
M  V30 3007 H 285.411 -3.77829 0.0731895 0
M  V30 3008 H 285.724 -7.68911 0.774347 0
M  V30 3009 H 284.069 -6.91572 0.689476 0
M  V30 3010 H 287.26 -4.67773 0.174882 0
M  V30 3011 H 287.433 -6.46111 0.494388 0
M  V30 3012 N 280.839 0.0985539 -1.57292 0
M  V30 3013 C 281.802 1.10402 -2.00858 0
M  V30 3014 C 282.802 1.33146 -0.901593 0
M  V30 3015 O 283.992 1.29318 -1.16716 0
M  V30 3016 C 281.124 2.45394 -2.36632 0
M  V30 3017 H 282.317 0.729099 -2.90902 0
M  V30 3018 H 279.87 0.343495 -1.52479 0
M  V30 3019 H 280.605 2.87769 -1.49531 0
M  V30 3020 H 280.39 2.30235 -3.17387 0
M  V30 3021 H 281.88 3.17718 -2.71007 0
M  V30 3022 N 282.317 1.53212 0.369288 0
M  V30 3023 C 283.563 1.69466 1.11397 0
M  V30 3024 C 283.896 0.443257 1.89074 0
M  V30 3025 O 283.171 -0.559386 1.86282 0
M  V30 3026 C 283.454 2.9422 2.07621 0
M  V30 3027 C 283.307 4.29508 1.33577 0
M  V30 3028 C 284.626 3.14565 3.07794 0
M  V30 3029 H 281.745 0.616667 0.403597 0
M  V30 3030 H 284.387 1.85845 0.395179 0
M  V30 3031 H 282.537 2.80387 2.68916 0
M  V30 3032 H 284.209 4.55147 0.750955 0
M  V30 3033 H 282.452 4.29088 0.637618 0
M  V30 3034 H 283.123 5.12926 2.03989 0
M  V30 3035 H 285.599 3.2756 2.56601 0
M  V30 3036 H 284.475 4.03297 3.72348 0
M  V30 3037 H 284.736 2.29675 3.77759 0
M  V30 3038 N 283.795 -0.628877 1.44509 0
M  V30 3039 C 285.211 -0.947305 1.28446 0
M  V30 3040 C 285.411 -2.00275 0.221872 0
M  V30 3041 O 284.467 -2.49447 -0.391471 0
M  V30 3042 C 285.78 -1.40843 2.65676 0
M  V30 3043 C 287.328 -1.52379 2.73404 0
M  V30 3044 C 287.803 -2.01875 4.11109 0
M  V30 3045 N 289.294 -2.09142 4.13296 0
M  V30 3046 C 290.029 -2.48615 5.16699 0
M  V30 3047 N 289.525 -2.87209 6.30462 0
M  V30 3048 N 291.318 -2.48768 5.04054 0
M  V30 3049 H 283.469 0.0690977 2.12288 0
M  V30 3050 H 285.732 -0.0317164 0.947469 0
M  V30 3051 H 285.438 -0.707206 3.44516 0
M  V30 3052 H 285.312 -2.37902 2.92716 0
M  V30 3053 H 287.699 -2.21598 1.9488 0
M  V30 3054 H 287.78 -0.536898 2.50102 0
M  V30 3055 H 287.424 -1.3325 4.90109 0
M  V30 3056 H 287.354 -3.0144 4.31789 0
M  V30 3057 H 289.845 -1.81991 3.31191 0
M  V30 3058 H 290.158 -3.16149 7.05174 0
M  V30 3059 H 288.503 -2.84955 6.33897 0
M  V30 3060 H 291.694 -2.18009 4.14234 0
M  V30 3061 H 291.867 -2.79207 5.84763 0
M  V30 3062 N 285.273 -1.31445 -0.869486 0
M  V30 3063 C 286.519 -1.21337 -1.62496 0
M  V30 3064 C 286.852 0.227872 -1.92858 0
M  V30 3065 O 286.127 1.16094 -1.56053 0
M  V30 3066 C 286.41 -2.05814 -2.95487 0
M  V30 3067 C 286.263 -3.5824 -2.72 0
M  V30 3068 C 287.582 -1.9079 -3.96594 0
M  V30 3069 H 284.701 -0.442135 -0.589649 0
M  V30 3070 H 287.343 -1.6124 -1.00507 0
M  V30 3071 H 285.493 -1.71913 -3.48394 0
M  V30 3072 H 287.165 -4.0228 -2.25762 0
M  V30 3073 H 285.408 -3.81647 -2.06224 0
M  V30 3074 H 286.079 -4.12657 -3.66631 0
M  V30 3075 H 288.555 -2.20459 -3.52898 0
M  V30 3076 H 287.431 -2.52199 -4.87531 0
M  V30 3077 H 287.692 -0.871341 -4.33428 0
M  V30 3078 N 286.751 1.08385 -1.14413 0
M  V30 3079 C 287.681 2.17321 -0.854044 0
M  V30 3080 C 288.662 1.69024 0.191049 0
M  V30 3081 O 289.847 1.94141 0.0476779 0
M  V30 3082 C 286.977 3.45719 -0.330983 0
M  V30 3083 C 285.931 4.07409 -1.31155 0
M  V30 3084 C 285.257 5.30762 -0.64778 0
M  V30 3085 C 286.557 4.48665 -2.67388 0
M  V30 3086 H 288.251 2.41845 -1.76498 0
M  V30 3087 H 285.797 1.16233 -0.850051 0
M  V30 3088 H 287.75 4.21241 -0.115645 0
M  V30 3089 H 286.474 3.2075 0.615381 0
M  V30 3090 H 285.133 3.33919 -1.51306 0
M  V30 3091 H 284.781 5.02078 0.304398 0
M  V30 3092 H 284.481 5.72992 -1.30207 0
M  V30 3093 H 286.005 6.08998 -0.441972 0
M  V30 3094 H 287.419 5.15364 -2.51143 0
M  V30 3095 H 285.816 5.01814 -3.29093 0
M  V30 3096 H 286.886 3.60543 -3.24248 0
M  V30 3097 N 288.23 0.939286 1.26551 0
M  V30 3098 C 289.646 0.641304 1.46149 0
M  V30 3099 C 289.846 -0.805964 1.84679 0
M  V30 3100 O 288.902 -1.58278 1.96734 0
M  V30 3101 C 290.215 1.6011 2.54529 0
M  V30 3102 C 291.763 1.6106 2.68382 0
M  V30 3103 C 292.238 2.55765 3.79932 0
M  V30 3104 N 293.729 2.5404 3.87322 0
M  V30 3105 C 294.464 3.24004 4.73085 0
M  V30 3106 N 293.96 4.03388 5.63249 0
M  V30 3107 N 295.753 3.12965 4.66914 0
M  V30 3108 H 287.904 1.87478 0.998285 0
M  V30 3109 H 290.167 0.805559 0.499779 0
M  V30 3110 H 289.873 2.63412 2.33039 0
M  V30 3111 H 289.747 1.35171 3.52149 0
M  V30 3112 H 292.134 0.584835 2.89247 0
M  V30 3113 H 292.215 1.90053 1.71212 0
M  V30 3114 H 291.859 3.58458 3.5982 0
M  V30 3115 H 291.789 2.24063 4.76554 0
M  V30 3116 H 294.28 1.96396 3.22858 0
M  V30 3117 H 294.593 4.5373 6.25579 0
M  V30 3118 H 292.938 4.07489 5.63008 0
M  V30 3119 H 296.129 2.50432 3.95476 0
M  V30 3120 H 296.302 3.67759 5.33533 0
M  V30 3121 N 289.708 -1.40897 0.706093 0
M  V30 3122 C 291.119 -1.84023 0.315052 0
M  V30 3123 C 291.47 -1.5906 -1.14866 0
M  V30 3124 O 290.595 -1.06651 -1.88293 0
M  V30 3125 C 291.19 -3.34055 0.565038 0
M  V30 3126 C 289.749 -3.7571 0.227806 0
M  V30 3127 C 288.896 -2.64204 0.842122 0
M  V30 3128 H 291.847 -1.303 0.905963 0
M  V30 3129 H 291.868 -3.80107 -0.172843 0
M  V30 3130 H 291.38 -3.52192 1.63042 0
M  V30 3131 H 289.481 -3.63172 -0.832895 0
M  V30 3132 H 289.594 -4.74103 0.690174 0
M  V30 3133 H 287.958 -2.53255 0.270893 0
M  V30 3134 H 288.741 -2.85155 1.91158 0
M  V30 3135 N 291.186 -0.45159 -1.50991 0
M  V30 3136 C 292.116 0.342898 -2.30969 0
M  V30 3137 C 293.097 1.00815 -1.37005 0
M  V30 3138 O 294.282 1.00907 -1.65926 0
M  V30 3139 C 291.412 1.43637 -3.16205 0
M  V30 3140 C 290.366 0.893818 -4.18563 0
M  V30 3141 C 289.692 2.08411 -4.92411 0
M  V30 3142 C 290.992 -0.0815568 -5.22236 0
M  V30 3143 H 292.686 -0.324556 -2.97636 0
M  V30 3144 H 290.232 -0.157531 -1.43136 0
M  V30 3145 H 292.185 1.9995 -3.70942 0
M  V30 3146 H 290.909 2.13232 -2.47386 0
M  V30 3147 H 289.568 0.352798 -3.64898 0
M  V30 3148 H 289.216 2.76658 -4.20082 0
M  V30 3149 H 288.916 1.72741 -5.61636 0
M  V30 3150 H 290.44 2.65251 -5.49976 0
M  V30 3151 H 291.854 0.391742 -5.7196 0
M  V30 3152 H 290.251 -0.351551 -5.99069 0
M  V30 3153 H 291.321 -1.01374 -4.74185 0
M  V30 3154 N 292.664 1.56529 -0.183458 0
M  V30 3155 C 293.611 2.18546 0.742055 0
M  V30 3156 C 294.581 1.12912 1.2182 0
M  V30 3157 O 295.766 1.41115 1.28418 0
M  V30 3158 C 292.906 2.83977 1.96089 0
M  V30 3159 C 292.019 4.04105 1.52719 0
M  V30 3160 C 291.154 4.57427 2.70063 0
M  V30 3161 C 290.193 5.69938 2.23243 0
M  V30 3162 N 289.33 6.17717 3.33722 0
M  V30 3163 H 294.17 2.97284 0.206432 0
M  V30 3164 H 291.707 1.46823 0.0901571 0
M  V30 3165 H 293.665 3.20077 2.67594 0
M  V30 3166 H 292.295 2.07822 2.47002 0
M  V30 3167 H 291.347 3.73745 0.708436 0
M  V30 3168 H 292.659 4.85513 1.1436 0
M  V30 3169 H 291.813 4.95772 3.49708 0
M  V30 3170 H 290.552 3.75101 3.11689 0
M  V30 3171 H 289.557 5.31133 1.42048 0
M  V30 3172 H 290.782 6.54073 1.82661 0
M  V30 3173 H 288.728 5.38317 3.74902 0
M  V30 3174 H 288.645 6.94146 2.99495 0
M  V30 3175 H 289.913 6.60713 4.13616 0
M  V30 3176 N 294.142 -0.090211 1.57342 0
M  V30 3177 C 295.072 -1.10976 2.05443 0
M  V30 3178 C 296.053 -1.41482 0.944284 0
M  V30 3179 O 297.238 -1.51428 1.21586 0
M  V30 3180 C 294.368 -2.42831 2.48295 0
M  V30 3181 C 293.322 -2.26721 3.63018 0
M  V30 3182 C 292.648 -3.63796 3.91863 0
M  V30 3183 C 293.948 -1.7037 4.93732 0
M  V30 3184 H 295.642 -0.709564 2.9087 0
M  V30 3185 H 293.188 -0.339874 1.39932 0
M  V30 3186 H 295.141 -3.14431 2.80555 0
M  V30 3187 H 293.865 -2.84795 1.59873 0
M  V30 3188 H 292.524 -1.57565 3.31012 0
M  V30 3189 H 292.172 -4.03297 3.00601 0
M  V30 3190 H 291.872 -3.53861 4.69101 0
M  V30 3191 H 293.396 -4.36855 4.26603 0
M  V30 3192 H 294.81 -2.31816 5.24342 0
M  V30 3193 H 293.207 -1.71181 5.75167 0
M  V30 3194 H 294.277 -0.663542 4.80339 0
M  V30 3195 N 295.62 -1.53406 -0.361157 0
M  V30 3196 C 296.866 -1.70054 -1.10496 0
M  V30 3197 C 297.199 -0.453278 -1.88836 0
M  V30 3198 O 296.474 0.5495 -1.86576 0
M  V30 3199 C 296.757 -2.95317 -2.06058 0
M  V30 3200 C 296.61 -4.3021 -1.31298 0
M  V30 3201 C 297.929 -3.16193 -3.06121 0
M  V30 3202 H 295.048 -0.618799 -0.400321 0
M  V30 3203 H 297.69 -1.86052 -0.385318 0
M  V30 3204 H 295.84 -2.81809 -2.67425 0
M  V30 3205 H 297.512 -4.55538 -0.726807 0
M  V30 3206 H 295.755 -4.29421 -0.614853 0
M  V30 3207 H 296.426 -5.14 -2.01265 0
M  V30 3208 H 298.902 -3.28916 -2.5486 0
M  V30 3209 H 297.778 -4.05266 -3.70204 0
M  V30 3210 H 298.039 -2.31676 -3.76535 0
M  V30 3211 N 297.098 0.621204 -1.44841 0
M  V30 3212 C 298.323 1.41244 -1.51871 0
M  V30 3213 C 298.748 1.87519 -0.147764 0
M  V30 3214 O 298.106 1.59334 0.865 0
M  V30 3215 C 298.154 2.60221 -2.49634 0
M  V30 3216 O 297.258 3.60395 -2.00473 0
M  V30 3217 H 296.599 0.42223 -0.512463 0
M  V30 3218 H 299.129 0.757305 -1.90069 0
M  V30 3219 H 299.139 3.0764 -2.67996 0
M  V30 3220 H 297.814 2.25887 -3.4921 0
M  V30 3221 H 296.391 3.19717 -1.91925 0
M  V30 3222 N 298.576 1.31904 0.862503 0
M  V30 3223 C 299.824 1.21776 1.61292 0
M  V30 3224 C 300.145 -0.222413 1.93727 0
M  V30 3225 O 299.415 -1.1451 1.58947 0
M  V30 3226 H 297.995 0.447717 0.597962 0
M  V30 3227 H 300.657 1.65326 1.03215 0
M  V30 3228 H 299.753 1.7948 2.5533 0
M  V30 3229 N 300.054 -1.07777 1.14986 0
M  V30 3230 C 301.303 -1.79669 0.916617 0
M  V30 3231 C 301.616 -1.87474 -0.557917 0
M  V30 3232 O 302.822 -2.55845 -0.908617 0
M  V30 3233 C 301.278 -3.22848 1.59051 0
M  V30 3234 C 300.886 -3.23257 3.10176 0
M  V30 3235 C 302.63 -3.99379 1.43864 0
M  V30 3236 C 300.537 -4.61063 3.70372 0
M  V30 3237 H 299.467 -0.673349 0.33929 0
M  V30 3238 H 302.118 -1.21003 1.37951 0
M  V30 3239 H 300.5 -3.8168 1.0553 0
M  V30 3240 H 301.674 -2.74095 3.70417 0
M  V30 3241 H 299.989 -2.60222 3.25074 0
M  V30 3242 H 302.586 -5.0122 1.86232 0
M  V30 3243 H 302.929 -4.14511 0.385564 0
M  V30 3244 H 303.462 -3.47032 1.94457 0
M  V30 3245 H 300.201 -4.51135 4.7556 0
M  V30 3246 H 299.721 -5.1048 3.14913 0
M  V30 3247 H 301.4 -5.30034 3.71043 0
M  V30 3248 N 301.532 -0.945985 -1.26051 0
M  V30 3249 C 302.943 -0.638096 -1.75457 0
M  V30 3250 C 303.294 0.846672 -1.76991 0
M  V30 3251 O 302.419 1.66262 -1.38513 0
M  V30 3252 C 303.014 -1.15157 -3.18629 0
M  V30 3253 C 301.573 -0.894004 -3.65629 0
M  V30 3254 C 300.72 -1.29967 -2.44957 0
M  V30 3255 H 303.671 -1.12376 -1.1206 0
M  V30 3256 H 303.692 -0.507615 -3.77099 0
M  V30 3257 H 303.204 -2.23222 -3.1748 0
M  V30 3258 H 301.305 0.172057 -3.72203 0
M  V30 3259 H 301.418 -1.52439 -4.54202 0
M  V30 3260 H 299.782 -0.718078 -2.44368 0
M  V30 3261 H 300.565 -2.38935 -2.46505 0
M  V30 3262 N 303.011 1.40521 -0.713556 0
M  V30 3263 C 304.236 2.05759 -0.26035 0
M  V30 3264 C 304.661 1.53403 1.08854 0
M  V30 3265 O 304.019 0.668535 1.68524 0
M  V30 3266 C 304.067 3.59745 -0.248122 0
M  V30 3267 O 303.171 4.05123 0.77131 0
M  V30 3268 H 302.512 0.652564 -0.122703 0
M  V30 3269 H 305.042 1.79958 -0.973467 0
M  V30 3270 H 305.052 4.07911 -0.0851129 0
M  V30 3271 H 303.727 3.97218 -1.2325 0
M  V30 3272 H 302.304 3.68422 0.57619 0
M  V30 3273 N 304.489 0.459591 1.5075 0
M  V30 3274 C 305.419 -0.330644 2.31147 0
M  V30 3275 C 306.4 -1.00087 1.37538 0
M  V30 3276 O 307.585 -1.00025 1.66459 0
M  V30 3277 C 304.715 -1.41958 3.16962 0
M  V30 3278 C 303.669 -0.871608 4.19031 0
M  V30 3279 C 302.995 -2.05797 4.9351 0
M  V30 3280 C 304.295 0.109251 5.22186 0
M  V30 3281 H 305.989 0.340336 2.97459 0
M  V30 3282 H 303.535 0.165119 1.4305 0
M  V30 3283 H 305.488 -1.9798 3.71997 0
M  V30 3284 H 304.212 -2.11917 2.48513 0
M  V30 3285 H 302.871 -0.333442 3.6508 0
M  V30 3286 H 302.519 -2.74427 4.21544 0
M  V30 3287 H 302.219 -1.6976 5.62544 0
M  V30 3288 H 303.743 -2.62331 5.51375 0
M  V30 3289 H 305.157 -0.361405 5.7216 0
M  V30 3290 H 303.554 0.383316 5.98875 0
M  V30 3291 H 304.624 1.03887 4.73641 0
M  V30 3292 N 305.967 -1.56429 0.191757 0
M  V30 3293 C 306.899 -2.16154 -0.762245 0
M  V30 3294 C 307.912 -1.12247 -1.17917 0
M  V30 3295 O 309.101 -1.39353 -1.11548 0
M  V30 3296 C 306.201 -2.70606 -2.04024 0
M  V30 3297 C 305.374 -3.99381 -1.78364 0
M  V30 3298 C 304.433 -4.38692 -2.90578 0
M  V30 3299 O 303.459 -5.06179 -2.6033 0
M  V30 3300 N 304.661 -4.01922 -4.18854 0
M  V30 3301 H 307.426 -2.98643 -0.251526 0
M  V30 3302 H 304.987 -1.61897 0.00967373 0
M  V30 3303 H 306.979 -2.93891 -2.78227 0
M  V30 3304 H 305.549 -1.9259 -2.46227 0
M  V30 3305 H 304.769 -3.84262 -0.879581 0
M  V30 3306 H 306.057 -4.83445 -1.58614 0
M  V30 3307 H 305.455 -3.47631 -4.46283 0
M  V30 3308 H 304.012 -4.30165 -4.89695 0
M  V30 3309 N 307.445 0.0818655 -1.57387 0
M  V30 3310 C 308.694 0.781681 -1.85937 0
M  V30 3311 C 309.007 1.79246 -0.782957 0
M  V30 3312 O 310.213 2.54112 -0.955987 0
M  V30 3313 C 308.669 1.44109 -3.29789 0
M  V30 3314 C 308.277 0.469396 -4.45534 0
M  V30 3315 C 310.021 2.12386 -3.67549 0
M  V30 3316 C 307.928 1.13415 -5.80423 0
M  V30 3317 H 306.858 0.295682 -0.693605 0
M  V30 3318 H 309.509 0.0348051 -1.83467 0
M  V30 3319 H 307.891 2.23588 -3.2684 0
M  V30 3320 H 309.065 -0.294856 -4.59856 0
M  V30 3321 H 307.38 -0.108383 -4.16259 0
M  V30 3322 H 309.977 2.62878 -4.65617 0
M  V30 3323 H 310.32 2.91877 -2.96839 0
M  V30 3324 H 310.853 1.39751 -3.72444 0
M  V30 3325 H 307.592 0.379771 -6.54399 0
M  V30 3326 H 307.112 1.8695 -5.69921 0
M  V30 3327 H 308.791 1.65686 -6.25426 0
M  V30 3328 N 308.923 1.53595 0.353017 0
M  V30 3329 C 310.169 1.70638 1.09593 0
M  V30 3330 C 310.502 0.463286 1.88593 0
M  V30 3331 O 309.777 -0.539597 1.86865 0
M  V30 3332 C 310.06 2.96406 2.04489 0
M  V30 3333 C 309.913 4.30901 1.29014 0
M  V30 3334 C 311.232 3.17812 3.0444 0
M  V30 3335 H 308.351 0.620913 0.397034 0
M  V30 3336 H 310.993 1.86254 0.375446 0
M  V30 3337 H 309.143 2.83223 2.65927 0
M  V30 3338 H 310.815 4.55917 0.702638 0
M  V30 3339 H 309.058 4.29741 0.592071 0
M  V30 3340 H 309.729 5.1506 1.98537 0
M  V30 3341 H 312.205 3.30263 2.53112 0
M  V30 3342 H 311.081 4.07223 3.6805 0
M  V30 3343 H 311.342 2.33669 3.75301 0
M  V30 3344 N 310.401 -0.613514 1.45168 0
M  V30 3345 C 311.331 -1.7354 1.56225 0
M  V30 3346 C 312.312 -1.64981 0.41414 0
M  V30 3347 O 313.497 -1.83472 0.636526 0
M  V30 3348 C 310.627 -3.12128 1.52295 0
M  V30 3349 C 309.581 -3.35491 2.65762 0
M  V30 3350 C 308.907 -4.74291 2.46885 0
M  V30 3351 C 310.207 -3.26325 4.0781 0
M  V30 3352 H 311.901 -1.64543 2.50132 0
M  V30 3353 H 309.447 -0.790185 1.20383 0
M  V30 3354 H 311.4 -3.90404 1.58628 0
M  V30 3355 H 310.124 -3.2195 0.549139 0
M  V30 3356 H 308.783 -2.59603 2.58847 0
M  V30 3357 H 308.431 -4.80839 1.47657 0
M  V30 3358 H 308.131 -4.9088 3.22972 0
M  V30 3359 H 309.655 -5.54775 2.55063 0
M  V30 3360 H 311.069 -3.94483 4.16 0
M  V30 3361 H 309.466 -3.54445 4.8424 0
M  V30 3362 H 310.536 -2.23855 4.30136 0
M  V30 3363 N 311.879 -1.3236 -0.855495 0
M  V30 3364 C 312.826 -1.21225 -1.964 0
M  V30 3365 C 313.796 -0.0946204 -1.6583 0
M  V30 3366 O 314.981 -0.27002 -1.8888 0
M  V30 3367 C 312.121 -0.940419 -3.32039 0
M  V30 3368 C 311.234 -2.14276 -3.75113 0
M  V30 3369 C 310.369 -1.80648 -4.9954 0
M  V30 3370 C 309.408 -2.97208 -5.35102 0
M  V30 3371 N 308.545 -2.63678 -6.50706 0
M  V30 3372 H 313.385 -2.16042 -2.05255 0
M  V30 3373 H 310.922 -1.07451 -1.00463 0
M  V30 3374 H 312.88 -0.763311 -4.10158 0
M  V30 3375 H 311.51 -0.0290413 -3.22787 0
M  V30 3376 H 310.562 -2.43017 -2.92655 0
M  V30 3377 H 311.874 -3.01468 -3.97389 0
M  V30 3378 H 311.028 -1.59484 -5.85363 0
M  V30 3379 H 309.767 -0.906678 -4.79198 0
M  V30 3380 H 308.772 -3.19004 -4.47791 0
M  V30 3381 H 309.997 -3.87918 -5.57401 0
M  V30 3382 H 307.943 -1.76238 -6.31883 0
M  V30 3383 H 307.86 -3.444 -6.72997 0
M  V30 3384 H 309.128 -2.45942 -7.39684 0
M  V30 3385 N 313.357 1.07166 -1.15556 0
M  V30 3386 C 314.582 1.84053 -0.955988 0
M  V30 3387 C 315.007 1.81586 0.490739 0
M  V30 3388 O 314.365 1.21018 1.34997 0
M  V30 3389 C 314.413 3.28957 -1.47714 0
M  V30 3390 O 313.517 4.06795 -0.677593 0
M  V30 3391 H 312.858 0.569842 -0.340847 0
M  V30 3392 H 315.388 1.35178 -1.53584 0
M  V30 3393 H 315.398 3.79788 -1.4908 0
M  V30 3394 H 314.073 3.30068 -2.53037 0
M  V30 3395 H 312.65 3.6561 -0.733721 0
M  V30 3396 N 314.835 0.952656 1.25548 0
M  V30 3397 C 316.084 0.602053 1.92505 0
M  V30 3398 C 316.397 -0.864663 1.75451 0
M  V30 3399 O 317.603 -1.32514 2.36965 0
M  V30 3400 C 316.059 1.02607 3.44963 0
M  V30 3401 C 315.667 2.51519 3.70732 0
M  V30 3402 C 317.411 0.747905 4.1786 0
M  V30 3403 C 315.318 2.87732 5.16686 0
M  V30 3404 H 314.248 0.22146 0.720744 0
M  V30 3405 H 316.899 1.15684 1.42441 0
M  V30 3406 H 315.281 0.399712 3.93978 0
M  V30 3407 H 316.455 3.19157 3.32378 0
M  V30 3408 H 314.77 2.76786 3.11092 0
M  V30 3409 H 317.367 0.994647 5.25367 0
M  V30 3410 H 317.71 -0.315629 4.15102 0
M  V30 3411 H 318.243 1.33452 3.74747 0
M  V30 3412 H 314.982 3.93095 5.24554 0
M  V30 3413 H 314.502 2.24765 5.56094 0
M  V30 3414 H 316.181 2.76817 5.84792 0
M  V30 3415 N 316.313 -1.40141 0.720998 0
M  V30 3416 C 317.246 -2.2819 0.020916 0
M  V30 3417 C 318.224 -1.43633 -0.762129 0
M  V30 3418 O 319.408 -1.7304 -0.747633 0
M  V30 3419 C 316.535 -3.24281 -0.977715 0
M  V30 3420 C 315.581 -4.25548 -0.284836 0
M  V30 3421 S 316.414 -5.26247 0.991169 0
M  V30 3422 C 317.57 -6.259 -0.0052214 0
M  V30 3423 H 317.803 -2.87218 0.767649 0
M  V30 3424 H 315.336 -1.45656 0.512233 0
M  V30 3425 H 317.294 -3.80167 -1.54865 0
M  V30 3426 H 315.955 -2.643 -1.69719 0
M  V30 3427 H 315.148 -4.93154 -1.03996 0
M  V30 3428 H 314.75 -3.73389 0.213684 0
M  V30 3429 H 317.042 -6.72143 -0.850279 0
M  V30 3430 H 317.985 -7.05224 0.637599 0
M  V30 3431 H 318.393 -5.63277 -0.371366 0
M  V30 3432 N 317.792 -0.46758 -1.50504 0
M  V30 3433 C 318.739 0.328413 -2.28452 0
M  V30 3434 C 319.709 0.990313 -1.33349 0
M  V30 3435 O 320.894 1.00343 -1.62284 0
M  V30 3436 C 318.034 1.40648 -3.15138 0
M  V30 3437 C 317.147 0.759709 -4.25267 0
M  V30 3438 C 316.282 1.81537 -4.99217 0
M  V30 3439 C 315.321 1.14866 -6.01226 0
M  V30 3440 N 314.458 2.14702 -6.68467 0
M  V30 3441 H 319.298 -0.342603 -2.96024 0
M  V30 3442 H 316.835 -0.180801 -1.45985 0
M  V30 3443 H 318.793 2.04315 -3.63746 0
M  V30 3444 H 317.423 2.04671 -2.49619 0
M  V30 3445 H 316.475 0.0105671 -3.80399 0
M  V30 3446 H 317.787 0.233243 -4.98254 0
M  V30 3447 H 316.941 2.52793 -5.51526 0
M  V30 3448 H 315.68 2.37564 -4.25928 0
M  V30 3449 H 314.685 0.42171 -5.4818 0
M  V30 3450 H 315.91 0.595334 -6.76485 0
M  V30 3451 H 313.856 2.69752 -5.97972 0
M  V30 3452 H 313.773 1.6703 -7.37317 0
M  V30 3453 H 315.041 2.85348 -7.25394 0
M  V30 3454 N 319.27 1.56325 -0.20005 0
M  V30 3455 C 320.233 2.18084 0.705132 0
M  V30 3456 C 321.233 1.13666 1.1374 0
M  V30 3457 O 322.423 1.39023 1.04968 0
M  V30 3458 C 319.555 2.78689 1.96329 0
M  V30 3459 H 320.748 2.99435 0.167023 0
M  V30 3460 H 318.301 1.56221 0.0495725 0
M  V30 3461 H 319.036 2.0115 2.5438 0
M  V30 3462 H 318.821 3.55133 1.66202 0
M  V30 3463 H 320.311 3.26096 2.60866 0
M  V30 3464 N 320.748 -0.0735177 1.57428 0
M  V30 3465 C 321.681 -1.11932 1.98863 0
M  V30 3466 C 322.659 -1.37666 0.865266 0
M  V30 3467 O 323.843 -1.51068 1.12742 0
M  V30 3468 C 320.97 -2.46403 2.32386 0
M  V30 3469 C 320.016 -2.36815 3.54713 0
M  V30 3470 S 320.849 -1.76392 5.05614 0
M  V30 3471 C 322.005 -3.12444 5.42337 0
M  V30 3472 H 322.238 -0.766212 2.87257 0
M  V30 3473 H 319.771 -0.281987 1.51803 0
M  V30 3474 H 321.729 -3.23755 2.52375 0
M  V30 3475 H 320.39 -2.78876 1.44524 0
M  V30 3476 H 319.583 -3.35977 3.7568 0
M  V30 3477 H 319.185 -1.67598 3.34345 0
M  V30 3478 H 321.477 -4.08753 5.40303 0
M  V30 3479 H 322.42 -2.96258 6.43146 0
M  V30 3480 H 322.828 -3.1297 4.69798 0
M  V30 3481 N 322.226 -1.5378 -0.344866 0
M  V30 3482 C 323.472 -1.71216 -1.08687 0
M  V30 3483 C 323.805 -0.473281 -1.88345 0
M  V30 3484 O 323.08 0.52968 -1.87149 0
M  V30 3485 C 323.363 -2.97486 -2.02914 0
M  V30 3486 C 323.216 -4.31579 -1.26727 0
M  V30 3487 C 324.535 -3.19422 -3.0275 0
M  V30 3488 H 321.654 -0.62301 -0.393735 0
M  V30 3489 H 324.296 -1.8645 -0.365563 0
M  V30 3490 H 322.446 -2.84629 -2.64421 0
M  V30 3491 H 324.118 -4.56284 -0.67845 0
M  V30 3492 H 322.361 -4.30049 -0.569273 0
M  V30 3493 H 323.032 -5.16106 -1.95803 0
M  V30 3494 H 325.508 -3.316 -2.51357 0
M  V30 3495 H 324.384 -4.09169 -3.65885 0
M  V30 3496 H 324.645 -2.35656 -3.74057 0
M  V30 3497 N 323.704 0.605807 -1.45491 0
M  V30 3498 C 325.115 1.18777 -1.44045 0
M  V30 3499 C 325.466 1.95471 -0.169001 0
M  V30 3500 O 324.591 2.0374 0.729324 0
M  V30 3501 C 325.186 2.16064 -2.60963 0
M  V30 3502 C 323.745 2.69633 -2.62631 0
M  V30 3503 C 322.892 1.45072 -2.36325 0
M  V30 3504 H 325.843 0.395017 -1.53705 0
M  V30 3505 H 325.864 2.9913 -2.35163 0
M  V30 3506 H 325.376 1.60217 -3.53486 0
M  V30 3507 H 323.477 3.29414 -1.74119 0
M  V30 3508 H 323.59 3.13944 -3.61906 0
M  V30 3509 H 321.954 1.74089 -1.85917 0
M  V30 3510 H 322.737 0.910899 -3.30995 0
M  V30 3511 N 325.182 1.32811 0.848464 0
M  V30 3512 C 326.112 1.24882 1.97299 0
M  V30 3513 C 327.093 0.131357 1.69592 0
M  V30 3514 O 328.278 0.319553 1.91553 0
M  V30 3515 C 325.408 0.97746 3.33261 0
M  V30 3516 C 324.362 2.05682 3.75338 0
M  V30 3517 C 323.688 1.63777 5.09 0
M  V30 3518 C 324.988 3.47254 3.90144 0
M  V30 3519 H 326.682 2.18966 2.04191 0
M  V30 3520 H 324.228 1.05413 0.981029 0
M  V30 3521 H 326.181 0.908513 4.1149 0
M  V30 3522 H 324.905 0.000980011 3.266 0
M  V30 3523 H 323.564 2.11603 2.99366 0
M  V30 3524 H 323.212 0.648569 4.98801 0
M  V30 3525 H 322.912 2.36 5.38124 0
M  V30 3526 H 324.436 1.5833 5.89715 0
M  V30 3527 H 325.85 3.43888 4.58709 0
M  V30 3528 H 324.247 4.1788 4.30693 0
M  V30 3529 H 325.317 3.86462 2.92874 0
M  V30 3530 N 326.66 -1.06551 1.16123 0
M  V30 3531 C 327.59 -2.15935 0.88851 0
M  V30 3532 C 328.571 -1.69306 -0.164135 0
M  V30 3533 O 329.756 -1.94193 -0.0167857 0
M  V30 3534 C 326.886 -3.45149 0.385942 0
M  V30 3535 C 325.84 -4.05271 1.3762 0
M  V30 3536 C 325.166 -5.29664 0.732137 0
M  V30 3537 C 326.466 -4.44355 2.74493 0
M  V30 3538 H 328.16 -2.39006 1.80323 0
M  V30 3539 H 325.706 -1.14866 0.868435 0
M  V30 3540 H 327.659 -4.21004 0.182647 0
M  V30 3541 H 326.383 -3.21689 -0.564274 0
M  V30 3542 H 325.042 -3.3147 1.56599 0
M  V30 3543 H 324.69 -5.02499 -0.224483 0
M  V30 3544 H 324.39 -5.70848 1.39307 0
M  V30 3545 H 325.914 -6.08218 0.538802 0
M  V30 3546 H 327.328 -5.11303 2.59311 0
M  V30 3547 H 325.725 -4.96515 3.37035 0
M  V30 3548 H 326.795 -3.55339 3.29943 0
M  V30 3549 N 328.138 -0.959301 -1.25041 0
M  V30 3550 C 329.07 -0.440543 -2.24926 0
M  V30 3551 C 330.083 0.446131 -1.56568 0
M  V30 3552 O 331.272 0.253657 -1.76689 0
M  V30 3553 C 328.372 0.38412 -3.36716 0
M  V30 3554 C 327.545 -0.490658 -4.34639 0
M  V30 3555 C 326.604 0.276587 -5.25473 0
M  V30 3556 O 325.63 -0.326614 -5.68262 0
M  V30 3557 N 326.832 1.56844 -5.5891 0
M  V30 3558 H 329.597 -1.29931 -2.70071 0
M  V30 3559 H 327.158 -0.830181 -1.38995 0
M  V30 3560 H 329.15 0.905228 -3.94446 0
M  V30 3561 H 327.72 1.14377 -2.90924 0
M  V30 3562 H 326.94 -1.19282 -3.7572 0
M  V30 3563 H 328.228 -1.08756 -4.97041 0
M  V30 3564 H 327.626 2.08036 -5.26059 0
M  V30 3565 H 326.183 2.03541 -6.19205 0
M  V30 3566 N 329.616 1.39756 -0.72842 0
M  V30 3567 C 330.865 1.99879 -0.270407 0
M  V30 3568 C 331.178 1.58449 1.14688 0
M  V30 3569 O 332.384 2.11362 1.70407 0
M  V30 3570 C 330.84 3.57292 -0.43252 0
M  V30 3571 C 330.448 4.07688 -1.85727 0
M  V30 3572 C 332.192 4.24485 -0.0359507 0
M  V30 3573 C 330.099 5.5765 -1.96928 0
M  V30 3574 H 329.029 0.747689 -0.0973472 0
M  V30 3575 H 331.68 1.59837 -0.901355 0
M  V30 3576 H 330.062 3.95097 0.267219 0
M  V30 3577 H 331.236 3.81231 -2.58843 0
M  V30 3578 H 329.551 3.53135 -2.20646 0
M  V30 3579 H 332.148 5.34609 -0.0987484 0
M  V30 3580 H 332.491 4.03915 1.00787 0
M  V30 3581 H 333.024 3.9183 -0.686604 0
M  V30 3582 H 329.763 5.8309 -2.99476 0
M  V30 3583 H 329.283 5.8593 -1.28241 0
M  V30 3584 H 330.962 6.22957 -1.74737 0
M  V30 3585 N 331.094 0.475555 1.50254 0
M  V30 3586 C 332.342 -0.077738 2.0195 0
M  V30 3587 C 332.663 -1.39813 1.35931 0
M  V30 3588 O 331.933 -1.89249 0.506123 0
M  V30 3589 H 330.513 -0.031719 0.746326 0
M  V30 3590 H 333.175 0.626995 1.84539 0
M  V30 3591 H 332.271 -0.225995 3.11281 0
M  V30 3592 N 332.573 -1.56217 0.208337 0
M  V30 3593 C 333.503 -2.22694 -0.702116 0
M  V30 3594 C 334.484 -1.19432 -1.2112 0
M  V30 3595 O 335.669 -1.47978 -1.25762 0
M  V30 3596 C 332.799 -2.8966 -1.9161 0
M  V30 3597 C 331.753 -3.9928 -1.5414 0
M  V30 3598 C 331.079 -4.53476 -2.83308 0
M  V30 3599 C 332.379 -5.17012 -0.741339 0
M  V30 3600 H 334.073 -2.99034 -0.147898 0
M  V30 3601 H 331.619 -1.43831 -0.0696951 0
M  V30 3602 H 333.572 -3.34852 -2.55836 0
M  V30 3603 H 332.296 -2.10746 -2.49507 0
M  V30 3604 H 330.955 -3.54799 -0.922668 0
M  V30 3605 H 330.603 -3.71308 -3.39322 0
M  V30 3606 H 330.303 -5.27451 -2.58976 0
M  V30 3607 H 331.827 -5.01378 -3.485 0
M  V30 3608 H 333.241 -5.58667 -1.28699 0
M  V30 3609 H 331.638 -5.97137 -0.595627 0
M  V30 3610 H 332.708 -4.8423 0.254851 0
M  V30 3611 N 334.051 0.0651679 -1.57465 0
M  V30 3612 C 334.981 1.07693 -2.07182 0
M  V30 3613 C 335.962 1.39962 -0.966673 0
M  V30 3614 O 337.147 1.49475 -1.2398 0
M  V30 3615 C 334.277 2.3885 -2.52127 0
M  V30 3616 C 333.231 2.20917 -3.66579 0
M  V30 3617 C 332.557 3.57515 -3.97601 0
M  V30 3618 C 333.857 1.62493 -4.9638 0
M  V30 3619 H 335.551 0.663199 -2.91962 0
M  V30 3620 H 333.097 0.317569 -1.40455 0
M  V30 3621 H 335.05 3.09928 -2.85522 0
M  V30 3622 H 333.774 2.82215 -1.64384 0
M  V30 3623 H 332.433 1.52279 -3.33477 0
M  V30 3624 H 332.081 3.98463 -3.06979 0
M  V30 3625 H 331.781 3.46353 -4.74672 0
M  V30 3626 H 333.305 4.30013 -4.33499 0
M  V30 3627 H 334.719 2.23445 -5.27963 0
M  V30 3628 H 333.116 1.62009 -5.77818 0
M  V30 3629 H 334.186 0.587041 -4.81333 0
M  V30 3630 N 335.529 1.53961 0.336706 0
M  V30 3631 C 336.459 1.85417 1.41925 0
M  V30 3632 C 337.44 0.709856 1.5458 0
M  V30 3633 O 338.625 0.962396 1.68676 0
M  V30 3634 C 335.755 2.06985 2.78881 0
M  V30 3635 C 334.709 3.22813 2.81026 0
M  V30 3636 C 334.035 3.29727 4.20932 0
M  V30 3637 C 335.335 4.60767 2.45949 0
M  V30 3638 H 337.029 2.76079 1.15848 0
M  V30 3639 H 334.575 1.32839 0.555859 0
M  V30 3640 H 336.528 2.27575 3.54665 0
M  V30 3641 H 335.252 1.13061 3.06406 0
M  V30 3642 H 333.911 3.0209 2.07695 0
M  V30 3643 H 333.559 2.33385 4.45579 0
M  V30 3644 H 333.259 4.07566 4.23277 0
M  V30 3645 H 334.783 3.52536 4.98549 0
M  V30 3646 H 336.197 4.81325 3.11446 0
M  V30 3647 H 334.594 5.4106 2.59566 0
M  V30 3648 H 335.664 4.6391 1.41122 0
M  V30 3649 N 337.007 -0.598083 1.45811 0
M  V30 3650 C 338.254 -1.35681 1.50323 0
M  V30 3651 C 338.582 -1.9393 0.148739 0
M  V30 3652 O 337.837 -1.76094 -0.853787 0
M  V30 3653 C 338.136 -2.51669 2.53766 0
M  V30 3654 C 337.802 -2.11508 3.98215 0
M  V30 3655 C 336.464 -2.0027 4.37545 0
M  V30 3656 C 338.816 -1.80308 4.89018 0
M  V30 3657 C 336.144 -1.56067 5.65562 0
M  V30 3658 C 338.496 -1.37589 6.17456 0
M  V30 3659 C 337.16 -1.24916 6.55708 0
M  V30 3660 H 336.43 -0.496492 0.550069 0
M  V30 3661 H 339.077 -0.675052 1.79207 0
M  V30 3662 H 337.382 -3.25225 2.18486 0
M  V30 3663 H 339.079 -3.09895 2.54492 0
M  V30 3664 H 335.669 -2.21185 3.67117 0
M  V30 3665 H 339.853 -1.87884 4.59362 0
M  V30 3666 H 335.109 -1.44886 5.93985 0
M  V30 3667 H 339.283 -1.12495 6.87254 0
M  V30 3668 H 336.91 -0.904386 7.54801 0
M  V30 3669 N 338.485 -1.33259 -0.841409 0
M  V30 3670 C 339.732 -1.24572 -1.5965 0
M  V30 3671 C 340.06 0.189137 -1.93578 0
M  V30 3672 O 339.315 1.14566 -1.5866 0
M  V30 3673 C 339.614 -2.06381 -2.9179 0
M  V30 3674 C 339.28 -3.556 -2.77235 0
M  V30 3675 C 337.942 -3.96282 -2.72973 0
M  V30 3676 C 340.294 -4.50433 -2.62221 0
M  V30 3677 C 337.622 -5.30017 -2.51592 0
M  V30 3678 C 339.974 -5.84327 -2.42374 0
M  V30 3679 C 338.638 -6.24194 -2.36512 0
M  V30 3680 H 337.908 -0.455842 -0.5842 0
M  V30 3681 H 340.555 -1.6482 -0.975016 0
M  V30 3682 H 338.86 -1.58903 -3.5813 0
M  V30 3683 H 340.557 -1.97019 -3.49263 0
M  V30 3684 H 337.147 -3.23298 -2.81384 0
M  V30 3685 H 341.331 -4.19914 -2.64549 0
M  V30 3686 H 336.587 -5.59947 -2.45499 0
M  V30 3687 H 340.761 -6.57414 -2.29739 0
M  V30 3688 H 338.388 -7.27759 -2.19706 0
M  V30 3689 N 339.963 1.05934 -1.16686 0
M  V30 3690 C 340.926 2.11669 -0.879144 0
M  V30 3691 C 341.926 1.60294 0.127445 0
M  V30 3692 O 343.116 1.7389 -0.103865 0
M  V30 3693 C 340.248 3.39438 -0.315425 0
M  V30 3694 H 341.441 2.38626 -1.81653 0
M  V30 3695 H 338.994 1.22058 -0.976299 0
M  V30 3696 H 339.729 3.18132 0.629468 0
M  V30 3697 H 339.514 3.78034 -1.04079 0
M  V30 3698 H 341.004 4.17391 -0.132189 0
M  V30 3699 N 341.441 0.965919 1.2453 0
M  V30 3700 C 342.69 0.622437 1.91856 0
M  V30 3701 C 343.003 -0.846006 1.76358 0
M  V30 3702 O 344.209 -1.29993 2.38357 0
M  V30 3703 C 342.665 1.0626 3.43856 0
M  V30 3704 C 342.273 2.55437 3.68043 0
M  V30 3705 C 344.017 0.792183 4.17043 0
M  V30 3706 C 341.924 2.93196 5.13605 0
M  V30 3707 H 340.854 0.229092 0.718354 0
M  V30 3708 H 343.505 1.17189 1.41206 0
M  V30 3709 H 341.887 0.441476 3.93531 0
M  V30 3710 H 343.061 3.22665 3.28974 0
M  V30 3711 H 341.376 2.8007 3.08139 0
M  V30 3712 H 343.973 1.05031 5.24283 0
M  V30 3713 H 344.316 -0.271584 4.15413 0
M  V30 3714 H 344.849 1.37419 3.73311 0
M  V30 3715 H 341.588 3.98636 5.20355 0
M  V30 3716 H 341.108 2.30651 5.53679 0
M  V30 3717 H 342.787 2.83004 5.81823 0
M  V30 3718 N 342.919 -1.39368 0.735821 0
M  V30 3719 C 343.849 -2.33234 0.111506 0
M  V30 3720 C 344.83 -1.53954 -0.723334 0
M  V30 3721 O 346.015 -1.82344 -0.668147 0
M  V30 3722 C 343.145 -3.38057 -0.795917 0
M  V30 3723 C 342.099 -4.2795 -0.065172 0
M  V30 3724 C 341.425 -5.23479 -1.08967 0
M  V30 3725 C 342.725 -5.10741 1.09273 0
M  V30 3726 H 344.419 -2.85692 0.895571 0
M  V30 3727 H 341.965 -1.37364 0.432109 0
M  V30 3728 H 343.918 -4.02675 -1.24221 0
M  V30 3729 H 342.642 -2.8404 -1.61211 0
M  V30 3730 H 341.301 -3.64813 0.361511 0
M  V30 3731 H 340.949 -4.65758 -1.89944 0
M  V30 3732 H 340.649 -5.84472 -0.605489 0
M  V30 3733 H 342.173 -5.90974 -1.53565 0
M  V30 3734 H 343.587 -5.68699 0.724841 0
M  V30 3735 H 341.984 -5.8088 1.50659 0
M  V30 3736 H 343.054 -4.45525 1.91404 0
M  V30 3737 N 344.397 -0.483516 -1.5 0
M  V30 3738 C 345.33 0.350427 -2.25493 0
M  V30 3739 C 346.308 0.985549 -1.29328 0
M  V30 3740 O 347.492 1.01906 -1.58579 0
M  V30 3741 C 344.619 1.49202 -3.04066 0
M  V30 3742 C 343.665 0.973036 -4.15252 0
M  V30 3743 S 344.498 -0.122237 -5.3536 0
M  V30 3744 C 345.654 1.02294 -6.17484 0
M  V30 3745 H 345.887 -0.290381 -2.95878 0
M  V30 3746 H 343.42 -0.268562 -1.52046 0
M  V30 3747 H 345.378 2.14623 -3.49925 0
M  V30 3748 H 344.039 2.10438 -2.33183 0
M  V30 3749 H 343.232 1.82804 -4.69679 0
M  V30 3750 H 342.834 0.396335 -3.71894 0
M  V30 3751 H 345.126 1.93195 -6.49371 0
M  V30 3752 H 346.069 0.517664 -7.06205 0
M  V30 3753 H 346.477 1.28238 -5.49741 0
M  V30 3754 N 345.875 1.56104 -0.216619 0
M  V30 3755 C 347.122 1.98172 0.416416 0
M  V30 3756 C 347.45 1.10413 1.60122 0
M  V30 3757 O 346.705 0.147967 1.9514 0
M  V30 3758 C 347.004 3.45923 0.898464 0
M  V30 3759 C 346.67 4.50559 -0.175288 0
M  V30 3760 C 345.332 4.78897 -0.470271 0
M  V30 3761 C 347.684 5.1334 -0.901728 0
M  V30 3762 C 345.012 5.67299 -1.4963 0
M  V30 3763 C 347.364 6.02853 -1.91705 0
M  V30 3764 C 346.028 6.29537 -2.21901 0
M  V30 3765 H 345.298 0.725164 0.152377 0
M  V30 3766 H 347.945 1.88839 -0.318103 0
M  V30 3767 H 346.25 3.52434 1.71165 0
M  V30 3768 H 347.947 3.75841 1.39803 0
M  V30 3769 H 344.537 4.28551 0.0647806 0
M  V30 3770 H 348.721 4.91521 -0.687072 0
M  V30 3771 H 343.977 5.86239 -1.73592 0
M  V30 3772 H 348.151 6.50552 -2.48505 0
M  V30 3773 H 345.778 6.97835 -3.01548 0
M  V30 3774 N 347.353 -0.0568162 1.57498 0
M  V30 3775 C 348.316 -1.05038 2.03715 0
M  V30 3776 C 349.316 -1.30709 0.936577 0
M  V30 3777 O 350.506 -1.26178 1.20103 0
M  V30 3778 C 347.638 -2.39034 2.43055 0
M  V30 3779 H 348.831 -0.651715 2.92733 0
M  V30 3780 H 346.384 -0.302947 1.53336 0
M  V30 3781 H 347.119 -2.83703 1.57108 0
M  V30 3782 H 346.904 -2.21739 3.2338 0
M  V30 3783 H 348.394 -3.10421 2.79336 0
M  V30 3784 N 348.832 -1.54138 -0.328536 0
M  V30 3785 C 350.081 -1.71318 -1.06456 0
M  V30 3786 C 350.394 -0.491109 -1.89334 0
M  V30 3787 O 351.6 -0.54416 -2.65991 0
M  V30 3788 C 350.056 -3.03 -1.94214 0
M  V30 3789 C 349.664 -4.32595 -1.16471 0
M  V30 3790 C 351.408 -3.29544 -2.67583 0
M  V30 3791 C 349.315 -5.55341 -2.03347 0
M  V30 3792 H 348.245 -0.638429 -0.401155 0
M  V30 3793 H 350.896 -1.80633 -0.323106 0
M  V30 3794 H 349.278 -2.87579 -2.72239 0
M  V30 3795 H 350.452 -4.58766 -0.432525 0
M  V30 3796 H 348.767 -4.12777 -0.548063 0
M  V30 3797 H 351.364 -4.18444 -3.3288 0
M  V30 3798 H 351.707 -2.47206 -3.34955 0
M  V30 3799 H 352.24 -3.45809 -1.96623 0
M  V30 3800 H 348.979 -6.40268 -1.40491 0
M  V30 3801 H 348.499 -5.33397 -2.74313 0
M  V30 3802 H 350.178 -5.91557 -2.62049 0
M  V30 3803 N 350.31 0.590341 -1.46126 0
M  V30 3804 C 351.559 1.34499 -1.50309 0
M  V30 3805 C 351.872 1.94977 -0.156021 0
M  V30 3806 O 353.078 2.71395 -0.0756037 0
M  V30 3807 C 351.534 2.43723 -2.64815 0
M  V30 3808 C 351.142 1.89582 -4.0591 0
M  V30 3809 C 352.886 3.20579 -2.78262 0
M  V30 3810 C 350.793 2.9639 -5.11769 0
M  V30 3811 H 349.723 0.505593 -0.559368 0
M  V30 3812 H 352.374 0.630848 -1.72315 0
M  V30 3813 H 350.756 3.17902 -2.36124 0
M  V30 3814 H 351.93 1.21997 -4.44357 0
M  V30 3815 H 350.245 1.25418 -3.97063 0
M  V30 3816 H 352.842 4.00276 -3.54519 0
M  V30 3817 H 353.185 3.72684 -1.85505 0
M  V30 3818 H 353.718 2.53505 -3.06562 0
M  V30 3819 H 350.457 2.49181 -6.06291 0
M  V30 3820 H 349.977 3.62487 -4.77873 0
M  V30 3821 H 351.656 3.60474 -5.37278 0
M  V30 3822 N 351.788 1.33704 0.83433 0
M  V30 3823 C 353.036 1.25169 1.58673 0
M  V30 3824 C 353.357 -0.18127 1.94156 0
M  V30 3825 O 352.627 -1.11113 1.6134 0
M  V30 3826 H 351.207 0.4603 0.58833 0
M  V30 3827 H 353.869 1.67478 0.996847 0
M  V30 3828 H 352.965 1.84856 2.51465 0
M  V30 3829 N 353.266 -1.05314 1.17247 0
M  V30 3830 C 354.196 -2.1498 0.911362 0
M  V30 3831 C 355.177 -1.69471 -0.146169 0
M  V30 3832 O 356.362 -1.942 0.003812 0
M  V30 3833 C 353.492 -3.4472 0.422528 0
M  V30 3834 C 352.446 -4.03789 1.4191 0
M  V30 3835 C 351.772 -5.28858 0.788274 0
M  V30 3836 C 353.072 -4.41418 2.7919 0
M  V30 3837 H 354.766 -2.3708 1.82848 0
M  V30 3838 H 352.312 -1.13938 0.880569 0
M  V30 3839 H 354.265 -4.20787 0.227289 0
M  V30 3840 H 352.989 -3.22269 -0.530123 0
M  V30 3841 H 351.648 -3.2979 1.60106 0
M  V30 3842 H 351.296 -5.02709 -0.171173 0
M  V30 3843 H 350.996 -5.69338 1.45353 0
M  V30 3844 H 352.52 -6.07612 0.603282 0
M  V30 3845 H 353.934 -5.08524 2.64719 0
M  V30 3846 H 352.331 -4.92913 3.42282 0
M  V30 3847 H 353.401 -3.51819 3.33693 0
M  V30 3848 N 354.744 -0.972509 -1.24016 0
M  V30 3849 C 355.654 -0.5143 -2.28893 0
M  V30 3850 C 356.67 0.427078 -1.68677 0
M  V30 3851 O 357.846 0.298939 -1.99169 0
M  V30 3852 C 354.911 0.183598 -3.46214 0
M  V30 3853 C 353.972 -0.798202 -4.21814 0
M  V30 3854 C 353.205 -0.133514 -5.33533 0
M  V30 3855 O 353.428 1.07714 -5.60137 0
M  V30 3856 O 352.362 -0.828103 -5.96176 0
M  V30 3857 H 356.188 -1.38629 -2.70214 0
M  V30 3858 H 353.773 -0.739769 -1.29799 0
M  V30 3859 H 355.655 0.575433 -4.17453 0
M  V30 3860 H 354.33 1.03048 -3.0686 0
M  V30 3861 H 353.237 -1.24059 -3.52931 0
M  V30 3862 H 354.57 -1.61364 -4.64997 0
M  V30 3863 N 356.222 1.38976 -0.743202 0
M  V30 3864 C 357.469 2.00343 -0.294752 0
M  V30 3865 C 357.797 1.58983 1.12047 0
M  V30 3866 O 357.052 0.813809 1.77977 0
M  V30 3867 C 357.351 3.55647 -0.353517 0
M  V30 3868 C 357.017 4.16685 -1.72292 0
M  V30 3869 C 355.679 4.3307 -2.09771 0
M  V30 3870 C 358.031 4.50464 -2.62168 0
M  V30 3871 C 355.359 4.80526 -3.36618 0
M  V30 3872 C 357.711 4.99332 -3.88395 0
M  V30 3873 C 356.375 5.13924 -4.25956 0
M  V30 3874 H 355.645 0.733108 -0.107857 0
M  V30 3875 H 358.292 1.6618 -0.951651 0
M  V30 3876 H 356.597 3.89884 0.386954 0
M  V30 3877 H 358.294 4.00998 0.0117269 0
M  V30 3878 H 354.884 4.04339 -1.42155 0
M  V30 3879 H 359.068 4.37416 -2.3448 0
M  V30 3880 H 354.324 4.90008 -3.65653 0
M  V30 3881 H 358.498 5.2444 -4.58187 0
M  V30 3882 H 356.125 5.50457 -5.2431 0
M  V30 3883 N 357.7 0.491464 1.49741 0
M  V30 3884 C 358.93 -0.0534375 2.06531 0
M  V30 3885 C 359.338 -1.32233 1.35318 0
M  V30 3886 O 358.681 -1.78781 0.422243 0
M  V30 3887 C 358.743 -0.387034 3.57411 0
M  V30 3888 C 358.407 0.782764 4.50246 0
M  V30 3889 C 359.404 1.67059 4.92329 0
M  V30 3890 C 357.089 0.978866 4.9267 0
M  V30 3891 C 359.083 2.73874 5.75562 0
M  V30 3892 C 356.77 2.05022 5.75682 0
M  V30 3893 C 357.768 2.92851 6.17031 0
M  V30 3894 O 357.456 3.98138 6.98385 0
M  V30 3895 H 357.188 0.0129324 0.675876 0
M  V30 3896 H 359.742 0.685238 1.93633 0
M  V30 3897 H 357.972 -1.17918 3.68283 0
M  V30 3898 H 359.661 -0.869419 3.96479 0
M  V30 3899 H 360.427 1.53086 4.60206 0
M  V30 3900 H 356.306 0.304646 4.59992 0
M  V30 3901 H 359.85 3.42458 6.07757 0
M  V30 3902 H 355.747 2.18993 6.07217 0
M  V30 3903 H 356.515 3.95374 7.16674 0
M  V30 3904 N 359.178 -1.55987 0.224894 0
M  V30 3905 C 360.403 -2.03232 -0.41369 0
M  V30 3906 C 360.828 -1.10359 -1.52323 0
M  V30 3907 O 360.186 -0.092395 -1.81064 0
M  V30 3908 C 360.234 -3.48682 -0.919405 0
M  V30 3909 O 359.338 -3.58947 -2.03054 0
M  V30 3910 H 358.679 -0.657428 -0.0931903 0
M  V30 3911 H 361.209 -2.01679 0.34451 0
M  V30 3912 H 361.219 -3.8907 -1.22835 0
M  V30 3913 H 359.894 -4.15761 -0.107339 0
M  V30 3914 H 358.471 -3.30448 -1.72796 0
M  V30 3915 N 360.656 0.0484629 -1.57525 0
M  V30 3916 C 361.904 0.741657 -1.88 0
M  V30 3917 C 362.225 1.76918 -0.820054 0
M  V30 3918 O 361.495 1.95335 0.148661 0
M  V30 3919 H 360.075 0.276908 -0.69378 0
M  V30 3920 H 362.737 0.019013 -1.94891 0
M  V30 3921 H 361.833 1.24336 -2.86264 0
M  V30 3922 N 362.134 1.5431 0.320358 0
M  V30 3923 C 363.081 1.83918 1.39438 0
M  V30 3924 C 364.051 0.686525 1.51248 0
M  V30 3925 O 365.236 0.933269 1.66417 0
M  V30 3926 C 362.376 2.075 2.75749 0
M  V30 3927 C 361.489 3.35177 2.72544 0
M  V30 3928 C 360.624 3.48704 4.00723 0
M  V30 3929 C 359.663 4.70244 3.91838 0
M  V30 3930 N 358.8 4.80679 5.11754 0
M  V30 3931 H 363.64 2.75544 1.13489 0
M  V30 3932 H 361.177 1.36459 0.549309 0
M  V30 3933 H 363.135 2.19166 3.54996 0
M  V30 3934 H 361.765 1.19163 3 0
M  V30 3935 H 360.817 3.32233 1.85271 0
M  V30 3936 H 362.129 4.24534 2.61863 0
M  V30 3937 H 361.283 3.59928 4.88402 0
M  V30 3938 H 360.022 2.57445 4.14214 0
M  V30 3939 H 359.027 4.59072 3.02544 0
M  V30 3940 H 360.252 5.6289 3.7991 0
M  V30 3941 H 358.198 3.92337 5.25745 0
M  V30 3942 H 358.115 5.64007 5.0342 0
M  V30 3943 H 359.383 4.96239 6.01138 0
M  V30 3944 N 363.613 -0.582584 1.46437 0
M  V30 3945 C 364.543 -1.70187 1.59871 0
M  V30 3946 C 365.524 -1.64066 0.449042 0
M  V30 3947 O 366.709 -1.82081 0.6753 0
M  V30 3948 C 363.839 -3.08827 1.58881 0
M  V30 3949 C 362.793 -3.29779 2.72819 0
M  V30 3950 C 362.119 -4.68947 2.5689 0
M  V30 3951 C 363.419 -3.17601 4.1464 0
M  V30 3952 H 365.113 -1.592 2.53566 0
M  V30 3953 H 362.659 -0.764472 1.22032 0
M  V30 3954 H 364.612 -3.86951 1.66873 0
M  V30 3955 H 363.336 -3.20713 0.617306 0
M  V30 3956 H 361.995 -2.54054 2.64296 0
M  V30 3957 H 361.643 -4.77599 1.57823 0
M  V30 3958 H 361.343 -4.83919 3.33312 0
M  V30 3959 H 362.867 -5.4924 2.66773 0
M  V30 3960 H 364.281 -3.8557 4.24274 0
M  V30 3961 H 362.678 -3.44094 4.9165 0
M  V30 3962 H 363.748 -2.14681 4.34788 0
M  V30 3963 N 365.091 -1.34144 -0.827227 0
M  V30 3964 C 366.041 -1.21923 -1.92663 0
M  V30 3965 C 367.025 -0.119294 -1.60457 0
M  V30 3966 O 368.217 -0.348539 -1.73534 0
M  V30 3967 C 365.346 -0.972492 -3.29238 0
M  V30 3968 C 364.432 -2.1154 -3.67576 0
M  V30 3969 N 364.823 -3.36627 -3.77512 0
M  V30 3970 C 363.121 -2.02468 -3.97395 0
M  V30 3971 C 363.822 -4.11658 -4.1099 0
M  V30 3972 N 362.798 -3.40207 -4.23981 0
M  V30 3973 H 366.6 -2.16721 -1.98517 0
M  V30 3974 H 364.114 -1.2632 -1.02064 0
M  V30 3975 H 366.111 -0.865847 -4.0781 0
M  V30 3976 H 364.771 -0.0331509 -3.24683 0
M  V30 3977 H 365.782 -3.71234 -3.61118 0
M  V30 3978 H 362.459 -1.16265 -4.00985 0
M  V30 3979 H 363.849 -5.19657 -4.25918 0
M  V30 3980 N 366.569 1.04691 -1.17803 0
M  V30 3981 C 367.985 1.29963 -0.926379 0
M  V30 3982 C 368.185 1.97251 0.411635 0
M  V30 3983 O 367.241 2.24922 1.14744 0
M  V30 3984 C 368.554 2.16447 -2.08737 0
M  V30 3985 C 370.102 2.29814 -2.12496 0
M  V30 3986 C 370.577 3.19661 -3.27995 0
M  V30 3987 N 372.068 3.27247 -3.27816 0
M  V30 3988 C 372.803 3.96906 -4.13827 0
M  V30 3989 N 372.299 4.6895 -5.09959 0
M  V30 3990 N 374.092 3.93122 -4.01761 0
M  V30 3991 H 366.243 0.594182 -2.0392 0
M  V30 3992 H 368.506 0.324649 -0.890678 0
M  V30 3993 H 368.212 1.74304 -3.05469 0
M  V30 3994 H 368.086 3.17103 -2.04268 0
M  V30 3995 H 370.473 2.71196 -1.16347 0
M  V30 3996 H 370.554 1.2877 -2.21025 0
M  V30 3997 H 370.198 2.78991 -4.24413 0
M  V30 3998 H 370.128 4.20722 -3.16703 0
M  V30 3999 H 372.619 2.75921 -2.58217 0
M  V30 4000 H 372.932 5.19679 -5.71974 0
M  V30 4001 H 371.277 4.67875 -5.13924 0
M  V30 4002 H 374.468 3.35967 -3.2595 0
M  V30 4003 H 374.641 4.47139 -4.6901 0
M  V30 4004 N 368.047 0.979072 1.23499 0
M  V30 4005 C 369.01 0.523244 2.23147 0
M  V30 4006 C 370.01 -0.386406 1.56088 0
M  V30 4007 O 371.2 -0.180283 1.73265 0
M  V30 4008 C 368.332 -0.240739 3.40049 0
M  V30 4009 H 369.525 1.40432 2.64989 0
M  V30 4010 H 367.078 0.764824 1.36309 0
M  V30 4011 H 367.813 -1.13841 3.03662 0
M  V30 4012 H 367.598 0.412207 3.89927 0
M  V30 4013 H 369.088 -0.548297 4.13985 0
M  V30 4014 N 369.525 -1.3858 0.750561 0
M  V30 4015 C 370.765 -2.02032 0.310258 0
M  V30 4016 C 371.129 -1.58288 -1.08668 0
M  V30 4017 O 372.33 -2.14049 -1.62593 0
M  V30 4018 C 370.601 -3.54856 0.425647 0
M  V30 4019 S 372.16 -4.38748 0.0674797 0
M  V30 4020 H 368.978 -0.700705 0.120554 0
M  V30 4021 H 371.58 -1.69134 0.980512 0
M  V30 4022 H 370.284 -3.84182 1.44335 0
M  V30 4023 H 369.815 -3.92527 -0.261894 0
M  V30 4024 H 371.83 -4.82835 -1.14388 0
M  V30 4025 N 371.003 -0.499398 -1.49478 0
M  V30 4026 C 372.25 0.0456899 -2.02448 0
M  V30 4027 C 372.578 1.37142 -1.37921 0
M  V30 4028 O 371.833 1.89111 -0.503544 0
M  V30 4029 C 372.132 0.248424 -3.56536 0
M  V30 4030 C 371.798 -0.999107 -4.39692 0
M  V30 4031 C 370.46 -1.34108 -4.62135 0
M  V30 4032 C 372.812 -1.82842 -4.88076 0
M  V30 4033 C 370.14 -2.51191 -5.30208 0
M  V30 4034 C 372.492 -2.99076 -5.57437 0
M  V30 4035 C 371.156 -3.33655 -5.78127 0
M  V30 4036 H 370.426 0.0167191 -0.740811 0
M  V30 4037 H 373.073 -0.65923 -1.79795 0
M  V30 4038 H 371.378 1.03586 -3.77859 0
M  V30 4039 H 373.075 0.684605 -3.95113 0
M  V30 4040 H 369.665 -0.722729 -4.22463 0
M  V30 4041 H 373.849 -1.57737 -4.70566 0
M  V30 4042 H 369.105 -2.78221 -5.44429 0
M  V30 4043 H 373.279 -3.63664 -5.93904 0
M  V30 4044 H 370.906 -4.24483 -6.30649 0
M  V30 4045 N 372.481 1.55866 -0.233164 0
M  V30 4046 C 373.414 2.16794 0.712442 0
M  V30 4047 C 374.392 1.1158 1.18273 0
M  V30 4048 O 375.576 1.39897 1.26337 0
M  V30 4049 C 372.703 2.75757 1.96661 0
M  V30 4050 C 371.749 3.93902 1.63533 0
M  V30 4051 S 372.582 5.30223 0.74995 0
M  V30 4052 C 373.738 5.92631 2.01343 0
M  V30 4053 H 373.971 2.96662 0.194617 0
M  V30 4054 H 371.504 1.5439 -0.0177425 0
M  V30 4055 H 373.462 3.10367 2.68668 0
M  V30 4056 H 372.123 1.9586 2.45556 0
M  V30 4057 H 371.316 4.33702 2.56747 0
M  V30 4058 H 370.918 3.60499 0.995804 0
M  V30 4059 H 373.21 6.09312 2.96219 0
M  V30 4060 H 374.153 6.88388 1.65915 0
M  V30 4061 H 374.561 5.21571 2.15925 0
M  V30 4062 N 373.959 -0.0401083 1.57549 0
M  V30 4063 C 374.907 -1.06264 2.06908 0
M  V30 4064 C 375.901 -1.38132 0.980608 0
M  V30 4065 O 377.107 -1.37167 1.16556 0
M  V30 4066 H 373.482 -0.360166 0.660139 0
M  V30 4067 H 375.453 -0.620445 2.91878 0
M  V30 4068 C 374.202 -2.35846 2.55483 0
M  V30 4069 H 373.525 -2.12183 3.38849 0
M  V30 4070 H 374.965 -3.05765 2.93741 0
M  V30 4071 C 373.424 -3.0404 1.45126 0
M  V30 4072 O 373.954 -3.93424 0.811216 0
M  V30 4073 N 372.16 -2.65184 1.18852 0
M  V30 4074 H 371.707 -1.92584 1.71083 0
M  V30 4075 H 371.665 -3.1113 0.452244 0
M  V30 4076 N 375.437 -1.54477 -0.31217 0
M  V30 4077 C 376.385 -1.85395 -1.40469 0
M  V30 4078 C 377.379 -0.726749 -1.53019 0
M  V30 4079 O 378.585 -0.910582 -1.55269 0
M  V30 4080 H 374.96 -0.587845 -0.46898 0
M  V30 4081 H 376.931 -2.76736 -1.11623 0
M  V30 4082 C 375.68 -2.10811 -2.76503 0
M  V30 4083 H 375.003 -2.97014 -2.67625 0
M  V30 4084 H 376.443 -2.3639 -3.51988 0
M  V30 4085 C 374.902 -0.903165 -3.24568 0
M  V30 4086 O 375.432 -0.118085 -4.01526 0
M  V30 4087 N 373.638 -0.711634 -2.81752 0
M  V30 4088 H 373.185 -1.35171 -2.19286 0
M  V30 4089 H 373.143 0.0930473 -3.14262 0
M  V30 4090 N 376.915 0.57481 -1.46744 0
M  V30 4091 C 378.14 1.36341 -1.56288 0
M  V30 4092 C 378.565 1.86954 -0.207347 0
M  V30 4093 O 377.923 1.62006 0.813871 0
M  V30 4094 C 377.971 2.52147 -2.57787 0
M  V30 4095 O 377.075 3.53834 -2.11838 0
M  V30 4096 H 376.416 0.405713 -0.525636 0
M  V30 4097 H 378.946 0.696453 -1.92382 0
M  V30 4098 H 378.956 2.98958 -2.77648 0
M  V30 4099 H 377.631 2.14663 -3.5622 0
M  V30 4100 H 376.208 3.1345 -2.01999 0
M  V30 4101 N 378.394 1.34581 0.820102 0
M  V30 4102 C 379.642 1.26845 1.57336 0
M  V30 4103 C 379.963 -0.160667 1.94337 0
M  V30 4104 O 379.233 -1.09396 1.6251 0
M  V30 4105 H 377.813 0.466514 0.583415 0
M  V30 4106 H 380.475 1.68526 0.979027 0
M  V30 4107 H 379.571 1.87513 2.4949 0
M  V30 4108 N 379.872 -1.04064 1.18357 0
M  V30 4109 C 381.121 -1.76662 0.973313 0
M  V30 4110 C 381.434 -1.89154 -0.497991 0
M  V30 4111 O 382.64 -2.58606 -0.826762 0
M  V30 4112 C 381.096 -3.17624 1.69242 0
M  V30 4113 C 380.704 -3.13225 3.20303 0
M  V30 4114 C 382.448 -3.946 1.56497 0
M  V30 4115 C 380.355 -4.49046 3.84853 0
M  V30 4116 H 379.285 -0.662214 0.36054 0
M  V30 4117 H 381.936 -1.16553 1.41731 0
M  V30 4118 H 380.318 -3.78129 1.1762 0
M  V30 4119 H 381.492 -2.62172 3.78949 0
M  V30 4120 H 379.807 -2.49749 3.33189 0
M  V30 4121 H 382.404 -4.95042 2.02084 0
M  V30 4122 H 382.747 -4.13074 0.517243 0
M  V30 4123 H 383.28 -3.4067 2.05399 0
M  V30 4124 H 380.019 -4.35777 4.89672 0
M  V30 4125 H 379.539 -5.00203 3.30994 0
M  V30 4126 H 381.218 -5.17961 3.87718 0
M  V30 4127 N 381.35 -0.985608 -1.22978 0
M  V30 4128 C 382.28 -0.549649 -2.26939 0
M  V30 4129 C 383.261 0.419803 -1.64838 0
M  V30 4130 O 384.446 0.31203 -1.91677 0
M  V30 4131 C 381.576 0.143652 -3.47003 0
M  V30 4132 C 380.53 -0.743606 -4.21491 0
M  V30 4133 C 379.856 0.0822027 -5.34637 0
M  V30 4134 C 381.156 -2.03694 -4.80943 0
M  V30 4135 H 382.85 -1.41862 -2.63658 0
M  V30 4136 H 380.396 -0.683571 -1.26741 0
M  V30 4137 H 382.349 0.459985 -4.18882 0
M  V30 4138 H 381.073 1.04711 -3.09359 0
M  V30 4139 H 379.732 -1.04347 -3.51436 0
M  V30 4140 H 379.38 0.986359 -4.93234 0
M  V30 4141 H 379.08 -0.508377 -5.85397 0
M  V30 4142 H 380.604 0.392797 -6.09335 0
M  V30 4143 H 382.018 -1.78504 -5.44802 0
M  V30 4144 H 380.415 -2.57573 -5.42011 0
M  V30 4145 H 381.485 -2.72042 -4.01399 0
M  V30 4146 N 382.828 1.3818 -0.7579 0
M  V30 4147 C 383.738 2.3421 -0.135247 0
M  V30 4148 C 384.754 1.59487 0.695683 0
M  V30 4149 O 385.93 1.91657 0.618832 0
M  V30 4150 C 382.995 3.3862 0.744139 0
M  V30 4151 C 382.056 4.2918 -0.101658 0
M  V30 4152 C 381.289 5.28603 0.735851 0
M  V30 4153 O 381.512 5.35166 1.97366 0
M  V30 4154 O 380.446 6.01707 0.152372 0
M  V30 4155 H 384.272 2.8916 -0.928436 0
M  V30 4156 H 381.857 1.40101 -0.518855 0
M  V30 4157 H 383.739 4.02539 1.2466 0
M  V30 4158 H 382.414 2.86019 1.51575 0
M  V30 4159 H 381.321 3.68407 -0.650167 0
M  V30 4160 H 382.654 4.85048 -0.836024 0
M  V30 4161 N 384.306 0.507319 1.49211 0
M  V30 4162 C 385.554 -0.0348839 2.0207 0
M  V30 4163 C 385.875 -1.36898 1.38866 0
M  V30 4164 O 385.145 -1.88133 0.546151 0
M  V30 4165 H 383.725 -0.0158812 0.746831 0
M  V30 4166 H 386.387 0.665998 1.83168 0
M  V30 4167 H 385.483 -0.159917 3.1169 0
M  V30 4168 N 385.784 -1.5574 0.241426 0
M  V30 4169 C 387.031 -1.9881 -0.384836 0
M  V30 4170 C 387.359 -1.12947 -1.58346 0
M  V30 4171 O 386.614 -0.178993 -1.9488 0
M  V30 4172 C 386.913 -3.47308 -0.843317 0
M  V30 4173 C 386.579 -4.50223 0.246946 0
M  V30 4174 C 385.241 -4.78088 0.546399 0
M  V30 4175 C 387.593 -5.11841 0.983282 0
M  V30 4176 C 384.921 -5.64846 1.58636 0
M  V30 4177 C 387.273 -5.99727 2.01272 0
M  V30 4178 C 385.937 -6.25927 2.31888 0
M  V30 4179 H 385.207 -0.727496 -0.140821 0
M  V30 4180 H 387.854 -1.8831 0.348106 0
M  V30 4181 H 386.159 -3.55112 -1.65537 0
M  V30 4182 H 387.856 -3.78017 -1.33806 0
M  V30 4183 H 384.446 -4.286 0.00340639 0
M  V30 4184 H 388.63 -4.90366 0.765182 0
M  V30 4185 H 383.886 -5.83403 1.82896 0
M  V30 4186 H 388.06 -6.46517 2.58823 0
M  V30 4187 H 385.687 -6.92949 3.12611 0
M  V30 4188 N 387.262 0.0317525 -1.57568 0
M  V30 4189 C 388.539 0.758366 -1.803 0
M  V30 4190 C 388.919 1.93718 -0.838845 0
M  V30 4191 O 388.267 2.28187 0.119571 0
M  V30 4192 C 388.477 1.19392 -3.27943 0
M  V30 4193 C 389.825 1.61094 -3.92854 0
M  V30 4194 O 390.849 1.28857 -3.32076 0
M  V30 4195 O 389.708 2.20918 -4.99858 0
M  V30 4196 H 386.802 0.366514 -0.741348 0
M  V30 4197 H 389.348 0.00873765 -1.69698 0
M  V30 4198 H 388.12 0.352275 -3.89711 0
M  V30 4199 H 387.743 2.00365 -3.43424 0
M  V30 4200 N 388.74 1.54641 0.303973 0
M  V30 4201 C 390.151 1.64811 0.877163 0
M  V30 4202 C 390.502 0.554838 1.88191 0
M  V30 4203 O 389.627 -0.309033 2.14182 0
M  V30 4204 C 390.222 2.9876 1.59775 0
M  V30 4205 C 388.781 3.11061 2.11938 0
M  V30 4206 C 387.928 2.60479 0.951097 0
M  V30 4207 H 390.879 1.58493 0.0810486 0
M  V30 4208 H 390.9 2.90017 2.46314 0
M  V30 4209 H 390.412 3.7831 0.866226 0
M  V30 4210 H 388.513 2.36225 2.88146 0
M  V30 4211 H 388.626 4.17171 2.35595 0
M  V30 4212 H 386.99 2.16859 1.33583 0
M  V30 4213 H 387.773 3.42504 0.233581 0
M  V30 4214 N 390.218 -0.567019 1.47046 0
M  V30 4215 C 391.629 -1.14916 1.47143 0
M  V30 4216 C 391.98 -1.94954 0.220767 0
M  V30 4217 O 391.105 -2.05602 -0.67505 0
M  V30 4218 C 391.7 -2.09069 2.666 0
M  V30 4219 C 390.259 -2.62575 2.69687 0
M  V30 4220 C 389.406 -1.38755 2.40088 0
M  V30 4221 H 392.357 -0.354126 1.54699 0
M  V30 4222 H 392.378 -2.92789 2.43011 0
M  V30 4223 H 391.89 -1.50789 3.57609 0
M  V30 4224 H 389.991 -3.24681 1.82792 0
M  V30 4225 H 390.104 -3.04239 3.70102 0
M  V30 4226 H 388.468 -1.69098 1.90468 0
M  V30 4227 H 389.251 -0.822822 3.33293 0
M  V30 4228 N 391.696 -1.35014 -0.812953 0
M  V30 4229 C 392.646 -1.23959 -1.91359 0
M  V30 4230 C 393.63 -0.136306 -1.60322 0
M  V30 4231 O 394.822 -0.366925 -1.73155 0
M  V30 4232 C 391.951 -1.00736 -3.28188 0
M  V30 4233 C 391.037 -2.15426 -3.65311 0
M  V30 4234 N 391.428 -3.40612 -3.73921 0
M  V30 4235 C 389.726 -2.06672 -3.95225 0
M  V30 4236 C 390.427 -4.15994 -4.06601 0
M  V30 4237 N 389.403 -3.44685 -4.20349 0
M  V30 4238 H 393.205 -2.18815 -1.96208 0
M  V30 4239 H 390.719 -1.27395 -1.00718 0
M  V30 4240 H 392.716 -0.909052 -4.06868 0
M  V30 4241 H 391.376 -0.067586 -3.2463 0
M  V30 4242 H 392.387 -3.75043 -3.5716 0
M  V30 4243 H 389.064 -1.20511 -3.99729 0
M  V30 4244 H 390.454 -5.24145 -4.20382 0
M  V30 4245 N 393.175 1.03435 -1.18907 0
M  V30 4246 C 394.586 1.58195 -0.991523 0
M  V30 4247 C 394.937 1.90801 0.457081 0
M  V30 4248 O 394.062 1.70272 1.33553 0
M  V30 4249 C 394.657 2.87432 -1.79355 0
M  V30 4250 C 393.216 3.38785 -1.64017 0
M  V30 4251 C 392.363 2.12292 -1.78402 0
M  V30 4252 H 395.314 0.860299 -1.33359 0
M  V30 4253 H 395.335 3.58096 -1.28638 0
M  V30 4254 H 394.847 2.63669 -2.84781 0
M  V30 4255 H 392.948 3.67547 -0.611536 0
M  V30 4256 H 393.061 4.12186 -2.44212 0
M  V30 4257 H 391.425 2.23901 -1.2141 0
M  V30 4258 H 392.208 1.90977 -2.85277 0
M  V30 4259 N 394.653 0.992116 1.22453 0
M  V30 4260 C 395.893 0.675727 1.92907 0
M  V30 4261 C 396.257 -0.777762 1.75542 0
M  V30 4262 O 397.458 -1.20553 2.40251 0
M  V30 4263 C 395.729 1.0696 3.4102 0
M  V30 4264 S 397.288 0.871456 4.30059 0
M  V30 4265 H 394.106 0.247089 0.666684 0
M  V30 4266 H 396.708 1.27423 1.48269 0
M  V30 4267 H 395.412 2.12383 3.51172 0
M  V30 4268 H 394.943 0.462858 3.90668 0
M  V30 4269 H 396.958 -0.238436 4.95627 0
M  V30 4270 N 396.131 -1.37776 0.765217 0
M  V30 4271 C 397.379 -1.99454 0.325943 0
M  V30 4272 C 397.7 -1.61049 -1.09947 0
M  V30 4273 O 396.97 -0.872821 -1.75381 0
M  V30 4274 H 395.55 -0.737697 0.117525 0
M  V30 4275 H 398.212 -1.68359 0.981895 0
M  V30 4276 H 397.308 -3.09547 0.398353 0
M  V30 4277 N 397.609 -0.515225 -1.4894 0
M  V30 4278 C 398.855 0.0242508 -2.02785 0
M  V30 4279 C 399.188 1.35323 -1.39289 0
M  V30 4280 O 398.463 1.87041 -0.533469 0
M  V30 4281 C 398.746 0.16184 -3.59736 0
M  V30 4282 C 398.599 -1.19127 -4.33738 0
M  V30 4283 C 399.918 0.895719 -4.30888 0
M  V30 4284 H 397.037 0.00733914 -0.736963 0
M  V30 4285 H 399.679 -0.669395 -1.77818 0
M  V30 4286 H 397.829 0.752624 -3.8114 0
M  V30 4287 H 399.501 -1.82202 -4.23792 0
M  V30 4288 H 397.744 -1.77695 -3.95736 0
M  V30 4289 H 398.415 -1.04815 -5.41957 0
M  V30 4290 H 400.891 0.394528 -4.14225 0
M  V30 4291 H 399.767 0.960859 -5.40425 0
M  V30 4292 H 400.028 1.9427 -3.97129 0
M  V30 4293 N 399.087 1.5561 -0.249682 0
M  V30 4294 C 400.019 2.18834 0.681496 0
M  V30 4295 C 401.032 1.16546 1.1367 0
M  V30 4296 O 402.221 1.43397 1.06299 0
M  V30 4297 C 399.321 2.77992 1.9384 0
M  V30 4298 C 398.494 4.05725 1.63419 0
M  V30 4299 C 397.553 4.49174 2.74096 0
M  V30 4300 O 396.579 5.15492 2.41364 0
M  V30 4301 N 397.781 4.17191 4.03649 0
M  V30 4302 H 400.546 2.9937 0.140514 0
M  V30 4303 H 398.107 1.6175 -0.0697541 0
M  V30 4304 H 400.099 3.04015 2.67127 0
M  V30 4305 H 398.669 2.01596 2.38909 0
M  V30 4306 H 397.889 3.87261 0.736358 0
M  V30 4307 H 399.177 4.88999 1.40562 0
M  V30 4308 H 398.575 3.63955 4.33074 0
M  V30 4309 H 397.132 4.48043 4.73393 0
M  V30 4310 N 400.565 -0.0233959 1.57583 0
M  V30 4311 C 401.813 -0.711654 1.89156 0
M  V30 4312 C 402.134 -1.75591 0.848096 0
M  V30 4313 O 401.404 -1.95547 -0.117566 0
M  V30 4314 H 399.984 -0.265835 0.698098 0
M  V30 4315 H 402.646 0.0119948 1.94896 0
M  V30 4316 H 401.742 -1.19766 2.88206 0
M  V30 4317 N 402.043 -1.548 -0.295768 0
M  V30 4318 C 403.283 -1.76069 -1.03823 0
M  V30 4319 C 403.647 -0.537992 -1.84309 0
M  V30 4320 O 404.848 -0.628514 -2.61349 0
M  V30 4321 C 403.119 -3.01705 -1.91596 0
M  V30 4322 S 404.678 -3.43998 -2.72416 0
M  V30 4323 H 401.496 -0.618852 -0.350062 0
M  V30 4324 H 404.098 -1.93009 -0.31106 0
M  V30 4325 H 402.802 -3.88812 -1.31351 0
M  V30 4326 H 402.333 -2.87366 -2.68671 0
M  V30 4327 H 404.348 -3.0148 -3.94112 0
M  V30 4328 N 403.521 0.559213 -1.47345 0
M  V30 4329 C 404.932 1.14134 -1.47751 0
M  V30 4330 C 405.283 1.94834 -0.231103 0
M  V30 4331 O 404.408 2.05957 0.664137 0
M  V30 4332 C 405.003 2.07653 -2.67705 0
M  V30 4333 C 403.562 2.61141 -2.71076 0
M  V30 4334 C 402.709 1.3748 -2.40821 0
M  V30 4335 H 405.66 0.345917 -1.54884 0
M  V30 4336 H 405.681 2.91497 -2.44561 0
M  V30 4337 H 405.193 1.4889 -3.58404 0
M  V30 4338 H 403.294 3.23707 -1.84511 0
M  V30 4339 H 403.407 3.02272 -3.7171 0
M  V30 4340 H 401.771 1.68086 -1.91362 0
M  V30 4341 H 402.554 0.805135 -3.33725 0
M  V30 4342 N 404.999 1.35443 0.805782 0
M  V30 4343 C 405.962 1.28301 1.89925 0
M  V30 4344 C 406.962 0.194285 1.59622 0
M  V30 4345 O 408.152 0.448036 1.6834 0
M  V30 4346 C 405.284 0.984997 3.2636 0
M  V30 4347 H 406.477 2.2553 1.97677 0
M  V30 4348 H 404.03 1.19979 1.00173 0
M  V30 4349 H 404.765 0.016603 3.24296 0
M  V30 4350 H 404.55 1.77269 3.4974 0
M  V30 4351 H 406.04 0.960651 4.064 0
M  V30 4352 N 406.477 -1.02803 1.19454 0
M  V30 4353 C 407.725 -1.75869 0.995722 0
M  V30 4354 C 408.046 -1.89138 -0.474543 0
M  V30 4355 O 407.316 -1.42558 -1.34366 0
M  V30 4356 H 405.896 -0.651511 0.365435 0
M  V30 4357 H 408.558 -1.24004 1.50363 0
M  V30 4358 H 407.654 -2.76661 1.44447 0
M  V30 4359 N 407.956 -0.998596 -1.21925 0
M  V30 4360 C 409.186 -0.695276 -1.94549 0
M  V30 4361 C 409.594 0.745079 -1.73911 0
M  V30 4362 O 408.937 1.51507 -1.03881 0
M  V30 4363 C 408.999 -0.928485 -3.47303 0
M  V30 4364 C 408.663 -2.35443 -3.91683 0
M  V30 4365 C 409.66 -3.33428 -3.98901 0
M  V30 4366 C 407.345 -2.69038 -4.24174 0
M  V30 4367 C 409.339 -4.63079 -4.37992 0
M  V30 4368 C 407.026 -3.98906 -4.62944 0
M  V30 4369 C 408.024 -4.95738 -4.69822 0
M  V30 4370 O 407.712 -6.23285 -5.07711 0
M  V30 4371 H 407.444 -0.255902 -0.625692 0
M  V30 4372 H 409.998 -1.33767 -1.5587 0
M  V30 4373 H 408.228 -0.228917 -3.86022 0
M  V30 4374 H 409.917 -0.619539 -4.01144 0
M  V30 4375 H 410.683 -3.08807 -3.73983 0
M  V30 4376 H 406.562 -1.94367 -4.18022 0
M  V30 4377 H 410.106 -5.38658 -4.43275 0
M  V30 4378 H 406.003 -4.23314 -4.87314 0
M  V30 4379 H 406.771 -6.27306 -5.25766 0
M  V30 4380 N 409.434 1.37368 -0.772513 0
M  V30 4381 C 410.344 2.34053 -0.160081 0
M  V30 4382 C 411.36 1.60216 0.678728 0
M  V30 4383 O 412.536 1.92303 0.59847 0
M  V30 4384 C 409.601 3.3939 0.708182 0
M  V30 4385 C 408.662 4.29048 -0.147172 0
M  V30 4386 C 407.895 5.29354 0.679744 0
M  V30 4387 O 408.118 5.3723 1.91678 0
M  V30 4388 O 407.052 6.01835 0.0885444 0
M  V30 4389 H 410.878 2.88159 -0.959053 0
M  V30 4390 H 408.463 1.39543 -0.533685 0
M  V30 4391 H 410.345 4.03839 1.20384 0
M  V30 4392 H 409.02 2.8761 1.48533 0
M  V30 4393 H 407.927 3.67697 -0.689205 0
M  V30 4394 H 409.26 4.84134 -0.887423 0
M  V30 4395 N 410.912 0.523116 1.48665 0
M  V30 4396 C 412.152 -0.0115588 2.04397 0
M  V30 4397 C 412.516 -1.32225 1.39214 0
M  V30 4398 O 413.717 -1.94253 1.85793 0
M  V30 4399 C 411.988 -0.138119 3.57133 0
M  V30 4400 S 413.547 -0.623849 4.34343 0
M  V30 4401 H 410.365 0.00877706 0.710946 0
M  V30 4402 H 412.967 0.702116 1.82457 0
M  V30 4403 H 411.671 0.820748 4.02109 0
M  V30 4404 H 411.202 -0.876377 3.83514 0
M  V30 4405 H 413.217 -1.8895 4.58816 0
M  V30 4406 N 412.39 -1.55475 0.257931 0
M  V30 4407 C 413.337 -2.21837 -0.636939 0
M  V30 4408 C 414.307 -1.18596 -1.16294 0
M  V30 4409 O 415.492 -1.47081 -1.21539 0
M  V30 4410 C 412.632 -2.9301 -1.82317 0
M  V30 4411 C 411.745 -4.10931 -1.33265 0
M  V30 4412 C 410.88 -4.69791 -2.47931 0
M  V30 4413 C 409.919 -5.7994 -1.95796 0
M  V30 4414 N 409.056 -6.32935 -3.0387 0
M  V30 4415 H 413.896 -2.9793 -0.0643591 0
M  V30 4416 H 411.433 -1.47086 -0.0200031 0
M  V30 4417 H 413.391 -3.3248 -2.52018 0
M  V30 4418 H 412.021 -2.1937 -2.36805 0
M  V30 4419 H 411.073 -3.76699 -0.52931 0
M  V30 4420 H 412.385 -4.90417 -0.910654 0
M  V30 4421 H 411.539 -5.11892 -3.25656 0
M  V30 4422 H 410.278 -3.89545 -2.93438 0
M  V30 4423 H 409.283 -5.37305 -1.16546 0
M  V30 4424 H 410.508 -6.62043 -1.51246 0
M  V30 4425 H 408.454 -5.55591 -3.48791 0
M  V30 4426 H 408.371 -7.07645 -2.66035 0
M  V30 4427 H 409.639 -6.79695 -3.81621 0
M  V30 4428 N 413.868 0.0150385 -1.57593 0
M  V30 4429 C 415.145 0.7392 -1.81094 0
M  V30 4430 C 415.525 1.92817 -0.859344 0
M  V30 4431 O 414.873 2.28301 0.095362 0
M  V30 4432 C 415.083 1.15907 -3.29191 0
M  V30 4433 C 416.431 1.56918 -3.9454 0
M  V30 4434 O 417.455 1.25328 -3.33424 0
M  V30 4435 O 416.314 2.15604 -5.02173 0
M  V30 4436 H 413.408 0.358631 -0.745193 0
M  V30 4437 H 415.954 -0.00926156 -1.69697 0
M  V30 4438 H 414.726 0.310921 -3.90063 0
M  V30 4439 H 414.349 1.96711 -3.45529 0
M  V30 4440 N 415.346 1.54954 0.287554 0
M  V30 4441 C 416.592 1.76059 1.01856 0
M  V30 4442 C 416.947 0.547056 1.84459 0
M  V30 4443 O 416.24 -0.460442 1.85985 0
M  V30 4444 C 416.434 2.99833 1.94512 0
M  V30 4445 C 416.263 4.33108 1.21026 0
M  V30 4446 C 415.033 4.96632 0.931896 0
M  V30 4447 C 417.231 5.10694 0.607949 0
M  V30 4448 N 415.213 6.13668 0.168716 0
M  V30 4449 C 416.584 6.19996 -0.0217865 0
M  V30 4450 C 418.639 4.95236 0.514338 0
M  V30 4451 C 417.342 7.15524 -0.736092 0
M  V30 4452 C 419.368 5.91106 -0.186343 0
M  V30 4453 C 418.73 6.99786 -0.804875 0
M  V30 4454 H 414.829 0.696679 0.355193 0
M  V30 4455 H 417.413 1.92441 0.295741 0
M  V30 4456 H 415.584 2.84853 2.64033 0
M  V30 4457 H 417.316 3.09405 2.60865 0
M  V30 4458 H 414.071 4.57255 1.23348 0
M  V30 4459 H 414.495 6.76705 -0.199781 0
M  V30 4460 H 419.137 4.11328 0.978234 0
M  V30 4461 H 416.855 7.98964 -1.21172 0
M  V30 4462 H 420.441 5.81224 -0.258897 0
M  V30 4463 H 419.321 7.72694 -1.33843 0
M  V30 4464 N 416.824 -0.551391 1.4764 0
M  V30 4465 C 418.073 -1.30467 1.53822 0
M  V30 4466 C 418.386 -1.94495 0.207661 0
M  V30 4467 O 419.592 -2.71099 0.147533 0
M  V30 4468 C 418.048 -2.36616 2.71184 0
M  V30 4469 C 417.656 -1.78754 4.10793 0
M  V30 4470 C 419.4 -3.13088 2.86663 0
M  V30 4471 C 417.307 -2.82717 5.19447 0
M  V30 4472 H 416.237 -0.490584 0.572576 0
M  V30 4473 H 418.888 -0.58494 1.73927 0
M  V30 4474 H 417.27 -3.11529 2.4447 0
M  V30 4475 H 418.444 -1.10173 4.47435 0
M  V30 4476 H 416.759 -1.14846 4.00249 0
M  V30 4477 H 419.356 -3.90736 3.65007 0
M  V30 4478 H 419.699 -3.67635 1.95321 0
M  V30 4479 H 420.232 -2.45288 3.13175 0
M  V30 4480 H 416.971 -2.33018 6.12685 0
M  V30 4481 H 416.491 -3.4969 4.87316 0
M  V30 4482 H 418.17 -3.46102 5.46646 0
M  V30 4483 N 418.302 -1.35869 -0.798587 0
M  V30 4484 C 419.55 -1.29332 -1.55298 0
M  V30 4485 C 419.871 0.129729 -1.94568 0
M  V30 4486 O 419.141 1.06796 -1.6423 0
M  V30 4487 H 417.721 -0.475737 -0.57592 0
M  V30 4488 H 420.383 -1.70062 -0.952093 0
M  V30 4489 H 419.479 -1.91458 -2.46476 0
M  V30 4490 N 419.78 1.02168 -1.19998 0
M  V30 4491 C 421.191 1.57135 -1.00825 0
M  V30 4492 C 421.542 1.91276 0.436818 0
M  V30 4493 O 420.667 1.71679 1.3174 0
M  V30 4494 C 421.262 2.85514 -1.82393 0
M  V30 4495 C 419.821 3.37027 -1.67601 0
M  V30 4496 C 418.968 2.10388 -1.80644 0
M  V30 4497 H 421.919 0.846106 -1.34264 0
M  V30 4498 H 421.94 3.56711 -1.32429 0
M  V30 4499 H 421.452 2.60634 -2.87561 0
M  V30 4500 H 419.553 3.66878 -0.650485 0
M  V30 4501 H 419.666 4.09572 -2.4857 0
M  V30 4502 H 418.03 2.22601 -1.23778 0
M  V30 4503 H 418.813 1.8794 -2.87286 0
M  V30 4504 N 421.258 1.00505 1.21394 0
M  V30 4505 C 422.206 0.558623 2.25792 0
M  V30 4506 C 423.2 -0.396848 1.64686 0
M  V30 4507 O 424.406 -0.268035 1.77993 0
M  V30 4508 H 420.781 0.1623 0.734277 0
M  V30 4509 H 422.752 1.4503 2.60785 0
M  V30 4510 C 421.501 -0.0989574 3.47559 0
M  V30 4511 H 420.824 0.627225 3.94849 0
M  V30 4512 H 422.264 -0.3746 4.22342 0
M  V30 4513 C 420.723 -1.33817 3.09184 0
M  V30 4514 O 421.253 -2.43252 3.19674 0
M  V30 4515 N 419.459 -1.21793 2.63846 0
M  V30 4516 H 419.006 -0.32746 2.5551 0
M  V30 4517 H 418.964 -2.04809 2.38539 0
M  V30 4518 N 422.737 -1.36956 0.779787 0
M  V30 4519 C 424.014 -1.93697 0.272156 0
M  V30 4520 C 424.394 -1.71267 -1.23413 0
M  V30 4521 O 423.742 -1.06607 -2.02107 0
M  V30 4522 C 423.952 -3.42812 0.654291 0
M  V30 4523 C 425.3 -4.19921 0.628602 0
M  V30 4524 O 426.324 -3.51209 0.594172 0
M  V30 4525 O 425.183 -5.42465 0.662864 0
M  V30 4526 H 422.277 -0.824447 0.0649286 0
M  V30 4527 H 424.823 -1.46196 0.861682 0
M  V30 4528 H 423.595 -3.52754 1.69353 0
M  V30 4529 H 423.218 -3.97582 0.0381369 0
M  V30 4530 N 424.215 -0.530993 -1.48385 0
M  V30 4531 C 425.463 0.00273189 -2.021 0
M  V30 4532 C 425.784 1.34672 -1.41027 0
M  V30 4533 O 425.054 1.8724 -0.576012 0
M  V30 4534 H 423.634 0.00399774 -0.746989 0
M  V30 4535 H 426.296 -0.695054 -1.82085 0
M  V30 4536 H 425.392 0.11031 -3.11905 0
M  V30 4537 N 425.693 1.55336 -0.266172 0
M  V30 4538 C 426.942 1.98574 0.353749 0
M  V30 4539 C 427.255 1.15789 1.57646 0
M  V30 4540 O 428.461 1.49129 2.26876 0
M  V30 4541 C 426.917 3.53403 0.680747 0
M  V30 4542 C 426.525 4.44953 -0.52165 0
M  V30 4543 C 428.269 4.05251 1.26379 0
M  V30 4544 C 426.176 5.91156 -0.169736 0
M  V30 4545 H 425.106 0.741643 0.135949 0
M  V30 4546 H 427.757 1.79743 -0.369421 0
M  V30 4547 H 426.139 3.68001 1.46257 0
M  V30 4548 H 427.313 4.42121 -1.29869 0
M  V30 4549 H 425.628 4.03691 -1.02093 0
M  V30 4550 H 428.225 5.12021 1.54074 0
M  V30 4551 H 428.568 3.53749 2.19471 0
M  V30 4552 H 429.101 3.94057 0.544447 0
M  V30 4553 H 425.84 6.46736 -1.0683 0
M  V30 4554 H 425.36 5.97079 0.570717 0
M  V30 4555 H 427.039 6.4655 0.241245 0
M  V30 4556 N 427.171 -0.0066808 1.57599 0
M  V30 4557 C 428.399 -0.704087 1.94551 0
M  V30 4558 C 428.814 -1.67677 0.867746 0
M  V30 4559 O 428.171 -1.8185 -0.153925 0
M  V30 4560 C 428.222 -1.44177 3.31505 0
M  V30 4561 O 427.943 -0.508097 4.35144 0
M  V30 4562 C 429.444 -2.23429 3.82876 0
M  V30 4563 H 426.664 -0.196523 0.641576 0
M  V30 4564 H 429.208 0.042453 2.04456 0
M  V30 4565 H 427.363 -2.13999 3.22929 0
M  V30 4566 H 427.777 -1.02782 5.14331 0
M  V30 4567 H 429.251 -2.70552 4.8115 0
M  V30 4568 H 429.728 -3.05818 3.15233 0
M  V30 4569 H 430.334 -1.58636 3.94607 0
M  V30 4570 N 428.649 -1.55105 -0.279332 0
M  V30 4571 C 429.581 -1.83952 -1.36727 0
M  V30 4572 C 430.594 -0.723642 -1.45833 0
M  V30 4573 O 431.783 -1.00141 -1.47763 0
M  V30 4574 C 428.883 -1.98183 -2.74912 0
M  V30 4575 C 428.056 -3.28787 -2.88475 0
M  V30 4576 C 427.115 -3.33162 -4.07295 0
M  V30 4577 O 426.141 -4.06576 -3.98353 0
M  V30 4578 N 427.343 -2.60109 -5.18964 0
M  V30 4579 H 430.108 -2.77853 -1.12328 0
M  V30 4580 H 427.669 -1.54945 -0.469442 0
M  V30 4581 H 429.661 -1.98488 -3.52682 0
M  V30 4582 H 428.231 -1.11177 -2.92162 0
M  V30 4583 H 427.451 -3.41075 -1.97641 0
M  V30 4584 H 428.739 -4.14933 -2.94463 0
M  V30 4585 H 428.137 -2.00136 -5.29115 0
M  V30 4586 H 426.694 -2.66143 -5.94988 0
M  V30 4587 N 430.127 0.543554 -1.4793 0
M  V30 4588 C 431.374 1.30008 -1.55255 0
M  V30 4589 C 431.702 1.93245 -0.220612 0
M  V30 4590 O 430.957 1.79141 0.787843 0
M  V30 4591 C 431.256 2.42078 -2.62932 0
M  V30 4592 C 430.922 1.96583 -4.0579 0
M  V30 4593 C 429.584 1.83893 -4.44676 0
M  V30 4594 C 431.936 1.62034 -4.95373 0
M  V30 4595 C 429.264 1.34969 -5.70964 0
M  V30 4596 C 431.616 1.14577 -6.22137 0
M  V30 4597 C 430.28 1.00493 -6.59892 0
M  V30 4598 H 429.55 0.475735 -0.568117 0
M  V30 4599 H 432.197 0.608075 -1.81589 0
M  V30 4600 H 430.502 3.16892 -2.30406 0
M  V30 4601 H 432.199 3.00236 -2.65818 0
M  V30 4602 H 428.789 2.07407 -3.75074 0
M  V30 4603 H 432.973 1.70705 -4.66019 0
M  V30 4604 H 428.229 1.2274 -5.98953 0
M  V30 4605 H 432.403 0.869109 -6.90955 0
M  V30 4606 H 430.03 0.623624 -7.57638 0
M  V30 4607 N 431.605 1.3629 0.791371 0
M  V30 4608 C 432.882 1.20962 1.53712 0
M  V30 4609 C 433.262 -0.205021 2.10102 0
M  V30 4610 O 432.61 -1.21042 1.93807 0
M  V30 4611 C 432.82 2.29002 2.63361 0
M  V30 4612 C 434.168 2.65572 3.31295 0
M  V30 4613 O 435.192 2.2803 2.73643 0
M  V30 4614 O 434.051 3.3018 4.35481 0
M  V30 4615 H 431.145 0.47086 0.679867 0
M  V30 4616 H 433.691 1.48016 0.830021 0
M  V30 4617 H 432.463 3.2382 2.19674 0
M  V30 4618 H 432.086 2.03303 3.41692 0
M  V30 4619 N 433.083 -1.0153 1.20538 0
M  V30 4620 C 434.031 -2.12215 0.952235 0
M  V30 4621 C 435.025 -1.69123 -0.0968735 0
M  V30 4622 O 436.231 -1.7992 0.0536006 0
M  V30 4623 H 432.606 -0.693576 0.290613 0
M  V30 4624 H 434.577 -2.3075 1.89201 0
M  V30 4625 C 433.326 -3.43755 0.522287 0
M  V30 4626 H 432.649 -3.7734 1.32115 0
M  V30 4627 H 434.089 -4.22254 0.384389 0
M  V30 4628 C 432.548 -3.28088 -0.765489 0
M  V30 4629 O 433.078 -3.57921 -1.8236 0
M  V30 4630 N 431.284 -2.81333 -0.728011 0
M  V30 4631 H 430.831 -2.57255 0.133332 0
M  V30 4632 H 430.789 -2.71232 -1.58999 0
M  V30 4633 N 434.561 -1.01147 -1.20859 0
M  V30 4634 C 435.81 -0.693214 -1.89413 0
M  V30 4635 C 436.123 0.779969 -1.79376 0
M  V30 4636 O 437.329 1.21057 -2.43017 0
M  V30 4637 C 435.785 -1.18949 -3.39675 0
M  V30 4638 C 435.393 -2.68921 -3.58309 0
M  V30 4639 C 437.137 -0.94642 -4.13815 0
M  V30 4640 C 435.044 -3.12056 -5.0237 0
M  V30 4641 H 433.974 -0.255595 -0.709357 0
M  V30 4642 H 436.625 -1.22349 -1.36759 0
M  V30 4643 H 435.007 -0.587228 -3.91622 0
M  V30 4644 H 436.181 -3.34652 -3.16772 0
M  V30 4645 H 434.496 -2.91314 -2.97532 0
M  V30 4646 H 437.093 -1.24417 -5.20023 0
M  V30 4647 H 437.436 0.117219 -4.16135 0
M  V30 4648 H 437.969 -1.5118 -3.67953 0
M  V30 4649 H 434.708 -4.17674 -5.05202 0
M  V30 4650 H 434.228 -2.51041 -5.44737 0
M  V30 4651 H 435.907 -3.04403 -5.70918 0
M  V30 4652 N 436.039 1.36541 -0.78704 0
M  V30 4653 C 436.969 2.32659 -0.197992 0
M  V30 4654 C 437.95 1.56533 0.665697 0
M  V30 4655 O 439.135 1.84698 0.60001 0
M  V30 4656 C 436.265 3.40778 0.669901 0
M  V30 4657 C 435.219 4.27897 -0.0937039 0
M  V30 4658 C 434.545 5.27163 0.894629 0
M  V30 4659 C 435.845 5.06334 -1.28154 0
M  V30 4660 H 437.539 2.82171 -1.00099 0
M  V30 4661 H 435.085 1.35665 -0.482793 0
M  V30 4662 H 437.038 4.07008 1.09191 0
M  V30 4663 H 435.762 2.89827 1.50558 0
M  V30 4664 H 434.421 3.6322 -0.49666 0
M  V30 4665 H 434.069 4.72486 1.72527 0
M  V30 4666 H 433.769 5.86317 0.388149 0
M  V30 4667 H 435.293 5.96266 1.31525 0
M  V30 4668 H 436.707 5.65617 -0.93541 0
M  V30 4669 H 435.104 5.74888 -1.72115 0
M  V30 4670 H 436.174 4.38114 -2.07807 0
M  V30 4671 N 437.518 0.538854 1.48102 0
M  V30 4672 C 438.765 0.0080018 2.02498 0
M  V30 4673 C 439.093 -1.33437 1.41509 0
M  V30 4674 O 438.348 -1.87709 0.553507 0
M  V30 4675 C 438.647 -0.153808 3.57069 0
M  V30 4676 C 438.313 1.11533 4.36888 0
M  V30 4677 C 436.975 1.46314 4.58417 0
M  V30 4678 C 439.327 1.95718 4.83057 0
M  V30 4679 C 436.655 2.6516 5.23361 0
M  V30 4680 C 439.007 3.13751 5.49312 0
M  V30 4681 C 437.671 3.48866 5.69077 0
M  V30 4682 H 436.941 0.00292807 0.740994 0
M  V30 4683 H 439.588 0.706668 1.77984 0
M  V30 4684 H 437.893 -0.935309 3.80472 0
M  V30 4685 H 439.59 -0.579607 3.96789 0
M  V30 4686 H 436.18 0.834484 4.20398 0
M  V30 4687 H 440.364 1.70158 4.66219 0
M  V30 4688 H 435.62 2.92558 5.36861 0
M  V30 4689 H 439.794 3.79282 5.84053 0
M  V30 4690 H 437.421 4.41054 6.19173 0
M  V30 4691 N 438.996 -1.55193 0.274407 0
M  V30 4692 C 439.959 -2.212 -0.600279 0
M  V30 4693 C 440.959 -1.18963 -1.08187 0
M  V30 4694 O 442.149 -1.43873 -0.982158 0
M  V30 4695 C 439.281 -2.87739 -1.82809 0
M  V30 4696 H 440.474 -2.9989 -0.0239682 0
M  V30 4697 H 438.027 -1.5628 0.0250192 0
M  V30 4698 H 438.762 -2.13058 -2.44493 0
M  V30 4699 H 438.547 -3.62658 -1.49069 0
M  V30 4700 H 440.037 -3.38171 -2.45011 0
M  V30 4701 N 440.474 -0.00167713 -1.576 0
M  V30 4702 C 441.72 0.683832 -1.90923 0
M  V30 4703 C 442.053 1.7333 -0.875799 0
M  V30 4704 O 441.328 1.94215 0.10525 0
M  V30 4705 C 441.611 1.32543 -3.3482 0
M  V30 4706 C 441.464 0.287387 -4.48881 0
M  V30 4707 C 442.783 2.25114 -3.78169 0
M  V30 4708 H 439.902 0.247125 -0.694333 0
M  V30 4709 H 442.544 -0.0533149 -1.89925 0
M  V30 4710 H 440.694 1.95372 -3.35801 0
M  V30 4711 H 442.366 -0.341346 -4.60035 0
M  V30 4712 H 440.609 -0.39017 -4.32042 0
M  V30 4713 H 441.28 0.775393 -5.46527 0
M  V30 4714 H 443.756 1.723 -3.7875 0
M  V30 4715 H 442.632 2.66971 -4.79602 0
M  V30 4716 H 442.893 3.13092 -3.12131 0
M  V30 4717 N 441.952 1.55251 0.271103 0
M  V30 4718 C 442.882 1.9127 1.33933 0
M  V30 4719 C 443.863 0.77478 1.5143 0
M  V30 4720 O 445.048 1.03307 1.64442 0
M  V30 4721 C 442.178 2.18627 2.69851 0
M  V30 4722 C 441.132 3.34442 2.67081 0
M  V30 4723 C 440.458 3.47284 4.06569 0
M  V30 4724 C 441.758 4.70784 2.26185 0
M  V30 4725 H 443.452 2.80744 1.04035 0
M  V30 4726 H 440.998 1.35077 0.499017 0
M  V30 4727 H 442.951 2.42413 3.44694 0
M  V30 4728 H 441.675 1.25955 3.01335 0
M  V30 4729 H 440.334 3.10627 1.94695 0
M  V30 4730 H 439.982 2.52074 4.35279 0
M  V30 4731 H 439.682 4.25152 4.0561 0
M  V30 4732 H 441.206 3.73363 4.83148 0
M  V30 4733 H 442.62 4.94102 2.90751 0
M  V30 4734 H 441.017 5.51582 2.36384 0
M  V30 4735 H 442.087 4.69478 1.21319 0
M  V30 4736 N 443.43 -0.535701 1.48216 0
M  V30 4737 C 444.658 -1.31671 1.59594 0
M  V30 4738 C 445.073 -1.87083 0.254056 0
M  V30 4739 O 444.43 -1.66112 -0.755854 0
M  V30 4740 C 444.481 -2.47158 2.63809 0
M  V30 4741 O 444.202 -1.94032 3.92789 0
M  V30 4742 C 445.703 -3.39062 2.85573 0
M  V30 4743 H 442.923 -0.400623 0.538277 0
M  V30 4744 H 445.467 -0.646827 1.94001 0
M  V30 4745 H 443.622 -3.10043 2.32276 0
M  V30 4746 H 444.036 -2.69585 4.49916 0
M  V30 4747 H 445.51 -4.16459 3.62306 0
M  V30 4748 H 445.987 -3.93941 1.94184 0
M  V30 4749 H 446.593 -2.81975 3.18387 0
M  V30 4750 N 444.908 -1.36708 -0.784132 0
M  V30 4751 C 446.154 -1.31426 -1.54451 0
M  V30 4752 C 446.487 0.10476 -1.93917 0
M  V30 4753 O 445.762 1.05934 -1.6312 0
M  V30 4754 C 446.045 -2.24189 -2.818 0
M  V30 4755 C 445.898 -3.74813 -2.48667 0
M  V30 4756 C 447.217 -2.15626 -3.83658 0
M  V30 4757 H 444.336 -0.478739 -0.560337 0
M  V30 4758 H 446.978 -1.67305 -0.900498 0
M  V30 4759 H 445.128 -1.93722 -3.36755 0
M  V30 4760 H 446.8 -4.15823 -1.99722 0
M  V30 4761 H 445.043 -3.93989 -1.81535 0
M  V30 4762 H 445.714 -4.35138 -3.39646 0
M  V30 4763 H 448.19 -2.42456 -3.38163 0
M  V30 4764 H 447.066 -2.82694 -4.70506 0
M  V30 4765 H 447.327 -1.14522 -4.27009 0
M  V30 4766 N 446.386 1.0089 -1.21074 0
M  V30 4767 C 447.633 1.74607 -1.0256 0
M  V30 4768 C 447.961 1.89426 0.44136 0
M  V30 4769 O 447.216 1.42266 1.34384 0
M  V30 4770 C 447.515 3.16335 -1.66334 0
M  V30 4771 C 447.181 3.21474 -3.16173 0
M  V30 4772 C 445.843 3.22583 -3.57062 0
M  V30 4773 C 448.195 3.19025 -4.12156 0
M  V30 4774 C 445.523 3.18925 -4.92446 0
M  V30 4775 C 447.875 3.16909 -5.47496 0
M  V30 4776 C 446.539 3.16326 -5.87787 0
M  V30 4777 H 445.809 0.638933 -0.375294 0
M  V30 4778 H 448.456 1.18274 -1.50611 0
M  V30 4779 H 446.761 3.75876 -1.10566 0
M  V30 4780 H 448.458 3.72083 -1.49516 0
M  V30 4781 H 445.048 3.2135 -2.83605 0
M  V30 4782 H 449.232 3.17332 -3.81595 0
M  V30 4783 H 444.488 3.16809 -5.22917 0
M  V30 4784 H 448.662 3.13968 -6.21609 0
M  V30 4785 H 446.289 3.13246 -6.92662 0
M  V30 4786 N 447.864 1.01787 1.20321 0
M  V30 4787 C 448.796 0.547357 2.22568 0
M  V30 4788 C 449.809 -0.370922 1.58518 0
M  V30 4789 O 450.998 -0.169067 1.77698 0
M  V30 4790 C 448.098 -0.223031 3.38165 0
M  V30 4791 C 447.271 0.697472 4.31803 0
M  V30 4792 C 446.33 -0.025562 5.26194 0
M  V30 4793 O 445.356 0.597367 5.66057 0
M  V30 4794 N 446.558 -1.29999 5.65757 0
M  V30 4795 H 449.323 1.42668 2.63564 0
M  V30 4796 H 446.884 0.895552 1.34876 0
M  V30 4797 H 448.876 -0.716002 3.98316 0
M  V30 4798 H 447.446 -1.00366 2.9605 0
M  V30 4799 H 446.666 1.37073 3.69601 0
M  V30 4800 H 447.954 1.32347 4.91286 0
M  V30 4801 H 447.352 -1.827 5.35385 0
M  V30 4802 H 445.909 -1.73766 6.28211 0
M  V30 4803 N 449.342 -1.36122 0.79427 0
M  V30 4804 C 450.582 -2.00942 0.374376 0
M  V30 4805 C 450.946 -1.61666 -1.03577 0
M  V30 4806 O 452.147 -2.19113 -1.55701 0
M  V30 4807 C 450.418 -3.53323 0.538327 0
M  V30 4808 S 451.977 -4.38311 0.20703 0
M  V30 4809 H 448.795 -0.696515 0.142785 0
M  V30 4810 H 451.397 -1.65929 1.03382 0
M  V30 4811 H 450.101 -3.79395 1.56484 0
M  V30 4812 H 449.632 -3.93162 -0.136882 0
M  V30 4813 H 451.647 -4.8623 -0.989695 0
M  V30 4814 N 450.82 -0.546701 -1.47814 0
M  V30 4815 C 452.069 -0.0166497 -2.01693 0
M  V30 4816 C 452.382 1.33721 -1.42752 0
M  V30 4817 O 453.588 1.95658 -1.8823 0
M  V30 4818 C 452.044 0.0206769 -3.59894 0
M  V30 4819 C 451.652 -1.3293 -4.27824 0
M  V30 4820 C 453.396 0.498674 -4.21561 0
M  V30 4821 C 451.303 -1.25165 -5.78003 0
M  V30 4822 H 450.233 -0.0024541 -0.753996 0
M  V30 4823 H 452.884 -0.692984 -1.69912 0
M  V30 4824 H 451.266 0.76244 -3.88591 0
M  V30 4825 H 452.44 -2.08795 -4.10781 0
M  V30 4826 H 450.755 -1.74438 -3.78101 0
M  V30 4827 H 453.352 0.575 -5.31599 0
M  V30 4828 H 453.695 1.5083 -3.88016 0
M  V30 4829 H 454.228 -0.18791 -3.97356 0
M  V30 4830 H 450.967 -2.23695 -6.1615 0
M  V30 4831 H 450.487 -0.53464 -5.97412 0
M  V30 4832 H 452.166 -0.949299 -6.39998 0
M  V30 4833 N 452.299 1.55045 -0.282633 0
M  V30 4834 C 453.527 2.04168 0.33512 0
M  V30 4835 C 453.942 1.16071 1.48906 0
M  V30 4836 O 453.299 0.182391 1.81586 0
M  V30 4837 C 453.35 3.52332 0.808957 0
M  V30 4838 O 453.071 4.37078 -0.299038 0
M  V30 4839 C 454.572 4.17375 1.49375 0
M  V30 4840 H 451.792 0.666744 0.0754543 0
M  V30 4841 H 454.336 2.00205 -0.416918 0
M  V30 4842 H 452.491 3.56715 1.51106 0
M  V30 4843 H 452.905 5.24458 0.0665514 0
M  V30 4844 H 454.379 5.22627 1.77664 0
M  V30 4845 H 454.856 3.65999 2.42778 0
M  V30 4846 H 455.462 4.17016 0.835305 0
M  V30 4847 N 453.777 0.010035 1.57597 0
M  V30 4848 C 454.71 -1.01234 2.04516 0
M  V30 4849 C 455.688 -1.32886 0.937024 0
M  V30 4850 O 456.872 -1.44879 1.20592 0
M  V30 4851 C 453.999 -2.33738 2.45121 0
M  V30 4852 C 453.045 -2.17679 3.66767 0
M  V30 4853 S 453.878 -1.49343 5.14254 0
M  V30 4854 C 455.034 -2.83256 5.58137 0
M  V30 4855 H 455.267 -0.612866 2.90914 0
M  V30 4856 H 452.8 -0.201124 1.53084 0
M  V30 4857 H 454.758 -3.09922 2.69182 0
M  V30 4858 H 453.419 -2.70823 1.59103 0
M  V30 4859 H 452.612 -3.1559 3.92962 0
M  V30 4860 H 452.214 -1.4964 3.42759 0
M  V30 4861 H 454.506 -3.79538 5.6121 0
M  V30 4862 H 455.449 -2.61749 6.57946 0
M  V30 4863 H 455.857 -2.87627 4.85727 0
M  V30 4864 N 455.255 -1.55392 -0.262866 0
M  V30 4865 C 456.165 -1.92077 -1.34698 0
M  V30 4866 C 457.181 -0.819227 -1.53508 0
M  V30 4867 O 458.357 -1.11921 -1.67439 0
M  V30 4868 C 455.422 -2.19407 -2.68443 0
M  V30 4869 C 454.483 -3.42905 -2.58292 0
M  V30 4870 C 453.716 -3.68921 -3.85659 0
M  V30 4871 O 453.939 -2.97275 -4.8681 0
M  V30 4872 O 452.873 -4.62455 -3.85252 0
M  V30 4873 H 456.699 -2.84384 -1.06581 0
M  V30 4874 H 454.284 -1.42069 -0.462264 0
M  V30 4875 H 456.166 -2.38365 -3.47506 0
M  V30 4876 H 454.841 -1.30282 -2.96325 0
M  V30 4877 H 453.748 -3.29272 -1.7757 0
M  V30 4878 H 455.081 -4.32282 -2.35358 0
M  V30 4879 N 456.733 0.527833 -1.48498 0
M  V30 4880 C 457.981 1.28101 -1.56316 0
M  V30 4881 C 458.302 1.9352 -0.239781 0
M  V30 4882 O 457.572 1.81433 0.738849 0
M  V30 4883 H 456.152 0.475793 -0.575873 0
M  V30 4884 H 458.814 0.614052 -1.84974 0
M  V30 4885 H 457.91 2.05916 -2.34532 0
M  V30 4886 N 458.211 1.37122 0.776871 0
M  V30 4887 C 459.457 1.3325 1.53675 0
M  V30 4888 C 459.812 -0.0839891 1.92217 0
M  V30 4889 O 459.105 -1.04145 1.60824 0
M  V30 4890 C 459.299 2.20068 2.81611 0
M  V30 4891 C 459.128 3.70016 2.55574 0
M  V30 4892 C 457.898 4.39144 2.4996 0
M  V30 4893 C 460.096 4.62996 2.23917 0
M  V30 4894 N 458.078 5.74663 2.15953 0
M  V30 4895 C 459.449 5.86854 2.00005 0
M  V30 4896 C 461.504 4.51433 2.1003 0
M  V30 4897 C 460.207 7.00446 1.63609 0
M  V30 4898 C 462.233 5.64905 1.75033 0
M  V30 4899 C 461.595 6.8781 1.51977 0
M  V30 4900 H 457.694 0.542878 0.562856 0
M  V30 4901 H 460.278 1.72295 0.906784 0
M  V30 4902 H 458.449 1.83248 3.42454 0
M  V30 4903 H 460.181 2.07492 3.47461 0
M  V30 4904 H 456.936 3.92088 2.65639 0
M  V30 4905 H 457.36 6.46268 2.0166 0
M  V30 4906 H 462.002 3.56987 2.26539 0
M  V30 4907 H 459.72 7.94831 1.45837 0
M  V30 4908 H 463.306 5.57926 1.64952 0
M  V30 4909 H 462.186 7.74126 1.25296 0
M  V30 4910 N 459.689 -1.00246 1.21608 0
M  V30 4911 C 460.917 -1.77631 1.06089 0
M  V30 4912 C 461.332 -1.84746 -0.38916 0
M  V30 4913 O 460.689 -1.31068 -1.26994 0
M  V30 4914 C 460.74 -3.21415 1.65453 0
M  V30 4915 O 460.461 -3.14703 3.04785 0
M  V30 4916 C 461.962 -4.15289 1.55079 0
M  V30 4917 H 459.182 -0.558162 0.37242 0
M  V30 4918 H 461.726 -1.26093 1.60999 0
M  V30 4919 H 459.881 -3.70053 1.14629 0
M  V30 4920 H 460.295 -4.05056 3.33212 0
M  V30 4921 H 461.769 -5.13965 2.01355 0
M  V30 4922 H 462.246 -4.36279 0.505665 0
M  V30 4923 H 462.852 -3.72543 2.05163 0
M  V30 4924 N 461.167 -1.02423 -1.1978 0
M  V30 4925 C 462.395 -0.737456 -1.93311 0
M  V30 4926 C 462.81 0.703023 -1.75223 0
M  V30 4927 O 462.167 1.47761 -1.07112 0
M  V30 4928 C 462.218 -1.0733 -3.45199 0
M  V30 4929 O 461.939 -2.4572 -3.62702 0
M  V30 4930 C 463.44 -0.80866 -4.35862 0
M  V30 4931 H 460.66 -0.2702 -0.614193 0
M  V30 4932 H 463.204 -1.36747 -1.52054 0
M  V30 4933 H 461.359 -0.488545 -3.84307 0
M  V30 4934 H 461.773 -2.58081 -4.56612 0
M  V30 4935 H 463.247 -1.09365 -5.41057 0
M  V30 4936 H 463.724 0.257025 -4.38447 0
M  V30 4937 H 464.33 -1.37592 -4.02428 0
M  V30 4938 N 462.645 1.35699 -0.801477 0
M  V30 4939 C 463.891 1.99208 -0.380022 0
M  V30 4940 C 464.224 1.63445 1.04878 0
M  V30 4941 O 463.499 0.895223 1.72673 0
M  V30 4942 C 463.782 3.55755 -0.557708 0
M  V30 4943 C 463.635 4.01332 -2.03107 0
M  V30 4944 C 464.954 4.40096 0.0197968 0
M  V30 4945 H 462.073 0.723667 -0.139552 0
M  V30 4946 H 464.715 1.60928 -1.01006 0
M  V30 4947 H 462.865 3.88494 -0.0213741 0
M  V30 4948 H 464.537 3.79026 -2.62939 0
M  V30 4949 H 462.78 3.52429 -2.52936 0
M  V30 4950 H 463.451 5.10234 -2.1063 0
M  V30 4951 H 465.927 4.13786 -0.438179 0
M  V30 4952 H 464.803 5.48735 -0.134477 0
M  V30 4953 H 465.064 4.2786 1.11303 0
M  V30 4954 N 464.123 0.554532 1.47522 0
M  V30 4955 C 465.053 -0.182974 2.32782 0
M  V30 4956 C 466.034 -0.911377 1.43624 0
M  V30 4957 O 467.219 -0.892366 1.72483 0
M  V30 4958 C 464.349 -1.21513 3.25349 0
M  V30 4959 C 463.303 -0.603355 4.23726 0
M  V30 4960 C 462.629 -1.73995 5.05598 0
M  V30 4961 C 463.929 0.441121 5.20434 0
M  V30 4962 H 465.623 0.52882 2.94693 0
M  V30 4963 H 463.169 0.255759 1.41711 0
M  V30 4964 H 465.122 -1.73922 3.83835 0
M  V30 4965 H 463.846 -1.95683 2.61487 0
M  V30 4966 H 462.505 -0.10059 3.66462 0
M  V30 4967 H 462.153 -2.47063 4.38143 0
M  V30 4968 H 461.853 -1.3364 5.72201 0
M  V30 4969 H 463.377 -2.26735 5.66942 0
M  V30 4970 H 464.791 0.00319931 5.733 0
M  V30 4971 H 463.188 0.763402 5.95224 0
M  V30 4972 H 464.258 1.33799 4.66075 0
M  V30 4973 N 465.601 -1.54893 0.290851 0
M  V30 4974 C 466.831 -2.04047 -0.323818 0
M  V30 4975 C 467.239 -1.16809 -1.48837 0
M  V30 4976 O 466.582 -0.184145 -1.82775 0
M  V30 4977 C 466.644 -3.49248 -0.852395 0
M  V30 4978 C 466.308 -4.56623 0.185557 0
M  V30 4979 C 467.305 -5.09985 1.01053 0
M  V30 4980 C 464.99 -5.01252 0.324332 0
M  V30 4981 C 466.984 -6.06507 1.96031 0
M  V30 4982 C 464.671 -5.97596 1.27757 0
M  V30 4983 C 465.669 -6.50107 2.09405 0
M  V30 4984 O 465.357 -7.44565 3.03114 0
M  V30 4985 H 465.089 -0.671735 -0.0758129 0
M  V30 4986 H 467.643 -2.00947 0.425393 0
M  V30 4987 H 465.873 -3.49639 -1.65195 0
M  V30 4988 H 467.562 -3.81654 -1.38185 0
M  V30 4989 H 468.328 -4.76307 0.914129 0
M  V30 4990 H 464.207 -4.60015 -0.301213 0
M  V30 4991 H 467.751 -6.47418 2.598 0
M  V30 4992 H 463.648 -6.30691 1.37473 0
M  V30 4993 H 464.416 -7.62334 2.97976 0
M  V30 4994 N 467.08 -0.0183926 -1.57589 0
M  V30 4995 C 468.028 0.985111 -2.10709 0
M  V30 4996 C 469.022 1.34397 -1.0312 0
M  V30 4997 O 470.228 1.32746 -1.21567 0
M  V30 4998 H 466.603 0.335418 -0.673052 0
M  V30 4999 H 468.574 0.511689 -2.9398 0
M  V30 5000 C 467.323 2.26202 -2.64061 0
M  V30 5001 H 466.646 1.9946 -3.4649 0
M  V30 5002 H 468.086 2.94652 -3.04887 0
M  V30 5003 C 466.545 2.98444 -1.5631 0
M  V30 5004 O 467.075 3.90142 -0.956674 0
M  V30 5005 N 465.281 2.6059 -1.28612 0
M  V30 5006 H 464.828 1.86101 -1.78112 0
M  V30 5007 H 464.786 3.09238 -0.567406 0
M  V30 5008 N 468.558 1.5553 0.254621 0
M  V30 5009 C 469.786 1.81046 1.00149 0
M  V30 5010 C 470.201 0.593047 1.79244 0
M  V30 5011 O 469.558 -0.438196 1.77161 0
M  V30 5012 C 469.609 3.04684 1.94551 0
M  V30 5013 O 469.33 4.21725 1.18658 0
M  V30 5014 C 470.831 3.42943 2.80901 0
M  V30 5015 H 468.051 0.602653 0.295044 0
M  V30 5016 H 470.595 2.02576 0.279842 0
M  V30 5017 H 468.75 2.85226 2.62154 0
M  V30 5018 H 469.164 4.91746 1.82445 0
M  V30 5019 H 470.638 4.32576 3.42902 0
M  V30 5020 H 471.115 2.63176 3.51617 0
M  V30 5021 H 471.721 3.64724 2.18762 0
M  V30 5022 N 470.036 -0.519951 1.48776 0
M  V30 5023 C 470.984 -1.64443 1.64503 0
M  V30 5024 C 471.978 -1.61501 0.511248 0
M  V30 5025 O 473.184 -1.66238 0.690294 0
M  V30 5026 H 469.559 -0.544776 0.518385 0
M  V30 5027 H 471.53 -1.48325 2.58925 0
M  V30 5028 C 470.279 -3.02673 1.71127 0
M  V30 5029 H 469.602 -3.05635 2.57735 0
M  V30 5030 H 471.042 -3.80941 1.86172 0
M  V30 5031 C 469.501 -3.33854 0.452032 0
M  V30 5032 O 470.031 -3.99385 -0.430678 0
M  V30 5033 N 468.237 -2.88825 0.32069 0
M  V30 5034 H 467.784 -2.35674 1.03998 0
M  V30 5035 H 467.742 -3.10056 -0.520814 0
M  V30 5036 N 471.514 -1.37532 -0.769588 0
M  V30 5037 C 472.791 -1.23392 -1.51768 0
M  V30 5038 C 473.171 0.17157 -2.10402 0
M  V30 5039 O 472.519 1.17943 -1.95708 0
M  V30 5040 C 472.729 -2.33163 -2.59685 0
M  V30 5041 C 474.077 -2.70809 -3.27028 0
M  V30 5042 O 475.101 -2.32355 -2.69981 0
M  V30 5043 O 473.96 -3.37066 -4.30173 0
M  V30 5044 H 471.054 -0.481617 -0.67229 0
M  V30 5045 H 473.6 -1.49318 -0.806368 0
M  V30 5046 H 472.372 -3.27273 -2.14494 0
M  V30 5047 H 471.995 -2.08713 -3.38415 0
M  V30 5048 N 472.992 0.995999 -1.22138 0
M  V30 5049 C 473.955 2.06711 -0.990109 0
M  V30 5050 C 474.955 1.60744 0.0422978 0
M  V30 5051 O 476.145 1.73095 -0.195895 0
M  V30 5052 C 473.277 3.37288 -0.49491 0
M  V30 5053 H 474.47 2.28661 -1.94047 0
M  V30 5054 H 472.023 1.16711 -1.03963 0
M  V30 5055 H 472.758 3.21022 0.459948 0
M  V30 5056 H 472.543 3.71986 -1.23971 0
M  V30 5057 H 474.033 4.16103 -0.353253 0
M  V30 5058 N 474.47 1.03057 1.19235 0
M  V30 5059 C 475.4 0.633497 2.24742 0
M  V30 5060 C 476.381 -0.358335 1.66283 0
M  V30 5061 O 477.566 -0.240676 1.92703 0
M  V30 5062 C 474.696 -0.0147648 3.47297 0
M  V30 5063 C 473.65 0.899527 4.18441 0
M  V30 5064 C 472.976 0.116281 5.34574 0
M  V30 5065 C 474.276 2.21404 4.73051 0
M  V30 5066 H 475.97 1.5155 2.58211 0
M  V30 5067 H 473.516 0.73014 1.24117 0
M  V30 5068 H 475.469 -0.304202 4.20301 0
M  V30 5069 H 474.193 -0.931577 3.13032 0
M  V30 5070 H 472.852 1.17319 3.47321 0
M  V30 5071 H 472.5 -0.802619 4.96555 0
M  V30 5072 H 472.2 0.725293 5.83107 0
M  V30 5073 H 473.724 -0.166376 6.10373 0
M  V30 5074 H 475.138 1.98601 5.37802 0
M  V30 5075 H 473.535 2.77512 5.32078 0
M  V30 5076 H 474.605 2.86752 3.91026 0
M  V30 5077 N 475.948 -1.35272 0.808662 0
M  V30 5078 C 477.196 -1.98316 0.389233 0
M  V30 5079 C 477.517 -1.64465 -1.04767 0
M  V30 5080 O 476.787 -0.928175 -1.72516 0
M  V30 5081 H 475.367 -0.733585 0.140935 0
M  V30 5082 H 478.029 -1.6515 1.03496 0
M  V30 5083 H 477.125 -3.08123 0.496631 0
M  V30 5084 N 477.426 -0.562348 -1.47226 0
M  V30 5085 C 478.389 0.172056 -2.28553 0
M  V30 5086 C 479.389 0.837928 -1.37242 0
M  V30 5087 O 480.579 0.693001 -1.59822 0
M  V30 5088 C 477.711 1.25223 -3.17068 0
M  V30 5089 H 478.904 -0.542401 -2.94954 0
M  V30 5090 H 476.457 -0.319493 -1.53 0
M  V30 5091 H 477.192 1.99892 -2.55369 0
M  V30 5092 H 476.977 0.779515 -3.84273 0
M  V30 5093 H 478.467 1.76791 -3.78332 0
M  V30 5094 N 478.904 1.54736 -0.299062 0
M  V30 5095 C 480.132 2.04512 0.313447 0
M  V30 5096 C 480.547 1.17643 1.47667 0
M  V30 5097 O 479.904 0.20164 1.81383 0
M  V30 5098 C 479.955 3.53171 0.771542 0
M  V30 5099 O 479.676 4.36736 -0.345379 0
M  V30 5100 C 481.177 4.18936 1.4494 0
M  V30 5101 H 478.397 0.667507 0.0683784 0
M  V30 5102 H 480.941 1.99752 -0.438129 0
M  V30 5103 H 479.096 3.58298 1.47314 0
M  V30 5104 H 479.51 5.24499 0.0109219 0
M  V30 5105 H 480.984 5.24482 1.72111 0
M  V30 5106 H 481.461 3.68554 2.38883 0
M  V30 5107 H 482.067 4.17879 0.791028 0
M  V30 5108 N 480.382 0.0267497 1.57577 0
M  V30 5109 C 481.628 -0.647596 1.92815 0
M  V30 5110 C 481.983 -1.69872 0.903396 0
M  V30 5111 O 481.276 -1.91429 -0.0808881 0
M  V30 5112 C 481.47 -1.30914 3.3256 0
M  V30 5113 C 481.299 -0.323621 4.48534 0
M  V30 5114 C 480.069 0.0756607 5.05243 0
M  V30 5115 C 482.267 0.42112 5.12573 0
M  V30 5116 N 480.249 1.0566 6.04739 0
M  V30 5117 C 481.62 1.25589 6.07147 0
M  V30 5118 C 483.675 0.482077 4.95561 0
M  V30 5119 C 482.378 2.1461 6.86538 0
M  V30 5120 C 484.404 1.35962 5.75559 0
M  V30 5121 C 483.766 2.18217 6.69747 0
M  V30 5122 H 479.865 -0.209357 0.753454 0
M  V30 5123 H 482.449 0.0933695 1.94476 0
M  V30 5124 H 480.62 -2.02026 3.31723 0
M  V30 5125 H 482.352 -1.94033 3.55153 0
M  V30 5126 H 479.107 -0.298294 4.7266 0
M  V30 5127 H 479.531 1.54324 6.59176 0
M  V30 5128 H 484.173 -0.139609 4.22569 0
M  V30 5129 H 481.891 2.77835 7.58837 0
M  V30 5130 H 485.477 1.41105 5.6443 0
M  V30 5131 H 484.357 2.85022 7.3057 0
M  V30 5132 N 481.861 -1.55662 -0.24637 0
M  V30 5133 C 482.809 -1.91186 -1.3248 0
M  V30 5134 C 483.803 -0.790996 -1.49799 0
M  V30 5135 O 485.009 -0.975617 -1.51267 0
M  V30 5136 H 481.384 -0.607207 -0.443626 0
M  V30 5137 H 483.355 -2.81221 -0.997853 0
M  V30 5138 C 482.104 -2.22349 -2.67313 0
M  V30 5139 H 481.427 -3.08097 -2.54786 0
M  V30 5140 H 482.867 -2.51107 -3.41645 0
M  V30 5141 C 481.326 -1.04001 -3.20446 0
M  V30 5142 O 481.856 -0.28828 -4.00664 0
M  V30 5143 N 480.062 -0.830494 -2.7848 0
M  V30 5144 H 479.609 -1.4435 -2.13356 0
M  V30 5145 H 479.567 -0.0403258 -3.14374 0
M  V30 5146 N 483.339 0.512053 -1.4905 0
M  V30 5147 C 484.585 1.26613 -1.59187 0
M  V30 5148 C 484.94 1.90494 -0.270163 0
M  V30 5149 O 484.233 1.77204 0.728648 0
M  V30 5150 C 484.427 2.36446 -2.68008 0
M  V30 5151 C 484.256 1.83334 -4.10632 0
M  V30 5152 C 483.026 1.65131 -4.77556 0
M  V30 5153 C 485.224 1.35153 -4.96224 0
M  V30 5154 N 483.206 1.06833 -6.04533 0
M  V30 5155 C 484.577 0.889186 -6.13591 0
M  V30 5156 C 486.632 1.23623 -4.82309 0
M  V30 5157 C 485.335 0.322953 -7.18575 0
M  V30 5158 C 487.361 0.683978 -5.87431 0
M  V30 5159 C 486.723 0.2318 -7.04018 0
M  V30 5160 H 482.822 0.453678 -0.636946 0
M  V30 5161 H 485.406 0.575217 -1.86009 0
M  V30 5162 H 483.577 3.03012 -2.42978 0
M  V30 5163 H 485.309 3.03485 -2.67729 0
M  V30 5164 H 482.064 1.89178 -4.34176 0
M  V30 5165 H 482.488 0.796425 -6.72299 0
M  V30 5166 H 487.13 1.57184 -3.92496 0
M  V30 5167 H 484.848 -0.024943 -8.08096 0
M  V30 5168 H 488.434 0.597694 -5.78722 0
M  V30 5169 H 487.314 -0.188869 -7.83973 0
M  V30 5170 N 484.817 1.37938 0.762283 0
M  V30 5171 C 485.747 1.37176 1.88958 0
M  V30 5172 C 486.728 0.238945 1.68413 0
M  V30 5173 O 487.913 0.440726 1.89133 0
M  V30 5174 C 485.043 1.18742 3.2637 0
M  V30 5175 C 483.997 2.29136 3.61498 0
M  V30 5176 C 483.323 1.95816 4.97554 0
M  V30 5177 C 484.623 3.71363 3.6727 0
M  V30 5178 H 486.317 2.31509 1.89853 0
M  V30 5179 H 483.863 1.11438 0.912005 0
M  V30 5180 H 485.816 1.16837 4.04879 0
M  V30 5181 H 484.54 0.208683 3.25933 0
M  V30 5182 H 483.199 2.30213 2.85303 0
M  V30 5183 H 482.847 0.964475 4.93667 0
M  V30 5184 H 482.547 2.69745 5.22026 0
M  V30 5185 H 484.071 1.95513 5.78452 0
M  V30 5186 H 485.485 3.72364 4.35911 0
M  V30 5187 H 483.882 4.44425 4.03245 0
M  V30 5188 H 484.952 4.04305 2.67704 0
M  V30 5189 N 486.295 -0.989507 1.22664 0
M  V30 5190 C 487.525 -1.7624 1.0781 0
M  V30 5191 C 487.933 -1.85466 -0.374036 0
M  V30 5192 O 487.276 -1.32645 -1.27087 0
M  V30 5193 C 487.338 -3.21007 1.61849 0
M  V30 5194 C 487.002 -3.35316 3.10503 0
M  V30 5195 C 487.999 -3.22362 4.07896 0
M  V30 5196 C 485.684 -3.60258 3.50028 0
M  V30 5197 C 487.678 -3.34139 5.42798 0
M  V30 5198 C 485.365 -3.71676 4.85078 0
M  V30 5199 C 486.363 -3.58625 5.81272 0
M  V30 5200 O 486.051 -3.69655 7.1387 0
M  V30 5201 H 485.783 -0.560209 0.378341 0
M  V30 5202 H 488.337 -1.25252 1.62792 0
M  V30 5203 H 486.567 -3.73202 1.01279 0
M  V30 5204 H 488.256 -3.80024 1.42606 0
M  V30 5205 H 489.022 -3.03 3.78703 0
M  V30 5206 H 484.901 -3.69492 2.75675 0
M  V30 5207 H 488.445 -3.23869 6.17863 0
M  V30 5208 H 484.342 -3.90545 5.1395 0
M  V30 5209 H 485.11 -3.86507 7.21495 0
M  V30 5210 N 487.773 -1.03688 -1.18687 0
M  V30 5211 C 489.02 -0.73803 -1.88572 0
M  V30 5212 C 489.348 0.733973 -1.8012 0
M  V30 5213 O 488.603 1.55098 -1.19344 0
M  V30 5214 C 488.902 -1.14477 -3.3857 0
M  V30 5215 C 488.568 -2.61641 -3.67226 0
M  V30 5216 C 487.23 -3.01846 -3.74757 0
M  V30 5217 C 489.582 -3.56812 -3.79914 0
M  V30 5218 C 486.91 -4.36118 -3.92451 0
M  V30 5219 C 489.262 -4.90799 -3.99123 0
M  V30 5220 C 487.926 -5.3068 -4.04888 0
M  V30 5221 H 487.196 -0.270064 -0.690034 0
M  V30 5222 H 489.843 -1.3012 -1.40503 0
M  V30 5223 H 488.148 -0.500337 -3.88592 0
M  V30 5224 H 489.845 -0.89095 -3.90977 0
M  V30 5225 H 486.435 -2.29498 -3.61979 0
M  V30 5226 H 490.619 -3.26899 -3.73431 0
M  V30 5227 H 485.875 -4.66542 -3.95157 0
M  V30 5228 H 490.049 -5.64451 -4.07882 0
M  V30 5229 H 487.676 -6.34733 -4.18351 0
M  V30 5230 N 489.251 1.34841 -0.815825 0
M  V30 5231 C 490.5 1.97755 -0.396976 0
M  V30 5232 C 490.813 1.65422 1.04379 0
M  V30 5233 O 492.019 2.21771 1.5662 0
M  V30 5234 C 490.475 3.53818 -0.658869 0
M  V30 5235 C 490.083 3.95051 -2.11278 0
M  V30 5236 C 491.827 4.23397 -0.305834 0
M  V30 5237 C 489.734 5.43997 -2.31994 0
M  V30 5238 H 488.664 0.739985 -0.1447 0
M  V30 5239 H 491.315 1.53781 -1.00118 0
M  V30 5240 H 489.697 3.95997 0.0154112 0
M  V30 5241 H 490.871 3.63998 -2.82564 0
M  V30 5242 H 489.186 3.38388 -2.42657 0
M  V30 5243 H 491.783 5.32899 -0.43854 0
M  V30 5244 H 492.126 4.09508 0.748952 0
M  V30 5245 H 492.659 3.8667 -0.934403 0
M  V30 5246 H 489.398 5.62865 -3.35952 0
M  V30 5247 H 488.918 5.76589 -1.65244 0
M  V30 5248 H 490.597 6.10584 -2.14001 0
M  V30 5249 N 490.729 0.570148 1.46925 0
M  V30 5250 C 492.14 0.1402 1.86173 0
M  V30 5251 C 492.491 -1.29347 1.47526 0
M  V30 5252 O 491.616 -1.97508 0.884292 0
M  V30 5253 C 492.211 0.247661 3.37894 0
M  V30 5254 C 490.77 -0.127332 3.76185 0
M  V30 5255 C 489.917 0.589349 2.70965 0
M  V30 5256 H 492.868 0.779117 1.38259 0
M  V30 5257 H 492.889 -0.530341 3.76786 0
M  V30 5258 H 492.401 1.29121 3.65991 0
M  V30 5259 H 490.502 -1.17149 3.53704 0
M  V30 5260 H 490.615 0.240238 4.78497 0
M  V30 5261 H 488.979 0.0309824 2.54681 0
M  V30 5262 H 489.762 1.6343 3.01903 0
M  V30 5263 N 492.207 -1.54576 0.307264 0
M  V30 5264 C 493.137 -2.26708 -0.55907 0
M  V30 5265 C 494.118 -1.26893 -1.1328 0
M  V30 5266 O 495.303 -1.55677 -1.16097 0
M  V30 5267 C 492.433 -3.01259 -1.72801 0
M  V30 5268 C 491.387 -4.08275 -1.28435 0
M  V30 5269 C 490.713 -4.70575 -2.53895 0
M  V30 5270 C 492.013 -5.2068 -0.411038 0
M  V30 5271 H 493.707 -2.9937 0.042576 0
M  V30 5272 H 491.253 -1.43983 0.0219173 0
M  V30 5273 H 493.206 -3.50444 -2.34023 0
M  V30 5274 H 491.93 -2.26187 -2.356 0
M  V30 5275 H 490.589 -3.59949 -0.695161 0
M  V30 5276 H 490.237 -3.92136 -3.15021 0
M  V30 5277 H 489.937 -5.42854 -2.24908 0
M  V30 5278 H 491.461 -5.22527 -3.15908 0
M  V30 5279 H 492.875 -5.65721 -0.929097 0
M  V30 5280 H 491.272 -5.99716 -0.214664 0
M  V30 5281 H 492.342 -4.81629 0.562287 0
M  V30 5282 N 493.685 -0.035106 -1.57561 0
M  V30 5283 C 494.934 0.641604 -1.91223 0
M  V30 5284 C 495.247 1.72944 -0.913761 0
M  V30 5285 O 496.453 2.46321 -1.14185 0
M  V30 5286 C 494.909 1.19249 -3.3957 0
M  V30 5287 C 494.517 0.137616 -4.47789 0
M  V30 5288 C 496.261 1.84537 -3.82291 0
M  V30 5289 C 494.168 0.700478 -5.87237 0
M  V30 5290 H 493.098 0.243417 -0.713627 0
M  V30 5291 H 495.749 -0.101382 -1.8322 0
M  V30 5292 H 494.131 1.98728 -3.42525 0
M  V30 5293 H 495.305 -0.635153 -4.56402 0
M  V30 5294 H 493.62 -0.416855 -4.14308 0
M  V30 5295 H 496.217 2.27616 -4.83834 0
M  V30 5296 H 496.56 2.69054 -3.17672 0
M  V30 5297 H 497.093 1.11739 -3.81784 0
M  V30 5298 H 493.832 -0.106693 -6.55413 0
M  V30 5299 H 493.352 1.4416 -5.82218 0
M  V30 5300 H 495.031 1.18837 -6.35993 0
M  V30 5301 N 495.163 1.55791 0.238111 0
M  V30 5302 C 496.412 1.77234 0.962868 0
M  V30 5303 C 496.725 0.600661 1.86149 0
M  V30 5304 O 497.931 0.698315 2.62366 0
M  V30 5305 C 496.387 3.13808 1.76218 0
M  V30 5306 C 495.995 4.3865 0.910518 0
M  V30 5307 C 497.739 3.44585 2.47914 0
M  V30 5308 C 495.646 5.66252 1.70623 0
M  V30 5309 H 494.576 0.660731 0.36325 0
M  V30 5310 H 497.227 1.8221 0.217242 0
M  V30 5311 H 495.609 3.02963 2.55009 0
M  V30 5312 H 496.783 4.60507 0.164316 0
M  V30 5313 H 495.098 4.15271 0.30647 0
M  V30 5314 H 497.695 4.3714 3.07917 0
M  V30 5315 H 498.038 2.66314 3.19973 0
M  V30 5316 H 498.571 3.56685 1.76127 0
M  V30 5317 H 495.31 6.47369 1.02923 0
M  V30 5318 H 494.83 5.48483 2.42748 0
M  V30 5319 H 496.509 6.05829 2.27114 0
M  V30 5320 N 496.642 -0.504142 1.49319 0
M  V30 5321 C 497.891 -1.25507 1.57895 0
M  V30 5322 C 498.204 -1.93735 0.269433 0
M  V30 5323 O 499.41 -2.70492 0.233706 0
M  V30 5324 C 497.866 -2.27869 2.78574 0
M  V30 5325 C 497.474 -1.65594 4.16272 0
M  V30 5326 C 499.218 -3.0381 2.96479 0
M  V30 5327 C 497.125 -2.66048 5.28178 0
M  V30 5328 H 496.055 -0.47212 0.587894 0
M  V30 5329 H 498.706 -0.52931 1.757 0
M  V30 5330 H 497.088 -3.03594 2.54257 0
M  V30 5331 H 498.262 -0.958826 4.50714 0
M  V30 5332 H 496.577 -1.02055 4.037 0
M  V30 5333 H 499.174 -3.78925 3.77253 0
M  V30 5334 H 499.517 -3.61235 2.06918 0
M  V30 5335 H 500.05 -2.352 3.20821 0
M  V30 5336 H 496.789 -2.13408 6.19788 0
M  V30 5337 H 496.309 -3.34009 4.98195 0
M  V30 5338 H 497.988 -3.28536 5.57381 0
M  V30 5339 N 498.12 -1.38341 -0.754957 0
M  V30 5340 C 499.368 -1.34208 -1.51105 0
M  V30 5341 C 499.689 0.0677634 -1.94882 0
M  V30 5342 O 498.959 1.01517 -1.67544 0
M  V30 5343 H 497.539 -0.493819 -0.560493 0
M  V30 5344 H 500.201 -1.73005 -0.897507 0
M  V30 5345 H 499.297 -1.99203 -2.4026 0
M  V30 5346 N 499.598 0.982988 -1.23187 0
M  V30 5347 C 500.823 1.76455 -1.08988 0
M  V30 5348 C 501.248 1.84726 0.354691 0
M  V30 5349 O 500.606 1.30699 1.25649 0
M  V30 5350 C 500.654 3.17094 -1.71708 0
M  V30 5351 O 499.758 4.00648 -0.977477 0
M  V30 5352 H 499.099 0.542988 -0.382177 0
M  V30 5353 H 501.629 1.23413 -1.63188 0
M  V30 5354 H 501.639 3.67684 -1.76841 0
M  V30 5355 H 500.314 3.10389 -2.76823 0
M  V30 5356 H 498.891 3.59161 -1.0029 0
M  V30 5357 N 501.076 1.04316 1.18135 0
M  V30 5358 C 502.323 0.74802 1.88178 0
M  V30 5359 C 502.651 -0.72441 1.80506 0
M  V30 5360 O 501.906 -1.54463 1.20165 0
M  V30 5361 C 502.205 1.16271 3.37958 0
M  V30 5362 C 501.871 2.63585 3.65833 0
M  V30 5363 C 500.533 3.03829 3.73151 0
M  V30 5364 C 502.885 3.58822 3.78016 0
M  V30 5365 C 500.213 4.38194 3.90132 0
M  V30 5366 C 502.565 4.92909 3.96514 0
M  V30 5367 C 501.229 5.3282 4.02068 0
M  V30 5368 H 500.499 0.27372 0.688592 0
M  V30 5369 H 503.146 1.30863 1.39811 0
M  V30 5370 H 501.451 0.520938 3.88321 0
M  V30 5371 H 503.148 0.911672 3.90499 0
M  V30 5372 H 499.738 2.31414 3.60757 0
M  V30 5373 H 503.922 3.28875 3.71692 0
M  V30 5374 H 499.178 4.68631 3.92677 0
M  V30 5375 H 503.352 5.66606 4.04883 0
M  V30 5376 H 500.979 6.36943 4.14979 0
M  V30 5377 N 502.554 -1.34406 0.822964 0
M  V30 5378 C 503.801 -1.98284 0.411057 0
M  V30 5379 C 504.129 -1.65245 -1.02588 0
M  V30 5380 O 503.384 -0.91619 -1.72929 0
M  V30 5381 C 503.683 -3.52981 0.560268 0
M  V30 5382 C 503.349 -4.05931 1.96293 0
M  V30 5383 C 502.011 -4.20103 2.34664 0
M  V30 5384 C 504.363 -4.34412 2.87985 0
M  V30 5385 C 501.691 -4.60082 3.64062 0
M  V30 5386 C 504.043 -4.75838 4.16847 0
M  V30 5387 C 502.707 -4.88215 4.55195 0
M  V30 5388 H 501.977 -0.725573 0.150416 0
M  V30 5389 H 504.624 -1.60349 1.04692 0
M  V30 5390 H 502.929 -3.91477 -0.158982 0
M  V30 5391 H 504.626 -4.00385 0.222087 0
M  V30 5392 H 501.216 -3.95363 1.65487 0
M  V30 5393 H 505.4 -4.23001 2.59584 0
M  V30 5394 H 500.656 -4.67856 3.93599 0
M  V30 5395 H 504.83 -4.96834 4.87984 0
M  V30 5396 H 502.457 -5.18952 5.55512 0
M  V30 5397 N 504.032 -0.577932 -1.46621 0
M  V30 5398 C 505.278 -0.0617793 -2.02706 0
M  V30 5399 C 505.611 1.29294 -1.44903 0
M  V30 5400 O 504.886 1.8461 -0.61232 0
M  V30 5401 C 505.169 0.00911824 -3.60099 0
M  V30 5402 C 505.022 -1.37416 -4.28295 0
M  V30 5403 C 506.341 0.712159 -4.343 0
M  V30 5404 H 503.46 -0.0239246 -0.736612 0
M  V30 5405 H 506.102 -0.744211 -1.74818 0
M  V30 5406 H 504.252 0.590292 -3.83989 0
M  V30 5407 H 505.924 -2.00013 -4.15683 0
M  V30 5408 H 504.167 -1.94319 -3.87843 0
M  V30 5409 H 504.838 -1.27707 -5.37024 0
M  V30 5410 H 507.314 0.218486 -4.15526 0
M  V30 5411 H 506.19 0.730782 -5.44014 0
M  V30 5412 H 506.451 1.77251 -4.05012 0
M  V30 5413 N 505.51 1.54411 -0.315457 0
M  V30 5414 C 506.44 2.27002 0.547039 0
M  V30 5415 C 507.421 1.27492 1.12605 0
M  V30 5416 O 508.606 1.5629 1.15269 0
M  V30 5417 C 505.736 3.02171 1.71201 0
M  V30 5418 C 504.69 4.0895 1.26268 0
M  V30 5419 C 504.016 4.71915 2.51396 0
M  V30 5420 C 505.316 5.20891 0.383419 0
M  V30 5421 H 507.01 2.99343 -0.0584517 0
M  V30 5422 H 504.556 1.4397 -0.0295527 0
M  V30 5423 H 506.509 3.51681 2.32161 0
M  V30 5424 H 505.233 2.27433 2.34397 0
M  V30 5425 H 503.892 3.60312 0.676062 0
M  V30 5426 H 503.54 3.93801 3.12937 0
M  V30 5427 H 503.24 5.44039 2.22026 0
M  V30 5428 H 504.764 5.24195 3.13133 0
M  V30 5429 H 506.178 5.66206 0.899082 0
M  V30 5430 H 504.575 5.99821 0.182857 0
M  V30 5431 H 505.645 4.81324 -0.587821 0
M  V30 5432 N 506.988 0.0434614 1.5754 0
M  V30 5433 C 507.936 -0.951465 2.1225 0
M  V30 5434 C 508.93 -1.3274 1.05245 0
M  V30 5435 O 510.136 -1.30795 1.23663 0
M  V30 5436 H 506.511 -0.324667 0.678303 0
M  V30 5437 H 508.482 -0.464855 2.94757 0
M  V30 5438 C 507.231 -2.21972 2.67626 0
M  V30 5439 H 506.554 -1.93923 3.4962 0
M  V30 5440 H 507.994 -2.89765 3.09536 0
M  V30 5441 C 506.453 -2.95919 1.61038 0
M  V30 5442 O 506.983 -3.8857 1.01862 0
M  V30 5443 N 505.189 -2.58511 1.32741 0
M  V30 5444 H 504.736 -1.83244 1.81051 0
M  V30 5445 H 504.694 -3.08296 0.616531 0
M  V30 5446 N 508.466 -1.55915 -0.229846 0
M  V30 5447 C 509.396 -1.94754 -1.28815 0
M  V30 5448 C 510.377 -0.814657 -1.49323 0
M  V30 5449 O 511.562 -1.07631 -1.61645 0
M  V30 5450 C 508.692 -2.25705 -2.63959 0
M  V30 5451 C 507.646 -3.41406 -2.5812 0
M  V30 5452 C 506.972 -3.57941 -3.97218 0
M  V30 5453 C 508.272 -4.76616 -2.13623 0
M  V30 5454 H 509.966 -2.83404 -0.965547 0
M  V30 5455 H 507.512 -1.36353 -0.463028 0
M  V30 5456 H 509.465 -2.51467 -3.38146 0
M  V30 5457 H 508.189 -1.339 -2.9789 0
M  V30 5458 H 506.848 -3.1568 -1.86391 0
M  V30 5459 H 506.496 -2.63526 -4.28443 0
M  V30 5460 H 506.196 -4.35757 -3.94195 0
M  V30 5461 H 507.72 -3.86042 -4.73079 0
M  V30 5462 H 509.134 -5.01637 -2.77549 0
M  V30 5463 H 507.531 -5.57655 -2.21677 0
M  V30 5464 H 508.601 -4.7253 -1.08829 0
M  V30 5465 N 509.944 0.496216 -1.49584 0
M  V30 5466 C 511.19 1.25189 -1.59548 0
M  V30 5467 C 511.523 1.9212 -0.283466 0
M  V30 5468 O 510.798 1.80947 0.713324 0
M  V30 5469 C 511.081 2.31516 -2.75812 0
M  V30 5470 C 510.934 1.69054 -4.16822 0
M  V30 5471 C 512.253 3.3304 -2.87702 0
M  V30 5472 H 509.372 0.45379 -0.580727 0
M  V30 5473 H 512.014 0.549327 -1.81886 0
M  V30 5474 H 510.164 2.91438 -2.56897 0
M  V30 5475 H 511.836 1.12923 -4.47265 0
M  V30 5476 H 510.079 0.994485 -4.22247 0
M  V30 5477 H 510.75 2.462 -4.94054 0
M  V30 5478 H 513.226 2.83114 -3.04936 0
M  V30 5479 H 512.102 4.04794 -3.7072 0
M  V30 5480 H 512.363 3.95655 -1.97255 0
M  V30 5481 N 511.423 1.38739 0.74761 0
M  V30 5482 C 512.353 1.39173 1.87492 0
M  V30 5483 C 513.334 0.256794 1.6815 0
M  V30 5484 O 514.519 0.460762 1.88655 0
M  V30 5485 C 511.649 1.22197 3.25093 0
M  V30 5486 C 510.603 2.32957 3.59047 0
M  V30 5487 C 509.929 2.01082 4.95449 0
M  V30 5488 C 511.229 3.75237 3.6331 0
M  V30 5489 H 512.923 2.3351 1.87386 0
M  V30 5490 H 510.469 1.12399 0.900134 0
M  V30 5491 H 512.422 1.21124 4.03617 0
M  V30 5492 H 511.146 0.243241 3.25693 0
M  V30 5493 H 509.805 2.33226 2.82845 0
M  V30 5494 H 509.453 1.01678 4.92616 0
M  V30 5495 H 509.153 2.75267 5.19136 0
M  V30 5496 H 510.677 2.01638 5.76346 0
M  V30 5497 H 512.091 3.76966 4.31937 0
M  V30 5498 H 510.488 4.48677 3.98509 0
M  V30 5499 H 511.558 4.07122 2.634 0
M  V30 5500 N 512.901 -0.976442 1.23707 0
M  V30 5501 C 514.149 -1.71487 1.06942 0
M  V30 5502 C 514.47 -1.9098 -0.393897 0
M  V30 5503 O 513.74 -1.48128 -1.28198 0
M  V30 5504 H 512.32 -0.635425 0.392739 0
M  V30 5505 H 514.982 -1.17515 1.55487 0
M  V30 5506 H 514.078 -2.70286 1.56051 0
M  V30 5507 N 514.379 -1.04941 -1.1758 0
M  V30 5508 C 515.625 -0.759112 -1.88057 0
M  V30 5509 C 515.958 0.711918 -1.8068 0
M  V30 5510 O 515.233 1.52035 -1.21308 0
M  V30 5511 C 515.516 -1.237 -3.38187 0
M  V30 5512 C 515.369 -2.77078 -3.54327 0
M  V30 5513 C 516.688 -0.834014 -4.32125 0
M  V30 5514 H 513.807 -0.277237 -0.682868 0
M  V30 5515 H 516.449 -1.30296 -1.38286 0
M  V30 5516 H 514.599 -0.774337 -3.80705 0
M  V30 5517 H 516.271 -3.31449 -3.20842 0
M  V30 5518 H 514.514 -3.16477 -2.96689 0
M  V30 5519 H 515.185 -3.05577 -4.59703 0
M  V30 5520 H 517.661 -1.23228 -3.97434 0
M  V30 5521 H 516.537 -1.19603 -5.35711 0
M  V30 5522 H 516.798 0.262195 -4.41322 0
M  V30 5523 N 515.857 1.33968 -0.830081 0
M  V30 5524 C 516.787 2.31911 -0.271911 0
M  V30 5525 C 517.768 1.58571 0.61556 0
M  V30 5526 O 518.953 1.86514 0.540946 0
M  V30 5527 C 516.083 3.42737 0.561146 0
M  V30 5528 C 515.037 4.27383 -0.229789 0
M  V30 5529 C 514.363 5.29742 0.726463 0
M  V30 5530 C 515.663 5.02 -1.44197 0
M  V30 5531 H 517.357 2.78844 -1.09025 0
M  V30 5532 H 514.903 1.34061 -0.52571 0
M  V30 5533 H 516.856 4.10276 0.961867 0
M  V30 5534 H 515.58 2.94471 1.41261 0
M  V30 5535 H 514.239 3.61456 -0.611964 0
M  V30 5536 H 513.887 4.77736 1.57408 0
M  V30 5537 H 513.587 5.87255 0.20142 0
M  V30 5538 H 515.111 6.00149 1.12489 0
M  V30 5539 H 516.525 5.62355 -1.11488 0
M  V30 5540 H 514.922 5.69122 -1.90317 0
M  V30 5541 H 515.992 4.31281 -2.2164 0
M  V30 5542 N 517.335 0.585699 1.46312 0
M  V30 5543 C 518.56 0.0762461 2.0726 0
M  V30 5544 C 518.985 -1.22071 1.43109 0
M  V30 5545 O 518.343 -1.73804 0.515942 0
M  V30 5546 C 518.391 -0.0729404 3.60526 0
M  V30 5547 O 517.495 -1.1287 3.96654 0
M  V30 5548 H 516.836 0.0641558 0.660893 0
M  V30 5549 H 519.366 0.809492 1.87905 0
M  V30 5550 H 519.376 -0.278158 4.07051 0
M  V30 5551 H 518.051 0.874188 4.06609 0
M  V30 5552 H 516.628 -0.901703 3.61834 0
M  V30 5553 N 518.813 -1.54241 0.323641 0
M  V30 5554 C 520.061 -2.00174 -0.278359 0
M  V30 5555 C 520.382 -1.2134 -1.52648 0
M  V30 5556 O 519.652 -0.315244 -1.93347 0
M  V30 5557 H 518.232 -0.739463 -0.105845 0
M  V30 5558 H 520.894 -1.89864 0.440204 0
M  V30 5559 H 519.99 -3.07486 -0.5347 0
M  V30 5560 N 520.291 -0.0518155 -1.57515 0
M  V30 5561 C 521.201 0.937539 -2.15052 0
M  V30 5562 C 522.217 1.34121 -1.10849 0
M  V30 5563 O 523.393 1.418 -1.4302 0
M  V30 5564 C 520.458 2.19379 -2.68466 0
M  V30 5565 C 519.519 1.84841 -3.87469 0
M  V30 5566 C 518.752 3.04477 -4.38326 0
M  V30 5567 O 518.975 4.17868 -3.88256 0
M  V30 5568 O 517.909 2.85453 -5.29906 0
M  V30 5569 H 521.735 0.478201 -2.99912 0
M  V30 5570 H 519.32 0.17012 -1.48428 0
M  V30 5571 H 521.202 2.93084 -3.02787 0
M  V30 5572 H 519.877 2.64449 -1.86677 0
M  V30 5573 H 518.784 1.08449 -3.58036 0
M  V30 5574 H 520.117 1.44569 -4.7049 0
M  V30 5575 N 521.769 1.56035 0.221574 0
M  V30 5576 C 523.016 1.79047 0.94597 0
M  V30 5577 C 523.344 0.62057 1.84334 0
M  V30 5578 O 522.599 -0.395053 1.91671 0
M  V30 5579 C 522.898 3.07813 1.8162 0
M  V30 5580 C 522.564 4.3797 1.07206 0
M  V30 5581 C 521.226 4.73334 0.866508 0
M  V30 5582 C 523.578 5.18326 0.546565 0
M  V30 5583 C 520.906 5.8657 0.123549 0
M  V30 5584 C 523.258 6.32335 -0.18305 0
M  V30 5585 C 521.922 6.66301 -0.399861 0
M  V30 5586 H 521.192 0.655178 0.346155 0
M  V30 5587 H 523.839 1.90299 0.214146 0
M  V30 5588 H 522.144 2.91682 2.61589 0
M  V30 5589 H 523.841 3.2282 2.37884 0
M  V30 5590 H 520.431 4.10202 1.24226 0
M  V30 5591 H 524.615 4.9144 0.692847 0
M  V30 5592 H 519.871 6.11376 -0.0546591 0
M  V30 5593 H 524.045 6.9383 -0.59775 0
M  V30 5594 H 521.672 7.53889 -0.977489 0
M  V30 5595 N 523.247 -0.488276 1.49845 0
M  V30 5596 C 524.21 -1.57069 1.66919 0
M  V30 5597 C 525.21 -1.51445 0.540479 0
M  V30 5598 O 526.4 -1.5437 0.807188 0
M  V30 5599 C 523.532 -2.96718 1.67844 0
M  V30 5600 H 524.725 -1.43254 2.63474 0
M  V30 5601 H 522.278 -0.713435 1.39068 0
M  V30 5602 H 523.013 -3.15996 0.7292 0
M  V30 5603 H 522.798 -3.02208 2.49826 0
M  V30 5604 H 524.288 -3.75335 1.83066 0
M  V30 5605 N 524.725 -1.39134 -0.740242 0
M  V30 5606 C 525.672 -1.37434 -1.8542 0
M  V30 5607 C 526.642 -0.234822 -1.64432 0
M  V30 5608 O 527.827 -0.429125 -1.85912 0
M  V30 5609 C 524.967 -1.21844 -3.22875 0
M  V30 5610 C 524.08 -2.45296 -3.55603 0
M  V30 5611 C 523.215 -2.22334 -4.82432 0
M  V30 5612 C 522.254 -3.41488 -5.07988 0
M  V30 5613 N 521.391 -3.17877 -6.26018 0
M  V30 5614 H 526.231 -2.3266 -1.86207 0
M  V30 5615 H 523.768 -1.15578 -0.909946 0
M  V30 5616 H 525.726 -1.10818 -4.02213 0
M  V30 5617 H 524.356 -0.3025 -3.21379 0
M  V30 5618 H 523.408 -2.66945 -2.71006 0
M  V30 5619 H 524.72 -3.34063 -3.7041 0
M  V30 5620 H 523.874 -2.0852 -5.69741 0
M  V30 5621 H 522.613 -1.30954 -4.6979 0
M  V30 5622 H 521.618 -3.55807 -4.19144 0
M  V30 5623 H 522.843 -4.33763 -5.22519 0
M  V30 5624 H 520.789 -2.29156 -6.14673 0
M  V30 5625 H 520.706 -4.00198 -6.41387 0
M  V30 5626 H 521.974 -3.07746 -7.16179 0
M  V30 5627 N 526.204 0.969867 -1.24223 0
M  V30 5628 C 527.114 2.09806 -1.0497 0
M  V30 5629 C 528.13 1.73998 0.00886455 0
M  V30 5630 O 529.306 2.00513 -0.188848 0
M  V30 5631 C 526.371 3.40467 -0.654452 0
M  V30 5632 C 525.432 3.90236 -1.78926 0
M  V30 5633 C 524.665 5.14662 -1.41277 0
M  V30 5634 O 524.888 5.69602 -0.301632 0
M  V30 5635 O 523.822 5.58761 -2.23763 0
M  V30 5636 H 527.648 2.28942 -1.99548 0
M  V30 5637 H 525.233 1.08197 -1.03023 0
M  V30 5638 H 527.115 4.19039 -0.445452 0
M  V30 5639 H 525.79 3.22636 0.262216 0
M  V30 5640 H 524.697 3.12735 -2.05299 0
M  V30 5641 H 526.03 4.1254 -2.68462 0
M  V30 5642 N 527.682 1.05563 1.17022 0
M  V30 5643 C 529.098 0.777684 1.39371 0
M  V30 5644 C 529.298 -0.626269 1.91521 0
M  V30 5645 O 528.354 -1.38806 2.10924 0
M  V30 5646 C 529.667 1.83642 2.3811 0
M  V30 5647 C 531.215 1.85907 2.51809 0
M  V30 5648 C 531.69 2.90813 3.53824 0
M  V30 5649 N 533.181 2.898 3.61345 0
M  V30 5650 C 533.916 3.6762 4.40049 0
M  V30 5651 N 533.412 4.55237 5.22237 0
M  V30 5652 N 535.205 3.56044 4.34959 0
M  V30 5653 H 527.356 1.9614 0.815047 0
M  V30 5654 H 529.619 0.849527 0.420722 0
M  V30 5655 H 529.325 2.84425 2.06871 0
M  V30 5656 H 529.199 1.6812 3.37662 0
M  V30 5657 H 531.586 0.857865 2.82356 0
M  V30 5658 H 531.667 2.05506 1.52318 0
M  V30 5659 H 531.311 3.91122 3.24015 0
M  V30 5660 H 531.241 2.68465 4.53028 0
M  V30 5661 H 533.732 2.26274 3.02669 0
M  V30 5662 H 534.045 5.11291 5.79484 0
M  V30 5663 H 532.39 4.59296 5.21605 0
M  V30 5664 H 535.581 2.86986 3.69806 0
M  V30 5665 H 535.754 4.16938 4.96051 0
M  V30 5666 N 529.16 -1.33526 0.837174 0
M  V30 5667 C 530.07 -2.33023 0.271568 0
M  V30 5668 C 531.086 -1.63272 -0.601514 0
M  V30 5669 O 532.262 -1.94939 -0.506038 0
M  V30 5670 C 529.327 -3.42382 -0.545448 0
M  V30 5671 C 528.388 -4.27857 0.351709 0
M  V30 5672 C 527.621 -5.31994 -0.426409 0
M  V30 5673 O 527.844 -5.45763 -1.65828 0
M  V30 5674 O 526.778 -6.01572 0.1987 0
M  V30 5675 H 530.604 -2.83256 1.09545 0
M  V30 5676 H 528.189 -1.36837 0.599655 0
M  V30 5677 H 530.071 -4.09122 -1.00979 0
M  V30 5678 H 528.746 -2.94369 -1.34641 0
M  V30 5679 H 527.653 -3.6399 0.863853 0
M  V30 5680 H 528.986 -4.79349 1.1174 0
M  V30 5681 N 530.638 -0.59345 -1.46 0
M  V30 5682 C 532.054 -0.255965 -1.57534 0
M  V30 5683 C 532.254 1.24167 -1.58697 0
M  V30 5684 O 531.31 2.02398 -1.50968 0
M  V30 5685 C 532.623 -0.91466 -2.86451 0
M  V30 5686 C 534.171 -0.889253 -3.00102 0
M  V30 5687 C 534.646 -1.52769 -4.3177 0
M  V30 5688 N 536.137 -1.49253 -4.38495 0
M  V30 5689 C 536.872 -1.9558 -5.39014 0
M  V30 5690 N 536.368 -2.49929 -6.46148 0
M  V30 5691 N 538.161 -1.86432 -5.30282 0
M  V30 5692 H 530.312 -1.56604 -1.43489 0
M  V30 5693 H 532.575 -0.655207 -0.685133 0
M  V30 5694 H 532.281 -1.96861 -2.91442 0
M  V30 5695 H 532.155 -0.429356 -3.74748 0
M  V30 5696 H 534.542 0.156111 -2.94687 0
M  V30 5697 H 534.623 -1.41268 -2.13253 0
M  V30 5698 H 534.267 -2.57231 -4.37944 0
M  V30 5699 H 534.197 -0.979398 -5.17412 0
M  V30 5700 H 536.688 -1.09536 -3.61677 0
M  V30 5701 H 537.001 -2.83109 -7.19075 0
M  V30 5702 H 535.346 -2.53961 -6.46938 0
M  V30 5703 H 538.537 -1.43722 -4.4549 0
M  V30 5704 H 538.71 -2.22852 -6.08474 0
M  V30 5705 N 532.116 1.54067 -0.331816 0
M  V30 5706 C 533.362 2.01012 0.268667 0
M  V30 5707 C 533.695 1.2195 1.51136 0
M  V30 5708 O 532.97 0.303972 1.9211 0
M  V30 5709 C 533.253 3.55158 0.59456 0
M  V30 5710 C 533.106 4.4494 -0.659409 0
M  V30 5711 C 534.425 4.16939 1.4089 0
M  V30 5712 H 531.544 0.730698 0.0961756 0
M  V30 5713 H 534.186 1.84593 -0.450031 0
M  V30 5714 H 532.336 3.6928 1.20685 0
M  V30 5715 H 534.008 4.42675 -1.29756 0
M  V30 5716 H 532.251 4.1428 -1.28665 0
M  V30 5717 H 532.922 5.50643 -0.386804 0
M  V30 5718 H 535.398 4.06443 0.891272 0
M  V30 5719 H 534.274 5.24889 1.60569 0
M  V30 5720 H 534.535 3.70798 2.40752 0
M  V30 5721 N 533.594 0.0601682 1.57485 0
M  V30 5722 C 534.504 -0.926121 2.15546 0
M  V30 5723 C 535.52 -1.33532 1.11558 0
M  V30 5724 O 536.696 -1.4104 1.4377 0
M  V30 5725 C 533.761 -2.17952 2.69625 0
M  V30 5726 C 532.822 -1.82783 3.88444 0
M  V30 5727 C 532.055 -3.02148 4.39935 0
M  V30 5728 O 532.278 -4.15803 3.90466 0
M  V30 5729 O 531.212 -2.82639 5.31412 0
M  V30 5730 H 535.038 -0.462289 3.00161 0
M  V30 5731 H 532.623 -0.162246 1.48516 0
M  V30 5732 H 534.505 -2.91474 3.04337 0
M  V30 5733 H 533.18 -2.63456 1.88077 0
M  V30 5734 H 532.087 -1.06549 3.58606 0
M  V30 5735 H 533.42 -1.42072 4.7125 0
M  V30 5736 N 535.072 -1.5615 -0.213296 0
M  V30 5737 C 536.02 -1.93953 -1.28394 0
M  V30 5738 C 537.014 -0.822592 -1.48087 0
M  V30 5739 O 538.22 -1.00748 -1.49164 0
M  V30 5740 H 534.595 -0.61648 -0.430646 0
M  V30 5741 H 536.566 -2.83275 -0.937977 0
M  V30 5742 C 535.315 -2.27969 -2.62537 0
M  V30 5743 H 534.638 -3.13432 -2.48194 0
M  V30 5744 H 536.078 -2.58297 -3.36242 0
M  V30 5745 C 534.537 -1.10775 -3.18167 0
M  V30 5746 O 535.067 -0.373201 -3.99963 0
M  V30 5747 N 533.273 -0.889377 -2.76656 0
M  V30 5748 H 532.82 -1.48843 -2.10246 0
M  V30 5749 H 532.778 -0.107 -3.14218 0
M  V30 5750 N 536.55 0.480323 -1.50102 0
M  V30 5751 C 537.966 0.813295 -1.37323 0
M  V30 5752 C 538.166 1.97027 -0.422206 0
M  V30 5753 O 537.222 2.5212 0.138563 0
M  V30 5754 C 538.535 1.13404 -2.78496 0
M  V30 5755 C 540.083 1.24104 -2.87345 0
M  V30 5756 C 540.558 1.59497 -4.29331 0
M  V30 5757 N 542.049 1.66507 -4.32238 0
M  V30 5758 C 542.784 1.95378 -5.39087 0
M  V30 5759 N 542.28 2.22333 -6.56155 0
M  V30 5760 N 544.073 1.96803 -5.26522 0
M  V30 5761 H 536.224 -0.282291 -2.10516 0
M  V30 5762 H 538.487 -0.063752 -0.945854 0
M  V30 5763 H 538.193 0.357064 -3.49883 0
M  V30 5764 H 538.067 2.07251 -3.15162 0
M  V30 5765 H 540.454 2.00871 -2.16183 0
M  V30 5766 H 540.535 0.282593 -2.54234 0
M  V30 5767 H 540.179 0.832736 -5.01027 0
M  V30 5768 H 540.109 2.56477 -4.59921 0
M  V30 5769 H 542.6 1.47753 -3.47818 0
M  V30 5770 H 542.913 2.43611 -7.33399 0
M  V30 5771 H 541.258 2.19745 -6.59346 0
M  V30 5772 H 544.449 1.75235 -4.34062 0
M  V30 5773 H 544.622 2.18969 -6.09883 0
M  V30 5774 N 538.028 1.39524 0.732853 0
M  V30 5775 C 539.444 1.21176 1.03868 0
M  V30 5776 C 539.644 0.0748448 2.01361 0
M  V30 5777 O 538.7 -0.57281 2.45917 0
M  V30 5778 C 540.013 2.54667 1.59892 0
M  V30 5779 C 541.561 2.6153 1.71962 0
M  V30 5780 C 542.036 3.95248 2.31394 0
M  V30 5781 N 543.527 3.96899 2.38801 0
M  V30 5782 C 544.262 4.97138 2.85729 0
M  V30 5783 N 543.758 6.07775 3.32537 0
M  V30 5784 N 545.551 4.84516 2.84957 0
M  V30 5785 H 537.702 2.12225 0.086304 0
M  V30 5786 H 539.965 0.942614 0.100907 0
M  V30 5787 H 539.671 3.38423 0.95721 0
M  V30 5788 H 539.545 2.74538 2.58668 0
M  V30 5789 H 541.932 1.78156 2.35254 0
M  V30 5790 H 542.013 2.45507 0.718327 0
M  V30 5791 H 541.657 4.79054 1.68729 0
M  V30 5792 H 541.587 4.08593 3.32204 0
M  V30 5793 H 544.078 3.16998 2.05719 0
M  V30 5794 H 544.391 6.8017 3.66862 0
M  V30 5795 H 542.736 6.11366 3.30541 0
M  V30 5796 H 545.927 3.97185 2.47713 0
M  V30 5797 H 546.1 5.62783 3.21215 0
M  V30 5798 N 539.506 -0.963266 1.24736 0
M  V30 5799 C 540.469 -2.04013 1.04457 0
M  V30 5800 C 541.469 -1.608 0.000335555 0
M  V30 5801 O 542.659 -1.72515 0.241719 0
M  V30 5802 C 539.791 -3.35858 0.584162 0
M  V30 5803 H 540.984 -2.23436 2.00041 0
M  V30 5804 H 538.537 -1.13914 1.07021 0
M  V30 5805 H 539.272 -3.22128 -0.374673 0
M  V30 5806 H 539.057 -3.68568 1.3379 0
M  V30 5807 H 540.547 -4.1502 0.463451 0
M  V30 5808 N 540.985 -1.06182 -1.16461 0
M  V30 5809 C 542.232 -0.777863 -1.86964 0
M  V30 5810 C 542.56 0.695602 -1.81636 0
M  V30 5811 O 541.815 1.52532 -1.22607 0
M  V30 5812 C 542.114 -1.21633 -3.36066 0
M  V30 5813 C 541.78 -2.69371 -3.61594 0
M  V30 5814 C 540.442 -3.09727 -3.6827 0
M  V30 5815 C 542.794 -3.64791 -3.7226 0
M  V30 5816 C 540.122 -4.44345 -3.83112 0
M  V30 5817 C 542.474 -4.99155 -3.88623 0
M  V30 5818 C 541.138 -5.39149 -3.93541 0
M  V30 5819 H 540.408 -0.28464 -0.68415 0
M  V30 5820 H 543.055 -1.33071 -1.37711 0
M  V30 5821 H 541.36 -0.582651 -3.87443 0
M  V30 5822 H 543.057 -0.973682 -3.88999 0
M  V30 5823 H 539.647 -2.37124 -3.57029 0
M  V30 5824 H 543.831 -3.34746 -3.66413 0
M  V30 5825 H 539.087 -4.74819 -3.85172 0
M  V30 5826 H 543.261 -5.72976 -3.95817 0
M  V30 5827 H 540.888 -6.43464 -4.04794 0
M  V30 5828 N 542.463 1.3308 -0.844243 0
M  V30 5829 C 543.396 2.27075 -0.226279 0
M  V30 5830 C 544.374 1.49911 0.629716 0
M  V30 5831 O 545.558 1.79068 0.588803 0
M  V30 5832 C 542.685 3.31767 0.681782 0
M  V30 5833 C 541.731 4.26384 -0.0994565 0
M  V30 5834 S 542.564 5.15186 -1.46094 0
M  V30 5835 C 543.72 6.23405 -0.558319 0
M  V30 5836 H 543.953 2.79141 -1.02312 0
M  V30 5837 H 541.486 1.40452 -0.641292 0
M  V30 5838 H 543.444 3.92566 1.20008 0
M  V30 5839 H 542.105 2.78507 1.45234 0
M  V30 5840 H 541.298 5.00514 0.591733 0
M  V30 5841 H 540.9 3.69949 -0.548991 0
M  V30 5842 H 543.192 6.77069 0.241672 0
M  V30 5843 H 544.135 6.96619 -1.26995 0
M  V30 5844 H 544.543 5.64333 -0.13728 0
M  V30 5845 N 543.941 0.601185 1.45683 0
M  V30 5846 C 544.888 -0.121396 2.30481 0
M  V30 5847 C 545.858 -0.866232 1.41724 0
M  V30 5848 O 547.043 -0.85324 1.70659 0
M  V30 5849 C 544.183 -1.11704 3.26521 0
M  V30 5850 C 543.296 -0.373741 4.3038 0
M  V30 5851 C 542.431 -1.35854 5.13534 0
M  V30 5852 C 541.47 -0.602689 6.09126 0
M  V30 5853 N 540.607 -1.53645 6.85082 0
M  V30 5854 H 545.447 0.607732 2.91737 0
M  V30 5855 H 542.984 0.311502 1.43764 0
M  V30 5856 H 544.942 -1.70735 3.80664 0
M  V30 5857 H 543.572 -1.81366 2.67032 0
M  V30 5858 H 542.624 0.331962 3.78949 0
M  V30 5859 H 543.936 0.2163 4.98331 0
M  V30 5860 H 543.09 -2.02111 5.72046 0
M  V30 5861 H 541.829 -1.98251 4.45587 0
M  V30 5862 H 540.834 0.0735482 5.49751 0
M  V30 5863 H 542.059 0.0161467 6.79098 0
M  V30 5864 H 540.005 -2.14819 6.1983 0
M  V30 5865 H 539.922 -0.999688 7.49361 0
M  V30 5866 H 541.19 -2.1888 7.48139 0
M  V30 5867 N 545.419 -1.53889 0.339982 0
M  V30 5868 C 546.349 -2.27843 -0.510856 0
M  V30 5869 C 547.33 -1.29267 -1.10563 0
M  V30 5870 O 548.515 -1.58104 -1.12768 0
M  V30 5871 C 545.645 -3.04857 -1.66372 0
M  V30 5872 C 544.599 -4.10907 -1.19746 0
M  V30 5873 C 543.925 -4.75855 -2.43857 0
M  V30 5874 C 545.225 -5.21435 -0.300501 0
M  V30 5875 H 546.919 -2.99212 0.106067 0
M  V30 5876 H 544.465 -1.43904 0.0524533 0
M  V30 5877 H 546.418 -3.5533 -2.26537 0
M  V30 5878 H 545.142 -2.31133 -2.30749 0
M  V30 5879 H 543.801 -3.61342 -0.618654 0
M  V30 5880 H 543.449 -3.9873 -3.06633 0
M  V30 5881 H 543.149 -5.47502 -2.13343 0
M  V30 5882 H 544.673 -5.2911 -3.04754 0
M  V30 5883 H 546.087 -5.67565 -0.80889 0
M  V30 5884 H 544.484 -6.00036 -0.0874076 0
M  V30 5885 H 545.554 -4.80328 0.664321 0
M  V30 5886 N 546.897 -0.0685191 -1.57451 0
M  V30 5887 C 548.313 0.288101 -1.56978 0
M  V30 5888 C 548.513 1.70262 -1.07765 0
M  V30 5889 O 547.569 2.4135 -0.742054 0
M  V30 5890 C 548.882 0.100745 -3.00531 0
M  V30 5891 C 550.43 0.170531 -3.12535 0
M  V30 5892 C 550.905 0.0114944 -4.57999 0
M  V30 5893 N 552.396 0.0672065 -4.63151 0
M  V30 5894 C 553.131 -0.0314813 -5.73391 0
M  V30 5895 N 552.627 -0.183503 -6.92557 0
M  V30 5896 N 554.42 0.0253489 -5.62094 0
M  V30 5897 H 546.571 -0.993026 -1.87757 0
M  V30 5898 H 548.834 -0.386981 -0.865419 0
M  V30 5899 H 548.54 -0.875197 -3.40636 0
M  V30 5900 H 548.414 0.854457 -3.67395 0
M  V30 5901 H 550.801 1.13696 -2.72318 0
M  V30 5902 H 550.882 -0.614229 -2.48316 0
M  V30 5903 H 550.526 -0.951684 -4.98904 0
M  V30 5904 H 550.456 0.815617 -5.20245 0
M  V30 5905 H 552.947 0.183246 -3.77455 0
M  V30 5906 H 553.26 -0.251041 -7.72392 0
M  V30 5907 H 551.605 -0.218822 -6.94655 0
M  V30 5908 H 554.796 0.142794 -4.67882 0
M  V30 5909 H 554.969 -0.0550166 -6.47977 0
M  V30 5910 N 548.375 1.56261 0.205012 0
M  V30 5911 C 549.791 1.49623 0.555433 0
M  V30 5912 C 549.991 0.766719 1.86343 0
M  V30 5913 O 549.047 0.313158 2.50551 0
M  V30 5914 C 550.36 2.94253 0.619347 0
M  V30 5915 C 551.908 3.04868 0.708855 0
M  V30 5916 C 552.383 4.50888 0.803969 0
M  V30 5917 N 553.874 4.54999 0.867758 0
M  V30 5918 C 554.609 5.65284 0.96135 0
M  V30 5919 N 554.105 6.85282 1.01786 0
M  V30 5920 N 555.898 5.53174 0.997771 0
M  V30 5921 H 548.049 2.0211 -0.653094 0
M  V30 5922 H 550.312 0.919333 -0.231366 0
M  V30 5923 H 550.018 3.50643 -0.272458 0
M  V30 5924 H 549.892 3.47063 1.47741 0
M  V30 5925 H 552.279 2.48532 1.5911 0
M  V30 5926 H 552.36 2.55199 -0.175205 0
M  V30 5927 H 552.004 5.07846 -0.0738798 0
M  V30 5928 H 551.934 4.98279 1.70369 0
M  V30 5929 H 554.425 3.68588 0.833735 0
M  V30 5930 H 554.738 7.65081 1.08951 0
M  V30 5931 H 553.083 6.8796 0.986706 0
M  V30 5932 H 556.274 4.5835 0.950392 0
M  V30 5933 H 556.447 6.39151 1.06725 0
M  V30 5934 N 549.853 -0.472356 1.50355 0
M  V30 5935 C 550.785 -1.58795 1.65278 0
M  V30 5936 C 551.798 -1.53782 0.534313 0
M  V30 5937 O 552.987 -1.59193 0.807446 0
M  V30 5938 C 550.087 -2.97672 1.62001 0
M  V30 5939 C 549.26 -3.27568 2.89859 0
M  V30 5940 C 548.319 -4.45993 2.79242 0
M  V30 5941 O 547.345 -4.46364 3.53197 0
M  V30 5942 N 548.547 -5.47578 1.92713 0
M  V30 5943 H 551.312 -1.46411 2.61503 0
M  V30 5944 H 548.873 -0.660751 1.47803 0
M  V30 5945 H 550.865 -3.74862 1.52513 0
M  V30 5946 H 549.435 -3.03832 0.735159 0
M  V30 5947 H 548.655 -2.39003 3.13483 0
M  V30 5948 H 549.943 -3.44352 3.74565 0
M  V30 5949 H 549.341 -5.50099 1.31939 0
M  V30 5950 H 547.898 -6.23757 1.8913 0
M  V30 5951 N 551.331 -1.39911 -0.725443 0
M  V30 5952 C 552.263 -1.35301 -1.85003 0
M  V30 5953 C 553.276 -0.260102 -1.60709 0
M  V30 5954 O 554.465 -0.519749 -1.70766 0
M  V30 5955 C 551.565 -1.08039 -3.21218 0
M  V30 5956 C 550.738 -2.28793 -3.7279 0
M  V30 5957 C 549.797 -1.97841 -4.87591 0
M  V30 5958 O 548.823 -2.70616 -5.00755 0
M  V30 5959 N 550.025 -0.950367 -5.72668 0
M  V30 5960 H 552.79 -2.32218 -1.89459 0
M  V30 5961 H 550.351 -1.34137 -0.90658 0
M  V30 5962 H 552.343 -0.853354 -3.95601 0
M  V30 5963 H 550.913 -0.198229 -3.11971 0
M  V30 5964 H 550.133 -2.67388 -2.8965 0
M  V30 5965 H 551.421 -3.09317 -4.03981 0
M  V30 5966 H 550.819 -0.347436 -5.64632 0
M  V30 5967 H 549.376 -0.783232 -6.47077 0
M  V30 5968 N 552.809 0.956637 -1.25245 0
M  V30 5969 C 553.741 2.05628 -1.01242 0
M  V30 5970 C 554.754 1.62785 0.0219579 0
M  V30 5971 O 555.943 1.77184 -0.216365 0
M  V30 5972 C 553.043 3.35069 -0.508161 0
M  V30 5973 C 552.216 4.06761 -1.60823 0
M  V30 5974 C 551.275 5.14473 -1.1047 0
M  V30 5975 O 550.301 5.40033 -1.79868 0
M  V30 5976 N 551.503 5.80474 0.0550773 0
M  V30 5977 H 554.268 2.2679 -1.95925 0
M  V30 5978 H 551.829 1.12505 -1.16423 0
M  V30 5979 H 553.821 4.044 -0.155819 0
M  V30 5980 H 552.391 3.10694 0.344683 0
M  V30 5981 H 551.611 3.31555 -2.13224 0
M  V30 5982 H 552.899 4.51418 -2.34733 0
M  V30 5983 H 552.297 5.62125 0.635004 0
M  V30 5984 H 550.854 6.50868 0.348469 0
M  V30 5985 N 554.287 1.06798 1.15896 0
M  V30 5986 C 555.536 0.782796 1.8589 0
M  V30 5987 C 555.849 -0.693498 1.82893 0
M  V30 5988 O 557.055 -1.09325 2.48516 0
M  V30 5989 C 555.511 1.3502 3.33613 0
M  V30 5990 C 555.119 2.8571 3.45071 0
M  V30 5991 C 556.863 1.14278 4.08829 0
M  V30 5992 C 554.77 3.35669 4.86909 0
M  V30 5993 H 553.7 0.289149 0.696354 0
M  V30 5994 H 556.351 1.28734 1.30766 0
M  V30 5995 H 554.733 0.773407 3.88374 0
M  V30 5996 H 555.907 3.49385 3.00445 0
M  V30 5997 H 554.222 3.05178 2.83294 0
M  V30 5998 H 556.819 1.49087 5.13495 0
M  V30 5999 H 557.162 0.0814575 4.1622 0
M  V30 6000 H 557.695 1.68563 3.60321 0
M  V30 6001 H 554.434 4.41302 4.84698 0
M  V30 6002 H 553.954 2.76745 5.32139 0
M  V30 6003 H 555.633 3.31296 5.55745 0
M  V30 6004 N 555.766 -1.3263 0.851289 0
M  V30 6005 C 556.676 -2.32722 0.296268 0
M  V30 6006 C 557.692 -1.63901 -0.584162 0
M  V30 6007 O 558.868 -1.95465 -0.485334 0
M  V30 6008 C 555.933 -3.42942 -0.509103 0
M  V30 6009 C 554.994 -4.2746 0.397069 0
M  V30 6010 C 554.227 -5.32416 -0.36996 0
M  V30 6011 O 554.45 -5.47491 -1.6003 0
M  V30 6012 O 553.384 -6.01327 0.262493 0
M  V30 6013 H 557.21 -2.82078 1.12543 0
M  V30 6014 H 554.795 -1.36194 0.614135 0
M  V30 6015 H 556.677 -4.1017 -0.96634 0
M  V30 6016 H 555.352 -2.95781 -1.31512 0
M  V30 6017 H 554.259 -3.63053 0.902411 0
M  V30 6018 H 555.592 -4.78136 1.16818 0
M  V30 6019 N 557.244 -0.608902 -1.45362 0
M  V30 6020 C 558.66 -0.272659 -1.57254 0
M  V30 6021 C 558.86 1.22477 -1.60005 0
M  V30 6022 O 557.916 2.00785 -1.53106 0
M  V30 6023 C 559.229 -0.944991 -2.85465 0
M  V30 6024 C 560.777 -0.921033 -2.99142 0
M  V30 6025 C 561.252 -1.5734 -4.30126 0
M  V30 6026 N 562.743 -1.53895 -4.36887 0
M  V30 6027 C 563.478 -2.01286 -5.36909 0
M  V30 6028 N 562.974 -2.56768 -6.43461 0
M  V30 6029 N 564.767 -1.92046 -5.28275 0
M  V30 6030 H 556.918 -1.58117 -1.4182 0
M  V30 6031 H 559.181 -0.662437 -0.678146 0
M  V30 6032 H 558.887 -1.99941 -2.89338 0
M  V30 6033 H 558.761 -0.469079 -3.74272 0
M  V30 6034 H 561.148 0.124846 -2.94836 0
M  V30 6035 H 561.229 -1.43522 -2.11743 0
M  V30 6036 H 560.873 -2.61862 -4.35191 0
M  V30 6037 H 560.803 -1.03422 -5.16344 0
M  V30 6038 H 563.294 -1.13366 -3.60495 0
M  V30 6039 H 563.607 -2.9072 -7.16032 0
M  V30 6040 H 561.952 -2.60808 -6.44208 0
M  V30 6041 H 565.143 -1.48439 -4.43941 0
M  V30 6042 H 565.316 -2.29293 -6.06077 0
M  V30 6043 N 558.722 1.53707 -0.348139 0
M  V30 6044 C 559.632 2.28881 0.514857 0
M  V30 6045 C 560.648 1.34168 1.10793 0
M  V30 6046 O 561.824 1.6721 1.12262 0
M  V30 6047 C 558.889 3.05042 1.64774 0
M  V30 6048 C 557.95 4.15389 1.08398 0
M  V30 6049 C 557.183 4.87909 2.16287 0
M  V30 6050 O 557.406 4.60137 3.3709 0
M  V30 6051 O 556.34 5.74254 1.80323 0
M  V30 6052 H 560.166 3.03547 -0.0963699 0
M  V30 6053 H 557.751 1.48972 -0.113043 0
M  V30 6054 H 559.633 3.52656 2.30677 0
M  V30 6055 H 558.308 2.33228 2.24469 0
M  V30 6056 H 557.215 3.72068 0.389341 0
M  V30 6057 H 558.548 4.89318 0.531829 0
M  V30 6058 N 560.2 0.0768682 1.57412 0
M  V30 6059 C 561.13 -0.886026 2.16037 0
M  V30 6060 C 562.111 -1.30691 1.08876 0
M  V30 6061 O 563.296 -1.37705 1.36934 0
M  V30 6062 C 560.426 -2.1518 2.72608 0
M  V30 6063 C 559.38 -1.87015 3.8498 0
M  V30 6064 C 558.706 -3.20266 4.28175 0
M  V30 6065 C 560.006 -1.17143 5.08994 0
M  V30 6066 H 561.7 -0.397642 2.96748 0
M  V30 6067 H 559.246 -0.189823 1.42743 0
M  V30 6068 H 561.199 -2.82962 3.12266 0
M  V30 6069 H 559.923 -2.66269 1.89125 0
M  V30 6070 H 558.582 -1.21636 3.45833 0
M  V30 6071 H 558.23 -3.69207 3.41607 0
M  V30 6072 H 557.93 -3.0221 5.03927 0
M  V30 6073 H 559.454 -3.89237 4.70454 0
M  V30 6074 H 560.868 -1.75003 5.45937 0
M  V30 6075 H 559.265 -1.09328 5.90057 0
M  V30 6076 H 560.335 -0.151295 4.84664 0
M  V30 6077 N 561.678 -1.56367 -0.196722 0
M  V30 6078 C 562.626 -1.95304 -1.2633 0
M  V30 6079 C 563.62 -0.838252 -1.47206 0
M  V30 6080 O 564.826 -1.02325 -1.48087 0
M  V30 6081 H 561.201 -0.621013 -0.424083 0
M  V30 6082 H 563.172 -2.84254 -0.907879 0
M  V30 6083 C 561.921 -2.3074 -2.60104 0
M  V30 6084 H 561.244 -3.16047 -2.44856 0
M  V30 6085 H 562.684 -2.61849 -3.33484 0
M  V30 6086 C 561.143 -1.14143 -3.16975 0
M  V30 6087 O 561.673 -0.415602 -3.99544 0
M  V30 6088 N 559.879 -0.91867 -2.75697 0
M  V30 6089 H 559.426 -1.51065 -2.08656 0
M  V30 6090 H 559.384 -0.140321 -3.14087 0
M  V30 6091 N 563.156 0.464375 -1.50603 0
M  V30 6092 C 564.404 1.21356 -1.61608 0
M  V30 6093 C 564.725 1.92329 -0.321643 0
M  V30 6094 O 563.995 1.84403 0.661232 0
M  V30 6095 H 562.575 0.45094 -0.595535 0
M  V30 6096 H 565.237 0.535046 -1.87412 0
M  V30 6097 H 564.333 1.95783 -2.43054 0
M  V30 6098 N 564.634 1.40294 0.718013 0
M  V30 6099 C 565.864 1.41544 1.50495 0
M  V30 6100 C 566.272 0.0127877 1.89196 0
M  V30 6101 O 565.615 -0.97305 1.55812 0
M  V30 6102 C 565.677 2.24021 2.81167 0
M  V30 6103 C 565.341 3.72463 2.64803 0
M  V30 6104 C 566.338 4.65154 2.32223 0
M  V30 6105 C 564.023 4.1625 2.81143 0
M  V30 6106 C 566.017 5.99618 2.16189 0
M  V30 6107 C 563.704 5.50784 2.64727 0
M  V30 6108 C 564.702 6.42283 2.32297 0
M  V30 6109 O 564.39 7.74337 2.16004 0
M  V30 6110 H 564.122 0.484819 0.471091 0
M  V30 6111 H 566.676 1.84948 0.893488 0
M  V30 6112 H 564.906 1.75393 3.44636 0
M  V30 6113 H 566.595 2.17243 3.42871 0
M  V30 6114 H 567.361 4.32622 2.19234 0
M  V30 6115 H 563.24 3.45352 3.05373 0
M  V30 6116 H 566.784 6.71 1.90799 0
M  V30 6117 H 562.681 5.82902 2.773 0
M  V30 6118 H 563.449 7.85244 2.30942 0
M  V30 6119 N 566.112 -0.949982 1.2575 0
M  V30 6120 C 567.528 -1.22191 1.02672 0
M  V30 6121 C 567.728 -1.99898 -0.253588 0
M  V30 6122 O 566.784 -2.33329 -0.965076 0
M  V30 6123 C 568.097 -1.99175 2.25277 0
M  V30 6124 C 569.645 -2.12201 2.30087 0
M  V30 6125 C 570.12 -2.92586 3.5236 0
M  V30 6126 N 571.611 -3.00163 3.52784 0
M  V30 6127 C 572.346 -3.62766 4.44059 0
M  V30 6128 N 571.842 -4.26943 5.45611 0
M  V30 6129 N 573.635 -3.59953 4.3173 0
M  V30 6130 H 565.786 -0.430258 2.07996 0
M  V30 6131 H 568.049 -0.252844 0.91366 0
M  V30 6132 H 567.755 -1.49479 3.18354 0
M  V30 6133 H 567.629 -2.99868 2.28821 0
M  V30 6134 H 570.016 -2.61093 1.3753 0
M  V30 6135 H 570.097 -1.10799 2.30559 0
M  V30 6136 H 569.741 -2.44383 4.45241 0
M  V30 6137 H 569.671 -3.94224 3.49134 0
M  V30 6138 H 572.162 -2.54529 2.79327 0
M  V30 6139 H 572.475 -4.72583 6.11461 0
M  V30 6140 H 570.82 -4.25557 5.49478 0
M  V30 6141 H 574.011 -3.09003 3.51617 0
M  V30 6142 H 574.184 -4.08455 5.03059 0
M  V30 6143 N 567.59 -1.07411 -1.15328 0
M  V30 6144 C 568.553 -0.698914 -2.18284 0
M  V30 6145 C 569.553 0.261149 -1.58665 0
M  V30 6146 O 570.743 0.0420277 -1.74149 0
M  V30 6147 C 567.875 -0.0302427 -3.40887 0
M  V30 6148 H 569.068 -1.61045 -2.52991 0
M  V30 6149 H 566.621 -0.870724 -1.298 0
M  V30 6150 H 567.356 0.893505 -3.11748 0
M  V30 6151 H 567.141 -0.720759 -3.85419 0
M  V30 6152 H 568.631 0.21759 -4.17033 0
M  V30 6153 N 569.068 1.32177 -0.85831 0
M  V30 6154 C 570.314 1.97813 -0.47346 0
M  V30 6155 C 570.669 1.66674 0.961122 0
M  V30 6156 O 569.962 0.94657 1.66585 0
M  V30 6157 C 570.156 3.51372 -0.653658 0
M  V30 6158 C 569.985 3.97433 -2.1042 0
M  V30 6159 C 568.755 4.24338 -2.74345 0
M  V30 6160 C 570.953 4.12233 -3.0752 0
M  V30 6161 N 568.935 4.56672 -4.10272 0
M  V30 6162 C 570.306 4.48146 -4.28445 0
M  V30 6163 C 572.361 3.94577 -3.03667 0
M  V30 6164 C 571.064 4.68246 -5.4602 0
M  V30 6165 C 573.09 4.15864 -4.20489 0
M  V30 6166 C 572.452 4.52098 -5.40173 0
M  V30 6167 H 568.551 0.749808 -0.222061 0
M  V30 6168 H 571.135 1.59927 -1.11047 0
M  V30 6169 H 569.306 3.88372 -0.0463267 0
M  V30 6170 H 571.038 4.03998 -0.238343 0
M  V30 6171 H 567.793 4.16544 -2.25362 0
M  V30 6172 H 568.217 4.77019 -4.80398 0
M  V30 6173 H 572.859 3.65662 -2.12252 0
M  V30 6174 H 570.577 4.96014 -6.37962 0
M  V30 6175 H 574.163 4.03702 -4.18947 0
M  V30 6176 H 573.043 4.68238 -6.29065 0
M  V30 6177 N 570.547 0.616602 1.45037 0
M  V30 6178 C 571.796 0.112861 2.01384 0
M  V30 6179 C 572.109 -1.26758 1.48969 0
M  V30 6180 O 573.315 -1.86454 1.9735 0
M  V30 6181 C 571.771 0.151057 3.59583 0
M  V30 6182 C 571.379 1.53191 4.20995 0
M  V30 6183 C 573.123 -0.296974 4.2346 0
M  V30 6184 C 571.03 1.526 5.71373 0
M  V30 6185 H 569.96 0.0384254 0.75302 0
M  V30 6186 H 572.611 0.773262 1.66412 0
M  V30 6187 H 570.993 -0.57617 3.91786 0
M  V30 6188 H 572.167 2.28156 4.00352 0
M  V30 6189 H 570.482 1.92279 3.69348 0
M  V30 6190 H 573.079 -0.320712 5.33737 0
M  V30 6191 H 573.422 -1.32145 3.9477 0
M  V30 6192 H 573.955 0.377279 3.96007 0
M  V30 6193 H 570.694 2.52837 6.04776 0
M  V30 6194 H 570.214 0.819064 5.94181 0
M  V30 6195 H 571.893 1.25357 6.3474 0
M  V30 6196 N 572.025 -1.5352 0.356285 0
M  V30 6197 C 573.302 -1.93405 -0.292223 0
M  V30 6198 C 573.682 -1.28901 -1.67176 0
M  V30 6199 O 573.03 -0.444632 -2.24132 0
M  V30 6200 C 573.24 -3.47223 -0.35175 0
M  V30 6201 C 574.588 -4.20389 -0.596534 0
M  V30 6202 O 575.612 -3.53554 -0.433344 0
M  V30 6203 O 574.471 -5.3881 -0.913589 0
M  V30 6204 H 571.565 -0.808666 -0.173172 0
M  V30 6205 H 574.111 -1.64713 0.408391 0
M  V30 6206 H 572.883 -3.86423 0.615841 0
M  V30 6207 H 572.506 -3.8212 -1.09864 0
M  V30 6208 N 573.503 -0.0852151 -1.57369 0
M  V30 6209 C 574.45 0.877268 -2.13478 0
M  V30 6210 C 575.42 1.28642 -1.05073 0
M  V30 6211 O 576.605 1.36992 -1.32808 0
M  V30 6212 C 573.745 2.13464 -2.71159 0
M  V30 6213 C 572.858 1.77691 -3.93764 0
M  V30 6214 C 571.993 2.98139 -4.39643 0
M  V30 6215 C 571.032 2.58447 -5.54862 0
M  V30 6216 N 570.169 3.71698 -5.95639 0
M  V30 6217 H 575.009 0.391933 -2.95411 0
M  V30 6218 H 572.546 0.181796 -1.45972 0
M  V30 6219 H 574.504 2.87086 -3.02717 0
M  V30 6220 H 573.134 2.59514 -1.91969 0
M  V30 6221 H 572.186 0.940768 -3.68583 0
M  V30 6222 H 573.498 1.44497 -4.77412 0
M  V30 6223 H 572.652 3.80026 -4.72933 0
M  V30 6224 H 571.391 3.34536 -3.54876 0
M  V30 6225 H 570.396 1.74984 -5.21211 0
M  V30 6226 H 571.621 2.23205 -6.41371 0
M  V30 6227 H 569.567 4.07831 -5.13819 0
M  V30 6228 H 569.484 3.42317 -6.74059 0
M  V30 6229 H 570.752 4.54123 -6.33555 0
M  V30 6230 N 574.981 1.5647 0.188427 0
M  V30 6231 C 575.944 1.9421 1.21718 0
M  V30 6232 C 576.944 0.823901 1.38089 0
M  V30 6233 O 578.134 1.09122 1.35787 0
M  V30 6234 C 575.266 2.22197 2.58537 0
M  V30 6235 H 576.459 2.86252 0.894418 0
M  V30 6236 H 574.012 1.50263 0.430211 0
M  V30 6237 H 574.747 1.32814 2.95856 0
M  V30 6238 H 574.532 3.03688 2.48025 0
M  V30 6239 H 576.022 2.52376 3.3271 0
M  V30 6240 N 576.459 -0.456382 1.50847 0
M  V30 6241 C 577.369 -1.57805 1.73594 0
M  V30 6242 C 578.385 -1.62599 0.619476 0
M  V30 6243 O 579.561 -1.80195 0.899532 0
M  V30 6244 C 576.626 -2.93926 1.8387 0
M  V30 6245 C 575.687 -2.99402 3.07663 0
M  V30 6246 C 574.92 -4.29031 3.1744 0
M  V30 6247 O 575.143 -5.20358 2.33631 0
M  V30 6248 O 574.077 -4.40401 4.10281 0
M  V30 6249 H 577.903 -1.41531 2.68705 0
M  V30 6250 H 575.488 -0.637422 1.3512 0
M  V30 6251 H 577.37 -3.74747 1.92725 0
M  V30 6252 H 576.045 -3.10368 0.91944 0
M  V30 6253 H 574.952 -2.17606 3.043 0
M  V30 6254 H 576.285 -2.87901 3.99216 0
M  V30 6255 N 577.937 -1.40673 -0.710563 0
M  V30 6256 C 578.847 -1.43663 -1.85467 0
M  V30 6257 C 579.863 -0.328721 -1.70867 0
M  V30 6258 O 581.039 -0.574098 -1.93044 0
M  V30 6259 C 578.104 -1.30226 -3.21313 0
M  V30 6260 C 577.165 -2.51204 -3.48131 0
M  V30 6261 C 576.398 -2.38398 -4.77495 0
M  V30 6262 O 576.621 -1.40048 -5.5294 0
M  V30 6263 O 575.555 -3.2787 -5.04762 0
M  V30 6264 H 579.381 -2.40156 -1.859 0
M  V30 6265 H 576.966 -1.22049 -0.861652 0
M  V30 6266 H 578.848 -1.2496 -4.02446 0
M  V30 6267 H 577.523 -0.368419 -3.21597 0
M  V30 6268 H 576.43 -2.62048 -2.66987 0
M  V30 6269 H 577.763 -3.43366 -3.52648 0
M  V30 6270 N 579.415 0.9433 -1.26252 0
M  V30 6271 C 580.661 1.69175 -1.11837 0
M  V30 6272 C 580.994 1.91238 0.337891 0
M  V30 6273 O 580.269 1.49152 1.24836 0
M  V30 6274 C 580.552 3.06783 -1.88563 0
M  V30 6275 C 580.405 2.9206 -3.42083 0
M  V30 6276 C 581.724 4.06865 -1.67776 0
M  V30 6277 H 578.843 0.61399 -0.407658 0
M  V30 6278 H 581.485 1.09572 -1.55222 0
M  V30 6279 H 579.635 3.57663 -1.51689 0
M  V30 6280 H 581.307 2.48419 -3.88698 0
M  V30 6281 H 579.55 2.27731 -3.69217 0
M  V30 6282 H 580.221 3.89651 -3.90994 0
M  V30 6283 H 582.697 3.64939 -1.99897 0
M  V30 6284 H 581.573 5.01168 -2.23879 0
M  V30 6285 H 581.834 4.37705 -0.621816 0
M  V30 6286 N 580.893 1.08022 1.14757 0
M  V30 6287 C 581.826 0.650738 2.18725 0
M  V30 6288 C 582.804 -0.335496 1.59101 0
M  V30 6289 O 583.988 -0.240295 1.86962 0
M  V30 6290 C 581.115 -0.0434377 3.38672 0
M  V30 6291 C 580.161 0.90232 4.16846 0
M  V30 6292 S 580.994 2.40693 4.78359 0
M  V30 6293 C 582.15 1.72475 6.01667 0
M  V30 6294 H 582.383 1.53152 2.54817 0
M  V30 6295 H 579.916 0.894823 1.25826 0
M  V30 6296 H 581.874 -0.437684 4.0816 0
M  V30 6297 H 580.535 -0.900659 3.0091 0
M  V30 6298 H 579.728 0.363445 5.02688 0
M  V30 6299 H 579.33 1.23728 3.52941 0
M  V30 6300 H 581.622 1.0404 6.69464 0
M  V30 6301 H 582.565 2.56175 6.60136 0
M  V30 6302 H 582.973 1.19979 5.51602 0
M  V30 6303 N 582.371 -1.3172 0.865308 0
M  V30 6304 C 583.301 -2.31109 0.333302 0
M  V30 6305 C 584.282 -1.60148 -0.573301 0
M  V30 6306 O 585.467 -1.87882 -0.491305 0
M  V30 6307 C 582.597 -3.44104 -0.470078 0
M  V30 6308 C 581.551 -4.26623 0.343021 0
M  V30 6309 C 580.877 -5.31482 -0.585756 0
M  V30 6310 C 582.177 -4.98001 1.57456 0
M  V30 6311 H 583.871 -2.75855 1.1638 0
M  V30 6312 H 581.417 -1.3262 0.561069 0
M  V30 6313 H 583.37 -4.12682 -0.852752 0
M  V30 6314 H 582.094 -2.98112 -1.33404 0
M  V30 6315 H 580.753 -3.59707 0.707583 0
M  V30 6316 H 580.401 -4.81741 -1.44686 0
M  V30 6317 H 580.101 -5.87582 -0.0456494 0
M  V30 6318 H 581.625 -6.0292 -0.965375 0
M  V30 6319 H 583.039 -5.59201 1.26359 0
M  V30 6320 H 581.436 -5.63876 2.05339 0
M  V30 6321 H 582.506 -4.25253 2.32997 0
M  V30 6322 N 583.85 -0.624285 -1.44708 0
M  V30 6323 C 584.812 0.0749638 -2.29077 0
M  V30 6324 C 585.812 0.778965 -1.40673 0
M  V30 6325 O 587.003 0.624591 -1.62618 0
M  V30 6326 C 584.135 1.11663 -3.22094 0
M  V30 6327 H 585.327 -0.667013 -2.92388 0
M  V30 6328 H 582.88 -0.384098 -1.51507 0
M  V30 6329 H 583.615 1.88881 -2.63618 0
M  V30 6330 H 583.401 0.61583 -3.87234 0
M  V30 6331 H 584.891 1.60585 -3.8549 0
M  V30 6332 N 585.328 1.53329 -0.364422 0
M  V30 6333 C 586.238 2.29414 0.490552 0
M  V30 6334 C 587.254 1.35335 1.09363 0
M  V30 6335 O 588.43 1.68391 1.10483 0
M  V30 6336 C 585.495 3.06772 1.61529 0
M  V30 6337 C 584.556 4.16516 1.03986 0
M  V30 6338 C 583.789 4.90176 2.111 0
M  V30 6339 O 584.012 4.63687 3.32191 0
M  V30 6340 O 582.946 5.76134 1.74222 0
M  V30 6341 H 586.772 3.03428 -0.12856 0
M  V30 6342 H 584.357 1.48843 -0.128837 0
M  V30 6343 H 586.239 3.55082 2.26924 0
M  V30 6344 H 584.914 2.35596 2.21983 0
M  V30 6345 H 583.821 3.7246 0.349856 0
M  V30 6346 H 585.154 4.89855 0.4799 0
M  V30 6347 N 586.806 0.0935595 1.57322 0
M  V30 6348 C 587.716 -0.880192 2.17462 0
M  V30 6349 C 588.732 -1.31135 1.14366 0
M  V30 6350 O 589.908 -1.37958 1.46729 0
M  V30 6351 C 586.973 -2.12184 2.74188 0
M  V30 6352 C 586.034 -1.74503 3.92234 0
M  V30 6353 C 585.267 -2.92748 4.46245 0
M  V30 6354 O 585.49 -4.07427 3.99198 0
M  V30 6355 O 584.424 -2.71303 5.37288 0
M  V30 6356 H 588.25 -0.398516 3.01074 0
M  V30 6357 H 585.835 -0.130707 1.48827 0
M  V30 6358 H 587.717 -2.84953 3.10451 0
M  V30 6359 H 586.392 -2.59407 1.93623 0
M  V30 6360 H 585.299 -0.989186 3.60785 0
M  V30 6361 H 586.632 -1.32044 4.74157 0
M  V30 6362 N 588.284 -1.56567 -0.180126 0
M  V30 6363 C 589.232 -1.96632 -1.24251 0
M  V30 6364 C 590.226 -0.853818 -1.46309 0
M  V30 6365 O 591.432 -1.0389 -1.46993 0
M  V30 6366 H 587.807 -0.625476 -0.417473 0
M  V30 6367 H 589.778 -2.85201 -0.877679 0
M  V30 6368 C 588.527 -2.33486 -2.57642 0
M  V30 6369 H 587.85 -3.18626 -2.4149 0
M  V30 6370 H 589.29 -2.65371 -3.30688 0
M  V30 6371 C 587.749 -1.17499 -3.15746 0
M  V30 6372 O 588.279 -0.457956 -3.99081 0
M  V30 6373 N 586.485 -0.94786 -2.74707 0
M  V30 6374 H 586.032 -1.53269 -2.07042 0
M  V30 6375 H 585.99 -0.173626 -3.1392 0
M  V30 6376 N 589.762 0.448376 -1.51087 0
M  V30 6377 C 590.709 1.54341 -1.71603 0
M  V30 6378 C 591.679 1.56463 -0.557536 0
M  V30 6379 O 592.864 1.73644 -0.79072 0
M  V30 6380 C 590.004 2.92148 -1.83695 0
M  V30 6381 C 589.117 2.99639 -3.11192 0
M  V30 6382 C 588.252 4.285 -3.13944 0
M  V30 6383 C 587.291 4.29819 -4.35801 0
M  V30 6384 N 586.428 5.50186 -4.36164 0
M  V30 6385 H 591.268 1.36151 -2.65079 0
M  V30 6386 H 588.805 0.661585 -1.31383 0
M  V30 6387 H 590.763 3.72093 -1.88687 0
M  V30 6388 H 589.393 3.0892 -0.936374 0
M  V30 6389 H 588.445 2.12425 -3.15562 0
M  V30 6390 H 589.757 2.96474 -4.01129 0
M  V30 6391 H 588.911 5.16811 -3.17791 0
M  V30 6392 H 587.65 4.34307 -2.21876 0
M  V30 6393 H 586.655 3.39902 -4.32142 0
M  V30 6394 H 587.88 4.25685 -5.29121 0
M  V30 6395 H 585.826 5.56735 -3.46961 0
M  V30 6396 H 585.743 5.48856 -5.19897 0
M  V30 6397 H 587.011 6.40559 -4.44189 0
M  V30 6398 N 591.24 1.41047 0.703093 0
M  V30 6399 C 592.188 1.42494 1.83843 0
M  V30 6400 C 593.182 0.303885 1.66652 0
M  V30 6401 O 594.388 0.475544 1.73605 0
M  V30 6402 H 590.763 0.445685 0.605697 0
M  V30 6403 H 592.734 2.38194 1.79739 0
M  V30 6404 C 591.483 1.31666 3.21807 0
M  V30 6405 H 590.806 2.17212 3.35647 0
M  V30 6406 H 592.246 1.36738 4.01346 0
M  V30 6407 C 590.705 0.0281828 3.36888 0
M  V30 6408 O 591.235 -0.929995 3.90786 0
M  V30 6409 N 589.441 -0.0454322 2.90564 0
M  V30 6410 H 588.988 0.735046 2.4689 0
M  V30 6411 H 588.946 -0.906968 3.01034 0
M  V30 6412 N 592.718 -0.936591 1.26751 0
M  V30 6413 C 593.681 -2.01752 1.08761 0
M  V30 6414 C 594.681 -1.60763 0.0344435 0
M  V30 6415 O 595.871 -1.71963 0.278258 0
M  V30 6416 C 593.003 -3.34543 0.655271 0
M  V30 6417 H 594.196 -2.19143 2.04735 0
M  V30 6418 H 591.749 -1.11618 1.09413 0
M  V30 6419 H 592.484 -3.22851 -0.30626 0
M  V30 6420 H 592.269 -3.65647 1.41578 0
M  V30 6421 H 593.759 -4.13944 0.551378 0
M  V30 6422 N 594.196 -1.08629 -1.14182 0
M  V30 6423 C 595.444 -0.815731 -1.84906 0
M  V30 6424 C 595.765 0.660441 -1.83475 0
M  V30 6425 O 595.035 1.47888 -1.28476 0
M  V30 6426 H 593.615 -0.298773 -0.684648 0
M  V30 6427 H 596.277 -1.37274 -1.38354 0
M  V30 6428 H 595.373 -1.16193 -2.89665 0
M  V30 6429 N 595.674 1.31259 -0.872281 0
M  V30 6430 C 596.902 2.00795 -0.498907 0
M  V30 6431 C 597.317 1.65464 0.909238 0
M  V30 6432 O 596.674 0.885073 1.59602 0
M  V30 6433 C 596.725 3.55625 -0.649092 0
M  V30 6434 O 596.446 3.89692 -2.00179 0
M  V30 6435 C 597.947 4.42434 -0.277034 0
M  V30 6436 H 595.167 0.642299 -0.194145 0
M  V30 6437 H 597.711 1.67438 -1.17408 0
M  V30 6438 H 595.866 3.87394 -0.0214402 0
M  V30 6439 H 596.28 4.84407 -2.01122 0
M  V30 6440 H 597.754 5.50299 -0.433064 0
M  V30 6441 H 598.231 4.32146 0.783989 0
M  V30 6442 H 598.837 4.16086 -0.880483 0
M  V30 6443 N 597.152 0.631951 1.44375 0
M  V30 6444 C 598.377 0.142146 2.06912 0
M  V30 6445 C 598.802 -1.17456 1.4692 0
M  V30 6446 O 598.16 -1.72074 0.570975 0
M  V30 6447 C 598.208 0.0417952 3.60576 0
M  V30 6448 O 597.312 -1.00194 4.00044 0
M  V30 6449 H 596.653 0.0851491 0.658518 0
M  V30 6450 H 599.183 0.868863 1.85235 0
M  V30 6451 H 599.193 -0.148517 4.0773 0
M  V30 6452 H 597.868 1.0031 4.03622 0
M  V30 6453 H 596.445 -0.786131 3.64519 0
M  V30 6454 N 598.631 -1.53133 0.372548 0
M  V30 6455 C 599.594 -2.24569 -0.458389 0
M  V30 6456 C 600.594 -1.25603 -1.00402 0
M  V30 6457 O 601.784 -1.49827 -0.888672 0
M  V30 6458 C 598.916 -2.98783 -1.6414 0
M  V30 6459 H 600.109 -2.99436 0.166799 0
M  V30 6460 H 597.662 -1.55805 0.124357 0
M  V30 6461 H 598.397 -2.28176 -2.30448 0
M  V30 6462 H 598.182 -3.71404 -1.25704 0
M  V30 6463 H 599.672 -3.53068 -2.23008 0
M  V30 6464 N 600.109 -0.101901 -1.5727 0
M  V30 6465 C 601.039 0.851544 -2.17419 0
M  V30 6466 C 602.02 1.28942 -1.10941 0
M  V30 6467 O 603.205 1.35509 -1.39107 0
M  V30 6468 C 600.335 2.10816 -2.75996 0
M  V30 6469 C 599.289 1.80867 -3.87906 0
M  V30 6470 C 598.615 3.13413 -4.33216 0
M  V30 6471 C 599.915 1.0903 -5.10793 0
M  V30 6472 H 601.609 0.350381 -2.97343 0
M  V30 6473 H 599.155 0.16709 -1.43027 0
M  V30 6474 H 601.108 2.77959 -3.16729 0
M  V30 6475 H 599.832 2.63227 -1.93337 0
M  V30 6476 H 598.491 1.16119 -3.47724 0
M  V30 6477 H 598.139 3.63725 -3.47438 0
M  V30 6478 H 597.839 2.94155 -5.08671 0
M  V30 6479 H 599.363 3.81704 -4.76586 0
M  V30 6480 H 600.777 1.66295 -5.48652 0
M  V30 6481 H 599.174 0.99927 -5.91722 0
M  V30 6482 H 600.244 0.0741704 -4.84843 0
M  V30 6483 N 601.587 1.56661 0.17182 0
M  V30 6484 C 602.497 1.99604 1.2327 0
M  V30 6485 C 603.513 0.907333 1.4847 0
M  V30 6486 O 604.689 1.21492 1.60629 0
M  V30 6487 C 601.754 2.34685 2.55194 0
M  V30 6488 C 600.815 3.57381 2.3786 0
M  V30 6489 C 600.048 3.90779 3.63494 0
M  V30 6490 O 600.271 3.25152 4.6865 0
M  V30 6491 O 599.205 4.84129 3.57634 0
M  V30 6492 H 603.031 2.90114 0.898192 0
M  V30 6493 H 600.616 1.44522 0.378647 0
M  V30 6494 H 602.498 2.5822 3.33017 0
M  V30 6495 H 601.173 1.47336 2.88225 0
M  V30 6496 H 600.08 3.39064 1.5807 0
M  V30 6497 H 601.413 4.45268 2.09754 0
M  V30 6498 N 603.065 -0.440357 1.51323 0
M  V30 6499 C 604.311 -1.19181 1.64085 0
M  V30 6500 C 604.644 -1.90936 0.354575 0
M  V30 6501 O 603.919 -1.8347 -0.645675 0
M  V30 6502 C 604.202 -2.2112 2.84215 0
M  V30 6503 C 604.055 -1.53468 4.22809 0
M  V30 6504 C 605.374 -3.22133 2.99864 0
M  V30 6505 H 602.493 -0.431924 0.597169 0
M  V30 6506 H 605.135 -0.481443 1.83799 0
M  V30 6507 H 603.285 -2.81703 2.67537 0
M  V30 6508 H 604.957 -0.962455 4.51148 0
M  V30 6509 H 603.2 -0.837086 4.25647 0
M  V30 6510 H 603.871 -2.27694 5.02852 0
M  V30 6511 H 606.347 -2.71601 3.15233 0
M  V30 6512 H 605.223 -3.90756 3.85488 0
M  V30 6513 H 605.484 -3.88061 2.11804 0
M  V30 6514 N 604.543 -1.41418 -0.695603 0
M  V30 6515 C 605.473 -1.46035 -1.82197 0
M  V30 6516 C 606.454 -0.319025 -1.67082 0
M  V30 6517 O 607.639 -0.530462 -1.86815 0
M  V30 6518 C 604.769 -1.34179 -3.20333 0
M  V30 6519 C 603.723 -2.46123 -3.50154 0
M  V30 6520 C 603.049 -2.19332 -4.87645 0
M  V30 6521 C 604.349 -3.88463 -3.49133 0
M  V30 6522 H 606.043 -2.40303 -1.78591 0
M  V30 6523 H 603.589 -1.15663 -0.857797 0
M  V30 6524 H 605.542 -1.36021 -3.98844 0
M  V30 6525 H 604.266 -0.363952 -3.24566 0
M  V30 6526 H 602.925 -2.43563 -2.73994 0
M  V30 6527 H 602.573 -1.19891 -4.88503 0
M  V30 6528 H 602.273 -2.94344 -5.08562 0
M  V30 6529 H 603.797 -2.22889 -5.68465 0
M  V30 6530 H 605.211 -3.92738 -4.17648 0
M  V30 6531 H 603.608 -4.63158 -3.81582 0
M  V30 6532 H 604.678 -4.16617 -2.48109 0
M  V30 6533 N 606.021 0.929856 -1.27246 0
M  V30 6534 C 607.437 1.20542 -1.04603 0
M  V30 6535 C 607.637 2.00276 0.221754 0
M  V30 6536 O 606.693 2.34835 0.927833 0
M  V30 6537 C 608.006 1.95566 -2.28417 0
M  V30 6538 C 609.554 2.08513 -2.33433 0
M  V30 6539 C 610.029 2.86943 -3.5697 0
M  V30 6540 N 611.52 2.94512 -3.57515 0
M  V30 6541 C 612.255 3.55656 -4.49774 0
M  V30 6542 N 611.751 4.18209 -5.52334 0
M  V30 6543 N 613.544 3.53038 -4.37402 0
M  V30 6544 H 605.695 0.397113 -2.08655 0
M  V30 6545 H 607.958 0.238277 -0.917566 0
M  V30 6546 H 607.664 1.44395 -3.20691 0
M  V30 6547 H 607.538 2.9619 -2.33563 0
M  V30 6548 H 609.925 2.58872 -1.41666 0
M  V30 6549 H 610.006 1.07117 -2.32292 0
M  V30 6550 H 609.65 2.37268 -4.49072 0
M  V30 6551 H 609.58 3.8862 -3.55362 0
M  V30 6552 H 612.071 2.50053 -2.83341 0
M  V30 6553 H 612.384 4.62796 -6.18902 0
M  V30 6554 H 610.729 4.16761 -5.56179 0
M  V30 6555 H 613.92 3.0337 -3.56489 0
M  V30 6556 H 614.093 4.004 -5.09493 0
M  V30 6557 N 607.499 1.09233 1.13605 0
M  V30 6558 C 608.915 0.82163 1.36826 0
M  V30 6559 C 609.115 -0.565021 1.93416 0
M  V30 6560 O 608.171 -1.32026 2.15234 0
M  V30 6561 C 609.484 1.91124 2.32147 0
M  V30 6562 C 611.032 1.93824 2.45767 0
M  V30 6563 C 611.507 3.01923 3.44393 0
M  V30 6564 N 612.998 3.01149 3.51942 0
M  V30 6565 C 613.733 3.81434 4.2813 0
M  V30 6566 N 613.229 4.71621 5.07489 0
M  V30 6567 N 615.022 3.69702 4.23411 0
M  V30 6568 H 607.173 1.98633 0.752234 0
M  V30 6569 H 609.436 0.862482 0.393482 0
M  V30 6570 H 609.142 2.90862 1.97717 0
M  V30 6571 H 609.016 1.78777 3.32142 0
M  V30 6572 H 611.403 0.94726 2.79483 0
M  V30 6573 H 611.484 2.10248 1.45703 0
M  V30 6574 H 611.128 4.01232 3.11408 0
M  V30 6575 H 611.058 2.82742 4.44257 0
M  V30 6576 H 613.549 2.35789 2.95317 0
M  V30 6577 H 613.862 5.29468 5.62924 0
M  V30 6578 H 612.207 4.75658 5.06729 0
M  V30 6579 H 615.398 2.98606 3.60489 0
M  V30 6580 H 615.571 4.32509 4.82535 0
M  V30 6581 N 608.977 -1.30795 0.87923 0
M  V30 6582 C 609.94 -2.26563 0.346676 0
M  V30 6583 C 610.94 -1.52578 -0.507597 0
M  V30 6584 O 612.13 -1.71318 -0.315575 0
M  V30 6585 C 609.262 -3.37115 -0.506611 0
M  V30 6586 H 610.455 -2.75183 1.19223 0
M  V30 6587 H 608.008 -1.41886 0.655598 0
M  V30 6588 H 608.743 -2.93802 -1.37299 0
M  V30 6589 H 608.528 -3.91959 0.105218 0
M  V30 6590 H 610.018 -4.08412 -0.871192 0
M  V30 6591 N 610.455 -0.639598 -1.44038 0
M  V30 6592 C 611.683 -0.154811 -2.0632 0
M  V30 6593 C 612.098 1.17406 -1.47856 0
M  V30 6594 O 611.455 1.72193 -0.604638 0
M  V30 6595 C 611.506 -0.0429958 -3.61474 0
M  V30 6596 O 611.227 -1.31932 -4.17763 0
M  V30 6597 C 612.728 0.469486 -4.40807 0
M  V30 6598 H 609.948 -0.0835862 -0.665773 0
M  V30 6599 H 612.492 -0.876397 -1.84769 0
M  V30 6600 H 610.647 0.629075 -3.82258 0
M  V30 6601 H 611.061 -1.16965 -5.11292 0
M  V30 6602 H 612.535 0.496712 -5.49761 0
M  V30 6603 H 613.012 1.49819 -4.12857 0
M  V30 6604 H 613.618 -0.169624 -4.24962 0
M  V30 6605 N 611.933 1.52934 -0.380664 0
M  V30 6606 C 613.182 2.00651 0.205477 0
M  V30 6607 C 613.495 1.27164 1.48623 0
M  V30 6608 O 614.701 1.65547 2.15189 0
M  V30 6609 C 613.157 3.57479 0.416726 0
M  V30 6610 C 612.765 4.39857 -0.850268 0
M  V30 6611 C 614.509 4.13509 0.959702 0
M  V30 6612 C 612.416 5.88269 -0.607773 0
M  V30 6613 H 611.346 0.749684 0.0805614 0
M  V30 6614 H 613.997 1.76508 -0.501732 0
M  V30 6615 H 612.379 3.77836 1.18557 0
M  V30 6616 H 613.553 4.31269 -1.62307 0
M  V30 6617 H 611.868 3.95005 -1.31756 0
M  V30 6618 H 614.465 5.22039 1.15669 0
M  V30 6619 H 614.808 3.69054 1.92626 0
M  V30 6620 H 615.341 3.9701 0.250645 0
M  V30 6621 H 612.08 6.3703 -1.54509 0
M  V30 6622 H 611.6 5.99667 0.126247 0
M  V30 6623 H 613.279 6.46558 -0.239014 0
M  V30 6624 N 613.412 0.11024 1.57214 0
M  V30 6625 C 614.359 -0.843195 2.14846 0
M  V30 6626 C 615.329 -1.26954 1.07107 0
M  V30 6627 O 616.514 -1.34861 1.34971 0
M  V30 6628 C 613.654 -2.09123 2.74521 0
M  V30 6629 C 612.767 -1.71404 3.96541 0
M  V30 6630 C 611.902 -2.91107 4.44331 0
M  V30 6631 C 610.941 -2.49586 5.58903 0
M  V30 6632 N 610.078 -3.62175 6.01477 0
M  V30 6633 H 614.918 -0.344886 2.95998 0
M  V30 6634 H 612.455 -0.15855 1.46243 0
M  V30 6635 H 614.413 -2.82234 3.07246 0
M  V30 6636 H 613.043 -2.56427 1.96074 0
M  V30 6637 H 612.095 -0.88201 3.70033 0
M  V30 6638 H 613.407 -1.36884 4.7965 0
M  V30 6639 H 612.561 -3.72454 4.78919 0
M  V30 6640 H 611.3 -3.28848 3.60153 0
M  V30 6641 H 610.305 -1.6667 5.23929 0
M  V30 6642 H 611.53 -2.12973 6.4484 0
M  V30 6643 H 609.476 -3.99605 5.20242 0
M  V30 6644 H 609.393 -3.3155 6.79419 0
M  V30 6645 H 610.661 -4.43987 6.407 0
M  V30 6646 N 614.89 -1.56749 -0.16351 0
M  V30 6647 C 616.306 -1.51043 -0.515567 0
M  V30 6648 C 616.506 -0.815855 -1.84245 0
M  V30 6649 O 615.562 -0.379477 -2.49632 0
M  V30 6650 C 616.875 -2.95791 -0.541114 0
M  V30 6651 C 618.423 -3.0664 -0.627776 0
M  V30 6652 C 618.898 -4.52861 -0.684141 0
M  V30 6653 N 620.389 -4.5714 -0.746818 0
M  V30 6654 C 621.124 -5.67634 -0.811137 0
M  V30 6655 N 620.62 -6.8774 -0.835811 0
M  V30 6656 N 622.413 -5.55624 -0.850756 0
M  V30 6657 H 614.564 -2.00307 0.70645 0
M  V30 6658 H 616.827 -0.912876 0.255659 0
M  V30 6659 H 616.533 -3.49797 0.365329 0
M  V30 6660 H 616.407 -3.50858 -1.38487 0
M  V30 6661 H 618.794 -2.52663 -1.52464 0
M  V30 6662 H 618.875 -2.54645 0.242805 0
M  V30 6663 H 618.519 -5.07472 0.2085 0
M  V30 6664 H 618.449 -5.02621 -1.57098 0
M  V30 6665 H 620.94 -3.70669 -0.735717 0
M  V30 6666 H 621.253 -7.67701 -0.886279 0
M  V30 6667 H 619.598 -6.90334 -0.803958 0
M  V30 6668 H 622.789 -4.60709 -0.828535 0
M  V30 6669 H 622.962 -6.41756 -0.897418 0
M  V30 6670 N 616.368 0.432326 -1.51554 0
M  V30 6671 C 617.593 1.20824 -1.68571 0
M  V30 6672 C 618.018 1.84126 -0.384596 0
M  V30 6673 O 617.376 1.69025 0.655751 0
M  V30 6674 C 617.424 2.26429 -2.80646 0
M  V30 6675 O 616.528 3.32032 -2.44598 0
M  V30 6676 H 615.869 0.353765 -0.561913 0
M  V30 6677 H 618.399 0.509916 -1.98144 0
M  V30 6678 H 618.409 2.71133 -3.04878 0
M  V30 6679 H 617.084 1.79733 -3.75058 0
M  V30 6680 H 615.661 2.92769 -2.30956 0
M  V30 6681 N 617.846 1.41785 0.688094 0
M  V30 6682 C 619.262 1.24419 0.999608 0
M  V30 6683 C 619.462 0.138868 2.01021 0
M  V30 6684 O 618.518 -0.494283 2.47615 0
M  V30 6685 C 619.831 2.59625 1.51709 0
M  V30 6686 C 621.379 2.66869 1.63554 0
M  V30 6687 C 621.854 4.0241 2.18702 0
M  V30 6688 N 623.345 4.04295 2.26053 0
M  V30 6689 C 624.08 5.05977 2.69768 0
M  V30 6690 N 623.576 6.18047 3.13033 0
M  V30 6691 N 625.369 4.93336 2.69398 0
M  V30 6692 H 617.52 2.12392 0.0187427 0
M  V30 6693 H 619.783 0.945347 0.0708673 0
M  V30 6694 H 619.489 3.41297 0.849059 0
M  V30 6695 H 619.363 2.82628 2.49803 0
M  V30 6696 H 621.75 1.8555 2.29467 0
M  V30 6697 H 621.831 2.47668 0.639857 0
M  V30 6698 H 621.475 4.8418 1.53402 0
M  V30 6699 H 621.405 4.18955 3.19037 0
M  V30 6700 H 623.896 3.23383 1.9553 0
M  V30 6701 H 624.209 6.91498 3.45038 0
M  V30 6702 H 622.554 6.21572 3.10923 0
M  V30 6703 H 625.745 4.04865 2.34952 0
M  V30 6704 H 625.918 5.72717 3.03148 0
M  V30 6705 N 619.324 -0.923095 1.27737 0
M  V30 6706 C 620.552 -1.70525 1.17171 0
M  V30 6707 C 620.967 -1.86847 -0.270881 0
M  V30 6708 O 620.324 -1.38879 -1.18401 0
M  V30 6709 C 620.375 -3.10242 1.85559 0
M  V30 6710 O 620.096 -2.94683 3.24182 0
M  V30 6711 C 621.597 -4.04586 1.81176 0
M  V30 6712 H 618.817 -0.533347 0.407163 0
M  V30 6713 H 621.361 -1.15599 1.68692 0
M  V30 6714 H 619.516 -3.62014 1.3793 0
M  V30 6715 H 619.93 -3.83045 3.58297 0
M  V30 6716 H 621.404 -5.00119 2.33633 0
M  V30 6717 H 621.881 -4.3218 0.782099 0
M  V30 6718 H 622.487 -3.58741 2.2844 0
M  V30 6719 N 620.802 -1.09834 -1.13024 0
M  V30 6720 C 621.712 -0.753731 -2.22162 0
M  V30 6721 C 622.728 0.246105 -1.72251 0
M  V30 6722 O 623.904 0.0864051 -2.01215 0
M  V30 6723 C 620.969 -0.183958 -3.46212 0
M  V30 6724 C 620.03 -1.24028 -4.10993 0
M  V30 6725 C 619.263 -0.697597 -5.29121 0
M  V30 6726 O 619.486 0.478092 -5.68393 0
M  V30 6727 O 618.42 -1.4546 -5.84059 0
M  V30 6728 H 622.246 -1.66456 -2.5402 0
M  V30 6729 H 619.831 -0.873026 -1.21238 0
M  V30 6730 H 621.713 0.130257 -4.21199 0
M  V30 6731 H 620.388 0.699823 -3.16045 0
M  V30 6732 H 619.295 -1.60725 -3.37814 0
M  V30 6733 H 620.628 -2.09685 -4.45301 0
M  V30 6734 N 622.28 1.30327 -0.886154 0
M  V30 6735 C 623.243 2.26376 -0.358687 0
M  V30 6736 C 624.243 1.52845 0.499498 0
M  V30 6737 O 625.433 1.71483 0.306485 0
M  V30 6738 C 622.565 3.37379 0.488726 0
M  V30 6739 H 623.758 2.74547 -1.20681 0
M  V30 6740 H 621.311 1.41536 -0.663113 0
M  V30 6741 H 622.046 2.94526 1.35739 0
M  V30 6742 H 621.831 3.91897 -0.126003 0
M  V30 6743 H 623.321 4.08868 0.84952 0
M  V30 6744 N 623.758 0.647228 1.43697 0
M  V30 6745 C 624.691 -0.097646 2.27991 0
M  V30 6746 C 625.669 -0.83571 1.3948 0
M  V30 6747 O 626.853 -0.836509 1.68922 0
M  V30 6748 C 623.98 -1.14484 3.18765 0
M  V30 6749 C 623.026 -0.505503 4.23494 0
M  V30 6750 S 623.859 0.716471 5.30685 0
M  V30 6751 C 625.015 -0.330339 6.25028 0
M  V30 6752 H 625.248 0.617417 2.90818 0
M  V30 6753 H 622.781 0.435881 1.4812 0
M  V30 6754 H 624.739 -1.74403 3.7161 0
M  V30 6755 H 623.4 -1.83219 2.55127 0
M  V30 6756 H 622.593 -1.29473 4.87086 0
M  V30 6757 H 622.195 0.0194377 3.73995 0
M  V30 6758 H 624.487 -1.19828 6.66819 0
M  V30 6759 H 625.43 0.270409 7.07583 0
M  V30 6760 H 625.838 -0.663459 5.60588 0
M  V30 6761 N 625.236 -1.5273 0.388769 0
M  V30 6762 C 626.464 -2.05992 -0.193677 0
M  V30 6763 C 626.879 -1.26053 -1.40557 0
M  V30 6764 O 626.236 -0.307049 -1.79898 0
M  V30 6765 C 626.287 -3.57068 -0.564321 0
M  V30 6766 O 626.008 -4.3398 0.599422 0
M  V30 6767 C 627.509 -4.26674 -1.20269 0
M  V30 6768 H 624.729 -0.670358 -0.0293445 0
M  V30 6769 H 627.273 -1.96857 0.553844 0
M  V30 6770 H 625.428 -3.66277 -1.26174 0
M  V30 6771 H 625.842 -5.2367 0.294895 0
M  V30 6772 H 627.316 -5.33625 -1.4124 0
M  V30 6773 H 627.793 -3.81854 -2.16989 0
M  V30 6774 H 628.399 -4.2178 -0.546047 0
M  V30 6775 N 626.714 -0.118576 -1.57153 0
M  V30 6776 C 628.13 0.238014 -1.57815 0
M  V30 6777 C 628.33 1.66747 -1.13127 0
M  V30 6778 O 627.386 2.38867 -0.818462 0
M  V30 6779 C 628.699 0.00508207 -3.007 0
M  V30 6780 C 630.247 0.0710139 -3.12919 0
M  V30 6781 C 630.722 -0.13422 -4.57803 0
M  V30 6782 N 632.213 -0.0801755 -4.63131 0
M  V30 6783 C 632.948 -0.213885 -5.73001 0
M  V30 6784 N 632.444 -0.403742 -6.91623 0
M  V30 6785 N 634.237 -0.15349 -5.6189 0
M  V30 6786 H 626.388 -1.05226 -1.84503 0
M  V30 6787 H 628.651 -0.414318 -0.852669 0
M  V30 6788 H 628.357 -0.983125 -3.3768 0
M  V30 6789 H 628.231 0.73714 -3.69927 0
M  V30 6790 H 630.618 1.04975 -2.75798 0
M  V30 6791 H 630.699 -0.692918 -2.46236 0
M  V30 6792 H 630.343 -1.10992 -4.95624 0
M  V30 6793 H 630.273 0.649692 -5.22577 0
M  V30 6794 H 632.764 0.0630689 -3.77847 0
M  V30 6795 H 633.077 -0.496645 -7.71202 0
M  V30 6796 H 631.422 -0.43971 -6.93608 0
M  V30 6797 H 634.613 -0.00613174 -4.681 0
M  V30 6798 H 634.786 -0.261138 -6.47474 0
M  V30 6799 N 628.193 1.56834 0.155195 0
M  V30 6800 C 629.47 1.73799 0.897395 0
M  V30 6801 C 629.85 0.684379 1.99698 0
M  V30 6802 O 629.198 -0.298111 2.26547 0
M  V30 6803 C 629.408 3.17572 1.44737 0
M  V30 6804 C 630.756 3.79014 1.91399 0
M  V30 6805 O 631.78 3.20951 1.54496 0
M  V30 6806 O 630.639 4.80998 2.59429 0
M  V30 6807 H 627.733 0.710329 0.423511 0
M  V30 6808 H 630.279 1.69107 0.141761 0
M  V30 6809 H 629.051 3.85749 0.656741 0
M  V30 6810 H 628.674 3.26657 2.26674 0
M  V30 6811 N 629.671 -0.424282 1.51781 0
M  V30 6812 C 630.896 -1.19928 1.6921 0
M  V30 6813 C 631.321 -1.8392 0.394355 0
M  V30 6814 O 630.679 -1.69371 -0.646778 0
M  V30 6815 C 630.727 -2.24937 2.81843 0
M  V30 6816 O 629.831 -3.3073 2.46356 0
M  V30 6817 H 629.172 -0.35078 0.563781 0
M  V30 6818 H 631.702 -0.499401 1.98412 0
M  V30 6819 H 631.712 -2.69512 3.06312 0
M  V30 6820 H 630.387 -1.77742 3.76006 0
M  V30 6821 H 628.964 -2.9154 2.32505 0
M  V30 6822 N 631.149 -1.42148 -0.680565 0
M  V30 6823 C 632.374 -1.45901 -1.47403 0
M  V30 6824 C 632.799 -0.0700985 -1.87969 0
M  V30 6825 O 632.157 0.930145 -1.55621 0
M  V30 6826 C 632.205 -2.38661 -2.70321 0
M  V30 6827 O 631.309 -1.85399 -3.68376 0
M  V30 6828 H 630.65 -0.494565 -0.443059 0
M  V30 6829 H 633.18 -1.86774 -0.835251 0
M  V30 6830 H 633.19 -2.55046 -3.18458 0
M  V30 6831 H 631.865 -3.39571 -2.40134 0
M  V30 6832 H 630.442 -1.78541 -3.2738 0
M  V30 6833 N 632.627 0.916307 -1.28225 0
M  V30 6834 C 633.904 1.64429 -1.05936 0
M  V30 6835 C 634.284 2.07234 0.402139 0
M  V30 6836 O 633.632 1.81535 1.3877 0
M  V30 6837 C 633.842 2.83773 -2.03159 0
M  V30 6838 C 635.19 3.54852 -2.33164 0
M  V30 6839 O 636.214 2.93918 -2.01223 0
M  V30 6840 O 635.073 4.64663 -2.87664 0
M  V30 6841 H 632.167 0.721221 -0.404683 0
M  V30 6842 H 634.713 0.965838 -1.39534 0
M  V30 6843 H 633.485 2.49217 -3.01673 0
M  V30 6844 H 633.108 3.59333 -1.70192 0
M  V30 6845 N 634.105 1.10431 1.1244 0
M  V30 6846 C 635.015 0.765502 2.21759 0
M  V30 6847 C 636.031 -0.236966 1.72379 0
M  V30 6848 O 637.207 -0.0757329 2.01258 0
M  V30 6849 C 634.272 0.202316 3.46109 0
M  V30 6850 C 633.333 1.26205 4.1033 0
M  V30 6851 C 632.566 0.725648 5.28744 0
M  V30 6852 O 632.789 -0.447942 5.68638 0
M  V30 6853 O 631.723 1.48555 5.83279 0
M  V30 6854 H 635.549 1.67801 2.53133 0
M  V30 6855 H 633.134 0.879443 1.20773 0
M  V30 6856 H 635.016 -0.107918 4.21262 0
M  V30 6857 H 633.691 -0.683052 3.16411 0
M  V30 6858 H 632.598 1.62514 3.36957 0
M  V30 6859 H 633.931 2.12044 4.44183 0
M  V30 6860 N 635.583 -1.29855 0.893053 0
M  V30 6861 C 636.533 -2.25493 0.337211 0
M  V30 6862 C 637.517 -1.51606 -0.53894 0
M  V30 6863 O 638.709 -1.72828 -0.382043 0
M  V30 6864 C 635.838 -3.40467 -0.440117 0
M  V30 6865 C 634.924 -4.217 0.450578 0
M  V30 6866 N 635.315 -4.81312 1.55476 0
M  V30 6867 C 633.613 -4.45315 0.247154 0
M  V30 6868 C 634.314 -5.42241 2.10593 0
M  V30 6869 N 633.29 -5.25267 1.39982 0
M  V30 6870 H 637.092 -2.69137 1.18079 0
M  V30 6871 H 634.606 -1.44388 0.743359 0
M  V30 6872 H 636.603 -4.08038 -0.855021 0
M  V30 6873 H 635.263 -2.98361 -1.28104 0
M  V30 6874 H 636.274 -4.80291 1.93755 0
M  V30 6875 H 632.951 -4.13782 -0.555939 0
M  V30 6876 H 634.341 -5.99517 3.03362 0
M  V30 6877 N 637.061 -0.65484 -1.43351 0
M  V30 6878 C 638.301 -0.172514 -2.03671 0
M  V30 6879 C 638.665 1.19154 -1.50553 0
M  V30 6880 O 639.866 1.76737 -2.02528 0
M  V30 6881 C 638.137 -0.183982 -3.56926 0
M  V30 6882 S 639.696 0.230262 -4.38195 0
M  V30 6883 H 636.514 -0.0727503 -0.707268 0
M  V30 6884 H 639.116 -0.863537 -1.75395 0
M  V30 6885 H 637.82 -1.17945 -3.93087 0
M  V30 6886 H 637.351 0.527527 -3.89847 0
M  V30 6887 H 639.366 1.46874 -4.73965 0
M  V30 6888 N 638.539 1.52521 -0.396863 0
M  V30 6889 C 639.785 2.01971 0.183169 0
M  V30 6890 C 640.118 1.2825 1.45827 0
M  V30 6891 O 639.393 0.385179 1.90648 0
M  V30 6892 C 639.676 3.5736 0.443391 0
M  V30 6893 C 639.529 4.41743 -0.84753 0
M  V30 6894 C 640.848 4.22539 1.2308 0
M  V30 6895 H 637.967 0.734119 0.0650976 0
M  V30 6896 H 640.609 1.82519 -0.527918 0
M  V30 6897 H 638.759 3.74066 1.04914 0
M  V30 6898 H 640.431 4.36773 -1.48414 0
M  V30 6899 H 638.674 4.0845 -1.4612 0
M  V30 6900 H 639.345 5.48507 -0.620003 0
M  V30 6901 H 641.821 4.09857 0.718084 0
M  V30 6902 H 640.697 5.31227 1.38162 0
M  V30 6903 H 640.958 3.80675 2.24808 0
M  V30 6904 N 640.017 0.126909 1.57088 0
M  V30 6905 C 641.294 -0.573152 1.87014 0
M  V30 6906 C 641.674 -1.84297 1.02945 0
M  V30 6907 O 641.022 -2.28232 0.110573 0
M  V30 6908 C 641.232 -0.857984 3.38289 0
M  V30 6909 C 642.58 -1.20759 4.07066 0
M  V30 6910 O 643.604 -0.947992 3.43353 0
M  V30 6911 O 642.463 -1.69516 5.19545 0
M  V30 6912 H 639.557 -0.290082 0.774456 0
M  V30 6913 H 642.103 0.162008 1.68925 0
M  V30 6914 H 640.875 0.0415286 3.91278 0
M  V30 6915 H 640.498 -1.64803 3.61837 0
M  V30 6916 N 641.495 -1.56914 -0.146875 0
M  V30 6917 C 642.744 -1.82546 -0.857898 0
M  V30 6918 C 643.057 -0.708169 -1.8233 0
M  V30 6919 O 644.263 -0.850093 -2.57848 0
M  V30 6920 C 642.719 -3.23548 -1.57623 0
M  V30 6921 C 642.327 -4.43212 -0.653224 0
M  V30 6922 C 644.071 -3.58453 -2.27402 0
M  V30 6923 C 641.978 -5.75237 -1.37318 0
M  V30 6924 H 640.908 -0.680786 -0.32411 0
M  V30 6925 H 643.559 -1.83166 -0.110639 0
M  V30 6926 H 641.941 -3.17315 -2.36912 0
M  V30 6927 H 643.115 -4.60682 0.104452 0
M  V30 6928 H 641.43 -4.16351 -0.0638336 0
M  V30 6929 H 644.027 -4.54349 -2.81907 0
M  V30 6930 H 644.37 -2.84516 -3.03901 0
M  V30 6931 H 644.903 -3.66347 -1.55032 0
M  V30 6932 H 641.642 -6.52269 -0.650041 0
M  V30 6933 H 641.162 -5.61703 -2.10357 0
M  V30 6934 H 642.841 -6.18039 -1.91406 0
M  V30 6935 N 642.974 0.416227 -1.52004 0
M  V30 6936 C 644.199 1.19029 -1.69843 0
M  V30 6937 C 644.624 1.83708 -0.404103 0
M  V30 6938 O 643.982 1.69711 0.637787 0
M  V30 6939 C 644.03 2.23439 -2.83032 0
M  V30 6940 O 643.134 3.29419 -2.48106 0
M  V30 6941 H 642.475 0.347785 -0.565634 0
M  V30 6942 H 645.005 0.488871 -1.98674 0
M  V30 6943 H 645.015 2.67884 -3.07737 0
M  V30 6944 H 643.69 1.75745 -3.76944 0
M  V30 6945 H 642.267 2.90303 -2.34048 0
M  V30 6946 N 644.452 1.42507 0.673017 0
M  V30 6947 C 645.677 1.4668 1.46627 0
M  V30 6948 C 646.102 0.080066 1.8793 0
M  V30 6949 O 645.46 -0.921879 1.56112 0
M  V30 6950 C 645.508 2.40091 2.69051 0
M  V30 6951 O 644.612 1.8735 3.67387 0
M  V30 6952 H 643.953 0.496908 0.44043 0
M  V30 6953 H 646.483 1.87215 0.825334 0
M  V30 6954 H 646.493 2.56731 3.17101 0
M  V30 6955 H 645.168 3.4084 2.3833 0
M  V30 6956 H 643.745 1.80274 3.26429 0
M  V30 6957 N 645.93 -0.909495 1.28709 0
M  V30 6958 C 647.176 -1.66151 1.16283 0
M  V30 6959 C 647.509 -1.92067 -0.287069 0
M  V30 6960 O 646.784 -1.52409 -1.20837 0
M  V30 6961 C 647.067 -3.01676 1.9663 0
M  V30 6962 C 646.92 -2.82888 3.49707 0
M  V30 6963 C 648.239 -4.02274 1.78504 0
M  V30 6964 H 645.358 -0.602966 0.423793 0
M  V30 6965 H 648 -1.05418 1.58073 0
M  V30 6966 H 646.15 -3.53515 1.61119 0
M  V30 6967 H 647.822 -2.38026 3.95147 0
M  V30 6968 H 646.065 -2.17862 3.75125 0
M  V30 6969 H 646.736 -3.79147 4.01187 0
M  V30 6970 H 649.212 -3.59511 2.09503 0
M  V30 6971 H 648.088 -4.95056 2.37088 0
M  V30 6972 H 648.349 -4.35903 0.737647 0
M  V30 6973 N 647.408 -1.11026 -1.11852 0
M  V30 6974 C 648.656 -0.854769 -1.83134 0
M  V30 6975 C 648.977 0.621375 -1.84835 0
M  V30 6976 O 648.247 1.45129 -1.31584 0
M  V30 6977 H 646.827 -0.313229 -0.678157 0
M  V30 6978 H 649.489 -1.40178 -1.35411 0
M  V30 6979 H 648.585 -1.22311 -2.87135 0
M  V30 6980 N 648.886 1.2938 -0.899927 0
M  V30 6981 C 650.114 1.99691 -0.541386 0
M  V30 6982 C 650.529 1.67355 0.873936 0
M  V30 6983 O 649.886 0.918728 1.57688 0
M  V30 6984 C 649.937 3.54168 -0.72438 0
M  V30 6985 O 649.658 3.85359 -2.08399 0
M  V30 6986 C 651.159 4.41746 -0.370819 0
M  V30 6987 H 648.379 0.638037 -0.207726 0
M  V30 6988 H 650.923 1.6491 -1.20934 0
M  V30 6989 H 649.078 3.87261 -0.103607 0
M  V30 6990 H 649.492 4.80032 -2.11352 0
M  V30 6991 H 650.966 5.49256 -0.549693 0
M  V30 6992 H 651.443 4.33712 0.692148 0
M  V30 6993 H 652.049 4.14125 -0.968543 0
M  V30 6994 N 650.364 0.662433 1.43002 0
M  V30 6995 C 651.775 0.258315 1.84904 0
M  V30 6996 C 652.126 -1.19703 1.55453 0
M  V30 6997 O 651.251 -1.91484 1.00811 0
M  V30 6998 C 651.846 0.462047 3.35635 0
M  V30 6999 C 650.405 0.112165 3.76233 0
M  V30 7000 C 649.552 0.760479 2.66668 0
M  V30 7001 H 652.503 0.865467 1.33024 0
M  V30 7002 H 652.524 -0.289646 3.79396 0
M  V30 7003 H 652.036 1.52135 3.57039 0
M  V30 7004 H 650.137 -0.944179 3.60439 0
M  V30 7005 H 650.25 0.544058 4.76001 0
M  V30 7006 H 648.614 0.192887 2.53969 0
M  V30 7007 H 649.397 1.82299 2.90898 0
M  V30 7008 N 651.842 -1.52309 0.404946 0
M  V30 7009 C 652.772 -2.29805 -0.41376 0
M  V30 7010 C 653.753 -1.3384 -1.0498 0
M  V30 7011 O 654.938 -1.62745 -1.05961 0
M  V30 7012 C 652.068 -3.11639 -1.53292 0
M  V30 7013 C 651.022 -4.15616 -1.02211 0
M  V30 7014 C 650.348 -4.8577 -2.23455 0
M  V30 7015 C 651.648 -5.2224 -0.0790725 0
M  V30 7016 H 653.342 -2.98493 0.232878 0
M  V30 7017 H 650.888 -1.43552 0.113441 0
M  V30 7018 H 652.841 -3.64618 -2.11262 0
M  V30 7019 H 651.565 -2.40712 -2.20738 0
M  V30 7020 H 650.224 -3.63641 -0.46484 0
M  V30 7021 H 649.872 -4.11376 -2.89445 0
M  V30 7022 H 649.572 -5.56058 -1.89929 0
M  V30 7023 H 651.096 -5.4156 -2.82038 0
M  V30 7024 H 652.51 -5.70485 -0.567438 0
M  V30 7025 H 650.907 -5.99867 0.167167 0
M  V30 7026 H 651.977 -4.77078 0.867447 0
M  V30 7027 N 653.32 -0.135238 -1.57019 0
M  V30 7028 C 654.283 0.794707 -2.14981 0
M  V30 7029 C 655.283 1.18342 -1.08866 0
M  V30 7030 O 656.473 1.10627 -1.34563 0
M  V30 7031 C 653.605 2.07685 -2.70333 0
M  V30 7032 H 654.798 0.290696 -2.98488 0
M  V30 7033 H 652.351 0.114128 -1.55883 0
M  V30 7034 H 653.086 2.6248 -1.9046 0
M  V30 7035 H 652.871 1.80745 -3.47957 0
M  V30 7036 H 654.361 2.74127 -3.1503 0
M  V30 7037 N 654.798 1.5699 0.138552 0
M  V30 7038 C 656.214 1.51844 0.491472 0
M  V30 7039 C 656.414 0.845063 1.82923 0
M  V30 7040 O 655.47 0.419143 2.48997 0
M  V30 7041 C 656.783 2.96615 0.493987 0
M  V30 7042 C 658.331 3.076 0.578913 0
M  V30 7043 C 658.806 4.53893 0.612009 0
M  V30 7044 N 660.297 4.5827 0.673997 0
M  V30 7045 C 661.032 5.68852 0.720729 0
M  V30 7046 N 660.528 6.88982 0.726292 0
M  V30 7047 N 662.321 5.56908 0.762253 0
M  V30 7048 H 654.472 1.99158 -0.738228 0
M  V30 7049 H 656.735 0.908693 -0.270149 0
M  V30 7050 H 656.441 3.49172 -0.420933 0
M  V30 7051 H 656.315 3.53017 1.32887 0
M  V30 7052 H 658.702 2.55057 1.48425 0
M  V30 7053 H 658.783 2.54227 -0.283286 0
M  V30 7054 H 658.427 5.07076 -0.289208 0
M  V30 7055 H 658.357 5.05057 1.49082 0
M  V30 7056 H 660.848 3.71793 0.676654 0
M  V30 7057 H 661.161 7.69014 0.764032 0
M  V30 7058 H 659.506 6.91526 0.69403 0
M  V30 7059 H 662.697 4.61969 0.755135 0
M  V30 7060 H 662.87 6.43102 0.795207 0
M  V30 7061 N 656.276 -0.40816 1.52223 0
M  V30 7062 C 657.239 -1.48 1.7501 0
M  V30 7063 C 658.239 -1.48367 0.619996 0
M  V30 7064 O 659.429 -1.49874 0.887881 0
M  V30 7065 C 656.561 -2.87403 1.83336 0
M  V30 7066 H 657.754 -1.29086 2.70697 0
M  V30 7067 H 655.307 -0.638715 1.42654 0
M  V30 7068 H 656.042 -3.11686 0.895677 0
M  V30 7069 H 655.827 -2.8854 2.65494 0
M  V30 7070 H 657.317 -3.65103 2.02705 0
M  V30 7071 N 657.755 -1.42862 -0.66545 0
M  V30 7072 C 658.98 -1.47456 -1.45848 0
M  V30 7073 C 659.405 -0.0900312 -1.87884 0
M  V30 7074 O 658.763 0.913587 -1.56599 0
M  V30 7075 C 658.811 -2.41514 -2.67774 0
M  V30 7076 O 657.915 -1.89296 -3.66389 0
M  V30 7077 H 657.256 -0.499236 -0.437789 0
M  V30 7078 H 659.786 -1.8765 -0.815394 0
M  V30 7079 H 659.796 -2.58409 -3.15735 0
M  V30 7080 H 658.471 -3.42099 -2.36519 0
M  V30 7081 H 657.048 -1.82003 -3.25468 0
M  V30 7082 N 659.233 0.902656 -1.29189 0
M  V30 7083 C 660.482 1.6475 -1.16362 0
M  V30 7084 C 660.795 1.93517 0.284682 0
M  V30 7085 O 662.001 2.66192 0.534229 0
M  V30 7086 C 660.457 2.96848 -2.03493 0
M  V30 7087 C 660.065 2.75687 -3.5313 0
M  V30 7088 C 661.809 3.74762 -1.99383 0
M  V30 7089 C 659.716 4.03492 -4.32375 0
M  V30 7090 H 658.646 0.618041 -0.431904 0
M  V30 7091 H 661.297 1.0008 -1.53806 0
M  V30 7092 H 659.679 3.62715 -1.58916 0
M  V30 7093 H 660.853 2.18431 -4.05739 0
M  V30 7094 H 659.168 2.11171 -3.58881 0
M  V30 7095 H 661.765 4.69515 -2.5585 0
M  V30 7096 H 662.108 4.04767 -0.973123 0
M  V30 7097 H 662.641 3.15732 -2.41988 0
M  V30 7098 H 659.38 3.78656 -5.3507 0
M  V30 7099 H 658.9 4.60318 -3.84535 0
M  V30 7100 H 660.579 4.71662 -4.42881 0
M  V30 7101 N 660.711 1.11618 1.11262 0
M  V30 7102 C 661.658 0.7762 2.17356 0
M  V30 7103 C 662.628 -0.253152 1.6416 0
M  V30 7104 O 663.813 -0.129655 1.90359 0
M  V30 7105 C 660.953 0.227581 3.44349 0
M  V30 7106 C 660.066 1.31372 4.1154 0
M  V30 7107 C 659.201 0.72544 5.26223 0
M  V30 7108 C 658.24 1.7913 5.85302 0
M  V30 7109 N 657.377 1.22237 6.91377 0
M  V30 7110 H 662.217 1.68508 2.45783 0
M  V30 7111 H 659.754 0.841475 1.20655 0
M  V30 7112 H 661.712 -0.108483 4.17059 0
M  V30 7113 H 660.342 -0.644486 3.16301 0
M  V30 7114 H 659.394 1.7667 3.36885 0
M  V30 7115 H 660.706 2.12005 4.51504 0
M  V30 7116 H 659.86 0.339541 6.05749 0
M  V30 7117 H 658.599 -0.112188 4.87571 0
M  V30 7118 H 657.604 2.18648 5.04453 0
M  V30 7119 H 658.829 2.63199 6.26022 0
M  V30 7120 H 656.775 0.406423 6.5474 0
M  V30 7121 H 656.692 1.9654 7.30006 0
M  V30 7122 H 657.96 0.863426 7.74703 0
M  V30 7123 N 662.189 -1.289 0.906776 0
M  V30 7124 C 663.414 -1.99939 0.551303 0
M  V30 7125 C 663.839 -1.67366 -0.858496 0
M  V30 7126 O 663.197 -0.902176 -1.57259 0
M  V30 7127 C 663.245 -3.52523 0.758937 0
M  V30 7128 O 662.349 -4.11983 -0.185308 0
M  V30 7129 H 661.69 -0.628376 0.214568 0
M  V30 7130 H 664.22 -1.64225 1.2203 0
M  V30 7131 H 664.23 -4.02522 0.666329 0
M  V30 7132 H 662.905 -3.75566 1.78671 0
M  V30 7133 H 661.482 -3.72873 -0.0445577 0
M  V30 7134 N 663.667 -0.670007 -1.42649 0
M  V30 7135 C 664.63 0.00204659 -2.292 0
M  V30 7136 C 665.63 0.733817 -1.4308 0
M  V30 7137 O 666.82 0.57254 -1.64522 0
M  V30 7138 C 663.952 1.01359 -3.25483 0
M  V30 7139 H 665.145 -0.759696 -2.90118 0
M  V30 7140 H 662.698 -0.432105 -1.50208 0
M  V30 7141 H 663.433 1.80399 -2.69493 0
M  V30 7142 H 663.218 0.492323 -3.88997 0
M  V30 7143 H 664.708 1.4824 -3.90403 0
M  V30 7144 N 665.145 1.52092 -0.413018 0
M  V30 7145 C 666.092 2.27119 0.410558 0
M  V30 7146 C 667.062 1.29692 1.03774 0
M  V30 7147 O 668.247 1.58561 1.06128 0
M  V30 7148 C 665.387 3.09863 1.51918 0
M  V30 7149 C 664.5 4.22252 0.912528 0
M  V30 7150 C 663.635 4.92348 1.99417 0
M  V30 7151 C 662.674 5.96694 1.36466 0
M  V30 7152 N 661.811 6.60292 2.38661 0
M  V30 7153 H 666.651 2.97067 -0.235661 0
M  V30 7154 H 664.188 1.46542 -0.128055 0
M  V30 7155 H 666.146 3.56144 2.17295 0
M  V30 7156 H 664.776 2.42078 2.13537 0
M  V30 7157 H 663.828 3.80113 0.147697 0
M  V30 7158 H 665.14 4.9709 0.412717 0
M  V30 7159 H 664.294 5.42054 2.72512 0
M  V30 7160 H 663.033 4.17087 2.52764 0
M  V30 7161 H 662.038 5.46304 0.61906 0
M  V30 7162 H 663.263 6.73899 0.838827 0
M  V30 7163 H 661.209 5.87858 2.91134 0
M  V30 7164 H 661.126 7.30816 1.93503 0
M  V30 7165 H 662.394 7.14635 3.11314 0
M  V30 7166 N 666.623 0.143563 1.56945 0
M  V30 7167 C 667.869 -0.50916 1.96304 0
M  V30 7168 C 668.202 -1.64741 1.0283 0
M  V30 7169 O 667.477 -1.94374 0.0700361 0
M  V30 7170 C 667.76 -1.0186 3.45393 0
M  V30 7171 C 667.613 0.117923 4.49645 0
M  V30 7172 C 668.932 -1.90151 3.96901 0
M  V30 7173 H 666.051 -0.183608 0.713763 0
M  V30 7174 H 668.693 0.224095 1.88674 0
M  V30 7175 H 666.843 -1.64345 3.52027 0
M  V30 7176 H 668.515 0.754145 4.55094 0
M  V30 7177 H 666.758 0.777568 4.26774 0
M  V30 7178 H 667.429 -0.280187 5.51288 0
M  V30 7179 H 669.905 -1.375 3.92725 0
M  V30 7180 H 668.781 -2.22707 5.0169 0
M  V30 7181 H 669.042 -2.83718 3.39052 0
M  V30 7182 N 668.101 -1.57061 -0.130224 0
M  V30 7183 C 669.378 -1.75205 -0.869631 0
M  V30 7184 C 669.758 -0.716063 -1.98584 0
M  V30 7185 O 669.106 0.262032 -2.26993 0
M  V30 7186 C 669.316 -3.19835 -1.39666 0
M  V30 7187 C 670.664 -3.82011 -1.85345 0
M  V30 7188 O 671.688 -3.23368 -1.49371 0
M  V30 7189 O 670.547 -4.85064 -2.51744 0
M  V30 7190 H 667.641 -0.716977 -0.412157 0
M  V30 7191 H 670.187 -1.69311 -0.11484 0
M  V30 7192 H 668.959 -3.86745 -0.595288 0
M  V30 7193 H 668.582 -3.30222 -2.21448 0
M  V30 7194 N 669.579 0.400081 -1.52437 0
M  V30 7195 C 670.827 1.14392 -1.6661 0
M  V30 7196 C 671.148 1.90792 -0.402927 0
M  V30 7197 O 670.418 1.87042 0.582425 0
M  V30 7198 H 668.998 0.425275 -0.614125 0
M  V30 7199 H 671.66 0.455076 -1.89513 0
M  V30 7200 H 670.756 1.85298 -2.51139 0
M  V30 7201 N 671.057 1.43213 0.657864 0
M  V30 7202 C 672.303 1.44798 1.41991 0
M  V30 7203 C 672.636 0.070256 1.94073 0
M  V30 7204 O 671.911 -0.908177 1.71995 0
M  V30 7205 C 672.194 2.4865 2.60471 0
M  V30 7206 C 672.047 3.95679 2.13911 0
M  V30 7207 C 673.366 2.49292 3.62686 0
M  V30 7208 H 670.485 0.527244 0.514959 0
M  V30 7209 H 673.127 1.74733 0.74621 0
M  V30 7210 H 671.277 2.23254 3.17946 0
M  V30 7211 H 672.949 4.32116 1.61472 0
M  V30 7212 H 671.192 4.08733 1.45325 0
M  V30 7213 H 671.863 4.6395 2.99089 0
M  V30 7214 H 674.339 2.71917 3.14961 0
M  V30 7215 H 673.215 3.23907 4.43143 0
M  V30 7216 H 673.476 1.52502 4.14964 0
M  V30 7217 N 672.536 -0.895792 1.29666 0
M  V30 7218 C 673.761 -1.68528 1.20885 0
M  V30 7219 C 674.186 -1.8673 -0.226595 0
M  V30 7220 O 673.544 -1.39044 -1.16347 0
M  V30 7221 C 673.592 -3.04512 1.93144 0
M  V30 7222 O 672.696 -3.92963 1.25115 0
M  V30 7223 H 672.037 -0.515371 0.418675 0
M  V30 7224 H 674.567 -1.11878 1.71302 0
M  V30 7225 H 674.577 -3.54628 2.0175 0
M  V30 7226 H 673.252 -2.90582 2.97548 0
M  V30 7227 H 671.829 -3.51399 1.24794 0
M  V30 7228 N 674.014 -1.12206 -1.10668 0
M  V30 7229 C 675.244 -0.897332 -1.86095 0
M  V30 7230 C 675.652 0.556778 -1.80822 0
M  V30 7231 O 674.995 1.39658 -1.19337 0
M  V30 7232 C 675.057 -1.29095 -3.35522 0
M  V30 7233 C 674.721 -2.75586 -3.64556 0
M  V30 7234 C 675.718 -3.73785 -3.6136 0
M  V30 7235 C 673.403 -3.12432 -3.93309 0
M  V30 7236 C 675.397 -5.06845 -3.86506 0
M  V30 7237 C 673.084 -4.45675 -4.18111 0
M  V30 7238 C 674.082 -5.42691 -4.147 0
M  V30 7239 O 673.77 -6.73532 -4.38873 0
M  V30 7240 H 673.502 -0.320704 -0.595084 0
M  V30 7241 H 676.056 -1.49517 -1.40833 0
M  V30 7242 H 674.286 -0.636299 -3.81429 0
M  V30 7243 H 675.975 -1.04073 -3.92331 0
M  V30 7244 H 676.741 -3.46664 -3.39189 0
M  V30 7245 H 672.62 -2.3753 -3.95096 0
M  V30 7246 H 676.164 -5.82559 -3.83758 0
M  V30 7247 H 672.061 -4.72526 -4.39761 0
M  V30 7248 H 672.829 -6.79442 -4.564 0
M  V30 7249 N 675.492 1.28418 -0.913599 0
M  V30 7250 C 676.739 1.94981 -0.546674 0
M  V30 7251 C 677.067 1.7192 0.909606 0
M  V30 7252 O 676.322 1.03314 1.66207 0
M  V30 7253 C 676.621 3.48283 -0.802099 0
M  V30 7254 C 676.287 3.91444 -2.2379 0
M  V30 7255 C 674.949 4.02939 -2.63046 0
M  V30 7256 C 677.301 4.13542 -3.17227 0
M  V30 7257 C 674.629 4.3391 -3.94891 0
M  V30 7258 C 676.981 4.45992 -4.48636 0
M  V30 7259 C 675.645 4.55698 -4.87746 0
M  V30 7260 H 674.915 0.713487 -0.200042 0
M  V30 7261 H 677.562 1.52756 -1.15489 0
M  V30 7262 H 675.867 3.91643 -0.111076 0
M  V30 7263 H 677.564 3.97903 -0.497375 0
M  V30 7264 H 674.154 3.83024 -1.9233 0
M  V30 7265 H 678.338 4.04114 -2.88107 0
M  V30 7266 H 673.594 4.39631 -4.24894 0
M  V30 7267 H 677.768 4.62038 -5.21051 0
M  V30 7268 H 675.395 4.79451 -5.89942 0
M  V30 7269 N 676.97 0.677563 1.42291 0
M  V30 7270 C 678.386 0.347376 1.55774 0
M  V30 7271 C 678.586 -1.14703 1.65667 0
M  V30 7272 O 677.642 -1.93252 1.62512 0
M  V30 7273 C 678.955 1.08011 2.80631 0
M  V30 7274 C 680.503 1.06271 2.94407 0
M  V30 7275 C 680.978 1.77683 4.22129 0
M  V30 7276 N 682.469 1.74564 4.29047 0
M  V30 7277 C 683.204 2.26673 5.26694 0
M  V30 7278 N 682.7 2.87176 6.30477 0
M  V30 7279 N 684.493 2.17032 5.18511 0
M  V30 7280 H 676.644 1.64703 1.34114 0
M  V30 7281 H 678.907 0.694038 0.645768 0
M  V30 7282 H 678.613 2.13518 2.79469 0
M  V30 7283 H 678.487 0.647115 3.71608 0
M  V30 7284 H 680.874 0.0159658 2.95096 0
M  V30 7285 H 680.955 1.53461 2.04654 0
M  V30 7286 H 680.599 2.82327 4.22201 0
M  V30 7287 H 680.529 1.2794 5.10822 0
M  V30 7288 H 683.02 1.30436 3.54676 0
M  V30 7289 H 683.333 3.24551 7.01346 0
M  V30 7290 H 681.678 2.91247 6.31031 0
M  V30 7291 H 684.869 1.69451 4.36353 0
M  V30 7292 H 685.042 2.57948 5.94446 0
M  V30 7293 N 678.448 -1.51871 0.421078 0
M  V30 7294 C 679.398 -2.24171 -0.416111 0
M  V30 7295 C 680.382 -1.25763 -1.00362 0
M  V30 7296 O 681.574 -1.5094 -0.924452 0
M  V30 7297 C 678.703 -3.07533 -1.52571 0
M  V30 7298 C 677.789 -4.1336 -0.948399 0
M  V30 7299 N 678.18 -5.05704 -0.0987933 0
M  V30 7300 C 676.478 -4.29055 -1.21768 0
M  V30 7301 C 677.179 -5.8127 0.223705 0
M  V30 7302 N 676.155 -5.4221 -0.388524 0
M  V30 7303 H 679.957 -2.92925 0.239166 0
M  V30 7304 H 677.471 -1.60732 0.232191 0
M  V30 7305 H 679.468 -3.57893 -2.13819 0
M  V30 7306 H 678.128 -2.4032 -2.18349 0
M  V30 7307 H 679.139 -5.17214 0.266428 0
M  V30 7308 H 675.816 -3.73071 -1.87416 0
M  V30 7309 H 677.206 -6.65653 0.914076 0
M  V30 7310 N 679.926 -0.151884 -1.56866 0
M  V30 7311 C 680.873 0.785936 -2.17006 0
M  V30 7312 C 681.843 1.2407 -1.10435 0
M  V30 7313 O 683.028 1.31235 -1.38499 0
M  V30 7314 C 680.168 2.01771 -2.79969 0
M  V30 7315 C 679.281 1.6083 -4.00946 0
M  V30 7316 C 678.416 2.79224 -4.51893 0
M  V30 7317 C 677.455 2.3468 -5.65324 0
M  V30 7318 N 676.592 3.461 -6.10867 0
M  V30 7319 H 681.432 0.266286 -2.96808 0
M  V30 7320 H 678.969 0.11972 -1.46612 0
M  V30 7321 H 680.927 2.73989 -3.14621 0
M  V30 7322 H 679.557 2.51139 -2.02803 0
M  V30 7323 H 678.609 0.783592 -3.72242 0
M  V30 7324 H 679.921 1.24119 -4.83111 0
M  V30 7325 H 679.075 3.59625 -4.88625 0
M  V30 7326 H 677.814 3.19183 -3.68746 0
M  V30 7327 H 676.819 1.52721 -5.28163 0
M  V30 7328 H 678.044 1.95801 -6.5026 0
M  V30 7329 H 675.99 3.85671 -5.30654 0
M  V30 7330 H 675.907 3.1342 -6.87971 0
M  V30 7331 H 677.175 4.26844 -6.52246 0
M  V30 7332 N 681.404 1.57128 0.121893 0
M  V30 7333 C 682.314 2.03425 1.16857 0
M  V30 7334 C 683.33 0.954108 1.45509 0
M  V30 7335 O 684.506 1.26541 1.56682 0
M  V30 7336 C 681.571 2.42685 2.47599 0
M  V30 7337 C 680.632 3.64767 2.2637 0
M  V30 7338 C 679.865 4.02145 3.50878 0
M  V30 7339 O 680.088 3.39897 4.58068 0
M  V30 7340 O 679.022 4.95262 3.42051 0
M  V30 7341 H 682.848 2.92825 0.80544 0
M  V30 7342 H 680.433 1.45654 0.332477 0
M  V30 7343 H 682.315 2.68684 3.24634 0
M  V30 7344 H 680.99 1.56432 2.83392 0
M  V30 7345 H 679.897 3.43922 1.47203 0
M  V30 7346 H 681.23 4.51716 1.95482 0
M  V30 7347 N 682.882 -0.391992 1.52647 0
M  V30 7348 C 684.298 -0.731848 1.41831 0
M  V30 7349 C 684.498 -1.9423 0.536361 0
M  V30 7350 O 683.554 -2.52499 0.00866571 0
M  V30 7351 C 684.867 -0.969743 2.84634 0
M  V30 7352 C 686.415 -1.0714 2.94092 0
M  V30 7353 C 686.89 -1.34195 4.37899 0
M  V30 7354 N 688.381 -1.41023 4.41211 0
M  V30 7355 C 689.116 -1.63616 5.49561 0
M  V30 7356 N 688.612 -1.83699 6.68002 0
M  V30 7357 N 690.405 -1.65771 5.371 0
M  V30 7358 H 682.556 0.404547 2.08512 0
M  V30 7359 H 684.819 0.11879 0.940528 0
M  V30 7360 H 684.525 -0.152465 3.51369 0
M  V30 7361 H 684.399 -1.88523 3.26709 0
M  V30 7362 H 686.786 -1.87925 2.27526 0
M  V30 7363 H 686.867 -0.133887 2.55449 0
M  V30 7364 H 686.511 -0.539207 5.0503 0
M  V30 7365 H 686.441 -2.29226 4.74092 0
M  V30 7366 H 688.932 -1.27223 3.55841 0
M  V30 7367 H 689.245 -2.00437 7.46354 0
M  V30 7368 H 687.59 -1.8093 6.71036 0
M  V30 7369 H 690.781 -1.4963 4.43541 0
M  V30 7370 H 690.954 -1.83038 6.21612 0
M  V30 7371 N 684.36 -1.4356 -0.65026 0
M  V30 7372 C 685.29 -1.51758 -1.77459 0
M  V30 7373 C 686.271 -0.372019 -1.65982 0
M  V30 7374 O 687.456 -0.589627 -1.85033 0
M  V30 7375 C 684.586 -1.44302 -3.15902 0
M  V30 7376 C 683.54 -2.57138 -3.42146 0
M  V30 7377 C 682.866 -2.34735 -4.8042 0
M  V30 7378 C 684.166 -3.99373 -3.36598 0
M  V30 7379 H 685.86 -2.45863 -1.70855 0
M  V30 7380 H 683.406 -1.18333 -0.820566 0
M  V30 7381 H 685.359 -1.48641 -3.94314 0
M  V30 7382 H 684.083 -0.467026 -3.23244 0
M  V30 7383 H 682.742 -2.52157 -2.66106 0
M  V30 7384 H 682.39 -1.35372 -4.84441 0
M  V30 7385 H 682.09 -3.10375 -4.9894 0
M  V30 7386 H 683.614 -2.40862 -5.61086 0
M  V30 7387 H 685.028 -4.05826 -4.04942 0
M  V30 7388 H 683.425 -4.75063 -3.66654 0
M  V30 7389 H 684.495 -4.243 -2.34729 0
M  V30 7390 N 685.838 0.888903 -1.30139 0
M  V30 7391 C 686.768 2.01046 -1.18755 0
M  V30 7392 C 687.749 1.69916 -0.0791438 0
M  V30 7393 O 688.934 1.92445 -0.260498 0
M  V30 7394 C 686.064 3.36109 -0.874518 0
M  V30 7395 C 685.018 3.81486 -1.94043 0
M  V30 7396 C 684.344 5.13796 -1.48047 0
M  V30 7397 C 685.644 4.00637 -3.35093 0
M  V30 7398 H 687.338 2.10828 -2.12584 0
M  V30 7399 H 684.884 1.01298 -1.02346 0
M  V30 7400 H 686.837 4.14089 -0.781548 0
M  V30 7401 H 685.561 3.26449 0.0994519 0
M  V30 7402 H 684.22 3.05731 -2.02297 0
M  V30 7403 H 683.868 5.0056 -0.494878 0
M  V30 7404 H 683.568 5.45127 -2.19341 0
M  V30 7405 H 685.092 5.94305 -1.40121 0
M  V30 7406 H 686.506 4.69067 -3.2962 0
M  V30 7407 H 684.903 4.43339 -4.04438 0
M  V30 7408 H 685.973 3.0462 -3.77273 0
M  V30 7409 N 687.317 1.12792 1.10072 0
M  V30 7410 C 688.733 0.864745 1.34143 0
M  V30 7411 C 688.933 -0.503201 1.95116 0
M  V30 7412 O 687.989 -1.25111 2.19325 0
M  V30 7413 C 689.302 1.98413 2.25949 0
M  V30 7414 C 690.85 2.01545 2.39476 0
M  V30 7415 C 691.325 3.12727 3.34613 0
M  V30 7416 N 692.816 3.12194 3.42183 0
M  V30 7417 C 693.551 3.94862 4.15779 0
M  V30 7418 N 693.047 4.87528 4.92228 0
M  V30 7419 N 694.84 3.82985 4.11435 0
M  V30 7420 H 686.991 2.00926 0.68866 0
M  V30 7421 H 689.254 0.874564 0.365844 0
M  V30 7422 H 688.96 2.97005 1.88364 0
M  V30 7423 H 688.834 1.89254 3.26287 0
M  V30 7424 H 691.221 1.0357 2.76328 0
M  V30 7425 H 691.302 2.14777 1.3894 0
M  V30 7426 H 690.946 4.10936 2.98486 0
M  V30 7427 H 690.876 2.96732 4.35037 0
M  V30 7428 H 693.367 2.45065 2.87666 0
M  V30 7429 H 693.68 5.47109 5.45794 0
M  V30 7430 H 692.025 4.91539 4.9134 0
M  V30 7431 H 695.216 3.09923 3.50807 0
M  V30 7432 H 695.389 4.47641 4.68531 0
M  V30 7433 N 688.795 -1.27931 0.920396 0
M  V30 7434 C 690.044 -1.93975 0.552867 0
M  V30 7435 C 690.357 -1.73193 -0.909035 0
M  V30 7436 O 691.563 -2.33515 -1.38502 0
M  V30 7437 C 690.019 -3.47463 0.937947 0
M  V30 7438 C 689.627 -3.77013 2.42003 0
M  V30 7439 C 691.371 -4.19628 0.64132 0
M  V30 7440 C 689.278 -5.23841 2.74489 0
M  V30 7441 H 688.208 -0.726146 0.203046 0
M  V30 7442 H 690.859 -1.45339 1.12022 0
M  V30 7443 H 689.241 -3.94867 0.299317 0
M  V30 7444 H 690.415 -3.40393 3.10595 0
M  V30 7445 H 688.73 -3.18035 2.6878 0
M  V30 7446 H 691.327 -5.27729 0.860622 0
M  V30 7447 H 691.67 -4.14164 -0.421168 0
M  V30 7448 H 692.203 -3.78022 1.23872 0
M  V30 7449 H 688.942 -5.34388 3.79618 0
M  V30 7450 H 688.462 -5.61634 2.1054 0
M  V30 7451 H 690.141 -5.91647 2.61845 0
M  V30 7452 N 690.273 -0.685099 -1.4193 0
M  V30 7453 C 691.498 -0.218842 -2.06242 0
M  V30 7454 C 691.923 1.11923 -1.51178 0
M  V30 7455 O 691.281 1.69837 -0.634446 0
M  V30 7456 C 691.329 -0.175592 -3.60172 0
M  V30 7457 O 690.433 0.852776 -4.03487 0
M  V30 7458 H 689.774 -0.109531 -0.654904 0
M  V30 7459 H 692.304 -0.937013 -1.81882 0
M  V30 7460 H 692.314 -0.00291151 -4.08 0
M  V30 7461 H 690.989 -1.15222 -3.99621 0
M  V30 7462 H 689.566 0.650301 -3.67186 0
M  V30 7463 N 691.751 1.51645 -0.429126 0
M  V30 7464 C 693 2.01203 0.141538 0
M  V30 7465 C 693.313 1.31828 1.44502 0
M  V30 7466 O 694.519 1.7231 2.09813 0
M  V30 7467 C 692.975 3.58624 0.302786 0
M  V30 7468 C 692.583 4.3693 -0.989775 0
M  V30 7469 C 694.327 4.16353 0.827661 0
M  V30 7470 C 692.234 5.86037 -0.794619 0
M  V30 7471 H 691.164 0.751867 0.05667 0
M  V30 7472 H 693.815 1.74822 -0.557633 0
M  V30 7473 H 692.197 3.81417 1.06476 0
M  V30 7474 H 693.371 4.25887 -1.75945 0
M  V30 7475 H 691.686 3.90614 -1.44256 0
M  V30 7476 H 694.283 5.25455 0.990026 0
M  V30 7477 H 694.626 3.74995 1.80787 0
M  V30 7478 H 695.159 3.97606 0.124213 0
M  V30 7479 H 691.898 6.31792 -1.74697 0
M  V30 7480 H 691.418 5.99765 -0.0645968 0
M  V30 7481 H 693.097 6.45471 -0.444591 0
M  V30 7482 N 693.229 0.160201 1.56784 0
M  V30 7483 C 694.645 -0.196089 1.58391 0
M  V30 7484 C 694.845 -1.63689 1.17508 0
M  V30 7485 O 693.901 -2.36613 0.881506 0
M  V30 7486 C 695.214 0.0746449 3.00607 0
M  V30 7487 C 696.762 0.0119762 3.12998 0
M  V30 7488 C 697.237 0.255551 4.57286 0
M  V30 7489 N 698.728 0.202938 4.62755 0
M  V30 7490 C 699.463 0.365731 5.72232 0
M  V30 7491 N 698.959 0.586972 6.90309 0
M  V30 7492 N 700.752 0.302411 5.61286 0
M  V30 7493 H 692.903 1.1008 1.81648 0
M  V30 7494 H 695.166 0.436779 0.841384 0
M  V30 7495 H 694.872 1.07231 3.34954 0
M  V30 7496 H 694.746 -0.638802 3.71751 0
M  V30 7497 H 697.133 -0.976254 2.78484 0
M  V30 7498 H 697.214 0.75796 2.44313 0
M  V30 7499 H 696.858 1.24094 4.92507 0
M  V30 7500 H 696.788 -0.510912 5.24116 0
M  V30 7501 H 699.279 0.0371328 3.77882 0
M  V30 7502 H 699.592 0.700941 7.69615 0
M  V30 7503 H 697.937 0.623453 6.92198 0
M  V30 7504 H 701.128 0.130238 4.67919 0
M  V30 7505 H 701.301 0.432712 6.46554 0
M  V30 7506 N 694.707 -1.5719 -0.113559 0
M  V30 7507 C 695.657 -1.97166 -1.14497 0
M  V30 7508 C 696.641 -0.847413 -1.36776 0
M  V30 7509 O 697.833 -1.11114 -1.37777 0
M  V30 7510 C 694.962 -2.38411 -2.47013 0
M  V30 7511 C 694.048 -3.5748 -2.28185 0
M  V30 7512 N 694.439 -4.72998 -1.79182 0
M  V30 7513 C 692.737 -3.63218 -2.58821 0
M  V30 7514 C 693.438 -5.55007 -1.74191 0
M  V30 7515 N 692.414 -4.9765 -2.18735 0
M  V30 7516 H 696.216 -2.83937 -0.758733 0
M  V30 7517 H 693.73 -1.59191 -0.321234 0
M  V30 7518 H 695.727 -2.65269 -3.21618 0
M  V30 7519 H 694.387 -1.53007 -2.8639 0
M  V30 7520 H 695.398 -4.96109 -1.48649 0
M  V30 7521 H 692.075 -2.88434 -3.01847 0
M  V30 7522 H 693.465 -6.57678 -1.37512 0
M  V30 7523 N 696.185 0.383891 -1.52853 0
M  V30 7524 C 697.118 1.49105 -1.72751 0
M  V30 7525 C 698.096 1.52077 -0.575438 0
M  V30 7526 O 699.28 1.70406 -0.805854 0
M  V30 7527 C 696.407 2.87551 -1.78975 0
M  V30 7528 C 695.453 3.02383 -3.00777 0
M  V30 7529 S 696.286 2.73048 -4.60657 0
M  V30 7530 C 697.442 4.13678 -4.69704 0
M  V30 7531 H 697.675 1.32002 -2.66388 0
M  V30 7532 H 695.208 0.577088 -1.4321 0
M  V30 7533 H 697.166 3.6733 -1.83246 0
M  V30 7534 H 695.827 3.01977 -0.864215 0
M  V30 7535 H 695.02 4.03733 -3.01688 0
M  V30 7536 H 694.622 2.30504 -2.94523 0
M  V30 7537 H 696.914 5.07676 -4.48633 0
M  V30 7538 H 697.857 4.1778 -5.71721 0
M  V30 7539 H 698.265 3.99825 -3.98497 0
M  V30 7540 N 697.663 1.43903 0.642637 0
M  V30 7541 C 698.909 1.46296 1.40447 0
M  V30 7542 C 699.242 0.0908361 1.93987 0
M  V30 7543 O 698.517 -0.889884 1.72949 0
M  V30 7544 C 698.8 2.51399 2.57819 0
M  V30 7545 C 698.653 3.97926 2.09702 0
M  V30 7546 C 699.972 2.53125 3.60022 0
M  V30 7547 H 697.091 0.532676 0.509338 0
M  V30 7548 H 699.733 1.75515 0.727635 0
M  V30 7549 H 697.883 2.26614 3.1556 0
M  V30 7550 H 699.555 4.33804 1.5688 0
M  V30 7551 H 697.798 4.10252 1.40982 0
M  V30 7552 H 698.469 4.67096 2.94152 0
M  V30 7553 H 700.945 2.75242 3.12059 0
M  V30 7554 H 699.821 3.28589 4.39682 0
M  V30 7555 H 700.082 1.56895 4.13324 0
M  V30 7556 N 699.141 -0.881989 1.30609 0
M  V30 7557 C 700.088 -1.98803 1.17244 0
M  V30 7558 C 701.058 -1.65987 0.0611905 0
M  V30 7559 O 702.243 -1.89385 0.231911 0
M  V30 7560 C 699.383 -3.33867 0.87333 0
M  V30 7561 C 698.496 -3.79354 2.06675 0
M  V30 7562 C 697.631 -5.03078 1.70547 0
M  V30 7563 C 696.67 -5.40981 2.86366 0
M  V30 7564 N 695.807 -6.55886 2.50514 0
M  V30 7565 H 700.647 -2.09566 2.11863 0
M  V30 7566 H 698.184 -1.02607 1.05405 0
M  V30 7567 H 700.142 -4.11612 0.680519 0
M  V30 7568 H 698.772 -3.2278 -0.0359983 0
M  V30 7569 H 697.824 -2.97492 2.37071 0
M  V30 7570 H 699.136 -4.03382 2.93401 0
M  V30 7571 H 698.29 -5.88457 1.47658 0
M  V30 7572 H 697.029 -4.80927 0.809947 0
M  V30 7573 H 696.034 -4.54127 3.09917 0
M  V30 7574 H 697.259 -5.65104 3.76609 0
M  V30 7575 H 695.205 -6.35306 1.63471 0
M  V30 7576 H 695.122 -6.79799 3.30771 0
M  V30 7577 H 696.39 -7.44489 2.30989 0
M  V30 7578 N 700.619 -1.13374 -1.09472 0
M  V30 7579 C 701.844 -0.918711 -1.85942 0
M  V30 7580 C 702.269 0.527225 -1.8056 0
M  V30 7581 O 701.627 1.37408 -1.18274 0
M  V30 7582 C 701.675 -1.41056 -3.31867 0
M  V30 7583 O 700.779 -0.595496 -4.08078 0
M  V30 7584 H 700.12 -0.329297 -0.576593 0
M  V30 7585 H 702.65 -1.50829 -1.38245 0
M  V30 7586 H 702.66 -1.41398 -3.82715 0
M  V30 7587 H 701.335 -2.46335 -3.35099 0
M  V30 7588 H 699.912 -0.659911 -3.67014 0
M  V30 7589 N 702.098 1.27442 -0.927168 0
M  V30 7590 C 703.03 2.25975 -0.383158 0
M  V30 7591 C 704.043 1.55382 0.485832 0
M  V30 7592 O 705.232 1.75986 0.298541 0
M  V30 7593 C 702.332 3.35629 0.469688 0
M  V30 7594 C 701.505 4.35747 -0.379886 0
M  V30 7595 C 700.564 5.24598 0.410227 0
M  V30 7596 O 699.59 5.68909 -0.181888 0
M  V30 7597 N 700.792 5.54737 1.71017 0
M  V30 7598 H 703.557 2.7329 -1.23015 0
M  V30 7599 H 701.118 1.41063 -0.794539 0
M  V30 7600 H 703.11 3.92015 1.00532 0
M  V30 7601 H 701.68 2.87919 1.21744 0
M  V30 7602 H 700.9 3.78634 -1.09682 0
M  V30 7603 H 702.188 4.99648 -0.960717 0
M  V30 7604 H 701.586 5.20594 2.21356 0
M  V30 7605 H 700.143 6.13824 2.19234 0
M  V30 7606 N 703.576 0.692616 1.41565 0
M  V30 7607 C 704.822 0.222664 2.01574 0
M  V30 7608 C 705.155 -1.1737 1.54719 0
M  V30 7609 O 704.43 -1.79161 0.757084 0
M  V30 7610 C 704.713 0.277064 3.59033 0
M  V30 7611 C 704.566 1.71016 4.16021 0
M  V30 7612 C 705.885 -0.36479 4.38586 0
M  V30 7613 H 703.004 0.0823839 0.732381 0
M  V30 7614 H 705.646 0.880778 1.68352 0
M  V30 7615 H 703.796 -0.283288 3.87466 0
M  V30 7616 H 705.468 2.32413 3.98475 0
M  V30 7617 H 703.711 2.24525 3.71175 0
M  V30 7618 H 704.382 1.69978 5.25178 0
M  V30 7619 H 706.858 0.112404 4.15948 0
M  V30 7620 H 705.734 -0.296169 5.481 0
M  V30 7621 H 705.995 -1.44506 4.17816 0
M  V30 7622 N 705.054 -1.51416 0.437162 0
M  V30 7623 C 706.301 -2.02086 -0.129364 0
M  V30 7624 C 706.629 -1.32133 -1.42728 0
M  V30 7625 O 705.884 -0.424916 -1.91031 0
M  V30 7626 C 706.183 -3.55203 -0.39564 0
M  V30 7627 C 705.849 -4.43447 0.81644 0
M  V30 7628 C 704.511 -4.67285 1.14884 0
M  V30 7629 C 706.863 -4.95219 1.62503 0
M  V30 7630 C 704.191 -5.40141 2.29052 0
M  V30 7631 C 706.543 -5.69327 2.7577 0
M  V30 7632 C 705.207 -5.91429 3.09464 0
M  V30 7633 H 704.477 -0.739486 -0.0473375 0
M  V30 7634 H 707.124 -1.82368 0.584321 0
M  V30 7635 H 705.429 -3.73252 -1.19121 0
M  V30 7636 H 707.126 -3.91944 -0.847399 0
M  V30 7637 H 703.716 -4.2509 0.547422 0
M  V30 7638 H 707.9 -4.76686 1.38144 0
M  V30 7639 H 703.156 -5.55468 2.55471 0
M  V30 7640 H 707.33 -6.08433 3.38795 0
M  V30 7641 H 704.957 -6.47662 3.98042 0
M  V30 7642 N 706.532 -0.168513 -1.56696 0
M  V30 7643 C 707.762 0.482802 -2.0088 0
M  V30 7644 C 708.17 1.57537 -1.0478 0
M  V30 7645 O 707.513 1.83656 -0.0402746 0
M  V30 7646 C 707.575 1.1236 -3.4149 0
M  V30 7647 C 707.239 0.173027 -4.56672 0
M  V30 7648 C 708.236 -0.607565 -5.16338 0
M  V30 7649 C 705.921 0.0696691 -5.02252 0
M  V30 7650 C 707.915 -1.47874 -6.2001 0
M  V30 7651 C 705.602 -0.805096 -6.05773 0
M  V30 7652 C 706.6 -1.57789 -6.64524 0
M  V30 7653 O 706.288 -2.43804 -7.66038 0
M  V30 7654 H 706.02 0.128246 -0.663723 0
M  V30 7655 H 708.574 -0.266532 -2.03663 0
M  V30 7656 H 706.804 1.921 -3.35611 0
M  V30 7657 H 708.493 1.67683 -3.69645 0
M  V30 7658 H 709.259 -0.53787 -4.82008 0
M  V30 7659 H 705.138 0.660957 -4.56237 0
M  V30 7660 H 708.682 -2.0824 -6.65794 0
M  V30 7661 H 704.579 -0.876005 -6.39528 0
M  V30 7662 H 705.347 -2.37289 -7.83349 0
M  V30 7663 N 708.01 1.57248 0.105221 0
M  V30 7664 C 709.256 1.86719 0.806692 0
M  V30 7665 C 709.611 0.758061 1.76837 0
M  V30 7666 O 708.904 -0.240812 1.90081 0
M  V30 7667 C 709.098 3.20437 1.58287 0
M  V30 7668 C 708.927 4.44252 0.697864 0
M  V30 7669 C 707.697 5.04104 0.347444 0
M  V30 7670 C 709.895 5.14299 0.00933014 0
M  V30 7671 N 707.877 6.1146 -0.546786 0
M  V30 7672 C 709.248 6.15528 -0.74336 0
M  V30 7673 C 711.303 4.97857 -0.0656505 0
M  V30 7674 C 710.006 7.02091 -1.56401 0
M  V30 7675 C 712.032 5.84919 -0.873167 0
M  V30 7676 C 711.394 6.8566 -1.61401 0
M  V30 7677 H 707.493 0.73329 0.271679 0
M  V30 7678 H 710.077 1.94575 0.0697152 0
M  V30 7679 H 708.248 3.13651 2.29079 0
M  V30 7680 H 709.98 3.37668 2.23075 0
M  V30 7681 H 706.735 4.68505 0.692817 0
M  V30 7682 H 707.159 6.69779 -0.986157 0
M  V30 7683 H 711.801 4.19919 0.492768 0
M  V30 7684 H 709.519 7.79427 -2.13353 0
M  V30 7685 H 713.105 5.74259 -0.933724 0
M  V30 7686 H 711.985 7.5186 -2.2288 0
M  V30 7687 N 709.488 -0.375779 1.53054 0
M  V30 7688 C 710.737 -1.11674 1.67964 0
M  V30 7689 C 711.05 -1.90755 0.432655 0
M  V30 7690 O 712.256 -2.67538 0.462109 0
M  V30 7691 C 710.712 -2.0344 2.96884 0
M  V30 7692 C 710.32 -1.29719 4.28809 0
M  V30 7693 C 712.064 -2.7759 3.2116 0
M  V30 7694 C 709.971 -2.20327 5.48826 0
M  V30 7695 H 708.901 -0.420597 0.625791 0
M  V30 7696 H 711.552 -0.378499 1.79554 0
M  V30 7697 H 709.934 -2.80953 2.79072 0
M  V30 7698 H 711.108 -0.573394 4.57219 0
M  V30 7699 H 709.423 -0.674735 4.10897 0
M  V30 7700 H 712.02 -3.4559 4.0801 0
M  V30 7701 H 712.363 -3.42399 2.36789 0
M  V30 7702 H 712.896 -2.07164 3.396 0
M  V30 7703 H 709.635 -1.60113 6.35645 0
M  V30 7704 H 709.155 -2.90585 5.2471 0
M  V30 7705 H 710.834 -2.80116 5.83219 0
M  V30 7706 N 710.966 -1.44241 -0.634997 0
M  V30 7707 C 712.212 -1.47038 -1.39669 0
M  V30 7708 C 712.545 -0.101122 -1.93937 0
M  V30 7709 O 711.82 0.880699 -1.73418 0
M  V30 7710 C 712.103 -2.52763 -2.56482 0
M  V30 7711 C 711.956 -3.99032 -2.07589 0
M  V30 7712 C 713.275 -2.55031 -3.58674 0
M  V30 7713 H 710.394 -0.53537 -0.506506 0
M  V30 7714 H 713.036 -1.75898 -0.718317 0
M  V30 7715 H 711.186 -2.28284 -3.14354 0
M  V30 7716 H 712.858 -4.3463 -1.54577 0
M  V30 7717 H 711.101 -4.10994 -1.38804 0
M  V30 7718 H 711.772 -4.68649 -2.91671 0
M  V30 7719 H 714.248 -2.76893 -3.10595 0
M  V30 7720 H 713.124 -3.30916 -4.37934 0
M  V30 7721 H 713.385 -1.59085 -4.12486 0
M  V30 7722 N 712.444 0.87505 -1.31075 0
M  V30 7723 C 713.374 1.99775 -1.20881 0
M  V30 7724 C 714.355 1.69822 -0.0971612 0
M  V30 7725 O 715.54 1.92158 -0.280895 0
M  V30 7726 C 712.67 3.35163 -0.910118 0
M  V30 7727 C 711.624 3.79406 -1.98078 0
M  V30 7728 C 710.95 5.12197 -1.53488 0
M  V30 7729 C 712.25 3.97061 -3.39323 0
M  V30 7730 H 713.944 2.08562 -2.14808 0
M  V30 7731 H 711.49 1.00207 -1.03415 0
M  V30 7732 H 713.443 4.13237 -0.825423 0
M  V30 7733 H 712.167 3.26536 0.064822 0
M  V30 7734 H 710.826 3.03568 -2.05528 0
M  V30 7735 H 710.474 5.00007 -0.547941 0
M  V30 7736 H 710.174 5.4277 -2.2511 0
M  V30 7737 H 711.698 5.92785 -1.46417 0
M  V30 7738 H 713.112 4.65545 -3.34576 0
M  V30 7739 H 711.509 4.39025 -4.09118 0
M  V30 7740 H 712.579 3.00601 -3.80483 0
M  V30 7741 N 713.922 1.13953 1.08869 0
M  V30 7742 C 715.147 0.928559 1.85452 0
M  V30 7743 C 715.572 -0.517642 1.80837 0
M  V30 7744 O 714.93 -1.36779 1.19001 0
M  V30 7745 C 714.978 1.42814 3.31114 0
M  V30 7746 O 714.082 0.617129 4.07756 0
M  V30 7747 H 713.423 0.33235 0.574839 0
M  V30 7748 H 715.953 1.5156 1.37443 0
M  V30 7749 H 715.963 1.43425 3.8196 0
M  V30 7750 H 714.638 2.48109 3.33788 0
M  V30 7751 H 713.215 0.679365 3.66659 0
M  V30 7752 N 715.4 -1.26948 0.933913 0
M  V30 7753 C 716.33 -2.29017 0.45534 0
M  V30 7754 C 717.311 -1.62961 -0.487605 0
M  V30 7755 O 718.496 -1.90223 -0.391022 0
M  V30 7756 C 715.626 -3.46112 -0.287015 0
M  V30 7757 C 714.58 -4.24205 0.568682 0
M  V30 7758 C 713.906 -5.3384 -0.303206 0
M  V30 7759 C 715.206 -4.88954 1.83633 0
M  V30 7760 H 716.9 -2.69298 1.30839 0
M  V30 7761 H 714.446 -1.29459 0.630579 0
M  V30 7762 H 716.399 -4.16622 -0.6328 0
M  V30 7763 H 715.123 -3.04765 -1.17414 0
M  V30 7764 H 713.782 -3.5545 0.897261 0
M  V30 7765 H 713.43 -4.88734 -1.18947 0
M  V30 7766 H 713.13 -5.86998 0.265879 0
M  V30 7767 H 714.654 -6.0719 -0.644423 0
M  V30 7768 H 716.068 -5.51717 1.55823 0
M  V30 7769 H 714.465 -5.52198 2.34941 0
M  V30 7770 H 715.535 -4.12305 2.55211 0
M  V30 7771 N 716.879 -0.700114 -1.41195 0
M  V30 7772 C 718.125 -0.233351 -2.01453 0
M  V30 7773 C 718.458 1.16548 -1.55339 0
M  V30 7774 O 717.733 1.78756 -0.766575 0
M  V30 7775 C 718.016 -0.2961 -3.58881 0
M  V30 7776 C 717.869 -1.7322 -4.15108 0
M  V30 7777 C 719.188 0.341525 -4.38773 0
M  V30 7778 H 716.307 -0.0862667 -0.731934 0
M  V30 7779 H 718.949 -0.889693 -1.67882 0
M  V30 7780 H 717.099 0.262736 -3.87611 0
M  V30 7781 H 718.771 -2.34523 -3.97236 0
M  V30 7782 H 717.014 -2.2649 -3.69979 0
M  V30 7783 H 717.685 -1.7276 -5.24269 0
M  V30 7784 H 720.161 -0.134461 -4.15883 0
M  V30 7785 H 719.037 0.267098 -5.4825 0
M  V30 7786 H 719.298 1.42289 -4.18577 0
M  V30 7787 N 718.357 1.51182 -0.445186 0
M  V30 7788 C 719.32 2.26501 0.350722 0
M  V30 7789 C 720.32 1.3025 0.942952 0
M  V30 7790 O 721.51 1.53897 0.816175 0
M  V30 7791 C 718.642 3.06274 1.49697 0
M  V30 7792 H 719.835 2.98299 -0.309474 0
M  V30 7793 H 717.388 1.55034 -0.198551 0
M  V30 7794 H 718.123 2.38911 2.19299 0
M  V30 7795 H 717.908 3.76979 1.0784 0
M  V30 7796 H 719.398 3.63306 2.05909 0
M  V30 7797 N 719.835 0.176821 1.56605 0
M  V30 7798 C 720.765 -0.746841 2.21234 0
M  V30 7799 C 721.746 -1.23502 1.16967 0
M  V30 7800 O 722.931 -1.28718 1.45414 0
M  V30 7801 C 720.061 -1.97407 2.8574 0
M  V30 7802 C 719.015 -1.62153 3.96094 0
M  V30 7803 C 718.341 -2.92387 4.47676 0
M  V30 7804 C 719.641 -0.845353 5.15413 0
M  V30 7805 H 721.335 -0.208116 2.98676 0
M  V30 7806 H 718.881 -0.0986594 1.43662 0
M  V30 7807 H 720.834 -2.62531 3.2963 0
M  V30 7808 H 719.558 -2.53703 2.05676 0
M  V30 7809 H 718.217 -0.993964 3.52868 0
M  V30 7810 H 717.865 -3.46734 3.64396 0
M  V30 7811 H 717.565 -2.69551 5.22127 0
M  V30 7812 H 719.089 -3.5853 4.94255 0
M  V30 7813 H 720.503 -1.39929 5.55961 0
M  V30 7814 H 718.9 -0.715814 5.95815 0
M  V30 7815 H 719.97 0.157239 4.84645 0
M  V30 7816 N 721.313 -1.57302 -0.09688 0
M  V30 7817 C 722.261 -2.02942 -1.13654 0
M  V30 7818 C 723.255 -0.930173 -1.41577 0
M  V30 7819 O 724.461 -1.11535 -1.41279 0
M  V30 7820 H 720.836 -0.646726 -0.383731 0
M  V30 7821 H 722.807 -2.89452 -0.725267 0
M  V30 7822 C 721.556 -2.46815 -2.44903 0
M  V30 7823 H 720.879 -3.30979 -2.24261 0
M  V30 7824 H 722.319 -2.82527 -3.16156 0
M  V30 7825 C 720.778 -1.34071 -3.09074 0
M  V30 7826 O 721.308 -0.668856 -3.96092 0
M  V30 7827 N 719.514 -1.09214 -2.69296 0
M  V30 7828 H 719.061 -1.64029 -1.98626 0
M  V30 7829 H 719.019 -0.339785 -3.12559 0
M  V30 7830 N 722.791 0.367657 -1.53252 0
M  V30 7831 C 724.019 1.13119 -1.73239 0
M  V30 7832 C 724.434 1.831 -0.460404 0
M  V30 7833 O 723.791 1.73483 0.566557 0
M  V30 7834 C 723.842 2.16308 -2.89643 0
M  V30 7835 O 723.563 1.49175 -4.1192 0
M  V30 7836 C 725.064 3.05224 -3.21486 0
M  V30 7837 H 722.284 0.338318 -0.579467 0
M  V30 7838 H 724.828 0.42721 -1.99988 0
M  V30 7839 H 722.983 2.82307 -2.65295 0
M  V30 7840 H 723.397 2.17912 -4.7709 0
M  V30 7841 H 724.871 3.73613 -4.06346 0
M  V30 7842 H 725.348 3.69919 -2.36763 0
M  V30 7843 H 725.954 2.44843 -3.47753 0
M  V30 7844 N 724.269 1.44576 0.627338 0
M  V30 7845 C 725.232 1.51372 1.72102 0
M  V30 7846 C 726.232 0.395329 1.55865 0
M  V30 7847 O 727.422 0.658094 1.61291 0
M  V30 7848 C 724.554 1.39129 3.11217 0
M  V30 7849 H 725.747 2.48798 1.6745 0
M  V30 7850 H 723.3 1.31724 0.841336 0
M  V30 7851 H 724.035 0.428114 3.21462 0
M  V30 7852 H 723.82 2.20229 3.24409 0
M  V30 7853 H 725.31 1.46874 3.90919 0
M  V30 7854 N 725.747 -0.868086 1.31537 0
M  V30 7855 C 726.987 -1.63526 1.22632 0
M  V30 7856 C 727.351 -1.90828 -0.211815 0
M  V30 7857 O 728.552 -2.65429 -0.424387 0
M  V30 7858 C 726.823 -2.92849 2.04876 0
M  V30 7859 S 728.382 -3.83717 2.12853 0
M  V30 7860 H 725.2 -0.56105 0.436743 0
M  V30 7861 H 727.802 -1.02908 1.66223 0
M  V30 7862 H 726.506 -2.70717 3.08449 0
M  V30 7863 H 726.037 -3.58491 1.62011 0
M  V30 7864 H 728.052 -4.79719 1.26822 0
M  V30 7865 N 727.225 -1.14528 -1.08264 0
M  V30 7866 C 728.471 -0.91576 -1.80947 0
M  V30 7867 C 728.804 0.55623 -1.86064 0
M  V30 7868 O 728.079 1.41207 -1.33756 0
M  V30 7869 C 728.362 -1.51917 -3.26486 0
M  V30 7870 C 728.215 -3.06111 -3.2957 0
M  V30 7871 C 729.534 -1.19724 -4.23502 0
M  V30 7872 H 726.653 -0.334113 -0.656915 0
M  V30 7873 H 729.295 -1.41547 -1.26746 0
M  V30 7874 H 727.445 -1.0942 -3.72773 0
M  V30 7875 H 729.117 -3.57448 -2.91597 0
M  V30 7876 H 727.36 -3.40483 -2.688 0
M  V30 7877 H 728.031 -3.43438 -4.32151 0
M  V30 7878 H 730.507 -1.56467 -3.85561 0
M  V30 7879 H 729.383 -1.64575 -5.23647 0
M  V30 7880 H 729.644 -0.112771 -4.41956 0
M  V30 7881 N 728.703 1.26451 -0.940633 0
M  V30 7882 C 729.666 2.24651 -0.454378 0
M  V30 7883 C 730.666 1.54826 0.434222 0
M  V30 7884 O 731.856 1.72628 0.233477 0
M  V30 7885 C 728.988 3.39148 0.345192 0
M  V30 7886 H 730.181 2.69182 -1.32217 0
M  V30 7887 H 727.734 1.38596 -0.722547 0
M  V30 7888 H 728.469 3.00018 1.23125 0
M  V30 7889 H 728.254 3.9101 -0.292107 0
M  V30 7890 H 729.744 4.12103 0.675341 0
M  V30 7891 N 730.181 0.707592 1.40822 0
M  V30 7892 C 731.43 0.240705 2.00259 0
M  V30 7893 C 731.743 -1.17027 1.56729 0
M  V30 7894 O 732.949 -1.73526 2.08809 0
M  V30 7895 C 731.405 0.379432 3.57894 0
M  V30 7896 C 731.013 1.79654 4.104 0
M  V30 7897 C 732.757 -0.0270684 4.24491 0
M  V30 7898 C 730.664 1.88628 5.60512 0
M  V30 7899 H 729.594 0.0862369 0.749052 0
M  V30 7900 H 732.245 0.877528 1.61157 0
M  V30 7901 H 730.627 -0.325842 3.94657 0
M  V30 7902 H 731.801 2.53155 3.85032 0
M  V30 7903 H 730.116 2.15379 3.56372 0
M  V30 7904 H 732.713 0.0193743 5.34696 0
M  V30 7905 H 733.056 -1.06772 4.02375 0
M  V30 7906 H 733.589 0.628361 3.92806 0
M  V30 7907 H 730.328 2.90787 5.87472 0
M  V30 7908 H 729.848 1.19528 5.8777 0
M  V30 7909 H 731.527 1.6547 6.25483 0
M  V30 7910 N 731.66 -1.50943 0.453197 0
M  V30 7911 C 732.906 -2.02512 -0.108082 0
M  V30 7912 C 733.239 -1.33574 -1.40967 0
M  V30 7913 O 732.514 -0.455671 -1.89087 0
M  V30 7914 C 732.797 -3.58759 -0.310453 0
M  V30 7915 C 732.65 -4.38293 1.0109 0
M  V30 7916 C 733.969 -4.26816 -1.07313 0
M  V30 7917 H 731.088 -0.73603 -0.0378064 0
M  V30 7918 H 733.73 -1.80433 0.595295 0
M  V30 7919 H 731.88 -3.77702 -0.909582 0
M  V30 7920 H 733.552 -4.30964 1.64523 0
M  V30 7921 H 731.795 -4.02745 1.61179 0
M  V30 7922 H 732.466 -5.45828 0.82315 0
M  V30 7923 H 734.942 -4.1224 -0.565473 0
M  V30 7924 H 733.818 -5.35989 -1.1835 0
M  V30 7925 H 734.079 -3.88757 -2.10525 0
M  V30 7926 N 733.138 -0.185124 -1.56509 0
M  V30 7927 C 734.088 0.752315 -2.15231 0
M  V30 7928 C 735.072 1.18327 -1.0903 0
M  V30 7929 O 736.264 1.14333 -1.35119 0
M  V30 7930 C 733.393 1.97583 -2.80742 0
M  V30 7931 C 732.479 1.56623 -3.94119 0
M  V30 7932 N 732.87 0.867008 -4.98314 0
M  V30 7933 C 731.168 1.85626 -4.05535 0
M  V30 7934 C 731.869 0.663228 -5.77907 0
M  V30 7935 N 730.845 1.20891 -5.29987 0
M  V30 7936 H 734.647 0.209267 -2.93154 0
M  V30 7937 H 732.161 0.0150444 -1.62393 0
M  V30 7938 H 734.158 2.65779 -3.21197 0
M  V30 7939 H 732.818 2.52369 -2.04303 0
M  V30 7940 H 733.829 0.52355 -5.15247 0
M  V30 7941 H 730.506 2.41992 -3.40215 0
M  V30 7942 H 731.896 0.109273 -6.71811 0
M  V30 7943 N 734.616 1.57351 0.0885366 0
M  V30 7944 C 735.566 1.98963 1.11346 0
M  V30 7945 C 736.55 0.869065 1.35411 0
M  V30 7946 O 737.742 1.13292 1.35992 0
M  V30 7947 C 734.871 2.4231 2.43189 0
M  V30 7948 C 733.957 3.61065 2.22469 0
M  V30 7949 N 734.348 4.75789 1.71635 0
M  V30 7950 C 732.646 3.6729 2.5301 0
M  V30 7951 C 733.347 5.57708 1.65339 0
M  V30 7952 N 732.323 5.01067 2.1079 0
M  V30 7953 H 736.125 2.85109 0.713465 0
M  V30 7954 H 733.639 1.59682 0.295868 0
M  V30 7955 H 735.636 2.70352 3.17357 0
M  V30 7956 H 734.296 1.57544 2.83919 0
M  V30 7957 H 735.307 4.98411 1.40738 0
M  V30 7958 H 731.984 2.932 2.9722 0
M  V30 7959 H 733.374 6.59782 1.27031 0
M  V30 7960 N 736.094 -0.359525 1.53444 0
M  V30 7961 C 737.042 -1.46104 1.80987 0
M  V30 7962 C 738.036 -1.55181 0.679351 0
M  V30 7963 O 739.242 -1.57995 0.862405 0
M  V30 7964 H 735.617 -0.486835 0.573145 0
M  V30 7965 H 737.588 -1.2008 2.73173 0
M  V30 7966 C 736.337 -2.82855 2.02208 0
M  V30 7967 H 735.66 -2.76631 2.88644 0
M  V30 7968 H 737.1 -3.59091 2.25455 0
M  V30 7969 C 735.559 -3.27192 0.802931 0
M  V30 7970 O 736.089 -4.017 -0.00544286 0
M  V30 7971 N 734.295 -2.83807 0.624657 0
M  V30 7972 H 733.842 -2.23339 1.28364 0
M  V30 7973 H 733.8 -3.13828 -0.189641 0
M  V30 7974 N 737.572 -1.44907 -0.619662 0
M  V30 7975 C 738.504 -1.48652 -1.74457 0
M  V30 7976 C 739.517 -0.378596 -1.58337 0
M  V30 7977 O 740.706 -0.644987 -1.6644 0
M  V30 7978 C 737.806 -1.31568 -3.12319 0
M  V30 7979 C 736.979 -2.55816 -3.54792 0
M  V30 7980 C 736.038 -2.33465 -4.71573 0
M  V30 7981 O 735.064 -3.07015 -4.79302 0
M  V30 7982 N 736.266 -1.37254 -5.6404 0
M  V30 7983 H 739.031 -2.45632 -1.71712 0
M  V30 7984 H 736.592 -1.40492 -0.804582 0
M  V30 7985 H 738.584 -1.14445 -3.88181 0
M  V30 7986 H 737.154 -0.429095 -3.09641 0
M  V30 7987 H 736.374 -2.88137 -2.69018 0
M  V30 7988 H 737.662 -3.38431 -3.79924 0
M  V30 7989 H 737.06 -0.765309 -5.60499 0
M  V30 7990 H 735.617 -1.26106 -6.39485 0
M  V30 7991 N 739.05 0.861098 -1.31996 0
M  V30 7992 C 740.461 1.43065 -1.19955 0
M  V30 7993 C 740.812 1.95273 0.190489 0
M  V30 7994 O 739.937 1.87012 1.08882 0
M  V30 7995 C 740.532 2.60052 -2.1716 0
M  V30 7996 C 739.091 3.13026 -2.09026 0
M  V30 7997 C 738.238 1.85756 -2.05888 0
M  V30 7998 H 741.189 0.668834 -1.43918 0
M  V30 7999 H 741.21 3.37016 -1.76637 0
M  V30 8000 H 740.722 2.22024 -3.18319 0
M  V30 8001 H 738.823 3.55653 -1.11092 0
M  V30 8002 H 738.936 3.74707 -2.98549 0
M  V30 8003 H 737.3 2.05088 -1.51033 0
M  V30 8004 H 738.083 1.49954 -3.08818 0
M  V30 8005 N 740.528 1.15101 1.07655 0
M  V30 8006 C 741.46 0.802722 2.14684 0
M  V30 8007 C 742.473 -0.183874 1.61758 0
M  V30 8008 O 743.662 0.0389349 1.78458 0
M  V30 8009 C 740.762 0.172135 3.38463 0
M  V30 8010 C 739.935 1.19538 4.20749 0
M  V30 8011 C 738.994 0.58714 5.22914 0
M  V30 8012 O 738.02 1.25224 5.55255 0
M  V30 8013 N 739.222 -0.632566 5.77043 0
M  V30 8014 H 741.987 1.72379 2.45164 0
M  V30 8015 H 739.548 1.04647 1.23534 0
M  V30 8016 H 741.54 -0.247465 4.03943 0
M  V30 8017 H 740.11 -0.652214 3.0572 0
M  V30 8018 H 739.33 1.79165 3.51132 0
M  V30 8019 H 740.618 1.88636 4.7254 0
M  V30 8020 H 740.016 -1.19135 5.53013 0
M  V30 8021 H 738.573 -0.994566 6.44167 0
M  V30 8022 N 742.006 -1.2595 0.947325 0
M  V30 8023 C 743.252 -1.94081 0.608604 0
M  V30 8024 C 743.607 -1.72899 -0.844021 0
M  V30 8025 O 742.9 -1.05908 -1.59669 0
M  V30 8026 C 743.094 -3.46034 0.894158 0
M  V30 8027 C 742.923 -3.81994 2.37299 0
M  V30 8028 C 741.693 -4.04431 3.02925 0
M  V30 8029 C 743.891 -3.90069 3.35188 0
M  V30 8030 N 741.873 -4.27325 4.40757 0
M  V30 8031 C 743.244 -4.17567 4.58299 0
M  V30 8032 C 745.299 -3.72721 3.30127 0
M  V30 8033 C 744.002 -4.2952 5.76979 0
M  V30 8034 C 746.028 -3.8591 4.48138 0
M  V30 8035 C 745.39 -4.13812 5.70034 0
M  V30 8036 H 741.489 -0.73273 0.273187 0
M  V30 8037 H 744.073 -1.51898 1.218 0
M  V30 8038 H 742.244 -3.87131 0.313758 0
M  V30 8039 H 743.976 -4.01396 0.516082 0
M  V30 8040 H 740.731 -4.0003 2.53521 0
M  V30 8041 H 741.155 -4.42792 5.12118 0
M  V30 8042 H 745.797 -3.50172 2.36938 0
M  V30 8043 H 743.515 -4.50888 6.70616 0
M  V30 8044 H 747.101 -3.73882 4.45762 0
M  V30 8045 H 745.981 -4.23791 6.59827 0
M  V30 8046 N 743.484 -0.715051 -1.40445 0
M  V30 8047 C 744.414 -0.0768699 -2.33373 0
M  V30 8048 C 745.395 0.746109 -1.52863 0
M  V30 8049 O 746.58 0.695142 -1.81332 0
M  V30 8050 C 743.71 0.846014 -3.36838 0
M  V30 8051 C 742.664 0.128694 -4.27806 0
M  V30 8052 C 741.99 1.16726 -5.21804 0
M  V30 8053 C 743.29 -1.01679 -5.12307 0
M  V30 8054 H 744.984 -0.853061 -2.8699 0
M  V30 8055 H 742.53 -0.41167 -1.3799 0
M  V30 8056 H 744.483 1.30185 -4.00786 0
M  V30 8057 H 743.207 1.6541 -2.81615 0
M  V30 8058 H 741.866 -0.307314 -3.6531 0
M  V30 8059 H 741.514 1.96838 -4.62887 0
M  V30 8060 H 741.214 0.692188 -5.83509 0
M  V30 8061 H 742.738 1.62321 -5.88629 0
M  V30 8062 H 744.152 -0.640337 -5.69713 0
M  V30 8063 H 742.549 -1.4202 -5.83053 0
M  V30 8064 H 743.619 -1.84769 -4.48317 0
M  V30 8065 N 744.962 1.50701 -0.461195 0
M  V30 8066 C 746.19 2.06681 0.0951756 0
M  V30 8067 C 746.605 1.32615 1.34382 0
M  V30 8068 O 745.962 0.392531 1.78229 0
M  V30 8069 C 746.013 3.59354 0.393316 0
M  V30 8070 O 745.734 4.30626 -0.805797 0
M  V30 8071 C 747.235 4.31926 0.997744 0
M  V30 8072 H 744.455 0.670995 -0.00267259 0
M  V30 8073 H 746.999 1.93991 -0.647137 0
M  V30 8074 H 745.154 3.7188 1.08555 0
M  V30 8075 H 745.568 5.21667 -0.544409 0
M  V30 8076 H 747.042 5.39756 1.15619 0
M  V30 8077 H 747.519 3.91772 1.98523 0
M  V30 8078 H 748.125 4.23905 0.344188 0
M  V30 8079 N 746.441 0.193421 1.56409 0
M  V30 8080 C 747.391 -0.74089 2.15627 0
M  V30 8081 C 748.375 -1.17747 1.09656 0
M  V30 8082 O 749.567 -1.13615 1.35723 0
M  V30 8083 C 746.696 -1.96091 2.81786 0
M  V30 8084 C 745.782 -1.54531 3.94944 0
M  V30 8085 N 746.173 -0.840569 4.98767 0
M  V30 8086 C 744.471 -1.83473 4.06514 0
M  V30 8087 C 745.172 -0.632571 5.7825 0
M  V30 8088 N 744.148 -1.18078 5.30621 0
M  V30 8089 H 747.95 -0.193718 2.93261 0
M  V30 8090 H 745.464 -0.00643211 1.62399 0
M  V30 8091 H 747.461 -2.64071 3.22602 0
M  V30 8092 H 746.121 -2.51282 2.05639 0
M  V30 8093 H 747.132 -0.496218 5.15517 0
M  V30 8094 H 743.809 -2.40184 3.41493 0
M  V30 8095 H 745.199 -0.0736433 6.7186 0
M  V30 8096 N 747.919 -1.57396 -0.0801906 0
M  V30 8097 C 748.849 -2.06145 -1.09665 0
M  V30 8098 C 749.83 -0.953273 -1.40878 0
M  V30 8099 O 751.015 -1.22548 -1.50651 0
M  V30 8100 C 748.145 -2.49836 -2.41245 0
M  V30 8101 C 747.099 -3.64454 -2.24405 0
M  V30 8102 C 746.425 -3.94172 -3.61293 0
M  V30 8103 C 747.725 -4.94807 -1.67223 0
M  V30 8104 H 749.419 -2.91316 -0.691028 0
M  V30 8105 H 746.965 -1.40145 -0.330957 0
M  V30 8106 H 748.918 -2.82552 -3.12638 0
M  V30 8107 H 747.642 -1.61683 -2.83771 0
M  V30 8108 H 746.301 -3.32008 -1.55454 0
M  V30 8109 H 745.949 -3.03163 -4.01374 0
M  V30 8110 H 745.649 -4.71345 -3.50867 0
M  V30 8111 H 747.173 -4.29376 -4.3413 0
M  V30 8112 H 748.587 -5.25807 -2.28472 0
M  V30 8113 H 746.984 -5.76245 -1.67515 0
M  V30 8114 H 748.054 -4.80751 -0.632944 0
M  V30 8115 N 749.397 0.351382 -1.53633 0
M  V30 8116 C 750.327 1.43688 -1.84055 0
M  V30 8117 C 751.308 1.55251 -0.695073 0
M  V30 8118 O 752.493 1.69587 -0.946257 0
M  V30 8119 C 749.623 2.80843 -2.04315 0
M  V30 8120 C 748.577 2.84094 -3.20117 0
M  V30 8121 C 747.903 4.2406 -3.25696 0
M  V30 8122 C 749.203 2.50334 -4.58399 0
M  V30 8123 H 750.897 1.18478 -2.74961 0
M  V30 8124 H 748.443 0.568509 -1.32303 0
M  V30 8125 H 750.396 3.56821 -2.2418 0
M  V30 8126 H 749.12 3.07471 -1.10132 0
M  V30 8127 H 747.779 2.10568 -3.00094 0
M  V30 8128 H 747.427 4.47785 -2.29123 0
M  V30 8129 H 747.127 4.27147 -4.03509 0
M  V30 8130 H 748.651 5.0189 -3.47762 0
M  V30 8131 H 750.065 3.16025 -4.78332 0
M  V30 8132 H 748.462 2.64717 -5.38558 0
M  V30 8133 H 749.532 1.45542 -4.62543 0
M  V30 8134 N 750.875 1.45233 0.611969 0
M  V30 8135 C 752.105 1.52318 1.39581 0
M  V30 8136 C 752.513 0.153093 1.8858 0
M  V30 8137 O 751.856 -0.854792 1.62601 0
M  V30 8138 C 751.918 2.4426 2.63775 0
M  V30 8139 C 751.582 3.91079 2.36445 0
M  V30 8140 C 752.579 4.81099 1.97079 0
M  V30 8141 C 750.264 4.35958 2.49492 0
M  V30 8142 C 752.258 6.14002 1.71115 0
M  V30 8143 C 749.945 5.68903 2.23142 0
M  V30 8144 C 750.943 6.57744 1.84015 0
M  V30 8145 O 750.631 7.88226 1.5797 0
M  V30 8146 H 750.363 0.518428 0.43383 0
M  V30 8147 H 752.917 1.91067 0.753837 0
M  V30 8148 H 751.147 2.00474 3.30677 0
M  V30 8149 H 752.836 2.42077 3.25812 0
M  V30 8150 H 753.602 4.47692 1.86539 0
M  V30 8151 H 749.481 3.67053 2.78914 0
M  V30 8152 H 753.025 6.83305 1.405 0
M  V30 8153 H 748.922 6.01866 2.33297 0
M  V30 8154 H 749.69 8.00211 1.72058 0
M  V30 8155 N 752.353 -0.854086 1.3245 0
M  V30 8156 C 753.583 -1.63836 1.25862 0
M  V30 8157 C 753.991 -1.88383 -0.175588 0
M  V30 8158 O 753.334 -1.45353 -1.1233 0
M  V30 8159 C 753.396 -3.02068 1.94923 0
M  V30 8160 C 753.06 -3.0056 3.44257 0
M  V30 8161 C 754.057 -2.77368 4.39731 0
M  V30 8162 C 751.742 -3.21177 3.862 0
M  V30 8163 C 753.736 -2.74797 5.75122 0
M  V30 8164 C 751.423 -3.18234 5.217 0
M  V30 8165 C 752.421 -2.95072 6.15972 0
M  V30 8166 O 752.109 -2.92003 7.48992 0
M  V30 8167 H 751.841 -0.517007 0.435523 0
M  V30 8168 H 754.395 -1.07314 1.75137 0
M  V30 8169 H 752.625 -3.60382 1.40219 0
M  V30 8170 H 754.314 -3.62791 1.82037 0
M  V30 8171 H 755.08 -2.61205 4.08653 0
M  V30 8172 H 750.959 -3.38231 3.13243 0
M  V30 8173 H 754.503 -2.56638 6.48678 0
M  V30 8174 H 750.4 -3.33941 5.52407 0
M  V30 8175 H 751.168 -3.07953 7.58358 0
M  V30 8176 N 753.831 -1.1567 -1.07043 0
M  V30 8177 C 754.794 -0.858906 -2.12498 0
M  V30 8178 C 755.794 0.142735 -1.60165 0
M  V30 8179 O 756.984 -0.0872678 -1.73981 0
M  V30 8180 C 754.116 -0.283021 -3.39723 0
M  V30 8181 H 755.309 -1.79368 -2.40348 0
M  V30 8182 H 752.862 -0.964608 -1.22984 0
M  V30 8183 H 753.597 0.659796 -3.17517 0
M  V30 8184 H 753.382 -1.00467 -3.7901 0
M  V30 8185 H 754.872 -0.0923543 -4.17498 0
M  V30 8186 N 755.309 1.25446 -0.953992 0
M  V30 8187 C 756.219 2.29632 -0.480264 0
M  V30 8188 C 757.235 1.68025 0.452071 0
M  V30 8189 O 758.411 1.98703 0.328472 0
M  V30 8190 C 755.476 3.45903 0.234974 0
M  V30 8191 C 754.537 4.22953 -0.735495 0
M  V30 8192 C 753.77 5.33672 -0.0542957 0
M  V30 8193 O 753.993 5.58477 1.16018 0
M  V30 8194 O 752.927 5.9734 -0.739509 0
M  V30 8195 H 756.753 2.72242 -1.34602 0
M  V30 8196 H 754.338 1.30883 -0.720419 0
M  V30 8197 H 756.22 4.16552 0.637341 0
M  V30 8198 H 754.895 3.05296 1.07592 0
M  V30 8199 H 753.802 3.54734 -1.18806 0
M  V30 8200 H 755.135 4.67341 -1.54444 0
M  V30 8201 N 756.787 0.722489 1.40064 0
M  V30 8202 C 758.034 0.264979 2.00759 0
M  V30 8203 C 758.362 -1.14395 1.57302 0
M  V30 8204 O 757.617 -1.79165 0.787298 0
M  V30 8205 C 757.916 0.300682 3.56133 0
M  V30 8206 C 757.582 1.66087 4.19197 0
M  V30 8207 C 756.244 2.03319 4.36136 0
M  V30 8208 C 758.596 2.55452 4.54306 0
M  V30 8209 C 755.924 3.29448 4.8547 0
M  V30 8210 C 758.276 3.8094 5.05042 0
M  V30 8211 C 756.94 4.1828 5.2019 0
M  V30 8212 H 756.21 0.0969625 0.734629 0
M  V30 8213 H 758.857 0.926877 1.67575 0
M  V30 8214 H 757.162 -0.44479 3.89267 0
M  V30 8215 H 758.859 -0.0712542 4.00937 0
M  V30 8216 H 755.449 1.36137 4.06405 0
M  V30 8217 H 759.633 2.27961 4.40849 0
M  V30 8218 H 754.889 3.58338 4.95382 0
M  V30 8219 H 759.063 4.50351 5.31184 0
M  V30 8220 H 756.69 5.16081 5.58179 0
M  V30 8221 N 758.265 -1.50454 0.469181 0
M  V30 8222 C 759.195 -2.31353 -0.31592 0
M  V30 8223 C 760.176 -1.38172 -0.992094 0
M  V30 8224 O 761.361 -1.67093 -0.989633 0
M  V30 8225 C 758.491 -3.1786 -1.39937 0
M  V30 8226 C 757.445 -4.19578 -0.844909 0
M  V30 8227 C 756.771 -4.9481 -2.0265 0
M  V30 8228 C 758.071 -5.22106 0.142499 0
M  V30 8229 H 759.765 -2.97237 0.359269 0
M  V30 8230 H 757.311 -1.42942 0.174224 0
M  V30 8231 H 759.264 -3.7325 -1.95607 0
M  V30 8232 H 757.988 -2.49858 -2.1033 0
M  V30 8233 H 756.647 -3.65285 -0.310189 0
M  V30 8234 H 756.295 -4.23282 -2.71737 0
M  V30 8235 H 755.995 -5.63613 -1.66174 0
M  V30 8236 H 757.519 -5.53035 -2.58815 0
M  V30 8237 H 758.933 -5.72378 -0.324966 0
M  V30 8238 H 757.33 -5.98618 0.421441 0
M  V30 8239 H 758.4 -4.7297 1.06901 0
M  V30 8240 N 759.743 -0.201713 -1.56304 0
M  V30 8241 C 760.99 0.435307 -1.97766 0
M  V30 8242 C 761.318 1.61169 -1.0888 0
M  V30 8243 O 760.573 1.95272 -0.12934 0
M  V30 8244 C 760.872 0.931432 -3.45049 0
M  V30 8245 C 760.538 -0.132287 -4.50706 0
M  V30 8246 C 759.2 -0.424552 -4.79323 0
M  V30 8247 C 761.552 -0.852703 -5.14177 0
M  V30 8248 C 758.88 -1.4421 -5.68701 0
M  V30 8249 C 761.232 -1.85944 -6.04655 0
M  V30 8250 C 759.896 -2.15884 -6.31625 0
M  V30 8251 H 759.166 0.15929 -0.723676 0
M  V30 8252 H 761.813 -0.300069 -1.89134 0
M  V30 8253 H 760.118 1.7452 -3.50785 0
M  V30 8254 H 761.815 1.43383 -3.74489 0
M  V30 8255 H 758.405 0.105671 -4.2847 0
M  V30 8256 H 762.589 -0.640139 -4.92154 0
M  V30 8257 H 757.845 -1.6799 -5.87869 0
M  V30 8258 H 762.019 -2.42286 -6.52894 0
M  V30 8259 H 759.646 -2.94875 -7.0068 0
M  V30 8260 N 761.222 1.57436 0.0718424 0
M  V30 8261 C 762.152 2.06724 1.08571 0
M  V30 8262 C 763.133 0.960731 1.40371 0
M  V30 8263 O 764.318 1.23345 1.49999 0
M  V30 8264 C 761.448 2.51112 2.39916 0
M  V30 8265 C 760.402 3.65639 2.22469 0
M  V30 8266 C 759.728 3.96082 3.59198 0
M  V30 8267 C 761.028 4.95687 1.64596 0
M  V30 8268 H 762.722 2.91679 0.675569 0
M  V30 8269 H 760.268 1.40319 0.32352 0
M  V30 8270 H 762.221 2.84206 3.11135 0
M  V30 8271 H 760.945 1.63186 2.8291 0
M  V30 8272 H 759.604 3.32828 1.53691 0
M  V30 8273 H 759.252 3.05287 3.99761 0
M  V30 8274 H 758.952 4.73199 3.48362 0
M  V30 8275 H 760.476 4.31672 4.31847 0
M  V30 8276 H 761.89 5.27011 2.25681 0
M  V30 8277 H 760.287 5.77126 1.64457 0
M  V30 8278 H 761.357 4.8108 0.60744 0
M  V30 8279 N 762.7 -0.34323 1.53817 0
M  V30 8280 C 763.948 -1.0813 1.70741 0
M  V30 8281 C 764.269 -1.89165 0.473461 0
M  V30 8282 O 763.539 -1.89075 -0.512605 0
M  V30 8283 H 762.119 -0.40219 0.629486 0
M  V30 8284 H 764.781 -0.384426 1.91071 0
M  V30 8285 H 763.877 -1.7585 2.57843 0
M  V30 8286 N 764.178 -1.45556 -0.604258 0
M  V30 8287 C 765.108 -1.57327 -1.72541 0
M  V30 8288 C 766.089 -0.424637 -1.64714 0
M  V30 8289 O 767.274 -0.648196 -1.83063 0
M  V30 8290 C 764.404 -1.54279 -3.11152 0
M  V30 8291 C 763.358 -2.67893 -3.33792 0
M  V30 8292 C 762.684 -2.499 -4.72709 0
M  V30 8293 C 763.984 -4.0988 -3.23722 0
M  V30 8294 H 765.678 -2.51175 -1.62947 0
M  V30 8295 H 763.224 -1.20884 -0.782504 0
M  V30 8296 H 765.177 -1.6111 -3.89386 0
M  V30 8297 H 763.901 -0.569627 -3.21594 0
M  V30 8298 H 762.56 -2.60495 -2.57949 0
M  V30 8299 H 762.208 -1.50715 -4.79889 0
M  V30 8300 H 761.908 -3.26091 -4.88813 0
M  V30 8301 H 763.432 -2.5859 -5.5314 0
M  V30 8302 H 764.846 -4.18503 -3.91826 0
M  V30 8303 H 763.243 -4.86487 -3.51355 0
M  V30 8304 H 764.313 -4.31553 -2.21111 0
M  V30 8305 N 765.656 0.84705 -1.32902 0
M  V30 8306 C 766.903 1.60176 -1.23894 0
M  V30 8307 C 767.231 1.93496 0.197341 0
M  V30 8308 O 766.486 1.58173 1.15238 0
M  V30 8309 C 766.785 2.92663 -2.05142 0
M  V30 8310 C 766.451 2.7874 -3.54422 0
M  V30 8311 C 765.113 2.7465 -3.95121 0
M  V30 8312 C 767.465 2.64128 -4.49317 0
M  V30 8313 C 764.793 2.53837 -5.28946 0
M  V30 8314 C 767.145 2.44849 -5.83294 0
M  V30 8315 C 765.809 2.39156 -6.23186 0
M  V30 8316 H 765.079 0.586127 -0.453361 0
M  V30 8317 H 767.726 0.981994 -1.64405 0
M  V30 8318 H 766.031 3.588 -1.57383 0
M  V30 8319 H 767.728 3.50095 -1.95537 0
M  V30 8320 H 764.318 2.82751 -3.22102 0
M  V30 8321 H 768.502 2.66327 -4.18788 0
M  V30 8322 H 763.758 2.4787 -5.58901 0
M  V30 8323 H 767.932 2.32524 -6.56434 0
M  V30 8324 H 765.559 2.22789 -7.26821 0
M  V30 8325 N 767.134 1.16236 1.06428 0
M  V30 8326 C 768.064 0.890807 2.1584 0
M  V30 8327 C 769.045 -0.162333 1.69324 0
M  V30 8328 O 770.23 -0.0147191 1.94194 0
M  V30 8329 C 767.36 0.389615 3.45108 0
M  V30 8330 C 766.314 1.38051 4.05125 0
M  V30 8331 C 765.64 0.737773 5.29586 0
M  V30 8332 C 766.94 2.74965 4.44062 0
M  V30 8333 H 768.634 1.80577 2.38814 0
M  V30 8334 H 766.18 0.869657 1.14774 0
M  V30 8335 H 768.133 0.187127 4.20984 0
M  V30 8336 H 766.857 -0.560851 3.21748 0
M  V30 8337 H 765.516 1.56952 3.31303 0
M  V30 8338 H 765.164 -0.219135 5.02522 0
M  V30 8339 H 764.864 1.39914 5.70699 0
M  V30 8340 H 766.388 0.545275 6.0816 0
M  V30 8341 H 767.802 2.59855 5.11027 0
M  V30 8342 H 766.199 3.37563 4.96156 0
M  V30 8343 H 767.269 3.30321 3.54987 0
M  V30 8344 N 768.612 -1.24939 0.960631 0
M  V30 8345 C 769.542 -2.28 0.503815 0
M  V30 8346 C 770.523 -1.63959 -0.452928 0
M  V30 8347 O 771.708 -1.91009 -0.350585 0
M  V30 8348 C 768.838 -3.46643 -0.213535 0
M  V30 8349 C 767.792 -4.22903 0.658535 0
M  V30 8350 C 767.118 -5.34363 -0.189902 0
M  V30 8351 C 768.418 -4.84949 1.93963 0
M  V30 8352 H 770.112 -2.66462 1.36521 0
M  V30 8353 H 767.658 -1.28093 0.657897 0
M  V30 8354 H 769.611 -4.1787 -0.544286 0
M  V30 8355 H 768.335 -3.07187 -1.10923 0
M  V30 8356 H 766.994 -3.53467 0.972455 0
M  V30 8357 H 766.642 -4.91147 -1.08553 0
M  V30 8358 H 766.342 -5.86302 0.390331 0
M  V30 8359 H 767.866 -6.0842 -0.515484 0
M  V30 8360 H 769.28 -5.48288 1.67491 0
M  V30 8361 H 767.677 -5.47091 2.46601 0
M  V30 8362 H 768.747 -4.06799 2.639 0
M  V30 8363 N 770.09 -0.729906 -1.39679 0
M  V30 8364 C 771 -0.0880322 -2.34435 0
M  V30 8365 C 772.016 0.727674 -1.58053 0
M  V30 8366 O 773.192 0.657321 -1.90371 0
M  V30 8367 C 770.257 0.812211 -3.37052 0
M  V30 8368 C 769.318 -0.0151681 -4.29297 0
M  V30 8369 C 768.551 0.842202 -5.27013 0
M  V30 8370 O 768.774 2.08108 -5.31081 0
M  V30 8371 O 767.708 0.27357 -6.01278 0
M  V30 8372 H 771.534 -0.869989 -2.90972 0
M  V30 8373 H 769.119 -0.490522 -1.41118 0
M  V30 8374 H 771.001 1.32745 -3.99946 0
M  V30 8375 H 769.676 1.57307 -2.82907 0
M  V30 8376 H 768.583 -0.575811 -3.69642 0
M  V30 8377 H 769.916 -0.738129 -4.86634 0
M  V30 8378 N 771.568 1.50203 -0.477153 0
M  V30 8379 C 772.501 2.25343 0.359983 0
M  V30 8380 C 773.479 1.28909 0.991022 0
M  V30 8381 O 774.663 1.58146 1.02578 0
M  V30 8382 C 771.79 3.03431 1.5049 0
M  V30 8383 C 770.836 4.14836 0.99063 0
M  V30 8384 S 771.669 5.35407 -0.0995413 0
M  V30 8385 C 772.825 6.17045 1.04911 0
M  V30 8386 H 773.058 2.95999 -0.277836 0
M  V30 8387 H 770.591 1.52159 -0.262115 0
M  V30 8388 H 772.549 3.49012 2.16105 0
M  V30 8389 H 771.21 2.32289 2.11425 0
M  V30 8390 H 770.403 4.689 1.84794 0
M  V30 8391 H 770.005 3.71723 0.412097 0
M  V30 8392 H 772.297 6.48546 1.95946 0
M  V30 8393 H 773.24 7.05979 0.547596 0
M  V30 8394 H 773.648 5.49193 1.30567 0
M  V30 8395 N 773.046 0.209999 1.56195 0
M  V30 8396 C 774.271 -0.433064 2.02828 0
M  V30 8397 C 774.696 -1.5337 1.08901 0
M  V30 8398 O 774.054 -1.81144 0.0751132 0
M  V30 8399 C 774.102 -0.952635 3.47789 0
M  V30 8400 O 773.206 -2.0647 3.56993 0
M  V30 8401 H 772.547 -0.0994594 0.656509 0
M  V30 8402 H 775.077 0.32525 2.01998 0
M  V30 8403 H 775.087 -1.26542 3.8788 0
M  V30 8404 H 773.762 -0.147007 4.1564 0
M  V30 8405 H 772.339 -1.75942 3.28784 0
M  V30 8406 N 774.524 -1.57472 -0.0634922 0
M  V30 8407 C 775.454 -2.07297 -1.07473 0
M  V30 8408 C 776.435 -0.968162 -1.39859 0
M  V30 8409 O 777.62 -1.24139 -1.49343 0
M  V30 8410 C 774.75 -2.52381 -2.38581 0
M  V30 8411 C 773.704 -3.66813 -2.20526 0
M  V30 8412 C 773.03 -3.97982 -3.57092 0
M  V30 8413 C 774.33 -4.96553 -1.61965 0
M  V30 8414 H 776.024 -2.92033 -0.660092 0
M  V30 8415 H 773.57 -1.40488 -0.316074 0
M  V30 8416 H 775.523 -2.85852 -3.09624 0
M  V30 8417 H 774.247 -1.64684 -2.8204 0
M  V30 8418 H 772.906 -3.33639 -1.51924 0
M  V30 8419 H 772.554 -3.07403 -3.98136 0
M  V30 8420 H 772.254 -4.7504 -3.45848 0
M  V30 8421 H 773.778 -4.33956 -4.29552 0
M  V30 8422 H 775.192 -5.28201 -2.22883 0
M  V30 8423 H 773.589 -5.7799 -1.61394 0
M  V30 8424 H 774.659 -4.81396 -0.581918 0
M  V30 8425 N 776.003 0.335068 -1.53997 0
M  V30 8426 C 776.95 1.41187 -1.82579 0
M  V30 8427 C 777.92 1.51897 -0.672061 0
M  V30 8428 O 779.105 1.673 -0.917346 0
M  V30 8429 C 776.245 2.77717 -2.0486 0
M  V30 8430 C 775.358 2.7573 -3.32561 0
M  V30 8431 C 774.493 4.04032 -3.44864 0
M  V30 8432 C 773.532 3.96308 -4.66483 0
M  V30 8433 N 772.669 5.16317 -4.75774 0
M  V30 8434 H 777.509 1.16113 -2.74448 0
M  V30 8435 H 775.046 0.562305 -1.35928 0
M  V30 8436 H 777.004 3.57071 -2.15768 0
M  V30 8437 H 775.634 3.01124 -1.16294 0
M  V30 8438 H 774.686 1.88432 -3.3045 0
M  V30 8439 H 775.998 2.65902 -4.22016 0
M  V30 8440 H 775.152 4.91814 -3.55251 0
M  V30 8441 H 773.891 4.16652 -2.53481 0
M  V30 8442 H 772.896 3.06911 -4.56164 0
M  V30 8443 H 774.121 3.85263 -5.5924 0
M  V30 8444 H 772.067 5.29464 -3.87303 0
M  V30 8445 H 771.984 5.08779 -5.59178 0
M  V30 8446 H 773.252 6.05846 -4.9048 0
M  V30 8447 N 777.481 1.45874 0.596531 0
M  V30 8448 C 778.414 1.49889 1.72071 0
M  V30 8449 C 779.392 0.354224 1.58695 0
M  V30 8450 O 780.576 0.556355 1.80103 0
M  V30 8451 C 777.703 1.3644 3.10003 0
M  V30 8452 C 776.749 2.54913 3.41938 0
M  V30 8453 S 777.582 4.17336 3.35545 0
M  V30 8454 C 778.738 4.06372 4.76039 0
M  V30 8455 H 778.971 2.45005 1.68404 0
M  V30 8456 H 776.504 1.33592 0.77412 0
M  V30 8457 H 778.462 1.29368 3.89582 0
M  V30 8458 H 777.123 0.427762 3.11174 0
M  V30 8459 H 776.316 2.41458 4.42396 0
M  V30 8460 H 775.918 2.58904 2.69898 0
M  V30 8461 H 778.21 3.72199 5.66105 0
M  V30 8462 H 779.153 5.0678 4.9455 0
M  V30 8463 H 779.561 3.37846 4.52239 0
M  V30 8464 N 778.959 -0.83999 1.33349 0
M  V30 8465 C 780.189 -1.62492 1.27593 0
M  V30 8466 C 780.597 -1.88559 -0.155597 0
M  V30 8467 O 779.94 -1.46537 -1.10782 0
M  V30 8468 C 780.002 -2.99984 1.98116 0
M  V30 8469 C 779.666 -2.96892 3.47425 0
M  V30 8470 C 780.663 -2.72688 4.42648 0
M  V30 8471 C 778.348 -3.17063 3.89585 0
M  V30 8472 C 780.342 -2.68681 5.78004 0
M  V30 8473 C 778.029 -3.12682 5.25046 0
M  V30 8474 C 779.027 -2.88522 6.19067 0
M  V30 8475 O 778.715 -2.84042 7.52047 0
M  V30 8476 H 778.447 -0.512358 0.440982 0
M  V30 8477 H 781.001 -1.0545 1.76265 0
M  V30 8478 H 779.231 -3.58875 1.44034 0
M  V30 8479 H 780.92 -3.6084 1.85875 0
M  V30 8480 H 781.686 -2.56856 4.114 0
M  V30 8481 H 777.565 -3.34889 3.16813 0
M  V30 8482 H 781.109 -2.49743 6.51363 0
M  V30 8483 H 777.006 -3.28063 5.55918 0
M  V30 8484 H 777.774 -2.99892 7.61582 0
M  V30 8485 N 780.437 -1.16799 -1.0581 0
M  V30 8486 C 781.685 -0.950642 -1.78346 0
M  V30 8487 C 782.006 0.522524 -1.87869 0
M  V30 8488 O 781.276 1.3795 -1.39092 0
M  V30 8489 H 779.856 -0.348736 -0.6606 0
M  V30 8490 H 782.518 -1.47158 -1.27791 0
M  V30 8491 H 781.614 -1.37359 -2.80248 0
M  V30 8492 N 781.915 1.24427 -0.967243 0
M  V30 8493 C 782.848 2.23885 -0.441683 0
M  V30 8494 C 783.826 1.55231 0.483963 0
M  V30 8495 O 785.01 1.83865 0.415445 0
M  V30 8496 C 782.137 3.36755 0.362458 0
M  V30 8497 C 781.183 4.23495 -0.505407 0
M  V30 8498 S 782.016 4.98916 -1.94534 0
M  V30 8499 C 783.172 6.15245 -1.14997 0
M  V30 8500 H 783.405 2.68118 -1.28453 0
M  V30 8501 H 780.938 1.337 -0.772243 0
M  V30 8502 H 782.896 4.02218 0.820445 0
M  V30 8503 H 781.557 2.91081 1.18027 0
M  V30 8504 H 780.75 5.03876 0.111979 0
M  V30 8505 H 780.352 3.63032 -0.899104 0
M  V30 8506 H 782.644 6.7629 -0.404769 0
M  V30 8507 H 783.587 6.81343 -1.92814 0
M  V30 8508 H 783.995 5.60455 -0.674543 0
M  V30 8509 N 783.393 0.737304 1.3929 0
M  V30 8510 C 784.641 0.285691 2.00071 0
M  V30 8511 C 784.962 -1.13169 1.58801 0
M  V30 8512 O 784.232 -1.77104 0.837308 0
M  V30 8513 H 782.812 0.102638 0.739915 0
M  V30 8514 H 785.474 0.947775 1.70303 0
M  V30 8515 H 784.57 0.335906 3.10287 0
M  V30 8516 N 784.871 -1.49948 0.485112 0
M  V30 8517 C 786.282 -1.8667 0.0334041 0
M  V30 8518 C 786.633 -1.3988 -1.37579 0
M  V30 8519 O 785.758 -0.769788 -2.02245 0
M  V30 8520 C 786.353 -3.38757 0.0538426 0
M  V30 8521 C 784.912 -3.74839 -0.342453 0
M  V30 8522 C 784.059 -2.73894 0.433281 0
M  V30 8523 H 787.01 -1.42492 0.698699 0
M  V30 8524 H 787.031 -3.73132 -0.745146 0
M  V30 8525 H 786.543 -3.72782 1.07959 0
M  V30 8526 H 784.644 -3.46419 -1.37203 0
M  V30 8527 H 784.757 -4.79088 -0.0340503 0
M  V30 8528 H 783.121 -2.54441 -0.114849 0
M  V30 8529 H 783.904 -3.10763 1.45881 0
M  V30 8530 N 786.349 -0.21828 -1.56081 0
M  V30 8531 C 787.765 0.137168 -1.59009 0
M  V30 8532 C 787.965 1.59215 -1.23503 0
M  V30 8533 O 787.021 2.33178 -0.968716 0
M  V30 8534 C 788.334 -0.186162 -3.00123 0
M  V30 8535 C 789.882 -0.128135 -3.12738 0
M  V30 8536 C 790.357 -0.425094 -4.56023 0
M  V30 8537 N 791.848 -0.374547 -4.61683 0
M  V30 8538 C 792.583 -0.57786 -5.70481 0
M  V30 8539 N 792.079 -0.842771 -6.87655 0
M  V30 8540 N 793.872 -0.510521 -5.59777 0
M  V30 8541 H 786.023 -1.16746 -1.77437 0
M  V30 8542 H 788.286 -0.467706 -0.824594 0
M  V30 8543 H 787.992 -1.19589 -3.30744 0
M  V30 8544 H 787.866 0.500388 -3.73866 0
M  V30 8545 H 790.253 0.872224 -2.81915 0
M  V30 8546 H 790.334 -0.848112 -2.41331 0
M  V30 8547 H 789.978 -1.42288 -4.87562 0
M  V30 8548 H 789.908 0.316038 -5.25651 0
M  V30 8549 H 792.399 -0.177356 -3.77484 0
M  V30 8550 H 792.712 -0.986095 -7.66483 0
M  V30 8551 H 791.057 -0.879929 -6.89407 0
M  V30 8552 H 794.248 -0.303813 -4.67113 0
M  V30 8553 H 794.421 -0.672378 -6.44502 0
M  V30 8554 N 787.827 1.57504 0.0551401 0
M  V30 8555 C 788.757 2.07864 1.06372 0
M  V30 8556 C 789.738 0.975565 1.39344 0
M  V30 8557 O 790.923 1.24929 1.48682 0
M  V30 8558 C 788.053 2.53643 2.3724 0
M  V30 8559 C 787.007 3.67978 2.18578 0
M  V30 8560 C 786.333 3.9987 3.54976 0
M  V30 8561 C 787.633 4.97405 1.59329 0
M  V30 8562 H 789.327 2.92379 0.644595 0
M  V30 8563 H 786.873 1.40654 0.308619 0
M  V30 8564 H 788.826 2.8749 3.08103 0
M  V30 8565 H 787.55 1.66177 2.81163 0
M  V30 8566 H 786.209 3.3444 1.50152 0
M  V30 8567 H 785.857 3.0951 3.965 0
M  V30 8568 H 785.557 4.76867 3.43324 0
M  V30 8569 H 787.081 4.36228 4.27244 0
M  V30 8570 H 788.495 5.29375 2.20078 0
M  V30 8571 H 786.892 5.78837 1.58327 0
M  V30 8572 H 787.962 4.81697 0.55638 0
M  V30 8573 N 789.305 -0.326896 1.54172 0
M  V30 8574 C 790.535 -1.08328 1.75922 0
M  V30 8575 C 790.943 -1.82302 0.50622 0
M  V30 8576 O 790.286 -1.7581 -0.532581 0
M  V30 8577 C 790.348 -2.1294 2.8965 0
M  V30 8578 C 790.012 -1.58394 4.28673 0
M  V30 8579 C 791.009 -1.02747 5.09646 0
M  V30 8580 C 788.694 -1.62737 4.75207 0
M  V30 8581 C 790.688 -0.52169 6.35261 0
M  V30 8582 C 788.375 -1.11772 6.00791 0
M  V30 8583 C 789.373 -0.565819 6.80652 0
M  V30 8584 O 789.061 -0.0638146 8.03875 0
M  V30 8585 H 788.793 -0.3282 0.590983 0
M  V30 8586 H 791.347 -0.37972 2.0186 0
M  V30 8587 H 789.577 -2.86903 2.59275 0
M  V30 8588 H 791.266 -2.74274 2.99213 0
M  V30 8589 H 792.032 -0.987007 4.74851 0
M  V30 8590 H 787.911 -2.04635 4.13093 0
M  V30 8591 H 791.455 -0.0902544 6.97542 0
M  V30 8592 H 787.352 -1.15524 6.35078 0
M  V30 8593 H 788.12 -0.17955 8.18303 0
M  V30 8594 N 790.784 -1.46188 -0.588786 0
M  V30 8595 C 792.031 -1.51184 -1.34721 0
M  V30 8596 C 792.359 -0.161084 -1.93832 0
M  V30 8597 O 791.614 0.842557 -1.76634 0
M  V30 8598 C 791.913 -2.55364 -2.50048 0
M  V30 8599 C 791.579 -3.99553 -2.08969 0
M  V30 8600 C 790.241 -4.38811 -1.9748 0
M  V30 8601 C 792.593 -4.90156 -1.77191 0
M  V30 8602 C 789.921 -5.66544 -1.52463 0
M  V30 8603 C 792.273 -6.1832 -1.33654 0
M  V30 8604 C 790.937 -6.5649 -1.20738 0
M  V30 8605 H 790.207 -0.55322 -0.49298 0
M  V30 8606 H 792.854 -1.79634 -0.663627 0
M  V30 8607 H 791.159 -2.20552 -3.23827 0
M  V30 8608 H 792.856 -2.5646 -3.08268 0
M  V30 8609 H 789.446 -3.68518 -2.18843 0
M  V30 8610 H 793.63 -4.60549 -1.84955 0
M  V30 8611 H 788.886 -5.94895 -1.411 0
M  V30 8612 H 793.06 -6.87956 -1.08117 0
M  V30 8613 H 790.687 -7.55362 -0.856307 0
M  V30 8614 N 792.262 0.832906 -1.33792 0
M  V30 8615 C 793.212 1.93178 -1.21105 0
M  V30 8616 C 794.196 1.60506 -0.112491 0
M  V30 8617 O 795.388 1.73681 -0.341179 0
M  V30 8618 C 792.517 3.29647 -0.958526 0
M  V30 8619 C 791.603 3.68469 -2.0998 0
M  V30 8620 N 791.994 3.78936 -3.35024 0
M  V30 8621 C 790.292 3.98249 -2.00782 0
M  V30 8622 C 790.993 4.12731 -4.09912 0
M  V30 8623 N 789.969 4.25419 -3.38407 0
M  V30 8624 H 793.771 1.99434 -2.15878 0
M  V30 8625 H 791.285 1.02598 -1.25886 0
M  V30 8626 H 793.282 4.08173 -0.848552 0
M  V30 8627 H 791.942 3.24694 -0.019387 0
M  V30 8628 H 792.953 3.62688 -3.69699 0
M  V30 8629 H 789.63 4.01474 -1.14564 0
M  V30 8630 H 791.02 4.28117 -5.17847 0
M  V30 8631 N 793.74 1.17359 1.05189 0
M  V30 8632 C 794.965 0.98709 1.82404 0
M  V30 8633 C 795.39 -0.459848 1.82392 0
M  V30 8634 O 794.748 -1.32924 1.23292 0
M  V30 8635 C 794.796 1.53276 3.26403 0
M  V30 8636 O 793.9 0.746541 4.05587 0
M  V30 8637 H 793.241 0.35047 0.563974 0
M  V30 8638 H 795.771 1.55856 1.32552 0
M  V30 8639 H 795.781 1.55504 3.77203 0
M  V30 8640 H 794.456 2.58603 3.25726 0
M  V30 8641 H 793.033 0.795671 3.64312 0
M  V30 8642 N 795.218 -1.23913 0.973828 0
M  V30 8643 C 796.443 -1.96735 0.656511 0
M  V30 8644 C 796.868 -1.71682 -0.768571 0
M  V30 8645 O 796.226 -0.984267 -1.52256 0
M  V30 8646 C 796.274 -3.48004 0.944735 0
M  V30 8647 O 795.378 -4.12387 0.0333357 0
M  V30 8648 H 794.719 -0.616119 0.247575 0
M  V30 8649 H 797.249 -1.57525 1.30564 0
M  V30 8650 H 797.259 -3.98424 0.87876 0
M  V30 8651 H 795.934 -3.65567 1.98328 0
M  V30 8652 H 794.511 -3.72585 0.153157 0
M  V30 8653 N 796.696 -0.74468 -1.38897 0
M  V30 8654 C 797.943 -0.296884 -2.00312 0
M  V30 8655 C 798.271 1.11878 -1.59102 0
M  V30 8656 O 797.526 1.7789 -0.815702 0
M  V30 8657 C 797.825 -0.357302 -3.55609 0
M  V30 8658 C 797.491 -1.72736 -4.16501 0
M  V30 8659 C 796.153 -2.10232 -4.32846 0
M  V30 8660 C 798.505 -2.62647 -4.50184 0
M  V30 8661 C 795.833 -3.3713 -4.80167 0
M  V30 8662 C 798.185 -3.88926 -4.98918 0
M  V30 8663 C 796.849 -4.26503 -5.1347 0
M  V30 8664 H 796.119 -0.108638 -0.732993 0
M  V30 8665 H 798.766 -0.953419 -1.66079 0
M  V30 8666 H 797.071 0.382805 -3.89925 0
M  V30 8667 H 798.768 0.0074596 -4.00999 0
M  V30 8668 H 795.358 -1.42585 -4.04187 0
M  V30 8669 H 799.542 -2.34945 -4.37166 0
M  V30 8670 H 794.798 -3.66174 -4.89619 0
M  V30 8671 H 798.972 -4.58745 -5.23952 0
M  V30 8672 H 796.599 -5.24896 -5.49898 0
M  V30 8673 N 798.174 1.49689 -0.493057 0
M  V30 8674 C 799.122 2.30613 0.303383 0
M  V30 8675 C 800.116 1.38867 0.970165 0
M  V30 8676 O 801.322 1.55956 0.898761 0
M  V30 8677 H 797.697 0.742891 0.116691 0
M  V30 8678 H 799.668 2.95717 -0.39924 0
M  V30 8679 C 798.417 3.20008 1.35978 0
M  V30 8680 H 797.74 3.90526 0.856103 0
M  V30 8681 H 799.18 3.79586 1.88919 0
M  V30 8682 C 797.639 2.39079 2.37367 0
M  V30 8683 O 798.169 2.08933 3.43089 0
M  V30 8684 N 796.375 2.0125 2.09635 0
M  V30 8685 H 795.922 2.25966 1.23682 0
M  V30 8686 H 795.88 1.47408 2.77702 0
M  V30 8687 N 799.652 0.226554 1.55963 0
M  V30 8688 C 800.892 -0.405574 2.00336 0
M  V30 8689 C 801.256 -1.56593 1.11097 0
M  V30 8690 O 802.457 -2.26441 1.44838 0
M  V30 8691 C 800.728 -0.82435 3.47763 0
M  V30 8692 S 802.287 -1.44988 4.14154 0
M  V30 8693 H 799.105 -0.128512 0.699289 0
M  V30 8694 H 801.707 0.337017 1.92573 0
M  V30 8695 H 800.411 0.0297636 4.10389 0
M  V30 8696 H 799.942 -1.59963 3.5941 0
M  V30 8697 H 801.957 -2.73897 4.13757 0
M  V30 8698 N 801.13 -1.57531 -0.0467866 0
M  V30 8699 C 802.377 -1.88451 -0.74112 0
M  V30 8700 C 802.705 -0.821592 -1.76296 0
M  V30 8701 O 801.96 0.179585 -1.94874 0
M  V30 8702 C 802.259 -3.26091 -1.46285 0
M  V30 8703 C 801.925 -4.47171 -0.578669 0
M  V30 8704 C 800.587 -4.80032 -0.335083 0
M  V30 8705 C 802.939 -5.2119 0.0328809 0
M  V30 8706 C 800.267 -5.84309 0.529121 0
M  V30 8707 C 802.619 -6.26383 0.884684 0
M  V30 8708 C 801.283 -6.57729 1.1379 0
M  V30 8709 H 800.553 -0.68959 -0.271195 0
M  V30 8710 H 803.2 -1.915 -0.00132378 0
M  V30 8711 H 801.505 -3.18948 -2.27551 0
M  V30 8712 H 803.202 -3.47258 -2.00532 0
M  V30 8713 H 799.792 -4.21467 -0.778666 0
M  V30 8714 H 803.976 -4.96096 -0.142375 0
M  V30 8715 H 799.232 -6.06981 0.733794 0
M  V30 8716 H 803.406 -6.82888 1.36516 0
M  V30 8717 H 801.033 -7.38355 1.80929 0
M  V30 8718 N 802.608 0.318715 -1.54344 0
M  V30 8719 C 803.885 1.07461 -1.63437 0
M  V30 8720 C 804.265 2.05771 -0.47131 0
M  V30 8721 O 803.613 2.22175 0.53391 0
M  V30 8722 C 803.823 1.77224 -3.00654 0
M  V30 8723 C 805.171 2.30069 -3.56866 0
M  V30 8724 O 806.195 1.87284 -3.0299 0
M  V30 8725 O 805.054 3.08412 -4.51159 0
M  V30 8726 H 802.148 0.495627 -0.66203 0
M  V30 8727 H 804.694 0.318218 -1.6669 0
M  V30 8728 H 803.466 1.05742 -3.76742 0
M  V30 8729 H 803.089 2.59662 -3.01101 0
M  V30 8730 N 804.086 1.46499 0.581025 0
M  V30 8731 C 805.333 1.51896 1.33918 0
M  V30 8732 C 805.661 0.171361 1.93744 0
M  V30 8733 O 804.916 -0.833178 1.77078 0
M  V30 8734 C 805.215 2.56686 2.48691 0
M  V30 8735 C 804.881 4.00656 2.06847 0
M  V30 8736 C 803.543 4.39852 1.9515 0
M  V30 8737 C 805.895 4.91089 1.74589 0
M  V30 8738 C 803.223 5.67345 1.49456 0
M  V30 8739 C 805.575 6.1902 1.30373 0
M  V30 8740 C 804.239 6.57121 1.17255 0
M  V30 8741 H 803.509 0.555826 0.490039 0
M  V30 8742 H 806.156 1.79983 0.654092 0
M  V30 8743 H 804.461 2.22266 3.22653 0
M  V30 8744 H 806.158 2.58091 3.06904 0
M  V30 8745 H 802.748 3.69674 2.16886 0
M  V30 8746 H 806.932 4.61523 1.8251 0
M  V30 8747 H 802.188 5.95635 1.37944 0
M  V30 8748 H 806.362 6.8852 1.04467 0
M  V30 8749 H 803.989 7.55805 0.816236 0
M  V30 8750 N 805.565 -0.825799 1.34232 0
M  V30 8751 C 806.813 -1.57873 1.26177 0
M  V30 8752 C 807.134 -1.94267 -0.168904 0
M  V30 8753 O 806.404 -1.62045 -1.10084 0
M  V30 8754 H 804.984 -0.585388 0.464037 0
M  V30 8755 H 807.646 -0.986163 1.6811 0
M  V30 8756 H 806.742 -2.50283 1.86453 0
M  V30 8757 N 807.043 -1.17915 -1.04565 0
M  V30 8758 C 808.289 -0.972863 -1.77942 0
M  V30 8759 C 808.622 0.496753 -1.87739 0
M  V30 8760 O 807.897 1.3688 -1.38181 0
M  V30 8761 C 808.18 -1.62227 -3.21488 0
M  V30 8762 C 808.033 -3.16441 -3.19664 0
M  V30 8763 C 809.352 -1.33137 -4.19479 0
M  V30 8764 H 806.471 -0.354843 -0.645953 0
M  V30 8765 H 809.113 -1.45508 -1.22178 0
M  V30 8766 H 807.263 -1.21224 -3.69103 0
M  V30 8767 H 808.935 -3.66544 -2.80077 0
M  V30 8768 H 807.178 -3.48863 -2.57832 0
M  V30 8769 H 807.849 -3.57012 -4.21006 0
M  V30 8770 H 810.325 -1.68654 -3.80388 0
M  V30 8771 H 809.201 -1.81151 -5.18146 0
M  V30 8772 H 809.462 -0.253319 -4.41374 0
M  V30 8773 N 808.521 1.23394 -0.980386 0
M  V30 8774 C 809.749 1.95844 -0.667286 0
M  V30 8775 C 810.164 1.72574 0.765735 0
M  V30 8776 O 809.521 1.01715 1.51526 0
M  V30 8777 C 809.572 3.48844 -0.948151 0
M  V30 8778 O 809.293 3.71325 -2.32485 0
M  V30 8779 C 810.794 4.38494 -0.651002 0
M  V30 8780 H 808.014 0.623535 -0.247882 0
M  V30 8781 H 810.558 1.56885 -1.31176 0
M  V30 8782 H 808.713 3.85819 -0.349681 0
M  V30 8783 H 809.127 4.65619 -2.41452 0
M  V30 8784 H 810.601 5.44648 -0.897887 0
M  V30 8785 H 811.078 4.37236 0.414922 0
M  V30 8786 H 811.684 4.07127 -1.22995 0
M  V30 8787 N 809.999 0.752036 1.385 0
M  V30 8788 C 811.245 0.307958 2.00448 0
M  V30 8789 C 811.578 -1.10702 1.59558 0
M  V30 8790 O 810.853 -1.75788 0.832391 0
M  V30 8791 C 811.136 0.429092 3.57534 0
M  V30 8792 C 810.989 1.88507 4.08393 0
M  V30 8793 C 812.308 -0.178442 4.39738 0
M  V30 8794 H 809.427 0.113373 0.728228 0
M  V30 8795 H 812.069 0.951389 1.64465 0
M  V30 8796 H 810.219 -0.118695 3.88319 0
M  V30 8797 H 811.891 2.49104 3.88259 0
M  V30 8798 H 810.134 2.40066 3.61318 0
M  V30 8799 H 810.805 1.92099 5.17496 0
M  V30 8800 H 813.281 0.28872 4.15097 0
M  V30 8801 H 812.157 -0.0634349 5.48863 0
M  V30 8802 H 812.418 -1.26655 4.23569 0
M  V30 8803 N 811.477 -1.49425 0.500989 0
M  V30 8804 C 812.725 -2.02053 -0.0434495 0
M  V30 8805 C 813.046 -1.38285 -1.37486 0
M  V30 8806 O 812.316 -0.538171 -1.88363 0
M  V30 8807 H 810.896 -0.746757 -0.0190469 0
M  V30 8808 H 813.558 -1.83449 0.658227 0
M  V30 8809 H 812.654 -3.11619 -0.173129 0
M  V30 8810 N 812.955 -0.234822 -1.55841 0
M  V30 8811 C 814.18 0.400741 -2.03492 0
M  V30 8812 C 814.605 1.51618 -1.11327 0
M  V30 8813 O 813.963 1.81002 -0.103922 0
M  V30 8814 C 814.011 0.897184 -3.49261 0
M  V30 8815 O 813.115 2.00764 -3.60233 0
M  V30 8816 H 812.456 0.0890023 -0.658008 0
M  V30 8817 H 814.986 -0.357345 -2.01455 0
M  V30 8818 H 814.996 1.20356 -3.89844 0
M  V30 8819 H 813.671 0.0808639 -4.15821 0
M  V30 8820 H 812.248 1.70689 -3.31541 0
M  V30 8821 N 814.433 1.57553 0.0384317 0
M  V30 8822 C 815.682 1.88022 0.730108 0
M  V30 8823 C 815.995 0.83209 1.77019 0
M  V30 8824 O 817.201 1.0257 2.51379 0
M  V30 8825 C 815.657 3.33637 1.3496 0
M  V30 8826 C 815.265 4.46659 0.346352 0
M  V30 8827 C 817.009 3.73266 2.02169 0
M  V30 8828 C 814.916 5.8333 0.973652 0
M  V30 8829 H 813.846 0.701496 0.276442 0
M  V30 8830 H 816.497 1.83493 -0.0158028 0
M  V30 8831 H 814.879 3.32882 2.1449 0
M  V30 8832 H 816.053 4.58868 -0.421558 0
M  V30 8833 H 814.368 4.15802 -0.223133 0
M  V30 8834 H 816.965 4.72689 2.49938 0
M  V30 8835 H 817.308 3.04776 2.8358 0
M  V30 8836 H 817.841 3.76156 1.29427 0
M  V30 8837 H 814.58 6.55197 0.199163 0
M  V30 8838 H 814.1 5.7486 1.71162 0
M  V30 8839 H 815.779 6.29757 1.48376 0
M  V30 8840 N 815.911 -0.310526 1.54511 0
M  V30 8841 C 817.158 -1.04691 1.73338 0
M  V30 8842 C 817.486 -1.87584 0.514038 0
M  V30 8843 O 816.741 -1.89096 -0.504119 0
M  V30 8844 C 817.04 -1.98942 2.96912 0
M  V30 8845 C 816.706 -1.321 4.31115 0
M  V30 8846 C 815.368 -1.13603 4.67598 0
M  V30 8847 C 817.72 -0.842362 5.14348 0
M  V30 8848 C 815.048 -0.459102 5.84901 0
M  V30 8849 C 817.4 -0.179202 6.32346 0
M  V30 8850 C 816.064 0.0178111 6.67498 0
M  V30 8851 H 815.334 -0.38309 0.634289 0
M  V30 8852 H 817.981 -0.322723 1.88761 0
M  V30 8853 H 816.286 -2.77856 2.76231 0
M  V30 8854 H 817.983 -2.55972 3.08674 0
M  V30 8855 H 814.573 -1.47502 4.02419 0
M  V30 8856 H 818.757 -0.973013 4.86668 0
M  V30 8857 H 814.013 -0.295385 6.10686 0
M  V30 8858 H 818.187 0.199619 6.96114 0
M  V30 8859 H 815.814 0.544356 7.58249 0
M  V30 8860 N 817.389 -1.46805 -0.573248 0
M  V30 8861 C 818.299 -1.60687 -1.70929 0
M  V30 8862 C 819.315 -0.490084 -1.66956 0
M  V30 8863 O 820.491 -0.755482 -1.86693 0
M  V30 8864 C 817.556 -1.60259 -3.07438 0
M  V30 8865 C 816.617 -2.83242 -3.22603 0
M  V30 8866 C 815.85 -2.82825 -4.52599 0
M  V30 8867 O 816.073 -1.92113 -5.37074 0
M  V30 8868 O 815.007 -3.74489 -4.71213 0
M  V30 8869 H 818.833 -2.56782 -1.62163 0
M  V30 8870 H 816.418 -1.29706 -0.741399 0
M  V30 8871 H 818.3 -1.6275 -3.88704 0
M  V30 8872 H 816.975 -0.673268 -3.16621 0
M  V30 8873 H 815.882 -2.86302 -2.40794 0
M  V30 8874 H 817.215 -3.75415 -3.18315 0
M  V30 8875 N 818.867 0.818669 -1.34668 0
M  V30 8876 C 820.113 1.57746 -1.27453 0
M  V30 8877 C 820.446 1.93588 0.154077 0
M  V30 8878 O 819.721 1.60371 1.10051 0
M  V30 8879 C 820.004 2.87414 -2.16945 0
M  V30 8880 C 819.857 2.58125 -3.68363 0
M  V30 8881 C 821.176 3.89021 -2.05792 0
M  V30 8882 H 818.295 0.572339 -0.464324 0
M  V30 8883 H 820.937 0.942784 -1.64959 0
M  V30 8884 H 819.087 3.41576 -1.85089 0
M  V30 8885 H 820.759 2.10239 -4.10606 0
M  V30 8886 H 819.002 1.91503 -3.89242 0
M  V30 8887 H 819.673 3.5061 -4.26353 0
M  V30 8888 H 822.149 3.44224 -2.33771 0
M  V30 8889 H 821.025 4.77548 -2.70628 0
M  V30 8890 H 821.286 4.29786 -1.03618 0
M  V30 8891 N 820.346 1.18468 1.03938 0
M  V30 8892 C 821.592 0.982286 1.77423 0
M  V30 8893 C 821.925 -0.48679 1.88 0
M  V30 8894 O 821.2 -1.36146 1.38905 0
M  V30 8895 C 821.483 1.63929 3.20623 0
M  V30 8896 C 821.336 3.18132 3.17982 0
M  V30 8897 C 822.655 1.3536 4.18767 0
M  V30 8898 H 819.774 0.358264 0.644062 0
M  V30 8899 H 822.416 1.46154 1.21405 0
M  V30 8900 H 820.566 1.2318 3.68455 0
M  V30 8901 H 822.238 3.68024 2.78129 0
M  V30 8902 H 820.481 3.50225 2.55978 0
M  V30 8903 H 821.152 3.5924 4.19107 0
M  V30 8904 H 823.628 1.70669 3.79488 0
M  V30 8905 H 822.504 1.83896 5.17178 0
M  V30 8906 H 822.765 0.276722 4.41233 0
M  V30 8907 N 821.824 -1.22873 0.986916 0
M  V30 8908 C 823.07 -1.92047 0.670042 0
M  V30 8909 C 823.425 -1.75497 -0.788587 0
M  V30 8910 O 822.718 -1.10934 -1.56218 0
M  V30 8911 C 822.912 -3.43014 1.00379 0
M  V30 8912 C 822.741 -3.74251 2.49332 0
M  V30 8913 C 821.511 -3.94589 3.15638 0
M  V30 8914 C 823.709 -3.79208 3.47428 0
M  V30 8915 N 821.691 -4.13086 4.54129 0
M  V30 8916 C 823.062 -4.02775 4.71352 0
M  V30 8917 C 825.117 -3.62029 3.41818 0
M  V30 8918 C 823.82 -4.10946 5.90352 0
M  V30 8919 C 825.846 -3.71457 4.60189 0
M  V30 8920 C 825.208 -3.95468 5.82911 0
M  V30 8921 H 821.307 -0.723668 0.29636 0
M  V30 8922 H 823.891 -1.47946 1.26571 0
M  V30 8923 H 822.062 -3.85936 0.436762 0
M  V30 8924 H 823.794 -3.99551 0.643522 0
M  V30 8925 H 820.549 -3.91762 2.66119 0
M  V30 8926 H 820.973 -4.26275 5.25945 0
M  V30 8927 H 825.615 -3.42457 2.47958 0
M  V30 8928 H 823.333 -4.29324 6.84621 0
M  V30 8929 H 826.919 -3.59511 4.57431 0
M  V30 8930 H 825.799 -4.02584 6.72975 0
M  V30 8931 N 823.302 -0.75937 -1.38099 0
M  V30 8932 C 824.265 -0.14372 -2.28749 0
M  V30 8933 C 825.265 0.641338 -1.47457 0
M  V30 8934 O 826.455 0.466751 -1.67831 0
M  V30 8935 C 823.587 0.804545 -3.3127 0
M  V30 8936 H 824.78 -0.942663 -2.847 0
M  V30 8937 H 822.333 -0.526757 -1.47156 0
M  V30 8938 H 823.068 1.62895 -2.80421 0
M  V30 8939 H 822.853 0.243939 -3.9134 0
M  V30 8940 H 824.343 1.23111 -3.99041 0
M  V30 8941 N 824.78 1.49157 -0.508906 0
M  V30 8942 C 826.029 2.0167 0.0346854 0
M  V30 8943 C 826.342 1.39302 1.37311 0
M  V30 8944 O 827.548 1.83189 2.00385 0
M  V30 8945 C 826.004 3.59725 0.112261 0
M  V30 8946 C 825.612 4.31069 -1.21999 0
M  V30 8947 C 827.356 4.20155 0.605798 0
M  V30 8948 C 825.263 5.81001 -1.10415 0
M  V30 8949 H 824.193 0.753814 0.0167355 0
M  V30 8950 H 826.844 1.7162 -0.649518 0
M  V30 8951 H 825.226 3.86525 0.861087 0
M  V30 8952 H 826.4 4.15962 -1.98273 0
M  V30 8953 H 824.715 3.82418 -1.64759 0
M  V30 8954 H 827.312 5.29964 0.710102 0
M  V30 8955 H 827.655 3.84051 1.60656 0
M  V30 8956 H 828.188 3.97705 -0.0867239 0
M  V30 8957 H 824.927 6.21643 -2.07941 0
M  V30 8958 H 824.447 5.9858 -0.382428 0
M  V30 8959 H 826.126 6.42207 -0.786116 0
M  V30 8960 N 826.258 0.243083 1.55714 0
M  V30 8961 C 827.505 -0.38272 1.9885 0
M  V30 8962 C 827.833 -1.58225 1.13115 0
M  V30 8963 O 827.088 -1.94861 0.181067 0
M  V30 8964 C 827.387 -0.839621 3.47398 0
M  V30 8965 C 827.053 0.251737 4.50197 0
M  V30 8966 C 825.715 0.551487 4.78029 0
M  V30 8967 C 828.067 0.988728 5.11736 0
M  V30 8968 C 825.395 1.59237 5.64677 0
M  V30 8969 C 827.747 2.0191 5.99512 0
M  V30 8970 C 826.411 2.32554 6.2568 0
M  V30 8971 H 825.681 -0.140047 0.727645 0
M  V30 8972 H 828.328 0.35011 1.88272 0
M  V30 8973 H 826.633 -1.65159 3.55288 0
M  V30 8974 H 828.33 -1.33404 3.78159 0
M  V30 8975 H 824.92 0.00796741 4.28599 0
M  V30 8976 H 829.104 0.7704 4.90284 0
M  V30 8977 H 824.36 1.83517 5.83208 0
M  V30 8978 H 828.534 2.59511 6.46241 0
M  V30 8979 H 826.161 3.13349 6.92616 0
M  V30 8980 N 827.736 -1.57571 -0.0300757 0
M  V30 8981 C 829.152 -1.54869 -0.385703 0
M  V30 8982 C 829.352 -0.969068 -1.76667 0
M  V30 8983 O 828.408 -0.589676 -2.45518 0
M  V30 8984 C 829.721 -2.99313 -0.288482 0
M  V30 8985 C 831.269 -3.10857 -0.365638 0
M  V30 8986 C 831.744 -4.5703 -0.297878 0
M  V30 8987 N 833.235 -4.61825 -0.356703 0
M  V30 8988 C 833.97 -5.72466 -0.327146 0
M  V30 8989 N 833.466 -6.92349 -0.249941 0
M  V30 8990 N 835.259 -5.60836 -0.376801 0
M  V30 8991 H 827.41 -1.936 0.87367 0
M  V30 8992 H 829.673 -0.887924 0.332106 0
M  V30 8993 H 829.379 -3.45443 0.66047 0
M  V30 8994 H 829.253 -3.61332 -1.08253 0
M  V30 8995 H 831.64 -2.64676 -1.30502 0
M  V30 8996 H 831.721 -2.51671 0.457744 0
M  V30 8997 H 831.365 -5.03879 0.637835 0
M  V30 8998 H 831.295 -5.14127 -1.13935 0
M  V30 8999 H 833.786 -3.75571 -0.418926 0
M  V30 9000 H 834.099 -7.7245 -0.23246 0
M  V30 9001 H 832.444 -6.94664 -0.216004 0
M  V30 9002 H 835.635 -4.66073 -0.435101 0
M  V30 9003 H 835.808 -6.47052 -0.350298 0
M  V30 9004 N 829.214 0.302327 -1.54673 0
M  V30 9005 C 830.625 0.875409 -1.64904 0
M  V30 9006 C 830.976 1.88132 -0.55684 0
M  V30 9007 O 830.101 2.14215 0.306754 0
M  V30 9008 C 830.696 1.59457 -2.9893 0
M  V30 9009 C 829.255 2.11607 -3.11287 0
M  V30 9010 C 828.402 0.948324 -2.6058 0
M  V30 9011 H 831.353 0.079362 -1.58501 0
M  V30 9012 H 831.374 2.46005 -2.90279 0
M  V30 9013 H 830.886 0.8622 -3.78402 0
M  V30 9014 H 828.987 2.87895 -2.36532 0
M  V30 9015 H 829.1 2.35151 -4.17422 0
M  V30 9016 H 827.464 1.33352 -2.17001 0
M  V30 9017 H 828.247 0.229936 -3.42529 0
M  V30 9018 N 830.692 1.47107 0.565454 0
M  V30 9019 C 831.94 1.53005 1.32038 0
M  V30 9020 C 832.261 0.190453 1.94068 0
M  V30 9021 O 831.531 -0.784783 1.79494 0
M  V30 9022 H 830.111 0.563578 0.490294 0
M  V30 9023 H 832.773 1.83351 0.660928 0
M  V30 9024 H 831.869 2.29215 2.11818 0
M  V30 9025 N 832.17 -0.811516 1.35101 0
M  V30 9026 C 833.398 -1.59981 1.31201 0
M  V30 9027 C 833.813 -1.8847 -0.111552 0
M  V30 9028 O 833.17 -1.48414 -1.06205 0
M  V30 9029 C 833.221 -2.934 2.11184 0
M  V30 9030 O 832.942 -2.66148 3.4799 0
M  V30 9031 C 834.443 -3.87776 2.14813 0
M  V30 9032 H 831.663 -0.496921 0.450899 0
M  V30 9033 H 834.207 -1.00886 1.77883 0
M  V30 9034 H 832.362 -3.49022 1.68115 0
M  V30 9035 H 832.776 -3.51301 3.89471 0
M  V30 9036 H 834.25 -4.7852 2.75178 0
M  V30 9037 H 834.727 -4.23997 1.14556 0
M  V30 9038 H 835.333 -3.3809 2.58022 0
M  V30 9039 N 833.648 -1.19017 -1.03309 0
M  V30 9040 C 834.873 -1.01598 -1.80811 0
M  V30 9041 C 835.298 0.430773 -1.83101 0
M  V30 9042 O 834.656 1.30946 -1.25391 0
M  V30 9043 C 834.704 -1.5845 -3.23923 0
M  V30 9044 O 833.808 -0.810972 -4.04348 0
M  V30 9045 H 833.149 -0.359398 -0.558327 0
M  V30 9046 H 835.679 -1.57945 -1.30055 0
M  V30 9047 H 835.689 -1.61486 -3.74682 0
M  V30 9048 H 834.364 -2.63752 -3.21571 0
M  V30 9049 H 832.941 -0.85353 -3.63 0
M  V30 9050 N 835.127 1.22348 -0.993418 0
M  V30 9051 C 836.374 1.9111 -0.669568 0
M  V30 9052 C 836.702 1.77357 0.79843 0
M  V30 9053 O 835.957 1.13675 1.593 0
M  V30 9054 C 836.256 3.42477 -1.02197 0
M  V30 9055 C 835.922 3.7642 -2.48232 0
M  V30 9056 C 834.584 3.85395 -2.88139 0
M  V30 9057 C 836.936 3.9253 -3.42884 0
M  V30 9058 C 834.264 4.07918 -4.21687 0
M  V30 9059 C 836.616 4.16557 -4.76091 0
M  V30 9060 C 835.28 4.23757 -5.15739 0
M  V30 9061 H 834.55 0.699321 -0.245012 0
M  V30 9062 H 837.197 1.45102 -1.2497 0
M  V30 9063 H 835.502 3.90143 -0.359921 0
M  V30 9064 H 837.199 3.93935 -0.74942 0
M  V30 9065 H 833.789 3.70017 -2.16299 0
M  V30 9066 H 837.973 3.84974 -3.13224 0
M  V30 9067 H 833.229 4.11719 -4.51993 0
M  V30 9068 H 837.403 4.27966 -5.4938 0
M  V30 9069 H 835.03 4.40962 -6.19239 0
M  V30 9070 N 836.605 0.766683 1.37694 0
M  V30 9071 C 837.853 0.328065 1.9942 0
M  V30 9072 C 838.174 -1.09775 1.61166 0
M  V30 9073 O 837.444 -1.75288 0.874686 0
M  V30 9074 H 836.024 0.11831 0.737572 0
M  V30 9075 H 838.686 0.983686 1.68255 0
M  V30 9076 H 837.782 0.401647 3.09505 0
M  V30 9077 N 838.083 -1.48885 0.516809 0
M  V30 9078 C 839.332 -2.01686 -0.0239899 0
M  V30 9079 C 839.645 -1.40029 -1.3657 0
M  V30 9080 O 840.851 -1.84249 -1.9941 0
M  V30 9081 C 839.307 -3.59779 -0.0931825 0
M  V30 9082 C 838.915 -4.30416 1.24283 0
M  V30 9083 C 840.659 -4.20471 -0.583507 0
M  V30 9084 C 838.566 -5.80408 1.13494 0
M  V30 9085 H 837.496 -0.753892 -0.0127376 0
M  V30 9086 H 840.147 -1.71273 0.65861 0
M  V30 9087 H 838.529 -3.86976 -0.840577 0
M  V30 9088 H 839.703 -4.14905 2.00476 0
M  V30 9089 H 838.018 -3.81539 1.66785 0
M  V30 9090 H 840.615 -5.30333 -0.681987 0
M  V30 9091 H 840.958 -3.84898 -1.58617 0
M  V30 9092 H 841.491 -3.97654 0.107814 0
M  V30 9093 H 838.23 -6.20532 2.11235 0
M  V30 9094 H 837.75 -5.98368 0.414167 0
M  V30 9095 H 839.429 -6.41781 0.820162 0
M  V30 9096 N 839.561 -0.251338 -1.55583 0
M  V30 9097 C 840.786 0.379136 -2.03905 0
M  V30 9098 C 841.211 1.50428 -1.12929 0
M  V30 9099 O 840.569 1.80882 -0.123114 0
M  V30 9100 C 840.617 0.86009 -3.50193 0
M  V30 9101 O 839.721 1.96932 -3.62342 0
M  V30 9102 H 839.062 0.0820183 -0.658915 0
M  V30 9103 H 841.592 -0.378692 -2.01065 0
M  V30 9104 H 841.602 1.16214 -3.91099 0
M  V30 9105 H 840.277 0.0367559 -4.15884 0
M  V30 9106 H 838.854 1.67163 -3.33333 0
M  V30 9107 N 841.039 1.57585 0.0217189 0
M  V30 9108 C 842.285 1.89887 0.712099 0
M  V30 9109 C 842.618 0.849971 1.74611 0
M  V30 9110 O 841.893 -0.13407 1.94037 0
M  V30 9111 C 842.176 3.32815 1.37499 0
M  V30 9112 C 842.029 4.48405 0.353993 0
M  V30 9113 C 843.348 3.74786 2.30703 0
M  V30 9114 H 840.467 0.690588 0.257405 0
M  V30 9115 H 843.109 1.89983 -0.0251145 0
M  V30 9116 H 841.259 3.32863 2.00335 0
M  V30 9117 H 842.931 4.60491 -0.273015 0
M  V30 9118 H 841.174 4.32573 -0.32599 0
M  V30 9119 H 841.845 5.45316 0.85644 0
M  V30 9120 H 844.321 3.76151 1.77904 0
M  V30 9121 H 843.197 4.75585 2.74061 0
M  V30 9122 H 843.458 3.07449 3.17691 0
M  V30 9123 N 842.517 -0.29412 1.54831 0
M  V30 9124 C 843.447 -1.36757 1.89261 0
M  V30 9125 C 844.428 -1.52564 0.752214 0
M  V30 9126 O 845.613 -1.65958 1.00855 0
M  V30 9127 C 842.743 -2.73066 2.14597 0
M  V30 9128 C 841.697 -2.72017 3.3044 0
M  V30 9129 C 841.023 -4.11679 3.4121 0
M  V30 9130 C 842.323 -2.33149 4.67375 0
M  V30 9131 H 844.017 -1.08191 2.79169 0
M  V30 9132 H 841.563 -0.519014 1.34321 0
M  V30 9133 H 843.516 -3.48255 2.37269 0
M  V30 9134 H 842.24 -3.03172 1.21467 0
M  V30 9135 H 840.899 -1.99285 3.07703 0
M  V30 9136 H 840.547 -4.38973 2.45584 0
M  V30 9137 H 840.247 -4.11877 4.19084 0
M  V30 9138 H 841.771 -4.88637 3.6615 0
M  V30 9139 H 843.185 -2.98054 4.89731 0
M  V30 9140 H 841.582 -2.44546 5.48012 0
M  V30 9141 H 842.652 -1.28275 4.67626 0
M  V30 9142 N 843.995 -1.47404 -0.557645 0
M  V30 9143 C 845.411 -1.32913 -0.88353 0
M  V30 9144 C 845.611 -0.31929 -1.98954 0
M  V30 9145 O 844.667 0.26934 -2.51059 0
M  V30 9146 C 845.98 -2.72229 -1.27718 0
M  V30 9147 C 847.528 -2.8051 -1.38863 0
M  V30 9148 C 848.003 -4.20466 -1.81583 0
M  V30 9149 N 849.494 -4.23005 -1.88735 0
M  V30 9150 C 850.229 -5.2821 -2.23118 0
M  V30 9151 N 849.725 -6.4372 -2.56117 0
M  V30 9152 N 851.518 -5.15588 -2.23888 0
M  V30 9153 H 843.669 -2.11698 0.172557 0
M  V30 9154 H 845.932 -0.947889 0.0145334 0
M  V30 9155 H 845.638 -3.47556 -0.538329 0
M  V30 9156 H 845.512 -3.03971 -2.23342 0
M  V30 9157 H 847.899 -2.05457 -2.11829 0
M  V30 9158 H 847.98 -2.52423 -0.414274 0
M  V30 9159 H 847.624 -4.96025 -1.09187 0
M  V30 9160 H 847.554 -4.45977 -2.80021 0
M  V30 9161 H 850.045 -3.39674 -1.65621 0
M  V30 9162 H 850.358 -7.19754 -2.81378 0
M  V30 9163 H 848.703 -6.47041 -2.53698 0
M  V30 9164 H 851.894 -4.24374 -1.97546 0
M  V30 9165 H 852.067 -5.97685 -2.50353 0
M  V30 9166 N 845.473 0.80434 -1.35529 0
M  V30 9167 C 846.436 1.89788 -1.28503 0
M  V30 9168 C 847.436 1.59601 -0.195983 0
M  V30 9169 O 848.626 1.68292 -0.449827 0
M  V30 9170 C 845.758 3.26255 -0.98847 0
M  V30 9171 H 846.951 1.97436 -2.25741 0
M  V30 9172 H 844.504 1.00046 -1.20086 0
M  V30 9173 H 845.239 3.24294 -0.0200541 0
M  V30 9174 H 845.024 3.49551 -1.77641 0
M  V30 9175 H 846.514 4.06298 -0.964975 0
M  V30 9176 N 846.951 1.19563 1.02676 0
M  V30 9177 C 847.881 0.959024 2.12897 0
M  V30 9178 C 848.862 -0.108382 1.69754 0
M  V30 9179 O 850.047 0.0470698 1.94143 0
M  V30 9180 C 847.177 0.499211 3.43693 0
M  V30 9181 C 846.131 1.5087 4.00528 0
M  V30 9182 C 845.457 0.905884 5.2697 0
M  V30 9183 C 846.757 2.88954 4.3509 0
M  V30 9184 H 848.451 1.88084 2.32948 0
M  V30 9185 H 845.997 0.905731 1.11949 0
M  V30 9186 H 847.95 0.320965 4.20176 0
M  V30 9187 H 846.674 -0.458205 3.2337 0
M  V30 9188 H 845.333 1.67413 3.26142 0
M  V30 9189 H 844.981 -0.0591506 5.02965 0
M  V30 9190 H 844.681 1.58 5.65959 0
M  V30 9191 H 846.205 0.73848 6.06118 0
M  V30 9192 H 847.619 2.75981 5.02501 0
M  V30 9193 H 846.016 3.53177 4.85166 0
M  V30 9194 H 847.086 3.41447 3.44299 0
M  V30 9195 N 848.429 -1.21819 0.999893 0
M  V30 9196 C 849.845 -1.42847 0.711824 0
M  V30 9197 C 850.045 -1.88391 -0.714928 0
M  V30 9198 O 849.101 -2.0422 -1.48494 0
M  V30 9199 C 850.414 -2.46417 1.72334 0
M  V30 9200 C 851.962 -2.60207 1.73958 0
M  V30 9201 C 852.437 -3.67005 2.73992 0
M  V30 9202 N 853.928 -3.7447 2.72628 0
M  V30 9203 C 854.663 -4.56718 3.46693 0
M  V30 9204 N 854.159 -5.42904 4.3038 0
M  V30 9205 N 855.952 -4.51094 3.35366 0
M  V30 9206 H 848.103 -0.905656 1.92124 0
M  V30 9207 H 850.366 -0.459893 0.828977 0
M  V30 9208 H 850.072 -2.19914 2.74465 0
M  V30 9209 H 849.946 -3.45137 1.52186 0
M  V30 9210 H 852.333 -2.8605 0.725217 0
M  V30 9211 H 852.414 -1.61739 1.98177 0
M  V30 9212 H 852.058 -3.41908 3.75582 0
M  V30 9213 H 851.988 -4.65058 2.4704 0
M  V30 9214 H 854.479 -3.12895 2.11909 0
M  V30 9215 H 854.792 -6.02704 4.83702 0
M  V30 9216 H 853.137 -5.42463 4.34464 0
M  V30 9217 H 856.328 -3.82791 2.69423 0
M  V30 9218 H 856.501 -5.1496 3.93344 0
M  V30 9219 N 849.908 -0.773975 -1.37286 0
M  V30 9220 C 850.838 -0.175782 -2.32837 0
M  V30 9221 C 851.819 0.680603 -1.5589 0
M  V30 9222 O 853.004 0.617607 -1.84117 0
M  V30 9223 C 850.134 0.702388 -3.40123 0
M  V30 9224 C 849.088 -0.0528687 -4.27967 0
M  V30 9225 C 848.414 0.944891 -5.26285 0
M  V30 9226 C 849.714 -1.23316 -5.07534 0
M  V30 9227 H 851.408 -0.974016 -2.83114 0
M  V30 9228 H 848.954 -0.469826 -1.3612 0
M  V30 9229 H 850.907 1.13069 -4.05947 0
M  V30 9230 H 849.631 1.53316 -2.88378 0
M  V30 9231 H 848.29 -0.461978 -3.63678 0
M  V30 9232 H 847.938 1.77028 -4.70819 0
M  V30 9233 H 847.638 0.444079 -5.8592 0
M  V30 9234 H 849.162 1.37209 -5.94984 0
M  V30 9235 H 850.576 -0.881395 -5.66484 0
M  V30 9236 H 848.973 -1.66621 -5.76504 0
M  V30 9237 H 850.043 -2.03617 -4.40077 0
M  V30 9238 N 851.386 1.48609 -0.524698 0
M  V30 9239 C 852.316 2.32366 0.229837 0
M  V30 9240 C 853.297 1.41759 0.940129 0
M  V30 9241 O 854.482 1.7065 0.926936 0
M  V30 9242 C 851.612 3.22835 1.28043 0
M  V30 9243 C 850.566 4.22424 0.688603 0
M  V30 9244 C 849.892 5.0199 1.84146 0
M  V30 9245 C 851.192 5.21217 -0.336176 0
M  V30 9246 H 852.886 2.95698 -0.469339 0
M  V30 9247 H 850.432 1.42197 -0.227156 0
M  V30 9248 H 852.385 3.80253 1.8162 0
M  V30 9249 H 851.109 2.57492 2.00912 0
M  V30 9250 H 849.768 3.66185 0.174402 0
M  V30 9251 H 849.416 4.33076 2.5584 0
M  V30 9252 H 849.116 5.69392 1.45142 0
M  V30 9253 H 850.64 5.62259 2.38111 0
M  V30 9254 H 852.054 5.7319 0.112307 0
M  V30 9255 H 850.451 5.96642 -0.643324 0
M  V30 9256 H 851.521 4.68676 -1.24381 0
M  V30 9257 N 852.864 0.259585 1.55447 0
M  V30 9258 C 854.28 -0.094961 1.59317 0
M  V30 9259 C 854.48 -1.55884 1.2768 0
M  V30 9260 O 853.536 -2.30528 1.0302 0
M  V30 9261 C 854.849 0.265669 2.99524 0
M  V30 9262 C 856.397 0.211007 3.12288 0
M  V30 9263 C 856.872 0.545851 4.54736 0
M  V30 9264 N 858.363 0.496823 4.60528 0
M  V30 9265 C 859.098 0.728909 5.68748 0
M  V30 9266 N 858.594 1.02479 6.85179 0
M  V30 9267 N 860.387 0.658756 5.58226 0
M  V30 9268 H 852.538 1.2141 1.7428 0
M  V30 9269 H 854.801 0.489404 0.811904 0
M  V30 9270 H 854.507 1.28316 3.27457 0
M  V30 9271 H 854.381 -0.401089 3.75061 0
M  V30 9272 H 856.768 -0.797172 2.84129 0
M  V30 9273 H 856.849 0.911799 2.38998 0
M  V30 9274 H 856.493 1.55164 4.83618 0
M  V30 9275 H 856.423 -0.17656 5.26304 0
M  V30 9276 H 858.914 0.277376 3.76881 0
M  V30 9277 H 859.227 1.18897 7.63599 0
M  V30 9278 H 857.572 1.0624 6.86832 0
M  V30 9279 H 860.763 0.427553 4.66143 0
M  V30 9280 H 860.936 0.84302 6.42493 0
M  V30 9281 N 854.342 -1.57594 -0.0133615 0
M  V30 9282 C 855.591 -1.8916 -0.700103 0
M  V30 9283 C 855.904 -0.860147 -1.75673 0
M  V30 9284 O 857.11 -1.06556 -2.49716 0
M  V30 9285 C 855.566 -3.35742 -1.29635 0
M  V30 9286 C 855.174 -4.47154 -0.275249 0
M  V30 9287 C 856.918 -3.76436 -1.96205 0
M  V30 9288 C 854.825 -5.84805 -0.880726 0
M  V30 9289 H 853.755 -0.705805 -0.265247 0
M  V30 9290 H 856.406 -1.83445 0.044993 0
M  V30 9291 H 854.788 -3.36252 -2.09167 0
M  V30 9292 H 855.962 -4.58139 0.494506 0
M  V30 9293 H 854.277 -4.15394 0.289256 0
M  V30 9294 H 856.874 -4.76606 -2.42386 0
M  V30 9295 H 857.217 -3.09249 -2.78695 0
M  V30 9296 H 857.75 -3.78168 -1.23426 0
M  V30 9297 H 854.489 -6.55431 -0.0949013 0
M  V30 9298 H 854.009 -5.7751 -1.61995 0
M  V30 9299 H 855.688 -6.32038 -1.38338 0
M  V30 9300 N 855.82 0.285905 -1.54985 0
M  V30 9301 C 857.067 1.0192 -1.74982 0
M  V30 9302 C 857.395 1.86743 -0.543816 0
M  V30 9303 O 856.65 1.89874 0.473972 0
M  V30 9304 C 856.949 1.94193 -3.0004 0
M  V30 9305 C 856.615 1.25225 -4.33162 0
M  V30 9306 C 855.277 1.06149 -4.69346 0
M  V30 9307 C 857.629 0.760427 -5.15623 0
M  V30 9308 C 854.957 0.365991 -5.85557 0
M  V30 9309 C 857.309 0.0785787 -6.32551 0
M  V30 9310 C 855.973 -0.124002 -6.67385 0
M  V30 9311 H 855.243 0.372951 -0.640304 0
M  V30 9312 H 857.89 0.292652 -1.89251 0
M  V30 9313 H 856.195 2.73426 -2.80616 0
M  V30 9314 H 857.892 2.51029 -3.12707 0
M  V30 9315 H 854.482 1.41081 -4.04715 0
M  V30 9316 H 858.666 0.895466 -4.88155 0
M  V30 9317 H 853.922 0.198193 -6.11079 0
M  V30 9318 H 858.096 -0.310339 -6.95708 0
M  V30 9319 H 855.723 -0.664918 -7.57287 0
M  V30 9320 N 857.298 1.47698 0.54982 0
M  V30 9321 C 858.245 1.60739 1.65625 0
M  V30 9322 C 859.215 0.450129 1.59884 0
M  V30 9323 O 860.4 0.671123 1.78607 0
M  V30 9324 C 857.54 1.63457 3.03934 0
M  V30 9325 C 856.653 2.90152 3.20056 0
M  V30 9326 C 855.788 2.84157 4.48807 0
M  V30 9327 C 854.827 4.05644 4.58387 0
M  V30 9328 N 853.964 3.97843 5.78503 0
M  V30 9329 H 858.804 2.55234 1.53817 0
M  V30 9330 H 856.341 1.26593 0.749173 0
M  V30 9331 H 858.299 1.63015 3.84034 0
M  V30 9332 H 856.929 0.724689 3.1456 0
M  V30 9333 H 855.981 3.00428 2.33339 0
M  V30 9334 H 857.293 3.80097 3.22998 0
M  V30 9335 H 856.447 2.82006 5.37175 0
M  V30 9336 H 855.186 1.91908 4.48356 0
M  V30 9337 H 854.191 4.08092 3.6843 0
M  V30 9338 H 855.416 4.9903 4.60593 0
M  V30 9339 H 853.362 3.08401 5.78986 0
M  V30 9340 H 853.279 4.81473 5.82855 0
M  V30 9341 H 854.547 3.99719 6.69212 0
M  V30 9342 N 858.776 -0.797141 1.35954 0
M  V30 9343 C 860.025 -1.54983 1.29086 0
M  V30 9344 C 860.338 -1.95167 -0.130003 0
M  V30 9345 O 861.544 -2.69596 -0.32101 0
M  V30 9346 C 860 -2.79738 2.26439 0
M  V30 9347 C 859.608 -2.46753 3.73921 0
M  V30 9348 C 861.352 -3.57733 2.28533 0
M  V30 9349 C 859.259 -3.67858 4.63071 0
M  V30 9350 H 858.189 -0.581766 0.479651 0
M  V30 9351 H 860.84 -0.87541 1.61273 0
M  V30 9352 H 859.222 -3.48939 1.87236 0
M  V30 9353 H 860.396 -1.85499 4.21814 0
M  V30 9354 H 858.711 -1.81985 3.74527 0
M  V30 9355 H 861.308 -4.47699 2.92351 0
M  V30 9356 H 861.651 -3.95754 1.29169 0
M  V30 9357 H 862.184 -2.95504 2.66313 0
M  V30 9358 H 858.923 -3.34939 5.63468 0
M  V30 9359 H 858.443 -4.28305 4.19898 0
M  V30 9360 H 860.122 -4.34977 4.78961 0
M  V30 9361 N 860.254 -1.20106 -1.0204 0
M  V30 9362 C 861.482 -1.0344 -1.79186 0
M  V30 9363 C 861.897 0.416542 -1.84148 0
M  V30 9364 O 861.254 1.28925 -1.29168 0
M  V30 9365 C 861.305 -1.60663 -3.23836 0
M  V30 9366 O 861.026 -3.00079 -3.19193 0
M  V30 9367 C 862.527 -1.48897 -4.17546 0
M  V30 9368 H 859.747 -0.364093 -0.563629 0
M  V30 9369 H 862.291 -1.5911 -1.28469 0
M  V30 9370 H 860.446 -1.09122 -3.71714 0
M  V30 9371 H 860.86 -3.27162 -4.09958 0
M  V30 9372 H 862.334 -1.93703 -5.16898 0
M  V30 9373 H 862.811 -0.440843 -4.36982 0
M  V30 9374 H 863.417 -1.9961 -3.75547 0
M  V30 9375 N 861.732 1.21287 -1.00634 0
M  V30 9376 C 862.679 2.23705 -0.567876 0
M  V30 9377 C 863.649 1.61043 0.406753 0
M  V30 9378 O 864.834 1.88289 0.308499 0
M  V30 9379 C 861.974 3.44961 0.097996 0
M  V30 9380 C 861.087 4.22091 -0.919972 0
M  V30 9381 C 860.222 5.30718 -0.226222 0
M  V30 9382 C 859.261 5.99581 -1.23165 0
M  V30 9383 N 858.398 6.99821 -0.565278 0
M  V30 9384 H 863.238 2.60571 -1.44592 0
M  V30 9385 H 860.775 1.28049 -0.724006 0
M  V30 9386 H 862.733 4.1418 0.501097 0
M  V30 9387 H 861.363 3.08818 0.939744 0
M  V30 9388 H 860.415 3.52038 -1.44131 0
M  V30 9389 H 861.727 4.69476 -1.68505 0
M  V30 9390 H 860.881 6.06253 0.232917 0
M  V30 9391 H 859.62 4.84343 0.571247 0
M  V30 9392 H 858.625 5.22816 -1.70128 0
M  V30 9393 H 859.85 6.48042 -2.03022 0
M  V30 9394 H 857.796 6.55656 0.212508 0
M  V30 9395 H 857.713 7.4528 -1.26858 0
M  V30 9396 H 858.981 7.79393 -0.129389 0
M  V30 9397 N 863.21 0.781244 1.36873 0
M  V30 9398 C 864.44 0.361042 2.03421 0
M  V30 9399 C 864.848 -1.02471 1.59048 0
M  V30 9400 O 864.191 -1.66712 0.771552 0
M  V30 9401 C 864.253 0.336202 3.57924 0
M  V30 9402 C 863.917 1.66815 4.25467 0
M  V30 9403 C 864.914 2.62224 4.48926 0
M  V30 9404 C 862.599 1.9452 4.63106 0
M  V30 9405 C 864.593 3.83538 5.09095 0
M  V30 9406 C 862.28 3.16103 5.22994 0
M  V30 9407 C 863.278 4.10431 5.45926 0
M  V30 9408 O 862.966 5.29871 6.04559 0
M  V30 9409 H 862.698 0.147956 0.65961 0
M  V30 9410 H 865.252 1.05895 1.75998 0
M  V30 9411 H 863.482 -0.418147 3.84433 0
M  V30 9412 H 865.171 -0.0582199 4.05858 0
M  V30 9413 H 865.937 2.42104 4.20251 0
M  V30 9414 H 861.816 1.21921 4.44585 0
M  V30 9415 H 865.36 4.57178 5.2691 0
M  V30 9416 H 861.257 3.36104 5.51094 0
M  V30 9417 H 862.025 5.30825 6.23031 0
M  V30 9418 N 864.689 -1.48329 0.532571 0
M  V30 9419 C 865.935 -2.03399 0.00755104 0
M  V30 9420 C 866.29 -1.40213 -1.3175 0
M  V30 9421 O 865.583 -0.539633 -1.83844 0
M  V30 9422 C 865.777 -3.57 -0.168943 0
M  V30 9423 C 865.606 -4.35077 1.13745 0
M  V30 9424 C 864.376 -4.75915 1.69803 0
M  V30 9425 C 866.574 -4.71734 2.04869 0
M  V30 9426 N 864.556 -5.38538 2.94703 0
M  V30 9427 C 865.927 -5.34403 3.14346 0
M  V30 9428 C 867.982 -4.53665 2.05164 0
M  V30 9429 C 866.685 -5.80912 4.24186 0
M  V30 9430 C 868.711 -5.01157 3.13999 0
M  V30 9431 C 868.073 -5.63853 4.22195 0
M  V30 9432 H 864.172 -0.780743 0.0443253 0
M  V30 9433 H 866.756 -1.81119 0.714423 0
M  V30 9434 H 864.927 -3.79099 -0.844903 0
M  V30 9435 H 866.659 -3.98708 -0.693804 0
M  V30 9436 H 863.414 -4.57103 1.23909 0
M  V30 9437 H 863.838 -5.74413 3.583 0
M  V30 9438 H 868.48 -4.04571 1.22808 0
M  V30 9439 H 866.198 -6.2901 5.07318 0
M  V30 9440 H 869.784 -4.88965 3.15285 0
M  V30 9441 H 868.664 -5.99935 5.05023 0
M  V30 9442 N 866.167 -0.267825 -1.55308 0
M  V30 9443 C 867.13 0.60965 -2.20943 0
M  V30 9444 C 868.13 1.0869 -1.18504 0
M  V30 9445 O 869.32 0.988248 -1.43455 0
M  V30 9446 C 866.452 1.84027 -2.86961 0
M  V30 9447 H 867.645 0.0366806 -2.99878 0
M  V30 9448 H 865.198 -0.0183941 -1.56289 0
M  V30 9449 H 865.933 2.45394 -2.1202 0
M  V30 9450 H 865.718 1.50605 -3.62023 0
M  V30 9451 H 867.208 2.46442 -3.37129 0
M  V30 9452 N 867.645 1.57599 0.00500368 0
M  V30 9453 C 868.87 1.95026 0.705663 0
M  V30 9454 C 869.295 0.869643 1.6679 0
M  V30 9455 O 868.653 -0.172659 1.80476 0
M  V30 9456 C 868.701 3.31545 1.4181 0
M  V30 9457 O 867.805 3.25495 2.53232 0
M  V30 9458 H 867.146 0.636808 0.188074 0
M  V30 9459 H 869.676 2.04547 -0.046696 0
M  V30 9460 H 869.686 3.66996 1.78265 0
M  V30 9461 H 868.361 4.09751 0.712543 0
M  V30 9462 H 866.938 3.01714 2.19142 0
M  V30 9463 N 869.123 -0.277682 1.55134 0
M  V30 9464 C 870.053 -1.34742 1.90701 0
M  V30 9465 C 871.034 -1.51757 0.768354 0
M  V30 9466 O 872.219 -1.64879 1.02609 0
M  V30 9467 C 869.349 -2.70775 2.17481 0
M  V30 9468 C 868.303 -2.68497 3.33307 0
M  V30 9469 C 867.629 -4.08037 3.45557 0
M  V30 9470 C 868.929 -2.28178 4.69821 0
M  V30 9471 H 870.623 -1.05224 2.803 0
M  V30 9472 H 868.169 -0.504738 1.34864 0
M  V30 9473 H 870.122 -3.45719 2.40949 0
M  V30 9474 H 868.846 -3.01867 1.24676 0
M  V30 9475 H 867.505 -1.9601 3.09799 0
M  V30 9476 H 867.153 -4.36344 2.50226 0
M  V30 9477 H 866.853 -4.07409 4.23429 0
M  V30 9478 H 868.377 -4.84726 3.71312 0
M  V30 9479 H 869.791 -2.92843 4.92865 0
M  V30 9480 H 868.188 -2.3872 5.50575 0
M  V30 9481 H 869.258 -1.23308 4.6896 0
M  V30 9482 N 870.601 -1.47988 -0.541979 0
M  V30 9483 C 872.017 -1.33843 -0.869383 0
M  V30 9484 C 872.217 -0.340374 -1.98604 0
M  V30 9485 O 871.273 0.242696 -2.51331 0
M  V30 9486 C 872.586 -2.73568 -1.24823 0
M  V30 9487 C 874.134 -2.81967 -1.3588 0
M  V30 9488 C 874.609 -4.22368 -1.77114 0
M  V30 9489 N 876.1 -4.24983 -1.84237 0
M  V30 9490 C 876.835 -5.30547 -2.17503 0
M  V30 9491 N 876.331 -6.46401 -2.49275 0
M  V30 9492 N 878.124 -5.17933 -2.18406 0
M  V30 9493 H 870.275 -2.11503 0.195001 0
M  V30 9494 H 872.538 -0.947681 0.0245862 0
M  V30 9495 H 872.244 -3.48107 -0.501435 0
M  V30 9496 H 872.118 -3.06322 -2.20106 0
M  V30 9497 H 874.505 -2.07692 -2.09638 0
M  V30 9498 H 874.586 -2.52848 -0.387478 0
M  V30 9499 H 874.23 -4.97155 -1.0392 0
M  V30 9500 H 874.16 -4.48922 -2.75275 0
M  V30 9501 H 876.651 -3.41411 -1.62009 0
M  V30 9502 H 876.964 -7.22698 -2.73729 0
M  V30 9503 H 875.309 -6.49696 -2.46821 0
M  V30 9504 H 878.5 -4.26445 -1.93034 0
M  V30 9505 H 878.673 -6.00307 -2.44 0
M  V30 9506 N 872.079 0.78992 -1.36375 0
M  V30 9507 C 873.027 1.92394 -1.30719 0
M  V30 9508 C 874.021 1.68226 -0.199076 0
M  V30 9509 O 875.227 1.76239 -0.366051 0
M  V30 9510 H 871.602 0.632382 -0.406936 0
M  V30 9511 H 873.573 1.94282 -2.26488 0
M  V30 9512 C 872.322 3.2941 -1.11284 0
M  V30 9513 H 871.645 3.48573 -1.95798 0
M  V30 9514 H 873.085 4.09111 -1.11373 0
M  V30 9515 C 871.544 3.36405 0.182543 0
M  V30 9516 O 872.074 3.84206 1.17255 0
M  V30 9517 N 870.28 2.89712 0.227046 0
M  V30 9518 H 869.827 2.51004 -0.579217 0
M  V30 9519 H 869.785 2.94773 1.09344 0
M  V30 9520 N 873.557 1.20646 1.01402 0
M  V30 9521 C 874.487 0.98155 2.11867 0
M  V30 9522 C 875.468 -0.0903712 1.6986 0
M  V30 9523 O 876.653 0.0676586 1.94082 0
M  V30 9524 C 873.783 0.535636 3.43145 0
M  V30 9525 C 872.737 1.55109 3.98905 0
M  V30 9526 C 872.063 0.961725 5.2598 0
M  V30 9527 C 873.363 2.93552 4.32001 0
M  V30 9528 H 875.057 1.90544 2.3094 0
M  V30 9529 H 872.603 0.917554 1.10982 0
M  V30 9530 H 874.556 0.365512 4.19812 0
M  V30 9531 H 873.28 -0.423882 3.23838 0
M  V30 9532 H 871.939 1.70862 3.24348 0
M  V30 9533 H 871.587 -0.00580108 5.03 0
M  V30 9534 H 871.287 1.63993 5.64252 0
M  V30 9535 H 872.811 0.802726 6.053 0
M  V30 9536 H 874.225 2.81295 4.99546 0
M  V30 9537 H 872.622 3.58303 4.81393 0
M  V30 9538 H 873.692 3.4508 3.40658 0
M  V30 9539 N 875.035 -1.20752 1.01276 0
M  V30 9540 C 876.281 -1.90302 0.700924 0
M  V30 9541 C 876.614 -1.78406 -0.767142 0
M  V30 9542 O 875.889 -1.16575 -1.55694 0
M  V30 9543 C 876.172 -3.41831 1.13242 0
M  V30 9544 C 876.025 -3.6268 2.66051 0
M  V30 9545 C 877.344 -4.34486 0.700738 0
M  V30 9546 H 874.463 -0.69107 0.256107 0
M  V30 9547 H 877.105 -1.42227 1.25982 0
M  V30 9548 H 875.255 -3.82906 0.656902 0
M  V30 9549 H 876.927 -3.30882 3.21426 0
M  V30 9550 H 875.17 -3.06281 3.07204 0
M  V30 9551 H 875.841 -4.68882 2.91296 0
M  V30 9552 H 878.317 -4.01036 1.10948 0
M  V30 9553 H 877.193 -5.39136 1.03073 0
M  V30 9554 H 877.454 -4.40307 -0.39778 0
M  V30 9555 N 876.513 -0.788492 -1.36457 0
M  V30 9556 C 877.759 -0.360995 -1.99561 0
M  V30 9557 C 878.092 1.06433 -1.62437 0
M  V30 9558 O 877.367 1.7352 -0.878705 0
M  V30 9559 C 877.65 -0.523735 -3.56271 0
M  V30 9560 C 877.503 -1.99268 -4.03252 0
M  V30 9561 C 878.822 0.0617908 -4.40057 0
M  V30 9562 H 875.941 -0.13264 -0.724966 0
M  V30 9563 H 878.583 -0.994659 -1.61884 0
M  V30 9564 H 876.733 0.0156979 -3.88497 0
M  V30 9565 H 878.405 -2.59311 -3.81518 0
M  V30 9566 H 876.648 -2.49561 -3.54826 0
M  V30 9567 H 877.319 -2.05752 -5.12221 0
M  V30 9568 H 879.795 -0.398674 -4.14186 0
M  V30 9569 H 878.671 -0.0821089 -5.48839 0
M  V30 9570 H 878.932 1.15381 -4.26778 0
M  V30 9571 N 877.991 1.48044 -0.54043 0
M  V30 9572 C 879.216 2.07396 -0.0124765 0
M  V30 9573 C 879.641 1.39288 1.26414 0
M  V30 9574 O 878.999 0.462252 1.75308 0
M  V30 9575 C 879.047 3.60131 0.18377 0
M  V30 9576 O 878.151 3.92995 1.25014 0
M  V30 9577 H 877.492 0.662554 -0.0438026 0
M  V30 9578 H 880.022 1.90306 -0.751327 0
M  V30 9579 H 880.032 4.06003 0.403197 0
M  V30 9580 H 878.707 4.09105 -0.74874 0
M  V30 9581 H 877.284 3.5889 1.01254 0
M  V30 9582 N 879.47 0.276058 1.55163 0
M  V30 9583 C 880.4 -0.604633 2.25536 0
M  V30 9584 C 881.381 -1.15813 1.24585 0
M  V30 9585 O 882.566 -1.1921 1.53306 0
M  V30 9586 C 879.696 -1.78836 2.97716 0
M  V30 9587 C 878.65 -1.36635 4.05604 0
M  V30 9588 C 877.976 -2.63325 4.65364 0
M  V30 9589 C 879.276 -0.515858 5.19746 0
M  V30 9590 H 880.97 -0.0177483 2.99395 0
M  V30 9591 H 878.516 -0.00709627 1.43998 0
M  V30 9592 H 880.469 -2.41036 3.45658 0
M  V30 9593 H 879.193 -2.40109 2.21394 0
M  V30 9594 H 877.852 -0.767541 3.58475 0
M  V30 9595 H 877.5 -3.22858 3.85709 0
M  V30 9596 H 877.2 -2.358 5.38212 0
M  V30 9597 H 878.724 -3.26372 5.16056 0
M  V30 9598 H 880.138 -1.04289 5.63735 0
M  V30 9599 H 878.535 -0.335449 5.99162 0
M  V30 9600 H 879.605 0.465137 4.82664 0
M  V30 9601 N 880.948 -1.576 0.00335426 0
M  V30 9602 C 881.881 -2.04085 -1.021 0
M  V30 9603 C 882.859 -0.931382 -1.33282 0
M  V30 9604 O 884.043 -1.19976 -1.45389 0
M  V30 9605 C 881.17 -2.44128 -2.34775 0
M  V30 9606 C 880.216 -3.65841 -2.19232 0
M  V30 9607 S 881.049 -5.13616 -1.51521 0
M  V30 9608 C 882.205 -5.56931 -2.8562 0
M  V30 9609 H 882.438 -2.90652 -0.625192 0
M  V30 9610 H 879.971 -1.52998 -0.207611 0
M  V30 9611 H 881.929 -2.67866 -3.1106 0
M  V30 9612 H 880.59 -1.57954 -2.71495 0
M  V30 9613 H 879.783 -3.9162 -3.17253 0
M  V30 9614 H 879.385 -3.42122 -1.51091 0
M  V30 9615 H 881.677 -5.59596 -3.81914 0
M  V30 9616 H 882.62 -6.5683 -2.64536 0
M  V30 9617 H 883.028 -4.84504 -2.89683 0
M  V30 9618 N 882.426 0.269451 -1.5528 0
M  V30 9619 C 883.651 1.02299 -1.80415 0
M  V30 9620 C 884.076 1.7902 -0.577363 0
M  V30 9621 O 883.434 1.75018 0.473125 0
M  V30 9622 C 883.482 1.95445 -3.0304 0
M  V30 9623 O 882.586 3.04271 -2.78375 0
M  V30 9624 H 881.927 0.292289 -0.596207 0
M  V30 9625 H 884.457 0.297282 -2.02429 0
M  V30 9626 H 884.467 2.37333 -3.31869 0
M  V30 9627 H 883.142 1.39017 -3.91978 0
M  V30 9628 H 881.719 2.66673 -2.60653 0
M  V30 9629 N 883.904 1.48273 0.534124 0
M  V30 9630 C 885.129 1.59988 1.31979 0
M  V30 9631 C 885.554 0.258824 1.86311 0
M  V30 9632 O 884.912 -0.768885 1.64188 0
M  V30 9633 C 884.96 2.64642 2.44943 0
M  V30 9634 O 884.064 2.21515 3.47858 0
M  V30 9635 H 883.405 0.536625 0.391063 0
M  V30 9636 H 885.935 1.94229 0.643135 0
M  V30 9637 H 885.945 2.85786 2.91187 0
M  V30 9638 H 884.62 3.62004 2.04758 0
M  V30 9639 H 883.197 2.10567 3.0776 0
M  V30 9640 N 885.382 -0.782676 1.36792 0
M  V30 9641 C 886.315 -1.90241 1.2603 0
M  V30 9642 C 887.293 -1.61969 0.143055 0
M  V30 9643 O 888.477 -1.85843 0.315366 0
M  V30 9644 C 885.604 -3.25218 0.946082 0
M  V30 9645 C 884.65 -3.72414 2.0787 0
M  V30 9646 S 885.483 -3.87376 3.69729 0
M  V30 9647 C 886.639 -5.25219 3.40435 0
M  V30 9648 H 886.872 -1.99079 2.20805 0
M  V30 9649 H 884.405 -0.942625 1.22286 0
M  V30 9650 H 886.363 -4.03183 0.771612 0
M  V30 9651 H 885.024 -3.14096 0.0159991 0
M  V30 9652 H 884.217 -4.7024 1.81358 0
M  V30 9653 H 883.819 -3.01519 2.21274 0
M  V30 9654 H 886.111 -6.10025 2.94746 0
M  V30 9655 H 887.054 -5.56738 4.37549 0
M  V30 9656 H 887.462 -4.92638 2.75622 0
M  V30 9657 N 886.86 -1.21182 -1.00761 0
M  V30 9658 C 887.807 -0.968741 -2.09485 0
M  V30 9659 C 888.777 0.104325 -1.65772 0
M  V30 9660 O 889.962 -0.0422587 -1.90753 0
M  V30 9661 C 887.102 -0.536686 -3.40901 0
M  V30 9662 C 886.215 -1.6789 -3.98041 0
M  V30 9663 C 885.35 -1.19627 -5.17555 0
M  V30 9664 C 884.389 -2.31099 -5.66798 0
M  V30 9665 N 883.526 -1.83988 -6.77564 0
M  V30 9666 H 888.366 -1.89952 -2.29613 0
M  V30 9667 H 885.903 -0.946688 -1.12589 0
M  V30 9668 H 887.861 -0.26745 -4.16342 0
M  V30 9669 H 886.491 0.357092 -3.20819 0
M  V30 9670 H 885.543 -2.06284 -3.19611 0
M  V30 9671 H 886.855 -2.51794 -4.30582 0
M  V30 9672 H 886.009 -0.883539 -6.00232 0
M  V30 9673 H 884.748 -0.327244 -4.86601 0
M  V30 9674 H 883.753 -2.63178 -4.82719 0
M  V30 9675 H 884.978 -3.18493 -5.99782 0
M  V30 9676 H 882.924 -0.994257 -6.48422 0
M  V30 9677 H 882.841 -2.61466 -7.09346 0
M  V30 9678 H 884.109 -1.55741 -7.63783 0
M  V30 9679 N 888.338 1.20213 -1.01915 0
M  V30 9680 C 889.563 1.94163 -0.729076 0
M  V30 9681 C 889.988 1.74416 0.704323 0
M  V30 9682 O 889.346 1.0401 1.48498 0
M  V30 9683 C 889.394 3.44258 -1.07324 0
M  V30 9684 O 888.498 4.11979 -0.186367 0
M  V30 9685 H 887.839 0.606506 -0.270272 0
M  V30 9686 H 890.369 1.52571 -1.3632 0
M  V30 9687 H 890.379 3.94888 -1.02603 0
M  V30 9688 H 889.054 3.57954 -2.11759 0
M  V30 9689 H 887.631 3.7176 -0.291334 0
M  V30 9690 N 889.816 0.795718 1.36037 0
M  V30 9691 C 891.065 0.367575 1.98322 0
M  V30 9692 C 891.378 -1.06823 1.63854 0
M  V30 9693 O 892.584 -1.59895 2.19421 0
M  V30 9694 C 891.04 0.606272 3.54757 0
M  V30 9695 C 890.648 2.0539 3.98144 0
M  V30 9696 C 892.392 0.242947 4.23804 0
M  V30 9697 C 890.299 2.23893 5.47381 0
M  V30 9698 H 889.229 0.133699 0.742052 0
M  V30 9699 H 891.88 0.978242 1.5525 0
M  V30 9700 H 890.262 -0.0741957 3.9593 0
M  V30 9701 H 891.436 2.77129 3.68152 0
M  V30 9702 H 889.751 2.37607 3.41953 0
M  V30 9703 H 892.348 0.359382 5.33491 0
M  V30 9704 H 892.691 -0.809661 4.08351 0
M  V30 9705 H 893.224 0.876899 3.88015 0
M  V30 9706 H 889.963 3.27559 5.6779 0
M  V30 9707 H 889.483 1.56666 5.78978 0
M  V30 9708 H 891.162 2.04914 6.13693 0
M  V30 9709 N 891.294 -1.47756 0.548274 0
M  V30 9710 C 892.543 -2.01691 0.0187961 0
M  V30 9711 C 892.856 -1.42894 -1.33569 0
M  V30 9712 O 894.062 -1.88438 -1.95457 0
M  V30 9713 C 892.518 -3.59896 -0.016847 0
M  V30 9714 C 892.126 -4.27683 1.33385 0
M  V30 9715 C 893.87 -4.21614 -0.494188 0
M  V30 9716 C 891.777 -5.7787 1.2578 0
M  V30 9717 H 890.707 -0.753993 0.00325648 0
M  V30 9718 H 893.358 -1.69838 0.694792 0
M  V30 9719 H 891.74 -3.88672 -0.758304 0
M  V30 9720 H 892.914 -4.10559 2.09232 0
M  V30 9721 H 891.229 -3.77915 1.7484 0
M  V30 9722 H 893.826 -5.3166 -0.569342 0
M  V30 9723 H 894.169 -3.88176 -1.50417 0
M  V30 9724 H 894.702 -3.97336 0.192138 0
M  V30 9725 H 891.441 -6.15912 2.2435 0
M  V30 9726 H 890.961 -5.97355 0.540997 0
M  V30 9727 H 892.64 -6.39897 0.956109 0
M  V30 9728 N 892.772 -0.284283 -1.55015 0
M  V30 9729 C 893.997 0.335799 -2.04664 0
M  V30 9730 C 894.422 1.47999 -1.16094 0
M  V30 9731 O 893.78 1.8058 -0.161454 0
M  V30 9732 C 893.828 0.785615 -3.51938 0
M  V30 9733 O 892.932 1.89202 -3.66437 0
M  V30 9734 H 892.273 0.0680233 -0.660506 0
M  V30 9735 H 894.803 -0.421255 -2.00216 0
M  V30 9736 H 894.813 1.07892 -3.93476 0
M  V30 9737 H 893.488 -0.0514675 -4.15868 0
M  V30 9738 H 892.065 1.60055 -3.36804 0
M  V30 9739 N 894.251 1.57596 -0.0117121 0
M  V30 9740 C 895.181 2.12188 0.9746 0
M  V30 9741 C 896.162 1.03379 1.35081 0
M  V30 9742 O 897.347 1.31123 1.4325 0
M  V30 9743 C 894.477 2.63477 2.26268 0
M  V30 9744 C 893.431 3.76917 2.02774 0
M  V30 9745 C 892.757 4.14566 3.37697 0
M  V30 9746 C 894.057 5.03715 1.38089 0
M  V30 9747 H 895.751 2.9485 0.520007 0
M  V30 9748 H 893.297 1.41836 0.248685 0
M  V30 9749 H 895.25 3.00299 2.95633 0
M  V30 9750 H 893.974 1.77953 2.73862 0
M  V30 9751 H 892.633 3.40507 1.35832 0
M  V30 9752 H 892.281 3.26048 3.83016 0
M  V30 9753 H 891.981 4.91 3.22789 0
M  V30 9754 H 893.505 4.53956 4.08358 0
M  V30 9755 H 894.919 5.38233 1.97428 0
M  V30 9756 H 893.316 5.85032 1.33634 0
M  V30 9757 H 894.386 4.83624 0.351575 0
M  V30 9758 N 895.729 -0.261212 1.5542 0
M  V30 9759 C 896.659 -1.32712 1.92119 0
M  V30 9760 C 897.64 -1.50934 0.784406 0
M  V30 9761 O 898.825 -1.63781 1.04352 0
M  V30 9762 C 895.955 -2.68453 2.20341 0
M  V30 9763 C 894.909 -2.64947 3.36136 0
M  V30 9764 C 894.235 -4.04349 3.49865 0
M  V30 9765 C 895.535 -2.23182 4.72215 0
M  V30 9766 H 897.229 -1.02245 2.81401 0
M  V30 9767 H 894.775 -0.490406 1.35392 0
M  V30 9768 H 896.728 -3.43144 2.44603 0
M  V30 9769 H 895.452 -3.00527 1.27871 0
M  V30 9770 H 894.111 -1.92714 3.11861 0
M  V30 9771 H 893.759 -4.33665 2.5484 0
M  V30 9772 H 893.459 -4.02895 4.27726 0
M  V30 9773 H 894.983 -4.80761 3.76432 0
M  V30 9774 H 896.397 -2.87599 4.95943 0
M  V30 9775 H 894.794 -2.32867 5.53076 0
M  V30 9776 H 895.864 -1.18327 4.70241 0
M  V30 9777 N 897.207 -1.48554 -0.526253 0
M  V30 9778 C 898.454 -1.56761 -1.28188 0
M  V30 9779 C 898.782 -0.24315 -1.92974 0
M  V30 9780 O 898.037 0.766883 -1.80048 0
M  V30 9781 C 898.336 -2.65739 -2.38993 0
M  V30 9782 C 898.002 -4.08057 -1.91834 0
M  V30 9783 C 896.664 -4.46792 -1.78691 0
M  V30 9784 C 899.016 -4.9723 -1.56242 0
M  V30 9785 C 896.344 -5.72501 -1.28296 0
M  V30 9786 C 898.696 -6.23432 -1.07309 0
M  V30 9787 C 897.36 -6.6102 -0.927853 0
M  V30 9788 H 896.63 -0.573631 -0.469072 0
M  V30 9789 H 899.277 -1.82287 -0.586842 0
M  V30 9790 H 897.582 -2.34088 -3.14181 0
M  V30 9791 H 899.279 -2.69304 -2.97113 0
M  V30 9792 H 895.869 -3.77469 -2.03016 0
M  V30 9793 H 900.053 -4.67979 -1.65255 0
M  V30 9794 H 895.309 -6.00345 -1.15742 0
M  V30 9795 H 899.483 -6.91923 -0.788412 0
M  V30 9796 H 897.11 -7.58314 -0.535162 0
M  V30 9797 N 898.685 0.775411 -1.37205 0
M  V30 9798 C 899.615 1.90258 -1.35367 0
M  V30 9799 C 900.596 1.68634 -0.222864 0
M  V30 9800 O 901.781 1.89545 -0.422659 0
M  V30 9801 C 898.911 3.27488 -1.15623 0
M  V30 9802 C 897.865 3.63668 -2.25676 0
M  V30 9803 C 897.191 4.994 -1.91059 0
M  V30 9804 C 898.491 3.70797 -3.67841 0
M  V30 9805 H 900.185 1.92053 -2.29687 0
M  V30 9806 H 897.731 0.922597 -1.10563 0
M  V30 9807 H 899.684 4.05976 -1.12968 0
M  V30 9808 H 898.408 3.26117 -0.177573 0
M  V30 9809 H 897.067 2.87486 -2.2748 0
M  V30 9810 H 896.715 4.94565 -0.917324 0
M  V30 9811 H 896.415 5.24576 -2.64751 0
M  V30 9812 H 897.939 5.80291 -1.89985 0
M  V30 9813 H 899.353 4.39444 -3.68187 0
M  V30 9814 H 897.75 4.07468 -4.40556 0
M  V30 9815 H 898.82 2.71549 -4.01732 0
M  V30 9816 N 900.163 1.21714 1.00117 0
M  V30 9817 C 901.093 1.00397 2.10815 0
M  V30 9818 C 902.074 -0.0723502 1.69946 0
M  V30 9819 O 903.259 0.0882398 1.93999 0
M  V30 9820 C 900.389 0.572001 3.42557 0
M  V30 9821 C 899.343 1.59331 3.97237 0
M  V30 9822 C 898.669 1.01746 5.2493 0
M  V30 9823 C 899.969 2.98117 4.28863 0
M  V30 9824 H 901.663 1.92983 2.28906 0
M  V30 9825 H 899.209 0.929273 1.10002 0
M  V30 9826 H 901.162 0.410018 4.19401 0
M  V30 9827 H 899.886 -0.38951 3.24269 0
M  V30 9828 H 898.545 1.74293 3.22518 0
M  V30 9829 H 898.193 0.0475491 5.02978 0
M  V30 9830 H 897.893 1.69969 5.62481 0
M  V30 9831 H 899.417 0.866881 6.04415 0
M  V30 9832 H 900.831 2.86578 4.96534 0
M  V30 9833 H 899.228 3.63389 4.77565 0
M  V30 9834 H 900.298 3.48674 3.36979 0
M  V30 9835 N 901.641 -1.19671 1.02551 0
M  V30 9836 C 902.888 -1.89268 0.720002 0
M  V30 9837 C 903.216 -1.79411 -0.751127 0
M  V30 9838 O 902.471 -1.17859 -1.5623 0
M  V30 9839 C 902.77 -3.39647 1.11241 0
M  V30 9840 C 902.436 -3.69706 2.58125 0
M  V30 9841 C 901.098 -3.7762 2.98256 0
M  V30 9842 C 903.45 -3.83301 3.53171 0
M  V30 9843 C 900.778 -3.96594 4.32354 0
M  V30 9844 C 903.13 -4.03788 4.86968 0
M  V30 9845 C 901.794 -4.09934 5.26793 0
M  V30 9846 H 901.064 -0.692579 0.263467 0
M  V30 9847 H 903.711 -1.41738 1.28774 0
M  V30 9848 H 902.016 -3.89052 0.463234 0
M  V30 9849 H 903.713 -3.91809 0.853602 0
M  V30 9850 H 900.303 -3.64152 2.26033 0
M  V30 9851 H 904.487 -3.76534 3.2332 0
M  V30 9852 H 899.743 -3.9959 4.6275 0
M  V30 9853 H 903.917 -4.1325 5.60533 0
M  V30 9854 H 901.544 -4.24389 6.30712 0
M  V30 9855 N 903.119 -0.802921 -1.35613 0
M  V30 9856 C 904.049 -0.225131 -2.32412 0
M  V30 9857 C 905.03 0.647383 -1.57299 0
M  V30 9858 O 906.215 0.578414 -1.85386 0
M  V30 9859 C 903.345 0.630085 -3.41537 0
M  V30 9860 C 902.299 -0.143635 -4.27759 0
M  V30 9861 C 901.625 0.833046 -5.28171 0
M  V30 9862 C 902.925 -1.34054 -5.04804 0
M  V30 9863 H 904.619 -1.03385 -2.80984 0
M  V30 9864 H 902.165 -0.498593 -1.35093 0
M  V30 9865 H 904.118 1.04433 -4.08254 0
M  V30 9866 H 902.842 1.47165 -2.91565 0
M  V30 9867 H 901.501 -0.539015 -3.62616 0
M  V30 9868 H 901.149 1.67001 -4.74468 0
M  V30 9869 H 900.849 0.319697 -5.8673 0
M  V30 9870 H 902.373 1.24558 -5.97761 0
M  V30 9871 H 903.787 -1.00136 -5.64487 0
M  V30 9872 H 902.184 -1.78812 -5.72841 0
M  V30 9873 H 903.254 -2.12906 -4.35659 0
M  V30 9874 N 904.597 1.47463 -0.556102 0
M  V30 9875 C 905.844 2.02475 -0.0316337 0
M  V30 9876 C 906.172 1.43057 1.31777 0
M  V30 9877 O 905.427 0.575376 1.87051 0
M  V30 9878 C 905.726 3.57224 0.112126 0
M  V30 9879 C 905.392 4.35557 -1.16624 0
M  V30 9880 C 904.054 4.56678 -1.51654 0
M  V30 9881 C 906.406 4.8074 -2.01342 0
M  V30 9882 C 903.734 5.20231 -2.7125 0
M  V30 9883 C 906.086 5.45613 -3.2014 0
M  V30 9884 C 904.75 5.64967 -3.55484 0
M  V30 9885 H 904.02 0.74091 -0.0115756 0
M  V30 9886 H 906.667 1.77148 -0.727392 0
M  V30 9887 H 904.972 3.81538 0.890842 0
M  V30 9888 H 906.669 3.97438 0.533261 0
M  V30 9889 H 903.259 4.19395 -0.883489 0
M  V30 9890 H 907.443 4.64201 -1.75587 0
M  V30 9891 H 902.699 5.3341 -2.98804 0
M  V30 9892 H 906.873 5.79587 -3.86073 0
M  V30 9893 H 904.5 6.13984 -4.4825 0
M  V30 9894 N 906.075 0.2925 1.54862 0
M  V30 9895 C 907.324 -0.319994 1.99146 0
M  V30 9896 C 907.637 -1.55658 1.18448 0
M  V30 9897 O 908.843 -2.24312 1.52959 0
M  V30 9898 C 907.299 -0.620665 3.54508 0
M  V30 9899 C 906.907 0.597098 4.44003 0
M  V30 9900 C 908.651 -1.19482 4.07338 0
M  V30 9901 C 906.558 0.270049 5.90783 0
M  V30 9902 H 905.488 -0.123342 0.743843 0
M  V30 9903 H 908.139 0.399876 1.7909 0
M  V30 9904 H 906.521 -1.3999 3.7043 0
M  V30 9905 H 907.695 1.37354 4.39853 0
M  V30 9906 H 906.01 1.0893 4.019 0
M  V30 9907 H 908.607 -1.45362 5.14562 0
M  V30 9908 H 908.95 -2.13435 3.57423 0
M  V30 9909 H 909.483 -0.477485 3.94924 0
M  V30 9910 H 906.222 1.17791 6.4483 0
M  V30 9911 H 905.742 -0.469292 5.97961 0
M  V30 9912 H 907.421 -0.131471 6.46866 0
M  V30 9913 N 907.553 -1.57587 0.0200696 0
M  V30 9914 C 908.799 -1.91708 -0.661503 0
M  V30 9915 C 909.132 -0.895968 -1.72296 0
M  V30 9916 O 908.407 0.082577 -1.94325 0
M  V30 9917 C 908.69 -3.36344 -1.28627 0
M  V30 9918 C 908.543 -4.49186 -0.234982 0
M  V30 9919 C 909.862 -3.80771 -2.20685 0
M  V30 9920 H 906.981 -0.69717 -0.239005 0
M  V30 9921 H 909.623 -1.8985 0.0754764 0
M  V30 9922 H 907.773 -3.38058 -1.91439 0
M  V30 9923 H 909.445 -4.59606 0.395011 0
M  V30 9924 H 907.688 -4.31557 0.440565 0
M  V30 9925 H 908.359 -5.47395 -0.711558 0
M  V30 9926 H 910.835 -3.80735 -1.67868 0
M  V30 9927 H 909.711 -4.82685 -2.61356 0
M  V30 9928 H 909.972 -3.15764 -3.09428 0
M  V30 9929 N 909.032 0.252966 -1.55557 0
M  V30 9930 C 910.278 0.983306 -1.77367 0
M  V30 9931 C 910.611 1.85203 -0.584258 0
M  V30 9932 O 909.886 1.89963 0.417644 0
M  V30 9933 C 910.169 1.84896 -3.09007 0
M  V30 9934 C 910.022 1.00883 -4.38341 0
M  V30 9935 C 911.341 2.83254 -3.36831 0
M  V30 9936 H 908.46 0.356056 -0.645286 0
M  V30 9937 H 911.102 0.254232 -1.88291 0
M  V30 9938 H 909.252 2.47058 -2.99825 0
M  V30 9939 H 910.924 0.40638 -4.59507 0
M  V30 9940 H 909.167 0.31297 -4.3267 0
M  V30 9941 H 909.838 1.64818 -5.2682 0
M  V30 9942 H 912.314 2.31228 -3.45937 0
M  V30 9943 H 911.19 3.40949 -4.30169 0
M  V30 9944 H 911.451 3.59407 -2.57447 0
M  V30 9945 N 910.51 1.48831 0.518367 0
M  V30 9946 C 911.757 1.57439 1.27355 0
M  V30 9947 C 912.085 0.25338 1.92843 0
M  V30 9948 O 911.34 -0.757323 1.80452 0
M  V30 9949 C 911.639 2.67003 2.3758 0
M  V30 9950 C 911.305 4.09069 1.89667 0
M  V30 9951 C 909.967 4.47733 1.76319 0
M  V30 9952 C 912.319 4.98052 1.53603 0
M  V30 9953 C 909.647 5.73173 1.25258 0
M  V30 9954 C 911.999 6.23992 1.04001 0
M  V30 9955 C 910.663 6.61503 0.892784 0
M  V30 9956 H 909.933 0.57611 0.466023 0
M  V30 9957 H 912.58 1.82595 0.577166 0
M  V30 9958 H 910.885 2.35751 3.12936 0
M  V30 9959 H 912.582 2.70876 2.95681 0
M  V30 9960 H 909.172 3.7854 2.01011 0
M  V30 9961 H 913.356 4.68849 1.62771 0
M  V30 9962 H 908.612 6.0095 1.12557 0
M  V30 9963 H 912.786 6.92331 0.751706 0
M  V30 9964 H 910.413 7.58587 0.494939 0
M  V30 9965 N 911.988 -0.768124 1.37614 0
M  V30 9966 C 912.951 -1.86314 1.3349 0
M  V30 9967 C 913.951 -1.59025 0.23823 0
M  V30 9968 O 915.141 -1.6704 0.494288 0
M  V30 9969 C 912.273 -3.23519 1.07462 0
M  V30 9970 H 913.466 -1.91382 2.30896 0
M  V30 9971 H 911.019 -0.968267 1.22696 0
M  V30 9972 H 911.754 -3.24127 0.106028 0
M  V30 9973 H 911.539 -3.44719 1.86846 0
M  V30 9974 H 913.029 -4.03597 1.07236 0
M  V30 9975 N 913.466 -1.22244 -0.994698 0
M  V30 9976 C 914.396 -1.01513 -2.10279 0
M  V30 9977 C 915.377 0.0633365 -1.69982 0
M  V30 9978 O 916.562 -0.0985268 -1.9395 0
M  V30 9979 C 913.692 -0.59016 -3.42249 0
M  V30 9980 C 912.646 -1.61436 -3.96387 0
M  V30 9981 C 911.972 -1.04528 -5.24383 0
M  V30 9982 C 913.272 -3.00388 -4.27276 0
M  V30 9983 H 914.966 -1.94194 -2.2788 0
M  V30 9984 H 912.512 -0.935094 -1.09508 0
M  V30 9985 H 914.465 -0.432254 -4.19177 0
M  V30 9986 H 913.189 0.372308 -3.24471 0
M  V30 9987 H 911.848 -1.76001 -3.21589 0
M  V30 9988 H 911.496 -0.0742225 -5.02945 0
M  V30 9989 H 911.196 -1.72949 -5.61571 0
M  V30 9990 H 912.72 -0.898922 -6.03947 0
M  V30 9991 H 914.134 -2.89207 -4.95007 0
M  V30 9992 H 912.531 -3.65916 -4.75631 0
M  V30 9993 H 913.601 -3.50456 -3.35125 0
M  V30 9994 N 914.944 1.19125 -1.03184 0
M  V30 9995 C 915.874 2.24675 -0.635889 0
M  V30 9996 C 916.855 1.66321 0.356565 0
M  V30 9997 O 918.04 1.92728 0.238625 0
M  V30 9998 C 915.17 3.47298 0.011069 0
M  V30 9999 C 914.124 4.18345 -0.903979 0
M  V30 10000 C 913.45 5.34561 -0.12197 0
M  V30 10001 C 914.75 4.72816 -2.21907 0
M  V30 10002 H 916.444 2.5805 -1.51825 0
M  V30 10003 H 913.99 1.24039 -0.73146 0
M  V30 10004 H 915.943 4.20333 0.299729 0
M  V30 10005 H 914.667 3.13131 0.928245 0
M  V30 10006 H 913.326 3.47196 -1.17688 0
M  V30 10007 H 912.974 4.9664 0.797334 0
M  V30 10008 H 912.674 5.83029 -0.731498 0
M  V30 10009 H 914.198 6.10391 0.159881 0
M  V30 10010 H 915.612 5.3759 -1.99173 0
M  V30 10011 H 914.009 5.31782 -2.78078 0
M  V30 10012 H 915.079 3.9072 -2.87168 0
M  V30 10013 N 916.422 0.810101 1.35185 0
M  V30 10014 C 917.67 0.391343 1.98275 0
M  V30 10015 C 917.991 -1.04592 1.64577 0
M  V30 10016 O 917.261 -1.72417 0.93001 0
M  V30 10017 H 915.841 0.141715 0.733434 0
M  V30 10018 H 918.503 1.03672 1.6504 0
M  V30 10019 H 917.599 0.49991 3.0807 0
M  V30 10020 N 917.9 -1.47166 0.563914 0
M  V30 10021 C 918.833 -2.27058 -0.227989 0
M  V30 10022 C 919.811 -1.34468 -0.914179 0
M  V30 10023 O 920.995 -1.63857 -0.931829 0
M  V30 10024 C 918.122 -3.11689 -1.32543 0
M  V30 10025 C 917.168 -4.19906 -0.747084 0
M  V30 10026 S 918.001 -5.33916 0.41153 0
M  V30 10027 C 919.157 -6.22112 -0.687566 0
M  V30 10028 H 919.39 -2.93876 0.449939 0
M  V30 10029 H 916.923 -1.50372 0.350382 0
M  V30 10030 H 918.881 -3.61017 -1.95389 0
M  V30 10031 H 917.542 -2.44221 -1.97522 0
M  V30 10032 H 916.735 -4.78876 -1.57141 0
M  V30 10033 H 916.337 -3.73493 -0.194671 0
M  V30 10034 H 918.629 -6.58867 -1.578 0
M  V30 10035 H 919.572 -7.07971 -0.135058 0
M  V30 10036 H 919.98 -5.55871 -0.983255 0
M  V30 10037 N 919.378 -0.300708 -1.54705 0
M  V30 10038 C 920.31 0.609179 -2.20956 0
M  V30 10039 C 921.323 1.09776 -1.20221 0
M  V30 10040 O 922.512 1.01527 -1.46815 0
M  V30 10041 C 919.612 1.84595 -2.84214 0
M  V30 10042 C 918.785 1.49991 -4.10879 0
M  V30 10043 C 917.844 2.5918 -4.57943 0
M  V30 10044 O 916.87 2.24285 -5.23149 0
M  V30 10045 N 918.072 3.89714 -4.30236 0
M  V30 10046 H 920.837 0.0420111 -2.99671 0
M  V30 10047 H 918.398 -0.122896 -1.61433 0
M  V30 10048 H 920.39 2.56988 -3.12633 0
M  V30 10049 H 918.96 2.32152 -2.09342 0
M  V30 10050 H 918.18 0.608637 -3.89473 0
M  V30 10051 H 919.468 1.24409 -4.93356 0
M  V30 10052 H 918.866 4.20874 -3.77997 0
M  V30 10053 H 917.423 4.58406 -4.63365 0
M  V30 10054 N 920.856 1.57574 -0.0284266 0
M  V30 10055 C 921.786 2.1321 0.952039 0
M  V30 10056 C 922.767 1.04806 1.33977 0
M  V30 10057 O 923.952 1.32635 1.41851 0
M  V30 10058 C 921.082 2.65862 2.23461 0
M  V30 10059 C 920.036 3.79047 1.98765 0
M  V30 10060 C 919.362 4.18124 3.33281 0
M  V30 10061 C 920.662 5.05151 1.32739 0
M  V30 10062 H 922.356 2.95385 0.488705 0
M  V30 10063 H 919.902 1.42092 0.233628 0
M  V30 10064 H 921.855 3.03417 2.92431 0
M  V30 10065 H 920.579 1.80848 2.71959 0
M  V30 10066 H 919.238 3.41929 1.32213 0
M  V30 10067 H 918.886 3.30092 3.79537 0
M  V30 10068 H 918.586 4.94396 3.17563 0
M  V30 10069 H 920.11 4.58262 4.0352 0
M  V30 10070 H 921.524 5.40297 1.91708 0
M  V30 10071 H 919.921 5.86416 1.27421 0
M  V30 10072 H 920.991 4.83969 0.300261 0
M  V30 10073 N 922.334 -0.244713 1.55689 0
M  V30 10074 C 923.581 -0.972446 1.77622 0
M  V30 10075 C 923.909 -1.85235 0.593137 0
M  V30 10076 O 923.164 -1.91064 -0.423464 0
M  V30 10077 C 923.463 -1.8617 3.05083 0
M  V30 10078 C 923.129 -1.13696 4.3633 0
M  V30 10079 C 921.791 -0.936679 4.71996 0
M  V30 10080 C 924.143 -0.623451 5.17458 0
M  V30 10081 C 921.471 -0.210612 5.86322 0
M  V30 10082 C 923.823 0.0891587 6.32537 0
M  V30 10083 C 922.487 0.300904 6.66821 0
M  V30 10084 H 921.757 -0.355843 0.649967 0
M  V30 10085 H 924.404 -0.242372 1.8996 0
M  V30 10086 H 922.709 -2.6589 2.87767 0
M  V30 10087 H 924.406 -2.4265 3.19253 0
M  V30 10088 H 920.996 -1.30301 4.08313 0
M  V30 10089 H 925.18 -0.765725 4.90357 0
M  V30 10090 H 920.436 -0.0361062 6.11389 0
M  V30 10091 H 924.61 0.494685 6.94641 0
M  V30 10092 H 922.237 0.865466 7.55257 0
M  V30 10093 N 923.813 -1.49104 -0.510467 0
M  V30 10094 C 925.061 -1.578 -1.26268 0
M  V30 10095 C 925.382 -0.262349 -1.93227 0
M  V30 10096 O 924.652 0.717624 -1.82283 0
M  V30 10097 H 923.232 -0.581387 -0.46904 0
M  V30 10098 H 925.894 -1.85678 -0.592423 0
M  V30 10099 H 924.99 -2.36919 -2.03165 0
M  V30 10100 N 925.291 0.760815 -1.38019 0
M  V30 10101 C 926.539 1.51673 -1.33566 0
M  V30 10102 C 926.86 1.94852 0.076024 0
M  V30 10103 O 926.13 1.67112 1.02227 0
M  V30 10104 H 924.71 0.562581 -0.491438 0
M  V30 10105 H 927.372 0.904832 -1.72623 0
M  V30 10106 H 926.468 2.41102 -1.98182 0
M  V30 10107 N 926.769 1.22769 0.988202 0
M  V30 10108 C 928.185 0.988665 1.2529 0
M  V30 10109 C 928.385 -0.314938 1.99024 0
M  V30 10110 O 927.441 -1.03637 2.30251 0
M  V30 10111 C 928.754 2.19046 2.06009 0
M  V30 10112 C 930.302 2.23452 2.19176 0
M  V30 10113 C 930.777 3.43196 3.03283 0
M  V30 10114 N 932.268 3.43387 3.10869 0
M  V30 10115 C 933.003 4.32693 3.7625 0
M  V30 10116 N 932.499 5.32224 4.43519 0
M  V30 10117 N 934.292 4.20457 3.73058 0
M  V30 10118 H 926.443 2.06575 0.494014 0
M  V30 10119 H 928.706 0.905452 0.28082 0
M  V30 10120 H 928.412 3.13607 1.59197 0
M  V30 10121 H 928.286 2.19492 3.06763 0
M  V30 10122 H 930.673 1.29436 2.65199 0
M  V30 10123 H 930.754 2.27042 1.17836 0
M  V30 10124 H 930.398 4.37515 2.57959 0
M  V30 10125 H 930.328 3.36847 4.04774 0
M  V30 10126 H 932.819 2.71368 2.62998 0
M  V30 10127 H 933.132 5.9664 4.91163 0
M  V30 10128 H 931.477 5.36133 4.42252 0
M  V30 10129 H 934.668 3.41949 3.19669 0
M  V30 10130 H 934.841 4.90261 4.23731 0
M  V30 10131 N 928.247 -1.18576 1.03814 0
M  V30 10132 C 929.494 -1.88493 0.740036 0
M  V30 10133 C 929.822 -1.80198 -0.732056 0
M  V30 10134 O 929.077 -1.19509 -1.54971 0
M  V30 10135 C 929.376 -3.38448 1.14837 0
M  V30 10136 C 929.042 -3.66947 2.62031 0
M  V30 10137 C 927.704 -3.74435 3.02244 0
M  V30 10138 C 930.056 -3.79534 3.57217 0
M  V30 10139 C 927.384 -3.91986 4.36536 0
M  V30 10140 C 929.736 -3.986 4.91223 0
M  V30 10141 C 928.4 -4.04323 5.31111 0
M  V30 10142 H 927.67 -0.689746 0.270798 0
M  V30 10143 H 930.317 -1.40364 1.3027 0
M  V30 10144 H 928.622 -3.88539 0.504472 0
M  V30 10145 H 930.319 -3.90882 0.89511 0
M  V30 10146 H 926.909 -3.61734 2.29883 0
M  V30 10147 H 931.093 -3.73083 3.27296 0
M  V30 10148 H 926.349 -3.9466 4.66962 0
M  V30 10149 H 930.523 -4.07281 5.64885 0
M  V30 10150 H 928.15 -4.17676 6.35178 0
M  V30 10151 N 929.725 -0.817259 -1.34754 0
M  V30 10152 C 930.673 -0.223352 -2.31525 0
M  V30 10153 C 931.667 0.632785 -1.57137 0
M  V30 10154 O 932.873 0.524757 -1.72181 0
M  V30 10155 H 929.248 -0.0534765 -0.750096 0
M  V30 10156 H 931.219 -1.05446 -2.79148 0
M  V30 10157 C 929.968 0.604784 -3.424 0
M  V30 10158 H 929.291 -0.0446664 -3.99775 0
M  V30 10159 H 930.731 0.986543 -4.12363 0
M  V30 10160 C 929.19 1.77478 -2.86362 0
M  V30 10161 O 929.72 2.87273 -2.8078 0
M  V30 10162 N 927.926 1.58971 -2.43263 0
M  V30 10163 H 927.473 0.696598 -2.48003 0
M  V30 10164 H 927.431 2.37408 -2.06119 0
M  V30 10165 N 931.203 1.46865 -0.571711 0
M  V30 10166 C 932.45 2.0243 -0.0531071 0
M  V30 10167 C 932.778 1.44446 1.30252 0
M  V30 10168 O 932.033 0.595182 1.8643 0
M  V30 10169 C 932.332 3.57323 0.0742311 0
M  V30 10170 C 931.998 4.34295 -1.21237 0
M  V30 10171 C 930.66 4.55044 -1.56489 0
M  V30 10172 C 933.012 4.78577 -2.0643 0
M  V30 10173 C 930.34 5.17325 -2.76752 0
M  V30 10174 C 932.692 5.42186 -3.25909 0
M  V30 10175 C 931.356 5.61165 -3.61456 0
M  V30 10176 H 930.626 0.740745 -0.0194333 0
M  V30 10177 H 933.273 1.76366 -0.74614 0
M  V30 10178 H 931.578 3.82461 0.850325 0
M  V30 10179 H 933.275 3.97982 0.491077 0
M  V30 10180 H 929.865 4.18435 -0.927922 0
M  V30 10181 H 934.049 4.62313 -1.80501 0
M  V30 10182 H 929.305 5.30211 -3.04444 0
M  V30 10183 H 933.479 5.75459 -3.92198 0
M  V30 10184 H 931.106 6.09195 -4.54737 0
M  V30 10185 N 932.681 0.308908 1.54543 0
M  V30 10186 C 933.629 -0.579326 2.2527 0
M  V30 10187 C 934.623 -1.13058 1.26152 0
M  V30 10188 O 935.829 -1.08031 1.43977 0
M  V30 10189 H 932.204 -0.205444 0.723392 0
M  V30 10190 H 934.175 0.0396415 2.98374 0
M  V30 10191 C 932.924 -1.73584 3.01271 0
M  V30 10192 H 932.247 -1.32089 3.77349 0
M  V30 10193 H 933.687 -2.33324 3.54028 0
M  V30 10194 C 932.146 -2.6447 2.08703 0
M  V30 10195 O 932.676 -3.65785 1.66025 0
M  V30 10196 N 930.882 -2.32379 1.74495 0
M  V30 10197 H 930.429 -1.50034 2.09398 0
M  V30 10198 H 930.387 -2.93454 1.12836 0
M  V30 10199 N 934.159 -1.57557 0.0367827 0
M  V30 10200 C 935.436 -1.83427 -0.679261 0
M  V30 10201 C 935.816 -0.922274 -1.89888 0
M  V30 10202 O 935.164 0.02025 -2.28491 0
M  V30 10203 C 935.374 -3.32823 -1.05022 0
M  V30 10204 C 936.722 -3.99486 -1.43861 0
M  V30 10205 O 937.746 -3.37364 -1.14297 0
M  V30 10206 O 936.605 -5.0899 -1.98977 0
M  V30 10207 H 933.699 -0.756581 -0.333936 0
M  V30 10208 H 936.245 -1.69575 0.0650494 0
M  V30 10209 H 935.017 -3.90874 -0.182509 0
M  V30 10210 H 934.64 -3.5181 -1.85244 0
M  V30 10211 N 935.637 0.236453 -1.55816 0
M  V30 10212 C 936.885 0.96111 -1.77784 0
M  V30 10213 C 937.206 1.85454 -0.602648 0
M  V30 10214 O 936.476 1.92157 0.381137 0
M  V30 10215 H 935.056 0.35787 -0.655697 0
M  V30 10216 H 937.718 0.251888 -1.93265 0
M  V30 10217 H 936.814 1.5767 -2.69345 0
M  V30 10218 N 937.115 1.49373 0.502552 0
M  V30 10219 C 938.343 1.62488 1.28084 0
M  V30 10220 C 938.758 0.295667 1.86471 0
M  V30 10221 O 938.115 -0.718664 1.67754 0
M  V30 10222 C 938.166 2.69249 2.4122 0
M  V30 10223 O 937.887 3.97014 1.85234 0
M  V30 10224 C 939.388 2.93054 3.32617 0
M  V30 10225 H 936.608 0.547068 0.388533 0
M  V30 10226 H 939.152 1.95394 0.603452 0
M  V30 10227 H 937.307 2.39125 3.04792 0
M  V30 10228 H 937.721 4.55809 2.59496 0
M  V30 10229 H 939.195 3.71493 4.08285 0
M  V30 10230 H 939.672 2.02911 3.89517 0
M  V30 10231 H 940.278 3.24589 2.74813 0
M  V30 10232 N 938.594 -0.753485 1.38421 0
M  V30 10233 C 940.005 -1.33081 1.30944 0
M  V30 10234 C 940.356 -1.96169 -0.0347124 0
M  V30 10235 O 939.481 -1.95073 -0.936768 0
M  V30 10236 C 940.076 -2.41973 2.37138 0
M  V30 10237 C 938.635 -2.95426 2.33239 0
M  V30 10238 C 937.782 -1.68808 2.19998 0
M  V30 10239 H 940.733 -0.552354 1.48777 0
M  V30 10240 H 940.754 -3.21913 2.02859 0
M  V30 10241 H 940.266 -1.96027 3.34956 0
M  V30 10242 H 938.367 -3.45701 1.39003 0
M  V30 10243 H 938.48 -3.49798 3.27381 0
M  V30 10244 H 936.844 -1.92438 1.66852 0
M  V30 10245 H 937.627 -1.24939 3.19758 0
M  V30 10246 N 940.072 -1.23292 -0.981677 0
M  V30 10247 C 941.297 -1.09176 -1.76339 0
M  V30 10248 C 941.722 0.352726 -1.84763 0
M  V30 10249 O 941.08 1.25509 -1.30832 0
M  V30 10250 C 941.128 -1.72046 -3.16911 0
M  V30 10251 O 940.232 -0.98174 -4.00544 0
M  V30 10252 H 939.573 -0.382755 -0.542581 0
M  V30 10253 H 942.103 -1.63319 -1.23239 0
M  V30 10254 H 942.113 -1.77232 -3.67495 0
M  V30 10255 H 940.788 -2.77154 -3.10095 0
M  V30 10256 H 939.365 -1.00672 -3.59054 0
M  V30 10257 N 941.55 1.18024 -1.04442 0
M  V30 10258 C 942.513 2.19992 -0.643136 0
M  V30 10259 C 943.513 1.57949 0.301444 0
M  V30 10260 O 944.703 1.73986 0.0863341 0
M  V30 10261 C 941.835 3.40853 0.0565208 0
M  V30 10262 H 943.028 2.57008 -1.54554 0
M  V30 10263 H 940.581 1.31974 -0.837408 0
M  V30 10264 H 941.316 3.09373 0.972553 0
M  V30 10265 H 941.101 3.87128 -0.622439 0
M  V30 10266 H 942.591 4.16344 0.323652 0
M  V30 10267 N 943.028 0.824394 1.34319 0
M  V30 10268 C 943.976 0.235628 2.31403 0
M  V30 10269 C 944.97 -0.624443 1.57471 0
M  V30 10270 O 946.176 -0.515618 1.72457 0
M  V30 10271 H 942.551 0.0574537 0.749802 0
M  V30 10272 H 944.522 1.06925 2.78585 0
M  V30 10273 C 943.271 -0.586617 3.42716 0
M  V30 10274 H 942.594 0.0658669 3.99746 0
M  V30 10275 H 944.034 -0.964661 4.1288 0
M  V30 10276 C 942.493 -1.75957 2.87299 0
M  V30 10277 O 943.023 -2.8578 2.82299 0
M  V30 10278 N 941.229 -1.57678 2.44102 0
M  V30 10279 H 940.776 -0.683436 2.48369 0
M  V30 10280 H 940.734 -2.36311 2.07375 0
M  V30 10281 N 944.506 -1.46559 0.579492 0
M  V30 10282 C 945.753 -2.02399 0.0638418 0
M  V30 10283 C 946.081 -1.45135 -1.29484 0
M  V30 10284 O 945.336 -0.605061 -1.86112 0
M  V30 10285 C 945.635 -3.57357 -0.0552803 0
M  V30 10286 C 945.301 -4.33646 1.23539 0
M  V30 10287 C 943.963 -4.54207 1.589 0
M  V30 10288 C 946.315 -4.77476 2.08965 0
M  V30 10289 C 943.643 -5.1585 2.79492 0
M  V30 10290 C 945.995 -5.4045 3.2878 0
M  V30 10291 C 944.659 -5.5924 3.64427 0
M  V30 10292 H 943.929 -0.740632 0.0233614 0
M  V30 10293 H 946.576 -1.75968 0.755482 0
M  V30 10294 H 944.881 -3.82907 -0.83003 0
M  V30 10295 H 946.578 -3.98237 -0.469964 0
M  V30 10296 H 943.168 -4.17937 0.9501 0
M  V30 10297 H 947.352 -4.61349 1.8295 0
M  V30 10298 H 942.608 -5.28589 3.07252 0
M  V30 10299 H 946.782 -5.73371 3.95245 0
M  V30 10300 H 944.409 -6.06775 4.57961 0
M  V30 10301 N 945.984 -0.3171 -1.54377 0
M  V30 10302 C 947.261 0.341348 -1.92598 0
M  V30 10303 C 947.641 1.70402 -1.24605 0
M  V30 10304 O 946.989 2.25191 -0.387448 0
M  V30 10305 C 947.199 0.440003 -3.46215 0
M  V30 10306 C 948.547 0.703327 -4.18734 0
M  V30 10307 O 949.571 0.523181 -3.52337 0
M  V30 10308 O 948.43 1.05042 -5.3631 0
M  V30 10309 H 945.524 0.193696 -0.803997 0
M  V30 10310 H 948.07 -0.366341 -1.65699 0
M  V30 10311 H 946.842 -0.517299 -3.87866 0
M  V30 10312 H 946.465 1.19553 -3.792 0
M  V30 10313 N 947.462 1.57535 -0.0451378 0
M  V30 10314 C 948.69 1.96761 0.639742 0
M  V30 10315 C 949.105 0.922405 1.64734 0
M  V30 10316 O 948.462 -0.0940535 1.82257 0
M  V30 10317 C 948.513 3.36066 1.33199 0
M  V30 10318 O 948.234 4.36579 0.364757 0
M  V30 10319 C 949.735 3.90015 2.1072 0
M  V30 10320 H 946.955 0.64769 0.175324 0
M  V30 10321 H 949.499 2.04206 -0.109651 0
M  V30 10322 H 947.654 3.2979 2.03266 0
M  V30 10323 H 948.068 5.17432 0.858168 0
M  V30 10324 H 949.542 4.89785 2.54586 0
M  V30 10325 H 950.019 3.25117 2.95288 0
M  V30 10326 H 950.625 3.99609 1.45577 0
M  V30 10327 N 948.94 -0.228186 1.55939 0
M  V30 10328 C 950.187 -0.953552 1.78644 0
M  V30 10329 C 950.515 -1.84596 0.61275 0
M  V30 10330 O 949.77 -1.91502 -0.403175 0
M  V30 10331 C 950.069 -1.82924 3.0704 0
M  V30 10332 C 949.735 -1.09062 4.37511 0
M  V30 10333 C 948.397 -0.886565 4.72962 0
M  V30 10334 C 950.749 -0.568533 5.1809 0
M  V30 10335 C 948.077 -0.148413 5.86512 0
M  V30 10336 C 950.429 0.156243 6.32407 0
M  V30 10337 C 949.093 0.371612 6.66465 0
M  V30 10338 H 948.363 -0.348929 0.653704 0
M  V30 10339 H 951.01 -0.222211 1.90206 0
M  V30 10340 H 949.315 -2.62823 2.90571 0
M  V30 10341 H 951.012 -2.3925 3.21808 0
M  V30 10342 H 947.602 -1.25963 4.09672 0
M  V30 10343 H 951.786 -0.713673 4.91142 0
M  V30 10344 H 947.042 0.0287418 6.11393 0
M  V30 10345 H 951.216 0.568333 6.94077 0
M  V30 10346 H 948.843 0.945522 7.54297 0
M  V30 10347 N 950.418 -1.49637 -0.494624 0
M  V30 10348 C 951.829 -1.52573 -1.07603 0
M  V30 10349 C 952.18 -0.315591 -1.93645 0
M  V30 10350 O 951.305 0.573966 -2.08649 0
M  V30 10351 C 951.9 -2.7648 -1.95817 0
M  V30 10352 C 950.459 -2.82173 -2.49109 0
M  V30 10353 C 949.606 -2.4657 -1.2688 0
M  V30 10354 H 952.557 -1.56242 -0.278251 0
M  V30 10355 H 952.578 -2.57003 -2.80588 0
M  V30 10356 H 952.09 -3.64538 -1.33167 0
M  V30 10357 H 950.191 -1.9841 -3.15379 0
M  V30 10358 H 950.304 -3.84501 -2.85825 0
M  V30 10359 H 948.668 -1.98489 -1.59607 0
M  V30 10360 H 949.451 -3.3691 -0.659281 0
M  V30 10361 N 951.896 0.746133 -1.38819 0
M  V30 10362 C 952.859 1.84167 -1.36437 0
M  V30 10363 C 953.859 1.58626 -0.263499 0
M  V30 10364 O 955.049 1.66233 -0.520801 0
M  V30 10365 C 952.181 3.21769 -1.12596 0
M  V30 10366 H 953.374 1.87684 -2.33912 0
M  V30 10367 H 950.927 0.948625 -1.24221 0
M  V30 10368 H 951.662 3.23917 -0.15758 0
M  V30 10369 H 951.447 3.41702 -1.92307 0
M  V30 10370 H 952.937 4.0184 -1.13643 0
M  V30 10371 N 953.375 1.23811 0.975125 0
M  V30 10372 C 954.338 1.02505 2.05001 0
M  V30 10373 C 955.338 -0.0150084 1.60793 0
M  V30 10374 O 956.528 0.225246 1.72738 0
M  V30 10375 C 953.66 0.552087 3.364 0
M  V30 10376 H 954.853 1.979 2.25335 0
M  V30 10377 H 952.406 1.05929 1.1493 0
M  V30 10378 H 953.141 -0.405394 3.21756 0
M  V30 10379 H 952.926 1.30267 3.69828 0
M  V30 10380 H 954.416 0.423828 4.15444 0
M  V30 10381 N 954.853 -1.17469 1.05066 0
M  V30 10382 C 956.102 -1.87032 0.755114 0
M  V30 10383 C 956.415 -1.81844 -0.720572 0
M  V30 10384 O 957.621 -2.46866 -1.13002 0
M  V30 10385 C 956.077 -3.35581 1.30052 0
M  V30 10386 C 955.685 -3.49274 2.80556 0
M  V30 10387 C 957.429 -4.1048 1.08196 0
M  V30 10388 C 955.336 -4.91838 3.28404 0
M  V30 10389 H 954.266 -0.70057 0.278779 0
M  V30 10390 H 956.917 -1.32663 1.26779 0
M  V30 10391 H 955.299 -3.89479 0.715667 0
M  V30 10392 H 956.473 -3.05598 3.44886 0
M  V30 10393 H 954.788 -2.87793 3.00939 0
M  V30 10394 H 957.385 -5.15652 1.41447 0
M  V30 10395 H 957.728 -4.16295 0.0196603 0
M  V30 10396 H 958.261 -3.62784 1.63195 0
M  V30 10397 H 955 -4.91196 4.34058 0
M  V30 10398 H 954.52 -5.36189 2.68815 0
M  V30 10399 H 956.199 -5.60602 3.23009 0
M  V30 10400 N 956.331 -0.831506 -1.3388 0
M  V30 10401 C 957.264 -0.2046 -2.27281 0
M  V30 10402 C 958.242 0.643992 -1.49303 0
M  V30 10403 O 959.426 0.605863 -1.78498 0
M  V30 10404 C 956.553 0.713409 -3.31101 0
M  V30 10405 C 955.599 -0.0587654 -4.2646 0
M  V30 10406 S 956.432 -1.41172 -5.16557 0
M  V30 10407 C 957.588 -0.498807 -6.23909 0
M  V30 10408 H 957.821 -0.996442 -2.80104 0
M  V30 10409 H 955.354 -0.62786 -1.41058 0
M  V30 10410 H 957.312 1.23748 -3.91403 0
M  V30 10411 H 955.973 1.47885 -2.77108 0
M  V30 10412 H 955.166 0.639466 -4.99927 0
M  V30 10413 H 954.768 -0.513665 -3.70456 0
M  V30 10414 H 957.06 0.306268 -6.76807 0
M  V30 10415 H 958.003 -1.20342 -6.97799 0
M  V30 10416 H 958.411 -0.0834242 -5.64438 0
M  V30 10417 N 957.809 1.4625 -0.587256 0
M  V30 10418 C 959.037 2.06744 -0.08033 0
M  V30 10419 C 959.452 1.43527 1.2266 0
M  V30 10420 O 958.809 0.542168 1.74261 0
M  V30 10421 C 958.86 3.61394 0.0873469 0
M  V30 10422 O 958.581 4.22247 -1.16785 0
M  V30 10423 C 960.082 4.38828 0.628095 0
M  V30 10424 H 957.302 0.668354 -0.0595301 0
M  V30 10425 H 959.846 1.87808 -0.809217 0
M  V30 10426 H 958.001 3.79742 0.766473 0
M  V30 10427 H 958.415 5.15176 -0.984565 0
M  V30 10428 H 959.889 5.47613 0.694583 0
M  V30 10429 H 960.366 4.07188 1.64606 0
M  V30 10430 H 960.972 4.25297 -0.0163115 0
M  V30 10431 N 959.287 0.325282 1.54207 0
M  V30 10432 C 960.533 -0.277185 2.00897 0
M  V30 10433 C 960.866 -1.51651 1.21308 0
M  V30 10434 O 960.141 -1.92237 0.295825 0
M  V30 10435 C 960.424 -0.60961 3.54902 0
M  V30 10436 C 960.277 0.640542 4.45216 0
M  V30 10437 C 961.596 -1.42656 4.16338 0
M  V30 10438 H 958.715 -0.0992722 0.730284 0
M  V30 10439 H 961.357 0.442201 1.84783 0
M  V30 10440 H 959.507 -1.22249 3.68765 0
M  V30 10441 H 961.179 1.27878 4.43221 0
M  V30 10442 H 959.422 1.26908 4.14821 0
M  V30 10443 H 960.093 0.363459 5.50802 0
M  V30 10444 H 962.569 -0.908494 4.06061 0
M  V30 10445 H 961.445 -1.62792 5.24204 0
M  V30 10446 H 961.706 -2.42321 3.69774 0
M  V30 10447 N 960.765 -1.57509 0.0534917 0
M  V30 10448 C 962.012 -1.92782 -0.619772 0
M  V30 10449 C 962.34 -0.932046 -1.70714 0
M  V30 10450 O 961.595 0.0552891 -1.95622 0
M  V30 10451 C 961.894 -3.34734 -1.25251 0
M  V30 10452 C 961.56 -4.49946 -0.293113 0
M  V30 10453 C 960.222 -4.81191 -0.0291223 0
M  V30 10454 C 962.574 -5.19925 0.364271 0
M  V30 10455 C 959.902 -5.79761 0.899649 0
M  V30 10456 C 962.254 -6.19489 1.28125 0
M  V30 10457 C 960.918 -6.49161 1.55389 0
M  V30 10458 H 960.188 -0.705441 -0.226791 0
M  V30 10459 H 962.835 -1.91121 0.120466 0
M  V30 10460 H 961.14 -3.32774 -2.06807 0
M  V30 10461 H 962.837 -3.59308 -1.78042 0
M  V30 10462 H 959.427 -4.25566 -0.509053 0
M  V30 10463 H 963.611 -4.95997 0.173411 0
M  V30 10464 H 958.867 -6.01085 1.11833 0
M  V30 10465 H 963.041 -6.72824 1.79669 0
M  V30 10466 H 960.668 -7.25354 2.2752 0
M  V30 10467 N 962.243 0.219913 -1.56058 0
M  V30 10468 C 963.175 1.29604 -1.89038 0
M  V30 10469 C 964.188 1.42964 -0.778791 0
M  V30 10470 O 965.377 1.43832 -1.0571 0
M  V30 10471 C 962.477 2.67145 -2.08534 0
M  V30 10472 C 961.65 2.75712 -3.39561 0
M  V30 10473 C 960.709 3.94279 -3.48469 0
M  V30 10474 O 959.735 3.8254 -4.21487 0
M  V30 10475 N 960.937 5.08655 -2.79732 0
M  V30 10476 H 963.702 1.01638 -2.81939 0
M  V30 10477 H 961.263 0.409945 -1.56624 0
M  V30 10478 H 963.255 3.44847 -2.11808 0
M  V30 10479 H 961.825 2.87704 -1.2225 0
M  V30 10480 H 961.045 1.84475 -3.48371 0
M  V30 10481 H 962.333 2.78407 -4.25872 0
M  V30 10482 H 961.731 5.21088 -2.2019 0
M  V30 10483 H 960.288 5.84394 -2.88665 0
M  V30 10484 N 963.721 1.49897 0.486681 0
M  V30 10485 C 964.97 1.59349 1.23656 0
M  V30 10486 C 965.283 0.292024 1.93408 0
M  V30 10487 O 966.489 0.265258 2.70201 0
M  V30 10488 C 964.945 2.81215 2.24602 0
M  V30 10489 C 964.553 4.18177 1.60725 0
M  V30 10490 C 966.297 3.00004 3.00329 0
M  V30 10491 C 964.204 5.31247 2.59866 0
M  V30 10492 H 963.134 0.593363 0.465227 0
M  V30 10493 H 965.785 1.76306 0.508769 0
M  V30 10494 H 964.167 2.57783 3.00606 0
M  V30 10495 H 965.341 4.51802 0.90616 0
M  V30 10496 H 963.656 4.04864 0.973362 0
M  V30 10497 H 966.253 3.81649 3.74497 0
M  V30 10498 H 966.596 2.1112 3.58795 0
M  V30 10499 H 967.129 3.23544 2.3144 0
M  V30 10500 H 963.868 6.22236 2.06161 0
M  V30 10501 H 963.388 5.02059 3.28172 0
M  V30 10502 H 965.067 5.61177 3.22009 0
M  V30 10503 N 965.199 -0.738761 1.39212 0
M  V30 10504 C 966.129 -1.86602 1.40364 0
M  V30 10505 C 967.11 -1.67984 0.267495 0
M  V30 10506 O 968.295 -1.88358 0.472765 0
M  V30 10507 C 965.425 -3.24308 1.24265 0
M  V30 10508 C 964.379 -3.57557 2.35239 0
M  V30 10509 C 963.705 -4.94159 2.04233 0
M  V30 10510 C 965.005 -3.60914 3.77543 0
M  V30 10511 H 966.699 -1.85896 2.34698 0
M  V30 10512 H 964.245 -0.892959 1.1297 0
M  V30 10513 H 966.198 -4.02838 1.23692 0
M  V30 10514 H 964.922 -3.25531 0.263974 0
M  V30 10515 H 963.581 -2.81354 2.35022 0
M  V30 10516 H 963.229 -4.91959 1.04813 0
M  V30 10517 H 962.929 -5.17373 2.78567 0
M  V30 10518 H 964.453 -5.7505 2.05303 0
M  V30 10519 H 965.867 -4.29528 3.79709 0
M  V30 10520 H 964.264 -3.95644 4.51205 0
M  V30 10521 H 965.334 -2.60803 4.08791 0
M  V30 10522 N 966.677 -1.24326 -0.968545 0
M  V30 10523 C 967.905 -1.10947 -1.74638 0
M  V30 10524 C 968.32 0.338064 -1.85749 0
M  V30 10525 O 967.677 1.23331 -1.3452 0
M  V30 10526 C 967.728 -1.74254 -3.1673 0
M  V30 10527 O 967.449 -3.13347 -3.06178 0
M  V30 10528 C 968.95 -1.66473 -4.10855 0
M  V30 10529 H 966.17 -0.38767 -0.547679 0
M  V30 10530 H 968.714 -1.64415 -1.21605 0
M  V30 10531 H 966.869 -1.2479 -3.66751 0
M  V30 10532 H 967.283 -3.44255 -3.95713 0
M  V30 10533 H 968.757 -2.15452 -5.08217 0
M  V30 10534 H 969.234 -0.625785 -4.34719 0
M  V30 10535 H 969.84 -2.15359 -3.66743 0
M  V30 10536 N 968.156 1.1691 -1.05688 0
M  V30 10537 C 969.404 1.86922 -0.768409 0
M  V30 10538 C 969.725 1.81735 0.706921 0
M  V30 10539 O 968.995 1.24671 1.51109 0
M  V30 10540 H 967.575 0.69203 -0.281253 0
M  V30 10541 H 970.237 1.41803 -1.33708 0
M  V30 10542 H 969.333 2.92528 -1.08783 0
M  V30 10543 N 969.634 0.838594 1.33437 0
M  V30 10544 C 970.544 0.274048 2.32994 0
M  V30 10545 C 971.56 -0.599776 1.63336 0
M  V30 10546 O 972.736 -0.503963 1.94993 0
M  V30 10547 C 969.801 -0.541804 3.4244 0
M  V30 10548 C 968.862 0.356262 4.27819 0
M  V30 10549 C 968.095 -0.420747 5.32039 0
M  V30 10550 O 968.318 -1.65247 5.45939 0
M  V30 10551 O 967.252 0.205101 6.0155 0
M  V30 10552 H 971.078 1.09846 2.83139 0
M  V30 10553 H 968.663 0.601111 1.36774 0
M  V30 10554 H 970.545 -1.00544 4.0923 0
M  V30 10555 H 969.22 -1.34328 2.94513 0
M  V30 10556 H 968.127 0.867726 3.63897 0
M  V30 10557 H 969.46 1.1225 4.79229 0
M  V30 10558 N 971.112 -1.45937 0.595003 0
M  V30 10559 C 972.389 -1.95592 0.0178748 0
M  V30 10560 C 972.769 -1.53758 -1.44643 0
M  V30 10561 O 972.117 -0.794104 -2.14257 0
M  V30 10562 C 972.327 -3.4841 0.202789 0
M  V30 10563 C 973.675 -4.2453 0.0770121 0
M  V30 10564 O 974.699 -3.55954 0.132257 0
M  V30 10565 O 973.558 -5.46479 -0.0484271 0
M  V30 10566 H 970.652 -0.825888 -0.0428702 0
M  V30 10567 H 973.198 -1.56162 0.664184 0
M  V30 10568 H 971.97 -3.71787 1.22027 0
M  V30 10569 H 971.593 -3.947 -0.479376 0
M  V30 10570 N 972.59 -0.333456 -1.54032 0
M  V30 10571 C 973.836 0.259248 -2.01741 0
M  V30 10572 C 974.191 1.48999 -1.21725 0
M  V30 10573 O 973.484 1.89333 -0.293882 0
M  V30 10574 C 973.678 0.63565 -3.51702 0
M  V30 10575 C 973.507 -0.55707 -4.46236 0
M  V30 10576 C 972.277 -1.05925 -4.94073 0
M  V30 10577 C 974.475 -1.41237 -4.94527 0
M  V30 10578 N 972.457 -2.21535 -5.72534 0
M  V30 10579 C 973.828 -2.41551 -5.71011 0
M  V30 10580 C 975.883 -1.43899 -4.76652 0
M  V30 10581 C 974.586 -3.44342 -6.31523 0
M  V30 10582 C 976.612 -2.45567 -5.38006 0
M  V30 10583 C 975.974 -3.44606 -6.1435 0
M  V30 10584 H 972.073 0.0584431 -0.779813 0
M  V30 10585 H 974.657 -0.470736 -1.88924 0
M  V30 10586 H 972.828 1.33475 -3.64745 0
M  V30 10587 H 974.56 1.21067 -3.86167 0
M  V30 10588 H 971.315 -0.628947 -4.69405 0
M  V30 10589 H 971.739 -2.79878 -6.16439 0
M  V30 10590 H 976.381 -0.686929 -4.17182 0
M  V30 10591 H 974.099 -4.20449 -6.90107 0
M  V30 10592 H 977.685 -2.4844 -5.26088 0
M  V30 10593 H 976.565 -4.21987 -6.60982 0
M  V30 10594 N 974.068 1.57479 -0.061844 0
M  V30 10595 C 975.016 2.13346 0.926629 0
M  V30 10596 C 976.01 1.06787 1.31502 0
M  V30 10597 O 977.216 1.25181 1.29343 0
M  V30 10598 H 973.591 0.682046 0.316729 0
M  V30 10599 H 975.562 2.95279 0.430424 0
M  V30 10600 C 974.311 2.70198 2.18834 0
M  V30 10601 H 973.634 3.51859 1.89829 0
M  V30 10602 H 975.074 3.12897 2.86132 0
M  V30 10603 C 973.533 1.64481 2.9402 0
M  V30 10604 O 974.063 1.0639 3.87355 0
M  V30 10605 N 972.269 1.35749 2.56944 0
M  V30 10606 H 971.816 1.83177 1.81119 0
M  V30 10607 H 971.774 0.652469 3.07555 0
M  V30 10608 N 975.546 -0.211634 1.56173 0
M  V30 10609 C 976.456 -1.2831 1.96402 0
M  V30 10610 C 977.472 -1.50731 0.869254 0
M  V30 10611 O 978.648 -1.63669 1.17365 0
M  V30 10612 C 975.713 -2.61084 2.28114 0
M  V30 10613 C 974.774 -2.46879 3.51211 0
M  V30 10614 C 974.007 -3.73321 3.81401 0
M  V30 10615 O 974.23 -4.76773 3.13119 0
M  V30 10616 O 973.164 -3.69839 4.74871 0
M  V30 10617 H 976.99 -0.971733 2.87734 0
M  V30 10618 H 974.575 -0.415305 1.43512 0
M  V30 10619 H 976.457 -3.39481 2.49661 0
M  V30 10620 H 975.132 -2.91881 1.39954 0
M  V30 10621 H 974.039 -1.66648 3.34932 0
M  V30 10622 H 975.372 -2.21018 4.39786 0
M  V30 10623 N 977.024 -1.50153 -0.478725 0
M  V30 10624 C 978.27 -1.60998 -1.23318 0
M  V30 10625 C 978.603 -0.305868 -1.91776 0
M  V30 10626 O 977.878 0.692158 -1.81767 0
M  V30 10627 C 978.161 -2.78495 -2.28282 0
M  V30 10628 C 978.014 -4.18767 -1.64178 0
M  V30 10629 C 979.333 -2.91569 -3.2966 0
M  V30 10630 H 976.452 -0.585983 -0.446982 0
M  V30 10631 H 979.094 -1.82514 -0.528063 0
M  V30 10632 H 977.244 -2.60281 -2.8842 0
M  V30 10633 H 978.916 -4.48552 -1.07696 0
M  V30 10634 H 977.159 -4.23379 -0.94514 0
M  V30 10635 H 977.83 -4.96894 -2.40417 0
M  V30 10636 H 980.306 -3.08219 -2.79536 0
M  V30 10637 H 979.182 -3.75419 -4.0044 0
M  V30 10638 H 979.443 -2.01859 -3.93326 0
M  V30 10639 N 978.502 0.731368 -1.39602 0
M  V30 10640 C 979.435 1.85433 -1.33004 0
M  V30 10641 C 980.413 1.61327 -0.20307 0
M  V30 10642 O 981.597 1.84545 -0.384124 0
M  V30 10643 C 978.724 3.21483 -1.06613 0
M  V30 10644 C 977.77 3.64443 -2.21549 0
M  V30 10645 S 978.603 3.73387 -3.83852 0
M  V30 10646 C 979.759 5.12222 -3.59694 0
M  V30 10647 H 979.992 1.90747 -2.28041 0
M  V30 10648 H 977.525 0.89659 -1.25701 0
M  V30 10649 H 979.483 4.00041 -0.920719 0
M  V30 10650 H 978.144 3.1382 -0.132563 0
M  V30 10651 H 977.337 4.63185 -1.98686 0
M  V30 10652 H 976.939 2.93099 -2.32312 0
M  V30 10653 H 979.231 5.98666 -3.17184 0
M  V30 10654 H 980.174 5.40115 -4.5791 0
M  V30 10655 H 980.582 4.8207 -2.93716 0
M  V30 10656 N 979.98 1.24838 0.961938 0
M  V30 10657 C 981.21 1.11709 1.73795 0
M  V30 10658 C 981.618 -0.33263 1.86253 0
M  V30 10659 O 980.961 -1.24101 1.35443 0
M  V30 10660 C 981.023 1.68959 3.17322 0
M  V30 10661 C 980.687 3.17895 3.28316 0
M  V30 10662 C 981.684 4.14975 3.13196 0
M  V30 10663 C 979.369 3.57966 3.52372 0
M  V30 10664 C 981.363 5.50107 3.21965 0
M  V30 10665 C 979.05 4.93237 3.60778 0
M  V30 10666 C 980.048 5.89116 3.45588 0
M  V30 10667 O 979.736 7.21927 3.53662 0
M  V30 10668 H 979.468 0.390726 0.551642 0
M  V30 10669 H 982.022 1.65541 1.21594 0
M  V30 10670 H 980.252 1.09567 3.70853 0
M  V30 10671 H 981.941 1.51036 3.76753 0
M  V30 10672 H 982.707 3.85359 2.94489 0
M  V30 10673 H 978.586 2.83837 3.63259 0
M  V30 10674 H 982.13 6.24924 3.10025 0
M  V30 10675 H 978.027 5.22522 3.79 0
M  V30 10676 H 978.795 7.29925 3.7034 0
M  V30 10677 N 981.458 -1.16348 1.06306 0
M  V30 10678 C 982.406 -2.22799 0.668087 0
M  V30 10679 C 983.4 -1.66426 -0.316051 0
M  V30 10680 O 984.606 -1.79089 -0.180902 0
M  V30 10681 H 980.981 -0.725487 0.19792 0
M  V30 10682 H 982.952 -2.53401 1.57577 0
M  V30 10683 C 981.701 -3.47628 0.0706797 0
M  V30 10684 H 981.024 -3.9132 0.819064 0
M  V30 10685 H 982.464 -4.23666 -0.16816 0
M  V30 10686 C 980.923 -3.15343 -1.18577 0
M  V30 10687 O 981.453 -3.31158 -2.27371 0
M  V30 10688 N 979.659 -2.69472 -1.08779 0
M  V30 10689 H 979.206 -2.56803 -0.202447 0
M  V30 10690 H 979.164 -2.48244 -1.92931 0
M  V30 10691 N 982.937 -0.845659 -1.3299 0
M  V30 10692 C 984.185 -0.443774 -1.97168 0
M  V30 10693 C 984.506 1.00192 -1.67292 0
M  V30 10694 O 983.776 1.69891 -0.975397 0
M  V30 10695 H 982.356 -0.161111 -0.729419 0
M  V30 10696 H 985.018 -1.08011 -1.62233 0
M  V30 10697 H 984.114 -0.581414 -3.06637 0
M  V30 10698 N 984.415 1.45619 -0.602734 0
M  V30 10699 C 985.664 2.01483 -0.0936395 0
M  V30 10700 C 985.977 1.47753 1.28173 0
M  V30 10701 O 987.183 1.95562 1.88329 0
M  V30 10702 C 985.639 3.59711 -0.116738 0
M  V30 10703 C 985.247 4.22437 -1.49166 0
M  V30 10704 C 986.991 4.23157 0.337368 0
M  V30 10705 C 984.898 5.72803 -1.47141 0
M  V30 10706 H 983.828 0.753353 -0.0312382 0
M  V30 10707 H 986.479 1.67142 -0.757347 0
M  V30 10708 H 984.861 3.91218 0.613529 0
M  V30 10709 H 986.035 4.02511 -2.24325 0
M  V30 10710 H 984.35 3.71166 -1.88746 0
M  V30 10711 H 986.947 5.33407 0.371628 0
M  V30 10712 H 987.29 3.93491 1.35906 0
M  V30 10713 H 987.823 3.96349 -0.339474 0
M  V30 10714 H 984.562 6.07161 -2.47055 0
M  V30 10715 H 984.082 5.94936 -0.762329 0
M  V30 10716 H 985.761 6.35907 -1.19294 0
M  V30 10717 N 985.893 0.34162 1.53853 0
M  V30 10718 C 987.309 -0.0103769 1.59597 0
M  V30 10719 C 987.509 -1.48897 1.35764 0
M  V30 10720 O 986.565 -2.24743 1.15095 0
M  V30 10721 C 987.878 0.424067 2.97695 0
M  V30 10722 C 989.426 0.376247 3.1073 0
M  V30 10723 C 989.901 0.786129 4.51203 0
M  V30 10724 N 991.392 0.74024 4.57247 0
M  V30 10725 C 992.127 1.02937 5.64085 0
M  V30 10726 N 991.623 1.38655 6.78783 0
M  V30 10727 N 993.416 0.953734 5.5395 0
M  V30 10728 H 985.567 1.30477 1.67599 0
M  V30 10729 H 987.83 0.531753 0.78482 0
M  V30 10730 H 987.536 1.45493 3.20195 0
M  V30 10731 H 987.41 -0.201713 3.7666 0
M  V30 10732 H 989.797 -0.645441 2.87955 0
M  V30 10733 H 989.878 1.0372 2.33828 0
M  V30 10734 H 989.522 1.80582 4.74713 0
M  V30 10735 H 989.452 0.102671 5.265 0
M  V30 10736 H 991.943 0.476763 3.7488 0
M  V30 10737 H 992.256 1.59206 7.56223 0
M  V30 10738 H 990.601 1.42498 6.80235 0
M  V30 10739 H 993.792 0.674044 4.63222 0
M  V30 10740 H 993.965 1.18241 6.37121 0
M  V30 10741 N 987.371 -1.57444 0.0701946 0
M  V30 10742 C 988.596 -1.98171 -0.61181 0
M  V30 10743 C 989.021 -0.94823 -1.62451 0
M  V30 10744 O 988.379 0.0863553 -1.81094 0
M  V30 10745 C 988.427 -3.37934 -1.2583 0
M  V30 10746 O 987.531 -3.37207 -2.37414 0
M  V30 10747 H 986.872 -0.645056 -0.157477 0
M  V30 10748 H 989.402 -2.04091 0.144235 0
M  V30 10749 H 989.412 -3.75083 -1.60552 0
M  V30 10750 H 988.087 -4.12684 -0.516234 0
M  V30 10751 H 986.664 -3.11826 -2.04497 0
M  V30 10752 N 988.849 0.203349 -1.56283 0
M  V30 10753 C 989.781 1.27592 -1.90402 0
M  V30 10754 C 990.794 1.4213 -0.79391 0
M  V30 10755 O 991.983 1.42703 -1.07229 0
M  V30 10756 C 989.083 2.64919 -2.11356 0
M  V30 10757 C 988.256 2.72095 -3.42466 0
M  V30 10758 C 987.315 3.9056 -3.52631 0
M  V30 10759 O 986.341 3.78048 -4.25521 0
M  V30 10760 N 987.543 5.0566 -2.85111 0
M  V30 10761 H 990.308 0.986423 -2.83001 0
M  V30 10762 H 987.869 0.39331 -1.5705 0
M  V30 10763 H 989.861 3.42581 -2.15453 0
M  V30 10764 H 988.431 2.86391 -1.25295 0
M  V30 10765 H 987.651 1.8077 -3.50308 0
M  V30 10766 H 988.939 2.73874 -4.28801 0
M  V30 10767 H 988.337 5.18723 -2.25705 0
M  V30 10768 H 986.894 5.81299 -2.94847 0
M  V30 10769 N 990.327 1.50405 0.470755 0
M  V30 10770 C 991.575 1.61092 1.2204 0
M  V30 10771 C 991.896 0.313487 1.92464 0
M  V30 10772 O 991.166 -0.669043 1.84121 0
M  V30 10773 H 989.746 0.593618 0.45346 0
M  V30 10774 H 992.408 1.87184 0.542985 0
M  V30 10775 H 991.504 2.42222 1.96812 0
M  V30 10776 N 991.805 -0.723954 1.39988 0
M  V30 10777 C 993.053 -1.48078 1.3754 0
M  V30 10778 C 993.374 -1.94985 -0.0243358 0
M  V30 10779 O 992.644 -1.69764 -0.977602 0
M  V30 10780 H 991.224 -0.549354 0.506181 0
M  V30 10781 H 993.886 -0.858746 1.74962 0
M  V30 10782 H 992.982 -2.35763 2.04505 0
M  V30 10783 N 993.283 -1.25346 -0.955304 0
M  V30 10784 C 994.529 -1.10218 -1.70235 0
M  V30 10785 C 994.862 0.356124 -1.90907 0
M  V30 10786 O 994.137 1.26253 -1.47954 0
M  V30 10787 C 994.42 -1.85627 -3.08569 0
M  V30 10788 C 994.273 -3.39281 -2.95311 0
M  V30 10789 C 995.592 -1.63886 -4.08448 0
M  V30 10790 H 992.711 -0.401781 -0.617852 0
M  V30 10791 H 995.353 -1.5417 -1.11048 0
M  V30 10792 H 993.503 -1.48269 -3.59094 0
M  V30 10793 H 995.175 -3.8631 -2.52116 0
M  V30 10794 H 993.418 -3.67027 -2.31244 0
M  V30 10795 H 994.089 -3.87258 -3.93364 0
M  V30 10796 H 996.565 -1.96406 -3.6683 0
M  V30 10797 H 995.441 -2.19087 -5.03281 0
M  V30 10798 H 995.702 -0.580021 -4.38279 0
M  V30 10799 N 994.761 1.15782 -1.06922 0
M  V30 10800 C 995.986 1.90896 -0.810771 0
M  V30 10801 C 996.411 1.77246 0.629714 0
M  V30 10802 O 995.769 1.10215 1.43953 0
M  V30 10803 C 995.817 3.39397 -1.21829 0
M  V30 10804 O 994.921 4.10818 -0.360934 0
M  V30 10805 H 994.262 0.594497 -0.295752 0
M  V30 10806 H 996.792 1.46652 -1.42669 0
M  V30 10807 H 996.802 3.90181 -1.19259 0
M  V30 10808 H 995.477 3.4865 -2.2675 0
M  V30 10809 H 994.054 3.7019 -0.448748 0
M  V30 10810 N 996.239 0.8527 1.3254 0
M  V30 10811 C 997.464 0.468157 2.02047 0
M  V30 10812 C 997.889 -0.926967 1.63673 0
M  V30 10813 O 997.247 -1.60855 0.836378 0
M  V30 10814 C 997.295 0.612519 3.5536 0
M  V30 10815 O 996.399 -0.355506 4.10865 0
M  V30 10816 H 995.74 0.188401 0.636711 0
M  V30 10817 H 998.27 1.15135 1.6913 0
M  V30 10818 H 998.28 0.499315 4.04933 0
M  V30 10819 H 996.955 1.62988 3.82632 0
M  V30 10820 H 995.532 -0.198703 3.7237 0
M  V30 10821 N 997.718 -1.45297 0.610449 0
M  V30 10822 C 998.966 -2.01819 0.106548 0
M  V30 10823 C 999.287 -1.48102 -1.26849 0
M  V30 10824 O 998.557 -0.676411 -1.83852 0
M  V30 10825 H 997.137 -0.746113 0.0363982 0
M  V30 10826 H 999.799 -1.78061 0.792491 0
M  V30 10827 H 998.895 -3.12045 0.0585 0
M  V30 10828 N 999.196 -0.349774 -1.5367 0
M  V30 10829 C 1000.13 0.547309 -2.2154 0
M  V30 10830 C 1001.11 1.09543 -1.20163 0
M  V30 10831 O 1002.29 1.15453 -1.49006 0
M  V30 10832 C 999.418 1.75356 -2.89772 0
M  V30 10833 C 998.464 1.33433 -4.0509 0
M  V30 10834 S 999.297 0.348891 -5.34362 0
M  V30 10835 C 1000.45 1.56183 -6.061 0
M  V30 10836 H 1000.69 -0.0291392 -2.97286 0
M  V30 10837 H 998.219 -0.133853 -1.53819 0
M  V30 10838 H 1000.18 2.44555 -3.29701 0
M  V30 10839 H 998.838 2.30123 -2.1378 0
M  V30 10840 H 998.031 2.23388 -4.5179 0
M  V30 10841 H 997.633 0.721746 -3.6697 0
M  V30 10842 H 999.925 2.49535 -6.29872 0
M  V30 10843 H 1000.87 1.13651 -6.9892 0
M  V30 10844 H 1001.28 1.76071 -5.36339 0
M  V30 10845 N 1000.67 1.57404 -0.0785433 0
M  V30 10846 C 1001.92 1.9484 0.583853 0
M  V30 10847 C 1002.27 0.958758 1.6681 0
M  V30 10848 O 1001.57 -0.0179065 1.91592 0
M  V30 10849 C 1001.76 3.36684 1.1991 0
M  V30 10850 C 1001.59 4.49356 0.175978 0
M  V30 10851 C 1000.36 5.04721 -0.241733 0
M  V30 10852 C 1002.56 5.10911 -0.589415 0
M  V30 10853 N 1000.54 6.00938 -1.25485 0
M  V30 10854 C 1001.91 6.0269 -1.45483 0
M  V30 10855 C 1003.97 4.93708 -0.644746 0
M  V30 10856 C 1002.67 6.79111 -2.37066 0
M  V30 10857 C 1004.7 5.70778 -1.54812 0
M  V30 10858 C 1004.06 6.6221 -2.40119 0
M  V30 10859 H 1000.16 0.75993 0.184472 0
M  V30 10860 H 1002.74 1.94064 -0.157259 0
M  V30 10861 H 1000.91 3.38186 1.91011 0
M  V30 10862 H 1002.64 3.6134 1.82251 0
M  V30 10863 H 999.399 4.73385 0.142732 0
M  V30 10864 H 999.823 6.53746 -1.75912 0
M  V30 10865 H 1004.46 4.228 0.000601434 0
M  V30 10866 H 1002.18 7.49292 -3.02634 0
M  V30 10867 H 1005.77 5.59485 -1.59586 0
M  V30 10868 H 1004.65 7.20804 -3.08887 0
M  V30 10869 N 1002.15 -0.195058 1.56388 0
M  V30 10870 C 1003.38 -0.935745 1.85091 0
M  V30 10871 C 1003.8 -1.76061 0.662118 0
M  V30 10872 O 1003.16 -1.77076 -0.389083 0
M  V30 10873 C 1003.21 -1.80764 3.1202 0
M  V30 10874 O 1002.31 -2.90643 2.92575 0
M  V30 10875 H 1001.65 -0.26351 0.609474 0
M  V30 10876 H 1004.18 -0.200362 2.03617 0
M  V30 10877 H 1004.19 -2.21229 3.42815 0
M  V30 10878 H 1002.87 -1.20157 3.98165 0
M  V30 10879 H 1001.44 -2.53934 2.73079 0
M  V30 10880 N 1003.63 -1.50653 -0.462772 0
M  V30 10881 C 1004.59 -1.69561 -1.54213 0
M  V30 10882 C 1005.59 -0.566106 -1.50505 0
M  V30 10883 O 1006.78 -0.833273 -1.52978 0
M  V30 10884 C 1003.91 -1.72856 -2.93826 0
M  V30 10885 H 1005.11 -2.65867 -1.38761 0
M  V30 10886 H 1002.66 -1.40259 -0.689728 0
M  V30 10887 H 1003.4 -0.78273 -3.14712 0
M  V30 10888 H 1003.18 -2.54919 -2.97924 0
M  V30 10889 H 1004.67 -1.89411 -3.72174 0
M  V30 10890 N 1005.11 0.71652 -1.4037 0
M  V30 10891 C 1006.36 1.47193 -1.37903 0
M  V30 10892 C 1006.67 1.95593 0.0159939 0
M  V30 10893 O 1007.88 2.71009 0.163282 0
M  V30 10894 C 1006.33 2.6606 -2.42363 0
M  V30 10895 C 1005.94 2.24533 -3.87671 0
M  V30 10896 C 1007.68 3.438 -2.49001 0
M  V30 10897 C 1005.59 3.40234 -4.8373 0
M  V30 10898 H 1004.52 0.552811 -0.512753 0
M  V30 10899 H 1007.17 0.779894 -1.66102 0
M  V30 10900 H 1005.55 3.37429 -2.07262 0
M  V30 10901 H 1006.73 1.6059 -4.31911 0
M  V30 10902 H 1005.04 1.59839 -3.845 0
M  V30 10903 H 1007.64 4.29893 -3.17956 0
M  V30 10904 H 1007.98 3.8755 -1.52023 0
M  V30 10905 H 1008.52 2.79474 -2.83088 0
M  V30 10906 H 1005.26 3.01517 -5.82037 0
M  V30 10907 H 1004.78 4.03095 -4.44156 0
M  V30 10908 H 1006.45 4.06312 -5.03507 0
M  V30 10909 N 1006.59 1.25851 0.948643 0
M  V30 10910 C 1007.82 1.13546 1.726 0
M  V30 10911 C 1008.22 -0.312857 1.86595 0
M  V30 10912 O 1007.57 -1.22657 1.36751 0
M  V30 10913 C 1007.63 1.72315 3.15512 0
M  V30 10914 C 1007.29 3.2136 3.24926 0
M  V30 10915 C 1008.29 4.18274 3.08777 0
M  V30 10916 C 1005.98 3.61683 3.48555 0
M  V30 10917 C 1007.97 5.53491 3.16112 0
M  V30 10918 C 1005.66 4.97035 3.55526 0
M  V30 10919 C 1006.65 5.92749 3.3932 0
M  V30 10920 O 1006.34 7.25637 3.45985 0
M  V30 10921 H 1006.07 0.396555 0.547467 0
M  V30 10922 H 1008.63 1.66822 1.19832 0
M  V30 10923 H 1006.86 1.13494 3.6967 0
M  V30 10924 H 1008.55 1.55024 3.7513 0
M  V30 10925 H 1009.31 3.88461 2.90385 0
M  V30 10926 H 1005.19 2.87674 3.60229 0
M  V30 10927 H 1008.74 6.28177 3.0338 0
M  V30 10928 H 1004.63 5.26512 3.73437 0
M  V30 10929 H 1005.4 7.33812 3.62577 0
M  V30 10930 N 1008.06 -1.15214 1.07534 0
M  V30 10931 C 1009.31 -1.86043 0.799629 0
M  V30 10932 C 1009.64 -1.82435 -0.674356 0
M  V30 10933 O 1008.89 -1.24379 -1.51091 0
M  V30 10934 C 1009.19 -3.34623 1.25547 0
M  V30 10935 C 1008.86 -3.58425 2.73573 0
M  V30 10936 C 1007.52 -3.6463 3.14004 0
M  V30 10937 C 1009.87 -3.67977 3.6911 0
M  V30 10938 C 1007.2 -3.779 4.48786 0
M  V30 10939 C 1009.55 -3.82771 5.03656 0
M  V30 10940 C 1008.22 -3.87222 5.43705 0
M  V30 10941 H 1007.49 -0.680781 0.292605 0
M  V30 10942 H 1010.13 -1.36149 1.34669 0
M  V30 10943 H 1008.44 -3.86737 0.627828 0
M  V30 10944 H 1010.14 -3.87836 1.01901 0
M  V30 10945 H 1006.73 -3.54238 2.41275 0
M  V30 10946 H 1010.91 -3.62482 3.39 0
M  V30 10947 H 1006.17 -3.79604 4.79281 0
M  V30 10948 H 1010.34 -3.89104 5.77556 0
M  V30 10949 H 1007.97 -3.97256 6.48145 0
M  V30 10950 N 1009.54 -0.859717 -1.32086 0
M  V30 10951 C 1010.79 -0.461779 -1.96343 0
M  V30 10952 C 1011.1 0.988837 -1.68764 0
M  V30 10953 O 1012.31 1.49244 -2.268 0
M  V30 10954 C 1010.77 -0.77484 -3.5146 0
M  V30 10955 C 1010.37 -2.24153 -3.87891 0
M  V30 10956 C 1012.12 -0.444873 -4.22162 0
M  V30 10957 C 1010.03 -2.49754 -5.36075 0
M  V30 10958 H 1008.96 -0.168951 -0.734828 0
M  V30 10959 H 1011.61 -1.0512 -1.50406 0
M  V30 10960 H 1009.99 -0.114792 -3.95834 0
M  V30 10961 H 1011.16 -2.94378 -3.54511 0
M  V30 10962 H 1009.48 -2.53651 -3.30227 0
M  V30 10963 H 1012.07 -0.613508 -5.31169 0
M  V30 10964 H 1012.42 0.61391 -4.11749 0
M  V30 10965 H 1012.95 -1.06103 -3.83389 0
M  V30 10966 H 1009.69 -3.54276 -5.51515 0
M  V30 10967 H 1009.21 -1.84112 -5.70844 0
M  V30 10968 H 1010.89 -2.3396 -6.03218 0
M  V30 10969 N 1011.02 1.44971 -0.618145 0
M  V30 10970 C 1012.27 2.02458 -0.117656 0
M  V30 10971 C 1012.6 1.48413 1.25248 0
M  V30 10972 O 1011.87 0.662997 1.82851 0
M  V30 10973 C 1012.16 3.59987 -0.0901897 0
M  V30 10974 C 1012.01 4.24343 -1.49175 0
M  V30 10975 C 1013.33 4.36099 0.592121 0
M  V30 10976 H 1010.45 0.735672 -0.0442291 0
M  V30 10977 H 1013.09 1.727 -0.792138 0
M  V30 10978 H 1011.24 3.85471 0.484175 0
M  V30 10979 H 1012.91 4.10009 -2.114 0
M  V30 10980 H 1011.16 3.82337 -2.04941 0
M  V30 10981 H 1011.83 5.33298 -1.42468 0
M  V30 10982 H 1014.3 4.1597 0.103813 0
M  V30 10983 H 1013.18 5.45822 0.580481 0
M  V30 10984 H 1013.44 4.09746 1.66015 0
M  V30 10985 N 1012.5 0.357919 1.53482 0
M  V30 10986 C 1013.43 -0.484231 2.28424 0
M  V30 10987 C 1014.41 -1.09046 1.30548 0
M  V30 10988 O 1015.59 -1.10916 1.59409 0
M  V30 10989 C 1012.72 -1.62803 3.06778 0
M  V30 10990 C 1011.68 -1.14943 4.12277 0
M  V30 10991 C 1011 -2.38287 4.78669 0
M  V30 10992 C 1012.3 -0.239627 5.2175 0
M  V30 10993 H 1014 0.140979 2.99068 0
M  V30 10994 H 1011.54 0.069244 1.43833 0
M  V30 10995 H 1013.5 -2.22374 3.57949 0
M  V30 10996 H 1012.22 -2.28036 2.3381 0
M  V30 10997 H 1010.88 -0.576442 3.6204 0
M  V30 10998 H 1010.53 -3.01959 4.02281 0
M  V30 10999 H 1010.23 -2.06939 5.49955 0
M  V30 11000 H 1011.75 -2.98558 5.32631 0
M  V30 11001 H 1013.17 -0.742597 5.6847 0
M  V30 11002 H 1011.56 -0.0173747 6.00097 0
M  V30 11003 H 1012.63 0.720333 4.7952 0
M  V30 11004 N 1013.98 -1.5736 0.0868897 0
M  V30 11005 C 1015.2 -1.98388 -0.587349 0
M  V30 11006 C 1015.62 -0.965757 -1.6223 0
M  V30 11007 O 1014.98 0.0456981 -1.82443 0
M  V30 11008 C 1015.03 -3.39479 -1.24242 0
M  V30 11009 O 1014.75 -4.37393 -0.248878 0
M  V30 11010 C 1016.25 -3.95465 -2.00305 0
M  V30 11011 H 1013.47 -0.652111 -0.15809 0
M  V30 11012 H 1016.01 -2.03843 0.163754 0
M  V30 11013 H 1014.17 -3.35063 -1.94451 0
M  V30 11014 H 1014.58 -5.19525 -0.720678 0
M  V30 11015 H 1016.06 -4.96363 -2.41511 0
M  V30 11016 H 1016.53 -3.32832 -2.86565 0
M  V30 11017 H 1017.14 -4.03328 -1.34931 0
M  V30 11018 N 1015.45 0.186762 -1.56489 0
M  V30 11019 C 1016.38 1.23395 -1.98232 0
M  V30 11020 C 1017.37 1.4702 -0.855526 0
M  V30 11021 O 1018.55 1.58616 -1.12048 0
M  V30 11022 C 1015.68 2.57635 -2.32898 0
M  V30 11023 C 1014.63 2.48607 -3.48394 0
M  V30 11024 C 1013.96 3.87196 -3.68759 0
M  V30 11025 C 1015.26 2.00398 -4.82325 0
M  V30 11026 H 1016.95 0.887026 -2.85958 0
M  V30 11027 H 1014.5 0.42525 -1.37578 0
M  V30 11028 H 1016.45 3.31082 -2.60696 0
M  V30 11029 H 1015.18 2.94084 -1.42064 0
M  V30 11030 H 1013.84 1.77615 -3.207 0
M  V30 11031 H 1013.48 4.21012 -2.75241 0
M  V30 11032 H 1013.18 3.82029 -4.46462 0
M  V30 11033 H 1014.71 4.62253 -3.98941 0
M  V30 11034 H 1016.12 2.6361 -5.091 0
M  V30 11035 H 1014.52 2.06214 -5.63556 0
M  V30 11036 H 1015.59 0.957562 -4.75351 0
M  V30 11037 N 1016.93 1.50896 0.454776 0
M  V30 11038 C 1018.18 1.62699 1.20562 0
M  V30 11039 C 1018.51 0.334943 1.91594 0
M  V30 11040 O 1017.76 -0.680106 1.83502 0
M  V30 11041 C 1018.06 2.76839 2.26042 0
M  V30 11042 C 1017.73 4.16745 1.72147 0
M  V30 11043 C 1016.39 4.54809 1.5717 0
M  V30 11044 C 1018.74 5.04118 1.32341 0
M  V30 11045 C 1016.07 5.7797 1.00835 0
M  V30 11046 C 1018.42 6.27842 0.774419 0
M  V30 11047 C 1017.09 6.64694 0.611415 0
M  V30 11048 H 1016.36 0.595358 0.441169 0
M  V30 11049 H 1019 1.84879 0.499202 0
M  V30 11050 H 1017.31 2.48812 3.02655 0
M  V30 11051 H 1019 2.83173 2.83926 0
M  V30 11052 H 1015.59 3.86725 1.84775 0
M  V30 11053 H 1019.78 4.75331 1.42739 0
M  V30 11054 H 1015.03 6.05183 0.869669 0
M  V30 11055 H 1019.21 6.94896 0.457389 0
M  V30 11056 H 1016.84 7.60004 0.172751 0
M  V30 11057 N 1018.41 -0.709066 1.40748 0
M  V30 11058 C 1019.66 -1.46611 1.39103 0
M  V30 11059 C 1019.98 -1.95 -0.00365366 0
M  V30 11060 O 1019.25 -1.70791 -0.959541 0
M  V30 11061 H 1017.83 -0.543954 0.511979 0
M  V30 11062 H 1020.49 -0.840141 1.75863 0
M  V30 11063 H 1019.59 -2.33581 2.06994 0
M  V30 11064 N 1019.89 -1.26353 -0.941956 0
M  V30 11065 C 1020.84 -1.07654 -2.06188 0
M  V30 11066 C 1021.83 -0.00369741 -1.694 0
M  V30 11067 O 1023.04 -0.160316 -1.79285 0
M  V30 11068 H 1019.41 -0.331274 -0.675101 0
M  V30 11069 H 1021.38 -2.02566 -2.19111 0
M  V30 11070 C 1020.13 -0.725436 -3.40048 0
M  V30 11071 H 1019.46 -1.54283 -3.68832 0
M  V30 11072 H 1020.9 -0.634383 -4.19227 0
M  V30 11073 C 1019.35 0.569369 -3.32054 0
M  V30 11074 O 1019.88 1.60791 -3.68116 0
M  V30 11075 N 1018.09 0.559714 -2.85159 0
M  V30 11076 H 1017.64 -0.285817 -2.56009 0
M  V30 11077 H 1017.6 1.42617 -2.80193 0
M  V30 11078 N 1021.37 1.14642 -1.08144 0
M  V30 11079 C 1022.6 1.89209 -0.82966 0
M  V30 11080 C 1023.01 1.78697 0.621604 0
M  V30 11081 O 1022.35 1.14224 1.4387 0
M  V30 11082 C 1022.41 3.39958 -1.16915 0
M  V30 11083 C 1022.07 3.74254 -2.62264 0
M  V30 11084 C 1023.07 3.746 -3.60514 0
M  V30 11085 C 1020.76 4.04316 -2.9805 0
M  V30 11086 C 1022.75 4.04527 -4.92582 0
M  V30 11087 C 1020.44 4.33906 -4.30312 0
M  V30 11088 C 1021.44 4.33995 -5.27388 0
M  V30 11089 O 1021.12 4.62869 -6.57273 0
M  V30 11090 H 1020.86 0.606259 -0.299042 0
M  V30 11091 H 1023.41 1.46132 -1.44342 0
M  V30 11092 H 1021.64 3.83475 -0.498377 0
M  V30 11093 H 1023.33 3.95828 -0.89862 0
M  V30 11094 H 1024.09 3.51466 -3.34211 0
M  V30 11095 H 1019.97 4.03402 -2.23132 0
M  V30 11096 H 1023.52 4.04511 -5.68346 0
M  V30 11097 H 1019.41 4.5651 -4.56365 0
M  V30 11098 H 1020.18 4.80598 -6.62546 0
M  V30 11099 N 1022.85 0.866709 1.31628 0
M  V30 11100 C 1024.07 0.49039 2.01004 0
M  V30 11101 C 1024.49 -0.916244 1.65077 0
M  V30 11102 O 1023.85 -1.59975 0.8783 0
M  V30 11103 C 1023.9 0.634011 3.55897 0
M  V30 11104 O 1023.62 1.98525 3.90537 0
M  V30 11105 C 1025.12 0.258277 4.42547 0
M  V30 11106 H 1022.34 0.191421 0.643117 0
M  V30 11107 H 1024.88 1.16698 1.67934 0
M  V30 11108 H 1023.04 0.00501801 3.874 0
M  V30 11109 H 1023.45 1.99067 4.85255 0
M  V30 11110 H 1024.93 0.409733 5.50477 0
M  V30 11111 H 1025.4 -0.802301 4.3181 0
M  V30 11112 H 1026.01 0.862837 4.16456 0
M  V30 11113 N 1024.32 -1.44642 0.625825 0
M  V30 11114 C 1025.25 -2.33397 -0.0692188 0
M  V30 11115 C 1026.23 -1.47898 -0.840241 0
M  V30 11116 O 1027.42 -1.7663 -0.807176 0
M  V30 11117 C 1024.55 -3.30888 -1.055 0
M  V30 11118 C 1023.5 -4.26164 -0.395968 0
M  V30 11119 C 1022.83 -5.13483 -1.49128 0
M  V30 11120 C 1024.13 -5.17663 0.694433 0
M  V30 11121 H 1025.82 -2.91763 0.671925 0
M  V30 11122 H 1023.37 -1.40294 0.324573 0
M  V30 11123 H 1025.32 -3.91861 -1.54993 0
M  V30 11124 H 1024.05 -2.7072 -1.82696 0
M  V30 11125 H 1022.71 -3.66516 0.0782691 0
M  V30 11126 H 1022.35 -4.49672 -2.25399 0
M  V30 11127 H 1022.05 -5.78038 -1.05573 0
M  V30 11128 H 1023.58 -5.77327 -1.98813 0
M  V30 11129 H 1024.99 -5.72602 0.282818 0
M  V30 11130 H 1023.39 -5.90793 1.05281 0
M  V30 11131 H 1024.46 -4.58994 1.56372 0
M  V30 11132 N 1025.8 -0.366053 -1.5329 0
M  V30 11133 C 1026.73 0.47211 -2.28677 0
M  V30 11134 C 1027.71 1.08353 -1.31125 0
M  V30 11135 O 1028.9 1.10069 -1.59995 0
M  V30 11136 C 1026.03 1.61174 -3.07637 0
M  V30 11137 C 1024.98 1.12755 -4.12881 0
M  V30 11138 C 1024.31 2.35745 -4.79925 0
M  V30 11139 C 1025.61 0.211954 -5.2187 0
M  V30 11140 H 1027.3 -0.156838 -2.98989 0
M  V30 11141 H 1024.85 -0.0768709 -1.43795 0
M  V30 11142 H 1026.8 2.20473 -3.59123 0
M  V30 11143 H 1025.52 2.26793 -2.35016 0
M  V30 11144 H 1024.18 0.557234 -3.6234 0
M  V30 11145 H 1023.83 2.99821 -4.03877 0
M  V30 11146 H 1023.53 2.04019 -5.51044 0
M  V30 11147 H 1025.06 2.95729 -5.34207 0
M  V30 11148 H 1026.47 0.71244 -5.68856 0
M  V30 11149 H 1024.87 -0.0144501 -6.00098 0
M  V30 11150 H 1025.94 -0.745753 -4.79131 0
M  V30 11151 N 1027.28 1.57312 -0.0952337 0
M  V30 11152 C 1028.23 2.15263 0.881167 0
M  V30 11153 C 1029.22 1.09552 1.29208 0
M  V30 11154 O 1030.43 1.27897 1.26659 0
M  V30 11155 H 1026.8 0.688611 0.302191 0
M  V30 11156 H 1028.77 2.96126 0.367694 0
M  V30 11157 C 1027.52 2.74779 2.13053 0
M  V30 11158 H 1026.85 3.55807 1.82323 0
M  V30 11159 H 1028.29 3.18895 2.79431 0
M  V30 11160 C 1026.74 1.7068 2.90465 0
M  V30 11161 O 1027.27 1.14582 3.85011 0
M  V30 11162 N 1025.48 1.41169 2.54007 0
M  V30 11163 H 1025.03 1.86977 1.77193 0
M  V30 11164 H 1024.99 0.717559 3.06102 0
M  V30 11165 N 1028.76 -0.17846 1.56586 0
M  V30 11166 C 1030 -0.897562 1.81856 0
M  V30 11167 C 1030.34 -1.82204 0.671955 0
M  V30 11168 O 1029.61 -1.91739 -0.326535 0
M  V30 11169 C 1029.89 -1.69942 3.17477 0
M  V30 11170 C 1029.75 -0.798545 4.42655 0
M  V30 11171 C 1031.07 -2.66861 3.49962 0
M  V30 11172 H 1028.19 -0.324863 0.661539 0
M  V30 11173 H 1030.83 -0.164106 1.8929 0
M  V30 11174 H 1028.98 -2.32471 3.11271 0
M  V30 11175 H 1030.65 -0.18668 4.60922 0
M  V30 11176 H 1028.89 -0.106181 4.3367 0
M  V30 11177 H 1029.56 -1.39496 5.34083 0
M  V30 11178 H 1032.04 -2.1446 3.56576 0
M  V30 11179 H 1030.92 -3.20037 4.45946 0
M  V30 11180 H 1031.18 -3.46715 2.74301 0
M  V30 11181 N 1030.24 -1.51135 -0.446768 0
M  V30 11182 C 1031.48 -1.63336 -1.19698 0
M  V30 11183 C 1031.81 -0.345099 -1.91414 0
M  V30 11184 O 1031.07 0.670365 -1.8386 0
M  V30 11185 C 1031.36 -2.78034 -2.2457 0
M  V30 11186 C 1031.03 -4.17652 -1.69934 0
M  V30 11187 C 1029.69 -4.55636 -1.54756 0
M  V30 11188 C 1032.04 -5.04813 -1.29665 0
M  V30 11189 C 1029.37 -5.78496 -0.977689 0
M  V30 11190 C 1031.72 -6.28244 -0.741112 0
M  V30 11191 C 1030.39 -6.65009 -0.576156 0
M  V30 11192 H 1029.66 -0.597689 -0.438006 0
M  V30 11193 H 1032.31 -1.85141 -0.48939 0
M  V30 11194 H 1030.61 -2.50413 -3.01331 0
M  V30 11195 H 1032.31 -2.84675 -2.8242 0
M  V30 11196 H 1028.9 -3.87699 -1.82722 0
M  V30 11197 H 1033.08 -4.76081 -1.40216 0
M  V30 11198 H 1028.34 -6.05636 -0.837563 0
M  V30 11199 H 1032.51 -6.95129 -0.42053 0
M  V30 11200 H 1030.14 -7.60085 -0.132443 0
M  V30 11201 N 1031.71 0.701592 -1.41122 0
M  V30 11202 C 1032.64 1.82815 -1.45262 0
M  V30 11203 C 1033.62 1.67215 -0.311939 0
M  V30 11204 O 1034.81 1.87038 -0.522538 0
M  V30 11205 C 1031.94 3.20899 -1.32819 0
M  V30 11206 C 1030.89 3.51194 -2.44636 0
M  V30 11207 C 1030.22 4.8857 -2.17263 0
M  V30 11208 C 1031.52 3.50777 -3.86979 0
M  V30 11209 H 1033.21 1.79608 -2.39544 0
M  V30 11210 H 1030.76 0.862693 -1.15298 0
M  V30 11211 H 1032.71 3.99417 -1.34329 0
M  V30 11212 H 1031.44 3.24717 -0.350191 0
M  V30 11213 H 1030.1 2.75024 -2.42399 0
M  V30 11214 H 1029.74 4.89007 -1.17819 0
M  V30 11215 H 1029.44 5.09805 -2.92186 0
M  V30 11216 H 1030.97 5.69405 -2.20478 0
M  V30 11217 H 1032.38 4.19309 -3.90964 0
M  V30 11218 H 1030.78 3.83542 -4.61536 0
M  V30 11219 H 1031.85 2.49873 -4.15562 0
M  V30 11220 N 1033.19 1.2685 0.935242 0
M  V30 11221 C 1034.15 1.08975 2.01636 0
M  V30 11222 C 1035.15 0.0361543 1.60759 0
M  V30 11223 O 1036.34 0.280087 1.71934 0
M  V30 11224 C 1033.48 0.658831 3.34473 0
M  V30 11225 H 1034.67 2.04968 2.18925 0
M  V30 11226 H 1032.22 1.09531 1.11501 0
M  V30 11227 H 1032.96 -0.302824 3.22883 0
M  V30 11228 H 1032.74 1.41967 3.65497 0
M  V30 11229 H 1034.23 0.555783 4.13885 0
M  V30 11230 N 1034.67 -1.14067 1.0875 0
M  V30 11231 C 1035.92 -1.84535 0.814235 0
M  V30 11232 C 1036.23 -1.84044 -0.662355 0
M  V30 11233 O 1037.44 -2.50336 -1.05091 0
M  V30 11234 C 1035.89 -3.31273 1.40663 0
M  V30 11235 C 1035.5 -3.40171 2.91526 0
M  V30 11236 C 1037.25 -4.0683 1.21201 0
M  V30 11237 C 1035.15 -4.81141 3.43885 0
M  V30 11238 H 1034.08 -0.691346 0.300926 0
M  V30 11239 H 1036.73 -1.28562 1.30935 0
M  V30 11240 H 1035.12 -3.87005 0.839215 0
M  V30 11241 H 1036.29 -2.94471 3.54434 0
M  V30 11242 H 1034.61 -2.78073 3.09942 0
M  V30 11243 H 1037.2 -5.10891 1.57781 0
M  V30 11244 H 1037.55 -4.16022 0.152092 0
M  V30 11245 H 1038.08 -3.57408 1.74655 0
M  V30 11246 H 1034.82 -4.77138 4.49466 0
M  V30 11247 H 1034.34 -5.27365 2.85738 0
M  V30 11248 H 1036.02 -5.50042 3.40681 0
M  V30 11249 N 1036.15 -0.873678 -1.31166 0
M  V30 11250 C 1037.11 -0.337069 -2.26708 0
M  V30 11251 C 1038.11 0.51406 -1.52362 0
M  V30 11252 O 1039.3 0.322834 -1.71182 0
M  V30 11253 C 1036.43 0.520897 -3.36897 0
M  V30 11254 H 1037.63 -1.18056 -2.75686 0
M  V30 11255 H 1035.18 -0.649577 -1.42163 0
M  V30 11256 H 1035.91 1.38543 -2.93217 0
M  V30 11257 H 1035.7 -0.0886015 -3.92 0
M  V30 11258 H 1037.19 0.888497 -4.08039 0
M  V30 11259 N 1037.63 1.44308 -0.633487 0
M  V30 11260 C 1038.87 2.02322 -0.139123 0
M  V30 11261 C 1039.21 1.49733 1.23667 0
M  V30 11262 O 1038.48 0.682353 1.82138 0
M  V30 11263 C 1038.76 3.59871 -0.128366 0
M  V30 11264 C 1038.62 4.22737 -1.53667 0
M  V30 11265 C 1039.94 4.36702 0.545834 0
M  V30 11266 H 1037.05 0.735161 -0.0520293 0
M  V30 11267 H 1039.7 1.7185 -0.810411 0
M  V30 11268 H 1037.85 3.85963 0.443263 0
M  V30 11269 H 1039.52 4.07744 -2.15737 0
M  V30 11270 H 1037.76 3.80142 -2.08985 0
M  V30 11271 H 1038.43 5.31757 -1.48116 0
M  V30 11272 H 1040.91 4.16057 0.0596879 0
M  V30 11273 H 1039.78 5.46407 0.522557 0
M  V30 11274 H 1040.05 4.11483 1.6166 0
M  V30 11275 N 1039.1 0.374177 1.53094 0
M  V30 11276 C 1040.38 -0.269632 1.93733 0
M  V30 11277 C 1040.76 -1.6566 1.30843 0
M  V30 11278 O 1040.11 -2.23598 0.470759 0
M  V30 11279 C 1040.32 -0.311204 3.4761 0
M  V30 11280 C 1041.67 -0.547432 4.21056 0
M  V30 11281 O 1042.69 -0.392053 3.54036 0
M  V30 11282 O 1041.55 -0.850645 5.39839 0
M  V30 11283 H 1038.64 -0.163723 0.810632 0
M  V30 11284 H 1041.19 0.427586 1.64225 0
M  V30 11285 H 1039.96 0.660897 3.85678 0
M  V30 11286 H 1039.59 -1.05397 3.83376 0
M  V30 11287 N 1040.58 -1.57259 0.103575 0
M  V30 11288 C 1041.53 -2.15727 -0.869739 0
M  V30 11289 C 1042.52 -1.10236 -1.28625 0
M  V30 11290 O 1043.73 -1.28567 -1.25979 0
M  V30 11291 H 1040.11 -0.690204 -0.298535 0
M  V30 11292 H 1042.08 -2.96317 -0.351984 0
M  V30 11293 C 1040.83 -2.75905 -2.11593 0
M  V30 11294 H 1040.15 -3.56768 -1.80434 0
M  V30 11295 H 1041.59 -3.20373 -2.77736 0
M  V30 11296 C 1040.05 -1.72218 -2.89556 0
M  V30 11297 O 1040.58 -1.16623 -3.84398 0
M  V30 11298 N 1038.78 -1.42514 -2.53255 0
M  V30 11299 H 1038.33 -1.87914 -1.76198 0
M  V30 11300 H 1038.29 -0.733782 -3.05717 0
M  V30 11301 N 1042.06 0.170153 -1.56679 0
M  V30 11302 C 1042.99 1.21285 -1.9953 0
M  V30 11303 C 1043.97 1.46104 -0.871071 0
M  V30 11304 O 1045.16 1.57419 -1.13724 0
M  V30 11305 C 1042.29 2.5515 -2.35618 0
M  V30 11306 C 1041.24 2.44898 -3.51011 0
M  V30 11307 C 1040.57 3.83263 -3.72845 0
M  V30 11308 C 1041.87 1.95271 -4.84424 0
M  V30 11309 H 1043.56 0.856646 -2.86883 0
M  V30 11310 H 1041.11 0.410634 -1.38021 0
M  V30 11311 H 1043.06 3.28299 -2.64193 0
M  V30 11312 H 1041.78 2.92561 -1.45175 0
M  V30 11313 H 1040.44 1.74203 -3.22566 0
M  V30 11314 H 1040.09 4.18069 -2.79691 0
M  V30 11315 H 1039.79 3.77272 -4.50488 0
M  V30 11316 H 1041.31 4.57996 -4.03822 0
M  V30 11317 H 1042.73 2.58195 -5.11867 0
M  V30 11318 H 1041.13 2.00225 -5.65712 0
M  V30 11319 H 1042.2 0.90709 -4.7634 0
M  V30 11320 N 1043.54 1.5137 0.438746 0
M  V30 11321 C 1044.5 1.71993 1.51496 0
M  V30 11322 C 1045.5 0.589978 1.49586 0
M  V30 11323 O 1046.69 0.857505 1.51633 0
M  V30 11324 C 1043.82 1.77508 2.91039 0
M  V30 11325 H 1045.02 2.68041 1.34514 0
M  V30 11326 H 1042.57 1.41338 0.667326 0
M  V30 11327 H 1043.3 0.832698 3.13427 0
M  V30 11328 H 1043.09 2.59627 2.9383 0
M  V30 11329 H 1044.58 1.95308 3.69113 0
M  V30 11330 N 1045.02 -0.694098 1.41492 0
M  V30 11331 C 1045.96 -1.82932 1.43662 0
M  V30 11332 C 1046.96 -1.66455 0.31449 0
M  V30 11333 O 1048.16 -1.73298 0.486589 0
M  V30 11334 H 1044.54 -0.602847 0.449533 0
M  V30 11335 H 1046.51 -1.78218 2.39334 0
M  V30 11336 C 1045.26 -3.20962 1.33712 0
M  V30 11337 H 1044.58 -3.34257 2.19345 0
M  V30 11338 H 1046.02 -4.00467 1.39291 0
M  V30 11339 C 1044.48 -3.36863 0.0496332 0
M  V30 11340 O 1045.01 -3.91371 -0.905093 0
M  V30 11341 N 1043.22 -2.90588 -0.0269299 0
M  V30 11342 H 1042.76 -2.46417 0.750752 0
M  V30 11343 H 1042.72 -3.01605 -0.887781 0
M  V30 11344 N 1046.49 -1.27344 -0.928501 0
M  V30 11345 C 1047.46 -1.10043 -2.01055 0
M  V30 11346 C 1048.46 -0.0446793 -1.60738 0
M  V30 11347 O 1049.65 -0.289202 -1.71783 0
M  V30 11348 C 1046.78 -0.676559 -3.34119 0
M  V30 11349 H 1047.97 -2.06126 -2.17835 0
M  V30 11350 H 1045.53 -1.10121 -1.10919 0
M  V30 11351 H 1046.26 0.285697 -3.23039 0
M  V30 11352 H 1046.05 -1.43903 -3.64739 0
M  V30 11353 H 1047.54 -0.577725 -4.13584 0
M  V30 11354 N 1047.97 1.13488 -1.09353 0
M  V30 11355 C 1048.9 2.18563 -0.69012 0
M  V30 11356 C 1049.92 1.60585 0.267651 0
M  V30 11357 O 1051.11 1.78419 0.0538176 0
M  V30 11358 C 1048.21 3.389 0.00391255 0
M  V30 11359 C 1047.38 4.2639 -0.975209 0
M  V30 11360 C 1046.44 5.25258 -0.314719 0
M  V30 11361 O 1045.46 5.6101 -0.962119 0
M  V30 11362 N 1046.67 5.72978 0.931458 0
M  V30 11363 H 1049.43 2.53788 -1.59411 0
M  V30 11364 H 1046.99 1.28803 -0.980886 0
M  V30 11365 H 1048.98 4.02112 0.45696 0
M  V30 11366 H 1047.55 3.0192 0.81014 0
M  V30 11367 H 1046.77 3.59964 -1.60684 0
M  V30 11368 H 1048.06 4.817 -1.63836 0
M  V30 11369 H 1047.46 5.46078 1.477 0
M  V30 11370 H 1046.02 6.38131 1.32784 0
M  V30 11371 N 1049.45 0.880621 1.30701 0
M  V30 11372 C 1050.36 0.348034 2.32004 0
M  V30 11373 C 1051.38 -0.547508 1.65162 0
M  V30 11374 O 1052.55 -0.441673 1.96497 0
M  V30 11375 C 1049.62 -0.432585 3.43991 0
M  V30 11376 C 1048.68 0.492189 4.26469 0
M  V30 11377 C 1047.91 -0.25127 5.33108 0
M  V30 11378 O 1048.14 -1.47795 5.5092 0
M  V30 11379 O 1047.07 0.396376 6.00593 0
M  V30 11380 H 1050.9 1.18798 2.79501 0
M  V30 11381 H 1048.48 0.64432 1.34792 0
M  V30 11382 H 1050.36 -0.874733 4.12221 0
M  V30 11383 H 1049.04 -1.2489 2.98637 0
M  V30 11384 H 1047.94 0.983058 3.60953 0
M  V30 11385 H 1049.28 1.27439 4.75416 0
M  V30 11386 N 1050.93 -1.4397 0.641131 0
M  V30 11387 C 1051.86 -2.33458 -0.04446 0
M  V30 11388 C 1052.84 -1.48781 -0.824507 0
M  V30 11389 O 1054.03 -1.77477 -0.788397 0
M  V30 11390 C 1051.16 -3.31989 -1.01984 0
M  V30 11391 C 1050.11 -4.2656 -0.350745 0
M  V30 11392 C 1049.44 -5.15036 -1.43673 0
M  V30 11393 C 1050.74 -5.16897 0.749299 0
M  V30 11394 H 1052.43 -2.91034 0.702832 0
M  V30 11395 H 1049.98 -1.39942 0.339435 0
M  V30 11396 H 1051.93 -3.93483 -1.50828 0
M  V30 11397 H 1050.65 -2.72643 -1.79815 0
M  V30 11398 H 1049.31 -3.66413 0.117139 0
M  V30 11399 H 1048.96 -4.52037 -2.20617 0
M  V30 11400 H 1048.66 -5.79125 -0.994358 0
M  V30 11401 H 1050.18 -5.79403 -1.92678 0
M  V30 11402 H 1051.6 -5.7227 0.343534 0
M  V30 11403 H 1049.99 -5.89643 1.11541 0
M  V30 11404 H 1051.06 -4.5731 1.61232 0
M  V30 11405 N 1052.41 -0.382291 -1.52893 0
M  V30 11406 C 1053.64 0.202408 -2.05908 0
M  V30 11407 C 1054.05 1.4109 -1.25456 0
M  V30 11408 O 1053.41 1.80027 -0.29942 0
M  V30 11409 C 1053.46 0.579452 -3.56826 0
M  V30 11410 O 1053.18 -0.58102 -4.3423 0
M  V30 11411 C 1054.68 1.22076 -4.2616 0
M  V30 11412 H 1051.9 0.0321859 -0.670228 0
M  V30 11413 H 1054.44 -0.545494 -1.9709 0
M  V30 11414 H 1052.6 1.27726 -3.65739 0
M  V30 11415 H 1053.01 -0.272693 -5.23791 0
M  V30 11416 H 1054.49 1.435 -5.33021 0
M  V30 11417 H 1054.96 2.18605 -3.80931 0
M  V30 11418 H 1055.57 0.563922 -4.21545 0
M  V30 11419 N 1053.89 1.57202 -0.111913 0
M  V30 11420 C 1054.83 2.14936 0.840908 0
M  V30 11421 C 1055.8 1.07242 1.2684 0
M  V30 11422 O 1056.99 1.35114 1.34718 0
M  V30 11423 C 1054.13 2.74743 2.0883 0
M  V30 11424 C 1053.24 3.96723 1.70982 0
M  V30 11425 C 1052.38 4.4464 2.90634 0
M  V30 11426 C 1051.41 5.59169 2.48992 0
M  V30 11427 N 1050.55 6.01862 3.61534 0
M  V30 11428 H 1055.39 2.96034 0.341735 0
M  V30 11429 H 1052.93 1.4626 0.156993 0
M  V30 11430 H 1054.89 3.07546 2.81907 0
M  V30 11431 H 1053.52 1.96346 2.56218 0
M  V30 11432 H 1052.57 3.70127 0.878072 0
M  V30 11433 H 1053.88 4.79795 1.36373 0
M  V30 11434 H 1053.03 4.79315 3.71944 0
M  V30 11435 H 1051.77 3.60503 3.28464 0
M  V30 11436 H 1050.78 5.24106 1.66113 0
M  V30 11437 H 1052 6.45067 2.12287 0
M  V30 11438 H 1049.95 5.20667 3.99051 0
M  V30 11439 H 1049.87 6.79772 3.30827 0
M  V30 11440 H 1051.13 6.41172 4.43305 0
M  V30 11441 N 1055.36 -0.161842 1.56767 0
M  V30 11442 C 1056.64 -0.904754 1.73417 0
M  V30 11443 C 1057.02 -1.99987 0.675908 0
M  V30 11444 O 1056.37 -2.26419 -0.307712 0
M  V30 11445 C 1056.58 -1.46082 3.16956 0
M  V30 11446 C 1057.93 -1.93004 3.78199 0
M  V30 11447 O 1058.95 -1.55856 3.20293 0
M  V30 11448 O 1057.81 -2.61465 4.79894 0
M  V30 11449 H 1054.9 -0.426518 0.708528 0
M  V30 11450 H 1057.45 -0.148928 1.69045 0
M  V30 11451 H 1056.22 -0.673087 3.85468 0
M  V30 11452 H 1055.84 -2.28056 3.25693 0
M  V30 11453 N 1056.84 -1.516 -0.430713 0
M  V30 11454 C 1057.75 -1.76247 -1.54836 0
M  V30 11455 C 1058.77 -0.646985 -1.61524 0
M  V30 11456 O 1059.94 -0.929987 -1.78643 0
M  V30 11457 C 1057.01 -1.88833 -2.90763 0
M  V30 11458 C 1056.07 -3.12701 -2.94137 0
M  V30 11459 C 1055.3 -3.24676 -4.23581 0
M  V30 11460 O 1055.53 -2.42429 -5.16318 0
M  V30 11461 O 1054.46 -4.17697 -4.33374 0
M  V30 11462 H 1058.29 -2.71069 -1.3695 0
M  V30 11463 H 1055.87 -1.36182 -0.614396 0
M  V30 11464 H 1057.75 -1.99057 -3.71422 0
M  V30 11465 H 1056.43 -0.971987 -3.08762 0
M  V30 11466 H 1055.33 -3.0795 -2.1241 0
M  V30 11467 H 1056.67 -4.04045 -2.81084 0
M  V30 11468 N 1058.32 0.686584 -1.41858 0
M  V30 11469 C 1059.25 1.81202 -1.40352 0
M  V30 11470 C 1060.26 1.5993 -0.304322 0
M  V30 11471 O 1061.45 1.69267 -0.566643 0
M  V30 11472 C 1058.55 3.18116 -1.16856 0
M  V30 11473 C 1057.73 3.66339 -2.38987 0
M  V30 11474 C 1056.79 4.8195 -2.11212 0
M  V30 11475 O 1055.81 4.93102 -2.84323 0
M  V30 11476 N 1057.01 5.69829 -1.10793 0
M  V30 11477 H 1059.78 1.82983 -2.37355 0
M  V30 11478 H 1057.34 0.869244 -1.36586 0
M  V30 11479 H 1059.33 3.93097 -0.962125 0
M  V30 11480 H 1057.9 3.11306 -0.284186 0
M  V30 11481 H 1057.12 2.82166 -2.75274 0
M  V30 11482 H 1058.41 3.95297 -3.2034 0
M  V30 11483 H 1057.81 5.63459 -0.503012 0
M  V30 11484 H 1056.36 6.44671 -0.961379 0
M  V30 11485 N 1059.8 1.27835 0.921735 0
M  V30 11486 C 1060.71 1.12904 2.05645 0
M  V30 11487 C 1061.72 0.0575704 1.73905 0
M  V30 11488 O 1062.9 0.265261 1.99645 0
M  V30 11489 C 1059.96 0.783957 3.3772 0
M  V30 11490 C 1059.03 1.93694 3.8312 0
M  V30 11491 C 1058.26 1.60823 5.08893 0
M  V30 11492 O 1058.48 0.518873 5.68035 0
M  V30 11493 O 1057.42 2.44932 5.49811 0
M  V30 11494 H 1061.24 2.08143 2.21157 0
M  V30 11495 H 1058.83 1.07078 1.04185 0
M  V30 11496 H 1060.71 0.605107 4.17033 0
M  V30 11497 H 1059.38 -0.138849 3.23402 0
M  V30 11498 H 1058.29 2.17089 3.04669 0
M  V30 11499 H 1059.62 2.84016 4.0199 0
M  V30 11500 N 1061.28 -1.12907 1.09954 0
M  V30 11501 C 1062.19 -2.22082 0.756095 0
M  V30 11502 C 1063.2 -1.72277 -0.244272 0
M  V30 11503 O 1064.38 -2.01224 -0.0842637 0
M  V30 11504 C 1061.44 -3.46192 0.187642 0
M  V30 11505 C 1060.5 -4.10861 1.24465 0
M  V30 11506 C 1059.74 -5.29047 0.703227 0
M  V30 11507 O 1059.96 -5.68443 -0.472043 0
M  V30 11508 O 1058.89 -5.83904 1.46082 0
M  V30 11509 H 1062.72 -2.53842 1.66727 0
M  V30 11510 H 1060.3 -1.21145 0.874316 0
M  V30 11511 H 1062.19 -4.21212 -0.125774 0
M  V30 11512 H 1060.86 -3.16119 -0.696459 0
M  V30 11513 H 1059.77 -3.37643 1.61085 0
M  V30 11514 H 1061.1 -4.45078 2.10159 0
M  V30 11515 N 1062.75 -0.88754 -1.30232 0
M  V30 11516 C 1063.66 -0.360333 -2.31816 0
M  V30 11517 C 1064.68 0.538741 -1.6545 0
M  V30 11518 O 1065.86 0.431246 -1.96729 0
M  V30 11519 C 1062.92 0.414336 -3.44215 0
M  V30 11520 C 1061.98 -0.514799 -4.26202 0
M  V30 11521 C 1061.21 0.222994 -5.33234 0
M  V30 11522 O 1061.44 1.44871 -5.51696 0
M  V30 11523 O 1060.37 -0.428221 -6.00375 0
M  V30 11524 H 1064.2 -1.20279 -2.78867 0
M  V30 11525 H 1061.78 -0.651459 -1.34448 0
M  V30 11526 H 1063.66 0.852859 -4.12679 0
M  V30 11527 H 1062.34 1.23305 -2.99295 0
M  V30 11528 H 1061.25 -1.00219 -3.60426 0
M  V30 11529 H 1062.58 -1.29959 -4.74733 0
M  V30 11530 N 1064.23 1.43628 -0.648757 0
M  V30 11531 C 1065.14 2.34554 0.0463037 0
M  V30 11532 C 1066.16 1.53629 0.816952 0
M  V30 11533 O 1067.33 1.86297 0.765212 0
M  V30 11534 C 1064.4 3.3185 1.00381 0
M  V30 11535 C 1063.46 4.2868 0.230589 0
M  V30 11536 C 1062.69 5.21328 1.14249 0
M  V30 11537 O 1062.92 5.18298 2.38166 0
M  V30 11538 O 1061.85 5.98726 0.617296 0
M  V30 11539 H 1065.68 2.95475 -0.702008 0
M  V30 11540 H 1063.26 1.43694 -0.408942 0
M  V30 11541 H 1065.14 3.91692 1.5542 0
M  V30 11542 H 1063.82 2.73439 1.73243 0
M  V30 11543 H 1062.73 3.72332 -0.363282 0
M  V30 11544 H 1064.06 4.90061 -0.458368 0
M  V30 11545 N 1065.71 0.390394 1.52688 0
M  V30 11546 C 1066.67 -0.432149 2.25089 0
M  V30 11547 C 1067.67 -0.989296 1.26766 0
M  V30 11548 O 1068.86 -0.871126 1.50854 0
M  V30 11549 C 1066 -1.60642 3.00678 0
M  V30 11550 H 1067.19 0.201734 2.99221 0
M  V30 11551 H 1064.74 0.142531 1.55649 0
M  V30 11552 H 1065.48 -2.2777 2.3085 0
M  V30 11553 H 1065.26 -1.21361 3.72846 0
M  V30 11554 H 1066.75 -2.18873 3.55647 0
M  V30 11555 N 1067.19 -1.57141 0.120249 0
M  V30 11556 C 1068.44 -1.95238 -0.537449 0
M  V30 11557 C 1068.76 -1.00361 -1.66607 0
M  V30 11558 O 1068.02 -0.0277306 -1.9568 0
M  V30 11559 C 1068.32 -3.39745 -1.10941 0
M  V30 11560 C 1067.98 -4.50785 -0.102012 0
M  V30 11561 C 1066.65 -4.80882 0.174994 0
M  V30 11562 C 1069 -5.17913 0.584462 0
M  V30 11563 C 1066.33 -5.75424 1.14474 0
M  V30 11564 C 1068.68 -6.13497 1.54284 0
M  V30 11565 C 1067.34 -6.41987 1.82782 0
M  V30 11566 H 1066.61 -0.714425 -0.196666 0
M  V30 11567 H 1069.26 -1.90438 0.201418 0
M  V30 11568 H 1067.56 -3.41246 -1.92506 0
M  V30 11569 H 1069.26 -3.66536 -1.62642 0
M  V30 11570 H 1065.85 -4.27342 -0.328097 0
M  V30 11571 H 1070.03 -4.94815 0.383625 0
M  V30 11572 H 1065.29 -5.95801 1.37226 0
M  V30 11573 H 1069.46 -6.64598 2.08044 0
M  V30 11574 H 1067.09 -7.15052 2.5808 0
M  V30 11575 N 1068.67 0.153526 -1.5685 0
M  V30 11576 C 1069.61 1.20896 -1.98713 0
M  V30 11577 C 1070.61 1.44839 -0.878529 0
M  V30 11578 O 1071.81 1.45208 -1.0637 0
M  V30 11579 H 1068.19 0.406797 -0.632472 0
M  V30 11580 H 1070.16 0.829145 -2.86649 0
M  V30 11581 C 1068.91 2.53642 -2.37825 0
M  V30 11582 H 1068.23 2.36047 -3.22679 0
M  V30 11583 H 1069.67 3.26136 -2.70946 0
M  V30 11584 C 1068.13 3.13706 -1.22841 0
M  V30 11585 O 1068.66 3.98246 -0.525626 0
M  V30 11586 N 1066.87 2.73059 -0.99435 0
M  V30 11587 H 1066.41 2.0441 -1.56761 0
M  V30 11588 H 1066.37 3.1358 -0.226883 0
M  V30 11589 N 1070.14 1.51827 0.422667 0
M  V30 11590 C 1071.08 1.70409 1.53275 0
M  V30 11591 C 1072.09 0.584584 1.51942 0
M  V30 11592 O 1073.28 0.859349 1.56453 0
M  V30 11593 C 1070.38 1.717 2.92185 0
M  V30 11594 C 1069.55 3.00472 3.17861 0
M  V30 11595 C 1068.61 2.93755 4.36571 0
M  V30 11596 O 1067.64 3.67682 4.3451 0
M  V30 11597 N 1068.84 2.10612 5.40946 0
M  V30 11598 H 1071.6 2.66176 1.37734 0
M  V30 11599 H 1069.16 1.49895 0.611799 0
M  V30 11600 H 1071.16 1.64756 3.69645 0
M  V30 11601 H 1069.73 0.834655 3.01251 0
M  V30 11602 H 1068.95 3.21171 2.28567 0
M  V30 11603 H 1070.23 3.85684 3.31851 0
M  V30 11604 H 1069.63 1.49954 5.45463 0
M  V30 11605 H 1068.19 2.09535 6.17202 0
M  V30 11606 N 1071.62 -0.679052 1.4222 0
M  V30 11607 C 1072.57 -1.79269 1.45366 0
M  V30 11608 C 1073.54 -1.63255 0.306089 0
M  V30 11609 O 1074.72 -1.8387 0.509548 0
M  V30 11610 C 1071.86 -3.17272 1.35766 0
M  V30 11611 C 1070.98 -3.44603 2.60525 0
M  V30 11612 C 1070.11 -4.7231 2.43098 0
M  V30 11613 C 1069.15 -4.92661 3.63251 0
M  V30 11614 N 1068.29 -6.11606 3.44794 0
M  V30 11615 H 1073.13 -1.75916 2.40536 0
M  V30 11616 H 1070.67 -0.858836 1.19425 0
M  V30 11617 H 1072.62 -3.97015 1.282 0
M  V30 11618 H 1071.25 -3.1976 0.441939 0
M  V30 11619 H 1070.31 -2.59144 2.78475 0
M  V30 11620 H 1071.62 -3.55536 3.49851 0
M  V30 11621 H 1070.77 -5.60136 2.33093 0
M  V30 11622 H 1069.51 -4.63652 1.51255 0
M  V30 11623 H 1068.52 -4.03278 3.73693 0
M  V30 11624 H 1069.74 -5.03167 4.5607 0
M  V30 11625 H 1067.69 -6.04129 2.55663 0
M  V30 11626 H 1067.6 -6.23381 4.27705 0
M  V30 11627 H 1068.87 -7.02122 3.38592 0
M  V30 11628 N 1073.1 -1.28322 -0.914942 0
M  V30 11629 C 1074.05 -1.08788 -2.00373 0
M  V30 11630 C 1075.03 -0.0118996 -1.60896 0
M  V30 11631 O 1076.23 -0.231902 -1.75474 0
M  V30 11632 C 1073.36 -0.750508 -3.34996 0
M  V30 11633 C 1072.44 -1.86527 -3.80879 0
M  V30 11634 N 1072.83 -3.10672 -3.99145 0
M  V30 11635 C 1071.13 -1.75485 -4.10026 0
M  V30 11636 C 1071.83 -3.833 -4.37557 0
M  V30 11637 N 1070.81 -3.11141 -4.45749 0
M  V30 11638 H 1074.61 -2.02984 -2.12544 0
M  V30 11639 H 1072.12 -1.19224 -1.1027 0
M  V30 11640 H 1074.12 -0.591644 -4.1268 0
M  V30 11641 H 1072.78 0.183696 -3.2418 0
M  V30 11642 H 1073.79 -3.46295 -3.85097 0
M  V30 11643 H 1070.47 -0.89234 -4.07852 0
M  V30 11644 H 1071.86 -4.90061 -4.59662 0
M  V30 11645 N 1074.58 1.12322 -1.10551 0
M  V30 11646 C 1075.54 2.16273 -0.758844 0
M  V30 11647 C 1076.54 1.59325 0.217294 0
M  V30 11648 O 1077.73 1.74199 -0.00601346 0
M  V30 11649 C 1074.86 3.40674 -0.124238 0
M  V30 11650 H 1076.06 2.48454 -1.6796 0
M  V30 11651 H 1073.61 1.2735 -0.906188 0
M  V30 11652 H 1074.34 3.14094 0.807194 0
M  V30 11653 H 1074.13 3.83284 -0.826772 0
M  V30 11654 H 1075.62 4.17474 0.102502 0
M  V30 11655 N 1076.06 0.894434 1.2976 0
M  V30 11656 C 1076.99 0.3847 2.30309 0
M  V30 11657 C 1077.97 -0.537486 1.61385 0
M  V30 11658 O 1079.15 -0.449332 1.8893 0
M  V30 11659 C 1076.28 -0.393311 3.45066 0
M  V30 11660 C 1075.24 0.437968 4.25753 0
M  V30 11661 C 1074.56 -0.467221 5.32655 0
M  V30 11662 C 1075.86 1.6851 4.9437 0
M  V30 11663 H 1077.56 1.22496 2.73194 0
M  V30 11664 H 1075.1 0.590471 1.31337 0
M  V30 11665 H 1077.06 -0.760614 4.14479 0
M  V30 11666 H 1075.78 -1.2673 3.0101 0
M  V30 11667 H 1074.44 0.787533 3.58041 0
M  V30 11668 H 1074.09 -1.33919 4.84845 0
M  V30 11669 H 1073.79 0.0852482 5.87538 0
M  V30 11670 H 1075.31 -0.830833 6.04921 0
M  V30 11671 H 1076.72 1.38784 5.56248 0
M  V30 11672 H 1075.12 2.17849 5.59162 0
M  V30 11673 H 1076.19 2.42412 4.19958 0
M  V30 11674 N 1077.53 -1.43282 0.656365 0
M  V30 11675 C 1078.47 -2.29087 -0.0720378 0
M  V30 11676 C 1079.48 -1.4268 -0.783982 0
M  V30 11677 O 1080.67 -1.66585 -0.641213 0
M  V30 11678 C 1077.77 -3.19676 -1.12519 0
M  V30 11679 C 1076.94 -4.34638 -0.490756 0
M  V30 11680 C 1076 -5.06079 -1.44121 0
M  V30 11681 O 1075.03 -5.6124 -0.948595 0
M  V30 11682 N 1076.23 -5.09872 -2.77509 0
M  V30 11683 H 1078.99 -2.92241 0.664456 0
M  V30 11684 H 1076.55 -1.54006 0.499383 0
M  V30 11685 H 1078.55 -3.64334 -1.76189 0
M  V30 11686 H 1077.12 -2.581 -1.76362 0
M  V30 11687 H 1076.34 -3.92857 0.3251 0
M  V30 11688 H 1077.62 -5.08777 -0.0480061 0
M  V30 11689 H 1077.02 -4.66433 -3.20088 0
M  V30 11690 H 1075.58 -5.58237 -3.36474 0
M  V30 11691 N 1079.01 -0.398486 -1.52479 0
M  V30 11692 C 1079.96 0.432212 -2.26717 0
M  V30 11693 C 1080.93 1.05007 -1.28696 0
M  V30 11694 O 1082.12 1.07636 -1.57541 0
M  V30 11695 C 1079.26 1.54868 -3.08399 0
M  V30 11696 C 1078.37 0.952779 -4.21362 0
M  V30 11697 C 1077.5 2.04106 -4.90423 0
M  V30 11698 C 1076.54 1.42153 -5.95364 0
M  V30 11699 N 1075.68 2.44951 -6.57984 0
M  V30 11700 H 1080.52 -0.207303 -2.97278 0
M  V30 11701 H 1078.06 -0.114066 -1.46657 0
M  V30 11702 H 1080.01 2.20684 -3.54054 0
M  V30 11703 H 1078.64 2.15837 -2.4003 0
M  V30 11704 H 1077.7 0.183962 -3.79955 0
M  V30 11705 H 1079.01 0.460131 -4.96673 0
M  V30 11706 H 1078.16 2.77672 -5.39429 0
M  V30 11707 H 1076.9 2.56733 -4.14656 0
M  V30 11708 H 1075.91 0.671161 -5.45688 0
M  V30 11709 H 1077.13 0.903093 -6.73068 0
M  V30 11710 H 1075.08 2.9673 -5.85053 0
M  V30 11711 H 1074.99 2.00468 -7.28937 0
M  V30 11712 H 1076.26 3.18119 -7.11632 0
M  V30 11713 N 1080.49 1.57075 -0.12858 0
M  V30 11714 C 1081.45 2.14643 0.803813 0
M  V30 11715 C 1082.45 1.08363 1.18803 0
M  V30 11716 O 1083.64 1.34093 1.11197 0
M  V30 11717 C 1080.78 2.6945 2.08829 0
M  V30 11718 H 1081.97 2.98362 0.303347 0
M  V30 11719 H 1079.52 1.55833 0.120735 0
M  V30 11720 H 1080.26 1.89345 2.63285 0
M  V30 11721 H 1080.04 3.47187 1.82218 0
M  V30 11722 H 1081.53 3.13865 2.7546 0
M  V30 11723 N 1081.97 -0.145205 1.5693 0
M  V30 11724 C 1082.92 -1.17923 1.98401 0
M  V30 11725 C 1083.89 -1.42591 0.851885 0
M  V30 11726 O 1085.07 -1.54896 1.11409 0
M  V30 11727 C 1082.21 -2.50727 2.37128 0
M  V30 11728 C 1081.32 -2.33218 3.63639 0
M  V30 11729 C 1080.46 -3.5907 3.91462 0
M  V30 11730 C 1079.5 -3.36605 5.11237 0
M  V30 11731 N 1078.64 -4.54592 5.35061 0
M  V30 11732 H 1083.48 -0.818573 2.86537 0
M  V30 11733 H 1081.01 -0.392739 1.4176 0
M  V30 11734 H 1082.97 -3.28165 2.57611 0
M  V30 11735 H 1081.6 -2.84736 1.52069 0
M  V30 11736 H 1080.65 -1.46826 3.50922 0
M  V30 11737 H 1081.96 -2.12579 4.51234 0
M  V30 11738 H 1081.12 -4.44936 4.12453 0
M  V30 11739 H 1079.86 -3.82715 3.02293 0
M  V30 11740 H 1078.86 -2.49127 4.90118 0
M  V30 11741 H 1080.09 -3.14357 6.01961 0
M  V30 11742 H 1078.03 -4.78406 4.48847 0
M  V30 11743 H 1077.95 -4.36962 6.16928 0
M  V30 11744 H 1079.22 -5.41666 5.60551 0
M  V30 11745 N 1083.45 -1.52049 -0.414609 0
M  V30 11746 C 1084.36 -1.7788 -1.52958 0
M  V30 11747 C 1085.37 -0.66408 -1.60829 0
M  V30 11748 O 1086.55 -0.948882 -1.77646 0
M  V30 11749 C 1083.61 -1.91906 -2.88744 0
M  V30 11750 C 1082.68 -3.15803 -2.90804 0
M  V30 11751 C 1081.91 -3.29151 -4.20114 0
M  V30 11752 O 1082.13 -2.47892 -5.13718 0
M  V30 11753 O 1081.07 -4.2227 -4.28919 0
M  V30 11754 H 1084.89 -2.72506 -1.34067 0
M  V30 11755 H 1082.48 -1.36826 -0.599918 0
M  V30 11756 H 1084.36 -2.02986 -3.6929 0
M  V30 11757 H 1083.03 -1.00468 -3.07714 0
M  V30 11758 H 1081.94 -3.10185 -2.09131 0
M  V30 11759 H 1083.27 -4.07004 -2.76783 0
M  V30 11760 N 1084.93 0.6715 -1.42579 0
M  V30 11761 C 1086.17 1.43366 -1.43436 0
M  V30 11762 C 1086.5 1.94131 -0.0517339 0
M  V30 11763 O 1085.78 1.71121 0.924548 0
M  V30 11764 C 1086.06 2.62832 -2.46154 0
M  V30 11765 C 1085.92 2.17677 -3.9362 0
M  V30 11766 C 1087.23 3.65049 -2.4582 0
M  V30 11767 H 1084.35 0.519967 -0.522306 0
M  V30 11768 H 1087 0.762849 -1.74013 0
M  V30 11769 H 1085.15 3.20062 -2.2021 0
M  V30 11770 H 1086.82 1.65588 -4.30556 0
M  V30 11771 H 1085.06 1.49219 -4.07328 0
M  V30 11772 H 1085.73 3.03503 -4.61075 0
M  V30 11773 H 1088.21 3.17541 -2.68899 0
M  V30 11774 H 1087.08 4.46213 -3.19664 0
M  V30 11775 H 1087.34 4.16401 -1.48536 0
M  V30 11776 N 1086.4 1.28806 0.908124 0
M  V30 11777 C 1087.63 1.19271 1.69674 0
M  V30 11778 C 1088.05 -0.244403 1.86505 0
M  V30 11779 O 1087.41 -1.17668 1.37927 0
M  V30 11780 C 1087.46 1.9023 3.06341 0
M  V30 11781 O 1086.56 1.2136 3.94139 0
M  V30 11782 H 1085.9 0.413738 0.519343 0
M  V30 11783 H 1088.43 1.70227 1.13508 0
M  V30 11784 H 1088.44 1.98356 3.56537 0
M  V30 11785 H 1087.12 2.94762 2.93408 0
M  V30 11786 H 1085.7 1.21435 3.52573 0
M  V30 11787 N 1087.88 -1.11734 1.11145 0
M  V30 11788 C 1089.29 -1.64928 0.874959 0
M  V30 11789 C 1089.64 -1.87012 -0.593375 0
M  V30 11790 O 1088.77 -1.60206 -1.45475 0
M  V30 11791 C 1089.36 -2.99608 1.58178 0
M  V30 11792 C 1087.92 -3.49723 1.39179 0
M  V30 11793 C 1087.07 -2.24595 1.62642 0
M  V30 11794 H 1090.02 -0.954154 1.26813 0
M  V30 11795 H 1090.04 -3.66434 1.02501 0
M  V30 11796 H 1089.55 -2.83504 2.65042 0
M  V30 11797 H 1087.65 -3.70998 0.345111 0
M  V30 11798 H 1087.77 -4.28711 2.13878 0
M  V30 11799 H 1086.13 -2.32067 1.04961 0
M  V30 11800 H 1086.91 -2.11036 2.70774 0
M  V30 11801 N 1089.36 -0.901303 -1.29284 0
M  V30 11802 C 1090.29 -0.32479 -2.25877 0
M  V30 11803 C 1091.27 0.563944 -1.52507 0
M  V30 11804 O 1092.45 0.510393 -1.81459 0
M  V30 11805 C 1089.58 0.536897 -3.34418 0
M  V30 11806 C 1088.63 -0.28474 -4.25548 0
M  V30 11807 S 1089.46 -1.68355 -5.08347 0
M  V30 11808 C 1090.62 -0.828826 -6.20388 0
M  V30 11809 H 1090.85 -1.14352 -2.74428 0
M  V30 11810 H 1088.38 -0.701749 -1.37531 0
M  V30 11811 H 1090.34 1.02827 -3.97413 0
M  V30 11812 H 1089 1.32988 -2.84558 0
M  V30 11813 H 1088.19 0.373566 -5.02614 0
M  V30 11814 H 1087.8 -0.709313 -3.67212 0
M  V30 11815 H 1090.09 -0.0529234 -6.77479 0
M  V30 11816 H 1091.03 -1.57161 -6.90439 0
M  V30 11817 H 1091.44 -0.382503 -5.63203 0
M  V30 11818 N 1090.84 1.42931 -0.663954 0
M  V30 11819 C 1092.06 2.06544 -0.188201 0
M  V30 11820 C 1092.49 1.495 1.14155 0
M  V30 11821 O 1091.85 0.609164 1.7076 0
M  V30 11822 C 1091.89 3.60393 -0.122105 0
M  V30 11823 O 1091 4.02176 0.91258 0
M  V30 11824 H 1090.34 0.656458 -0.0997967 0
M  V30 11825 H 1092.87 1.83253 -0.909909 0
M  V30 11826 H 1092.88 4.07959 0.0576568 0
M  V30 11827 H 1091.55 4.01287 -1.09276 0
M  V30 11828 H 1090.13 3.6618 0.704738 0
M  V30 11829 N 1092.32 0.406567 1.52266 0
M  V30 11830 C 1093.28 -0.408251 2.25535 0
M  V30 11831 C 1094.28 -0.975795 1.27808 0
M  V30 11832 O 1095.47 -0.855077 1.5177 0
M  V30 11833 C 1092.6 -1.57443 3.02365 0
M  V30 11834 H 1093.79 0.233459 2.9899 0
M  V30 11835 H 1091.35 0.159032 1.55489 0
M  V30 11836 H 1092.08 -2.25308 2.33252 0
M  V30 11837 H 1091.87 -1.17399 3.74112 0
M  V30 11838 H 1093.36 -2.15088 3.57948 0
M  V30 11839 N 1093.79 -1.57004 0.136909 0
M  V30 11840 C 1095.21 -1.82675 -0.385577 0
M  V30 11841 C 1095.56 -1.05508 -1.65416 0
M  V30 11842 O 1094.68 -0.297207 -2.14349 0
M  V30 11843 C 1095.28 -3.31356 -0.706326 0
M  V30 11844 C 1093.84 -3.57644 -1.17337 0
M  V30 11845 C 1092.98 -2.7664 -0.191239 0
M  V30 11846 H 1095.93 -1.54522 0.36177 0
M  V30 11847 H 1095.95 -3.4696 -1.56201 0
M  V30 11848 H 1095.47 -3.87492 0.217147 0
M  V30 11849 H 1093.57 -3.06883 -2.11313 0
M  V30 11850 H 1093.68 -4.66152 -1.10632 0
M  V30 11851 H 1092.04 -2.45403 -0.681867 0
M  V30 11852 H 1092.83 -3.35543 0.725647 0
M  V30 11853 N 1095.27 0.136881 -1.57004 0
M  V30 11854 C 1096.22 1.18782 -1.99984 0
M  V30 11855 C 1097.21 1.43899 -0.893841 0
M  V30 11856 O 1098.42 1.44072 -1.07904 0
M  V30 11857 H 1094.8 0.400065 -0.636751 0
M  V30 11858 H 1096.77 0.798696 -2.87512 0
M  V30 11859 C 1095.52 2.51105 -2.40502 0
M  V30 11860 H 1094.84 2.32611 -3.25165 0
M  V30 11861 H 1096.28 3.23244 -2.74389 0
M  V30 11862 C 1094.74 3.12386 -1.26161 0
M  V30 11863 O 1095.27 3.97666 -0.567836 0
M  V30 11864 N 1093.47 2.71989 -1.02326 0
M  V30 11865 H 1093.02 2.02736 -1.58921 0
M  V30 11866 H 1092.98 3.13322 -0.26013 0
M  V30 11867 N 1096.75 1.52266 0.40654 0
M  V30 11868 C 1097.68 1.70519 1.51653 0
M  V30 11869 C 1098.66 0.552798 1.52915 0
M  V30 11870 O 1099.85 0.780468 1.71584 0
M  V30 11871 C 1096.97 1.74686 2.90176 0
M  V30 11872 C 1096.02 2.96255 3.06815 0
M  V30 11873 S 1096.85 4.56553 2.79856 0
M  V30 11874 C 1098.01 4.63511 4.20605 0
M  V30 11875 H 1098.24 2.64399 1.35942 0
M  V30 11876 H 1095.77 1.42337 0.598284 0
M  V30 11877 H 1097.73 1.77773 3.7001 0
M  V30 11878 H 1096.39 0.819291 3.03227 0
M  V30 11879 H 1095.59 2.95661 4.08167 0
M  V30 11880 H 1095.19 2.91069 2.34851 0
M  V30 11881 H 1097.48 4.41047 5.1428 0
M  V30 11882 H 1098.42 5.65456 4.26222 0
M  V30 11883 H 1098.83 3.92518 4.05697 0
M  V30 11884 N 1098.23 -0.663929 1.42933 0
M  V30 11885 C 1099.64 -1.24484 1.39143 0
M  V30 11886 C 1099.99 -1.95993 0.0901142 0
M  V30 11887 O 1099.12 -2.00636 -0.810812 0
M  V30 11888 C 1099.71 -2.26402 2.52047 0
M  V30 11889 C 1098.27 -2.79995 2.51555 0
M  V30 11890 C 1097.42 -1.54475 2.30289 0
M  V30 11891 H 1100.37 -0.456619 1.51989 0
M  V30 11892 H 1100.39 -3.08361 2.22921 0
M  V30 11893 H 1099.9 -1.74328 3.46744 0
M  V30 11894 H 1098 -3.36161 1.60707 0
M  V30 11895 H 1098.11 -3.2827 3.48964 0
M  V30 11896 H 1096.48 -1.81437 1.78753 0
M  V30 11897 H 1097.26 -1.04351 3.27056 0
M  V30 11898 N 1099.71 -1.29285 -0.901281 0
M  V30 11899 C 1100.93 -1.20169 -1.69039 0
M  V30 11900 C 1101.36 0.234509 -1.86632 0
M  V30 11901 O 1100.71 1.16935 -1.38549 0
M  V30 11902 C 1100.76 -1.91852 -3.05328 0
M  V30 11903 O 1099.87 -1.23448 -3.9349 0
M  V30 11904 H 1099.21 -0.416486 -0.517141 0
M  V30 11905 H 1101.74 -1.70826 -1.12603 0
M  V30 11906 H 1101.75 -2.00244 -3.5548 0
M  V30 11907 H 1100.42 -2.96313 -2.91841 0
M  V30 11908 H 1099 -1.23303 -3.51924 0
M  V30 11909 N 1101.18 1.11143 -1.11736 0
M  V30 11910 C 1102.43 1.82311 -0.862875 0
M  V30 11911 C 1102.75 1.85735 0.613326 0
M  V30 11912 O 1103.95 2.53034 0.984168 0
M  V30 11913 C 1102.41 3.27427 -1.49396 0
M  V30 11914 C 1102.02 3.32323 -3.00443 0
M  V30 11915 C 1103.76 4.03474 -1.31944 0
M  V30 11916 C 1101.67 4.71855 -3.56521 0
M  V30 11917 H 1100.6 0.683124 -0.31915 0
M  V30 11918 H 1103.25 1.25045 -1.34298 0
M  V30 11919 H 1101.63 3.84644 -0.941528 0
M  V30 11920 H 1102.8 2.84971 -3.62117 0
M  V30 11921 H 1101.12 2.69758 -3.17206 0
M  V30 11922 H 1103.72 5.06528 -1.71271 0
M  V30 11923 H 1104.06 4.15473 -0.262339 0
M  V30 11924 H 1104.59 3.52652 -1.84069 0
M  V30 11925 H 1101.33 4.65054 -4.61958 0
M  V30 11926 H 1100.85 5.19604 -2.99619 0
M  V30 11927 H 1102.53 5.40816 -3.55144 0
M  V30 11928 N 1102.66 0.908147 1.28804 0
M  V30 11929 C 1103.57 0.397167 2.31214 0
M  V30 11930 C 1104.59 -0.512352 1.66286 0
M  V30 11931 O 1105.76 -0.399893 1.9739 0
M  V30 11932 C 1102.83 -0.359522 3.44831 0
M  V30 11933 C 1101.89 0.582539 4.25329 0
M  V30 11934 C 1101.12 -0.138133 5.33521 0
M  V30 11935 O 1101.35 -1.36076 5.53931 0
M  V30 11936 O 1100.28 0.523682 5.99618 0
M  V30 11937 H 1104.11 1.247 2.76918 0
M  V30 11938 H 1101.69 0.672766 1.33395 0
M  V30 11939 H 1103.57 -0.787098 4.13984 0
M  V30 11940 H 1102.25 -1.18528 3.01219 0
M  V30 11941 H 1101.16 1.0594 3.58786 0
M  V30 11942 H 1102.49 1.37495 4.72605 0
M  V30 11943 N 1104.14 -1.42577 0.671525 0
M  V30 11944 C 1105.56 -1.5592 0.340769 0
M  V30 11945 C 1105.76 -1.65179 -1.15405 0
M  V30 11946 O 1104.81 -1.61691 -1.93939 0
M  V30 11947 C 1106.13 -2.81087 1.06821 0
M  V30 11948 C 1107.67 -2.94855 1.05022 0
M  V30 11949 C 1108.15 -4.22878 1.75892 0
M  V30 11950 N 1109.64 -4.29783 1.72744 0
M  V30 11951 C 1110.37 -5.2765 2.24439 0
M  V30 11952 N 1109.87 -6.31689 2.84501 0
M  V30 11953 N 1111.66 -5.19426 2.14832 0
M  V30 11954 H 1103.81 -1.34811 1.64133 0
M  V30 11955 H 1106.08 -0.648704 0.691294 0
M  V30 11956 H 1105.78 -2.80371 2.12332 0
M  V30 11957 H 1105.66 -3.71879 0.631356 0
M  V30 11958 H 1108.04 -2.951 0.00345633 0
M  V30 11959 H 1108.13 -2.05303 1.52592 0
M  V30 11960 H 1107.77 -4.23394 2.80535 0
M  V30 11961 H 1107.7 -5.1136 1.25773 0
M  V30 11962 H 1110.19 -3.55225 1.28932 0
M  V30 11963 H 1110.5 -7.02715 3.21575 0
M  V30 11964 H 1108.85 -6.3226 2.88569 0
M  V30 11965 H 1112.04 -4.37067 1.676 0
M  V30 11966 H 1112.21 -5.95535 2.55426 0
M  V30 11967 N 1105.62 -0.414636 -1.52048 0
M  V30 11968 C 1106.9 0.218172 -1.94379 0
M  V30 11969 C 1107.28 1.62133 -1.35189 0
M  V30 11970 O 1106.62 2.22271 -0.529877 0
M  V30 11971 C 1106.83 0.218932 -3.48313 0
M  V30 11972 C 1108.18 0.435604 -4.2236 0
M  V30 11973 O 1109.21 0.298049 -3.54951 0
M  V30 11974 O 1108.06 0.707217 -5.41905 0
M  V30 11975 H 1105.16 0.142173 -0.814688 0
M  V30 11976 H 1107.7 -0.470977 -1.63033 0
M  V30 11977 H 1106.48 -0.76292 -3.83791 0
M  V30 11978 H 1106.1 0.951949 -3.86036 0
M  V30 11979 N 1107.1 1.56929 -0.145233 0
M  V30 11980 C 1108.51 1.58196 0.211194 0
M  V30 11981 C 1108.71 1.15941 1.64803 0
M  V30 11982 O 1107.77 0.858888 2.37443 0
M  V30 11983 C 1109.08 3.00665 -0.0459569 0
M  V30 11984 C 1110.63 3.12995 0.0178913 0
M  V30 11985 C 1111.1 4.5751 -0.211905 0
M  V30 11986 N 1112.6 4.62928 -0.158772 0
M  V30 11987 C 1113.33 5.72555 -0.311111 0
M  V30 11988 N 1112.83 6.90838 -0.521074 0
M  V30 11989 N 1114.62 5.61549 -0.248838 0
M  V30 11990 H 1106.77 1.8269 -1.08342 0
M  V30 11991 H 1109.03 0.845514 -0.428731 0
M  V30 11992 H 1108.74 3.35962 -1.0403 0
M  V30 11993 H 1108.61 3.71125 0.674246 0
M  V30 11994 H 1111 2.7754 1.00278 0
M  V30 11995 H 1111.08 2.45025 -0.734612 0
M  V30 11996 H 1110.73 4.93669 -1.19389 0
M  V30 11997 H 1110.66 5.23604 0.560901 0
M  V30 11998 H 1113.15 3.779 -0.00107283 0
M  V30 11999 H 1113.46 7.70248 -0.62747 0
M  V30 12000 H 1111.8 6.92761 -0.557374 0
M  V30 12001 H 1115 4.68022 -0.0855821 0
M  V30 12002 H 1115.17 6.46937 -0.370997 0
M  V30 12003 N 1108.58 -0.128553 1.57075 0
M  V30 12004 C 1109.99 -0.481794 1.52154 0
M  V30 12005 C 1110.19 -1.82381 0.856694 0
M  V30 12006 O 1109.25 -2.48725 0.434989 0
M  V30 12007 C 1110.56 -0.475091 2.96923 0
M  V30 12008 C 1112.11 -0.559315 3.07962 0
M  V30 12009 C 1112.58 -0.583095 4.54273 0
M  V30 12010 N 1114.07 -0.644803 4.5869 0
M  V30 12011 C 1114.81 -0.684493 5.693 0
M  V30 12012 N 1114.31 -0.682407 6.89431 0
M  V30 12013 N 1116.1 -0.726777 5.57382 0
M  V30 12014 H 1108.25 0.750894 1.98684 0
M  V30 12015 H 1110.51 0.27593 0.906955 0
M  V30 12016 H 1110.22 0.443157 3.48897 0
M  V30 12017 H 1110.09 -1.30637 3.53856 0
M  V30 12018 H 1112.48 -1.46798 2.55997 0
M  V30 12019 H 1112.56 0.299468 2.54041 0
M  V30 12020 H 1112.2 0.32149 5.06881 0
M  V30 12021 H 1112.13 -1.45863 5.05996 0
M  V30 12022 H 1114.63 -0.652967 3.72216 0
M  V30 12023 H 1114.94 -0.715051 7.69485 0
M  V30 12024 H 1113.28 -0.649984 6.91954 0
M  V30 12025 H 1116.47 -0.725704 4.6244 0
M  V30 12026 H 1116.65 -0.754242 6.43596 0
M  V30 12027 N 1110.05 -1.5248 -0.398459 0
M  V30 12028 C 1111.47 -1.4152 -0.737854 0
M  V30 12029 C 1111.67 -0.528122 -1.94456 0
M  V30 12030 O 1110.73 0.00203799 -2.525 0
M  V30 12031 C 1112.04 -2.8422 -0.9818 0
M  V30 12032 C 1113.59 -2.93635 -1.08386 0
M  V30 12033 C 1114.06 -4.37327 -1.3605 0
M  V30 12034 N 1115.55 -4.40609 -1.42892 0
M  V30 12035 C 1116.29 -5.48863 -1.65944 0
M  V30 12036 N 1115.78 -6.67217 -1.86529 0
M  V30 12037 N 1117.58 -5.36393 -1.68046 0
M  V30 12038 H 1109.73 -2.08681 0.395705 0
M  V30 12039 H 1111.99 -0.941023 0.114801 0
M  V30 12040 H 1111.7 -3.51302 -0.167358 0
M  V30 12041 H 1111.57 -3.25907 -1.89907 0
M  V30 12042 H 1113.96 -2.26728 -1.88888 0
M  V30 12043 H 1114.04 -2.5539 -0.144714 0
M  V30 12044 H 1113.68 -5.04797 -0.56061 0
M  V30 12045 H 1113.61 -4.73116 -2.31233 0
M  V30 12046 H 1116.1 -3.55298 -1.2873 0
M  V30 12047 H 1116.42 -7.45498 -2.03599 0
M  V30 12048 H 1114.76 -6.70263 -1.83773 0
M  V30 12049 H 1117.95 -4.42903 -1.51509 0
M  V30 12050 H 1118.13 -6.2083 -1.85672 0
M  V30 12051 N 1111.53 0.65634 -1.43283 0
M  V30 12052 C 1112.95 0.971645 -1.26614 0
M  V30 12053 C 1113.15 2.00662 -0.183612 0
M  V30 12054 O 1112.2 2.48654 0.439003 0
M  V30 12055 C 1113.52 1.45888 -2.6294 0
M  V30 12056 C 1115.06 1.57569 -2.70446 0
M  V30 12057 C 1115.54 2.09684 -4.07181 0
M  V30 12058 N 1117.03 2.16991 -4.0923 0
M  V30 12059 C 1117.77 2.5843 -5.11861 0
M  V30 12060 N 1117.26 2.99188 -6.24867 0
M  V30 12061 N 1119.05 2.58342 -4.99215 0
M  V30 12062 H 1111.21 -0.028573 -2.12381 0
M  V30 12063 H 1113.47 0.0497918 -0.946691 0
M  V30 12064 H 1113.17 0.772823 -3.43104 0
M  V30 12065 H 1113.05 2.43445 -2.88122 0
M  V30 12066 H 1115.44 2.25277 -1.90616 0
M  V30 12067 H 1115.52 0.584529 -2.49032 0
M  V30 12068 H 1115.16 1.42579 -4.87477 0
M  V30 12069 H 1115.09 3.09625 -4.25958 0
M  V30 12070 H 1117.58 1.88278 -3.27658 0
M  V30 12071 H 1117.89 3.29549 -6.99012 0
M  V30 12072 H 1116.24 2.97 -6.28344 0
M  V30 12073 H 1119.43 2.25875 -4.09998 0
M  V30 12074 H 1119.6 2.90316 -5.79328 0
M  V30 12075 N 1113.01 1.29761 0.894412 0
M  V30 12076 C 1113.96 1.11962 1.98617 0
M  V30 12077 C 1114.94 0.0374952 1.60856 0
M  V30 12078 O 1116.14 0.259789 1.75083 0
M  V30 12079 C 1113.26 0.803708 3.3376 0
M  V30 12080 C 1112.35 1.92563 3.77863 0
M  V30 12081 N 1112.74 3.16983 3.94152 0
M  V30 12082 C 1111.04 1.81986 4.07182 0
M  V30 12083 C 1111.74 3.90212 4.31404 0
M  V30 12084 N 1110.72 3.18194 4.40742 0
M  V30 12085 H 1114.52 2.06339 2.09287 0
M  V30 12086 H 1112.03 1.20963 1.08359 0
M  V30 12087 H 1114.03 0.657223 4.11687 0
M  V30 12088 H 1112.69 -0.132098 3.24431 0
M  V30 12089 H 1113.7 3.52378 3.79539 0
M  V30 12090 H 1110.38 0.957112 4.06381 0
M  V30 12091 H 1111.77 4.97312 4.51808 0
M  V30 12092 N 1114.49 -1.10549 1.12324 0
M  V30 12093 C 1115.44 -2.14997 0.758979 0
M  V30 12094 C 1116.42 -1.59078 -0.241461 0
M  V30 12095 O 1117.61 -1.76937 -0.0471439 0
M  V30 12096 C 1114.74 -3.42633 0.21395 0
M  V30 12097 C 1113.83 -4.05487 1.24261 0
M  V30 12098 N 1114.22 -4.43064 2.43984 0
M  V30 12099 C 1112.52 -4.32534 1.08769 0
M  V30 12100 C 1113.22 -4.92427 3.09662 0
M  V30 12101 N 1112.19 -4.89161 2.37114 0
M  V30 12102 H 1116 -2.4184 1.67005 0
M  V30 12103 H 1113.51 -1.27659 1.00384 0
M  V30 12104 H 1115.51 -4.16849 -0.0651928 0
M  V30 12105 H 1114.17 -3.17249 -0.691591 0
M  V30 12106 H 1115.18 -4.34797 2.81375 0
M  V30 12107 H 1111.86 -4.16813 0.239354 0
M  V30 12108 H 1113.25 -5.31059 4.11614 0
M  V30 12109 N 1115.97 -0.914965 -1.28321 0
M  V30 12110 C 1116.9 -0.348729 -2.2552 0
M  V30 12111 C 1117.88 0.547737 -1.53097 0
M  V30 12112 O 1119.06 0.491119 -1.8199 0
M  V30 12113 C 1116.19 0.501397 -3.34968 0
M  V30 12114 C 1115.23 -0.329859 -4.25223 0
M  V30 12115 S 1116.07 -1.73737 -5.06533 0
M  V30 12116 C 1117.22 -0.89458 -6.19474 0
M  V30 12117 H 1117.46 -1.17256 -2.732 0
M  V30 12118 H 1114.99 -0.716297 -1.36779 0
M  V30 12119 H 1116.95 0.986061 -3.98481 0
M  V30 12120 H 1115.61 1.29962 -2.85952 0
M  V30 12121 H 1114.8 0.320236 -5.02982 0
M  V30 12122 H 1114.4 -0.748221 -3.66439 0
M  V30 12123 H 1116.69 -0.124776 -6.77385 0
M  V30 12124 H 1117.64 -1.64475 -6.88733 0
M  V30 12125 H 1118.05 -0.442217 -5.62765 0
M  V30 12126 N 1117.44 1.42219 -0.679077 0
M  V30 12127 C 1118.67 2.06333 -0.210097 0
M  V30 12128 C 1119.09 1.50703 1.12562 0
M  V30 12129 O 1118.45 0.627241 1.70104 0
M  V30 12130 C 1118.5 3.60243 -0.160322 0
M  V30 12131 O 1117.6 4.03122 0.869872 0
M  V30 12132 H 1116.94 0.655362 -0.106754 0
M  V30 12133 H 1119.47 1.82278 -0.929294 0
M  V30 12134 H 1119.48 4.07997 0.014384 0
M  V30 12135 H 1118.16 4.00106 -1.13526 0
M  V30 12136 H 1116.74 3.66907 0.66586 0
M  V30 12137 N 1118.92 0.422693 1.51826 0
M  V30 12138 C 1119.85 -0.440987 2.23899 0
M  V30 12139 C 1120.83 -1.03685 1.25252 0
M  V30 12140 O 1122.02 -1.08212 1.54345 0
M  V30 12141 C 1119.14 -1.61331 2.97809 0
M  V30 12142 C 1118.19 -1.13954 4.10995 0
M  V30 12143 S 1119.02 -0.0935426 5.35418 0
M  V30 12144 C 1120.18 -1.27087 6.12862 0
M  V30 12145 H 1120.41 0.170945 2.96808 0
M  V30 12146 H 1117.94 0.20709 1.53005 0
M  V30 12147 H 1119.9 -2.28546 3.40994 0
M  V30 12148 H 1118.56 -2.19662 2.24516 0
M  V30 12149 H 1117.76 -2.01578 4.61933 0
M  V30 12150 H 1117.36 -0.545838 3.69995 0
M  V30 12151 H 1119.65 -2.19199 6.4106 0
M  V30 12152 H 1120.59 -0.801752 7.03546 0
M  V30 12153 H 1121 -1.50281 5.44129 0
M  V30 12154 N 1120.4 -1.5685 0.153553 0
M  V30 12155 C 1121.65 -1.97404 -0.490227 0
M  V30 12156 C 1122 -1.03725 -1.62046 0
M  V30 12157 O 1121.29 -0.0735247 -1.91459 0
M  V30 12158 C 1121.49 -3.42022 -1.0371 0
M  V30 12159 C 1121.32 -4.49683 0.038616 0
M  V30 12160 C 1120.09 -5.02993 0.482267 0
M  V30 12161 C 1122.28 -5.07517 0.832507 0
M  V30 12162 N 1120.27 -5.94267 1.54014 0
M  V30 12163 C 1121.64 -5.95062 1.74072 0
M  V30 12164 C 1123.69 -4.90069 0.879566 0
M  V30 12165 C 1122.4 -6.67027 2.69198 0
M  V30 12166 C 1124.42 -5.62741 1.81868 0
M  V30 12167 C 1123.78 -6.5 2.71441 0
M  V30 12168 H 1119.88 -0.767866 -0.148005 0
M  V30 12169 H 1122.47 -1.93093 0.24967 0
M  V30 12170 H 1120.64 -3.46914 -1.74658 0
M  V30 12171 H 1122.37 -3.69624 -1.64804 0
M  V30 12172 H 1119.12 -4.73527 0.0832885 0
M  V30 12173 H 1119.55 -6.44608 2.06903 0
M  V30 12174 H 1124.19 -4.22321 0.201123 0
M  V30 12175 H 1121.91 -7.34 3.38039 0
M  V30 12176 H 1125.49 -5.51234 1.86098 0
M  V30 12177 H 1124.37 -7.05246 3.42926 0
M  V30 12178 N 1121.88 0.120221 -1.57141 0
M  V30 12179 C 1122.79 1.16641 -2.03549 0
M  V30 12180 C 1123.8 1.45407 -0.955656 0
M  V30 12181 O 1124.98 1.56547 -1.26708 0
M  V30 12182 C 1122.04 2.4734 -2.42948 0
M  V30 12183 C 1121.11 2.25982 -3.65008 0
M  V30 12184 C 1120.34 3.50449 -4.02518 0
M  V30 12185 O 1120.56 4.57706 -3.40384 0
M  V30 12186 O 1119.5 3.41524 -4.95626 0
M  V30 12187 H 1123.32 0.802323 -2.9291 0
M  V30 12188 H 1120.91 0.330927 -1.45689 0
M  V30 12189 H 1122.79 3.24348 -2.69029 0
M  V30 12190 H 1121.46 2.83225 -1.56733 0
M  V30 12191 H 1120.37 1.46837 -3.44078 0
M  V30 12192 H 1121.7 1.95002 -4.51924 0
M  V30 12193 N 1123.36 1.52689 0.390367 0
M  V30 12194 C 1124.77 1.59623 0.968366 0
M  V30 12195 C 1125.12 0.44824 1.91011 0
M  V30 12196 O 1124.24 -0.428868 2.12108 0
M  V30 12197 C 1124.84 2.89312 1.76306 0
M  V30 12198 C 1123.4 2.98664 2.29079 0
M  V30 12199 C 1122.54 2.54725 1.09593 0
M  V30 12200 H 1125.5 1.57787 0.169959 0
M  V30 12201 H 1125.52 2.75721 2.62217 0
M  V30 12202 H 1125.03 3.72846 1.07738 0
M  V30 12203 H 1123.13 2.19665 3.00962 0
M  V30 12204 H 1123.24 4.03277 2.58659 0
M  V30 12205 H 1121.61 2.09012 1.45554 0
M  V30 12206 H 1122.39 3.40651 0.425625 0
M  V30 12207 N 1124.83 -0.648732 1.43629 0
M  V30 12208 C 1126.25 -0.964917 1.27128 0
M  V30 12209 C 1126.45 -2.00561 0.194251 0
M  V30 12210 O 1125.51 -2.48884 -0.42581 0
M  V30 12211 C 1126.82 -1.44491 2.6371 0
M  V30 12212 C 1128.37 -1.56133 2.71278 0
M  V30 12213 C 1128.84 -2.07521 4.08288 0
M  V30 12214 N 1130.33 -2.14817 4.10375 0
M  V30 12215 C 1131.07 -2.55712 5.13224 0
M  V30 12216 N 1130.56 -2.9587 6.26444 0
M  V30 12217 N 1132.36 -2.55691 5.00578 0
M  V30 12218 H 1124.51 0.0398357 2.12363 0
M  V30 12219 H 1126.77 -0.0447705 0.946942 0
M  V30 12220 H 1126.48 -0.754616 3.43509 0
M  V30 12221 H 1126.35 -2.41914 2.89409 0
M  V30 12222 H 1128.74 -2.24263 1.91808 0
M  V30 12223 H 1128.82 -0.571314 2.49338 0
M  V30 12224 H 1128.46 -1.39992 4.88226 0
M  V30 12225 H 1128.39 -3.07362 4.27594 0
M  V30 12226 H 1130.88 -1.86538 3.28652 0
M  V30 12227 H 1131.2 -3.25837 7.0075 0
M  V30 12228 H 1129.54 -2.93664 6.2991 0
M  V30 12229 H 1132.73 -2.23697 4.1119 0
M  V30 12230 H 1132.91 -2.87239 5.80859 0
M  V30 12231 N 1126.31 -1.30234 -0.887518 0
M  V30 12232 C 1127.54 -1.21955 -1.67755 0
M  V30 12233 C 1127.96 0.214701 -1.86871 0
M  V30 12234 O 1127.32 1.15459 -1.39782 0
M  V30 12235 C 1127.37 -1.95079 -3.03276 0
M  V30 12236 O 1126.47 -1.27615 -3.92158 0
M  V30 12237 H 1125.81 -0.421948 -0.512695 0
M  V30 12238 H 1128.34 -1.72011 -1.10785 0
M  V30 12239 H 1128.35 -2.04004 -3.53336 0
M  V30 12240 H 1127.03 -2.99392 -2.88682 0
M  V30 12241 H 1125.61 -1.27029 -3.50597 0
M  V30 12242 N 1127.79 1.09952 -1.12909 0
M  V30 12243 C 1129.02 1.8633 -0.910821 0
M  V30 12244 C 1129.44 1.80335 0.534874 0
M  V30 12245 O 1128.8 1.1769 1.37908 0
M  V30 12246 C 1128.85 3.32462 -1.39648 0
M  V30 12247 O 1127.95 4.08327 -0.578192 0
M  V30 12248 H 1127.29 0.577984 -0.32685 0
M  V30 12249 H 1129.82 1.38883 -1.50242 0
M  V30 12250 H 1129.83 3.83311 -1.39774 0
M  V30 12251 H 1128.51 3.36141 -2.44913 0
M  V30 12252 H 1127.08 3.67291 -0.644347 0
M  V30 12253 N 1129.27 0.921757 1.27833 0
M  V30 12254 C 1130.22 0.387357 2.24685 0
M  V30 12255 C 1131.2 -0.505036 1.52768 0
M  V30 12256 O 1132.39 -0.34345 1.73636 0
M  V30 12257 C 1129.52 -0.364168 3.41363 0
M  V30 12258 C 1128.61 0.544401 4.20591 0
M  V30 12259 N 1129 1.66158 4.77729 0
M  V30 12260 C 1127.3 0.346289 4.44654 0
M  V30 12261 C 1128 2.22619 5.37416 0
M  V30 12262 N 1126.98 1.51648 5.22019 0
M  V30 12263 H 1130.78 1.24045 2.6644 0
M  V30 12264 H 1128.29 0.775338 1.42696 0
M  V30 12265 H 1130.29 -0.763917 4.09841 0
M  V30 12266 H 1128.95 -1.21426 3.01141 0
M  V30 12267 H 1129.96 2.04406 4.75856 0
M  V30 12268 H 1126.64 -0.46363 4.14918 0
M  V30 12269 H 1128.03 3.16641 5.92611 0
M  V30 12270 N 1130.75 -1.41857 0.686609 0
M  V30 12271 C 1131.68 -2.33481 0.0298353 0
M  V30 12272 C 1132.66 -1.51329 -0.776756 0
M  V30 12273 O 1133.84 -1.79895 -0.731535 0
M  V30 12274 C 1130.97 -3.35065 -0.913707 0
M  V30 12275 C 1129.93 -4.2746 -0.214861 0
M  V30 12276 C 1129.25 -5.19346 -1.27215 0
M  V30 12277 C 1130.55 -5.14252 0.913367 0
M  V30 12278 H 1132.25 -2.8865 0.795067 0
M  V30 12279 H 1129.79 -1.38792 0.383785 0
M  V30 12280 H 1131.75 -3.98082 -1.38234 0
M  V30 12281 H 1130.47 -2.78226 -1.7105 0
M  V30 12282 H 1129.13 -3.65855 0.233651 0
M  V30 12283 H 1128.78 -4.58827 -2.06124 0
M  V30 12284 H 1128.48 -5.81996 -0.80961 0
M  V30 12285 H 1130 -5.85239 -1.74147 0
M  V30 12286 H 1131.41 -5.70887 0.525424 0
M  V30 12287 H 1129.81 -5.85796 1.30244 0
M  V30 12288 H 1130.88 -4.51949 1.75699 0
M  V30 12289 N 1132.22 -0.430739 -1.51599 0
M  V30 12290 C 1133.64 -0.0826902 -1.59386 0
M  V30 12291 C 1133.84 1.40729 -1.44214 0
M  V30 12292 O 1132.9 2.1765 -1.28002 0
M  V30 12293 C 1134.21 -0.59691 -2.94716 0
M  V30 12294 C 1135.76 -0.556772 -3.08008 0
M  V30 12295 C 1136.23 -1.04786 -4.45852 0
M  V30 12296 N 1137.72 -1.00557 -4.52153 0
M  V30 12297 C 1138.46 -1.35649 -5.57124 0
M  V30 12298 N 1137.95 -1.77994 -6.69545 0
M  V30 12299 N 1139.75 -1.27508 -5.47447 0
M  V30 12300 H 1131.9 -1.40027 -1.59707 0
M  V30 12301 H 1134.16 -0.576606 -0.752482 0
M  V30 12302 H 1133.87 -1.63914 -3.11167 0
M  V30 12303 H 1133.74 -0.0182342 -3.77196 0
M  V30 12304 H 1136.13 0.476457 -2.91228 0
M  V30 12305 H 1136.21 -1.17177 -2.27383 0
M  V30 12306 H 1135.85 -2.07952 -4.63377 0
M  V30 12307 H 1135.78 -0.409461 -5.25006 0
M  V30 12308 H 1138.27 -0.694518 -3.71463 0
M  V30 12309 H 1138.59 -2.03026 -7.45654 0
M  V30 12310 H 1136.93 -1.81916 -6.70769 0
M  V30 12311 H 1140.12 -0.942969 -4.58504 0
M  V30 12312 H 1140.3 -1.55185 -6.29143 0
M  V30 12313 N 1133.7 1.56767 -0.161869 0
M  V30 12314 C 1134.61 2.21083 0.784814 0
M  V30 12315 C 1135.63 1.19959 1.26039 0
M  V30 12316 O 1136.8 1.52588 1.31449 0
M  V30 12317 C 1133.87 2.83153 2.00063 0
M  V30 12318 C 1132.93 3.9945 1.57285 0
M  V30 12319 C 1132.16 4.5855 2.7307 0
M  V30 12320 O 1132.39 4.16534 3.89686 0
M  V30 12321 O 1131.32 5.48575 2.47688 0
M  V30 12322 H 1135.15 3.02522 0.267243 0
M  V30 12323 H 1132.73 1.49255 0.0658783 0
M  V30 12324 H 1134.61 3.22546 2.71186 0
M  V30 12325 H 1133.29 2.04718 2.50744 0
M  V30 12326 H 1132.2 3.64745 0.831393 0
M  V30 12327 H 1133.53 4.7945 1.11304 0
M  V30 12328 N 1135.18 -0.111886 1.57202 0
M  V30 12329 C 1136.6 -0.465629 1.52657 0
M  V30 12330 C 1136.8 -1.81463 0.875989 0
M  V30 12331 O 1135.85 -2.4825 0.461345 0
M  V30 12332 C 1137.17 -0.443571 2.9741 0
M  V30 12333 C 1138.71 -0.52662 3.08538 0
M  V30 12334 C 1139.19 -0.53488 4.54866 0
M  V30 12335 N 1140.68 -0.596117 4.59348 0
M  V30 12336 C 1141.41 -0.624073 5.69994 0
M  V30 12337 N 1140.91 -0.609245 6.90116 0
M  V30 12338 N 1142.7 -0.667619 5.58121 0
M  V30 12339 H 1134.85 0.771925 1.97876 0
M  V30 12340 H 1137.12 0.285534 0.903977 0
M  V30 12341 H 1136.82 0.480138 3.48407 0
M  V30 12342 H 1136.7 -1.26876 3.55221 0
M  V30 12343 H 1139.08 -1.44075 2.57539 0
M  V30 12344 H 1139.17 0.326396 2.53709 0
M  V30 12345 H 1138.81 0.375233 5.06512 0
M  V30 12346 H 1138.74 -1.40488 5.07514 0
M  V30 12347 H 1141.23 -0.613452 3.72888 0
M  V30 12348 H 1141.54 -0.633396 7.702 0
M  V30 12349 H 1139.89 -0.576557 6.92604 0
M  V30 12350 H 1143.08 -0.676616 4.63184 0
M  V30 12351 H 1143.25 -0.685938 6.44359 0
M  V30 12352 N 1136.66 -1.52894 -0.382264 0
M  V30 12353 C 1138.07 -1.42295 -0.722802 0
M  V30 12354 C 1138.27 -0.548717 -1.93885 0
M  V30 12355 O 1137.33 -0.0247431 -2.52488 0
M  V30 12356 C 1138.64 -2.85246 -0.9516 0
M  V30 12357 C 1140.19 -2.94768 -1.05265 0
M  V30 12358 C 1140.67 -4.38745 -1.31404 0
M  V30 12359 N 1142.16 -4.421 -1.38211 0
M  V30 12360 C 1142.89 -5.50592 -1.60113 0
M  V30 12361 N 1142.39 -6.69158 -1.79442 0
M  V30 12362 N 1144.18 -5.38145 -1.62347 0
M  V30 12363 H 1136.33 -2.0825 0.417816 0
M  V30 12364 H 1138.6 -0.939753 0.124776 0
M  V30 12365 H 1138.3 -3.51459 -0.130088 0
M  V30 12366 H 1138.18 -3.27903 -1.86439 0
M  V30 12367 H 1140.56 -2.28718 -1.86472 0
M  V30 12368 H 1140.64 -2.55529 -0.117619 0
M  V30 12369 H 1140.29 -5.05363 -0.507038 0
M  V30 12370 H 1140.22 -4.75542 -2.26202 0
M  V30 12371 H 1142.71 -3.56644 -1.24954 0
M  V30 12372 H 1143.02 -7.47615 -1.95681 0
M  V30 12373 H 1141.37 -6.72175 -1.76653 0
M  V30 12374 H 1144.56 -4.44485 -1.46803 0
M  V30 12375 H 1144.73 -6.22764 -1.79077 0
M  V30 12376 N 1138.14 0.641106 -1.43971 0
M  V30 12377 C 1139.55 0.958161 -1.27638 0
M  V30 12378 C 1139.75 2.00456 -0.204885 0
M  V30 12379 O 1138.81 2.49106 0.412606 0
M  V30 12380 C 1140.12 1.43091 -2.64472 0
M  V30 12381 C 1141.67 1.54692 -2.72102 0
M  V30 12382 C 1142.15 2.05353 -4.09382 0
M  V30 12383 N 1143.64 2.12638 -4.11509 0
M  V30 12384 C 1144.37 2.52987 -5.14573 0
M  V30 12385 N 1143.87 2.92544 -6.28005 0
M  V30 12386 N 1145.66 2.53033 -5.01927 0
M  V30 12387 H 1137.81 -0.0510973 -2.12339 0
M  V30 12388 H 1140.07 0.039748 -0.947166 0
M  V30 12389 H 1139.78 0.736389 -3.43904 0
M  V30 12390 H 1139.65 2.40375 -2.90688 0
M  V30 12391 H 1142.04 2.23242 -1.92994 0
M  V30 12392 H 1142.12 0.558083 -2.49638 0
M  V30 12393 H 1141.77 1.37401 -4.88962 0
M  V30 12394 H 1141.7 3.0509 -4.29218 0
M  V30 12395 H 1144.19 1.84792 -3.29636 0
M  V30 12396 H 1144.5 3.22116 -7.02468 0
M  V30 12397 H 1142.85 2.90319 -6.31458 0
M  V30 12398 H 1146.04 2.21514 -4.1237 0
M  V30 12399 H 1146.21 2.84155 -5.82375 0
M  V30 12400 N 1139.62 1.30703 0.880598 0
M  V30 12401 C 1141.03 1.09129 1.1646 0
M  V30 12402 C 1141.23 -0.145131 2.00977 0
M  V30 12403 O 1140.29 -0.837502 2.38206 0
M  V30 12404 C 1141.6 2.35717 1.86703 0
M  V30 12405 C 1143.15 2.41224 1.9945 0
M  V30 12406 C 1143.62 3.67665 2.73105 0
M  V30 12407 N 1145.11 3.68498 2.80648 0
M  V30 12408 C 1145.85 4.63024 3.38225 0
M  V30 12409 N 1145.35 5.67898 3.96817 0
M  V30 12410 N 1147.14 4.50561 3.36082 0
M  V30 12411 H 1139.29 2.10019 0.317164 0
M  V30 12412 H 1141.55 0.925994 0.203072 0
M  V30 12413 H 1141.26 3.2597 1.32046 0
M  V30 12414 H 1141.13 2.447 2.87057 0
M  V30 12415 H 1143.52 1.51446 2.53275 0
M  V30 12416 H 1143.6 2.36212 0.981704 0
M  V30 12417 H 1143.24 4.57803 2.19951 0
M  V30 12418 H 1143.17 3.69939 3.7477 0
M  V30 12419 H 1145.67 2.92681 2.39053 0
M  V30 12420 H 1145.98 6.3612 4.3883 0
M  V30 12421 H 1144.32 5.71685 3.95223 0
M  V30 12422 H 1147.51 3.67811 2.89539 0
M  V30 12423 H 1147.69 5.24408 3.80657 0
M  V30 12424 N 1141.09 -1.09351 1.1349 0
M  V30 12425 C 1142.04 -2.14179 0.781739 0
M  V30 12426 C 1143.03 -1.59325 -0.224575 0
M  V30 12427 O 1144.22 -1.76977 -0.0283747 0
M  V30 12428 C 1141.35 -3.42386 0.250278 0
M  V30 12429 C 1140.43 -4.04147 1.28555 0
M  V30 12430 N 1140.83 -4.40451 2.4867 0
M  V30 12431 C 1139.12 -4.31356 1.13351 0
M  V30 12432 C 1139.82 -4.89115 3.14867 0
M  V30 12433 N 1138.8 -4.86618 2.42289 0
M  V30 12434 H 1142.6 -2.40055 1.69561 0
M  V30 12435 H 1140.12 -1.26587 1.01733 0
M  V30 12436 H 1142.11 -4.16895 -0.0209767 0
M  V30 12437 H 1140.77 -3.17965 -0.657904 0
M  V30 12438 H 1141.78 -4.31789 2.8597 0
M  V30 12439 H 1138.46 -4.16536 0.28355 0
M  V30 12440 H 1139.85 -5.26663 4.17224 0
M  V30 12441 N 1142.57 -0.928524 -1.27343 0
M  V30 12442 C 1143.52 -0.399267 -2.24477 0
M  V30 12443 C 1144.51 0.496927 -1.53034 0
M  V30 12444 O 1145.7 0.334237 -1.73816 0
M  V30 12445 C 1142.83 0.346059 -3.41551 0
M  V30 12446 C 1141.91 -0.566699 -4.20297 0
M  V30 12447 N 1142.3 -1.6869 -4.76841 0
M  V30 12448 C 1140.6 -0.369865 -4.44464 0
M  V30 12449 C 1141.3 -2.25466 -5.36228 0
M  V30 12450 N 1140.28 -1.54414 -5.21207 0
M  V30 12451 H 1144.08 -1.25456 -2.65778 0
M  V30 12452 H 1141.59 -0.782894 -1.42283 0
M  V30 12453 H 1143.59 0.742171 -4.10241 0
M  V30 12454 H 1142.25 1.19827 -3.01781 0
M  V30 12455 H 1143.26 -2.06926 -4.74765 0
M  V30 12456 H 1139.94 0.441619 -4.15158 0
M  V30 12457 H 1141.33 -3.19779 -5.90924 0
M  V30 12458 N 1144.05 1.41491 -0.694123 0
M  V30 12459 C 1144.98 2.28189 0.0226347 0
M  V30 12460 C 1145.96 1.42152 0.7894 0
M  V30 12461 O 1147.14 1.71581 0.780519 0
M  V30 12462 C 1144.27 3.22357 1.03942 0
M  V30 12463 C 1143.32 4.24927 0.365994 0
M  V30 12464 S 1144.15 5.28043 -0.890562 0
M  V30 12465 C 1145.31 6.25776 0.124665 0
M  V30 12466 H 1145.54 2.88631 -0.712698 0
M  V30 12467 H 1143.07 1.46607 -0.484344 0
M  V30 12468 H 1145.03 3.77143 1.62091 0
M  V30 12469 H 1143.69 2.61013 1.74732 0
M  V30 12470 H 1142.88 4.9108 1.13388 0
M  V30 12471 H 1142.49 3.73729 -0.142389 0
M  V30 12472 H 1144.78 6.70398 0.978393 0
M  V30 12473 H 1145.72 7.06312 -0.502901 0
M  V30 12474 H 1146.13 5.62466 0.478792 0
M  V30 12475 N 1145.53 0.438773 1.51369 0
M  V30 12476 C 1146.75 -0.128221 2.07003 0
M  V30 12477 C 1147.18 -1.3557 1.30393 0
M  V30 12478 O 1146.54 -1.7804 0.342283 0
M  V30 12479 C 1146.58 -0.42761 3.58056 0
M  V30 12480 O 1145.69 -1.51382 3.83611 0
M  V30 12481 H 1145.03 -0.00123679 0.663999 0
M  V30 12482 H 1147.56 0.62052 1.94963 0
M  V30 12483 H 1147.57 -0.677645 4.02333 0
M  V30 12484 H 1146.24 0.469535 4.13241 0
M  V30 12485 H 1144.82 -1.25363 3.51196 0
M  V30 12486 N 1147.01 -1.56678 0.170181 0
M  V30 12487 C 1148.25 -1.9714 -0.475767 0
M  V30 12488 C 1148.58 -1.05611 -1.62972 0
M  V30 12489 O 1147.86 -0.103017 -1.94227 0
M  V30 12490 C 1148.14 -3.47072 -0.959828 0
M  V30 12491 C 1148 -4.4938 0.194225 0
M  V30 12492 C 1149.31 -4.00071 -1.83387 0
M  V30 12493 H 1146.43 -0.716776 -0.171466 0
M  V30 12494 H 1149.08 -1.88266 0.256086 0
M  V30 12495 H 1147.23 -3.54766 -1.58346 0
M  V30 12496 H 1148.9 -4.53748 0.83128 0
M  V30 12497 H 1147.14 -4.25393 0.849893 0
M  V30 12498 H 1147.81 -5.51685 -0.186575 0
M  V30 12499 H 1150.29 -3.95002 -1.30815 0
M  V30 12500 H 1149.16 -5.05398 -2.14159 0
M  V30 12501 H 1149.42 -3.43819 -2.77923 0
M  V30 12502 N 1148.48 0.103547 -1.57259 0
M  V30 12503 C 1149.73 0.804704 -1.86805 0
M  V30 12504 C 1150.08 1.76756 -0.759942 0
M  V30 12505 O 1149.38 1.90106 0.238789 0
M  V30 12506 C 1149.57 1.57946 -3.20605 0
M  V30 12507 C 1149.4 0.693136 -4.44326 0
M  V30 12508 C 1148.17 0.342079 -5.04141 0
M  V30 12509 C 1150.37 0.00385713 -5.143 0
M  V30 12510 N 1148.35 -0.553293 -6.11402 0
M  V30 12511 C 1149.72 -0.74991 -6.15448 0
M  V30 12512 C 1151.78 -0.0709485 -4.97849 0
M  V30 12513 C 1150.48 -1.57148 -7.01924 0
M  V30 12514 C 1152.51 -0.879391 -5.84825 0
M  V30 12515 C 1151.87 -1.6213 -6.85488 0
M  V30 12516 H 1147.97 0.270899 -0.733579 0
M  V30 12517 H 1150.55 0.0676446 -1.94582 0
M  V30 12518 H 1148.72 2.28745 -3.13895 0
M  V30 12519 H 1150.45 2.22715 -3.37905 0
M  V30 12520 H 1147.21 0.687831 -4.68579 0
M  V30 12521 H 1147.63 -0.993284 -6.69674 0
M  V30 12522 H 1152.27 0.488299 -4.19971 0
M  V30 12523 H 1149.99 -2.14182 -7.79199 0
M  V30 12524 H 1153.58 -0.939834 -5.74159 0
M  V30 12525 H 1152.46 -2.2368 -7.51623 0
M  V30 12526 N 1149.96 1.53094 0.37415 0
M  V30 12527 C 1150.87 1.81872 1.48188 0
M  V30 12528 C 1151.89 0.706487 1.59012 0
M  V30 12529 O 1153.06 0.995648 1.75068 0
M  V30 12530 C 1150.13 1.99494 2.83554 0
M  V30 12531 C 1149.19 3.23402 2.82329 0
M  V30 12532 C 1148.42 3.40174 4.11239 0
M  V30 12533 O 1148.65 2.61425 5.06965 0
M  V30 12534 O 1147.58 4.33493 4.17573 0
M  V30 12535 H 1151.41 2.75965 1.26795 0
M  V30 12536 H 1148.99 1.38368 0.56343 0
M  V30 12537 H 1150.87 2.12705 3.63778 0
M  V30 12538 H 1149.55 1.08591 3.04942 0
M  V30 12539 H 1148.45 3.15621 2.00834 0
M  V30 12540 H 1149.79 4.14199 2.65894 0
M  V30 12541 N 1151.44 -0.633461 1.44309 0
M  V30 12542 C 1152.37 -1.75868 1.4698 0
M  V30 12543 C 1153.38 -1.58691 0.363469 0
M  V30 12544 O 1154.57 -1.67048 0.629075 0
M  V30 12545 C 1151.67 -3.1356 1.28582 0
M  V30 12546 C 1150.85 -3.57217 2.52418 0
M  V30 12547 C 1149.91 -4.73779 2.28954 0
M  V30 12548 O 1148.93 -4.8221 3.02428 0
M  V30 12549 N 1150.13 -5.65324 1.31866 0
M  V30 12550 H 1152.9 -1.74048 2.43983 0
M  V30 12551 H 1150.46 -0.817952 1.39718 0
M  V30 12552 H 1152.45 -3.89255 1.10736 0
M  V30 12553 H 1151.02 -3.10036 0.399529 0
M  V30 12554 H 1150.24 -2.71755 2.85557 0
M  V30 12555 H 1151.53 -3.83136 3.3479 0
M  V30 12556 H 1150.93 -5.61204 0.71179 0
M  V30 12557 H 1149.48 -6.40659 1.19998 0
M  V30 12558 N 1152.92 -1.31168 -0.873655 0
M  V30 12559 C 1154.33 -1.09745 -1.1588 0
M  V30 12560 C 1154.53 0.134471 -2.01051 0
M  V30 12561 O 1153.59 0.824857 -2.38647 0
M  V30 12562 C 1154.9 -2.36704 -1.85451 0
M  V30 12563 C 1156.45 -2.42278 -1.98167 0
M  V30 12564 C 1156.93 -3.69108 -2.71152 0
M  V30 12565 N 1158.42 -3.69981 -2.7869 0
M  V30 12566 C 1159.15 -4.64811 -3.35765 0
M  V30 12567 N 1158.65 -5.69995 -3.938 0
M  V30 12568 N 1160.44 -4.52337 -3.33688 0
M  V30 12569 H 1152.59 -2.10184 -0.306021 0
M  V30 12570 H 1154.86 -0.927058 -0.198159 0
M  V30 12571 H 1154.56 -3.26666 -1.30316 0
M  V30 12572 H 1154.44 -2.46219 -2.85755 0
M  V30 12573 H 1156.82 -1.52787 -2.52468 0
M  V30 12574 H 1156.9 -2.3673 -0.969164 0
M  V30 12575 H 1156.55 -4.58963 -2.1752 0
M  V30 12576 H 1156.48 -3.71922 -3.72803 0
M  V30 12577 H 1158.97 -2.93944 -2.37498 0
M  V30 12578 H 1159.28 -6.38438 -4.3545 0
M  V30 12579 H 1157.63 -5.73773 -3.92186 0
M  V30 12580 H 1160.82 -3.69341 -2.87584 0
M  V30 12581 H 1160.99 -5.2642 -3.77871 0
M  V30 12582 N 1154.4 1.08748 -1.14068 0
M  V30 12583 C 1155.62 1.84814 -0.930138 0
M  V30 12584 C 1156.04 1.81461 0.521267 0
M  V30 12585 O 1155.4 1.21577 1.36108 0
M  V30 12586 C 1155.45 3.32501 -1.41863 0
M  V30 12587 O 1155.17 3.35846 -2.81317 0
M  V30 12588 C 1156.67 4.25384 -1.24753 0
M  V30 12589 H 1153.89 0.583546 -0.331233 0
M  V30 12590 H 1156.43 1.37366 -1.51495 0
M  V30 12591 H 1154.59 3.7735 -0.876664 0
M  V30 12592 H 1155 4.28013 -3.03159 0
M  V30 12593 H 1156.48 5.27138 -1.63798 0
M  V30 12594 H 1156.95 4.38789 -0.18999 0
M  V30 12595 H 1157.56 3.86357 -1.77787 0
M  V30 12596 N 1155.87 0.935264 1.26849 0
M  V30 12597 C 1157.1 0.595704 1.98661 0
M  V30 12598 C 1157.52 -0.821001 1.69237 0
M  V30 12599 O 1156.88 -1.55211 0.936982 0
M  V30 12600 C 1156.93 0.837275 3.50745 0
M  V30 12601 O 1156.03 -0.0934914 4.12294 0
M  V30 12602 H 1155.38 0.228512 0.623441 0
M  V30 12603 H 1157.91 1.25658 1.61466 0
M  V30 12604 H 1157.92 0.755827 4.00938 0
M  V30 12605 H 1156.59 1.86993 3.71492 0
M  V30 12606 H 1155.17 0.0385124 3.7288 0
M  V30 12607 N 1157.35 -1.41121 0.701616 0
M  V30 12608 C 1158.28 -2.292 0.000880842 0
M  V30 12609 C 1159.3 -1.45102 -0.738192 0
M  V30 12610 O 1160.49 -1.68541 -0.587891 0
M  V30 12611 C 1157.59 -3.23094 -1.02292 0
M  V30 12612 C 1156.76 -4.35979 -0.352231 0
M  V30 12613 C 1155.82 -5.10408 -1.27947 0
M  V30 12614 O 1154.84 -5.63974 -0.769561 0
M  V30 12615 N 1156.05 -5.18442 -2.61147 0
M  V30 12616 H 1158.81 -2.8998 0.757094 0
M  V30 12617 H 1156.37 -1.52339 0.548126 0
M  V30 12618 H 1158.36 -3.69755 -1.64509 0
M  V30 12619 H 1156.93 -2.6358 -1.68061 0
M  V30 12620 H 1156.15 -3.91624 0.44992 0
M  V30 12621 H 1157.44 -5.08673 0.113882 0
M  V30 12622 H 1156.84 -4.76381 -3.05087 0
M  V30 12623 H 1155.4 -5.68659 -3.18544 0
M  V30 12624 N 1158.83 -0.446794 -1.51134 0
M  V30 12625 C 1159.76 0.350229 -2.30858 0
M  V30 12626 C 1160.74 1.0125 -1.36684 0
M  V30 12627 O 1161.93 1.01433 -1.65605 0
M  V30 12628 C 1159.06 1.4464 -3.15748 0
M  V30 12629 C 1158.01 0.907102 -4.18277 0
M  V30 12630 C 1157.34 2.09974 -4.91747 0
M  V30 12631 C 1158.64 -0.0649758 -5.2226 0
M  V30 12632 H 1160.33 -0.315105 -2.97737 0
M  V30 12633 H 1157.88 -0.152985 -1.43185 0
M  V30 12634 H 1159.83 2.01127 -3.70305 0
M  V30 12635 H 1158.55 2.14016 -2.46708 0
M  V30 12636 H 1157.21 0.364382 -3.64785 0
M  V30 12637 H 1156.86 2.77991 -4.19202 0
M  V30 12638 H 1156.56 1.74523 -5.61084 0
M  V30 12639 H 1158.08 2.66996 -5.49131 0
M  V30 12640 H 1159.5 0.4099 -5.71833 0
M  V30 12641 H 1157.9 -0.332529 -5.99178 0
M  V30 12642 H 1158.97 -0.998681 -4.74504 0
M  V30 12643 N 1160.31 1.56586 -0.178487 0
M  V30 12644 C 1161.72 1.58609 0.17759 0
M  V30 12645 C 1161.92 1.19411 1.62306 0
M  V30 12646 O 1160.98 0.90906 2.35568 0
M  V30 12647 C 1162.29 3.005 -0.109722 0
M  V30 12648 C 1163.84 3.12962 -0.0485036 0
M  V30 12649 C 1164.32 4.56957 -0.308901 0
M  V30 12650 N 1165.81 4.62487 -0.25693 0
M  V30 12651 C 1166.54 5.71767 -0.432488 0
M  V30 12652 N 1166.04 6.89577 -0.667494 0
M  V30 12653 N 1167.83 5.60895 -0.367895 0
M  V30 12654 H 1159.98 1.80351 -1.12193 0
M  V30 12655 H 1162.25 0.83623 -0.446569 0
M  V30 12656 H 1161.95 3.3368 -1.11133 0
M  V30 12657 H 1161.83 3.72472 0.595373 0
M  V30 12658 H 1164.21 2.79604 0.943687 0
M  V30 12659 H 1164.29 2.43411 -0.78642 0
M  V30 12660 H 1163.94 4.91025 -1.29833 0
M  V30 12661 H 1163.87 5.24676 0.449711 0
M  V30 12662 H 1166.36 3.77813 -0.0812308 0
M  V30 12663 H 1166.67 7.68744 -0.79071 0
M  V30 12664 H 1165.02 6.91423 -0.704193 0
M  V30 12665 H 1168.21 4.67735 -0.184837 0
M  V30 12666 H 1168.38 6.46005 -0.508138 0
M  V30 12667 N 1161.79 -0.095206 1.57312 0
M  V30 12668 C 1162.73 -1.11551 2.02052 0
M  V30 12669 C 1163.7 -1.39808 0.896818 0
M  V30 12670 O 1164.89 -1.51273 1.1628 0
M  V30 12671 C 1162.03 -2.43056 2.44985 0
M  V30 12672 C 1161.14 -2.21531 3.70875 0
M  V30 12673 C 1160.28 -3.46434 4.02687 0
M  V30 12674 C 1159.32 -3.2017 5.21687 0
M  V30 12675 N 1158.45 -4.37339 5.49253 0
M  V30 12676 H 1163.29 -0.727 2.88996 0
M  V30 12677 H 1160.83 -0.347441 1.42938 0
M  V30 12678 H 1162.79 -3.19803 2.67921 0
M  V30 12679 H 1161.42 -2.79754 1.61051 0
M  V30 12680 H 1160.47 -1.35587 3.55416 0
M  V30 12681 H 1161.78 -1.98116 4.57768 0
M  V30 12682 H 1160.94 -4.31589 4.26399 0
M  V30 12683 H 1159.67 -3.72904 3.14315 0
M  V30 12684 H 1158.68 -2.33409 4.97796 0
M  V30 12685 H 1159.9 -2.95047 6.11657 0
M  V30 12686 H 1157.85 -4.63885 4.6384 0
M  V30 12687 H 1157.77 -4.17114 6.30517 0
M  V30 12688 H 1159.04 -5.23559 5.775 0
M  V30 12689 N 1163.26 -1.53291 -0.366026 0
M  V30 12690 C 1164.21 -1.76077 -1.44847 0
M  V30 12691 C 1165.2 -0.615302 -1.4867 0
M  V30 12692 O 1166.39 -0.873952 -1.53919 0
M  V30 12693 C 1163.52 -1.95371 -2.82286 0
M  V30 12694 C 1162.61 -3.15918 -2.82943 0
M  V30 12695 N 1163 -4.37835 -2.53247 0
M  V30 12696 C 1161.29 -3.16631 -3.14103 0
M  V30 12697 C 1162 -5.19573 -2.6157 0
M  V30 12698 N 1160.97 -4.55773 -2.96263 0
M  V30 12699 H 1164.77 -2.67949 -1.2075 0
M  V30 12700 H 1162.29 -1.5191 -0.574206 0
M  V30 12701 H 1164.28 -2.09823 -3.6025 0
M  V30 12702 H 1162.94 -1.04727 -3.07347 0
M  V30 12703 H 1163.96 -4.65575 -2.26848 0
M  V30 12704 H 1160.63 -2.35878 -3.44482 0
M  V30 12705 H 1162.02 -6.26821 -2.41961 0
M  V30 12706 N 1164.74 0.6258 -1.44643 0
M  V30 12707 C 1165.68 1.75056 -1.46392 0
M  V30 12708 C 1166.65 1.59376 -0.322179 0
M  V30 12709 O 1167.84 1.81187 -0.519956 0
M  V30 12710 C 1164.96 3.12689 -1.30166 0
M  V30 12711 C 1164.01 3.47005 -2.47972 0
M  V30 12712 S 1164.84 3.43885 -4.10491 0
M  V30 12713 C 1166 4.84129 -3.96698 0
M  V30 12714 H 1166.23 1.73306 -2.41562 0
M  V30 12715 H 1163.77 0.800879 -1.32005 0
M  V30 12716 H 1165.72 3.9211 -1.21492 0
M  V30 12717 H 1164.38 3.11972 -0.364982 0
M  V30 12718 H 1163.58 4.47171 -2.32496 0
M  V30 12719 H 1163.18 2.75059 -2.53414 0
M  V30 12720 H 1165.47 5.73488 -3.60718 0
M  V30 12721 H 1166.41 5.0466 -4.96713 0
M  V30 12722 H 1166.82 4.58954 -3.28666 0
M  V30 12723 N 1166.22 1.31629 0.866686 0
M  V30 12724 C 1167.15 1.15377 1.98042 0
M  V30 12725 C 1168.17 0.0919633 1.6254 0
M  V30 12726 O 1169.35 0.339775 1.75236 0
M  V30 12727 C 1166.45 0.741295 3.30693 0
M  V30 12728 C 1165.63 1.88882 3.94516 0
M  V30 12729 C 1164.69 1.46186 5.05486 0
M  V30 12730 O 1163.71 2.17202 5.26129 0
M  V30 12731 N 1164.91 0.351096 5.79437 0
M  V30 12732 H 1167.68 2.11309 2.12529 0
M  V30 12733 H 1165.24 1.24007 1.04085 0
M  V30 12734 H 1167.23 0.438313 4.02319 0
M  V30 12735 H 1165.8 -0.12651 3.12344 0
M  V30 12736 H 1165.02 2.35894 3.15828 0
M  V30 12737 H 1166.31 2.65734 4.33892 0
M  V30 12738 H 1165.71 -0.240245 5.6519 0
M  V30 12739 H 1164.27 0.107663 6.51711 0
M  V30 12740 N 1167.7 -1.08142 1.14644 0
M  V30 12741 C 1168.63 -2.14476 0.779437 0
M  V30 12742 C 1169.61 -1.60812 -0.240454 0
M  V30 12743 O 1170.79 -1.88059 -0.128881 0
M  V30 12744 C 1167.92 -3.38333 0.157692 0
M  V30 12745 C 1166.97 -4.10754 1.14819 0
M  V30 12746 S 1167.8 -4.63227 2.68666 0
M  V30 12747 C 1168.96 -5.90367 2.07888 0
M  V30 12748 H 1169.19 -2.45276 1.68009 0
M  V30 12749 H 1166.72 -1.20292 0.967942 0
M  V30 12750 H 1168.68 -4.10038 -0.194607 0
M  V30 12751 H 1167.34 -3.05726 -0.720435 0
M  V30 12752 H 1166.53 -4.99644 0.661226 0
M  V30 12753 H 1166.14 -3.44974 1.44462 0
M  V30 12754 H 1168.43 -6.62107 1.43599 0
M  V30 12755 H 1169.37 -6.43764 2.94913 0
M  V30 12756 H 1169.78 -5.43507 1.52514 0
M  V30 12757 N 1169.18 -0.941978 -1.26351 0
M  V30 12758 C 1170.4 -0.606231 -1.98342 0
M  V30 12759 C 1170.83 0.812014 -1.6967 0
M  V30 12760 O 1170.19 1.54712 -0.9452 0
M  V30 12761 C 1170.23 -0.855864 -3.50296 0
M  V30 12762 O 1169.34 0.0716251 -4.12338 0
M  V30 12763 H 1168.68 -0.231815 -0.62222 0
M  V30 12764 H 1171.21 -1.26513 -1.60797 0
M  V30 12765 H 1171.22 -0.777079 -4.00531 0
M  V30 12766 H 1169.89 -1.8896 -3.70496 0
M  V30 12767 H 1168.47 -0.0582866 -3.72854 0
M  V30 12768 N 1170.66 1.40747 -0.709091 0
M  V30 12769 C 1171.88 2.05841 -0.253816 0
M  V30 12770 C 1172.31 1.53056 1.09341 0
M  V30 12771 O 1171.66 0.663181 1.68735 0
M  V30 12772 C 1171.71 3.59822 -0.236699 0
M  V30 12773 O 1170.82 4.04876 0.784168 0
M  V30 12774 H 1170.16 0.65295 -0.120631 0
M  V30 12775 H 1172.69 1.80266 -0.967749 0
M  V30 12776 H 1172.7 4.07936 -0.0721616 0
M  V30 12777 H 1171.37 3.97608 -1.21988 0
M  V30 12778 H 1169.95 3.68237 0.587884 0
M  V30 12779 N 1172.13 0.454803 1.50895 0
M  V30 12780 C 1173.07 -0.383826 2.25963 0
M  V30 12781 C 1174.08 -0.971263 1.30653 0
M  V30 12782 O 1175.27 -0.862434 1.56283 0
M  V30 12783 C 1172.37 -1.55069 3.01342 0
M  V30 12784 C 1171.54 -1.07899 4.23883 0
M  V30 12785 C 1170.6 -2.118 4.81692 0
M  V30 12786 O 1169.63 -1.70523 5.43057 0
M  V30 12787 N 1170.83 -3.44459 4.67256 0
M  V30 12788 H 1173.59 0.259646 2.98573 0
M  V30 12789 H 1171.15 0.284661 1.59378 0
M  V30 12790 H 1173.15 -2.24236 3.36898 0
M  V30 12791 H 1171.72 -2.09917 2.31633 0
M  V30 12792 H 1170.94 -0.213773 3.9362 0
M  V30 12793 H 1172.22 -0.741501 5.03368 0
M  V30 12794 H 1171.62 -3.80716 4.18416 0
M  V30 12795 H 1170.18 -4.0947 5.07127 0
M  V30 12796 N 1173.61 -1.56489 0.186789 0
M  V30 12797 C 1174.52 -2.22304 -0.749543 0
M  V30 12798 C 1175.54 -1.21949 -1.24115 0
M  V30 12799 O 1176.71 -1.5466 -1.29005 0
M  V30 12800 C 1173.78 -2.863 -1.95533 0
M  V30 12801 C 1172.84 -4.01901 -1.5091 0
M  V30 12802 C 1172.07 -4.62837 -2.6574 0
M  V30 12803 O 1172.3 -4.22681 -3.8301 0
M  V30 12804 O 1171.23 -5.52446 -2.38929 0
M  V30 12805 H 1175.06 -3.02909 -0.21908 0
M  V30 12806 H 1172.64 -1.49341 -0.0421249 0
M  V30 12807 H 1174.52 -3.2682 -2.6602 0
M  V30 12808 H 1173.2 -2.08681 -2.47455 0
M  V30 12809 H 1172.1 -3.66021 -0.773261 0
M  V30 12810 H 1173.44 -4.8116 -1.03663 0
M  V30 12811 N 1175.09 0.086862 -1.5736 0
M  V30 12812 C 1176.05 1.08906 -2.01673 0
M  V30 12813 C 1177.05 1.32473 -0.911463 0
M  V30 12814 O 1178.24 1.28447 -1.17673 0
M  V30 12815 C 1175.37 2.43629 -2.38449 0
M  V30 12816 H 1176.57 0.707461 -2.91436 0
M  V30 12817 H 1174.12 0.332154 -1.5273 0
M  V30 12818 H 1174.86 2.8665 -1.51665 0
M  V30 12819 H 1174.64 2.2787 -3.19089 0
M  V30 12820 H 1176.13 3.15695 -2.73361 0
M  V30 12821 N 1176.57 1.53483 0.357892 0
M  V30 12822 C 1177.5 1.83444 1.44466 0
M  V30 12823 C 1178.48 0.688486 1.55544 0
M  V30 12824 O 1179.66 0.93906 1.69986 0
M  V30 12825 C 1176.79 2.03122 2.81707 0
M  V30 12826 C 1175.75 3.1891 2.85448 0
M  V30 12827 C 1175.07 3.23895 4.25436 0
M  V30 12828 C 1176.37 4.57334 2.52275 0
M  V30 12829 H 1178.07 2.74456 1.19642 0
M  V30 12830 H 1175.61 1.3206 0.574112 0
M  V30 12831 H 1177.57 2.22666 3.57768 0
M  V30 12832 H 1176.29 1.08827 3.07935 0
M  V30 12833 H 1174.95 2.99199 2.11838 0
M  V30 12834 H 1174.6 2.27223 4.48753 0
M  V30 12835 H 1174.3 4.01694 4.28854 0
M  V30 12836 H 1175.82 3.45632 5.0336 0
M  V30 12837 H 1177.24 4.76988 3.1805 0
M  V30 12838 H 1175.63 5.37431 2.66998 0
M  V30 12839 H 1176.7 4.61921 1.47501 0
M  V30 12840 N 1178.05 -0.61812 1.44973 0
M  V30 12841 C 1178.99 -1.75059 1.53157 0
M  V30 12842 C 1179.99 -1.64554 0.402282 0
M  V30 12843 O 1181.19 -1.70475 0.577767 0
M  V30 12844 H 1177.57 -0.57817 0.480856 0
M  V30 12845 H 1179.54 -1.65281 2.48445 0
M  V30 12846 C 1178.29 -3.13423 1.50538 0
M  V30 12847 H 1177.61 -3.2216 2.36755 0
M  V30 12848 H 1179.05 -3.92521 1.60323 0
M  V30 12849 C 1177.51 -3.36127 0.228127 0
M  V30 12850 O 1178.04 -3.95618 -0.696364 0
M  V30 12851 N 1176.25 -2.90322 0.127142 0
M  V30 12852 H 1175.79 -2.42091 0.880317 0
M  V30 12853 H 1175.75 -3.05887 -0.726659 0
M  V30 12854 N 1179.52 -1.32087 -0.859693 0
M  V30 12855 C 1180.94 -1.10968 -1.14709 0
M  V30 12856 C 1181.14 0.113139 -2.01182 0
M  V30 12857 O 1180.2 0.799499 -2.39508 0
M  V30 12858 C 1181.51 -2.38657 -1.8293 0
M  V30 12859 C 1183.06 -2.44366 -1.95587 0
M  V30 12860 C 1183.53 -3.71963 -2.67222 0
M  V30 12861 N 1185.02 -3.72916 -2.7475 0
M  V30 12862 C 1185.76 -4.68346 -3.30816 0
M  V30 12863 N 1185.25 -5.74139 -3.87732 0
M  V30 12864 N 1187.05 -4.55851 -3.28872 0
M  V30 12865 H 1179.2 -2.10497 -0.283711 0
M  V30 12866 H 1181.46 -0.929108 -0.188315 0
M  V30 12867 H 1181.17 -3.2803 -1.26844 0
M  V30 12868 H 1181.04 -2.49236 -2.83128 0
M  V30 12869 H 1183.43 -1.55456 -2.50833 0
M  V30 12870 H 1183.51 -2.37744 -0.944001 0
M  V30 12871 H 1183.15 -4.61245 -2.1264 0
M  V30 12872 H 1183.08 -3.75855 -3.68837 0
M  V30 12873 H 1185.57 -2.96447 -2.34367 0
M  V30 12874 H 1185.89 -6.43021 -4.28654 0
M  V30 12875 H 1184.23 -5.779 -3.86078 0
M  V30 12876 H 1187.42 -3.72371 -2.83651 0
M  V30 12877 H 1187.6 -5.30398 -3.72266 0
M  V30 12878 N 1181 1.07532 -1.15215 0
M  V30 12879 C 1181.91 2.18222 -0.861192 0
M  V30 12880 C 1182.93 1.73246 0.161798 0
M  V30 12881 O 1184.1 2.01397 -0.0118386 0
M  V30 12882 C 1181.17 3.44902 -0.352601 0
M  V30 12883 C 1180.23 4.04455 -1.43926 0
M  V30 12884 C 1179.46 5.25089 -0.954841 0
M  V30 12885 O 1179.69 5.70048 0.200294 0
M  V30 12886 O 1178.62 5.76269 -1.73774 0
M  V30 12887 H 1182.45 2.45599 -1.78648 0
M  V30 12888 H 1180.03 1.16835 -0.93112 0
M  V30 12889 H 1181.91 4.21333 -0.0753347 0
M  V30 12890 H 1180.59 3.19082 0.544841 0
M  V30 12891 H 1179.49 3.29573 -1.7701 0
M  V30 12892 H 1180.83 4.34544 -2.31155 0
M  V30 12893 N 1182.48 0.948665 1.2585 0
M  V30 12894 C 1183.39 0.470525 2.29833 0
M  V30 12895 C 1184.41 -0.45919 1.67832 0
M  V30 12896 O 1185.58 -0.336893 1.98562 0
M  V30 12897 C 1182.65 -0.249635 3.458 0
M  V30 12898 C 1181.71 0.717559 4.23261 0
M  V30 12899 C 1180.94 0.0316724 5.33691 0
M  V30 12900 O 1181.16 -1.18384 5.5798 0
M  V30 12901 O 1180.1 0.71418 5.97648 0
M  V30 12902 H 1183.92 1.33447 2.72811 0
M  V30 12903 H 1181.51 0.714864 1.31187 0
M  V30 12904 H 1183.39 -0.654993 4.16279 0
M  V30 12905 H 1182.07 -1.08885 3.04837 0
M  V30 12906 H 1180.97 1.17301 3.55234 0
M  V30 12907 H 1182.31 1.52461 4.67992 0
M  V30 12908 N 1183.96 -1.40369 0.716545 0
M  V30 12909 C 1184.92 -2.29083 0.0733105 0
M  V30 12910 C 1185.92 -1.45415 -0.686378 0
M  V30 12911 O 1187.11 -1.66316 -0.518139 0
M  V30 12912 C 1184.24 -3.28639 -0.906032 0
M  V30 12913 H 1185.44 -2.87464 0.85467 0
M  V30 12914 H 1182.99 -1.48706 0.481256 0
M  V30 12915 H 1183.72 -2.75279 -1.71441 0
M  V30 12916 H 1183.51 -3.90405 -0.364163 0
M  V30 12917 H 1185 -3.95066 -1.35324 0
M  V30 12918 N 1185.44 -0.462799 -1.50652 0
M  V30 12919 C 1186.85 -0.00568907 -1.86699 0
M  V30 12920 C 1187.2 1.39641 -1.37822 0
M  V30 12921 O 1186.32 2.03366 -0.739679 0
M  V30 12922 C 1186.92 -0.00354783 -3.388 0
M  V30 12923 C 1185.48 0.398061 -3.74289 0
M  V30 12924 C 1184.62 -0.392574 -2.74507 0
M  V30 12925 H 1187.58 -0.677469 -1.43513 0
M  V30 12926 H 1187.6 0.800456 -3.71985 0
M  V30 12927 H 1187.11 -1.02414 -3.74344 0
M  V30 12928 H 1185.21 1.42331 -3.44344 0
M  V30 12929 H 1185.32 0.105168 -4.78985 0
M  V30 12930 H 1183.69 0.152608 -2.54242 0
M  V30 12931 H 1184.47 -1.41252 -3.12894 0
M  V30 12932 N 1186.91 1.56388 -0.195085 0
M  V30 12933 C 1188.14 2.01963 0.449289 0
M  V30 12934 C 1188.56 1.07522 1.55192 0
M  V30 12935 O 1187.91 0.0800915 1.82324 0
M  V30 12936 C 1187.97 3.47231 1.00561 0
M  V30 12937 O 1187.69 4.38068 -0.0530241 0
M  V30 12938 C 1189.19 4.08324 1.72587 0
M  V30 12939 H 1186.41 0.661452 0.112792 0
M  V30 12940 H 1188.95 2.02231 -0.303788 0
M  V30 12941 H 1187.11 3.47663 1.70907 0
M  V30 12942 H 1187.52 5.23256 0.361076 0
M  V30 12943 H 1188.99 5.11821 2.06744 0
M  V30 12944 H 1189.47 3.51782 2.62956 0
M  V30 12945 H 1190.08 4.11665 1.06826 0
M  V30 12946 N 1188.39 -0.0785156 1.57404 0
M  V30 12947 C 1189.33 -1.12563 1.98506 0
M  V30 12948 C 1190.3 -1.3794 0.860891 0
M  V30 12949 O 1191.49 -1.51425 1.12262 0
M  V30 12950 C 1188.61 -2.47139 2.31603 0
M  V30 12951 C 1187.66 -2.3794 3.53959 0
M  V30 12952 S 1188.49 -1.77997 5.05052 0
M  V30 12953 C 1189.65 -3.14164 5.41342 0
M  V30 12954 H 1189.88 -0.775328 2.87012 0
M  V30 12955 H 1187.42 -0.286806 1.51713 0
M  V30 12956 H 1189.37 -3.24554 2.51346 0
M  V30 12957 H 1188.03 -2.79333 1.43638 0
M  V30 12958 H 1187.23 -3.37168 3.74612 0
M  V30 12959 H 1186.83 -1.68659 3.33812 0
M  V30 12960 H 1189.12 -4.10467 5.39002 0
M  V30 12961 H 1190.06 -2.98298 6.42202 0
M  V30 12962 H 1190.47 -3.1446 4.68802 0
M  V30 12963 N 1189.87 -1.5367 -0.349747 0
M  V30 12964 C 1190.82 -1.81914 -1.44948 0
M  V30 12965 C 1191.81 -0.689218 -1.54745 0
M  V30 12966 O 1193.02 -0.872448 -1.57443 0
M  V30 12967 H 1189.39 -0.576234 -0.483176 0
M  V30 12968 H 1191.36 -2.73932 -1.18338 0
M  V30 12969 C 1190.11 -2.04005 -2.81562 0
M  V30 12970 H 1189.44 -2.90399 -2.74788 0
M  V30 12971 H 1190.88 -2.27737 -3.57648 0
M  V30 12972 C 1189.34 -0.823748 -3.26674 0
M  V30 12973 O 1189.87 -0.0201351 -4.01695 0
M  V30 12974 N 1188.07 -0.642716 -2.83403 0
M  V30 12975 H 1187.62 -1.29783 -2.22517 0
M  V30 12976 H 1187.58 0.169654 -3.13942 0
M  V30 12977 N 1191.35 0.610423 -1.45298 0
M  V30 12978 C 1192.76 1.19234 -1.43667 0
M  V30 12979 C 1193.11 1.95523 -0.162794 0
M  V30 12980 O 1192.24 2.03507 0.735789 0
M  V30 12981 C 1192.83 2.16892 -2.60276 0
M  V30 12982 C 1191.39 2.70465 -2.61774 0
M  V30 12983 C 1190.54 1.45821 -2.35863 0
M  V30 12984 H 1193.49 0.399895 -1.53579 0
M  V30 12985 H 1193.51 2.99875 -2.34212 0
M  V30 12986 H 1193.02 1.61339 -3.52975 0
M  V30 12987 H 1191.12 3.29965 -1.73072 0
M  V30 12988 H 1191.23 3.15092 -3.60907 0
M  V30 12989 H 1189.6 1.74678 -1.85364 0
M  V30 12990 H 1190.38 0.921403 -3.30704 0
M  V30 12991 N 1192.83 1.32541 0.852676 0
M  V30 12992 C 1193.76 1.24254 1.97694 0
M  V30 12993 C 1194.74 0.125971 1.69633 0
M  V30 12994 O 1195.92 0.31347 1.91653 0
M  V30 12995 C 1193.05 0.966874 3.3357 0
M  V30 12996 C 1192.01 2.0449 3.75989 0
M  V30 12997 C 1191.33 1.6216 5.09518 0
M  V30 12998 C 1192.63 3.46013 3.91244 0
M  V30 12999 H 1194.33 2.18317 2.04886 0
M  V30 13000 H 1191.87 1.05101 0.984371 0
M  V30 13001 H 1193.83 0.895444 4.11776 0
M  V30 13002 H 1192.55 -0.0093893 3.26599 0
M  V30 13003 H 1191.21 2.10651 3.00036 0
M  V30 13004 H 1190.86 0.632729 4.99005 0
M  V30 13005 H 1190.56 2.3429 5.38871 0
M  V30 13006 H 1192.08 1.56457 5.90215 0
M  V30 13007 H 1193.49 3.4243 4.59799 0
M  V30 13008 H 1191.89 4.1651 4.32017 0
M  V30 13009 H 1192.96 3.8553 2.941 0
M  V30 13010 N 1194.3 -1.0692 1.15784 0
M  V30 13011 C 1195.25 -2.16335 0.854506 0
M  V30 13012 C 1196.25 -1.68505 -0.173868 0
M  V30 13013 O 1197.45 -1.79977 -0.0284722 0
M  V30 13014 H 1193.83 -0.706103 0.258694 0
M  V30 13015 H 1195.8 -2.39135 1.78486 0
M  V30 13016 C 1194.55 -3.45778 0.365042 0
M  V30 13017 H 1193.87 -3.82971 1.14776 0
M  V30 13018 H 1195.31 -4.23567 0.191504 0
M  V30 13019 C 1193.77 -3.24258 -0.914253 0
M  V30 13020 O 1194.3 -3.49236 -1.98487 0
M  V30 13021 N 1192.51 -2.77722 -0.855501 0
M  V30 13022 H 1192.05 -2.57595 0.0159233 0
M  V30 13023 H 1192.01 -2.63702 -1.71198 0
M  V30 13024 N 1195.78 -0.955326 -1.25345 0
M  V30 13025 C 1197.19 -0.651118 -1.74978 0
M  V30 13026 C 1197.54 0.833495 -1.77616 0
M  V30 13027 O 1196.67 1.65228 -1.39745 0
M  V30 13028 C 1197.26 -1.17521 -3.17764 0
M  V30 13029 C 1195.82 -0.921151 -3.64954 0
M  V30 13030 C 1194.97 -1.31784 -2.43984 0
M  V30 13031 H 1197.92 -1.13205 -1.11222 0
M  V30 13032 H 1197.94 -0.535625 -3.76711 0
M  V30 13033 H 1197.45 -2.25575 -3.15813 0
M  V30 13034 H 1195.56 0.144392 -3.7232 0
M  V30 13035 H 1195.67 -1.5581 -4.53056 0
M  V30 13036 H 1194.03 -0.736219 -2.43828 0
M  V30 13037 H 1194.82 -2.40761 -2.44723 0
M  V30 13038 N 1197.26 1.39987 -0.723979 0
M  V30 13039 C 1198.19 2.3332 -0.0917282 0
M  V30 13040 C 1199.17 1.53335 0.736361 0
M  V30 13041 O 1200.36 1.81771 0.683582 0
M  V30 13042 C 1197.49 3.3737 0.824549 0
M  V30 13043 C 1196.44 4.2788 0.101452 0
M  V30 13044 C 1195.77 5.22536 1.13401 0
M  V30 13045 C 1197.07 5.11649 -1.04939 0
M  V30 13046 H 1198.76 2.86441 -0.871318 0
M  V30 13047 H 1196.31 1.37725 -0.420448 0
M  V30 13048 H 1198.26 4.01607 1.27631 0
M  V30 13049 H 1196.98 2.82663 1.63613 0
M  V30 13050 H 1195.64 3.65107 -0.330569 0
M  V30 13051 H 1195.29 4.64131 1.93886 0
M  V30 13052 H 1194.99 5.83938 0.65502 0
M  V30 13053 H 1196.52 5.89651 1.58569 0
M  V30 13054 H 1197.93 5.69293 -0.6766 0
M  V30 13055 H 1196.33 5.82137 -1.45729 0
M  V30 13056 H 1197.4 4.47132 -1.8762 0
M  V30 13057 N 1198.74 0.470782 1.50404 0
M  V30 13058 C 1199.69 -0.337584 2.30137 0
M  V30 13059 C 1200.68 -0.990673 1.37412 0
M  V30 13060 O 1201.89 -0.921813 1.54605 0
M  V30 13061 H 1198.26 -0.127707 0.741077 0
M  V30 13062 H 1200.23 0.355297 2.96277 0
M  V30 13063 C 1198.98 -1.40714 3.17954 0
M  V30 13064 H 1198.31 -0.913982 3.89213 0
M  V30 13065 H 1199.75 -1.94533 3.7674 0
M  V30 13066 C 1198.2 -2.40889 2.35529 0
M  V30 13067 O 1198.73 -3.46153 2.03816 0
M  V30 13068 N 1196.94 -2.126 1.98115 0
M  V30 13069 H 1196.49 -1.27023 2.24105 0
M  V30 13070 H 1196.45 -2.7986 1.43269 0
M  V30 13071 N 1200.22 -1.56282 0.203376 0
M  V30 13072 C 1201.63 -1.84146 -0.307752 0
M  V30 13073 C 1201.98 -1.12429 -1.60792 0
M  V30 13074 O 1201.1 -0.387852 -2.12896 0
M  V30 13075 C 1201.7 -3.34053 -0.565152 0
M  V30 13076 C 1200.26 -3.62298 -1.02063 0
M  V30 13077 C 1199.41 -2.77202 -0.0737343 0
M  V30 13078 H 1202.36 -1.52848 0.426983 0
M  V30 13079 H 1202.38 -3.53273 -1.41345 0
M  V30 13080 H 1201.89 -3.86222 0.381301 0
M  V30 13081 H 1199.99 -3.1557 -1.98107 0
M  V30 13082 H 1200.1 -4.70424 -0.907614 0
M  V30 13083 H 1198.47 -2.48074 -0.577169 0
M  V30 13084 H 1199.25 -3.32164 0.86731 0
M  V30 13085 N 1201.7 0.070167 -1.57444 0
M  V30 13086 C 1202.63 1.08351 -2.06839 0
M  V30 13087 C 1203.61 1.40269 -0.962224 0
M  V30 13088 O 1204.79 1.49867 -1.23505 0
M  V30 13089 C 1201.92 2.39649 -2.51368 0
M  V30 13090 C 1200.88 2.22079 -3.65875 0
M  V30 13091 C 1200.2 3.58776 -3.96464 0
M  V30 13092 C 1201.5 1.64069 -4.95862 0
M  V30 13093 H 1203.2 0.672465 -2.9175 0
M  V30 13094 H 1200.74 0.322027 -1.40353 0
M  V30 13095 H 1202.69 3.10833 -2.84537 0
M  V30 13096 H 1201.42 2.82736 -1.63487 0
M  V30 13097 H 1200.08 1.53337 -3.32992 0
M  V30 13098 H 1199.73 3.99436 -3.05712 0
M  V30 13099 H 1199.43 3.47859 -4.7357 0
M  V30 13100 H 1200.95 4.31387 -4.32131 0
M  V30 13101 H 1202.36 2.2512 -5.27251 0
M  V30 13102 H 1200.76 1.63843 -5.773 0
M  V30 13103 H 1201.83 0.60232 -4.81145 0
M  V30 13104 N 1203.17 1.53854 0.341593 0
M  V30 13105 C 1204.4 1.75447 1.10604 0
M  V30 13106 C 1204.82 0.493225 1.81518 0
M  V30 13107 O 1204.18 -0.554253 1.7262 0
M  V30 13108 C 1204.23 2.93593 2.09369 0
M  V30 13109 O 1203.33 2.63878 3.16926 0
M  V30 13110 H 1202.67 0.581923 0.319783 0
M  V30 13111 H 1205.2 2.00822 0.391388 0
M  V30 13112 H 1205.21 3.20437 2.52556 0
M  V30 13113 H 1203.89 3.85067 1.57151 0
M  V30 13114 H 1202.47 2.47929 2.78542 0
M  V30 13115 N 1204.65 -0.602709 1.4562 0
M  V30 13116 C 1205.88 -1.39299 1.53657 0
M  V30 13117 C 1206.3 -1.87315 0.171632 0
M  V30 13118 O 1205.66 -1.60423 -0.844639 0
M  V30 13119 C 1205.71 -2.57021 2.52928 0
M  V30 13120 O 1204.81 -3.57812 2.05047 0
M  V30 13121 H 1204.15 -0.41567 0.517798 0
M  V30 13122 H 1206.68 -0.73304 1.91018 0
M  V30 13123 H 1206.69 -3.04202 2.71892 0
M  V30 13124 H 1205.37 -2.21422 3.52058 0
M  V30 13125 H 1203.94 -3.17247 1.95981 0
M  V30 13126 N 1206.13 -1.32992 -0.845635 0
M  V30 13127 C 1207.06 -1.25301 -1.97033 0
M  V30 13128 C 1208.04 -0.134966 -1.69564 0
M  V30 13129 O 1209.23 -0.323629 -1.91484 0
M  V30 13130 C 1206.36 -0.984551 -3.33052 0
M  V30 13131 C 1205.31 -2.06481 -3.749 0
M  V30 13132 C 1204.64 -1.6486 -5.08651 0
M  V30 13133 C 1205.94 -3.48083 -3.89404 0
M  V30 13134 H 1207.63 -2.194 -2.03725 0
M  V30 13135 H 1205.18 -1.05621 -0.978783 0
M  V30 13136 H 1207.13 -0.917269 -4.11296 0
M  V30 13137 H 1205.85 -0.00793116 -3.26599 0
M  V30 13138 H 1204.51 -2.1224 -2.98915 0
M  V30 13139 H 1204.16 -0.659183 -4.98662 0
M  V30 13140 H 1203.86 -2.37145 -5.37621 0
M  V30 13141 H 1205.38 -1.59585 -5.89377 0
M  V30 13142 H 1206.8 -3.44863 -4.57976 0
M  V30 13143 H 1205.19 -4.18796 -4.29802 0
M  V30 13144 H 1206.26 -3.87084 -2.92051 0
M  V30 13145 N 1207.61 1.06304 -1.1635 0
M  V30 13146 C 1208.56 2.15879 -0.865967 0
M  V30 13147 C 1209.55 1.68595 0.164929 0
M  V30 13148 O 1210.76 1.7999 0.0189271 0
M  V30 13149 H 1207.13 0.704721 -0.262435 0
M  V30 13150 H 1209.1 2.38185 -1.79751 0
M  V30 13151 C 1207.85 3.4558 -0.383374 0
M  V30 13152 H 1207.17 3.82356 -1.16806 0
M  V30 13153 H 1208.61 4.2346 -0.213964 0
M  V30 13154 C 1207.07 3.24738 0.897044 0
M  V30 13155 O 1207.6 3.50284 1.96632 0
M  V30 13156 N 1205.81 2.78172 0.840761 0
M  V30 13157 H 1205.36 2.57583 -0.029584 0
M  V30 13158 H 1205.31 2.64606 1.69797 0
M  V30 13159 N 1209.09 0.96196 1.24836 0
M  V30 13160 C 1210.5 0.660388 1.7463 0
M  V30 13161 C 1210.85 -0.824064 1.78055 0
M  V30 13162 O 1209.97 -1.64485 1.40619 0
M  V30 13163 C 1210.57 1.19205 3.17137 0
M  V30 13164 C 1209.13 0.940493 3.64461 0
M  V30 13165 C 1208.27 1.33076 2.43282 0
M  V30 13166 H 1211.22 1.13794 1.1062 0
M  V30 13167 H 1211.25 0.555595 3.76422 0
M  V30 13168 H 1210.76 2.27247 3.14612 0
M  V30 13169 H 1208.86 -0.124645 3.72391 0
M  V30 13170 H 1208.97 1.5821 4.52224 0
M  V30 13171 H 1207.34 0.749139 2.43434 0
M  V30 13172 H 1208.12 2.42055 2.43442 0
M  V30 13173 N 1210.56 -1.39601 0.731392 0
M  V30 13174 C 1211.49 -2.33268 0.1041 0
M  V30 13175 C 1212.47 -1.53724 -0.728219 0
M  V30 13176 O 1213.66 -1.82131 -0.673933 0
M  V30 13177 C 1210.79 -3.37802 -0.806646 0
M  V30 13178 C 1209.74 -4.27928 -0.0787588 0
M  V30 13179 C 1209.07 -5.23131 -1.10628 0
M  V30 13180 C 1210.37 -5.11086 1.07651 0
M  V30 13181 H 1212.06 -2.85975 0.886496 0
M  V30 13182 H 1209.61 -1.375 0.427746 0
M  V30 13183 H 1211.56 -4.02278 -1.25499 0
M  V30 13184 H 1210.29 -2.83527 -1.62112 0
M  V30 13185 H 1208.95 -3.64926 0.349926 0
M  V30 13186 H 1208.59 -4.65152 -1.91422 0
M  V30 13187 H 1208.29 -5.84277 -0.624043 0
M  V30 13188 H 1209.82 -5.90483 -1.5544 0
M  V30 13189 H 1211.23 -5.68927 0.706781 0
M  V30 13190 H 1209.63 -5.81356 1.48814 0
M  V30 13191 H 1210.7 -4.46131 1.89988 0
M  V30 13192 N 1212.04 -0.478751 -1.50152 0
M  V30 13193 C 1212.99 0.325375 -2.30313 0
M  V30 13194 C 1213.98 0.983372 -1.37935 0
M  V30 13195 O 1215.19 0.913601 -1.55091 0
M  V30 13196 H 1211.57 0.123775 -0.741744 0
M  V30 13197 H 1213.54 -0.371004 -2.96085 0
M  V30 13198 C 1212.29 1.39026 -3.18696 0
M  V30 13199 H 1211.61 0.893329 -3.89692 0
M  V30 13200 H 1213.05 1.92533 -3.77766 0
M  V30 13201 C 1211.51 2.39637 -2.36803 0
M  V30 13202 O 1212.04 3.45067 -2.05649 0
M  V30 13203 N 1210.24 2.11546 -1.9924 0
M  V30 13204 H 1209.79 1.25832 -2.24775 0
M  V30 13205 H 1209.75 2.79096 -1.44751 0
M  V30 13206 N 1213.52 1.56172 -0.211661 0
M  V30 13207 C 1214.48 2.18602 0.688906 0
M  V30 13208 C 1215.48 1.14508 1.12892 0
M  V30 13209 O 1216.67 1.39799 1.03932 0
M  V30 13210 C 1213.81 2.80141 1.94253 0
M  V30 13211 H 1215 2.9955 0.144765 0
M  V30 13212 H 1212.55 1.56254 0.0379615 0
M  V30 13213 H 1213.29 2.03035 2.52878 0
M  V30 13214 H 1213.07 3.56358 1.63558 0
M  V30 13215 H 1214.56 3.28026 2.58436 0
M  V30 13216 N 1215 -0.0618163 1.57479 0
M  V30 13217 C 1215.95 -1.07953 2.00824 0
M  V30 13218 C 1216.93 -1.33916 0.891924 0
M  V30 13219 O 1218.12 -1.3405 1.15584 0
M  V30 13220 C 1215.25 -2.39041 2.46403 0
M  V30 13221 C 1214.34 -2.16309 3.64789 0
M  V30 13222 N 1214.73 -1.63534 4.78634 0
M  V30 13223 C 1213.03 -2.46739 3.71531 0
M  V30 13224 C 1213.73 -1.55849 5.60434 0
M  V30 13225 N 1212.71 -2.02255 5.04573 0
M  V30 13226 H 1216.51 -0.66497 2.86278 0
M  V30 13227 H 1214.02 -0.268722 1.60161 0
M  V30 13228 H 1216.02 -3.12722 2.757 0
M  V30 13229 H 1214.68 -2.81204 1.6234 0
M  V30 13230 H 1215.69 -1.32258 5.00728 0
M  V30 13231 H 1212.37 -2.92201 2.98203 0
M  V30 13232 H 1213.76 -1.15814 6.61843 0
M  V30 13233 N 1216.48 -1.54033 -0.333429 0
M  V30 13234 C 1217.89 -1.63107 -0.908455 0
M  V30 13235 C 1218.24 -0.518823 -1.89216 0
M  V30 13236 O 1217.36 0.34985 -2.13553 0
M  V30 13237 C 1217.96 -2.95657 -1.65447 0
M  V30 13238 C 1216.52 -3.0696 -2.17836 0
M  V30 13239 C 1215.66 -2.58617 -1.00063 0
M  V30 13240 H 1218.62 -1.58309 -0.11128 0
M  V30 13241 H 1218.64 -2.85263 -2.51804 0
M  V30 13242 H 1218.15 -3.76588 -0.938263 0
M  V30 13243 H 1216.25 -2.30683 -2.92602 0
M  V30 13244 H 1216.36 -4.12599 -2.43513 0
M  V30 13245 H 1214.73 -2.1427 -1.37697 0
M  V30 13246 H 1215.51 -3.41996 -0.298901 0
M  V30 13247 N 1217.95 0.594978 -1.45938 0
M  V30 13248 C 1219.18 1.38482 -1.54394 0
M  V30 13249 C 1219.6 1.87222 -0.181563 0
M  V30 13250 O 1218.96 1.60869 0.836119 0
M  V30 13251 C 1219.01 2.55676 -2.54287 0
M  V30 13252 O 1218.11 3.5672 -2.06941 0
M  V30 13253 H 1217.46 0.412918 -0.519995 0
M  V30 13254 H 1219.99 0.722899 -1.91404 0
M  V30 13255 H 1220 3.02756 -2.73501 0
M  V30 13256 H 1218.67 2.19552 -3.53228 0
M  V30 13257 H 1217.25 3.16204 -1.97661 0
M  V30 13258 N 1219.43 1.33438 0.838571 0
M  V30 13259 C 1220.36 1.26344 1.96365 0
M  V30 13260 C 1221.34 0.143956 1.6949 0
M  V30 13261 O 1222.53 0.333779 1.9131 0
M  V30 13262 C 1219.66 1.0022 3.32526 0
M  V30 13263 C 1218.61 2.08466 3.73799 0
M  V30 13264 C 1217.94 1.67555 5.07769 0
M  V30 13265 C 1219.24 3.50144 3.87552 0
M  V30 13266 H 1220.93 2.20478 2.02558 0
M  V30 13267 H 1218.48 1.06139 0.973168 0
M  V30 13268 H 1220.43 0.939068 4.10803 0
M  V30 13269 H 1219.16 0.0252514 3.2659 0
M  V30 13270 H 1217.81 2.13822 2.97785 0
M  V30 13271 H 1217.46 0.685619 4.98305 0
M  V30 13272 H 1217.16 2.39993 5.36356 0
M  V30 13273 H 1218.69 1.62708 5.88522 0
M  V30 13274 H 1220.1 3.47287 4.56141 0
M  V30 13275 H 1218.5 4.21069 4.27575 0
M  V30 13276 H 1219.57 3.88628 2.89994 0
M  V30 13277 N 1220.91 -1.05686 1.16912 0
M  V30 13278 C 1222.14 -1.82018 0.977392 0
M  V30 13279 C 1222.55 -1.83072 -0.477636 0
M  V30 13280 O 1221.89 -1.25296 -1.34338 0
M  V30 13281 C 1221.95 -3.29592 1.4356 0
M  V30 13282 C 1221.62 -3.5223 2.91175 0
M  V30 13283 C 1222.61 -3.44767 3.89142 0
M  V30 13284 C 1220.3 -3.79353 3.29236 0
M  V30 13285 C 1222.29 -3.64104 5.2317 0
M  V30 13286 C 1219.98 -3.98339 4.63432 0
M  V30 13287 C 1220.98 -3.90713 5.60207 0
M  V30 13288 O 1220.67 -4.09175 6.91976 0
M  V30 13289 H 1220.4 -0.580578 0.346273 0
M  V30 13290 H 1222.95 -1.34199 1.55498 0
M  V30 13291 H 1221.18 -3.78302 0.80153 0
M  V30 13292 H 1222.87 -3.87435 1.21032 0
M  V30 13293 H 1223.64 -3.23796 3.61083 0
M  V30 13294 H 1219.52 -3.84395 2.54482 0
M  V30 13295 H 1223.06 -3.58068 5.98693 0
M  V30 13296 H 1218.96 -4.18801 4.91198 0
M  V30 13297 H 1219.73 -4.26429 6.98642 0
M  V30 13298 N 1222.39 -0.968567 -1.24324 0
M  V30 13299 C 1223.8 -0.675239 -1.44612 0
M  V30 13300 C 1224 0.762641 -1.8651 0
M  V30 13301 O 1223.06 1.53644 -2.00374 0
M  V30 13302 C 1224.37 -1.66007 -2.50723 0
M  V30 13303 C 1225.92 -1.6728 -2.6455 0
M  V30 13304 C 1226.4 -2.64563 -3.73859 0
M  V30 13305 N 1227.89 -2.6301 -3.81287 0
M  V30 13306 C 1228.62 -3.34957 -4.65394 0
M  V30 13307 N 1228.12 -4.16424 -5.53681 0
M  V30 13308 N 1229.91 -3.23778 -4.59483 0
M  V30 13309 H 1222.06 -1.89757 -0.954257 0
M  V30 13310 H 1224.33 -0.817004 -0.480841 0
M  V30 13311 H 1224.03 -2.68779 -2.26827 0
M  V30 13312 H 1223.91 -1.43353 -3.48898 0
M  V30 13313 H 1226.29 -0.652184 -2.87803 0
M  V30 13314 H 1226.37 -1.93997 -1.6673 0
M  V30 13315 H 1226.02 -3.66759 -3.51355 0
M  V30 13316 H 1225.95 -2.35124 -4.71194 0
M  V30 13317 H 1228.44 -2.03877 -3.18186 0
M  V30 13318 H 1228.75 -4.68207 -6.14818 0
M  V30 13319 H 1227.1 -4.20518 -5.53344 0
M  V30 13320 H 1230.29 -2.59594 -3.89524 0
M  V30 13321 H 1230.46 -3.80112 -5.24804 0
M  V30 13322 N 1223.87 1.39211 -0.738786 0
M  V30 13323 C 1225.28 1.54116 -0.414773 0
M  V30 13324 C 1225.48 1.70497 1.07392 0
M  V30 13325 O 1224.54 1.7076 1.86003 0
M  V30 13326 C 1225.85 2.7567 -1.2011 0
M  V30 13327 C 1227.4 2.89508 -1.1897 0
M  V30 13328 C 1227.87 4.14005 -1.95868 0
M  V30 13329 N 1229.37 4.21052 -1.93053 0
M  V30 13330 C 1230.1 5.16341 -2.49358 0
M  V30 13331 N 1229.6 6.17396 -3.14316 0
M  V30 13332 N 1231.39 5.08585 -2.3937 0
M  V30 13333 H 1223.54 1.26827 -1.70378 0
M  V30 13334 H 1225.8 0.614983 -0.721457 0
M  V30 13335 H 1225.51 2.69922 -2.25467 0
M  V30 13336 H 1225.38 3.68443 -0.808065 0
M  V30 13337 H 1227.77 2.94747 -0.144248 0
M  V30 13338 H 1227.85 1.97788 -1.62214 0
M  V30 13339 H 1227.5 4.09527 -3.00416 0
M  V30 13340 H 1227.43 5.04776 -1.50028 0
M  V30 13341 H 1229.92 3.48669 -1.45733 0
M  V30 13342 H 1230.23 6.86572 -3.54737 0
M  V30 13343 H 1228.57 6.17772 -3.18407 0
M  V30 13344 H 1231.77 4.28573 -1.88262 0
M  V30 13345 H 1231.94 5.8267 -2.83549 0
M  V30 13346 N 1225.34 0.486708 1.49896 0
M  V30 13347 C 1226.76 0.0353906 1.86666 0
M  V30 13348 C 1227.11 -1.3743 1.40026 0
M  V30 13349 O 1226.23 -2.02163 0.77194 0
M  V30 13350 C 1226.83 0.0574475 3.38751 0
M  V30 13351 C 1225.39 -0.338464 3.74875 0
M  V30 13352 C 1224.53 0.436196 2.73848 0
M  V30 13353 H 1227.48 0.700215 1.42417 0
M  V30 13354 H 1227.5 -0.741175 3.73212 0
M  V30 13355 H 1227.02 1.08356 3.72667 0
M  V30 13356 H 1225.12 -1.36835 3.46565 0
M  V30 13357 H 1225.23 -0.0289519 4.79091 0
M  V30 13358 H 1223.59 -0.112141 2.54453 0
M  V30 13359 H 1224.38 1.46212 3.10608 0
M  V30 13360 N 1226.82 -1.56058 0.219941 0
M  V30 13361 C 1228.24 -1.59024 -0.135476 0
M  V30 13362 C 1228.44 -1.23672 -1.59083 0
M  V30 13363 O 1227.5 -0.971197 -2.33075 0
M  V30 13364 C 1228.81 -3.00103 0.189356 0
M  V30 13365 C 1230.36 -3.12724 0.131463 0
M  V30 13366 C 1230.83 -4.55977 0.429947 0
M  V30 13367 N 1232.32 -4.61643 0.37946 0
M  V30 13368 C 1233.06 -5.70419 0.58393 0
M  V30 13369 N 1232.55 -6.87565 0.850088 0
M  V30 13370 N 1234.35 -5.59722 0.516477 0
M  V30 13371 H 1226.5 -1.77313 1.16935 0
M  V30 13372 H 1228.76 -0.824096 0.468583 0
M  V30 13373 H 1228.47 -3.30616 1.19941 0
M  V30 13374 H 1228.34 -3.73919 -0.49641 0
M  V30 13375 H 1230.73 -2.82008 -0.869223 0
M  V30 13376 H 1230.81 -2.41241 0.85068 0
M  V30 13377 H 1230.45 -4.8741 1.42806 0
M  V30 13378 H 1230.38 -5.25684 -0.310444 0
M  V30 13379 H 1232.87 -3.77465 0.181373 0
M  V30 13380 H 1233.19 -7.66378 0.994251 0
M  V30 13381 H 1231.53 -6.89313 0.887265 0
M  V30 13382 H 1234.72 -4.6708 0.308784 0
M  V30 13383 H 1234.9 -6.4443 0.679236 0
M  V30 13384 N 1228.3 0.053464 -1.57509 0
M  V30 13385 C 1229.26 1.04604 -2.03938 0
M  V30 13386 C 1230.26 1.30509 -0.939357 0
M  V30 13387 O 1231.45 1.25922 -1.20371 0
M  V30 13388 C 1228.59 2.38516 -2.43563 0
M  V30 13389 H 1229.78 0.645484 -2.92871 0
M  V30 13390 H 1227.33 0.299683 -1.534 0
M  V30 13391 H 1228.07 2.83368 -1.57712 0
M  V30 13392 H 1227.85 2.2105 -3.23851 0
M  V30 13393 H 1229.34 3.09826 -2.79996 0
M  V30 13394 N 1229.78 1.54207 0.325255 0
M  V30 13395 C 1231.03 1.71544 1.06091 0
M  V30 13396 C 1231.34 0.495137 1.89229 0
M  V30 13397 O 1232.55 0.54982 2.65874 0
M  V30 13398 C 1231 3.03412 1.93569 0
M  V30 13399 C 1230.61 4.32842 1.1555 0
M  V30 13400 C 1232.36 3.30113 2.66881 0
M  V30 13401 C 1230.26 5.55773 2.02164 0
M  V30 13402 H 1229.19 0.639281 0.399795 0
M  V30 13403 H 1231.84 1.80701 0.319261 0
M  V30 13404 H 1230.23 2.88158 2.71626 0
M  V30 13405 H 1231.4 4.58857 0.42276 0
M  V30 13406 H 1229.71 4.12893 0.539277 0
M  V30 13407 H 1232.31 4.19151 3.31988 0
M  V30 13408 H 1232.65 2.47918 3.34428 0
M  V30 13409 H 1233.19 3.46227 1.95887 0
M  V30 13410 H 1229.93 6.40565 1.39128 0
M  V30 13411 H 1229.45 5.3398 2.73177 0
M  V30 13412 H 1231.13 5.92113 2.60789 0
M  V30 13413 N 1231.26 -0.58723 1.46251 0
M  V30 13414 C 1232.17 -1.72455 1.59048 0
M  V30 13415 C 1233.18 -1.67416 0.47413 0
M  V30 13416 O 1234.36 -1.87406 0.737633 0
M  V30 13417 C 1231.42 -3.08953 1.57318 0
M  V30 13418 C 1230.49 -3.25291 2.80151 0
M  V30 13419 C 1229.72 -4.55277 2.78493 0
M  V30 13420 O 1229.94 -5.38883 1.8698 0
M  V30 13421 O 1228.88 -4.74765 3.69975 0
M  V30 13422 H 1232.7 -1.64606 2.55223 0
M  V30 13423 H 1230.29 -0.753742 1.28993 0
M  V30 13424 H 1232.17 -3.90239 1.59033 0
M  V30 13425 H 1230.84 -3.17249 0.643025 0
M  V30 13426 H 1229.75 -2.43515 2.83991 0
M  V30 13427 H 1231.08 -3.21883 3.7236 0
M  V30 13428 N 1232.74 -1.33881 -0.831482 0
M  V30 13429 C 1233.98 -1.25507 -1.58406 0
M  V30 13430 C 1234.3 0.177137 -1.94194 0
M  V30 13431 O 1233.57 1.10769 -1.61576 0
M  V30 13432 H 1232.15 -0.461551 -0.587349 0
M  V30 13433 H 1234.82 -1.6769 -0.99328 0
M  V30 13434 H 1233.91 -1.85391 -2.51071 0
M  V30 13435 N 1234.21 1.05064 -1.1747 0
M  V30 13436 C 1235.14 2.14786 -0.915936 0
M  V30 13437 C 1236.12 1.69502 0.142561 0
M  V30 13438 O 1237.31 1.94198 -0.00794522 0
M  V30 13439 C 1234.44 3.44629 -0.429864 0
M  V30 13440 C 1233.39 4.03486 -1.42769 0
M  V30 13441 C 1232.72 5.28689 -0.799528 0
M  V30 13442 C 1234.02 4.40823 -2.80129 0
M  V30 13443 H 1235.71 2.3669 -1.83352 0
M  V30 13444 H 1233.26 1.13751 -0.882992 0
M  V30 13445 H 1235.21 4.20737 -0.236245 0
M  V30 13446 H 1233.94 3.22381 0.523263 0
M  V30 13447 H 1232.6 3.29449 -1.60808 0
M  V30 13448 H 1232.24 5.02744 0.160474 0
M  V30 13449 H 1231.94 5.69028 -1.46565 0
M  V30 13450 H 1233.47 6.07483 -0.616212 0
M  V30 13451 H 1234.88 5.07959 -2.65801 0
M  V30 13452 H 1233.28 4.92183 -3.43331 0
M  V30 13453 H 1234.35 3.51108 -3.34441 0
M  V30 13454 N 1235.69 0.975146 1.23809 0
M  V30 13455 C 1236.65 0.516157 2.23312 0
M  V30 13456 C 1237.65 -0.39136 1.55965 0
M  V30 13457 O 1238.84 -0.185783 1.73206 0
M  V30 13458 C 1235.98 -0.251534 3.39971 0
M  V30 13459 H 1237.17 1.3959 2.65433 0
M  V30 13460 H 1234.72 0.760493 1.36551 0
M  V30 13461 H 1235.46 -1.14805 3.03299 0
M  V30 13462 H 1235.24 0.399825 3.90056 0
M  V30 13463 H 1236.73 -0.561438 4.13809 0
M  V30 13464 N 1237.17 -1.38817 0.746158 0
M  V30 13465 C 1238.1 -2.33144 0.128836 0
M  V30 13466 C 1239.08 -1.54487 -0.711873 0
M  V30 13467 O 1240.27 -1.82836 -0.654577 0
M  V30 13468 C 1237.4 -3.38639 -0.770772 0
M  V30 13469 C 1236.35 -4.27987 -0.0333669 0
M  V30 13470 C 1235.68 -5.24274 -1.05073 0
M  V30 13471 C 1236.98 -5.09915 1.13066 0
M  V30 13472 H 1238.67 -2.85019 0.916778 0
M  V30 13473 H 1236.22 -1.37039 0.442306 0
M  V30 13474 H 1238.17 -4.03587 -1.21225 0
M  V30 13475 H 1236.89 -2.8523 -1.59095 0
M  V30 13476 H 1235.55 -3.64534 0.388612 0
M  V30 13477 H 1235.2 -4.67156 -1.86478 0
M  V30 13478 H 1234.9 -5.84906 -0.562037 0
M  V30 13479 H 1236.42 -5.92099 -1.49169 0
M  V30 13480 H 1237.84 -5.68145 0.767084 0
M  V30 13481 H 1236.23 -5.79744 1.54972 0
M  V30 13482 H 1237.3 -4.4409 1.94709 0
M  V30 13483 N 1238.65 -0.49465 -1.49636 0
M  V30 13484 C 1239.9 0.0520143 -2.02033 0
M  V30 13485 C 1240.22 1.38071 -1.37701 0
M  V30 13486 O 1239.49 1.88589 -0.530181 0
M  V30 13487 H 1238.07 0.0222123 -0.74667 0
M  V30 13488 H 1240.73 -0.650445 -1.83726 0
M  V30 13489 H 1239.82 0.186337 -3.11543 0
M  V30 13490 N 1240.13 1.55939 -0.228214 0
M  V30 13491 C 1241.06 2.2357 0.6737 0
M  V30 13492 C 1242.04 1.20964 1.1959 0
M  V30 13493 O 1243.22 1.49568 1.23867 0
M  V30 13494 C 1240.35 2.92076 1.87906 0
M  V30 13495 C 1239.31 4.01211 1.49043 0
M  V30 13496 C 1238.63 4.57047 2.77511 0
M  V30 13497 C 1239.93 5.17914 0.67544 0
M  V30 13498 H 1241.63 2.99199 0.109806 0
M  V30 13499 H 1239.17 1.43908 0.0513732 0
M  V30 13500 H 1241.12 3.38083 2.51551 0
M  V30 13501 H 1239.85 2.13906 2.46803 0
M  V30 13502 H 1238.51 3.55945 0.877411 0
M  V30 13503 H 1238.16 3.75599 3.34566 0
M  V30 13504 H 1237.86 5.30707 2.52239 0
M  V30 13505 H 1239.38 5.05776 3.42087 0
M  V30 13506 H 1240.79 5.60261 1.21575 0
M  V30 13507 H 1239.19 5.97847 0.519536 0
M  V30 13508 H 1240.26 4.83866 -0.316495 0
M  V30 13509 N 1241.6 -0.0451101 1.57535 0
M  V30 13510 C 1242.57 -1.03521 2.0449 0
M  V30 13511 C 1243.57 -1.30009 0.946265 0
M  V30 13512 O 1244.76 -1.25282 1.21038 0
M  V30 13513 C 1241.89 -2.37221 2.44824 0
M  V30 13514 H 1243.08 -0.629943 2.93209 0
M  V30 13515 H 1240.64 -0.291544 1.53557 0
M  V30 13516 H 1241.37 -2.82528 1.59212 0
M  V30 13517 H 1241.16 -2.19329 3.25018 0
M  V30 13518 H 1242.65 -3.08337 2.81635 0
M  V30 13519 N 1243.08 -1.54377 -0.317073 0
M  V30 13520 C 1244.01 -1.8721 -1.39552 0
M  V30 13521 C 1244.99 -0.729483 -1.53664 0
M  V30 13522 O 1246.18 -0.983799 -1.67437 0
M  V30 13523 C 1243.31 -2.1052 -2.76222 0
M  V30 13524 C 1242.26 -3.26366 -2.76892 0
M  V30 13525 C 1241.59 -3.35061 -4.16699 0
M  V30 13526 C 1242.89 -4.63862 -2.40061 0
M  V30 13527 H 1244.58 -2.77532 -1.12323 0
M  V30 13528 H 1242.13 -1.33536 -0.538897 0
M  V30 13529 H 1244.08 -2.32073 -3.51739 0
M  V30 13530 H 1242.81 -1.16953 -3.04942 0
M  V30 13531 H 1241.46 -3.0471 -2.03831 0
M  V30 13532 H 1241.11 -2.39041 -4.4257 0
M  V30 13533 H 1240.81 -4.12923 -4.18053 0
M  V30 13534 H 1242.34 -3.58856 -4.94019 0
M  V30 13535 H 1243.75 -4.85252 -3.05292 0
M  V30 13536 H 1242.15 -5.44321 -2.52655 0
M  V30 13537 H 1243.22 -4.6567 -1.35202 0
M  V30 13538 N 1244.56 0.579466 -1.4656 0
M  V30 13539 C 1245.47 1.71609 -1.59961 0
M  V30 13540 C 1246.49 1.67162 -0.483002 0
M  V30 13541 O 1247.66 1.87012 -0.747561 0
M  V30 13542 C 1244.73 3.08114 -1.58954 0
M  V30 13543 C 1243.79 3.238 -2.81872 0
M  V30 13544 C 1243.02 4.53794 -2.80904 0
M  V30 13545 O 1243.24 5.37884 -1.89835 0
M  V30 13546 O 1242.18 4.72796 -3.72488 0
M  V30 13547 H 1246 1.6325 -2.56092 0
M  V30 13548 H 1243.59 0.746891 -1.2939 0
M  V30 13549 H 1245.47 3.8939 -1.611 0
M  V30 13550 H 1244.15 3.16903 -0.65984 0
M  V30 13551 H 1243.05 2.42006 -2.85279 0
M  V30 13552 H 1244.39 3.19904 -3.74062 0
M  V30 13553 N 1246.04 1.3432 0.824371 0
M  V30 13554 C 1246.99 1.25776 1.93517 0
M  V30 13555 C 1247.96 0.133298 1.65564 0
M  V30 13556 O 1249.14 0.31403 1.88198 0
M  V30 13557 C 1246.28 1.01766 3.29754 0
M  V30 13558 C 1245.39 2.22973 3.7001 0
M  V30 13559 C 1244.53 1.92258 4.95187 0
M  V30 13560 C 1243.57 3.09616 5.2802 0
M  V30 13561 N 1242.7 2.78793 6.44375 0
M  V30 13562 H 1247.54 2.20774 2.00157 0
M  V30 13563 H 1245.08 1.09766 0.979274 0
M  V30 13564 H 1247.04 0.858831 4.08265 0
M  V30 13565 H 1245.67 0.10437 3.22631 0
M  V30 13566 H 1244.72 2.49781 2.86903 0
M  V30 13567 H 1246.03 3.10661 3.90245 0
M  V30 13568 H 1245.19 1.73102 5.81481 0
M  V30 13569 H 1243.93 1.01827 4.76951 0
M  V30 13570 H 1242.93 3.29368 4.40223 0
M  V30 13571 H 1244.16 4.00822 5.48196 0
M  V30 13572 H 1242.1 1.90938 6.27598 0
M  V30 13573 H 1242.02 3.60014 6.64775 0
M  V30 13574 H 1243.29 2.63139 7.33743 0
M  V30 13575 N 1247.52 -1.0444 1.18026 0
M  V30 13576 C 1248.76 -1.77575 0.973314 0
M  V30 13577 C 1249.09 -1.88032 -0.4974 0
M  V30 13578 O 1248.35 -1.38214 -1.38548 0
M  V30 13579 C 1248.65 -3.21134 1.56869 0
M  V30 13580 C 1248.31 -3.30718 3.0649 0
M  V30 13581 C 1246.97 -3.33041 3.47328 0
M  V30 13582 C 1249.33 -3.3112 4.02503 0
M  V30 13583 C 1246.65 -3.33404 4.82762 0
M  V30 13584 C 1249.01 -3.33023 5.37846 0
M  V30 13585 C 1247.67 -3.33636 5.78138 0
M  V30 13586 H 1246.94 -0.649793 0.356161 0
M  V30 13587 H 1249.59 -1.22693 1.47033 0
M  V30 13588 H 1247.89 -3.78992 0.993584 0
M  V30 13589 H 1249.59 -3.76358 1.38404 0
M  V30 13590 H 1246.18 -3.29628 2.7394 0
M  V30 13591 H 1250.36 -3.2852 3.72006 0
M  V30 13592 H 1245.62 -3.32194 5.13281 0
M  V30 13593 H 1249.79 -3.32283 6.12014 0
M  V30 13594 H 1247.42 -3.33671 6.83058 0
M  V30 13595 N 1248.99 -0.981699 -1.2329 0
M  V30 13596 C 1249.9 -0.531296 -2.28505 0
M  V30 13597 C 1250.92 0.414531 -1.6899 0
M  V30 13598 O 1252.1 0.284129 -1.99386 0
M  V30 13599 C 1249.16 0.157864 -3.4634 0
M  V30 13600 C 1248.22 -0.829527 -4.21209 0
M  V30 13601 C 1247.46 -0.17316 -5.33419 0
M  V30 13602 O 1247.68 1.03549 -5.60922 0
M  V30 13603 O 1246.61 -0.872385 -5.95544 0
M  V30 13604 H 1250.44 -1.40633 -2.69177 0
M  V30 13605 H 1248.02 -0.749395 -1.29246 0
M  V30 13606 H 1249.91 0.544394 -4.17869 0
M  V30 13607 H 1248.58 1.00764 -3.07617 0
M  V30 13608 H 1247.49 -1.26678 -3.51999 0
M  V30 13609 H 1248.82 -1.64815 -4.63785 0
M  V30 13610 N 1250.47 1.3842 -0.753509 0
M  V30 13611 C 1251.38 2.34252 -0.127811 0
M  V30 13612 C 1252.4 1.59266 0.700743 0
M  V30 13613 O 1253.57 1.9146 0.624914 0
M  V30 13614 C 1250.64 3.38382 0.754886 0
M  V30 13615 C 1249.7 4.2921 -0.0880312 0
M  V30 13616 C 1248.93 5.28367 0.75263 0
M  V30 13617 O 1249.16 5.34537 1.99064 0
M  V30 13618 O 1248.09 6.01656 0.171475 0
M  V30 13619 H 1251.92 2.89454 -0.91925 0
M  V30 13620 H 1249.5 1.40265 -0.514404 0
M  V30 13621 H 1251.38 4.02141 1.25938 0
M  V30 13622 H 1250.06 2.85536 1.52482 0
M  V30 13623 H 1248.97 3.68611 -0.638468 0
M  V30 13624 H 1250.3 4.85311 -0.82062 0
M  V30 13625 N 1251.95 0.502579 1.49372 0
M  V30 13626 C 1252.86 -0.279532 2.32929 0
M  V30 13627 C 1253.88 -0.965806 1.44735 0
M  V30 13628 O 1255.05 -0.946839 1.77755 0
M  V30 13629 C 1252.12 -1.32913 3.20211 0
M  V30 13630 C 1251.18 -0.656121 4.24256 0
M  V30 13631 C 1250.41 -1.65571 5.07368 0
M  V30 13632 O 1250.63 -2.88571 4.92019 0
M  V30 13633 O 1249.57 -1.21016 5.89609 0
M  V30 13634 H 1253.39 0.404427 3.00995 0
M  V30 13635 H 1250.98 0.263888 1.47051 0
M  V30 13636 H 1252.86 -1.93635 3.74277 0
M  V30 13637 H 1251.54 -1.99598 2.54837 0
M  V30 13638 H 1250.44 -0.00911489 3.74099 0
M  V30 13639 H 1251.78 -0.0316802 4.9219 0
M  V30 13640 N 1253.43 -1.55816 0.23648 0
M  V30 13641 C 1254.84 -1.59159 -0.118601 0
M  V30 13642 C 1255.04 -1.25352 -1.57763 0
M  V30 13643 O 1254.1 -0.995863 -2.32032 0
M  V30 13644 C 1255.41 -2.99885 0.221175 0
M  V30 13645 C 1256.96 -3.12567 0.164624 0
M  V30 13646 C 1257.44 -4.55496 0.478285 0
M  V30 13647 N 1258.93 -4.61215 0.428402 0
M  V30 13648 C 1259.66 -5.69768 0.644398 0
M  V30 13649 N 1259.16 -6.86624 0.922966 0
M  V30 13650 N 1260.95 -5.59143 0.575814 0
M  V30 13651 H 1253.1 -1.76063 1.18809 0
M  V30 13652 H 1255.37 -0.819079 0.477297 0
M  V30 13653 H 1255.07 -3.29326 1.2344 0
M  V30 13654 H 1254.95 -3.74425 -0.456723 0
M  V30 13655 H 1257.33 -2.82914 -0.839263 0
M  V30 13656 H 1257.41 -2.40325 0.876219 0
M  V30 13657 H 1257.06 -4.85868 1.47968 0
M  V30 13658 H 1256.99 -5.25984 -0.254671 0
M  V30 13659 H 1259.48 -3.77251 0.221398 0
M  V30 13660 H 1259.79 -7.6528 1.07548 0
M  V30 13661 H 1258.14 -6.88333 0.960325 0
M  V30 13662 H 1261.33 -4.66727 0.358307 0
M  V30 13663 H 1261.5 -6.43674 0.747548 0
M  V30 13664 N 1254.91 0.036755 -1.57557 0
M  V30 13665 C 1256.16 0.728107 -1.881 0
M  V30 13666 C 1256.47 1.7693 -0.833974 0
M  V30 13667 O 1257.67 2.5127 -1.02837 0
M  V30 13668 C 1256.13 1.34604 -3.33781 0
M  V30 13669 C 1255.74 0.341599 -4.46696 0
M  V30 13670 C 1257.48 2.01772 -3.73481 0
M  V30 13671 C 1255.39 0.967444 -5.83433 0
M  V30 13672 H 1254.32 0.275695 -0.701789 0
M  V30 13673 H 1256.97 -0.0177555 -1.83491 0
M  V30 13674 H 1255.35 2.14135 -3.3311 0
M  V30 13675 H 1256.53 -0.426441 -4.58823 0
M  V30 13676 H 1254.84 -0.227558 -4.15778 0
M  V30 13677 H 1257.44 2.49435 -4.72955 0
M  V30 13678 H 1257.78 2.83255 -3.05077 0
M  V30 13679 H 1258.31 1.29026 -3.76294 0
M  V30 13680 H 1255.05 0.19219 -6.55218 0
M  V30 13681 H 1254.57 1.70551 -5.75041 0
M  V30 13682 H 1256.25 1.47705 -6.29914 0
M  V30 13683 N 1256.39 1.54543 0.308881 0
M  V30 13684 C 1257.61 1.77753 1.06857 0
M  V30 13685 C 1258.04 0.531616 1.80431 0
M  V30 13686 O 1257.39 -0.517513 1.73757 0
M  V30 13687 C 1257.44 2.97968 2.03094 0
M  V30 13688 O 1256.55 2.70541 3.11257 0
M  V30 13689 H 1255.89 0.588576 0.307368 0
M  V30 13690 H 1258.42 2.01607 0.348703 0
M  V30 13691 H 1258.43 3.25722 2.45702 0
M  V30 13692 H 1257.1 3.88314 1.48948 0
M  V30 13693 H 1255.68 2.53781 2.7322 0
M  V30 13694 N 1257.86 -0.571685 1.46866 0
M  V30 13695 C 1259.28 -0.896172 1.32064 0
M  V30 13696 C 1259.48 -1.9925 0.300291 0
M  V30 13697 O 1258.54 -2.50791 -0.293284 0
M  V30 13698 C 1259.85 -1.3031 2.70998 0
M  V30 13699 C 1261.4 -1.41533 2.79173 0
M  V30 13700 C 1261.87 -1.85587 4.18714 0
M  V30 13701 N 1263.36 -1.92762 4.21185 0
M  V30 13702 C 1264.1 -2.28148 5.26057 0
M  V30 13703 N 1263.59 -2.62248 6.41247 0
M  V30 13704 N 1265.39 -2.28797 5.13428 0
M  V30 13705 H 1257.54 0.152349 2.11853 0
M  V30 13706 H 1259.8 0.00548777 0.947984 0
M  V30 13707 H 1259.51 -0.571469 3.47026 0
M  V30 13708 H 1259.38 -2.26233 3.01826 0
M  V30 13709 H 1261.77 -2.1378 2.03426 0
M  V30 13710 H 1261.85 -0.438342 2.52016 0
M  V30 13711 H 1261.49 -1.13915 4.9496 0
M  V30 13712 H 1261.42 -2.84264 4.43285 0
M  V30 13713 H 1263.91 -1.68854 3.38078 0
M  V30 13714 H 1264.23 -2.88234 7.17036 0
M  V30 13715 H 1262.57 -2.59861 6.44591 0
M  V30 13716 H 1265.76 -2.01587 4.22469 0
M  V30 13717 H 1265.94 -2.56045 5.95269 0
M  V30 13718 N 1259.34 -1.34755 -0.817236 0
M  V30 13719 C 1260.59 -1.2718 -1.57066 0
M  V30 13720 C 1260.91 0.156531 -1.94371 0
M  V30 13721 O 1260.18 1.09049 -1.62742 0
M  V30 13722 H 1258.76 -0.467755 -0.582421 0
M  V30 13723 H 1261.42 -1.68734 -0.975438 0
M  V30 13724 H 1260.52 -1.88043 -2.49091 0
M  V30 13725 N 1260.82 1.03812 -1.18578 0
M  V30 13726 C 1262.07 1.76706 -0.980776 0
M  V30 13727 C 1262.39 1.88729 0.490562 0
M  V30 13728 O 1261.66 1.41413 1.35569 0
M  V30 13729 H 1260.24 0.654586 -0.359898 0
M  V30 13730 H 1262.9 1.25274 -1.49306 0
M  V30 13731 H 1262 2.77876 -1.42096 0
M  V30 13732 N 1262.3 0.988223 1.22768 0
M  V30 13733 C 1263.52 0.679426 1.95955 0
M  V30 13734 C 1263.95 -0.748483 1.72567 0
M  V30 13735 O 1263.31 -1.51097 1.00197 0
M  V30 13736 C 1263.35 0.985284 3.46878 0
M  V30 13737 O 1262.46 0.0814607 4.1232 0
M  V30 13738 H 1261.8 0.254749 0.613188 0
M  V30 13739 H 1264.33 1.32393 1.55991 0
M  V30 13740 H 1264.34 0.925198 3.97371 0
M  V30 13741 H 1263.01 2.02581 3.63227 0
M  V30 13742 H 1261.59 0.196629 3.72381 0
M  V30 13743 N 1263.78 -1.38018 0.760839 0
M  V30 13744 C 1264.71 -2.32995 0.153557 0
M  V30 13745 C 1265.69 -1.55234 -0.695448 0
M  V30 13746 O 1266.87 -1.8352 -0.635148 0
M  V30 13747 C 1264 -3.39437 -0.734811 0
M  V30 13748 C 1262.96 -4.27998 0.0120287 0
M  V30 13749 C 1262.28 -5.25359 -0.995067 0
M  V30 13750 C 1263.58 -5.08687 1.18468 0
M  V30 13751 H 1265.28 -2.8403 0.946956 0
M  V30 13752 H 1262.82 -1.36562 0.456816 0
M  V30 13753 H 1264.77 -4.0485 -1.16938 0
M  V30 13754 H 1263.5 -2.86901 -1.56061 0
M  V30 13755 H 1262.16 -3.64102 0.427254 0
M  V30 13756 H 1261.81 -4.69108 -1.81512 0
M  V30 13757 H 1261.51 -5.85469 -0.499969 0
M  V30 13758 H 1263.03 -5.93648 -1.4288 0
M  V30 13759 H 1264.44 -5.67299 0.8273 0
M  V30 13760 H 1262.84 -5.78068 1.61112 0
M  V30 13761 H 1263.91 -4.42 1.99409 0
M  V30 13762 N 1265.25 -0.510493 -1.49103 0
M  V30 13763 C 1266.2 0.262848 -2.29298 0
M  V30 13764 C 1267.17 0.951714 -1.36131 0
M  V30 13765 O 1268.36 0.956534 -1.65091 0
M  V30 13766 C 1265.5 1.31565 -3.19037 0
M  V30 13767 C 1264.61 0.637598 -4.27269 0
M  V30 13768 C 1263.74 1.67165 -5.04212 0
M  V30 13769 C 1262.78 0.975992 -6.04269 0
M  V30 13770 N 1261.92 1.95468 -6.74342 0
M  V30 13771 H 1266.76 -0.427246 -2.94921 0
M  V30 13772 H 1264.3 -0.222538 -1.45407 0
M  V30 13773 H 1266.25 1.93813 -3.69449 0
M  V30 13774 H 1264.88 1.97438 -2.55379 0
M  V30 13775 H 1263.94 -0.0983863 -3.80273 0
M  V30 13776 H 1265.25 0.0904435 -4.98718 0
M  V30 13777 H 1264.4 2.36893 -5.5854 0
M  V30 13778 H 1263.14 2.25267 -4.32557 0
M  V30 13779 H 1262.15 0.264534 -5.49163 0
M  V30 13780 H 1263.37 0.40134 -6.77913 0
M  V30 13781 H 1261.32 2.52515 -6.05452 0
M  V30 13782 H 1261.23 1.45845 -7.41799 0
M  V30 13783 H 1262.5 2.64455 -7.33269 0
M  V30 13784 N 1266.73 1.55688 -0.24474 0
M  V30 13785 C 1267.98 1.98498 0.379852 0
M  V30 13786 C 1268.3 1.13416 1.58625 0
M  V30 13787 O 1267.57 0.216456 1.947 0
M  V30 13788 H 1266.15 0.73312 0.143334 0
M  V30 13789 H 1268.81 1.91858 -0.343027 0
M  V30 13790 H 1267.91 3.04367 0.690463 0
M  V30 13791 N 1268.21 -0.0283989 1.57574 0
M  V30 13792 C 1269.49 -0.754527 1.80461 0
M  V30 13793 C 1269.87 -1.93539 0.842966 0
M  V30 13794 O 1269.21 -2.28212 -0.114714 0
M  V30 13795 C 1269.42 -1.18694 3.28196 0
M  V30 13796 C 1270.77 -1.60257 3.93196 0
M  V30 13797 O 1271.8 -1.2815 3.32349 0
M  V30 13798 O 1270.66 -2.19853 5.00327 0
M  V30 13799 H 1267.75 -0.364936 0.742126 0
M  V30 13800 H 1270.3 -0.00512589 1.69699 0
M  V30 13801 H 1269.07 -0.34398 3.89785 0
M  V30 13802 H 1268.69 -1.99633 3.43849 0
M  V30 13803 N 1269.69 -1.54705 -0.300681 0
M  V30 13804 C 1270.94 -1.73658 -1.0338 0
M  V30 13805 C 1271.26 -0.525447 -1.87787 0
M  V30 13806 O 1270.53 0.460269 -1.90416 0
M  V30 13807 H 1269.11 -0.640338 -0.384677 0
M  V30 13808 H 1271.77 -1.92059 -0.331588 0
M  V30 13809 H 1270.86 -2.62595 -1.68672 0
M  V30 13810 N 1271.17 0.563888 -1.47167 0
M  V30 13811 C 1272.41 1.31875 -1.53145 0
M  V30 13812 C 1272.74 1.94047 -0.192518 0
M  V30 13813 O 1272.01 1.79577 0.782872 0
M  V30 13814 H 1270.59 0.489694 -0.5641 0
M  V30 13815 H 1273.25 0.658976 -1.83422 0
M  V30 13816 H 1272.34 2.11574 -2.2944 0
M  V30 13817 N 1272.64 1.35187 0.810078 0
M  V30 13818 C 1273.92 1.18832 1.55365 0
M  V30 13819 C 1274.3 -0.233956 2.098 0
M  V30 13820 O 1273.65 -1.23701 1.92121 0
M  V30 13821 C 1273.86 2.25351 2.66492 0
M  V30 13822 C 1275.21 2.60981 3.34924 0
M  V30 13823 O 1276.23 2.24238 2.7676 0
M  V30 13824 O 1275.09 3.24147 4.3999 0
M  V30 13825 H 1272.18 0.461446 0.686292 0
M  V30 13826 H 1274.73 1.46858 0.850341 0
M  V30 13827 H 1273.5 3.20762 2.24115 0
M  V30 13828 H 1273.13 1.98575 3.44462 0
M  V30 13829 N 1274.12 -1.03182 1.19127 0
M  V30 13830 C 1275.54 -1.28773 0.942854 0
M  V30 13831 C 1275.74 -1.97759 -0.386483 0
M  V30 13832 O 1274.79 -2.26365 -1.1187 0
M  V30 13833 C 1276.11 -2.13771 2.11476 0
M  V30 13834 C 1277.66 -2.27089 2.15406 0
M  V30 13835 C 1278.13 -3.15458 3.32039 0
M  V30 13836 N 1279.62 -3.23046 3.31957 0
M  V30 13837 C 1280.36 -3.91604 4.18848 0
M  V30 13838 N 1279.85 -4.62418 5.15889 0
M  V30 13839 N 1281.65 -3.87974 4.06734 0
M  V30 13840 H 1273.8 -0.568165 2.0466 0
M  V30 13841 H 1276.06 -0.31328 0.89474 0
M  V30 13842 H 1275.77 -1.704 3.07663 0
M  V30 13843 H 1275.64 -3.14476 2.0829 0
M  V30 13844 H 1278.03 -2.69693 1.19791 0
M  V30 13845 H 1278.11 -1.25945 2.22647 0
M  V30 13846 H 1277.75 -2.73564 4.27931 0
M  V30 13847 H 1277.68 -4.16654 3.22035 0
M  V30 13848 H 1280.17 -2.7261 2.6171 0
M  V30 13849 H 1280.49 -5.12353 5.78545 0
M  V30 13850 H 1278.83 -4.61293 5.1984 0
M  V30 13851 H 1282.02 -3.31789 3.30202 0
M  V30 13852 H 1282.19 -4.4113 4.74666 0
M  V30 13853 N 1275.6 -0.99472 -1.22242 0
M  V30 13854 C 1276.83 -0.689809 -1.95592 0
M  V30 13855 C 1277.25 0.739321 -1.72961 0
M  V30 13856 O 1276.61 1.50563 -1.00997 0
M  V30 13857 C 1276.66 -1.00367 -3.46351 0
M  V30 13858 O 1275.76 -0.103326 -4.12271 0
M  V30 13859 H 1275.1 -0.257997 -0.611828 0
M  V30 13860 H 1277.63 -1.33219 -1.55286 0
M  V30 13861 H 1277.64 -0.946259 -3.96875 0
M  V30 13862 H 1276.32 -2.04504 -3.62148 0
M  V30 13863 H 1274.89 -0.216374 -3.72272 0
M  V30 13864 N 1277.08 1.37613 -0.768148 0
M  V30 13865 C 1278.3 2.04579 -0.340892 0
M  V30 13866 C 1278.73 1.57556 1.02751 0
M  V30 13867 O 1278.09 0.734151 1.65771 0
M  V30 13868 C 1278.13 3.58495 -0.389099 0
M  V30 13869 O 1277.24 4.07838 0.611741 0
M  V30 13870 H 1276.58 0.647246 -0.148216 0
M  V30 13871 H 1279.11 1.75999 -1.04333 0
M  V30 13872 H 1279.12 4.07263 -0.245116 0
M  V30 13873 H 1277.79 3.92076 -1.38742 0
M  V30 13874 H 1276.37 3.70399 0.431173 0
M  V30 13875 N 1278.56 0.518393 1.4883 0
M  V30 13876 C 1279.52 -0.23983 2.27942 0
M  V30 13877 C 1280.52 -0.878302 1.34694 0
M  V30 13878 O 1281.71 -0.740142 1.57694 0
M  V30 13879 C 1278.84 -1.34581 3.1321 0
M  V30 13880 H 1280.03 0.454599 2.96434 0
M  V30 13881 H 1277.59 0.273932 1.53881 0
M  V30 13882 H 1278.32 -2.07385 2.49323 0
M  V30 13883 H 1278.11 -0.893251 3.8179 0
M  V30 13884 H 1279.6 -1.87944 3.72917 0
M  V30 13885 N 1280.03 -1.55556 0.252993 0
M  V30 13886 C 1280.96 -2.24613 -0.638047 0
M  V30 13887 C 1281.95 -1.22852 -1.1765 0
M  V30 13888 O 1283.13 -1.51519 -1.21472 0
M  V30 13889 C 1280.26 -2.95029 -1.83236 0
M  V30 13890 C 1279.21 -4.03531 -1.42641 0
M  V30 13891 C 1278.54 -4.61404 -2.70204 0
M  V30 13892 C 1279.84 -5.18923 -0.592958 0
M  V30 13893 H 1281.53 -2.99335 -0.0621918 0
M  V30 13894 H 1279.08 -1.43972 -0.0284722 0
M  V30 13895 H 1281.03 -3.42042 -2.46141 0
M  V30 13896 H 1279.76 -2.17805 -2.43369 0
M  V30 13897 H 1278.42 -3.57296 -0.820672 0
M  V30 13898 H 1278.06 -3.80874 -3.28548 0
M  V30 13899 H 1277.76 -5.34652 -2.43764 0
M  V30 13900 H 1279.29 -5.11154 -3.33997 0
M  V30 13901 H 1280.7 -5.62124 -1.12646 0
M  V30 13902 H 1279.1 -5.98598 -0.424358 0
M  V30 13903 H 1280.17 -4.83301 0.393434 0
M  V30 13904 N 1281.51 0.0200419 -1.57587 0
M  V30 13905 C 1282.79 0.744946 -1.80859 0
M  V30 13906 C 1283.17 1.93089 -0.853218 0
M  V30 13907 O 1282.52 2.28269 0.10261 0
M  V30 13908 C 1282.73 1.16952 -3.28821 0
M  V30 13909 C 1284.08 1.5817 -3.9404 0
M  V30 13910 O 1285.1 1.26385 -3.33024 0
M  V30 13911 O 1283.96 2.17197 -5.01486 0
M  V30 13912 H 1281.05 0.360995 -0.744051 0
M  V30 13913 H 1283.6 -0.00387374 -1.697 0
M  V30 13914 H 1282.37 0.323304 -3.89962 0
M  V30 13915 H 1281.99 1.97807 -3.44903 0
M  V30 13916 N 1282.99 1.54862 0.292472 0
M  V30 13917 C 1283.94 1.87168 1.38097 0
M  V30 13918 C 1284.93 0.746176 1.52081 0
M  V30 13919 O 1286.14 0.930281 1.54097 0
M  V30 13920 H 1282.51 0.593769 0.461456 0
M  V30 13921 H 1284.48 2.78135 1.0809 0
M  V30 13922 C 1283.23 2.14315 2.73796 0
M  V30 13923 H 1282.56 3.00398 2.63821 0
M  V30 13924 H 1284 2.40853 3.48949 0
M  V30 13925 C 1282.46 0.944424 3.23392 0
M  V30 13926 O 1282.99 0.169208 4.01343 0
M  V30 13927 N 1281.19 0.747456 2.80823 0
M  V30 13928 H 1280.74 1.37953 2.17547 0
M  V30 13929 H 1280.7 -0.0530199 3.14355 0
M  V30 13930 N 1284.47 -0.556076 1.47464 0
M  V30 13931 C 1285.4 -1.67829 1.56096 0
M  V30 13932 C 1286.41 -1.56541 0.447077 0
M  V30 13933 O 1287.6 -1.63478 0.716739 0
M  V30 13934 C 1284.7 -3.06303 1.45023 0
M  V30 13935 C 1283.88 -3.43334 2.70999 0
M  V30 13936 C 1282.93 -4.60976 2.53746 0
M  V30 13937 O 1281.96 -4.65501 3.27564 0
M  V30 13938 N 1283.16 -5.5754 1.61647 0
M  V30 13939 H 1285.93 -1.6087 2.52865 0
M  V30 13940 H 1283.49 -0.74274 1.43857 0
M  V30 13941 H 1285.48 -3.82838 1.31214 0
M  V30 13942 H 1284.05 -3.07483 0.563311 0
M  V30 13943 H 1283.27 -2.56236 2.99561 0
M  V30 13944 H 1284.56 -3.64851 3.54629 0
M  V30 13945 H 1283.96 -5.56642 1.00827 0
M  V30 13946 H 1282.51 -6.33397 1.53789 0
M  V30 13947 N 1285.95 -1.35615 -0.802897 0
M  V30 13948 C 1287.36 -1.15733 -1.099 0
M  V30 13949 C 1287.56 0.0277094 -2.01481 0
M  V30 13950 O 1286.62 0.697196 -2.42684 0
M  V30 13951 C 1287.93 -2.46201 -1.72643 0
M  V30 13952 C 1289.48 -2.52442 -1.85046 0
M  V30 13953 C 1289.96 -3.82962 -2.51205 0
M  V30 13954 N 1291.45 -3.84234 -2.58686 0
M  V30 13955 C 1292.18 -4.81956 -3.10654 0
M  V30 13956 N 1291.68 -5.90068 -3.63032 0
M  V30 13957 N 1293.47 -4.69389 -3.09241 0
M  V30 13958 H 1285.62 -2.11511 -0.194177 0
M  V30 13959 H 1287.88 -0.936259 -0.148739 0
M  V30 13960 H 1287.59 -3.33114 -1.12817 0
M  V30 13961 H 1287.46 -2.6102 -2.72302 0
M  V30 13962 H 1289.85 -1.65955 -2.44014 0
M  V30 13963 H 1289.93 -2.41534 -0.842316 0
M  V30 13964 H 1289.58 -4.69848 -1.92885 0
M  V30 13965 H 1289.51 -3.9116 -3.52564 0
M  V30 13966 H 1292 -3.0612 -2.21582 0
M  V30 13967 H 1292.31 -6.60623 -4.00996 0
M  V30 13968 H 1290.66 -5.93755 -3.6122 0
M  V30 13969 H 1293.85 -3.84066 -2.67602 0
M  V30 13970 H 1294.02 -5.4571 -3.49435 0
M  V30 13971 N 1287.43 1.02549 -1.19673 0
M  V30 13972 C 1288.65 1.79623 -1.0268 0
M  V30 13973 C 1289.07 1.83969 0.424345 0
M  V30 13974 O 1288.43 1.28621 1.29472 0
M  V30 13975 C 1288.48 3.24514 -1.59289 0
M  V30 13976 O 1288.2 3.20462 -2.98723 0
M  V30 13977 C 1289.7 4.18173 -1.47126 0
M  V30 13978 H 1286.92 0.565167 -0.3617 0
M  V30 13979 H 1289.46 1.29143 -1.58564 0
M  V30 13980 H 1287.62 3.72173 -1.07546 0
M  V30 13981 H 1288.03 4.11341 -3.25421 0
M  V30 13982 H 1289.51 5.17714 -1.9151 0
M  V30 13983 H 1289.98 4.37165 -0.422315 0
M  V30 13984 H 1290.59 3.7639 -1.98017 0
M  V30 13985 N 1288.9 1.00119 1.21713 0
M  V30 13986 C 1290.31 0.715611 1.72441 0
M  V30 13987 C 1290.67 -0.767 1.80587 0
M  V30 13988 O 1289.79 -1.59928 1.45781 0
M  V30 13989 C 1290.39 1.29234 3.13184 0
M  V30 13990 C 1288.94 1.05597 3.61284 0
M  V30 13991 C 1288.09 1.40749 2.38925 0
M  V30 13992 H 1291.04 1.17255 1.06943 0
M  V30 13993 H 1291.06 0.67507 3.74464 0
M  V30 13994 H 1290.58 2.37141 3.07223 0
M  V30 13995 H 1288.68 -0.00610816 3.72599 0
M  V30 13996 H 1288.79 1.72517 4.46961 0
M  V30 13997 H 1287.15 0.826207 2.40927 0
M  V30 13998 H 1287.94 2.49678 2.35618 0
M  V30 13999 N 1290.38 -1.37203 0.775435 0
M  V30 14000 C 1291.31 -2.32819 0.17826 0
M  V30 14001 C 1292.29 -1.55963 -0.678944 0
M  V30 14002 O 1293.48 -1.84183 -0.615648 0
M  V30 14003 C 1290.61 -3.40198 -0.698768 0
M  V30 14004 C 1289.56 -4.27961 0.057423 0
M  V30 14005 C 1288.89 -5.26385 -0.93929 0
M  V30 14006 C 1290.19 -5.07402 1.23856 0
M  V30 14007 H 1291.88 -2.8301 0.977028 0
M  V30 14008 H 1289.43 -1.3607 0.471274 0
M  V30 14009 H 1291.38 -4.06067 -1.12637 0
M  V30 14010 H 1290.1 -2.88541 -1.53009 0
M  V30 14011 H 1288.76 -3.63628 0.465848 0
M  V30 14012 H 1288.41 -4.71007 -1.76527 0
M  V30 14013 H 1288.11 -5.85966 -0.437844 0
M  V30 14014 H 1289.64 -5.9513 -1.36576 0
M  V30 14015 H 1291.05 -5.6639 0.887423 0
M  V30 14016 H 1289.45 -5.76327 1.67234 0
M  V30 14017 H 1290.52 -4.3986 2.04085 0
M  V30 14018 N 1291.86 -0.526279 -1.48553 0
M  V30 14019 C 1293.08 0.00731432 -2.07399 0
M  V30 14020 C 1293.51 1.27737 -1.38075 0
M  V30 14021 O 1292.87 1.75741 -0.445503 0
M  V30 14022 C 1292.92 0.218126 -3.5994 0
M  V30 14023 O 1292.02 1.28759 -3.91784 0
M  V30 14024 H 1291.36 -0.0374784 -0.662941 0
M  V30 14025 H 1293.89 -0.733133 -1.91014 0
M  V30 14026 H 1293.9 0.44192 -4.056 0
M  V30 14027 H 1292.58 -0.709668 -4.09801 0
M  V30 14028 H 1291.15 1.04674 -3.57907 0
M  V30 14029 N 1293.34 1.5542 -0.261239 0
M  V30 14030 C 1294.27 2.24949 0.626126 0
M  V30 14031 C 1295.25 1.23474 1.16997 0
M  V30 14032 O 1296.43 1.52161 1.20667 0
M  V30 14033 C 1293.56 2.95996 1.81669 0
M  V30 14034 C 1292.52 4.04282 1.40499 0
M  V30 14035 C 1291.84 4.62831 2.67753 0
M  V30 14036 C 1293.14 5.1923 0.56543 0
M  V30 14037 H 1294.84 2.99364 0.0463164 0
M  V30 14038 H 1292.38 1.43985 0.0208366 0
M  V30 14039 H 1294.34 3.43343 2.44323 0
M  V30 14040 H 1293.06 2.19093 2.42211 0
M  V30 14041 H 1291.72 3.57726 0.801712 0
M  V30 14042 H 1291.37 3.82611 3.26524 0
M  V30 14043 H 1291.07 5.35938 2.40925 0
M  V30 14044 H 1292.59 5.12918 3.31281 0
M  V30 14045 H 1294.01 5.62714 1.09663 0
M  V30 14046 H 1292.4 5.98814 0.392607 0
M  V30 14047 H 1293.47 4.83086 -0.419059 0
M  V30 14048 N 1294.82 -0.0116844 1.57596 0
M  V30 14049 C 1296.06 -0.697577 1.89679 0
M  V30 14050 C 1296.38 -1.74956 0.861122 0
M  V30 14051 O 1295.65 -1.95629 -0.103031 0
M  V30 14052 H 1294.23 -0.26064 0.700054 0
M  V30 14053 H 1296.9 0.0264782 1.94882 0
M  V30 14054 H 1295.99 -1.17621 2.89088 0
M  V30 14055 N 1296.29 -1.55015 -0.284256 0
M  V30 14056 C 1297.23 -1.83517 -1.3731 0
M  V30 14057 C 1298.24 -0.719009 -1.46062 0
M  V30 14058 O 1299.43 -0.996719 -1.4808 0
M  V30 14059 C 1296.53 -1.97309 -2.7554 0
M  V30 14060 C 1295.7 -3.2787 -2.89517 0
M  V30 14061 C 1294.76 -3.31868 -4.08351 0
M  V30 14062 O 1293.79 -4.05309 -3.99642 0
M  V30 14063 N 1294.99 -2.5846 -5.19787 0
M  V30 14064 H 1297.75 -2.77495 -1.1321 0
M  V30 14065 H 1295.31 -1.54795 -0.474359 0
M  V30 14066 H 1297.31 -1.97367 -3.53311 0
M  V30 14067 H 1295.88 -1.10249 -2.92513 0
M  V30 14068 H 1295.1 -3.40445 -1.98722 0
M  V30 14069 H 1296.38 -4.13996 -2.95779 0
M  V30 14070 H 1295.78 -1.98455 -5.29747 0
M  V30 14071 H 1294.34 -2.64253 -5.9583 0
M  V30 14072 N 1297.77 0.548248 -1.47757 0
M  V30 14073 C 1299.19 0.875048 -1.33473 0
M  V30 14074 C 1299.39 1.98747 -0.331952 0
M  V30 14075 O 1298.44 2.51226 0.253348 0
M  V30 14076 C 1299.76 1.25982 -2.73037 0
M  V30 14077 C 1301.3 1.37074 -2.81389 0
M  V30 14078 C 1301.78 1.78902 -4.21613 0
M  V30 14079 N 1303.27 1.86037 -4.24198 0
M  V30 14080 C 1304.01 2.1975 -5.2962 0
M  V30 14081 N 1303.5 2.52013 -6.45338 0
M  V30 14082 N 1305.29 2.206 -5.17003 0
M  V30 14083 H 1297.45 -0.186033 -2.11584 0
M  V30 14084 H 1299.71 -0.0205687 -0.947777 0
M  V30 14085 H 1299.41 0.516188 -3.47891 0
M  V30 14086 H 1299.29 2.21402 -3.05387 0
M  V30 14087 H 1301.68 2.10517 -2.06801 0
M  V30 14088 H 1301.76 0.398193 -2.52682 0
M  V30 14089 H 1301.4 1.06026 -4.9671 0
M  V30 14090 H 1301.33 2.77176 -4.47751 0
M  V30 14091 H 1303.82 1.63455 -3.40721 0
M  V30 14092 H 1304.13 2.7679 -7.21531 0
M  V30 14093 H 1302.48 2.49573 -6.48643 0
M  V30 14094 H 1305.67 1.9484 -4.25623 0
M  V30 14095 H 1305.84 2.46543 -5.99267 0
M  V30 14096 N 1299.25 1.36039 0.795694 0
M  V30 14097 C 1300.16 1.31991 1.93948 0
M  V30 14098 C 1301.18 0.223064 1.72564 0
M  V30 14099 O 1302.35 0.454344 1.96208 0
M  V30 14100 C 1299.42 1.10228 3.28711 0
M  V30 14101 C 1298.48 2.29328 3.62914 0
M  V30 14102 C 1297.71 2.08595 4.91247 0
M  V30 14103 O 1297.93 1.05793 5.60503 0
M  V30 14104 O 1296.87 2.96222 5.23962 0
M  V30 14105 H 1300.69 2.28274 2.00311 0
M  V30 14106 H 1298.28 1.16521 0.935048 0
M  V30 14107 H 1300.16 0.999842 4.09367 0
M  V30 14108 H 1298.84 0.17003 3.23253 0
M  V30 14109 H 1297.74 2.4514 2.8259 0
M  V30 14110 H 1299.08 3.21038 3.73089 0
M  V30 14111 N 1300.73 -1.01913 1.20215 0
M  V30 14112 C 1302.14 -1.5692 1.01159 0
M  V30 14113 C 1302.49 -1.91368 -0.432746 0
M  V30 14114 O 1301.62 -1.71959 -1.31374 0
M  V30 14115 C 1302.21 -2.85125 1.83001 0
M  V30 14116 C 1300.77 -3.36669 1.68318 0
M  V30 14117 C 1299.92 -2.10003 1.81091 0
M  V30 14118 H 1302.87 -0.843246 1.34443 0
M  V30 14119 H 1302.89 -3.56428 1.33188 0
M  V30 14120 H 1302.4 -2.60021 2.88116 0
M  V30 14121 H 1300.5 -3.66739 0.658292 0
M  V30 14122 H 1300.61 -4.09042 2.49442 0
M  V30 14123 H 1298.98 -2.22337 1.24252 0
M  V30 14124 H 1299.76 -1.87329 2.87685 0
M  V30 14125 N 1302.21 -1.00763 -1.2118 0
M  V30 14126 C 1303.62 -0.724746 -1.72059 0
M  V30 14127 C 1303.97 0.757413 -1.80991 0
M  V30 14128 O 1303.09 1.59152 -1.46627 0
M  V30 14129 C 1303.69 -1.30893 -3.12494 0
M  V30 14130 C 1302.25 -1.07511 -3.60719 0
M  V30 14131 C 1301.39 -1.42014 -2.38175 0
M  V30 14132 H 1304.35 -1.17821 -1.0632 0
M  V30 14133 H 1304.37 -0.694919 -3.741 0
M  V30 14134 H 1303.88 -2.38767 -3.05961 0
M  V30 14135 H 1301.98 -0.0136518 -3.72597 0
M  V30 14136 H 1302.09 -1.74885 -4.4604 0
M  V30 14137 H 1300.46 -0.838972 -2.40486 0
M  V30 14138 H 1301.24 -2.50924 -2.34291 0
M  V30 14139 N 1303.68 1.3679 -0.7827 0
M  V30 14140 C 1304.93 2.0016 -0.361585 0
M  V30 14141 C 1305.29 1.61011 1.05324 0
M  V30 14142 O 1304.58 0.851491 1.7164 0
M  V30 14143 C 1304.77 3.54489 -0.455232 0
M  V30 14144 C 1304.6 4.08627 -1.87761 0
M  V30 14145 C 1303.37 4.3908 -2.50073 0
M  V30 14146 C 1305.57 4.28858 -2.83876 0
M  V30 14147 N 1303.55 4.79 -3.8397 0
M  V30 14148 C 1304.92 4.71507 -4.02593 0
M  V30 14149 C 1306.98 4.11013 -2.81021 0
M  V30 14150 C 1305.68 4.98181 -5.18852 0
M  V30 14151 C 1307.71 4.3883 -3.96463 0
M  V30 14152 C 1307.07 4.81729 -5.13922 0
M  V30 14153 H 1303.17 0.761099 -0.179588 0
M  V30 14154 H 1305.75 1.65913 -1.01887 0
M  V30 14155 H 1303.92 3.88019 0.171926 0
M  V30 14156 H 1305.65 4.04699 -0.0110089 0
M  V30 14157 H 1302.41 4.28547 -2.01605 0
M  V30 14158 H 1302.83 5.03253 -4.52841 0
M  V30 14159 H 1307.48 3.77009 -1.91375 0
M  V30 14160 H 1305.19 5.3107 -6.0909 0
M  V30 14161 H 1308.78 4.266 -3.95606 0
M  V30 14162 H 1307.66 5.02838 -6.01767 0
M  V30 14163 N 1305.16 0.53415 1.48272 0
M  V30 14164 C 1306.09 -0.215037 2.32508 0
M  V30 14165 C 1307.07 -0.931083 1.42355 0
M  V30 14166 O 1308.26 -0.916051 1.71237 0
M  V30 14167 C 1305.39 -1.25985 3.23643 0
M  V30 14168 C 1304.34 -0.661692 4.22854 0
M  V30 14169 C 1303.67 -1.80946 5.03153 0
M  V30 14170 C 1304.97 0.369358 5.20992 0
M  V30 14171 H 1306.66 0.488158 2.95394 0
M  V30 14172 H 1304.21 0.236206 1.4205 0
M  V30 14173 H 1306.16 -1.79195 3.81402 0
M  V30 14174 H 1304.89 -1.99268 2.58766 0
M  V30 14175 H 1303.54 -0.151082 3.66289 0
M  V30 14176 H 1303.19 -2.53077 4.34696 0
M  V30 14177 H 1302.89 -1.41513 5.70305 0
M  V30 14178 H 1304.42 -2.34526 5.63764 0
M  V30 14179 H 1305.83 -0.0758076 5.7325 0
M  V30 14180 H 1304.23 0.681301 5.9622 0
M  V30 14181 H 1305.3 1.27363 4.67875 0
M  V30 14182 N 1306.64 -1.55279 0.269478 0
M  V30 14183 C 1307.6 -2.21008 -0.607299 0
M  V30 14184 C 1308.6 -1.18619 -1.08564 0
M  V30 14185 O 1309.79 -1.4356 -0.986721 0
M  V30 14186 C 1306.93 -2.87157 -1.83721 0
M  V30 14187 H 1308.12 -2.99881 -0.0334894 0
M  V30 14188 H 1305.67 -1.56287 0.0200573 0
M  V30 14189 H 1306.41 -2.12281 -2.45168 0
M  V30 14190 H 1306.19 -3.62183 -1.5022 0
M  V30 14191 H 1307.68 -3.37391 -2.46083 0
M  V30 14192 N 1308.12 0.00332656 -1.576 0
M  V30 14193 C 1309.53 0.359361 -1.55502 0
M  V30 14194 C 1309.73 1.74997 -0.998914 0
M  V30 14195 O 1308.79 2.44482 -0.631263 0
M  V30 14196 C 1310.1 0.237638 -2.9976 0
M  V30 14197 C 1311.65 0.312824 -3.11433 0
M  V30 14198 C 1312.13 0.220262 -4.5747 0
M  V30 14199 N 1313.62 0.278265 -4.62363 0
M  V30 14200 C 1314.35 0.229933 -5.72939 0
M  V30 14201 N 1313.85 0.132391 -6.92673 0
M  V30 14202 N 1315.64 0.281555 -5.61394 0
M  V30 14203 H 1307.79 -0.906404 -1.92089 0
M  V30 14204 H 1310.06 -0.347129 -0.88216 0
M  V30 14205 H 1309.76 -0.719007 -3.44272 0
M  V30 14206 H 1309.64 1.02105 -3.63118 0
M  V30 14207 H 1312.02 1.25991 -2.66852 0
M  V30 14208 H 1312.1 -0.500395 -2.50858 0
M  V30 14209 H 1311.75 -0.723267 -5.02724 0
M  V30 14210 H 1311.68 1.05192 -5.15987 0
M  V30 14211 H 1314.17 0.35512 -3.76228 0
M  V30 14212 H 1314.48 0.101317 -7.72734 0
M  V30 14213 H 1312.83 0.0980665 -6.94931 0
M  V30 14214 H 1316.02 0.355931 -4.66745 0
M  V30 14215 H 1316.19 0.240423 -6.47554 0
M  V30 14216 N 1309.6 1.55164 0.276031 0
M  V30 14217 C 1311.01 1.66367 0.847293 0
M  V30 14218 C 1311.36 0.588692 1.8716 0
M  V30 14219 O 1310.48 -0.27035 2.14705 0
M  V30 14220 C 1311.08 3.01593 1.5436 0
M  V30 14221 C 1309.64 3.14833 2.06293 0
M  V30 14222 C 1308.78 2.62152 0.903959 0
M  V30 14223 H 1311.74 1.58613 0.0524478 0
M  V30 14224 H 1311.76 2.94412 2.41043 0
M  V30 14225 H 1311.27 3.7981 0.797849 0
M  V30 14226 H 1309.37 2.41384 2.83839 0
M  V30 14227 H 1309.48 4.21353 2.28032 0
M  V30 14228 H 1307.85 2.19233 1.29649 0
M  V30 14229 H 1308.63 3.4287 0.171765 0
M  V30 14230 N 1311.07 -0.540404 1.48045 0
M  V30 14231 C 1312.31 -1.30737 1.57121 0
M  V30 14232 C 1312.68 -1.90554 0.23518 0
M  V30 14233 O 1313.88 -2.68048 0.20087 0
M  V30 14234 C 1312.15 -2.37539 2.6704 0
M  V30 14235 S 1313.71 -3.241 2.95812 0
M  V30 14236 H 1310.53 -0.444856 0.554639 0
M  V30 14237 H 1313.13 -0.61683 1.85514 0
M  V30 14238 H 1311.83 -1.92057 3.62688 0
M  V30 14239 H 1311.36 -3.11313 2.40515 0
M  V30 14240 H 1313.38 -4.37393 2.34311 0
M  V30 14241 N 1312.55 -1.36459 -0.788468 0
M  V30 14242 C 1313.5 -1.27391 -1.89092 0
M  V30 14243 C 1314.49 -0.165201 -1.6005 0
M  V30 14244 O 1315.68 -0.398097 -1.72465 0
M  V30 14245 C 1312.81 -1.06639 -3.26317 0
M  V30 14246 C 1311.89 -2.21981 -3.61366 0
M  V30 14247 N 1312.28 -3.47302 -3.67716 0
M  V30 14248 C 1310.58 -2.13767 -3.91433 0
M  V30 14249 C 1311.28 -4.2326 -3.99031 0
M  V30 14250 N 1310.26 -3.52211 -4.14063 0
M  V30 14251 H 1314.06 -2.22318 -1.92229 0
M  V30 14252 H 1311.58 -1.29191 -0.98404 0
M  V30 14253 H 1313.57 -0.982292 -4.05162 0
M  V30 14254 H 1312.23 -0.126129 -3.24455 0
M  V30 14255 H 1313.24 -3.81424 -3.50337 0
M  V30 14256 H 1309.92 -1.27702 -3.9749 0
M  V30 14257 H 1311.31 -5.31643 -4.1086 0
M  V30 14258 N 1314.03 1.01274 -1.20754 0
M  V30 14259 C 1315.28 1.74586 -1.01804 0
M  V30 14260 C 1315.6 1.89727 0.450419 0
M  V30 14261 O 1314.87 1.44257 1.32539 0
M  V30 14262 H 1313.45 0.646804 -0.373702 0
M  V30 14263 H 1316.11 1.22079 -1.5193 0
M  V30 14264 H 1315.21 2.748 -1.47958 0
M  V30 14265 N 1315.51 1.01404 1.20644 0
M  V30 14266 C 1316.46 0.575388 2.25371 0
M  V30 14267 C 1317.45 -0.384598 1.64976 0
M  V30 14268 O 1318.66 -0.2548 1.78187 0
M  V30 14269 H 1315.03 0.167752 0.733051 0
M  V30 14270 H 1317 1.46964 2.597 0
M  V30 14271 C 1315.75 -0.0731257 3.47623 0
M  V30 14272 H 1315.08 0.656551 3.94372 0
M  V30 14273 H 1316.52 -0.343203 4.22609 0
M  V30 14274 C 1314.97 -1.31515 3.1017 0
M  V30 14275 O 1315.5 -2.40869 3.21473 0
M  V30 14276 N 1313.71 -1.19829 2.64744 0
M  V30 14277 H 1313.26 -0.308463 2.55746 0
M  V30 14278 H 1313.22 -2.0303 2.40054 0
M  V30 14279 N 1316.99 -1.36373 0.789944 0
M  V30 14280 C 1318.23 -2.0106 0.367995 0
M  V30 14281 C 1318.59 -1.61336 -1.0409 0
M  V30 14282 O 1319.79 -2.18618 -1.56396 0
M  V30 14283 C 1318.06 -3.53492 0.527106 0
M  V30 14284 S 1319.62 -4.38375 0.193113 0
M  V30 14285 H 1316.44 -0.696965 0.140573 0
M  V30 14286 H 1319.04 -1.66256 1.02855 0
M  V30 14287 H 1317.75 -3.7989 1.55279 0
M  V30 14288 H 1317.28 -3.93116 -0.149364 0
M  V30 14289 H 1319.29 -4.85913 -1.00513 0
M  V30 14290 N 1318.47 -0.542005 -1.47987 0
M  V30 14291 C 1319.74 0.0526494 -1.95529 0
M  V30 14292 C 1320.12 1.50092 -1.48444 0
M  V30 14293 O 1319.47 2.16981 -0.716347 0
M  V30 14294 C 1319.68 -0.0770524 -3.48915 0
M  V30 14295 C 1321.03 0.0760849 -4.24532 0
M  V30 14296 O 1322.05 -0.00384644 -3.562 0
M  V30 14297 O 1320.91 0.245406 -5.45949 0
M  V30 14298 H 1318.01 0.0726163 -0.823806 0
M  V30 14299 H 1320.55 -0.607454 -1.58455 0
M  V30 14300 H 1319.32 -1.08544 -3.75944 0
M  V30 14301 H 1318.95 0.621357 -3.92715 0
M  V30 14302 N 1319.94 1.55134 -0.277709 0
M  V30 14303 C 1321.35 1.85405 0.219543 0
M  V30 14304 C 1321.71 1.19973 1.55245 0
M  V30 14305 O 1320.83 0.488986 2.10803 0
M  V30 14306 C 1321.43 3.36369 0.405127 0
M  V30 14307 C 1319.98 3.66755 0.846609 0
M  V30 14308 C 1319.13 2.77238 -0.0586063 0
M  V30 14309 H 1322.08 1.50637 -0.499422 0
M  V30 14310 H 1322.1 3.59615 1.24329 0
M  V30 14311 H 1321.62 3.83963 -0.565138 0
M  V30 14312 H 1319.72 3.24662 1.82825 0
M  V30 14313 H 1319.83 4.74219 0.682135 0
M  V30 14314 H 1318.19 2.50546 0.458153 0
M  V30 14315 H 1318.98 3.27647 -1.0248 0
M  V30 14316 N 1321.42 0.00503138 1.57599 0
M  V30 14317 C 1322.65 -0.689609 1.95069 0
M  V30 14318 C 1323.06 -1.67028 0.880183 0
M  V30 14319 O 1322.42 -1.81959 -0.140406 0
M  V30 14320 C 1322.47 -1.41709 3.32567 0
M  V30 14321 O 1322.19 -0.475746 4.35509 0
M  V30 14322 C 1323.69 -2.20578 3.84526 0
M  V30 14323 H 1320.91 -0.19175 0.643019 0
M  V30 14324 H 1323.46 0.057646 2.04419 0
M  V30 14325 H 1321.61 -2.11593 3.2451 0
M  V30 14326 H 1322.03 -0.989573 5.1508 0
M  V30 14327 H 1323.5 -2.66969 4.83148 0
M  V30 14328 H 1323.98 -3.03467 3.17497 0
M  V30 14329 H 1324.58 -1.557 3.95775 0
M  V30 14330 N 1322.9 -1.55308 -0.267798 0
M  V30 14331 C 1323.83 -1.84963 -1.35356 0
M  V30 14332 C 1324.84 -0.73446 -1.45291 0
M  V30 14333 O 1326.03 -1.01237 -1.47015 0
M  V30 14334 C 1323.13 -2.00221 -2.73432 0
M  V30 14335 C 1322.31 -3.30922 -2.86024 0
M  V30 14336 C 1321.37 -3.3618 -4.04808 0
M  V30 14337 O 1320.39 -4.09525 -3.9532 0
M  V30 14338 N 1321.59 -2.63958 -5.17017 0
M  V30 14339 H 1324.36 -2.7868 -1.1026 0
M  V30 14340 H 1321.92 -1.55289 -0.457914 0
M  V30 14341 H 1323.91 -2.01103 -3.51197 0
M  V30 14342 H 1322.48 -1.13346 -2.91327 0
M  V30 14343 H 1321.7 -3.42534 -1.951 0
M  V30 14344 H 1322.99 -4.17109 -2.91371 0
M  V30 14345 H 1322.39 -2.04062 -5.27613 0
M  V30 14346 H 1320.94 -2.70558 -5.92994 0
M  V30 14347 N 1324.38 0.532545 -1.4833 0
M  V30 14348 C 1325.31 1.65325 -1.58746 0
M  V30 14349 C 1326.32 1.5581 -0.471925 0
M  V30 14350 O 1327.51 1.62317 -0.742656 0
M  V30 14351 C 1324.61 3.03957 -1.49877 0
M  V30 14352 C 1323.78 3.38979 -2.76427 0
M  V30 14353 C 1322.84 4.56881 -2.61048 0
M  V30 14354 O 1321.87 4.6023 -3.34928 0
M  V30 14355 N 1323.07 5.54898 -1.70496 0
M  V30 14356 H 1325.84 1.56827 -2.55393 0
M  V30 14357 H 1323.4 0.71976 -1.45021 0
M  V30 14358 H 1325.39 3.80702 -1.37288 0
M  V30 14359 H 1323.96 3.06548 -0.612158 0
M  V30 14360 H 1323.18 2.51438 -3.03599 0
M  V30 14361 H 1324.47 3.59163 -3.60388 0
M  V30 14362 H 1323.87 5.54968 -1.0967 0
M  V30 14363 H 1322.42 6.3087 -1.63847 0
M  V30 14364 N 1325.86 1.36875 0.78122 0
M  V30 14365 C 1326.77 1.3404 1.92537 0
M  V30 14366 C 1327.78 0.241354 1.72318 0
M  V30 14367 O 1328.96 0.475128 1.95715 0
M  V30 14368 C 1326.02 1.13708 3.27523 0
M  V30 14369 C 1325.08 2.33165 3.60462 0
M  V30 14370 C 1324.32 2.13793 4.89007 0
M  V30 14371 O 1324.54 1.11732 5.5935 0
M  V30 14372 O 1323.47 3.01762 5.20791 0
M  V30 14373 H 1327.3 2.30386 1.97879 0
M  V30 14374 H 1324.88 1.17506 0.922637 0
M  V30 14375 H 1326.77 1.0432 4.08283 0
M  V30 14376 H 1325.44 0.204306 3.23055 0
M  V30 14377 H 1324.35 2.48123 2.79974 0
M  V30 14378 H 1325.68 3.24977 3.69663 0
M  V30 14379 N 1327.33 -1.00632 1.21289 0
M  V30 14380 C 1328.3 -2.07543 0.972548 0
M  V30 14381 C 1329.3 -1.60703 -0.0559244 0
M  V30 14382 O 1330.49 -1.73255 0.181213 0
M  V30 14383 C 1327.62 -3.37696 0.466297 0
M  V30 14384 H 1328.81 -2.30298 1.92101 0
M  V30 14385 H 1326.36 -1.17588 1.02969 0
M  V30 14386 H 1327.1 -3.2062 -0.487148 0
M  V30 14387 H 1326.88 -3.73024 1.20813 0
M  V30 14388 H 1328.37 -4.16388 0.317962 0
M  V30 14389 N 1328.81 -1.02043 -1.20104 0
M  V30 14390 C 1330.06 -0.710566 -1.89197 0
M  V30 14391 C 1330.38 0.762471 -1.79475 0
M  V30 14392 O 1329.65 1.54871 -1.19965 0
M  V30 14393 H 1328.23 -0.259839 -0.700352 0
M  V30 14394 H 1330.89 -1.29285 -1.45848 0
M  V30 14395 H 1329.99 -0.997363 -2.95735 0
M  V30 14396 N 1330.29 1.35952 -0.797165 0
M  V30 14397 C 1331.54 1.98639 -0.372405 0
M  V30 14398 C 1331.86 1.63571 1.06158 0
M  V30 14399 O 1331.13 0.913516 1.73297 0
M  V30 14400 H 1329.71 0.734753 -0.13471 0
M  V30 14401 H 1332.37 1.66022 -1.02092 0
M  V30 14402 H 1331.47 3.08533 -0.47049 0
M  V30 14403 N 1331.77 0.549846 1.47697 0
M  V30 14404 C 1333.02 0.0230048 2.02087 0
M  V30 14405 C 1333.34 -1.32865 1.4273 0
M  V30 14406 O 1332.61 -1.86492 0.59981 0
M  V30 14407 H 1331.19 0.00551514 0.74698 0
M  V30 14408 H 1333.85 0.718185 1.81185 0
M  V30 14409 H 1332.95 -0.0705813 3.1202 0
M  V30 14410 N 1333.25 -1.54984 0.285932 0
M  V30 14411 C 1334.16 -2.26621 -0.606648 0
M  V30 14412 C 1335.17 -1.29595 -1.16108 0
M  V30 14413 O 1336.35 -1.62551 -1.18908 0
M  V30 14414 C 1333.41 -2.98156 -1.76929 0
M  V30 14415 C 1332.47 -4.10685 -1.25045 0
M  V30 14416 C 1331.71 -4.788 -2.35768 0
M  V30 14417 O 1331.93 -4.46183 -3.55354 0
M  V30 14418 O 1330.86 -5.66523 -2.03312 0
M  V30 14419 H 1334.69 -3.03689 -0.0259981 0
M  V30 14420 H 1332.28 -1.49306 0.0529355 0
M  V30 14421 H 1334.16 -3.43076 -2.44697 0
M  V30 14422 H 1332.83 -2.23996 -2.33683 0
M  V30 14423 H 1331.74 -3.70198 -0.538919 0
M  V30 14424 H 1333.07 -4.86778 -0.728528 0
M  V30 14425 N 1334.72 -0.0133892 -1.57594 0
M  V30 14426 C 1335.69 0.958601 -2.08191 0
M  V30 14427 C 1336.69 1.26408 -0.993865 0
M  V30 14428 O 1337.88 1.20703 -1.25604 0
M  V30 14429 C 1335.01 2.27971 -2.5346 0
M  V30 14430 H 1336.2 0.520686 -2.95345 0
M  V30 14431 H 1333.76 0.234351 -1.54533 0
M  V30 14432 H 1334.49 2.76424 -1.69588 0
M  V30 14433 H 1334.28 2.07116 -3.32935 0
M  V30 14434 H 1335.77 2.97672 -2.92884 0
M  V30 14435 N 1336.2 1.55448 0.259558 0
M  V30 14436 C 1337.45 1.76948 0.990816 0
M  V30 14437 C 1337.78 0.576401 1.85449 0
M  V30 14438 O 1337.06 -0.425693 1.89784 0
M  V30 14439 C 1337.34 3.08221 1.86204 0
M  V30 14440 C 1337.19 4.37909 1.0274 0
M  V30 14441 C 1338.51 3.35627 2.84679 0
M  V30 14442 H 1335.63 0.64377 0.358788 0
M  V30 14443 H 1338.27 1.88182 0.262211 0
M  V30 14444 H 1336.42 2.98775 2.48326 0
M  V30 14445 H 1338.09 4.5933 0.425855 0
M  V30 14446 H 1336.34 4.32533 0.331308 0
M  V30 14447 H 1337.01 5.26116 1.6705 0
M  V30 14448 H 1339.48 3.44954 2.32693 0
M  V30 14449 H 1338.36 4.28719 3.42769 0
M  V30 14450 H 1338.62 2.55921 3.60496 0
M  V30 14451 N 1337.68 -0.524672 1.4861 0
M  V30 14452 C 1338.93 -1.28211 1.5713 0
M  V30 14453 C 1339.26 -1.92626 0.246751 0
M  V30 14454 O 1338.53 -1.79553 -0.747725 0
M  V30 14455 C 1338.82 -2.36737 2.71344 0
M  V30 14456 C 1338.67 -1.76978 4.1352 0
M  V30 14457 C 1339.99 -3.3847 2.81294 0
M  V30 14458 H 1337.11 -0.46479 0.571961 0
M  V30 14459 H 1339.75 -0.583937 1.80804 0
M  V30 14460 H 1337.9 -2.96287 2.51289 0
M  V30 14461 H 1339.57 -1.21438 4.45029 0
M  V30 14462 H 1337.82 -1.07488 4.20272 0
M  V30 14463 H 1338.49 -2.55583 4.89266 0
M  V30 14464 H 1340.96 -2.88882 2.99477 0
M  V30 14465 H 1339.84 -4.11795 3.62928 0
M  V30 14466 H 1340.1 -3.99347 1.89669 0
M  V30 14467 N 1339.16 -1.37287 -0.77395 0
M  V30 14468 C 1340.39 -1.35563 -1.56302 0
M  V30 14469 C 1340.8 0.0595356 -1.88706 0
M  V30 14470 O 1340.16 1.02072 -1.51286 0
M  V30 14471 C 1340.21 -2.19195 -2.87464 0
M  V30 14472 O 1339.93 -3.55197 -2.5645 0
M  V30 14473 C 1341.43 -2.25425 -3.81704 0
M  V30 14474 H 1338.65 -0.464431 -0.484298 0
M  V30 14475 H 1341.2 -1.80597 -0.959425 0
M  V30 14476 H 1339.35 -1.77676 -3.44253 0
M  V30 14477 H 1339.76 -3.99011 -3.40427 0
M  V30 14478 H 1341.24 -2.8827 -4.70749 0
M  V30 14479 H 1341.72 -1.26205 -4.20677 0
M  V30 14480 H 1342.32 -2.67247 -3.30846 0
M  V30 14481 N 1340.64 0.999871 -1.21821 0
M  V30 14482 C 1341.88 1.7384 -1.03855 0
M  V30 14483 C 1342.21 1.89749 0.42727 0
M  V30 14484 O 1341.47 1.43261 1.33323 0
M  V30 14485 C 1341.77 3.1509 -1.6868 0
M  V30 14486 C 1341.43 3.19115 -3.18554 0
M  V30 14487 C 1340.09 3.19921 -3.5945 0
M  V30 14488 C 1342.45 3.15954 -4.14515 0
M  V30 14489 C 1339.77 3.15257 -4.94803 0
M  V30 14490 C 1342.13 3.12831 -5.49836 0
M  V30 14491 C 1340.79 3.11949 -5.90122 0
M  V30 14492 H 1340.06 0.636126 -0.380032 0
M  V30 14493 H 1342.71 1.17151 -1.51485 0
M  V30 14494 H 1341.01 3.75044 -1.13356 0
M  V30 14495 H 1342.71 3.70962 -1.52277 0
M  V30 14496 H 1339.3 3.19234 -2.85986 0
M  V30 14497 H 1343.48 3.14487 -3.83942 0
M  V30 14498 H 1338.74 3.12915 -5.25256 0
M  V30 14499 H 1342.91 3.09339 -6.23925 0
M  V30 14500 H 1340.54 3.0809 -6.94971 0
M  V30 14501 N 1342.11 1.02678 1.19562 0
M  V30 14502 C 1343.02 0.615738 2.26375 0
M  V30 14503 C 1344.04 -0.351525 1.70412 0
M  V30 14504 O 1345.22 -0.209932 2.00303 0
M  V30 14505 C 1342.28 -0.0292135 3.46688 0
M  V30 14506 C 1341.34 0.985284 4.1784 0
M  V30 14507 C 1340.58 0.371016 5.32409 0
M  V30 14508 O 1340.8 -0.826591 5.64379 0
M  V30 14509 O 1339.73 1.09282 5.91896 0
M  V30 14510 H 1343.56 1.50526 2.63772 0
M  V30 14511 H 1341.14 0.796847 1.26375 0
M  V30 14512 H 1343.03 -0.38893 4.19601 0
M  V30 14513 H 1341.7 -0.892778 3.11145 0
M  V30 14514 H 1340.61 1.39655 3.47055 0
M  V30 14515 H 1341.94 1.81915 4.57349 0
M  V30 14516 N 1343.59 -1.35528 0.804364 0
M  V30 14517 C 1344.87 -1.93175 0.307049 0
M  V30 14518 C 1345.25 -1.73466 -1.20303 0
M  V30 14519 O 1344.6 -1.10235 -2.00151 0
M  V30 14520 C 1344.81 -3.41576 0.716018 0
M  V30 14521 C 1346.16 -4.18719 0.704242 0
M  V30 14522 O 1347.18 -3.50081 0.657423 0
M  V30 14523 O 1346.04 -5.41181 0.760601 0
M  V30 14524 H 1343.13 -0.823142 0.0797888 0
M  V30 14525 H 1345.68 -1.44617 0.887912 0
M  V30 14526 H 1344.45 -3.49642 1.75688 0
M  V30 14527 H 1344.07 -3.97448 0.109843 0
M  V30 14528 N 1345.07 -0.557671 -1.47404 0
M  V30 14529 C 1346.49 -0.217473 -1.58111 0
M  V30 14530 C 1346.69 1.28 -1.55622 0
M  V30 14531 O 1345.74 2.06019 -1.45988 0
M  V30 14532 C 1347.06 -0.844535 -2.88597 0
M  V30 14533 C 1348.6 -0.815807 -3.02181 0
M  V30 14534 C 1349.08 -1.42195 -4.35367 0
M  V30 14535 N 1350.57 -1.38515 -4.42004 0
M  V30 14536 C 1351.31 -1.82378 -5.43623 0
M  V30 14537 N 1350.8 -2.34098 -6.52051 0
M  V30 14538 N 1352.59 -1.73446 -5.34671 0
M  V30 14539 H 1344.75 -1.53058 -1.47265 0
M  V30 14540 H 1347.01 -0.638305 -0.700907 0
M  V30 14541 H 1346.71 -1.89696 -2.96156 0
M  V30 14542 H 1346.59 -0.337844 -3.75684 0
M  V30 14543 H 1348.98 0.227925 -2.94218 0
M  V30 14544 H 1349.06 -1.36026 -2.16635 0
M  V30 14545 H 1348.7 -2.46475 -4.44086 0
M  V30 14546 H 1348.63 -0.852932 -5.19647 0
M  V30 14547 H 1351.12 -1.00684 -3.64241 0
M  V30 14548 H 1351.43 -2.6549 -7.25765 0
M  V30 14549 H 1349.78 -2.38109 -6.52939 0
M  V30 14550 H 1352.97 -1.32816 -4.48862 0
M  V30 14551 H 1353.14 -2.07947 -6.13728 0
M  V30 14552 N 1346.55 1.54831 -0.294147 0
M  V30 14553 C 1347.51 2.21946 0.572061 0
M  V30 14554 C 1348.51 1.20331 1.06663 0
M  V30 14555 O 1349.7 1.45112 0.963757 0
M  V30 14556 C 1346.83 2.90044 1.7913 0
M  V30 14557 H 1348.03 2.99897 -0.0142234 0
M  V30 14558 H 1345.58 1.56235 -0.0449187 0
M  V30 14559 H 1346.32 2.16154 2.4176 0
M  V30 14560 H 1346.1 3.64527 1.44439 0
M  V30 14561 H 1347.59 3.41263 2.40684 0
M  V30 14562 N 1348.03 0.0217466 1.57585 0
M  V30 14563 C 1349.44 -0.334576 1.56054 0
M  V30 14564 C 1349.64 -1.73386 1.02663 0
M  V30 14565 O 1348.7 -2.43447 0.670078 0
M  V30 14566 C 1350.01 -0.189919 3.001 0
M  V30 14567 C 1351.56 -0.263238 3.11891 0
M  V30 14568 C 1352.04 -0.147455 4.57763 0
M  V30 14569 N 1353.53 -0.204672 4.62748 0
M  V30 14570 C 1354.26 -0.138755 5.73232 0
M  V30 14571 N 1353.76 -0.0221762 6.92796 0
M  V30 14572 N 1355.55 -0.192206 5.61771 0
M  V30 14573 H 1347.7 0.936849 1.90622 0
M  V30 14574 H 1349.96 0.361119 0.876526 0
M  V30 14575 H 1349.67 0.773687 3.43084 0
M  V30 14576 H 1349.54 -0.963148 3.64696 0
M  V30 14577 H 1351.93 -1.2173 2.68823 0
M  V30 14578 H 1352.01 0.540241 2.5003 0
M  V30 14579 H 1351.66 0.803155 5.0151 0
M  V30 14580 H 1351.59 -0.969703 5.17595 0
M  V30 14581 H 1354.08 -0.29522 3.76745 0
M  V30 14582 H 1354.39 0.021631 7.72797 0
M  V30 14583 H 1352.74 0.0125033 6.94999 0
M  V30 14584 H 1355.93 -0.28163 4.67252 0
M  V30 14585 H 1356.1 -0.137372 6.47854 0
M  V30 14586 N 1349.51 -1.55583 -0.251311 0
M  V30 14587 C 1350.46 -1.86337 -1.31387 0
M  V30 14588 C 1351.44 -0.723887 -1.43697 0
M  V30 14589 O 1352.63 -0.985717 -1.47012 0
M  V30 14590 C 1349.76 -2.15772 -2.67016 0
M  V30 14591 C 1348.85 -3.36036 -2.58729 0
M  V30 14592 N 1349.24 -4.55414 -2.20071 0
M  V30 14593 C 1347.54 -3.39058 -2.89751 0
M  V30 14594 C 1348.24 -5.37544 -2.22309 0
M  V30 14595 N 1347.21 -4.76494 -2.61638 0
M  V30 14596 H 1351.01 -2.76168 -1.00541 0
M  V30 14597 H 1348.53 -1.55751 -0.459941 0
M  V30 14598 H 1350.53 -2.35967 -3.43693 0
M  V30 14599 H 1349.19 -1.27237 -2.98732 0
M  V30 14600 H 1350.2 -4.8112 -1.91688 0
M  V30 14601 H 1346.87 -2.60781 -3.26036 0
M  V30 14602 H 1348.26 -6.43042 -1.94798 0
M  V30 14603 N 1350.98 0.516783 -1.48886 0
M  V30 14604 C 1352.4 0.84654 -1.35299 0
M  V30 14605 C 1352.6 1.97998 -0.374035 0
M  V30 14606 O 1351.66 2.51707 0.200003 0
M  V30 14607 C 1352.97 1.20162 -2.75648 0
M  V30 14608 C 1354.52 1.31074 -2.84233 0
M  V30 14609 C 1354.99 1.69919 -4.25313 0
M  V30 14610 N 1356.48 1.76998 -4.28049 0
M  V30 14611 C 1357.22 2.08466 -5.34162 0
M  V30 14612 N 1356.71 2.38268 -6.50538 0
M  V30 14613 N 1358.51 2.09584 -5.21566 0
M  V30 14614 H 1350.66 -0.230871 -2.11142 0
M  V30 14615 H 1352.92 -0.0406678 -0.947127 0
M  V30 14616 H 1352.63 0.442278 -3.48908 0
M  V30 14617 H 1352.5 2.14875 -3.10014 0
M  V30 14618 H 1354.89 2.06083 -2.1122 0
M  V30 14619 H 1354.97 0.344506 -2.5347 0
M  V30 14620 H 1354.61 0.954667 -4.98847 0
M  V30 14621 H 1354.54 2.67616 -4.5353 0
M  V30 14622 H 1357.03 1.56191 -3.44112 0
M  V30 14623 H 1357.35 2.61423 -7.2724 0
M  V30 14624 H 1355.69 2.35758 -6.53791 0
M  V30 14625 H 1358.88 1.85768 -4.2966 0
M  V30 14626 H 1359.06 2.33776 -6.04362 0
M  V30 14627 N 1352.46 1.37696 0.766659 0
M  V30 14628 C 1353.39 1.2975 1.88938 0
M  V30 14629 C 1354.41 0.212278 1.6141 0
M  V30 14630 O 1355.6 0.468825 1.72233 0
M  V30 14631 C 1352.7 0.984553 3.24283 0
M  V30 14632 C 1351.87 2.17625 3.79418 0
M  V30 14633 C 1350.93 1.83279 4.9325 0
M  V30 14634 O 1349.95 2.55631 5.08568 0
M  V30 14635 N 1351.16 0.779941 5.75237 0
M  V30 14636 H 1353.92 2.26492 1.96269 0
M  V30 14637 H 1351.48 1.31387 0.946001 0
M  V30 14638 H 1353.47 0.735536 3.9796 0
M  V30 14639 H 1352.04 0.105527 3.12422 0
M  V30 14640 H 1351.26 2.58672 2.9746 0
M  V30 14641 H 1352.55 2.97187 4.12986 0
M  V30 14642 H 1351.95 0.179661 5.65415 0
M  V30 14643 H 1350.51 0.59079 6.49117 0
M  V30 14644 N 1353.94 -0.993397 1.22349 0
M  V30 14645 C 1355.16 -1.77373 1.07488 0
M  V30 14646 C 1355.59 -1.84418 -0.37034 0
M  V30 14647 O 1354.95 -1.29629 -1.26752 0
M  V30 14648 C 1355 -3.18538 1.69014 0
M  V30 14649 O 1354.1 -4.01463 0.943474 0
M  V30 14650 H 1353.44 -0.546209 0.37756 0
M  V30 14651 H 1355.97 -1.24792 1.62136 0
M  V30 14652 H 1355.98 -3.6917 1.73717 0
M  V30 14653 H 1354.66 -3.12725 2.74182 0
M  V30 14654 H 1353.23 -3.59998 0.972415 0
M  V30 14655 N 1355.42 -1.03311 -1.19015 0
M  V30 14656 C 1356.35 -0.575655 -2.21853 0
M  V30 14657 C 1357.36 0.350705 -1.58978 0
M  V30 14658 O 1358.55 0.146425 -1.77898 0
M  V30 14659 C 1355.65 0.179949 -3.38422 0
M  V30 14660 C 1354.82 -0.752403 -4.3088 0
M  V30 14661 C 1353.88 -0.0414484 -5.26184 0
M  V30 14662 O 1352.91 -0.669403 -5.6525 0
M  V30 14663 N 1354.11 1.22783 -5.67366 0
M  V30 14664 H 1356.88 -1.46013 -2.61726 0
M  V30 14665 H 1354.44 -0.912655 -1.33724 0
M  V30 14666 H 1356.43 0.66522 -3.99195 0
M  V30 14667 H 1355 0.965879 -2.97304 0
M  V30 14668 H 1354.22 -1.41768 -3.67825 0
M  V30 14669 H 1355.51 -1.38592 -4.89561 0
M  V30 14670 H 1354.91 1.75867 -5.37668 0
M  V30 14671 H 1353.46 1.65752 -6.30372 0
M  V30 14672 N 1356.9 1.35099 -0.81154 0
M  V30 14673 C 1358.31 1.51701 -0.495883 0
M  V30 14674 C 1358.51 1.7595 0.982035 0
M  V30 14675 O 1357.57 1.8038 1.7669 0
M  V30 14676 C 1358.88 2.68916 -1.34554 0
M  V30 14677 C 1360.43 2.82795 -1.34149 0
M  V30 14678 C 1360.9 4.0304 -2.17538 0
M  V30 14679 N 1362.39 4.10227 -2.151 0
M  V30 14680 C 1363.13 5.02397 -2.76377 0
M  V30 14681 N 1362.63 5.99866 -3.46601 0
M  V30 14682 N 1364.42 4.95181 -2.65992 0
M  V30 14683 H 1356.57 1.17617 -1.76862 0
M  V30 14684 H 1358.83 0.575875 -0.753042 0
M  V30 14685 H 1358.54 2.57591 -2.39458 0
M  V30 14686 H 1358.41 3.63641 -1.00223 0
M  V30 14687 H 1360.8 2.93568 -0.300285 0
M  V30 14688 H 1360.88 1.88912 -1.7247 0
M  V30 14689 H 1360.52 3.93027 -3.21702 0
M  V30 14690 H 1360.45 4.96114 -1.76574 0
M  V30 14691 H 1362.95 3.40454 -1.6401 0
M  V30 14692 H 1363.26 6.66803 -3.90632 0
M  V30 14693 H 1361.6 6.00025 -3.50706 0
M  V30 14694 H 1364.79 4.17991 -2.10715 0
M  V30 14695 H 1364.97 5.6682 -3.14036 0
M  V30 14696 N 1358.37 0.56548 1.47106 0
M  V30 14697 C 1359.79 0.225855 1.57994 0
M  V30 14698 C 1359.99 -1.27173 1.56299 0
M  V30 14699 O 1359.05 -2.05242 1.47078 0
M  V30 14700 C 1360.36 0.859829 2.88145 0
M  V30 14701 C 1361.91 0.831821 3.01744 0
M  V30 14702 C 1362.38 1.44502 4.34607 0
M  V30 14703 N 1363.87 1.40857 4.41263 0
M  V30 14704 C 1364.61 1.85258 5.42648 0
M  V30 14705 N 1364.1 2.37553 6.508 0
M  V30 14706 N 1365.9 1.76279 5.33744 0
M  V30 14707 H 1358.05 1.53837 1.46451 0
M  V30 14708 H 1360.31 0.642013 0.697512 0
M  V30 14709 H 1360.02 1.91264 2.95146 0
M  V30 14710 H 1359.89 0.357762 3.755 0
M  V30 14711 H 1362.28 -0.212319 2.94335 0
M  V30 14712 H 1362.36 1.37173 2.1591 0
M  V30 14713 H 1362 2.48827 4.42773 0
M  V30 14714 H 1361.93 0.880479 5.19187 0
M  V30 14715 H 1364.42 1.02614 3.63702 0
M  V30 14716 H 1364.74 2.69335 7.24347 0
M  V30 14717 H 1363.08 2.41569 6.51667 0
M  V30 14718 H 1366.27 1.35195 4.48152 0
M  V30 14719 H 1366.45 2.11199 6.12616 0
M  V30 14720 N 1359.85 -1.54672 0.302354 0
M  V30 14721 C 1361.08 -2.05041 -0.311891 0
M  V30 14722 C 1361.5 -1.17814 -1.46634 0
M  V30 14723 O 1360.86 -0.182517 -1.80379 0
M  V30 14724 C 1360.91 -3.52831 -0.744489 0
M  V30 14725 O 1360.01 -3.68621 -1.84913 0
M  V30 14726 H 1359.35 -0.661255 -0.0603102 0
M  V30 14727 H 1361.88 -1.99711 0.444593 0
M  V30 14728 H 1361.89 -3.94708 -1.03293 0
M  V30 14729 H 1360.57 -4.1578 0.0999976 0
M  V30 14730 H 1359.15 -3.38649 -1.56113 0
M  V30 14731 N 1361.33 -0.0301034 -1.57571 0
M  V30 14732 C 1362.75 0.326296 -1.56229 0
M  V30 14733 C 1362.95 1.72839 -1.03581 0
M  V30 14734 O 1362 2.43088 -0.682979 0
M  V30 14735 C 1363.32 0.174001 -3.00196 0
M  V30 14736 C 1364.86 0.246694 -3.12026 0
M  V30 14737 C 1365.34 0.123177 -4.57834 0
M  V30 14738 N 1366.83 0.180129 -4.6285 0
M  V30 14739 C 1367.56 0.108353 -5.73298 0
M  V30 14740 N 1367.06 -0.0145648 -6.92798 0
M  V30 14741 N 1368.85 0.162411 -5.61865 0
M  V30 14742 H 1361 -0.946945 -1.90123 0
M  V30 14743 H 1363.27 -0.365762 -0.874598 0
M  V30 14744 H 1362.97 -0.791871 -3.42669 0
M  V30 14745 H 1362.85 0.943794 -3.65202 0
M  V30 14746 H 1365.23 1.20303 -2.69465 0
M  V30 14747 H 1365.32 -0.553493 -2.4974 0
M  V30 14748 H 1364.96 -0.82974 -5.01077 0
M  V30 14749 H 1364.89 0.94224 -5.18102 0
M  V30 14750 H 1367.38 0.275236 -3.76896 0
M  V30 14751 H 1367.69 -0.062614 -7.72775 0
M  V30 14752 H 1366.04 -0.0493606 -6.94982 0
M  V30 14753 H 1369.23 0.256847 -4.67395 0
M  V30 14754 H 1369.4 0.103013 -6.47918 0
M  V30 14755 N 1362.81 1.55714 0.243056 0
M  V30 14756 C 1363.76 1.87031 1.30397 0
M  V30 14757 C 1364.74 0.731497 1.43311 0
M  V30 14758 O 1365.93 0.9935 1.46487 0
M  V30 14759 C 1363.06 2.17185 2.65868 0
M  V30 14760 C 1362.15 3.37403 2.56944 0
M  V30 14761 N 1362.54 4.56575 2.17653 0
M  V30 14762 C 1360.84 3.4059 2.87949 0
M  V30 14763 C 1361.54 5.38715 2.19455 0
M  V30 14764 N 1360.52 4.77875 2.59108 0
M  V30 14765 H 1364.32 2.76697 0.990755 0
M  V30 14766 H 1361.83 1.55992 0.451675 0
M  V30 14767 H 1363.83 2.37787 3.42437 0
M  V30 14768 H 1362.49 1.28819 2.98053 0
M  V30 14769 H 1363.5 4.82129 1.89134 0
M  V30 14770 H 1360.18 2.62506 3.24648 0
M  V30 14771 H 1361.57 6.44066 1.91385 0
M  V30 14772 N 1364.29 -0.50888 1.49158 0
M  V30 14773 C 1365.7 -0.839353 1.35746 0
M  V30 14774 C 1365.9 -1.97797 0.38453 0
M  V30 14775 O 1364.96 -2.51809 -0.186651 0
M  V30 14776 C 1366.27 -1.18698 2.76281 0
M  V30 14777 C 1367.82 -1.29565 2.84924 0
M  V30 14778 C 1368.29 -1.67661 4.26209 0
M  V30 14779 N 1369.79 -1.74725 4.28982 0
M  V30 14780 C 1370.52 -2.05631 5.3526 0
M  V30 14781 N 1370.02 -2.34814 6.51793 0
M  V30 14782 N 1371.81 -2.06815 5.2267 0
M  V30 14783 H 1363.96 0.242065 2.11016 0
M  V30 14784 H 1366.22 0.0456901 0.946898 0
M  V30 14785 H 1365.93 -0.423769 3.49138 0
M  V30 14786 H 1365.8 -2.13227 3.11149 0
M  V30 14787 H 1368.19 -2.0496 2.1231 0
M  V30 14788 H 1368.27 -0.331059 2.53649 0
M  V30 14789 H 1367.92 -0.928198 4.99346 0
M  V30 14790 H 1367.85 -2.65207 4.54943 0
M  V30 14791 H 1370.34 -1.54364 3.44935 0
M  V30 14792 H 1370.65 -2.57562 7.28616 0
M  V30 14793 H 1368.99 -2.32288 6.55032 0
M  V30 14794 H 1372.19 -1.83487 4.30639 0
M  V30 14795 H 1372.36 -2.30568 6.05593 0
M  V30 14796 N 1365.76 -1.381 -0.759346 0
M  V30 14797 C 1367.18 -1.19171 -1.06162 0
M  V30 14798 C 1367.38 -0.0364043 -2.01467 0
M  V30 14799 O 1366.44 0.619635 -2.44779 0
M  V30 14800 C 1367.75 -2.51569 -1.64723 0
M  V30 14801 C 1369.3 -2.58201 -1.76921 0
M  V30 14802 C 1369.77 -3.9076 -2.38894 0
M  V30 14803 N 1371.26 -3.92269 -2.46331 0
M  V30 14804 C 1372 -4.91595 -2.95164 0
M  V30 14805 N 1371.49 -6.01318 -3.44075 0
M  V30 14806 N 1373.29 -4.7899 -2.94152 0
M  V30 14807 H 1365.44 -2.12021 -0.126788 0
M  V30 14808 H 1367.7 -0.940517 -0.118877 0
M  V30 14809 H 1367.41 -3.36535 -1.02162 0
M  V30 14810 H 1367.28 -2.69551 -2.6386 0
M  V30 14811 H 1369.67 -1.73634 -2.38611 0
M  V30 14812 H 1369.75 -2.44092 -0.765047 0
M  V30 14813 H 1369.39 -4.75747 -1.7784 0
M  V30 14814 H 1369.32 -4.02179 -3.39941 0
M  V30 14815 H 1371.81 -3.13015 -2.11731 0
M  V30 14816 H 1372.13 -6.73046 -3.79776 0
M  V30 14817 H 1370.47 -6.04946 -3.42148 0
M  V30 14818 H 1373.66 -3.92385 -2.55248 0
M  V30 14819 H 1373.84 -5.5655 -3.31897 0
M  V30 14820 N 1367.24 0.986894 -1.22875 0
M  V30 14821 C 1368.49 1.72985 -1.05849 0
M  V30 14822 C 1368.82 1.89939 0.404594 0
M  V30 14823 O 1368.1 1.44693 1.29978 0
M  V30 14824 C 1368.38 3.13193 -1.77714 0
M  V30 14825 C 1368.23 3.0385 -3.31655 0
M  V30 14826 C 1369.55 4.12486 -1.53438 0
M  V30 14827 H 1366.67 0.627877 -0.385926 0
M  V30 14828 H 1369.31 1.14936 -1.51294 0
M  V30 14829 H 1367.46 3.62751 -1.39083 0
M  V30 14830 H 1369.13 2.61866 -3.79768 0
M  V30 14831 H 1367.38 2.4051 -3.61023 0
M  V30 14832 H 1368.05 4.03092 -3.77122 0
M  V30 14833 H 1370.52 3.71709 -1.87007 0
M  V30 14834 H 1369.4 5.08694 -2.06207 0
M  V30 14835 H 1369.66 4.39613 -0.468294 0
M  V30 14836 N 1368.72 1.0394 1.18466 0
M  V30 14837 C 1370.14 0.758404 1.40429 0
M  V30 14838 C 1370.34 -0.652603 1.90639 0
M  V30 14839 O 1369.39 -1.417 2.08991 0
M  V30 14840 C 1370.71 1.80343 2.40618 0
M  V30 14841 C 1372.25 1.82419 2.54347 0
M  V30 14842 C 1372.73 2.8591 3.57798 0
M  V30 14843 N 1374.22 2.84793 3.65304 0
M  V30 14844 C 1374.95 3.61521 4.45073 0
M  V30 14845 N 1374.45 4.47997 5.28461 0
M  V30 14846 N 1376.24 3.50016 4.39824 0
M  V30 14847 H 1368.39 1.94998 0.842 0
M  V30 14848 H 1370.66 0.843649 0.43239 0
M  V30 14849 H 1370.36 2.81547 2.10771 0
M  V30 14850 H 1370.24 1.63451 3.39947 0
M  V30 14851 H 1372.62 0.818872 2.83511 0
M  V30 14852 H 1372.71 2.03388 1.55136 0
M  V30 14853 H 1372.35 3.8662 3.29375 0
M  V30 14854 H 1372.28 2.62196 4.56684 0
M  V30 14855 H 1374.77 2.22082 3.05758 0
M  V30 14856 H 1375.08 5.03257 5.86475 0
M  V30 14857 H 1373.43 4.52065 5.27885 0
M  V30 14858 H 1376.62 2.81862 3.73726 0
M  V30 14859 H 1376.79 4.10063 5.0175 0
M  V30 14860 N 1370.2 -1.34667 0.818693 0
M  V30 14861 C 1371.43 -2.02642 0.417608 0
M  V30 14862 C 1371.84 -1.61667 -0.97516 0
M  V30 14863 O 1371.2 -0.820056 -1.63038 0
M  V30 14864 C 1371.25 -3.57951 0.505295 0
M  V30 14865 O 1370.97 -3.97441 1.84317 0
M  V30 14866 C 1372.47 -4.4319 0.0985667 0
M  V30 14867 H 1369.69 -0.6496 0.168111 0
M  V30 14868 H 1372.24 -1.72032 1.10568 0
M  V30 14869 H 1370.39 -3.87166 -0.134646 0
M  V30 14870 H 1370.8 -4.92116 1.81444 0
M  V30 14871 H 1372.28 -5.51597 0.211015 0
M  V30 14872 H 1372.76 -4.28637 -0.95745 0
M  V30 14873 H 1373.36 -4.19295 0.71214 0
M  V30 14874 N 1371.68 -0.573274 -1.46804 0
M  V30 14875 C 1372.59 0.168081 -2.33997 0
M  V30 14876 C 1373.6 0.895652 -1.49178 0
M  V30 14877 O 1374.78 0.860951 -1.8207 0
M  V30 14878 C 1371.84 1.17483 -3.26188 0
M  V30 14879 C 1370.9 0.452956 -4.26904 0
M  V30 14880 C 1370.14 1.41175 -5.1469 0
M  V30 14881 O 1370.36 2.64767 -5.05227 0
M  V30 14882 O 1369.29 0.927472 -5.94711 0
M  V30 14883 H 1373.12 -0.547576 -2.98723 0
M  V30 14884 H 1370.71 -0.333747 -1.45624 0
M  V30 14885 H 1372.59 1.75557 -3.8309 0
M  V30 14886 H 1371.26 1.87213 -2.6407 0
M  V30 14887 H 1370.17 -0.169383 -3.73716 0
M  V30 14888 H 1371.5 -0.203186 -4.9178 0
M  V30 14889 N 1373.15 1.5451 -0.310553 0
M  V30 14890 C 1374.4 1.99931 0.29532 0
M  V30 14891 C 1374.72 1.20042 1.53672 0
M  V30 14892 O 1373.99 0.298841 1.93607 0
M  V30 14893 H 1372.57 0.738539 0.112111 0
M  V30 14894 H 1375.24 1.9023 -0.424092 0
M  V30 14895 H 1374.33 3.07021 0.560749 0
M  V30 14896 N 1374.63 0.0384594 1.57553 0
M  V30 14897 C 1375.58 -0.940256 2.10779 0
M  V30 14898 C 1376.55 -1.31705 1.01208 0
M  V30 14899 O 1377.74 -1.40874 1.28683 0
M  V30 14900 C 1374.88 -2.21419 2.64703 0
M  V30 14901 C 1373.99 -1.89302 3.88315 0
M  V30 14902 C 1373.12 -3.1106 4.30599 0
M  V30 14903 C 1372.16 -2.74805 5.46945 0
M  V30 14904 N 1371.3 -3.89217 5.84341 0
M  V30 14905 H 1376.14 -0.479458 2.94118 0
M  V30 14906 H 1373.68 -0.22505 1.45368 0
M  V30 14907 H 1375.63 -2.95946 2.94061 0
M  V30 14908 H 1374.26 -2.65099 1.84181 0
M  V30 14909 H 1373.32 -1.04977 3.65628 0
M  V30 14910 H 1374.63 -1.58607 4.72912 0
M  V30 14911 H 1373.78 -3.93898 4.61442 0
M  V30 14912 H 1372.52 -3.44924 3.44788 0
M  V30 14913 H 1371.53 -1.9038 5.15786 0
M  V30 14914 H 1372.75 -2.42147 6.34462 0
M  V30 14915 H 1370.7 -4.22905 5.01485 0
M  V30 14916 H 1370.61 -3.62177 6.63599 0
M  V30 14917 H 1371.88 -4.72732 6.19794 0
M  V30 14918 N 1376.11 -1.55841 -0.234795 0
M  V30 14919 C 1377.02 -1.94476 -1.31211 0
M  V30 14920 C 1378.04 -0.846782 -1.52005 0
M  V30 14921 O 1379.21 -1.14922 -1.65393 0
M  V30 14922 C 1376.28 -2.24213 -2.64442 0
M  V30 14923 C 1375.34 -3.47508 -2.52065 0
M  V30 14924 C 1374.57 -3.75817 -3.78942 0
M  V30 14925 O 1374.8 -3.06007 -4.81369 0
M  V30 14926 O 1373.73 -4.69328 -3.76848 0
M  V30 14927 H 1377.56 -2.8626 -1.01434 0
M  V30 14928 H 1375.14 -1.42879 -0.436563 0
M  V30 14929 H 1377.02 -2.44594 -3.4315 0
M  V30 14930 H 1375.7 -1.35605 -2.93927 0
M  V30 14931 H 1374.6 -3.32421 -1.71602 0
M  V30 14932 H 1375.94 -4.36457 -2.27523 0
M  V30 14933 N 1377.59 0.500963 -1.49426 0
M  V30 14934 C 1378.81 1.28383 -1.62888 0
M  V30 14935 C 1379.24 1.85688 -0.300262 0
M  V30 14936 O 1378.6 1.6586 0.73212 0
M  V30 14937 C 1378.65 2.38987 -2.70033 0
M  V30 14938 O 1377.75 3.42837 -2.29208 0
M  V30 14939 H 1377.09 0.379012 -0.545202 0
M  V30 14940 H 1379.62 0.59971 -1.95613 0
M  V30 14941 H 1379.63 2.84749 -2.92202 0
M  V30 14942 H 1378.31 1.96643 -3.66475 0
M  V30 14943 H 1376.88 3.02993 -2.1737 0
M  V30 14944 N 1379.07 1.38501 0.752011 0
M  V30 14945 C 1380.29 1.38212 1.54636 0
M  V30 14946 C 1380.72 -0.0256356 1.88083 0
M  V30 14947 O 1380.08 -1.00812 1.50687 0
M  V30 14948 C 1380.12 2.24597 2.82114 0
M  V30 14949 O 1379.23 1.66415 3.77332 0
M  V30 14950 H 1378.57 0.47138 0.46765 0
M  V30 14951 H 1381.1 1.82283 0.929205 0
M  V30 14952 H 1381.11 2.38511 3.31023 0
M  V30 14953 H 1379.78 3.26913 2.57101 0
M  V30 14954 H 1378.36 1.61651 3.36041 0
M  V30 14955 N 1380.55 -0.980364 1.23396 0
M  V30 14956 C 1381.77 -1.76223 1.09363 0
M  V30 14957 C 1382.2 -1.84801 -0.350759 0
M  V30 14958 O 1381.55 -1.30966 -1.2537 0
M  V30 14959 C 1381.6 -3.16728 1.72383 0
M  V30 14960 O 1380.71 -4.00439 0.986002 0
M  V30 14961 H 1380.05 -0.542174 0.383332 0
M  V30 14962 H 1382.58 -1.23066 1.6345 0
M  V30 14963 H 1382.59 -3.67307 1.77623 0
M  V30 14964 H 1381.26 -3.098 2.77483 0
M  V30 14965 H 1379.84 -3.58946 1.01054 0
M  V30 14966 N 1382.02 -1.04567 -1.17913 0
M  V30 14967 C 1382.99 -0.645476 -2.19923 0
M  V30 14968 C 1383.99 0.299763 -1.57981 0
M  V30 14969 O 1385.18 0.0844825 -1.73995 0
M  V30 14970 C 1382.31 0.0528935 -3.40859 0
M  V30 14971 H 1383.5 -1.54828 -2.56843 0
M  V30 14972 H 1381.05 -0.838812 -1.31885 0
M  V30 14973 H 1381.79 0.969261 -3.09477 0
M  V30 14974 H 1381.57 -0.626558 -3.87062 0
M  V30 14975 H 1383.06 0.319221 -4.16378 0
M  V30 14976 N 1383.5 1.34231 -0.825823 0
M  V30 14977 C 1384.73 2.02949 -0.427354 0
M  V30 14978 C 1385.15 1.61772 0.959755 0
M  V30 14979 O 1384.51 0.803799 1.62508 0
M  V30 14980 C 1384.56 3.56522 -0.540799 0
M  V30 14981 O 1383.66 4.10065 0.438213 0
M  V30 14982 H 1383 0.640378 -0.175535 0
M  V30 14983 H 1385.53 1.71416 -1.11704 0
M  V30 14984 H 1385.54 4.05857 -0.41763 0
M  V30 14985 H 1384.22 3.85839 -1.55246 0
M  V30 14986 H 1382.79 3.71894 0.273687 0
M  V30 14987 N 1384.98 0.581051 1.46498 0
M  V30 14988 C 1386.4 0.242599 1.57745 0
M  V30 14989 C 1386.6 -1.25508 1.57639 0
M  V30 14990 O 1385.65 -2.0367 1.49247 0
M  V30 14991 C 1386.96 0.890342 2.87217 0
M  V30 14992 C 1388.51 0.863778 3.00845 0
M  V30 14993 C 1388.99 1.49103 4.3305 0
M  V30 14994 N 1390.48 1.4553 4.39745 0
M  V30 14995 C 1391.21 1.91003 5.40653 0
M  V30 14996 N 1390.71 2.44442 6.48244 0
M  V30 14997 N 1392.5 1.8193 5.31844 0
M  V30 14998 H 1384.65 1.55382 1.44811 0
M  V30 14999 H 1386.92 0.649375 0.690664 0
M  V30 15000 H 1386.62 1.94383 2.93101 0
M  V30 15001 H 1386.5 0.397569 3.75099 0
M  V30 15002 H 1388.88 -0.181089 2.94544 0
M  V30 15003 H 1388.96 1.39455 2.14443 0
M  V30 15004 H 1388.61 2.53509 4.40109 0
M  V30 15005 H 1388.54 0.935496 5.18224 0
M  V30 15006 H 1391.03 1.06466 3.62593 0
M  V30 15007 H 1391.34 2.77002 7.2145 0
M  V30 15008 H 1389.69 2.48467 6.49068 0
M  V30 15009 H 1392.88 1.3994 4.46693 0
M  V30 15010 H 1393.05 2.17685 6.10342 0
M  V30 15011 N 1386.46 -1.54343 0.318742 0
M  V30 15012 C 1387.68 -2.05361 -0.290126 0
M  V30 15013 C 1388.11 -1.19362 -1.45376 0
M  V30 15014 O 1387.47 -0.201639 -1.80175 0
M  V30 15015 C 1387.51 -3.53601 -0.707025 0
M  V30 15016 O 1386.62 -3.70561 -1.80992 0
M  V30 15017 H 1385.96 -0.661858 -0.0532933 0
M  V30 15018 H 1388.49 -1.99228 0.46575 0
M  V30 15019 H 1388.5 -3.95782 -0.991005 0
M  V30 15020 H 1387.17 -4.1565 0.144091 0
M  V30 15021 H 1385.75 -3.40286 -1.52513 0
M  V30 15022 N 1387.94 -0.0468143 -1.5753 0
M  V30 15023 C 1389.35 0.309707 -1.56566 0
M  V30 15024 C 1389.55 1.7173 -1.05408 0
M  V30 15025 O 1388.61 2.4235 -0.708723 0
M  V30 15026 C 1389.92 0.142151 -3.00364 0
M  V30 15027 C 1391.47 0.213585 -3.1227 0
M  V30 15028 C 1391.94 0.0746102 -4.57939 0
M  V30 15029 N 1393.43 0.131027 -4.63015 0
M  V30 15030 C 1394.17 0.0475409 -5.7338 0
M  V30 15031 N 1393.67 -0.0880445 -6.92744 0
M  V30 15032 N 1395.46 0.102809 -5.62006 0
M  V30 15033 H 1387.61 -0.967057 -1.89108 0
M  V30 15034 H 1389.87 -0.375018 -0.870669 0
M  V30 15035 H 1389.58 -0.828171 -3.4181 0
M  V30 15036 H 1389.45 0.905006 -3.66182 0
M  V30 15037 H 1391.84 1.17438 -2.70726 0
M  V30 15038 H 1391.92 -0.57995 -2.49139 0
M  V30 15039 H 1391.56 -0.882839 -5.00168 0
M  V30 15040 H 1391.49 0.887235 -5.19072 0
M  V30 15041 H 1393.99 0.235246 -3.77167 0
M  V30 15042 H 1394.3 -0.144574 -7.72665 0
M  V30 15043 H 1392.64 -0.12307 -6.94891 0
M  V30 15044 H 1395.83 0.207259 -4.67641 0
M  V30 15045 H 1396.01 0.0342865 -6.47991 0
M  V30 15046 N 1389.41 1.55964 0.226527 0
M  V30 15047 C 1390.64 1.83168 0.972846 0
M  V30 15048 C 1391.06 0.626512 1.7736 0
M  V30 15049 O 1390.42 -0.42468 1.76256 0
M  V30 15050 C 1390.47 3.08315 1.87014 0
M  V30 15051 O 1389.57 2.8666 2.96479 0
M  V30 15052 H 1388.92 0.604041 0.275736 0
M  V30 15053 H 1391.45 2.03172 0.241345 0
M  V30 15054 H 1391.46 3.38288 2.28091 0
M  V30 15055 H 1390.13 3.95663 1.28154 0
M  V30 15056 H 1388.71 2.67907 2.59384 0
M  V30 15057 N 1390.89 -0.493031 1.4969 0
M  V30 15058 C 1391.86 -1.57598 1.6642 0
M  V30 15059 C 1392.86 -1.51615 0.535668 0
M  V30 15060 O 1394.05 -1.54626 0.802283 0
M  V30 15061 C 1391.18 -2.97249 1.66901 0
M  V30 15062 H 1392.37 -1.4409 2.63017 0
M  V30 15063 H 1389.92 -0.717846 1.3884 0
M  V30 15064 H 1390.66 -3.16225 0.719164 0
M  V30 15065 H 1390.44 -3.02999 2.48865 0
M  V30 15066 H 1391.93 -3.75914 1.81874 0
M  V30 15067 N 1392.37 -1.38898 -0.744656 0
M  V30 15068 C 1393.6 -1.3903 -1.53901 0
M  V30 15069 C 1394.02 0.0156607 -1.88093 0
M  V30 15070 O 1393.38 1.00012 -1.51219 0
M  V30 15071 C 1393.43 -2.2609 -2.80919 0
M  V30 15072 O 1392.53 -1.68414 -3.76444 0
M  V30 15073 H 1391.87 -0.473854 -0.465144 0
M  V30 15074 H 1394.4 -1.82773 -0.919525 0
M  V30 15075 H 1394.41 -2.40264 -3.29754 0
M  V30 15076 H 1393.09 -3.28271 -2.55364 0
M  V30 15077 H 1391.66 -1.63431 -3.35179 0
M  V30 15078 N 1393.85 0.973806 -1.23914 0
M  V30 15079 C 1394.78 2.07003 -0.983982 0
M  V30 15080 C 1395.79 1.62739 0.0443893 0
M  V30 15081 O 1396.98 1.77465 -0.191927 0
M  V30 15082 C 1394.08 3.35737 -0.461937 0
M  V30 15083 C 1393.26 4.08939 -1.55202 0
M  V30 15084 C 1392.31 5.15947 -1.03369 0
M  V30 15085 O 1391.34 5.42461 -1.72409 0
M  V30 15086 N 1392.54 5.80343 0.135067 0
M  V30 15087 H 1395.31 2.29468 -1.92781 0
M  V30 15088 H 1392.87 1.14098 -1.14861 0
M  V30 15089 H 1394.86 4.04576 -0.100074 0
M  V30 15090 H 1393.43 3.10189 0.387467 0
M  V30 15091 H 1392.65 3.34462 -2.08635 0
M  V30 15092 H 1393.94 4.5461 -2.2849 0
M  V30 15093 H 1393.34 5.61196 0.71241 0
M  V30 15094 H 1391.89 6.50326 0.438132 0
M  V30 15095 N 1395.33 1.05191 1.17357 0
M  V30 15096 C 1396.24 0.663617 2.25018 0
M  V30 15097 C 1397.25 -0.315299 1.71119 0
M  V30 15098 O 1398.43 -0.167398 2.00703 0
M  V30 15099 C 1395.49 0.0443307 3.46672 0
M  V30 15100 C 1394.55 1.07369 4.15656 0
M  V30 15101 C 1393.79 0.483864 5.31502 0
M  V30 15102 O 1394.01 -0.706692 5.66005 0
M  V30 15103 O 1392.94 1.21812 5.89445 0
M  V30 15104 H 1396.77 1.56088 2.60519 0
M  V30 15105 H 1394.36 0.823474 1.24657 0
M  V30 15106 H 1396.24 -0.299839 4.20332 0
M  V30 15107 H 1394.91 -0.826579 3.12969 0
M  V30 15108 H 1393.82 1.46985 3.44015 0
M  V30 15109 H 1395.15 1.91575 4.53387 0
M  V30 15110 N 1396.8 -1.33791 0.83293 0
M  V30 15111 C 1398.22 -1.50893 0.519955 0
M  V30 15112 C 1398.42 -1.7749 -0.953919 0
M  V30 15113 O 1397.48 -1.83168 -1.73798 0
M  V30 15114 C 1398.79 -2.66741 1.38815 0
M  V30 15115 C 1400.34 -2.80625 1.38631 0
M  V30 15116 C 1400.81 -3.99528 2.23922 0
M  V30 15117 N 1402.3 -4.06753 2.21599 0
M  V30 15118 C 1403.04 -4.97937 2.84335 0
M  V30 15119 N 1402.53 -5.94276 3.561 0
M  V30 15120 N 1404.33 -4.90887 2.73837 0
M  V30 15121 H 1396.48 -1.14788 1.7871 0
M  V30 15122 H 1398.74 -0.563822 0.762108 0
M  V30 15123 H 1398.45 -2.53748 2.43525 0
M  V30 15124 H 1398.32 -3.62001 1.05996 0
M  V30 15125 H 1400.71 -2.93053 0.346951 0
M  V30 15126 H 1400.79 -1.86144 1.75454 0
M  V30 15127 H 1400.43 -3.8786 3.27914 0
M  V30 15128 H 1400.36 -4.93242 1.84444 0
M  V30 15129 H 1402.85 -3.37802 1.69406 0
M  V30 15130 H 1403.17 -6.60504 4.01191 0
M  V30 15131 H 1401.51 -5.9437 3.60207 0
M  V30 15132 H 1404.7 -4.14586 2.17338 0
M  V30 15133 H 1404.88 -5.61752 3.23014 0
M  V30 15134 N 1398.28 -0.588812 -1.46187 0
M  V30 15135 C 1399.51 -0.0806571 -2.07243 0
M  V30 15136 C 1399.93 1.21766 -1.43369 0
M  V30 15137 O 1399.29 1.73694 -0.51964 0
M  V30 15138 C 1399.34 0.065267 -3.60541 0
M  V30 15139 O 1398.44 1.12026 -3.96893 0
M  V30 15140 H 1397.78 -0.0655622 -0.660755 0
M  V30 15141 H 1400.31 -0.813489 -1.87733 0
M  V30 15142 H 1400.32 0.269494 -4.07109 0
M  V30 15143 H 1399 -0.88284 -4.06422 0
M  V30 15144 H 1397.58 0.894 -3.62025 0
M  V30 15145 N 1399.76 1.54172 -0.326923 0
M  V30 15146 C 1400.69 2.27402 0.530154 0
M  V30 15147 C 1401.67 1.28325 1.11655 0
M  V30 15148 O 1402.86 1.57142 1.14105 0
M  V30 15149 C 1399.99 3.03435 1.68951 0
M  V30 15150 C 1398.94 4.09877 1.23226 0
M  V30 15151 C 1398.27 4.7377 2.47882 0
M  V30 15152 C 1399.57 5.21161 0.344698 0
M  V30 15153 H 1401.26 2.99291 -0.0806959 0
M  V30 15154 H 1398.81 1.43944 -0.0402511 0
M  V30 15155 H 1400.76 3.53396 2.29541 0
M  V30 15156 H 1399.48 2.29169 2.327 0
M  V30 15157 H 1398.14 3.60805 0.649267 0
M  V30 15158 H 1397.79 3.96116 3.10002 0
M  V30 15159 H 1397.49 5.45674 2.17977 0
M  V30 15160 H 1399.01 5.26507 3.09229 0
M  V30 15161 H 1400.43 5.66859 0.856979 0
M  V30 15162 H 1398.83 5.99941 0.138276 0
M  V30 15163 H 1399.9 4.80874 -0.623575 0
M  V30 15164 N 1401.24 0.0551678 1.57503 0
M  V30 15165 C 1402.52 -0.657808 1.84207 0
M  V30 15166 C 1402.9 -1.88798 0.944372 0
M  V30 15167 O 1402.24 -2.28499 0.00641728 0
M  V30 15168 C 1402.45 -1.0113 3.34026 0
M  V30 15169 C 1403.8 -1.39189 4.01138 0
M  V30 15170 O 1404.83 -1.10353 3.38675 0
M  V30 15171 O 1403.68 -1.93023 5.11277 0
M  V30 15172 H 1400.78 -0.325084 0.760427 0
M  V30 15173 H 1403.32 0.0848352 1.69488 0
M  V30 15174 H 1402.1 -0.13688 3.91061 0
M  V30 15175 H 1401.72 -1.81126 3.53948 0
M  V30 15176 N 1402.72 -1.56081 -0.218252 0
M  V30 15177 C 1403.63 -1.95856 -1.29141 0
M  V30 15178 C 1404.64 -0.862857 -1.51099 0
M  V30 15179 O 1405.82 -1.1667 -1.64165 0
M  V30 15180 C 1402.88 -2.27005 -2.62049 0
M  V30 15181 C 1401.94 -3.50162 -2.48365 0
M  V30 15182 C 1401.18 -3.79815 -3.74935 0
M  V30 15183 O 1401.4 -3.11095 -4.78096 0
M  V30 15184 O 1400.33 -4.73299 -3.71849 0
M  V30 15185 H 1404.16 -2.8732 -0.983922 0
M  V30 15186 H 1401.75 -1.43334 -0.421385 0
M  V30 15187 H 1403.63 -2.4822 -3.40536 0
M  V30 15188 H 1402.3 -1.38715 -2.92472 0
M  V30 15189 H 1401.21 -3.34222 -1.68066 0
M  V30 15190 H 1402.54 -4.38845 -2.22881 0
M  V30 15191 N 1404.2 0.485086 -1.49949 0
M  V30 15192 C 1405.16 1.56713 -1.67253 0
M  V30 15193 C 1406.16 1.51329 -0.543701 0
M  V30 15194 O 1407.35 1.54198 -0.810472 0
M  V30 15195 C 1404.48 2.9636 -1.68475 0
M  V30 15196 H 1405.67 1.42693 -2.63778 0
M  V30 15197 H 1403.23 0.710473 -1.39219 0
M  V30 15198 H 1403.96 3.1584 -0.735924 0
M  V30 15199 H 1403.75 3.01675 -2.50469 0
M  V30 15200 H 1405.24 3.74945 -1.83865 0
M  V30 15201 N 1405.67 1.39291 0.737279 0
M  V30 15202 C 1406.61 1.32216 1.85995 0
M  V30 15203 C 1407.58 0.19623 1.61412 0
M  V30 15204 O 1408.77 0.376297 1.84706 0
M  V30 15205 C 1405.9 1.0525 3.21932 0
M  V30 15206 C 1404.94 2.20002 3.65378 0
M  V30 15207 S 1405.77 3.82265 3.75011 0
M  V30 15208 C 1406.93 3.57519 5.13742 0
M  V30 15209 H 1407.16 2.27231 1.91712 0
M  V30 15210 H 1404.7 1.25319 0.901911 0
M  V30 15211 H 1406.65 0.903753 4.00428 0
M  V30 15212 H 1405.32 0.119258 3.13874 0
M  V30 15213 H 1404.51 1.9672 4.64023 0
M  V30 15214 H 1404.11 2.31068 2.94081 0
M  V30 15215 H 1406.4 3.14643 6.00005 0
M  V30 15216 H 1407.35 4.55616 5.42051 0
M  V30 15217 H 1407.75 2.9167 4.8331 0
M  V30 15218 N 1407.15 -0.967221 1.24429 0
M  V30 15219 C 1408.56 -1.52488 1.07723 0
M  V30 15220 C 1408.91 -1.93031 -0.351191 0
M  V30 15221 O 1408.04 -1.77376 -1.23963 0
M  V30 15222 C 1408.63 -2.77107 1.94929 0
M  V30 15223 C 1407.19 -3.29227 1.82446 0
M  V30 15224 C 1406.34 -2.02133 1.89835 0
M  V30 15225 H 1409.29 -0.785465 1.37899 0
M  V30 15226 H 1409.31 -3.50459 1.48186 0
M  V30 15227 H 1408.82 -2.47567 2.98885 0
M  V30 15228 H 1406.92 -3.63617 0.813246 0
M  V30 15229 H 1407.04 -3.98095 2.66566 0
M  V30 15230 H 1405.4 -2.16867 1.3357 0
M  V30 15231 H 1406.18 -1.74958 2.95372 0
M  V30 15232 N 1408.63 -1.05812 -1.16797 0
M  V30 15233 C 1409.86 -0.792519 -1.9112 0
M  V30 15234 C 1410.27 0.652549 -1.77164 0
M  V30 15235 O 1409.63 1.44633 -1.113 0
M  V30 15236 C 1409.68 -1.17172 -3.41984 0
M  V30 15237 O 1409.4 -2.56008 -3.55516 0
M  V30 15238 C 1410.9 -0.933162 -4.33367 0
M  V30 15239 H 1408.12 -0.28768 -0.606202 0
M  V30 15240 H 1410.67 -1.41046 -1.48075 0
M  V30 15241 H 1408.82 -0.598413 -3.8275 0
M  V30 15242 H 1409.24 -2.71053 -4.49033 0
M  V30 15243 H 1410.71 -1.24817 -5.37703 0
M  V30 15244 H 1411.19 0.131345 -4.39004 0
M  V30 15245 H 1411.79 -1.49062 -3.98322 0
M  V30 15246 N 1410.11 1.33347 -0.840014 0
M  V30 15247 C 1411.02 2.32965 -0.276527 0
M  V30 15248 C 1412.03 1.634 0.598037 0
M  V30 15249 O 1413.21 1.95046 0.501888 0
M  V30 15250 C 1410.27 3.42498 0.53816 0
M  V30 15251 C 1409.34 4.27781 -0.360814 0
M  V30 15252 C 1408.57 5.32083 0.415085 0
M  V30 15253 O 1408.79 5.46115 1.64666 0
M  V30 15254 O 1407.73 6.01528 -0.211503 0
M  V30 15255 H 1411.55 2.83022 -1.10147 0
M  V30 15256 H 1409.14 1.3671 -0.602566 0
M  V30 15257 H 1411.02 4.09336 1.00108 0
M  V30 15258 H 1409.69 2.94655 1.34015 0
M  V30 15259 H 1408.6 3.63805 -0.871598 0
M  V30 15260 H 1409.93 4.7911 -1.1276 0
M  V30 15261 N 1411.59 0.596556 1.45873 0
M  V30 15262 C 1412.83 0.0872856 2.01911 0
M  V30 15263 C 1413.15 -1.28257 1.46885 0
M  V30 15264 O 1412.42 -1.84489 0.658837 0
M  V30 15265 H 1411 0.0292769 0.746426 0
M  V30 15266 H 1413.67 0.775464 1.78809 0
M  V30 15267 H 1412.76 0.0287213 3.12087 0
M  V30 15268 N 1413.06 -1.53996 0.335095 0
M  V30 15269 C 1413.97 -2.28436 -0.534244 0
M  V30 15270 C 1414.99 -1.33224 -1.11926 0
M  V30 15271 O 1416.17 -1.66252 -1.13676 0
M  V30 15272 C 1413.23 -3.03634 -1.67354 0
M  V30 15273 C 1412.29 -4.14455 -1.11916 0
M  V30 15274 C 1411.52 -4.86058 -2.20416 0
M  V30 15275 O 1411.75 -4.57263 -3.40979 0
M  V30 15276 O 1410.68 -5.72704 -1.85185 0
M  V30 15277 H 1414.51 -3.03618 0.0706314 0
M  V30 15278 H 1412.09 -1.49062 0.100409 0
M  V30 15279 H 1413.97 -3.50687 -2.33659 0
M  V30 15280 H 1412.65 -2.31317 -2.26438 0
M  V30 15281 H 1411.56 -3.71725 -0.420871 0
M  V30 15282 H 1412.89 -4.8885 -0.573295 0
M  V30 15283 N 1414.54 -0.0635198 -1.57472 0
M  V30 15284 C 1415.49 0.906604 -2.12248 0
M  V30 15285 C 1416.46 1.30078 -1.0329 0
M  V30 15286 O 1417.64 1.38809 -1.30907 0
M  V30 15287 C 1414.78 2.1718 -2.68192 0
M  V30 15288 C 1413.9 1.831 -3.91278 0
M  V30 15289 C 1413.03 3.0417 -4.35493 0
M  V30 15290 C 1412.07 2.66069 -5.51248 0
M  V30 15291 N 1411.21 3.79871 -5.9046 0
M  V30 15292 H 1416.05 0.432606 -2.94843 0
M  V30 15293 H 1413.58 0.201895 -1.45708 0
M  V30 15294 H 1415.54 2.91231 -2.98732 0
M  V30 15295 H 1414.17 2.62135 -1.88375 0
M  V30 15296 H 1413.22 0.991473 -3.67252 0
M  V30 15297 H 1414.54 1.51063 -4.75375 0
M  V30 15298 H 1413.69 3.86507 -4.6765 0
M  V30 15299 H 1412.43 3.39395 -3.50232 0
M  V30 15300 H 1411.43 1.82151 -5.1875 0
M  V30 15301 H 1412.66 2.32023 -6.38234 0
M  V30 15302 H 1410.61 4.14873 -5.0815 0
M  V30 15303 H 1410.52 3.51573 -6.69277 0
M  V30 15304 H 1411.79 4.62811 -6.27237 0
M  V30 15305 N 1416.02 1.56195 0.209972 0
M  V30 15306 C 1417.3 1.70553 0.957653 0
M  V30 15307 C 1417.68 0.614091 2.01971 0
M  V30 15308 O 1417.02 -0.377192 2.25365 0
M  V30 15309 C 1417.23 3.12314 1.55759 0
M  V30 15310 C 1418.58 3.72085 2.04543 0
M  V30 15311 O 1419.61 3.15349 1.65631 0
M  V30 15312 O 1418.47 4.71627 2.76099 0
M  V30 15313 H 1415.56 0.695077 0.448104 0
M  V30 15314 H 1418.11 1.68507 0.20084 0
M  V30 15315 H 1416.88 3.83215 0.791302 0
M  V30 15316 H 1416.5 3.18526 2.37964 0
M  V30 15317 N 1417.5 -0.477127 1.50204 0
M  V30 15318 C 1418.45 -1.57334 1.65015 0
M  V30 15319 C 1419.43 -1.52771 0.504953 0
M  V30 15320 O 1420.62 -1.59897 0.759072 0
M  V30 15321 C 1417.75 -2.95815 1.74208 0
M  V30 15322 C 1416.84 -3.05284 2.94385 0
M  V30 15323 N 1417.23 -2.84582 4.18147 0
M  V30 15324 C 1415.53 -3.36413 2.92817 0
M  V30 15325 C 1416.23 -2.98859 4.99057 0
M  V30 15326 N 1415.2 -3.28794 4.32892 0
M  V30 15327 H 1419.01 -1.40018 2.58403 0
M  V30 15328 H 1416.52 -0.68374 1.47305 0
M  V30 15329 H 1418.52 -3.74627 1.82921 0
M  V30 15330 H 1417.18 -3.14182 0.819746 0
M  V30 15331 H 1418.19 -2.60282 4.47743 0
M  V30 15332 H 1414.87 -3.60806 2.1006 0
M  V30 15333 H 1416.26 -2.87144 6.07452 0
M  V30 15334 N 1418.98 -1.3968 -0.729882 0
M  V30 15335 C 1419.89 -1.41094 -1.87429 0
M  V30 15336 C 1420.9 -0.305142 -1.71303 0
M  V30 15337 O 1422.08 -0.54744 -1.93817 0
M  V30 15338 C 1419.14 -1.25786 -3.23077 0
M  V30 15339 C 1418.2 -2.46382 -3.5156 0
M  V30 15340 C 1417.44 -2.31795 -4.80735 0
M  V30 15341 O 1417.66 -1.32415 -5.54818 0
M  V30 15342 O 1416.59 -3.20883 -5.09232 0
M  V30 15343 H 1420.42 -2.37571 -1.89192 0
M  V30 15344 H 1418.01 -1.2085 -0.878389 0
M  V30 15345 H 1419.89 -1.19402 -4.0413 0
M  V30 15346 H 1418.56 -0.324065 -3.22074 0
M  V30 15347 H 1417.47 -2.58343 -2.70573 0
M  V30 15348 H 1418.8 -3.38473 -3.57347 0
M  V30 15349 N 1420.45 0.960609 -1.2494 0
M  V30 15350 C 1421.38 2.074 -1.07274 0
M  V30 15351 C 1422.37 1.70092 0.0164365 0
M  V30 15352 O 1423.55 1.93604 -0.151975 0
M  V30 15353 C 1420.68 3.40491 -0.684317 0
M  V30 15354 C 1419.63 3.91784 -1.72306 0
M  V30 15355 C 1418.96 5.21301 -1.18949 0
M  V30 15356 C 1420.26 4.18829 -3.12056 0
M  V30 15357 H 1421.95 2.22438 -2.00404 0
M  V30 15358 H 1419.5 1.06888 -0.964937 0
M  V30 15359 H 1421.45 4.17826 -0.547686 0
M  V30 15360 H 1420.18 3.25374 0.282687 0
M  V30 15361 H 1418.84 3.16613 -1.84802 0
M  V30 15362 H 1418.48 5.02549 -0.212892 0
M  V30 15363 H 1418.18 5.56588 -1.8837 0
M  V30 15364 H 1419.71 6.01238 -1.06513 0
M  V30 15365 H 1421.12 4.86844 -3.02748 0
M  V30 15366 H 1419.52 4.6536 -3.78894 0
M  V30 15367 H 1420.59 3.25333 -3.59564 0
M  V30 15368 N 1421.93 1.0643 1.16234 0
M  V30 15369 C 1423.35 0.78802 1.38789 0
M  V30 15370 C 1423.55 -0.612019 1.91981 0
M  V30 15371 O 1422.6 -1.37235 2.1195 0
M  V30 15372 C 1423.92 1.85406 2.36738 0
M  V30 15373 C 1425.47 1.87773 2.5042 0
M  V30 15374 C 1425.94 2.93435 3.51653 0
M  V30 15375 N 1427.43 2.92477 3.59181 0
M  V30 15376 C 1428.17 3.7088 4.37305 0
M  V30 15377 N 1427.66 4.59106 5.18839 0
M  V30 15378 N 1429.46 3.59267 4.32301 0
M  V30 15379 H 1421.61 1.9674 0.800449 0
M  V30 15380 H 1423.87 0.852631 0.414397 0
M  V30 15381 H 1423.58 2.85954 2.04751 0
M  V30 15382 H 1423.45 1.70625 3.36403 0
M  V30 15383 H 1425.84 0.878825 2.8171 0
M  V30 15384 H 1425.92 2.06633 1.50787 0
M  V30 15385 H 1425.56 3.93519 3.211 0
M  V30 15386 H 1425.49 2.71824 4.5102 0
M  V30 15387 H 1427.98 2.28517 3.00979 0
M  V30 15388 H 1428.3 5.15583 5.75668 0
M  V30 15389 H 1426.64 4.6316 5.18177 0
M  V30 15390 H 1429.83 2.89726 3.67663 0
M  V30 15391 H 1430 4.20613 4.92939 0
M  V30 15392 N 1423.41 -1.329 0.847073 0
M  V30 15393 C 1424.66 -1.9712 0.445872 0
M  V30 15394 C 1424.98 -1.67398 -1.00014 0
M  V30 15395 O 1424.25 -0.977204 -1.69787 0
M  V30 15396 H 1422.83 -0.729247 0.161887 0
M  V30 15397 H 1425.49 -1.62118 1.08184 0
M  V30 15398 H 1424.59 -3.06575 0.584676 0
M  V30 15399 N 1424.89 -0.604284 -1.45555 0
M  V30 15400 C 1425.84 0.129013 -2.32242 0
M  V30 15401 C 1426.83 0.862933 -1.45773 0
M  V30 15402 O 1428.04 0.778874 -1.62276 0
M  V30 15403 H 1424.41 0.0604661 -0.749565 0
M  V30 15404 H 1426.38 -0.620603 -2.91875 0
M  V30 15405 C 1425.13 1.11516 -3.29332 0
M  V30 15406 H 1424.45 0.559849 -3.95861 0
M  V30 15407 H 1425.89 1.59824 -3.92724 0
M  V30 15408 C 1424.35 2.18706 -2.5626 0
M  V30 15409 O 1424.88 3.26397 -2.34154 0
M  V30 15410 N 1423.09 1.93899 -2.16452 0
M  V30 15411 H 1422.64 1.0633 -2.34631 0
M  V30 15412 H 1422.59 2.65824 -1.67884 0
M  V30 15413 N 1426.37 1.53816 -0.343257 0
M  V30 15414 C 1427.32 2.21763 0.529635 0
M  V30 15415 C 1428.3 1.20494 1.06631 0
M  V30 15416 O 1429.49 1.46041 1.00006 0
M  V30 15417 C 1426.62 2.99372 1.68022 0
M  V30 15418 C 1425.71 4.07999 1.1575 0
M  V30 15419 N 1426.1 5.04546 0.355979 0
M  V30 15420 C 1424.4 4.22304 1.43442 0
M  V30 15421 C 1425.1 5.81655 0.0723481 0
M  V30 15422 N 1424.07 5.39531 0.66391 0
M  V30 15423 H 1427.88 2.93763 -0.0898087 0
M  V30 15424 H 1425.39 1.61705 -0.150107 0
M  V30 15425 H 1427.39 3.4655 2.31752 0
M  V30 15426 H 1426.05 2.28899 2.30294 0
M  V30 15427 H 1427.06 5.179 -0.00291228 0
M  V30 15428 H 1423.73 3.63051 2.06155 0
M  V30 15429 H 1425.12 6.69442 -0.574192 0
M  V30 15430 N 1427.84 0.0718701 1.57436 0
M  V30 15431 C 1429.09 -0.596052 1.9311 0
M  V30 15432 C 1429.41 -1.70146 0.952652 0
M  V30 15433 O 1428.68 -1.959 0.000812941 0
M  V30 15434 H 1427.26 -0.223165 0.712886 0
M  V30 15435 H 1429.93 0.129744 1.94468 0
M  V30 15436 H 1429.02 -1.02132 2.94916 0
M  V30 15437 N 1429.32 -1.56304 -0.201686 0
M  V30 15438 C 1430.29 -1.93171 -1.2336 0
M  V30 15439 C 1431.29 -0.812164 -1.38782 0
M  V30 15440 O 1432.48 -1.07967 -1.36707 0
M  V30 15441 C 1429.61 -2.19997 -2.60411 0
M  V30 15442 H 1430.8 -2.85483 -0.918654 0
M  V30 15443 H 1428.35 -1.49893 -0.442935 0
M  V30 15444 H 1429.09 -1.30301 -2.96972 0
M  V30 15445 H 1428.87 -3.01574 -2.5059 0
M  V30 15446 H 1430.36 -2.49547 -3.34838 0
M  V30 15447 N 1430.8 0.469154 -1.50455 0
M  V30 15448 C 1431.75 1.56691 -1.6946 0
M  V30 15449 C 1432.72 1.57217 -0.535921 0
M  V30 15450 O 1433.9 1.74717 -0.766715 0
M  V30 15451 C 1431.04 2.94651 -1.79651 0
M  V30 15452 C 1430.16 3.03899 -3.07033 0
M  V30 15453 C 1429.29 4.32786 -3.08009 0
M  V30 15454 C 1428.33 4.35784 -4.29836 0
M  V30 15455 N 1427.47 5.56145 -4.28541 0
M  V30 15456 H 1432.31 1.39791 -2.63178 0
M  V30 15457 H 1429.84 0.679628 -1.30459 0
M  V30 15458 H 1431.8 3.74658 -1.83541 0
M  V30 15459 H 1430.43 3.10182 -0.893713 0
M  V30 15460 H 1429.48 2.16754 -3.12605 0
M  V30 15461 H 1430.8 3.01974 -3.97005 0
M  V30 15462 H 1429.95 5.21141 -3.10639 0
M  V30 15463 H 1428.69 4.37323 -2.1587 0
M  V30 15464 H 1427.69 3.45825 -4.27417 0
M  V30 15465 H 1428.92 4.32937 -5.23204 0
M  V30 15466 H 1426.86 5.61464 -3.39256 0
M  V30 15467 H 1426.78 5.55969 -5.12284 0
M  V30 15468 H 1428.05 6.4662 -4.35319 0
M  V30 15469 N 1432.28 1.40065 0.722464 0
M  V30 15470 C 1433.19 1.42086 1.86678 0
M  V30 15471 C 1434.2 0.314223 1.71139 0
M  V30 15472 O 1435.38 0.55771 1.93524 0
M  V30 15473 C 1432.45 1.27498 3.22405 0
M  V30 15474 C 1431.51 2.48243 3.50248 0
M  V30 15475 C 1430.74 2.34342 4.79499 0
M  V30 15476 O 1430.96 1.35355 5.54108 0
M  V30 15477 O 1429.9 3.23579 5.07523 0
M  V30 15478 H 1433.72 2.38571 1.87929 0
M  V30 15479 H 1431.31 1.21314 0.871968 0
M  V30 15480 H 1433.19 1.21543 4.03491 0
M  V30 15481 H 1431.86 0.341141 3.21897 0
M  V30 15482 H 1430.77 2.59775 2.69199 0
M  V30 15483 H 1432.1 3.40364 3.55547 0
M  V30 15484 N 1433.76 -0.95397 1.25448 0
M  V30 15485 C 1435.17 -1.51337 1.09335 0
M  V30 15486 C 1435.52 -1.93393 -0.330698 0
M  V30 15487 O 1434.64 -1.78681 -1.22074 0
M  V30 15488 C 1435.24 -2.75024 1.97857 0
M  V30 15489 C 1433.8 -3.27274 1.85927 0
M  V30 15490 C 1432.95 -2.00108 1.91969 0
M  V30 15491 H 1435.9 -0.770795 1.38724 0
M  V30 15492 H 1435.92 -3.48867 1.51894 0
M  V30 15493 H 1435.43 -2.44383 3.01494 0
M  V30 15494 H 1433.53 -3.62734 0.851767 0
M  V30 15495 H 1433.64 -3.95245 2.70773 0
M  V30 15496 H 1432.01 -2.15438 1.35862 0
M  V30 15497 H 1432.79 -1.71816 2.97211 0
M  V30 15498 N 1435.24 -1.07045 -1.15668 0
M  V30 15499 C 1436.46 -0.812746 -1.90268 0
M  V30 15500 C 1436.88 0.633722 -1.77847 0
M  V30 15501 O 1436.24 1.43444 -1.12828 0
M  V30 15502 C 1436.29 -1.20793 -3.40722 0
M  V30 15503 O 1436.01 -2.59764 -3.52781 0
M  V30 15504 C 1437.51 -0.979074 -4.32353 0
M  V30 15505 H 1434.73 -0.294093 -0.603117 0
M  V30 15506 H 1437.27 -1.42609 -1.46571 0
M  V30 15507 H 1435.43 -0.638975 -3.82094 0
M  V30 15508 H 1435.84 -2.75801 -4.46133 0
M  V30 15509 H 1437.32 -1.30513 -5.36349 0
M  V30 15510 H 1437.79 0.0847752 -4.39118 0
M  V30 15511 H 1438.4 -1.53278 -3.96719 0
M  V30 15512 N 1436.71 1.32449 -0.85411 0
M  V30 15513 C 1437.96 1.96537 -0.453451 0
M  V30 15514 C 1438.28 1.68344 0.995982 0
M  V30 15515 O 1439.48 2.26166 1.50204 0
M  V30 15516 C 1437.94 3.51785 -0.759934 0
M  V30 15517 C 1437.55 3.88838 -2.22506 0
M  V30 15518 C 1439.29 4.22347 -0.426973 0
M  V30 15519 C 1437.2 5.37129 -2.47479 0
M  V30 15520 H 1436.13 0.735537 -0.165835 0
M  V30 15521 H 1438.78 1.50851 -1.04481 0
M  V30 15522 H 1437.16 3.95879 -0.0980116 0
M  V30 15523 H 1438.33 3.55756 -2.92873 0
M  V30 15524 H 1436.65 3.31299 -2.52249 0
M  V30 15525 H 1439.25 5.31424 -0.590986 0
M  V30 15526 H 1439.59 4.11485 0.631359 0
M  V30 15527 H 1440.12 3.83835 -1.04477 0
M  V30 15528 H 1436.86 5.53012 -3.51935 0
M  V30 15529 H 1436.38 5.71619 -1.8169 0
M  V30 15530 H 1438.06 6.04204 -2.31401 0
M  V30 15531 N 1438.19 0.611994 1.45232 0
M  V30 15532 C 1439.12 -0.142449 2.28757 0
M  V30 15533 C 1440.14 -0.827486 1.40202 0
M  V30 15534 O 1441.33 -0.692136 1.64535 0
M  V30 15535 C 1438.43 -1.22296 3.16065 0
M  V30 15536 C 1437.6 -0.624178 4.32924 0
M  V30 15537 C 1436.66 -1.59615 5.01408 0
M  V30 15538 O 1435.68 -1.12073 5.58058 0
M  V30 15539 N 1436.89 -2.93057 5.01097 0
M  V30 15540 H 1439.65 0.574276 2.94147 0
M  V30 15541 H 1437.21 0.451789 1.55469 0
M  V30 15542 H 1439.2 -1.87309 3.58744 0
M  V30 15543 H 1437.77 -1.84215 2.52554 0
M  V30 15544 H 1436.99 0.204141 3.93671 0
M  V30 15545 H 1438.28 -0.204435 5.08389 0
M  V30 15546 H 1437.68 -3.3428 4.5637 0
M  V30 15547 H 1436.24 -3.53481 5.47626 0
M  V30 15548 N 1439.67 -1.53632 0.351409 0
M  V30 15549 C 1440.58 -2.2899 -0.509985 0
M  V30 15550 C 1441.6 -1.34403 -1.10507 0
M  V30 15551 O 1442.77 -1.67448 -1.11906 0
M  V30 15552 C 1439.84 -3.05392 -1.64124 0
M  V30 15553 C 1438.9 -4.15619 -1.07514 0
M  V30 15554 C 1438.13 -4.88369 -2.15248 0
M  V30 15555 O 1438.35 -4.60854 -3.3611 0
M  V30 15556 O 1437.29 -5.74636 -1.79101 0
M  V30 15557 H 1441.11 -3.03526 0.10283 0
M  V30 15558 H 1438.7 -1.48947 0.116214 0
M  V30 15559 H 1440.58 -3.53146 -2.29926 0
M  V30 15560 H 1439.26 -2.33705 -2.23972 0
M  V30 15561 H 1438.16 -3.7215 -0.381421 0
M  V30 15562 H 1439.5 -4.8943 -0.521413 0
M  V30 15563 N 1441.15 -0.0802183 -1.57396 0
M  V30 15564 C 1442.06 0.898597 -2.16708 0
M  V30 15565 C 1443.07 1.321 -1.1325 0
M  V30 15566 O 1444.25 1.39197 -1.45554 0
M  V30 15567 C 1441.31 2.14501 -2.72379 0
M  V30 15568 C 1440.38 1.77822 -3.9074 0
M  V30 15569 C 1439.61 2.96521 -4.43747 0
M  V30 15570 O 1439.83 4.10797 -3.9573 0
M  V30 15571 O 1438.77 2.75849 -5.34968 0
M  V30 15572 H 1442.59 0.424027 -3.00725 0
M  V30 15573 H 1440.18 0.14332 -1.48711 0
M  V30 15574 H 1442.06 2.87575 -3.08024 0
M  V30 15575 H 1440.73 2.61039 -1.91416 0
M  V30 15576 H 1439.64 1.01974 -3.59934 0
M  V30 15577 H 1440.97 1.36059 -4.73021 0
M  V30 15578 N 1442.63 1.56409 0.193394 0
M  V30 15579 C 1444.04 1.50032 0.544298 0
M  V30 15580 C 1444.24 0.780546 1.85768 0
M  V30 15581 O 1443.3 0.331769 2.50311 0
M  V30 15582 C 1444.61 2.94705 0.597463 0
M  V30 15583 C 1446.16 3.05386 0.686179 0
M  V30 15584 C 1446.63 4.51473 0.770439 0
M  V30 15585 N 1448.12 4.55631 0.833921 0
M  V30 15586 C 1448.86 5.65982 0.919314 0
M  V30 15587 N 1448.36 6.8602 0.966904 0
M  V30 15588 N 1450.15 5.539 0.956634 0
M  V30 15589 H 1442.3 2.01619 -0.668096 0
M  V30 15590 H 1444.56 0.917589 -0.238191 0
M  V30 15591 H 1444.27 3.50431 -0.298509 0
M  V30 15592 H 1444.14 3.48151 1.45157 0
M  V30 15593 H 1446.53 2.49708 1.57258 0
M  V30 15594 H 1446.61 2.55062 -0.194165 0
M  V30 15595 H 1446.25 5.07777 -0.111619 0
M  V30 15596 H 1446.18 4.99531 1.66661 0
M  V30 15597 H 1448.68 3.69198 0.80632 0
M  V30 15598 H 1448.99 7.6587 1.03262 0
M  V30 15599 H 1447.33 6.88674 0.935552 0
M  V30 15600 H 1450.52 4.59044 0.916304 0
M  V30 15601 H 1450.7 6.39926 1.01972 0
M  V30 15602 N 1444.1 -0.461169 1.50702 0
M  V30 15603 C 1445.07 -1.54032 1.69725 0
M  V30 15604 C 1446.07 -1.50445 0.567707 0
M  V30 15605 O 1447.26 -1.52889 0.834901 0
M  V30 15606 C 1444.39 -2.93642 1.73168 0
M  V30 15607 H 1445.58 -1.38478 2.66015 0
M  V30 15608 H 1443.13 -0.688235 1.40332 0
M  V30 15609 H 1443.87 -3.14629 0.786078 0
M  V30 15610 H 1443.65 -2.97652 2.55236 0
M  V30 15611 H 1445.14 -3.71972 1.89807 0
M  V30 15612 N 1445.58 -1.40446 -0.715026 0
M  V30 15613 C 1446.51 -1.36673 -1.83993 0
M  V30 15614 C 1447.53 -0.272038 -1.60511 0
M  V30 15615 O 1448.72 -0.532425 -1.70375 0
M  V30 15616 C 1445.82 -1.10423 -3.20406 0
M  V30 15617 C 1444.99 -2.31557 -3.71079 0
M  V30 15618 C 1444.05 -2.01459 -4.86108 0
M  V30 15619 O 1443.07 -2.7433 -4.9873 0
M  V30 15620 N 1444.28 -0.992899 -5.71946 0
M  V30 15621 H 1447.04 -2.3362 -1.87728 0
M  V30 15622 H 1444.6 -1.34807 -0.896586 0
M  V30 15623 H 1446.59 -0.88273 -3.94956 0
M  V30 15624 H 1445.16 -0.221408 -3.11815 0
M  V30 15625 H 1444.38 -2.69534 -2.87655 0
M  V30 15626 H 1445.67 -3.1231 -4.01671 0
M  V30 15627 H 1445.07 -0.389387 -5.64358 0
M  V30 15628 H 1443.63 -0.831299 -6.46477 0
M  V30 15629 N 1447.06 0.947303 -1.25952 0
M  V30 15630 C 1448.34 1.66964 -1.01894 0
M  V30 15631 C 1448.72 2.06192 0.452555 0
M  V30 15632 O 1448.06 1.78098 1.43156 0
M  V30 15633 C 1448.27 2.88643 -1.96179 0
M  V30 15634 C 1449.62 3.60432 -2.24441 0
M  V30 15635 O 1450.65 2.98737 -1.93996 0
M  V30 15636 O 1449.51 4.7154 -2.76247 0
M  V30 15637 H 1446.6 0.730875 -0.386976 0
M  V30 15638 H 1449.15 0.999577 -1.37137 0
M  V30 15639 H 1447.92 2.565 -2.95506 0
M  V30 15640 H 1447.54 3.63377 -1.61379 0
M  V30 15641 N 1448.54 1.07657 1.15099 0
M  V30 15642 C 1449.47 0.721201 2.22083 0
M  V30 15643 C 1450.45 -0.292808 1.67561 0
M  V30 15644 O 1451.63 -0.164872 1.93499 0
M  V30 15645 C 1448.76 0.12153 3.47087 0
M  V30 15646 C 1447.72 1.06303 4.14588 0
M  V30 15647 C 1447.04 0.325964 5.33706 0
M  V30 15648 C 1448.34 2.39796 4.63999 0
M  V30 15649 H 1450.04 1.61566 2.52065 0
M  V30 15650 H 1447.58 0.778282 1.21156 0
M  V30 15651 H 1449.54 -0.139037 4.21171 0
M  V30 15652 H 1448.26 -0.808022 3.16447 0
M  V30 15653 H 1446.92 1.30858 3.4245 0
M  V30 15654 H 1446.57 -0.607147 4.99322 0
M  V30 15655 H 1446.27 0.953552 5.79811 0
M  V30 15656 H 1447.79 0.0732695 6.10556 0
M  V30 15657 H 1449.21 2.19552 5.29594 0
M  V30 15658 H 1447.6 2.98178 5.20778 0
M  V30 15659 H 1448.67 3.01876 3.79472 0
M  V30 15660 N 1450.02 -1.31994 0.861122 0
M  V30 15661 C 1451.43 -1.49756 0.551844 0
M  V30 15662 C 1451.63 -1.79473 -0.916056 0
M  V30 15663 O 1450.69 -1.86813 -1.69874 0
M  V30 15664 C 1452 -2.63737 1.44442 0
M  V30 15665 C 1453.55 -2.77621 1.44552 0
M  V30 15666 C 1454.02 -3.94689 2.32346 0
M  V30 15667 N 1455.52 -4.01961 2.30177 0
M  V30 15668 C 1456.25 -4.91794 2.94833 0
M  V30 15669 N 1455.75 -5.86589 3.68626 0
M  V30 15670 N 1457.54 -4.84968 2.84188 0
M  V30 15671 H 1449.69 -1.10972 1.81105 0
M  V30 15672 H 1451.95 -0.54753 0.773896 0
M  V30 15673 H 1451.66 -2.48526 2.48853 0
M  V30 15674 H 1451.53 -3.59671 1.13651 0
M  V30 15675 H 1453.92 -2.92251 0.409034 0
M  V30 15676 H 1454 -1.8238 1.79363 0
M  V30 15677 H 1453.65 -3.80817 3.36067 0
M  V30 15678 H 1453.58 -4.89219 1.94865 0
M  V30 15679 H 1456.07 -3.34132 1.76533 0
M  V30 15680 H 1456.38 -6.51846 4.15111 0
M  V30 15681 H 1454.72 -5.86596 3.72734 0
M  V30 15682 H 1457.92 -4.09883 2.26084 0
M  V30 15683 H 1458.09 -5.54774 3.34857 0
M  V30 15684 N 1451.49 -0.619688 -1.44906 0
M  V30 15685 C 1452.91 -0.284338 -1.57047 0
M  V30 15686 C 1453.11 1.21284 -1.60911 0
M  V30 15687 O 1452.17 1.99642 -1.54594 0
M  V30 15688 C 1453.48 -0.966179 -2.84755 0
M  V30 15689 C 1455.03 -0.943239 -2.98449 0
M  V30 15690 C 1455.5 -1.60532 -4.28945 0
M  V30 15691 N 1456.99 -1.57138 -4.35732 0
M  V30 15692 C 1457.73 -2.05271 -5.35399 0
M  V30 15693 N 1457.22 -2.61543 -6.41535 0
M  V30 15694 N 1459.02 -1.95967 -5.26833 0
M  V30 15695 H 1451.17 -1.59167 -1.40641 0
M  V30 15696 H 1453.43 -0.667458 -0.673204 0
M  V30 15697 H 1453.14 -2.02086 -2.87844 0
M  V30 15698 H 1453.01 -0.49688 -3.73913 0
M  V30 15699 H 1455.4 0.102932 -2.9492 0
M  V30 15700 H 1455.48 -1.45092 -2.1067 0
M  V30 15701 H 1455.12 -2.65088 -4.33233 0
M  V30 15702 H 1455.05 -1.07256 -5.15561 0
M  V30 15703 H 1457.54 -1.16042 -3.59643 0
M  V30 15704 H 1457.86 -2.96033 -7.13852 0
M  V30 15705 H 1456.2 -2.65588 -6.42252 0
M  V30 15706 H 1459.39 -1.51734 -4.42825 0
M  V30 15707 H 1459.57 -2.33791 -6.04356 0
M  V30 15708 N 1452.97 1.53444 -0.359552 0
M  V30 15709 C 1454.2 2.05584 0.232953 0
M  V30 15710 C 1454.62 1.23347 1.42937 0
M  V30 15711 O 1453.97 0.272662 1.80452 0
M  V30 15712 C 1454.02 3.55926 0.632359 0
M  V30 15713 O 1453.74 4.35045 -0.516494 0
M  V30 15714 C 1455.25 4.24301 1.28389 0
M  V30 15715 H 1452.47 0.669676 0.042132 0
M  V30 15716 H 1455.01 1.97878 -0.516176 0
M  V30 15717 H 1453.16 3.63802 1.33141 0
M  V30 15718 H 1453.58 5.24138 -0.194906 0
M  V30 15719 H 1455.05 5.30832 1.51397 0
M  V30 15720 H 1455.53 3.77644 2.24236 0
M  V30 15721 H 1456.14 4.20661 0.626438 0
M  V30 15722 N 1454.45 0.0885642 1.57351 0
M  V30 15723 C 1455.4 -0.890284 2.14888 0
M  V30 15724 C 1456.39 -1.29671 1.09004 0
M  V30 15725 O 1457.6 -1.272 1.27359 0
M  V30 15726 H 1453.97 -0.305107 0.687324 0
M  V30 15727 H 1455.94 -0.380243 2.95967 0
M  V30 15728 C 1454.69 -2.14216 2.73874 0
M  V30 15729 H 1454.02 -1.8383 3.55031 0
M  V30 15730 H 1455.46 -2.8078 3.17708 0
M  V30 15731 C 1453.92 -2.91186 1.69448 0
M  V30 15732 O 1454.45 -3.85494 1.12949 0
M  V30 15733 N 1452.65 -2.54603 1.40091 0
M  V30 15734 H 1452.2 -1.77984 1.86225 0
M  V30 15735 H 1452.16 -3.06403 0.704577 0
M  V30 15736 N 1455.93 -1.56509 -0.185096 0
M  V30 15737 C 1457.15 -1.85683 -0.923941 0
M  V30 15738 C 1457.58 -0.673315 -1.75636 0
M  V30 15739 O 1456.94 0.3778 -1.7732 0
M  V30 15740 C 1456.98 -3.13165 -1.78774 0
M  V30 15741 O 1456.09 -2.9442 -2.88775 0
M  V30 15742 H 1455.43 -0.611139 -0.259624 0
M  V30 15743 H 1457.96 -2.0374 -0.187393 0
M  V30 15744 H 1457.97 -3.44216 -2.19042 0
M  V30 15745 H 1456.64 -3.98922 -1.17619 0
M  V30 15746 H 1455.22 -2.7469 -2.5219 0
M  V30 15747 N 1457.41 0.45317 -1.50944 0
M  V30 15748 C 1458.34 1.55655 -1.74051 0
M  V30 15749 C 1459.32 1.59545 -0.58987 0
M  V30 15750 O 1460.5 1.75526 -0.830922 0
M  V30 15751 C 1457.63 2.93857 -1.85109 0
M  V30 15752 C 1456.59 3.04832 -3.00435 0
M  V30 15753 C 1455.91 4.44858 -2.96657 0
M  V30 15754 C 1457.21 2.80381 -4.40663 0
M  V30 15755 H 1458.91 1.36571 -2.66437 0
M  V30 15756 H 1456.45 0.655572 -1.28212 0
M  V30 15757 H 1458.41 3.70992 -1.99857 0
M  V30 15758 H 1457.13 3.14138 -0.893579 0
M  V30 15759 H 1455.79 2.30134 -2.85366 0
M  V30 15760 H 1455.44 4.62083 -1.98716 0
M  V30 15761 H 1455.14 4.53134 -3.7409 0
M  V30 15762 H 1456.66 5.23989 -3.13478 0
M  V30 15763 H 1458.07 3.47255 -4.56165 0
M  V30 15764 H 1456.47 3.00083 -5.19683 0
M  V30 15765 H 1457.54 1.76099 -4.51793 0
M  V30 15766 N 1458.88 1.40823 0.707568 0
M  V30 15767 C 1459.82 1.36132 1.83149 0
M  V30 15768 C 1460.8 0.230423 1.60959 0
M  V30 15769 O 1461.98 0.415391 1.83866 0
M  V30 15770 C 1459.11 1.12055 3.19627 0
M  V30 15771 C 1458.15 2.27703 3.6063 0
M  V30 15772 S 1458.99 3.90134 3.66818 0
M  V30 15773 C 1460.14 3.68336 5.06043 0
M  V30 15774 H 1460.37 2.31246 1.86849 0
M  V30 15775 H 1457.91 1.27204 0.875126 0
M  V30 15776 H 1459.87 0.988486 3.98421 0
M  V30 15777 H 1458.53 0.185809 3.1355 0
M  V30 15778 H 1457.72 2.06519 4.59746 0
M  V30 15779 H 1457.32 2.37254 2.89114 0
M  V30 15780 H 1459.61 3.27299 5.93196 0
M  V30 15781 H 1460.56 4.67012 5.32265 0
M  V30 15782 H 1460.96 3.01856 4.77015 0
M  V30 15783 N 1460.36 -0.94061 1.26453 0
M  V30 15784 C 1461.61 -1.68937 1.12197 0
M  V30 15785 C 1461.94 -1.91309 -0.33382 0
M  V30 15786 O 1461.22 -1.49417 -1.24518 0
M  V30 15787 C 1461.5 -3.06381 1.89215 0
M  V30 15788 C 1461.35 -2.91331 3.42704 0
M  V30 15789 C 1462.67 -4.06507 1.68642 0
M  V30 15790 H 1459.79 -0.613121 0.408964 0
M  V30 15791 H 1462.43 -1.09242 1.55455 0
M  V30 15792 H 1460.58 -3.57339 1.5245 0
M  V30 15793 H 1462.25 -2.47591 3.89226 0
M  V30 15794 H 1460.5 -2.26945 3.697 0
M  V30 15795 H 1461.17 -3.88818 3.91822 0
M  V30 15796 H 1463.64 -3.64512 2.00674 0
M  V30 15797 H 1462.52 -5.0069 2.24945 0
M  V30 15798 H 1462.78 -4.37572 0.631131 0
M  V30 15799 N 1461.84 -1.08266 -1.14527 0
M  V30 15800 C 1463.07 -0.832994 -1.89937 0
M  V30 15801 C 1463.49 0.608985 -1.77969 0
M  V30 15802 O 1462.85 1.42657 -1.11887 0
M  V30 15803 C 1462.9 -1.25782 -3.37952 0
M  V30 15804 O 1462 -0.408853 -4.10368 0
M  V30 15805 H 1461.34 -0.30267 -0.591005 0
M  V30 15806 H 1463.87 -1.44371 -1.44977 0
M  V30 15807 H 1463.88 -1.23804 -3.88763 0
M  V30 15808 H 1462.56 -2.30804 -3.4598 0
M  V30 15809 H 1461.13 -0.49192 -3.69641 0
M  V30 15810 N 1463.32 1.31536 -0.86811 0
M  V30 15811 C 1464.74 1.49461 -0.559778 0
M  V30 15812 C 1464.94 1.79957 0.906525 0
M  V30 15813 O 1463.99 1.87711 1.68881 0
M  V30 15814 C 1465.3 2.62967 -1.45839 0
M  V30 15815 C 1466.85 2.76851 -1.46023 0
M  V30 15816 C 1467.33 3.93451 -2.34436 0
M  V30 15817 N 1468.82 4.00735 -2.32306 0
M  V30 15818 C 1469.55 4.90223 -2.97437 0
M  V30 15819 N 1469.05 5.84626 -3.71731 0
M  V30 15820 N 1470.84 4.83454 -2.86755 0
M  V30 15821 H 1462.99 1.1001 -1.81691 0
M  V30 15822 H 1465.26 0.543418 -0.776789 0
M  V30 15823 H 1464.96 2.47203 -2.50168 0
M  V30 15824 H 1464.84 3.59063 -1.15556 0
M  V30 15825 H 1467.22 2.9203 -0.424527 0
M  V30 15826 H 1467.3 1.81427 -1.80327 0
M  V30 15827 H 1466.95 3.79029 -3.38082 0
M  V30 15828 H 1466.88 4.88179 -1.97457 0
M  V30 15829 H 1469.37 3.33191 -1.78303 0
M  V30 15830 H 1469.68 6.49635 -4.18562 0
M  V30 15831 H 1468.03 5.84611 -3.75839 0
M  V30 15832 H 1471.22 4.08678 -2.28254 0
M  V30 15833 H 1471.39 5.52991 -3.37795 0
M  V30 15834 N 1464.8 0.627364 1.44575 0
M  V30 15835 C 1466.05 0.130094 2.01681 0
M  V30 15836 C 1466.37 -1.25112 1.49572 0
M  V30 15837 O 1465.64 -1.8305 0.697822 0
M  V30 15838 H 1464.22 0.0451032 0.745637 0
M  V30 15839 H 1466.88 0.813218 1.77124 0
M  V30 15840 H 1465.97 0.0949131 3.11956 0
M  V30 15841 N 1466.28 -1.53251 0.367684 0
M  V30 15842 C 1467.5 -2.0618 -0.224645 0
M  V30 15843 C 1467.93 -1.23927 -1.41505 0
M  V30 15844 O 1467.28 -0.258858 -1.79443 0
M  V30 15845 C 1467.33 -3.55671 -0.594171 0
M  V30 15846 O 1466.44 -3.76132 -1.69112 0
M  V30 15847 H 1465.78 -0.663218 -0.0322099 0
M  V30 15848 H 1468.31 -1.97646 0.528897 0
M  V30 15849 H 1468.32 -3.98734 -0.864589 0
M  V30 15850 H 1466.99 -4.14982 0.276254 0
M  V30 15851 H 1465.57 -3.44965 -1.41609 0
M  V30 15852 N 1467.75 -0.0969077 -1.57302 0
M  V30 15853 C 1469 0.565254 -1.94034 0
M  V30 15854 C 1469.32 1.68609 -0.9796 0
M  V30 15855 O 1468.59 1.95874 -0.0319788 0
M  V30 15856 H 1467.17 0.211796 -0.716346 0
M  V30 15857 H 1469.83 -0.160665 -1.94237 0
M  V30 15858 H 1468.93 0.974268 -2.96504 0
M  V30 15859 N 1469.23 1.56605 0.176793 0
M  V30 15860 C 1470.16 1.99014 1.2213 0
M  V30 15861 C 1471.14 0.86487 1.46472 0
M  V30 15862 O 1472.33 1.13055 1.57899 0
M  V30 15863 C 1469.46 2.34534 2.56146 0
M  V30 15864 C 1468.41 3.4997 2.46384 0
M  V30 15865 C 1467.74 3.71217 3.8484 0
M  V30 15866 C 1469.04 4.83592 1.97323 0
M  V30 15867 H 1470.73 2.86517 0.8688 0
M  V30 15868 H 1468.28 1.37846 0.416481 0
M  V30 15869 H 1470.23 2.62799 3.29416 0
M  V30 15870 H 1468.95 1.43933 2.93174 0
M  V30 15871 H 1467.61 3.21824 1.75569 0
M  V30 15872 H 1467.26 2.77916 4.19251 0
M  V30 15873 H 1466.96 4.48885 3.79178 0
M  V30 15874 H 1468.49 4.01877 4.59704 0
M  V30 15875 H 1469.9 5.10768 2.60363 0
M  V30 15876 H 1468.3 5.64858 2.02622 0
M  V30 15877 H 1469.37 4.75951 0.927275 0
M  V30 15878 N 1470.71 -0.445159 1.51182 0
M  V30 15879 C 1471.67 -1.52224 1.71349 0
M  V30 15880 C 1472.67 -1.49834 0.583632 0
M  V30 15881 O 1473.86 -1.51995 0.85107 0
M  V30 15882 C 1470.99 -2.91789 1.76273 0
M  V30 15883 H 1472.19 -1.35649 2.67468 0
M  V30 15884 H 1469.74 -0.673312 1.41054 0
M  V30 15885 H 1470.48 -3.13777 0.819405 0
M  V30 15886 H 1470.26 -2.94928 2.58379 0
M  V30 15887 H 1471.75 -3.69938 1.93741 0
M  V30 15888 N 1472.19 -1.41197 -0.700089 0
M  V30 15889 C 1473.44 -1.40034 -1.45722 0
M  V30 15890 C 1473.76 -0.00876281 -1.94998 0
M  V30 15891 O 1473.03 0.948647 -1.71399 0
M  V30 15892 H 1471.61 -0.515433 -0.540683 0
M  V30 15893 H 1474.27 -1.76394 -0.828926 0
M  V30 15894 H 1473.36 -2.08477 -2.32258 0
M  V30 15895 N 1473.67 0.933891 -1.2695 0
M  V30 15896 C 1474.91 1.67759 -1.12701 0
M  V30 15897 C 1475.23 1.92207 0.328848 0
M  V30 15898 O 1474.5 1.52394 1.23097 0
M  V30 15899 H 1473.08 0.621729 -0.41408 0
M  V30 15900 H 1475.75 1.1217 -1.59386 0
M  V30 15901 H 1474.84 2.64834 -1.65135 0
M  V30 15902 N 1475.14 1.08871 1.13951 0
M  V30 15903 C 1476.07 0.744715 2.21306 0
M  V30 15904 C 1477.05 -0.275019 1.67862 0
M  V30 15905 O 1478.24 -0.144339 1.93663 0
M  V30 15906 C 1475.37 0.158336 3.46939 0
M  V30 15907 C 1474.32 1.10695 4.13438 0
M  V30 15908 C 1473.65 0.382552 5.3333 0
M  V30 15909 C 1474.95 2.44704 4.61429 0
M  V30 15910 H 1476.64 1.6423 2.50337 0
M  V30 15911 H 1474.19 0.791088 1.20324 0
M  V30 15912 H 1476.14 -0.0943587 4.21294 0
M  V30 15913 H 1474.87 -0.774413 3.17286 0
M  V30 15914 H 1473.53 1.34482 3.41043 0
M  V30 15915 H 1473.17 -0.554153 4.99938 0
M  V30 15916 H 1472.87 1.01499 5.78767 0
M  V30 15917 H 1474.4 0.138023 6.10444 0
M  V30 15918 H 1475.81 2.25156 5.27236 0
M  V30 15919 H 1474.21 3.03684 5.17586 0
M  V30 15920 H 1475.28 3.05883 3.76249 0
M  V30 15921 N 1476.62 -1.31073 0.875073 0
M  V30 15922 C 1477.9 -1.91276 0.409015 0
M  V30 15923 C 1478.28 -1.79599 -1.10939 0
M  V30 15924 O 1477.63 -1.2069 -1.94026 0
M  V30 15925 C 1477.84 -3.373 0.896074 0
M  V30 15926 C 1479.18 -4.14397 0.925205 0
M  V30 15927 O 1480.21 -3.46104 0.842069 0
M  V30 15928 O 1479.07 -5.36389 1.0464 0
M  V30 15929 H 1476.16 -0.817755 0.12331 0
M  V30 15930 H 1478.71 -1.39708 0.963322 0
M  V30 15931 H 1477.48 -3.39837 1.93975 0
M  V30 15932 H 1477.1 -3.96307 0.320367 0
M  V30 15933 N 1478.1 -0.635022 -1.4424 0
M  V30 15934 C 1479.01 0.0686832 -2.34499 0
M  V30 15935 C 1480.03 0.831574 -1.52843 0
M  V30 15936 O 1481.2 0.782954 -1.85558 0
M  V30 15937 C 1478.27 1.03543 -3.30877 0
M  V30 15938 C 1477.33 0.271484 -4.28441 0
M  V30 15939 C 1476.56 1.19218 -5.20214 0
M  V30 15940 O 1476.78 2.43101 -5.16002 0
M  V30 15941 O 1475.72 0.6744 -5.9811 0
M  V30 15942 H 1479.54 -0.673781 -2.96132 0
M  V30 15943 H 1477.13 -0.395211 -1.44078 0
M  V30 15944 H 1479.01 1.59151 -3.90191 0
M  V30 15945 H 1477.69 1.75844 -2.71773 0
M  V30 15946 H 1476.59 -0.327736 -3.72662 0
M  V30 15947 H 1477.93 -0.411584 -4.90476 0
M  V30 15948 N 1479.58 1.53054 -0.375806 0
M  V30 15949 C 1480.54 2.24666 0.453608 0
M  V30 15950 C 1481.54 1.25816 1.00135 0
M  V30 15951 O 1482.73 1.50016 0.885481 0
M  V30 15952 C 1479.86 2.99131 1.63503 0
M  V30 15953 H 1481.06 2.994 -0.173172 0
M  V30 15954 H 1478.61 1.55778 -0.127673 0
M  V30 15955 H 1479.34 2.28666 2.29962 0
M  V30 15956 H 1479.13 3.71671 1.24913 0
M  V30 15957 H 1480.62 3.53542 2.22256 0
M  V30 15958 N 1481.06 0.105248 1.57248 0
M  V30 15959 C 1482.33 -0.598871 1.86207 0
M  V30 15960 C 1482.71 -1.85698 1.00396 0
M  V30 15961 O 1482.06 -2.28363 0.0791093 0
M  V30 15962 C 1482.27 -0.904522 3.37075 0
M  V30 15963 C 1483.62 -1.26357 4.05363 0
M  V30 15964 O 1484.64 -0.99522 3.42014 0
M  V30 15965 O 1483.5 -1.76659 5.17159 0
M  V30 15966 H 1480.6 -0.300727 0.770384 0
M  V30 15967 H 1483.14 0.138713 1.69132 0
M  V30 15968 H 1481.91 -0.0123974 3.91298 0
M  V30 15969 H 1481.54 -1.69774 3.59531 0
M  V30 15970 N 1482.53 -1.56697 -0.168486 0
M  V30 15971 C 1483.76 -1.86292 -0.900152 0
M  V30 15972 C 1484.18 -0.690968 -1.75702 0
M  V30 15973 O 1483.53 0.339855 -1.79308 0
M  V30 15974 C 1483.59 -3.14946 -1.77457 0
M  V30 15975 O 1483.31 -4.27625 -0.952267 0
M  V30 15976 C 1484.81 -3.57908 -2.61566 0
M  V30 15977 H 1482.03 -0.618003 -0.261369 0
M  V30 15978 H 1484.57 -2.03811 -0.16773 0
M  V30 15979 H 1482.73 -2.99246 -2.4603 0
M  V30 15980 H 1483.14 -5.01057 -1.55056 0
M  V30 15981 H 1484.61 -4.50823 -3.18532 0
M  V30 15982 H 1485.09 -2.82162 -3.36573 0
M  V30 15983 H 1485.7 -3.7623 -1.98321 0
M  V30 15984 N 1484.01 0.437135 -1.51416 0
M  V30 15985 C 1485.42 1.01699 -1.5657 0
M  V30 15986 C 1485.77 1.92299 -0.389291 0
M  V30 15987 O 1484.9 2.10689 0.49389 0
M  V30 15988 C 1485.49 1.85119 -2.83754 0
M  V30 15989 C 1484.05 2.38154 -2.91478 0
M  V30 15990 C 1483.2 1.17374 -2.51234 0
M  V30 15991 H 1486.15 0.218399 -1.5719 0
M  V30 15992 H 1486.17 2.70572 -2.67528 0
M  V30 15993 H 1485.68 1.19153 -3.69357 0
M  V30 15994 H 1483.79 3.07575 -2.10306 0
M  V30 15995 H 1483.9 2.70937 -3.95133 0
M  V30 15996 H 1482.26 1.51913 -2.04437 0
M  V30 15997 H 1483.05 0.530176 -3.39181 0
M  V30 15998 N 1485.49 1.41566 0.692592 0
M  V30 15999 C 1486.42 1.46423 1.81886 0
M  V30 16000 C 1487.4 0.32258 1.67013 0
M  V30 16001 O 1488.59 0.534437 1.86701 0
M  V30 16002 C 1485.72 1.3486 3.20047 0
M  V30 16003 C 1484.67 2.46867 3.49629 0
M  V30 16004 C 1484 2.20369 4.87177 0
M  V30 16005 C 1485.3 3.89205 3.48306 0
M  V30 16006 H 1486.99 2.40683 1.78079 0
M  V30 16007 H 1484.54 1.15845 0.855334 0
M  V30 16008 H 1486.49 1.36869 3.98553 0
M  V30 16009 H 1485.21 0.370859 3.24488 0
M  V30 16010 H 1483.87 2.44146 2.73475 0
M  V30 16011 H 1483.52 1.20931 4.88247 0
M  V30 16012 H 1483.22 2.95426 5.07934 0
M  V30 16013 H 1484.74 2.24099 5.6799 0
M  V30 16014 H 1486.16 3.93626 4.16811 0
M  V30 16015 H 1484.56 4.63969 3.80595 0
M  V30 16016 H 1485.63 4.17144 2.47222 0
M  V30 16017 N 1486.97 -0.927146 1.27443 0
M  V30 16018 C 1488.21 -1.67738 1.13982 0
M  V30 16019 C 1488.55 -1.91653 -0.313511 0
M  V30 16020 O 1487.82 -1.50729 -1.22926 0
M  V30 16021 C 1488.11 -3.04357 1.92454 0
M  V30 16022 C 1487.96 -2.8768 3.45775 0
M  V30 16023 C 1489.28 -4.04696 1.72944 0
M  V30 16024 H 1486.4 -0.608749 0.415444 0
M  V30 16025 H 1489.04 -1.07587 1.56605 0
M  V30 16026 H 1487.19 -3.55702 1.56232 0
M  V30 16027 H 1488.86 -2.43449 3.9183 0
M  V30 16028 H 1487.1 -2.23011 3.72087 0
M  V30 16029 H 1487.77 -3.8464 3.95924 0
M  V30 16030 H 1490.25 -3.62364 2.04528 0
M  V30 16031 H 1489.13 -4.98276 2.30243 0
M  V30 16032 H 1489.39 -4.36878 0.677505 0
M  V30 16033 N 1488.45 -1.09474 -1.13372 0
M  V30 16034 C 1489.38 -0.756441 -2.20908 0
M  V30 16035 C 1490.36 0.266113 -1.68006 0
M  V30 16036 O 1491.54 0.134067 -1.93737 0
M  V30 16037 C 1488.67 -0.176733 -3.4685 0
M  V30 16038 C 1487.63 -1.12886 -4.12845 0
M  V30 16039 C 1486.95 -0.410831 -5.33119 0
M  V30 16040 C 1488.25 -2.47148 -4.60125 0
M  V30 16041 H 1489.95 -1.65555 -2.49463 0
M  V30 16042 H 1487.49 -0.797458 -1.19902 0
M  V30 16043 H 1489.45 0.0720151 -4.21338 0
M  V30 16044 H 1488.17 0.757576 -3.17692 0
M  V30 16045 H 1486.83 -1.36289 -3.40325 0
M  V30 16046 H 1486.48 0.527632 -5.00225 0
M  V30 16047 H 1486.18 -1.04567 -5.78221 0
M  V30 16048 H 1487.7 -0.170394 -6.10362 0
M  V30 16049 H 1489.11 -2.27949 -5.26034 0
M  V30 16050 H 1487.51 -3.06425 -5.15969 0
M  V30 16051 H 1488.58 -3.07874 -3.74622 0
M  V30 16052 N 1489.92 1.30607 -0.882012 0
M  V30 16053 C 1491.34 1.78418 -0.549892 0
M  V30 16054 C 1491.69 1.72553 0.933797 0
M  V30 16055 O 1490.81 1.30058 1.72956 0
M  V30 16056 C 1491.41 3.2397 -0.991398 0
M  V30 16057 C 1489.97 3.69629 -0.710739 0
M  V30 16058 C 1489.11 2.51127 -1.17602 0
M  V30 16059 H 1492.06 1.17519 -1.06653 0
M  V30 16060 H 1492.08 3.79159 -0.319115 0
M  V30 16061 H 1491.6 3.28207 -2.07128 0
M  V30 16062 H 1489.7 3.70883 0.357273 0
M  V30 16063 H 1489.81 4.61232 -1.29621 0
M  V30 16064 H 1488.17 2.47642 -0.595444 0
M  V30 16065 H 1488.96 2.58103 -2.26358 0
M  V30 16066 N 1491.4 0.642663 1.43901 0
M  V30 16067 C 1492.35 -0.0774542 2.27868 0
M  V30 16068 C 1493.34 -0.805028 1.39313 0
M  V30 16069 O 1494.53 -0.689234 1.63029 0
M  V30 16070 C 1491.66 -1.05046 3.26834 0
M  V30 16071 C 1490.74 -0.321911 4.22877 0
M  V30 16072 N 1491.13 0.655802 5.01531 0
M  V30 16073 C 1489.43 -0.5648 4.42409 0
M  V30 16074 C 1490.13 1.08729 5.71448 0
M  V30 16075 N 1489.11 0.423699 5.41946 0
M  V30 16076 H 1492.91 0.672951 2.86092 0
M  V30 16077 H 1490.43 0.469088 1.55478 0
M  V30 16078 H 1492.42 -1.58106 3.85756 0
M  V30 16079 H 1491.08 -1.80104 2.70171 0
M  V30 16080 H 1492.09 1.0341 5.07471 0
M  V30 16081 H 1488.77 -1.29736 3.96831 0
M  V30 16082 H 1490.16 1.89569 6.44603 0
M  V30 16083 N 1492.88 -1.52852 0.383918 0
M  V30 16084 C 1494.29 -1.86477 -0.0912997 0
M  V30 16085 C 1494.64 -1.30382 -1.46611 0
M  V30 16086 O 1493.77 -0.633042 -2.06934 0
M  V30 16087 C 1494.36 -3.38361 -0.172447 0
M  V30 16088 C 1492.92 -3.71716 -0.591948 0
M  V30 16089 C 1492.07 -2.76176 0.24945 0
M  V30 16090 H 1495.02 -1.46839 0.602006 0
M  V30 16091 H 1495.04 -3.67325 -0.992603 0
M  V30 16092 H 1494.55 -3.79158 0.8283 0
M  V30 16093 H 1492.65 -3.36486 -1.60026 0
M  V30 16094 H 1492.77 -4.77792 -0.353835 0
M  V30 16095 H 1491.13 -2.53106 -0.284469 0
M  V30 16096 H 1491.91 -3.19809 1.24808 0
M  V30 16097 N 1494.36 -0.113586 -1.5719 0
M  V30 16098 C 1495.27 0.852428 -2.18565 0
M  V30 16099 C 1496.29 1.29668 -1.16026 0
M  V30 16100 O 1497.46 1.36079 -1.48474 0
M  V30 16101 C 1494.53 2.08675 -2.76867 0
M  V30 16102 C 1493.59 1.69493 -3.94424 0
M  V30 16103 C 1492.82 2.87042 -4.49936 0
M  V30 16104 O 1493.04 4.02311 -4.04354 0
M  V30 16105 O 1491.98 2.64439 -5.40699 0
M  V30 16106 H 1495.8 0.360144 -3.01557 0
M  V30 16107 H 1493.39 0.111744 -1.48982 0
M  V30 16108 H 1495.27 2.80976 -3.14054 0
M  V30 16109 H 1493.95 2.5692 -1.9691 0
M  V30 16110 H 1492.85 0.943161 -3.62016 0
M  V30 16111 H 1494.19 1.25995 -4.758 0
M  V30 16112 N 1495.84 1.56784 0.160173 0
M  V30 16113 C 1496.77 2.00298 1.20012 0
M  V30 16114 C 1497.75 0.880356 1.45546 0
M  V30 16115 O 1498.93 1.14724 1.56691 0
M  V30 16116 C 1496.06 2.37238 2.53645 0
M  V30 16117 C 1495.02 3.52563 2.42658 0
M  V30 16118 C 1494.34 3.75278 3.80881 0
M  V30 16119 C 1495.64 4.85657 1.92183 0
M  V30 16120 H 1497.34 2.87423 0.838362 0
M  V30 16121 H 1494.88 1.3828 0.401838 0
M  V30 16122 H 1496.84 2.66278 3.2661 0
M  V30 16123 H 1495.56 1.47035 2.9163 0
M  V30 16124 H 1494.22 3.23669 1.72146 0
M  V30 16125 H 1493.87 2.82347 4.1628 0
M  V30 16126 H 1493.57 4.52882 3.74396 0
M  V30 16127 H 1495.09 4.0673 4.55415 0
M  V30 16128 H 1496.51 5.13501 2.54931 0
M  V30 16129 H 1494.9 5.66975 1.96619 0
M  V30 16130 H 1495.97 4.76908 0.876742 0
M  V30 16131 N 1497.32 -0.429099 1.51646 0
M  V30 16132 C 1498.23 -1.54648 1.76412 0
M  V30 16133 C 1499.24 -1.61455 0.648703 0
M  V30 16134 O 1500.42 -1.78544 0.931888 0
M  V30 16135 C 1497.48 -2.90562 1.89142 0
M  V30 16136 C 1496.54 -2.93804 3.13014 0
M  V30 16137 C 1495.78 -4.23235 3.25127 0
M  V30 16138 O 1496 -5.1606 2.42979 0
M  V30 16139 O 1494.93 -4.32929 4.18158 0
M  V30 16140 H 1498.76 -1.36661 2.71215 0
M  V30 16141 H 1496.34 -0.612946 1.36247 0
M  V30 16142 H 1498.23 -3.7121 1.99453 0
M  V30 16143 H 1496.9 -3.08659 0.975272 0
M  V30 16144 H 1495.81 -2.12082 3.08175 0
M  V30 16145 H 1497.14 -2.80654 4.04344 0
M  V30 16146 N 1498.79 -1.41931 -0.685074 0
M  V30 16147 C 1500.04 -1.42062 -1.44728 0
M  V30 16148 C 1500.37 -0.0332072 -1.94172 0
M  V30 16149 O 1499.65 0.940835 -1.70231 0
M  V30 16150 C 1499.93 -2.43634 -2.65168 0
M  V30 16151 C 1499.78 -3.91525 -2.21423 0
M  V30 16152 C 1501.1 -2.42325 -3.67378 0
M  V30 16153 H 1498.22 -0.517321 -0.524927 0
M  V30 16154 H 1500.86 -1.73277 -0.779419 0
M  V30 16155 H 1499.01 -2.17146 -3.22149 0
M  V30 16156 H 1500.69 -4.28956 -1.69689 0
M  V30 16157 H 1498.93 -4.05886 -1.53099 0
M  V30 16158 H 1499.6 -4.58158 -3.07889 0
M  V30 16159 H 1502.08 -2.65857 -3.20093 0
M  V30 16160 H 1500.95 -3.15391 -4.49243 0
M  V30 16161 H 1501.21 -1.44555 -4.17799 0
M  V30 16162 N 1500.27 0.920374 -1.27933 0
M  V30 16163 C 1501.52 1.66554 -1.14474 0
M  V30 16164 C 1501.84 1.92545 0.308444 0
M  V30 16165 O 1501.11 1.53691 1.21473 0
M  V30 16166 H 1499.69 0.617302 -0.420651 0
M  V30 16167 H 1502.35 1.10473 -1.60567 0
M  V30 16168 H 1501.45 2.63067 -1.67935 0
M  V30 16169 N 1501.75 1.10074 1.1279 0
M  V30 16170 C 1502.7 0.746173 2.18405 0
M  V30 16171 C 1503.67 -0.275751 1.63795 0
M  V30 16172 O 1504.85 -0.155876 1.90162 0
M  V30 16173 C 1501.99 0.180105 3.4463 0
M  V30 16174 C 1501.1 1.25688 4.13312 0
M  V30 16175 C 1500.24 0.652852 5.27173 0
M  V30 16176 C 1499.28 1.71046 5.87716 0
M  V30 16177 N 1498.42 1.12698 6.92996 0
M  V30 16178 H 1503.26 1.65105 2.48081 0
M  V30 16179 H 1500.79 0.824768 1.21803 0
M  V30 16180 H 1502.75 -0.165948 4.1687 0
M  V30 16181 H 1501.38 -0.688014 3.15383 0
M  V30 16182 H 1500.43 1.72011 3.39288 0
M  V30 16183 H 1501.74 2.05762 4.54382 0
M  V30 16184 H 1500.9 0.25603 6.0616 0
M  V30 16185 H 1499.64 -0.17937 4.8737 0
M  V30 16186 H 1498.64 2.11676 5.07418 0
M  V30 16187 H 1499.87 2.54547 6.29589 0
M  V30 16188 H 1497.81 0.316154 6.55238 0
M  V30 16189 H 1497.73 1.86461 7.32645 0
M  V30 16190 H 1499 0.756582 7.7582 0
M  V30 16191 N 1503.23 -1.30138 0.888926 0
M  V30 16192 C 1504.18 -2.25598 0.33005 0
M  V30 16193 C 1505.16 -1.51434 -0.543751 0
M  V30 16194 O 1506.35 -1.72706 -0.387529 0
M  V30 16195 C 1503.48 -3.40326 -0.450925 0
M  V30 16196 C 1502.57 -4.21841 0.437187 0
M  V30 16197 N 1502.96 -4.81803 1.53947 0
M  V30 16198 C 1501.26 -4.45391 0.233015 0
M  V30 16199 C 1501.96 -5.42907 2.0887 0
M  V30 16200 N 1500.93 -5.25709 1.38314 0
M  V30 16201 H 1504.74 -2.6951 1.17224 0
M  V30 16202 H 1502.25 -1.44623 0.738771 0
M  V30 16203 H 1504.25 -4.07764 -0.867971 0
M  V30 16204 H 1502.91 -2.97953 -1.2905 0
M  V30 16205 H 1503.92 -4.80904 1.92229 0
M  V30 16206 H 1500.6 -4.13603 -0.569074 0
M  V30 16207 H 1501.99 -6.00478 3.01457 0
M  V30 16208 N 1504.71 -0.650285 -1.43559 0
M  V30 16209 C 1505.95 -0.162725 -2.02146 0
M  V30 16210 C 1506.28 1.21911 -1.51166 0
M  V30 16211 O 1505.56 1.81329 -0.703563 0
M  V30 16212 C 1505.84 -0.170356 -3.59697 0
M  V30 16213 C 1505.7 -1.5859 -4.20915 0
M  V30 16214 C 1507.01 0.494831 -4.37309 0
M  V30 16215 H 1504.13 -0.0606055 -0.734504 0
M  V30 16216 H 1506.78 -0.830411 -1.70892 0
M  V30 16217 H 1504.93 0.39819 -3.86454 0
M  V30 16218 H 1506.6 -2.20481 -4.05199 0
M  V30 16219 H 1504.84 -2.13407 -3.77677 0
M  V30 16220 H 1505.51 -1.54312 -5.29992 0
M  V30 16221 H 1507.99 0.0111281 -4.16099 0
M  V30 16222 H 1506.86 0.458753 -5.4698 0
M  V30 16223 H 1507.12 1.56846 -4.13342 0
M  V30 16224 N 1506.18 1.52647 -0.392018 0
M  V30 16225 C 1507.43 2.01912 0.18958 0
M  V30 16226 C 1507.76 1.27786 1.46234 0
M  V30 16227 O 1507.04 0.379124 1.90769 0
M  V30 16228 C 1507.32 3.57217 0.454734 0
M  V30 16229 C 1507.17 4.4201 -0.833501 0
M  V30 16230 C 1508.49 4.22146 1.24421 0
M  V30 16231 H 1505.61 0.733909 0.0674281 0
M  V30 16232 H 1508.25 1.82685 -0.52212 0
M  V30 16233 H 1506.4 3.73731 1.06101 0
M  V30 16234 H 1508.08 4.37242 -1.47027 0
M  V30 16235 H 1506.32 4.08912 -1.44823 0
M  V30 16236 H 1506.99 5.48701 -0.602585 0
M  V30 16237 H 1509.47 4.09627 0.731093 0
M  V30 16238 H 1508.34 5.30786 1.39848 0
M  V30 16239 H 1508.6 3.7996 2.26016 0
M  V30 16240 N 1507.66 0.121921 1.57128 0
M  V30 16241 C 1508.59 -0.823788 2.18486 0
M  V30 16242 C 1509.57 -1.27519 1.12574 0
M  V30 16243 O 1510.76 -1.33727 1.40822 0
M  V30 16244 C 1507.89 -2.07284 2.78659 0
M  V30 16245 C 1506.84 -1.75912 3.90178 0
M  V30 16246 C 1506.17 -3.07871 4.37172 0
M  V30 16247 C 1507.47 -1.02517 5.1214 0
M  V30 16248 H 1509.16 -0.312488 2.97765 0
M  V30 16249 H 1506.71 -0.148862 1.43228 0
M  V30 16250 H 1508.66 -2.73903 3.20242 0
M  V30 16251 H 1507.39 -2.60743 1.96673 0
M  V30 16252 H 1506.04 -1.11681 3.49174 0
M  V30 16253 H 1505.69 -3.59271 3.52041 0
M  V30 16254 H 1505.39 -2.87653 5.12376 0
M  V30 16255 H 1506.92 -3.75604 4.81409 0
M  V30 16256 H 1508.33 -1.59295 5.50725 0
M  V30 16257 H 1506.73 -0.923836 5.92946 0
M  V30 16258 H 1507.8 -0.0124219 4.84898 0
M  V30 16259 N 1509.14 -1.56867 -0.151857 0
M  V30 16260 C 1510.37 -1.87237 -0.880343 0
M  V30 16261 C 1510.78 -0.709565 -1.74959 0
M  V30 16262 O 1510.14 0.320818 -1.79658 0
M  V30 16263 C 1510.19 -3.16811 -1.74107 0
M  V30 16264 O 1509.91 -4.28611 -0.906858 0
M  V30 16265 C 1511.41 -3.60662 -2.57755 0
M  V30 16266 H 1508.63 -0.62074 -0.254799 0
M  V30 16267 H 1511.18 -2.03977 -0.146104 0
M  V30 16268 H 1509.33 -3.01838 -2.42842 0
M  V30 16269 H 1509.75 -5.02673 -1.49733 0
M  V30 16270 H 1511.22 -4.54176 -3.13732 0
M  V30 16271 H 1511.7 -2.85716 -3.33561 0
M  V30 16272 H 1512.3 -3.78312 -1.94319 0
M  V30 16273 N 1510.62 0.421051 -1.51871 0
M  V30 16274 C 1511.53 1.5371 -1.7723 0
M  V30 16275 C 1512.54 1.61109 -0.657256 0
M  V30 16276 O 1513.72 1.78047 -0.941343 0
M  V30 16277 C 1510.79 2.89555 -1.9068 0
M  V30 16278 C 1509.85 2.9214 -3.14567 0
M  V30 16279 C 1509.08 4.21505 -3.27367 0
M  V30 16280 O 1509.3 5.14764 -2.45712 0
M  V30 16281 O 1508.24 4.30706 -4.20448 0
M  V30 16282 H 1512.06 1.35221 -2.71935 0
M  V30 16283 H 1509.65 0.605712 -1.3657 0
M  V30 16284 H 1511.53 3.70147 -2.01418 0
M  V30 16285 H 1510.2 3.08137 -0.991627 0
M  V30 16286 H 1509.11 2.10444 -3.09296 0
M  V30 16287 H 1510.44 2.78505 -4.05827 0
M  V30 16288 N 1512.1 1.42293 0.677538 0
M  V30 16289 C 1513.03 1.41503 1.80304 0
M  V30 16290 C 1514.04 0.314499 1.59733 0
M  V30 16291 O 1515.23 0.57741 1.68903 0
M  V30 16292 C 1512.33 1.18879 3.17366 0
M  V30 16293 C 1511.5 2.41314 3.6481 0
M  V30 16294 C 1510.56 2.14277 4.80595 0
M  V30 16295 O 1509.59 2.87457 4.91281 0
M  V30 16296 N 1510.79 1.14419 5.69112 0
M  V30 16297 H 1513.56 2.38515 1.81468 0
M  V30 16298 H 1511.12 1.37137 0.860529 0
M  V30 16299 H 1513.11 0.987135 3.92476 0
M  V30 16300 H 1511.68 0.304002 3.11118 0
M  V30 16301 H 1510.9 2.77066 2.80407 0
M  V30 16302 H 1512.19 3.2285 3.9325 0
M  V30 16303 H 1511.58 0.53888 5.63127 0
M  V30 16304 H 1510.14 1.00241 6.44046 0
M  V30 16305 N 1513.57 -0.913576 1.28419 0
M  V30 16306 C 1514.48 -2.04922 1.14211 0
M  V30 16307 C 1515.5 -1.73865 0.0686424 0
M  V30 16308 O 1516.68 -1.99473 0.277968 0
M  V30 16309 C 1513.74 -3.37214 0.805445 0
M  V30 16310 C 1512.8 -3.81879 1.96129 0
M  V30 16311 C 1512.04 -5.07858 1.6406 0
M  V30 16312 O 1512.26 -5.67693 0.555032 0
M  V30 16313 O 1511.19 -5.4824 2.48428 0
M  V30 16314 H 1515.02 -2.19827 2.09547 0
M  V30 16315 H 1512.6 -1.03501 1.0774 0
M  V30 16316 H 1514.49 -4.16639 0.631648 0
M  V30 16317 H 1513.16 -3.23484 -0.118254 0
M  V30 16318 H 1512.07 -3.03281 2.19024 0
M  V30 16319 H 1513.4 -4.00173 2.8657 0
M  V30 16320 N 1515.05 -1.1067 -1.12204 0
M  V30 16321 C 1516.46 -0.867959 -1.65298 0
M  V30 16322 C 1516.81 0.601297 -1.86759 0
M  V30 16323 O 1515.94 1.46153 -1.59588 0
M  V30 16324 C 1516.53 -1.56906 -3.00276 0
M  V30 16325 C 1515.09 -1.37696 -3.5031 0
M  V30 16326 C 1514.24 -1.61688 -2.25282 0
M  V30 16327 H 1517.19 -1.26408 -0.959521 0
M  V30 16328 H 1517.21 -1.00947 -3.66865 0
M  V30 16329 H 1516.72 -2.63838 -2.84625 0
M  V30 16330 H 1514.83 -0.329381 -3.71141 0
M  V30 16331 H 1514.94 -2.12058 -4.29614 0
M  V30 16332 H 1513.3 -1.03977 -2.3251 0
M  V30 16333 H 1514.09 -2.69877 -2.12182 0
M  V30 16334 N 1516.53 1.29665 -0.895815 0
M  V30 16335 C 1517.44 2.31582 -0.375086 0
M  V30 16336 C 1518.46 1.65789 0.528196 0
M  V30 16337 O 1519.63 1.96999 0.41871 0
M  V30 16338 C 1516.7 3.44472 0.39241 0
M  V30 16339 C 1515.76 4.25866 -0.541926 0
M  V30 16340 C 1514.99 5.33365 0.189037 0
M  V30 16341 O 1515.21 5.52607 1.41355 0
M  V30 16342 O 1514.15 6.0009 -0.466441 0
M  V30 16343 H 1517.97 2.78095 -1.22052 0
M  V30 16344 H 1515.56 1.34031 -0.660007 0
M  V30 16345 H 1517.44 4.13214 0.826565 0
M  V30 16346 H 1516.12 3.00074 1.21397 0
M  V30 16347 H 1515.02 3.59781 -1.02512 0
M  V30 16348 H 1516.36 4.73896 -1.32979 0
M  V30 16349 N 1518.01 0.657889 1.43212 0
M  V30 16350 C 1519.26 0.172845 2.0136 0
M  V30 16351 C 1519.58 -1.21911 1.52193 0
M  V30 16352 O 1518.85 -1.81529 0.736492 0
M  V30 16353 H 1517.43 0.0609091 0.744513 0
M  V30 16354 H 1520.09 0.850605 1.75359 0
M  V30 16355 H 1519.19 0.161062 3.11684 0
M  V30 16356 N 1519.49 -1.52437 0.400108 0
M  V30 16357 C 1520.71 -2.0661 -0.180861 0
M  V30 16358 C 1521.14 -1.269 -1.38845 0
M  V30 16359 O 1520.49 -0.296862 -1.78853 0
M  V30 16360 C 1520.54 -3.56851 -0.518595 0
M  V30 16361 O 1519.65 -3.79634 -1.61095 0
M  V30 16362 H 1518.99 -0.663752 -0.0181348 0
M  V30 16363 H 1521.52 -1.96479 0.570702 0
M  V30 16364 H 1521.53 -4.00478 -0.779817 0
M  V30 16365 H 1520.2 -4.14302 0.364216 0
M  V30 16366 H 1518.78 -3.47892 -1.3426 0
M  V30 16367 N 1520.96 -0.130252 -1.57061 0
M  V30 16368 C 1522.19 0.535707 -2.00362 0
M  V30 16369 C 1522.61 1.58712 -1.00956 0
M  V30 16370 O 1521.97 1.81292 0.0171546 0
M  V30 16371 C 1522.02 1.12836 -3.42491 0
M  V30 16372 O 1521.12 2.24367 -3.46025 0
M  V30 16373 H 1520.47 0.132735 -0.650598 0
M  V30 16374 H 1523 -0.222047 -2.03392 0
M  V30 16375 H 1523.01 1.46115 -3.80939 0
M  V30 16376 H 1521.68 0.358304 -4.14354 0
M  V30 16377 H 1520.26 1.92443 -3.19406 0
M  V30 16378 N 1522.44 1.56945 0.143535 0
M  V30 16379 C 1523.35 2.01795 1.1965 0
M  V30 16380 C 1524.37 0.933965 1.4681 0
M  V30 16381 O 1525.55 1.2437 1.58411 0
M  V30 16382 C 1522.61 2.39249 2.5092 0
M  V30 16383 C 1521.67 3.61613 2.31376 0
M  V30 16384 C 1520.9 3.97271 3.56386 0
M  V30 16385 O 1521.13 3.33552 4.62709 0
M  V30 16386 O 1520.06 4.90501 3.48844 0
M  V30 16387 H 1523.89 2.91687 0.845718 0
M  V30 16388 H 1521.47 1.45182 0.352518 0
M  V30 16389 H 1523.35 2.64184 3.28306 0
M  V30 16390 H 1522.03 1.52511 2.85521 0
M  V30 16391 H 1520.94 3.4186 1.51929 0
M  V30 16392 H 1522.27 4.48979 2.01689 0
M  V30 16393 N 1523.92 -0.412991 1.52093 0
M  V30 16394 C 1524.85 -1.52187 1.71382 0
M  V30 16395 C 1525.87 -1.51567 0.594247 0
M  V30 16396 O 1527.06 -1.55902 0.869293 0
M  V30 16397 C 1524.16 -2.91086 1.73557 0
M  V30 16398 C 1523.33 -3.15941 3.0249 0
M  V30 16399 C 1522.39 -4.34692 2.96529 0
M  V30 16400 O 1521.41 -4.3216 3.70441 0
M  V30 16401 N 1522.62 -5.39594 2.14052 0
M  V30 16402 H 1525.38 -1.36036 2.67047 0
M  V30 16403 H 1522.94 -0.602243 1.50282 0
M  V30 16404 H 1524.93 -3.68589 1.67106 0
M  V30 16405 H 1523.5 -3.00714 0.85382 0
M  V30 16406 H 1522.72 -2.26517 3.2262 0
M  V30 16407 H 1524.01 -3.29388 3.87789 0
M  V30 16408 H 1523.41 -5.44498 1.53424 0
M  V30 16409 H 1521.97 -6.15855 2.13461 0
M  V30 16410 N 1525.4 -1.4265 -0.669982 0
M  V30 16411 C 1526.36 -1.46196 -1.7652 0
M  V30 16412 C 1527.36 -0.348884 -1.5697 0
M  V30 16413 O 1528.55 -0.609921 -1.63174 0
M  V30 16414 C 1525.68 -1.29829 -3.1521 0
M  V30 16415 H 1526.88 -2.43718 -1.74762 0
M  V30 16416 H 1524.43 -1.29168 -0.88007 0
M  V30 16417 H 1525.17 -0.332493 -3.22591 0
M  V30 16418 H 1524.95 -2.10501 -3.30804 0
M  V30 16419 H 1526.44 -1.35205 -3.95107 0
M  V30 16420 N 1526.88 0.906753 -1.28902 0
M  V30 16421 C 1527.81 2.02663 -1.15974 0
M  V30 16422 C 1528.79 1.70009 -0.0557202 0
M  V30 16423 O 1529.97 1.92786 -0.233952 0
M  V30 16424 C 1527.1 3.37283 -0.828115 0
M  V30 16425 C 1526.06 3.84123 -1.88767 0
M  V30 16426 C 1525.38 5.15787 -1.40953 0
M  V30 16427 C 1526.68 4.05217 -3.2954 0
M  V30 16428 H 1528.38 2.13738 -2.09658 0
M  V30 16429 H 1525.92 1.02699 -1.0094 0
M  V30 16430 H 1527.88 4.15127 -0.724408 0
M  V30 16431 H 1526.6 3.2628 0.14443 0
M  V30 16432 H 1525.26 3.0849 -1.98065 0
M  V30 16433 H 1524.91 5.01194 -0.425848 0
M  V30 16434 H 1524.61 5.48098 -2.11807 0
M  V30 16435 H 1526.13 5.9618 -1.31918 0
M  V30 16436 H 1527.55 4.73565 -3.23124 0
M  V30 16437 H 1525.94 4.48871 -3.9829 0
M  V30 16438 H 1527.01 3.0979 -3.73039 0
M  V30 16439 N 1528.36 1.11264 1.11616 0
M  V30 16440 C 1529.29 0.79149 2.19676 0
M  V30 16441 C 1530.27 -0.239351 1.68408 0
M  V30 16442 O 1531.45 -0.103228 1.93925 0
M  V30 16443 C 1528.58 0.231891 3.46525 0
M  V30 16444 C 1527.54 1.19439 4.10997 0
M  V30 16445 C 1526.86 0.495593 5.32398 0
M  V30 16446 C 1528.16 2.54437 4.56135 0
M  V30 16447 H 1529.86 1.69503 2.46797 0
M  V30 16448 H 1527.4 0.816433 1.18619 0
M  V30 16449 H 1529.35 -0.00497468 4.214 0
M  V30 16450 H 1528.08 -0.706938 3.18857 0
M  V30 16451 H 1526.74 1.41686 3.38113 0
M  V30 16452 H 1526.39 -0.447984 5.01001 0
M  V30 16453 H 1526.09 1.13753 5.76484 0
M  V30 16454 H 1527.61 0.267476 6.10014 0
M  V30 16455 H 1529.02 2.36289 5.22341 0
M  V30 16456 H 1527.42 3.14595 5.11028 0
M  V30 16457 H 1528.49 3.13795 3.69676 0
M  V30 16458 N 1529.83 -1.29188 0.902679 0
M  V30 16459 C 1531.08 -1.95052 0.529076 0
M  V30 16460 C 1531.4 -1.7149 -0.92824 0
M  V30 16461 O 1530.67 -1.04834 -1.65489 0
M  V30 16462 H 1529.25 -0.721725 0.192671 0
M  V30 16463 H 1531.91 -1.57384 1.14962 0
M  V30 16464 H 1531.01 -3.03819 0.714179 0
M  V30 16465 N 1531.31 -0.665475 -1.42861 0
M  V30 16466 C 1532.26 0.030395 -2.3258 0
M  V30 16467 C 1533.25 0.800329 -1.49302 0
M  V30 16468 O 1534.46 0.709346 -1.65434 0
M  V30 16469 H 1530.83 0.0286201 -0.751455 0
M  V30 16470 H 1532.81 -0.743838 -2.8898 0
M  V30 16471 C 1531.55 0.974474 -3.33765 0
M  V30 16472 H 1530.88 0.391447 -3.97879 0
M  V30 16473 H 1532.32 1.43023 -3.99149 0
M  V30 16474 C 1530.78 2.0764 -2.65306 0
M  V30 16475 O 1531.31 3.16172 -2.47787 0
M  V30 16476 N 1529.51 1.84544 -2.24481 0
M  V30 16477 H 1529.06 0.962826 -2.3893 0
M  V30 16478 H 1529.02 2.58464 -1.79007 0
M  V30 16479 N 1532.79 1.52222 -0.408187 0
M  V30 16480 C 1534.04 2.02102 0.168154 0
M  V30 16481 C 1534.37 1.2933 1.4487 0
M  V30 16482 O 1533.64 0.399336 1.90356 0
M  V30 16483 C 1533.93 3.57679 0.416821 0
M  V30 16484 C 1533.78 4.41101 -0.880335 0
M  V30 16485 C 1535.1 4.23442 1.19936 0
M  V30 16486 H 1532.22 0.734583 0.0596402 0
M  V30 16487 H 1534.86 1.82121 -0.541467 0
M  V30 16488 H 1533.01 3.74835 1.02131 0
M  V30 16489 H 1534.68 4.35658 -1.51656 0
M  V30 16490 H 1532.92 4.07353 -1.49152 0
M  V30 16491 H 1533.6 5.48031 -0.660748 0
M  V30 16492 H 1536.07 4.10379 0.687605 0
M  V30 16493 H 1534.95 5.32239 1.3421 0
M  V30 16494 H 1535.21 3.82335 2.21973 0
M  V30 16495 N 1534.27 0.138579 1.5699 0
M  V30 16496 C 1535.2 -0.835134 2.13444 0
M  V30 16497 C 1536.21 -1.21657 1.08183 0
M  V30 16498 O 1537.4 -1.16211 1.35489 0
M  V30 16499 C 1534.5 -2.13086 2.63529 0
M  V30 16500 C 1533.67 -1.9181 3.931 0
M  V30 16501 C 1532.73 -3.05293 4.28582 0
M  V30 16502 O 1531.76 -2.77351 4.97056 0
M  V30 16503 N 1532.96 -4.32248 3.87482 0
M  V30 16504 H 1535.73 -0.352693 2.97617 0
M  V30 16505 H 1533.29 -0.0452536 1.61837 0
M  V30 16506 H 1535.28 -2.88036 2.84284 0
M  V30 16507 H 1533.85 -2.52619 1.84127 0
M  V30 16508 H 1533.07 -1.00943 3.81057 0
M  V30 16509 H 1534.36 -1.74923 4.77786 0
M  V30 16510 H 1533.76 -4.5782 3.32292 0
M  V30 16511 H 1532.31 -5.04006 4.13305 0
M  V30 16512 N 1535.75 -1.57019 -0.13521 0
M  V30 16513 C 1536.68 -2.02182 -1.16811 0
M  V30 16514 C 1537.66 -0.9034 -1.44127 0
M  V30 16515 O 1538.84 -1.17202 -1.54846 0
M  V30 16516 C 1535.97 -2.41243 -2.49838 0
M  V30 16517 C 1534.93 -3.56379 -2.37018 0
M  V30 16518 C 1534.25 -3.8129 -3.74863 0
M  V30 16519 C 1535.55 -4.88653 -1.84432 0
M  V30 16520 H 1537.25 -2.8872 -0.792529 0
M  V30 16521 H 1534.79 -1.38901 -0.379788 0
M  V30 16522 H 1536.74 -2.7144 -3.22332 0
M  V30 16523 H 1535.47 -1.51656 -2.89254 0
M  V30 16524 H 1534.13 -3.26366 -1.66975 0
M  V30 16525 H 1533.78 -2.88934 -4.11735 0
M  V30 16526 H 1533.48 -4.58781 -3.67143 0
M  V30 16527 H 1535 -4.13924 -4.48887 0
M  V30 16528 H 1536.41 -5.17492 -2.46729 0
M  V30 16529 H 1534.81 -5.70032 -1.87574 0
M  V30 16530 H 1535.88 -4.78242 -0.800759 0
M  V30 16531 N 1537.22 0.404919 -1.52309 0
M  V30 16532 C 1538.5 1.16473 -1.57142 0
M  V30 16533 C 1538.88 2.08094 -0.354967 0
M  V30 16534 O 1538.23 2.18825 0.65788 0
M  V30 16535 C 1538.44 1.93834 -2.90223 0
M  V30 16536 C 1539.79 2.49754 -3.43378 0
M  V30 16537 O 1540.81 2.04009 -2.91991 0
M  V30 16538 O 1539.67 3.33271 -4.3312 0
M  V30 16539 H 1536.76 0.532036 -0.633141 0
M  V30 16540 H 1539.31 0.411359 -1.64639 0
M  V30 16541 H 1538.08 1.2674 -3.70206 0
M  V30 16542 H 1537.71 2.76167 -2.86038 0
M  V30 16543 N 1538.7 1.43003 0.662408 0
M  V30 16544 C 1539.64 1.4189 1.78725 0
M  V30 16545 C 1540.61 0.281515 1.60144 0
M  V30 16546 O 1541.8 0.473677 1.82452 0
M  V30 16547 C 1538.92 1.22166 3.159 0
M  V30 16548 C 1537.97 2.39061 3.53203 0
M  V30 16549 S 1538.8 4.01607 3.54221 0
M  V30 16550 C 1539.96 3.84249 4.94068 0
M  V30 16551 H 1540.19 2.37073 1.79398 0
M  V30 16552 H 1537.73 1.29924 0.834214 0
M  V30 16553 H 1539.68 1.11474 3.95074 0
M  V30 16554 H 1538.34 0.285468 3.128 0
M  V30 16555 H 1537.54 2.21041 4.52943 0
M  V30 16556 H 1537.14 2.46331 2.81419 0
M  V30 16557 H 1539.43 3.46006 5.82483 0
M  V30 16558 H 1540.37 4.83709 5.17138 0
M  V30 16559 H 1540.78 3.16879 4.6717 0
M  V30 16560 N 1540.18 -0.899904 1.29381 0
M  V30 16561 C 1541.43 -1.64712 1.17109 0
M  V30 16562 C 1541.75 -1.93011 -0.277772 0
M  V30 16563 O 1541.02 -1.55604 -1.19013 0
M  V30 16564 H 1539.6 -0.610532 0.430418 0
M  V30 16565 H 1542.26 -1.07905 1.62304 0
M  V30 16566 H 1541.36 -2.60362 1.72098 0
M  V30 16567 N 1541.66 -1.11854 -1.11024 0
M  V30 16568 C 1543.07 -0.853341 -1.34871 0
M  V30 16569 C 1543.27 0.519725 -1.94682 0
M  V30 16570 O 1542.33 1.26966 -2.18256 0
M  V30 16571 C 1543.64 -1.9649 -2.27623 0
M  V30 16572 C 1545.19 -1.99507 -2.41176 0
M  V30 16573 C 1545.67 -3.09879 -3.37253 0
M  V30 16574 N 1547.16 -3.09281 -3.44818 0
M  V30 16575 C 1547.89 -3.91322 -4.19111 0
M  V30 16576 N 1547.39 -4.83337 -4.96344 0
M  V30 16577 N 1549.18 -3.79483 -4.14667 0
M  V30 16578 H 1541.33 -2.00335 -0.70567 0
M  V30 16579 H 1543.6 -0.871431 -0.373245 0
M  V30 16580 H 1543.3 -2.95397 -1.90875 0
M  V30 16581 H 1543.18 -1.86481 -3.27879 0
M  V30 16582 H 1545.56 -1.01223 -2.77196 0
M  V30 16583 H 1545.64 -2.13592 -1.40756 0
M  V30 16584 H 1545.29 -4.08391 -3.01959 0
M  V30 16585 H 1545.22 -2.93033 -4.37537 0
M  V30 16586 H 1547.71 -2.42617 -2.89733 0
M  V30 16587 H 1548.02 -5.42462 -5.50413 0
M  V30 16588 H 1546.37 -4.87356 -4.95489 0
M  V30 16589 H 1549.56 -3.06938 -3.53421 0
M  V30 16590 H 1549.73 -4.43653 -4.72309 0
M  V30 16591 N 1543.14 1.28707 -0.909517 0
M  V30 16592 C 1544.38 1.95443 -0.541281 0
M  V30 16593 C 1544.72 1.71457 0.911934 0
M  V30 16594 O 1543.99 1.03312 1.64794 0
M  V30 16595 C 1544.27 3.50019 -0.846097 0
M  V30 16596 C 1544.13 3.83423 -2.35173 0
M  V30 16597 C 1545.45 4.3879 -0.339328 0
M  V30 16598 H 1542.56 0.709869 -0.198128 0
M  V30 16599 H 1545.21 1.52151 -1.13799 0
M  V30 16600 H 1543.36 3.87025 -0.338262 0
M  V30 16601 H 1545.03 3.5631 -2.92986 0
M  V30 16602 H 1543.27 3.30618 -2.80846 0
M  V30 16603 H 1543.94 4.91348 -2.51557 0
M  V30 16604 H 1546.42 4.08832 -0.774312 0
M  V30 16605 H 1545.29 5.45809 -0.581722 0
M  V30 16606 H 1545.56 4.35514 0.760244 0
M  V30 16607 N 1544.61 0.673042 1.42506 0
M  V30 16608 C 1545.86 0.1918 2.00786 0
M  V30 16609 C 1546.18 -1.20814 1.53829 0
M  V30 16610 O 1547.38 -1.78566 2.04515 0
M  V30 16611 C 1545.84 0.292045 3.58713 0
M  V30 16612 C 1545.45 1.69593 4.14659 0
M  V30 16613 C 1547.19 -0.130575 4.24299 0
M  V30 16614 C 1545.1 1.74904 5.64945 0
M  V30 16615 H 1544.03 0.0679452 0.750932 0
M  V30 16616 H 1546.68 0.837968 1.63249 0
M  V30 16617 H 1545.06 -0.421985 3.93745 0
M  V30 16618 H 1546.23 2.4369 3.9109 0
M  V30 16619 H 1544.55 2.06625 3.61518 0
M  V30 16620 H 1547.15 -0.11102 5.34585 0
M  V30 16621 H 1547.49 -1.16552 3.99651 0
M  V30 16622 H 1548.02 0.532386 3.94221 0
M  V30 16623 H 1544.76 2.76374 5.94388 0
M  V30 16624 H 1544.28 1.0516 5.9051 0
M  V30 16625 H 1545.96 1.50168 6.29332 0
M  V30 16626 N 1546.09 -1.52004 0.416254 0
M  V30 16627 C 1547.32 -2.0679 -0.158937 0
M  V30 16628 C 1547.74 -1.28366 -1.37491 0
M  V30 16629 O 1547.1 -0.315815 -1.78528 0
M  V30 16630 C 1547.15 -3.57381 -0.480717 0
M  V30 16631 O 1546.25 -3.81321 -1.5706 0
M  V30 16632 H 1545.59 -0.663907 -0.0110938 0
M  V30 16633 H 1548.12 -1.95863 0.591509 0
M  V30 16634 H 1548.13 -4.01283 -0.737297 0
M  V30 16635 H 1546.81 -4.13893 0.408137 0
M  V30 16636 H 1545.39 -3.49296 -1.30563 0
M  V30 16637 N 1547.57 -0.146903 -1.56914 0
M  V30 16638 C 1548.5 0.823803 -2.13883 0
M  V30 16639 C 1549.52 1.21081 -1.08826 0
M  V30 16640 O 1550.7 1.15491 -1.36103 0
M  V30 16641 C 1547.8 2.11686 -2.64655 0
M  V30 16642 C 1546.98 1.89723 -3.94112 0
M  V30 16643 C 1546.04 3.03016 -4.30195 0
M  V30 16644 O 1545.06 2.74711 -4.9852 0
M  V30 16645 N 1546.26 4.30187 -3.89768 0
M  V30 16646 H 1549.03 0.336904 -2.978 0
M  V30 16647 H 1546.59 0.0366704 -1.61858 0
M  V30 16648 H 1548.58 2.86525 -2.85807 0
M  V30 16649 H 1547.15 2.51639 -1.85464 0
M  V30 16650 H 1546.37 0.989208 -3.81587 0
M  V30 16651 H 1547.66 1.72387 -4.78707 0
M  V30 16652 H 1547.06 4.56051 -3.34715 0
M  V30 16653 H 1545.62 5.01807 -4.15972 0
M  V30 16654 N 1549.05 1.57088 0.126881 0
M  V30 16655 C 1550.27 1.88984 0.854389 0
M  V30 16656 C 1550.7 0.738037 1.73016 0
M  V30 16657 O 1550.06 -0.311728 1.786 0
M  V30 16658 C 1550.1 3.19584 1.67028 0
M  V30 16659 O 1549.21 3.04935 2.77648 0
M  V30 16660 H 1548.55 0.620354 0.236763 0
M  V30 16661 H 1551.08 2.04295 0.111647 0
M  V30 16662 H 1551.09 3.52109 2.06115 0
M  V30 16663 H 1549.76 4.03012 1.02732 0
M  V30 16664 H 1548.34 2.83861 2.41821 0
M  V30 16665 N 1550.53 -0.396836 1.52522 0
M  V30 16666 C 1551.44 -1.50871 1.79653 0
M  V30 16667 C 1552.45 -1.60043 0.682804 0
M  V30 16668 O 1553.63 -1.76527 0.96955 0
M  V30 16669 C 1550.69 -2.86485 1.95263 0
M  V30 16670 C 1549.75 -2.87099 3.19175 0
M  V30 16671 C 1548.99 -4.16244 3.34031 0
M  V30 16672 O 1549.21 -5.1079 2.5387 0
M  V30 16673 O 1548.14 -4.23962 4.27247 0
M  V30 16674 H 1551.97 -1.30878 2.74052 0
M  V30 16675 H 1549.56 -0.583908 1.37517 0
M  V30 16676 H 1551.44 -3.66895 2.07282 0
M  V30 16677 H 1550.11 -3.0652 1.04052 0
M  V30 16678 H 1549.02 -2.05497 3.12605 0
M  V30 16679 H 1550.35 -2.72014 4.10206 0
M  V30 16680 N 1552.01 -1.43353 -0.654814 0
M  V30 16681 C 1553.42 -1.39933 -1.23595 0
M  V30 16682 C 1553.77 -0.102592 -1.95932 0
M  V30 16683 O 1552.89 0.798021 -2.01148 0
M  V30 16684 C 1553.49 -2.53483 -2.24793 0
M  V30 16685 C 1552.05 -2.53333 -2.78387 0
M  V30 16686 C 1551.19 -2.31268 -1.53005 0
M  V30 16687 H 1554.14 -1.52277 -0.446932 0
M  V30 16688 H 1554.17 -2.2488 -3.06935 0
M  V30 16689 H 1553.68 -3.47847 -1.72116 0
M  V30 16690 H 1551.78 -1.62844 -3.35131 0
M  V30 16691 H 1551.89 -3.51047 -3.26041 0
M  V30 16692 H 1550.26 -1.79905 -1.80295 0
M  V30 16693 H 1551.04 -3.27714 -1.02266 0
M  V30 16694 N 1553.48 0.89303 -1.29857 0
M  V30 16695 C 1554.76 1.62492 -1.08884 0
M  V30 16696 C 1555.14 2.07926 0.364695 0
M  V30 16697 O 1554.49 1.84009 1.35473 0
M  V30 16698 C 1554.7 2.80063 -2.08245 0
M  V30 16699 C 1556.05 3.50589 -2.39526 0
M  V30 16700 O 1557.07 2.90241 -2.06492 0
M  V30 16701 O 1555.93 4.59399 -2.95998 0
M  V30 16702 H 1553.02 0.713805 -0.417626 0
M  V30 16703 H 1555.57 0.940513 -1.41253 0
M  V30 16704 H 1554.34 2.43735 -3.06119 0
M  V30 16705 H 1553.96 3.56205 -1.76645 0
M  V30 16706 N 1554.96 1.12442 1.10429 0
M  V30 16707 C 1555.89 0.814745 2.18824 0
M  V30 16708 C 1556.87 -0.221476 1.68652 0
M  V30 16709 O 1558.06 -0.0826537 1.94024 0
M  V30 16710 C 1555.19 0.268632 3.4626 0
M  V30 16711 C 1554.14 1.23792 4.09707 0
M  V30 16712 C 1553.47 0.552034 5.31843 0
M  V30 16713 C 1554.77 2.5926 4.53411 0
M  V30 16714 H 1556.46 1.72111 2.44986 0
M  V30 16715 H 1554.01 0.828968 1.17746 0
M  V30 16716 H 1555.96 0.0397207 4.21381 0
M  V30 16717 H 1554.68 -0.673079 3.19589 0
M  V30 16718 H 1553.34 1.45264 3.36592 0
M  V30 16719 H 1552.99 -0.394821 5.01448 0
M  V30 16720 H 1552.69 1.19861 5.75245 0
M  V30 16721 H 1554.22 0.332161 6.09696 0
M  V30 16722 H 1555.63 2.41816 5.19806 0
M  V30 16723 H 1554.03 3.19997 5.07663 0
M  V30 16724 H 1555.1 3.17699 3.66327 0
M  V30 16725 N 1556.44 -1.28223 0.91633 0
M  V30 16726 C 1557.66 -1.99523 0.566147 0
M  V30 16727 C 1558.09 -1.68 -0.846034 0
M  V30 16728 O 1557.45 -0.913838 -1.56584 0
M  V30 16729 C 1557.5 -3.51949 0.785114 0
M  V30 16730 O 1556.6 -4.1211 -0.154686 0
M  V30 16731 H 1555.94 -0.626764 0.219232 0
M  V30 16732 H 1558.47 -1.63313 1.23247 0
M  V30 16733 H 1558.48 -4.02016 0.696224 0
M  V30 16734 H 1557.16 -3.74227 1.81457 0
M  V30 16735 H 1555.73 -3.72896 -0.0168463 0
M  V30 16736 N 1557.92 -0.68059 -1.42147 0
M  V30 16737 C 1559.16 -0.209222 -2.03326 0
M  V30 16738 C 1559.52 1.16419 -1.52678 0
M  V30 16739 O 1560.72 1.73055 -2.05683 0
M  V30 16740 C 1558.99 -0.248331 -3.56536 0
M  V30 16741 S 1560.55 0.151186 -4.38539 0
M  V30 16742 H 1557.37 -0.0854956 -0.705841 0
M  V30 16743 H 1559.97 -0.895033 -1.73809 0
M  V30 16744 H 1558.68 -1.25016 -3.90895 0
M  V30 16745 H 1558.21 0.457124 -3.90735 0
M  V30 16746 H 1560.22 1.38301 -4.76537 0
M  V30 16747 N 1559.4 1.51781 -0.424309 0
M  V30 16748 C 1560.64 2.01157 0.147925 0
M  V30 16749 C 1560.96 1.31369 1.44919 0
M  V30 16750 O 1562.16 1.71643 2.10359 0
M  V30 16751 C 1560.62 3.58526 0.31417 0
M  V30 16752 C 1560.23 4.37242 -0.975898 0
M  V30 16753 C 1561.97 4.16088 0.840876 0
M  V30 16754 C 1559.88 5.86287 -0.776009 0
M  V30 16755 H 1558.81 0.751684 0.0590568 0
M  V30 16756 H 1561.46 1.74998 -0.552079 0
M  V30 16757 H 1559.84 3.81077 1.07687 0
M  V30 16758 H 1561.02 4.26444 -1.74592 0
M  V30 16759 H 1559.33 3.9107 -1.43015 0
M  V30 16760 H 1561.93 5.25138 1.0067 0
M  V30 16761 H 1562.27 3.7442 1.81977 0
M  V30 16762 H 1562.8 3.97565 0.136836 0
M  V30 16763 H 1559.54 6.32343 -1.7269 0
M  V30 16764 H 1559.06 5.99783 -0.0455544 0
M  V30 16765 H 1560.74 6.45609 -0.424095 0
M  V30 16766 N 1560.87 0.155222 1.56834 0
M  V30 16767 C 1562.1 -0.500542 2.00754 0
M  V30 16768 C 1562.52 -1.57878 1.03538 0
M  V30 16769 O 1561.87 -1.82469 0.0336651 0
M  V30 16770 C 1561.92 -1.09366 3.4456 0
M  V30 16771 O 1561.65 -0.0584788 4.38061 0
M  V30 16772 C 1563.15 -1.82923 4.038 0
M  V30 16773 H 1560.37 -0.129589 0.658368 0
M  V30 16774 H 1562.91 0.252223 2.02939 0
M  V30 16775 H 1561.07 -1.797 3.43201 0
M  V30 16776 H 1561.48 -0.494125 5.22167 0
M  V30 16777 H 1562.95 -2.19703 5.06394 0
M  V30 16778 H 1563.43 -2.71823 3.44976 0
M  V30 16779 H 1564.04 -1.17268 4.08813 0
M  V30 16780 N 1562.35 -1.57153 -0.118549 0
M  V30 16781 C 1563.31 -1.99438 -1.12947 0
M  V30 16782 C 1564.31 -0.884588 -1.34282 0
M  V30 16783 O 1565.5 -1.15062 -1.30792 0
M  V30 16784 C 1562.64 -2.33492 -2.48384 0
M  V30 16785 H 1563.83 -2.89952 -0.766034 0
M  V30 16786 H 1561.38 -1.5203 -0.362858 0
M  V30 16787 H 1562.12 -1.45859 -2.89647 0
M  V30 16788 H 1561.9 -3.14433 -2.34252 0
M  V30 16789 H 1563.39 -2.66945 -3.21139 0
M  V30 16790 N 1563.83 0.388742 -1.5273 0
M  V30 16791 C 1564.78 1.49531 -1.78166 0
M  V30 16792 C 1565.77 1.56449 -0.649613 0
M  V30 16793 O 1566.98 1.59612 -0.832097 0
M  V30 16794 H 1563.35 0.497684 -0.56375 0
M  V30 16795 H 1565.32 1.25271 -2.70831 0
M  V30 16796 C 1564.07 2.86663 -1.96774 0
M  V30 16797 H 1563.4 2.82089 -2.83312 0
M  V30 16798 H 1564.84 3.63328 -2.18561 0
M  V30 16799 C 1563.29 3.28665 -0.740345 0
M  V30 16800 O 1563.82 4.01616 0.0821005 0
M  V30 16801 N 1562.03 2.84947 -0.570383 0
M  V30 16802 H 1561.58 2.25748 -1.24078 0
M  V30 16803 H 1561.54 3.13408 0.249496 0
M  V30 16804 N 1565.31 1.43698 0.647203 0
M  V30 16805 C 1566.54 1.49085 1.43462 0
M  V30 16806 C 1566.95 0.110605 1.88476 0
M  V30 16807 O 1566.31 -0.880365 1.59862 0
M  V30 16808 C 1566.36 2.44186 2.66562 0
M  V30 16809 O 1566.08 3.76844 2.23429 0
M  V30 16810 C 1567.58 2.58876 3.59858 0
M  V30 16811 H 1564.8 0.506148 0.440517 0
M  V30 16812 H 1567.34 1.88502 0.792931 0
M  V30 16813 H 1565.5 2.07949 3.26858 0
M  V30 16814 H 1565.91 4.2804 3.0312 0
M  V30 16815 H 1567.39 3.29482 4.42883 0
M  V30 16816 H 1567.86 1.63567 4.07606 0
M  V30 16817 H 1568.47 2.95949 3.05441 0
M  V30 16818 N 1566.79 -0.886131 1.30328 0
M  V30 16819 C 1568.06 -1.61912 1.09744 0
M  V30 16820 C 1568.44 -2.08116 -0.353663 0
M  V30 16821 O 1567.79 -1.84725 -1.34495 0
M  V30 16822 C 1568 -2.78954 2.09727 0
M  V30 16823 C 1569.35 -3.49313 2.41382 0
M  V30 16824 O 1570.37 -2.89141 2.08028 0
M  V30 16825 O 1569.23 -4.57823 2.98431 0
M  V30 16826 H 1566.33 -0.71158 0.421406 0
M  V30 16827 H 1568.87 -0.933009 1.4175 0
M  V30 16828 H 1567.64 -2.42109 3.07407 0
M  V30 16829 H 1567.27 -3.55263 1.78532 0
M  V30 16830 N 1568.26 -1.13026 -1.09832 0
M  V30 16831 C 1569.21 -0.803817 -2.1635 0
M  V30 16832 C 1570.18 0.232226 -1.64469 0
M  V30 16833 O 1571.37 0.105403 -1.90509 0
M  V30 16834 C 1568.51 -0.271414 -3.44031 0
M  V30 16835 C 1567.62 -1.36602 -4.09834 0
M  V30 16836 C 1566.75 -0.792393 -5.25257 0
M  V30 16837 C 1565.79 -1.86569 -5.82974 0
M  V30 16838 N 1564.93 -1.31032 -6.89764 0
M  V30 16839 H 1569.77 -1.71624 -2.43617 0
M  V30 16840 H 1567.31 -0.856772 -1.19574 0
M  V30 16841 H 1569.27 0.0553638 -4.17163 0
M  V30 16842 H 1567.9 0.604154 -3.17096 0
M  V30 16843 H 1566.95 -1.80946 -3.34608 0
M  V30 16844 H 1568.26 -2.17737 -4.48767 0
M  V30 16845 H 1567.41 -0.416652 -6.05268 0
M  V30 16846 H 1566.15 0.0500894 -4.87674 0
M  V30 16847 H 1565.16 -2.25054 -5.01628 0
M  V30 16848 H 1566.38 -2.7115 -6.22619 0
M  V30 16849 H 1564.33 -0.489768 -6.54169 0
M  V30 16850 H 1564.25 -2.0582 -7.27444 0
M  V30 16851 H 1565.51 -0.962011 -7.73541 0
M  V30 16852 N 1569.74 1.27735 -0.923117 0
M  V30 16853 C 1570.71 2.25256 -0.423375 0
M  V30 16854 C 1571.71 1.54213 0.455517 0
M  V30 16855 O 1572.9 1.7229 0.257245 0
M  V30 16856 C 1570.03 3.3864 0.391897 0
M  V30 16857 H 1571.22 2.70978 -1.28495 0
M  V30 16858 H 1568.77 1.39579 -0.703378 0
M  V30 16859 H 1569.51 2.98293 1.27248 0
M  V30 16860 H 1569.29 3.91376 -0.238194 0
M  V30 16861 H 1570.78 4.11133 0.732069 0
M  V30 16862 N 1571.22 0.688118 1.41784 0
M  V30 16863 C 1572.45 0.22475 2.05676 0
M  V30 16864 C 1572.86 -1.1232 1.51755 0
M  V30 16865 O 1572.22 -1.70041 0.662735 0
M  V30 16866 C 1572.27 0.165661 3.6112 0
M  V30 16867 O 1571.99 1.46035 4.13044 0
M  V30 16868 C 1573.49 -0.319599 4.42146 0
M  V30 16869 H 1570.71 0.106135 0.662553 0
M  V30 16870 H 1573.26 0.938605 1.81688 0
M  V30 16871 H 1571.41 -0.498968 3.84173 0
M  V30 16872 H 1571.83 1.34252 5.07027 0
M  V30 16873 H 1573.3 -0.30983 5.5113 0
M  V30 16874 H 1573.78 -1.3572 4.17704 0
M  V30 16875 H 1574.38 0.313764 4.24141 0
M  V30 16876 N 1572.7 -1.51554 0.432352 0
M  V30 16877 C 1573.93 -2.06462 -0.1346 0
M  V30 16878 C 1574.34 -1.30027 -1.36889 0
M  V30 16879 O 1573.7 -0.358447 -1.78945 0
M  V30 16880 C 1573.75 -3.58538 -0.461822 0
M  V30 16881 O 1573.47 -4.32085 0.723471 0
M  V30 16882 C 1574.97 -4.29943 -1.07999 0
M  V30 16883 H 1572.19 -0.670923 -0.0101329 0
M  V30 16884 H 1574.74 -1.9519 0.609999 0
M  V30 16885 H 1572.89 -3.6974 -1.15632 0
M  V30 16886 H 1573.3 -5.22611 0.444757 0
M  V30 16887 H 1574.78 -5.37451 -1.25898 0
M  V30 16888 H 1575.26 -3.87912 -2.05963 0
M  V30 16889 H 1575.86 -4.23171 -0.425022 0
M  V30 16890 N 1574.18 -0.163538 -1.56749 0
M  V30 16891 C 1575.09 0.782461 -2.21167 0
M  V30 16892 C 1576.1 1.25911 -1.20093 0
M  V30 16893 O 1577.28 1.31286 -1.52728 0
M  V30 16894 C 1574.34 1.99761 -2.83366 0
M  V30 16895 C 1573.4 1.56859 -3.99617 0
M  V30 16896 C 1572.64 2.72582 -4.58841 0
M  V30 16897 O 1572.86 3.89243 -4.16949 0
M  V30 16898 O 1571.79 2.47104 -5.48838 0
M  V30 16899 H 1575.62 0.264023 -3.0255 0
M  V30 16900 H 1573.21 0.06429 -1.49262 0
M  V30 16901 H 1575.09 2.70843 -3.22835 0
M  V30 16902 H 1573.76 2.50526 -2.04984 0
M  V30 16903 H 1572.67 0.827511 -3.64833 0
M  V30 16904 H 1574 1.10794 -4.79568 0
M  V30 16905 N 1575.65 1.57214 0.110213 0
M  V30 16906 C 1576.88 1.8988 0.834297 0
M  V30 16907 C 1577.3 0.756347 1.72224 0
M  V30 16908 O 1576.66 -0.292768 1.78921 0
M  V30 16909 C 1576.71 3.21338 1.63629 0
M  V30 16910 O 1575.81 3.07862 2.74399 0
M  V30 16911 H 1575.16 0.62283 0.23017 0
M  V30 16912 H 1577.69 2.04402 0.0899726 0
M  V30 16913 H 1577.7 3.54275 2.02369 0
M  V30 16914 H 1576.37 4.04079 0.984521 0
M  V30 16915 H 1574.95 2.8641 2.38797 0
M  V30 16916 N 1577.13 -0.380637 1.52934 0
M  V30 16917 C 1578.36 -1.14583 1.72274 0
M  V30 16918 C 1578.78 -1.83484 0.444864 0
M  V30 16919 O 1578.13 -1.72997 -0.581245 0
M  V30 16920 C 1578.18 -2.18756 2.87799 0
M  V30 16921 O 1577.9 -1.52662 4.10641 0
M  V30 16922 C 1579.41 -3.07938 3.18887 0
M  V30 16923 H 1576.63 -0.343218 0.576578 0
M  V30 16924 H 1579.17 -0.444149 1.99619 0
M  V30 16925 H 1577.32 -2.84546 2.62892 0
M  V30 16926 H 1577.74 -2.21949 4.75225 0
M  V30 16927 H 1579.21 -3.77045 4.03164 0
M  V30 16928 H 1579.69 -3.71913 2.33618 0
M  V30 16929 H 1580.3 -2.47783 3.45664 0
M  V30 16930 N 1578.61 -1.44039 -0.639573 0
M  V30 16931 C 1579.84 -1.50063 -1.43164 0
M  V30 16932 C 1580.26 -0.123906 -1.87691 0
M  V30 16933 O 1579.62 0.885192 -1.58221 0
M  V30 16934 C 1579.67 -2.46305 -2.63375 0
M  V30 16935 O 1578.77 -1.95874 -3.62915 0
M  V30 16936 H 1578.11 -0.507052 -0.428713 0
M  V30 16937 H 1580.64 -1.8909 -0.781415 0
M  V30 16938 H 1580.65 -2.64062 -3.11023 0
M  V30 16939 H 1579.33 -3.46309 -2.3031 0
M  V30 16940 H 1577.9 -1.87844 -3.22132 0
M  V30 16941 N 1580.09 0.879207 -1.30796 0
M  V30 16942 C 1581.33 1.63392 -1.20129 0
M  V30 16943 C 1581.67 1.92684 0.242164 0
M  V30 16944 O 1580.94 1.55188 1.17247 0
M  V30 16945 C 1581.23 2.97005 -2.03618 0
M  V30 16946 C 1581.08 2.74649 -3.56214 0
M  V30 16947 C 1582.4 3.97998 -1.87845 0
M  V30 16948 H 1579.52 0.592911 -0.437751 0
M  V30 16949 H 1582.16 1.017 -1.6049 0
M  V30 16950 H 1580.31 3.49659 -1.69326 0
M  V30 16951 H 1581.98 2.28738 -4.00595 0
M  V30 16952 H 1580.22 2.09048 -3.80107 0
M  V30 16953 H 1580.89 3.69681 -4.09927 0
M  V30 16954 H 1583.37 3.54523 -2.17836 0
M  V30 16955 H 1582.25 4.89388 -2.48578 0
M  V30 16956 H 1582.51 4.34062 -0.839183 0
M  V30 16957 N 1581.57 1.13606 1.09231 0
M  V30 16958 C 1582.8 0.922295 1.85206 0
M  V30 16959 C 1583.21 -0.528954 1.81239 0
M  V30 16960 O 1582.57 -1.36622 1.20999 0
M  V30 16961 C 1582.62 1.40453 3.331 0
M  V30 16962 O 1582.34 2.7989 3.37036 0
M  V30 16963 C 1583.84 1.22948 4.25909 0
M  V30 16964 H 1581.06 0.328757 0.584945 0
M  V30 16965 H 1583.6 1.50911 1.38007 0
M  V30 16966 H 1581.76 0.86066 3.77719 0
M  V30 16967 H 1582.17 3.01342 4.29294 0
M  V30 16968 H 1583.65 1.61562 5.27827 0
M  V30 16969 H 1584.12 0.171387 4.38865 0
M  V30 16970 H 1584.73 1.76147 3.87108 0
M  V30 16971 N 1583.05 -1.27244 0.929878 0
M  V30 16972 C 1584.29 -1.94557 0.572306 0
M  V30 16973 C 1584.62 -1.72886 -0.884542 0
M  V30 16974 O 1583.9 -1.0592 -1.63129 0
M  V30 16975 C 1584.18 -3.48629 0.901675 0
M  V30 16976 C 1584.04 -3.79633 2.41244 0
M  V30 16977 C 1585.35 -4.38195 0.409093 0
M  V30 16978 H 1582.47 -0.706627 0.209397 0
M  V30 16979 H 1585.12 -1.50321 1.16205 0
M  V30 16980 H 1583.27 -3.86437 0.399791 0
M  V30 16981 H 1584.94 -3.51604 2.98618 0
M  V30 16982 H 1583.18 -3.26108 2.8607 0
M  V30 16983 H 1583.85 -4.87284 2.59342 0
M  V30 16984 H 1586.33 -4.07548 0.839256 0
M  V30 16985 H 1585.2 -5.44814 0.668482 0
M  V30 16986 H 1585.46 -4.36669 -0.690861 0
M  V30 16987 N 1584.52 -0.695628 -1.41417 0
M  V30 16988 C 1585.49 -0.0392949 -2.29166 0
M  V30 16989 C 1586.49 0.70789 -1.4438 0
M  V30 16990 O 1587.68 0.542771 -1.65528 0
M  V30 16991 C 1584.81 0.954719 -3.27258 0
M  V30 16992 H 1586 -0.811902 -2.88701 0
M  V30 16993 H 1583.55 -0.459128 -1.49405 0
M  V30 16994 H 1584.29 1.75509 -2.72703 0
M  V30 16995 H 1584.07 0.422079 -3.89822 0
M  V30 16996 H 1585.56 1.41174 -3.93014 0
M  V30 16997 N 1586 1.51322 -0.440383 0
M  V30 16998 C 1587.25 2.01302 0.126581 0
M  V30 16999 C 1587.56 1.32898 1.43518 0
M  V30 17000 O 1588.77 1.73864 2.08527 0
M  V30 17001 C 1587.23 3.58839 0.276126 0
M  V30 17002 C 1586.83 4.36182 -1.02222 0
M  V30 17003 C 1588.58 4.16957 0.796697 0
M  V30 17004 C 1586.48 5.85431 -0.838148 0
M  V30 17005 H 1585.41 0.752268 0.0510809 0
M  V30 17006 H 1588.07 1.74403 -0.570609 0
M  V30 17007 H 1586.45 3.82198 1.03639 0
M  V30 17008 H 1587.62 4.24568 -1.79105 0
M  V30 17009 H 1585.94 3.89531 -1.47155 0
M  V30 17010 H 1588.53 5.26176 0.95095 0
M  V30 17011 H 1588.88 3.76329 1.77996 0
M  V30 17012 H 1589.41 3.97687 0.0946613 0
M  V30 17013 H 1586.15 6.30476 -1.79387 0
M  V30 17014 H 1585.67 5.99701 -0.109167 0
M  V30 17015 H 1587.35 6.45122 -0.492547 0
M  V30 17016 N 1587.48 0.171848 1.5666 0
M  V30 17017 C 1588.89 -0.34479 1.83489 0
M  V30 17018 C 1589.24 -1.63025 1.09167 0
M  V30 17019 O 1588.37 -2.13634 0.34488 0
M  V30 17020 C 1588.96 -0.63234 3.32847 0
M  V30 17021 C 1587.52 -1.09342 3.60169 0
M  V30 17022 C 1586.67 -0.129569 2.76997 0
M  V30 17023 H 1589.62 0.396101 1.53677 0
M  V30 17024 H 1589.64 -1.48434 3.50354 0
M  V30 17025 H 1589.15 0.303409 3.86912 0
M  V30 17026 H 1587.25 -2.04425 3.11514 0
M  V30 17027 H 1587.37 -1.00221 4.685 0
M  V30 17028 H 1585.73 -0.627033 2.46861 0
M  V30 17029 H 1586.51 0.800211 3.33844 0
M  V30 17030 N 1588.96 -1.5727 -0.101874 0
M  V30 17031 C 1590.23 -1.76745 -0.837888 0
M  V30 17032 C 1590.61 -0.751766 -1.9726 0
M  V30 17033 O 1589.96 0.221046 -2.27428 0
M  V30 17034 C 1590.17 -3.22302 -1.33875 0
M  V30 17035 C 1591.52 -3.85292 -1.78425 0
M  V30 17036 O 1592.54 -3.2601 -1.43514 0
M  V30 17037 O 1591.4 -4.89526 -2.42953 0
M  V30 17038 H 1588.5 -0.724294 -0.399157 0
M  V30 17039 H 1591.04 -1.69491 -0.0842821 0
M  V30 17040 H 1589.82 -3.87756 -0.525434 0
M  V30 17041 H 1589.44 -3.34162 -2.15456 0
M  V30 17042 N 1590.44 0.372521 -1.53134 0
M  V30 17043 C 1591.68 1.11754 -1.6923 0
M  V30 17044 C 1592.01 1.89167 -0.439265 0
M  V30 17045 O 1591.29 1.86164 0.563317 0
M  V30 17046 C 1591.57 2.08242 -2.93781 0
M  V30 17047 C 1591.43 1.34484 -4.29225 0
M  V30 17048 C 1592.74 3.08457 -3.13914 0
M  V30 17049 H 1589.86 0.404898 -0.615814 0
M  V30 17050 H 1592.51 0.399101 -1.85761 0
M  V30 17051 H 1590.66 2.69507 -2.79818 0
M  V30 17052 H 1592.33 0.76056 -4.54987 0
M  V30 17053 H 1590.57 0.646673 -4.28953 0
M  V30 17054 H 1591.24 2.05071 -5.12494 0
M  V30 17055 H 1593.72 2.57292 -3.27017 0
M  V30 17056 H 1592.59 3.73198 -4.0251 0
M  V30 17057 H 1592.85 3.78243 -2.28878 0
M  V30 17058 N 1591.91 1.44376 0.631925 0
M  V30 17059 C 1593.19 1.37592 1.39024 0
M  V30 17060 C 1593.57 0.0342456 2.11072 0
M  V30 17061 O 1592.92 -0.983136 2.06268 0
M  V30 17062 C 1593.13 2.57355 2.35732 0
M  V30 17063 C 1594.48 3.01384 2.99087 0
M  V30 17064 O 1595.5 2.57554 2.46057 0
M  V30 17065 O 1594.36 3.77375 3.95285 0
M  V30 17066 H 1591.45 0.544828 0.622167 0
M  V30 17067 H 1594 1.56464 0.657048 0
M  V30 17068 H 1592.77 3.46615 1.81587 0
M  V30 17069 H 1592.39 2.40693 3.16469 0
M  V30 17070 N 1593.39 -0.872258 1.31261 0
M  V30 17071 C 1594.8 -1.44077 1.18738 0
M  V30 17072 C 1595.15 -1.95105 -0.207037 0
M  V30 17073 O 1594.28 -1.86083 -1.10464 0
M  V30 17074 C 1594.87 -2.61884 2.14947 0
M  V30 17075 C 1593.43 -3.14787 2.06364 0
M  V30 17076 C 1592.58 -1.87495 2.04306 0
M  V30 17077 H 1595.53 -0.681011 1.43345 0
M  V30 17078 H 1595.55 -3.38501 1.73773 0
M  V30 17079 H 1595.06 -2.24715 3.16425 0
M  V30 17080 H 1593.16 -3.56582 1.08073 0
M  V30 17081 H 1593.28 -3.77225 2.95361 0
M  V30 17082 H 1591.64 -2.06361 1.49288 0
M  V30 17083 H 1592.42 -1.52566 3.07536 0
M  V30 17084 N 1594.87 -1.14184 -1.08627 0
M  V30 17085 C 1595.8 -0.849455 -2.17501 0
M  V30 17086 C 1596.78 0.194617 -1.68983 0
M  V30 17087 O 1597.97 0.0517757 -1.94131 0
M  V30 17088 C 1595.1 -0.323685 -3.45788 0
M  V30 17089 C 1594.05 -1.30294 -4.07685 0
M  V30 17090 C 1593.38 -0.636575 -5.30897 0
M  V30 17091 C 1594.68 -2.66441 -4.49229 0
M  V30 17092 H 1596.37 -1.75987 -2.42217 0
M  V30 17093 H 1593.92 -0.847595 -1.16412 0
M  V30 17094 H 1595.87 -0.106754 -4.21265 0
M  V30 17095 H 1594.59 0.62215 -3.20619 0
M  V30 17096 H 1593.25 -1.50601 -3.34238 0
M  V30 17097 H 1592.9 0.314995 -5.02013 0
M  V30 17098 H 1592.6 -1.28998 -5.73266 0
M  V30 17099 H 1594.12 -0.429117 -6.0909 0
M  V30 17100 H 1595.54 -2.50055 -5.15893 0
M  V30 17101 H 1593.93 -3.28033 -5.02508 0
M  V30 17102 H 1595 -3.23486 -3.61226 0
M  V30 17103 N 1596.35 1.26749 -0.936613 0
M  V30 17104 C 1597.59 1.94251 -0.582616 0
M  V30 17105 C 1597.93 1.73352 0.875361 0
M  V30 17106 O 1597.2 1.06784 1.62565 0
M  V30 17107 C 1597.49 3.48145 -0.920151 0
M  V30 17108 C 1597.34 3.78349 -2.43253 0
M  V30 17109 C 1598.66 4.37971 -0.432326 0
M  V30 17110 H 1595.78 0.705507 -0.213141 0
M  V30 17111 H 1598.42 1.49703 -1.17001 0
M  V30 17112 H 1596.57 3.8622 -0.420279 0
M  V30 17113 H 1598.24 3.50015 -3.00478 0
M  V30 17114 H 1596.48 3.24586 -2.87795 0
M  V30 17115 H 1597.15 4.85902 -2.61922 0
M  V30 17116 H 1599.63 4.07098 -0.860857 0
M  V30 17117 H 1598.51 5.44452 -0.697366 0
M  V30 17118 H 1598.77 4.37029 0.667694 0
M  V30 17119 N 1597.83 0.703118 1.41046 0
M  V30 17120 C 1599.1 0.164985 1.94903 0
M  V30 17121 C 1599.48 -1.32665 1.64205 0
M  V30 17122 O 1598.83 -2.07675 0.953058 0
M  V30 17123 C 1599.04 0.464354 3.45897 0
M  V30 17124 C 1600.39 0.396205 4.22747 0
M  V30 17125 O 1601.41 0.399698 3.5395 0
M  V30 17126 O 1600.27 0.362874 5.45294 0
M  V30 17127 H 1597.37 0.0193901 0.826773 0
M  V30 17128 H 1599.91 0.779796 1.50722 0
M  V30 17129 H 1598.68 1.49653 3.61552 0
M  V30 17130 H 1598.31 -0.18105 3.97188 0
M  V30 17131 N 1599.3 -1.51086 0.448402 0
M  V30 17132 C 1600.53 -2.07081 -0.115038 0
M  V30 17133 C 1600.95 -1.31253 -1.34737 0
M  V30 17134 O 1600.31 -0.353613 -1.77818 0
M  V30 17135 C 1600.36 -3.58321 -0.404803 0
M  V30 17136 O 1599.46 -3.84567 -1.48936 0
M  V30 17137 H 1598.81 -0.663993 0.00299118 0
M  V30 17138 H 1601.34 -1.94564 0.632921 0
M  V30 17139 H 1601.35 -4.02756 -0.652013 0
M  V30 17140 H 1600.02 -4.12934 0.495838 0
M  V30 17141 H 1598.6 -3.51987 -1.23124 0
M  V30 17142 N 1600.78 -0.180154 -1.56567 0
M  V30 17143 C 1602.01 0.46854 -2.01525 0
M  V30 17144 C 1602.43 1.56211 -1.06036 0
M  V30 17145 O 1601.78 1.82392 -0.06269 0
M  V30 17146 C 1601.83 1.0387 -3.46256 0
M  V30 17147 O 1601.55 -0.0112203 -4.38099 0
M  V30 17148 C 1603.06 1.76475 -4.06659 0
M  V30 17149 H 1600.28 0.119098 -0.660346 0
M  V30 17150 H 1602.82 -0.284477 -2.02512 0
M  V30 17151 H 1600.97 1.74217 -3.46016 0
M  V30 17152 H 1601.39 0.41099 -5.22887 0
M  V30 17153 H 1602.86 2.11618 -5.09825 0
M  V30 17154 H 1603.34 2.66301 -3.49257 0
M  V30 17155 H 1603.95 1.10749 -4.10627 0
M  V30 17156 N 1602.26 1.57322 0.0935319 0
M  V30 17157 C 1603.51 1.86443 0.797919 0
M  V30 17158 C 1603.84 0.769491 1.78304 0
M  V30 17159 O 1603.11 -0.222383 1.93225 0
M  V30 17160 C 1603.4 3.26201 1.52528 0
M  V30 17161 C 1603.25 4.46325 0.558031 0
M  V30 17162 C 1604.57 3.63879 2.47548 0
M  V30 17163 H 1601.69 0.678136 0.288618 0
M  V30 17164 H 1604.33 1.899 0.0615161 0
M  V30 17165 H 1602.48 3.23385 2.15301 0
M  V30 17166 H 1604.15 4.61257 -0.0628154 0
M  V30 17167 H 1602.4 4.3361 -0.128462 0
M  V30 17168 H 1603.07 5.40845 1.10413 0
M  V30 17169 H 1605.54 3.6765 1.94866 0
M  V30 17170 H 1604.42 4.62598 2.95456 0
M  V30 17171 H 1604.68 2.92647 3.31376 0
M  V30 17172 N 1603.74 -0.364395 1.53329 0
M  V30 17173 C 1604.98 -1.10855 1.6982 0
M  V30 17174 C 1605.32 -1.88931 0.449291 0
M  V30 17175 O 1604.59 -1.8646 -0.553437 0
M  V30 17176 C 1604.88 -2.06681 2.94881 0
M  V30 17177 C 1604.73 -1.32206 4.29932 0
M  V30 17178 C 1606.05 -3.06788 3.15546 0
M  V30 17179 H 1603.17 -0.401626 0.617953 0
M  V30 17180 H 1605.81 -0.389244 1.8597 0
M  V30 17181 H 1603.96 -2.68019 2.81244 0
M  V30 17182 H 1605.63 -0.73642 4.55384 0
M  V30 17183 H 1603.87 -0.623916 4.2929 0
M  V30 17184 H 1604.54 -2.0235 5.13574 0
M  V30 17185 H 1607.02 -2.55554 3.28377 0
M  V30 17186 H 1605.9 -3.71059 4.04483 0
M  V30 17187 H 1606.16 -3.77023 2.3088 0
M  V30 17188 N 1605.22 -1.44709 -0.62426 0
M  V30 17189 C 1606.17 -1.48536 -1.72977 0
M  V30 17190 C 1607.15 -0.350388 -1.57039 0
M  V30 17191 O 1608.34 -0.596153 -1.66658 0
M  V30 17192 C 1605.47 -1.439 -3.11685 0
M  V30 17193 C 1604.56 -2.62537 -3.33069 0
M  V30 17194 N 1604.95 -3.87745 -3.24788 0
M  V30 17195 C 1603.25 -2.57879 -3.63888 0
M  V30 17196 C 1603.95 -4.66833 -3.47048 0
M  V30 17197 N 1602.92 -3.98016 -3.70248 0
M  V30 17198 H 1606.73 -2.43183 -1.65042 0
M  V30 17199 H 1604.24 -1.39768 -0.826962 0
M  V30 17200 H 1606.24 -1.44725 -3.90973 0
M  V30 17201 H 1604.9 -0.502961 -3.20781 0
M  V30 17202 H 1605.91 -4.19613 -3.03555 0
M  V30 17203 H 1602.58 -1.73104 -3.79923 0
M  V30 17204 H 1603.97 -5.75855 -3.4618 0
M  V30 17205 N 1606.69 0.865285 -1.31722 0
M  V30 17206 C 1607.94 1.6135 -1.21033 0
M  V30 17207 C 1608.26 1.94253 0.229141 0
M  V30 17208 O 1609.46 2.67613 0.457771 0
M  V30 17209 C 1607.92 2.90898 -2.11912 0
M  V30 17210 C 1607.53 2.6546 -3.60881 0
M  V30 17211 C 1609.27 3.68898 -2.10035 0
M  V30 17212 C 1607.18 3.90943 -4.43754 0
M  V30 17213 H 1606.11 0.605418 -0.449428 0
M  V30 17214 H 1608.76 0.956335 -1.56609 0
M  V30 17215 H 1607.14 3.58014 -1.69239 0
M  V30 17216 H 1608.31 2.06721 -4.11829 0
M  V30 17217 H 1606.63 2.00806 -3.64782 0
M  V30 17218 H 1609.23 4.61995 -2.69193 0
M  V30 17219 H 1609.57 4.01813 -1.08865 0
M  V30 17220 H 1610.1 3.08671 -2.50932 0
M  V30 17221 H 1606.84 3.63176 -5.45696 0
M  V30 17222 H 1606.36 4.49116 -3.97561 0
M  V30 17223 H 1608.04 4.58784 -4.56208 0
M  V30 17224 N 1608.17 1.14759 1.0802 0
M  V30 17225 C 1609.4 0.942316 1.84757 0
M  V30 17226 C 1609.82 -0.504188 1.81217 0
M  V30 17227 O 1609.18 -1.35891 1.20014 0
M  V30 17228 C 1609.23 1.45271 3.30043 0
M  V30 17229 O 1608.33 0.647414 4.07287 0
M  V30 17230 H 1607.67 0.336613 0.572353 0
M  V30 17231 H 1610.2 1.52578 1.36313 0
M  V30 17232 H 1610.21 1.4626 3.80883 0
M  V30 17233 H 1608.89 2.50583 3.31935 0
M  V30 17234 H 1607.47 0.706595 3.66144 0
M  V30 17235 N 1609.65 -1.26251 0.943322 0
M  V30 17236 C 1610.6 -2.28295 0.445441 0
M  V30 17237 C 1611.59 -1.62504 -0.478401 0
M  V30 17238 O 1612.8 -1.76437 -0.356378 0
M  V30 17239 H 1609.17 -0.741451 0.125517 0
M  V30 17240 H 1611.14 -2.67687 1.31858 0
M  V30 17241 C 1609.89 -3.46635 -0.271987 0
M  V30 17242 H 1609.22 -3.97484 0.429734 0
M  V30 17243 H 1610.66 -4.19951 -0.584544 0
M  V30 17244 C 1609.12 -3.02133 -1.49054 0
M  V30 17245 O 1609.65 -3.07158 -2.58876 0
M  V30 17246 N 1607.85 -2.57451 -1.34787 0
M  V30 17247 H 1607.4 -2.53562 -0.454347 0
M  V30 17248 H 1607.36 -2.28039 -2.16438 0
M  V30 17249 N 1611.13 -0.710588 -1.40671 0
M  V30 17250 C 1612.08 -0.0548139 -2.30735 0
M  V30 17251 C 1613.05 0.755572 -1.4792 0
M  V30 17252 O 1614.23 0.720541 -1.76672 0
M  V30 17253 C 1611.37 0.864648 -3.34093 0
M  V30 17254 C 1610.48 0.0442717 -4.31977 0
M  V30 17255 C 1609.62 0.962752 -5.22403 0
M  V30 17256 C 1608.66 0.13617 -6.11949 0
M  V30 17257 N 1607.8 1.00926 -6.94808 0
M  V30 17258 H 1612.64 -0.828555 -2.8625 0
M  V30 17259 H 1610.17 -0.420286 -1.40968 0
M  V30 17260 H 1612.13 1.41193 -3.92582 0
M  V30 17261 H 1610.76 1.60462 -2.80092 0
M  V30 17262 H 1609.81 -0.620132 -3.75311 0
M  V30 17263 H 1611.12 -0.595895 -4.95228 0
M  V30 17264 H 1610.28 1.57874 -5.85799 0
M  V30 17265 H 1609.02 1.63675 -4.59415 0
M  V30 17266 H 1608.02 -0.492793 -5.47587 0
M  V30 17267 H 1609.25 -0.534251 -6.76995 0
M  V30 17268 H 1607.19 1.669 -6.34413 0
M  V30 17269 H 1607.11 0.425013 -7.54804 0
M  V30 17270 H 1608.38 1.61159 -7.62659 0
M  V30 17271 N 1612.61 1.50847 -0.456408 0
M  V30 17272 C 1613.84 2.0665 0.101737 0
M  V30 17273 C 1614.25 1.32188 1.34803 0
M  V30 17274 O 1613.61 0.38687 1.78352 0
M  V30 17275 C 1613.66 3.59227 0.404724 0
M  V30 17276 O 1613.38 4.30879 -0.79212 0
M  V30 17277 C 1614.88 4.31607 1.01145 0
M  V30 17278 H 1612.1 0.671 -0.000542219 0
M  V30 17279 H 1614.64 1.94195 -0.640974 0
M  V30 17280 H 1612.8 3.71533 1.09735 0
M  V30 17281 H 1613.21 5.21837 -0.527843 0
M  V30 17282 H 1614.69 5.39386 1.17332 0
M  V30 17283 H 1615.16 3.9114 1.99765 0
M  V30 17284 H 1615.77 4.23794 0.357645 0
M  V30 17285 N 1614.09 0.188454 1.56469 0
M  V30 17286 C 1615.36 -0.499324 1.89119 0
M  V30 17287 C 1615.74 -1.80116 1.10098 0
M  V30 17288 O 1615.09 -2.27623 0.200048 0
M  V30 17289 C 1615.3 -0.724574 3.41396 0
M  V30 17290 C 1616.65 -1.04692 4.11491 0
M  V30 17291 O 1617.67 -0.812526 3.46809 0
M  V30 17292 O 1616.53 -1.48998 5.25797 0
M  V30 17293 H 1613.63 -0.259468 0.785242 0
M  V30 17294 H 1616.17 0.228172 1.68159 0
M  V30 17295 H 1614.94 0.195039 3.90814 0
M  V30 17296 H 1614.57 -1.50477 3.68025 0
M  V30 17297 N 1615.56 -1.5737 -0.0851874 0
M  V30 17298 C 1616.81 -1.86219 -0.7853 0
M  V30 17299 C 1617.13 -0.77857 -1.78783 0
M  V30 17300 O 1616.4 0.194176 -1.94935 0
M  V30 17301 H 1614.98 -0.687134 -0.293013 0
M  V30 17302 H 1617.64 -1.94793 -0.0644597 0
M  V30 17303 H 1616.74 -2.83286 -1.30978 0
M  V30 17304 N 1617.04 0.356258 -1.53521 0
M  V30 17305 C 1617.95 1.46055 -1.83589 0
M  V30 17306 C 1618.97 1.58176 -0.724997 0
M  V30 17307 O 1620.14 1.73894 -1.01601 0
M  V30 17308 C 1617.21 2.81207 -2.0279 0
M  V30 17309 C 1616.27 2.78535 -3.26675 0
M  V30 17310 C 1615.5 4.07241 -3.4495 0
M  V30 17311 O 1615.73 5.03879 -2.67324 0
M  V30 17312 O 1614.66 4.12485 -4.38337 0
M  V30 17313 H 1618.49 1.23566 -2.77426 0
M  V30 17314 H 1616.07 0.547243 -1.39017 0
M  V30 17315 H 1617.95 3.61271 -2.16936 0
M  V30 17316 H 1616.63 3.03654 -1.12143 0
M  V30 17317 H 1615.53 1.97137 -3.17943 0
M  V30 17318 H 1616.87 2.61042 -4.17274 0
M  V30 17319 N 1618.52 1.45038 0.616577 0
M  V30 17320 C 1619.48 1.52647 1.70973 0
M  V30 17321 C 1620.48 0.406902 1.55567 0
M  V30 17322 O 1621.67 0.670062 1.60797 0
M  V30 17323 C 1618.8 1.41438 3.10174 0
M  V30 17324 H 1620 2.50036 1.65596 0
M  V30 17325 H 1617.55 1.32346 0.831524 0
M  V30 17326 H 1618.29 0.451991 3.21135 0
M  V30 17327 H 1618.07 2.22634 3.22764 0
M  V30 17328 H 1619.56 1.49776 3.89817 0
M  V30 17329 N 1620 -0.858287 1.32179 0
M  V30 17330 C 1621.22 -1.64997 1.25662 0
M  V30 17331 C 1621.65 -1.87303 -0.173021 0
M  V30 17332 O 1621.01 -1.42319 -1.12317 0
M  V30 17333 C 1621.05 -2.98855 2.01787 0
M  V30 17334 O 1620.16 -3.89218 1.36319 0
M  V30 17335 H 1619.5 -0.503169 0.433264 0
M  V30 17336 H 1622.03 -1.06926 1.74436 0
M  V30 17337 H 1622.04 -3.48704 2.11824 0
M  V30 17338 H 1620.71 -2.81941 3.05748 0
M  V30 17339 H 1619.29 -3.4768 1.34807 0
M  V30 17340 N 1621.48 -1.1533 -1.07409 0
M  V30 17341 C 1622.89 -0.937287 -1.61468 0
M  V30 17342 C 1623.24 0.521545 -1.89141 0
M  V30 17343 O 1622.36 1.39253 -1.65643 0
M  V30 17344 C 1622.96 -1.69501 -2.93351 0
M  V30 17345 C 1621.52 -1.52429 -3.44154 0
M  V30 17346 C 1620.66 -1.71098 -2.18222 0
M  V30 17347 H 1623.61 -1.30364 -0.905044 0
M  V30 17348 H 1623.64 -1.16416 -3.62253 0
M  V30 17349 H 1623.15 -2.75672 -2.73178 0
M  V30 17350 H 1621.25 -0.486498 -3.6941 0
M  V30 17351 H 1621.36 -2.30089 -4.20233 0
M  V30 17352 H 1619.73 -1.13745 -2.27891 0
M  V30 17353 H 1620.51 -2.78634 -2.00545 0
M  V30 17354 N 1622.95 1.25748 -0.950004 0
M  V30 17355 C 1623.88 2.28419 -0.484467 0
M  V30 17356 C 1624.86 1.63569 0.466813 0
M  V30 17357 O 1626.05 1.90705 0.366766 0
M  V30 17358 C 1623.18 3.46449 0.242916 0
M  V30 17359 C 1622.13 4.23447 -0.622657 0
M  V30 17360 C 1621.46 5.34182 0.235199 0
M  V30 17361 C 1622.76 4.86576 -1.89845 0
M  V30 17362 H 1624.45 2.6761 -1.34257 0
M  V30 17363 H 1622 1.28646 -0.647014 0
M  V30 17364 H 1623.95 4.17394 0.579693 0
M  V30 17365 H 1622.68 3.06235 1.13523 0
M  V30 17366 H 1621.34 3.54279 -0.942453 0
M  V30 17367 H 1620.98 4.90209 1.12713 0
M  V30 17368 H 1620.68 5.86612 -0.340609 0
M  V30 17369 H 1622.21 6.07961 0.567048 0
M  V30 17370 H 1623.62 5.49688 -1.62837 0
M  V30 17371 H 1622.02 5.49162 -2.41954 0
M  V30 17372 H 1623.09 4.09021 -2.60441 0
M  V30 17373 N 1624.43 0.718038 1.40292 0
M  V30 17374 C 1625.38 0.0670495 2.30703 0
M  V30 17375 C 1626.35 -0.747716 1.48319 0
M  V30 17376 O 1627.53 -0.711161 1.77051 0
M  V30 17377 C 1624.67 -0.846918 3.34546 0
M  V30 17378 C 1623.79 -0.0213622 4.31995 0
M  V30 17379 C 1622.92 -0.935035 5.22906 0
M  V30 17380 C 1621.96 -0.103715 6.12012 0
M  V30 17381 N 1621.1 -0.972397 6.95334 0
M  V30 17382 H 1625.94 0.843724 2.85806 0
M  V30 17383 H 1623.47 0.427756 1.40743 0
M  V30 17384 H 1625.43 -1.39109 3.93325 0
M  V30 17385 H 1624.06 -1.58975 2.80939 0
M  V30 17386 H 1623.11 0.640026 3.74977 0
M  V30 17387 H 1624.43 0.62215 4.94905 0
M  V30 17388 H 1623.58 -1.54766 5.86628 0
M  V30 17389 H 1622.32 -1.61236 4.60276 0
M  V30 17390 H 1621.32 0.521826 5.47318 0
M  V30 17391 H 1622.55 0.570146 6.76702 0
M  V30 17392 H 1620.5 -1.63533 6.3529 0
M  V30 17393 H 1620.41 -0.384977 7.55019 0
M  V30 17394 H 1621.68 -1.57112 7.63503 0
M  V30 17395 N 1625.91 -1.50602 0.464402 0
M  V30 17396 C 1626.82 -2.32142 -0.338721 0
M  V30 17397 C 1627.84 -1.4223 -1.00233 0
M  V30 17398 O 1629.01 -1.75288 -0.99177 0
M  V30 17399 C 1626.08 -3.16725 -1.41019 0
M  V30 17400 C 1625.14 -4.22449 -0.76388 0
M  V30 17401 C 1624.37 -5.0299 -1.78429 0
M  V30 17402 O 1624.59 -4.84516 -3.00999 0
M  V30 17403 O 1623.53 -5.86338 -1.35982 0
M  V30 17404 H 1627.35 -3.01927 0.327695 0
M  V30 17405 H 1624.94 -1.47675 0.226379 0
M  V30 17406 H 1626.82 -3.69228 -2.03097 0
M  V30 17407 H 1625.5 -2.49675 -2.06019 0
M  V30 17408 H 1624.4 -3.73955 -0.104318 0
M  V30 17409 H 1625.74 -4.9195 -0.156929 0
M  V30 17410 N 1627.39 -0.19675 -1.56367 0
M  V30 17411 C 1628.35 0.709734 -2.17934 0
M  V30 17412 C 1629.35 1.13979 -1.13426 0
M  V30 17413 O 1630.54 1.05261 -1.38801 0
M  V30 17414 C 1627.67 1.96917 -2.78274 0
M  V30 17415 H 1628.87 0.173342 -2.99399 0
M  V30 17416 H 1626.42 0.0528698 -1.56211 0
M  V30 17417 H 1627.15 2.54804 -2.00613 0
M  V30 17418 H 1626.94 1.66951 -3.54781 0
M  V30 17419 H 1628.43 2.61554 -3.25545 0
M  V30 17420 N 1628.87 1.57413 0.0768405 0
M  V30 17421 C 1629.78 2.06688 1.10983 0
M  V30 17422 C 1630.79 0.995392 1.42716 0
M  V30 17423 O 1631.97 1.30977 1.52994 0
M  V30 17424 C 1629.03 2.49676 2.40546 0
M  V30 17425 C 1628.09 3.71101 2.1583 0
M  V30 17426 C 1627.33 4.1203 3.39216 0
M  V30 17427 O 1627.55 3.52877 4.48145 0
M  V30 17428 O 1626.48 5.04856 3.27726 0
M  V30 17429 H 1630.31 2.95012 0.721242 0
M  V30 17430 H 1627.9 1.46546 0.290624 0
M  V30 17431 H 1629.78 2.77871 3.16805 0
M  V30 17432 H 1628.45 1.64484 2.78795 0
M  V30 17433 H 1627.36 3.47996 1.37293 0
M  V30 17434 H 1628.69 4.5713 1.82465 0
M  V30 17435 N 1630.34 -0.348112 1.53707 0
M  V30 17436 C 1631.59 -1.08626 1.69951 0
M  V30 17437 C 1631.91 -1.89944 0.466992 0
M  V30 17438 O 1633.11 -2.66661 0.51029 0
M  V30 17439 C 1631.57 -1.98052 3.00505 0
M  V30 17440 C 1631.18 -1.21963 4.31079 0
M  V30 17441 C 1632.92 -2.71752 3.26115 0
M  V30 17442 C 1630.83 -2.10392 5.52711 0
M  V30 17443 H 1629.76 -0.409241 0.633275 0
M  V30 17444 H 1632.41 -0.346051 1.80207 0
M  V30 17445 H 1630.79 -2.75874 2.84094 0
M  V30 17446 H 1631.96 -0.490831 4.58178 0
M  V30 17447 H 1630.28 -0.600511 4.12047 0
M  V30 17448 H 1632.88 -3.38174 4.14177 0
M  V30 17449 H 1633.22 -3.38072 2.42926 0
M  V30 17450 H 1633.75 -2.01005 3.43281 0
M  V30 17451 H 1630.49 -1.48622 6.38429 0
M  V30 17452 H 1630.01 -2.81074 5.29866 0
M  V30 17453 H 1631.69 -2.69551 5.88176 0
M  V30 17454 N 1631.82 -1.45363 -0.608876 0
M  V30 17455 C 1633.24 -1.29741 -0.929491 0
M  V30 17456 C 1633.44 -0.249486 -1.9995 0
M  V30 17457 O 1632.49 0.357014 -2.49963 0
M  V30 17458 C 1633.81 -2.67594 -1.37164 0
M  V30 17459 C 1635.36 -2.7548 -1.48592 0
M  V30 17460 C 1635.83 -4.13855 -1.96183 0
M  V30 17461 N 1637.32 -4.16143 -2.03419 0
M  V30 17462 C 1638.06 -5.20081 -2.41462 0
M  V30 17463 N 1637.55 -6.34365 -2.78482 0
M  V30 17464 N 1639.35 -5.07439 -2.4179 0
M  V30 17465 H 1631.5 -2.12172 0.0983838 0
M  V30 17466 H 1633.76 -0.947817 -0.0186397 0
M  V30 17467 H 1633.47 -3.45459 -0.6596 0
M  V30 17468 H 1633.34 -2.9597 -2.33841 0
M  V30 17469 H 1635.73 -1.97919 -2.18888 0
M  V30 17470 H 1635.81 -2.50819 -0.502337 0
M  V30 17471 H 1635.45 -4.91901 -1.26475 0
M  V30 17472 H 1635.38 -4.35907 -2.95453 0
M  V30 17473 H 1637.87 -3.33671 -1.77404 0
M  V30 17474 H 1638.19 -7.09469 -3.06388 0
M  V30 17475 H 1636.53 -6.37769 -2.76181 0
M  V30 17476 H 1639.72 -4.17202 -2.12273 0
M  V30 17477 H 1639.89 -5.8856 -2.71112 0
M  V30 17478 N 1633.3 0.851265 -1.32632 0
M  V30 17479 C 1634.21 1.99239 -1.23858 0
M  V30 17480 C 1635.23 1.73339 -0.151517 0
M  V30 17481 O 1636.4 1.97919 -0.372822 0
M  V30 17482 C 1633.47 3.32987 -0.965417 0
M  V30 17483 C 1632.53 3.72087 -2.14126 0
M  V30 17484 C 1631.76 4.99453 -1.88103 0
M  V30 17485 O 1631.98 5.64399 -0.825253 0
M  V30 17486 O 1630.92 5.35763 -2.74302 0
M  V30 17487 H 1634.74 2.09579 -2.19796 0
M  V30 17488 H 1632.33 0.98243 -1.12555 0
M  V30 17489 H 1634.21 4.13151 -0.829713 0
M  V30 17490 H 1632.89 3.2368 -0.036219 0
M  V30 17491 H 1631.79 2.92485 -2.33245 0
M  V30 17492 H 1633.13 3.86045 -3.05336 0
M  V30 17493 N 1634.78 1.15898 1.06796 0
M  V30 17494 C 1636.06 0.847701 1.76276 0
M  V30 17495 C 1636.44 -0.655537 2.00664 0
M  V30 17496 O 1635.78 -1.60171 1.62964 0
M  V30 17497 C 1635.99 1.66475 3.06736 0
M  V30 17498 C 1637.34 1.87452 3.80982 0
M  V30 17499 O 1638.37 1.63298 3.16563 0
M  V30 17500 O 1637.22 2.27942 4.96694 0
M  V30 17501 H 1634.32 0.312308 0.765763 0
M  V30 17502 H 1636.86 1.26507 1.13111 0
M  V30 17503 H 1635.64 2.68508 2.84638 0
M  V30 17504 H 1635.26 1.24409 3.77635 0
M  V30 17505 N 1636.26 -1.25243 0.956659 0
M  V30 17506 C 1637.17 -2.29529 0.48515 0
M  V30 17507 C 1638.18 -1.68121 -0.448494 0
M  V30 17508 O 1639.36 -1.98773 -0.324243 0
M  V30 17509 C 1636.42 -3.45952 -0.227611 0
M  V30 17510 C 1635.48 -4.22795 0.744495 0
M  V30 17511 C 1634.72 -5.3366 0.0656539 0
M  V30 17512 O 1634.94 -5.58722 -1.14829 0
M  V30 17513 O 1633.87 -5.97181 0.75222 0
M  V30 17514 H 1637.7 -2.71955 1.35181 0
M  V30 17515 H 1635.29 -1.30729 0.723203 0
M  V30 17516 H 1637.17 -4.16687 -0.628474 0
M  V30 17517 H 1635.84 -3.05524 -1.06942 0
M  V30 17518 H 1634.75 -3.5448 1.1956 0
M  V30 17519 H 1636.08 -4.67012 1.55438 0
M  V30 17520 N 1637.73 -0.725468 -1.3991 0
M  V30 17521 C 1638.64 -0.0805887 -2.34462 0
M  V30 17522 C 1639.66 0.732689 -1.57822 0
M  V30 17523 O 1640.84 0.663362 -1.90162 0
M  V30 17524 C 1637.9 0.822908 -3.36792 0
M  V30 17525 C 1636.96 -0.00153812 -4.293 0
M  V30 17526 C 1636.2 0.85893 -5.26743 0
M  V30 17527 O 1636.42 2.09793 -5.30418 0
M  V30 17528 O 1635.35 0.292659 -6.01188 0
M  V30 17529 H 1639.18 -0.860746 -2.91247 0
M  V30 17530 H 1636.76 -0.48604 -1.41273 0
M  V30 17531 H 1638.65 1.34014 -3.99522 0
M  V30 17532 H 1637.32 1.58204 -2.82406 0
M  V30 17533 H 1636.23 -0.564072 -3.69823 0
M  V30 17534 H 1637.56 -0.722675 -4.86866 0
M  V30 17535 N 1639.21 1.50354 -0.472382 0
M  V30 17536 C 1640.12 2.32318 0.326405 0
M  V30 17537 C 1641.14 1.4276 0.994771 0
M  V30 17538 O 1642.31 1.75811 0.98246 0
M  V30 17539 C 1639.38 3.17468 1.39337 0
M  V30 17540 C 1638.44 4.22848 0.741465 0
M  V30 17541 C 1637.67 5.03929 1.75759 0
M  V30 17542 O 1637.9 4.86105 2.98425 0
M  V30 17543 O 1636.83 5.87051 1.32871 0
M  V30 17544 H 1640.66 3.01749 -0.343702 0
M  V30 17545 H 1638.24 1.47553 -0.234207 0
M  V30 17546 H 1640.12 3.703 2.01136 0
M  V30 17547 H 1638.8 2.50764 2.04692 0
M  V30 17548 H 1637.71 3.74005 0.0844848 0
M  V30 17549 H 1639.04 4.92026 0.130838 0
M  V30 17550 N 1640.69 0.205039 1.56261 0
M  V30 17551 C 1641.94 -0.431735 1.98151 0
M  V30 17552 C 1642.27 -1.60579 1.09215 0
M  V30 17553 O 1641.55 -1.93949 0.146257 0
M  V30 17554 C 1641.83 -0.882278 3.49124 0
M  V30 17555 C 1641.68 0.294278 4.48836 0
M  V30 17556 C 1643 -1.7443 4.04057 0
M  V30 17557 H 1640.12 -0.155457 0.720418 0
M  V30 17558 H 1642.76 0.29796 1.87649 0
M  V30 17559 H 1640.91 -1.50404 3.58205 0
M  V30 17560 H 1642.58 0.932148 4.51784 0
M  V30 17561 H 1640.83 0.94444 4.23394 0
M  V30 17562 H 1641.5 -0.063639 5.51963 0
M  V30 17563 H 1643.97 -1.21983 3.97818 0
M  V30 17564 H 1642.85 -2.02848 5.10043 0
M  V30 17565 H 1643.11 -2.70195 3.49924 0
M  V30 17566 N 1642.17 -1.57451 -0.0684915 0
M  V30 17567 C 1643.08 -2.07274 -1.09885 0
M  V30 17568 C 1644.1 -1.00295 -1.42186 0
M  V30 17569 O 1645.27 -1.31786 -1.52297 0
M  V30 17570 C 1642.34 -2.50949 -2.39219 0
M  V30 17571 C 1641.4 -3.7224 -2.13859 0
M  V30 17572 C 1640.63 -4.13823 -3.37026 0
M  V30 17573 O 1640.85 -3.55248 -4.46268 0
M  V30 17574 O 1639.79 -5.06587 -3.25044 0
M  V30 17575 H 1643.61 -2.9539 -0.705587 0
M  V30 17576 H 1641.2 -1.46698 -0.282849 0
M  V30 17577 H 1643.08 -2.79547 -3.15327 0
M  V30 17578 H 1641.76 -1.6596 -2.77919 0
M  V30 17579 H 1640.66 -3.4872 -1.35445 0
M  V30 17580 H 1642 -4.58091 -1.80038 0
M  V30 17581 N 1643.65 0.339955 -1.5389 0
M  V30 17582 C 1644.59 1.41765 -1.8213 0
M  V30 17583 C 1645.56 1.52109 -0.667235 0
M  V30 17584 O 1646.75 1.67591 -0.91203 0
M  V30 17585 C 1643.89 2.78366 -2.03977 0
M  V30 17586 C 1643 2.76785 -3.31684 0
M  V30 17587 C 1642.14 4.05125 -3.4358 0
M  V30 17588 C 1641.18 3.97787 -4.65223 0
M  V30 17589 N 1640.31 5.17825 -4.74133 0
M  V30 17590 H 1645.15 1.16984 -2.74078 0
M  V30 17591 H 1642.69 0.566618 -1.35749 0
M  V30 17592 H 1644.65 3.57755 -2.14633 0
M  V30 17593 H 1643.28 3.01491 -1.15338 0
M  V30 17594 H 1642.33 1.89481 -3.2985 0
M  V30 17595 H 1643.64 2.67241 -4.2117 0
M  V30 17596 H 1642.8 4.9294 -3.53688 0
M  V30 17597 H 1641.54 4.17455 -2.52157 0
M  V30 17598 H 1640.54 3.08357 -4.55188 0
M  V30 17599 H 1641.77 3.87037 -5.58014 0
M  V30 17600 H 1639.71 5.30691 -3.8562 0
M  V30 17601 H 1639.63 5.10552 -5.5756 0
M  V30 17602 H 1640.9 6.074 -4.88554 0
M  V30 17603 N 1645.13 1.45684 0.601159 0
M  V30 17604 C 1646.07 1.54846 1.71147 0
M  V30 17605 C 1647.04 0.393914 1.61361 0
M  V30 17606 O 1648.23 0.608222 1.80846 0
M  V30 17607 C 1645.37 1.52723 3.09467 0
M  V30 17608 C 1644.48 2.78776 3.30012 0
M  V30 17609 C 1643.62 2.68281 4.58474 0
M  V30 17610 C 1642.65 3.89358 4.72299 0
M  V30 17611 N 1641.79 3.77359 5.92068 0
M  V30 17612 H 1646.63 2.49696 1.62653 0
M  V30 17613 H 1644.17 1.23894 0.793006 0
M  V30 17614 H 1646.13 1.49479 3.89502 0
M  V30 17615 H 1644.76 0.614189 3.16903 0
M  V30 17616 H 1643.81 2.9208 2.43708 0
M  V30 17617 H 1645.12 3.68563 3.36099 0
M  V30 17618 H 1644.27 2.63039 5.46713 0
M  V30 17619 H 1643.01 1.76103 4.54795 0
M  V30 17620 H 1642.02 3.94952 3.82482 0
M  V30 17621 H 1643.24 4.82609 4.77771 0
M  V30 17622 H 1641.19 2.87955 5.89422 0
M  V30 17623 H 1641.11 4.60786 5.99343 0
M  V30 17624 H 1642.37 3.76061 6.82787 0
M  V30 17625 N 1646.6 -0.84422 1.33082 0
M  V30 17626 C 1647.55 -1.95363 1.2289 0
M  V30 17627 C 1648.52 -1.65744 0.108705 0
M  V30 17628 O 1649.71 -1.88643 0.286057 0
M  V30 17629 C 1646.85 -3.31228 0.968594 0
M  V30 17630 C 1645.96 -3.73279 2.17455 0
M  V30 17631 C 1645.09 -4.97987 1.84885 0
M  V30 17632 C 1644.13 -5.32558 3.01743 0
M  V30 17633 N 1643.27 -6.48442 2.69197 0
M  V30 17634 H 1648.11 -2.03412 2.17778 0
M  V30 17635 H 1645.65 -0.995461 1.083 0
M  V30 17636 H 1647.6 -4.09494 0.798129 0
M  V30 17637 H 1646.23 -3.22751 0.0564631 0
M  V30 17638 H 1645.29 -2.9058 2.45494 0
M  V30 17639 H 1646.6 -3.94814 3.04834 0
M  V30 17640 H 1645.75 -5.83987 1.64451 0
M  V30 17641 H 1644.49 -4.7841 0.947356 0
M  V30 17642 H 1643.5 -4.45064 3.22797 0
M  V30 17643 H 1644.72 -5.54085 3.9264 0
M  V30 17644 H 1642.67 -6.30363 1.816 0
M  V30 17645 H 1642.58 -6.70046 3.50106 0
M  V30 17646 H 1643.85 -7.37568 2.52217 0
M  V30 17647 N 1648.08 -1.16463 -1.0618 0
M  V30 17648 C 1649.01 -0.829995 -2.13644 0
M  V30 17649 C 1650.03 0.16326 -1.61979 0
M  V30 17650 O 1651.22 -0.0616575 -1.78393 0
M  V30 17651 C 1648.32 -0.215222 -3.38216 0
M  V30 17652 C 1647.49 -1.24886 -4.19192 0
M  V30 17653 C 1646.55 -0.653683 -5.22124 0
M  V30 17654 O 1645.57 -1.32285 -5.53615 0
M  V30 17655 N 1646.78 0.559031 -5.77802 0
M  V30 17656 H 1649.54 -1.75487 -2.42949 0
M  V30 17657 H 1647.1 -1.06212 -1.22191 0
M  V30 17658 H 1649.09 0.196005 -4.04225 0
M  V30 17659 H 1647.66 0.613229 -3.06526 0
M  V30 17660 H 1646.88 -1.83622 -3.48822 0
M  V30 17661 H 1648.17 -1.94639 -4.70099 0
M  V30 17662 H 1647.57 1.12083 -5.54485 0
M  V30 17663 H 1646.13 0.912453 -6.45382 0
M  V30 17664 N 1649.56 1.24734 -0.963288 0
M  V30 17665 C 1650.51 2.25555 -0.48926 0
M  V30 17666 C 1651.48 1.59521 0.462848 0
M  V30 17667 O 1652.66 1.87095 0.374188 0
M  V30 17668 C 1649.8 3.44407 0.218629 0
M  V30 17669 C 1648.91 4.25051 -0.77173 0
M  V30 17670 C 1648.05 5.31185 -0.0403986 0
M  V30 17671 C 1647.09 6.03523 -1.02112 0
M  V30 17672 N 1646.23 7.0137 -0.320083 0
M  V30 17673 H 1651.07 2.6547 -1.35386 0
M  V30 17674 H 1648.6 1.30504 -0.678762 0
M  V30 17675 H 1650.56 4.12173 0.645701 0
M  V30 17676 H 1649.19 3.05341 1.04722 0
M  V30 17677 H 1648.24 3.56865 -1.31726 0
M  V30 17678 H 1649.55 4.75084 -1.51976 0
M  V30 17679 H 1648.71 6.05067 0.444886 0
M  V30 17680 H 1647.45 4.82048 0.740356 0
M  V30 17681 H 1646.45 5.28448 -1.51732 0
M  V30 17682 H 1647.68 6.54749 -1.80224 0
M  V30 17683 H 1645.62 6.54511 0.441775 0
M  V30 17684 H 1645.54 7.49263 -1.00705 0
M  V30 17685 H 1646.81 7.79368 0.143379 0
M  V30 17686 N 1651.04 0.732878 1.39523 0
M  V30 17687 C 1651.98 0.0915149 2.30618 0
M  V30 17688 C 1652.95 -0.731943 1.49103 0
M  V30 17689 O 1654.14 -0.692343 1.77796 0
M  V30 17690 C 1651.28 -0.811387 3.35426 0
M  V30 17691 C 1650.39 0.0244578 4.31993 0
M  V30 17692 C 1649.53 -0.879521 5.23868 0
M  V30 17693 C 1648.57 -0.0387974 6.12088 0
M  V30 17694 N 1647.7 -0.898593 6.96326 0
M  V30 17695 H 1652.54 0.87399 2.84895 0
M  V30 17696 H 1650.08 0.442659 1.40282 0
M  V30 17697 H 1652.04 -1.3493 3.94778 0
M  V30 17698 H 1650.67 -1.55986 2.8261 0
M  V30 17699 H 1649.72 0.679762 3.74277 0
M  V30 17700 H 1651.03 0.674606 4.94217 0
M  V30 17701 H 1650.19 -1.48535 5.88237 0
M  V30 17702 H 1648.93 -1.56345 4.6196 0
M  V30 17703 H 1647.93 0.579847 5.46734 0
M  V30 17704 H 1649.16 0.641887 6.7606 0
M  V30 17705 H 1647.1 -1.56786 6.36988 0
M  V30 17706 H 1647.02 -0.304876 7.55385 0
M  V30 17707 H 1648.29 -1.49005 7.65126 0
M  V30 17708 N 1652.52 -1.50101 0.480349 0
M  V30 17709 C 1653.43 -2.32488 -0.31408 0
M  V30 17710 C 1654.44 -1.43285 -0.987186 0
M  V30 17711 O 1655.62 -1.7633 -0.973123 0
M  V30 17712 C 1652.68 -3.18203 -1.37651 0
M  V30 17713 C 1651.74 -4.23236 -0.71903 0
M  V30 17714 C 1650.98 -5.04854 -1.73084 0
M  V30 17715 O 1651.2 -4.87681 -2.95843 0
M  V30 17716 O 1650.13 -5.87748 -1.29755 0
M  V30 17717 H 1653.96 -3.01562 0.3597 0
M  V30 17718 H 1651.54 -1.47427 0.242029 0
M  V30 17719 H 1653.43 -3.71362 -1.9917 0
M  V30 17720 H 1652.1 -2.51846 -2.0336 0
M  V30 17721 H 1651.01 -3.74044 -0.0646492 0
M  V30 17722 H 1652.34 -4.92089 -0.104743 0
M  V30 17723 N 1653.99 -0.213323 -1.5615 0
M  V30 17724 C 1654.94 0.700175 -2.19923 0
M  V30 17725 C 1655.91 1.19641 -1.15218 0
M  V30 17726 O 1657.1 1.257 -1.43542 0
M  V30 17727 C 1654.24 1.90629 -2.87671 0
M  V30 17728 C 1653.35 1.44973 -4.06948 0
M  V30 17729 C 1652.48 2.61277 -4.62502 0
M  V30 17730 C 1651.52 2.12316 -5.74098 0
M  V30 17731 N 1650.66 3.21862 -6.23978 0
M  V30 17732 H 1655.5 0.14961 -2.97624 0
M  V30 17733 H 1653.04 0.0620957 -1.46969 0
M  V30 17734 H 1654.99 2.61431 -3.2513 0
M  V30 17735 H 1653.62 2.42987 -2.12502 0
M  V30 17736 H 1652.68 0.636917 -3.7503 0
M  V30 17737 H 1653.99 1.05065 -4.87609 0
M  V30 17738 H 1653.14 3.40174 -5.02361 0
M  V30 17739 H 1651.88 3.04468 -3.80987 0
M  V30 17740 H 1650.89 1.31877 -5.33749 0
M  V30 17741 H 1652.11 1.70134 -6.57443 0
M  V30 17742 H 1650.06 3.64551 -5.45379 0
M  V30 17743 H 1649.97 2.86181 -6.9974 0
M  V30 17744 H 1651.24 4.0092 -6.68493 0
M  V30 17745 N 1655.47 1.57485 0.0601405 0
M  V30 17746 C 1656.89 1.54105 0.415187 0
M  V30 17747 C 1657.09 0.935177 1.78484 0
M  V30 17748 O 1656.14 0.542715 2.46599 0
M  V30 17749 C 1657.46 2.98708 0.34555 0
M  V30 17750 C 1659.01 3.10103 0.424895 0
M  V30 17751 C 1659.48 4.56379 0.385041 0
M  V30 17752 N 1660.97 4.6106 0.444771 0
M  V30 17753 C 1661.71 5.71737 0.436334 0
M  V30 17754 N 1661.2 6.91746 0.38202 0
M  V30 17755 N 1663 5.60014 0.483759 0
M  V30 17756 H 1655.15 1.95232 -0.836565 0
M  V30 17757 H 1657.41 0.894101 -0.3151 0
M  V30 17758 H 1657.12 3.4664 -0.594427 0
M  V30 17759 H 1656.99 3.59201 1.15129 0
M  V30 17760 H 1659.38 2.62137 1.3553 0
M  V30 17761 H 1659.46 2.52499 -0.409633 0
M  V30 17762 H 1659.1 5.05004 -0.541561 0
M  V30 17763 H 1659.03 5.11859 1.23726 0
M  V30 17764 H 1661.52 3.74703 0.490522 0
M  V30 17765 H 1661.84 7.71866 0.379829 0
M  V30 17766 H 1660.18 6.94126 0.348532 0
M  V30 17767 H 1663.37 4.65158 0.523965 0
M  V30 17768 H 1663.54 6.46266 0.473715 0
M  V30 17769 N 1656.95 -0.331789 1.54068 0
M  V30 17770 C 1657.86 -1.43116 1.8589 0
M  V30 17771 C 1658.88 -1.57003 0.75007 0
M  V30 17772 O 1660.05 -1.72256 1.04355 0
M  V30 17773 C 1657.12 -2.77945 2.07238 0
M  V30 17774 C 1656.18 -2.73303 3.31065 0
M  V30 17775 C 1655.41 -4.01702 3.51385 0
M  V30 17776 O 1655.63 -4.99562 2.75306 0
M  V30 17777 O 1654.57 -4.0546 4.44844 0
M  V30 17778 H 1658.39 -1.19137 2.79357 0
M  V30 17779 H 1655.98 -0.525057 1.3987 0
M  V30 17780 H 1657.86 -3.57774 2.22656 0
M  V30 17781 H 1656.54 -3.01831 1.16959 0
M  V30 17782 H 1655.44 -1.92054 3.21039 0
M  V30 17783 H 1656.78 -2.54371 4.21374 0
M  V30 17784 N 1658.43 -1.46001 -0.593424 0
M  V30 17785 C 1659.66 -1.54307 -1.3783 0
M  V30 17786 C 1660.07 -0.18048 -1.87935 0
M  V30 17787 O 1659.43 0.820427 -1.63019 0
M  V30 17788 C 1659.48 -2.53911 -2.57316 0
M  V30 17789 O 1659.2 -3.84876 -2.09289 0
M  V30 17790 C 1660.7 -2.72054 -3.50002 0
M  V30 17791 H 1657.92 -0.522149 -0.421428 0
M  V30 17792 H 1660.47 -1.91315 -0.722423 0
M  V30 17793 H 1658.62 -2.19937 -3.18915 0
M  V30 17794 H 1659.03 -4.38996 -2.87025 0
M  V30 17795 H 1660.51 -3.45692 -4.3035 0
M  V30 17796 H 1660.99 -1.78583 -4.01254 0
M  V30 17797 H 1661.59 -3.07082 -2.94246 0
M  V30 17798 N 1659.91 0.83715 -1.33527 0
M  V30 17799 C 1661.15 1.58937 -1.24834 0
M  V30 17800 C 1661.48 1.94117 0.185368 0
M  V30 17801 O 1660.75 1.61105 1.11453 0
M  V30 17802 H 1659.33 0.589301 -0.459057 0
M  V30 17803 H 1661.99 1.00038 -1.67267 0
M  V30 17804 H 1661.08 2.51855 -1.84325 0
M  V30 17805 N 1661.38 1.17024 1.05561 0
M  V30 17806 C 1662.33 0.88356 2.13218 0
M  V30 17807 C 1663.3 -0.171025 1.65217 0
M  V30 17808 O 1664.49 -0.0346242 1.90769 0
M  V30 17809 C 1661.63 0.398912 3.42787 0
M  V30 17810 C 1660.74 1.51718 4.04482 0
M  V30 17811 C 1659.87 0.986793 5.21954 0
M  V30 17812 C 1658.91 2.08077 5.75648 0
M  V30 17813 N 1658.05 1.56542 6.84426 0
M  V30 17814 H 1662.89 1.80548 2.37079 0
M  V30 17815 H 1660.43 0.90056 1.16311 0
M  V30 17816 H 1662.39 0.0995018 4.17081 0
M  V30 17817 H 1661.02 -0.48605 3.1912 0
M  V30 17818 H 1660.07 1.9324 3.27662 0
M  V30 17819 H 1661.38 2.34243 4.40377 0
M  V30 17820 H 1660.53 0.641006 6.03304 0
M  V30 17821 H 1659.27 0.130942 4.87524 0
M  V30 17822 H 1658.28 2.43517 4.9293 0
M  V30 17823 H 1659.5 2.94071 6.12127 0
M  V30 17824 H 1657.45 0.732221 6.51901 0
M  V30 17825 H 1657.37 2.32677 7.19303 0
M  V30 17826 H 1658.63 1.24844 7.69438 0
M  V30 17827 N 1662.86 -1.24221 0.969889 0
M  V30 17828 C 1663.83 -2.23529 0.506686 0
M  V30 17829 C 1664.83 -1.55797 -0.397968 0
M  V30 17830 O 1666.02 -1.73126 -0.193124 0
M  V30 17831 C 1663.15 -3.39861 -0.265943 0
M  V30 17832 H 1664.34 -2.66022 1.38463 0
M  V30 17833 H 1661.89 -1.36872 0.754698 0
M  V30 17834 H 1662.63 -3.0281 -1.16089 0
M  V30 17835 H 1662.41 -3.90222 0.383286 0
M  V30 17836 H 1663.9 -4.13567 -0.578975 0
M  V30 17837 N 1664.34 -0.740267 -1.39132 0
M  V30 17838 C 1665.27 -0.0524011 -2.2814 0
M  V30 17839 C 1666.25 0.742237 -1.44671 0
M  V30 17840 O 1667.44 0.723684 -1.74055 0
M  V30 17841 C 1664.56 0.932876 -3.256 0
M  V30 17842 C 1663.61 0.226089 -4.259 0
M  V30 17843 S 1664.44 -1.06369 -5.24829 0
M  V30 17844 C 1665.6 -0.0811445 -6.25847 0
M  V30 17845 H 1665.83 -0.807208 -2.86132 0
M  V30 17846 H 1663.36 -0.532283 -1.44935 0
M  V30 17847 H 1665.32 1.49604 -3.82268 0
M  V30 17848 H 1663.98 1.66056 -2.66616 0
M  V30 17849 H 1663.18 0.971812 -4.94542 0
M  V30 17850 H 1662.78 -0.265186 -3.73059 0
M  V30 17851 H 1665.07 0.757451 -6.73252 0
M  V30 17852 H 1666.01 -0.734849 -7.04277 0
M  V30 17853 H 1666.42 0.293606 -5.63736 0
M  V30 17854 N 1665.82 1.49844 -0.488302 0
M  V30 17855 C 1667.06 2.02709 0.060788 0
M  V30 17856 C 1667.4 1.36828 1.37811 0
M  V30 17857 O 1666.67 0.499679 1.87972 0
M  V30 17858 C 1666.96 3.59386 0.226637 0
M  V30 17859 C 1666.81 4.35814 -1.11292 0
M  V30 17860 C 1668.13 4.29204 0.973218 0
M  V30 17861 H 1665.25 0.736712 0.0206177 0
M  V30 17862 H 1667.89 1.78995 -0.637245 0
M  V30 17863 H 1666.04 3.79722 0.821182 0
M  V30 17864 H 1667.71 4.27007 -1.74536 0
M  V30 17865 H 1665.95 3.98874 -1.70535 0
M  V30 17866 H 1666.62 5.43758 -0.950319 0
M  V30 17867 H 1669.1 4.13447 0.469106 0
M  V30 17868 H 1667.98 5.38605 1.05809 0
M  V30 17869 H 1668.24 3.93564 2.01394 0
M  V30 17870 N 1667.3 0.221601 1.56034 0
M  V30 17871 C 1668.71 -0.28624 1.84493 0
M  V30 17872 C 1669.06 -1.59469 1.14298 0
M  V30 17873 O 1668.18 -2.12429 0.412672 0
M  V30 17874 C 1668.78 -0.526128 3.3469 0
M  V30 17875 C 1667.34 -0.978278 3.63465 0
M  V30 17876 C 1666.48 -0.0413786 2.77269 0
M  V30 17877 H 1669.44 0.444792 1.52339 0
M  V30 17878 H 1669.46 -1.37212 3.54899 0
M  V30 17879 H 1668.97 0.426348 3.85751 0
M  V30 17880 H 1667.07 -1.94411 3.1786 0
M  V30 17881 H 1667.18 -0.852651 4.71452 0
M  V30 17882 H 1665.55 -0.548179 2.48731 0
M  V30 17883 H 1666.33 0.906016 3.31129 0
M  V30 17884 N 1668.77 -1.57515 -0.0517878 0
M  V30 17885 C 1669.72 -2.01507 -1.06672 0
M  V30 17886 C 1670.71 -0.900432 -1.33346 0
M  V30 17887 O 1671.9 -1.16435 -1.33311 0
M  V30 17888 C 1669.03 -2.4792 -2.37467 0
M  V30 17889 C 1668.12 -3.66159 -2.13982 0
M  V30 17890 N 1668.51 -4.79665 -1.60483 0
M  V30 17891 C 1666.8 -3.73095 -2.44369 0
M  V30 17892 C 1667.51 -5.61415 -1.52278 0
M  V30 17893 N 1666.48 -5.05851 -1.99038 0
M  V30 17894 H 1670.28 -2.86696 -0.646728 0
M  V30 17895 H 1667.8 -1.60329 -0.258518 0
M  V30 17896 H 1669.79 -2.77685 -3.1096 0
M  V30 17897 H 1668.45 -1.64127 -2.80165 0
M  V30 17898 H 1669.47 -5.0156 -1.29067 0
M  V30 17899 H 1666.14 -3.00057 -2.90296 0
M  V30 17900 H 1667.53 -6.62567 -1.11598 0
M  V30 17901 N 1670.25 0.323614 -1.54242 0
M  V30 17902 C 1671.48 1.08548 -1.76726 0
M  V30 17903 C 1671.9 1.8093 -0.514375 0
M  V30 17904 O 1671.26 1.73255 0.534069 0
M  V30 17905 C 1671.31 2.05928 -2.96017 0
M  V30 17906 O 1670.41 3.13825 -2.67559 0
M  V30 17907 H 1669.75 0.31297 -0.585616 0
M  V30 17908 H 1672.28 0.367925 -2.01265 0
M  V30 17909 H 1672.29 2.48799 -3.23362 0
M  V30 17910 H 1670.97 1.52646 -3.86875 0
M  V30 17911 H 1669.55 2.7563 -2.51163 0
M  V30 17912 N 1671.73 1.46313 0.585673 0
M  V30 17913 C 1672.96 1.55273 1.37496 0
M  V30 17914 C 1673.38 0.193481 1.87102 0
M  V30 17915 O 1672.74 -0.825859 1.61398 0
M  V30 17916 C 1672.79 2.5591 2.54052 0
M  V30 17917 O 1671.89 2.09208 3.55395 0
M  V30 17918 H 1671.23 0.522614 0.409598 0
M  V30 17919 H 1673.76 1.9186 0.710697 0
M  V30 17920 H 1673.77 2.75424 3.01008 0
M  V30 17921 H 1672.45 3.54619 2.17298 0
M  V30 17922 H 1671.02 1.9967 3.14939 0
M  V30 17923 N 1673.21 -0.830057 1.33969 0
M  V30 17924 C 1674.14 -1.94534 1.19297 0
M  V30 17925 C 1675.12 -1.62371 0.0862986 0
M  V30 17926 O 1676.3 -1.86833 0.250152 0
M  V30 17927 C 1673.43 -3.28329 0.831718 0
M  V30 17928 C 1672.48 -3.79459 1.94713 0
M  V30 17929 S 1673.31 -4.00075 3.5595 0
M  V30 17930 C 1674.47 -5.36808 3.21851 0
M  V30 17931 H 1674.7 -2.06683 2.13704 0
M  V30 17932 H 1672.23 -0.984833 1.18913 0
M  V30 17933 H 1674.19 -4.05636 0.630076 0
M  V30 17934 H 1672.85 -3.1396 -0.0939047 0
M  V30 17935 H 1672.04 -4.76297 1.64795 0
M  V30 17936 H 1671.65 -3.09076 2.10589 0
M  V30 17937 H 1673.94 -6.19964 2.73223 0
M  V30 17938 H 1674.88 -5.71705 4.17802 0
M  V30 17939 H 1675.29 -5.0198 2.58217 0
M  V30 17940 N 1674.69 -1.17582 -1.04939 0
M  V30 17941 C 1675.93 -0.965778 -1.77986 0
M  V30 17942 C 1676.26 0.505366 -1.8782 0
M  V30 17943 O 1675.52 1.39132 -1.37625 0
M  V30 17944 C 1675.82 -1.55507 -3.21796 0
M  V30 17945 C 1675.48 -3.05086 -3.32014 0
M  V30 17946 C 1674.14 -3.45914 -3.3451 0
M  V30 17947 C 1676.5 -4.01096 -3.32824 0
M  V30 17948 C 1673.82 -4.81344 -3.35447 0
M  V30 17949 C 1676.18 -5.3643 -3.353 0
M  V30 17950 C 1674.84 -5.76718 -3.36084 0
M  V30 17951 H 1674.11 -0.353403 -0.651297 0
M  V30 17952 H 1676.76 -1.46512 -1.23315 0
M  V30 17953 H 1675.06 -0.977509 -3.7941 0
M  V30 17954 H 1676.76 -1.36807 -3.76941 0
M  V30 17955 H 1673.35 -2.72541 -3.30786 0
M  V30 17956 H 1677.53 -3.7061 -3.30094 0
M  V30 17957 H 1672.79 -5.11868 -3.34366 0
M  V30 17958 H 1676.96 -6.106 -3.34874 0
M  V30 17959 H 1674.59 -6.81637 -3.36563 0
M  V30 17960 N 1676.17 1.23705 -0.976463 0
M  V30 17961 C 1677.41 1.9132 -0.638714 0
M  V30 17962 C 1677.73 1.7707 0.830993 0
M  V30 17963 O 1678.93 2.39453 1.27964 0
M  V30 17964 C 1677.39 3.42941 -1.09178 0
M  V30 17965 C 1677 3.6586 -2.58555 0
M  V30 17966 C 1678.74 4.16355 -0.827585 0
M  V30 17967 C 1676.65 5.11096 -2.97549 0
M  V30 17968 H 1675.58 0.716382 -0.235187 0
M  V30 17969 H 1678.23 1.40205 -1.18384 0
M  V30 17970 H 1676.61 3.93142 -0.474893 0
M  V30 17971 H 1677.79 3.26221 -3.25448 0
M  V30 17972 H 1676.1 3.05748 -2.82678 0
M  V30 17973 H 1678.7 5.23372 -1.09482 0
M  V30 17974 H 1679.04 4.15629 0.236282 0
M  V30 17975 H 1679.57 3.7213 -1.40586 0
M  V30 17976 H 1676.31 5.1695 -4.03042 0
M  V30 17977 H 1675.83 5.51699 -2.35346 0
M  V30 17978 H 1677.51 5.79397 -2.87937 0
M  V30 17979 N 1677.64 0.747635 1.38738 0
M  V30 17980 C 1678.89 0.301147 2.00248 0
M  V30 17981 C 1679.22 -1.11539 1.5934 0
M  V30 17982 O 1678.47 -1.77716 0.819487 0
M  V30 17983 C 1678.77 0.364869 3.55533 0
M  V30 17984 C 1678.44 1.73622 4.16133 0
M  V30 17985 C 1677.1 2.11153 4.32398 0
M  V30 17986 C 1679.45 2.63605 4.49624 0
M  V30 17987 C 1676.78 3.38151 4.79449 0
M  V30 17988 C 1679.13 3.89987 4.98089 0
M  V30 17989 C 1677.8 4.27595 5.12561 0
M  V30 17990 H 1677.07 0.110197 0.73276 0
M  V30 17991 H 1679.71 0.956952 1.65876 0
M  V30 17992 H 1678.02 -0.374505 3.90006 0
M  V30 17993 H 1679.72 0.00107503 4.01 0
M  V30 17994 H 1676.31 1.43445 4.03883 0
M  V30 17995 H 1680.49 2.35875 4.36665 0
M  V30 17996 H 1675.75 3.67215 4.88838 0
M  V30 17997 H 1679.92 4.59859 5.22975 0
M  V30 17998 H 1677.55 5.26065 5.4878 0
M  V30 17999 N 1679.12 -1.49583 0.496242 0
M  V30 18000 C 1680.35 -2.07342 -0.0490986 0
M  V30 18001 C 1680.77 -1.35474 -1.30493 0
M  V30 18002 O 1680.13 -0.410005 -1.76603 0
M  V30 18003 C 1680.18 -3.59427 -0.290601 0
M  V30 18004 O 1679.28 -3.89111 -1.36626 0
M  V30 18005 H 1678.62 -0.663562 0.0241141 0
M  V30 18006 H 1681.15 -1.92452 0.6945 0
M  V30 18007 H 1681.16 -4.04627 -0.523549 0
M  V30 18008 H 1679.84 -4.11147 0.626959 0
M  V30 18009 H 1678.41 -3.55726 -1.11864 0
M  V30 18010 N 1680.6 -0.229873 -1.55915 0
M  V30 18011 C 1681.83 0.404189 -2.02914 0
M  V30 18012 C 1682.24 1.52758 -1.10952 0
M  V30 18013 O 1681.6 1.82101 -0.120685 0
M  V30 18014 C 1681.65 0.928016 -3.49385 0
M  V30 18015 O 1681.37 -0.150592 -4.37841 0
M  V30 18016 C 1682.87 1.63448 -4.12067 0
M  V30 18017 H 1680.09 0.0980294 -0.663801 0
M  V30 18018 H 1682.64 -0.34876 -2.01504 0
M  V30 18019 H 1680.79 1.63121 -3.51384 0
M  V30 18020 H 1681.21 0.244429 -5.2393 0
M  V30 18021 H 1682.68 1.95292 -5.16299 0
M  V30 18022 H 1683.16 2.55055 -3.57553 0
M  V30 18023 H 1683.76 0.976292 -4.13943 0
M  V30 18024 N 1682.08 1.5754 0.0434337 0
M  V30 18025 C 1683.31 1.92856 0.749268 0
M  V30 18026 C 1683.72 0.828405 1.69655 0
M  V30 18027 O 1683.08 -0.196294 1.81441 0
M  V30 18028 C 1683.13 3.28052 1.51869 0
M  V30 18029 O 1682.85 4.3384 0.609442 0
M  V30 18030 C 1684.35 3.77562 2.32298 0
M  V30 18031 H 1681.57 0.636818 0.211433 0
M  V30 18032 H 1684.11 2.04499 0.00524119 0
M  V30 18033 H 1682.27 3.1785 2.21472 0
M  V30 18034 H 1682.68 5.11794 1.1475 0
M  V30 18035 H 1684.16 4.7471 2.817 0
M  V30 18036 H 1684.63 3.08015 3.13087 0
M  V30 18037 H 1685.24 3.908 1.67796 0
M  V30 18038 N 1683.56 -0.31543 1.54411 0
M  V30 18039 C 1684.5 -1.4086 1.85098 0
M  V30 18040 C 1685.5 -1.53172 0.723518 0
M  V30 18041 O 1686.7 -1.55461 0.907303 0
M  V30 18042 H 1683.08 -0.47022 0.586853 0
M  V30 18043 H 1685.05 -1.12207 2.765 0
M  V30 18044 C 1683.8 -2.76948 2.10227 0
M  V30 18045 H 1683.12 -2.68251 2.96448 0
M  V30 18046 H 1684.56 -3.52486 2.35647 0
M  V30 18047 C 1683.02 -3.24758 0.896312 0
M  V30 18048 O 1683.55 -4.0155 0.109609 0
M  V30 18049 N 1681.76 -2.81901 0.705685 0
M  V30 18050 H 1681.3 -2.19571 1.34708 0
M  V30 18051 H 1681.26 -3.14242 -0.0996804 0
M  V30 18052 N 1685.03 -1.46622 -0.577906 0
M  V30 18053 C 1686.45 -1.46287 -1.16004 0
M  V30 18054 C 1686.8 -0.206307 -1.95112 0
M  V30 18055 O 1685.92 0.690275 -2.05096 0
M  V30 18056 C 1686.52 -2.65042 -2.1104 0
M  V30 18057 C 1685.08 -2.67733 -2.64567 0
M  V30 18058 C 1684.22 -2.39053 -1.40531 0
M  V30 18059 H 1687.17 -1.54432 -0.365585 0
M  V30 18060 H 1687.19 -2.40834 -2.94583 0
M  V30 18061 H 1686.71 -3.56481 -1.53436 0
M  V30 18062 H 1684.81 -1.80379 -3.26028 0
M  V30 18063 H 1684.92 -3.67836 -3.06974 0
M  V30 18064 H 1683.28 -1.89209 -1.70506 0
M  V30 18065 H 1684.07 -3.32674 -0.847509 0
M  V30 18066 N 1686.51 0.822941 -1.34408 0
M  V30 18067 C 1687.76 1.57418 -1.26105 0
M  V30 18068 C 1688.07 1.94884 0.167225 0
M  V30 18069 O 1689.28 2.68934 0.3724 0
M  V30 18070 C 1687.74 2.84008 -2.21059 0
M  V30 18071 C 1687.34 2.53844 -3.69144 0
M  V30 18072 C 1689.09 3.62029 -2.21664 0
M  V30 18073 C 1687 3.76628 -4.55967 0
M  V30 18074 H 1685.93 0.590813 -0.468461 0
M  V30 18075 H 1688.58 0.906027 -1.59573 0
M  V30 18076 H 1686.96 3.52449 -1.80543 0
M  V30 18077 H 1688.13 1.93515 -4.18197 0
M  V30 18078 H 1686.45 1.89099 -3.70986 0
M  V30 18079 H 1689.04 4.53197 -2.83754 0
M  V30 18080 H 1689.39 3.98147 -1.21593 0
M  V30 18081 H 1689.92 3.00532 -2.60625 0
M  V30 18082 H 1686.66 3.45631 -5.56974 0
M  V30 18083 H 1686.18 4.3624 -4.11648 0
M  V30 18084 H 1687.86 4.44038 -4.70573 0
M  V30 18085 N 1687.99 1.18137 1.04314 0
M  V30 18086 C 1689.41 0.930523 1.29667 0
M  V30 18087 C 1689.61 -0.405336 1.97381 0
M  V30 18088 O 1688.66 -1.14025 2.25288 0
M  V30 18089 C 1689.98 2.09427 2.1578 0
M  V30 18090 C 1691.52 2.13229 2.29134 0
M  V30 18091 C 1692 3.29014 3.18612 0
M  V30 18092 N 1693.49 3.28859 3.26199 0
M  V30 18093 C 1694.22 4.15092 3.95583 0
M  V30 18094 N 1693.72 5.11453 4.67319 0
M  V30 18095 N 1695.51 4.03014 3.91837 0
M  V30 18096 H 1687.66 2.04108 0.587669 0
M  V30 18097 H 1689.93 0.89171 0.321804 0
M  V30 18098 H 1689.63 3.06023 1.73328 0
M  V30 18099 H 1689.51 2.0528 3.16449 0
M  V30 18100 H 1691.89 1.17212 2.70823 0
M  V30 18101 H 1691.98 2.21435 1.28064 0
M  V30 18102 H 1691.62 4.25302 2.77635 0
M  V30 18103 H 1691.55 3.18045 4.19708 0
M  V30 18104 H 1694.04 2.59097 2.75095 0
M  V30 18105 H 1694.35 5.7363 5.1785 0
M  V30 18106 H 1692.7 5.15415 4.66232 0
M  V30 18107 H 1695.89 3.27021 3.34925 0
M  V30 18108 H 1696.06 4.70435 4.4564 0
M  V30 18109 N 1689.47 -1.23186 0.98301 0
M  V30 18110 C 1690.88 -1.43814 0.69207 0
M  V30 18111 C 1691.08 -1.87387 -0.740823 0
M  V30 18112 O 1690.14 -2.02154 -1.51295 0
M  V30 18113 C 1691.45 -2.48769 1.68922 0
M  V30 18114 C 1693 -2.62579 1.70356 0
M  V30 18115 C 1693.48 -3.70746 2.68908 0
M  V30 18116 N 1694.97 -3.78192 2.67442 0
M  V30 18117 C 1695.7 -4.61453 3.40366 0
M  V30 18118 N 1695.2 -5.48784 4.22857 0
M  V30 18119 N 1696.99 -4.55673 3.29118 0
M  V30 18120 H 1689.14 -0.932046 1.90858 0
M  V30 18121 H 1691.41 -0.471274 0.82256 0
M  V30 18122 H 1691.11 -2.23675 2.71408 0
M  V30 18123 H 1690.99 -3.47201 1.47415 0
M  V30 18124 H 1693.37 -2.87022 0.685728 0
M  V30 18125 H 1693.45 -1.64454 1.9593 0
M  V30 18126 H 1693.1 -3.47051 3.70834 0
M  V30 18127 H 1693.03 -4.68418 2.40607 0
M  V30 18128 H 1695.52 -3.15785 2.07577 0
M  V30 18129 H 1695.83 -6.09312 4.75351 0
M  V30 18130 H 1694.18 -5.48398 4.26948 0
M  V30 18131 H 1697.37 -3.86468 2.64122 0
M  V30 18132 H 1697.54 -5.20332 3.8621 0
M  V30 18133 N 1690.95 -0.754982 -1.38339 0
M  V30 18134 C 1691.91 -0.136457 -2.28793 0
M  V30 18135 C 1692.91 0.646016 -1.47252 0
M  V30 18136 O 1694.1 0.472077 -1.67681 0
M  V30 18137 C 1691.23 0.815058 -3.31013 0
M  V30 18138 H 1692.42 -0.933619 -2.84997 0
M  V30 18139 H 1689.98 -0.522082 -1.47323 0
M  V30 18140 H 1690.71 1.63785 -2.79902 0
M  V30 18141 H 1690.5 0.256363 -3.91261 0
M  V30 18142 H 1691.99 1.24378 -3.98648 0
M  V30 18143 N 1692.42 1.49318 -0.504168 0
M  V30 18144 C 1693.66 2.04366 0.0375509 0
M  V30 18145 C 1694.03 1.37521 1.33985 0
M  V30 18146 O 1695.23 1.83308 1.966 0
M  V30 18147 C 1693.5 3.56928 0.183524 0
M  V30 18148 S 1695.06 4.33514 0.679034 0
M  V30 18149 H 1691.88 0.711 0.000264717 0
M  V30 18150 H 1694.48 1.83335 -0.678857 0
M  V30 18151 H 1693.18 4.03121 -0.769546 0
M  V30 18152 H 1692.71 3.82369 0.925078 0
M  V30 18153 H 1694.73 4.56376 1.9477 0
M  V30 18154 N 1693.9 0.238138 1.5579 0
M  V30 18155 C 1694.85 -0.678829 2.1766 0
M  V30 18156 C 1695.84 -1.14558 1.12984 0
M  V30 18157 O 1697.03 -1.09681 1.38921 0
M  V30 18158 C 1694.16 -1.8794 2.87286 0
M  V30 18159 C 1693.24 -1.43156 3.99208 0
M  V30 18160 N 1693.63 -0.697374 5.00969 0
M  V30 18161 C 1691.93 -1.71755 4.11602 0
M  V30 18162 C 1692.63 -0.466696 5.79825 0
M  V30 18163 N 1691.61 -1.02832 5.33785 0
M  V30 18164 H 1695.41 -0.109646 2.93695 0
M  V30 18165 H 1692.93 0.0400828 1.62351 0
M  V30 18166 H 1694.92 -2.54724 3.30033 0
M  V30 18167 H 1693.58 -2.45289 2.12752 0
M  V30 18168 H 1694.59 -0.348366 5.16727 0
M  V30 18169 H 1691.27 -2.30305 3.48232 0
M  V30 18170 H 1692.66 0.118813 6.71795 0
M  V30 18171 N 1695.38 -1.57561 -0.0350783 0
M  V30 18172 C 1696.61 -1.92971 -0.737958 0
M  V30 18173 C 1697.02 -0.835771 -1.6974 0
M  V30 18174 O 1696.36 0.19703 -1.8264 0
M  V30 18175 C 1696.42 -3.24138 -1.55482 0
M  V30 18176 C 1696.09 -4.50622 -0.760818 0
M  V30 18177 C 1697.08 -5.19861 -0.0637364 0
M  V30 18178 C 1694.77 -4.97154 -0.717134 0
M  V30 18179 C 1696.76 -6.33907 0.666395 0
M  V30 18180 C 1694.45 -6.11098 0.0167462 0
M  V30 18181 C 1695.45 -6.79328 0.707276 0
M  V30 18182 O 1695.14 -7.91093 1.42925 0
M  V30 18183 H 1694.87 -0.641628 -0.212814 0
M  V30 18184 H 1697.42 -2.054 0.00152065 0
M  V30 18185 H 1695.65 -3.08019 -2.33798 0
M  V30 18186 H 1697.34 -3.44919 -2.13976 0
M  V30 18187 H 1698.11 -4.84919 -0.0885544 0
M  V30 18188 H 1693.99 -4.43895 -1.24411 0
M  V30 18189 H 1697.53 -6.87098 1.20592 0
M  V30 18190 H 1693.43 -6.45485 0.0435085 0
M  V30 18191 H 1694.2 -8.07418 1.34231 0
M  V30 18192 N 1696.86 0.307236 -1.54576 0
M  V30 18193 C 1698.11 1.04082 -1.72771 0
M  V30 18194 C 1698.42 1.88639 -0.517188 0
M  V30 18195 O 1699.63 2.65215 -0.580811 0
M  V30 18196 C 1698.08 1.90015 -3.05651 0
M  V30 18197 C 1697.69 1.10491 -4.34161 0
M  V30 18198 C 1699.43 2.6301 -3.33205 0
M  V30 18199 C 1697.34 1.95664 -5.58094 0
M  V30 18200 H 1696.27 0.392307 -0.643903 0
M  V30 18201 H 1698.92 0.29815 -1.81062 0
M  V30 18202 H 1697.3 2.68245 -2.91309 0
M  V30 18203 H 1698.48 0.369181 -4.59319 0
M  V30 18204 H 1696.79 0.491053 -4.13494 0
M  V30 18205 H 1699.39 3.27074 -4.22997 0
M  V30 18206 H 1699.73 3.31512 -2.51804 0
M  V30 18207 H 1700.27 1.91833 -3.4849 0
M  V30 18208 H 1697.01 1.31643 -6.42145 0
M  V30 18209 H 1696.53 2.66927 -5.37131 0
M  V30 18210 H 1698.2 2.53861 -5.95116 0
M  V30 18211 N 1698.34 1.46926 0.570122 0
M  V30 18212 C 1699.58 1.53113 1.32982 0
M  V30 18213 C 1699.92 0.187401 1.93294 0
M  V30 18214 O 1699.19 -0.802585 1.77169 0
M  V30 18215 C 1699.47 2.63936 2.44969 0
M  V30 18216 C 1699.33 4.07882 1.8961 0
M  V30 18217 C 1700.65 2.70753 3.46959 0
M  V30 18218 H 1697.76 0.557398 0.482158 0
M  V30 18219 H 1700.41 1.78923 0.639259 0
M  V30 18220 H 1698.56 2.42059 3.03874 0
M  V30 18221 H 1700.23 4.41084 1.35066 0
M  V30 18222 H 1698.47 4.16768 1.20361 0
M  V30 18223 H 1699.14 4.81175 2.70508 0
M  V30 18224 H 1701.62 2.90452 2.97954 0
M  V30 18225 H 1700.49 3.50093 4.2276 0
M  V30 18226 H 1700.76 1.77299 4.04991 0
M  V30 18227 N 1699.82 -0.815801 1.34842 0
M  V30 18228 C 1700.76 -1.94853 1.27024 0
M  V30 18229 C 1701.76 -1.68575 0.166936 0
M  V30 18230 O 1702.96 -1.76905 0.332352 0
M  V30 18231 H 1699.34 -0.640033 0.394794 0
M  V30 18232 H 1701.31 -1.98569 2.2274 0
M  V30 18233 C 1700.06 -3.31474 1.04977 0
M  V30 18234 H 1699.38 -3.52246 1.8911 0
M  V30 18235 H 1700.82 -4.11162 1.03545 0
M  V30 18236 C 1699.28 -3.35995 -0.246708 0
M  V30 18237 O 1699.81 -3.81898 -1.24566 0
M  V30 18238 N 1698.02 -2.89226 -0.282292 0
M  V30 18239 H 1697.56 -2.52063 0.531211 0
M  V30 18240 H 1697.52 -2.92633 -1.1495 0
M  V30 18241 N 1701.29 -1.18689 -1.03686 0
M  V30 18242 C 1702.22 -0.94094 -2.13702 0
M  V30 18243 C 1703.2 0.12277 -1.69656 0
M  V30 18244 O 1704.39 -0.0306085 -1.94176 0
M  V30 18245 C 1701.52 -0.470054 -3.44104 0
M  V30 18246 C 1700.47 -1.47468 -4.01792 0
M  V30 18247 C 1699.8 -0.861174 -5.2772 0
M  V30 18248 C 1701.1 -2.85254 -4.37524 0
M  V30 18249 H 1702.79 -1.86102 -2.34534 0
M  V30 18250 H 1700.34 -0.896207 -1.12713 0
M  V30 18251 H 1702.29 -0.28533 -4.20433 0
M  V30 18252 H 1701.02 0.485604 -3.2297 0
M  V30 18253 H 1699.68 -1.64641 -3.2755 0
M  V30 18254 H 1699.32 0.10179 -5.02897 0
M  V30 18255 H 1699.02 -1.53196 -5.67278 0
M  V30 18256 H 1700.55 -0.687066 -6.06722 0
M  V30 18257 H 1701.96 -2.71711 -5.04823 0
M  V30 18258 H 1700.36 -3.49051 -4.88143 0
M  V30 18259 H 1701.43 -3.38516 -3.47181 0
M  V30 18260 N 1702.77 1.22662 -0.989529 0
M  V30 18261 C 1704.19 1.43445 -0.699687 0
M  V30 18262 C 1704.39 1.87778 0.730875 0
M  V30 18263 O 1703.44 2.02953 1.5022 0
M  V30 18264 C 1704.76 2.47869 -1.70239 0
M  V30 18265 C 1706.3 2.61672 -1.71746 0
M  V30 18266 C 1706.78 3.69315 -2.7087 0
M  V30 18267 N 1708.27 3.76768 -2.69444 0
M  V30 18268 C 1709.01 4.59641 -3.42808 0
M  V30 18269 N 1708.5 5.46533 -4.25762 0
M  V30 18270 N 1710.29 4.53921 -3.3153 0
M  V30 18271 H 1702.45 0.921912 -1.91349 0
M  V30 18272 H 1704.71 0.466905 -0.825048 0
M  V30 18273 H 1704.41 2.22233 -2.7259 0
M  V30 18274 H 1704.29 3.46415 -1.49254 0
M  V30 18275 H 1706.68 2.86655 -0.70094 0
M  V30 18276 H 1706.76 1.63413 -1.96799 0
M  V30 18277 H 1706.4 3.4508 -3.72669 0
M  V30 18278 H 1706.33 4.67136 -2.43088 0
M  V30 18279 H 1708.82 3.1468 -2.09249 0
M  V30 18280 H 1709.13 6.06783 -4.78575 0
M  V30 18281 H 1707.48 5.46126 -4.2985 0
M  V30 18282 H 1710.67 3.85062 -2.66168 0
M  V30 18283 H 1710.84 5.18277 -3.88964 0
M  V30 18284 N 1704.25 0.762308 1.37937 0
M  V30 18285 C 1705.48 0.332974 2.03899 0
M  V30 18286 C 1705.89 -1.04654 1.57621 0
M  V30 18287 O 1705.23 -1.67759 0.748504 0
M  V30 18288 C 1705.29 0.286844 3.58354 0
M  V30 18289 C 1704.96 1.60936 4.27725 0
M  V30 18290 C 1705.95 2.56012 4.52497 0
M  V30 18291 C 1703.64 1.88119 4.65743 0
M  V30 18292 C 1705.63 3.76486 5.14332 0
M  V30 18293 C 1703.32 3.08865 5.273 0
M  V30 18294 C 1704.32 4.02868 5.51531 0
M  V30 18295 O 1704.01 5.2149 6.11804 0
M  V30 18296 H 1703.74 0.138852 0.661586 0
M  V30 18297 H 1706.29 1.0346 1.77441 0
M  V30 18298 H 1704.52 -0.471086 3.8382 0
M  V30 18299 H 1706.21 -0.114146 4.05739 0
M  V30 18300 H 1706.98 2.36289 4.23547 0
M  V30 18301 H 1702.86 1.15783 4.46223 0
M  V30 18302 H 1706.4 4.49873 5.33161 0
M  V30 18303 H 1702.3 3.28477 5.55673 0
M  V30 18304 H 1703.06 5.22188 6.30287 0
M  V30 18305 N 1705.73 -1.49049 0.51208 0
M  V30 18306 C 1706.97 -2.0248 -0.0284889 0
M  V30 18307 C 1707.3 -1.39082 -1.35965 0
M  V30 18308 O 1706.56 -0.519593 -1.88676 0
M  V30 18309 C 1706.86 -3.56734 -0.218125 0
M  V30 18310 C 1706.52 -4.38827 1.03643 0
M  V30 18311 C 1705.18 -4.60979 1.38029 0
M  V30 18312 C 1707.54 -4.86505 1.86982 0
M  V30 18313 C 1704.86 -5.28055 2.55686 0
M  V30 18314 C 1707.22 -5.54876 3.03801 0
M  V30 18315 C 1705.88 -5.75271 3.38555 0
M  V30 18316 H 1705.15 -0.740927 -0.0104248 0
M  V30 18317 H 1707.8 -1.79229 0.674481 0
M  V30 18318 H 1706.1 -3.78725 -1.00372 0
M  V30 18319 H 1707.8 -3.9568 -0.651013 0
M  V30 18320 H 1704.39 -4.21833 0.758594 0
M  V30 18321 H 1708.57 -4.69209 1.61729 0
M  V30 18322 H 1703.83 -5.42046 2.82837 0
M  V30 18323 H 1708 -5.90793 3.68696 0
M  V30 18324 H 1705.63 -6.2702 4.29825 0
M  V30 18325 N 1707.21 -0.246397 -1.55662 0
M  V30 18326 C 1708.12 0.664125 -2.25003 0
M  V30 18327 C 1709.13 1.19368 -1.26598 0
M  V30 18328 O 1710.31 1.23006 -1.59473 0
M  V30 18329 C 1707.37 1.8446 -2.93557 0
M  V30 18330 C 1706.43 1.35456 -4.0737 0
M  V30 18331 C 1705.67 2.47877 -4.72645 0
M  V30 18332 O 1705.89 3.66594 -4.36995 0
M  V30 18333 O 1704.82 2.17663 -5.61165 0
M  V30 18334 H 1708.65 0.103277 -3.03524 0
M  V30 18335 H 1706.23 -0.0149207 -1.49393 0
M  V30 18336 H 1708.12 2.53349 -3.36737 0
M  V30 18337 H 1706.79 2.39308 -2.17976 0
M  V30 18338 H 1705.7 0.632958 -3.68706 0
M  V30 18339 H 1707.03 0.852175 -4.84767 0
M  V30 18340 N 1708.68 1.57577 0.026722 0
M  V30 18341 C 1709.62 2.021 1.05976 0
M  V30 18342 C 1710.59 0.905778 1.35035 0
M  V30 18343 O 1711.78 1.1718 1.47652 0
M  V30 18344 C 1708.91 2.39603 2.39391 0
M  V30 18345 C 1707.95 3.61591 2.26174 0
M  V30 18346 S 1708.78 5.10631 1.61295 0
M  V30 18347 C 1709.94 5.51379 2.96196 0
M  V30 18348 H 1710.17 2.89406 0.680545 0
M  V30 18349 H 1707.71 1.52574 0.236771 0
M  V30 18350 H 1709.66 2.61881 3.16115 0
M  V30 18351 H 1708.33 1.52744 2.7446 0
M  V30 18352 H 1707.52 3.85495 3.24669 0
M  V30 18353 H 1707.12 3.39176 1.57593 0
M  V30 18354 H 1709.41 5.52206 3.92524 0
M  V30 18355 H 1710.36 6.51663 2.77023 0
M  V30 18356 H 1710.76 4.78887 2.98877 0
M  V30 18357 N 1710.16 -0.299034 1.54737 0
M  V30 18358 C 1711.4 -1.04194 1.75849 0
M  V30 18359 C 1711.77 -1.84422 0.534101 0
M  V30 18360 O 1712.97 -2.61481 0.622996 0
M  V30 18361 C 1711.24 -1.92232 3.013 0
M  V30 18362 S 1712.8 -2.73142 3.43423 0
M  V30 18363 H 1709.61 -0.351367 0.618112 0
M  V30 18364 H 1712.22 -0.315134 1.92943 0
M  V30 18365 H 1710.92 -1.32172 3.88534 0
M  V30 18366 H 1710.45 -2.69277 2.86798 0
M  V30 18367 H 1712.47 -3.94747 3.00647 0
M  V30 18368 N 1711.64 -1.47227 -0.562322 0
M  V30 18369 C 1712.89 -1.52851 -1.31604 0
M  V30 18370 C 1713.2 -0.193236 -1.94643 0
M  V30 18371 O 1714.41 -0.127429 -2.71201 0
M  V30 18372 C 1712.86 -2.69422 -2.3862 0
M  V30 18373 C 1712.47 -4.09457 -1.81794 0
M  V30 18374 C 1714.22 -2.84334 -3.15205 0
M  V30 18375 C 1712.12 -5.17337 -2.8656 0
M  V30 18376 H 1711.05 -0.568923 -0.494816 0
M  V30 18377 H 1713.7 -1.73489 -0.597819 0
M  V30 18378 H 1712.09 -2.42153 -3.13333 0
M  V30 18379 H 1713.26 -4.46606 -1.13487 0
M  V30 18380 H 1711.57 -3.99387 -1.17811 0
M  V30 18381 H 1714.17 -3.621 -3.93431 0
M  V30 18382 H 1714.51 -1.9259 -3.69073 0
M  V30 18383 H 1715.05 -3.11348 -2.47603 0
M  V30 18384 H 1711.79 -6.1094 -2.37554 0
M  V30 18385 H 1711.31 -4.8471 -3.53293 0
M  V30 18386 H 1712.99 -5.44065 -3.50146 0
M  V30 18387 N 1713.12 0.808639 -1.35273 0
M  V30 18388 C 1714.05 1.93502 -1.30687 0
M  V30 18389 C 1715.03 1.69127 -0.181675 0
M  V30 18390 O 1716.21 1.90519 -0.376312 0
M  V30 18391 C 1713.34 3.30211 -1.07602 0
M  V30 18392 C 1712.3 3.69063 -2.16741 0
M  V30 18393 C 1711.62 5.03911 -1.78824 0
M  V30 18394 C 1712.92 3.79656 -3.5869 0
M  V30 18395 H 1714.62 1.97597 -2.24935 0
M  V30 18396 H 1712.16 0.949284 -1.0828 0
M  V30 18397 H 1714.12 4.0861 -1.03034 0
M  V30 18398 H 1712.84 3.26453 -0.0979944 0
M  V30 18399 H 1711.5 2.92948 -2.20402 0
M  V30 18400 H 1711.15 4.96655 -0.796449 0
M  V30 18401 H 1710.85 5.30877 -2.51881 0
M  V30 18402 H 1712.37 5.84752 -1.75777 0
M  V30 18403 H 1713.79 4.48292 -3.57362 0
M  V30 18404 H 1712.18 4.1809 -4.30489 0
M  V30 18405 H 1713.25 2.81265 -3.94991 0
M  V30 18406 N 1714.6 1.19237 1.03055 0
M  V30 18407 C 1715.53 0.95226 2.132 0
M  V30 18408 C 1716.51 -0.113771 1.69719 0
M  V30 18409 O 1717.69 0.0409057 1.94157 0
M  V30 18410 C 1714.82 0.488296 3.4385 0
M  V30 18411 C 1713.78 1.49597 4.01005 0
M  V30 18412 C 1713.1 0.889148 5.27255 0
M  V30 18413 C 1714.4 2.87571 4.36005 0
M  V30 18414 H 1716.1 1.87343 2.33544 0
M  V30 18415 H 1713.64 0.902172 1.12236 0
M  V30 18416 H 1715.6 0.307623 4.20276 0
M  V30 18417 H 1714.32 -0.468469 3.23223 0
M  V30 18418 H 1712.98 1.66376 3.26672 0
M  V30 18419 H 1712.63 -0.0751191 5.02944 0
M  V30 18420 H 1712.33 1.56202 5.66458 0
M  V30 18421 H 1713.85 0.719233 6.06349 0
M  V30 18422 H 1715.26 2.74384 5.03375 0
M  V30 18423 H 1713.66 3.51635 4.86285 0
M  V30 18424 H 1714.73 3.40353 3.45381 0
M  V30 18425 N 1716.07 -1.22136 0.99602 0
M  V30 18426 C 1717.32 -1.9125 0.674632 0
M  V30 18427 C 1717.65 -1.77331 -0.791655 0
M  V30 18428 O 1716.93 -1.14419 -1.57285 0
M  V30 18429 C 1717.21 -3.43359 1.08521 0
M  V30 18430 C 1717.06 -3.66312 2.61028 0
M  V30 18431 C 1718.38 -4.3541 0.640795 0
M  V30 18432 H 1715.5 -0.694534 0.246559 0
M  V30 18433 H 1718.14 -1.4395 1.2401 0
M  V30 18434 H 1716.29 -3.83775 0.604071 0
M  V30 18435 H 1717.97 -3.3528 3.16836 0
M  V30 18436 H 1716.21 -3.10485 3.02954 0
M  V30 18437 H 1716.88 -4.72852 2.84807 0
M  V30 18438 H 1719.36 -4.02527 1.05411 0
M  V30 18439 H 1718.23 -5.40505 0.956337 0
M  V30 18440 H 1718.49 -4.39717 -0.458421 0
M  V30 18441 N 1717.55 -0.769612 -1.37531 0
M  V30 18442 C 1718.8 -0.329661 -1.98988 0
M  V30 18443 C 1719.11 1.0993 -1.61786 0
M  V30 18444 O 1720.32 1.64053 -2.1633 0
M  V30 18445 C 1718.78 -0.538461 -3.55849 0
M  V30 18446 C 1718.38 -1.97755 -4.01991 0
M  V30 18447 C 1720.13 -0.162026 -4.24191 0
M  V30 18448 C 1718.04 -2.13406 -5.51554 0
M  V30 18449 H 1716.97 -0.119514 -0.744468 0
M  V30 18450 H 1719.62 -0.948436 -1.57089 0
M  V30 18451 H 1718 0.14974 -3.95717 0
M  V30 18452 H 1719.17 -2.70053 -3.73374 0
M  V30 18453 H 1717.49 -2.31038 -3.46425 0
M  V30 18454 H 1720.08 -0.257508 -5.3408 0
M  V30 18455 H 1720.43 0.887442 -4.06731 0
M  V30 18456 H 1720.96 -0.802692 -3.89617 0
M  V30 18457 H 1717.7 -3.16664 -5.73937 0
M  V30 18458 H 1717.22 -1.45589 -5.81862 0
M  V30 18459 H 1718.9 -1.93165 -6.17492 0
M  V30 18460 N 1719.03 1.48775 -0.519977 0
M  V30 18461 C 1719.99 2.27967 0.237405 0
M  V30 18462 C 1720.99 1.34787 0.876868 0
M  V30 18463 O 1722.18 1.57773 0.738463 0
M  V30 18464 C 1719.32 3.13353 1.34248 0
M  V30 18465 H 1720.51 2.96386 -0.457753 0
M  V30 18466 H 1718.06 1.53852 -0.275569 0
M  V30 18467 H 1718.8 2.49543 2.0712 0
M  V30 18468 H 1718.58 3.81885 0.889187 0
M  V30 18469 H 1720.07 3.73116 1.87547 0
M  V30 18470 N 1720.51 0.254649 1.55529 0
M  V30 18471 C 1721.47 -0.62836 2.20418 0
M  V30 18472 C 1722.47 -1.09691 1.17578 0
M  V30 18473 O 1723.66 -1.00037 1.42612 0
M  V30 18474 C 1720.79 -1.86453 2.85391 0
M  V30 18475 H 1721.99 -0.0621032 2.99836 0
M  V30 18476 H 1719.54 0.00514311 1.56299 0
M  V30 18477 H 1720.27 -2.47182 2.09932 0
M  V30 18478 H 1720.06 -1.53669 3.60733 0
M  V30 18479 H 1721.55 -2.49291 3.35028 0
M  V30 18480 N 1721.99 -1.57589 -0.0183649 0
M  V30 18481 C 1723.21 -1.94421 -0.722172 0
M  V30 18482 C 1723.64 -0.855471 -1.67521 0
M  V30 18483 O 1722.99 0.187954 -1.80323 0
M  V30 18484 C 1723.04 -3.30331 -1.44615 0
M  V30 18485 O 1722.15 -3.23337 -2.55982 0
M  V30 18486 H 1721.49 -0.63519 -0.193466 0
M  V30 18487 H 1724.02 -2.04579 0.0293527 0
M  V30 18488 H 1724.03 -3.65471 -1.8137 0
M  V30 18489 H 1722.7 -4.09132 -0.747256 0
M  V30 18490 H 1721.28 -2.99845 -2.21692 0
M  V30 18491 N 1723.46 0.290824 -1.54893 0
M  V30 18492 C 1724.69 1.04775 -1.78988 0
M  V30 18493 C 1725.11 1.79799 -0.552637 0
M  V30 18494 O 1724.47 1.74349 0.497199 0
M  V30 18495 C 1724.52 1.99603 -3.00318 0
M  V30 18496 O 1723.62 3.08079 -2.74155 0
M  V30 18497 H 1722.97 0.300478 -0.592123 0
M  V30 18498 H 1725.5 0.325151 -2.02 0
M  V30 18499 H 1725.51 2.41884 -3.28567 0
M  V30 18500 H 1724.18 1.44406 -3.90025 0
M  V30 18501 H 1722.76 2.7024 -2.56953 0
M  V30 18502 N 1724.94 1.47523 0.554506 0
M  V30 18503 C 1726.19 1.53546 1.30791 0
M  V30 18504 C 1726.5 0.203555 1.94538 0
M  V30 18505 O 1727.71 0.14181 2.71129 0
M  V30 18506 C 1726.17 2.70684 2.37188 0
M  V30 18507 C 1725.77 4.10415 1.7962 0
M  V30 18508 C 1727.52 2.86002 3.13693 0
M  V30 18509 C 1725.43 5.18849 2.83813 0
M  V30 18510 H 1724.36 0.571539 0.491792 0
M  V30 18511 H 1727.01 1.73803 0.58861 0
M  V30 18512 H 1725.39 2.43812 3.12045 0
M  V30 18513 H 1726.56 4.47202 1.11117 0
M  V30 18514 H 1724.88 4.00006 1.15691 0
M  V30 18515 H 1727.47 3.64181 3.91505 0
M  V30 18516 H 1727.82 1.94545 3.68046 0
M  V30 18517 H 1728.35 3.12657 2.45948 0
M  V30 18518 H 1725.09 6.12192 2.34311 0
M  V30 18519 H 1724.61 4.86577 3.50718 0
M  V30 18520 H 1726.29 5.45915 3.47255 0
M  V30 18521 N 1726.42 -0.801453 1.357 0
M  V30 18522 C 1727.38 -1.89514 1.28907 0
M  V30 18523 C 1728.38 -1.59559 0.19938 0
M  V30 18524 O 1729.57 -1.68196 0.453408 0
M  V30 18525 C 1726.71 -3.26044 0.995411 0
M  V30 18526 H 1727.9 -1.96956 2.2616 0
M  V30 18527 H 1725.45 -0.997899 1.20298 0
M  V30 18528 H 1726.19 -3.24289 0.0269561 0
M  V30 18529 H 1725.97 -3.49172 1.78385 0
M  V30 18530 H 1727.46 -4.06092 0.97362 0
M  V30 18531 N 1727.9 -1.19782 -1.02421 0
M  V30 18532 C 1728.83 -0.963553 -2.12692 0
M  V30 18533 C 1729.81 0.104769 -1.69777 0
M  V30 18534 O 1730.99 -0.0512017 -1.94132 0
M  V30 18535 C 1728.12 -0.506525 -3.43586 0
M  V30 18536 C 1727.08 -1.51722 -4.00206 0
M  V30 18537 C 1726.4 -0.917097 -5.26776 0
M  V30 18538 C 1727.7 -2.89879 -4.34474 0
M  V30 18539 H 1729.4 -1.88579 -2.32547 0
M  V30 18540 H 1726.94 -0.908111 -1.11756 0
M  V30 18541 H 1728.9 -0.329907 -4.20107 0
M  V30 18542 H 1727.62 0.451322 -3.23467 0
M  V30 18543 H 1726.28 -1.68106 -3.25785 0
M  V30 18544 H 1725.93 0.0484457 -5.02977 0
M  V30 18545 H 1725.63 -1.59204 -5.65622 0
M  V30 18546 H 1727.15 -0.751379 -6.05959 0
M  V30 18547 H 1728.57 -2.7705 -5.01913 0
M  V30 18548 H 1726.96 -3.54209 -4.84413 0
M  V30 18549 H 1728.03 -3.42179 -3.43571 0
M  V30 18550 N 1729.38 1.21606 -1.00248 0
M  V30 18551 C 1730.34 2.22107 -0.565772 0
M  V30 18552 C 1731.34 1.56798 0.356521 0
M  V30 18553 O 1732.53 1.73577 0.147154 0
M  V30 18554 C 1729.66 3.40447 0.175742 0
M  V30 18555 H 1730.86 2.62258 -1.45468 0
M  V30 18556 H 1728.41 1.34823 -0.790721 0
M  V30 18557 H 1729.14 3.05781 1.0802 0
M  V30 18558 H 1728.93 3.89069 -0.486612 0
M  V30 18559 H 1730.42 4.14957 0.469122 0
M  V30 18560 N 1730.86 0.776895 1.37121 0
M  V30 18561 C 1731.82 0.172839 2.28547 0
M  V30 18562 C 1732.82 -0.622508 1.48262 0
M  V30 18563 O 1734.01 -0.44534 1.68411 0
M  V30 18564 C 1731.14 -0.762294 3.32268 0
M  V30 18565 H 1732.33 0.978842 2.83476 0
M  V30 18566 H 1729.89 0.545454 1.46474 0
M  V30 18567 H 1730.62 -1.59311 2.82472 0
M  V30 18568 H 1730.41 -0.194084 3.91619 0
M  V30 18569 H 1731.9 -1.1802 4.00576 0
M  V30 18570 N 1732.33 -1.48497 0.527859 0
M  V30 18571 C 1733.24 -2.3337 -0.239957 0
M  V30 18572 C 1734.26 -1.46353 -0.941101 0
M  V30 18573 O 1735.44 -1.79337 -0.916532 0
M  V30 18574 C 1732.5 -3.22421 -1.27458 0
M  V30 18575 C 1731.56 -4.25309 -0.584017 0
M  V30 18576 C 1730.79 -5.10105 -1.56935 0
M  V30 18577 O 1731.02 -4.96846 -2.80178 0
M  V30 18578 O 1729.95 -5.91578 -1.10991 0
M  V30 18579 H 1733.78 -3.00265 0.455458 0
M  V30 18580 H 1731.36 -1.46582 0.288809 0
M  V30 18581 H 1733.24 -3.7751 -1.87254 0
M  V30 18582 H 1731.92 -2.58189 -1.95244 0
M  V30 18583 H 1730.83 -3.7406 0.0543828 0
M  V30 18584 H 1732.16 -4.92173 0.0518646 0
M  V30 18585 N 1733.81 -0.262893 -1.55392 0
M  V30 18586 C 1735.09 0.408525 -1.91286 0
M  V30 18587 C 1735.47 1.74657 -1.18566 0
M  V30 18588 O 1734.82 2.26409 -0.308422 0
M  V30 18589 C 1735.03 0.560865 -3.44464 0
M  V30 18590 C 1736.37 0.849401 -4.16017 0
M  V30 18591 O 1737.4 0.646134 -3.50291 0
M  V30 18592 O 1736.26 1.23741 -5.32307 0
M  V30 18593 H 1733.35 0.221707 -0.796728 0
M  V30 18594 H 1735.9 -0.308143 -1.66879 0
M  V30 18595 H 1734.67 -0.381279 -3.89438 0
M  V30 18596 H 1734.29 1.32747 -3.74785 0
M  V30 18597 N 1735.29 1.57597 0.0100073 0
M  V30 18598 C 1736.7 1.78287 0.554143 0
M  V30 18599 C 1737.05 0.896332 1.74529 0
M  V30 18600 O 1736.18 0.0961505 2.16186 0
M  V30 18601 C 1736.77 3.23331 1.01206 0
M  V30 18602 C 1735.33 3.45152 1.50157 0
M  V30 18603 C 1734.48 2.73654 0.448221 0
M  V30 18604 H 1737.43 1.57221 -0.216189 0
M  V30 18605 H 1737.45 3.30893 1.87856 0
M  V30 18606 H 1736.96 3.87829 0.144921 0
M  V30 18607 H 1735.06 2.85854 2.38994 0
M  V30 18608 H 1735.18 4.53813 1.53594 0
M  V30 18609 H 1733.54 2.3798 0.907603 0
M  V30 18610 H 1734.32 3.40846 -0.40978 0
M  V30 18611 N 1736.77 -0.282606 1.55045 0
M  V30 18612 C 1738.01 -1.01698 1.75458 0
M  V30 18613 C 1738.35 -1.86284 0.548808 0
M  V30 18614 O 1737.62 -1.89131 -0.45382 0
M  V30 18615 C 1737.9 -1.90759 3.05423 0
M  V30 18616 C 1737.76 -1.0923 4.36336 0
M  V30 18617 C 1739.08 -2.8963 3.31364 0
M  V30 18618 H 1736.2 -0.368305 0.638373 0
M  V30 18619 H 1738.84 -0.290118 1.87772 0
M  V30 18620 H 1736.99 -2.52734 2.95055 0
M  V30 18621 H 1738.66 -0.493996 4.58647 0
M  V30 18622 H 1736.9 -0.395481 4.31994 0
M  V30 18623 H 1737.57 -1.74842 5.23578 0
M  V30 18624 H 1740.05 -2.37788 3.41462 0
M  V30 18625 H 1738.93 -3.49096 4.23584 0
M  V30 18626 H 1739.19 -3.64255 2.50541 0
M  V30 18627 N 1738.25 -1.47815 -0.546675 0
M  V30 18628 C 1739.18 -1.63976 -1.66235 0
M  V30 18629 C 1740.16 -0.488945 -1.62921 0
M  V30 18630 O 1741.34 -0.719532 -1.80378 0
M  V30 18631 C 1738.47 -1.6637 -3.04858 0
M  V30 18632 C 1737.43 -2.80785 -3.23023 0
M  V30 18633 C 1736.75 -2.68257 -4.62539 0
M  V30 18634 C 1738.05 -4.22267 -3.07388 0
M  V30 18635 H 1739.75 -2.57375 -1.52965 0
M  V30 18636 H 1737.29 -1.23861 -0.734465 0
M  V30 18637 H 1739.24 -1.76266 -3.82764 0
M  V30 18638 H 1737.97 -0.695386 -3.19111 0
M  V30 18639 H 1736.63 -2.70417 -2.47529 0
M  V30 18640 H 1736.28 -1.69431 -4.73606 0
M  V30 18641 H 1735.98 -3.45022 -4.75641 0
M  V30 18642 H 1737.5 -2.80097 -5.42566 0
M  V30 18643 H 1738.91 -4.33557 -3.75102 0
M  V30 18644 H 1737.31 -4.999 -3.31994 0
M  V30 18645 H 1738.38 -4.39897 -2.04006 0
M  V30 18646 N 1739.72 0.794246 -1.36123 0
M  V30 18647 C 1740.95 1.58297 -1.33228 0
M  V30 18648 C 1741.37 1.88597 0.0875426 0
M  V30 18649 O 1740.72 1.49754 1.04307 0
M  V30 18650 C 1740.77 2.90687 -2.14904 0
M  V30 18651 O 1740.5 2.61695 -3.51351 0
M  V30 18652 C 1742 3.85009 -2.19734 0
M  V30 18653 H 1739.22 0.491139 -0.457191 0
M  V30 18654 H 1741.76 0.986129 -1.79153 0
M  V30 18655 H 1739.92 3.46852 -1.72546 0
M  V30 18656 H 1740.33 3.46313 -3.93913 0
M  V30 18657 H 1741.8 4.74976 -2.8125 0
M  V30 18658 H 1742.28 4.22504 -1.19946 0
M  V30 18659 H 1742.89 3.34777 -2.62307 0
M  V30 18660 N 1741.2 1.20323 1.01785 0
M  V30 18661 C 1742.15 0.947754 2.12416 0
M  V30 18662 C 1743.14 -0.100443 1.69102 0
M  V30 18663 O 1744.35 0.0498028 1.79931 0
M  V30 18664 H 1740.72 0.289148 0.694188 0
M  V30 18665 H 1742.7 1.88714 2.31149 0
M  V30 18666 C 1741.44 0.51503 3.43864 0
M  V30 18667 H 1740.77 1.31318 3.77618 0
M  V30 18668 H 1742.21 0.375476 4.22334 0
M  V30 18669 C 1740.67 -0.772413 3.27926 0
M  V30 18670 O 1741.2 -1.83115 3.57536 0
M  V30 18671 N 1739.4 -0.733948 2.81179 0
M  V30 18672 H 1738.95 0.127902 2.57282 0
M  V30 18673 H 1738.91 -1.59571 2.70896 0
M  V30 18674 N 1742.68 -1.21073 1.00892 0
M  V30 18675 C 1743.9 -1.94774 0.712588 0
M  V30 18676 C 1744.33 -1.73812 -0.719085 0
M  V30 18677 O 1743.69 -1.02747 -1.49374 0
M  V30 18678 C 1743.74 -3.45156 1.04402 0
M  V30 18679 O 1742.84 -4.12122 0.151433 0
M  V30 18680 H 1742.18 -0.608775 0.26512 0
M  V30 18681 H 1744.71 -1.53721 1.35022 0
M  V30 18682 H 1744.72 -3.95744 0.992511 0
M  V30 18683 H 1743.4 -3.59736 2.08716 0
M  V30 18684 H 1741.97 -3.71994 0.259805 0
M  V30 18685 N 1744.16 -0.784156 -1.36707 0
M  V30 18686 C 1745.07 -0.179959 -2.33909 0
M  V30 18687 C 1746.08 0.665092 -1.60787 0
M  V30 18688 O 1747.26 0.582111 -1.92804 0
M  V30 18689 C 1744.33 0.679323 -3.3998 0
M  V30 18690 C 1743.39 -0.183618 -4.28907 0
M  V30 18691 C 1742.62 0.634747 -5.29912 0
M  V30 18692 O 1742.84 1.87107 -5.38839 0
M  V30 18693 O 1741.78 0.0374113 -6.01888 0
M  V30 18694 H 1745.6 -0.983499 -2.87334 0
M  V30 18695 H 1743.19 -0.545521 -1.39084 0
M  V30 18696 H 1745.07 1.16948 -4.04847 0
M  V30 18697 H 1743.74 1.46084 -2.88862 0
M  V30 18698 H 1742.65 -0.720419 -3.67098 0
M  V30 18699 H 1743.98 -0.928522 -4.83363 0
M  V30 18700 N 1745.64 1.48215 -0.535727 0
M  V30 18701 C 1747.05 1.58417 -0.193977 0
M  V30 18702 C 1747.25 1.53705 1.30296 0
M  V30 18703 O 1746.31 1.42913 2.08164 0
M  V30 18704 C 1747.62 2.89819 -0.8016 0
M  V30 18705 C 1749.17 3.03359 -0.770858 0
M  V30 18706 C 1749.64 4.3743 -1.35716 0
M  V30 18707 N 1751.14 4.44012 -1.31938 0
M  V30 18708 C 1751.87 5.4627 -1.74287 0
M  V30 18709 N 1751.37 6.55454 -2.24393 0
M  V30 18710 N 1753.16 5.37187 -1.65489 0
M  V30 18711 H 1745.31 1.49521 -1.50855 0
M  V30 18712 H 1747.57 0.710306 -0.627829 0
M  V30 18713 H 1747.28 2.98939 -1.85278 0
M  V30 18714 H 1747.15 3.76144 -0.282036 0
M  V30 18715 H 1749.54 2.93848 0.271577 0
M  V30 18716 H 1749.62 2.1863 -1.32795 0
M  V30 18717 H 1749.27 4.47696 -2.39855 0
M  V30 18718 H 1749.2 5.20856 -0.775696 0
M  V30 18719 H 1751.69 3.65695 -0.952653 0
M  V30 18720 H 1752 7.29626 -2.54686 0
M  V30 18721 H 1750.34 6.56402 -2.2839 0
M  V30 18722 H 1753.54 4.50785 -1.26138 0
M  V30 18723 H 1753.71 6.16747 -1.98814 0
M  V30 18724 N 1747.11 0.27113 1.5525 0
M  V30 18725 C 1748.06 -0.634087 2.2379 0
M  V30 18726 C 1749.06 -1.16101 1.23357 0
M  V30 18727 O 1750.26 -1.1151 1.413 0
M  V30 18728 H 1746.64 -0.223023 0.718168 0
M  V30 18729 H 1748.61 -0.0331304 2.98382 0
M  V30 18730 C 1747.36 -1.80879 2.96948 0
M  V30 18731 H 1746.68 -1.41252 3.74016 0
M  V30 18732 H 1748.12 -2.41888 3.48233 0
M  V30 18733 C 1746.58 -2.69481 2.02192 0
M  V30 18734 O 1747.11 -3.69725 1.57056 0
M  V30 18735 N 1745.32 -2.36565 1.68776 0
M  V30 18736 H 1744.86 -1.55096 2.05677 0
M  V30 18737 H 1744.82 -2.96119 1.05646 0
M  V30 18738 N 1748.59 -1.576 -0.00164943 0
M  V30 18739 C 1749.54 -2.08318 -0.993594 0
M  V30 18740 C 1750.51 -0.978234 -1.34238 0
M  V30 18741 O 1751.69 -1.25056 -1.44103 0
M  V30 18742 C 1748.83 -2.58982 -2.28084 0
M  V30 18743 C 1747.95 -3.83372 -1.99123 0
M  V30 18744 C 1747.08 -4.22543 -3.21917 0
M  V30 18745 C 1746.12 -5.39774 -2.88635 0
M  V30 18746 N 1745.26 -5.74247 -4.03962 0
M  V30 18747 H 1750.1 -2.92802 -0.554154 0
M  V30 18748 H 1747.64 -1.44748 -0.261973 0
M  V30 18749 H 1749.59 -2.86434 -3.03334 0
M  V30 18750 H 1748.22 -1.77374 -2.697 0
M  V30 18751 H 1747.28 -3.62838 -1.14248 0
M  V30 18752 H 1748.59 -4.68722 -1.70591 0
M  V30 18753 H 1747.74 -4.51268 -4.05514 0
M  V30 18754 H 1746.48 -3.35899 -3.53587 0
M  V30 18755 H 1745.49 -5.10774 -2.03445 0
M  V30 18756 H 1746.71 -6.28094 -2.58215 0
M  V30 18757 H 1744.66 -4.9056 -4.35531 0
M  V30 18758 H 1744.57 -6.54167 -3.78948 0
M  V30 18759 H 1745.84 -6.07563 -4.88352 0
M  V30 18760 N 1750.07 0.274379 -1.55193 0
M  V30 18761 C 1751.32 1.00766 -1.75995 0
M  V30 18762 C 1751.65 1.8599 -0.558679 0
M  V30 18763 O 1750.92 1.8937 0.443784 0
M  V30 18764 C 1751.21 1.89137 -3.0643 0
M  V30 18765 C 1751.06 1.06914 -4.36909 0
M  V30 18766 C 1752.38 2.87869 -3.32896 0
M  V30 18767 H 1749.5 0.364915 -0.640317 0
M  V30 18768 H 1752.14 0.280156 -1.87923 0
M  V30 18769 H 1750.29 2.51166 -2.96391 0
M  V30 18770 H 1751.96 0.469666 -4.58903 0
M  V30 18771 H 1750.21 0.372566 -4.32197 0
M  V30 18772 H 1750.88 1.72063 -5.24498 0
M  V30 18773 H 1753.35 2.35974 -3.42718 0
M  V30 18774 H 1752.23 3.46845 -4.25429 0
M  V30 18775 H 1752.49 3.62921 -2.52469 0
M  V30 18776 N 1751.55 1.48103 0.538828 0
M  V30 18777 C 1752.48 1.64856 1.65363 0
M  V30 18778 C 1753.46 0.497579 1.6266 0
M  V30 18779 O 1754.64 0.729088 1.79994 0
M  V30 18780 C 1751.77 1.67984 3.03971 0
M  V30 18781 C 1750.73 2.82494 3.21529 0
M  V30 18782 C 1750.05 2.70706 4.6111 0
M  V30 18783 C 1751.35 4.23892 3.05145 0
M  V30 18784 H 1753.05 2.58183 1.51598 0
M  V30 18785 H 1750.59 1.24249 0.727886 0
M  V30 18786 H 1752.55 1.78294 3.81824 0
M  V30 18787 H 1751.27 0.712299 3.18738 0
M  V30 18788 H 1749.93 2.71725 2.46091 0
M  V30 18789 H 1749.58 1.7194 4.727 0
M  V30 18790 H 1749.28 3.47539 4.73804 0
M  V30 18791 H 1750.8 2.82971 5.41073 0
M  V30 18792 H 1752.22 4.3554 3.72797 0
M  V30 18793 H 1750.61 5.01654 3.29338 0
M  V30 18794 H 1751.68 4.40973 2.01671 0
M  V30 18795 N 1753.03 -0.787016 1.36542 0
M  V30 18796 C 1754.44 -1.08541 1.17008 0
M  V30 18797 C 1754.64 -2.015 -0.00419378 0
M  V30 18798 O 1753.7 -2.43481 -0.668826 0
M  V30 18799 C 1755.01 -1.69758 2.48199 0
M  V30 18800 C 1756.56 -1.82088 2.54584 0
M  V30 18801 C 1757.03 -2.46719 3.85868 0
M  V30 18802 N 1758.53 -2.54185 3.87227 0
M  V30 18803 C 1759.26 -3.05008 4.85549 0
M  V30 18804 N 1758.76 -3.56121 5.94264 0
M  V30 18805 N 1760.55 -3.03742 4.72966 0
M  V30 18806 H 1752.7 -0.16948 2.11723 0
M  V30 18807 H 1754.96 -0.137802 0.937931 0
M  V30 18808 H 1754.67 -1.08922 3.34408 0
M  V30 18809 H 1754.54 -2.69237 2.6418 0
M  V30 18810 H 1756.93 -2.42061 1.68792 0
M  V30 18811 H 1757.01 -0.814071 2.42501 0
M  V30 18812 H 1756.66 -1.87389 4.72068 0
M  V30 18813 H 1756.59 -3.47975 3.95248 0
M  V30 18814 H 1759.08 -2.17995 3.08685 0
M  V30 18815 H 1759.39 -3.93259 6.65257 0
M  V30 18816 H 1757.73 -3.54266 5.9793 0
M  V30 18817 H 1760.93 -2.63102 3.87163 0
M  V30 18818 H 1761.1 -3.43043 5.49751 0
M  V30 18819 N 1754.5 -1.20861 -1.01145 0
M  V30 18820 C 1755.73 -1.04617 -1.78154 0
M  V30 18821 C 1756.14 0.407396 -1.84762 0
M  V30 18822 O 1755.49 1.29457 -1.30333 0
M  V30 18823 C 1755.55 -1.56038 -3.23871 0
M  V30 18824 C 1755.21 -3.0441 -3.40857 0
M  V30 18825 C 1756.21 -4.02021 -3.29659 0
M  V30 18826 C 1753.89 -3.43479 -3.66507 0
M  V30 18827 C 1755.89 -5.36689 -3.43866 0
M  V30 18828 C 1753.57 -4.78301 -3.80356 0
M  V30 18829 C 1754.57 -5.74715 -3.69041 0
M  V30 18830 O 1754.26 -7.07093 -3.82459 0
M  V30 18831 H 1753.99 -0.368185 -0.566935 0
M  V30 18832 H 1756.55 -1.60508 -1.28165 0
M  V30 18833 H 1754.78 -0.945373 -3.74966 0
M  V30 18834 H 1756.47 -1.35735 -3.82532 0
M  V30 18835 H 1757.23 -3.73182 -3.09775 0
M  V30 18836 H 1753.11 -2.68972 -3.74399 0
M  V30 18837 H 1756.65 -6.11927 -3.3495 0
M  V30 18838 H 1752.55 -5.06829 -3.99743 0
M  V30 18839 H 1753.32 -7.14413 -3.99445 0
M  V30 18840 N 1755.98 1.20536 -1.01532 0
M  V30 18841 C 1757.23 1.89871 -0.70393 0
M  V30 18842 C 1757.56 1.78768 0.76631 0
M  V30 18843 O 1756.81 1.1653 1.57224 0
M  V30 18844 C 1757.11 3.40578 -1.08358 0
M  V30 18845 C 1756.78 3.71881 -2.54981 0
M  V30 18846 C 1755.44 3.80135 -2.95044 0
M  V30 18847 C 1757.79 3.86282 -3.49909 0
M  V30 18848 C 1755.12 4.00246 -4.28976 0
M  V30 18849 C 1757.47 4.07902 -4.83527 0
M  V30 18850 C 1756.14 4.14385 -5.23298 0
M  V30 18851 H 1755.41 0.694788 -0.257586 0
M  V30 18852 H 1758.05 1.42825 -1.27567 0
M  V30 18853 H 1756.36 3.89431 -0.430234 0
M  V30 18854 H 1758.05 3.92519 -0.820353 0
M  V30 18855 H 1754.64 3.66055 -2.22938 0
M  V30 18856 H 1758.83 3.79261 -3.20117 0
M  V30 18857 H 1754.08 4.03499 -4.59345 0
M  V30 18858 H 1758.26 4.17987 -5.5701 0
M  V30 18859 H 1755.89 4.29721 -6.27092 0
M  V30 18860 N 1757.46 0.791395 1.36289 0
M  V30 18861 C 1758.74 0.288602 1.93459 0
M  V30 18862 C 1759.12 -1.21953 1.7231 0
M  V30 18863 O 1758.47 -2.01194 1.0832 0
M  V30 18864 C 1758.68 0.683392 3.42244 0
M  V30 18865 C 1760.02 0.664255 4.19372 0
M  V30 18866 O 1761.05 0.623988 3.50692 0
M  V30 18867 O 1759.91 0.708926 5.41882 0
M  V30 18868 H 1757 0.0719305 0.823866 0
M  V30 18869 H 1759.55 0.874071 1.45458 0
M  V30 18870 H 1758.32 1.72344 3.51302 0
M  V30 18871 H 1757.94 0.0719128 3.97535 0
M  V30 18872 N 1758.94 -1.47929 0.54358 0
M  V30 18873 C 1760.17 -2.06591 0.0188913 0
M  V30 18874 C 1760.58 -1.39864 -1.27415 0
M  V30 18875 O 1759.92 -0.484566 -1.77194 0
M  V30 18876 C 1759.98 -3.58546 -0.261686 0
M  V30 18877 C 1759.65 -4.4723 0.939893 0
M  V30 18878 C 1760.64 -4.86179 1.8419 0
M  V30 18879 C 1758.33 -4.88941 1.15073 0
M  V30 18880 C 1760.32 -5.65622 2.93854 0
M  V30 18881 C 1758.01 -5.68152 2.25048 0
M  V30 18882 C 1759.01 -6.06402 3.1427 0
M  V30 18883 O 1758.7 -6.8402 4.22341 0
M  V30 18884 H 1758.43 -0.675009 0.0365835 0
M  V30 18885 H 1760.98 -1.91115 0.752599 0
M  V30 18886 H 1759.21 -3.72185 -1.04954 0
M  V30 18887 H 1760.9 -3.9928 -0.730099 0
M  V30 18888 H 1761.67 -4.54565 1.69101 0
M  V30 18889 H 1757.55 -4.58644 0.465479 0
M  V30 18890 H 1761.09 -5.95397 3.63522 0
M  V30 18891 H 1756.99 -5.99179 2.40115 0
M  V30 18892 H 1757.75 -7.02395 4.20219 0
M  V30 18893 N 1760.42 -0.27936 -1.55104 0
M  V30 18894 C 1761.66 0.336703 -1.99985 0
M  V30 18895 C 1762 1.55186 -1.16752 0
M  V30 18896 O 1761.27 1.93031 -0.238626 0
M  V30 18897 C 1761.55 0.714701 -3.52936 0
M  V30 18898 C 1761.41 -0.508088 -4.46921 0
M  V30 18899 C 1762.73 1.54953 -4.11919 0
M  V30 18900 H 1759.85 0.120908 -0.727015 0
M  V30 18901 H 1762.49 -0.38715 -1.86014 0
M  V30 18902 H 1760.64 1.33143 -3.64973 0
M  V30 18903 H 1762.31 -1.14664 -4.46822 0
M  V30 18904 H 1760.55 -1.14537 -4.18406 0
M  V30 18905 H 1761.22 -0.199782 -5.51638 0
M  V30 18906 H 1763.7 1.02864 -4.03185 0
M  V30 18907 H 1762.58 1.78282 -5.1914 0
M  V30 18908 H 1762.84 2.53192 -3.62417 0
M  V30 18909 N 1761.9 1.57599 -0.0067085 0
M  V30 18910 C 1763.14 1.90858 0.67673 0
M  V30 18911 C 1763.47 0.880956 1.73405 0
M  V30 18912 O 1762.73 -0.113339 1.95372 0
M  V30 18913 C 1763.02 3.30868 1.35133 0
M  V30 18914 C 1762.69 4.48878 0.426559 0
M  V30 18915 C 1761.35 4.80893 0.17196 0
M  V30 18916 C 1763.7 5.20778 -0.209761 0
M  V30 18917 C 1761.03 5.82177 -0.727139 0
M  V30 18918 C 1763.38 6.2302 -1.09678 0
M  V30 18919 C 1762.05 6.53488 -1.36049 0
M  V30 18920 H 1761.32 0.698397 0.247633 0
M  V30 18921 H 1763.97 1.91394 -0.0636748 0
M  V30 18922 H 1762.27 3.26487 2.16594 0
M  V30 18923 H 1763.97 3.53864 1.8863 0
M  V30 18924 H 1760.56 4.23867 0.635166 0
M  V30 18925 H 1764.74 4.96293 -0.0260888 0
M  V30 18926 H 1760 6.0414 -0.939389 0
M  V30 18927 H 1764.17 6.77861 -1.59616 0
M  V30 18928 H 1761.8 7.31789 -2.05886 0
M  V30 18929 N 1763.37 -0.266145 1.55336 0
M  V30 18930 C 1764.6 -1.01489 1.80299 0
M  V30 18931 C 1765.02 -1.79679 0.579742 0
M  V30 18932 O 1764.37 -1.76831 -0.451319 0
M  V30 18933 C 1764.42 -1.96805 3.03233 0
M  V30 18934 O 1764.15 -1.21782 4.20834 0
M  V30 18935 C 1765.65 -2.83436 3.40851 0
M  V30 18936 H 1762.87 -0.299504 0.600449 0
M  V30 18937 H 1765.41 -0.294854 2.02363 0
M  V30 18938 H 1763.57 -2.64262 2.83275 0
M  V30 18939 H 1763.98 -1.86086 4.9038 0
M  V30 18940 H 1765.45 -3.461 4.30022 0
M  V30 18941 H 1765.93 -3.53559 2.60562 0
M  V30 18942 H 1766.54 -2.2146 3.63092 0
M  V30 18943 N 1764.85 -1.48386 -0.530967 0
M  V30 18944 C 1766.1 -1.56045 -1.28431 0
M  V30 18945 C 1766.42 -0.235695 -1.9357 0
M  V30 18946 O 1765.69 0.742677 -1.81276 0
M  V30 18947 H 1764.27 -0.574868 -0.477007 0
M  V30 18948 H 1766.93 -1.84844 -0.617955 0
M  V30 18949 H 1766.03 -2.34096 -2.0641 0
M  V30 18950 N 1766.33 0.779763 -1.36958 0
M  V30 18951 C 1767.58 1.54031 -1.31918 0
M  V30 18952 C 1767.91 1.9395 0.0985685 0
M  V30 18953 O 1767.18 1.63458 1.05413 0
M  V30 18954 C 1767.47 2.81083 -2.25088 0
M  V30 18955 C 1767.32 2.47469 -3.75605 0
M  V30 18956 C 1768.64 3.82968 -2.1685 0
M  V30 18957 H 1765.76 0.558806 -0.480526 0
M  V30 18958 H 1768.4 0.895152 -1.67592 0
M  V30 18959 H 1766.55 3.36135 -1.94796 0
M  V30 18960 H 1768.22 1.98393 -4.16459 0
M  V30 18961 H 1766.46 1.80276 -3.94567 0
M  V30 18962 H 1767.14 3.38255 -4.3622 0
M  V30 18963 H 1769.61 3.37388 -2.43534 0
M  V30 18964 H 1768.49 4.69601 -2.84194 0
M  V30 18965 H 1768.75 4.26642 -1.15885 0
M  V30 18966 N 1767.81 1.21396 1.00503 0
M  V30 18967 C 1769.05 1.03117 1.74279 0
M  V30 18968 C 1769.38 -0.43531 1.89566 0
M  V30 18969 O 1768.64 -1.33929 1.42694 0
M  V30 18970 C 1768.94 1.67343 3.15802 0
M  V30 18971 C 1768.6 3.17198 3.20463 0
M  V30 18972 C 1767.26 3.5809 3.21442 0
M  V30 18973 C 1769.62 4.13172 3.17708 0
M  V30 18974 C 1766.94 4.93462 3.17352 0
M  V30 18975 C 1769.3 5.48505 3.15159 0
M  V30 18976 C 1767.96 5.88794 3.14448 0
M  V30 18977 H 1767.23 0.377332 0.637732 0
M  V30 18978 H 1769.88 1.50987 1.17792 0
M  V30 18979 H 1768.18 1.11765 3.75521 0
M  V30 18980 H 1769.88 1.50703 3.71604 0
M  V30 18981 H 1766.47 2.8463 3.20443 0
M  V30 18982 H 1770.65 3.82606 3.16112 0
M  V30 18983 H 1765.91 5.23925 3.15138 0
M  V30 18984 H 1770.08 6.22608 3.11982 0
M  V30 18985 H 1767.71 6.93659 3.11033 0
M  V30 18986 N 1769.29 -1.19996 1.0217 0
M  V30 18987 C 1770.51 -1.93466 0.733374 0
M  V30 18988 C 1770.93 -1.75074 -0.70672 0
M  V30 18989 O 1770.29 -1.068 -1.47987 0
M  V30 18990 C 1770.34 -3.45425 1.06601 0
M  V30 18991 O 1770.06 -3.6322 2.44954 0
M  V30 18992 C 1771.56 -4.36032 0.799458 0
M  V30 18993 H 1768.78 -0.614762 0.268903 0
M  V30 18994 H 1771.32 -1.52343 1.36426 0
M  V30 18995 H 1769.48 -3.84409 0.480432 0
M  V30 18996 H 1769.89 -4.57155 2.57117 0
M  V30 18997 H 1771.37 -5.41287 1.08223 0
M  V30 18998 H 1771.84 -4.38392 -0.266279 0
M  V30 18999 H 1772.45 -4.02718 1.36743 0
M  V30 19000 N 1770.76 -0.798611 -1.35867 0
M  V30 19001 C 1772.01 -0.37526 -1.98993 0
M  V30 19002 C 1772.34 1.05549 -1.6337 0
M  V30 19003 O 1771.59 1.74552 -0.88488 0
M  V30 19004 C 1771.89 -0.496572 -3.53934 0
M  V30 19005 C 1771.56 -1.88946 -4.09402 0
M  V30 19006 C 1770.22 -2.27056 -4.24263 0
M  V30 19007 C 1772.57 -2.8011 -4.39531 0
M  V30 19008 C 1769.9 -3.55712 -4.66568 0
M  V30 19009 C 1772.25 -4.08205 -4.83272 0
M  V30 19010 C 1770.92 -4.46323 -4.96338 0
M  V30 19011 H 1770.19 -0.137317 -0.728165 0
M  V30 19012 H 1772.83 -1.01786 -1.6221 0
M  V30 19013 H 1771.14 0.229499 -3.91127 0
M  V30 19014 H 1772.84 -0.149903 -4.0072 0
M  V30 19015 H 1769.43 -1.58336 -3.98281 0
M  V30 19016 H 1773.61 -2.51919 -4.2761 0
M  V30 19017 H 1768.87 -3.85105 -4.74873 0
M  V30 19018 H 1773.04 -4.78952 -5.05547 0
M  V30 19019 H 1770.67 -5.4607 -5.28877 0
M  V30 19020 N 1772.24 1.47639 -0.551417 0
M  V30 19021 C 1773.15 2.33722 0.202799 0
M  V30 19022 C 1774.17 1.47832 0.917699 0
M  V30 19023 O 1775.34 1.80772 0.887885 0
M  V30 19024 C 1772.41 3.24408 1.22313 0
M  V30 19025 C 1771.47 4.26184 0.51628 0
M  V30 19026 C 1770.7 5.12537 1.488 0
M  V30 19027 O 1770.93 5.01241 2.72238 0
M  V30 19028 O 1769.86 5.93269 1.01566 0
M  V30 19029 H 1773.69 2.99503 -0.50317 0
M  V30 19030 H 1771.27 1.46104 -0.312093 0
M  V30 19031 H 1773.15 3.80441 1.81225 0
M  V30 19032 H 1771.83 2.61262 1.91112 0
M  V30 19033 H 1770.73 3.73927 -0.113886 0
M  V30 19034 H 1772.07 4.92028 -0.130158 0
M  V30 19035 N 1773.72 0.287581 1.54954 0
M  V30 19036 C 1774.65 -0.636117 2.19155 0
M  V30 19037 C 1775.63 -1.14295 1.15652 0
M  V30 19038 O 1776.82 -1.21362 1.44234 0
M  V30 19039 C 1773.94 -1.86888 2.82472 0
M  V30 19040 C 1772.99 -1.49645 3.99385 0
M  V30 19041 S 1773.82 -0.563886 5.32523 0
M  V30 19042 C 1774.98 -1.80474 5.99316 0
M  V30 19043 H 1775.21 -0.0906517 2.97162 0
M  V30 19044 H 1772.74 0.0717757 1.54233 0
M  V30 19045 H 1774.7 -2.57639 3.19581 0
M  V30 19046 H 1773.36 -2.38549 2.04336 0
M  V30 19047 H 1772.56 -2.41408 4.42423 0
M  V30 19048 H 1772.16 -0.869001 3.63764 0
M  V30 19049 H 1774.45 -2.74708 6.19307 0
M  V30 19050 H 1775.39 -1.41716 6.93774 0
M  V30 19051 H 1775.8 -1.97535 5.2881 0
M  V30 19052 N 1775.2 -1.57593 0.0150662 0
M  V30 19053 C 1776.44 -1.91497 -0.667587 0
M  V30 19054 C 1776.78 -0.890493 -1.7258 0
M  V30 19055 O 1776.05 0.0887462 -1.94297 0
M  V30 19056 C 1776.34 -3.35934 -1.29694 0
M  V30 19057 C 1776.19 -4.49109 -0.249242 0
M  V30 19058 C 1777.51 -3.80068 -2.21893 0
M  V30 19059 H 1774.63 -0.696408 -0.241217 0
M  V30 19060 H 1777.27 -1.89873 0.0694484 0
M  V30 19061 H 1775.42 -3.37448 -1.92512 0
M  V30 19062 H 1777.09 -4.59729 0.380417 0
M  V30 19063 H 1775.33 -4.31695 0.426861 0
M  V30 19064 H 1776 -5.47166 -0.728934 0
M  V30 19065 H 1778.48 -3.80201 -1.69076 0
M  V30 19066 H 1777.36 -4.81852 -2.62887 0
M  V30 19067 H 1777.62 -3.1478 -3.10429 0
M  V30 19068 N 1776.68 0.257904 -1.55475 0
M  V30 19069 C 1777.93 0.985329 -1.75995 0
M  V30 19070 C 1778.24 1.86898 -0.57694 0
M  V30 19071 O 1779.44 2.63233 -0.664893 0
M  V30 19072 C 1777.9 1.80195 -3.11541 0
M  V30 19073 C 1777.51 0.966227 -4.37456 0
M  V30 19074 C 1779.25 2.52277 -3.41404 0
M  V30 19075 C 1777.16 1.7781 -5.64037 0
M  V30 19076 H 1776.09 0.371623 -0.656058 0
M  V30 19077 H 1778.74 0.240396 -1.81919 0
M  V30 19078 H 1777.12 2.58841 -2.99695 0
M  V30 19079 H 1778.3 0.222865 -4.60261 0
M  V30 19080 H 1776.61 0.359255 -4.14847 0
M  V30 19081 H 1779.21 3.13451 -4.33189 0
M  V30 19082 H 1779.55 3.23333 -2.62224 0
M  V30 19083 H 1780.08 1.80649 -3.54416 0
M  V30 19084 H 1776.82 1.11147 -6.46008 0
M  V30 19085 H 1776.34 2.49703 -5.45352 0
M  V30 19086 H 1778.02 2.348 -6.02891 0
M  V30 19087 N 1778.15 1.48666 0.52309 0
M  V30 19088 C 1779.1 1.63701 1.62698 0
M  V30 19089 C 1780.07 0.478895 1.59047 0
M  V30 19090 O 1781.26 0.703229 1.77368 0
M  V30 19091 C 1778.4 1.68912 3.00936 0
M  V30 19092 C 1777.51 2.95878 3.1477 0
M  V30 19093 C 1776.64 2.92206 4.43609 0
M  V30 19094 C 1775.68 4.13846 4.50996 0
M  V30 19095 N 1774.82 4.08213 5.71233 0
M  V30 19096 H 1779.66 2.57967 1.49188 0
M  V30 19097 H 1777.2 1.27924 0.726217 0
M  V30 19098 H 1779.16 1.69915 3.81031 0
M  V30 19099 H 1777.79 0.781309 3.13202 0
M  V30 19100 H 1776.84 3.04588 2.27883 0
M  V30 19101 H 1778.15 3.85861 3.1609 0
M  V30 19102 H 1777.3 2.91649 5.32002 0
M  V30 19103 H 1776.04 1.99964 4.44821 0
M  V30 19104 H 1775.05 4.14671 3.61009 0
M  V30 19105 H 1776.27 5.07256 4.51517 0
M  V30 19106 H 1774.22 3.18794 5.73329 0
M  V30 19107 H 1774.14 4.91908 5.74075 0
M  V30 19108 H 1775.4 4.11725 6.61893 0
M  V30 19109 N 1779.63 -0.772489 1.37369 0
M  V30 19110 C 1780.57 -1.89299 1.2744 0
M  V30 19111 C 1781.54 -1.61859 0.155088 0
M  V30 19112 O 1782.73 -1.85604 0.329169 0
M  V30 19113 C 1779.85 -3.24506 0.970225 0
M  V30 19114 C 1778.9 -3.70859 2.10632 0
M  V30 19115 S 1779.73 -3.84618 3.72598 0
M  V30 19116 C 1780.89 -5.22674 3.44329 0
M  V30 19117 H 1781.12 -1.97433 2.22278 0
M  V30 19118 H 1778.66 -0.933512 1.22983 0
M  V30 19119 H 1780.61 -4.02598 0.801553 0
M  V30 19120 H 1779.27 -3.14075 0.0393408 0
M  V30 19121 H 1778.47 -4.68879 1.84848 0
M  V30 19122 H 1778.07 -2.99866 2.23509 0
M  V30 19123 H 1780.36 -6.07818 2.99272 0
M  V30 19124 H 1781.3 -5.53471 4.41674 0
M  V30 19125 H 1781.71 -4.90577 2.79276 0
M  V30 19126 N 1781.11 -1.21927 -0.998575 0
M  V30 19127 C 1782.36 -1.03456 -1.73147 0
M  V30 19128 C 1782.67 0.431472 -1.90782 0
M  V30 19129 O 1783.88 0.73573 -2.61341 0
M  V30 19130 C 1782.33 -1.80256 -3.11506 0
M  V30 19131 C 1781.94 -3.31071 -3.01821 0
M  V30 19132 C 1783.69 -1.70214 -3.8888 0
M  V30 19133 C 1781.59 -4.00335 -4.35299 0
M  V30 19134 H 1780.52 -0.3835 -0.649187 0
M  V30 19135 H 1783.17 -1.45724 -1.11521 0
M  V30 19136 H 1781.56 -1.30784 -3.7378 0
M  V30 19137 H 1782.73 -3.87895 -2.48746 0
M  V30 19138 H 1781.05 -3.41727 -2.37932 0
M  V30 19139 H 1783.64 -2.19289 -4.87664 0
M  V30 19140 H 1783.99 -0.661522 -4.1101 0
M  V30 19141 H 1784.52 -2.17199 -3.33271 0
M  V30 19142 H 1781.26 -5.04626 -4.18369 0
M  V30 19143 H 1780.78 -3.48301 -4.8831 0
M  V30 19144 H 1782.46 -4.05611 -5.04072 0
M  V30 19145 N 1782.59 1.19452 -1.02805 0
M  V30 19146 C 1783.87 1.84878 -0.638707 0
M  V30 19147 C 1784.25 1.91763 0.882627 0
M  V30 19148 O 1783.59 1.43401 1.779 0
M  V30 19149 C 1783.8 3.23891 -1.29982 0
M  V30 19150 C 1785.15 4.00061 -1.42254 0
M  V30 19151 O 1786.18 3.33286 -1.25693 0
M  V30 19152 O 1785.03 5.19671 -1.69127 0
M  V30 19153 H 1782.13 0.796676 -0.221892 0
M  V30 19154 H 1784.67 1.26949 -1.12615 0
M  V30 19155 H 1783.45 3.13711 -2.33883 0
M  V30 19156 H 1783.07 3.89465 -0.800186 0
M  V30 19157 N 1784.07 0.805805 1.35442 0
M  V30 19158 C 1785 0.173326 2.28544 0
M  V30 19159 C 1786.01 -0.626927 1.50245 0
M  V30 19160 O 1787.2 -0.459416 1.72487 0
M  V30 19161 C 1784.3 -0.776924 3.29874 0
M  V30 19162 C 1783.47 -0.0232073 4.37394 0
M  V30 19163 C 1782.53 -0.891823 5.18587 0
M  V30 19164 O 1781.56 -0.343052 5.68165 0
M  V30 19165 N 1782.76 -2.214 5.36621 0
M  V30 19166 H 1785.53 0.973125 2.83461 0
M  V30 19167 H 1783.09 0.66119 1.47783 0
M  V30 19168 H 1785.08 -1.36223 3.81085 0
M  V30 19169 H 1783.65 -1.47753 2.75477 0
M  V30 19170 H 1782.87 0.743298 3.87129 0
M  V30 19171 H 1784.16 0.496278 5.06374 0
M  V30 19172 H 1783.55 -2.6838 4.97985 0
M  V30 19173 H 1782.11 -2.74856 5.91014 0
M  V30 19174 N 1785.54 -1.47344 0.559239 0
M  V30 19175 C 1786.79 -2.02068 0.035872 0
M  V30 19176 C 1787.11 -1.43573 -1.31953 0
M  V30 19177 O 1786.38 -0.611672 -1.86106 0
M  V30 19178 H 1784.96 -0.746929 0.0102713 0
M  V30 19179 H 1787.63 -1.80724 0.729707 0
M  V30 19180 H 1786.72 -3.12059 -0.0507123 0
M  V30 19181 N 1787.02 -0.295795 -1.54799 0
M  V30 19182 C 1787.95 0.575863 -2.26288 0
M  V30 19183 C 1788.93 1.14217 -1.26049 0
M  V30 19184 O 1790.12 1.17248 -1.54812 0
M  V30 19185 C 1787.25 1.7503 -2.9997 0
M  V30 19186 C 1786.2 1.31459 -4.07311 0
M  V30 19187 C 1785.53 2.57377 -4.6868 0
M  V30 19188 C 1786.83 0.449629 -5.20361 0
M  V30 19189 H 1788.52 -0.0203797 -2.99393 0
M  V30 19190 H 1786.07 -0.0112418 -1.43996 0
M  V30 19191 H 1788.02 2.36615 -3.487 0
M  V30 19192 H 1786.75 2.3727 -2.24434 0
M  V30 19193 H 1785.4 0.721829 -3.59423 0
M  V30 19194 H 1785.05 3.1792 -3.89789 0
M  V30 19195 H 1784.75 2.28927 -5.41171 0
M  V30 19196 H 1786.28 3.19774 -5.2017 0
M  V30 19197 H 1787.69 0.971014 -5.65017 0
M  V30 19198 H 1786.09 0.259121 -5.9954 0
M  V30 19199 H 1787.16 -0.526564 -4.82032 0
M  V30 19200 N 1788.5 1.57583 -0.0234236 0
M  V30 19201 C 1789.75 1.90742 0.655764 0
M  V30 19202 C 1790.06 0.900914 1.73617 0
M  V30 19203 O 1791.27 1.12355 2.47161 0
M  V30 19204 C 1789.73 3.38676 1.21763 0
M  V30 19205 C 1789.33 4.47674 0.170811 0
M  V30 19206 C 1791.08 3.80912 1.87366 0
M  V30 19207 C 1788.98 5.86702 0.743996 0
M  V30 19208 H 1787.91 0.711803 0.248701 0
M  V30 19209 H 1790.57 1.8329 -0.0877955 0
M  V30 19210 H 1788.95 3.41042 2.01262 0
M  V30 19211 H 1790.12 4.5686 -0.601298 0
M  V30 19212 H 1788.44 4.14606 -0.386127 0
M  V30 19213 H 1791.03 4.82133 2.31197 0
M  V30 19214 H 1791.38 3.15669 2.71402 0
M  V30 19215 H 1791.91 3.80945 1.14566 0
M  V30 19216 H 1788.65 6.55474 -0.0580976 0
M  V30 19217 H 1788.17 5.81133 1.48472 0
M  V30 19218 H 1789.85 6.35094 1.23549 0
M  V30 19219 N 1789.98 -0.249655 1.5561 0
M  V30 19220 C 1790.91 -1.31281 1.931 0
M  V30 19221 C 1791.89 -1.50347 0.795601 0
M  V30 19222 O 1793.08 -1.63001 1.05566 0
M  V30 19223 C 1790.21 -2.66808 2.2233 0
M  V30 19224 C 1789.16 -2.62441 3.38096 0
M  V30 19225 C 1788.49 -4.01738 3.52861 0
M  V30 19226 C 1789.79 -2.19667 4.7386 0
M  V30 19227 H 1791.48 -1.00151 2.82153 0
M  V30 19228 H 1789.03 -0.480331 1.35753 0
M  V30 19229 H 1790.98 -3.41316 2.47146 0
M  V30 19230 H 1789.7 -2.99569 1.30101 0
M  V30 19231 H 1788.36 -1.90391 3.13284 0
M  V30 19232 H 1788.01 -4.31759 2.58056 0
M  V30 19233 H 1787.71 -3.99705 4.30708 0
M  V30 19234 H 1789.23 -4.7795 3.79995 0
M  V30 19235 H 1790.65 -2.83906 4.98067 0
M  V30 19236 H 1789.04 -2.28751 5.54791 0
M  V30 19237 H 1790.11 -1.14829 4.71108 0
M  V30 19238 N 1791.46 -1.48941 -0.515198 0
M  V30 19239 C 1792.39 -1.60665 -1.63461 0
M  V30 19240 C 1793.4 -0.490076 -1.55248 0
M  V30 19241 O 1794.59 -0.761549 -1.61439 0
M  V30 19242 C 1791.69 -1.53414 -3.02187 0
M  V30 19243 C 1790.86 -2.80364 -3.3573 0
M  V30 19244 C 1789.92 -2.66362 -4.53804 0
M  V30 19245 O 1788.95 -3.40276 -4.5629 0
M  V30 19246 N 1790.15 -1.76961 -5.5287 0
M  V30 19247 H 1792.92 -2.57206 -1.53836 0
M  V30 19248 H 1790.48 -1.45851 -0.702786 0
M  V30 19249 H 1792.47 -1.41721 -3.79074 0
M  V30 19250 H 1791.04 -0.647891 -3.05812 0
M  V30 19251 H 1790.26 -3.06513 -2.47878 0
M  V30 19252 H 1791.55 -3.64555 -3.54932 0
M  V30 19253 H 1790.95 -1.16139 -5.5365 0
M  V30 19254 H 1789.5 -1.71198 -6.28915 0
M  V30 19255 N 1792.94 0.765193 -1.37777 0
M  V30 19256 C 1794.21 1.51374 -1.23876 0
M  V30 19257 C 1794.59 2.10455 0.164852 0
M  V30 19258 O 1793.94 1.96084 1.17318 0
M  V30 19259 C 1794.15 2.58939 -2.33991 0
M  V30 19260 C 1795.5 3.26162 -2.71852 0
M  V30 19261 O 1796.52 2.69238 -2.33216 0
M  V30 19262 O 1795.38 4.29094 -3.38438 0
M  V30 19263 H 1792.48 0.670749 -0.48376 0
M  V30 19264 H 1795.02 0.801597 -1.49574 0
M  V30 19265 H 1793.79 2.13448 -3.27957 0
M  V30 19266 H 1793.42 3.37747 -2.09793 0
M  V30 19267 N 1794.41 1.22455 0.992094 0
M  V30 19268 C 1795.66 1.04752 1.72833 0
M  V30 19269 C 1795.98 -0.418152 1.90464 0
M  V30 19270 O 1795.25 -1.30072 1.46486 0
M  V30 19271 H 1793.83 0.384626 0.640368 0
M  V30 19272 H 1796.49 1.5398 1.19483 0
M  V30 19273 H 1795.59 1.52601 2.72249 0
M  V30 19274 N 1795.89 -1.18905 1.03437 0
M  V30 19275 C 1797.12 -1.93219 0.753743 0
M  V30 19276 C 1797.54 -1.75299 -0.682055 0
M  V30 19277 O 1796.9 -1.05892 -1.47161 0
M  V30 19278 C 1796.95 -3.42864 1.117 0
M  V30 19279 O 1796.05 -4.11708 0.238816 0
M  V30 19280 H 1795.39 -0.603015 0.277973 0
M  V30 19281 H 1797.92 -1.50823 1.38252 0
M  V30 19282 H 1797.93 -3.9355 1.07623 0
M  V30 19283 H 1796.61 -3.55228 2.163 0
M  V30 19284 H 1795.18 -3.71359 0.338652 0
M  V30 19285 N 1797.37 -0.812977 -1.35013 0
M  V30 19286 C 1798.6 -0.408421 -2.02523 0
M  V30 19287 C 1799.01 0.987315 -1.61396 0
M  V30 19288 O 1798.35 1.64865 -0.810251 0
M  V30 19289 C 1798.41 -0.419647 -3.57042 0
M  V30 19290 C 1798.08 -1.767 -4.21457 0
M  V30 19291 C 1799.07 -2.7263 -4.42684 0
M  V30 19292 C 1796.76 -2.05275 -4.5844 0
M  V30 19293 C 1798.75 -3.95315 -5.00004 0
M  V30 19294 C 1796.44 -3.28223 -5.15473 0
M  V30 19295 C 1797.44 -4.23061 -5.36198 0
M  V30 19296 O 1797.13 -5.43837 -5.92027 0
M  V30 19297 H 1796.86 -0.163311 -0.655977 0
M  V30 19298 H 1799.41 -1.09974 -1.73479 0
M  V30 19299 H 1797.64 0.328309 -3.85304 0
M  V30 19300 H 1799.33 -0.0365204 -4.05884 0
M  V30 19301 H 1800.1 -2.51846 -4.14486 0
M  V30 19302 H 1795.98 -1.32265 -4.41619 0
M  V30 19303 H 1799.52 -4.69351 -5.16097 0
M  V30 19304 H 1795.42 -3.48874 -5.43099 0
M  V30 19305 H 1796.18 -5.45221 -6.10472 0
M  V30 19306 N 1798.85 1.47045 -0.567045 0
M  V30 19307 C 1800.09 2.02446 -0.0466799 0
M  V30 19308 C 1800.42 1.44032 1.3071 0
M  V30 19309 O 1799.68 0.58926 1.86618 0
M  V30 19310 C 1799.98 3.57298 0.0855754 0
M  V30 19311 C 1799.64 4.34678 -1.19858 0
M  V30 19312 C 1798.3 4.55538 -1.55043 0
M  V30 19313 C 1800.66 4.7923 -2.04909 0
M  V30 19314 C 1797.98 5.18201 -2.75108 0
M  V30 19315 C 1800.34 5.43218 -3.24186 0
M  V30 19316 C 1799 5.62309 -3.59673 0
M  V30 19317 H 1798.27 0.740803 -0.0170814 0
M  V30 19318 H 1800.92 1.76602 -0.740536 0
M  V30 19319 H 1799.22 3.82189 0.862463 0
M  V30 19320 H 1800.92 3.97824 0.50371 0
M  V30 19321 H 1797.51 4.18727 -0.914632 0
M  V30 19322 H 1801.69 4.62884 -1.79032 0
M  V30 19323 H 1796.95 5.31175 -3.02759 0
M  V30 19324 H 1801.12 5.76702 -3.90369 0
M  V30 19325 H 1798.75 6.10636 -4.528 0
M  V30 19326 N 1800.33 0.304 1.5464 0
M  V30 19327 C 1801.74 -0.0492924 1.59524 0
M  V30 19328 C 1801.94 -1.52164 1.32093 0
M  V30 19329 O 1801 -2.27483 1.0958 0
M  V30 19330 C 1802.31 0.351346 2.9864 0
M  V30 19331 C 1803.86 0.300362 3.11555 0
M  V30 19332 C 1804.33 0.675867 4.52986 0
M  V30 19333 N 1805.82 0.628517 4.58916 0
M  V30 19334 C 1806.56 0.891504 5.66427 0
M  V30 19335 N 1806.06 1.22061 6.81962 0
M  V30 19336 N 1807.85 0.818366 5.56111 0
M  V30 19337 H 1800 1.26351 1.70731 0
M  V30 19338 H 1802.26 0.512457 0.797554 0
M  V30 19339 H 1801.97 1.37642 3.23647 0
M  V30 19340 H 1801.84 -0.293504 3.76056 0
M  V30 19341 H 1804.23 -0.715468 2.86295 0
M  V30 19342 H 1804.31 0.979876 2.36288 0
M  V30 19343 H 1803.95 1.68952 4.78976 0
M  V30 19344 H 1803.88 -0.0257498 5.26594 0
M  V30 19345 H 1806.38 0.385204 3.75932 0
M  V30 19346 H 1806.69 1.40718 7.5988 0
M  V30 19347 H 1805.03 1.25868 6.83507 0
M  V30 19348 H 1808.22 0.560885 4.64728 0
M  V30 19349 H 1808.4 1.02669 6.39815 0
M  V30 19350 N 1801.8 -1.57568 0.0317802 0
M  V30 19351 C 1803.08 -1.8321 -0.685081 0
M  V30 19352 C 1803.46 -0.91624 -1.9018 0
M  V30 19353 O 1802.81 0.0275043 -2.28483 0
M  V30 19354 C 1803.02 -3.32488 -1.06078 0
M  V30 19355 C 1804.37 -3.99027 -1.45129 0
M  V30 19356 O 1805.39 -3.36999 -1.15368 0
M  V30 19357 O 1804.25 -5.08355 -2.00592 0
M  V30 19358 H 1801.34 -0.755517 -0.336337 0
M  V30 19359 H 1803.89 -1.69595 0.0596652 0
M  V30 19360 H 1802.66 -3.90814 -0.194918 0
M  V30 19361 H 1802.28 -3.5122 -1.8636 0
M  V30 19362 N 1803.28 0.241399 -1.5574 0
M  V30 19363 C 1804.21 1.30255 -1.93793 0
M  V30 19364 C 1805.19 1.49923 -0.803563 0
M  V30 19365 O 1806.38 1.62439 -1.06429 0
M  V30 19366 C 1803.51 2.65625 -2.23742 0
M  V30 19367 C 1802.46 2.60645 -3.39483 0
M  V30 19368 C 1801.79 3.99861 -3.54986 0
M  V30 19369 C 1803.09 2.17151 -4.75019 0
M  V30 19370 H 1804.78 0.986532 -2.8268 0
M  V30 19371 H 1802.33 0.473125 -1.36006 0
M  V30 19372 H 1804.28 3.40001 -2.48953 0
M  V30 19373 H 1803.01 2.98874 -1.31688 0
M  V30 19374 H 1801.66 1.88727 -3.14289 0
M  V30 19375 H 1801.31 4.30385 -2.60342 0
M  V30 19376 H 1801.01 3.97415 -4.32822 0
M  V30 19377 H 1802.54 4.75928 -3.82524 0
M  V30 19378 H 1803.95 2.8126 -4.99565 0
M  V30 19379 H 1802.35 2.25805 -5.55996 0
M  V30 19380 H 1803.42 1.12329 -4.7171 0
M  V30 19381 N 1804.76 1.49212 0.507292 0
M  V30 19382 C 1806.01 1.59591 1.26105 0
M  V30 19383 C 1806.36 0.276243 1.90407 0
M  V30 19384 O 1805.65 -0.722987 1.77436 0
M  V30 19385 C 1805.85 2.68761 2.35589 0
M  V30 19386 C 1805.68 4.11215 1.82022 0
M  V30 19387 C 1804.45 4.78081 1.63606 0
M  V30 19388 C 1806.65 4.96653 1.33568 0
M  V30 19389 N 1804.63 6.04871 1.04902 0
M  V30 19390 C 1806 6.13871 0.869593 0
M  V30 19391 C 1808.05 4.82701 1.22083 0
M  V30 19392 C 1806.76 7.18674 0.300011 0
M  V30 19393 C 1808.78 5.87647 0.66522 0
M  V30 19394 C 1808.14 7.04089 0.209323 0
M  V30 19395 H 1804.24 0.638391 0.451642 0
M  V30 19396 H 1806.83 1.86192 0.569275 0
M  V30 19397 H 1805 2.43944 3.02235 0
M  V30 19398 H 1806.73 2.68697 3.02629 0
M  V30 19399 H 1803.49 4.34778 1.87791 0
M  V30 19400 H 1803.91 6.7255 0.774958 0
M  V30 19401 H 1808.55 3.92996 1.5593 0
M  V30 19402 H 1806.27 8.08084 -0.0507413 0
M  V30 19403 H 1809.86 5.7891 0.579215 0
M  V30 19404 H 1808.74 7.83908 -0.213896 0
M  V30 19405 N 1806.24 -0.757876 1.38181 0
M  V30 19406 C 1807.19 -1.8929 1.35174 0
M  V30 19407 C 1808.18 -1.67716 0.238284 0
M  V30 19408 O 1809.39 -1.75336 0.407085 0
M  V30 19409 H 1805.76 -0.622712 0.421585 0
M  V30 19410 H 1807.73 -1.88943 2.30961 0
M  V30 19411 C 1806.48 -3.26723 1.18942 0
M  V30 19412 H 1805.8 -3.43909 2.0388 0
M  V30 19413 H 1807.24 -4.06401 1.20891 0
M  V30 19414 C 1805.7 -3.3674 -0.103978 0
M  V30 19415 O 1806.23 -3.86838 -1.08256 0
M  V30 19416 N 1804.44 -2.90163 -0.159367 0
M  V30 19417 H 1803.99 -2.49583 0.637642 0
M  V30 19418 H 1803.94 -2.97245 -1.02435 0
M  V30 19419 N 1807.72 -1.22979 -0.985586 0
M  V30 19420 C 1808.97 -1.05286 -1.7204 0
M  V30 19421 C 1809.28 0.411213 -1.91229 0
M  V30 19422 O 1810.48 0.70797 -2.62107 0
M  V30 19423 C 1808.94 -1.8355 -3.09576 0
M  V30 19424 C 1808.55 -3.34254 -2.98293 0
M  V30 19425 C 1810.29 -1.74329 -3.87052 0
M  V30 19426 C 1808.2 -4.0493 -4.31029 0
M  V30 19427 H 1807.13 -0.390364 -0.645083 0
M  V30 19428 H 1809.78 -1.46898 -1.09969 0
M  V30 19429 H 1808.16 -1.34741 -3.72372 0
M  V30 19430 H 1809.34 -3.90511 -2.44618 0
M  V30 19431 H 1807.65 -3.44231 -2.34294 0
M  V30 19432 H 1810.25 -2.24449 -4.85311 0
M  V30 19433 H 1810.59 -0.705078 -4.10286 0
M  V30 19434 H 1811.12 -2.20721 -3.30949 0
M  V30 19435 H 1807.86 -5.09035 -4.12993 0
M  V30 19436 H 1807.38 -3.5346 -4.84588 0
M  V30 19437 H 1809.06 -4.10935 -4.99742 0
M  V30 19438 N 1809.19 1.18355 -1.04066 0
M  V30 19439 C 1810.12 2.24196 -0.652568 0
M  V30 19440 C 1811.11 1.66581 0.344195 0
M  V30 19441 O 1812.29 1.929 0.224296 0
M  V30 19442 C 1809.42 3.47297 -0.0147409 0
M  V30 19443 C 1808.37 4.17661 -0.935044 0
M  V30 19444 C 1807.7 5.34455 -0.161692 0
M  V30 19445 C 1809 4.71153 -2.25415 0
M  V30 19446 H 1810.69 2.56914 -1.53738 0
M  V30 19447 H 1808.24 1.23492 -0.740658 0
M  V30 19448 H 1810.19 4.20544 0.268484 0
M  V30 19449 H 1808.92 3.13812 0.904949 0
M  V30 19450 H 1807.58 3.46312 -1.20265 0
M  V30 19451 H 1807.22 4.97219 0.760404 0
M  V30 19452 H 1806.92 5.82469 -0.774805 0
M  V30 19453 H 1808.45 6.10493 0.114515 0
M  V30 19454 H 1809.86 5.36095 -2.03163 0
M  V30 19455 H 1808.26 5.29701 -2.82022 0
M  V30 19456 H 1809.33 3.88576 -2.90064 0
M  V30 19457 N 1810.67 0.820125 1.3458 0
M  V30 19458 C 1811.95 0.329573 1.92803 0
M  V30 19459 C 1812.33 -1.18271 1.74858 0
M  V30 19460 O 1811.68 -1.98851 1.12564 0
M  V30 19461 C 1811.89 0.755833 3.40717 0
M  V30 19462 C 1813.24 0.75306 4.17869 0
M  V30 19463 O 1814.26 0.698235 3.49289 0
M  V30 19464 O 1813.12 0.823708 5.40257 0
M  V30 19465 H 1810.21 0.0893898 0.822155 0
M  V30 19466 H 1812.76 0.904729 1.43571 0
M  V30 19467 H 1811.53 1.79757 3.47568 0
M  V30 19468 H 1811.15 0.15622 3.97293 0
M  V30 19469 N 1812.15 -1.46743 0.574835 0
M  V30 19470 C 1813.4 -2.02419 0.0574154 0
M  V30 19471 C 1813.73 -1.44723 -1.29944 0
M  V30 19472 O 1812.98 -0.599149 -1.86303 0
M  V30 19473 C 1813.28 -3.57338 -0.0666259 0
M  V30 19474 C 1812.95 -4.34036 1.22161 0
M  V30 19475 C 1811.61 -4.5471 1.57457 0
M  V30 19476 C 1813.96 -4.78137 2.07448 0
M  V30 19477 C 1811.29 -5.16735 2.77852 0
M  V30 19478 C 1813.64 -5.41492 3.27062 0
M  V30 19479 C 1812.3 -5.60394 3.6265 0
M  V30 19480 H 1811.57 -0.740702 0.0210098 0
M  V30 19481 H 1814.22 -1.76207 0.749892 0
M  V30 19482 H 1812.53 -3.82642 -0.842183 0
M  V30 19483 H 1814.22 -3.98085 -0.482605 0
M  V30 19484 H 1810.81 -4.18236 0.936826 0
M  V30 19485 H 1815 -4.61928 1.81484 0
M  V30 19486 H 1810.25 -5.29562 3.05572 0
M  V30 19487 H 1814.43 -5.74623 3.93422 0
M  V30 19488 H 1812.05 -6.08226 4.56032 0
M  V30 19489 N 1813.63 -0.312197 -1.54477 0
M  V30 19490 C 1814.87 0.294208 -2.00655 0
M  V30 19491 C 1815.21 1.52674 -1.20018 0
M  V30 19492 O 1814.48 1.92481 -0.279517 0
M  V30 19493 C 1814.77 0.639677 -3.54373 0
M  V30 19494 C 1814.62 -0.602773 -4.45743 0
M  V30 19495 C 1815.94 1.46181 -4.15113 0
M  V30 19496 H 1813.06 0.10546 -0.729416 0
M  V30 19497 H 1815.7 -0.426519 -1.85151 0
M  V30 19498 H 1813.85 1.25371 -3.67715 0
M  V30 19499 H 1815.52 -1.24116 -4.44289 0
M  V30 19500 H 1813.76 -1.23386 -4.15882 0
M  V30 19501 H 1814.43 -0.316748 -5.5109 0
M  V30 19502 H 1816.91 0.942887 -4.05276 0
M  V30 19503 H 1815.79 1.67231 -5.22805 0
M  V30 19504 H 1816.05 2.45448 -3.67706 0
M  V30 19505 N 1815.11 1.57549 -0.040136 0
M  V30 19506 C 1816.35 1.92535 0.637037 0
M  V30 19507 C 1816.69 0.917836 1.71141 0
M  V30 19508 O 1815.96 -0.057824 1.94414 0
M  V30 19509 C 1816.24 3.37955 1.24333 0
M  V30 19510 C 1816.1 4.49449 0.177761 0
M  V30 19511 C 1817.42 3.8355 2.15818 0
M  V30 19512 H 1814.53 0.700157 0.230107 0
M  V30 19513 H 1817.18 1.89739 -0.0996468 0
M  V30 19514 H 1815.33 3.40468 1.87119 0
M  V30 19515 H 1817 4.59065 -0.453507 0
M  V30 19516 H 1815.24 4.30961 -0.495486 0
M  V30 19517 H 1815.91 5.48256 0.641792 0
M  V30 19518 H 1818.39 3.82842 1.63006 0
M  V30 19519 H 1817.26 4.85974 2.55188 0
M  V30 19520 H 1817.53 3.19678 3.05382 0
M  V30 19521 N 1816.58 -0.233136 1.55866 0
M  V30 19522 C 1817.83 -0.96064 1.78604 0
M  V30 19523 C 1818.16 -1.84444 0.607795 0
M  V30 19524 O 1817.44 -1.9048 -0.39342 0
M  V30 19525 C 1817.72 -1.80946 3.11337 0
M  V30 19526 C 1817.57 -0.952929 4.3959 0
M  V30 19527 C 1818.89 -2.78941 3.40411 0
M  V30 19528 H 1816.01 -0.347809 0.649767 0
M  V30 19529 H 1818.65 -0.230233 1.886 0
M  V30 19530 H 1816.8 -2.43219 3.02946 0
M  V30 19531 H 1818.48 -0.347831 4.59987 0
M  V30 19532 H 1816.72 -0.257846 4.33033 0
M  V30 19533 H 1817.39 -1.58096 5.28876 0
M  V30 19534 H 1819.87 -2.26804 3.48854 0
M  V30 19535 H 1818.74 -3.35443 4.34475 0
M  V30 19536 H 1819 -3.561 2.62003 0
M  V30 19537 N 1818.06 -1.49479 -0.499372 0
M  V30 19538 C 1819.31 -1.59284 -1.25525 0
M  V30 19539 C 1819.64 -0.27941 -1.92179 0
M  V30 19540 O 1818.92 0.717142 -1.80796 0
M  V30 19541 C 1819.2 -2.75323 -2.32098 0
M  V30 19542 C 1819.05 -4.16464 -1.69934 0
M  V30 19543 C 1820.37 -2.86998 -3.33646 0
M  V30 19544 H 1817.49 -0.579768 -0.455015 0
M  V30 19545 H 1820.13 -1.81769 -0.553165 0
M  V30 19546 H 1818.28 -2.56282 -2.91979 0
M  V30 19547 H 1819.96 -4.47026 -1.13867 0
M  V30 19548 H 1818.2 -4.22036 -1.0034 0
M  V30 19549 H 1818.87 -4.93534 -2.47242 0
M  V30 19550 H 1821.35 -3.04337 -2.83757 0
M  V30 19551 H 1820.22 -3.69865 -4.05575 0
M  V30 19552 H 1820.48 -1.96419 -3.9607 0
M  V30 19553 N 1819.54 0.750537 -1.38581 0
M  V30 19554 C 1820.79 1.50676 -1.34689 0
M  V30 19555 C 1821.11 1.94903 0.0615414 0
M  V30 19556 O 1820.38 1.67867 1.00982 0
M  V30 19557 H 1818.96 0.558914 -0.495605 0
M  V30 19558 H 1821.62 0.891979 -1.73291 0
M  V30 19559 H 1820.72 2.39623 -1.99969 0
M  V30 19560 N 1821.02 1.235 0.979051 0
M  V30 19561 C 1821.98 1.01854 2.05325 0
M  V30 19562 C 1822.98 -0.0201133 1.60787 0
M  V30 19563 O 1824.17 0.219761 1.72808 0
M  V30 19564 C 1821.3 0.541404 3.36573 0
M  V30 19565 H 1822.5 1.97183 2.25962 0
M  V30 19566 H 1820.05 1.05563 1.15265 0
M  V30 19567 H 1820.79 -0.415607 3.21626 0
M  V30 19568 H 1820.57 1.29092 3.7024 0
M  V30 19569 H 1822.06 0.410635 4.15576 0
M  V30 19570 N 1822.5 -1.17802 1.04693 0
M  V30 19571 C 1823.43 -2.23847 0.664448 0
M  V30 19572 C 1824.41 -1.66761 -0.335356 0
M  V30 19573 O 1825.59 -1.93017 -0.214062 0
M  V30 19574 C 1822.72 -3.47284 0.0331587 0
M  V30 19575 C 1821.68 -4.1716 0.95718 0
M  V30 19576 C 1821 -5.34362 0.190034 0
M  V30 19577 C 1822.3 -4.69951 2.2791 0
M  V30 19578 H 1824 -2.56095 1.55099 0
M  V30 19579 H 1821.54 -1.23097 0.747196 0
M  V30 19580 H 1823.5 -4.2068 -0.246178 0
M  V30 19581 H 1822.22 -3.14288 -0.888294 0
M  V30 19582 H 1820.88 -3.45669 1.221 0
M  V30 19583 H 1820.53 -4.97615 -0.734025 0
M  V30 19584 H 1820.23 -5.8205 0.805684 0
M  V30 19585 H 1821.75 -6.10545 -0.0821372 0
M  V30 19586 H 1823.17 -5.3501 2.06003 0
M  V30 19587 H 1821.56 -5.28198 2.84828 0
M  V30 19588 H 1822.63 -3.87032 2.9212 0
M  V30 19589 N 1823.98 -0.827251 -1.34143 0
M  V30 19590 C 1825.22 -0.418003 -1.98445 0
M  V30 19591 C 1825.55 1.01737 -1.65418 0
M  V30 19592 O 1824.83 1.70932 -0.928042 0
M  V30 19593 C 1825.11 -0.625559 -3.54625 0
M  V30 19594 C 1824.97 -2.10736 -3.97379 0
M  V30 19595 C 1826.28 -0.0642701 -4.40053 0
M  V30 19596 H 1823.4 -0.15335 -0.72087 0
M  V30 19597 H 1826.05 -1.04062 -1.58969 0
M  V30 19598 H 1824.2 -0.095577 -3.88382 0
M  V30 19599 H 1825.87 -2.70131 -3.73934 0
M  V30 19600 H 1824.11 -2.59621 -3.47533 0
M  V30 19601 H 1824.78 -2.20338 -5.06118 0
M  V30 19602 H 1827.26 -0.517137 -4.12874 0
M  V30 19603 H 1826.13 -0.239267 -5.48378 0
M  V30 19604 H 1826.39 1.0311 -4.29908 0
M  V30 19605 N 1825.45 1.46436 -0.582609 0
M  V30 19606 C 1826.42 2.28769 0.140502 0
M  V30 19607 C 1827.42 1.38385 0.818911 0
M  V30 19608 O 1828.61 1.60763 0.670882 0
M  V30 19609 C 1825.74 3.18765 1.20836 0
M  V30 19610 H 1826.93 2.94178 -0.583049 0
M  V30 19611 H 1824.48 1.52544 -0.340575 0
M  V30 19612 H 1825.22 2.58103 1.9635 0
M  V30 19613 H 1825 3.85312 0.726417 0
M  V30 19614 H 1826.49 3.80735 1.71553 0
M  V30 19615 N 1826.93 0.320385 1.54309 0
M  V30 19616 C 1828.18 -0.283143 2.00511 0
M  V30 19617 C 1828.51 -1.52391 1.2086 0
M  V30 19618 O 1827.76 -1.93716 0.277955 0
M  V30 19619 C 1828.06 -0.665444 3.5115 0
M  V30 19620 C 1827.73 0.475789 4.48383 0
M  V30 19621 C 1826.39 0.789037 4.74687 0
M  V30 19622 C 1828.74 1.24253 5.06172 0
M  V30 19623 C 1826.07 1.87181 5.5604 0
M  V30 19624 C 1828.42 2.31537 5.88705 0
M  V30 19625 C 1827.08 2.63447 6.13312 0
M  V30 19626 H 1826.35 -0.103609 0.733721 0
M  V30 19627 H 1829 0.443504 1.86294 0
M  V30 19628 H 1827.31 -1.47247 3.63078 0
M  V30 19629 H 1829 -1.14391 3.84338 0
M  V30 19630 H 1825.59 0.221559 4.28027 0
M  V30 19631 H 1829.78 1.01379 4.85835 0
M  V30 19632 H 1825.03 2.12354 5.73337 0
M  V30 19633 H 1829.21 2.91395 6.32504 0
M  V30 19634 H 1826.83 3.47477 6.76139 0
M  V30 19635 N 1828.41 -1.57525 0.0484906 0
M  V30 19636 C 1829.37 -2.10275 -0.911987 0
M  V30 19637 C 1830.37 -1.02178 -1.24163 0
M  V30 19638 O 1831.56 -1.28262 -1.17875 0
M  V30 19639 C 1828.69 -2.58475 -2.22269 0
M  V30 19640 H 1829.89 -2.96432 -0.454768 0
M  V30 19641 H 1827.44 -1.55017 -0.19987 0
M  V30 19642 H 1828.18 -1.75704 -2.72578 0
M  V30 19643 H 1827.96 -3.37466 -1.99648 0
M  V30 19644 H 1829.45 -2.99443 -2.91074 0
M  V30 19645 N 1829.89 0.224867 -1.55988 0
M  V30 19646 C 1830.82 1.28192 -1.95164 0
M  V30 19647 C 1831.8 1.49062 -0.81942 0
M  V30 19648 O 1832.98 1.61301 -1.08146 0
M  V30 19649 C 1830.11 2.63237 -2.26547 0
M  V30 19650 C 1829.07 2.57029 -3.42228 0
M  V30 19651 C 1828.39 3.96073 -3.59207 0
M  V30 19652 C 1829.69 2.12101 -4.77295 0
M  V30 19653 H 1831.39 0.956495 -2.8371 0
M  V30 19654 H 1828.93 0.458673 -1.365 0
M  V30 19655 H 1830.89 3.37341 -2.52545 0
M  V30 19656 H 1829.61 2.97461 -1.3485 0
M  V30 19657 H 1828.27 1.85382 -3.16273 0
M  V30 19658 H 1827.92 4.27599 -2.64892 0
M  V30 19659 H 1827.62 3.92802 -4.37013 0
M  V30 19660 H 1829.14 4.71844 -3.8755 0
M  V30 19661 H 1830.56 2.75946 -5.0252 0
M  V30 19662 H 1828.95 2.19895 -5.5836 0
M  V30 19663 H 1830.02 1.07319 -4.72875 0
M  V30 19664 N 1831.37 1.49742 0.491438 0
M  V30 19665 C 1832.33 1.66587 1.57421 0
M  V30 19666 C 1833.33 0.537281 1.51558 0
M  V30 19667 O 1834.52 0.803928 1.5454 0
M  V30 19668 C 1831.65 1.67217 2.97071 0
M  V30 19669 H 1832.84 2.63171 1.4381 0
M  V30 19670 H 1830.4 1.38917 0.716368 0
M  V30 19671 H 1831.13 0.722529 3.16149 0
M  V30 19672 H 1830.92 2.49187 3.02734 0
M  V30 19673 H 1832.41 1.82274 3.75721 0
M  V30 19674 N 1832.84 -0.743177 1.38977 0
M  V30 19675 C 1833.79 -1.87846 1.37174 0
M  V30 19676 C 1834.79 -1.67454 0.256059 0
M  V30 19677 O 1835.99 -1.74895 0.425658 0
M  V30 19678 H 1832.37 -0.618206 0.428166 0
M  V30 19679 H 1834.34 -1.86483 2.32952 0
M  V30 19680 C 1833.09 -3.25443 1.22401 0
M  V30 19681 H 1832.41 -3.41727 2.07516 0
M  V30 19682 H 1833.85 -4.05095 1.25195 0
M  V30 19683 C 1832.31 -3.36831 -0.0682569 0
M  V30 19684 O 1832.84 -3.87964 -1.04147 0
M  V30 19685 N 1831.05 -2.90315 -0.128582 0
M  V30 19686 H 1830.59 -2.48893 0.664077 0
M  V30 19687 H 1830.55 -2.98315 -0.992762 0
M  V30 19688 N 1834.32 -1.24018 -0.972487 0
M  V30 19689 C 1835.29 -1.02941 -2.04782 0
M  V30 19690 C 1836.29 0.0115861 -1.60796 0
M  V30 19691 O 1837.48 -0.228922 -1.72689 0
M  V30 19692 C 1834.61 -0.559246 -3.36282 0
M  V30 19693 H 1835.8 -1.98379 -2.24913 0
M  V30 19694 H 1833.35 -1.06173 -1.14704 0
M  V30 19695 H 1834.09 0.398545 -3.21842 0
M  V30 19696 H 1833.87 -1.31054 -3.6955 0
M  V30 19697 H 1835.36 -0.432669 -4.15353 0
M  V30 19698 N 1835.8 1.17245 -1.05316 0
M  V30 19699 C 1836.73 2.23491 -0.67631 0
M  V30 19700 C 1837.71 1.66937 0.326507 0
M  V30 19701 O 1838.9 1.93127 0.203823 0
M  V30 19702 C 1836.03 3.47262 -0.0515755 0
M  V30 19703 C 1834.98 4.16646 -0.97929 0
M  V30 19704 C 1834.31 5.34254 -0.218369 0
M  V30 19705 C 1835.61 4.68736 -2.30399 0
M  V30 19706 H 1837.3 2.55269 -1.56455 0
M  V30 19707 H 1834.85 1.22699 -0.753714 0
M  V30 19708 H 1836.8 4.20805 0.223865 0
M  V30 19709 H 1835.52 3.14755 0.871614 0
M  V30 19710 H 1834.18 3.45017 -1.23931 0
M  V30 19711 H 1833.83 4.97998 0.707624 0
M  V30 19712 H 1833.53 5.81615 -0.83654 0
M  V30 19713 H 1835.05 6.1058 0.0497574 0
M  V30 19714 H 1836.47 5.3391 -2.08837 0
M  V30 19715 H 1834.87 5.2668 -2.87625 0
M  V30 19716 H 1835.94 3.85477 -2.94169 0
M  V30 19717 N 1837.28 0.834353 1.33702 0
M  V30 19718 C 1838.53 0.427042 1.97537 0
M  V30 19719 C 1838.85 -1.01607 1.66436 0
M  V30 19720 O 1838.12 -1.70711 0.960958 0
M  V30 19721 H 1836.7 0.154921 0.730759 0
M  V30 19722 H 1839.36 1.06632 1.63143 0
M  V30 19723 H 1838.46 0.555396 3.07118 0
M  V30 19724 N 1838.76 -1.46125 0.590367 0
M  V30 19725 C 1839.98 -2.06726 0.0847301 0
M  V30 19726 C 1840.4 -1.43788 -1.22354 0
M  V30 19727 O 1839.76 -0.545876 -1.74145 0
M  V30 19728 C 1839.81 -3.61412 -0.079655 0
M  V30 19729 O 1839.53 -4.21998 1.17684 0
M  V30 19730 C 1841.03 -4.38961 -0.618754 0
M  V30 19731 H 1838.25 -0.668226 0.0609525 0
M  V30 19732 H 1840.79 -1.87636 0.813212 0
M  V30 19733 H 1838.95 -3.79904 -0.758389 0
M  V30 19734 H 1839.36 -5.14966 0.995528 0
M  V30 19735 H 1840.84 -5.47759 -0.682926 0
M  V30 19736 H 1841.31 -4.07537 -1.63739 0
M  V30 19737 H 1841.92 -4.25292 0.0253632 0
M  V30 19738 N 1840.23 -0.328564 -1.54137 0
M  V30 19739 C 1841.18 0.550592 -2.25989 0
M  V30 19740 C 1842.18 1.11442 -1.27581 0
M  V30 19741 O 1843.38 1.06189 -1.45341 0
M  V30 19742 H 1839.76 0.196215 -0.72595 0
M  V30 19743 H 1841.73 -0.0776348 -2.98299 0
M  V30 19744 C 1840.48 1.69733 -3.03457 0
M  V30 19745 H 1839.8 1.27273 -3.79001 0
M  V30 19746 H 1841.24 2.28797 -3.56971 0
M  V30 19747 C 1839.7 2.61791 -2.12054 0
M  V30 19748 O 1840.23 3.63641 -1.7067 0
M  V30 19749 N 1838.44 2.30138 -1.7744 0
M  V30 19750 H 1837.98 1.47355 -2.11292 0
M  V30 19751 H 1837.94 2.91994 -1.16564 0
M  V30 19752 N 1841.71 1.57497 -0.0568439 0
M  V30 19753 C 1842.66 2.11862 0.915593 0
M  V30 19754 C 1843.63 1.02738 1.30515 0
M  V30 19755 O 1844.81 1.30318 1.39362 0
M  V30 19756 C 1841.95 2.67269 2.18315 0
M  V30 19757 C 1841.07 3.90498 1.84757 0
M  V30 19758 C 1840.2 4.342 3.06013 0
M  V30 19759 C 1839.24 5.50115 2.68403 0
M  V30 19760 N 1838.38 5.88844 3.8237 0
M  V30 19761 H 1843.22 2.94657 0.445101 0
M  V30 19762 H 1840.76 1.45621 0.20807 0
M  V30 19763 H 1842.71 2.97494 2.92494 0
M  V30 19764 H 1841.34 1.87262 2.62931 0
M  V30 19765 H 1840.4 3.66828 1.00703 0
M  V30 19766 H 1841.71 4.7473 1.53077 0
M  V30 19767 H 1840.86 4.66008 3.88486 0
M  V30 19768 H 1839.6 3.4879 3.40876 0
M  V30 19769 H 1838.61 5.17973 1.84348 0
M  V30 19770 H 1839.83 6.37244 2.34726 0
M  V30 19771 H 1837.78 5.06387 4.17024 0
M  V30 19772 H 1837.69 6.67781 3.54407 0
M  V30 19773 H 1838.96 6.25269 4.65466 0
M  V30 19774 N 1843.19 -0.216591 1.56105 0
M  V30 19775 C 1844.44 -0.938392 1.78993 0
M  V30 19776 C 1844.76 -1.84671 0.626215 0
M  V30 19777 O 1844.03 -1.92626 -0.356636 0
M  V30 19778 H 1842.61 -0.349491 0.660201 0
M  V30 19779 H 1845.27 -0.227256 1.93571 0
M  V30 19780 H 1844.37 -1.54227 2.71331 0
M  V30 19781 N 1844.67 -1.5 -0.48349 0
M  V30 19782 C 1846.08 -1.37151 -0.816192 0
M  V30 19783 C 1846.28 -0.418047 -1.97116 0
M  V30 19784 O 1845.34 0.143884 -2.5209 0
M  V30 19785 C 1846.65 -2.78256 -1.13992 0
M  V30 19786 C 1848.2 -2.87082 -1.2471 0
M  V30 19787 C 1848.68 -4.28993 -1.60403 0
M  V30 19788 N 1850.17 -4.31886 -1.67419 0
M  V30 19789 C 1850.9 -5.38673 -1.96516 0
M  V30 19790 N 1850.4 -6.55685 -2.23718 0
M  V30 19791 N 1852.19 -5.26105 -1.97914 0
M  V30 19792 H 1844.34 -2.10575 0.277847 0
M  V30 19793 H 1846.61 -0.945986 0.0617554 0
M  V30 19794 H 1846.31 -3.49807 -0.364448 0
M  V30 19795 H 1846.19 -3.14724 -2.07916 0
M  V30 19796 H 1848.57 -2.15758 -2.01327 0
M  V30 19797 H 1848.65 -2.54174 -0.287959 0
M  V30 19798 H 1848.3 -5.0085 -0.84331 0
M  V30 19799 H 1848.23 -4.59379 -2.57447 0
M  V30 19800 H 1850.72 -3.47506 -1.48487 0
M  V30 19801 H 1851.03 -7.32883 -2.45158 0
M  V30 19802 H 1849.38 -6.58881 -2.21136 0
M  V30 19803 H 1852.57 -4.33692 -1.76151 0
M  V30 19804 H 1852.74 -6.09419 -2.20256 0
M  V30 19805 N 1846.15 0.735796 -1.39369 0
M  V30 19806 C 1847.42 1.48712 -1.27059 0
M  V30 19807 C 1847.8 2.10758 0.120174 0
M  V30 19808 O 1847.15 1.98528 1.13132 0
M  V30 19809 C 1847.36 2.53918 -2.3943 0
M  V30 19810 C 1848.71 3.20322 -2.78709 0
M  V30 19811 O 1849.73 2.6423 -2.38874 0
M  V30 19812 O 1848.59 4.21819 -3.47463 0
M  V30 19813 H 1845.69 0.660337 -0.497879 0
M  V30 19814 H 1848.23 0.76969 -1.51241 0
M  V30 19815 H 1847 2.06444 -3.3241 0
M  V30 19816 H 1846.63 3.33221 -2.16909 0
M  V30 19817 N 1847.63 1.24532 0.965897 0
M  V30 19818 C 1848.87 1.0801 1.70343 0
M  V30 19819 C 1849.19 -0.380738 1.91859 0
M  V30 19820 O 1850.39 -0.666181 2.632 0
M  V30 19821 C 1848.85 1.88452 3.06617 0
M  V30 19822 C 1848.46 3.38957 2.92937 0
M  V30 19823 C 1850.2 1.80465 3.8423 0
M  V30 19824 C 1848.11 4.11736 4.24532 0
M  V30 19825 H 1847.04 0.400577 0.638791 0
M  V30 19826 H 1849.69 1.48629 1.07618 0
M  V30 19827 H 1848.07 1.40648 3.70181 0
M  V30 19828 H 1849.25 3.94353 2.38374 0
M  V30 19829 H 1847.56 3.47915 2.28788 0
M  V30 19830 H 1850.16 2.32142 4.81679 0
M  V30 19831 H 1850.5 0.770262 4.09112 0
M  V30 19832 H 1851.03 2.25958 3.27395 0
M  V30 19833 H 1847.77 5.15541 4.04842 0
M  V30 19834 H 1847.29 3.61125 4.78904 0
M  V30 19835 H 1848.97 4.18833 4.93141 0
M  V30 19836 N 1849.1 -1.16685 1.05936 0
M  V30 19837 C 1850.05 -2.20953 0.66695 0
M  V30 19838 C 1851.02 -1.62694 -0.334621 0
M  V30 19839 O 1852.21 -1.89477 -0.22433 0
M  V30 19840 C 1849.35 -3.45055 0.0557459 0
M  V30 19841 C 1848.46 -4.17574 1.10706 0
M  V30 19842 C 1847.59 -5.29184 0.462377 0
M  V30 19843 C 1846.63 -5.935 1.49748 0
M  V30 19844 N 1845.77 -6.96608 0.876416 0
M  V30 19845 H 1850.61 -2.53872 1.56054 0
M  V30 19846 H 1848.15 -1.24697 0.780321 0
M  V30 19847 H 1850.1 -4.16001 -0.316125 0
M  V30 19848 H 1848.73 -3.12697 -0.801265 0
M  V30 19849 H 1847.79 -3.45269 1.59668 0
M  V30 19850 H 1849.1 -4.61505 1.89248 0
M  V30 19851 H 1848.25 -6.06689 0.0373376 0
M  V30 19852 H 1846.99 -4.86407 -0.354955 0
M  V30 19853 H 1846 -5.1472 1.93245 0
M  V30 19854 H 1847.22 -6.38357 2.31684 0
M  V30 19855 H 1845.17 -6.55952 0.0797299 0
M  V30 19856 H 1845.08 -7.38891 1.59927 0
M  V30 19857 H 1846.35 -7.78043 0.4764 0
M  V30 19858 N 1850.58 -0.841432 -1.33258 0
M  V30 19859 C 1851.81 -0.451942 -2.01904 0
M  V30 19860 C 1852.22 0.94758 -1.63298 0
M  V30 19861 O 1851.58 1.61622 -0.847611 0
M  V30 19862 C 1851.63 -0.565978 -3.57042 0
M  V30 19863 O 1851.35 -1.91036 -3.94255 0
M  V30 19864 C 1852.85 -0.173776 -4.42959 0
M  V30 19865 H 1850.07 -0.179113 -0.646653 0
M  V30 19866 H 1852.62 -1.13472 -1.70131 0
M  V30 19867 H 1850.77 0.0689126 -3.87339 0
M  V30 19868 H 1851.19 -1.8977 -4.88966 0
M  V30 19869 H 1852.66 -0.304608 -5.51159 0
M  V30 19870 H 1853.14 0.884559 -4.302 0
M  V30 19871 H 1853.74 -0.783205 -4.18026 0
M  V30 19872 N 1852.06 1.4581 -0.598108 0
M  V30 19873 C 1853.31 2.01511 -0.0872421 0
M  V30 19874 C 1853.62 1.47345 1.28642 0
M  V30 19875 O 1854.83 1.94963 1.88949 0
M  V30 19876 C 1853.28 3.59746 -0.105317 0
M  V30 19877 C 1852.89 4.22909 -1.47824 0
M  V30 19878 C 1854.64 4.23048 0.350802 0
M  V30 19879 C 1852.54 5.73268 -1.45321 0
M  V30 19880 H 1851.47 0.753448 -0.0288462 0
M  V30 19881 H 1854.12 1.67382 -0.752037 0
M  V30 19882 H 1852.51 3.91022 0.625947 0
M  V30 19883 H 1853.68 4.03221 -2.23046 0
M  V30 19884 H 1851.99 3.71763 -1.87566 0
M  V30 19885 H 1854.59 5.33286 0.388561 0
M  V30 19886 H 1854.93 3.93058 1.37155 0
M  V30 19887 H 1855.47 3.96455 -0.326889 0
M  V30 19888 H 1852.21 6.07942 -2.45126 0
M  V30 19889 H 1851.73 5.95175 -0.743436 0
M  V30 19890 H 1853.41 6.36283 -1.17275 0
M  V30 19891 N 1853.54 0.336733 1.53961 0
M  V30 19892 C 1854.48 -0.523198 2.24792 0
M  V30 19893 C 1855.45 -1.10107 1.24361 0
M  V30 19894 O 1856.64 -1.13895 1.53077 0
M  V30 19895 C 1853.78 -1.67166 3.0191 0
M  V30 19896 C 1852.89 -1.12176 4.17182 0
M  V30 19897 C 1852.03 -2.23697 4.81802 0
M  V30 19898 C 1851.07 -1.66023 5.89154 0
M  V30 19899 N 1850.2 -2.7126 6.47582 0
M  V30 19900 H 1855.04 0.0873707 2.97872 0
M  V30 19901 H 1852.58 0.0548897 1.46998 0
M  V30 19902 H 1854.54 -2.34768 3.44876 0
M  V30 19903 H 1853.17 -2.25332 2.31139 0
M  V30 19904 H 1852.22 -0.336885 3.78905 0
M  V30 19905 H 1853.53 -0.659852 4.94416 0
M  V30 19906 H 1852.69 -2.99178 5.27804 0
M  V30 19907 H 1851.43 -2.7323 4.03976 0
M  V30 19908 H 1850.43 -0.890457 5.42541 0
M  V30 19909 H 1851.66 -1.17352 6.68884 0
M  V30 19910 H 1849.6 -3.20059 5.72624 0
M  V30 19911 H 1849.52 -2.29671 7.20269 0
M  V30 19912 H 1850.79 -3.4653 6.98239 0
M  V30 19913 N 1855.02 -1.57465 0.0651956 0
M  V30 19914 C 1856.24 -1.97975 -0.618099 0
M  V30 19915 C 1856.67 -0.943068 -1.62751 0
M  V30 19916 O 1856.02 0.0921045 -1.81066 0
M  V30 19917 C 1856.07 -3.37533 -1.26902 0
M  V30 19918 O 1855.18 -3.36451 -2.38483 0
M  V30 19919 H 1854.52 -0.644553 -0.159524 0
M  V30 19920 H 1857.05 -2.04136 0.137754 0
M  V30 19921 H 1857.06 -3.74571 -1.61742 0
M  V30 19922 H 1855.73 -4.12518 -0.529334 0
M  V30 19923 H 1854.31 -3.11175 -2.05486 0
M  V30 19924 N 1856.49 0.20831 -1.56217 0
M  V30 19925 C 1857.42 1.26115 -1.96513 0
M  V30 19926 C 1858.4 1.48185 -0.835183 0
M  V30 19927 O 1859.59 1.60145 -1.09851 0
M  V30 19928 C 1856.72 2.6082 -2.29326 0
M  V30 19929 C 1855.67 2.53385 -3.44935 0
M  V30 19930 C 1855 3.92241 -3.63388 0
M  V30 19931 C 1856.3 2.07026 -4.79518 0
M  V30 19932 H 1857.99 0.92635 -2.84709 0
M  V30 19933 H 1855.54 0.444169 -1.36979 0
M  V30 19934 H 1857.49 3.34644 -2.56109 0
M  V30 19935 H 1856.22 2.96014 -1.37997 0
M  V30 19936 H 1854.88 1.82018 -3.18222 0
M  V30 19937 H 1854.52 4.24766 -2.69413 0
M  V30 19938 H 1854.22 3.88145 -4.41154 0
M  V30 19939 H 1855.75 4.67707 -3.92533 0
M  V30 19940 H 1857.16 2.70601 -5.05419 0
M  V30 19941 H 1855.56 2.13961 -5.60661 0
M  V30 19942 H 1856.63 1.02298 -4.73986 0
M  V30 19943 N 1857.97 1.50255 0.475528 0
M  V30 19944 C 1859.39 1.37582 0.808907 0
M  V30 19945 C 1859.59 0.428494 1.96891 0
M  V30 19946 O 1858.64 -0.130513 2.52162 0
M  V30 19947 C 1859.96 2.78856 1.12515 0
M  V30 19948 C 1861.5 2.8774 1.23186 0
M  V30 19949 C 1861.98 4.29838 1.58126 0
M  V30 19950 N 1863.47 4.32767 1.65126 0
M  V30 19951 C 1864.21 5.39708 1.93656 0
M  V30 19952 N 1863.7 6.56862 2.20237 0
M  V30 19953 N 1865.49 5.27147 1.95121 0
M  V30 19954 H 1857.65 2.10425 -0.28901 0
M  V30 19955 H 1859.91 0.945646 -0.0667713 0
M  V30 19956 H 1859.61 3.49995 0.345892 0
M  V30 19957 H 1859.49 3.15822 2.06244 0
M  V30 19958 H 1861.88 2.16823 2.0018 0
M  V30 19959 H 1861.96 2.54323 0.274475 0
M  V30 19960 H 1861.6 5.0129 0.816737 0
M  V30 19961 H 1861.53 4.60737 2.55007 0
M  V30 19962 H 1864.02 3.48288 1.46642 0
M  V30 19963 H 1864.33 7.34173 2.41268 0
M  V30 19964 H 1862.68 6.60044 2.17639 0
M  V30 19965 H 1865.87 4.3462 1.73849 0
M  V30 19966 H 1866.04 6.10578 2.17021 0
M  V30 19967 N 1859.45 -0.728395 1.39758 0
M  V30 19968 C 1860.7 -1.49028 1.37544 0
M  V30 19969 C 1861.03 -1.94182 -0.0265175 0
M  V30 19970 O 1860.3 -1.67257 -0.992737 0
M  V30 19971 C 1860.59 -2.72535 2.35365 0
M  V30 19972 C 1860.44 -2.33358 3.84531 0
M  V30 19973 C 1861.76 -3.74656 2.30914 0
M  V30 19974 H 1858.88 -0.540587 0.500934 0
M  V30 19975 H 1861.52 -0.832335 1.70799 0
M  V30 19976 H 1859.67 -3.28674 2.07137 0
M  V30 19977 H 1861.34 -1.828 4.23535 0
M  V30 19978 H 1859.58 -1.65508 4.00986 0
M  V30 19979 H 1860.26 -3.21832 4.48473 0
M  V30 19980 H 1862.73 -3.28117 2.55888 0
M  V30 19981 H 1861.61 -4.58729 3.01428 0
M  V30 19982 H 1861.87 -4.22047 1.31639 0
M  V30 19983 N 1860.93 -1.25042 -0.959279 0
M  V30 19984 C 1861.86 -1.07494 -2.07285 0
M  V30 19985 C 1862.84 0.0146264 -1.70094 0
M  V30 19986 O 1864.02 -0.154035 -1.93588 0
M  V30 19987 C 1861.15 -0.68794 -3.40418 0
M  V30 19988 C 1860.11 -1.72722 -3.91601 0
M  V30 19989 C 1859.43 -1.19504 -5.21175 0
M  V30 19990 C 1860.73 -3.12502 -4.18497 0
M  V30 19991 H 1862.43 -2.00641 -2.22224 0
M  V30 19992 H 1859.97 -0.966074 -1.06785 0
M  V30 19993 H 1861.93 -0.552133 -4.17767 0
M  V30 19994 H 1860.65 0.279224 -3.25404 0
M  V30 19995 H 1859.31 -1.85139 -3.16416 0
M  V30 19996 H 1858.96 -0.218239 -5.02526 0
M  V30 19997 H 1858.66 -1.88962 -5.56387 0
M  V30 19998 H 1860.18 -1.07153 -6.01124 0
M  V30 19999 H 1861.6 -3.03266 -4.86521 0
M  V30 20000 H 1859.99 -3.79389 -4.64956 0
M  V30 20001 H 1861.06 -3.5991 -3.2495 0
M  V30 20002 N 1862.41 1.16121 -1.06553 0
M  V30 20003 C 1863.82 1.38705 -0.789497 0
M  V30 20004 C 1864.02 1.92046 0.609975 0
M  V30 20005 O 1863.08 2.12096 1.37009 0
M  V30 20006 C 1864.39 2.36541 -1.85658 0
M  V30 20007 C 1865.94 2.5022 -1.88039 0
M  V30 20008 C 1866.41 3.51341 -2.93809 0
M  V30 20009 N 1867.91 3.5887 -2.92859 0
M  V30 20010 C 1868.64 4.3691 -3.71346 0
M  V30 20011 N 1868.14 5.1835 -4.59657 0
M  V30 20012 N 1869.93 4.31918 -3.59726 0
M  V30 20013 H 1862.08 0.798355 -1.96825 0
M  V30 20014 H 1864.34 0.41349 -0.853071 0
M  V30 20015 H 1864.05 2.04447 -2.86172 0
M  V30 20016 H 1863.92 3.36221 -1.70983 0
M  V30 20017 H 1866.31 2.81617 -0.881822 0
M  V30 20018 H 1866.39 1.50567 -2.06793 0
M  V30 20019 H 1866.04 3.20681 -3.93861 0
M  V30 20020 H 1865.97 4.50731 -2.72304 0
M  V30 20021 H 1868.46 3.00735 -2.28838 0
M  V30 20022 H 1868.77 5.75119 -5.16196 0
M  V30 20023 H 1867.11 5.17684 -4.63711 0
M  V30 20024 H 1870.31 3.67355 -2.90117 0
M  V30 20025 H 1870.48 4.92491 -4.21137 0
M  V30 20026 N 1863.88 0.848487 1.3281 0
M  V30 20027 C 1865.13 0.449521 1.97755 0
M  V30 20028 C 1865.46 -0.990923 1.67016 0
M  V30 20029 O 1864.74 -1.69434 0.955119 0
M  V30 20030 C 1865.02 0.681898 3.53585 0
M  V30 20031 C 1864.87 2.17031 3.93976 0
M  V30 20032 C 1866.19 0.134271 4.39895 0
M  V30 20033 H 1863.31 0.164799 0.718339 0
M  V30 20034 H 1865.95 1.06578 1.57293 0
M  V30 20035 H 1864.1 0.157353 3.88181 0
M  V30 20036 H 1865.78 2.76046 3.69589 0
M  V30 20037 H 1864.02 2.65117 3.43359 0
M  V30 20038 H 1864.69 2.28362 5.02548 0
M  V30 20039 H 1867.17 0.582756 4.11999 0
M  V30 20040 H 1866.04 0.326479 5.47928 0
M  V30 20041 H 1866.3 -0.962576 4.31494 0
M  V30 20042 N 1865.36 -1.4549 0.605832 0
M  V30 20043 C 1866.29 -2.3328 -0.101377 0
M  V30 20044 C 1867.27 -1.46727 -0.860543 0
M  V30 20045 O 1868.46 -1.75501 -0.831441 0
M  V30 20046 C 1865.59 -3.29403 -1.1005 0
M  V30 20047 C 1864.54 -4.25578 -0.45466 0
M  V30 20048 C 1863.87 -5.11379 -1.5619 0
M  V30 20049 C 1865.17 -5.18571 0.623028 0
M  V30 20050 H 1866.86 -2.92661 0.631653 0
M  V30 20051 H 1864.41 -1.40728 0.305208 0
M  V30 20052 H 1866.36 -3.89688 -1.60379 0
M  V30 20053 H 1865.09 -2.68177 -1.8641 0
M  V30 20054 H 1863.74 -3.66589 0.027752 0
M  V30 20055 H 1863.39 -4.46523 -2.31574 0
M  V30 20056 H 1863.09 -5.76528 -1.13529 0
M  V30 20057 H 1864.62 -5.74532 -2.0675 0
M  V30 20058 H 1866.03 -5.72937 0.203881 0
M  V30 20059 H 1864.43 -5.92187 0.971292 0
M  V30 20060 H 1865.5 -4.61106 1.50032 0
M  V30 20061 N 1866.84 -0.344893 -1.5378 0
M  V30 20062 C 1868.26 0.00698009 -1.59598 0
M  V30 20063 C 1868.46 1.48608 -1.36081 0
M  V30 20064 O 1867.51 2.24498 -1.15573 0
M  V30 20065 C 1868.83 -0.430402 -2.97604 0
M  V30 20066 C 1870.37 -0.38286 -3.1065 0
M  V30 20067 C 1870.85 -0.795731 -4.51035 0
M  V30 20068 N 1872.34 -0.74997 -4.57088 0
M  V30 20069 C 1873.07 -1.04137 -5.63864 0
M  V30 20070 N 1872.57 -1.401 -6.78487 0
M  V30 20071 N 1874.36 -0.965521 -5.53746 0
M  V30 20072 H 1866.51 -1.30834 -1.67321 0
M  V30 20073 H 1868.78 -0.533422 -0.783686 0
M  V30 20074 H 1868.48 -1.46174 -3.19884 0
M  V30 20075 H 1868.36 0.193696 -3.76702 0
M  V30 20076 H 1870.74 0.639311 -2.88092 0
M  V30 20077 H 1870.83 -1.04218 -2.33607 0
M  V30 20078 H 1870.47 -1.81592 -4.74328 0
M  V30 20079 H 1870.4 -0.113876 -5.26477 0
M  V30 20080 H 1872.89 -0.48474 -3.74778 0
M  V30 20081 H 1873.2 -1.60815 -7.55882 0
M  V30 20082 H 1871.55 -1.43946 -6.7993 0
M  V30 20083 H 1874.74 -0.683902 -4.63077 0
M  V30 20084 H 1874.91 -1.19596 -6.36868 0
M  V30 20085 N 1868.32 1.57428 -0.0735454 0
M  V30 20086 C 1869.73 1.80973 0.458858 0
M  V30 20087 C 1870.08 0.987586 1.69532 0
M  V30 20088 O 1869.21 0.210611 2.15373 0
M  V30 20089 C 1869.8 3.28241 0.839246 0
M  V30 20090 C 1868.36 3.52626 1.3165 0
M  V30 20091 C 1867.51 2.75645 0.302533 0
M  V30 20092 H 1870.46 1.55854 -0.299225 0
M  V30 20093 H 1870.48 3.40386 1.70052 0
M  V30 20094 H 1869.99 3.88052 -0.0608625 0
M  V30 20095 H 1868.09 2.98121 2.23505 0
M  V30 20096 H 1868.2 4.61316 1.29322 0
M  V30 20097 H 1866.57 2.42457 0.780179 0
M  V30 20098 H 1867.35 3.38194 -0.589878 0
M  V30 20099 N 1869.8 -0.200022 1.56326 0
M  V30 20100 C 1870.73 -1.25071 1.97179 0
M  V30 20101 C 1871.71 -1.4774 0.84303 0
M  V30 20102 O 1872.89 -1.5956 1.10699 0
M  V30 20103 C 1870.02 -2.596 2.30706 0
M  V30 20104 C 1868.98 -2.51552 3.46274 0
M  V30 20105 C 1868.3 -3.90309 3.65463 0
M  V30 20106 C 1869.6 -2.0448 4.80609 0
M  V30 20107 H 1871.3 -0.911238 2.85196 0
M  V30 20108 H 1868.84 -0.436899 1.37212 0
M  V30 20109 H 1870.8 -3.33281 2.5788 0
M  V30 20110 H 1869.52 -2.95278 1.39565 0
M  V30 20111 H 1868.18 -1.80327 3.19183 0
M  V30 20112 H 1867.83 -4.23331 2.71662 0
M  V30 20113 H 1867.53 -3.858 4.43207 0
M  V30 20114 H 1869.05 -4.65619 3.95008 0
M  V30 20115 H 1870.46 -2.67917 5.06847 0
M  V30 20116 H 1868.86 -2.10985 5.61788 0
M  V30 20117 H 1869.93 -0.997828 4.74522 0
M  V30 20118 N 1871.27 -1.50505 -0.467553 0
M  V30 20119 C 1872.22 -1.69626 -1.56511 0
M  V30 20120 C 1873.19 -0.537594 -1.5716 0
M  V30 20121 O 1874.38 -0.768574 -1.74636 0
M  V30 20122 C 1871.52 -1.79965 -2.9446 0
M  V30 20123 C 1870.63 -3.07356 -3.03572 0
M  V30 20124 C 1869.76 -3.08469 -4.32458 0
M  V30 20125 C 1868.8 -4.303 -4.35326 0
M  V30 20126 N 1867.94 -4.29132 -5.55689 0
M  V30 20127 H 1872.78 -2.63326 -1.39511 0
M  V30 20128 H 1870.32 -1.30531 -0.678239 0
M  V30 20129 H 1872.28 -1.8394 -3.74462 0
M  V30 20130 H 1870.91 -0.897013 -3.10086 0
M  V30 20131 H 1869.96 -3.12836 -2.16421 0
M  V30 20132 H 1871.27 -3.97327 -3.01551 0
M  V30 20133 H 1870.42 -3.11193 -5.20811 0
M  V30 20134 H 1869.16 -2.16335 -4.37093 0
M  V30 20135 H 1868.17 -4.27784 -3.4537 0
M  V30 20136 H 1869.39 -5.23665 -4.3238 0
M  V30 20137 H 1867.34 -3.39853 -5.61102 0
M  V30 20138 H 1867.26 -5.12875 -5.55423 0
M  V30 20139 H 1868.52 -4.36007 -6.46156 0
M  V30 20140 N 1872.75 0.720973 -1.40142 0
M  V30 20141 C 1873.98 1.51012 -1.41431 0
M  V30 20142 C 1874.4 1.88796 -0.0125516 0
M  V30 20143 O 1873.75 1.55073 0.962217 0
M  V30 20144 C 1873.8 2.78886 -2.3001 0
M  V30 20145 O 1873.52 2.42703 -3.64729 0
M  V30 20146 C 1875.03 3.7282 -2.39834 0
M  V30 20147 H 1872.25 0.466214 -0.482582 0
M  V30 20148 H 1874.79 0.889777 -1.84128 0
M  V30 20149 H 1872.94 3.37219 -1.90689 0
M  V30 20150 H 1873.36 3.24945 -4.11717 0
M  V30 20151 H 1874.83 4.594 -3.06032 0
M  V30 20152 H 1875.31 4.15552 -1.42173 0
M  V30 20153 H 1875.92 3.20402 -2.79684 0
M  V30 20154 N 1874.23 1.25549 0.952634 0
M  V30 20155 C 1875.48 1.09811 1.69188 0
M  V30 20156 C 1875.79 -0.360368 1.92252 0
M  V30 20157 O 1877 -0.638228 2.63892 0
M  V30 20158 C 1875.45 1.91693 3.04601 0
M  V30 20159 C 1875.06 3.42045 2.89326 0
M  V30 20160 C 1876.81 1.8453 3.82294 0
M  V30 20161 C 1874.71 4.16216 4.20141 0
M  V30 20162 H 1873.64 0.40733 0.634507 0
M  V30 20163 H 1876.29 1.49762 1.06035 0
M  V30 20164 H 1874.68 1.44566 3.68669 0
M  V30 20165 H 1875.85 3.96859 2.34178 0
M  V30 20166 H 1874.17 3.50322 2.25085 0
M  V30 20167 H 1876.76 2.37237 4.79189 0
M  V30 20168 H 1877.11 0.81361 4.08272 0
M  V30 20169 H 1877.64 2.29418 3.2498 0
M  V30 20170 H 1874.38 5.19806 3.99352 0
M  V30 20171 H 1873.9 3.66184 4.75047 0
M  V30 20172 H 1875.58 4.2404 4.88671 0
M  V30 20173 N 1875.71 -1.15554 1.07168 0
M  V30 20174 C 1876.66 -2.20234 0.690348 0
M  V30 20175 C 1877.63 -1.6304 -0.317346 0
M  V30 20176 O 1878.81 -1.89704 -0.20422 0
M  V30 20177 C 1875.95 -3.44976 0.0923404 0
M  V30 20178 C 1875.06 -4.16377 1.15128 0
M  V30 20179 C 1874.2 -5.28664 0.518478 0
M  V30 20180 C 1873.24 -5.91878 1.56034 0
M  V30 20181 N 1872.37 -6.9564 0.950251 0
M  V30 20182 H 1877.21 -2.52203 1.58738 0
M  V30 20183 H 1874.75 -1.23863 0.793502 0
M  V30 20184 H 1876.71 -4.16312 -0.271985 0
M  V30 20185 H 1875.34 -3.1353 -0.768054 0
M  V30 20186 H 1874.39 -3.43556 1.63321 0
M  V30 20187 H 1875.7 -4.59472 1.94132 0
M  V30 20188 H 1874.86 -6.06615 0.101683 0
M  V30 20189 H 1873.6 -4.86756 -0.303345 0
M  V30 20190 H 1872.6 -5.12641 1.98694 0
M  V30 20191 H 1873.83 -6.35864 2.38442 0
M  V30 20192 H 1871.77 -6.5583 0.149298 0
M  V30 20193 H 1871.69 -7.37153 1.67755 0
M  V30 20194 H 1872.96 -7.77494 0.558895 0
M  V30 20195 N 1877.19 -0.855519 -1.32358 0
M  V30 20196 C 1878.6 -0.545491 -1.49989 0
M  V30 20197 C 1878.8 0.923656 -1.79083 0
M  V30 20198 O 1877.86 1.70664 -1.86091 0
M  V30 20199 C 1879.17 -1.43323 -2.64347 0
M  V30 20200 C 1880.72 -1.43374 -2.78232 0
M  V30 20201 C 1881.2 -2.30671 -3.9567 0
M  V30 20202 N 1882.69 -2.28471 -4.02933 0
M  V30 20203 C 1883.42 -2.92746 -4.93039 0
M  V30 20204 N 1882.92 -3.66136 -5.88147 0
M  V30 20205 N 1884.71 -2.82129 -4.86168 0
M  V30 20206 H 1876.86 -1.80633 -1.11738 0
M  V30 20207 H 1879.12 -0.771568 -0.550805 0
M  V30 20208 H 1878.83 -2.47797 -2.49578 0
M  V30 20209 H 1878.7 -1.12125 -3.6015 0
M  V30 20210 H 1881.09 -0.396641 -2.92422 0
M  V30 20211 H 1881.17 -1.78588 -1.83139 0
M  V30 20212 H 1880.82 -3.3445 -3.82238 0
M  V30 20213 H 1880.75 -1.92789 -4.90041 0
M  V30 20214 H 1883.24 -1.75115 -3.34878 0
M  V30 20215 H 1883.55 -4.12344 -6.536 0
M  V30 20216 H 1881.9 -3.70244 -5.88171 0
M  V30 20217 H 1885.09 -2.24344 -4.10837 0
M  V30 20218 H 1885.26 -3.32502 -5.56189 0
M  V30 20219 N 1878.67 1.45167 -0.61354 0
M  V30 20220 C 1879.6 2.3333 0.089004 0
M  V30 20221 C 1880.58 1.47181 0.85275 0
M  V30 20222 O 1881.76 1.7594 0.822122 0
M  V30 20223 C 1878.89 3.29982 1.08301 0
M  V30 20224 C 1877.85 4.25813 0.432084 0
M  V30 20225 C 1877.17 5.122 1.53476 0
M  V30 20226 C 1878.47 5.18233 -0.65052 0
M  V30 20227 H 1880.17 2.92322 -0.647165 0
M  V30 20228 H 1877.71 1.40565 -0.312667 0
M  V30 20229 H 1879.66 3.90533 1.5831 0
M  V30 20230 H 1878.39 2.69162 1.84985 0
M  V30 20231 H 1877.05 3.6657 -0.0471927 0
M  V30 20232 H 1876.7 4.47744 2.29203 0
M  V30 20233 H 1876.4 5.77122 1.10469 0
M  V30 20234 H 1877.92 5.7562 2.037 0
M  V30 20235 H 1879.33 5.72821 -0.234262 0
M  V30 20236 H 1877.73 5.91664 -1.00268 0
M  V30 20237 H 1878.8 4.60304 -1.52475 0
M  V30 20238 N 1880.14 0.353044 1.53595 0
M  V30 20239 C 1881.55 -0.128852 1.86255 0
M  V30 20240 C 1881.91 -1.49209 1.27402 0
M  V30 20241 O 1881.03 -2.08167 0.591222 0
M  V30 20242 C 1881.63 -0.240583 3.37945 0
M  V30 20243 C 1880.18 -0.66672 3.70448 0
M  V30 20244 C 1879.33 0.193757 2.76622 0
M  V30 20245 H 1882.28 0.5723 1.48022 0
M  V30 20246 H 1882.3 -1.06641 3.65251 0
M  V30 20247 H 1881.82 0.75174 3.8075 0
M  V30 20248 H 1879.92 -1.66773 3.33193 0
M  V30 20249 H 1880.03 -0.450026 4.76982 0
M  V30 20250 H 1878.39 -0.335406 2.52482 0
M  V30 20251 H 1879.18 1.18339 3.22259 0
M  V30 20252 N 1881.62 -1.57387 0.0818932 0
M  V30 20253 C 1882.57 -2.13292 -0.881772 0
M  V30 20254 C 1883.54 -1.04801 -1.28864 0
M  V30 20255 O 1884.72 -1.32519 -1.37272 0
M  V30 20256 C 1881.86 -2.70708 -2.14035 0
M  V30 20257 C 1880.98 -3.93388 -1.78522 0
M  V30 20258 C 1880.11 -4.39013 -2.99067 0
M  V30 20259 C 1879.15 -5.54315 -2.59617 0
M  V30 20260 N 1878.29 -5.94853 -3.72954 0
M  V30 20261 H 1883.13 -2.95328 -0.398167 0
M  V30 20262 H 1880.66 -1.45934 -0.184876 0
M  V30 20263 H 1882.62 -3.0211 -2.87724 0
M  V30 20264 H 1881.25 -1.91421 -2.59919 0
M  V30 20265 H 1880.3 -3.68384 -0.948546 0
M  V30 20266 H 1881.62 -4.77106 -1.45505 0
M  V30 20267 H 1880.77 -4.72129 -3.81023 0
M  V30 20268 H 1879.51 -3.54169 -3.35284 0
M  V30 20269 H 1878.51 -5.2084 -1.76084 0
M  V30 20270 H 1879.74 -6.40898 -2.24558 0
M  V30 20271 H 1877.69 -5.12957 -4.08915 0
M  V30 20272 H 1877.6 -6.73335 -3.43739 0
M  V30 20273 H 1878.87 -6.32595 -4.5546 0
M  V30 20274 N 1883.1 0.191729 -1.56429 0
M  V30 20275 C 1884.03 1.24024 -1.97839 0
M  V30 20276 C 1885.01 1.47291 -0.850853 0
M  V30 20277 O 1886.2 1.58971 -1.11543 0
M  V30 20278 C 1883.33 2.58373 -2.32079 0
M  V30 20279 C 1882.28 2.49712 -3.47603 0
M  V30 20280 C 1881.61 3.88365 -3.67528 0
M  V30 20281 C 1882.91 2.01929 -4.81687 0
M  V30 20282 H 1884.6 0.8961 -2.85675 0
M  V30 20283 H 1882.15 0.429616 -1.37442 0
M  V30 20284 H 1884.1 3.31908 -2.59643 0
M  V30 20285 H 1882.82 2.94534 -1.41129 0
M  V30 20286 H 1881.48 1.78632 -3.20135 0
M  V30 20287 H 1881.13 4.21884 -2.73903 0
M  V30 20288 H 1880.83 3.83444 -4.45246 0
M  V30 20289 H 1882.35 4.63518 -3.97472 0
M  V30 20290 H 1883.77 2.65225 -5.0826 0
M  V30 20291 H 1882.16 2.08002 -5.62899 0
M  V30 20292 H 1883.23 0.972649 -4.75045 0
M  V30 20293 N 1884.58 1.50751 0.459565 0
M  V30 20294 C 1885.52 1.70454 1.55609 0
M  V30 20295 C 1886.49 0.545921 1.56872 0
M  V30 20296 O 1887.68 0.777824 1.74226 0
M  V30 20297 C 1884.82 1.81524 2.93501 0
M  V30 20298 C 1883.93 3.08962 3.01938 0
M  V30 20299 C 1883.07 3.10758 4.30816 0
M  V30 20300 C 1882.11 4.32602 4.33038 0
M  V30 20301 N 1881.24 4.32073 5.53405 0
M  V30 20302 H 1886.08 2.64062 1.38112 0
M  V30 20303 H 1883.62 1.30889 0.671307 0
M  V30 20304 H 1885.58 1.85923 3.73481 0
M  V30 20305 H 1884.21 0.913445 3.09606 0
M  V30 20306 H 1883.26 3.13979 2.14759 0
M  V30 20307 H 1884.57 3.9892 2.9944 0
M  V30 20308 H 1883.73 3.13951 5.19153 0
M  V30 20309 H 1882.47 2.1865 4.3594 0
M  V30 20310 H 1881.47 4.2961 3.43097 0
M  V30 20311 H 1882.7 5.2595 4.29596 0
M  V30 20312 H 1880.64 3.42824 5.59292 0
M  V30 20313 H 1880.56 5.15814 5.52695 0
M  V30 20314 H 1881.83 4.39428 6.43835 0
M  V30 20315 N 1886.06 -0.713531 1.40522 0
M  V30 20316 C 1887.02 -1.80932 1.40699 0
M  V30 20317 C 1888.02 -1.57968 0.30045 0
M  V30 20318 O 1889.21 -1.64972 0.559456 0
M  V30 20319 C 1886.34 -3.19053 1.20075 0
M  V30 20320 H 1887.53 -1.82174 2.38228 0
M  V30 20321 H 1885.09 -0.919374 1.26401 0
M  V30 20322 H 1885.82 -3.23461 0.233137 0
M  V30 20323 H 1885.61 -3.37121 2.00229 0
M  V30 20324 H 1887.1 -3.99078 1.22991 0
M  V30 20325 N 1887.53 -1.26053 -0.945962 0
M  V30 20326 C 1888.78 -1.1148 -1.69411 0
M  V30 20327 C 1889.11 0.341927 -1.91166 0
M  V30 20328 O 1888.39 1.2515 -1.48888 0
M  V30 20329 C 1888.67 -1.87915 -3.07181 0
M  V30 20330 C 1888.52 -3.41466 -2.92781 0
M  V30 20331 C 1889.84 -1.66917 -4.07218 0
M  V30 20332 H 1886.96 -0.406361 -0.614849 0
M  V30 20333 H 1889.6 -1.54991 -1.099 0
M  V30 20334 H 1887.75 -1.50934 -3.57982 0
M  V30 20335 H 1889.43 -3.88172 -2.49238 0
M  V30 20336 H 1887.67 -3.68735 -2.2851 0
M  V30 20337 H 1888.34 -3.90171 -3.90475 0
M  V30 20338 H 1890.82 -1.99127 -3.6536 0
M  V30 20339 H 1889.69 -2.22821 -5.01639 0
M  V30 20340 H 1889.95 -0.612576 -4.37835 0
M  V30 20341 N 1889.01 1.14984 -1.07779 0
M  V30 20342 C 1890.26 1.85873 -0.803587 0
M  V30 20343 C 1890.59 1.82579 0.670472 0
M  V30 20344 O 1889.84 1.247 1.50826 0
M  V30 20345 C 1890.14 3.34355 -1.26259 0
M  V30 20346 C 1889.81 3.57842 -2.74335 0
M  V30 20347 C 1888.47 3.63961 -3.14779 0
M  V30 20348 C 1890.82 3.67191 -3.69893 0
M  V30 20349 C 1888.15 3.76944 -4.49589 0
M  V30 20350 C 1890.5 3.81698 -5.04469 0
M  V30 20351 C 1889.16 3.86064 -5.44528 0
M  V30 20352 H 1888.43 0.680157 -0.294053 0
M  V30 20353 H 1891.08 1.35862 -1.34959 0
M  V30 20354 H 1889.39 3.86603 -0.636057 0
M  V30 20355 H 1891.08 3.87619 -1.02727 0
M  V30 20356 H 1887.67 3.53723 -2.42028 0
M  V30 20357 H 1891.86 3.61759 -3.3977 0
M  V30 20358 H 1887.11 3.78583 -4.80088 0
M  V30 20359 H 1891.29 3.87873 -5.78383 0
M  V30 20360 H 1888.91 3.95876 -6.48989 0
M  V30 20361 N 1890.49 0.862526 1.31902 0
M  V30 20362 C 1891.77 0.390745 1.91657 0
M  V30 20363 C 1892.15 -1.12648 1.78532 0
M  V30 20364 O 1891.49 -1.95169 1.18833 0
M  V30 20365 C 1891.7 0.863847 3.3814 0
M  V30 20366 C 1893.05 0.885621 4.15261 0
M  V30 20367 O 1894.08 0.809005 3.46891 0
M  V30 20368 O 1892.94 0.995169 5.37363 0
M  V30 20369 H 1890.03 0.115501 0.818895 0
M  V30 20370 H 1892.58 0.949947 1.4062 0
M  V30 20371 H 1891.35 1.90723 3.41673 0
M  V30 20372 H 1890.97 0.282536 3.96595 0
M  V30 20373 N 1891.97 -1.4484 0.62123 0
M  V30 20374 C 1893.21 -2.04018 0.124967 0
M  V30 20375 C 1893.57 -1.47734 -1.22633 0
M  V30 20376 O 1894.77 -1.98351 -1.81412 0
M  V30 20377 C 1893.04 -3.57258 0.10069 0
M  V30 20378 S 1894.6 -4.37539 -0.332394 0
M  V30 20379 H 1891.42 -0.708773 0.0562358 0
M  V30 20380 H 1894.02 -1.77361 0.822397 0
M  V30 20381 H 1892.73 -3.95731 1.08745 0
M  V30 20382 H 1892.26 -3.88511 -0.618303 0
M  V30 20383 H 1894.27 -4.7041 -1.57888 0
M  V30 20384 N 1893.45 -0.361184 -1.53405 0
M  V30 20385 C 1894.69 0.230222 -2.01489 0
M  V30 20386 C 1895.03 1.48779 -1.24814 0
M  V30 20387 O 1894.3 1.91494 -0.340612 0
M  V30 20388 C 1894.58 0.526613 -3.56229 0
M  V30 20389 C 1894.44 -0.744277 -4.436 0
M  V30 20390 C 1895.76 1.32901 -4.19554 0
M  V30 20391 H 1892.87 0.0822009 -0.732402 0
M  V30 20392 H 1895.52 -0.485208 -1.837 0
M  V30 20393 H 1893.67 1.13609 -3.71517 0
M  V30 20394 H 1895.34 -1.38188 -4.40116 0
M  V30 20395 H 1893.58 -1.36555 -4.11747 0
M  V30 20396 H 1894.25 -0.491913 -5.49804 0
M  V30 20397 H 1896.73 0.813474 -4.08071 0
M  V30 20398 H 1895.6 1.50513 -5.27861 0
M  V30 20399 H 1895.87 2.33625 -3.75329 0
M  V30 20400 N 1894.92 1.57341 -0.0902386 0
M  V30 20401 C 1896.17 1.94464 0.575461 0
M  V30 20402 C 1896.5 0.971819 1.68135 0
M  V30 20403 O 1895.78 0.00405665 1.945 0
M  V30 20404 C 1896.06 3.41739 1.13518 0
M  V30 20405 C 1895.91 4.49787 0.0346821 0
M  V30 20406 C 1897.23 3.90222 2.03506 0
M  V30 20407 H 1894.35 0.707123 0.207716 0
M  V30 20408 H 1896.99 1.89325 -0.15996 0
M  V30 20409 H 1895.14 3.46249 1.76192 0
M  V30 20410 H 1896.82 4.5739 -0.599326 0
M  V30 20411 H 1895.06 4.29166 -0.632342 0
M  V30 20412 H 1895.73 5.50021 0.467044 0
M  V30 20413 H 1898.21 3.87834 1.50744 0
M  V30 20414 H 1897.08 4.93846 2.39598 0
M  V30 20415 H 1897.34 3.29232 2.95057 0
M  V30 20416 N 1896.4 -0.183431 1.56529 0
M  V30 20417 C 1897.63 -0.917888 1.85425 0
M  V30 20418 C 1898.05 -1.76353 0.674171 0
M  V30 20419 O 1897.4 -1.78975 -0.35695 0
M  V30 20420 C 1897.45 -1.80454 3.13239 0
M  V30 20421 O 1897.17 -0.993028 4.26697 0
M  V30 20422 C 1898.68 -2.64969 3.55396 0
M  V30 20423 H 1895.9 -0.267254 0.61548 0
M  V30 20424 H 1898.44 -0.187171 2.03642 0
M  V30 20425 H 1896.59 -2.48874 2.96884 0
M  V30 20426 H 1897.01 -1.59831 4.99554 0
M  V30 20427 H 1898.48 -3.22819 4.47763 0
M  V30 20428 H 1898.96 -3.3925 2.78937 0
M  V30 20429 H 1899.57 -2.01902 3.74321 0
M  V30 20430 N 1897.88 -1.50992 -0.451564 0
M  V30 20431 C 1899.11 -1.67021 -1.22958 0
M  V30 20432 C 1899.53 -0.36115 -1.846 0
M  V30 20433 O 1898.89 0.677193 -1.68178 0
M  V30 20434 C 1898.94 -2.77744 -2.29979 0
M  V30 20435 O 1898.04 -2.40356 -3.35116 0
M  V30 20436 H 1897.38 -0.557369 -0.360882 0
M  V30 20437 H 1899.91 -1.97479 -0.535073 0
M  V30 20438 H 1899.92 -3.01406 -2.74988 0
M  V30 20439 H 1898.6 -3.72742 -1.84488 0
M  V30 20440 H 1897.17 -2.27214 -2.95683 0
M  V30 20441 N 1899.36 0.706069 -1.40899 0
M  V30 20442 C 1900.29 1.83275 -1.44681 0
M  V30 20443 C 1901.27 1.67313 -0.306629 0
M  V30 20444 O 1902.45 1.87203 -0.516597 0
M  V30 20445 C 1899.58 3.21319 -1.318 0
M  V30 20446 C 1898.54 3.51969 -2.4352 0
M  V30 20447 C 1897.86 4.89258 -2.1571 0
M  V30 20448 C 1899.16 3.52004 -3.85864 0
M  V30 20449 H 1900.86 1.80367 -2.38973 0
M  V30 20450 H 1898.4 0.866349 -1.15023 0
M  V30 20451 H 1900.36 3.99841 -1.3306 0
M  V30 20452 H 1899.08 3.24827 -0.339879 0
M  V30 20453 H 1897.74 2.75792 -2.41525 0
M  V30 20454 H 1897.39 4.89378 -1.16266 0
M  V30 20455 H 1897.09 5.1073 -2.90566 0
M  V30 20456 H 1898.61 5.70102 -2.18669 0
M  V30 20457 H 1900.03 4.20548 -3.8963 0
M  V30 20458 H 1898.42 3.85005 -4.60316 0
M  V30 20459 H 1899.49 2.51191 -4.14766 0
M  V30 20460 N 1900.84 1.26553 0.939264 0
M  V30 20461 C 1901.78 1.08276 2.03826 0
M  V30 20462 C 1902.75 -0.0127713 1.66095 0
M  V30 20463 O 1903.94 0.147362 1.9023 0
M  V30 20464 C 1901.08 0.723819 3.37424 0
M  V30 20465 C 1900.19 1.8958 3.88179 0
M  V30 20466 C 1899.33 1.4798 5.10172 0
M  V30 20467 C 1898.37 2.61997 5.53194 0
M  V30 20468 N 1897.5 2.21064 6.66389 0
M  V30 20469 H 1902.34 2.02323 2.18791 0
M  V30 20470 H 1899.88 1.00732 1.07198 0
M  V30 20471 H 1901.84 0.496585 4.14234 0
M  V30 20472 H 1900.47 -0.179671 3.223 0
M  V30 20473 H 1899.52 2.23591 3.07752 0
M  V30 20474 H 1900.83 2.7515 4.16045 0
M  V30 20475 H 1899.99 1.21312 5.94448 0
M  V30 20476 H 1898.72 0.595025 4.84057 0
M  V30 20477 H 1897.73 2.89391 4.67475 0
M  V30 20478 H 1898.95 3.51076 5.81311 0
M  V30 20479 H 1896.9 1.35024 6.41954 0
M  V30 20480 H 1896.82 3.00177 6.93851 0
M  V30 20481 H 1898.09 1.97614 7.54035 0
M  V30 20482 N 1902.31 -1.14411 1.08387 0
M  V30 20483 C 1903.26 -2.21558 0.708165 0
M  V30 20484 C 1904.26 -1.66969 -0.285982 0
M  V30 20485 O 1905.46 -1.79386 -0.14857 0
M  V30 20486 H 1901.84 -0.721799 0.210974 0
M  V30 20487 H 1903.81 -2.50518 1.62122 0
M  V30 20488 C 1902.56 -3.47444 0.13337 0
M  V30 20489 H 1901.88 -3.89779 0.889513 0
M  V30 20490 H 1903.32 -4.23901 -0.0917154 0
M  V30 20491 C 1901.78 -3.1743 -1.1287 0
M  V30 20492 O 1902.31 -3.35205 -2.2136 0
M  V30 20493 N 1900.52 -2.71391 -1.03901 0
M  V30 20494 H 1900.06 -2.57127 -0.156094 0
M  V30 20495 H 1900.02 -2.51684 -1.88422 0
M  V30 20496 N 1903.79 -0.869509 -1.31443 0
M  V30 20497 C 1905.04 -0.480925 -1.97015 0
M  V30 20498 C 1905.37 0.964227 -1.68571 0
M  V30 20499 O 1904.65 1.67893 -0.981953 0
M  V30 20500 C 1904.93 -0.738064 -3.52455 0
M  V30 20501 C 1904.78 -2.23272 -3.90474 0
M  V30 20502 C 1906.1 -0.204237 -4.39626 0
M  V30 20503 H 1903.22 -0.176206 -0.715626 0
M  V30 20504 H 1905.86 -1.09066 -1.55578 0
M  V30 20505 H 1904.01 -0.21909 -3.87882 0
M  V30 20506 H 1905.68 -2.81891 -3.65151 0
M  V30 20507 H 1903.93 -2.70546 -3.39098 0
M  V30 20508 H 1904.6 -2.36328 -4.98852 0
M  V30 20509 H 1907.07 -0.648228 -4.1102 0
M  V30 20510 H 1905.95 -0.413608 -5.47339 0
M  V30 20511 H 1906.21 0.893807 -4.32971 0
M  V30 20512 N 1905.27 1.44508 -0.628902 0
M  V30 20513 C 1906.52 2.02066 -0.132502 0
M  V30 20514 C 1906.85 1.49446 1.24483 0
M  V30 20515 O 1906.1 0.667881 1.83951 0
M  V30 20516 C 1906.4 3.57339 -0.0660437 0
M  V30 20517 C 1906.07 4.29203 -1.38186 0
M  V30 20518 C 1904.73 4.48552 -1.74225 0
M  V30 20519 C 1907.08 4.70108 -2.25051 0
M  V30 20520 C 1904.41 5.06066 -2.96839 0
M  V30 20521 C 1906.76 5.2898 -3.46934 0
M  V30 20522 C 1905.42 5.46549 -3.83198 0
M  V30 20523 H 1904.69 0.739412 -0.048486 0
M  V30 20524 H 1907.34 1.73302 -0.814773 0
M  V30 20525 H 1905.65 3.85504 0.699588 0
M  V30 20526 H 1907.34 3.99602 0.334526 0
M  V30 20527 H 1903.93 4.14471 -1.09141 0
M  V30 20528 H 1908.12 4.54874 -1.98503 0
M  V30 20529 H 1903.37 5.17856 -3.25016 0
M  V30 20530 H 1907.55 5.59626 -4.14478 0
M  V30 20531 H 1905.17 5.90881 -4.78292 0
M  V30 20532 N 1906.75 0.369315 1.53212 0
M  V30 20533 C 1907.7 -0.490481 2.2737 0
M  V30 20534 C 1908.69 -1.08021 1.30491 0
M  V30 20535 O 1909.9 -1.02298 1.48105 0
M  V30 20536 H 1906.27 -0.176899 0.730897 0
M  V30 20537 H 1908.24 0.156696 2.97988 0
M  V30 20538 C 1906.99 -1.61628 3.0785 0
M  V30 20539 H 1906.32 -1.1718 3.82242 0
M  V30 20540 H 1907.76 -2.19252 3.62911 0
M  V30 20541 C 1906.21 -2.56077 2.18921 0
M  V30 20542 O 1906.74 -3.58988 1.80251 0
M  V30 20543 N 1904.95 -2.25352 1.83479 0
M  V30 20544 H 1904.5 -1.41701 2.15124 0
M  V30 20545 H 1904.46 -2.888 1.24264 0
M  V30 20546 N 1908.23 -1.57291 0.0985816 0
M  V30 20547 C 1909.48 -1.93654 -0.564011 0
M  V30 20548 C 1909.79 -0.982723 -1.69121 0
M  V30 20549 O 1911 -1.2402 -2.41519 0
M  V30 20550 C 1909.45 -3.441 -1.05466 0
M  V30 20551 C 1909.06 -4.47979 0.0429743 0
M  V30 20552 C 1910.8 -3.89418 -1.68979 0
M  V30 20553 C 1908.71 -5.89583 -0.463226 0
M  V30 20554 H 1907.64 -0.722858 -0.214457 0
M  V30 20555 H 1910.29 -1.82662 0.175145 0
M  V30 20556 H 1908.67 -3.50256 -1.84761 0
M  V30 20557 H 1909.85 -4.53471 0.818587 0
M  V30 20558 H 1908.16 -4.12291 0.583501 0
M  V30 20559 H 1910.76 -4.92615 -2.0793 0
M  V30 20560 H 1911.1 -3.28258 -2.56032 0
M  V30 20561 H 1911.64 -3.85978 -0.962602 0
M  V30 20562 H 1908.37 -6.54451 0.370767 0
M  V30 20563 H 1907.89 -5.87555 -1.20577 0
M  V30 20564 H 1909.57 -6.40266 -0.931072 0
M  V30 20565 N 1909.71 0.175127 -1.56624 0
M  V30 20566 C 1910.64 1.21918 -1.99144 0
M  V30 20567 C 1911.62 1.4638 -0.866428 0
M  V30 20568 O 1912.8 1.57779 -1.13223 0
M  V30 20569 C 1909.93 2.55897 -2.34807 0
M  V30 20570 C 1908.89 2.46011 -3.50232 0
M  V30 20571 C 1908.21 3.84445 -3.71626 0
M  V30 20572 C 1909.51 1.96808 -4.83801 0
M  V30 20573 H 1911.21 0.86575 -2.8661 0
M  V30 20574 H 1908.75 0.415014 -1.3789 0
M  V30 20575 H 1910.7 3.29136 -2.63149 0
M  V30 20576 H 1909.43 2.9302 -1.44245 0
M  V30 20577 H 1908.09 1.75227 -3.22011 0
M  V30 20578 H 1907.74 4.18955 -2.78362 0
M  V30 20579 H 1907.44 3.787 -4.49288 0
M  V30 20580 H 1908.96 4.59276 -4.02366 0
M  V30 20581 H 1910.37 2.59819 -5.11045 0
M  V30 20582 H 1908.77 2.0202 -5.65073 0
M  V30 20583 H 1909.84 0.922209 -4.7605 0
M  V30 20584 N 1911.18 1.5123 0.44355 0
M  V30 20585 C 1912.43 1.62825 1.19041 0
M  V30 20586 C 1912.75 0.347298 1.92492 0
M  V30 20587 O 1913.95 0.342537 2.69331 0
M  V30 20588 C 1912.41 2.87532 2.16456 0
M  V30 20589 C 1912.02 4.22608 1.48682 0
M  V30 20590 C 1913.76 3.08483 2.91614 0
M  V30 20591 C 1911.67 5.38472 2.44544 0
M  V30 20592 H 1910.6 0.606444 0.448041 0
M  V30 20593 H 1913.25 1.77691 0.458065 0
M  V30 20594 H 1911.63 2.66287 2.931 0
M  V30 20595 H 1912.8 4.54212 0.776389 0
M  V30 20596 H 1911.12 4.07485 0.857007 0
M  V30 20597 H 1913.72 3.92219 3.63413 0
M  V30 20598 H 1914.06 2.2131 3.52601 0
M  V30 20599 H 1914.59 3.30039 2.22078 0
M  V30 20600 H 1911.33 6.27886 1.88255 0
M  V30 20601 H 1910.85 5.11252 3.13658 0
M  V30 20602 H 1912.53 5.70169 3.05804 0
M  V30 20603 N 1912.66 -0.698586 1.41271 0
M  V30 20604 C 1913.91 -1.46077 1.40674 0
M  V30 20605 C 1914.24 -1.94194 0.0146774 0
M  V30 20606 O 1913.52 -1.69325 -0.957036 0
M  V30 20607 C 1913.8 -2.67481 2.41093 0
M  V30 20608 C 1913.65 -2.25149 3.89394 0
M  V30 20609 C 1914.97 -3.69673 2.38809 0
M  V30 20610 H 1912.09 -0.529839 0.512288 0
M  V30 20611 H 1914.73 -0.795918 1.72526 0
M  V30 20612 H 1912.88 -3.24206 2.14062 0
M  V30 20613 H 1914.55 -1.73775 4.27317 0
M  V30 20614 H 1912.8 -1.56965 4.04406 0
M  V30 20615 H 1913.47 -3.12247 4.55199 0
M  V30 20616 H 1915.94 -3.22615 2.6279 0
M  V30 20617 H 1914.82 -4.52232 3.1109 0
M  V30 20618 H 1915.08 -4.1916 1.40562 0
M  V30 20619 N 1914.14 -1.27049 -0.93254 0
M  V30 20620 C 1915.37 -1.15735 -1.7114 0
M  V30 20621 C 1915.78 0.289069 -1.86979 0
M  V30 20622 O 1915.12 1.20906 -1.38302 0
M  V30 20623 C 1915.18 -1.76319 -3.13292 0
M  V30 20624 C 1914.85 -3.25471 -3.20808 0
M  V30 20625 C 1915.84 -4.22172 -3.03425 0
M  V30 20626 C 1913.53 -3.66092 -3.43921 0
M  V30 20627 C 1915.52 -5.57471 -3.09038 0
M  V30 20628 C 1913.21 -5.01522 -3.49168 0
M  V30 20629 C 1914.21 -5.97022 -3.31744 0
M  V30 20630 O 1913.9 -7.29985 -3.36716 0
M  V30 20631 H 1913.63 -0.403495 -0.542372 0
M  V30 20632 H 1916.18 -1.68334 -1.17698 0
M  V30 20633 H 1914.41 -1.18192 -3.68195 0
M  V30 20634 H 1916.1 -1.59788 -3.73125 0
M  V30 20635 H 1916.87 -3.92127 -2.85415 0
M  V30 20636 H 1912.75 -2.92238 -3.56536 0
M  V30 20637 H 1916.29 -6.3199 -2.95356 0
M  V30 20638 H 1912.19 -5.31225 -3.66702 0
M  V30 20639 H 1912.95 -7.3837 -3.53203 0
M  V30 20640 N 1915.62 1.13835 -1.08993 0
M  V30 20641 C 1916.56 2.19107 -0.725298 0
M  V30 20642 C 1917.53 1.63524 0.291368 0
M  V30 20643 O 1918.72 1.90005 0.174014 0
M  V30 20644 C 1915.86 3.44786 -0.147212 0
M  V30 20645 C 1914.97 4.14492 -1.21738 0
M  V30 20646 C 1914.11 5.27772 -0.602519 0
M  V30 20647 C 1913.15 5.89321 -1.65431 0
M  V30 20648 N 1912.28 6.9404 -1.0608 0
M  V30 20649 H 1917.12 2.49646 -1.6273 0
M  V30 20650 H 1914.66 1.22585 -0.813108 0
M  V30 20651 H 1916.62 4.16692 0.205719 0
M  V30 20652 H 1915.25 3.14712 0.718077 0
M  V30 20653 H 1914.3 3.40914 -1.68766 0
M  V30 20654 H 1915.61 4.56325 -2.01417 0
M  V30 20655 H 1914.77 6.06376 -0.198177 0
M  V30 20656 H 1913.51 4.87177 0.225868 0
M  V30 20657 H 1912.51 5.09415 -2.06824 0
M  V30 20658 H 1913.74 6.3199 -2.48528 0
M  V30 20659 H 1911.68 6.5551 -0.253616 0
M  V30 20660 H 1911.6 7.34391 -1.79461 0
M  V30 20661 H 1912.87 7.76506 -0.682517 0
M  V30 20662 N 1917.1 0.876467 1.3098 0
M  V30 20663 C 1918.03 0.352925 2.30817 0
M  V30 20664 C 1919.01 -0.559675 1.60629 0
M  V30 20665 O 1920.19 -0.475326 1.88293 0
M  V30 20666 C 1917.32 -0.440827 3.44491 0
M  V30 20667 C 1916.28 0.379253 4.26316 0
M  V30 20668 C 1915.6 -0.540582 5.3196 0
M  V30 20669 C 1916.9 1.61682 4.96645 0
M  V30 20670 H 1918.6 1.18719 2.74857 0
M  V30 20671 H 1916.14 0.572316 1.32138 0
M  V30 20672 H 1918.09 -0.817661 4.13391 0
M  V30 20673 H 1916.82 -1.30866 2.99235 0
M  V30 20674 H 1915.48 0.738117 3.59092 0
M  V30 20675 H 1915.13 -1.40588 4.82953 0
M  V30 20676 H 1914.83 0.00427133 5.876 0
M  V30 20677 H 1916.35 -0.914118 6.03719 0
M  V30 20678 H 1917.76 1.31105 5.58108 0
M  V30 20679 H 1916.16 2.10123 5.62111 0
M  V30 20680 H 1917.23 2.36602 4.23258 0
M  V30 20681 N 1918.57 -1.44173 0.636557 0
M  V30 20682 C 1919.82 -2.01993 0.143216 0
M  V30 20683 C 1920.15 -1.50104 -1.23689 0
M  V30 20684 O 1919.4 -0.677627 -1.83594 0
M  V30 20685 C 1919.7 -3.57299 0.0849933 0
M  V30 20686 C 1919.37 -4.28464 1.40461 0
M  V30 20687 C 1918.03 -4.47622 1.76601 0
M  V30 20688 C 1920.38 -4.68908 2.27541 0
M  V30 20689 C 1917.71 -5.04485 2.99519 0
M  V30 20690 C 1920.06 -5.27133 3.49734 0
M  V30 20691 C 1918.73 -5.44509 3.86091 0
M  V30 20692 H 1918 -0.739144 0.0524066 0
M  V30 20693 H 1920.64 -1.72868 0.823952 0
M  V30 20694 H 1918.95 -3.85869 -0.679134 0
M  V30 20695 H 1920.65 -3.99774 -0.31333 0
M  V30 20696 H 1917.24 -4.13886 1.11337 0
M  V30 20697 H 1921.42 -4.53815 2.00913 0
M  V30 20698 H 1916.68 -5.16125 3.27758 0
M  V30 20699 H 1920.85 -5.5742 4.1744 0
M  V30 20700 H 1918.48 -5.88336 4.81419 0
M  V30 20701 N 1920.05 -0.377435 -1.53014 0
M  V30 20702 C 1920.98 0.507261 -2.22491 0
M  V30 20703 C 1921.96 1.07358 -1.22119 0
M  V30 20704 O 1923.15 1.12747 -1.51064 0
M  V30 20705 C 1920.27 1.70101 -2.92888 0
M  V30 20706 C 1919.32 1.26105 -4.07431 0
M  V30 20707 S 1920.15 0.252451 -5.34905 0
M  V30 20708 C 1921.31 1.45225 -6.08819 0
M  V30 20709 H 1921.54 -0.0827563 -2.97185 0
M  V30 20710 H 1919.07 -0.161576 -1.53552 0
M  V30 20711 H 1921.03 2.38569 -3.34059 0
M  V30 20712 H 1919.69 2.2623 -2.17896 0
M  V30 20713 H 1918.89 2.15202 -4.55745 0
M  V30 20714 H 1918.49 0.655438 -3.68212 0
M  V30 20715 H 1920.78 2.38133 -6.3427 0
M  V30 20716 H 1921.72 1.01026 -7.00856 0
M  V30 20717 H 1922.13 1.66368 -5.39427 0
M  V30 20718 N 1921.53 1.57237 -0.106922 0
M  V30 20719 C 1922.78 1.94775 0.553982 0
M  V30 20720 C 1923.11 0.989452 1.67452 0
M  V30 20721 O 1922.36 0.0111396 1.95697 0
M  V30 20722 C 1922.66 3.38792 1.13817 0
M  V30 20723 C 1922.33 4.50682 0.140226 0
M  V30 20724 C 1920.99 4.81013 -0.134218 0
M  V30 20725 C 1923.34 5.1839 -0.540532 0
M  V30 20726 C 1920.67 5.76374 -1.09591 0
M  V30 20727 C 1923.02 6.14783 -1.49077 0
M  V30 20728 C 1921.68 6.43513 -1.77333 0
M  V30 20729 H 1920.95 0.712732 0.202716 0
M  V30 20730 H 1923.6 1.90602 -0.185265 0
M  V30 20731 H 1921.91 3.39601 1.95393 0
M  V30 20732 H 1923.6 3.65144 1.65744 0
M  V30 20733 H 1920.19 4.27049 0.364316 0
M  V30 20734 H 1924.38 4.95123 -0.34166 0
M  V30 20735 H 1919.63 5.96943 -1.3217 0
M  V30 20736 H 1923.81 6.66338 -2.02402 0
M  V30 20737 H 1921.43 7.17214 -2.52008 0
M  V30 20738 N 1923.01 -0.166818 1.56715 0
M  V30 20739 C 1924.26 -0.881043 1.8144 0
M  V30 20740 C 1924.57 -1.83216 0.684925 0
M  V30 20741 O 1925.78 -2.58908 0.817234 0
M  V30 20742 C 1924.23 -1.61724 3.21517 0
M  V30 20743 C 1923.84 -0.709534 4.42346 0
M  V30 20744 C 1925.58 -2.31943 3.55532 0
M  V30 20745 C 1923.49 -1.44622 5.73444 0
M  V30 20746 H 1922.42 -0.332741 0.676609 0
M  V30 20747 H 1925.07 -0.133924 1.83011 0
M  V30 20748 H 1923.45 -2.40928 3.14277 0
M  V30 20749 H 1924.63 0.0458591 4.60777 0
M  V30 20750 H 1922.94 -0.116776 4.16236 0
M  V30 20751 H 1925.54 -2.87662 4.50727 0
M  V30 20752 H 1925.88 -3.07495 2.80629 0
M  V30 20753 H 1926.42 -1.59678 3.64346 0
M  V30 20754 H 1923.16 -0.732937 6.51389 0
M  V30 20755 H 1922.68 -2.17483 5.58982 0
M  V30 20756 H 1924.35 -1.9925 6.15555 0
M  V30 20757 N 1924.49 -1.51463 -0.435524 0
M  V30 20758 C 1925.73 -1.64221 -1.18481 0
M  V30 20759 C 1926.06 -0.359315 -1.91152 0
M  V30 20760 O 1925.32 0.656683 -1.84353 0
M  V30 20761 C 1925.62 -2.79695 -2.22498 0
M  V30 20762 C 1925.28 -4.18903 -1.66826 0
M  V30 20763 C 1923.94 -4.56773 -1.51366 0
M  V30 20764 C 1926.3 -5.05763 -1.2591 0
M  V30 20765 C 1923.62 -5.79207 -0.93467 0
M  V30 20766 C 1925.98 -6.28777 -0.694404 0
M  V30 20767 C 1924.64 -6.65419 -0.52672 0
M  V30 20768 H 1923.91 -0.600927 -0.433552 0
M  V30 20769 H 1926.56 -1.855 -0.475618 0
M  V30 20770 H 1924.86 -2.52646 -2.99462 0
M  V30 20771 H 1926.56 -2.86766 -2.80297 0
M  V30 20772 H 1923.15 -3.89046 -1.79835 0
M  V30 20773 H 1927.33 -4.7711 -1.36674 0
M  V30 20774 H 1922.59 -6.06242 -0.792531 0
M  V30 20775 H 1926.76 -6.95422 -0.36886 0
M  V30 20776 H 1924.39 -7.60162 -0.0759538 0
M  V30 20777 N 1925.96 0.691085 -1.4164 0
M  V30 20778 C 1926.93 1.78671 -1.43559 0
M  V30 20779 C 1927.93 1.5747 -0.325543 0
M  V30 20780 O 1929.12 1.64061 -0.585631 0
M  V30 20781 C 1926.25 3.17102 -1.25135 0
M  V30 20782 H 1927.44 1.78361 -2.41096 0
M  V30 20783 H 1925 0.899148 -1.27848 0
M  V30 20784 H 1925.73 3.23049 -0.284567 0
M  V30 20785 H 1925.52 3.33893 -2.05567 0
M  V30 20786 H 1927.01 3.97071 -1.29324 0
M  V30 20787 N 1927.44 1.27542 0.925789 0
M  V30 20788 C 1928.69 1.14161 1.67616 0
M  V30 20789 C 1929.02 -0.311471 1.91686 0
M  V30 20790 O 1928.3 -1.22766 1.5086 0
M  V30 20791 C 1928.58 1.92778 3.04152 0
M  V30 20792 C 1928.43 3.46081 2.87312 0
M  V30 20793 C 1929.75 1.73374 4.04511 0
M  V30 20794 H 1926.87 0.416091 0.608307 0
M  V30 20795 H 1929.51 1.56719 1.0742 0
M  V30 20796 H 1927.66 1.5661 3.55536 0
M  V30 20797 H 1929.33 3.92089 2.43031 0
M  V30 20798 H 1927.58 3.72324 2.22615 0
M  V30 20799 H 1928.25 3.96333 3.84219 0
M  V30 20800 H 1930.72 2.04914 3.62146 0
M  V30 20801 H 1929.6 2.30773 4.98031 0
M  V30 20802 H 1929.86 0.682154 4.36806 0
M  V30 20803 N 1928.92 -1.13255 1.09595 0
M  V30 20804 C 1930.17 -1.83925 0.827926 0
M  V30 20805 C 1930.48 -1.84531 -0.64866 0
M  V30 20806 O 1931.69 -2.5111 -1.03228 0
M  V30 20807 C 1930.14 -3.30219 1.43121 0
M  V30 20808 C 1929.75 -3.37996 2.94046 0
M  V30 20809 C 1931.5 -4.05918 1.24221 0
M  V30 20810 C 1929.4 -4.78572 3.47451 0
M  V30 20811 H 1928.33 -0.689091 0.306056 0
M  V30 20812 H 1930.98 -1.27586 1.31887 0
M  V30 20813 H 1929.37 -3.86371 0.867952 0
M  V30 20814 H 1930.54 -2.91829 3.56612 0
M  V30 20815 H 1928.86 -2.75762 3.12 0
M  V30 20816 H 1931.45 -5.09704 1.61573 0
M  V30 20817 H 1931.8 -4.15898 0.183004 0
M  V30 20818 H 1932.33 -3.561 1.77306 0
M  V30 20819 H 1929.07 -4.73785 4.52999 0
M  V30 20820 H 1928.59 -5.25227 2.89649 0
M  V30 20821 H 1930.27 -5.47495 3.44759 0
M  V30 20822 N 1930.4 -0.883401 -1.30514 0
M  V30 20823 C 1931.36 -0.353908 -2.26451 0
M  V30 20824 C 1932.36 0.502723 -1.52739 0
M  V30 20825 O 1933.55 0.310104 -1.71418 0
M  V30 20826 C 1930.68 0.495846 -3.37275 0
M  V30 20827 H 1931.88 -1.20101 -2.74801 0
M  V30 20828 H 1929.43 -0.660124 -1.41676 0
M  V30 20829 H 1930.16 1.3636 -2.94239 0
M  V30 20830 H 1929.95 -0.117731 -3.91923 0
M  V30 20831 H 1931.44 0.858149 -4.08688 0
M  V30 20832 N 1931.88 1.43833 -0.644194 0
M  V30 20833 C 1933.12 2.02213 -0.154155 0
M  V30 20834 C 1933.46 1.50648 1.22551 0
M  V30 20835 O 1932.73 0.69587 1.81626 0
M  V30 20836 C 1933.01 3.59766 -0.155107 0
M  V30 20837 C 1932.87 4.21583 -1.56804 0
M  V30 20838 C 1934.19 4.37096 0.513365 0
M  V30 20839 H 1931.3 0.734754 -0.0574913 0
M  V30 20840 H 1933.95 1.71243 -0.823159 0
M  V30 20841 H 1932.1 3.86282 0.414568 0
M  V30 20842 H 1933.77 4.0613 -2.18761 0
M  V30 20843 H 1932.01 3.78578 -2.11804 0
M  V30 20844 H 1932.68 5.30642 -1.52064 0
M  V30 20845 H 1935.16 4.1609 0.0287668 0
M  V30 20846 H 1934.03 5.4678 0.481936 0
M  V30 20847 H 1934.3 4.12673 1.58597 0
M  V30 20848 N 1933.35 0.385544 1.52811 0
M  V30 20849 C 1934.29 -0.486433 2.23979 0
M  V30 20850 C 1935.3 -1.02981 1.2609 0
M  V30 20851 O 1936.49 -0.932779 1.52189 0
M  V30 20852 C 1933.59 -1.68645 2.93959 0
M  V30 20853 C 1932.76 -1.2711 4.18523 0
M  V30 20854 C 1931.82 -2.33538 4.71536 0
M  V30 20855 O 1930.85 -1.95101 5.34719 0
M  V30 20856 N 1932.05 -3.65401 4.51068 0
M  V30 20857 H 1934.81 0.12327 2.99446 0
M  V30 20858 H 1932.37 0.211712 1.6051 0
M  V30 20859 H 1934.37 -2.3936 3.26326 0
M  V30 20860 H 1932.94 -2.20257 2.21823 0
M  V30 20861 H 1932.16 -0.392983 3.92236 0
M  V30 20862 H 1933.44 -0.970192 4.99464 0
M  V30 20863 H 1932.84 -3.99393 4.00626 0
M  V30 20864 H 1931.4 -4.32162 4.87934 0
M  V30 20865 N 1934.83 -1.57178 0.115259 0
M  V30 20866 C 1935.76 -2.18134 -0.833042 0
M  V30 20867 C 1936.74 -1.12033 -1.27995 0
M  V30 20868 O 1937.93 -1.40254 -1.34323 0
M  V30 20869 C 1935.06 -2.77778 -2.08463 0
M  V30 20870 C 1934.01 -3.89429 -1.77565 0
M  V30 20871 C 1933.34 -4.35863 -3.09722 0
M  V30 20872 C 1934.64 -5.11701 -1.04687 0
M  V30 20873 H 1936.33 -2.9763 -0.325107 0
M  V30 20874 H 1933.88 -1.43164 -0.154933 0
M  V30 20875 H 1935.83 -3.19079 -2.75258 0
M  V30 20876 H 1934.56 -1.95566 -2.61575 0
M  V30 20877 H 1933.21 -3.48698 -1.13161 0
M  V30 20878 H 1932.86 -3.50515 -3.6076 0
M  V30 20879 H 1932.56 -5.11152 -2.89823 0
M  V30 20880 H 1934.09 -4.79812 -3.77641 0
M  V30 20881 H 1935.5 -5.50045 -1.61628 0
M  V30 20882 H 1933.9 -5.92549 -0.948964 0
M  V30 20883 H 1934.97 -4.84889 -0.032977 0
M  V30 20884 N 1936.31 0.158505 -1.56801 0
M  V30 20885 C 1937.56 0.873038 -1.82714 0
M  V30 20886 C 1937.89 1.81683 -0.694361 0
M  V30 20887 O 1937.14 1.93108 0.31748 0
M  V30 20888 C 1937.44 1.69067 -3.14883 0
M  V30 20889 C 1937.11 0.894671 -4.41935 0
M  V30 20890 C 1935.77 0.675029 -4.76442 0
M  V30 20891 C 1938.12 0.337213 -5.20108 0
M  V30 20892 C 1935.45 -0.112965 -5.86591 0
M  V30 20893 C 1937.8 -0.43776 -6.31084 0
M  V30 20894 C 1936.46 -0.668085 -6.64148 0
M  V30 20895 H 1935.73 0.319467 -0.668597 0
M  V30 20896 H 1938.38 0.137273 -1.91007 0
M  V30 20897 H 1936.69 2.4962 -3.01988 0
M  V30 20898 H 1938.38 2.24679 -3.32145 0
M  V30 20899 H 1934.97 1.07592 -4.14876 0
M  V30 20900 H 1939.16 0.494212 -4.93833 0
M  V30 20901 H 1934.41 -0.301026 -6.10658 0
M  V30 20902 H 1938.59 -0.876909 -6.90857 0
M  V30 20903 H 1936.21 -1.28055 -7.49337 0
M  V30 20904 N 1937.79 1.51692 0.427485 0
M  V30 20905 C 1938.74 1.73716 1.51958 0
M  V30 20906 C 1939.71 0.579073 1.55679 0
M  V30 20907 O 1940.89 0.814605 1.72536 0
M  V30 20908 C 1938.03 1.87709 2.89585 0
M  V30 20909 C 1937.14 3.15297 2.95317 0
M  V30 20910 C 1936.28 3.19827 4.24128 0
M  V30 20911 C 1935.32 4.4169 4.23764 0
M  V30 20912 N 1934.46 4.43715 5.44116 0
M  V30 20913 H 1939.3 2.66933 1.3248 0
M  V30 20914 H 1936.83 1.32283 0.643393 0
M  V30 20915 H 1938.79 1.93804 3.69454 0
M  V30 20916 H 1937.42 0.978912 3.07599 0
M  V30 20917 H 1936.47 3.18464 2.08051 0
M  V30 20918 H 1937.78 4.05182 2.90911 0
M  V30 20919 H 1936.94 3.24892 5.12377 0
M  V30 20920 H 1935.68 2.27848 4.31204 0
M  V30 20921 H 1934.68 4.36791 3.33907 0
M  V30 20922 H 1935.91 5.34944 4.18343 0
M  V30 20923 H 1933.85 3.5461 5.51894 0
M  V30 20924 H 1933.77 5.27421 5.4163 0
M  V30 20925 H 1935.04 4.52986 6.34369 0
M  V30 20926 N 1939.27 -0.683564 1.42004 0
M  V30 20927 C 1940.52 -1.44078 1.41725 0
M  V30 20928 C 1940.84 -1.94975 0.0315193 0
M  V30 20929 O 1940.11 -1.72494 -0.928579 0
M  V30 20930 H 1938.69 -0.534631 0.521707 0
M  V30 20931 H 1941.35 -0.808284 1.77349 0
M  V30 20932 H 1940.44 -2.29809 2.11174 0
M  V30 20933 N 1940.75 -1.28031 -0.919012 0
M  V30 20934 C 1941.69 -1.11505 -2.02077 0
M  V30 20935 C 1942.66 -0.0136546 -1.66094 0
M  V30 20936 O 1943.85 -0.177608 -1.89972 0
M  V30 20937 C 1940.99 -0.777409 -3.3623 0
M  V30 20938 C 1940.1 -1.95732 -3.85114 0
M  V30 20939 C 1939.24 -1.56077 -5.07753 0
M  V30 20940 C 1938.27 -2.70764 -5.48956 0
M  V30 20941 N 1937.41 -2.31638 -6.62788 0
M  V30 20942 H 1942.25 -2.05778 -2.15545 0
M  V30 20943 H 1939.79 -1.02425 -1.05582 0
M  V30 20944 H 1941.75 -0.562424 -4.13392 0
M  V30 20945 H 1940.38 0.128373 -3.22545 0
M  V30 20946 H 1939.43 -2.28459 -3.04156 0
M  V30 20947 H 1940.74 -2.81735 -4.11615 0
M  V30 20948 H 1939.89 -1.30754 -5.92443 0
M  V30 20949 H 1938.63 -0.671958 -4.83049 0
M  V30 20950 H 1937.64 -2.96792 -4.62812 0
M  V30 20951 H 1938.86 -3.6028 -5.75652 0
M  V30 20952 H 1936.81 -1.4522 -6.39724 0
M  V30 20953 H 1936.73 -3.11178 -6.88988 0
M  V30 20954 H 1937.99 -2.09585 -7.50796 0
M  V30 20955 N 1942.22 1.12672 -1.10194 0
M  V30 20956 C 1943.47 1.84127 -0.842833 0
M  V30 20957 C 1943.8 1.8396 0.631594 0
M  V30 20958 O 1943.05 1.27871 1.48147 0
M  V30 20959 C 1943.35 3.31602 -1.33322 0
M  V30 20960 C 1943.02 3.51943 -2.81864 0
M  V30 20961 C 1941.68 3.57202 -3.22428 0
M  V30 20962 C 1944.03 3.59262 -3.77598 0
M  V30 20963 C 1941.36 3.67323 -4.57483 0
M  V30 20964 C 1943.71 3.70911 -5.12452 0
M  V30 20965 C 1942.38 3.74427 -5.52595 0
M  V30 20966 H 1941.65 0.673767 -0.308414 0
M  V30 20967 H 1944.29 1.32968 -1.3781 0
M  V30 20968 H 1942.6 3.85166 -0.717918 0
M  V30 20969 H 1944.3 3.85353 -1.10925 0
M  V30 20970 H 1940.89 3.4851 -2.49477 0
M  V30 20971 H 1945.07 3.54471 -3.47367 0
M  V30 20972 H 1940.33 3.68315 -4.88011 0
M  V30 20973 H 1944.5 3.75518 -5.8648 0
M  V30 20974 H 1942.13 3.82021 -6.5724 0
M  V30 20975 N 1943.7 0.89031 1.30043 0
M  V30 20976 C 1944.95 0.51145 1.95935 0
M  V30 20977 C 1945.28 -0.940438 1.70253 0
M  V30 20978 O 1944.53 -1.68041 1.00302 0
M  V30 20979 C 1944.83 0.739209 3.49672 0
M  V30 20980 C 1944.5 2.167 3.95413 0
M  V30 20981 C 1943.16 2.55743 4.07614 0
M  V30 20982 C 1945.51 3.09723 4.19191 0
M  V30 20983 C 1942.84 3.87008 4.40955 0
M  V30 20984 C 1945.19 4.40527 4.54003 0
M  V30 20985 C 1943.85 4.79455 4.64413 0
M  V30 20986 H 1943.12 0.187153 0.716976 0
M  V30 20987 H 1945.77 1.12718 1.54812 0
M  V30 20988 H 1944.08 0.0404857 3.91779 0
M  V30 20989 H 1945.77 0.425594 3.98735 0
M  V30 20990 H 1942.36 1.85396 3.86427 0
M  V30 20991 H 1946.55 2.80778 4.0924 0
M  V30 20992 H 1941.8 4.16903 4.47216 0
M  V30 20993 H 1945.98 5.1264 4.71352 0
M  V30 20994 H 1943.6 5.81206 4.90003 0
M  V30 20995 N 1945.18 -1.43489 0.651812 0
M  V30 20996 C 1946.41 -2.05882 0.172084 0
M  V30 20997 C 1946.82 -1.4893 -1.1669 0
M  V30 20998 O 1946.16 -0.614669 -1.73111 0
M  V30 20999 C 1946.22 -3.595 0.00499624 0
M  V30 21000 C 1945.89 -4.39026 1.26905 0
M  V30 21001 C 1946.88 -4.71177 2.19746 0
M  V30 21002 C 1944.57 -4.79058 1.51024 0
M  V30 21003 C 1946.56 -5.42267 3.35001 0
M  V30 21004 C 1944.25 -5.49893 2.66572 0
M  V30 21005 C 1945.25 -5.81419 3.58386 0
M  V30 21006 O 1944.94 -6.50807 4.71916 0
M  V30 21007 H 1944.67 -0.670436 0.0865532 0
M  V30 21008 H 1947.22 -1.85006 0.89229 0
M  V30 21009 H 1945.45 -3.78945 -0.770567 0
M  V30 21010 H 1947.14 -4.03596 -0.431912 0
M  V30 21011 H 1947.91 -4.4077 2.02354 0
M  V30 21012 H 1943.79 -4.53928 0.804408 0
M  V30 21013 H 1947.33 -5.66791 4.06686 0
M  V30 21014 H 1943.23 -5.79717 2.83899 0
M  V30 21015 H 1943.99 -6.69289 4.71163 0
M  V30 21016 N 1946.66 -0.393643 -1.52605 0
M  V30 21017 C 1947.9 0.186875 -2.03544 0
M  V30 21018 C 1948.26 1.43681 -1.27357 0
M  V30 21019 O 1949.46 2.09477 -1.68443 0
M  V30 21020 C 1947.73 0.444006 -3.54631 0
M  V30 21021 S 1949.29 0.994186 -4.27389 0
M  V30 21022 H 1946.11 0.0522497 -0.709078 0
M  V30 21023 H 1948.71 -0.542992 -1.87808 0
M  V30 21024 H 1947.42 -0.472739 -4.07668 0
M  V30 21025 H 1946.95 1.20218 -3.74581 0
M  V30 21026 H 1948.96 2.27617 -4.40914 0
M  V30 21027 N 1948.14 1.57115 -0.123593 0
M  V30 21028 C 1949.36 1.99705 0.540887 0
M  V30 21029 C 1949.78 1.00336 1.59932 0
M  V30 21030 O 1949.14 -0.00310477 1.825 0
M  V30 21031 C 1949.19 3.42286 1.16285 0
M  V30 21032 O 1948.91 4.37854 0.146725 0
M  V30 21033 C 1950.41 4.00032 1.91021 0
M  V30 21034 H 1947.63 0.655623 0.142827 0
M  V30 21035 H 1950.17 2.03406 -0.211285 0
M  V30 21036 H 1948.33 3.39511 1.86578 0
M  V30 21037 H 1948.74 5.21066 0.599228 0
M  V30 21038 H 1950.22 5.01865 2.29861 0
M  V30 21039 H 1950.69 3.3943 2.78719 0
M  V30 21040 H 1951.3 4.06368 1.25481 0
M  V30 21041 N 1949.61 -0.150187 1.56883 0
M  V30 21042 C 1950.89 -0.891842 1.74085 0
M  V30 21043 C 1951.27 -1.99479 0.690751 0
M  V30 21044 O 1950.62 -2.26641 -0.290877 0
M  V30 21045 C 1950.83 -1.43722 3.18033 0
M  V30 21046 C 1952.18 -1.90188 3.79623 0
M  V30 21047 O 1953.2 -1.53471 3.21442 0
M  V30 21048 O 1952.06 -2.57892 4.81824 0
M  V30 21049 H 1949.15 -0.421241 0.711678 0
M  V30 21050 H 1951.7 -0.136362 1.69151 0
M  V30 21051 H 1950.47 -0.644422 3.85957 0
M  V30 21052 H 1950.09 -2.2563 3.27379 0
M  V30 21053 N 1951.09 -1.51916 -0.419434 0
M  V30 21054 C 1952.32 -1.69592 -1.19387 0
M  V30 21055 C 1952.74 -0.400225 -1.83793 0
M  V30 21056 O 1952.1 0.641368 -1.69576 0
M  V30 21057 C 1952.15 -2.8256 -2.24036 0
M  V30 21058 O 1951.25 -2.4741 -3.29942 0
M  V30 21059 H 1950.59 -0.564898 -0.348978 0
M  V30 21060 H 1953.12 -1.9857 -0.493064 0
M  V30 21061 H 1953.13 -3.07171 -2.68533 0
M  V30 21062 H 1951.81 -3.76572 -1.7654 0
M  V30 21063 H 1950.39 -2.33435 -2.90796 0
M  V30 21064 N 1952.57 0.676023 -1.42365 0
M  V30 21065 C 1953.8 1.46937 -1.46371 0
M  V30 21066 C 1954.22 1.87946 -0.076099 0
M  V30 21067 O 1953.58 1.55917 0.925172 0
M  V30 21068 C 1953.63 2.69558 -2.39523 0
M  V30 21069 O 1952.73 3.67782 -1.86575 0
M  V30 21070 H 1952.07 0.441478 -0.495977 0
M  V30 21071 H 1954.6 0.829284 -1.8704 0
M  V30 21072 H 1954.61 3.17642 -2.56061 0
M  V30 21073 H 1953.29 2.39049 -3.40336 0
M  V30 21074 H 1951.86 3.26808 -1.79585 0
M  V30 21075 N 1954.05 1.28517 0.912209 0
M  V30 21076 C 1955 1.12575 2.01483 0
M  V30 21077 C 1955.97 0.0224628 1.66085 0
M  V30 21078 O 1957.15 0.18768 1.89875 0
M  V30 21079 C 1954.29 0.795229 3.35813 0
M  V30 21080 C 1953.4 1.97772 3.84071 0
M  V30 21081 C 1952.54 1.58768 5.06918 0
M  V30 21082 C 1951.58 2.73672 5.47513 0
M  V30 21083 N 1950.71 2.3515 6.6155 0
M  V30 21084 H 1955.55 2.06918 2.1445 0
M  V30 21085 H 1953.09 1.02983 1.05037 0
M  V30 21086 H 1955.05 0.584339 4.13088 0
M  V30 21087 H 1953.68 -0.111266 3.22608 0
M  V30 21088 H 1952.73 2.30069 3.0294 0
M  V30 21089 H 1954.04 2.83913 4.10115 0
M  V30 21090 H 1953.2 1.33894 5.91741 0
M  V30 21091 H 1951.94 0.697566 4.82686 0
M  V30 21092 H 1950.94 2.99242 4.61231 0
M  V30 21093 H 1952.17 3.63328 5.73733 0
M  V30 21094 H 1950.11 1.4861 6.38945 0
M  V30 21095 H 1950.03 3.14827 6.87328 0
M  V30 21096 H 1951.3 2.13564 7.49674 0
M  V30 21097 N 1955.53 -1.12086 1.1079 0
M  V30 21098 C 1956.8 -1.80039 0.764549 0
M  V30 21099 C 1957.18 -1.97387 -0.748429 0
M  V30 21100 O 1956.53 -1.55315 -1.67599 0
M  V30 21101 C 1956.74 -3.14168 1.51985 0
M  V30 21102 C 1958.09 -3.89311 1.69476 0
M  V30 21103 O 1959.11 -3.23836 1.48354 0
M  V30 21104 O 1957.97 -5.06786 2.04524 0
M  V30 21105 H 1955.07 -0.779498 0.276246 0
M  V30 21106 H 1957.61 -1.18889 1.21093 0
M  V30 21107 H 1956.38 -2.96854 2.54938 0
M  V30 21108 H 1956.01 -3.83027 1.06658 0
M  V30 21109 N 1957 -0.897194 -1.29569 0
M  V30 21110 C 1958.23 -0.53717 -1.99805 0
M  V30 21111 C 1958.65 0.877466 -1.6717 0
M  V30 21112 O 1958 1.57882 -0.915398 0
M  V30 21113 C 1958.06 -0.716902 -3.5432 0
M  V30 21114 O 1957.78 -2.07586 -3.85798 0
M  V30 21115 C 1959.28 -0.361494 -4.41824 0
M  V30 21116 H 1956.5 -0.206379 -0.638474 0
M  V30 21117 H 1959.04 -1.20585 -1.65165 0
M  V30 21118 H 1957.2 -0.095433 -3.87282 0
M  V30 21119 H 1957.61 -2.10338 -4.80477 0
M  V30 21120 H 1959.08 -0.538099 -5.49371 0
M  V30 21121 H 1959.56 0.701301 -4.33565 0
M  V30 21122 H 1960.17 -0.959799 -4.14328 0
M  V30 21123 N 1958.48 1.43142 -0.659413 0
M  V30 21124 C 1959.39 2.34582 0.0288714 0
M  V30 21125 C 1960.41 1.54232 0.805512 0
M  V30 21126 O 1961.58 1.8686 0.751347 0
M  V30 21127 C 1958.65 3.32587 0.97912 0
M  V30 21128 C 1957.71 4.2884 0.198725 0
M  V30 21129 C 1956.94 5.22163 1.10371 0
M  V30 21130 O 1957.17 5.20054 2.34308 0
M  V30 21131 O 1956.1 5.99168 0.572785 0
M  V30 21132 H 1959.93 2.94945 -0.723947 0
M  V30 21133 H 1957.51 1.43386 -0.419609 0
M  V30 21134 H 1959.39 3.92836 1.52505 0
M  V30 21135 H 1958.07 2.74719 1.71206 0
M  V30 21136 H 1956.98 3.72052 -0.390942 0
M  V30 21137 H 1958.31 4.89707 -0.494774 0
M  V30 21138 N 1959.96 0.40173 1.52394 0
M  V30 21139 C 1960.91 -0.427385 2.26808 0
M  V30 21140 C 1961.88 -1.04733 1.28919 0
M  V30 21141 O 1963.06 -1.073 1.5777 0
M  V30 21142 C 1960.2 -1.54211 3.08728 0
M  V30 21143 C 1959.32 -0.943809 4.21564 0
M  V30 21144 C 1958.45 -2.03061 4.90856 0
M  V30 21145 C 1957.49 -1.40886 5.95666 0
M  V30 21146 N 1956.63 -2.4355 6.58504 0
M  V30 21147 H 1961.47 0.21363 2.97233 0
M  V30 21148 H 1959 0.117187 1.46632 0
M  V30 21149 H 1960.96 -2.1993 3.54523 0
M  V30 21150 H 1959.59 -2.15326 2.40488 0
M  V30 21151 H 1958.64 -0.175875 3.79993 0
M  V30 21152 H 1959.96 -0.449559 4.9677 0
M  V30 21153 H 1959.11 -2.76523 5.40018 0
M  V30 21154 H 1957.85 -2.5585 4.15201 0
M  V30 21155 H 1956.85 -0.659546 5.4583 0
M  V30 21156 H 1958.08 -0.888766 6.73259 0
M  V30 21157 H 1956.02 -2.95484 5.85683 0
M  V30 21158 H 1955.94 -1.98916 7.29362 0
M  V30 21159 H 1957.21 -3.16604 7.12308 0
M  V30 21160 N 1961.44 -1.57047 0.131923 0
M  V30 21161 C 1962.35 -2.19545 -0.826862 0
M  V30 21162 C 1963.36 -1.17532 -1.28305 0
M  V30 21163 O 1964.54 -1.50052 -1.34337 0
M  V30 21164 C 1961.61 -2.79284 -2.0543 0
M  V30 21165 C 1960.67 -3.96375 -1.64879 0
M  V30 21166 C 1959.9 -4.53256 -2.81771 0
M  V30 21167 O 1960.12 -4.09022 -3.97564 0
M  V30 21168 O 1959.06 -5.43748 -2.58111 0
M  V30 21169 H 1962.88 -3.01957 -0.324926 0
M  V30 21170 H 1960.47 -1.49102 -0.0943495 0
M  V30 21171 H 1962.35 -3.17312 -2.77292 0
M  V30 21172 H 1961.02 -1.99895 -2.54605 0
M  V30 21173 H 1959.93 -3.63092 -0.900848 0
M  V30 21174 H 1961.26 -4.77238 -1.20434 0
M  V30 21175 N 1962.92 0.141865 -1.5696 0
M  V30 21176 C 1964.16 0.859765 -1.85438 0
M  V30 21177 C 1964.52 1.78114 -0.716905 0
M  V30 21178 O 1965.72 2.53888 -0.882864 0
M  V30 21179 C 1963.99 1.60949 -3.19108 0
M  V30 21180 S 1965.55 2.37211 -3.69156 0
M  V30 21181 H 1962.37 0.287408 -0.650321 0
M  V30 21182 H 1964.97 0.11945 -1.95135 0
M  V30 21183 H 1963.68 0.92418 -3.99859 0
M  V30 21184 H 1963.21 2.39062 -3.12431 0
M  V30 21185 H 1965.22 3.62503 -3.38831 0
M  V30 21186 N 1964.39 1.52136 0.411372 0
M  V30 21187 C 1965.64 1.65314 1.15561 0
M  V30 21188 C 1965.96 0.38805 1.91712 0
M  V30 21189 O 1967.16 0.399588 2.68543 0
M  V30 21190 C 1965.62 2.92059 2.10308 0
M  V30 21191 C 1965.23 4.25667 1.39684 0
M  V30 21192 C 1966.97 3.14599 2.85005 0
M  V30 21193 C 1964.88 5.43538 2.33067 0
M  V30 21194 H 1963.81 0.615812 0.435077 0
M  V30 21195 H 1966.46 1.78622 0.420271 0
M  V30 21196 H 1964.84 2.72444 2.87385 0
M  V30 21197 H 1966.01 4.55757 0.679869 0
M  V30 21198 H 1964.33 4.09212 0.77038 0
M  V30 21199 H 1966.93 3.99839 3.55011 0
M  V30 21200 H 1967.27 2.28739 3.47828 0
M  V30 21201 H 1967.8 3.34676 2.15028 0
M  V30 21202 H 1964.54 6.31738 1.74894 0
M  V30 21203 H 1964.06 5.1779 3.02744 0
M  V30 21204 H 1965.74 5.76527 2.93641 0
M  V30 21205 N 1965.87 -0.668464 1.42721 0
M  V30 21206 C 1967.12 -1.42567 1.43245 0
M  V30 21207 C 1967.44 -1.9493 0.0521972 0
M  V30 21208 O 1966.71 -1.73469 -0.910231 0
M  V30 21209 H 1965.29 -0.529068 0.527349 0
M  V30 21210 H 1967.95 -0.789428 1.78197 0
M  V30 21211 H 1967.05 -2.27556 2.13599 0
M  V30 21212 N 1967.35 -1.28999 -0.905381 0
M  V30 21213 C 1968.3 -1.13515 -2.0302 0
M  V30 21214 C 1969.29 -0.0522132 -1.6932 0
M  V30 21215 O 1970.5 -0.211599 -1.78752 0
M  V30 21216 H 1966.87 -0.350474 -0.665336 0
M  V30 21217 H 1968.85 -2.08758 -2.13219 0
M  V30 21218 C 1967.59 -0.822531 -3.37831 0
M  V30 21219 H 1966.92 -1.64783 -3.64262 0
M  V30 21220 H 1968.36 -0.754193 -4.17238 0
M  V30 21221 C 1966.82 0.474033 -3.33548 0
M  V30 21222 O 1967.35 1.50182 -3.7257 0
M  V30 21223 N 1965.55 0.477812 -2.86645 0
M  V30 21224 H 1965.1 -0.359023 -2.55086 0
M  V30 21225 H 1965.06 1.34533 -2.84162 0
M  V30 21226 N 1968.83 1.11497 -1.11383 0
M  V30 21227 C 1970.06 1.86756 -0.88351 0
M  V30 21228 C 1970.47 1.80404 0.570169 0
M  V30 21229 O 1969.81 1.18298 1.40539 0
M  V30 21230 C 1969.87 3.3647 -1.26603 0
M  V30 21231 C 1969.54 3.6659 -2.72876 0
M  V30 21232 C 1970.53 3.64121 -3.71095 0
M  V30 21233 C 1968.22 3.95614 -3.09507 0
M  V30 21234 C 1970.21 3.90253 -5.03966 0
M  V30 21235 C 1967.9 4.21404 -4.42563 0
M  V30 21236 C 1968.9 4.18712 -5.39601 0
M  V30 21237 O 1968.59 4.43855 -6.7026 0
M  V30 21238 H 1968.32 0.597446 -0.316283 0
M  V30 21239 H 1970.87 1.41938 -1.48469 0
M  V30 21240 H 1969.1 3.8189 -0.608003 0
M  V30 21241 H 1970.79 3.93092 -1.01162 0
M  V30 21242 H 1971.56 3.41749 -3.4414 0
M  V30 21243 H 1967.44 3.96846 -2.34594 0
M  V30 21244 H 1970.98 3.88067 -5.79698 0
M  V30 21245 H 1966.88 4.43252 -4.69252 0
M  V30 21246 H 1967.64 4.61425 -6.76039 0
M  V30 21247 N 1970.31 0.904053 1.29092 0
M  V30 21248 C 1971.55 0.532992 1.95671 0
M  V30 21249 C 1971.89 -0.919194 1.71069 0
M  V30 21250 O 1971.16 -1.6523 1.02612 0
M  V30 21251 C 1971.44 0.831252 3.50374 0
M  V30 21252 C 1971.3 2.33546 3.84417 0
M  V30 21253 C 1972.62 0.320724 4.3893 0
M  V30 21254 H 1969.74 0.195117 0.710703 0
M  V30 21255 H 1972.38 1.13153 1.52632 0
M  V30 21256 H 1970.53 0.321853 3.87165 0
M  V30 21257 H 1972.2 2.91473 3.57549 0
M  V30 21258 H 1970.44 2.79442 3.31805 0
M  V30 21259 H 1971.11 2.49471 4.9241 0
M  V30 21260 H 1973.59 0.756974 4.09157 0
M  V30 21261 H 1972.47 0.55858 5.4605 0
M  V30 21262 H 1972.73 -0.778699 4.35188 0
M  V30 21263 N 1971.79 -1.4279 0.666995 0
M  V30 21264 C 1973.06 -1.9526 0.11533 0
M  V30 21265 C 1973.44 -1.60776 -1.36801 0
M  V30 21266 O 1972.79 -0.899897 -2.10034 0
M  V30 21267 C 1973 -3.46967 0.376175 0
M  V30 21268 C 1974.35 -4.23619 0.28849 0
M  V30 21269 O 1975.37 -3.54853 0.30949 0
M  V30 21270 O 1974.23 -5.46041 0.223982 0
M  V30 21271 H 1971.33 -0.826998 -0.00165705 0
M  V30 21272 H 1973.87 -1.52658 0.741186 0
M  V30 21273 H 1972.64 -3.65243 1.40404 0
M  V30 21274 H 1972.27 -3.96598 -0.282074 0
M  V30 21275 N 1973.26 -0.409806 -1.52179 0
M  V30 21276 C 1974.21 0.432719 -2.23856 0
M  V30 21277 C 1975.2 1.01291 -1.25016 0
M  V30 21278 O 1976.39 0.935617 -1.5025 0
M  V30 21279 C 1973.52 1.54847 -3.06394 0
M  V30 21280 C 1972.6 0.979019 -4.12645 0
M  V30 21281 N 1973 0.136283 -5.05616 0
M  V30 21282 C 1971.29 1.24946 -4.28141 0
M  V30 21283 C 1971.99 -0.180604 -5.8142 0
M  V30 21284 N 1970.97 0.428712 -5.41907 0
M  V30 21285 H 1974.77 -0.217442 -2.93095 0
M  V30 21286 H 1972.29 -0.220268 -1.60899 0
M  V30 21287 H 1974.28 2.16466 -3.56298 0
M  V30 21288 H 1972.94 2.20125 -2.38695 0
M  V30 21289 H 1973.95 -0.228075 -5.17398 0
M  V30 21290 H 1970.63 1.90176 -3.71671 0
M  V30 21291 H 1972.02 -0.8647 -6.66313 0
M  V30 21292 N 1974.74 1.56975 -0.14025 0
M  V30 21293 C 1975.65 2.19981 0.815207 0
M  V30 21294 C 1976.67 1.18211 1.2768 0
M  V30 21295 O 1977.84 1.50762 1.33539 0
M  V30 21296 C 1974.91 2.80369 2.03946 0
M  V30 21297 C 1973.97 3.97244 1.62774 0
M  V30 21298 C 1973.2 4.54744 2.79363 0
M  V30 21299 O 1973.43 4.11124 3.9539 0
M  V30 21300 O 1972.36 5.45109 2.55224 0
M  V30 21301 H 1976.19 3.02125 0.308908 0
M  V30 21302 H 1973.77 1.4915 0.0864409 0
M  V30 21303 H 1975.65 3.18778 2.75606 0
M  V30 21304 H 1974.33 2.01243 2.53541 0
M  V30 21305 H 1973.23 3.63564 0.88158 0
M  V30 21306 H 1974.57 4.7787 1.17901 0
M  V30 21307 N 1976.22 -0.133539 1.57033 0
M  V30 21308 C 1977.17 -1.16445 1.99272 0
M  V30 21309 C 1978.14 -1.41954 0.862458 0
M  V30 21310 O 1979.32 -1.54063 1.12557 0
M  V30 21311 C 1976.46 -2.48958 2.38985 0
M  V30 21312 C 1975.57 -2.30509 3.65362 0
M  V30 21313 C 1974.71 -3.56151 3.94119 0
M  V30 21314 C 1973.75 -3.32796 5.13725 0
M  V30 21315 N 1972.89 -4.50603 5.38425 0
M  V30 21316 H 1977.73 -0.797257 2.87137 0
M  V30 21317 H 1975.26 -0.382194 1.42048 0
M  V30 21318 H 1977.22 -3.26242 2.60043 0
M  V30 21319 H 1975.85 -2.83599 1.54181 0
M  V30 21320 H 1974.9 -1.44214 3.52004 0
M  V30 21321 H 1976.21 -2.0922 4.52801 0
M  V30 21322 H 1975.37 -4.41858 4.15748 0
M  V30 21323 H 1974.11 -3.80458 3.05128 0
M  V30 21324 H 1973.11 -2.45478 4.91956 0
M  V30 21325 H 1974.34 -3.09875 6.0428 0
M  V30 21326 H 1972.28 -4.75058 4.5239 0
M  V30 21327 H 1972.2 -4.32365 6.20158 0
M  V30 21328 H 1973.47 -5.37486 5.64561 0
M  V30 21329 N 1977.7 -1.52352 -0.403298 0
M  V30 21330 C 1978.65 -1.76731 -1.51224 0
M  V30 21331 C 1979.64 -0.634655 -1.57062 0
M  V30 21332 O 1980.85 -0.816829 -1.60399 0
M  V30 21333 H 1977.22 -0.558976 -0.503041 0
M  V30 21334 H 1979.19 -2.69624 -1.2785 0
M  V30 21335 C 1977.94 -1.94029 -2.88527 0
M  V30 21336 H 1977.26 -2.80607 -2.8478 0
M  V30 21337 H 1978.7 -2.15084 -3.65397 0
M  V30 21338 C 1977.16 -0.708949 -3.29356 0
M  V30 21339 O 1977.69 0.12042 -4.01519 0
M  V30 21340 N 1975.9 -0.543167 -2.85479 0
M  V30 21341 H 1975.45 -1.21919 -2.26922 0
M  V30 21342 H 1975.4 0.279391 -3.13156 0
M  V30 21343 N 1979.18 0.660885 -1.43074 0
M  V30 21344 C 1980.12 1.77404 -1.47637 0
M  V30 21345 C 1981.09 1.62852 -0.326854 0
M  V30 21346 O 1982.28 1.83206 -0.532921 0
M  V30 21347 C 1979.42 3.15517 -1.39796 0
M  V30 21348 C 1978.53 3.41257 -2.64892 0
M  V30 21349 C 1977.67 4.69176 -2.49093 0
M  V30 21350 C 1976.7 4.87995 -3.69496 0
M  V30 21351 N 1975.84 6.07166 -3.52554 0
M  V30 21352 H 1980.68 1.72838 -2.42757 0
M  V30 21353 H 1978.22 0.843558 -1.20509 0
M  V30 21354 H 1980.18 3.9535 -1.33245 0
M  V30 21355 H 1978.81 3.19172 -0.482623 0
M  V30 21356 H 1977.86 2.55577 -2.81753 0
M  V30 21357 H 1979.17 3.51052 -3.5435 0
M  V30 21358 H 1978.32 5.57122 -2.40207 0
M  V30 21359 H 1977.06 4.61688 -1.57147 0
M  V30 21360 H 1976.07 3.98487 -3.78799 0
M  V30 21361 H 1977.29 4.97318 -4.62441 0
M  V30 21362 H 1975.24 6.00825 -2.63336 0
M  V30 21363 H 1975.16 6.17884 -4.35609 0
M  V30 21364 H 1976.42 6.97754 -3.47506 0
M  V30 21365 N 1980.65 1.29477 0.898527 0
M  V30 21366 C 1981.59 1.0903 2.00469 0
M  V30 21367 C 1982.57 0.00183835 1.626 0
M  V30 21368 O 1983.75 0.152763 1.8788 0
M  V30 21369 C 1980.88 0.660044 3.32206 0
M  V30 21370 C 1979.92 1.74739 3.89061 0
M  V30 21371 S 1980.76 3.34687 4.18025 0
M  V30 21372 C 1981.91 2.93532 5.52802 0
M  V30 21373 H 1982.14 2.0268 2.17505 0
M  V30 21374 H 1979.68 1.13637 1.04527 0
M  V30 21375 H 1981.64 0.418518 4.08361 0
M  V30 21376 H 1980.3 -0.256865 3.13048 0
M  V30 21377 H 1979.49 1.39831 4.84214 0
M  V30 21378 H 1979.09 1.9425 3.19598 0
M  V30 21379 H 1981.38 2.4065 6.3332 0
M  V30 21380 H 1982.33 3.87541 5.92636 0
M  V30 21381 H 1982.73 2.31793 5.14716 0
M  V30 21382 N 1982.13 -1.10905 1.11972 0
M  V30 21383 C 1983.04 -2.20682 0.796029 0
M  V30 21384 C 1984.06 -1.72689 -0.213158 0
M  V30 21385 O 1985.23 -2.01343 -0.047955 0
M  V30 21386 C 1982.3 -3.45797 0.250055 0
M  V30 21387 C 1981.36 -4.08549 1.31855 0
M  V30 21388 C 1980.59 -5.27692 0.798538 0
M  V30 21389 O 1980.82 -5.69202 -0.369435 0
M  V30 21390 O 1979.75 -5.81174 1.5659 0
M  V30 21391 H 1983.58 -2.50794 1.71278 0
M  V30 21392 H 1981.16 -1.19548 0.896024 0
M  V30 21393 H 1983.04 -4.21371 -0.0497791 0
M  V30 21394 H 1981.72 -3.17324 -0.639327 0
M  V30 21395 H 1980.63 -3.34682 1.67148 0
M  V30 21396 H 1981.96 -4.41215 2.18153 0
M  V30 21397 N 1983.61 -0.910886 -1.2861 0
M  V30 21398 C 1984.86 -0.543361 -1.95385 0
M  V30 21399 C 1985.19 0.910109 -1.71554 0
M  V30 21400 O 1984.46 1.64684 -1.03487 0
M  V30 21401 C 1984.75 -0.849821 -3.49929 0
M  V30 21402 C 1984.6 -2.35581 -3.83173 0
M  V30 21403 C 1985.92 -0.343997 -4.38754 0
M  V30 21404 H 1983.04 -0.198884 -0.709658 0
M  V30 21405 H 1985.68 -1.13961 -1.52029 0
M  V30 21406 H 1983.83 -0.34238 -3.86988 0
M  V30 21407 H 1985.5 -2.93365 -3.55998 0
M  V30 21408 H 1983.75 -2.81197 -3.30319 0
M  V30 21409 H 1984.42 -2.52079 -4.9108 0
M  V30 21410 H 1986.89 -0.778662 -4.08749 0
M  V30 21411 H 1985.77 -0.58753 -5.45747 0
M  V30 21412 H 1986.03 0.755609 -4.35595 0
M  V30 21413 N 1985.09 1.42434 -0.674558 0
M  V30 21414 C 1986.04 2.308 0.00392457 0
M  V30 21415 C 1987.01 1.45949 0.792972 0
M  V30 21416 O 1988.19 1.74781 0.765269 0
M  V30 21417 C 1985.33 3.31784 0.949392 0
M  V30 21418 C 1984.44 4.31725 0.154193 0
M  V30 21419 C 1983.58 5.19783 1.09539 0
M  V30 21420 C 1982.62 6.11404 0.291864 0
M  V30 21421 N 1981.75 6.92015 1.18576 0
M  V30 21422 H 1986.59 2.88266 -0.755438 0
M  V30 21423 H 1984.13 1.41992 -0.384274 0
M  V30 21424 H 1986.09 3.88861 1.51138 0
M  V30 21425 H 1984.72 2.75918 1.67539 0
M  V30 21426 H 1983.77 3.76768 -0.524416 0
M  V30 21427 H 1985.08 4.96584 -0.469669 0
M  V30 21428 H 1984.24 5.81592 1.72732 0
M  V30 21429 H 1982.98 4.551 1.75314 0
M  V30 21430 H 1981.98 5.48664 -0.353276 0
M  V30 21431 H 1983.21 6.78136 -0.361786 0
M  V30 21432 H 1981.15 6.29961 1.82991 0
M  V30 21433 H 1981.07 7.53478 0.616968 0
M  V30 21434 H 1982.34 7.5831 1.80516 0
M  V30 21435 N 1986.57 0.417871 1.51959 0
M  V30 21436 C 1987.81 -0.154746 2.01507 0
M  V30 21437 C 1988.14 -1.44898 1.30497 0
M  V30 21438 O 1987.41 -1.91043 0.433536 0
M  V30 21439 H 1985.99 -0.0601759 0.744572 0
M  V30 21440 H 1988.65 0.556118 1.86798 0
M  V30 21441 H 1987.74 -0.344616 3.10192 0
M  V30 21442 N 1988.04 -1.56898 0.148573 0
M  V30 21443 C 1989.46 -1.58241 -0.207826 0
M  V30 21444 C 1989.66 -1.16291 -1.64556 0
M  V30 21445 O 1988.72 -0.863939 -2.3726 0
M  V30 21446 C 1990.03 -3.00654 0.0523559 0
M  V30 21447 C 1991.58 -3.12998 -0.0112297 0
M  V30 21448 C 1992.05 -4.57463 0.221641 0
M  V30 21449 N 1993.54 -4.62893 0.168624 0
M  V30 21450 C 1994.28 -5.72488 0.323296 0
M  V30 21451 N 1993.77 -6.90725 0.535776 0
M  V30 21452 N 1995.57 -5.61495 0.26079 0
M  V30 21453 H 1987.72 -1.82459 1.08731 0
M  V30 21454 H 1989.98 -0.8446 0.430529 0
M  V30 21455 H 1989.69 -3.3574 1.04745 0
M  V30 21456 H 1989.56 -3.71268 -0.666346 0
M  V30 21457 H 1991.95 -2.77752 -0.996873 0
M  V30 21458 H 1992.03 -2.44868 0.739826 0
M  V30 21459 H 1991.67 -4.93413 1.20439 0
M  V30 21460 H 1991.6 -5.23722 -0.549756 0
M  V30 21461 H 1994.09 -3.77899 0.00911581 0
M  V30 21462 H 1994.41 -7.70113 0.643862 0
M  V30 21463 H 1992.75 -6.92641 0.572117 0
M  V30 21464 H 1995.94 -4.68002 0.095543 0
M  V30 21465 H 1996.12 -6.46857 0.384765 0
M  V30 21466 N 1989.52 0.125209 -1.57102 0
M  V30 21467 C 1990.43 1.17286 -2.03177 0
M  V30 21468 C 1991.45 1.4571 -0.951035 0
M  V30 21469 O 1992.62 1.56949 -1.2621 0
M  V30 21470 C 1989.69 2.4811 -2.42161 0
M  V30 21471 C 1988.75 2.2714 -3.64288 0
M  V30 21472 C 1987.98 3.51726 -4.01404 0
M  V30 21473 O 1988.21 4.58785 -3.38929 0
M  V30 21474 O 1987.14 3.43096 -4.94539 0
M  V30 21475 H 1990.97 0.811619 -2.92654 0
M  V30 21476 H 1988.55 0.335551 -1.45583 0
M  V30 21477 H 1990.43 3.252 -2.67998 0
M  V30 21478 H 1989.11 2.83721 -1.55833 0
M  V30 21479 H 1988.02 1.47929 -3.4361 0
M  V30 21480 H 1989.35 1.96435 -4.51303 0
M  V30 21481 N 1991 1.52564 0.395213 0
M  V30 21482 C 1992.25 1.68505 1.13919 0
M  V30 21483 C 1992.6 0.416721 1.87833 0
M  V30 21484 O 1991.89 -0.589378 1.8231 0
M  V30 21485 C 1992.09 2.85496 2.15004 0
M  V30 21486 C 1991.92 4.23584 1.51018 0
M  V30 21487 C 1990.69 4.889 1.27692 0
M  V30 21488 C 1992.89 5.05192 0.963599 0
M  V30 21489 N 1990.87 6.10986 0.597453 0
M  V30 21490 C 1992.24 6.18631 0.411842 0
M  V30 21491 C 1994.29 4.90427 0.859407 0
M  V30 21492 C 1993 7.1892 -0.23391 0
M  V30 21493 C 1995.02 5.90962 0.227486 0
M  V30 21494 C 1994.38 7.03702 -0.31353 0
M  V30 21495 H 1990.48 0.670134 0.403043 0
M  V30 21496 H 1993.07 1.89901 0.429595 0
M  V30 21497 H 1991.24 2.65691 2.83307 0
M  V30 21498 H 1992.97 2.90405 2.81864 0
M  V30 21499 H 1989.73 4.4751 1.55023 0
M  V30 21500 H 1990.15 6.76446 0.273942 0
M  V30 21501 H 1994.79 4.0348 1.26349 0
M  V30 21502 H 1992.51 8.05481 -0.650019 0
M  V30 21503 H 1996.1 5.81611 0.148198 0
M  V30 21504 H 1994.98 7.80162 -0.794791 0
M  V30 21505 N 1992.48 -0.653289 1.43422 0
M  V30 21506 C 1993.43 -1.76618 1.48576 0
M  V30 21507 C 1994.4 -1.62677 0.335486 0
M  V30 21508 O 1995.58 -1.82921 0.54263 0
M  V30 21509 C 1992.72 -3.14772 1.41467 0
M  V30 21510 C 1991.83 -3.39847 2.66698 0
M  V30 21511 C 1990.97 -4.67848 2.51578 0
M  V30 21512 C 1990.01 -4.86029 3.72078 0
M  V30 21513 N 1989.14 -6.05287 3.55769 0
M  V30 21514 H 1993.98 -1.71549 2.4367 0
M  V30 21515 H 1991.52 -0.837156 1.20955 0
M  V30 21516 H 1993.48 -3.94638 1.3534 0
M  V30 21517 H 1992.11 -3.18911 0.499543 0
M  V30 21518 H 1991.16 -2.54079 2.83104 0
M  V30 21519 H 1992.47 -3.49168 3.56207 0
M  V30 21520 H 1991.63 -5.55841 2.43158 0
M  V30 21521 H 1990.37 -4.60848 1.59593 0
M  V30 21522 H 1989.37 -3.96472 3.80907 0
M  V30 21523 H 1990.6 -4.94859 4.65072 0
M  V30 21524 H 1988.54 -5.9942 2.66519 0
M  V30 21525 H 1988.46 -6.15565 4.3888 0
M  V30 21526 H 1989.73 -6.95901 3.51201 0
M  V30 21527 N 1993.96 -1.29952 -0.891648 0
M  V30 21528 C 1995.37 -1.08138 -1.17381 0
M  V30 21529 C 1995.57 0.162165 -2.00846 0
M  V30 21530 O 1994.63 0.857667 -2.37488 0
M  V30 21531 C 1995.94 -2.34125 -1.88695 0
M  V30 21532 C 1997.49 -2.39524 -2.01487 0
M  V30 21533 C 1997.96 -3.65336 -2.76213 0
M  V30 21534 N 1999.46 -3.66105 -2.83762 0
M  V30 21535 C 2000.19 -4.6014 -3.42139 0
M  V30 21536 N 1999.69 -5.64513 -4.01617 0
M  V30 21537 N 2001.48 -4.47695 -3.3989 0
M  V30 21538 H 1993.63 -2.09742 -0.334958 0
M  V30 21539 H 1995.89 -0.924239 -0.210916 0
M  V30 21540 H 1995.6 -3.24839 -1.34805 0
M  V30 21541 H 1995.47 -2.42258 -2.89121 0
M  V30 21542 H 1997.86 -1.49293 -2.5455 0
M  V30 21543 H 1997.94 -2.35371 -1.0017 0
M  V30 21544 H 1997.59 -4.55922 -2.23824 0
M  V30 21545 H 1997.52 -3.66749 -3.77893 0
M  V30 21546 H 2000.01 -2.90643 -2.41526 0
M  V30 21547 H 2000.32 -6.32376 -4.44207 0
M  V30 21548 H 1998.66 -5.68313 -4.00056 0
M  V30 21549 H 2001.86 -3.65343 -2.92647 0
M  V30 21550 H 2002.03 -5.21162 -3.85089 0
M  V30 21551 N 1995.44 1.1031 -1.12559 0
M  V30 21552 C 1996.39 2.14835 -0.763553 0
M  V30 21553 C 1997.37 1.59129 0.238075 0
M  V30 21554 O 1998.56 1.76947 0.043378 0
M  V30 21555 C 1995.69 3.42586 -0.221241 0
M  V30 21556 C 1994.78 4.05222 -1.25124 0
M  V30 21557 N 1995.17 4.42543 -2.44927 0
M  V30 21558 C 1993.47 4.32301 -1.0969 0
M  V30 21559 C 1994.17 4.91767 -3.10709 0
M  V30 21560 N 1993.14 4.88655 -2.38154 0
M  V30 21561 H 1996.94 2.41484 -1.67519 0
M  V30 21562 H 1994.46 1.27445 -1.00656 0
M  V30 21563 H 1996.46 4.16862 0.0563207 0
M  V30 21564 H 1995.12 3.17396 0.684837 0
M  V30 21565 H 1996.13 4.34197 -2.82299 0
M  V30 21566 H 1992.8 4.16761 -0.248225 0
M  V30 21567 H 1994.19 5.30181 -4.12744 0
M  V30 21568 N 1996.91 0.917694 1.28125 0
M  V30 21569 C 1997.82 0.414339 2.30912 0
M  V30 21570 C 1998.84 -0.49998 1.66662 0
M  V30 21571 O 2000.02 -0.385213 1.97682 0
M  V30 21572 C 1997.08 -0.333886 3.45089 0
M  V30 21573 C 1996.14 0.614131 4.24885 0
M  V30 21574 C 1995.37 -0.0984806 5.33609 0
M  V30 21575 O 1995.6 -1.31956 5.54927 0
M  V30 21576 O 1994.53 0.568228 5.99212 0
M  V30 21577 H 1998.36 1.26755 2.75984 0
M  V30 21578 H 1995.94 0.682661 1.32891 0
M  V30 21579 H 1997.82 -0.756311 4.14557 0
M  V30 21580 H 1996.5 -1.16286 3.02091 0
M  V30 21581 H 1995.41 1.08603 3.57989 0
M  V30 21582 H 1996.74 1.41003 4.71571 0
M  V30 21583 N 1998.39 -1.42074 0.682102 0
M  V30 21584 C 1999.64 -2.01435 0.207406 0
M  V30 21585 C 1999.97 -1.53963 -1.18851 0
M  V30 21586 O 1999.22 -0.735693 -1.81345 0
M  V30 21587 C 1999.52 -3.56848 0.198622 0
M  V30 21588 C 1999.19 -4.23779 1.54021 0
M  V30 21589 C 1997.85 -4.41777 1.90752 0
M  V30 21590 C 2000.2 -4.61432 2.42343 0
M  V30 21591 C 1997.53 -4.94701 3.15417 0
M  V30 21592 C 1999.88 -5.15739 3.66328 0
M  V30 21593 C 1998.54 -5.3195 4.03219 0
M  V30 21594 H 1997.81 -0.737103 0.0758954 0
M  V30 21595 H 2000.46 -1.70159 0.878532 0
M  V30 21596 H 1998.77 -3.87834 -0.556029 0
M  V30 21597 H 2000.46 -4.00568 -0.185986 0
M  V30 21598 H 1997.05 -4.10135 1.24448 0
M  V30 21599 H 2001.24 -4.47193 2.15249 0
M  V30 21600 H 1996.49 -5.05436 3.44012 0
M  V30 21601 H 2000.67 -5.43857 4.34963 0
M  V30 21602 H 1998.29 -5.72723 4.99893 0
M  V30 21603 N 1999.87 -0.425924 -1.51735 0
M  V30 21604 C 2000.82 0.408952 -2.24302 0
M  V30 21605 C 2001.8 0.999596 -1.26083 0
M  V30 21606 O 2003 0.919629 -1.51234 0
M  V30 21607 C 2000.12 1.51589 -3.08019 0
M  V30 21608 C 1999.21 0.935197 -4.1366 0
M  V30 21609 N 1999.6 0.0826482 -5.05732 0
M  V30 21610 C 1997.9 1.20398 -4.29442 0
M  V30 21611 C 1998.6 -0.242261 -5.81195 0
M  V30 21612 N 1997.58 0.371212 -5.42331 0
M  V30 21613 H 2001.38 -0.248516 -2.92847 0
M  V30 21614 H 1998.89 -0.237322 -1.60657 0
M  V30 21615 H 2000.89 2.12675 -3.58574 0
M  V30 21616 H 1999.55 2.17581 -2.41016 0
M  V30 21617 H 2000.56 -0.282939 -5.17127 0
M  V30 21618 H 1997.24 1.86224 -3.73667 0
M  V30 21619 H 1998.63 -0.935323 -6.65358 0
M  V30 21620 N 2001.35 1.56817 -0.156891 0
M  V30 21621 C 2002.58 2.00516 0.497682 0
M  V30 21622 C 2002.99 1.03609 1.58309 0
M  V30 21623 O 2002.33 0.0266573 1.83681 0
M  V30 21624 C 2002.39 3.40648 1.14888 0
M  V30 21625 C 2002.05 4.56531 0.206879 0
M  V30 21626 C 2003.05 5.16774 -0.569267 0
M  V30 21627 C 2000.74 5.02186 0.106904 0
M  V30 21628 C 2002.73 6.21089 -1.43274 0
M  V30 21629 C 2000.42 6.06354 -0.760162 0
M  V30 21630 C 2001.42 6.65675 -1.52858 0
M  V30 21631 O 2001.1 7.67825 -2.38118 0
M  V30 21632 H 2000.84 0.662754 0.133164 0
M  V30 21633 H 2003.39 2.03855 -0.251425 0
M  V30 21634 H 2001.62 3.34177 1.94583 0
M  V30 21635 H 2003.31 3.68391 1.70419 0
M  V30 21636 H 2004.07 4.82394 -0.502119 0
M  V30 21637 H 1999.95 4.55735 0.694764 0
M  V30 21638 H 2003.5 6.6732 -2.03298 0
M  V30 21639 H 1999.39 6.4016 -0.828566 0
M  V30 21640 H 2000.16 7.85087 -2.31475 0
M  V30 21641 N 2002.83 -0.116876 1.57166 0
M  V30 21642 C 2004.1 -0.854715 1.75937 0
M  V30 21643 C 2004.48 -1.97969 0.732908 0
M  V30 21644 O 2003.83 -2.27207 -0.242738 0
M  V30 21645 C 2004.04 -1.36944 3.2101 0
M  V30 21646 C 2005.39 -1.82093 3.83572 0
M  V30 21647 O 2006.41 -1.46618 3.24625 0
M  V30 21648 O 2005.27 -2.47614 4.87186 0
M  V30 21649 H 2002.37 -0.40605 0.720453 0
M  V30 21650 H 2004.91 -0.100451 1.69402 0
M  V30 21651 H 2003.68 -0.56241 3.87237 0
M  V30 21652 H 2003.31 -2.18635 3.32091 0
M  V30 21653 N 2004.3 -1.52772 -0.387116 0
M  V30 21654 C 2005.25 -1.78325 -1.49341 0
M  V30 21655 C 2006.25 -0.651278 -1.5638 0
M  V30 21656 O 2007.45 -0.833795 -1.59524 0
M  V30 21657 H 2003.83 -0.56428 -0.497084 0
M  V30 21658 H 2005.8 -2.70965 -1.24983 0
M  V30 21659 C 2004.55 -1.97079 -2.86453 0
M  V30 21660 H 2003.87 -2.83612 -2.81788 0
M  V30 21661 H 2005.31 -2.18947 -3.63095 0
M  V30 21662 C 2003.77 -0.743842 -3.28586 0
M  V30 21663 O 2004.3 0.0778266 -4.01625 0
M  V30 21664 N 2002.5 -0.573415 -2.84886 0
M  V30 21665 H 2002.05 -1.24319 -2.25616 0
M  V30 21666 H 2002.01 0.24616 -3.13435 0
M  V30 21667 N 2005.78 0.645673 -1.43767 0
M  V30 21668 C 2007.03 1.40137 -1.45067 0
M  V30 21669 C 2007.34 1.9543 -0.0815041 0
M  V30 21670 O 2008.55 2.71486 0.0280161 0
M  V30 21671 C 2007.01 2.53651 -2.55322 0
M  V30 21672 C 2006.61 2.04934 -3.98379 0
M  V30 21673 C 2008.36 3.30964 -2.65826 0
M  V30 21674 C 2006.26 3.15703 -5.00086 0
M  V30 21675 H 2005.19 0.52657 -0.539667 0
M  V30 21676 H 2007.85 0.696144 -1.69782 0
M  V30 21677 H 2006.23 3.26681 -2.23821 0
M  V30 21678 H 2007.4 1.38865 -4.39378 0
M  V30 21679 H 2005.72 1.40478 -3.91988 0
M  V30 21680 H 2008.31 4.13513 -3.38986 0
M  V30 21681 H 2008.66 3.79492 -1.71149 0
M  V30 21682 H 2009.19 2.65018 -2.96665 0
M  V30 21683 H 2005.93 2.72136 -5.96341 0
M  V30 21684 H 2005.45 3.80459 -4.63693 0
M  V30 21685 H 2007.13 3.80714 -5.23131 0
M  V30 21686 N 2007.26 1.30423 0.884744 0
M  V30 21687 C 2008.51 1.18625 1.63129 0
M  V30 21688 C 2008.82 -0.257953 1.93892 0
M  V30 21689 O 2010.03 -0.497448 2.66904 0
M  V30 21690 C 2008.48 2.0757 2.94011 0
M  V30 21691 C 2008.09 3.569 2.70788 0
M  V30 21692 C 2009.84 2.04535 3.71975 0
M  V30 21693 C 2007.74 4.37901 3.97488 0
M  V30 21694 H 2006.67 0.440391 0.612023 0
M  V30 21695 H 2009.32 1.55172 0.979478 0
M  V30 21696 H 2007.71 1.63905 3.60487 0
M  V30 21697 H 2008.88 4.08715 2.12812 0
M  V30 21698 H 2007.19 3.61761 2.06199 0
M  V30 21699 H 2009.79 2.62305 4.6594 0
M  V30 21700 H 2010.13 1.02888 4.03385 0
M  V30 21701 H 2010.67 2.46322 3.12362 0
M  V30 21702 H 2007.41 5.40244 3.71236 0
M  V30 21703 H 2006.93 3.9085 4.54968 0
M  V30 21704 H 2008.61 4.49347 4.65506 0
M  V30 21705 N 2008.74 -1.09711 1.13142 0
M  V30 21706 C 2009.98 -1.82276 0.902614 0
M  V30 21707 C 2010.34 -1.83908 -0.565283 0
M  V30 21708 O 2009.63 -1.29418 -1.41285 0
M  V30 21709 C 2009.83 -3.27951 1.42067 0
M  V30 21710 C 2009.65 -3.40509 2.93741 0
M  V30 21711 C 2008.42 -3.52483 3.62055 0
M  V30 21712 C 2010.62 -3.33285 3.91696 0
M  V30 21713 N 2008.6 -3.53695 5.0177 0
M  V30 21714 C 2009.98 -3.41331 5.17584 0
M  V30 21715 C 2012.03 -3.16933 3.84002 0
M  V30 21716 C 2010.73 -3.34709 6.36681 0
M  V30 21717 C 2012.76 -3.11636 5.0263 0
M  V30 21718 C 2012.12 -3.2027 6.27381 0
M  V30 21719 H 2008.22 -0.681417 0.38366 0
M  V30 21720 H 2010.8 -1.3114 1.43911 0
M  V30 21721 H 2008.98 -3.77562 0.911135 0
M  V30 21722 H 2010.71 -3.88512 1.13316 0
M  V30 21723 H 2007.46 -3.55807 3.12567 0
M  V30 21724 H 2007.89 -3.57892 5.74667 0
M  V30 21725 H 2012.53 -3.09129 2.88442 0
M  V30 21726 H 2010.25 -3.41277 7.325 0
M  V30 21727 H 2013.83 -3.00123 4.98415 0
M  V30 21728 H 2012.71 -3.16184 7.17633 0
M  V30 21729 N 2010.22 -0.924476 -1.27637 0
M  V30 21730 C 2011.18 -0.425772 -2.25211 0
M  V30 21731 C 2012.18 0.453876 -1.54261 0
M  V30 21732 O 2013.37 0.255412 -1.72317 0
M  V30 21733 C 2010.5 0.388294 -3.38681 0
M  V30 21734 H 2011.69 -1.28783 -2.70841 0
M  V30 21735 H 2009.25 -0.704863 -1.39504 0
M  V30 21736 H 2009.98 1.2693 -2.98428 0
M  V30 21737 H 2009.77 -0.242358 -3.9135 0
M  V30 21738 H 2011.26 0.727693 -4.11211 0
M  V30 21739 N 2011.69 1.41711 -0.689627 0
M  V30 21740 C 2012.62 2.33474 -0.0348045 0
M  V30 21741 C 2013.61 1.51494 0.773533 0
M  V30 21742 O 2014.79 1.8005 0.727705 0
M  V30 21743 C 2011.92 3.35259 0.906573 0
M  V30 21744 C 2010.87 4.27505 0.205762 0
M  V30 21745 C 2010.2 5.19616 1.26109 0
M  V30 21746 C 2011.5 5.14056 -0.92431 0
M  V30 21747 H 2013.19 2.88481 -0.801208 0
M  V30 21748 H 2010.74 1.3871 -0.386738 0
M  V30 21749 H 2012.69 3.98375 1.37386 0
M  V30 21750 H 2011.42 2.78589 1.70457 0
M  V30 21751 H 2010.08 3.65804 -0.241437 0
M  V30 21752 H 2009.72 4.59264 2.05147 0
M  V30 21753 H 2009.42 5.82167 0.797221 0
M  V30 21754 H 2010.95 5.85609 1.72901 0
M  V30 21755 H 2012.36 5.70774 -0.537573 0
M  V30 21756 H 2010.76 5.85517 -1.3149 0
M  V30 21757 H 2011.83 4.51574 -1.7666 0
M  V30 21758 N 2013.17 0.433965 1.51507 0
M  V30 21759 C 2014.1 -0.369789 2.30553 0
M  V30 21760 C 2015.08 -1.02405 1.35821 0
M  V30 21761 O 2016.27 -1.02833 1.64739 0
M  V30 21762 C 2013.4 -1.47312 3.1451 0
M  V30 21763 C 2012.35 -0.942531 4.17493 0
M  V30 21764 C 2011.68 -2.14135 4.89949 0
M  V30 21765 C 2012.98 0.0206958 5.22296 0
M  V30 21766 H 2014.67 0.289851 2.97994 0
M  V30 21767 H 2012.22 0.14084 1.4331 0
M  V30 21768 H 2014.17 -2.04259 3.68587 0
M  V30 21769 H 2012.9 -2.161 2.44884 0
M  V30 21770 H 2011.55 -0.395296 3.64463 0
M  V30 21771 H 2011.2 -2.81535 4.1683 0
M  V30 21772 H 2010.9 -1.79273 5.59584 0
M  V30 21773 H 2012.43 -2.71642 5.46848 0
M  V30 21774 H 2013.84 -0.458366 5.71465 0
M  V30 21775 H 2012.24 0.281718 5.99438 0
M  V30 21776 H 2013.31 0.958416 4.75334 0
M  V30 21777 N 2014.65 -1.56732 0.165206 0
M  V30 21778 C 2015.88 -2.01069 -0.487749 0
M  V30 21779 C 2016.29 -1.04541 -1.57215 0
M  V30 21780 O 2015.65 -0.0452829 -1.82444 0
M  V30 21781 C 2015.7 -3.45249 -1.07169 0
M  V30 21782 O 2015.42 -4.38089 -0.0305845 0
M  V30 21783 C 2016.92 -4.04956 -1.80348 0
M  V30 21784 H 2014.14 -0.659179 -0.125394 0
M  V30 21785 H 2016.69 -2.02774 0.26514 0
M  V30 21786 H 2014.84 -3.44338 -1.77511 0
M  V30 21787 H 2015.26 -5.22471 -0.460866 0
M  V30 21788 H 2016.73 -5.07783 -2.16474 0
M  V30 21789 H 2017.21 -3.467 -2.69621 0
M  V30 21790 H 2017.81 -4.09552 -1.14662 0
M  V30 21791 N 2016.13 0.10854 -1.57226 0
M  V30 21792 C 2017.06 1.13362 -2.04135 0
M  V30 21793 C 2018.04 1.42573 -0.927733 0
M  V30 21794 O 2019.22 1.52835 -1.19813 0
M  V30 21795 C 2016.35 2.45708 -2.45449 0
M  V30 21796 C 2015.31 2.30935 -3.60351 0
M  V30 21797 C 2014.63 3.68337 -3.87597 0
M  V30 21798 C 2015.93 1.76112 -4.91713 0
M  V30 21799 H 2017.63 0.74341 -2.90024 0
M  V30 21800 H 2015.17 0.356157 -1.39526 0
M  V30 21801 H 2017.13 3.17679 -2.76872 0
M  V30 21802 H 2015.85 2.86639 -1.56544 0
M  V30 21803 H 2014.51 1.61411 -3.29153 0
M  V30 21804 H 2014.16 4.06772 -2.95881 0
M  V30 21805 H 2013.86 3.59303 -4.64946 0
M  V30 21806 H 2015.38 4.41797 -4.21483 0
M  V30 21807 H 2016.8 2.3791 -5.21605 0
M  V30 21808 H 2015.19 1.77872 -5.73133 0
M  V30 21809 H 2016.26 0.71947 -4.79533 0
M  V30 21810 N 2017.61 1.52975 0.379009 0
M  V30 21811 C 2018.85 1.68505 1.12304 0
M  V30 21812 C 2019.18 0.430012 1.89687 0
M  V30 21813 O 2018.44 -0.587809 1.86664 0
M  V30 21814 C 2018.74 2.8776 2.11964 0
M  V30 21815 C 2018.4 4.24806 1.51163 0
M  V30 21816 C 2017.06 4.62077 1.34308 0
M  V30 21817 C 2019.42 5.10087 1.07053 0
M  V30 21818 C 2016.74 5.82277 0.719058 0
M  V30 21819 C 2019.1 6.30921 0.460559 0
M  V30 21820 C 2017.76 6.66915 0.279391 0
M  V30 21821 H 2017.03 0.616604 0.41095 0
M  V30 21822 H 2019.68 1.87137 0.406443 0
M  V30 21823 H 2017.98 2.63586 2.89879 0
M  V30 21824 H 2019.68 2.96971 2.69461 0
M  V30 21825 H 2016.27 3.95453 1.65272 0
M  V30 21826 H 2020.45 4.81854 1.18872 0
M  V30 21827 H 2015.71 6.08765 0.566983 0
M  V30 21828 H 2019.88 6.96312 0.110504 0
M  V30 21829 H 2017.51 7.5992 -0.206228 0
M  V30 21830 N 2019.08 -0.63804 1.44107 0
M  V30 21831 C 2020.31 -1.4251 1.49995 0
M  V30 21832 C 2020.73 -1.88401 0.122604 0
M  V30 21833 O 2020.08 -1.60419 -0.870168 0
M  V30 21834 C 2020.14 -2.65002 2.45879 0
M  V30 21835 O 2019.86 -2.21025 3.78259 0
M  V30 21836 C 2021.36 -3.58203 2.61162 0
M  V30 21837 H 2018.58 -0.437285 0.508943 0
M  V30 21838 H 2021.12 -0.780912 1.89003 0
M  V30 21839 H 2019.28 -3.25527 2.10026 0
M  V30 21840 H 2019.69 -3.00388 4.29962 0
M  V30 21841 H 2021.16 -4.40776 3.32295 0
M  V30 21842 H 2021.64 -4.06556 1.6616 0
M  V30 21843 H 2022.25 -3.0355 2.97888 0
M  V30 21844 N 2020.56 -1.3089 -0.877815 0
M  V30 21845 C 2021.81 -1.20303 -1.63264 0
M  V30 21846 C 2022.14 0.240114 -1.9271 0
M  V30 21847 O 2021.42 1.17082 -1.55313 0
M  V30 21848 C 2021.7 -2.03934 -2.96788 0
M  V30 21849 C 2021.55 -3.56506 -2.74269 0
M  V30 21850 C 2022.87 -1.88268 -3.97798 0
M  V30 21851 H 2019.99 -0.438382 -0.592445 0
M  V30 21852 H 2022.63 -1.60598 -1.01529 0
M  V30 21853 H 2020.78 -1.69698 -3.49478 0
M  V30 21854 H 2022.45 -4.00838 -2.28312 0
M  V30 21855 H 2020.7 -3.8033 -2.08643 0
M  V30 21856 H 2021.37 -4.1032 -3.69244 0
M  V30 21857 H 2023.84 -2.18214 -3.54291 0
M  V30 21858 H 2022.72 -2.49098 -4.89123 0
M  V30 21859 H 2022.98 -0.843802 -4.33973 0
M  V30 21860 N 2022.04 1.0911 -1.13723 0
M  V30 21861 C 2023.27 1.85648 -0.924643 0
M  V30 21862 C 2023.69 1.80727 0.521458 0
M  V30 21863 O 2023.05 1.18712 1.3703 0
M  V30 21864 C 2023.1 3.31415 -1.42115 0
M  V30 21865 O 2022.2 4.07886 -0.608521 0
M  V30 21866 H 2021.54 0.575539 -0.331136 0
M  V30 21867 H 2024.07 1.37763 -1.5127 0
M  V30 21868 H 2024.08 3.82262 -1.42619 0
M  V30 21869 H 2022.76 3.34311 -2.47404 0
M  V30 21870 H 2021.33 3.66802 -0.671625 0
M  V30 21871 N 2023.52 0.931232 1.27145 0
M  V30 21872 C 2024.75 0.589956 1.98311 0
M  V30 21873 C 2025.16 -0.832836 1.69438 0
M  V30 21874 O 2024.52 -1.55399 0.956935 0
M  V30 21875 C 2024.57 0.810592 3.52295 0
M  V30 21876 O 2024.29 2.17741 3.80158 0
M  V30 21877 C 2025.79 0.478508 4.4071 0
M  V30 21878 H 2023.01 0.223234 0.632778 0
M  V30 21879 H 2025.56 1.24922 1.6191 0
M  V30 21880 H 2023.71 0.198081 3.86893 0
M  V30 21881 H 2024.12 2.23003 4.74731 0
M  V30 21882 H 2025.6 0.683566 5.47751 0
M  V30 21883 H 2026.08 -0.586102 4.35272 0
M  V30 21884 H 2026.68 1.06931 4.11638 0
M  V30 21885 N 2025 -1.41343 0.697132 0
M  V30 21886 C 2026.25 -2.00806 0.228308 0
M  V30 21887 C 2026.57 -1.55497 -1.17668 0
M  V30 21888 O 2025.84 -0.786272 -1.79428 0
M  V30 21889 H 2024.42 -0.74255 0.0814173 0
M  V30 21890 H 2027.08 -1.72946 0.898641 0
M  V30 21891 H 2026.17 -3.11121 0.246954 0
M  V30 21892 N 2026.48 -0.441993 -1.51275 0
M  V30 21893 C 2027.39 0.373145 -2.31613 0
M  V30 21894 C 2028.4 1.02333 -1.40726 0
M  V30 21895 O 2029.58 1.01768 -1.73796 0
M  V30 21896 C 2026.64 1.45705 -3.14597 0
M  V30 21897 C 2025.7 0.826508 -4.21269 0
M  V30 21898 C 2024.94 1.85876 -5.00286 0
M  V30 21899 O 2025.16 3.08159 -4.79994 0
M  V30 21900 O 2024.09 1.44671 -5.84255 0
M  V30 21901 H 2027.92 -0.282837 -3.0238 0
M  V30 21902 H 2025.5 -0.204432 -1.47995 0
M  V30 21903 H 2027.39 2.08556 -3.66172 0
M  V30 21904 H 2026.06 2.09703 -2.46589 0
M  V30 21905 H 2024.97 0.15982 -3.73758 0
M  V30 21906 H 2026.3 0.229942 -4.91663 0
M  V30 21907 N 2027.95 1.56642 -0.173515 0
M  V30 21908 C 2029.2 1.9656 0.469943 0
M  V30 21909 C 2029.52 1.06067 1.6363 0
M  V30 21910 O 2028.79 0.127477 1.95485 0
M  V30 21911 H 2027.37 0.725824 0.176604 0
M  V30 21912 H 2030.03 1.93222 -0.255212 0
M  V30 21913 H 2029.13 3.00903 0.828491 0
M  V30 21914 N 2029.43 -0.1002 1.57281 0
M  V30 21915 C 2030.68 -0.800727 1.86976 0
M  V30 21916 C 2031.03 -1.76594 0.763702 0
M  V30 21917 O 2030.33 -1.90157 -0.234742 0
M  V30 21918 C 2030.52 -1.57263 3.20941 0
M  V30 21919 C 2030.35 -0.683678 4.44473 0
M  V30 21920 C 2029.12 -0.331348 5.04212 0
M  V30 21921 C 2031.32 0.00708891 5.143 0
M  V30 21922 N 2029.3 0.566305 6.11282 0
M  V30 21923 C 2030.67 0.763007 6.15287 0
M  V30 21924 C 2032.72 0.0815442 4.97833 0
M  V30 21925 C 2031.43 1.58642 7.01588 0
M  V30 21926 C 2033.45 0.891836 5.84637 0
M  V30 21927 C 2032.82 1.63589 6.85141 0
M  V30 21928 H 2028.91 -0.269337 0.734154 0
M  V30 21929 H 2031.5 -0.0635031 1.94596 0
M  V30 21930 H 2029.67 -2.28077 3.14381 0
M  V30 21931 H 2031.4 -2.21996 3.38378 0
M  V30 21932 H 2028.16 -0.677856 4.68724 0
M  V30 21933 H 2028.58 1.00753 6.69461 0
M  V30 21934 H 2033.22 -0.479359 4.20074 0
M  V30 21935 H 2030.94 2.1584 7.78742 0
M  V30 21936 H 2034.53 0.952052 5.73957 0
M  V30 21937 H 2033.41 2.25279 7.51145 0
M  V30 21938 N 2030.91 -1.53174 -0.370891 0
M  V30 21939 C 2032.32 -1.60843 -0.94796 0
M  V30 21940 C 2032.67 -0.472528 -1.90425 0
M  V30 21941 O 2031.8 0.401822 -2.12637 0
M  V30 21942 C 2032.39 -2.91534 -1.72607 0
M  V30 21943 C 2030.95 -3.01557 -2.25257 0
M  V30 21944 C 2030.1 -2.561 -1.0634 0
M  V30 21945 H 2033.05 -1.57991 -0.149852 0
M  V30 21946 H 2033.07 -2.79038 -2.58685 0
M  V30 21947 H 2032.58 -3.74188 -1.02982 0
M  V30 21948 H 2030.68 -2.23479 -2.9814 0
M  V30 21949 H 2030.8 -4.06538 -2.53502 0
M  V30 21950 H 2029.16 -2.10849 -1.42881 0
M  V30 21951 H 2029.94 -3.41166 -0.38221 0
M  V30 21952 N 2032.39 0.630389 -1.44443 0
M  V30 21953 C 2033.32 1.75554 -1.47354 0
M  V30 21954 C 2034.33 1.58613 -0.366846 0
M  V30 21955 O 2035.52 1.66913 -0.632629 0
M  V30 21956 C 2032.62 3.13286 -1.29249 0
M  V30 21957 C 2031.79 3.56679 -2.53178 0
M  V30 21958 C 2030.85 4.73291 -2.29962 0
M  V30 21959 O 2029.88 4.81565 -3.03453 0
M  V30 21960 N 2031.08 5.65043 -1.33068 0
M  V30 21961 H 2033.85 1.73528 -2.44352 0
M  V30 21962 H 2031.41 0.814976 -1.39892 0
M  V30 21963 H 2033.4 3.89019 -1.11564 0
M  V30 21964 H 2031.97 3.09951 -0.406127 0
M  V30 21965 H 2031.19 2.71147 -2.86135 0
M  V30 21966 H 2032.48 3.82422 -3.35605 0
M  V30 21967 H 2031.88 5.61051 -0.723733 0
M  V30 21968 H 2030.43 6.40402 -1.21361 0
M  V30 21969 N 2033.87 1.31354 0.870861 0
M  V30 21970 C 2035.11 1.21167 1.62623 0
M  V30 21971 C 2035.44 -0.22989 1.92835 0
M  V30 21972 O 2034.72 -1.16257 1.55931 0
M  V30 21973 C 2035 2.05505 2.95702 0
M  V30 21974 C 2034.86 3.57955 2.72375 0
M  V30 21975 C 2036.17 1.90375 3.96794 0
M  V30 21976 H 2033.29 0.441517 0.590111 0
M  V30 21977 H 2035.94 1.61134 1.00676 0
M  V30 21978 H 2034.09 1.71549 3.48573 0
M  V30 21979 H 2035.76 4.02044 2.26183 0
M  V30 21980 H 2034 3.81431 2.06623 0
M  V30 21981 H 2034.67 4.12273 3.67063 0
M  V30 21982 H 2037.15 2.20089 3.53129 0
M  V30 21983 H 2036.02 2.51689 4.87795 0
M  V30 21984 H 2036.28 0.866804 4.33519 0
M  V30 21985 N 2035.34 -1.08505 1.143 0
M  V30 21986 C 2036.27 -2.1741 0.851769 0
M  V30 21987 C 2037.25 -1.69004 -0.192818 0
M  V30 21988 O 2038.44 -1.94136 -0.0497098 0
M  V30 21989 C 2035.57 -3.45754 0.327364 0
M  V30 21990 C 2034.52 -4.07547 1.30728 0
M  V30 21991 C 2033.85 -5.30829 0.642225 0
M  V30 21992 C 2035.15 -4.48945 2.66919 0
M  V30 21993 H 2036.84 -2.42029 1.76245 0
M  V30 21994 H 2034.39 -1.16322 0.848834 0
M  V30 21995 H 2036.34 -4.21253 0.111237 0
M  V30 21996 H 2035.07 -3.20686 -0.618737 0
M  V30 21997 H 2033.73 -3.34077 1.50956 0
M  V30 21998 H 2033.37 -5.02046 -0.309652 0
M  V30 21999 H 2033.07 -5.73128 1.29608 0
M  V30 22000 H 2034.6 -6.09044 0.435598 0
M  V30 22001 H 2036.01 -5.15626 2.50604 0
M  V30 22002 H 2034.41 -5.02158 3.28568 0
M  V30 22003 H 2035.48 -3.60882 3.23871 0
M  V30 22004 N 2036.82 -0.937962 -1.26649 0
M  V30 22005 C 2037.75 -0.402342 -2.25641 0
M  V30 22006 C 2038.77 0.472614 -1.55789 0
M  V30 22007 O 2039.96 0.283579 -1.76233 0
M  V30 22008 C 2037.06 0.441157 -3.36016 0
M  V30 22009 C 2036.23 -0.416892 -4.35409 0
M  V30 22010 C 2035.29 0.365644 -5.24928 0
M  V30 22011 O 2034.31 -0.230215 -5.68734 0
M  V30 22012 N 2035.52 1.66298 -5.5617 0
M  V30 22013 H 2038.28 -1.25333 -2.72235 0
M  V30 22014 H 2035.84 -0.806494 -1.40383 0
M  V30 22015 H 2037.83 0.971979 -3.92855 0
M  V30 22016 H 2036.4 1.19293 -2.88943 0
M  V30 22017 H 2035.62 -1.12895 -3.77688 0
M  V30 22018 H 2036.91 -1.00313 -4.98813 0
M  V30 22019 H 2036.31 2.16925 -5.22456 0
M  V30 22020 H 2034.87 2.14011 -6.15664 0
M  V30 22021 N 2038.3 1.40971 -0.704618 0
M  V30 22022 C 2039.25 2.2799 -0.0216885 0
M  V30 22023 C 2040.23 1.42681 0.743698 0
M  V30 22024 O 2041.43 1.65872 0.617703 0
M  V30 22025 C 2038.55 3.31092 0.907373 0
M  V30 22026 C 2037.64 4.23876 0.137755 0
M  V30 22027 N 2038.03 4.98205 -0.87323 0
M  V30 22028 C 2036.33 4.44447 0.371921 0
M  V30 22029 C 2037.03 5.6618 -1.33471 0
M  V30 22030 N 2036.01 5.39592 -0.658918 0
M  V30 22031 H 2039.81 2.82896 -0.796698 0
M  V30 22032 H 2037.32 1.53291 -0.536241 0
M  V30 22033 H 2039.32 3.92266 1.41185 0
M  V30 22034 H 2037.98 2.77746 1.68188 0
M  V30 22035 H 2038.99 5.02495 -1.25375 0
M  V30 22036 H 2035.67 4.02096 1.12361 0
M  V30 22037 H 2037.06 6.35752 -2.17415 0
M  V30 22038 N 2039.78 0.45001 1.51039 0
M  V30 22039 C 2041 -0.112834 2.07093 0
M  V30 22040 C 2041.43 -1.34598 1.31397 0
M  V30 22041 O 2040.79 -1.7778 0.355505 0
M  V30 22042 C 2040.83 -0.400989 3.58364 0
M  V30 22043 O 2039.94 -1.48527 3.84725 0
M  V30 22044 H 2039.28 0.00369778 0.66399 0
M  V30 22045 H 2041.81 0.634991 1.94497 0
M  V30 22046 H 2041.82 -0.647726 4.02826 0
M  V30 22047 H 2040.49 0.500232 4.12881 0
M  V30 22048 H 2039.07 -1.2275 3.52118 0
M  V30 22049 N 2041.26 -1.56548 0.18182 0
M  V30 22050 C 2042.5 -1.97488 -0.461104 0
M  V30 22051 C 2042.84 -1.06819 -1.62183 0
M  V30 22052 O 2042.11 -0.117449 -1.94145 0
M  V30 22053 C 2042.39 -3.47776 -0.934008 0
M  V30 22054 C 2042.25 -4.49224 0.227615 0
M  V30 22055 C 2043.57 -4.01423 -1.80409 0
M  V30 22056 H 2040.68 -0.718031 -0.166135 0
M  V30 22057 H 2043.33 -1.88071 0.27007 0
M  V30 22058 H 2041.48 -3.55933 -1.55705 0
M  V30 22059 H 2043.15 -4.53118 0.864978 0
M  V30 22060 H 2041.39 -4.2475 0.881483 0
M  V30 22061 H 2042.06 -5.51808 -0.145571 0
M  V30 22062 H 2044.54 -3.95963 -1.27876 0
M  V30 22063 H 2043.41 -5.06975 -2.10398 0
M  V30 22064 H 2043.68 -3.45875 -2.7536 0
M  V30 22065 N 2042.73 0.0918577 -1.57332 0
M  V30 22066 C 2044.01 0.826617 -1.77275 0
M  V30 22067 C 2044.39 1.96778 -0.764311 0
M  V30 22068 O 2043.74 2.27564 0.20656 0
M  V30 22069 C 2043.95 1.3182 -3.23148 0
M  V30 22070 C 2045.3 1.75968 -3.8642 0
M  V30 22071 O 2046.32 1.41435 -3.26917 0
M  V30 22072 O 2045.18 2.39831 -4.91063 0
M  V30 22073 H 2042.27 0.394537 -0.726821 0
M  V30 22074 H 2044.82 0.0734883 -1.69541 0
M  V30 22075 H 2043.59 0.500733 -3.88083 0
M  V30 22076 H 2043.22 2.13324 -3.35527 0
M  V30 22077 N 2044.21 1.53368 0.362763 0
M  V30 22078 C 2045.46 1.69938 1.10674 0
M  V30 22079 C 2045.79 0.451301 1.88883 0
M  V30 22080 O 2045.07 -0.551452 1.86519 0
M  V30 22081 C 2045.35 2.95101 2.06367 0
M  V30 22082 C 2045.2 4.30073 1.31748 0
M  V30 22083 C 2046.52 3.15872 3.06452 0
M  V30 22084 H 2043.64 0.61838 0.400968 0
M  V30 22085 H 2046.28 1.86011 0.387265 0
M  V30 22086 H 2044.43 2.81529 2.6772 0
M  V30 22087 H 2046.1 4.55462 0.731574 0
M  V30 22088 H 2044.35 4.29356 0.619347 0
M  V30 22089 H 2045.02 5.13789 2.01803 0
M  V30 22090 H 2047.49 3.28649 2.55204 0
M  V30 22091 H 2046.37 4.04878 3.70628 0
M  V30 22092 H 2046.63 2.31281 3.76778 0
M  V30 22093 N 2045.69 -0.62272 1.44776 0
M  V30 22094 C 2046.92 -1.40911 1.51498 0
M  V30 22095 C 2047.33 -1.88261 0.142579 0
M  V30 22096 O 2046.69 -1.61333 -0.853105 0
M  V30 22097 C 2046.74 -2.62379 2.48676 0
M  V30 22098 O 2046.46 -2.17001 3.80582 0
M  V30 22099 C 2047.96 -3.55413 2.64947 0
M  V30 22100 H 2045.18 -0.431862 0.513552 0
M  V30 22101 H 2047.73 -0.760822 1.8982 0
M  V30 22102 H 2045.88 -3.23281 2.13467 0
M  V30 22103 H 2046.3 -2.95811 4.33124 0
M  V30 22104 H 2047.77 -4.37227 3.36952 0
M  V30 22105 H 2048.25 -4.04771 1.70462 0
M  V30 22106 H 2048.85 -3.00374 3.01091 0
M  V30 22107 N 2047.17 -1.31814 -0.863883 0
M  V30 22108 C 2048.08 -1.21951 -2.00412 0
M  V30 22109 C 2049.09 -0.13497 -1.73476 0
M  V30 22110 O 2050.27 -0.35392 -1.98266 0
M  V30 22111 C 2047.34 -0.933599 -3.33893 0
M  V30 22112 C 2046.4 -2.10565 -3.74113 0
M  V30 22113 C 2045.63 -1.83329 -5.01225 0
M  V30 22114 O 2045.85 -0.77136 -5.6516 0
M  V30 22115 O 2044.79 -2.69178 -5.38356 0
M  V30 22116 H 2048.61 -2.17786 -2.11667 0
M  V30 22117 H 2046.2 -1.11613 -0.993126 0
M  V30 22118 H 2048.08 -0.790251 -4.13924 0
M  V30 22119 H 2046.75 -0.00533113 -3.237 0
M  V30 22120 H 2045.66 -2.30443 -2.94698 0
M  V30 22121 H 2046.99 -3.01639 -3.88941 0
M  V30 22122 N 2048.65 1.07897 -1.14873 0
M  V30 22123 C 2049.56 2.18494 -0.854259 0
M  V30 22124 C 2050.57 1.73194 0.167297 0
M  V30 22125 O 2051.75 2.01399 -0.00544437 0
M  V30 22126 C 2048.81 3.45013 -0.341649 0
M  V30 22127 C 2047.87 4.0491 -1.42641 0
M  V30 22128 C 2047.11 5.2539 -0.938165 0
M  V30 22129 O 2047.33 5.69982 0.218391 0
M  V30 22130 O 2046.26 5.76818 -1.71943 0
M  V30 22131 H 2050.09 2.46164 -1.77867 0
M  V30 22132 H 2047.68 1.1713 -0.927406 0
M  V30 22133 H 2049.56 4.21354 -0.0619573 0
M  V30 22134 H 2048.23 3.18907 0.554969 0
M  V30 22135 H 2047.14 3.30133 -1.75963 0
M  V30 22136 H 2048.47 4.35276 -2.29774 0
M  V30 22137 N 2050.12 0.944665 1.2615 0
M  V30 22138 C 2051.4 0.511841 1.88784 0
M  V30 22139 C 2051.78 -1.01066 1.85335 0
M  V30 22140 O 2051.13 -1.87217 1.31004 0
M  V30 22141 C 2051.34 1.07714 3.31962 0
M  V30 22142 C 2052.69 1.14792 4.08788 0
M  V30 22143 O 2053.71 1.02798 3.41044 0
M  V30 22144 O 2052.57 1.3349 5.29946 0
M  V30 22145 H 2049.66 0.167346 0.809892 0
M  V30 22146 H 2052.21 1.03745 1.34294 0
M  V30 22147 H 2050.98 2.12066 3.28852 0
M  V30 22148 H 2050.61 0.534184 3.93995 0
M  V30 22149 N 2051.6 -1.40596 0.712085 0
M  V30 22150 C 2053.02 -1.5488 0.385286 0
M  V30 22151 C 2053.22 -1.68416 -1.10626 0
M  V30 22152 O 2052.27 -1.67179 -1.89228 0
M  V30 22153 C 2053.59 -2.77912 1.14828 0
M  V30 22154 C 2055.14 -2.91726 1.13424 0
M  V30 22155 C 2055.61 -4.17667 1.87931 0
M  V30 22156 N 2057.1 -4.2466 1.84982 0
M  V30 22157 C 2057.84 -5.21006 2.39459 0
M  V30 22158 N 2057.33 -6.23282 3.02476 0
M  V30 22159 N 2059.13 -5.1306 2.29621 0
M  V30 22160 H 2051.28 -1.30055 1.67927 0
M  V30 22161 H 2053.54 -0.628638 0.70959 0
M  V30 22162 H 2053.25 -2.74175 2.20275 0
M  V30 22163 H 2053.12 -3.69918 0.737606 0
M  V30 22164 H 2055.51 -2.94969 0.0879737 0
M  V30 22165 H 2055.59 -2.00848 1.5841 0
M  V30 22166 H 2055.23 -4.15186 2.92546 0
M  V30 22167 H 2055.16 -5.07548 1.40367 0
M  V30 22168 H 2057.65 -3.51387 1.39053 0
M  V30 22169 H 2057.97 -6.93217 3.4157 0
M  V30 22170 H 2056.31 -6.23736 3.06559 0
M  V30 22171 H 2059.5 -4.32088 1.80049 0
M  V30 22172 H 2059.67 -5.87975 2.72378 0
M  V30 22173 N 2053.08 -0.458013 -1.50798 0
M  V30 22174 C 2054.33 0.101266 -2.01846 0
M  V30 22175 C 2054.65 1.41388 -1.34293 0
M  V30 22176 O 2053.92 1.89826 -0.484035 0
M  V30 22177 H 2052.5 0.0404137 -0.745906 0
M  V30 22178 H 2055.16 -0.605448 -1.85257 0
M  V30 22179 H 2054.26 0.262253 -3.10996 0
M  V30 22180 N 2054.56 1.56449 -0.190119 0
M  V30 22181 C 2055.97 1.83879 0.323353 0
M  V30 22182 C 2056.32 1.11062 1.6174 0
M  V30 22183 O 2055.45 0.369789 2.13217 0
M  V30 22184 C 2056.04 3.33562 0.593453 0
M  V30 22185 C 2054.6 3.6142 1.05131 0
M  V30 22186 C 2053.75 2.77129 0.0972331 0
M  V30 22187 H 2056.7 1.53205 -0.414009 0
M  V30 22188 H 2056.72 3.52062 1.44335 0
M  V30 22189 H 2056.23 3.86532 -0.348543 0
M  V30 22190 H 2054.33 3.13879 2.00776 0
M  V30 22191 H 2054.45 4.69638 0.947464 0
M  V30 22192 H 2052.81 2.47576 0.598181 0
M  V30 22193 H 2053.59 3.32887 -0.839117 0
M  V30 22194 N 2056.04 -0.0835127 1.57379 0
M  V30 22195 C 2057.26 -0.801948 1.91268 0
M  V30 22196 C 2057.69 -1.70915 0.785469 0
M  V30 22197 O 2057.05 -1.79392 -0.262357 0
M  V30 22198 C 2057.09 -1.58151 3.24069 0
M  V30 22199 O 2056.2 -2.69134 3.12475 0
M  V30 22200 H 2055.54 -0.219566 0.626647 0
M  V30 22201 H 2058.07 -0.0552662 2.04525 0
M  V30 22202 H 2058.08 -1.96327 3.57659 0
M  V30 22203 H 2056.75 -0.915794 4.05692 0
M  V30 22204 H 2055.33 -2.33901 2.90422 0
M  V30 22205 N 2057.52 -1.53558 -0.354624 0
M  V30 22206 C 2058.93 -1.43575 -0.697019 0
M  V30 22207 C 2059.13 -0.583599 -1.92864 0
M  V30 22208 O 2058.19 -0.0702807 -2.52402 0
M  V30 22209 C 2059.5 -2.86916 -0.899995 0
M  V30 22210 C 2061.05 -2.96619 -0.999314 0
M  V30 22211 C 2061.52 -4.41044 -1.23468 0
M  V30 22212 N 2063.01 -4.44521 -1.30214 0
M  V30 22213 C 2063.75 -5.5339 -1.50156 0
M  V30 22214 N 2063.25 -6.72286 -1.67343 0
M  V30 22215 N 2065.04 -5.40985 -1.52614 0
M  V30 22216 H 2057.19 -2.07462 0.45531 0
M  V30 22217 H 2059.45 -0.937349 0.141706 0
M  V30 22218 H 2059.16 -3.51637 -0.066674 0
M  V30 22219 H 2059.03 -3.31212 -1.80495 0
M  V30 22220 H 2061.42 -2.32044 -1.82317 0
M  V30 22221 H 2061.5 -2.557 -0.0715092 0
M  V30 22222 H 2061.14 -5.06195 -0.415803 0
M  V30 22223 H 2061.07 -4.79545 -2.17588 0
M  V30 22224 H 2063.57 -3.5884 -1.18501 0
M  V30 22225 H 2063.88 -7.51023 -1.82164 0
M  V30 22226 H 2062.22 -6.75252 -1.645 0
M  V30 22227 H 2065.41 -4.4706 -1.38762 0
M  V30 22228 H 2065.59 -6.25893 -1.67815 0
M  V30 22229 N 2058.99 0.615033 -1.45104 0
M  V30 22230 C 2060.22 1.40596 -1.52471 0
M  V30 22231 C 2060.64 1.87454 -0.155745 0
M  V30 22232 O 2060 1.59701 0.858209 0
M  V30 22233 C 2060.05 2.59156 -2.5074 0
M  V30 22234 O 2059.15 3.59538 -2.02006 0
M  V30 22235 H 2058.49 0.420045 -0.514255 0
M  V30 22236 H 2061.02 0.749208 -1.90389 0
M  V30 22237 H 2061.03 3.06496 -2.69303 0
M  V30 22238 H 2059.71 2.24399 -3.50169 0
M  V30 22239 H 2058.29 3.18897 -1.93284 0
M  V30 22240 N 2060.47 1.3227 0.85688 0
M  V30 22241 C 2061.42 1.20972 1.98667 0
M  V30 22242 C 2062.41 0.115019 1.69009 0
M  V30 22243 O 2063.62 0.277796 1.77843 0
M  V30 22244 H 2059.99 0.374926 0.65187 0
M  V30 22245 H 2061.97 2.16528 2.05324 0
M  V30 22246 C 2060.71 0.947348 3.34545 0
M  V30 22247 H 2060.04 1.78189 3.57895 0
M  V30 22248 H 2061.48 0.908529 4.14152 0
M  V30 22249 C 2059.94 -0.349912 3.35078 0
M  V30 22250 O 2060.47 -1.3625 3.77887 0
M  V30 22251 N 2058.67 -0.371097 2.88221 0
M  V30 22252 H 2058.22 0.453449 2.53578 0
M  V30 22253 H 2058.18 -1.23894 2.8896 0
M  V30 22254 N 2061.95 -1.07287 1.15444 0
M  V30 22255 C 2063.37 -1.31993 0.897222 0
M  V30 22256 C 2063.57 -1.96286 -0.455437 0
M  V30 22257 O 2062.62 -2.22313 -1.19722 0
M  V30 22258 C 2063.93 -2.2104 2.03868 0
M  V30 22259 C 2065.48 -2.34486 2.07329 0
M  V30 22260 C 2065.96 -3.26882 3.20799 0
M  V30 22261 N 2067.45 -3.34463 3.20451 0
M  V30 22262 C 2068.18 -4.06019 4.0489 0
M  V30 22263 N 2067.68 -4.80184 4.99395 0
M  V30 22264 N 2069.47 -4.01967 3.92911 0
M  V30 22265 H 2061.62 -0.639423 2.02547 0
M  V30 22266 H 2063.89 -0.344393 0.883231 0
M  V30 22267 H 2063.59 -1.8106 3.01513 0
M  V30 22268 H 2063.47 -3.21571 1.9716 0
M  V30 22269 H 2065.85 -2.73719 1.10282 0
M  V30 22270 H 2065.93 -1.33658 2.18104 0
M  V30 22271 H 2065.58 -2.88368 4.18098 0
M  V30 22272 H 2065.51 -4.27667 3.0726 0
M  V30 22273 H 2068 -2.816 2.52012 0
M  V30 22274 H 2068.31 -5.32281 5.60265 0
M  V30 22275 H 2066.66 -4.79198 5.03383 0
M  V30 22276 H 2069.85 -3.43139 3.18392 0
M  V30 22277 H 2070.02 -4.57468 4.58942 0
M  V30 22278 N 2063.43 -0.951342 -1.25647 0
M  V30 22279 C 2064.36 -0.413176 -2.24428 0
M  V30 22280 C 2065.34 0.503664 -1.54603 0
M  V30 22281 O 2066.52 0.438794 -1.83322 0
M  V30 22282 C 2063.65 0.405254 -3.36267 0
M  V30 22283 C 2062.7 -0.45151 -4.24103 0
M  V30 22284 S 2063.53 -1.88173 -5.01349 0
M  V30 22285 C 2064.68 -1.07164 -6.16658 0
M  V30 22286 H 2064.92 -1.25033 -2.6973 0
M  V30 22287 H 2062.45 -0.755177 -1.34672 0
M  V30 22288 H 2064.41 0.871528 -4.01142 0
M  V30 22289 H 2063.07 1.21719 -2.89557 0
M  V30 22290 H 2062.26 0.176047 -5.03692 0
M  V30 22291 H 2061.86 -0.852865 -3.64146 0
M  V30 22292 H 2064.16 -0.318733 -6.7675 0
M  V30 22293 H 2065.1 -1.84134 -6.8374 0
M  V30 22294 H 2065.51 -0.603216 -5.61268 0
M  V30 22295 N 2064.91 1.40216 -0.719531 0
M  V30 22296 C 2065.82 2.34494 -0.0706489 0
M  V30 22297 C 2066.83 1.5751 0.739372 0
M  V30 22298 O 2068.01 1.89879 0.671417 0
M  V30 22299 C 2065.07 3.36441 0.837178 0
M  V30 22300 C 2064.13 4.29297 0.0166603 0
M  V30 22301 C 2063.37 5.26374 0.881251 0
M  V30 22302 O 2063.59 5.29524 2.1204 0
M  V30 22303 O 2062.52 6.01059 0.318141 0
M  V30 22304 H 2066.35 2.91609 -0.848392 0
M  V30 22305 H 2063.93 1.41478 -0.480047 0
M  V30 22306 H 2065.82 3.98951 1.35707 0
M  V30 22307 H 2064.49 2.81733 1.594 0
M  V30 22308 H 2063.4 3.70059 -0.54839 0
M  V30 22309 H 2064.73 4.87168 -0.70203 0
M  V30 22310 N 2066.38 0.466004 1.50553 0
M  V30 22311 C 2067.32 -0.37668 2.2507 0
M  V30 22312 C 2068.29 -1.00055 1.28171 0
M  V30 22313 O 2069.48 -1.03747 1.57381 0
M  V30 22314 C 2066.61 -1.52735 3.02307 0
M  V30 22315 C 2065.65 -1.02136 4.1409 0
M  V30 22316 S 2066.48 0.0598436 5.35467 0
M  V30 22317 C 2067.64 -1.09482 6.1625 0
M  V30 22318 H 2067.87 0.255883 2.96197 0
M  V30 22319 H 2065.41 0.250826 1.52349 0
M  V30 22320 H 2067.36 -2.18686 3.474 0
M  V30 22321 H 2066.03 -2.13141 2.30715 0
M  V30 22322 H 2065.22 -1.88265 4.67517 0
M  V30 22323 H 2064.82 -0.439645 3.71407 0
M  V30 22324 H 2067.11 -2.00749 6.47075 0
M  V30 22325 H 2068.06 -0.599922 7.05554 0
M  V30 22326 H 2068.46 -1.34635 5.48209 0
M  V30 22327 N 2067.86 -1.56346 0.198413 0
M  V30 22328 C 2069.09 -2.02502 -0.44809 0
M  V30 22329 C 2069.51 -1.07761 -1.54173 0
M  V30 22330 O 2068.87 -0.0616812 -1.81195 0
M  V30 22331 C 2068.92 -3.47073 -0.978394 0
M  V30 22332 O 2068.02 -3.55452 -2.09111 0
M  V30 22333 H 2067.36 -0.655753 -0.104324 0
M  V30 22334 H 2069.89 -2.02234 0.310265 0
M  V30 22335 H 2069.9 -3.86931 -1.29415 0
M  V30 22336 H 2068.58 -4.1552 -0.177819 0
M  V30 22337 H 2067.15 -3.27471 -1.78375 0
M  V30 22338 N 2069.34 0.0751653 -1.57421 0
M  V30 22339 C 2070.59 0.773759 -1.86268 0
M  V30 22340 C 2070.9 1.78911 -0.79058 0
M  V30 22341 O 2072.11 2.53703 -0.966795 0
M  V30 22342 C 2070.56 1.42704 -3.30399 0
M  V30 22343 C 2070.17 0.450427 -4.4573 0
M  V30 22344 C 2071.92 2.10819 -3.6845 0
M  V30 22345 C 2069.82 1.10943 -5.80901 0
M  V30 22346 H 2068.75 0.292727 -0.694858 0
M  V30 22347 H 2071.4 0.0269952 -1.8348 0
M  V30 22348 H 2069.79 2.22195 -3.27789 0
M  V30 22349 H 2070.96 -0.314427 -4.59726 0
M  V30 22350 H 2069.28 -0.126101 -4.16209 0
M  V30 22351 H 2071.87 2.60894 -4.66732 0
M  V30 22352 H 2072.22 2.90611 -2.98079 0
M  V30 22353 H 2072.75 1.38164 -3.73036 0
M  V30 22354 H 2069.49 0.351912 -6.54555 0
M  V30 22355 H 2069.01 1.84523 -5.70711 0
M  V30 22356 H 2070.69 1.63022 -6.26125 0
M  V30 22357 N 2070.82 1.53744 0.346476 0
M  V30 22358 C 2072.07 1.70849 1.08705 0
M  V30 22359 C 2072.39 0.470151 1.88732 0
M  V30 22360 O 2071.65 -0.548082 1.87868 0
M  V30 22361 C 2071.95 2.92192 2.05812 0
M  V30 22362 C 2071.61 4.27917 1.42119 0
M  V30 22363 C 2070.28 4.64821 1.24477 0
M  V30 22364 C 2072.63 5.12243 0.962087 0
M  V30 22365 C 2069.96 5.83671 0.595386 0
M  V30 22366 C 2072.31 6.31756 0.326627 0
M  V30 22367 C 2070.97 6.67358 0.137866 0
M  V30 22368 H 2070.24 0.625182 0.397779 0
M  V30 22369 H 2072.89 1.87957 0.366657 0
M  V30 22370 H 2071.19 2.69675 2.84223 0
M  V30 22371 H 2072.89 3.0262 2.63101 0
M  V30 22372 H 2069.48 3.9887 1.56847 0
M  V30 22373 H 2073.66 4.84267 1.08625 0
M  V30 22374 H 2068.92 6.09831 0.437727 0
M  V30 22375 H 2073.09 6.9639 -0.0372189 0
M  V30 22376 H 2070.72 7.59312 -0.367372 0
M  V30 22377 N 2072.3 -0.607329 1.45428 0
M  V30 22378 C 2073.53 -1.39094 1.52763 0
M  V30 22379 C 2073.93 -1.8853 0.159113 0
M  V30 22380 O 2073.28 -1.62873 -0.849596 0
M  V30 22381 C 2073.34 -2.62994 2.45101 0
M  V30 22382 C 2073 -2.35195 3.91832 0
M  V30 22383 C 2074 -1.95542 4.81725 0
M  V30 22384 C 2071.69 -2.48099 4.36752 0
M  V30 22385 C 2073.68 -1.69154 6.14545 0
M  V30 22386 C 2071.37 -2.21325 5.69613 0
M  V30 22387 C 2072.36 -1.81914 6.58328 0
M  V30 22388 O 2072.05 -1.55453 7.88727 0
M  V30 22389 H 2071.78 -0.432173 0.51981 0
M  V30 22390 H 2074.34 -0.747733 1.91306 0
M  V30 22391 H 2072.57 -3.30035 2.01528 0
M  V30 22392 H 2074.26 -3.25037 2.43116 0
M  V30 22393 H 2075.02 -1.85109 4.48285 0
M  V30 22394 H 2070.9 -2.77741 3.67941 0
M  V30 22395 H 2074.45 -1.38318 6.8375 0
M  V30 22396 H 2070.34 -2.31375 6.02608 0
M  V30 22397 H 2071.11 -1.69503 8.00757 0
M  V30 22398 N 2073.77 -1.32722 -0.849853 0
M  V30 22399 C 2075.02 -1.23739 -1.60675 0
M  V30 22400 C 2075.35 0.199183 -1.93176 0
M  V30 22401 O 2074.63 1.13761 -1.57761 0
M  V30 22402 C 2074.91 -2.10183 -2.92395 0
M  V30 22403 C 2074.76 -3.62243 -2.66646 0
M  V30 22404 C 2076.08 -1.96664 -3.93715 0
M  V30 22405 H 2073.2 -0.45085 -0.583013 0
M  V30 22406 H 2075.84 -1.62716 -0.980999 0
M  V30 22407 H 2073.99 -1.77072 -3.458 0
M  V30 22408 H 2075.67 -4.05591 -2.19758 0
M  V30 22409 H 2073.91 -3.8467 -2.00529 0
M  V30 22410 H 2074.58 -4.1806 -3.60458 0
M  V30 22411 H 2077.06 -2.25679 -3.49583 0
M  V30 22412 H 2075.93 -2.59417 -4.83729 0
M  V30 22413 H 2076.19 -0.935664 -4.32085 0
M  V30 22414 N 2075.25 1.06673 -1.16011 0
M  V30 22415 C 2076.5 1.79666 -0.940641 0
M  V30 22416 C 2076.83 1.86814 0.530502 0
M  V30 22417 O 2076.11 1.35692 1.39348 0
M  V30 22418 C 2076.39 3.24359 -1.56407 0
M  V30 22419 C 2076.24 3.25315 -3.10629 0
M  V30 22420 C 2077.56 4.2181 -1.25556 0
M  V30 22421 H 2074.68 0.652242 -0.343145 0
M  V30 22422 H 2077.32 1.2478 -1.43282 0
M  V30 22423 H 2075.47 3.71227 -1.14553 0
M  V30 22424 H 2077.14 2.86637 -3.61438 0
M  V30 22425 H 2075.39 2.64077 -3.4416 0
M  V30 22426 H 2076.06 4.27371 -3.49368 0
M  V30 22427 H 2078.53 3.83365 -1.61772 0
M  V30 22428 H 2077.41 5.21326 -1.71785 0
M  V30 22429 H 2077.67 4.41758 -0.173744 0
M  V30 22430 N 2076.73 0.957992 1.25141 0
M  V30 22431 C 2077.96 0.630971 1.96729 0
M  V30 22432 C 2078.37 -0.801825 1.71369 0
M  V30 22433 O 2077.71 -1.54839 0.988461 0
M  V30 22434 C 2077.77 0.813859 3.50167 0
M  V30 22435 C 2077.44 2.22445 3.99208 0
M  V30 22436 C 2078.43 3.2014 4.09642 0
M  V30 22437 C 2076.12 2.54954 4.32786 0
M  V30 22438 C 2078.11 4.48436 4.52972 0
M  V30 22439 C 2075.8 3.83479 4.75802 0
M  V30 22440 C 2076.8 4.80032 4.85858 0
M  V30 22441 O 2076.49 6.06265 5.27918 0
M  V30 22442 H 2076.22 0.235203 0.633763 0
M  V30 22443 H 2078.77 1.28573 1.60182 0
M  V30 22444 H 2077 0.101946 3.86566 0
M  V30 22445 H 2078.69 0.487387 4.02963 0
M  V30 22446 H 2079.46 2.96351 3.83928 0
M  V30 22447 H 2075.34 1.80526 4.24183 0
M  V30 22448 H 2078.88 5.23801 4.60736 0
M  V30 22449 H 2074.78 4.07072 5.00961 0
M  V30 22450 H 2075.55 6.0969 5.46095 0
M  V30 22451 N 2078.21 -1.39832 0.726957 0
M  V30 22452 C 2079.46 -2.00673 0.271386 0
M  V30 22453 C 2079.78 -1.57667 -1.13892 0
M  V30 22454 O 2079.04 -0.793014 -1.78913 0
M  V30 22455 C 2079.34 -3.56035 0.31205 0
M  V30 22456 C 2079 -4.18664 1.67425 0
M  V30 22457 C 2077.67 -4.35485 2.04711 0
M  V30 22458 C 2080.02 -4.53488 2.56901 0
M  V30 22459 C 2077.35 -4.84416 3.30996 0
M  V30 22460 C 2079.7 -5.03824 3.8255 0
M  V30 22461 C 2078.36 -5.18852 4.19939 0
M  V30 22462 H 2077.63 -0.734315 0.0993073 0
M  V30 22463 H 2080.28 -1.67278 0.932222 0
M  V30 22464 H 2078.58 -3.89407 -0.43236 0
M  V30 22465 H 2080.28 -4.00957 -0.0584539 0
M  V30 22466 H 2076.87 -4.05968 1.37433 0
M  V30 22467 H 2081.05 -4.40119 2.29367 0
M  V30 22468 H 2076.31 -4.94236 3.59918 0
M  V30 22469 H 2080.48 -5.29744 4.52045 0
M  V30 22470 H 2078.11 -5.56529 5.1786 0
M  V30 22471 N 2079.69 -0.473982 -1.50304 0
M  V30 22472 C 2080.93 0.0801282 -2.02642 0
M  V30 22473 C 2081.27 1.3911 -1.35506 0
M  V30 22474 O 2080.54 1.8844 -0.481719 0
M  V30 22475 C 2080.82 0.26092 -3.59153 0
M  V30 22476 C 2080.68 -1.07128 -4.36857 0
M  V30 22477 C 2082 1.01413 -4.28256 0
M  V30 22478 H 2079.11 0.0276467 -0.736481 0
M  V30 22479 H 2081.76 -0.620135 -1.79595 0
M  V30 22480 H 2079.91 0.857378 -3.78921 0
M  V30 22481 H 2081.58 -1.70454 -4.28653 0
M  V30 22482 H 2079.82 -1.66721 -4.00483 0
M  V30 22483 H 2080.49 -0.898389 -5.4464 0
M  V30 22484 H 2082.97 0.508536 -4.12981 0
M  V30 22485 H 2081.84 1.10943 -5.37571 0
M  V30 22486 H 2082.11 2.05141 -3.91624 0
M  V30 22487 N 2081.16 1.56239 -0.206702 0
M  V30 22488 C 2082.41 1.98197 0.429627 0
M  V30 22489 C 2082.74 1.09386 1.60463 0
M  V30 22490 O 2082.02 0.148321 1.93934 0
M  V30 22491 C 2082.3 3.49218 0.878562 0
M  V30 22492 C 2082.15 4.48805 -0.299054 0
M  V30 22493 C 2083.47 4.04243 1.74 0
M  V30 22494 H 2080.59 0.720583 0.154691 0
M  V30 22495 H 2083.23 1.87617 -0.299957 0
M  V30 22496 H 2081.38 3.58365 1.50023 0
M  V30 22497 H 2083.06 4.51684 -0.936956 0
M  V30 22498 H 2081.3 4.23294 -0.948945 0
M  V30 22499 H 2081.97 5.5197 0.0577652 0
M  V30 22500 H 2084.45 3.97948 1.2156 0
M  V30 22501 H 2083.32 5.10259 2.02305 0
M  V30 22502 H 2083.58 3.50212 2.69823 0
M  V30 22503 N 2082.64 -0.0668159 1.57458 0
M  V30 22504 C 2083.89 -0.765025 1.87493 0
M  V30 22505 C 2084.22 -1.77326 0.799106 0
M  V30 22506 O 2083.47 -1.9463 -0.204353 0
M  V30 22507 C 2083.77 -1.5042 3.24204 0
M  V30 22508 C 2083.44 -0.635488 4.46399 0
M  V30 22509 C 2082.1 -0.396101 4.79567 0
M  V30 22510 C 2084.45 -0.0334012 5.21189 0
M  V30 22511 C 2081.78 0.454772 5.84935 0
M  V30 22512 C 2084.13 0.804955 6.27458 0
M  V30 22513 C 2082.8 1.05417 6.59123 0
M  V30 22514 H 2082.07 -0.279943 0.686085 0
M  V30 22515 H 2084.71 -0.0256766 1.91483 0
M  V30 22516 H 2083.02 -2.31589 3.16028 0
M  V30 22517 H 2084.71 -2.04932 3.44679 0
M  V30 22518 H 2081.3 -0.832201 4.20443 0
M  V30 22519 H 2085.49 -0.205452 4.95875 0
M  V30 22520 H 2080.74 0.656546 6.07865 0
M  V30 22521 H 2084.92 1.27821 6.84569 0
M  V30 22522 H 2082.55 1.71525 7.40596 0
M  V30 22523 N 2084.12 -1.53926 -0.338317 0
M  V30 22524 C 2085.53 -1.62818 -0.913629 0
M  V30 22525 C 2085.88 -0.512813 -1.8938 0
M  V30 22526 O 2085.01 0.356629 -2.13441 0
M  V30 22527 C 2085.6 -2.9513 -1.66385 0
M  V30 22528 C 2084.16 -3.06267 -2.1881 0
M  V30 22529 C 2083.31 -2.58298 -1.00884 0
M  V30 22530 H 2086.26 -1.58273 -0.116306 0
M  V30 22531 H 2086.28 -2.84463 -2.52708 0
M  V30 22532 H 2085.79 -3.76288 -0.950215 0
M  V30 22533 H 2083.89 -2.29753 -2.93333 0
M  V30 22534 H 2084.01 -4.11824 -2.44822 0
M  V30 22535 H 2082.37 -2.13832 -1.38376 0
M  V30 22536 H 2083.15 -3.419 -0.309757 0
M  V30 22537 N 2085.6 0.599608 -1.45748 0
M  V30 22538 C 2086.85 1.35838 -1.50181 0
M  V30 22539 C 2087.17 1.93946 -0.146709 0
M  V30 22540 O 2086.43 1.76004 0.85563 0
M  V30 22541 C 2086.73 2.51935 -2.53503 0
M  V30 22542 C 2086.39 2.11925 -3.97993 0
M  V30 22543 C 2085.06 2.00728 -4.37335 0
M  V30 22544 C 2087.41 1.8082 -4.88829 0
M  V30 22545 C 2084.74 1.56659 -5.65398 0
M  V30 22546 C 2087.09 1.38235 -6.17312 0
M  V30 22547 C 2085.75 1.25602 -6.55576 0
M  V30 22548 H 2085.02 0.497068 -0.54955 0
M  V30 22549 H 2087.67 0.676927 -1.79137 0
M  V30 22550 H 2085.97 3.25453 -2.18145 0
M  V30 22551 H 2087.67 3.10161 -2.54168 0
M  V30 22552 H 2084.26 2.21569 -3.66886 0
M  V30 22553 H 2088.45 1.88364 -4.59165 0
M  V30 22554 H 2083.7 1.45507 -5.93833 0
M  V30 22555 H 2087.88 1.13215 -6.87136 0
M  V30 22556 H 2085.5 0.912286 -7.54706 0
M  V30 22557 N 2087.08 1.33171 0.842803 0
M  V30 22558 C 2088.32 1.24405 1.5978 0
M  V30 22559 C 2088.65 -0.191163 1.93558 0
M  V30 22560 O 2087.91 -1.14732 1.5854 0
M  V30 22561 C 2088.21 2.06076 2.92006 0
M  V30 22562 C 2087.87 3.5531 2.77607 0
M  V30 22563 C 2086.53 3.95996 2.73387 0
M  V30 22564 C 2088.89 4.50158 2.62692 0
M  V30 22565 C 2086.21 5.29754 2.52147 0
M  V30 22566 C 2088.57 5.84073 2.42986 0
M  V30 22567 C 2087.23 6.23946 2.37166 0
M  V30 22568 H 2086.5 0.45523 0.584676 0
M  V30 22569 H 2089.15 1.64718 0.97674 0
M  V30 22570 H 2087.45 1.58528 3.58296 0
M  V30 22571 H 2089.15 1.96653 3.49469 0
M  V30 22572 H 2085.74 3.23003 2.81722 0
M  V30 22573 H 2089.92 4.19636 2.64989 0
M  V30 22574 H 2085.18 5.59689 2.46085 0
M  V30 22575 H 2089.35 6.57173 2.30427 0
M  V30 22576 H 2086.98 7.27529 2.20467 0
M  V30 22577 N 2088.56 -1.06056 1.16576 0
M  V30 22578 C 2089.8 -1.78899 0.94875 0
M  V30 22579 C 2090.13 -1.87329 -0.523266 0
M  V30 22580 O 2089.39 -1.36291 -1.40439 0
M  V30 22581 C 2089.68 -3.23265 1.52429 0
M  V30 22582 C 2089.35 -3.34911 3.01904 0
M  V30 22583 C 2088.01 -3.37796 3.42706 0
M  V30 22584 C 2090.36 -3.36636 3.97902 0
M  V30 22585 C 2087.69 -3.40025 4.78121 0
M  V30 22586 C 2090.04 -3.40403 5.33206 0
M  V30 22587 C 2088.71 -3.41572 5.73485 0
M  V30 22588 H 2087.98 -0.654639 0.347172 0
M  V30 22589 H 2090.63 -1.24708 1.45328 0
M  V30 22590 H 2088.93 -3.80326 0.94126 0
M  V30 22591 H 2090.63 -3.7823 1.33204 0
M  V30 22592 H 2087.22 -3.33372 2.69372 0
M  V30 22593 H 2091.4 -3.33615 3.67443 0
M  V30 22594 H 2086.66 -3.39236 5.08654 0
M  V30 22595 H 2090.83 -3.40686 6.07377 0
M  V30 22596 H 2088.46 -3.43052 6.78395 0
M  V30 22597 N 2090.03 -0.964615 -1.24631 0
M  V30 22598 C 2091.28 -0.625742 -1.92905 0
M  V30 22599 C 2091.61 0.836529 -1.75259 0
M  V30 22600 O 2090.89 1.60146 -1.10379 0
M  V30 22601 C 2091.17 -0.997473 -3.46009 0
M  V30 22602 C 2091.02 -2.51621 -3.72836 0
M  V30 22603 C 2092.34 -0.529778 -4.369 0
M  V30 22604 H 2089.46 -0.228804 -0.700584 0
M  V30 22605 H 2092.1 -1.20306 -1.47059 0
M  V30 22606 H 2090.25 -0.506207 -3.85188 0
M  V30 22607 H 2091.93 -3.082 -3.43235 0
M  V30 22608 H 2090.17 -2.94954 -3.18095 0
M  V30 22609 H 2090.84 -2.72681 -4.79947 0
M  V30 22610 H 2093.32 -0.951326 -4.05079 0
M  V30 22611 H 2092.19 -0.818472 -5.42764 0
M  V30 22612 H 2092.45 0.570178 -4.38408 0
M  V30 22613 N 2091.51 1.39445 -0.734362 0
M  V30 22614 C 2092.46 2.32452 -0.0830804 0
M  V30 22615 C 2093.45 1.53028 0.726556 0
M  V30 22616 O 2094.66 1.68697 0.627813 0
M  V30 22617 H 2091.03 0.751957 -0.00806559 0
M  V30 22618 H 2093.01 2.85008 -0.883901 0
M  V30 22619 C 2091.75 3.38121 0.810522 0
M  V30 22620 H 2091.08 3.99315 0.196919 0
M  V30 22621 H 2092.52 4.0565 1.23385 0
M  V30 22622 C 2090.98 2.75118 1.94453 0
M  V30 22623 O 2091.51 2.62913 3.0371 0
M  V30 22624 N 2089.71 2.33215 1.73376 0
M  V30 22625 H 2089.26 2.43341 0.845144 0
M  V30 22626 H 2089.22 1.914 2.49426 0
M  V30 22627 N 2092.99 0.481946 1.5005 0
M  V30 22628 C 2094.24 -0.0710199 2.01575 0
M  V30 22629 C 2094.55 -1.39798 1.36806 0
M  V30 22630 O 2095.76 -2.03653 1.79549 0
M  V30 22631 C 2094.21 -0.177064 3.59464 0
M  V30 22632 C 2093.82 1.14212 4.33197 0
M  V30 22633 C 2095.57 -0.681409 4.18995 0
M  V30 22634 C 2093.47 0.999274 5.82897 0
M  V30 22635 H 2092.4 -0.0303162 0.75339 0
M  V30 22636 H 2095.05 0.618487 1.72763 0
M  V30 22637 H 2093.44 -0.930598 3.8491 0
M  V30 22638 H 2094.61 1.90745 4.19467 0
M  V30 22639 H 2092.92 1.57841 3.85325 0
M  V30 22640 H 2095.52 -0.805484 5.28598 0
M  V30 22641 H 2095.86 -1.6755 3.81094 0
M  V30 22642 H 2096.4 0.015045 3.97797 0
M  V30 22643 H 2093.14 1.96706 6.2529 0
M  V30 22644 H 2092.66 0.274505 5.99172 0
M  V30 22645 H 2094.34 0.670265 6.43519 0
M  V30 22646 N 2094.47 -1.56127 0.214985 0
M  V30 22647 C 2095.71 -1.98129 -0.41849 0
M  V30 22648 C 2096.04 -1.10246 -1.60238 0
M  V30 22649 O 2095.3 -0.145925 -1.95155 0
M  V30 22650 C 2095.6 -3.45828 -0.902084 0
M  V30 22651 C 2095.26 -4.50577 0.170573 0
M  V30 22652 C 2093.92 -4.78945 0.465258 0
M  V30 22653 C 2096.28 -5.13434 0.896355 0
M  V30 22654 C 2093.6 -5.67455 1.49036 0
M  V30 22655 C 2095.96 -6.03053 1.91074 0
M  V30 22656 C 2094.62 -6.29768 2.21242 0
M  V30 22657 H 2093.89 -0.725004 -0.153136 0
M  V30 22658 H 2096.54 -1.88873 0.316127 0
M  V30 22659 H 2094.84 -3.52255 -1.71534 0
M  V30 22660 H 2096.54 -3.75694 -1.40196 0
M  V30 22661 H 2093.13 -4.28544 -0.0692657 0
M  V30 22662 H 2097.31 -4.91593 0.681928 0
M  V30 22663 H 2092.57 -5.8642 1.72978 0
M  V30 22664 H 2096.74 -6.50812 2.47824 0
M  V30 22665 H 2094.37 -6.9815 3.00817 0
M  V30 22666 N 2095.95 0.0584645 -1.57492 0
M  V30 22667 C 2097.19 0.75619 -1.88174 0
M  V30 22668 C 2097.52 1.76546 -0.809018 0
M  V30 22669 O 2096.8 1.93672 0.179286 0
M  V30 22670 C 2097.08 1.45223 -3.29518 0
M  V30 22671 C 2096.94 0.458472 -4.47457 0
M  V30 22672 C 2098.25 2.39381 -3.69303 0
M  V30 22673 H 2095.37 0.27344 -0.684397 0
M  V30 22674 H 2098.02 0.0191997 -1.8999 0
M  V30 22675 H 2096.17 2.08044 -3.28101 0
M  V30 22676 H 2097.84 -0.165547 -4.61003 0
M  V30 22677 H 2096.08 -0.225018 -4.33216 0
M  V30 22678 H 2096.75 0.983384 -5.4317 0
M  V30 22679 H 2099.23 1.86628 -3.719 0
M  V30 22680 H 2098.1 2.85078 -4.69065 0
M  V30 22681 H 2098.36 3.24775 -2.99956 0
M  V30 22682 N 2097.42 1.54103 0.330149 0
M  V30 22683 C 2098.39 1.82317 1.389 0
M  V30 22684 C 2099.39 0.694711 1.45019 0
M  V30 22685 O 2100.58 0.963016 1.45161 0
M  V30 22686 C 2097.71 1.97727 2.77699 0
M  V30 22687 H 2098.9 2.76916 1.15141 0
M  V30 22688 H 2096.45 1.4572 0.565276 0
M  V30 22689 H 2097.19 1.05316 3.06723 0
M  V30 22690 H 2096.97 2.79837 2.74652 0
M  V30 22691 H 2098.46 2.21026 3.54313 0
M  V30 22692 N 2098.9 -0.59187 1.46064 0
M  V30 22693 C 2099.83 -1.71199 1.58787 0
M  V30 22694 C 2100.81 -1.64348 0.438615 0
M  V30 22695 O 2102 -1.82506 0.663725 0
M  V30 22696 C 2099.13 -3.0983 1.56917 0
M  V30 22697 C 2098.08 -3.31505 2.70719 0
M  V30 22698 C 2097.41 -4.70569 2.53907 0
M  V30 22699 C 2098.71 -3.20228 4.12615 0
M  V30 22700 H 2100.4 -1.60807 2.5255 0
M  V30 22701 H 2097.95 -0.772206 1.21544 0
M  V30 22702 H 2099.9 -3.88003 1.64413 0
M  V30 22703 H 2098.63 -3.21099 0.596928 0
M  V30 22704 H 2097.28 -2.55727 2.62677 0
M  V30 22705 H 2096.93 -4.78592 1.54787 0
M  V30 22706 H 2096.63 -4.86025 3.30232 0
M  V30 22707 H 2098.16 -5.50923 2.6328 0
M  V30 22708 H 2099.57 -3.88257 4.21817 0
M  V30 22709 H 2097.97 -3.47209 4.89455 0
M  V30 22710 H 2099.04 -2.17437 4.33416 0
M  V30 22711 N 2100.38 -1.33616 -0.835729 0
M  V30 22712 C 2101.63 -1.24597 -1.58614 0
M  V30 22713 C 2101.94 0.185813 -1.94715 0
M  V30 22714 O 2103.15 0.398045 -2.68566 0
M  V30 22715 C 2101.6 -2.18339 -2.86105 0
M  V30 22716 C 2101.21 -3.66705 -2.57355 0
M  V30 22717 C 2102.96 -2.182 -3.64128 0
M  V30 22718 C 2100.86 -4.52352 -3.80962 0
M  V30 22719 H 2099.79 -0.462802 -0.595256 0
M  V30 22720 H 2102.44 -1.58701 -0.921212 0
M  V30 22721 H 2100.83 -1.77172 -3.54156 0
M  V30 22722 H 2102 -4.16331 -1.97496 0
M  V30 22723 H 2100.32 -3.69164 -1.92631 0
M  V30 22724 H 2102.91 -2.79417 -4.55884 0
M  V30 22725 H 2103.26 -1.17789 -3.99289 0
M  V30 22726 H 2103.79 -2.57745 -3.03005 0
M  V30 22727 H 2100.53 -5.5365 -3.5093 0
M  V30 22728 H 2100.05 -4.07467 -4.40149 0
M  V30 22729 H 2101.73 -4.66315 -4.48508 0
M  V30 22730 N 2101.86 1.05436 -1.17136 0
M  V30 22731 C 2103.11 1.77784 -0.952661 0
M  V30 22732 C 2103.42 1.88561 0.519999 0
M  V30 22733 O 2104.63 2.57625 0.856841 0
M  V30 22734 C 2103.08 3.19575 -1.65529 0
M  V30 22735 C 2102.69 3.16936 -3.16631 0
M  V30 22736 C 2104.43 3.96397 -1.51888 0
M  V30 22737 C 2102.34 4.535 -3.79594 0
M  V30 22738 H 2101.27 0.66637 -0.352799 0
M  V30 22739 H 2103.92 1.18197 -1.40363 0
M  V30 22740 H 2102.3 3.79474 -1.13205 0
M  V30 22741 H 2103.48 2.6657 -3.75869 0
M  V30 22742 H 2101.79 2.53614 -3.30256 0
M  V30 22743 H 2104.39 4.97363 -1.96302 0
M  V30 22744 H 2104.73 4.13649 -0.469072 0
M  V30 22745 H 2105.27 3.4304 -2.01416 0
M  V30 22746 H 2102.01 4.41453 -4.84561 0
M  V30 22747 H 2101.53 5.04026 -3.25143 0
M  V30 22748 H 2103.2 5.22444 -3.81656 0
M  V30 22749 N 2103.34 0.971211 1.24118 0
M  V30 22750 C 2104.59 0.630598 1.91589 0
M  V30 22751 C 2104.9 -0.838491 1.76716 0
M  V30 22752 O 2106.1 -1.28978 2.38908 0
M  V30 22753 C 2104.56 1.07723 3.434 0
M  V30 22754 C 2104.17 2.57002 3.66953 0
M  V30 22755 C 2105.91 0.809928 4.16702 0
M  V30 22756 C 2103.82 2.95379 5.12352 0
M  V30 22757 H 2102.75 0.232148 0.717373 0
M  V30 22758 H 2105.4 1.17789 1.40706 0
M  V30 22759 H 2103.78 0.458223 3.9334 0
M  V30 22760 H 2104.96 3.24062 3.27598 0
M  V30 22761 H 2103.27 2.8138 3.06944 0
M  V30 22762 H 2105.87 1.07262 5.23831 0
M  V30 22763 H 2106.21 -0.253899 4.15525 0
M  V30 22764 H 2106.74 1.39007 3.72722 0
M  V30 22765 H 2103.48 4.00847 5.18654 0
M  V30 22766 H 2103 2.33005 5.52692 0
M  V30 22767 H 2104.68 2.85478 5.80613 0
M  V30 22768 N 2104.81 -1.39054 0.741747 0
M  V30 22769 C 2106.04 -2.04668 0.303108 0
M  V30 22770 C 2106.46 -1.55933 -1.06444 0
M  V30 22771 O 2105.81 -0.72717 -1.67387 0
M  V30 22772 C 2105.87 -3.60224 0.303407 0
M  V30 22773 O 2105.59 -4.07167 1.61698 0
M  V30 22774 C 2107.09 -4.43044 -0.150565 0
M  V30 22775 H 2104.31 -0.658018 0.131353 0
M  V30 22776 H 2106.85 -1.77972 1.00729 0
M  V30 22777 H 2105.01 -3.85798 -0.351936 0
M  V30 22778 H 2105.42 -5.01532 1.53511 0
M  V30 22779 H 2106.89 -5.51911 -0.0991946 0
M  V30 22780 H 2107.37 -4.22581 -1.19674 0
M  V30 22781 H 2107.98 -4.22634 0.475463 0
M  V30 22782 N 2106.29 -0.489897 -1.49792 0
M  V30 22783 C 2107.54 0.0585441 -2.02415 0
M  V30 22784 C 2107.87 1.38015 -1.37048 0
M  V30 22785 O 2107.12 1.89427 -0.491526 0
M  V30 22786 C 2107.42 0.271059 -3.56371 0
M  V30 22787 C 2107.09 -0.971168 -4.40317 0
M  V30 22788 C 2105.75 -1.31171 -4.62977 0
M  V30 22789 C 2108.1 -1.79739 -4.89227 0
M  V30 22790 C 2105.43 -2.47819 -5.31792 0
M  V30 22791 C 2107.78 -2.95531 -5.59325 0
M  V30 22792 C 2106.45 -3.29978 -5.80234 0
M  V30 22793 H 2105.72 0.0214228 -0.74069 0
M  V30 22794 H 2108.36 -0.6478 -1.8021 0
M  V30 22795 H 2106.67 1.05983 -3.77193 0
M  V30 22796 H 2108.36 0.70968 -3.9467 0
M  V30 22797 H 2104.95 -0.695889 -4.22913 0
M  V30 22798 H 2109.14 -1.54746 -4.71559 0
M  V30 22799 H 2104.39 -2.74759 -5.46185 0
M  V30 22800 H 2108.57 -3.59885 -5.96201 0
M  V30 22801 H 2106.2 -4.2047 -6.33332 0
M  V30 22802 N 2107.77 1.56011 -0.223262 0
M  V30 22803 C 2108.7 2.17647 0.718502 0
M  V30 22804 C 2109.72 1.14602 1.15629 0
M  V30 22805 O 2110.9 1.41574 1.08715 0
M  V30 22806 C 2108 2.74665 1.98525 0
M  V30 22807 C 2107.18 4.02896 1.70275 0
M  V30 22808 C 2106.24 4.44462 2.81673 0
M  V30 22809 O 2105.26 5.11326 2.5007 0
M  V30 22810 N 2106.46 4.10287 4.10664 0
M  V30 22811 H 2109.23 2.99089 0.191253 0
M  V30 22812 H 2106.79 1.61845 -0.0423185 0
M  V30 22813 H 2108.78 2.99442 2.72244 0
M  V30 22814 H 2107.35 1.97516 2.42293 0
M  V30 22815 H 2106.57 3.85957 0.801915 0
M  V30 22816 H 2107.86 4.86545 1.48833 0
M  V30 22817 H 2107.26 3.5656 4.39183 0
M  V30 22818 H 2105.82 4.39952 4.80921 0
M  V30 22819 N 2109.25 -0.0501116 1.5752 0
M  V30 22820 C 2110.16 -1.07459 2.08542 0
M  V30 22821 C 2111.17 -1.41006 1.01947 0
M  V30 22822 O 2112.35 -1.50749 1.33555 0
M  V30 22823 C 2109.42 -2.36274 2.53723 0
M  V30 22824 C 2108.48 -2.095 3.74711 0
M  V30 22825 C 2107.71 -3.32174 4.17728 0
M  V30 22826 O 2107.93 -4.42091 3.60432 0
M  V30 22827 O 2106.87 -3.1911 5.10346 0
M  V30 22828 H 2110.69 -0.671065 2.96193 0
M  V30 22829 H 2108.28 -0.265709 1.47018 0
M  V30 22830 H 2110.16 -3.12043 2.83208 0
M  V30 22831 H 2108.83 -2.75963 1.69192 0
M  V30 22832 H 2107.74 -1.31366 3.50277 0
M  V30 22833 H 2109.07 -1.74679 4.60161 0
M  V30 22834 N 2110.73 -1.54276 -0.321972 0
M  V30 22835 C 2111.66 -1.80114 -1.41745 0
M  V30 22836 C 2112.67 -0.683177 -1.47772 0
M  V30 22837 O 2113.86 -0.960312 -1.50467 0
M  V30 22838 C 2110.96 -1.90532 -2.80269 0
M  V30 22839 C 2110.13 -3.20712 -2.97427 0
M  V30 22840 C 2109.19 -3.21811 -4.16322 0
M  V30 22841 O 2108.22 -3.95443 -4.09406 0
M  V30 22842 N 2109.42 -2.45708 -5.25935 0
M  V30 22843 H 2112.19 -2.74652 -1.19943 0
M  V30 22844 H 2109.75 -1.53592 -0.511965 0
M  V30 22845 H 2111.74 -1.88693 -3.58018 0
M  V30 22846 H 2110.31 -1.03083 -2.95115 0
M  V30 22847 H 2109.53 -3.35498 -2.06965 0
M  V30 22848 H 2110.82 -4.0666 -3.05786 0
M  V30 22849 H 2110.21 -1.85477 -5.34429 0
M  V30 22850 H 2108.77 -2.49645 -6.02097 0
M  V30 22851 N 2112.2 0.584116 -1.46376 0
M  V30 22852 C 2113.45 1.33973 -1.51313 0
M  V30 22853 C 2113.77 1.94294 -0.165758 0
M  V30 22854 O 2113.04 1.78481 0.807546 0
M  V30 22855 H 2111.62 0.497422 -0.557298 0
M  V30 22856 H 2114.29 0.684191 -1.82496 0
M  V30 22857 H 2113.38 2.14716 -2.26503 0
M  V30 22858 N 2113.68 1.34058 0.828631 0
M  V30 22859 C 2114.96 1.1668 1.56988 0
M  V30 22860 C 2115.34 -0.262846 2.09457 0
M  V30 22861 O 2114.69 -1.26337 1.90398 0
M  V30 22862 C 2114.9 2.21657 2.69572 0
M  V30 22863 C 2116.25 2.56341 3.38489 0
M  V30 22864 O 2117.27 2.20402 2.79824 0
M  V30 22865 O 2116.13 3.18053 4.44415 0
M  V30 22866 H 2113.22 0.451944 0.692586 0
M  V30 22867 H 2115.77 1.45672 0.870498 0
M  V30 22868 H 2114.54 3.17643 2.28515 0
M  V30 22869 H 2114.16 1.93809 3.47166 0
M  V30 22870 N 2115.16 -1.04814 1.17694 0
M  V30 22871 C 2116.11 -2.12651 0.897118 0
M  V30 22872 C 2117.08 -1.65323 -0.160501 0
M  V30 22873 O 2118.26 -1.90787 -0.0224765 0
M  V30 22874 C 2115.4 -3.42526 0.420731 0
M  V30 22875 C 2114.52 -4.03508 1.54291 0
M  V30 22876 C 2113.65 -5.21315 1.02001 0
M  V30 22877 C 2112.69 -5.74311 2.11738 0
M  V30 22878 N 2111.83 -6.83415 1.60897 0
M  V30 22879 H 2116.67 -2.35925 1.82054 0
M  V30 22880 H 2114.2 -1.15736 0.907948 0
M  V30 22881 H 2116.16 -4.1701 0.126057 0
M  V30 22882 H 2114.79 -3.19423 -0.46572 0
M  V30 22883 H 2113.84 -3.26425 1.95323 0
M  V30 22884 H 2115.16 -4.38876 2.37042 0
M  V30 22885 H 2114.31 -6.02884 0.679408 0
M  V30 22886 H 2113.05 -4.87431 0.161982 0
M  V30 22887 H 2112.05 -4.91369 2.46651 0
M  V30 22888 H 2113.28 -6.10242 2.97963 0
M  V30 22889 H 2111.23 -6.51421 0.773715 0
M  V30 22890 H 2111.14 -7.17807 2.37252 0
M  V30 22891 H 2112.41 -7.68627 1.29741 0
M  V30 22892 N 2116.64 -0.977779 -1.23601 0
M  V30 22893 C 2117.57 -0.460688 -2.23501 0
M  V30 22894 C 2118.55 0.470758 -1.55636 0
M  V30 22895 O 2119.73 0.39981 -1.84211 0
M  V30 22896 C 2116.86 0.333836 -3.37051 0
M  V30 22897 C 2115.91 -0.541367 -4.2305 0
M  V30 22898 S 2116.74 -1.98765 -4.97245 0
M  V30 22899 C 2117.9 -1.2022 -6.14246 0
M  V30 22900 H 2118.13 -1.30726 -2.67017 0
M  V30 22901 H 2115.66 -0.783573 -1.33039 0
M  V30 22902 H 2117.62 0.786244 -4.029 0
M  V30 22903 H 2116.28 1.1555 -2.92074 0
M  V30 22904 H 2115.47 0.0691671 -5.03953 0
M  V30 22905 H 2115.08 -0.929914 -3.62255 0
M  V30 22906 H 2117.37 -0.46221 -6.75921 0
M  V30 22907 H 2118.31 -1.98596 -6.7968 0
M  V30 22908 H 2118.72 -0.722133 -5.59862 0
M  V30 22909 N 2118.12 1.38658 -0.749111 0
M  V30 22910 C 2119.05 2.28102 -0.0669266 0
M  V30 22911 C 2120.03 1.4514 0.73301 0
M  V30 22912 O 2121.21 1.74512 0.712587 0
M  V30 22913 C 2118.34 3.26187 0.912124 0
M  V30 22914 C 2117.39 4.26036 0.198966 0
M  V30 22915 S 2118.22 5.24141 -1.09709 0
M  V30 22916 C 2119.37 6.25783 -0.120993 0
M  V30 22917 H 2119.61 2.85612 -0.825411 0
M  V30 22918 H 2117.14 1.44593 -0.541501 0
M  V30 22919 H 2119.1 3.83213 1.47167 0
M  V30 22920 H 2117.76 2.67668 1.64355 0
M  V30 22921 H 2116.95 4.95151 0.940303 0
M  V30 22922 H 2116.55 3.72882 -0.288934 0
M  V30 22923 H 2118.85 6.73721 0.714567 0
M  V30 22924 H 2119.79 7.03794 -0.779679 0
M  V30 22925 H 2120.2 5.63911 0.257705 0
M  V30 22926 N 2119.6 0.497834 1.49531 0
M  V30 22927 C 2120.51 -0.286926 2.32839 0
M  V30 22928 C 2121.52 -0.970397 1.44427 0
M  V30 22929 O 2122.7 -0.952478 1.77454 0
M  V30 22930 C 2119.76 -1.33928 3.19788 0
M  V30 22931 C 2118.82 -0.669588 4.24046 0
M  V30 22932 C 2118.06 -1.67181 5.0684 0
M  V30 22933 O 2118.28 -2.90132 4.91101 0
M  V30 22934 O 2117.21 -1.22887 5.89222 0
M  V30 22935 H 2121.04 0.394869 3.01122 0
M  V30 22936 H 2118.62 0.259218 1.47134 0
M  V30 22937 H 2120.51 -1.94822 3.73661 0
M  V30 22938 H 2119.18 -2.00407 2.54202 0
M  V30 22939 H 2118.09 -0.0209922 3.74094 0
M  V30 22940 H 2119.42 -0.0473067 4.92177 0
M  V30 22941 N 2121.07 -1.5589 0.231532 0
M  V30 22942 C 2121.98 -2.24359 -0.685566 0
M  V30 22943 C 2123 -1.25454 -1.20571 0
M  V30 22944 O 2124.18 -1.58292 -1.24522 0
M  V30 22945 C 2121.24 -2.91783 -1.87252 0
M  V30 22946 C 2120.3 -4.06059 -1.39337 0
M  V30 22947 C 2119.53 -4.70258 -2.52375 0
M  V30 22948 O 2119.76 -4.33477 -3.70747 0
M  V30 22949 O 2118.69 -5.59063 -2.23008 0
M  V30 22950 H 2122.52 -3.03412 -0.132235 0
M  V30 22951 H 2120.1 -1.494 0.000664697 0
M  V30 22952 H 2121.98 -3.34305 -2.56551 0
M  V30 22953 H 2120.66 -2.15683 -2.41377 0
M  V30 22954 H 2119.57 -3.68086 -0.668112 0
M  V30 22955 H 2120.9 -4.83932 -0.898393 0
M  V30 22956 N 2122.55 0.0417572 -1.57545 0
M  V30 22957 C 2123.79 0.740092 -1.90531 0
M  V30 22958 C 2124.16 1.73194 -0.828727 0
M  V30 22959 O 2125.36 2.47759 -1.04254 0
M  V30 22960 C 2123.63 1.40329 -3.28698 0
M  V30 22961 S 2125.19 2.13254 -3.83495 0
M  V30 22962 H 2122 0.245468 -0.667283 0
M  V30 22963 H 2124.61 -0.00488991 -1.95499 0
M  V30 22964 H 2123.31 0.668013 -4.04927 0
M  V30 22965 H 2122.84 2.18709 -3.27002 0
M  V30 22966 H 2124.86 3.4022 -3.61199 0
M  V30 22967 N 2124.03 1.54445 0.313786 0
M  V30 22968 C 2125.25 1.77413 1.07421 0
M  V30 22969 C 2125.68 0.525885 1.80599 0
M  V30 22970 O 2125.04 -0.523027 1.73592 0
M  V30 22971 C 2125.09 2.97322 2.04039 0
M  V30 22972 O 2124.19 2.69552 3.12115 0
M  V30 22973 H 2123.53 0.587597 0.309235 0
M  V30 22974 H 2126.06 2.01495 0.355102 0
M  V30 22975 H 2126.07 3.2494 2.46735 0
M  V30 22976 H 2124.75 3.87839 1.5018 0
M  V30 22977 H 2123.32 2.52913 2.74025 0
M  V30 22978 N 2125.51 -0.576345 1.46683 0
M  V30 22979 C 2126.44 -1.69505 1.60594 0
M  V30 22980 C 2127.42 -1.63873 0.456022 0
M  V30 22981 O 2128.6 -1.81791 0.683045 0
M  V30 22982 C 2125.73 -3.08148 1.60194 0
M  V30 22983 C 2124.69 -3.28615 2.7422 0
M  V30 22984 C 2124.01 -4.6785 2.58884 0
M  V30 22985 C 2125.31 -3.15834 4.15989 0
M  V30 22986 H 2127.01 -1.58119 2.54241 0
M  V30 22987 H 2124.55 -0.759271 1.22356 0
M  V30 22988 H 2126.51 -3.86237 1.68519 0
M  V30 22989 H 2125.23 -3.20447 0.630952 0
M  V30 22990 H 2123.89 -2.52927 2.65375 0
M  V30 22991 H 2123.54 -4.76923 1.59854 0
M  V30 22992 H 2123.24 -4.82495 3.35368 0
M  V30 22993 H 2124.76 -5.48099 2.69109 0
M  V30 22994 H 2126.18 -3.83761 4.25911 0
M  V30 22995 H 2124.57 -3.41998 4.9311 0
M  V30 22996 H 2125.64 -2.12828 4.35698 0
M  V30 22997 N 2126.99 -1.34495 -0.82151 0
M  V30 22998 C 2127.9 -1.28265 -1.96431 0
M  V30 22999 C 2128.91 -0.190092 -1.72959 0
M  V30 23000 O 2130.09 -0.416817 -1.9704 0
M  V30 23001 C 2127.15 -1.03935 -3.30754 0
M  V30 23002 C 2126.21 -2.22361 -3.67225 0
M  V30 23003 C 2125.45 -1.99182 -4.95139 0
M  V30 23004 O 2125.67 -0.950771 -5.6242 0
M  V30 23005 O 2124.6 -2.86169 -5.2952 0
M  V30 23006 H 2128.43 -2.2441 -2.04631 0
M  V30 23007 H 2126.01 -1.14716 -0.957114 0
M  V30 23008 H 2127.9 -0.921538 -4.112 0
M  V30 23009 H 2126.57 -0.108311 -3.23519 0
M  V30 23010 H 2125.48 -2.39702 -2.87217 0
M  V30 23011 H 2126.81 -3.1386 -3.79147 0
M  V30 23012 N 2128.46 1.04188 -1.18248 0
M  V30 23013 C 2129.41 2.12172 -0.908383 0
M  V30 23014 C 2130.38 1.65406 0.151732 0
M  V30 23015 O 2131.57 1.90796 0.0123583 0
M  V30 23016 C 2128.71 3.42298 -0.43889 0
M  V30 23017 C 2127.82 4.02684 -1.56428 0
M  V30 23018 C 2126.95 5.20767 -1.04764 0
M  V30 23019 C 2125.99 5.7318 -2.14781 0
M  V30 23020 N 2125.13 6.82553 -1.64519 0
M  V30 23021 H 2129.97 2.34956 -1.83302 0
M  V30 23022 H 2127.51 1.15252 -0.914073 0
M  V30 23023 H 2129.47 4.16937 -0.14817 0
M  V30 23024 H 2128.1 3.19665 0.448774 0
M  V30 23025 H 2127.15 3.25384 -1.97051 0
M  V30 23026 H 2128.46 4.37613 -2.39366 0
M  V30 23027 H 2127.61 6.02515 -0.711371 0
M  V30 23028 H 2126.35 4.87338 -0.18783 0
M  V30 23029 H 2125.36 4.90054 -2.49253 0
M  V30 23030 H 2126.58 6.08653 -3.01195 0
M  V30 23031 H 2124.53 6.51002 -0.808251 0
M  V30 23032 H 2124.45 7.16539 -2.41056 0
M  V30 23033 H 2125.71 7.67928 -1.33815 0
M  V30 23034 N 2129.94 0.98432 1.23081 0
M  V30 23035 C 2130.89 0.520259 2.26707 0
M  V30 23036 C 2131.88 -0.424715 1.63989 0
M  V30 23037 O 2133.09 -0.298177 1.77513 0
M  V30 23038 H 2129.47 0.149826 0.736923 0
M  V30 23039 H 2131.44 1.40587 2.63207 0
M  V30 23040 C 2130.19 -0.157874 3.47341 0
M  V30 23041 H 2129.51 0.560186 3.95856 0
M  V30 23042 H 2130.95 -0.446157 4.21646 0
M  V30 23043 C 2129.41 -1.3904 3.0687 0
M  V30 23044 O 2129.94 -2.48637 3.15503 0
M  V30 23045 N 2128.14 -1.26249 2.61743 0
M  V30 23046 H 2127.69 -0.370736 2.54918 0
M  V30 23047 H 2127.65 -2.08824 2.35032 0
M  V30 23048 N 2131.42 -1.38259 0.756453 0
M  V30 23049 C 2132.33 -2.34224 0.132796 0
M  V30 23050 C 2133.35 -1.59415 -0.697351 0
M  V30 23051 O 2134.52 -1.91592 -0.620838 0
M  V30 23052 C 2131.59 -3.38542 -0.747682 0
M  V30 23053 C 2130.65 -4.2919 0.097166 0
M  V30 23054 C 2129.88 -5.28526 -0.741383 0
M  V30 23055 O 2130.1 -5.34959 -1.97926 0
M  V30 23056 O 2129.04 -6.01691 -0.158669 0
M  V30 23057 H 2132.86 -2.89257 0.925409 0
M  V30 23058 H 2130.45 -1.40155 0.517388 0
M  V30 23059 H 2132.33 -4.02409 -1.25081 0
M  V30 23060 H 2131.01 -2.8586 -1.51874 0
M  V30 23061 H 2129.91 -3.68475 0.646311 0
M  V30 23062 H 2131.25 -4.85135 0.830947 0
M  V30 23063 N 2132.9 -0.505757 -1.49264 0
M  V30 23064 C 2134.31 -0.162021 -1.58775 0
M  V30 23065 C 2134.51 1.33366 -1.51048 0
M  V30 23066 O 2133.57 2.11001 -1.3869 0
M  V30 23067 C 2134.88 -0.743046 -2.91375 0
M  V30 23068 C 2136.43 -0.709582 -3.04851 0
M  V30 23069 C 2136.91 -1.26875 -4.40076 0
M  V30 23070 N 2138.4 -1.22966 -4.4658 0
M  V30 23071 C 2139.13 -1.63246 -5.49671 0
M  V30 23072 N 2138.63 -2.11141 -6.59842 0
M  V30 23073 N 2140.42 -1.54633 -5.40412 0
M  V30 23074 H 2132.57 -1.47812 -1.5253 0
M  V30 23075 H 2134.84 -0.613391 -0.722811 0
M  V30 23076 H 2134.54 -1.79218 -3.02612 0
M  V30 23077 H 2134.42 -0.206195 -3.76636 0
M  V30 23078 H 2136.8 0.330725 -2.93241 0
M  V30 23079 H 2136.88 -1.28363 -2.21261 0
M  V30 23080 H 2136.53 -2.30787 -4.52438 0
M  V30 23081 H 2136.46 -0.670599 -5.22313 0
M  V30 23082 H 2138.95 -0.878781 -3.6754 0
M  V30 23083 H 2139.26 -2.39934 -7.3461 0
M  V30 23084 H 2137.61 -2.15119 -6.6087 0
M  V30 23085 H 2140.8 -1.1703 -4.53235 0
M  V30 23086 H 2140.97 -1.86347 -6.20628 0
M  V30 23087 N 2134.38 1.55765 -0.239796 0
M  V30 23088 C 2135.34 2.19809 0.649364 0
M  V30 23089 C 2136.34 1.16526 1.10808 0
M  V30 23090 O 2137.53 1.41651 1.01394 0
M  V30 23091 C 2134.66 2.83599 1.89168 0
M  V30 23092 H 2135.85 2.99763 0.0907114 0
M  V30 23093 H 2133.41 1.56297 0.00977153 0
M  V30 23094 H 2134.14 2.07564 2.49174 0
M  V30 23095 H 2133.93 3.5925 1.57104 0
M  V30 23096 H 2135.42 3.32634 2.52477 0
M  V30 23097 N 2135.85 -0.0334016 1.57565 0
M  V30 23098 C 2137.09 -0.729978 1.90921 0
M  V30 23099 C 2137.46 -1.72752 0.8379 0
M  V30 23100 O 2138.66 -2.47203 1.05566 0
M  V30 23101 C 2136.93 -1.38584 3.29438 0
M  V30 23102 S 2138.49 -2.11217 3.8462 0
M  V30 23103 H 2135.31 -0.241926 0.668575 0
M  V30 23104 H 2137.91 0.0152577 1.95494 0
M  V30 23105 H 2136.61 -0.64653 4.05275 0
M  V30 23106 H 2136.14 -2.16971 3.28157 0
M  V30 23107 H 2138.16 -3.383 3.62998 0
M  V30 23108 N 2137.33 -1.54609 -0.305591 0
M  V30 23109 C 2138.58 -1.72882 -1.03898 0
M  V30 23110 C 2138.89 -0.519195 -1.88583 0
M  V30 23111 O 2140.1 -0.583633 -2.65153 0
M  V30 23112 C 2138.56 -3.05853 -1.89689 0
M  V30 23113 C 2138.16 -4.34278 -1.10029 0
M  V30 23114 C 2139.91 -3.33485 -2.62656 0
M  V30 23115 C 2137.82 -5.58302 -1.9507 0
M  V30 23116 H 2136.75 -0.64432 -0.391621 0
M  V30 23117 H 2139.4 -1.81093 -0.296223 0
M  V30 23118 H 2137.78 -2.91594 -2.67935 0
M  V30 23119 H 2138.95 -4.59358 -0.364293 0
M  V30 23120 H 2137.27 -4.13546 -0.486653 0
M  V30 23121 H 2139.86 -4.23345 -3.26624 0
M  V30 23122 H 2140.21 -2.52157 -3.31244 0
M  V30 23123 H 2140.74 -3.48694 -1.91462 0
M  V30 23124 H 2137.48 -6.42285 -1.3096 0
M  V30 23125 H 2137 -5.37415 -2.66355 0
M  V30 23126 H 2138.68 -5.95386 -2.53228 0
M  V30 23127 N 2138.81 0.568558 -1.46987 0
M  V30 23128 C 2140.09 1.3291 -1.43507 0
M  V30 23129 C 2140.47 2.10724 -0.12598 0
M  V30 23130 O 2139.82 2.10348 0.892528 0
M  V30 23131 C 2140.03 2.2432 -2.6736 0
M  V30 23132 C 2141.37 2.85701 -3.14102 0
M  V30 23133 O 2142.4 2.34627 -2.68009 0
M  V30 23134 O 2141.26 3.78504 -3.94204 0
M  V30 23135 H 2138.35 0.597891 -0.571363 0
M  V30 23136 H 2140.9 0.588401 -1.59173 0
M  V30 23137 H 2139.67 1.66345 -3.54182 0
M  V30 23138 H 2139.29 3.05705 -2.54224 0
M  V30 23139 N 2140.29 1.34929 0.814366 0
M  V30 23140 C 2141.54 1.27766 1.57105 0
M  V30 23141 C 2141.86 -0.150063 1.9392 0
M  V30 23142 O 2141.12 -1.11344 1.60938 0
M  V30 23143 C 2141.42 2.12223 2.87569 0
M  V30 23144 C 2141.08 3.61119 2.70008 0
M  V30 23145 C 2139.75 4.01706 2.64926 0
M  V30 23146 C 2142.1 4.55629 2.53084 0
M  V30 23147 C 2139.43 5.34983 2.40853 0
M  V30 23148 C 2141.78 5.89095 2.30542 0
M  V30 23149 C 2140.44 6.28836 2.23877 0
M  V30 23150 H 2139.71 0.46753 0.574889 0
M  V30 23151 H 2142.36 1.66753 0.941581 0
M  V30 23152 H 2140.66 1.66092 3.54853 0
M  V30 23153 H 2142.36 2.04022 3.45219 0
M  V30 23154 H 2138.95 3.28906 2.74807 0
M  V30 23155 H 2143.13 4.25163 2.56028 0
M  V30 23156 H 2138.39 5.64783 2.34158 0
M  V30 23157 H 2142.56 6.61913 2.16436 0
M  V30 23158 H 2140.19 7.32042 2.04986 0
M  V30 23159 N 2141.77 -1.0356 1.18799 0
M  V30 23160 C 2142.73 -2.09853 0.921649 0
M  V30 23161 C 2143.73 -1.60519 -0.095096 0
M  V30 23162 O 2144.92 -1.73645 0.138909 0
M  V30 23163 C 2142.05 -3.38733 0.383809 0
M  V30 23164 H 2143.24 -2.34914 1.86428 0
M  V30 23165 H 2140.8 -1.20064 1.00071 0
M  V30 23166 H 2141.53 -3.19337 -0.565188 0
M  V30 23167 H 2141.32 -3.75859 1.11681 0
M  V30 23168 H 2142.81 -4.17039 0.216329 0
M  V30 23169 N 2143.25 -0.990834 -1.22557 0
M  V30 23170 C 2144.49 -0.660998 -1.90562 0
M  V30 23171 C 2144.81 0.810271 -1.78028 0
M  V30 23172 O 2146.01 1.2516 -2.4093 0
M  V30 23173 C 2144.47 -1.13172 -3.41643 0
M  V30 23174 C 2144.08 -2.62807 -3.62817 0
M  V30 23175 C 2145.82 -0.876119 -4.15361 0
M  V30 23176 C 2143.73 -3.03493 -5.07588 0
M  V30 23177 H 2142.66 -0.243531 -0.713589 0
M  V30 23178 H 2145.31 -1.20012 -1.38814 0
M  V30 23179 H 2143.69 -0.520742 -3.92561 0
M  V30 23180 H 2144.87 -3.29233 -3.22401 0
M  V30 23181 H 2143.18 -2.86227 -3.02428 0
M  V30 23182 H 2145.78 -1.15582 -5.22058 0
M  V30 23183 H 2146.12 0.187761 -4.15876 0
M  V30 23184 H 2146.65 -1.44919 -3.70464 0
M  V30 23185 H 2143.39 -4.09048 -5.12211 0
M  V30 23186 H 2142.91 -2.41769 -5.48915 0
M  V30 23187 H 2144.59 -2.94679 -5.75998 0
M  V30 23188 N 2144.72 1.37856 -0.763775 0
M  V30 23189 C 2145.95 2.04686 -0.334395 0
M  V30 23190 C 2146.37 1.57229 1.0325 0
M  V30 23191 O 2145.73 0.728884 1.66003 0
M  V30 23192 C 2145.78 3.58616 -0.377715 0
M  V30 23193 O 2144.88 4.07641 0.624687 0
M  V30 23194 H 2144.22 0.647714 -0.146161 0
M  V30 23195 H 2146.75 1.76329 -1.03774 0
M  V30 23196 H 2146.76 4.07339 -0.232185 0
M  V30 23197 H 2145.44 3.92514 -1.37496 0
M  V30 23198 H 2144.02 3.7026 0.442931 0
M  V30 23199 N 2146.2 0.513665 1.48994 0
M  V30 23200 C 2147.16 -0.247066 2.27864 0
M  V30 23201 C 2148.16 -0.882574 1.34415 0
M  V30 23202 O 2149.35 -0.745145 1.57459 0
M  V30 23203 C 2146.49 -1.35575 3.12782 0
M  V30 23204 H 2147.68 0.445185 2.96577 0
M  V30 23205 H 2145.23 0.269045 1.53967 0
M  V30 23206 H 2145.97 -2.08176 2.48663 0
M  V30 23207 H 2145.75 -0.905368 3.81504 0
M  V30 23208 H 2147.24 -1.89127 3.72318 0
M  V30 23209 N 2147.68 -1.55636 0.248053 0
M  V30 23210 C 2148.63 -2.21428 -0.651012 0
M  V30 23211 C 2149.6 -1.17855 -1.17045 0
M  V30 23212 O 2150.78 -1.46306 -1.22471 0
M  V30 23213 C 2147.92 -2.91846 -1.84174 0
M  V30 23214 C 2147.03 -4.10077 -1.35872 0
M  V30 23215 C 2146.17 -4.68207 -2.50909 0
M  V30 23216 C 2145.21 -5.78685 -1.99475 0
M  V30 23217 N 2144.35 -6.30993 -3.07883 0
M  V30 23218 H 2149.19 -2.97884 -0.0832758 0
M  V30 23219 H 2146.72 -1.47071 -0.0293424 0
M  V30 23220 H 2148.68 -3.30873 -2.54124 0
M  V30 23221 H 2147.31 -2.17862 -2.38193 0
M  V30 23222 H 2146.36 -3.76356 -0.553219 0
M  V30 23223 H 2147.67 -4.89829 -0.941776 0
M  V30 23224 H 2146.83 -5.09814 -3.28899 0
M  V30 23225 H 2145.57 -3.87674 -2.95905 0
M  V30 23226 H 2144.57 -5.36555 -1.19955 0
M  V30 23227 H 2145.8 -6.6107 -1.55447 0
M  V30 23228 H 2143.74 -5.53365 -3.52312 0
M  V30 23229 H 2143.66 -7.05941 -2.70523 0
M  V30 23230 H 2144.93 -6.77258 -3.8593 0
M  V30 23231 N 2149.16 0.0250451 -1.5758 0
M  V30 23232 C 2150.57 0.571131 -1.7775 0
M  V30 23233 C 2150.92 1.75376 -0.879637 0
M  V30 23234 O 2150.04 2.16268 -0.0755171 0
M  V30 23235 C 2150.64 1.04287 -3.2235 0
M  V30 23236 C 2149.2 1.53444 -3.43703 0
M  V30 23237 C 2148.35 0.474313 -2.73213 0
M  V30 23238 H 2151.3 -0.201177 -1.5742 0
M  V30 23239 H 2151.32 1.91005 -3.29085 0
M  V30 23240 H 2150.83 0.181922 -3.87673 0
M  V30 23241 H 2148.93 2.41711 -2.83561 0
M  V30 23242 H 2149.04 1.57917 -4.52326 0
M  V30 23243 H 2147.41 0.93027 -2.37103 0
M  V30 23244 H 2148.19 -0.377237 -3.41221 0
M  V30 23245 N 2150.64 1.54769 0.297388 0
M  V30 23246 C 2151.57 1.88972 1.37157 0
M  V30 23247 C 2152.55 0.748993 1.52722 0
M  V30 23248 O 2153.73 1.00504 1.6617 0
M  V30 23249 C 2150.86 2.1402 2.73519 0
M  V30 23250 C 2149.82 3.29865 2.72714 0
M  V30 23251 C 2149.14 3.4034 4.12399 0
M  V30 23252 C 2150.44 4.66881 2.34135 0
M  V30 23253 H 2152.14 2.7894 1.0878 0
M  V30 23254 H 2149.68 1.34212 0.521848 0
M  V30 23255 H 2151.63 2.36533 3.48755 0
M  V30 23256 H 2150.36 1.20827 3.03428 0
M  V30 23257 H 2149.02 3.07281 1.99934 0
M  V30 23258 H 2148.67 2.44657 4.3949 0
M  V30 23259 H 2148.37 4.18214 4.1276 0
M  V30 23260 H 2149.89 3.65118 4.89409 0
M  V30 23261 H 2151.3 4.89101 2.99087 0
M  V30 23262 H 2149.7 5.47495 2.45703 0
M  V30 23263 H 2150.77 4.67354 1.29261 0
M  V30 23264 N 2152.11 -0.560755 1.47286 0
M  V30 23265 C 2153.34 -1.34358 1.57339 0
M  V30 23266 C 2153.76 -1.87487 0.222299 0
M  V30 23267 O 2153.11 -1.64806 -0.78391 0
M  V30 23268 C 2153.16 -2.51596 2.5958 0
M  V30 23269 O 2152.89 -2.00664 3.89443 0
M  V30 23270 C 2154.39 -3.43856 2.79783 0
M  V30 23271 H 2151.61 -0.409692 0.531407 0
M  V30 23272 H 2154.15 -0.679628 1.92876 0
M  V30 23273 H 2152.31 -3.13936 2.26986 0
M  V30 23274 H 2152.72 -2.77175 4.4528 0
M  V30 23275 H 2154.19 -4.22542 3.55193 0
M  V30 23276 H 2154.67 -3.97177 1.87477 0
M  V30 23277 H 2155.28 -2.87333 3.1356 0
M  V30 23278 N 2153.59 -1.35359 -0.807199 0
M  V30 23279 C 2155.01 -1.15384 -1.10266 0
M  V30 23280 C 2155.21 0.0341061 -2.01471 0
M  V30 23281 O 2154.26 0.704898 -2.42461 0
M  V30 23282 C 2155.58 -2.45652 -1.73423 0
M  V30 23283 C 2157.12 -2.51853 -1.85847 0
M  V30 23284 C 2157.6 -3.82163 -2.5242 0
M  V30 23285 N 2159.09 -3.83411 -2.59905 0
M  V30 23286 C 2159.83 -4.80967 -3.12183 0
M  V30 23287 N 2159.32 -5.88912 -3.64903 0
M  V30 23288 N 2161.11 -4.68405 -3.1073 0
M  V30 23289 H 2153.27 -2.11448 -0.200891 0
M  V30 23290 H 2155.53 -0.935782 -0.151711 0
M  V30 23291 H 2155.23 -3.32755 -1.13874 0
M  V30 23292 H 2155.11 -2.60154 -2.73129 0
M  V30 23293 H 2157.5 -1.6518 -2.4454 0
M  V30 23294 H 2157.58 -2.41265 -0.84998 0
M  V30 23295 H 2157.22 -4.69234 -1.94376 0
M  V30 23296 H 2157.15 -3.90039 -3.53804 0
M  V30 23297 H 2159.64 -3.05415 -2.22553 0
M  V30 23298 H 2159.95 -6.59346 -4.03091 0
M  V30 23299 H 2158.3 -5.92605 -3.63104 0
M  V30 23300 H 2161.49 -3.83215 -2.6882 0
M  V30 23301 H 2161.66 -5.44598 -3.51166 0
M  V30 23302 N 2155.07 1.02928 -1.19346 0
M  V30 23303 C 2156.3 1.79687 -1.01961 0
M  V30 23304 C 2156.71 1.84137 0.434779 0
M  V30 23305 O 2156.05 1.28397 1.31377 0
M  V30 23306 C 2156.11 3.26152 -1.51213 0
M  V30 23307 C 2155.78 3.45338 -2.99317 0
M  V30 23308 C 2156.77 3.35591 -3.97083 0
M  V30 23309 C 2154.46 3.71566 -3.38 0
M  V30 23310 C 2156.45 3.51795 -5.31525 0
M  V30 23311 C 2154.14 3.87415 -4.72602 0
M  V30 23312 C 2155.14 3.77532 -5.69174 0
M  V30 23313 O 2154.83 3.92914 -7.01337 0
M  V30 23314 H 2154.56 0.572339 -0.359729 0
M  V30 23315 H 2157.11 1.30533 -1.58588 0
M  V30 23316 H 2155.34 3.76328 -0.889605 0
M  V30 23317 H 2157.03 3.84505 -1.30042 0
M  V30 23318 H 2157.8 3.1528 -3.68542 0
M  V30 23319 H 2153.68 3.78351 -2.63385 0
M  V30 23320 H 2157.22 3.43997 -6.06887 0
M  V30 23321 H 2153.12 4.07223 -5.00839 0
M  V30 23322 H 2153.88 4.10007 -7.08404 0
M  V30 23323 N 2156.55 0.997319 1.2203 0
M  V30 23324 C 2157.48 0.496186 2.2274 0
M  V30 23325 C 2158.46 -0.445938 1.56365 0
M  V30 23326 O 2159.64 -0.370453 1.84824 0
M  V30 23327 C 2156.77 -0.280171 3.37539 0
M  V30 23328 C 2155.82 0.608603 4.22135 0
M  V30 23329 S 2156.65 2.06651 4.9402 0
M  V30 23330 C 2157.8 1.29977 6.12256 0
M  V30 23331 H 2158.04 1.34957 2.64903 0
M  V30 23332 H 2155.57 0.80464 1.31776 0
M  V30 23333 H 2157.53 -0.722047 4.041 0
M  V30 23334 H 2156.19 -1.10889 2.93875 0
M  V30 23335 H 2155.38 0.0110161 5.03999 0
M  V30 23336 H 2154.98 0.987428 3.6073 0
M  V30 23337 H 2157.28 0.569685 6.75101 0
M  V30 23338 H 2158.22 2.09383 6.76435 0
M  V30 23339 H 2158.63 0.811111 5.58642 0
M  V30 23340 N 2158.03 -1.37449 0.771075 0
M  V30 23341 C 2159.44 -1.82352 0.400585 0
M  V30 23342 C 2159.79 -1.64247 -1.07318 0
M  V30 23343 O 2158.91 -1.15322 -1.83111 0
M  V30 23344 C 2159.51 -3.31054 0.720312 0
M  V30 23345 C 2158.07 -3.74238 0.402886 0
M  V30 23346 C 2157.21 -2.59986 0.964497 0
M  V30 23347 H 2160.17 -1.2593 0.965782 0
M  V30 23348 H 2160.19 -3.805 0.00472604 0
M  V30 23349 H 2159.7 -3.44199 1.793 0
M  V30 23350 H 2157.8 -3.66663 -0.662511 0
M  V30 23351 H 2157.91 -4.70365 0.910666 0
M  V30 23352 H 2156.28 -2.51715 0.388782 0
M  V30 23353 H 2157.06 -2.75924 2.04257 0
M  V30 23354 N 2159.5 -0.52156 -1.4872 0
M  V30 23355 C 2160.44 0.282802 -2.27449 0
M  V30 23356 C 2161.45 0.912106 -1.3485 0
M  V30 23357 O 2162.64 0.79197 -1.59969 0
M  V30 23358 C 2159.74 1.41494 -3.07949 0
M  V30 23359 C 2158.91 0.889125 -4.28268 0
M  V30 23360 C 2157.97 1.90136 -4.90647 0
M  V30 23361 O 2157 1.46166 -5.50113 0
M  V30 23362 N 2158.2 3.23306 -4.82134 0
M  V30 23363 H 2160.96 -0.392372 -2.9712 0
M  V30 23364 H 2158.52 -0.355365 -1.57952 0
M  V30 23365 H 2160.52 2.09008 -3.46551 0
M  V30 23366 H 2159.09 1.99391 -2.40753 0
M  V30 23367 H 2158.31 0.0382432 -3.94181 0
M  V30 23368 H 2159.59 0.516566 -5.06171 0
M  V30 23369 H 2158.99 3.61702 -4.34958 0
M  V30 23370 H 2157.55 3.86477 -5.24861 0
M  V30 23371 N 2160.98 1.55502 -0.256304 0
M  V30 23372 C 2161.93 2.23175 0.655412 0
M  V30 23373 C 2162.92 1.22244 1.17272 0
M  V30 23374 O 2164.13 1.40229 1.12853 0
M  V30 23375 H 2160.51 0.716007 0.229866 0
M  V30 23376 H 2162.48 2.98336 0.0616012 0
M  V30 23377 C 2161.23 2.95209 1.83704 0
M  V30 23378 H 2160.55 3.72651 1.44814 0
M  V30 23379 H 2161.99 3.45909 2.452 0
M  V30 23380 C 2160.45 1.99611 2.71398 0
M  V30 23381 O 2160.98 1.53521 3.71207 0
M  V30 23382 N 2159.18 1.66511 2.38165 0
M  V30 23383 H 2158.73 2.04188 1.57051 0
M  V30 23384 H 2158.69 1.02816 2.97113 0
M  V30 23385 N 2162.46 -0.0166879 1.57591 0
M  V30 23386 C 2163.88 -0.372531 1.55191 0
M  V30 23387 C 2164.08 -1.75838 0.984042 0
M  V30 23388 O 2163.13 -2.45008 0.610513 0
M  V30 23389 C 2164.45 -0.263043 2.99547 0
M  V30 23390 C 2165.99 -0.339216 3.11156 0
M  V30 23391 C 2166.47 -0.259039 4.57267 0
M  V30 23392 N 2167.96 -0.317455 4.62111 0
M  V30 23393 C 2168.69 -0.278499 5.72723 0
M  V30 23394 N 2168.19 -0.191112 6.92536 0
M  V30 23395 N 2169.98 -0.32914 5.61136 0
M  V30 23396 H 2162.13 0.890086 1.9285 0
M  V30 23397 H 2164.4 0.339637 0.885071 0
M  V30 23398 H 2164.1 0.689794 3.44869 0
M  V30 23399 H 2163.98 -1.0518 3.62239 0
M  V30 23400 H 2166.36 -1.28249 2.65775 0
M  V30 23401 H 2166.45 0.479109 2.51273 0
M  V30 23402 H 2166.09 0.68062 5.03319 0
M  V30 23403 H 2166.02 -1.09563 5.15076 0
M  V30 23404 H 2168.51 -0.387004 3.75913 0
M  V30 23405 H 2168.82 -0.166827 7.7262 0
M  V30 23406 H 2167.17 -0.15698 6.94823 0
M  V30 23407 H 2170.36 -0.395489 4.66426 0
M  V30 23408 H 2170.53 -0.295314 6.47327 0
M  V30 23409 N 2163.94 -1.54924 -0.289176 0
M  V30 23410 C 2164.89 -1.83077 -1.35892 0
M  V30 23411 C 2165.87 -0.68863 -1.45419 0
M  V30 23412 O 2167.06 -0.949574 -1.49372 0
M  V30 23413 C 2164.19 -2.09196 -2.72198 0
M  V30 23414 C 2163.28 -3.29627 -2.66847 0
M  V30 23415 N 2163.67 -4.49912 -2.31112 0
M  V30 23416 C 2161.97 -3.31892 -2.97933 0
M  V30 23417 C 2162.67 -5.31963 -2.35351 0
M  V30 23418 N 2161.65 -4.69972 -2.7318 0
M  V30 23419 H 2165.45 -2.73634 -1.07246 0
M  V30 23420 H 2162.96 -1.54583 -0.497785 0
M  V30 23421 H 2164.96 -2.27516 -3.49345 0
M  V30 23422 H 2163.62 -1.19914 -3.01746 0
M  V30 23423 H 2164.63 -4.76302 -2.03364 0
M  V30 23424 H 2161.31 -2.52753 -3.32298 0
M  V30 23425 H 2162.7 -6.38101 -2.10421 0
M  V30 23426 N 2165.42 0.552936 -1.47582 0
M  V30 23427 C 2166.64 1.33522 -1.58049 0
M  V30 23428 C 2167.06 1.87366 -0.232239 0
M  V30 23429 O 2166.42 1.6522 0.775159 0
M  V30 23430 C 2166.47 2.50216 -2.60911 0
M  V30 23431 O 2166.19 1.98596 -3.90502 0
M  V30 23432 C 2167.69 3.42367 -2.81602 0
M  V30 23433 H 2164.91 0.406868 -0.533572 0
M  V30 23434 H 2167.45 0.669389 -1.93234 0
M  V30 23435 H 2165.61 3.12728 -2.28648 0
M  V30 23436 H 2166.02 2.74809 -4.46744 0
M  V30 23437 H 2167.5 4.20653 -3.57429 0
M  V30 23438 H 2167.97 3.96177 -1.8958 0
M  V30 23439 H 2168.58 2.85666 -3.15079 0
M  V30 23440 N 2166.89 1.35785 0.800009 0
M  V30 23441 C 2168.14 1.29425 1.55741 0
M  V30 23442 C 2168.47 -0.129487 1.94068 0
M  V30 23443 O 2167.72 -1.09631 1.6211 0
M  V30 23444 C 2168.02 2.15261 2.85302 0
M  V30 23445 C 2167.69 3.63962 2.66162 0
M  V30 23446 C 2166.35 4.04493 2.60651 0
M  V30 23447 C 2168.7 4.58288 2.48238 0
M  V30 23448 C 2166.03 5.37507 2.35166 0
M  V30 23449 C 2168.38 5.91507 2.24281 0
M  V30 23450 C 2167.05 6.31175 2.17195 0
M  V30 23451 H 2166.32 0.473601 0.569898 0
M  V30 23452 H 2168.96 1.67742 0.923842 0
M  V30 23453 H 2167.27 1.69846 3.53071 0
M  V30 23454 H 2168.97 2.07672 3.43036 0
M  V30 23455 H 2165.56 3.31802 2.71303 0
M  V30 23456 H 2169.74 4.27854 2.51504 0
M  V30 23457 H 2165 5.67235 2.28154 0
M  V30 23458 H 2169.17 6.64171 2.09403 0
M  V30 23459 H 2166.8 7.34175 1.9721 0
M  V30 23460 N 2168.37 -1.02294 1.19891 0
M  V30 23461 C 2169.3 -2.108 0.899788 0
M  V30 23462 C 2170.32 -1.62429 -0.109916 0
M  V30 23463 O 2171.51 -1.78094 0.120276 0
M  V30 23464 C 2168.61 -3.37325 0.326304 0
M  V30 23465 C 2167.78 -4.1486 1.38601 0
M  V30 23466 C 2166.84 -5.19693 0.824993 0
M  V30 23467 O 2165.86 -5.48966 1.50415 0
M  V30 23468 N 2167.07 -5.79328 -0.36876 0
M  V30 23469 H 2169.83 -2.37048 1.8338 0
M  V30 23470 H 2167.39 -1.18633 1.10172 0
M  V30 23471 H 2169.38 -4.04651 -0.0629984 0
M  V30 23472 H 2167.95 -3.08377 -0.512119 0
M  V30 23473 H 2167.17 -3.42596 1.94991 0
M  V30 23474 H 2168.46 -4.63446 2.09989 0
M  V30 23475 H 2167.86 -5.57871 -0.93792 0
M  V30 23476 H 2166.42 -6.48033 -0.699773 0
M  V30 23477 N 2169.85 -1.00378 -1.21499 0
M  V30 23478 C 2171.08 -0.703551 -1.94252 0
M  V30 23479 C 2171.49 0.73767 -1.74227 0
M  V30 23480 O 2170.83 1.51064 -1.04525 0
M  V30 23481 C 2170.89 -0.94326 -3.46905 0
M  V30 23482 C 2170.56 -2.37108 -3.90677 0
M  V30 23483 C 2171.55 -3.35123 -3.97478 0
M  V30 23484 C 2169.24 -2.70841 -4.23025 0
M  V30 23485 C 2171.23 -4.64939 -4.36017 0
M  V30 23486 C 2168.92 -4.00873 -4.61242 0
M  V30 23487 C 2169.92 -4.97734 -4.67708 0
M  V30 23488 O 2169.61 -6.25441 -5.05054 0
M  V30 23489 H 2169.34 -0.258563 -0.624597 0
M  V30 23490 H 2171.89 -1.34429 -1.55299 0
M  V30 23491 H 2170.12 -0.245347 -3.85921 0
M  V30 23492 H 2171.81 -0.636609 -4.00877 0
M  V30 23493 H 2172.58 -3.10397 -3.72665 0
M  V30 23494 H 2168.46 -1.96145 -4.17191 0
M  V30 23495 H 2172 -5.4054 -4.40978 0
M  V30 23496 H 2167.9 -4.25385 -4.85508 0
M  V30 23497 H 2168.67 -6.29538 -5.23091 0
M  V30 23498 N 2171.33 1.37038 -0.778354 0
M  V30 23499 C 2172.74 1.52865 -0.458743 0
M  V30 23500 C 2172.94 1.73503 1.02465 0
M  V30 23501 O 2172 1.76017 1.81036 0
M  V30 23502 C 2173.31 2.72117 -1.27956 0
M  V30 23503 C 2174.86 2.85982 -1.27213 0
M  V30 23504 C 2175.34 4.08225 -2.07645 0
M  V30 23505 N 2176.83 4.1535 -2.05033 0
M  V30 23506 C 2177.56 5.08988 -2.64044 0
M  V30 23507 N 2177.06 6.0814 -3.3187 0
M  V30 23508 N 2178.85 5.0152 -2.53838 0
M  V30 23509 H 2171 1.21895 -1.73941 0
M  V30 23510 H 2173.27 0.594067 -0.738775 0
M  V30 23511 H 2172.97 2.63353 -2.33105 0
M  V30 23512 H 2172.85 3.65977 -0.913259 0
M  V30 23513 H 2175.23 2.94213 -0.228607 0
M  V30 23514 H 2175.31 1.93061 -1.67812 0
M  V30 23515 H 2174.96 4.00755 -3.12022 0
M  V30 23516 H 2174.89 5.00272 -1.64423 0
M  V30 23517 H 2177.38 3.44352 -1.55659 0
M  V30 23518 H 2177.69 6.76131 -3.74255 0
M  V30 23519 H 2176.04 6.08399 -3.3597 0
M  V30 23520 H 2179.23 4.23005 -2.0046 0
M  V30 23521 H 2179.4 5.7431 -3.00121 0
M  V30 23522 N 2172.81 0.529439 1.48441 0
M  V30 23523 C 2174.05 -0.00486384 2.02799 0
M  V30 23524 C 2174.39 -1.33985 1.40576 0
M  V30 23525 O 2173.66 -1.86523 0.551326 0
M  V30 23526 C 2173.94 -0.127443 3.59874 0
M  V30 23527 C 2173.8 1.23268 4.3258 0
M  V30 23528 C 2175.12 -0.854486 4.31725 0
M  V30 23529 H 2172.24 -0.00029358 0.737 0
M  V30 23530 H 2174.88 0.686364 1.7717 0
M  V30 23531 H 2173.03 -0.716153 3.81842 0
M  V30 23532 H 2174.7 1.86245 4.22031 0
M  V30 23533 H 2172.94 1.8147 3.94019 0
M  V30 23534 H 2173.61 1.09991 5.40931 0
M  V30 23535 H 2176.09 -0.354911 4.14584 0
M  V30 23536 H 2174.97 -0.909151 5.41318 0
M  V30 23537 H 2175.23 -1.90464 3.98968 0
M  V30 23538 N 2174.29 -1.55364 0.264547 0
M  V30 23539 C 2175.53 -2.00387 -0.348811 0
M  V30 23540 C 2175.89 -1.14971 -1.54271 0
M  V30 23541 O 2175.18 -0.209296 -1.90453 0
M  V30 23542 C 2175.37 -3.48523 -0.791605 0
M  V30 23543 C 2175.2 -4.48274 0.357843 0
M  V30 23544 C 2173.97 -4.98299 0.83823 0
M  V30 23545 C 2176.17 -5.00324 1.1908 0
M  V30 23546 N 2174.15 -5.8183 1.95825 0
M  V30 23547 C 2175.52 -5.81199 2.15888 0
M  V30 23548 C 2177.58 -4.82586 1.22535 0
M  V30 23549 C 2176.28 -6.46227 3.15884 0
M  V30 23550 C 2178.31 -5.48406 2.2137 0
M  V30 23551 C 2177.67 -6.29083 3.16912 0
M  V30 23552 H 2173.77 -0.776438 -0.0931041 0
M  V30 23553 H 2176.35 -1.90832 0.386157 0
M  V30 23554 H 2174.52 -3.58441 -1.49582 0
M  V30 23555 H 2176.26 -3.80394 -1.3814 0
M  V30 23556 H 2173.01 -4.7174 0.419334 0
M  V30 23557 H 2173.43 -6.28289 2.52155 0
M  V30 23558 H 2178.08 -4.19827 0.50051 0
M  V30 23559 H 2175.79 -7.08142 3.89307 0
M  V30 23560 H 2179.38 -5.36627 2.24771 0
M  V30 23561 H 2178.26 -6.79114 3.9214 0
M  V30 23562 N 2175.76 0.00833021 -1.57598 0
M  V30 23563 C 2176.71 1.01074 -2.04372 0
M  V30 23564 C 2177.7 1.30812 -0.936863 0
M  V30 23565 O 2178.89 1.30049 -1.20067 0
M  V30 23566 C 2176.02 2.3054 -2.54374 0
M  V30 23567 C 2175.1 2.03803 -3.71921 0
M  V30 23568 N 2175.5 1.47194 -4.83908 0
M  V30 23569 C 2173.79 2.33987 -3.79692 0
M  V30 23570 C 2174.49 1.36737 -5.65401 0
M  V30 23571 N 2173.47 1.85013 -5.11147 0
M  V30 23572 H 2177.27 0.56742 -2.88371 0
M  V30 23573 H 2174.79 0.214206 -1.60981 0
M  V30 23574 H 2176.78 3.03184 -2.86155 0
M  V30 23575 H 2175.44 2.75532 -1.71791 0
M  V30 23576 H 2176.45 1.15186 -5.04928 0
M  V30 23577 H 2173.13 2.81911 -3.07948 0
M  V30 23578 H 2174.52 0.932837 -6.65393 0
M  V30 23579 N 2177.24 1.55075 0.280956 0
M  V30 23580 C 2178.49 1.75306 1.01361 0
M  V30 23581 C 2178.82 0.549775 1.86568 0
M  V30 23582 O 2178.07 -0.467908 1.90024 0
M  V30 23583 C 2178.37 3.00658 1.93234 0
M  V30 23584 C 2178.04 4.3356 1.23841 0
M  V30 23585 C 2176.7 4.69683 1.0465 0
M  V30 23586 C 2179.05 5.15863 0.743962 0
M  V30 23587 C 2176.38 5.85671 0.347296 0
M  V30 23588 C 2178.73 6.32573 0.0583841 0
M  V30 23589 C 2177.39 6.67342 -0.145308 0
M  V30 23590 H 2176.66 0.641491 0.370905 0
M  V30 23591 H 2179.31 1.89343 0.286608 0
M  V30 23592 H 2177.62 2.81488 2.72529 0
M  V30 23593 H 2179.31 3.13507 2.50029 0
M  V30 23594 H 2175.9 4.05163 1.39788 0
M  V30 23595 H 2180.09 4.88438 0.879877 0
M  V30 23596 H 2175.34 6.11139 0.178683 0
M  V30 23597 H 2179.52 6.95606 -0.332548 0
M  V30 23598 H 2177.14 7.5707 -0.689091 0
M  V30 23599 N 2178.72 -0.545102 1.47873 0
M  V30 23600 C 2179.97 -1.30364 1.55348 0
M  V30 23601 C 2180.3 -1.92948 0.220182 0
M  V30 23602 O 2179.57 -1.78506 -0.772398 0
M  V30 23603 C 2179.86 -2.40454 2.68055 0
M  V30 23604 C 2179.71 -1.8266 4.11042 0
M  V30 23605 C 2181.03 -3.42314 2.76603 0
M  V30 23606 H 2178.15 -0.472628 0.565502 0
M  V30 23607 H 2180.79 -0.608798 1.79982 0
M  V30 23608 H 2178.94 -2.99722 2.47182 0
M  V30 23609 H 2180.61 -1.2756 4.43313 0
M  V30 23610 H 2178.85 -1.1327 4.18751 0
M  V30 23611 H 2179.53 -2.62302 4.85697 0
M  V30 23612 H 2182 -2.92981 2.95468 0
M  V30 23613 H 2180.88 -4.16757 3.57218 0
M  V30 23614 H 2181.14 -4.01923 1.84147 0
M  V30 23615 N 2180.2 -1.36208 -0.792797 0
M  V30 23616 C 2181.44 -1.30442 -1.55282 0
M  V30 23617 C 2181.78 0.117071 -1.93847 0
M  V30 23618 O 2181.05 1.06968 -1.62444 0
M  V30 23619 C 2181.33 -2.22396 -2.83218 0
M  V30 23620 C 2181.19 -3.73227 -2.51042 0
M  V30 23621 C 2182.51 -2.13185 -3.85019 0
M  V30 23622 H 2179.63 -0.475171 -0.563366 0
M  V30 23623 H 2182.27 -1.6673 -0.911103 0
M  V30 23624 H 2180.42 -1.9158 -3.37979 0
M  V30 23625 H 2182.09 -4.14547 -2.02358 0
M  V30 23626 H 2180.33 -3.92829 -1.84033 0
M  V30 23627 H 2181 -4.32972 -3.42402 0
M  V30 23628 H 2183.48 -2.40303 -3.39696 0
M  V30 23629 H 2182.36 -2.797 -4.72291 0
M  V30 23630 H 2182.62 -1.11808 -4.27728 0
M  V30 23631 N 2181.68 1.01656 -1.20431 0
M  V30 23632 C 2182.9 1.79392 -1.04084 0
M  V30 23633 C 2183.33 1.83678 0.405466 0
M  V30 23634 O 2182.68 1.27186 1.29203 0
M  V30 23635 C 2182.73 3.21706 -1.62904 0
M  V30 23636 O 2181.84 4.0319 -0.866689 0
M  V30 23637 H 2181.18 0.553315 -0.367068 0
M  V30 23638 H 2183.71 1.27864 -1.59725 0
M  V30 23639 H 2183.72 3.72418 -1.6664 0
M  V30 23640 H 2182.39 3.17901 -2.68164 0
M  V30 23641 H 2180.97 3.61788 -0.903537 0
M  V30 23642 N 2183.15 1.01021 1.20965 0
M  V30 23643 C 2184.56 0.728406 1.71904 0
M  V30 23644 C 2184.92 -0.753559 1.81152 0
M  V30 23645 O 2184.04 -1.5884 1.46966 0
M  V30 23646 C 2184.64 1.31558 3.12215 0
M  V30 23647 C 2183.19 1.08279 3.6049 0
M  V30 23648 C 2182.34 1.42521 2.37872 0
M  V30 23649 H 2185.29 1.18047 1.06069 0
M  V30 23650 H 2185.31 0.702879 3.73952 0
M  V30 23651 H 2184.83 2.39417 3.05452 0
M  V30 23652 H 2182.93 0.0215819 3.72594 0
M  V30 23653 H 2183.04 1.75834 4.45667 0
M  V30 23654 H 2181.4 0.844088 2.40307 0
M  V30 23655 H 2182.19 2.51422 2.33756 0
M  V30 23656 N 2184.63 -1.36623 0.78561 0
M  V30 23657 C 2185.86 -2.04129 0.366917 0
M  V30 23658 C 2186.28 -1.58852 -1.00736 0
M  V30 23659 O 2185.64 -0.755202 -1.64822 0
M  V30 23660 C 2185.69 -3.5797 0.43472 0
M  V30 23661 O 2184.79 -4.08584 -0.559755 0
M  V30 23662 H 2184.13 -0.645306 0.156447 0
M  V30 23663 H 2186.66 -1.74656 1.06566 0
M  V30 23664 H 2186.67 -4.06918 0.296959 0
M  V30 23665 H 2185.35 -3.90277 1.43724 0
M  V30 23666 H 2183.92 -3.70918 -0.38397 0
M  V30 23667 N 2186.11 -0.537304 -1.48158 0
M  V30 23668 C 2187.36 -0.00588246 -2.02499 0
M  V30 23669 C 2187.68 1.33585 -1.41369 0
M  V30 23670 O 2186.94 1.87767 -0.551542 0
M  V30 23671 C 2187.24 0.157545 -3.57053 0
M  V30 23672 C 2186.9 -1.11076 -4.37005 0
M  V30 23673 C 2185.57 -1.45834 -4.58569 0
M  V30 23674 C 2187.92 -1.95212 -4.83261 0
M  V30 23675 C 2185.25 -2.64612 -5.23639 0
M  V30 23676 C 2187.6 -3.13176 -5.4964 0
M  V30 23677 C 2186.26 -3.4827 -5.69442 0
M  V30 23678 H 2185.53 -0.00215255 -0.740997 0
M  V30 23679 H 2188.18 -0.704805 -1.78058 0
M  V30 23680 H 2186.48 0.93929 -3.80374 0
M  V30 23681 H 2188.18 0.583759 -3.96728 0
M  V30 23682 H 2184.77 -0.830084 -4.20485 0
M  V30 23683 H 2188.96 -1.6967 -4.66397 0
M  V30 23684 H 2184.21 -2.91996 -5.37167 0
M  V30 23685 H 2188.39 -3.78671 -5.8445 0
M  V30 23686 H 2186.01 -4.40406 -6.19634 0
M  V30 23687 N 2187.59 1.55221 -0.272782 0
M  V30 23688 C 2188.5 2.26098 0.62584 0
M  V30 23689 C 2189.51 1.28606 1.17203 0
M  V30 23690 O 2190.69 1.61537 1.20281 0
M  V30 23691 C 2187.76 2.96645 1.7945 0
M  V30 23692 C 2186.82 4.0961 1.28522 0
M  V30 23693 C 2186.05 4.76784 2.39819 0
M  V30 23694 O 2186.27 4.43155 3.59124 0
M  V30 23695 O 2185.21 5.64779 2.08107 0
M  V30 23696 H 2189.03 3.03656 0.0517442 0
M  V30 23697 H 2186.62 1.49346 -0.0402752 0
M  V30 23698 H 2188.5 3.40989 2.47597 0
M  V30 23699 H 2187.17 2.22006 2.35573 0
M  V30 23700 H 2186.08 3.69728 0.570286 0
M  V30 23701 H 2187.41 4.86143 0.769772 0
M  V30 23702 N 2189.07 2.77022e-05 1.576 0
M  V30 23703 C 2190.3 -0.69479 1.94567 0
M  V30 23704 C 2190.7 -1.67836 0.873374 0
M  V30 23705 O 2190.05 -1.83034 -0.156298 0
M  V30 23706 C 2190.11 -1.48224 3.27521 0
M  V30 23707 C 2189.77 -0.660251 4.52205 0
M  V30 23708 C 2190.77 0.0520805 5.19874 0
M  V30 23709 C 2188.46 -0.606213 4.98628 0
M  V30 23710 C 2190.45 0.807435 6.32265 0
M  V30 23711 C 2188.14 0.152866 6.10909 0
M  V30 23712 C 2189.13 0.858424 6.77584 0
M  V30 23713 O 2188.82 1.60512 7.87713 0
M  V30 23714 H 2188.55 -0.198468 0.646209 0
M  V30 23715 H 2191.11 0.0472739 2.05346 0
M  V30 23716 H 2189.34 -2.26878 3.1315 0
M  V30 23717 H 2191.03 -2.0624 3.496 0
M  V30 23718 H 2191.79 0.0194852 4.84996 0
M  V30 23719 H 2187.67 -1.14492 4.46556 0
M  V30 23720 H 2191.22 1.35868 6.84241 0
M  V30 23721 H 2187.11 0.187282 6.45228 0
M  V30 23722 H 2187.88 1.52183 8.04228 0
M  V30 23723 N 2190.54 -1.55222 -0.272728 0
M  V30 23724 C 2191.77 -1.79867 -1.02252 0
M  V30 23725 C 2192.19 -0.57212 -1.79923 0
M  V30 23726 O 2191.54 0.458811 -1.76639 0
M  V30 23727 C 2191.6 -3.02396 -1.98088 0
M  V30 23728 O 2191.32 -4.20314 -1.23564 0
M  V30 23729 C 2192.82 -3.39646 -2.84878 0
M  V30 23730 H 2190.04 -0.599174 -0.302046 0
M  V30 23731 H 2192.58 -2.02236 -0.303429 0
M  V30 23732 H 2190.74 -2.82152 -2.6546 0
M  V30 23733 H 2191.15 -4.89586 -1.88163 0
M  V30 23734 H 2192.62 -4.28551 -3.4792 0
M  V30 23735 H 2193.1 -2.59061 -3.5466 0
M  V30 23736 H 2193.71 -3.6215 -2.22997 0
M  V30 23737 N 2192.02 0.537252 -1.4816 0
M  V30 23738 C 2193.27 1.28991 -1.55062 0
M  V30 23739 C 2193.58 1.94287 -0.226245 0
M  V30 23740 O 2194.79 2.70945 -0.173442 0
M  V30 23741 C 2193.25 2.34013 -2.73434 0
M  V30 23742 C 2192.85 1.74818 -4.12483 0
M  V30 23743 C 2194.6 3.10334 -2.89643 0
M  V30 23744 C 2192.51 2.77738 -5.22126 0
M  V30 23745 H 2191.44 0.485088 -0.57724 0
M  V30 23746 H 2194.09 0.568286 -1.74479 0
M  V30 23747 H 2192.47 3.09178 -2.47437 0
M  V30 23748 H 2193.64 1.05891 -4.48468 0
M  V30 23749 H 2191.96 1.11015 -4.01329 0
M  V30 23750 H 2194.55 3.87228 -3.68725 0
M  V30 23751 H 2194.9 3.65751 -1.98827 0
M  V30 23752 H 2195.43 2.42282 -3.15506 0
M  V30 23753 H 2192.17 2.27151 -6.14884 0
M  V30 23754 H 2191.69 3.45015 -4.90637 0
M  V30 23755 H 2193.37 3.40861 -5.4993 0
M  V30 23756 N 2193.5 1.36626 0.785562 0
M  V30 23757 C 2194.43 1.25628 1.90507 0
M  V30 23758 C 2195.41 0.139636 1.61999 0
M  V30 23759 O 2196.6 0.311443 1.85909 0
M  V30 23760 C 2193.72 0.939216 3.25417 0
M  V30 23761 C 2192.77 2.07084 3.72852 0
M  V30 23762 S 2193.6 3.68911 3.88156 0
M  V30 23763 C 2194.76 3.39326 5.25936 0
M  V30 23764 H 2194.99 2.20384 1.99545 0
M  V30 23765 H 2192.52 1.22087 0.945204 0
M  V30 23766 H 2194.48 0.7631 4.03345 0
M  V30 23767 H 2193.14 0.00936923 3.14099 0
M  V30 23768 H 2192.34 1.80365 4.70621 0
M  V30 23769 H 2191.94 2.20637 3.01986 0
M  V30 23770 H 2194.23 2.93458 6.10646 0
M  V30 23771 H 2195.17 4.36373 5.5766 0
M  V30 23772 H 2195.58 2.74582 4.93219 0
M  V30 23773 N 2194.98 -1.01016 1.20969 0
M  V30 23774 C 2195.94 -2.07851 0.965954 0
M  V30 23775 C 2196.94 -1.60684 -0.0610263 0
M  V30 23776 O 2198.13 -1.73312 0.175711 0
M  V30 23777 C 2195.26 -3.37842 0.455573 0
M  V30 23778 H 2196.46 -2.30907 1.91369 0
M  V30 23779 H 2194.01 -1.17915 1.02596 0
M  V30 23780 H 2194.74 -3.20464 -0.497325 0
M  V30 23781 H 2194.53 -3.73405 1.19628 0
M  V30 23782 H 2196.02 -4.16487 0.304741 0
M  V30 23783 N 2196.46 -1.01661 -1.20428 0
M  V30 23784 C 2197.39 -0.53156 -2.21923 0
M  V30 23785 C 2198.37 0.421005 -1.57055 0
M  V30 23786 O 2199.55 0.341002 -1.8539 0
M  V30 23787 C 2196.68 0.226436 -3.37942 0
M  V30 23788 C 2195.72 -0.675684 -4.21114 0
M  V30 23789 S 2196.56 -2.14484 -4.9067 0
M  V30 23790 C 2197.71 -1.39701 -6.1011 0
M  V30 23791 H 2197.95 -1.39155 -2.62723 0
M  V30 23792 H 2195.48 -0.825502 -1.30479 0
M  V30 23793 H 2197.44 0.657666 -4.05197 0
M  V30 23794 H 2196.1 1.06199 -2.95602 0
M  V30 23795 H 2195.29 -0.0911965 -5.03917 0
M  V30 23796 H 2194.89 -1.04469 -3.59113 0
M  V30 23797 H 2197.19 -0.677015 -6.74109 0
M  V30 23798 H 2198.13 -2.20118 -6.73018 0
M  V30 23799 H 2198.54 -0.899884 -5.57281 0
M  V30 23800 N 2197.93 1.36205 -0.792844 0
M  V30 23801 C 2199.18 1.984 -0.363388 0
M  V30 23802 C 2199.5 1.63628 1.07169 0
M  V30 23803 O 2200.7 2.19083 1.60358 0
M  V30 23804 C 2199.16 3.54884 -0.598782 0
M  V30 23805 C 2198.77 3.98577 -2.0455 0
M  V30 23806 C 2200.51 4.23855 -0.234001 0
M  V30 23807 C 2198.42 5.47852 -2.22737 0
M  V30 23808 H 2197.35 0.742332 -0.132133 0
M  V30 23809 H 2200 1.55457 -0.974963 0
M  V30 23810 H 2198.38 3.95914 0.0825526 0
M  V30 23811 H 2199.55 3.68737 -2.76351 0
M  V30 23812 H 2197.87 3.42454 -2.36885 0
M  V30 23813 H 2200.47 5.33566 -0.348121 0
M  V30 23814 H 2200.81 4.08179 0.818279 0
M  V30 23815 H 2201.34 3.88199 -0.868707 0
M  V30 23816 H 2198.08 5.6848 -3.2636 0
M  V30 23817 H 2197.6 5.79308 -1.55444 0
M  V30 23818 H 2199.28 6.14124 -2.03618 0
M  V30 23819 N 2199.41 0.545154 1.47871 0
M  V30 23820 C 2200.38 -0.198677 2.28337 0
M  V30 23821 C 2201.38 -0.853864 1.36256 0
M  V30 23822 O 2202.57 -0.711578 1.59004 0
M  V30 23823 C 2199.7 -1.2891 3.15587 0
M  V30 23824 H 2200.89 0.507993 2.95566 0
M  V30 23825 H 2198.44 0.301643 1.53362 0
M  V30 23826 H 2199.18 -2.02855 2.53023 0
M  V30 23827 H 2198.96 -0.824241 3.83339 0
M  V30 23828 H 2200.45 -1.81187 3.76246 0
M  V30 23829 N 2200.89 -1.55074 0.28101 0
M  V30 23830 C 2201.82 -2.25728 -0.597429 0
M  V30 23831 C 2202.8 -1.24954 -1.15415 0
M  V30 23832 O 2203.99 -1.53686 -1.1872 0
M  V30 23833 C 2201.12 -2.98286 -1.77884 0
M  V30 23834 C 2200.07 -4.06038 -1.35339 0
M  V30 23835 C 2199.4 -4.66203 -2.61838 0
M  V30 23836 C 2200.7 -5.19908 -0.499263 0
M  V30 23837 H 2202.39 -2.99399 -0.00819002 0
M  V30 23838 H 2199.94 -1.44 -0.00249909 0
M  V30 23839 H 2201.89 -3.46426 -2.39931 0
M  V30 23840 H 2200.61 -2.22159 -2.39401 0
M  V30 23841 H 2199.27 -3.58718 -0.756093 0
M  V30 23842 H 2198.92 -3.86738 -3.21625 0
M  V30 23843 H 2198.62 -5.38962 -2.3408 0
M  V30 23844 H 2200.14 -5.17095 -3.24723 0
M  V30 23845 H 2201.56 -5.64065 -1.02488 0
M  V30 23846 H 2199.96 -5.99266 -0.316319 0
M  V30 23847 H 2201.03 -4.82513 0.480544 0
M  V30 23848 N 2202.37 -0.00838561 -1.57598 0
M  V30 23849 C 2203.32 0.998471 -2.10079 0
M  V30 23850 C 2204.31 1.35049 -1.02264 0
M  V30 23851 O 2205.52 1.33515 -1.20721 0
M  V30 23852 H 2201.89 0.339685 -0.670909 0
M  V30 23853 H 2203.86 0.530346 -2.93649 0
M  V30 23854 C 2202.61 2.27874 -2.62619 0
M  V30 23855 H 2201.94 2.01656 -3.45217 0
M  V30 23856 H 2203.38 2.96582 -3.0301 0
M  V30 23857 C 2201.83 2.9943 -1.54412 0
M  V30 23858 O 2202.36 3.90741 -0.931881 0
M  V30 23859 N 2200.57 2.61402 -1.26955 0
M  V30 23860 H 2200.12 1.87229 -1.76927 0
M  V30 23861 H 2200.08 3.09592 -0.547759 0
M  V30 23862 N 2203.85 1.55365 0.264492 0
M  V30 23863 C 2205.08 1.80407 1.01297 0
M  V30 23864 C 2205.49 0.581654 1.79617 0
M  V30 23865 O 2204.85 -0.449437 1.76879 0
M  V30 23866 C 2204.9 3.03442 1.96482 0
M  V30 23867 O 2204.62 4.20963 1.21334 0
M  V30 23868 C 2206.12 3.41152 2.83073 0
M  V30 23869 H 2203.34 0.600767 0.298865 0
M  V30 23870 H 2205.88 2.02394 0.2927 0
M  V30 23871 H 2204.04 2.83556 2.6396 0
M  V30 23872 H 2204.45 4.90577 1.85564 0
M  V30 23873 H 2205.93 4.3039 3.45642 0
M  V30 23874 H 2206.4 2.60938 3.53282 0
M  V30 23875 H 2207.01 3.63327 2.21073 0
M  V30 23876 N 2205.33 -0.529387 1.48443 0
M  V30 23877 C 2206.57 -1.28709 1.56722 0
M  V30 23878 C 2206.9 -1.92703 0.240634 0
M  V30 23879 O 2206.18 -1.79315 -0.753422 0
M  V30 23880 C 2206.46 -2.37598 2.70591 0
M  V30 23881 C 2206.32 -1.7829 4.12956 0
M  V30 23882 C 2207.63 -3.39361 2.80218 0
M  V30 23883 H 2204.75 -0.466603 0.570483 0
M  V30 23884 H 2207.4 -0.589675 1.80618 0
M  V30 23885 H 2205.55 -2.97084 2.50347 0
M  V30 23886 H 2207.22 -1.2285 4.44641 0
M  V30 23887 H 2205.46 -1.08822 4.19929 0
M  V30 23888 H 2206.13 -2.57135 4.88452 0
M  V30 23889 H 2208.61 -2.89831 2.98558 0
M  V30 23890 H 2207.48 -4.12945 3.61618 0
M  V30 23891 H 2207.74 -3.99947 1.884 0
M  V30 23892 N 2206.8 -1.37041 -0.778305 0
M  V30 23893 C 2208.05 -1.32082 -1.5389 0
M  V30 23894 C 2208.38 0.0965045 -1.9396 0
M  V30 23895 O 2207.66 1.05239 -1.6357 0
M  V30 23896 C 2207.94 -2.25387 -2.80843 0
M  V30 23897 C 2207.79 -3.75868 -2.47069 0
M  V30 23898 C 2209.11 -2.17257 -3.82737 0
M  V30 23899 H 2206.23 -0.48112 -0.558294 0
M  V30 23900 H 2208.87 -1.67687 -0.893368 0
M  V30 23901 H 2207.02 -1.95153 -3.35928 0
M  V30 23902 H 2208.7 -4.1667 -1.9795 0
M  V30 23903 H 2206.94 -3.94758 -1.79856 0
M  V30 23904 H 2207.61 -4.36579 -3.3779 0
M  V30 23905 H 2210.09 -2.43893 -3.37128 0
M  V30 23906 H 2208.96 -2.84694 -4.69298 0
M  V30 23907 H 2209.22 -1.16339 -4.26518 0
M  V30 23908 N 2208.28 1.00373 -1.21503 0
M  V30 23909 C 2209.21 2.11026 -0.999515 0
M  V30 23910 C 2210.19 1.6993 0.0759372 0
M  V30 23911 O 2211.38 1.94018 -0.0841447 0
M  V30 23912 C 2208.51 3.42677 -0.564769 0
M  V30 23913 C 2207.46 3.97573 -1.58493 0
M  V30 23914 C 2206.79 5.25144 -1.00638 0
M  V30 23915 C 2208.09 4.29491 -2.97212 0
M  V30 23916 H 2209.78 2.29313 -1.92499 0
M  V30 23917 H 2207.33 1.10198 -0.926949 0
M  V30 23918 H 2209.28 4.19486 -0.401165 0
M  V30 23919 H 2208 3.24186 0.396354 0
M  V30 23920 H 2206.66 3.22885 -1.73612 0
M  V30 23921 H 2206.31 5.02986 -0.0369323 0
M  V30 23922 H 2206.01 5.62838 -1.68781 0
M  V30 23923 H 2207.54 6.04597 -0.854121 0
M  V30 23924 H 2208.95 4.97138 -2.85529 0
M  V30 23925 H 2207.35 4.78331 -3.6238 0
M  V30 23926 H 2208.42 3.37714 -3.47962 0
M  V30 23927 N 2209.76 1.02298 1.19887 0
M  V30 23928 C 2210.69 0.543321 2.21638 0
M  V30 23929 C 2211.67 -0.41267 1.57276 0
M  V30 23930 O 2212.85 -0.331166 1.85568 0
M  V30 23931 C 2209.98 -0.208511 3.38058 0
M  V30 23932 C 2209.03 0.698007 4.20749 0
M  V30 23933 S 2209.86 2.17083 4.89525 0
M  V30 23934 C 2211.02 1.42934 6.09361 0
M  V30 23935 H 2211.25 1.40546 2.61981 0
M  V30 23936 H 2208.78 0.83241 1.3004 0
M  V30 23937 H 2210.74 -0.636169 4.05541 0
M  V30 23938 H 2209.4 -1.0463 2.96161 0
M  V30 23939 H 2208.59 0.117919 5.03862 0
M  V30 23940 H 2208.2 1.06372 3.58554 0
M  V30 23941 H 2210.49 0.712756 6.7374 0
M  V30 23942 H 2211.43 2.23685 6.71841 0
M  V30 23943 H 2211.84 0.929425 5.56796 0
M  V30 23944 N 2211.24 -1.35782 0.800057 0
M  V30 23945 C 2212.17 -2.27696 0.151539 0
M  V30 23946 C 2213.15 -1.47761 -0.678637 0
M  V30 23947 O 2214.33 -1.77037 -0.647327 0
M  V30 23948 C 2211.46 -3.29348 -0.790434 0
M  V30 23949 C 2210.51 -4.26481 -0.0407082 0
M  V30 23950 S 2211.34 -5.19709 1.29086 0
M  V30 23951 C 2212.49 -6.24903 0.353165 0
M  V30 23952 H 2212.73 -2.82352 0.930846 0
M  V30 23953 H 2210.26 -1.42484 0.594792 0
M  V30 23954 H 2212.22 -3.88411 -1.32843 0
M  V30 23955 H 2210.88 -2.73584 -1.54307 0
M  V30 23956 H 2210.07 -4.983 -0.755883 0
M  V30 23957 H 2209.67 -3.71553 0.427128 0
M  V30 23958 H 2211.97 -6.75909 -0.464028 0
M  V30 23959 H 2212.91 -7.00416 1.04035 0
M  V30 23960 H 2213.32 -5.64479 -0.0482352 0
M  V30 23961 N 2212.72 -0.552988 -1.4758 0
M  V30 23962 C 2213.66 0.197067 -2.29957 0
M  V30 23963 C 2214.63 0.912335 -1.38801 0
M  V30 23964 O 2215.82 0.908859 -1.67763 0
M  V30 23965 C 2212.96 1.22373 -3.22674 0
M  V30 23966 C 2212.07 0.514963 -4.2892 0
M  V30 23967 C 2211.21 1.52655 -5.08792 0
M  V30 23968 C 2210.24 0.802524 -6.06816 0
M  V30 23969 N 2209.38 1.76074 -6.79663 0
M  V30 23970 H 2214.22 -0.511538 -2.93577 0
M  V30 23971 H 2211.76 -0.264093 -1.4471 0
M  V30 23972 H 2213.72 1.83152 -3.74848 0
M  V30 23973 H 2212.35 1.90042 -2.60929 0
M  V30 23974 H 2211.4 -0.207259 -3.79835 0
M  V30 23975 H 2212.71 -0.0524302 -4.98772 0
M  V30 23976 H 2211.86 2.20799 -5.65095 0
M  V30 23977 H 2210.6 2.12786 -4.38832 0
M  V30 23978 H 2209.61 0.107141 -5.49696 0
M  V30 23979 H 2210.83 0.207016 -6.78784 0
M  V30 23980 H 2208.78 2.35071 -6.12436 0
M  V30 23981 H 2208.7 1.24539 -7.45672 0
M  V30 23982 H 2209.96 2.43346 -7.40542 0
M  V30 23983 N 2214.19 1.54923 -0.28923 0
M  V30 23984 C 2215.42 2.04013 0.325953 0
M  V30 23985 C 2215.83 1.16653 1.48959 0
M  V30 23986 O 2215.17 0.182232 1.82794 0
M  V30 23987 C 2215.24 3.49159 0.85605 0
M  V30 23988 C 2214.9 4.56642 -0.180778 0
M  V30 23989 C 2215.9 5.1009 -1.00519 0
M  V30 23990 C 2213.58 5.01285 -0.319086 0
M  V30 23991 C 2215.58 6.06712 -1.95396 0
M  V30 23992 C 2213.26 5.9773 -1.27132 0
M  V30 23993 C 2214.26 6.50325 -2.08724 0
M  V30 23994 O 2213.95 7.44882 -3.02335 0
M  V30 23995 H 2213.68 0.671656 0.0765158 0
M  V30 23996 H 2216.24 2.00991 -0.423289 0
M  V30 23997 H 2214.47 3.49466 1.65561 0
M  V30 23998 H 2216.15 3.81509 1.38584 0
M  V30 23999 H 2216.92 4.76403 -0.909143 0
M  V30 24000 H 2212.8 4.59983 0.306027 0
M  V30 24001 H 2216.34 6.47689 -2.59122 0
M  V30 24002 H 2212.24 6.30835 -1.36812 0
M  V30 24003 H 2213.01 7.62645 -2.97178 0
M  V30 24004 N 2215.67 0.0167433 1.57591 0
M  V30 24005 C 2216.9 -0.674115 1.95293 0
M  V30 24006 C 2217.31 -1.669 0.891126 0
M  V30 24007 O 2216.65 -1.83189 -0.136876 0
M  V30 24008 C 2216.71 -1.44741 3.29075 0
M  V30 24009 C 2216.38 -0.612251 4.5288 0
M  V30 24010 C 2217.38 0.107217 5.19789 0
M  V30 24011 C 2215.06 -0.553293 4.99243 0
M  V30 24012 C 2217.05 0.87445 6.31373 0
M  V30 24013 C 2214.74 0.217653 6.10712 0
M  V30 24014 C 2215.74 0.930242 6.76635 0
M  V30 24015 O 2215.43 1.68858 7.85966 0
M  V30 24016 H 2215.16 -0.191603 0.648278 0
M  V30 24017 H 2217.71 0.0690509 2.05284 0
M  V30 24018 H 2215.94 -2.23544 3.15539 0
M  V30 24019 H 2217.63 -2.0252 3.51768 0
M  V30 24020 H 2218.4 0.0709244 4.84948 0
M  V30 24021 H 2214.28 -1.09749 4.47746 0
M  V30 24022 H 2217.82 1.43118 6.82761 0
M  V30 24023 H 2213.72 0.255707 6.44993 0
M  V30 24024 H 2214.49 1.60704 8.02569 0
M  V30 24025 N 2217.15 -1.55503 -0.256249 0
M  V30 24026 C 2218.38 -1.81278 -1.00762 0
M  V30 24027 C 2218.8 -0.592551 -1.78523 0
M  V30 24028 O 2218.16 0.458239 -1.75413 0
M  V30 24029 C 2218.21 -3.0469 -1.92864 0
M  V30 24030 O 2217.31 -2.8095 -3.01896 0
M  V30 24031 H 2216.65 -0.598669 -0.287213 0
M  V30 24032 H 2219.18 -2.02674 -0.280074 0
M  V30 24033 H 2219.19 -3.33873 -2.34505 0
M  V30 24034 H 2217.87 -3.93145 -1.35682 0
M  V30 24035 H 2216.44 -2.62909 -2.64449 0
M  V30 24036 N 2218.63 0.521507 -1.48721 0
M  V30 24037 C 2219.59 1.60745 -1.63382 0
M  V30 24038 C 2220.59 1.5261 -0.506637 0
M  V30 24039 O 2221.78 1.56128 -0.772629 0
M  V30 24040 C 2218.91 3.0038 -1.61198 0
M  V30 24041 H 2220.11 1.49083 -2.6022 0
M  V30 24042 H 2217.66 0.744211 -1.37445 0
M  V30 24043 H 2218.39 3.1754 -0.658686 0
M  V30 24044 H 2218.18 3.07693 -2.43038 0
M  V30 24045 H 2219.67 3.79317 -1.74667 0
M  V30 24046 N 2220.11 1.37452 0.771027 0
M  V30 24047 C 2221.52 1.29241 1.34735 0
M  V30 24048 C 2221.87 -0.0596564 1.96109 0
M  V30 24049 O 2220.99 -0.9615 1.93866 0
M  V30 24050 C 2221.59 2.34042 2.44969 0
M  V30 24051 C 2220.15 2.29463 2.98368 0
M  V30 24052 C 2219.29 2.17834 1.71592 0
M  V30 24053 H 2222.25 1.48063 0.57123 0
M  V30 24054 H 2222.27 1.98749 3.24467 0
M  V30 24055 H 2221.78 3.32436 2.0027 0
M  V30 24056 H 2219.88 1.34595 3.4744 0
M  V30 24057 H 2219.99 3.22906 3.53933 0
M  V30 24058 H 2218.36 1.64392 1.94544 0
M  V30 24059 H 2219.14 3.18143 1.28995 0
M  V30 24060 N 2221.58 -0.997276 1.22033 0
M  V30 24061 C 2222.82 -1.75142 1.05378 0
M  V30 24062 C 2223.19 -1.87687 -0.404663 0
M  V30 24063 O 2224.39 -2.59741 -0.691953 0
M  V30 24064 C 2222.66 -3.12155 1.74052 0
M  V30 24065 S 2224.22 -4.03363 1.72753 0
M  V30 24066 H 2221.04 -0.602532 0.37746 0
M  V30 24067 H 2223.64 -1.19269 1.54904 0
M  V30 24068 H 2222.34 -3.00664 2.79338 0
M  V30 24069 H 2221.87 -3.731 1.24738 0
M  V30 24070 H 2223.89 -4.90125 0.774101 0
M  V30 24071 N 2223.06 -1.02932 -1.19343 0
M  V30 24072 C 2224.29 -0.745678 -1.92995 0
M  V30 24073 C 2224.71 0.695558 -1.7552 0
M  V30 24074 O 2224.06 1.47304 -1.0774 0
M  V30 24075 C 2224.11 -1.08798 -3.44739 0
M  V30 24076 O 2223.83 -2.47262 -3.61653 0
M  V30 24077 C 2225.34 -0.827206 -4.35514 0
M  V30 24078 H 2222.56 -0.272812 -0.613037 0
M  V30 24079 H 2225.1 -1.37393 -1.51471 0
M  V30 24080 H 2223.25 -0.504899 -3.84096 0
M  V30 24081 H 2223.67 -2.60023 -4.55509 0
M  V30 24082 H 2225.14 -1.11668 -5.40587 0
M  V30 24083 H 2225.62 0.238359 -4.38553 0
M  V30 24084 H 2226.23 -1.39304 -4.01839 0
M  V30 24085 N 2224.54 1.35356 -0.807246 0
M  V30 24086 C 2225.77 2.02694 -0.399832 0
M  V30 24087 C 2226.18 1.60976 0.994148 0
M  V30 24088 O 2225.52 0.803255 1.65207 0
M  V30 24089 C 2225.58 3.57217 -0.404508 0
M  V30 24090 C 2225.25 4.22203 -1.74911 0
M  V30 24091 C 2226.24 4.43836 -2.70751 0
M  V30 24092 C 2223.93 4.59306 -2.0333 0
M  V30 24093 C 2225.92 5.01676 -3.93192 0
M  V30 24094 C 2223.61 5.1686 -3.26035 0
M  V30 24095 C 2224.61 5.37987 -4.20784 0
M  V30 24096 O 2224.3 5.94327 -5.41323 0
M  V30 24097 H 2224.03 0.656663 -0.160528 0
M  V30 24098 H 2226.58 1.73943 -1.09238 0
M  V30 24099 H 2224.81 3.85161 0.344639 0
M  V30 24100 H 2226.5 4.05895 -0.0193143 0
M  V30 24101 H 2227.27 4.1555 -2.50087 0
M  V30 24102 H 2223.15 4.42175 -1.30391 0
M  V30 24103 H 2226.69 5.18082 -4.67159 0
M  V30 24104 H 2222.59 5.44573 -3.46569 0
M  V30 24105 H 2223.36 6.12778 -5.42628 0
M  V30 24106 N 2226.02 0.560807 1.47284 0
M  V30 24107 C 2226.93 -0.187913 2.33846 0
M  V30 24108 C 2227.94 -0.908267 1.48413 0
M  V30 24109 O 2229.12 -0.876357 1.81334 0
M  V30 24110 C 2226.19 -1.20245 3.2518 0
M  V30 24111 C 2225.25 -0.489133 4.26504 0
M  V30 24112 C 2224.48 -1.45533 5.13474 0
M  V30 24113 O 2224.7 -2.69041 5.02964 0
M  V30 24114 O 2223.64 -0.977859 5.93904 0
M  V30 24115 H 2227.46 0.52223 2.99176 0
M  V30 24116 H 2225.05 0.321389 1.45902 0
M  V30 24117 H 2226.93 -1.78799 3.81587 0
M  V30 24118 H 2225.6 -1.89445 2.62474 0
M  V30 24119 H 2224.51 0.137693 3.73847 0
M  V30 24120 H 2225.84 0.161485 4.91935 0
M  V30 24121 N 2227.5 -1.54768 0.297442 0
M  V30 24122 C 2228.43 -2.26349 -0.573454 0
M  V30 24123 C 2229.41 -1.26171 -1.14083 0
M  V30 24124 O 2230.59 -1.54936 -1.17083 0
M  V30 24125 C 2227.72 -3.00156 -1.74711 0
M  V30 24126 C 2226.68 -4.07451 -1.31025 0
M  V30 24127 C 2226 -4.68954 -2.56878 0
M  V30 24128 C 2227.3 -5.20409 -0.444092 0
M  V30 24129 H 2229 -2.99391 0.0235657 0
M  V30 24130 H 2226.54 -1.43994 0.0127742 0
M  V30 24131 H 2228.5 -3.48951 -2.36243 0
M  V30 24132 H 2227.22 -2.24686 -2.37031 0
M  V30 24133 H 2225.88 -3.595 -0.718003 0
M  V30 24134 H 2225.53 -3.90128 -3.17505 0
M  V30 24135 H 2225.23 -5.41415 -2.28351 0
M  V30 24136 H 2226.75 -5.2051 -3.1922 0
M  V30 24137 H 2228.16 -5.6512 -0.965 0
M  V30 24138 H 2226.56 -5.99568 -0.252741 0
M  V30 24139 H 2227.63 -4.81976 0.531693 0
M  V30 24140 N 2228.97 -0.0251005 -1.5758 0
M  V30 24141 C 2229.94 0.943102 -2.08898 0
M  V30 24142 C 2230.94 1.25666 -1.00323 0
M  V30 24143 O 2232.13 1.19767 -1.26498 0
M  V30 24144 C 2229.26 2.26081 -2.55147 0
M  V30 24145 H 2230.45 0.498723 -2.95724 0
M  V30 24146 H 2228.01 0.22286 -1.54703 0
M  V30 24147 H 2228.74 2.75156 -1.71638 0
M  V30 24148 H 2228.53 2.04636 -3.34465 0
M  V30 24149 H 2230.02 2.95487 -2.95089 0
M  V30 24150 N 2230.45 1.55637 0.247999 0
M  V30 24151 C 2231.38 1.9324 1.31075 0
M  V30 24152 C 2232.36 0.797201 1.50262 0
M  V30 24153 O 2233.55 1.0574 1.62889 0
M  V30 24154 C 2230.68 2.22614 2.66571 0
M  V30 24155 C 2229.63 3.38375 2.62081 0
M  V30 24156 C 2228.96 3.53288 4.01362 0
M  V30 24157 C 2230.26 4.74094 2.19163 0
M  V30 24158 H 2231.95 2.82259 0.998506 0
M  V30 24159 H 2229.5 1.35804 0.478886 0
M  V30 24160 H 2231.45 2.47509 3.41053 0
M  V30 24161 H 2230.18 1.30419 2.9943 0
M  V30 24162 H 2228.83 3.13487 1.90057 0
M  V30 24163 H 2228.48 2.58515 4.31484 0
M  V30 24164 H 2228.18 4.31134 3.99246 0
M  V30 24165 H 2229.71 3.80503 4.77546 0
M  V30 24166 H 2231.12 4.98368 2.83376 0
M  V30 24167 H 2229.52 5.55034 2.2816 0
M  V30 24168 H 2230.59 4.7123 1.14327 0
M  V30 24169 N 2231.93 -0.513613 1.48996 0
M  V30 24170 C 2232.88 -1.61653 1.64733 0
M  V30 24171 C 2233.85 -1.58738 0.489012 0
M  V30 24172 O 2235.03 -1.76916 0.714509 0
M  V30 24173 C 2232.17 -2.99855 1.70825 0
M  V30 24174 C 2231.29 -3.1288 2.97876 0
M  V30 24175 C 2230.42 -4.41739 2.95025 0
M  V30 24176 C 2229.46 -4.48352 4.1671 0
M  V30 24177 N 2228.6 -5.68622 4.11842 0
M  V30 24178 H 2233.44 -1.47542 2.58912 0
M  V30 24179 H 2230.97 -0.718057 1.28384 0
M  V30 24180 H 2232.93 -3.79941 1.72338 0
M  V30 24181 H 2231.56 -3.12698 0.801236 0
M  V30 24182 H 2230.61 -2.25939 3.06033 0
M  V30 24183 H 2231.93 -3.13626 3.87866 0
M  V30 24184 H 2231.08 -5.30134 2.95031 0
M  V30 24185 H 2229.82 -4.43539 2.02792 0
M  V30 24186 H 2228.82 -3.58362 4.16962 0
M  V30 24187 H 2230.05 -4.48278 5.10121 0
M  V30 24188 H 2228 -5.71288 3.22438 0
M  V30 24189 H 2227.91 -5.70932 4.95553 0
M  V30 24190 H 2229.18 -6.59258 4.15931 0
M  V30 24191 N 2233.41 -1.37859 -0.763727 0
M  V30 24192 C 2234.64 -1.36523 -1.55065 0
M  V30 24193 C 2235.05 0.0493894 -1.89136 0
M  V30 24194 O 2234.39 1.02372 -1.52531 0
M  V30 24195 C 2234.45 -2.14661 -2.88376 0
M  V30 24196 C 2234.12 -3.6356 -2.76899 0
M  V30 24197 C 2235.11 -4.57272 -2.47382 0
M  V30 24198 C 2232.8 -4.06787 -2.94669 0
M  V30 24199 C 2234.79 -5.9219 -2.35776 0
M  V30 24200 C 2232.48 -5.41787 -2.82683 0
M  V30 24201 C 2233.48 -6.34302 -2.53278 0
M  V30 24202 O 2233.17 -7.66821 -2.41332 0
M  V30 24203 H 2232.9 -0.469077 -0.486768 0
M  V30 24204 H 2235.45 -1.81913 -0.953781 0
M  V30 24205 H 2233.68 -1.63973 -3.50214 0
M  V30 24206 H 2235.37 -2.05858 -3.49824 0
M  V30 24207 H 2236.14 -4.25184 -2.33331 0
M  V30 24208 H 2232.02 -3.35131 -3.16557 0
M  V30 24209 H 2235.56 -6.64368 -2.12745 0
M  V30 24210 H 2231.46 -5.73475 -2.96304 0
M  V30 24211 H 2232.22 -7.77231 -2.56621 0
M  V30 24212 N 2234.89 0.990791 -1.22561 0
M  V30 24213 C 2235.82 2.09954 -1.02184 0
M  V30 24214 C 2236.8 1.70001 0.0579095 0
M  V30 24215 O 2237.98 1.93917 -0.104718 0
M  V30 24216 C 2235.11 3.42059 -0.601083 0
M  V30 24217 C 2234.07 3.95869 -1.627 0
M  V30 24218 C 2233.39 5.24047 -1.06202 0
M  V30 24219 C 2234.69 4.26315 -3.0175 0
M  V30 24220 H 2236.39 2.27259 -1.9492 0
M  V30 24221 H 2233.93 1.09209 -0.938585 0
M  V30 24222 H 2235.89 4.19037 -0.445634 0
M  V30 24223 H 2234.61 3.24588 0.361948 0
M  V30 24224 H 2233.27 3.21025 -1.77027 0
M  V30 24225 H 2232.92 5.02919 -0.0902787 0
M  V30 24226 H 2232.62 5.61016 -1.74741 0
M  V30 24227 H 2234.14 6.03657 -0.918198 0
M  V30 24228 H 2235.56 4.94081 -2.90786 0
M  V30 24229 H 2233.95 4.74461 -3.67433 0
M  V30 24230 H 2235.02 3.34004 -3.51524 0
M  V30 24231 N 2236.37 1.03564 1.18795 0
M  V30 24232 C 2237.31 0.615945 2.24296 0
M  V30 24233 C 2238.31 -0.354779 1.65643 0
M  V30 24234 O 2239.51 -0.222619 1.78618 0
M  V30 24235 H 2235.89 0.180947 0.729906 0
M  V30 24236 H 2237.86 1.51624 2.57007 0
M  V30 24237 C 2236.61 -0.0104124 3.47698 0
M  V30 24238 H 2235.93 0.727578 3.93124 0
M  V30 24239 H 2237.37 -0.266921 4.23159 0
M  V30 24240 C 2235.83 -1.25899 3.12491 0
M  V30 24241 O 2236.36 -2.35032 3.25765 0
M  V30 24242 N 2234.57 -1.15034 2.66862 0
M  V30 24243 H 2234.11 -0.262283 2.56261 0
M  V30 24244 H 2234.07 -1.98668 2.43677 0
M  V30 24245 N 2237.84 -1.34926 0.814413 0
M  V30 24246 C 2239.09 -1.97796 0.394906 0
M  V30 24247 C 2239.41 -1.65313 -1.04552 0
M  V30 24248 O 2240.61 -2.21607 -1.56852 0
M  V30 24249 C 2239.07 -3.53886 0.655165 0
M  V30 24250 C 2238.68 -3.95272 2.10865 0
M  V30 24251 C 2240.42 -4.23429 0.301403 0
M  V30 24252 C 2238.33 -5.4424 2.31425 0
M  V30 24253 H 2237.26 -0.740136 0.143926 0
M  V30 24254 H 2239.91 -1.53886 0.999571 0
M  V30 24255 H 2238.29 -3.95995 -0.0195557 0
M  V30 24256 H 2239.46 -3.64293 2.82183 0
M  V30 24257 H 2237.78 -3.38642 2.42303 0
M  V30 24258 H 2240.38 -5.32944 0.432962 0
M  V30 24259 H 2240.72 -4.09429 -0.753238 0
M  V30 24260 H 2241.25 -3.86768 0.930356 0
M  V30 24261 H 2237.99 -5.63216 3.35363 0
M  V30 24262 H 2237.51 -5.76761 1.6464 0
M  V30 24263 H 2239.19 -6.10807 2.13362 0
M  V30 24264 N 2239.32 -0.56861 -1.46985 0
M  V30 24265 C 2240.28 0.162326 -2.28624 0
M  V30 24266 C 2241.28 0.832078 -1.37598 0
M  V30 24267 O 2242.47 0.686192 -1.60116 0
M  V30 24268 C 2239.61 1.23873 -3.17598 0
M  V30 24269 H 2240.8 -0.554951 -2.94721 0
M  V30 24270 H 2238.35 -0.326003 -1.52862 0
M  V30 24271 H 2239.09 1.98804 -2.56218 0
M  V30 24272 H 2238.87 0.763151 -3.84602 0
M  V30 24273 H 2240.36 1.75178 -3.79081 0
M  V30 24274 N 2240.8 1.54608 -0.305646 0
M  V30 24275 C 2242.05 2.00231 0.302263 0
M  V30 24276 C 2242.37 1.194 1.53538 0
M  V30 24277 O 2241.63 0.259457 1.93972 0
M  V30 24278 C 2241.93 3.50499 0.698922 0
M  V30 24279 C 2241.59 4.48816 -0.432982 0
M  V30 24280 C 2240.26 4.75418 -0.743706 0
M  V30 24281 C 2242.61 5.07335 -1.19418 0
M  V30 24282 C 2239.94 5.57801 -1.81867 0
M  V30 24283 C 2242.29 5.90887 -2.25909 0
M  V30 24284 C 2240.95 6.15798 -2.57583 0
M  V30 24285 H 2240.22 0.732699 0.110606 0
M  V30 24286 H 2242.87 1.86708 -0.425707 0
M  V30 24287 H 2241.17 3.61656 1.50705 0
M  V30 24288 H 2242.87 3.83229 1.18054 0
M  V30 24289 H 2239.46 4.28219 -0.180706 0
M  V30 24290 H 2243.65 4.86781 -0.96738 0
M  V30 24291 H 2238.9 5.75337 -2.06874 0
M  V30 24292 H 2243.08 6.35256 -2.85346 0
M  V30 24293 H 2240.7 6.79424 -3.41009 0
M  V30 24294 N 2242.28 0.033457 1.57564 0
M  V30 24295 C 2243.51 -0.654312 1.96281 0
M  V30 24296 C 2243.92 -1.65413 0.910167 0
M  V30 24297 O 2243.28 -1.82183 -0.107563 0
M  V30 24298 C 2243.33 -1.35687 3.35069 0
M  V30 24299 O 2243.05 -0.397115 4.36296 0
M  V30 24300 C 2244.55 -2.13606 3.88442 0
M  V30 24301 H 2241.77 -0.180121 0.646373 0
M  V30 24302 H 2244.31 0.094508 2.04282 0
M  V30 24303 H 2242.47 -2.05706 3.28274 0
M  V30 24304 H 2242.88 -0.896506 5.16781 0
M  V30 24305 H 2244.36 -2.58211 4.87884 0
M  V30 24306 H 2244.83 -2.97691 3.22919 0
M  V30 24307 H 2245.44 -1.48536 3.98519 0
M  V30 24308 N 2243.76 -1.55766 -0.239741 0
M  V30 24309 C 2244.69 -1.85898 -1.32353 0
M  V30 24310 C 2245.67 -0.714687 -1.46051 0
M  V30 24311 O 2246.85 -0.961185 -1.62153 0
M  V30 24312 C 2243.98 -2.04999 -2.69617 0
M  V30 24313 C 2243.02 -3.27653 -2.7303 0
M  V30 24314 S 2243.86 -4.84103 -2.2892 0
M  V30 24315 C 2245.01 -5.06219 -3.68095 0
M  V30 24316 H 2245.25 -2.77533 -1.06597 0
M  V30 24317 H 2242.78 -1.47966 -0.441086 0
M  V30 24318 H 2244.74 -2.16688 -3.4865 0
M  V30 24319 H 2243.4 -1.14193 -2.92607 0
M  V30 24320 H 2242.59 -3.38007 -3.73855 0
M  V30 24321 H 2242.19 -3.14727 -2.02047 0
M  V30 24322 H 2244.48 -4.94001 -4.63648 0
M  V30 24323 H 2245.43 -6.08175 -3.6267 0
M  V30 24324 H 2245.84 -4.34031 -3.60939 0
M  V30 24325 N 2245.23 0.505704 -1.49266 0
M  V30 24326 C 2246.48 1.26199 -1.5875 0
M  V30 24327 C 2246.81 1.92296 -0.271261 0
M  V30 24328 O 2246.09 1.80491 0.724799 0
M  V30 24329 C 2246.37 2.33263 -2.74336 0
M  V30 24330 C 2246.22 1.71698 -4.1574 0
M  V30 24331 C 2247.54 3.3486 -2.85581 0
M  V30 24332 H 2244.66 0.457468 -0.577834 0
M  V30 24333 H 2247.3 0.560865 -1.81533 0
M  V30 24334 H 2245.45 2.93063 -2.55042 0
M  V30 24335 H 2247.13 1.15761 -4.46539 0
M  V30 24336 H 2245.37 1.02128 -4.21607 0
M  V30 24337 H 2246.04 2.49332 -4.92481 0
M  V30 24338 H 2248.52 2.85045 -3.03132 0
M  V30 24339 H 2247.39 4.0714 -3.68142 0
M  V30 24340 H 2247.65 3.969 -1.94739 0
M  V30 24341 N 2246.71 1.38262 0.756405 0
M  V30 24342 C 2247.96 1.34315 1.51545 0
M  V30 24343 C 2248.29 -0.0676802 1.94382 0
M  V30 24344 O 2247.54 -1.04418 1.65516 0
M  V30 24345 C 2247.84 2.24229 2.78309 0
M  V30 24346 C 2247.51 3.72246 2.54449 0
M  V30 24347 C 2246.17 4.12581 2.4765 0
M  V30 24348 C 2248.52 4.65953 2.33532 0
M  V30 24349 C 2245.85 5.44717 2.17946 0
M  V30 24350 C 2248.2 5.98343 2.05349 0
M  V30 24351 C 2246.87 6.37766 1.97005 0
M  V30 24352 H 2246.14 0.491492 0.554542 0
M  V30 24353 H 2248.78 1.70596 0.870009 0
M  V30 24354 H 2247.09 1.80993 3.47489 0
M  V30 24355 H 2248.78 2.1848 3.36255 0
M  V30 24356 H 2245.37 3.40265 2.6061 0
M  V30 24357 H 2249.56 4.35639 2.37765 0
M  V30 24358 H 2244.81 5.74207 2.09992 0
M  V30 24359 H 2248.99 6.70497 1.88167 0
M  V30 24360 H 2246.62 7.40077 1.73753 0
M  V30 24361 N 2248.19 -0.984277 1.23084 0
M  V30 24362 C 2249.42 -1.76569 1.08803 0
M  V30 24363 C 2249.84 -1.84688 -0.356625 0
M  V30 24364 O 2249.2 -1.30567 -1.25785 0
M  V30 24365 C 2249.25 -3.17273 1.71376 0
M  V30 24366 O 2248.35 -4.0075 0.973283 0
M  V30 24367 H 2247.69 -0.543388 0.381609 0
M  V30 24368 H 2250.22 -1.23584 1.63059 0
M  V30 24369 H 2250.23 -3.67869 1.76456 0
M  V30 24370 H 2248.91 -3.10679 2.76498 0
M  V30 24371 H 2247.48 -3.59265 0.999141 0
M  V30 24372 N 2249.67 -1.04192 -1.18244 0
M  V30 24373 C 2250.6 -0.654953 -2.24126 0
M  V30 24374 C 2251.58 0.342422 -1.66618 0
M  V30 24375 O 2252.76 0.222243 -1.92924 0
M  V30 24376 C 2249.89 -0.0184367 -3.47295 0
M  V30 24377 C 2248.85 -0.939488 -4.17562 0
M  V30 24378 C 2248.17 -0.16738 -5.34438 0
M  V30 24379 C 2249.47 -2.25916 -4.70913 0
M  V30 24380 H 2251.17 -1.54012 -2.5675 0
M  V30 24381 H 2248.71 -0.741971 -1.23413 0
M  V30 24382 H 2250.67 0.264009 -4.20572 0
M  V30 24383 H 2249.39 0.901609 -3.13909 0
M  V30 24384 H 2248.05 -1.20634 -3.46184 0
M  V30 24385 H 2247.7 0.755112 -4.973 0
M  V30 24386 H 2247.4 -0.781003 -5.82387 0
M  V30 24387 H 2248.92 0.108018 -6.10504 0
M  V30 24388 H 2250.34 -2.03733 -5.35879 0
M  V30 24389 H 2248.73 -2.82586 -5.29401 0
M  V30 24390 H 2249.8 -2.90477 -3.88267 0
M  V30 24391 N 2251.15 1.34492 -0.821557 0
M  V30 24392 C 2252.06 2.33324 -0.244396 0
M  V30 24393 C 2253.07 1.6256 0.620499 0
M  V30 24394 O 2254.25 1.94336 0.52872 0
M  V30 24395 C 2251.31 3.41724 0.585308 0
M  V30 24396 C 2250.37 4.28238 -0.301827 0
M  V30 24397 C 2249.61 5.31461 0.488372 0
M  V30 24398 O 2249.83 5.43794 1.72177 0
M  V30 24399 O 2248.76 6.01763 -0.128586 0
M  V30 24400 H 2252.59 2.84513 -1.06236 0
M  V30 24401 H 2250.18 1.37527 -0.583669 0
M  V30 24402 H 2252.06 4.07918 1.0574 0
M  V30 24403 H 2250.73 2.9278 1.38063 0
M  V30 24404 H 2249.64 3.64971 -0.821379 0
M  V30 24405 H 2250.97 4.80618 -1.06147 0
M  V30 24406 N 2252.62 0.576397 1.46681 0
M  V30 24407 C 2253.86 0.0621715 2.04305 0
M  V30 24408 C 2254.23 -1.27118 1.43893 0
M  V30 24409 O 2255.43 -1.87426 1.92679 0
M  V30 24410 C 2253.7 -0.00921639 3.57399 0
M  V30 24411 S 2255.26 -0.466783 4.3631 0
M  V30 24412 H 2252.08 0.0344141 0.710167 0
M  V30 24413 H 2254.68 0.767469 1.79806 0
M  V30 24414 H 2253.38 0.965249 3.98887 0
M  V30 24415 H 2252.91 -0.73748 3.86426 0
M  V30 24416 H 2254.93 -1.72278 4.65333 0
M  V30 24417 N 2254.1 -1.54444 0.313841 0
M  V30 24418 C 2255.35 -2.00686 -0.292072 0
M  V30 24419 C 2255.68 -1.2018 -1.52546 0
M  V30 24420 O 2254.96 -0.281565 -1.92451 0
M  V30 24421 C 2255.24 -3.54441 -0.635906 0
M  V30 24422 C 2255.09 -4.45678 0.607516 0
M  V30 24423 C 2256.41 -4.15269 -1.45739 0
M  V30 24424 H 2253.53 -0.729527 -0.104684 0
M  V30 24425 H 2256.17 -1.85105 0.42849 0
M  V30 24426 H 2254.32 -3.67848 -1.2498 0
M  V30 24427 H 2255.99 -4.44157 1.24589 0
M  V30 24428 H 2254.24 -4.15751 1.23829 0
M  V30 24429 H 2254.91 -5.51056 0.322612 0
M  V30 24430 H 2257.38 -4.05376 -0.938574 0
M  V30 24431 H 2256.26 -5.22983 -1.66674 0
M  V30 24432 H 2256.52 -3.67967 -2.45056 0
M  V30 24433 N 2255.58 -0.0418125 -1.57545 0
M  V30 24434 C 2256.51 0.933891 -2.14011 0
M  V30 24435 C 2257.49 1.33082 -1.0594 0
M  V30 24436 O 2258.68 1.40719 -1.33835 0
M  V30 24437 C 2255.81 2.21194 -2.67751 0
M  V30 24438 C 2254.76 1.95538 -3.80722 0
M  V30 24439 C 2254.09 3.29717 -4.20941 0
M  V30 24440 C 2255.39 1.28443 -5.06261 0
M  V30 24441 H 2257.08 0.463593 -2.95789 0
M  V30 24442 H 2254.63 0.221548 -1.42286 0
M  V30 24443 H 2256.58 2.89843 -3.05891 0
M  V30 24444 H 2255.3 2.70413 -1.83151 0
M  V30 24445 H 2253.96 1.29304 -3.4304 0
M  V30 24446 H 2253.61 3.76719 -3.33305 0
M  V30 24447 H 2253.31 3.13352 -4.97076 0
M  V30 24448 H 2254.83 3.99612 -4.61673 0
M  V30 24449 H 2256.25 1.87111 -5.41906 0
M  V30 24450 H 2254.65 1.22434 -5.87477 0
M  V30 24451 H 2255.72 0.259134 -4.84207 0
M  V30 24452 N 2257.06 1.55891 0.231477 0
M  V30 24453 C 2258.01 1.916 1.28678 0
M  V30 24454 C 2258.98 0.772 1.47069 0
M  V30 24455 O 2260.16 1.02702 1.60801 0
M  V30 24456 C 2257.3 2.22949 2.63416 0
M  V30 24457 C 2256.41 3.50232 2.52906 0
M  V30 24458 C 2255.55 3.71076 3.801 0
M  V30 24459 C 2254.59 4.91908 3.6427 0
M  V30 24460 N 2253.72 5.09193 4.83391 0
M  V30 24461 H 2258.56 2.8159 0.975255 0
M  V30 24462 H 2256.1 1.3938 0.470274 0
M  V30 24463 H 2258.06 2.39132 3.41865 0
M  V30 24464 H 2256.69 1.36144 2.92685 0
M  V30 24465 H 2255.74 3.42296 1.65944 0
M  V30 24466 H 2257.05 4.38831 2.37126 0
M  V30 24467 H 2256.21 3.87303 4.66992 0
M  V30 24468 H 2254.95 2.8074 3.98794 0
M  V30 24469 H 2253.95 4.75642 2.75762 0
M  V30 24470 H 2255.18 5.8372 3.47056 0
M  V30 24471 H 2253.12 4.21797 5.02418 0
M  V30 24472 H 2253.04 5.91907 4.703 0
M  V30 24473 H 2254.31 5.29845 5.71738 0
M  V30 24474 N 2258.54 -0.497781 1.49532 0
M  V30 24475 C 2259.78 -1.25355 1.59417 0
M  V30 24476 C 2260.12 -1.9215 0.281455 0
M  V30 24477 O 2259.39 -1.80873 -0.715217 0
M  V30 24478 C 2259.67 -2.31805 2.7557 0
M  V30 24479 C 2259.53 -1.69491 4.16645 0
M  V30 24480 C 2260.85 -3.33341 2.87353 0
M  V30 24481 H 2257.96 -0.454398 0.580252 0
M  V30 24482 H 2260.61 -0.55123 1.81828 0
M  V30 24483 H 2258.76 -2.91707 2.56592 0
M  V30 24484 H 2260.43 -1.13391 4.47147 0
M  V30 24485 H 2258.67 -0.998904 4.22143 0
M  V30 24486 H 2259.34 -2.46717 4.93796 0
M  V30 24487 H 2261.82 -2.83433 3.04639 0
M  V30 24488 H 2260.69 -4.05181 3.70296 0
M  V30 24489 H 2260.96 -3.95861 1.96841 0
M  V30 24490 N 2260.01 -1.38661 -0.749062 0
M  V30 24491 C 2261.26 -1.34432 -1.50369 0
M  V30 24492 C 2261.58 0.0616053 -1.95503 0
M  V30 24493 O 2262.78 0.226441 -2.70554 0
M  V30 24494 C 2261.24 -2.36092 -2.7164 0
M  V30 24495 C 2260.85 -3.82329 -2.33513 0
M  V30 24496 C 2262.59 -2.40915 -3.49514 0
M  V30 24497 C 2260.5 -4.75664 -3.51422 0
M  V30 24498 H 2259.43 -0.499721 -0.564619 0
M  V30 24499 H 2262.08 -1.64238 -0.81842 0
M  V30 24500 H 2260.46 -1.99336 -3.42171 0
M  V30 24501 H 2261.63 -4.28049 -1.70619 0
M  V30 24502 H 2259.95 -3.80668 -1.68763 0
M  V30 24503 H 2262.55 -3.07844 -4.37191 0
M  V30 24504 H 2262.89 -1.42944 -3.9099 0
M  V30 24505 H 2263.42 -2.76494 -2.86 0
M  V30 24506 H 2260.16 -5.74847 -3.15009 0
M  V30 24507 H 2259.68 -4.34634 -4.13344 0
M  V30 24508 H 2261.36 -4.93894 -4.17944 0
M  V30 24509 N 2261.49 0.977736 -1.23605 0
M  V30 24510 C 2262.46 2.05217 -1.02072 0
M  V30 24511 C 2263.46 1.60789 0.0184023 0
M  V30 24512 O 2264.65 1.72785 -0.2216 0
M  V30 24513 C 2261.78 3.36516 -0.544985 0
M  V30 24514 H 2262.97 2.25752 -1.97424 0
M  V30 24515 H 2260.52 1.15153 -1.05686 0
M  V30 24516 H 2261.26 3.2167 0.412184 0
M  V30 24517 H 2261.04 3.70102 -1.29486 0
M  V30 24518 H 2262.53 4.15532 -0.415058 0
M  V30 24519 N 2262.97 1.04818 1.1769 0
M  V30 24520 C 2264.22 0.756023 1.87858 0
M  V30 24521 C 2264.55 -0.71672 1.80813 0
M  V30 24522 O 2263.8 -1.5395 1.20821 0
M  V30 24523 C 2264.1 1.17709 3.3746 0
M  V30 24524 C 2263.77 2.65139 3.64708 0
M  V30 24525 C 2262.43 3.05415 3.71854 0
M  V30 24526 C 2264.78 3.60428 3.76485 0
M  V30 24527 C 2262.11 4.3985 3.88264 0
M  V30 24528 C 2264.46 4.94592 3.94413 0
M  V30 24529 C 2263.12 5.34527 3.99797 0
M  V30 24530 H 2262.39 0.276648 0.68742 0
M  V30 24531 H 2265.04 1.31457 1.39252 0
M  V30 24532 H 2263.35 0.537463 3.88096 0
M  V30 24533 H 2265.04 0.928286 3.90107 0
M  V30 24534 H 2261.63 2.32948 3.59768 0
M  V30 24535 H 2265.82 3.30454 3.70289 0
M  V30 24536 H 2261.07 4.70298 3.90678 0
M  V30 24537 H 2265.25 5.68325 4.02467 0
M  V30 24538 H 2262.87 6.38704 4.12264 0
M  V30 24539 N 2264.45 -1.34055 0.828678 0
M  V30 24540 C 2265.7 -1.97716 0.418665 0
M  V30 24541 C 2266.02 -1.66004 -1.02311 0
M  V30 24542 O 2265.29 -0.953713 -1.71117 0
M  V30 24543 H 2263.87 -0.731409 0.151822 0
M  V30 24544 H 2266.53 -1.63594 1.05939 0
M  V30 24545 H 2265.63 -3.07351 0.542372 0
M  V30 24546 N 2265.93 -0.584167 -1.46374 0
M  V30 24547 C 2267.17 -0.070303 -2.02378 0
M  V30 24548 C 2267.5 1.2902 -1.45548 0
M  V30 24549 O 2266.76 1.85917 -0.610999 0
M  V30 24550 C 2267.06 0.0438714 -3.57373 0
M  V30 24551 C 2266.72 -1.24923 -4.3325 0
M  V30 24552 C 2265.38 -1.60349 -4.53698 0
M  V30 24553 C 2267.74 -2.10488 -4.76806 0
M  V30 24554 C 2265.06 -2.81137 -5.14955 0
M  V30 24555 C 2267.42 -3.30503 -5.39398 0
M  V30 24556 C 2266.08 -3.6621 -5.58074 0
M  V30 24557 H 2265.35 -0.0257257 -0.740553 0
M  V30 24558 H 2268 -0.761096 -1.75726 0
M  V30 24559 H 2266.3 0.817801 -3.8317 0
M  V30 24560 H 2268 0.457248 -3.98385 0
M  V30 24561 H 2264.59 -0.963437 -4.17631 0
M  V30 24562 H 2268.77 -1.84422 -4.60763 0
M  V30 24563 H 2264.03 -3.08938 -5.27605 0
M  V30 24564 H 2268.2 -3.97073 -5.72107 0
M  V30 24565 H 2265.83 -4.59896 -6.0531 0
M  V30 24566 N 2267.41 1.54275 -0.322027 0
M  V30 24567 C 2268.34 2.27232 0.537371 0
M  V30 24568 C 2269.32 1.2797 1.12061 0
M  V30 24569 O 2270.5 1.56779 1.14603 0
M  V30 24570 C 2267.63 3.02897 1.69913 0
M  V30 24571 C 2266.59 4.09484 1.24526 0
M  V30 24572 C 2265.91 4.72981 2.49385 0
M  V30 24573 C 2267.21 5.21049 0.361243 0
M  V30 24574 H 2268.91 2.99315 -0.0711932 0
M  V30 24575 H 2266.45 1.43956 -0.0356808 0
M  V30 24576 H 2268.4 3.52666 2.30662 0
M  V30 24577 H 2267.13 2.28429 2.33427 0
M  V30 24578 H 2265.79 3.60597 0.660719 0
M  V30 24579 H 2265.44 3.95129 3.11258 0
M  V30 24580 H 2265.14 5.44979 2.19708 0
M  V30 24581 H 2266.66 5.25523 3.10899 0
M  V30 24582 H 2268.07 5.66584 0.874972 0
M  V30 24583 H 2266.47 5.99894 0.157323 0
M  V30 24584 H 2267.54 4.81069 -0.608304 0
M  V30 24585 N 2268.88 0.0501669 1.5752 0
M  V30 24586 C 2269.83 -0.942421 2.12653 0
M  V30 24587 C 2270.83 -1.32291 1.05809 0
M  V30 24588 O 2272.03 -1.30268 1.24219 0
M  V30 24589 H 2268.41 -0.321777 0.679679 0
M  V30 24590 H 2270.38 -0.452304 2.94952 0
M  V30 24591 C 2269.13 -2.20831 2.68568 0
M  V30 24592 H 2268.45 -1.92433 3.50442 0
M  V30 24593 H 2269.89 -2.88444 3.10767 0
M  V30 24594 C 2268.35 -2.95231 1.62297 0
M  V30 24595 O 2268.88 -3.88133 1.03515 0
M  V30 24596 N 2267.08 -2.57944 1.33841 0
M  V30 24597 H 2266.63 -1.82472 1.81829 0
M  V30 24598 H 2266.59 -3.0803 0.629649 0
M  V30 24599 N 2270.36 -1.56011 -0.223207 0
M  V30 24600 C 2271.59 -1.82764 -0.963381 0
M  V30 24601 C 2272 -0.626835 -1.78514 0
M  V30 24602 O 2271.34 0.413982 -1.78975 0
M  V30 24603 C 2271.4 -3.03223 -1.93121 0
M  V30 24604 C 2271.07 -4.38294 -1.29413 0
M  V30 24605 C 2272.07 -5.1537 -0.684826 0
M  V30 24606 C 2269.75 -4.85014 -1.30639 0
M  V30 24607 C 2271.74 -6.37327 -0.0962851 0
M  V30 24608 C 2269.43 -6.06914 -0.714003 0
M  V30 24609 C 2270.43 -6.82911 -0.110003 0
M  V30 24610 O 2270.12 -8.02506 0.473171 0
M  V30 24611 H 2269.85 -0.611581 -0.288 0
M  V30 24612 H 2272.4 -2.03945 -0.244067 0
M  V30 24613 H 2270.63 -2.77856 -2.68947 0
M  V30 24614 H 2272.32 -3.16862 -2.5368 0
M  V30 24615 H 2273.09 -4.80382 -0.667689 0
M  V30 24616 H 2268.97 -4.25837 -1.76591 0
M  V30 24617 H 2272.51 -6.96587 0.375779 0
M  V30 24618 H 2268.41 -6.41375 -0.728547 0
M  V30 24619 H 2269.18 -8.17675 0.36733 0
M  V30 24620 N 2271.84 0.489844 -1.49794 0
M  V30 24621 C 2273.09 1.24324 -1.59843 0
M  V30 24622 C 2273.41 1.92323 -0.290169 0
M  V30 24623 O 2272.67 1.81866 0.722717 0
M  V30 24624 C 2272.97 2.32436 -2.71492 0
M  V30 24625 C 2272.63 1.81819 -4.12617 0
M  V30 24626 C 2271.3 1.67734 -4.5102 0
M  V30 24627 C 2273.65 1.44062 -5.00895 0
M  V30 24628 C 2270.98 1.14287 -5.75461 0
M  V30 24629 C 2273.33 0.920632 -6.25865 0
M  V30 24630 C 2271.99 0.766267 -6.63087 0
M  V30 24631 H 2271.26 0.454934 -0.584907 0
M  V30 24632 H 2273.91 0.542183 -1.83664 0
M  V30 24633 H 2272.21 3.08375 -2.41685 0
M  V30 24634 H 2273.91 2.90453 -2.76474 0
M  V30 24635 H 2270.5 1.93744 -3.8231 0
M  V30 24636 H 2274.69 1.53786 -4.71873 0
M  V30 24637 H 2269.94 1.01057 -6.0299 0
M  V30 24638 H 2274.12 0.619326 -6.93641 0
M  V30 24639 H 2271.74 0.34995 -7.59394 0
M  V30 24640 N 2273.32 1.39056 0.741698 0
M  V30 24641 C 2274.73 1.20514 1.04636 0
M  V30 24642 C 2274.93 0.0620572 2.01404 0
M  V30 24643 O 2273.99 -0.588414 2.45548 0
M  V30 24644 C 2275.3 2.53646 1.61506 0
M  V30 24645 C 2276.85 2.60433 1.73619 0
M  V30 24646 C 2277.33 3.93771 2.33899 0
M  V30 24647 N 2278.82 3.95374 2.41316 0
M  V30 24648 C 2279.55 4.95314 2.8888 0
M  V30 24649 N 2279.05 6.05651 3.3639 0
M  V30 24650 N 2280.84 4.82697 2.88028 0
M  V30 24651 H 2272.99 2.12166 0.0997782 0
M  V30 24652 H 2275.25 0.941955 0.10689 0
M  V30 24653 H 2274.96 3.37809 0.97868 0
M  V30 24654 H 2274.83 2.72889 2.60406 0
M  V30 24655 H 2277.22 1.76659 2.3638 0
M  V30 24656 H 2277.3 2.45046 0.733902 0
M  V30 24657 H 2276.95 4.77973 1.71767 0
M  V30 24658 H 2276.88 4.06475 3.34792 0
M  V30 24659 H 2279.37 3.15686 2.07728 0
M  V30 24660 H 2279.68 6.77827 3.71174 0
M  V30 24661 H 2278.03 6.09254 3.34416 0
M  V30 24662 H 2281.22 3.95604 2.5023 0
M  V30 24663 H 2281.39 5.60732 3.24783 0
M  V30 24664 N 2274.8 -0.971167 1.24121 0
M  V30 24665 C 2276.07 -1.68878 0.986897 0
M  V30 24666 C 2276.45 -2.05291 -0.491821 0
M  V30 24667 O 2275.8 -1.75333 -1.46528 0
M  V30 24668 C 2276.01 -2.92334 1.90635 0
M  V30 24669 C 2277.36 -3.6465 2.17522 0
M  V30 24670 O 2278.38 -3.02385 1.8826 0
M  V30 24671 O 2277.24 -4.76726 2.67198 0
M  V30 24672 H 2274.34 -0.738127 0.372957 0
M  V30 24673 H 2276.88 -1.02557 1.35204 0
M  V30 24674 H 2275.65 -2.62092 2.90557 0
M  V30 24675 H 2275.28 -3.6639 1.54415 0
M  V30 24676 N 2276.27 -1.05441 -1.17133 0
M  V30 24677 C 2277.5 -0.786447 -1.9137 0
M  V30 24678 C 2277.92 0.658171 -1.76956 0
M  V30 24679 O 2277.27 1.44985 -1.1084 0
M  V30 24680 C 2277.33 -1.16086 -3.42354 0
M  V30 24681 O 2277.05 -2.54878 -3.56327 0
M  V30 24682 C 2278.55 -0.919399 -4.33661 0
M  V30 24683 H 2275.77 -0.285754 -0.607113 0
M  V30 24684 H 2278.31 -1.40575 -1.48522 0
M  V30 24685 H 2276.47 -0.586258 -3.82938 0
M  V30 24686 H 2276.88 -2.69626 -4.49891 0
M  V30 24687 H 2278.35 -1.23109 -5.38097 0
M  V30 24688 H 2278.83 0.145282 -4.3896 0
M  V30 24689 H 2279.44 -1.47796 -3.98794 0
M  V30 24690 N 2277.75 1.33613 -0.835776 0
M  V30 24691 C 2279 1.98587 -0.439852 0
M  V30 24692 C 2279.35 1.6502 0.989245 0
M  V30 24693 O 2278.65 0.918189 1.68166 0
M  V30 24694 C 2278.84 3.5243 -0.593987 0
M  V30 24695 C 2278.67 4.00944 -2.03652 0
M  V30 24696 C 2277.44 4.28929 -2.67111 0
M  V30 24697 C 2279.64 4.17388 -3.00486 0
M  V30 24698 N 2277.62 4.63563 -4.0247 0
M  V30 24699 C 2278.99 4.55346 -4.20785 0
M  V30 24700 C 2281.05 3.99669 -2.96933 0
M  V30 24701 C 2279.75 4.77437 -5.38002 0
M  V30 24702 C 2281.77 4.22934 -4.13377 0
M  V30 24703 C 2281.14 4.61192 -5.3243 0
M  V30 24704 H 2277.24 0.753466 -0.209316 0
M  V30 24705 H 2279.82 1.61787 -1.08319 0
M  V30 24706 H 2277.99 3.88395 0.0195307 0
M  V30 24707 H 2279.72 4.04344 -0.169809 0
M  V30 24708 H 2276.48 4.20306 -2.18266 0
M  V30 24709 H 2276.9 4.85095 -4.72241 0
M  V30 24710 H 2281.54 3.69208 -2.06022 0
M  V30 24711 H 2279.26 5.0676 -6.2946 0
M  V30 24712 H 2282.85 4.10747 -4.12041 0
M  V30 24713 H 2281.73 4.78837 -6.21035 0
M  V30 24714 N 2279.23 0.591922 1.46062 0
M  V30 24715 C 2280.18 -0.148698 2.32124 0
M  V30 24716 C 2281.17 -0.875261 1.45036 0
M  V30 24717 O 2282.38 -0.792604 1.6161 0
M  V30 24718 H 2278.75 -0.0668189 0.749026 0
M  V30 24719 H 2280.72 0.595835 2.92391 0
M  V30 24720 C 2279.47 -1.14304 3.28375 0
M  V30 24721 H 2278.8 -0.59339 3.95372 0
M  V30 24722 H 2280.24 -1.63148 3.91355 0
M  V30 24723 C 2278.7 -2.2087 2.54397 0
M  V30 24724 O 2279.23 -3.2837 2.31378 0
M  V30 24725 N 2277.43 -1.95727 2.148 0
M  V30 24726 H 2276.98 -1.08315 2.33721 0
M  V30 24727 H 2276.94 -2.67238 1.65624 0
M  V30 24728 N 2280.71 -1.54102 0.330204 0
M  V30 24729 C 2281.96 -1.99867 -0.271301 0
M  V30 24730 C 2282.27 -1.22212 -1.52721 0
M  V30 24731 O 2283.48 -1.58387 -2.20513 0
M  V30 24732 C 2281.93 -3.55917 -0.53397 0
M  V30 24733 C 2281.54 -4.42414 0.705271 0
M  V30 24734 C 2283.28 -4.10132 -1.09506 0
M  V30 24735 C 2281.19 -5.89948 0.414138 0
M  V30 24736 H 2280.12 -0.746632 -0.105153 0
M  V30 24737 H 2282.77 -1.78061 0.44346 0
M  V30 24738 H 2281.15 -3.73736 -1.30909 0
M  V30 24739 H 2282.33 -4.3637 1.48047 0
M  V30 24740 H 2280.64 -3.99122 1.18705 0
M  V30 24741 H 2283.24 -5.17956 -1.32761 0
M  V30 24742 H 2283.58 -3.62525 -2.04649 0
M  V30 24743 H 2284.12 -3.95972 -0.380969 0
M  V30 24744 H 2280.86 -6.41763 1.33492 0
M  V30 24745 H 2280.38 -5.98928 -0.323231 0
M  V30 24746 H 2282.05 -6.46995 0.0264242 0
M  V30 24747 N 2282.19 -0.0585199 -1.57491 0
M  V30 24748 C 2283.43 0.613615 -1.92979 0
M  V30 24749 C 2283.76 1.70415 -0.937491 0
M  V30 24750 O 2283.02 1.95639 0.0490436 0
M  V30 24751 C 2283.32 1.24182 -3.35132 0
M  V30 24752 C 2282.98 0.278747 -4.50038 0
M  V30 24753 C 2281.64 0.0137601 -4.81198 0
M  V30 24754 C 2284 -0.380868 -5.19807 0
M  V30 24755 C 2281.32 -0.918153 -5.79471 0
M  V30 24756 C 2283.68 -1.30102 -6.19077 0
M  V30 24757 C 2282.34 -1.57461 -6.48662 0
M  V30 24758 H 2281.61 0.224537 -0.706161 0
M  V30 24759 H 2284.26 -0.126567 -1.91081 0
M  V30 24760 H 2282.56 2.05743 -3.33432 0
M  V30 24761 H 2284.26 1.76894 -3.59874 0
M  V30 24762 H 2280.85 0.495464 -4.25727 0
M  V30 24763 H 2285.03 -0.189245 -4.95939 0
M  V30 24764 H 2280.29 -1.13751 -6.00725 0
M  V30 24765 H 2284.46 -1.81816 -6.72247 0
M  V30 24766 H 2282.09 -2.29834 -7.24624 0
M  V30 24767 N 2283.66 1.56128 0.21493 0
M  V30 24768 C 2284.94 1.70248 0.963063 0
M  V30 24769 C 2285.32 0.607676 2.02165 0
M  V30 24770 O 2284.67 -0.384345 2.25244 0
M  V30 24771 C 2284.88 3.11818 1.5675 0
M  V30 24772 C 2286.23 3.71434 2.05723 0
M  V30 24773 O 2287.25 3.14821 1.66631 0
M  V30 24774 O 2286.11 4.70748 2.77595 0
M  V30 24775 H 2283.2 0.693651 0.450309 0
M  V30 24776 H 2285.75 1.68443 0.206189 0
M  V30 24777 H 2284.52 3.82962 0.803465 0
M  V30 24778 H 2284.15 3.17769 2.38974 0
M  V30 24779 N 2285.14 -0.481893 1.50052 0
M  V30 24780 C 2286.39 -1.23475 1.605 0
M  V30 24781 C 2286.72 -1.92167 0.300364 0
M  V30 24782 O 2285.97 -1.82247 -0.713062 0
M  V30 24783 C 2286.27 -2.30993 2.72721 0
M  V30 24784 C 2285.94 -1.79628 4.13575 0
M  V30 24785 C 2284.6 -1.6534 4.51903 0
M  V30 24786 C 2286.95 -1.41403 5.01652 0
M  V30 24787 C 2284.28 -1.11234 5.76059 0
M  V30 24788 C 2286.63 -0.887428 6.26345 0
M  V30 24789 C 2285.3 -0.731091 6.63484 0
M  V30 24790 H 2284.57 -0.451826 0.587311 0
M  V30 24791 H 2287.21 -0.532435 1.83949 0
M  V30 24792 H 2285.52 -3.07089 2.43317 0
M  V30 24793 H 2287.21 -2.88983 2.78011 0
M  V30 24794 H 2283.8 -1.91714 3.83332 0
M  V30 24795 H 2287.99 -1.51281 4.72681 0
M  V30 24796 H 2283.24 -0.978579 6.03518 0
M  V30 24797 H 2287.42 -0.582532 6.93959 0
M  V30 24798 H 2285.05 -0.309672 7.59569 0
M  V30 24799 N 2286.62 -1.39448 -0.734313 0
M  V30 24800 C 2287.87 -1.3602 -1.48935 0
M  V30 24801 C 2288.18 0.0408662 -1.95557 0
M  V30 24802 O 2289.39 0.197733 -2.70779 0
M  V30 24803 C 2287.84 -2.3896 -2.69121 0
M  V30 24804 C 2287.45 -3.84784 -2.29445 0
M  V30 24805 C 2289.2 -2.44609 -3.46939 0
M  V30 24806 C 2287.1 -4.79365 -3.46358 0
M  V30 24807 H 2286.03 -0.505682 -0.559287 0
M  V30 24808 H 2288.68 -1.65097 -0.800954 0
M  V30 24809 H 2287.07 -2.02954 -3.40038 0
M  V30 24810 H 2288.24 -4.29834 -1.6607 0
M  V30 24811 H 2286.56 -3.82436 -1.64716 0
M  V30 24812 H 2289.15 -3.12464 -4.33902 0
M  V30 24813 H 2289.5 -1.47082 -3.89451 0
M  V30 24814 H 2290.03 -2.79512 -2.83051 0
M  V30 24815 H 2286.77 -5.78156 -3.08895 0
M  V30 24816 H 2286.29 -4.38993 -4.08711 0
M  V30 24817 H 2287.97 -4.98299 -4.12683 0
M  V30 24818 N 2288.1 0.964571 -1.24635 0
M  V30 24819 C 2289.33 1.74283 -1.11504 0
M  V30 24820 C 2289.74 1.85856 0.332133 0
M  V30 24821 O 2289.1 1.34913 1.22901 0
M  V30 24822 C 2289.15 3.16172 -1.75264 0
M  V30 24823 O 2288.87 3.05176 -3.14323 0
M  V30 24824 C 2290.37 4.10321 -1.67784 0
M  V30 24825 H 2287.59 0.546439 -0.389417 0
M  V30 24826 H 2290.14 1.2108 -1.64803 0
M  V30 24827 H 2288.29 3.66351 -1.2596 0
M  V30 24828 H 2288.7 3.94612 -3.45517 0
M  V30 24829 H 2290.18 5.07527 -2.17073 0
M  V30 24830 H 2290.66 4.34517 -0.639661 0
M  V30 24831 H 2291.26 3.66054 -2.16529 0
M  V30 24832 N 2289.58 1.0606 1.16572 0
M  V30 24833 C 2290.82 0.777055 1.87322 0
M  V30 24834 C 2291.16 -0.694613 1.81353 0
M  V30 24835 O 2290.43 -1.50869 1.22756 0
M  V30 24836 C 2290.71 1.26928 3.36989 0
M  V30 24837 C 2290.57 2.80453 3.51662 0
M  V30 24838 C 2291.89 0.875286 4.31308 0
M  V30 24839 H 2289 0.283752 0.680187 0
M  V30 24840 H 2291.65 1.31612 1.37034 0
M  V30 24841 H 2289.8 0.810697 3.79947 0
M  V30 24842 H 2291.47 3.34501 3.17658 0
M  V30 24843 H 2289.71 3.19299 2.9365 0
M  V30 24844 H 2290.38 3.09958 4.56761 0
M  V30 24845 H 2292.86 1.27021 3.96238 0
M  V30 24846 H 2291.73 1.24719 5.34543 0
M  V30 24847 H 2292 -0.219994 4.41552 0
M  V30 24848 N 2291.06 -1.33168 0.84285 0
M  V30 24849 C 2292.3 -1.96914 0.436773 0
M  V30 24850 C 2292.62 -1.67493 -1.01022 0
M  V30 24851 O 2293.82 -2.24884 -1.52116 0
M  V30 24852 C 2292.28 -3.52417 0.730082 0
M  V30 24853 C 2291.89 -3.9071 2.19202 0
M  V30 24854 C 2293.63 -4.22694 0.391151 0
M  V30 24855 C 2291.54 -5.39208 2.42917 0
M  V30 24856 H 2290.47 -0.736917 0.159593 0
M  V30 24857 H 2293.12 -1.51731 1.03199 0
M  V30 24858 H 2291.5 -3.95948 0.0644451 0
M  V30 24859 H 2292.68 -3.58226 2.89846 0
M  V30 24860 H 2290.99 -3.33426 2.49431 0
M  V30 24861 H 2293.59 -5.31906 0.54591 0
M  V30 24862 H 2293.93 -4.10935 -0.666222 0
M  V30 24863 H 2294.46 -3.84707 1.01219 0
M  V30 24864 H 2291.2 -5.55976 3.47234 0
M  V30 24865 H 2290.72 -5.73139 1.76837 0
M  V30 24866 H 2292.4 -6.06144 2.2627 0
M  V30 24867 N 2292.53 -0.599659 -1.45746 0
M  V30 24868 C 2293.78 -0.0915827 -2.01892 0
M  V30 24869 C 2294.1 1.27944 -1.47158 0
M  V30 24870 O 2293.37 1.84348 -0.662762 0
M  V30 24871 H 2291.95 -0.0308655 -0.746362 0
M  V30 24872 H 2294.61 -0.779268 -1.78643 0
M  V30 24873 H 2293.71 -0.0353635 -3.1208 0
M  V30 24874 N 2294.01 1.53925 -0.338371 0
M  V30 24875 C 2295.24 2.05714 0.263951 0
M  V30 24876 C 2295.66 1.21204 1.43845 0
M  V30 24877 O 2295.02 0.224567 1.79904 0
M  V30 24878 C 2295.07 3.54472 0.661938 0
M  V30 24879 O 2294.17 3.72836 1.76259 0
M  V30 24880 H 2293.51 0.662483 0.0448606 0
M  V30 24881 H 2296.04 1.98619 -0.491083 0
M  V30 24882 H 2296.05 3.97012 0.940524 0
M  V30 24883 H 2294.73 4.15433 -0.19701 0
M  V30 24884 H 2293.3 3.422 1.48167 0
M  V30 24885 N 2295.49 0.0668712 1.57458 0
M  V30 24886 C 2296.74 -0.602913 1.92478 0
M  V30 24887 C 2297.05 -1.71067 0.948449 0
M  V30 24888 O 2298.26 -2.43968 1.19129 0
M  V30 24889 C 2296.71 -1.12377 3.41905 0
M  V30 24890 C 2296.32 -0.0472913 4.47975 0
M  V30 24891 C 2298.07 -1.7679 3.85934 0
M  V30 24892 C 2295.97 -0.581919 5.8853 0
M  V30 24893 H 2294.9 -0.228977 0.718391 0
M  V30 24894 H 2297.55 0.138308 1.82978 0
M  V30 24895 H 2295.94 -1.91781 3.46462 0
M  V30 24896 H 2297.11 0.727058 4.55028 0
M  V30 24897 H 2295.42 0.500316 4.13383 0
M  V30 24898 H 2298.02 -2.17813 4.88325 0
M  V30 24899 H 2298.36 -2.62593 3.23033 0
M  V30 24900 H 2298.9 -1.04017 3.8396 0
M  V30 24901 H 2295.64 0.238836 6.55065 0
M  V30 24902 H 2295.16 -1.3239 5.85007 0
M  V30 24903 H 2296.84 -1.05988 6.3826 0
M  V30 24904 N 2296.97 -1.56239 -0.206647 0
M  V30 24905 C 2298.2 -1.84042 -0.945313 0
M  V30 24906 C 2298.61 -0.647917 -1.77334 0
M  V30 24907 O 2297.97 0.38348 -1.78426 0
M  V30 24908 C 2298.02 -3.10525 -1.85084 0
M  V30 24909 O 2297.74 -4.25176 -1.05626 0
M  V30 24910 C 2299.24 -3.51423 -2.70216 0
M  V30 24911 H 2296.46 -0.611445 -0.276362 0
M  V30 24912 H 2299 -2.03341 -0.217381 0
M  V30 24913 H 2297.16 -2.93157 -2.53254 0
M  V30 24914 H 2297.57 -4.97126 -1.67229 0
M  V30 24915 H 2299.05 -4.42922 -3.2943 0
M  V30 24916 H 2299.52 -2.7387 -3.43354 0
M  V30 24917 H 2300.13 -3.71282 -2.07436 0
M  V30 24918 N 2298.45 0.473929 -1.50305 0
M  V30 24919 C 2299.36 1.59817 -1.71743 0
M  V30 24920 C 2300.37 1.6331 -0.600486 0
M  V30 24921 O 2301.55 1.81231 -0.878473 0
M  V30 24922 C 2298.61 2.96049 -1.80433 0
M  V30 24923 C 2297.67 3.02967 -3.04154 0
M  V30 24924 C 2296.91 4.32701 -3.12419 0
M  V30 24925 O 2297.13 5.23045 -2.27551 0
M  V30 24926 O 2296.06 4.45152 -4.05121 0
M  V30 24927 H 2299.89 1.44653 -2.67038 0
M  V30 24928 H 2297.47 0.653124 -1.34368 0
M  V30 24929 H 2299.36 3.76967 -1.88345 0
M  V30 24930 H 2298.03 3.11418 -0.883211 0
M  V30 24931 H 2296.94 2.21137 -3.01744 0
M  V30 24932 H 2298.27 2.92534 -3.95834 0
M  V30 24933 N 2299.92 1.39835 0.726907 0
M  V30 24934 C 2301.17 1.36808 1.48211 0
M  V30 24935 C 2301.49 -0.0304947 1.95576 0
M  V30 24936 O 2302.69 -0.18337 2.7088 0
M  V30 24937 C 2301.15 2.40384 2.6785 0
M  V30 24938 C 2300.76 3.85996 2.27401 0
M  V30 24939 C 2302.5 2.46445 3.45637 0
M  V30 24940 C 2300.41 4.81195 3.43811 0
M  V30 24941 H 2299.34 0.508641 0.556597 0
M  V30 24942 H 2301.99 1.65519 0.792187 0
M  V30 24943 H 2300.37 2.04755 3.38957 0
M  V30 24944 H 2301.54 4.30709 1.63788 0
M  V30 24945 H 2299.86 3.83304 1.62686 0
M  V30 24946 H 2302.46 3.1476 4.32238 0
M  V30 24947 H 2302.8 1.49146 3.88666 0
M  V30 24948 H 2303.33 2.81009 2.81565 0
M  V30 24949 H 2300.07 5.79786 3.05824 0
M  V30 24950 H 2299.59 4.41155 4.06377 0
M  V30 24951 H 2301.27 5.00481 4.10034 0
M  V30 24952 N 2301.4 -0.957948 1.25144 0
M  V30 24953 C 2302.65 -1.69652 1.09093 0
M  V30 24954 C 2302.96 -1.92097 -0.368514 0
M  V30 24955 O 2304.17 -2.63619 -0.649409 0
M  V30 24956 C 2302.63 -3.05411 1.904 0
M  V30 24957 C 2302.23 -2.90773 3.40815 0
M  V30 24958 C 2303.98 -3.83073 1.82908 0
M  V30 24959 C 2301.88 -4.21902 4.14431 0
M  V30 24960 H 2300.81 -0.636228 0.404636 0
M  V30 24961 H 2303.47 -1.06669 1.49311 0
M  V30 24962 H 2301.85 -3.69278 1.43002 0
M  V30 24963 H 2303.02 -2.35858 3.95863 0
M  V30 24964 H 2301.34 -2.26568 3.49365 0
M  V30 24965 H 2303.93 -4.80191 2.35204 0
M  V30 24966 H 2304.28 -4.08613 0.796296 0
M  V30 24967 H 2304.81 -3.2595 2.28038 0
M  V30 24968 H 2301.55 -4.01552 5.18109 0
M  V30 24969 H 2301.07 -4.76595 3.64167 0
M  V30 24970 H 2302.75 -4.90464 4.21965 0
M  V30 24971 N 2302.88 -1.06677 -1.16008 0
M  V30 24972 C 2303.81 -0.702346 -2.22687 0
M  V30 24973 C 2304.79 0.307003 -1.67307 0
M  V30 24974 O 2305.98 0.181271 -1.93352 0
M  V30 24975 C 2303.11 -0.092099 -3.47178 0
M  V30 24976 C 2302.06 -1.02785 -4.15475 0
M  V30 24977 C 2301.39 -0.280704 -5.33963 0
M  V30 24978 C 2302.69 -2.35854 -4.66015 0
M  V30 24979 H 2304.38 -1.59423 -2.53426 0
M  V30 24980 H 2301.93 -0.767982 -1.21811 0
M  V30 24981 H 2303.88 0.17474 -4.21038 0
M  V30 24982 H 2302.6 0.834821 -3.1575 0
M  V30 24983 H 2301.26 -1.2795 -3.43547 0
M  V30 24984 H 2300.91 0.649458 -4.9879 0
M  V30 24985 H 2300.61 -0.90436 -5.80599 0
M  V30 24986 H 2302.13 -0.0215033 -6.10596 0
M  V30 24987 H 2303.55 -2.15054 -5.31436 0
M  V30 24988 H 2301.94 -2.93752 -5.23288 0
M  V30 24989 H 2303.01 -2.98648 -3.82018 0
M  V30 24990 N 2304.36 1.32719 -0.8499 0
M  V30 24991 C 2305.59 2.01612 -0.464789 0
M  V30 24992 C 2306 1.63898 0.937163 0
M  V30 24993 O 2305.36 0.857885 1.61079 0
M  V30 24994 C 2305.41 3.56674 -0.588701 0
M  V30 24995 O 2305.13 3.93031 -1.93542 0
M  V30 24996 C 2306.63 4.4284 -0.201977 0
M  V30 24997 H 2303.85 0.645499 -0.183227 0
M  V30 24998 H 2306.39 1.69405 -1.14553 0
M  V30 24999 H 2304.55 3.87375 0.0442478 0
M  V30 25000 H 2304.96 4.87747 -1.9288 0
M  V30 25001 H 2306.44 5.50954 -0.339696 0
M  V30 25002 H 2306.91 4.30755 0.857149 0
M  V30 25003 H 2307.52 4.17519 -0.809806 0
M  V30 25004 N 2305.84 0.60738 1.45426 0
M  V30 25005 C 2307.11 0.034491 1.9557 0
M  V30 25006 C 2307.49 -1.43332 1.54981 0
M  V30 25007 O 2306.84 -2.13575 0.812278 0
M  V30 25008 C 2307.05 0.232382 3.48225 0
M  V30 25009 C 2308.4 0.113076 4.24449 0
M  V30 25010 O 2309.42 0.162493 3.55829 0
M  V30 25011 O 2308.28 -0.00199836 5.465 0
M  V30 25012 H 2305.38 -0.0358522 0.826223 0
M  V30 25013 H 2307.92 0.677427 1.55592 0
M  V30 25014 H 2306.69 1.25181 3.70736 0
M  V30 25015 H 2306.32 -0.445826 3.95093 0
M  V30 25016 N 2307.31 -1.53743 0.34653 0
M  V30 25017 C 2308.54 -2.05851 -0.253038 0
M  V30 25018 C 2308.96 -1.21965 -1.432 0
M  V30 25019 O 2308.32 -0.234104 -1.79782 0
M  V30 25020 C 2308.37 -3.54819 -0.64313 0
M  V30 25021 O 2307.47 -3.73765 -1.74279 0
M  V30 25022 H 2306.82 -0.662711 -0.0413466 0
M  V30 25023 H 2309.35 -1.98356 0.501609 0
M  V30 25024 H 2309.36 -3.97505 -0.919456 0
M  V30 25025 H 2308.03 -4.15323 0.219039 0
M  V30 25026 H 2306.61 -3.42981 -1.4635 0
M  V30 25027 N 2308.79 -0.0752207 -1.5742 0
M  V30 25028 C 2309.74 0.890806 -2.12916 0
M  V30 25029 C 2310.71 1.29307 -1.04254 0
M  V30 25030 O 2311.89 1.37832 -1.31935 0
M  V30 25031 C 2309.03 2.15181 -2.69798 0
M  V30 25032 C 2308.15 1.80188 -3.92628 0
M  V30 25033 C 2307.28 3.00925 -4.37741 0
M  V30 25034 C 2306.32 2.61965 -5.5321 0
M  V30 25035 N 2305.46 3.75472 -5.93266 0
M  V30 25036 H 2310.3 0.410683 -2.95157 0
M  V30 25037 H 2307.84 0.191061 -1.45854 0
M  V30 25038 H 2309.79 2.89003 -3.00888 0
M  V30 25039 H 2308.42 2.60728 -1.90318 0
M  V30 25040 H 2307.48 0.964153 -3.67979 0
M  V30 25041 H 2308.79 1.47526 -4.76485 0
M  V30 25042 H 2307.94 3.83021 -4.7051 0
M  V30 25043 H 2306.68 3.36783 -3.52745 0
M  V30 25044 H 2305.69 1.7829 -5.20089 0
M  V30 25045 H 2306.91 2.27273 -6.3994 0
M  V30 25046 H 2304.86 4.11085 -5.11219 0
M  V30 25047 H 2304.77 3.4659 -6.71872 0
M  V30 25048 H 2306.04 4.58137 -6.30659 0
M  V30 25049 N 2310.27 1.56347 0.198358 0
M  V30 25050 C 2311.2 1.97312 1.24861 0
M  V30 25051 C 2312.18 0.844602 1.4765 0
M  V30 25052 O 2313.37 1.10868 1.59442 0
M  V30 25053 C 2310.5 2.30982 2.59354 0
M  V30 25054 C 2309.45 3.46541 2.51183 0
M  V30 25055 C 2308.78 3.65878 3.8992 0
M  V30 25056 C 2310.08 4.80826 2.03969 0
M  V30 25057 H 2311.77 2.85293 0.908202 0
M  V30 25058 H 2309.32 1.37259 0.435438 0
M  V30 25059 H 2311.27 2.58234 3.33006 0
M  V30 25060 H 2309.99 1.3988 2.95129 0
M  V30 25061 H 2308.65 3.19374 1.79988 0
M  V30 25062 H 2308.3 2.72112 4.23041 0
M  V30 25063 H 2308 4.43617 3.85328 0
M  V30 25064 H 2309.52 3.95503 4.65198 0
M  V30 25065 H 2310.94 5.07132 2.67377 0
M  V30 25066 H 2309.34 5.62012 2.10387 0
M  V30 25067 H 2310.41 4.74628 0.992778 0
M  V30 25068 N 2311.75 -0.465951 1.50554 0
M  V30 25069 C 2312.99 -1.21946 1.6204 0
M  V30 25070 C 2313.33 -1.91509 0.32215 0
M  V30 25071 O 2312.6 -1.82349 -0.676691 0
M  V30 25072 C 2312.89 -2.25907 2.80425 0
M  V30 25073 C 2312.74 -1.60615 4.20146 0
M  V30 25074 C 2314.06 -3.27171 2.94359 0
M  V30 25075 H 2311.18 -0.441987 0.589759 0
M  V30 25076 H 2313.82 -0.512538 1.82956 0
M  V30 25077 H 2311.97 -2.86198 2.62722 0
M  V30 25078 H 2313.64 -1.03881 4.49451 0
M  V30 25079 H 2311.88 -0.909137 4.24166 0
M  V30 25080 H 2312.55 -2.36187 4.98919 0
M  V30 25081 H 2315.03 -2.76907 3.10583 0
M  V30 25082 H 2313.91 -3.97236 3.78807 0
M  V30 25083 H 2314.17 -3.91597 2.05193 0
M  V30 25084 N 2313.23 -1.40218 -0.719481 0
M  V30 25085 C 2314.17 -1.40342 -1.85491 0
M  V30 25086 C 2315.17 -0.284445 -1.66995 0
M  V30 25087 O 2316.37 -0.455282 -1.74147 0
M  V30 25088 H 2312.75 -0.438597 -0.610849 0
M  V30 25089 H 2314.72 -2.36084 -1.82502 0
M  V30 25090 C 2313.47 -1.27907 -3.23319 0
M  V30 25091 H 2312.79 -2.13286 -3.38155 0
M  V30 25092 H 2314.23 -1.32052 -4.02912 0
M  V30 25093 C 2312.69 0.0110763 -3.36898 0
M  V30 25094 O 2313.22 0.97547 -3.89676 0
M  V30 25095 N 2311.43 0.0792882 -2.90492 0
M  V30 25096 H 2310.97 -0.706227 -2.4773 0
M  V30 25097 H 2310.93 0.941985 -2.99957 0
M  V30 25098 N 2314.7 0.951297 -1.25651 0
M  V30 25099 C 2315.93 1.7309 -1.13346 0
M  V30 25100 C 2316.35 1.86197 0.312401 0
M  V30 25101 O 2315.7 1.36209 1.21463 0
M  V30 25102 C 2315.76 3.14295 -1.78607 0
M  V30 25103 O 2315.48 3.01825 -3.17542 0
M  V30 25104 C 2316.98 4.08519 -1.72126 0
M  V30 25105 H 2314.2 0.542278 -0.395191 0
M  V30 25106 H 2316.74 1.19325 -1.66078 0
M  V30 25107 H 2314.9 3.64994 -1.29839 0
M  V30 25108 H 2315.31 3.90925 -3.49683 0
M  V30 25109 H 2316.78 5.05196 -2.22444 0
M  V30 25110 H 2317.26 4.33814 -0.685711 0
M  V30 25111 H 2317.87 3.63737 -2.20399 0
M  V30 25112 N 2316.18 1.07291 1.1544 0
M  V30 25113 C 2317.41 0.816861 1.90636 0
M  V30 25114 C 2317.83 -0.624052 1.77446 0
M  V30 25115 O 2317.19 -1.436 1.10674 0
M  V30 25116 C 2317.24 1.22912 3.39006 0
M  V30 25117 O 2316.34 0.374047 4.107 0
M  V30 25118 H 2315.68 0.297649 0.59355 0
M  V30 25119 H 2318.21 1.43136 1.46196 0
M  V30 25120 H 2318.22 1.20504 3.89798 0
M  V30 25121 H 2316.9 2.27862 3.47925 0
M  V30 25122 H 2315.48 0.460564 3.70045 0
M  V30 25123 N 2317.66 -1.32267 0.856927 0
M  V30 25124 C 2318.91 -1.96783 0.460509 0
M  V30 25125 C 2319.23 -1.68137 -0.987672 0
M  V30 25126 O 2318.5 -0.989795 -1.69056 0
M  V30 25127 H 2317.08 -0.728024 0.167302 0
M  V30 25128 H 2319.74 -1.6131 1.09385 0
M  V30 25129 H 2318.84 -3.06132 0.607443 0
M  V30 25130 N 2319.14 -0.615084 -1.45102 0
M  V30 25131 C 2320.39 -0.113215 -2.02183 0
M  V30 25132 C 2320.71 1.25904 -1.48252 0
M  V30 25133 O 2319.97 1.8458 -0.650298 0
M  V30 25134 C 2320.27 -0.0319426 -3.57386 0
M  V30 25135 C 2319.93 -1.34084 -4.30502 0
M  V30 25136 C 2318.6 -1.69937 -4.50194 0
M  V30 25137 C 2320.95 -2.20555 -4.72234 0
M  V30 25138 C 2318.28 -2.91997 -5.08876 0
M  V30 25139 C 2320.63 -3.4187 -5.32266 0
M  V30 25140 C 2319.29 -3.77966 -5.5018 0
M  V30 25141 H 2318.56 -0.0414282 -0.739841 0
M  V30 25142 H 2321.21 -0.798199 -1.74072 0
M  V30 25143 H 2319.51 0.736341 -3.84818 0
M  V30 25144 H 2321.21 0.372642 -3.99265 0
M  V30 25145 H 2317.8 -1.05181 -4.15494 0
M  V30 25146 H 2321.98 -1.94154 -4.56747 0
M  V30 25147 H 2317.24 -3.2006 -5.20934 0
M  V30 25148 H 2321.41 -4.09119 -5.63555 0
M  V30 25149 H 2319.04 -4.72632 -5.95418 0
M  V30 25150 N 2320.62 1.53557 -0.354678 0
M  V30 25151 C 2321.57 2.26891 0.512155 0
M  V30 25152 C 2322.56 1.29454 1.09261 0
M  V30 25153 O 2323.77 1.47122 1.03706 0
M  V30 25154 H 2320.14 0.729176 0.183866 0
M  V30 25155 H 2322.11 2.98124 -0.128254 0
M  V30 25156 C 2320.86 3.06294 1.64558 0
M  V30 25157 H 2320.18 3.81106 1.20822 0
M  V30 25158 H 2321.62 3.60803 2.22705 0
M  V30 25159 C 2320.08 2.16467 2.58154 0
M  V30 25160 O 2320.61 1.76817 3.60692 0
M  V30 25161 N 2318.82 1.81321 2.27093 0
M  V30 25162 H 2318.37 2.13762 1.43748 0
M  V30 25163 H 2318.32 1.21503 2.89973 0
M  V30 25164 N 2322.1 0.083568 1.57378 0
M  V30 25165 C 2323.03 -0.915796 2.09018 0
M  V30 25166 C 2324.01 -1.28368 0.998015 0
M  V30 25167 O 2325.19 -1.39094 1.27221 0
M  V30 25168 C 2322.32 -2.22045 2.55761 0
M  V30 25169 C 2321.36 -2.00327 3.76526 0
M  V30 25170 S 2322.2 -1.25182 5.20663 0
M  V30 25171 C 2323.35 -2.56902 5.70747 0
M  V30 25172 H 2323.59 -0.47644 2.93458 0
M  V30 25173 H 2321.12 -0.129466 1.53856 0
M  V30 25174 H 2323.08 -2.97022 2.83351 0
M  V30 25175 H 2321.74 -2.63103 1.71568 0
M  V30 25176 H 2320.93 -2.96908 4.07261 0
M  V30 25177 H 2320.53 -1.33481 3.49369 0
M  V30 25178 H 2322.82 -3.52936 5.7831 0
M  V30 25179 H 2323.77 -2.30761 6.69444 0
M  V30 25180 H 2324.18 -2.64647 4.98621 0
M  V30 25181 N 2323.57 -1.5645 -0.190064 0
M  V30 25182 C 2324.8 -1.85389 -0.929831 0
M  V30 25183 C 2325.22 -0.667735 -1.75849 0
M  V30 25184 O 2324.58 0.383428 -1.77199 0
M  V30 25185 C 2324.63 -3.12596 -1.79767 0
M  V30 25186 O 2323.73 -2.93502 -2.89708 0
M  V30 25187 H 2323.07 -0.610312 -0.261563 0
M  V30 25188 H 2325.6 -2.0368 -0.193861 0
M  V30 25189 H 2325.61 -3.43519 -2.20133 0
M  V30 25190 H 2324.29 -3.98546 -1.18885 0
M  V30 25191 H 2322.87 -2.73888 -2.5306 0
M  V30 25192 N 2325.05 0.45796 -1.50799 0
M  V30 25193 C 2326.3 1.20906 -1.62444 0
M  V30 25194 C 2326.63 1.91665 -0.330898 0
M  V30 25195 O 2325.88 1.83358 0.683978 0
M  V30 25196 C 2326.18 2.26625 -2.76362 0
M  V30 25197 C 2325.85 1.73026 -4.16381 0
M  V30 25198 C 2324.51 1.5813 -4.54476 0
M  V30 25199 C 2326.86 1.33405 -5.03838 0
M  V30 25200 C 2324.19 1.02055 -5.77756 0
M  V30 25201 C 2326.54 0.78767 -6.27677 0
M  V30 25202 C 2325.2 0.625444 -6.64563 0
M  V30 25203 H 2324.47 0.442425 -0.594425 0
M  V30 25204 H 2327.12 0.503103 -1.84773 0
M  V30 25205 H 2325.43 3.03179 -2.48172 0
M  V30 25206 H 2327.12 2.84523 -2.82573 0
M  V30 25207 H 2323.71 1.85591 -3.86334 0
M  V30 25208 H 2327.9 1.43742 -4.75028 0
M  V30 25209 H 2323.15 0.882441 -6.04998 0
M  V30 25210 H 2327.33 0.472055 -6.94798 0
M  V30 25211 H 2324.95 0.188792 -7.59966 0
M  V30 25212 N 2326.53 1.40598 0.712035 0
M  V30 25213 C 2327.46 1.43902 1.83887 0
M  V30 25214 C 2328.44 0.299533 1.67442 0
M  V30 25215 O 2329.63 0.508657 1.8742 0
M  V30 25216 C 2326.76 1.30437 3.21875 0
M  V30 25217 C 2325.71 2.42026 3.52998 0
M  V30 25218 C 2325.04 2.13634 4.90168 0
M  V30 25219 C 2326.34 3.84368 3.53636 0
M  V30 25220 H 2328.03 2.38206 1.81379 0
M  V30 25221 H 2325.58 1.14655 0.871217 0
M  V30 25222 H 2327.53 1.31364 4.00402 0
M  V30 25223 H 2326.25 0.326107 3.24968 0
M  V30 25224 H 2324.91 2.40354 2.76813 0
M  V30 25225 H 2324.56 1.14191 4.89867 0
M  V30 25226 H 2324.26 2.88398 5.11957 0
M  V30 25227 H 2325.78 2.1625 5.71024 0
M  V30 25228 H 2327.2 3.87844 4.22196 0
M  V30 25229 H 2325.59 4.5868 3.86953 0
M  V30 25230 H 2326.66 4.13698 2.52947 0
M  V30 25231 N 2328.01 -0.94462 1.26153 0
M  V30 25232 C 2328.95 -2.04283 1.07411 0
M  V30 25233 C 2329.92 -1.66088 -0.0198121 0
M  V30 25234 O 2331.11 -1.90291 0.139297 0
M  V30 25235 C 2328.25 -3.37728 0.709509 0
M  V30 25236 C 2327.36 -3.8898 1.87933 0
M  V30 25237 C 2326.5 -5.10795 1.45816 0
M  V30 25238 C 2325.54 -5.543 2.59649 0
M  V30 25239 N 2324.67 -6.67321 2.18238 0
M  V30 25240 H 2329.51 -2.19647 2.01393 0
M  V30 25241 H 2327.05 -1.07624 1.00277 0
M  V30 25242 H 2329.01 -4.14441 0.479021 0
M  V30 25243 H 2327.64 -3.22221 -0.193332 0
M  V30 25244 H 2326.69 -3.08697 2.22285 0
M  V30 25245 H 2328 -4.17208 2.73384 0
M  V30 25246 H 2327.16 -5.94957 1.18791 0
M  V30 25247 H 2325.9 -4.84304 0.5745 0
M  V30 25248 H 2324.9 -4.68697 2.87407 0
M  V30 25249 H 2326.13 -5.82794 3.48609 0
M  V30 25250 H 2324.07 -6.4252 1.32301 0
M  V30 25251 H 2323.99 -6.95118 2.97233 0
M  V30 25252 H 2325.26 -7.54866 1.94416 0
M  V30 25253 N 2329.49 -1.07901 -1.1487 0
M  V30 25254 C 2330.42 -0.725926 -2.21929 0
M  V30 25255 C 2331.4 0.289241 -1.67623 0
M  V30 25256 O 2332.58 0.160753 -1.93534 0
M  V30 25257 C 2329.71 -0.128917 -3.47061 0
M  V30 25258 C 2328.67 -1.07186 -4.14361 0
M  V30 25259 C 2327.99 -0.337322 -5.33635 0
M  V30 25260 C 2329.29 -2.40783 -4.63488 0
M  V30 25261 H 2330.99 -1.62102 -2.51721 0
M  V30 25262 H 2328.53 -0.780859 -1.2099 0
M  V30 25263 H 2330.48 0.130073 -4.21199 0
M  V30 25264 H 2329.21 0.801285 -3.16618 0
M  V30 25265 H 2327.87 -1.31586 -3.42171 0
M  V30 25266 H 2327.52 0.596518 -4.9945 0
M  V30 25267 H 2327.22 -0.96589 -5.79607 0
M  V30 25268 H 2328.74 -0.086264 -6.10539 0
M  V30 25269 H 2330.15 -2.20678 -5.29126 0
M  V30 25270 H 2328.55 -2.99285 -5.20143 0
M  V30 25271 H 2329.62 -3.02683 -3.78829 0
M  V30 25272 N 2330.96 1.31811 -0.863929 0
M  V30 25273 C 2332.21 1.96925 -0.47187 0
M  V30 25274 C 2332.54 1.68323 0.974549 0
M  V30 25275 O 2331.79 0.968963 1.70028 0
M  V30 25276 C 2332.09 3.5109 -0.668609 0
M  V30 25277 C 2331.76 3.99699 -2.0869 0
M  V30 25278 C 2330.42 4.12684 -2.47478 0
M  V30 25279 C 2332.77 4.25346 -3.01215 0
M  V30 25280 C 2330.1 4.48663 -3.78045 0
M  V30 25281 C 2332.45 4.62787 -4.3129 0
M  V30 25282 C 2331.12 4.73978 -4.70001 0
M  V30 25283 H 2330.39 0.720601 -0.17267 0
M  V30 25284 H 2333.03 1.57052 -1.09576 0
M  V30 25285 H 2331.34 3.91781 0.0384563 0
M  V30 25286 H 2333.04 3.99512 -0.345172 0
M  V30 25287 H 2329.63 3.90084 -1.77573 0
M  V30 25288 H 2333.81 4.14814 -2.72476 0
M  V30 25289 H 2329.07 4.55524 -4.07808 0
M  V30 25290 H 2333.24 4.81585 -5.0304 0
M  V30 25291 H 2330.87 5.01614 -5.71216 0
M  V30 25292 N 2332.44 0.62277 1.44773 0
M  V30 25293 C 2333.86 0.287679 1.56986 0
M  V30 25294 C 2334.06 -1.20942 1.61169 0
M  V30 25295 O 2333.11 -1.99312 1.55019 0
M  V30 25296 C 2334.43 0.972238 2.84549 0
M  V30 25297 C 2335.97 0.949588 2.98248 0
M  V30 25298 C 2336.45 1.61445 4.28602 0
M  V30 25299 N 2337.94 1.58065 4.35396 0
M  V30 25300 C 2338.68 2.0641 5.3496 0
M  V30 25301 N 2338.17 2.62908 6.40977 0
M  V30 25302 N 2339.96 1.97088 5.26415 0
M  V30 25303 H 2332.12 1.59465 1.40302 0
M  V30 25304 H 2334.38 0.66889 0.671782 0
M  V30 25305 H 2334.08 2.02698 2.87413 0
M  V30 25306 H 2333.96 0.504837 3.73806 0
M  V30 25307 H 2336.35 -0.0966549 2.94942 0
M  V30 25308 H 2336.43 1.4554 2.10361 0
M  V30 25309 H 2336.07 2.6601 4.32667 0
M  V30 25310 H 2336 1.08354 5.15332 0
M  V30 25311 H 2338.49 1.16807 3.59395 0
M  V30 25312 H 2338.8 2.97552 7.1322 0
M  V30 25313 H 2337.15 2.66955 6.41685 0
M  V30 25314 H 2340.34 1.52677 4.42501 0
M  V30 25315 H 2340.51 2.35076 6.03857 0
M  V30 25316 N 2333.92 -1.53367 0.362817 0
M  V30 25317 C 2334.88 -2.24274 -0.472639 0
M  V30 25318 C 2335.88 -1.24963 -1.01198 0
M  V30 25319 O 2337.07 -1.4926 -0.898168 0
M  V30 25320 C 2334.2 -2.97734 -1.66034 0
M  V30 25321 H 2335.4 -2.99536 0.147782 0
M  V30 25322 H 2332.95 -1.5588 0.114461 0
M  V30 25323 H 2333.69 -2.26708 -2.31892 0
M  V30 25324 H 2333.47 -3.70598 -1.28059 0
M  V30 25325 H 2334.96 -3.51645 -2.25246 0
M  V30 25326 N 2335.4 -0.091913 -1.57332 0
M  V30 25327 C 2336.36 0.853653 -2.1271 0
M  V30 25328 C 2337.36 1.21298 -1.05563 0
M  V30 25329 O 2338.55 1.14294 -1.31463 0
M  V30 25330 C 2335.68 2.15056 -2.64506 0
M  V30 25331 H 2336.88 0.372848 -2.97573 0
M  V30 25332 H 2334.43 0.157045 -1.55509 0
M  V30 25333 H 2335.16 2.67629 -1.83154 0
M  V30 25334 H 2334.95 1.90266 -3.42843 0
M  V30 25335 H 2336.44 2.82705 -3.07356 0
M  V30 25336 N 2336.88 1.56548 0.181765 0
M  V30 25337 C 2338.29 1.50432 0.533133 0
M  V30 25338 C 2338.49 0.79433 1.85183 0
M  V30 25339 O 2337.55 0.350361 2.50057 0
M  V30 25340 C 2338.86 2.95141 0.575545 0
M  V30 25341 C 2340.41 3.05887 0.663466 0
M  V30 25342 C 2340.88 4.52033 0.736866 0
M  V30 25343 N 2342.38 4.56239 0.800037 0
M  V30 25344 C 2343.11 5.6665 0.877227 0
M  V30 25345 N 2342.61 6.86719 0.915895 0
M  V30 25346 N 2344.4 5.54595 0.915444 0
M  V30 25347 H 2336.55 2.01117 -0.68306 0
M  V30 25348 H 2338.81 0.915793 -0.245004 0
M  V30 25349 H 2338.52 3.50199 -0.324543 0
M  V30 25350 H 2338.39 3.4922 1.42566 0
M  V30 25351 H 2340.78 2.50869 1.55398 0
M  V30 25352 H 2340.86 2.54911 -0.213115 0
M  V30 25353 H 2340.51 5.0768 -0.149351 0
M  V30 25354 H 2340.44 5.00756 1.62944 0
M  V30 25355 H 2342.93 3.69787 0.778861 0
M  V30 25356 H 2343.24 7.66616 0.975678 0
M  V30 25357 H 2341.58 6.89351 0.884348 0
M  V30 25358 H 2344.78 4.59712 0.882164 0
M  V30 25359 H 2344.95 6.40666 0.97214 0
M  V30 25360 N 2338.35 -0.449957 1.5104 0
M  V30 25361 C 2339.28 -1.55284 1.74382 0
M  V30 25362 C 2340.27 -1.59419 0.593264 0
M  V30 25363 O 2341.45 -1.75349 0.834656 0
M  V30 25364 C 2338.58 -2.93463 1.85734 0
M  V30 25365 C 2337.53 -3.04192 3.01083 0
M  V30 25366 C 2336.86 -4.44226 2.97603 0
M  V30 25367 C 2338.16 -2.79442 4.41259 0
M  V30 25368 H 2339.85 -1.36003 2.66727 0
M  V30 25369 H 2337.4 -0.652842 1.28351 0
M  V30 25370 H 2339.35 -3.70566 2.00646 0
M  V30 25371 H 2338.08 -3.13947 0.900262 0
M  V30 25372 H 2336.74 -2.29526 2.85855 0
M  V30 25373 H 2336.38 -4.61659 1.99699 0
M  V30 25374 H 2336.08 -4.52337 3.75054 0
M  V30 25375 H 2337.61 -5.2332 3.14592 0
M  V30 25376 H 2339.02 -3.46284 4.56903 0
M  V30 25377 H 2337.42 -2.98976 5.2032 0
M  V30 25378 H 2338.49 -1.75137 4.52167 0
M  V30 25379 N 2339.83 -1.40974 -0.704569 0
M  V30 25380 C 2341.08 -1.39148 -1.46016 0
M  V30 25381 C 2341.39 -0.000623636 -1.956 0
M  V30 25382 O 2342.6 0.140252 -2.71138 0
M  V30 25383 C 2341.06 -2.44615 -2.63992 0
M  V30 25384 C 2340.66 -3.89565 -2.21231 0
M  V30 25385 C 2342.41 -2.51913 -3.41673 0
M  V30 25386 C 2340.32 -4.86603 -3.36112 0
M  V30 25387 H 2339.25 -0.517431 -0.548435 0
M  V30 25388 H 2341.9 -1.66759 -0.765754 0
M  V30 25389 H 2340.28 -2.10121 -3.35656 0
M  V30 25390 H 2341.45 -4.3326 -1.56915 0
M  V30 25391 H 2339.77 -3.85844 -1.56567 0
M  V30 25392 H 2342.36 -3.21597 -4.27176 0
M  V30 25393 H 2342.71 -1.5531 -3.86244 0
M  V30 25394 H 2343.24 -2.85453 -2.77059 0
M  V30 25395 H 2339.98 -5.84578 -2.96562 0
M  V30 25396 H 2339.5 -4.47564 -3.99307 0
M  V30 25397 H 2341.18 -5.06941 -4.0202 0
M  V30 25398 N 2341.31 0.937917 -1.26653 0
M  V30 25399 C 2342.26 2.0371 -1.08493 0
M  V30 25400 C 2343.23 1.66096 0.0110038 0
M  V30 25401 O 2344.41 1.90214 -0.149387 0
M  V30 25402 C 2341.55 3.37347 -0.72741 0
M  V30 25403 C 2340.67 3.87978 -1.89993 0
M  V30 25404 C 2339.8 5.10014 -1.48522 0
M  V30 25405 C 2338.84 5.52915 -2.62585 0
M  V30 25406 N 2337.98 6.66154 -2.21773 0
M  V30 25407 H 2342.82 2.18576 -2.02555 0
M  V30 25408 H 2340.35 1.07091 -1.00846 0
M  V30 25409 H 2342.31 4.14181 -0.500993 0
M  V30 25410 H 2340.94 3.22319 0.176241 0
M  V30 25411 H 2339.99 3.07514 -2.23919 0
M  V30 25412 H 2341.31 4.15752 -2.75593 0
M  V30 25413 H 2340.46 5.94318 -1.21945 0
M  V30 25414 H 2339.2 4.83993 -0.600175 0
M  V30 25415 H 2338.2 4.67167 -2.89889 0
M  V30 25416 H 2339.43 5.80937 -3.51695 0
M  V30 25417 H 2337.37 6.4181 -1.35707 0
M  V30 25418 H 2337.29 6.93532 -3.00915 0
M  V30 25419 H 2338.56 7.53824 -1.98416 0
M  V30 25420 N 2342.79 1.08509 1.14296 0
M  V30 25421 C 2343.72 0.737685 2.21541 0
M  V30 25422 C 2344.7 -0.280347 1.67774 0
M  V30 25423 O 2345.88 -0.150487 1.93616 0
M  V30 25424 C 2343.01 0.14732 3.46987 0
M  V30 25425 C 2341.97 1.09382 4.13787 0
M  V30 25426 C 2341.29 0.365618 5.33449 0
M  V30 25427 C 2342.59 2.43238 4.62204 0
M  V30 25428 H 2344.29 1.63435 2.50858 0
M  V30 25429 H 2341.83 0.787264 1.20574 0
M  V30 25430 H 2343.79 -0.107734 4.21262 0
M  V30 25431 H 2342.51 -0.784483 3.17039 0
M  V30 25432 H 2341.17 1.33399 3.41468 0
M  V30 25433 H 2340.82 -0.570022 4.9976 0
M  V30 25434 H 2340.52 0.996614 5.79087 0
M  V30 25435 H 2342.04 0.118641 6.10485 0
M  V30 25436 H 2343.46 2.23481 5.27948 0
M  V30 25437 H 2341.85 3.0204 5.18548 0
M  V30 25438 H 2342.92 3.04687 3.77218 0
M  V30 25439 N 2344.27 -1.31351 0.870907 0
M  V30 25440 C 2345.2 -2.30965 0.343137 0
M  V30 25441 C 2346.18 -1.6039 -0.566479 0
M  V30 25442 O 2347.36 -1.8809 -0.483303 0
M  V30 25443 C 2344.49 -3.44301 -0.455426 0
M  V30 25444 C 2343.45 -4.26473 0.361178 0
M  V30 25445 C 2342.77 -5.31726 -0.563127 0
M  V30 25446 C 2344.07 -4.97326 1.59575 0
M  V30 25447 H 2345.77 -2.75357 1.17553 0
M  V30 25448 H 2343.31 -1.3238 0.566709 0
M  V30 25449 H 2345.27 -4.13041 -0.835178 0
M  V30 25450 H 2343.99 -2.98678 -1.32134 0
M  V30 25451 H 2342.65 -3.59402 0.722888 0
M  V30 25452 H 2342.3 -4.82353 -1.42634 0
M  V30 25453 H 2342 -5.87596 -0.0206376 0
M  V30 25454 H 2343.52 -6.03326 -0.939702 0
M  V30 25455 H 2344.93 -5.58659 1.28738 0
M  V30 25456 H 2343.33 -5.62996 2.07738 0
M  V30 25457 H 2344.4 -4.24258 2.34805 0
M  V30 25458 N 2345.74 -0.630439 -1.44441 0
M  V30 25459 C 2347.16 -0.296001 -1.56831 0
M  V30 25460 C 2347.36 1.20085 -1.61808 0
M  V30 25461 O 2346.42 1.98487 -1.56074 0
M  V30 25462 C 2347.73 -0.987314 -2.84029 0
M  V30 25463 C 2349.28 -0.965392 -2.9774 0
M  V30 25464 C 2349.75 -1.63716 -4.2774 0
M  V30 25465 N 2351.24 -1.60371 -4.34552 0
M  V30 25466 C 2351.98 -2.09244 -5.33858 0
M  V30 25467 N 2351.47 -2.66304 -6.39573 0
M  V30 25468 N 2353.27 -1.99877 -5.25363 0
M  V30 25469 H 2345.42 -1.60207 -1.39454 0
M  V30 25470 H 2347.68 -0.672443 -0.668225 0
M  V30 25471 H 2347.39 -2.0422 -2.86334 0
M  V30 25472 H 2347.26 -0.524654 -3.73533 0
M  V30 25473 H 2349.65 0.0810121 -2.94989 0
M  V30 25474 H 2349.73 -1.46654 -2.09586 0
M  V30 25475 H 2349.37 -2.68301 -4.31251 0
M  V30 25476 H 2349.3 -1.11085 -5.1475 0
M  V30 25477 H 2351.79 -1.18711 -3.5877 0
M  V30 25478 H 2352.11 -3.0133 -7.11632 0
M  V30 25479 H 2350.45 -2.70354 -6.40261 0
M  V30 25480 H 2353.64 -1.55021 -4.41686 0
M  V30 25481 H 2353.82 -2.38275 -6.02602 0
M  V30 25482 N 2347.22 1.53172 -0.370945 0
M  V30 25483 C 2348.15 2.23504 0.507783 0
M  V30 25484 C 2349.17 1.25102 1.0418 0
M  V30 25485 O 2350.36 1.51292 0.947259 0
M  V30 25486 C 2347.46 2.92337 1.71442 0
M  V30 25487 C 2346.63 4.17291 1.31098 0
M  V30 25488 C 2345.69 4.69286 2.38027 0
M  V30 25489 O 2344.71 5.32833 2.00195 0
M  V30 25490 N 2345.92 4.47561 3.69689 0
M  V30 25491 H 2348.68 2.9955 -0.0946908 0
M  V30 25492 H 2346.24 1.60704 -0.196386 0
M  V30 25493 H 2348.23 3.24027 2.42463 0
M  V30 25494 H 2346.8 2.19711 2.22364 0
M  V30 25495 H 2346.02 3.91843 0.430393 0
M  V30 25496 H 2347.31 4.98516 1.01781 0
M  V30 25497 H 2346.71 3.96797 4.03198 0
M  V30 25498 H 2345.27 4.83788 4.36798 0
M  V30 25499 N 2348.7 0.100255 1.57281 0
M  V30 25500 C 2349.95 -0.561123 1.94154 0
M  V30 25501 C 2350.27 -1.684 0.983186 0
M  V30 25502 O 2349.54 -1.95867 0.0361476 0
M  V30 25503 H 2348.12 -0.210271 0.716795 0
M  V30 25504 H 2350.78 0.164799 1.94202 0
M  V30 25505 H 2349.88 -0.967956 2.9671 0
M  V30 25506 N 2350.18 -1.56643 -0.17346 0
M  V30 25507 C 2351.41 -1.85736 -0.904749 0
M  V30 25508 C 2351.82 -0.683311 -1.7643 0
M  V30 25509 O 2351.16 0.356833 -1.80201 0
M  V30 25510 C 2351.22 -3.09214 -1.83377 0
M  V30 25511 C 2350.89 -4.42189 -1.15403 0
M  V30 25512 C 2351.88 -5.17288 -0.520518 0
M  V30 25513 C 2349.57 -4.88925 -1.15142 0
M  V30 25514 C 2351.56 -6.37311 0.106524 0
M  V30 25515 C 2349.25 -6.08879 -0.520557 0
M  V30 25516 C 2350.25 -6.82916 0.107316 0
M  V30 25517 O 2349.94 -8.00595 0.728243 0
M  V30 25518 H 2349.67 -0.620434 -0.268397 0
M  V30 25519 H 2352.22 -2.04618 -0.17906 0
M  V30 25520 H 2350.45 -2.86272 -2.59971 0
M  V30 25521 H 2352.14 -3.24772 -2.4347 0
M  V30 25522 H 2352.91 -4.82263 -0.514521 0
M  V30 25523 H 2348.79 -4.31239 -1.62954 0
M  V30 25524 H 2352.33 -6.95039 0.597203 0
M  V30 25525 H 2348.23 -6.43369 -0.524129 0
M  V30 25526 H 2348.99 -8.16093 0.627281 0
M  V30 25527 N 2351.66 0.44194 -1.51277 0
M  V30 25528 C 2352.89 1.21431 -1.67518 0
M  V30 25529 C 2353.3 1.85127 -0.370582 0
M  V30 25530 O 2352.66 1.70514 0.650468 0
M  V30 25531 C 2352.71 2.30172 -2.78752 0
M  V30 25532 O 2352.43 1.69082 -4.04157 0
M  V30 25533 C 2353.93 3.20535 -3.06222 0
M  V30 25534 H 2351.15 0.366168 -0.562283 0
M  V30 25535 H 2353.69 0.524209 -1.97667 0
M  V30 25536 H 2351.85 2.94906 -2.51215 0
M  V30 25537 H 2352.26 2.40914 -4.65898 0
M  V30 25538 H 2353.74 3.92981 -3.87647 0
M  V30 25539 H 2354.21 3.81023 -2.18445 0
M  V30 25540 H 2354.82 2.61507 -3.35401 0
M  V30 25541 N 2353.14 1.41345 0.697083 0
M  V30 25542 C 2354.38 1.39921 1.45276 0
M  V30 25543 C 2354.7 0.0109968 1.95597 0
M  V30 25544 O 2355.9 -0.125871 2.71208 0
M  V30 25545 C 2354.36 2.46011 2.62691 0
M  V30 25546 C 2353.97 3.90732 2.19162 0
M  V30 25547 C 2355.71 2.53721 3.40332 0
M  V30 25548 C 2353.62 4.88379 3.33526 0
M  V30 25549 H 2352.55 0.520333 0.545683 0
M  V30 25550 H 2355.2 1.67162 0.7569 0
M  V30 25551 H 2353.58 2.11898 3.34537 0
M  V30 25552 H 2354.76 4.34086 1.54615 0
M  V30 25553 H 2353.07 3.86669 1.54519 0
M  V30 25554 H 2355.67 3.23858 4.25465 0
M  V30 25555 H 2356.01 1.57356 3.85415 0
M  V30 25556 H 2356.54 2.86918 2.75541 0
M  V30 25557 H 2353.28 5.86143 2.93457 0
M  V30 25558 H 2352.8 4.49675 3.96928 0
M  V30 25559 H 2354.48 5.09066 3.99326 0
M  V30 25560 N 2354.61 -0.931187 1.27148 0
M  V30 25561 C 2356.03 -1.20651 1.04477 0
M  V30 25562 C 2356.23 -2.00253 -0.22385 0
M  V30 25563 O 2355.29 -2.34738 -0.93029 0
M  V30 25564 C 2356.6 -1.95805 2.28212 0
M  V30 25565 C 2358.15 -2.08758 2.33215 0
M  V30 25566 C 2358.62 -2.87316 3.5667 0
M  V30 25567 N 2360.11 -2.94886 3.57206 0
M  V30 25568 C 2360.85 -3.56126 4.49401 0
M  V30 25569 N 2360.34 -4.18786 5.51896 0
M  V30 25570 N 2362.14 -3.53496 4.37032 0
M  V30 25571 H 2354.29 -0.399296 2.08613 0
M  V30 25572 H 2356.55 -0.239237 0.917317 0
M  V30 25573 H 2356.26 -1.44731 3.2054 0
M  V30 25574 H 2356.13 -2.96434 2.33253 0
M  V30 25575 H 2358.52 -2.5902 1.41395 0
M  V30 25576 H 2358.6 -1.0736 2.3218 0
M  V30 25577 H 2358.24 -2.37738 4.48824 0
M  V30 25578 H 2358.17 -3.88992 3.54955 0
M  V30 25579 H 2360.66 -2.50349 2.83079 0
M  V30 25580 H 2360.98 -4.63443 6.18418 0
M  V30 25581 H 2359.32 -4.17343 5.55743 0
M  V30 25582 H 2362.51 -3.03743 3.56171 0
M  V30 25583 H 2362.69 -4.00933 5.09074 0
M  V30 25584 N 2356.09 -1.09114 -1.13719 0
M  V30 25585 C 2357.34 -0.820122 -1.84274 0
M  V30 25586 C 2357.65 0.656476 -1.84255 0
M  V30 25587 O 2358.86 1.04291 -2.5067 0
M  V30 25588 C 2357.32 -1.4172 -3.30823 0
M  V30 25589 C 2356.92 -2.9261 -3.39239 0
M  V30 25590 C 2358.67 -1.22499 -4.06441 0
M  V30 25591 C 2356.57 -3.45419 -4.80041 0
M  V30 25592 H 2355.5 -0.303132 -0.690382 0
M  V30 25593 H 2358.16 -1.31345 -1.28144 0
M  V30 25594 H 2356.54 -0.851566 -3.86736 0
M  V30 25595 H 2357.71 -3.55372 -2.93338 0
M  V30 25596 H 2356.03 -3.10828 -2.77083 0
M  V30 25597 H 2358.62 -1.59411 -5.10384 0
M  V30 25598 H 2358.97 -0.165372 -4.15971 0
M  V30 25599 H 2359.5 -1.75795 -3.56849 0
M  V30 25600 H 2356.24 -4.50986 -4.75701 0
M  V30 25601 H 2355.76 -2.8742 -5.2645 0
M  V30 25602 H 2357.44 -3.42435 -5.48951 0
M  V30 25603 N 2357.57 1.30887 -0.877861 0
M  V30 25604 C 2358.5 2.3078 -0.355381 0
M  V30 25605 C 2359.48 1.60688 0.557965 0
M  V30 25606 O 2360.67 1.88344 0.473322 0
M  V30 25607 C 2357.8 3.44538 0.437161 0
M  V30 25608 C 2356.75 4.26276 -0.38379 0
M  V30 25609 C 2356.08 5.32018 0.534921 0
M  V30 25610 C 2357.38 4.96473 -1.6221 0
M  V30 25611 H 2359.07 2.7473 -1.19012 0
M  V30 25612 H 2356.62 1.32077 -0.573722 0
M  V30 25613 H 2358.57 4.13478 0.813261 0
M  V30 25614 H 2357.29 2.99374 1.30548 0
M  V30 25615 H 2355.95 3.59014 -0.741938 0
M  V30 25616 H 2355.6 4.83103 1.40074 0
M  V30 25617 H 2355.3 5.87599 -0.0105244 0
M  V30 25618 H 2356.82 6.03816 0.907693 0
M  V30 25619 H 2358.24 5.57968 -1.31699 0
M  V30 25620 H 2356.63 5.61887 -2.10721 0
M  V30 25621 H 2357.7 4.23006 -2.37052 0
M  V30 25622 N 2359.05 0.638091 1.44105 0
M  V30 25623 C 2359.98 -0.0493876 2.33448 0
M  V30 25624 C 2360.96 -0.827646 1.48607 0
M  V30 25625 O 2362.14 -0.792141 1.7731 0
M  V30 25626 C 2359.27 -1.02685 3.31773 0
M  V30 25627 C 2358.23 -0.359748 4.26485 0
M  V30 25628 C 2357.55 -1.4476 5.14732 0
M  V30 25629 C 2358.85 0.738387 5.17054 0
M  V30 25630 H 2360.55 0.696688 2.91181 0
M  V30 25631 H 2358.09 0.336481 1.40014 0
M  V30 25632 H 2360.05 -1.51659 3.93164 0
M  V30 25633 H 2358.77 -1.8039 2.72263 0
M  V30 25634 H 2357.43 0.109404 3.66437 0
M  V30 25635 H 2357.08 -2.2157 4.5157 0
M  V30 25636 H 2356.78 -1.00658 5.78914 0
M  V30 25637 H 2358.3 -1.93901 5.78995 0
M  V30 25638 H 2359.72 0.331454 5.72341 0
M  V30 25639 H 2358.11 1.10296 5.89877 0
M  V30 25640 H 2359.18 1.60266 4.57649 0
M  V30 25641 N 2360.53 -1.52973 0.379063 0
M  V30 25642 C 2361.77 -2.02422 -0.199208 0
M  V30 25643 C 2362.13 -1.26097 -1.45318 0
M  V30 25644 O 2361.42 -0.349993 -1.88376 0
M  V30 25645 C 2361.61 -3.53435 -0.530898 0
M  V30 25646 C 2361.44 -4.44385 0.689376 0
M  V30 25647 C 2360.21 -4.90708 1.20555 0
M  V30 25648 C 2362.41 -4.90113 1.55865 0
M  V30 25649 N 2360.39 -5.65701 2.38444 0
M  V30 25650 C 2361.76 -5.63584 2.58406 0
M  V30 25651 C 2363.82 -4.72168 1.57994 0
M  V30 25652 C 2362.52 -6.21015 3.6295 0
M  V30 25653 C 2364.55 -5.30475 2.61439 0
M  V30 25654 C 2363.91 -6.03842 3.62703 0
M  V30 25655 H 2360.01 -0.781205 -0.0352533 0
M  V30 25656 H 2362.59 -1.87442 0.526647 0
M  V30 25657 H 2360.76 -3.68549 -1.22582 0
M  V30 25658 H 2362.5 -3.89593 -1.09543 0
M  V30 25659 H 2359.25 -4.6733 0.768104 0
M  V30 25660 H 2359.67 -6.07854 2.98065 0
M  V30 25661 H 2364.32 -4.14958 0.810548 0
M  V30 25662 H 2362.03 -6.77313 4.40763 0
M  V30 25663 H 2365.62 -5.18476 2.63958 0
M  V30 25664 H 2364.5 -6.48155 4.41435 0
M  V30 25665 N 2362 -0.108595 -1.57225 0
M  V30 25666 C 2363.23 0.559919 -1.9918 0
M  V30 25667 C 2363.65 1.60882 -0.988051 0
M  V30 25668 O 2363 1.82488 0.0205192 0
M  V30 25669 C 2363.05 1.19546 -3.41161 0
M  V30 25670 O 2362.78 0.1885 -4.37694 0
M  V30 25671 C 2364.28 1.9483 -3.98191 0
M  V30 25672 H 2361.5 0.149076 -0.65423 0
M  V30 25673 H 2364.04 -0.191866 -2.03598 0
M  V30 25674 H 2362.2 1.89809 -3.37715 0
M  V30 25675 H 2362.61 0.648922 -5.2047 0
M  V30 25676 H 2364.08 2.34639 -4.99648 0
M  V30 25677 H 2364.56 2.81945 -3.36755 0
M  V30 25678 H 2365.17 1.29353 -4.05152 0
M  V30 25679 N 2363.48 1.56732 0.16515 0
M  V30 25680 C 2364.73 1.82342 0.880775 0
M  V30 25681 C 2365.06 0.686653 1.81976 0
M  V30 25682 O 2364.31 -0.325663 1.92971 0
M  V30 25683 C 2364.61 3.14163 1.704 0
M  V30 25684 C 2364.28 4.41552 0.913397 0
M  V30 25685 C 2362.94 4.76151 0.69522 0
M  V30 25686 C 2365.29 5.1996 0.359257 0
M  V30 25687 C 2362.62 5.86634 -0.0880978 0
M  V30 25688 C 2364.97 6.31263 -0.411004 0
M  V30 25689 C 2363.63 6.64425 -0.639925 0
M  V30 25690 H 2362.9 0.667237 0.322299 0
M  V30 25691 H 2365.55 1.90947 0.145369 0
M  V30 25692 H 2363.86 3.00928 2.50898 0
M  V30 25693 H 2365.55 3.3119 2.26085 0
M  V30 25694 H 2362.14 4.14416 1.09349 0
M  V30 25695 H 2366.33 4.93619 0.515141 0
M  V30 25696 H 2361.58 6.10781 -0.275137 0
M  V30 25697 H 2365.76 6.91222 -0.847615 0
M  V30 25698 H 2363.38 7.49873 -1.24877 0
M  V30 25699 N 2364.96 -0.433911 1.51509 0
M  V30 25700 C 2366.21 -1.18481 1.64591 0
M  V30 25701 C 2366.54 -1.90783 0.362699 0
M  V30 25702 O 2365.81 -1.83743 -0.637859 0
M  V30 25703 C 2366.1 -2.19908 2.85153 0
M  V30 25704 C 2365.95 -1.51667 4.23459 0
M  V30 25705 C 2367.27 -3.20853 3.01233 0
M  V30 25706 H 2364.39 -0.429378 0.599002 0
M  V30 25707 H 2367.03 -0.473615 1.84002 0
M  V30 25708 H 2365.18 -2.80561 2.68733 0
M  V30 25709 H 2366.85 -0.943243 4.51554 0
M  V30 25710 H 2365.1 -0.81896 4.25999 0
M  V30 25711 H 2365.77 -2.25551 5.03816 0
M  V30 25712 H 2368.24 -2.70257 3.16386 0
M  V30 25713 H 2367.12 -3.89111 3.87148 0
M  V30 25714 H 2367.38 -3.87156 2.13454 0
M  V30 25715 N 2366.44 -1.41713 -0.689577 0
M  V30 25716 C 2367.37 -1.39969 -1.81497 0
M  V30 25717 C 2368.38 -0.300946 -1.59994 0
M  V30 25718 O 2369.57 -0.563069 -1.69386 0
M  V30 25719 C 2366.67 -1.16184 -3.18362 0
M  V30 25720 C 2365.85 -2.38213 -3.66842 0
M  V30 25721 C 2364.9 -2.10195 -4.82395 0
M  V30 25722 O 2363.93 -2.83281 -4.93701 0
M  V30 25723 N 2365.13 -1.0959 -5.70062 0
M  V30 25724 H 2367.9 -2.36968 -1.83484 0
M  V30 25725 H 2365.46 -1.36402 -0.872125 0
M  V30 25726 H 2367.45 -0.953825 -3.93299 0
M  V30 25727 H 2366.02 -0.277614 -3.11365 0
M  V30 25728 H 2365.24 -2.74678 -2.82746 0
M  V30 25729 H 2366.53 -3.19505 -3.95973 0
M  V30 25730 H 2365.93 -0.491118 -5.63564 0
M  V30 25731 H 2364.48 -0.94777 -6.44873 0
M  V30 25732 N 2367.92 0.924431 -1.2764 0
M  V30 25733 C 2369.14 1.71177 -1.17104 0
M  V30 25734 C 2369.57 1.8618 0.268101 0
M  V30 25735 O 2368.92 1.3642 1.19413 0
M  V30 25736 C 2368.97 3.08736 -1.86319 0
M  V30 25737 O 2368.08 3.9565 -1.16338 0
M  V30 25738 H 2367.42 0.524562 -0.4071 0
M  V30 25739 H 2369.95 1.15663 -1.68769 0
M  V30 25740 H 2369.96 3.59031 -1.93806 0
M  V30 25741 H 2368.63 2.97133 -2.91006 0
M  V30 25742 H 2367.21 3.54089 -1.16941 0
M  V30 25743 N 2369.39 1.09715 1.13139 0
M  V30 25744 C 2370.64 0.83502 1.84482 0
M  V30 25745 C 2370.97 -0.639386 1.8369 0
M  V30 25746 O 2370.22 -1.48687 1.27242 0
M  V30 25747 C 2370.52 1.31916 3.32164 0
M  V30 25748 C 2370.19 2.80369 3.53134 0
M  V30 25749 C 2368.85 3.20911 3.58566 0
M  V30 25750 C 2371.2 3.76072 3.60859 0
M  V30 25751 C 2368.53 4.55922 3.69259 0
M  V30 25752 C 2370.88 5.10875 3.7308 0
M  V30 25753 C 2369.55 5.51003 3.76766 0
M  V30 25754 H 2368.82 0.305555 0.675068 0
M  V30 25755 H 2371.46 1.37245 1.33551 0
M  V30 25756 H 2369.77 0.701584 3.85467 0
M  V30 25757 H 2371.47 1.09291 3.85819 0
M  V30 25758 H 2368.06 2.47997 3.49564 0
M  V30 25759 H 2372.24 3.45862 3.5594 0
M  V30 25760 H 2367.5 4.86445 3.7038 0
M  V30 25761 H 2371.67 5.84883 3.78001 0
M  V30 25762 H 2369.3 6.55614 3.84804 0
M  V30 25763 N 2370.87 -1.30419 0.88479 0
M  V30 25764 C 2371.82 -2.28136 0.349682 0
M  V30 25765 C 2372.79 -1.56374 -0.560034 0
M  V30 25766 O 2373.97 -1.84441 -0.488492 0
M  V30 25767 C 2371.11 -3.42411 -0.429929 0
M  V30 25768 C 2370.23 -4.28991 0.508983 0
M  V30 25769 C 2369.36 -5.30428 -0.286208 0
M  V30 25770 C 2368.4 -6.08658 0.648186 0
M  V30 25771 N 2367.54 -7.02011 -0.111669 0
M  V30 25772 H 2372.38 -2.73291 1.18811 0
M  V30 25773 H 2369.92 -1.34429 0.597255 0
M  V30 25774 H 2371.87 -4.07424 -0.897851 0
M  V30 25775 H 2370.5 -2.98326 -1.23294 0
M  V30 25776 H 2369.56 -3.64287 1.09539 0
M  V30 25777 H 2370.87 -4.83528 1.22484 0
M  V30 25778 H 2370.02 -6.01188 -0.815992 0
M  V30 25779 H 2368.76 -4.76585 -1.03528 0
M  V30 25780 H 2367.77 -5.36776 1.1896 0
M  V30 25781 H 2368.99 -6.64589 1.39635 0
M  V30 25782 H 2366.94 -6.50557 -0.843281 0
M  V30 25783 H 2366.85 -7.54036 0.544561 0
M  V30 25784 H 2368.12 -7.77013 -0.622202 0
M  V30 25785 N 2372.35 -0.645724 -1.43764 0
M  V30 25786 C 2373.31 0.0409085 -2.29163 0
M  V30 25787 C 2374.31 0.757971 -1.41815 0
M  V30 25788 O 2375.5 0.600353 -1.63528 0
M  V30 25789 C 2372.64 1.06863 -3.23718 0
M  V30 25790 H 2373.83 -0.710396 -2.91365 0
M  V30 25791 H 2371.38 -0.406574 -1.50919 0
M  V30 25792 H 2372.12 1.84943 -2.66396 0
M  V30 25793 H 2371.9 0.558209 -3.88106 0
M  V30 25794 H 2373.39 1.54838 -3.87834 0
M  V30 25795 N 2373.83 1.5277 -0.38717 0
M  V30 25796 C 2374.76 2.29307 0.440511 0
M  V30 25797 C 2375.74 1.32607 1.06533 0
M  V30 25798 O 2376.92 1.61499 1.0785 0
M  V30 25799 C 2374.05 3.09831 1.56914 0
M  V30 25800 C 2373.01 4.14397 1.07047 0
M  V30 25801 C 2372.33 4.83133 2.291 0
M  V30 25802 C 2373.63 5.22113 0.139923 0
M  V30 25803 H 2375.33 2.98744 -0.198079 0
M  V30 25804 H 2372.87 1.43675 -0.0967052 0
M  V30 25805 H 2374.83 3.62131 2.15497 0
M  V30 25806 H 2373.55 2.38123 2.23528 0
M  V30 25807 H 2372.21 3.63075 0.507183 0
M  V30 25808 H 2371.86 4.07975 2.94219 0
M  V30 25809 H 2371.56 5.53807 1.96396 0
M  V30 25810 H 2373.08 5.38236 2.8833 0
M  V30 25811 H 2374.5 5.69785 0.633878 0
M  V30 25812 H 2372.89 6.00021 -0.097254 0
M  V30 25813 H 2373.96 4.78056 -0.811795 0
M  V30 25814 N 2375.31 0.116931 1.57166 0
M  V30 25815 C 2376.72 -0.408777 1.8217 0
M  V30 25816 C 2377.07 -1.66744 1.03396 0
M  V30 25817 O 2376.19 -2.1471 0.269924 0
M  V30 25818 C 2376.79 -0.748408 3.3043 0
M  V30 25819 C 2375.35 -1.21876 3.56122 0
M  V30 25820 C 2374.49 -0.226403 2.76374 0
M  V30 25821 H 2377.45 0.342091 1.54969 0
M  V30 25822 H 2377.47 -1.60601 3.44946 0
M  V30 25823 H 2376.98 0.167853 3.87737 0
M  V30 25824 H 2375.08 -2.15199 3.04171 0
M  V30 25825 H 2375.19 -1.16551 4.64707 0
M  V30 25826 H 2373.56 -0.71302 2.44516 0
M  V30 25827 H 2374.34 0.682918 3.36439 0
M  V30 25828 N 2376.78 -1.56818 -0.156836 0
M  V30 25829 C 2378.01 -1.86685 -0.884998 0
M  V30 25830 C 2378.42 -0.701985 -1.75695 0
M  V30 25831 O 2377.77 0.3377 -1.80569 0
M  V30 25832 C 2377.83 -3.11142 -1.80087 0
M  V30 25833 C 2377.49 -4.43388 -1.10707 0
M  V30 25834 C 2378.49 -5.17811 -0.465623 0
M  V30 25835 C 2376.17 -4.90119 -1.0995 0
M  V30 25836 C 2378.17 -6.37162 0.174114 0
M  V30 25837 C 2375.85 -6.09397 -0.455947 0
M  V30 25838 C 2376.85 -6.82763 0.179742 0
M  V30 25839 O 2376.54 -7.99777 0.813116 0
M  V30 25840 H 2376.27 -0.623246 -0.261802 0
M  V30 25841 H 2378.83 -2.04796 -0.157347 0
M  V30 25842 H 2377.06 -2.89013 -2.5692 0
M  V30 25843 H 2378.75 -3.27336 -2.40012 0
M  V30 25844 H 2379.51 -4.82782 -0.463342 0
M  V30 25845 H 2375.39 -4.32943 -1.5837 0
M  V30 25846 H 2378.93 -6.94367 0.670887 0
M  V30 25847 H 2374.83 -6.43888 -0.455862 0
M  V30 25848 H 2375.6 -8.15382 0.713803 0
M  V30 25849 N 2378.26 0.425871 -1.51737 0
M  V30 25850 C 2379.51 1.17607 -1.65217 0
M  V30 25851 C 2379.84 1.90588 -0.372812 0
M  V30 25852 O 2379.12 1.84079 0.628106 0
M  V30 25853 C 2379.4 2.18393 -2.86315 0
M  V30 25854 C 2379.25 1.49419 -4.24257 0
M  V30 25855 C 2380.57 3.19251 -3.0293 0
M  V30 25856 H 2377.69 0.426195 -0.601271 0
M  V30 25857 H 2380.33 0.46385 -1.84251 0
M  V30 25858 H 2378.48 2.79132 -2.70218 0
M  V30 25859 H 2380.15 0.919283 -4.52047 0
M  V30 25860 H 2378.4 0.796357 -4.26428 0
M  V30 25861 H 2379.07 2.22876 -5.05005 0
M  V30 25862 H 2381.54 2.68575 -3.17815 0
M  V30 25863 H 2380.42 3.87053 -3.89206 0
M  V30 25864 H 2380.68 3.86019 -2.15504 0
M  V30 25865 N 2379.74 1.42077 0.682052 0
M  V30 25866 C 2380.98 1.43638 1.45422 0
M  V30 25867 C 2381.34 0.0484338 1.91939 0
M  V30 25868 O 2382.55 -0.0612041 2.6873 0
M  V30 25869 C 2380.82 2.4263 2.62423 0
M  V30 25870 S 2382.38 2.62833 3.51375 0
M  V30 25871 H 2379.19 0.508665 0.49677 0
M  V30 25872 H 2381.8 1.78623 0.794614 0
M  V30 25873 H 2380.5 3.42253 2.26475 0
M  V30 25874 H 2380.03 2.09045 3.33262 0
M  V30 25875 H 2382.05 1.90588 4.58138 0
M  V30 25876 N 2381.22 -0.917649 1.28129 0
M  V30 25877 C 2382.15 -2.03639 1.14251 0
M  V30 25878 C 2383.13 -1.7005 0.0413047 0
M  V30 25879 O 2384.32 -1.92977 0.217599 0
M  V30 25880 C 2381.45 -3.37973 0.799491 0
M  V30 25881 C 2380.4 -3.8571 1.85504 0
M  V30 25882 C 2379.73 -5.16964 1.36575 0
M  V30 25883 C 2381.03 -4.07997 3.26092 0
M  V30 25884 H 2382.72 -2.15508 2.07839 0
M  V30 25885 H 2380.27 -1.03551 1.00066 0
M  V30 25886 H 2382.22 -4.15726 0.689187 0
M  V30 25887 H 2380.94 -3.26146 -0.172088 0
M  V30 25888 H 2379.6 -3.10158 1.95442 0
M  V30 25889 H 2379.25 -5.01537 0.383341 0
M  V30 25890 H 2378.95 -5.49874 2.07153 0
M  V30 25891 H 2380.47 -5.97277 1.26859 0
M  V30 25892 H 2381.89 -4.76287 3.19098 0
M  V30 25893 H 2380.28 -4.52231 3.9447 0
M  V30 25894 H 2381.35 -3.12941 3.70399 0
M  V30 25895 N 2382.7 -1.10314 -1.12555 0
M  V30 25896 C 2383.63 -0.772837 -2.20339 0
M  V30 25897 C 2384.61 0.25362 -1.68199 0
M  V30 25898 O 2385.79 0.119665 -1.93831 0
M  V30 25899 C 2382.92 -0.202504 -3.46709 0
M  V30 25900 C 2381.88 -1.15951 -4.11994 0
M  V30 25901 C 2381.2 -0.450438 -5.32799 0
M  V30 25902 C 2382.5 -2.5056 -4.58276 0
M  V30 25903 H 2384.2 -1.67405 -2.48226 0
M  V30 25904 H 2381.74 -0.806347 -1.19307 0
M  V30 25905 H 2383.7 0.0407012 -4.2138 0
M  V30 25906 H 2382.42 0.733945 -3.18246 0
M  V30 25907 H 2381.08 -1.38814 -3.39302 0
M  V30 25908 H 2380.73 0.490443 -5.00603 0
M  V30 25909 H 2380.43 -1.08862 -5.77428 0
M  V30 25910 H 2381.95 -0.215749 -6.10219 0
M  V30 25911 H 2383.37 -2.31852 -5.24326 0
M  V30 25912 H 2381.76 -3.10251 -5.13677 0
M  V30 25913 H 2382.83 -3.1065 -3.72323 0
M  V30 25914 N 2384.18 1.29948 -0.891694 0
M  V30 25915 C 2385.42 1.95157 -0.509555 0
M  V30 25916 C 2385.74 1.71127 0.947358 0
M  V30 25917 O 2386.94 2.30375 1.43665 0
M  V30 25918 C 2385.4 3.49465 -0.860377 0
M  V30 25919 C 2385.01 3.82306 -2.33552 0
M  V30 25920 C 2386.75 4.20951 -0.547761 0
M  V30 25921 C 2384.66 5.29821 -2.62762 0
M  V30 25922 H 2383.59 0.730486 -0.186833 0
M  V30 25923 H 2386.24 1.47796 -1.08759 0
M  V30 25924 H 2384.62 3.95436 -0.211354 0
M  V30 25925 H 2385.8 3.47222 -3.02942 0
M  V30 25926 H 2384.11 3.23939 -2.61634 0
M  V30 25927 H 2386.71 5.29513 -0.742947 0
M  V30 25928 H 2387.05 4.13124 0.513248 0
M  V30 25929 H 2387.58 3.80685 -1.15427 0
M  V30 25930 H 2384.32 5.42705 -3.67629 0
M  V30 25931 H 2383.84 5.66181 -1.97987 0
M  V30 25932 H 2385.52 5.97329 -2.48611 0
M  V30 25933 N 2385.65 0.653339 1.4342 0
M  V30 25934 C 2386.62 -0.0287548 2.29182 0
M  V30 25935 C 2387.62 -0.75044 1.42215 0
M  V30 25936 O 2388.81 -0.591672 1.63844 0
M  V30 25937 C 2385.94 -1.05145 3.2428 0
M  V30 25938 H 2387.13 0.725838 2.90984 0
M  V30 25939 H 2384.68 0.414572 1.50702 0
M  V30 25940 H 2385.42 -1.83527 2.67373 0
M  V30 25941 H 2385.2 -0.537619 3.88397 0
M  V30 25942 H 2386.69 -1.52779 3.88649 0
M  V30 25943 N 2387.13 -1.52563 0.395266 0
M  V30 25944 C 2388.06 -2.23068 -0.481261 0
M  V30 25945 C 2389.04 -1.23364 -1.05925 0
M  V30 25946 O 2390.23 -1.5237 -1.10976 0
M  V30 25947 C 2387.35 -2.94853 -1.66671 0
M  V30 25948 C 2386.4 -4.08875 -1.21341 0
M  V30 25949 S 2387.23 -5.35163 -0.190008 0
M  V30 25950 C 2388.39 -6.10472 -1.3811 0
M  V30 25951 H 2388.62 -2.97068 0.117433 0
M  V30 25952 H 2386.15 -1.53353 0.179485 0
M  V30 25953 H 2388.11 -3.3682 -2.34654 0
M  V30 25954 H 2386.77 -2.20522 -2.23672 0
M  V30 25955 H 2385.97 -4.58226 -2.09869 0
M  V30 25956 H 2385.57 -3.68952 -0.612421 0
M  V30 25957 H 2387.86 -6.37006 -2.30715 0
M  V30 25958 H 2388.8 -7.01987 -0.928398 0
M  V30 25959 H 2389.21 -5.41332 -1.60062 0
M  V30 25960 N 2388.61 -0.125265 -1.57101 0
M  V30 25961 C 2389.54 0.819136 -2.18661 0
M  V30 25962 C 2390.52 1.27279 -1.12846 0
M  V30 25963 O 2391.71 1.33427 -1.41106 0
M  V30 25964 C 2388.84 2.0669 -2.79099 0
M  V30 25965 C 2387.79 1.75081 -3.90552 0
M  V30 25966 C 2387.12 3.0694 -4.37826 0
M  V30 25967 C 2388.42 1.01426 -5.12357 0
M  V30 25968 H 2390.11 0.30615 -2.97831 0
M  V30 25969 H 2387.66 0.145814 -1.4326 0
M  V30 25970 H 2389.61 2.73221 -3.20825 0
M  V30 25971 H 2388.33 2.60324 -1.97228 0
M  V30 25972 H 2386.99 1.10938 -3.49411 0
M  V30 25973 H 2386.64 3.58521 -3.52805 0
M  V30 25974 H 2386.34 2.86562 -5.12987 0
M  V30 25975 H 2387.86 3.74578 -4.82207 0
M  V30 25976 H 2389.28 1.58122 -5.51063 0
M  V30 25977 H 2387.67 0.911214 -5.93142 0
M  V30 25978 H 2388.74 0.00210157 -4.849 0
M  V30 25979 N 2390.09 1.56899 0.148518 0
M  V30 25980 C 2391.33 1.83266 0.861386 0
M  V30 25981 C 2391.66 0.705915 1.81238 0
M  V30 25982 O 2390.92 -0.305178 1.93306 0
M  V30 25983 C 2391.22 3.15953 1.67058 0
M  V30 25984 C 2390.88 4.42496 0.866513 0
M  V30 25985 C 2389.54 4.76862 0.644678 0
M  V30 25986 C 2391.9 5.20312 0.304089 0
M  V30 25987 C 2389.22 5.86507 -0.150313 0
M  V30 25988 C 2391.58 6.30792 -0.477935 0
M  V30 25989 C 2390.24 6.63709 -0.71036 0
M  V30 25990 H 2389.51 0.670617 0.315203 0
M  V30 25991 H 2392.16 1.91091 0.125108 0
M  V30 25992 H 2390.46 3.03572 2.47692 0
M  V30 25993 H 2392.16 3.33569 2.2256 0
M  V30 25994 H 2388.75 4.15553 1.04948 0
M  V30 25995 H 2392.93 4.94138 0.462757 0
M  V30 25996 H 2388.19 6.10454 -0.339903 0
M  V30 25997 H 2392.36 6.90285 -0.920881 0
M  V30 25998 H 2389.99 7.48507 -1.32823 0
M  V30 25999 N 2391.57 -0.417818 1.51961 0
M  V30 26000 C 2392.81 -1.16556 1.65593 0
M  V30 26001 C 2393.14 -1.9072 0.381598 0
M  V30 26002 O 2392.4 -1.85107 -0.635123 0
M  V30 26003 C 2392.69 -2.19219 2.82273 0
M  V30 26004 C 2392.36 -1.61925 4.20822 0
M  V30 26005 C 2391.02 -1.46024 4.58509 0
M  V30 26006 C 2393.37 -1.19999 5.07198 0
M  V30 26007 C 2390.7 -0.867011 5.80258 0
M  V30 26008 C 2393.05 -0.620975 6.29545 0
M  V30 26009 C 2391.72 -0.449027 6.65988 0
M  V30 26010 H 2390.99 -0.426509 0.605946 0
M  V30 26011 H 2393.64 -0.453937 1.86042 0
M  V30 26012 H 2391.94 -2.96493 2.56123 0
M  V30 26013 H 2393.64 -2.76931 2.90017 0
M  V30 26014 H 2390.23 -1.75283 3.91119 0
M  V30 26015 H 2394.41 -1.31097 4.78672 0
M  V30 26016 H 2389.67 -0.721726 6.07125 0
M  V30 26017 H 2393.84 -0.287676 6.95806 0
M  V30 26018 H 2391.47 0.0127657 7.60199 0
M  V30 26019 N 2393.04 -1.42436 -0.674508 0
M  V30 26020 C 2394.29 -1.42214 -1.43032 0
M  V30 26021 C 2394.61 -0.0421131 -1.95555 0
M  V30 26022 O 2395.81 0.0827081 -2.71374 0
M  V30 26023 C 2394.27 -2.50159 -2.58744 0
M  V30 26024 C 2393.88 -3.9417 -2.12918 0
M  V30 26025 C 2395.62 -2.59104 -3.36252 0
M  V30 26026 C 2393.53 -4.93623 -3.25714 0
M  V30 26027 H 2392.46 -0.528948 -0.537336 0
M  V30 26028 H 2395.11 -1.68345 -0.73021 0
M  V30 26029 H 2393.49 -2.17194 -3.31124 0
M  V30 26030 H 2394.66 -4.36491 -1.4769 0
M  V30 26031 H 2392.98 -3.89078 -1.48348 0
M  V30 26032 H 2395.58 -3.30586 -4.20258 0
M  V30 26033 H 2395.92 -1.63468 -3.82863 0
M  V30 26034 H 2396.45 -2.91265 -2.70942 0
M  V30 26035 H 2393.19 -5.90737 -2.84095 0
M  V30 26036 H 2392.71 -4.55933 -3.89724 0
M  V30 26037 H 2394.39 -5.15354 -3.91177 0
M  V30 26038 N 2394.52 0.910841 -1.28614 0
M  V30 26039 C 2395.75 1.69151 -1.18623 0
M  V30 26040 C 2396.16 1.87442 0.257291 0
M  V30 26041 O 2395.5 1.40334 1.18541 0
M  V30 26042 C 2395.56 3.10254 -1.81611 0
M  V30 26043 C 2395.23 3.15237 -3.30869 0
M  V30 26044 C 2396.23 2.96216 -4.27261 0
M  V30 26045 C 2393.91 3.37658 -3.71877 0
M  V30 26046 C 2395.9 2.99531 -5.62636 0
M  V30 26047 C 2393.59 3.40605 -5.07377 0
M  V30 26048 C 2394.59 3.21563 -6.02566 0
M  V30 26049 O 2394.28 3.24277 -7.35595 0
M  V30 26050 H 2394.01 0.535446 -0.412643 0
M  V30 26051 H 2396.56 1.14824 -1.70308 0
M  V30 26052 H 2394.79 3.66136 -1.24425 0
M  V30 26053 H 2396.48 3.70359 -1.66098 0
M  V30 26054 H 2397.25 2.78718 -3.96915 0
M  V30 26055 H 2393.13 3.51524 -2.98248 0
M  V30 26056 H 2396.67 2.84586 -6.36912 0
M  V30 26057 H 2392.57 3.57632 -5.37373 0
M  V30 26058 H 2393.34 3.40619 -7.44258 0
M  V30 26059 N 2396 1.10909 1.11969 0
M  V30 26060 C 2396.96 0.765745 2.1603 0
M  V30 26061 C 2397.96 -0.212207 1.59394 0
M  V30 26062 O 2399.15 0.0115747 1.74196 0
M  V30 26063 C 2396.29 0.135113 3.40632 0
M  V30 26064 H 2397.48 1.68753 2.47916 0
M  V30 26065 H 2395.03 0.910249 1.2706 0
M  V30 26066 H 2395.77 -0.797162 3.1435 0
M  V30 26067 H 2395.55 0.839004 3.83018 0
M  V30 26068 H 2397.04 -0.0891735 4.17505 0
M  V30 26069 N 2397.48 -1.29474 0.898573 0
M  V30 26070 C 2398.73 -1.94884 0.519898 0
M  V30 26071 C 2399.04 -1.71627 -0.93827 0
M  V30 26072 O 2400.25 -2.31134 -1.42441 0
M  V30 26073 C 2398.7 -3.49003 0.878898 0
M  V30 26074 C 2398.31 -3.81062 2.35576 0
M  V30 26075 C 2400.05 -4.20655 0.570078 0
M  V30 26076 C 2397.96 -5.2842 2.65568 0
M  V30 26077 H 2396.89 -0.729485 0.190704 0
M  V30 26078 H 2399.54 -1.47217 1.09541 0
M  V30 26079 H 2397.92 -3.95318 0.232322 0
M  V30 26080 H 2399.1 -3.4561 3.04779 0
M  V30 26081 H 2397.41 -3.22547 2.63349 0
M  V30 26082 H 2400.01 -5.29112 0.771018 0
M  V30 26083 H 2400.35 -4.1339 -0.491331 0
M  V30 26084 H 2400.89 -3.80068 1.17444 0
M  V30 26085 H 2397.63 -5.40748 3.70502 0
M  V30 26086 H 2397.15 -5.65123 2.00987 0
M  V30 26087 H 2398.82 -5.96002 2.51775 0
M  V30 26088 N 2398.96 -0.660936 -1.43071 0
M  V30 26089 C 2400.21 -0.17477 -2.00941 0
M  V30 26090 C 2400.52 1.22114 -1.52799 0
M  V30 26091 O 2401.72 1.80294 -2.02994 0
M  V30 26092 C 2400.18 -0.261622 -3.58948 0
M  V30 26093 C 2399.79 -1.66071 -4.16082 0
M  V30 26094 C 2401.53 0.166543 -4.24173 0
M  V30 26095 C 2399.44 -1.70108 -5.66407 0
M  V30 26096 H 2398.37 -0.0615763 -0.751481 0
M  V30 26097 H 2401.02 -0.824098 -1.63954 0
M  V30 26098 H 2399.4 0.455352 -3.93373 0
M  V30 26099 H 2400.58 -2.40366 -3.93142 0
M  V30 26100 H 2398.89 -2.03552 -3.63257 0
M  V30 26101 H 2401.49 0.156339 -5.34471 0
M  V30 26102 H 2401.83 1.19936 -3.98649 0
M  V30 26103 H 2402.36 -0.498945 -3.94659 0
M  V30 26104 H 2399.1 -2.71325 -5.9671 0
M  V30 26105 H 2398.62 -1.00149 -5.9138 0
M  V30 26106 H 2400.3 -1.44827 -6.30582 0
M  V30 26107 N 2400.43 1.52351 -0.403352 0
M  V30 26108 C 2401.68 2.0135 0.173967 0
M  V30 26109 C 2402 1.29108 1.46137 0
M  V30 26110 O 2401.27 0.415287 1.91448 0
M  V30 26111 H 2399.85 0.743964 0.067278 0
M  V30 26112 H 2402.52 1.8732 -0.538268 0
M  V30 26113 H 2401.61 3.09849 0.3742 0
M  V30 26114 N 2401.91 0.133594 1.57033 0
M  V30 26115 C 2402.85 -0.848835 2.11825 0
M  V30 26116 C 2403.82 -1.25128 1.03835 0
M  V30 26117 O 2405.01 -1.34976 1.31582 0
M  V30 26118 C 2402.13 -2.13796 2.62696 0
M  V30 26119 C 2401.18 -1.88246 3.82708 0
M  V30 26120 S 2402.01 -1.08554 5.24382 0
M  V30 26121 C 2403.17 -2.38614 5.78631 0
M  V30 26122 H 2403.4 -0.382838 2.94825 0
M  V30 26123 H 2400.94 -0.0804525 1.5419 0
M  V30 26124 H 2402.89 -2.87858 2.92657 0
M  V30 26125 H 2401.55 -2.57511 1.79852 0
M  V30 26126 H 2400.75 -2.83802 4.16501 0
M  V30 26127 H 2400.35 -1.22299 3.53439 0
M  V30 26128 H 2402.64 -3.34359 5.89246 0
M  V30 26129 H 2403.58 -2.09346 6.76447 0
M  V30 26130 H 2403.99 -2.48649 5.06788 0
M  V30 26131 N 2403.39 -1.56975 -0.140195 0
M  V30 26132 C 2404.32 -1.9539 -1.19814 0
M  V30 26133 C 2405.34 -0.85055 -1.38815 0
M  V30 26134 O 2406.52 -1.12894 -1.38265 0
M  V30 26135 C 2403.62 -2.21862 -2.56185 0
M  V30 26136 C 2402.8 -3.53154 -2.58071 0
M  V30 26137 C 2401.86 -3.68086 -3.7603 0
M  V30 26138 O 2400.88 -4.40412 -3.60591 0
M  V30 26139 N 2402.08 -3.0526 -4.93758 0
M  V30 26140 H 2404.85 -2.86747 -0.871559 0
M  V30 26141 H 2402.41 -1.58508 -0.329692 0
M  V30 26142 H 2404.4 -2.29086 -3.33619 0
M  V30 26143 H 2402.97 -1.36736 -2.81109 0
M  V30 26144 H 2402.19 -3.5731 -1.66504 0
M  V30 26145 H 2403.48 -4.39491 -2.56369 0
M  V30 26146 H 2402.88 -2.46428 -5.09205 0
M  V30 26147 H 2401.44 -3.18036 -5.68943 0
M  V30 26148 N 2404.87 0.409753 -1.5218 0
M  V30 26149 C 2406.11 1.15848 -1.66455 0
M  V30 26150 C 2406.45 1.90182 -0.393005 0
M  V30 26151 O 2405.72 1.84735 0.608547 0
M  V30 26152 C 2406.01 2.15344 -2.88616 0
M  V30 26153 C 2405.86 1.44911 -4.25818 0
M  V30 26154 C 2407.18 3.1602 -3.06299 0
M  V30 26155 H 2404.3 0.419794 -0.605757 0
M  V30 26156 H 2406.94 0.444282 -1.84733 0
M  V30 26157 H 2405.09 2.7625 -2.73163 0
M  V30 26158 H 2406.76 0.871285 -4.52997 0
M  V30 26159 H 2405 0.751084 -4.27248 0
M  V30 26160 H 2405.67 2.17507 -5.07341 0
M  V30 26161 H 2408.15 2.6519 -3.20646 0
M  V30 26162 H 2407.03 3.82903 -3.93289 0
M  V30 26163 H 2407.29 3.83711 -2.19586 0
M  V30 26164 N 2406.35 1.42792 0.666944 0
M  V30 26165 C 2407.59 1.4368 1.42696 0
M  V30 26166 C 2407.92 0.0560766 1.94419 0
M  V30 26167 O 2407.18 -0.936801 1.71821 0
M  V30 26168 C 2407.48 2.41474 2.63486 0
M  V30 26169 C 2407.14 3.87674 2.3026 0
M  V30 26170 C 2405.8 4.27495 2.2091 0
M  V30 26171 C 2408.16 4.79862 2.03426 0
M  V30 26172 C 2405.48 5.57475 1.82863 0
M  V30 26173 C 2407.84 6.10191 1.66881 0
M  V30 26174 C 2406.5 6.49004 1.56047 0
M  V30 26175 H 2405.77 0.525764 0.522162 0
M  V30 26176 H 2408.42 1.75784 0.759754 0
M  V30 26177 H 2406.72 2.02726 3.35275 0
M  V30 26178 H 2408.42 2.39422 3.2168 0
M  V30 26179 H 2405.01 3.5615 2.38442 0
M  V30 26180 H 2409.19 4.49878 2.09578 0
M  V30 26181 H 2404.45 5.86399 1.7305 0
M  V30 26182 H 2408.62 6.81106 1.45145 0
M  V30 26183 H 2406.25 7.49629 1.26335 0
M  V30 26184 N 2407.82 -0.904008 1.29095 0
M  V30 26185 C 2409.07 -1.65083 1.16585 0
M  V30 26186 C 2409.39 -1.92922 -0.283899 0
M  V30 26187 O 2408.66 -1.55226 -1.19506 0
M  V30 26188 H 2407.24 -0.611895 0.428478 0
M  V30 26189 H 2409.91 -1.08419 1.61961 0
M  V30 26190 H 2409 -2.60907 1.71271 0
M  V30 26191 N 2409.3 -1.11501 -1.11379 0
M  V30 26192 C 2410.25 -0.768994 -2.1952 0
M  V30 26193 C 2411.24 0.239828 -1.67694 0
M  V30 26194 O 2412.45 0.0990439 -1.79727 0
M  V30 26195 H 2408.83 -0.230799 -0.715707 0
M  V30 26196 H 2410.8 -1.68969 -2.45951 0
M  V30 26197 C 2409.55 -0.229134 -3.46944 0
M  V30 26198 H 2408.87 -0.996664 -3.87178 0
M  V30 26199 H 2410.31 -0.0252186 -4.23993 0
M  V30 26200 C 2408.77 1.04074 -3.20422 0
M  V30 26201 O 2409.3 2.12032 -3.41182 0
M  V30 26202 N 2407.5 0.963775 -2.74153 0
M  V30 26203 H 2407.05 0.0851269 -2.57459 0
M  V30 26204 H 2407.01 1.81409 -2.56784 0
M  V30 26205 N 2410.78 1.28995 -0.905426 0
M  V30 26206 C 2412.03 1.94606 -0.530225 0
M  V30 26207 C 2412.34 1.72122 0.929155 0
M  V30 26208 O 2413.55 2.31886 1.41214 0
M  V30 26209 C 2412.01 3.48532 -0.897394 0
M  V30 26210 C 2411.61 3.79807 -2.37593 0
M  V30 26211 C 2413.36 4.20346 -0.592378 0
M  V30 26212 C 2411.26 5.27004 -2.68366 0
M  V30 26213 H 2410.19 0.728463 -0.19457 0
M  V30 26214 H 2412.85 1.46634 -1.10321 0
M  V30 26215 H 2411.23 3.95189 -0.253283 0
M  V30 26216 H 2412.4 3.43989 -3.06608 0
M  V30 26217 H 2410.72 3.21146 -2.65055 0
M  V30 26218 H 2413.31 5.28696 -0.799068 0
M  V30 26219 H 2413.66 4.13645 0.469401 0
M  V30 26220 H 2414.19 3.7944 -1.19458 0
M  V30 26221 H 2410.93 5.38775 -3.73365 0
M  V30 26222 H 2410.45 5.64049 -2.03981 0
M  V30 26223 H 2412.13 5.94658 -2.54933 0
M  V30 26224 N 2412.26 0.668514 1.42719 0
M  V30 26225 C 2413.21 -0.0137083 2.30796 0
M  V30 26226 C 2414.18 -0.799151 1.45612 0
M  V30 26227 O 2415.36 -0.772671 1.74455 0
M  V30 26228 C 2412.5 -0.963448 3.31378 0
M  V30 26229 C 2411.61 -0.172493 4.31655 0
M  V30 26230 C 2410.75 -1.11741 5.19314 0
M  V30 26231 C 2409.79 -0.317779 6.11275 0
M  V30 26232 N 2408.93 -1.21508 6.91506 0
M  V30 26233 H 2413.77 0.743212 2.88583 0
M  V30 26234 H 2411.3 0.378251 1.42154 0
M  V30 26235 H 2413.26 -1.52785 3.88217 0
M  V30 26236 H 2411.89 -1.68707 2.75205 0
M  V30 26237 H 2410.94 0.50844 3.76987 0
M  V30 26238 H 2412.25 0.448615 4.96779 0
M  V30 26239 H 2411.41 -1.75195 5.80854 0
M  V30 26240 H 2410.15 -1.77241 4.54353 0
M  V30 26241 H 2409.15 0.330014 5.48809 0
M  V30 26242 H 2410.38 0.333036 6.78283 0
M  V30 26243 H 2408.32 -1.8566 6.29179 0
M  V30 26244 H 2408.24 -0.648903 7.5321 0
M  V30 26245 H 2409.51 -1.83729 7.57538 0
M  V30 26246 N 2413.74 -1.52135 0.411426 0
M  V30 26247 C 2414.67 -2.29979 -0.403974 0
M  V30 26248 C 2415.65 -1.34286 -1.0441 0
M  V30 26249 O 2416.83 -1.63194 -1.05268 0
M  V30 26250 C 2413.96 -3.12288 -1.51965 0
M  V30 26251 C 2412.92 -4.16048 -1.0044 0
M  V30 26252 C 2412.24 -4.86716 -2.21385 0
M  V30 26253 C 2413.54 -5.22269 -0.0568418 0
M  V30 26254 H 2415.24 -2.98391 0.245581 0
M  V30 26255 H 2412.78 -1.43503 0.11955 0
M  V30 26256 H 2414.74 -3.65514 -2.09708 0
M  V30 26257 H 2413.46 -2.41649 -2.19711 0
M  V30 26258 H 2412.12 -3.63836 -0.449357 0
M  V30 26259 H 2411.77 -4.12605 -2.87692 0
M  V30 26260 H 2411.47 -5.56861 -1.87561 0
M  V30 26261 H 2412.99 -5.42755 -2.7973 0
M  V30 26262 H 2414.41 -5.70721 -0.54315 0
M  V30 26263 H 2412.8 -5.99791 0.1927 0
M  V30 26264 H 2413.87 -4.76704 0.887747 0
M  V30 26265 N 2415.22 -0.14192 -1.5696 0
M  V30 26266 C 2416.49 0.555248 -1.87554 0
M  V30 26267 C 2416.87 1.83305 -1.04703 0
M  V30 26268 O 2416.22 2.28116 -0.132386 0
M  V30 26269 C 2416.43 0.825605 -3.39094 0
M  V30 26270 C 2417.78 1.16862 -4.08202 0
M  V30 26271 O 2418.8 0.915125 -3.44244 0
M  V30 26272 O 2417.66 1.64541 -5.21141 0
M  V30 26273 H 2414.76 0.282665 -0.777193 0
M  V30 26274 H 2417.3 -0.17815 -1.68762 0
M  V30 26275 H 2416.07 -0.0789321 -3.9122 0
M  V30 26276 H 2415.7 1.61336 -3.63396 0
M  V30 26277 N 2416.69 1.57047 0.131868 0
M  V30 26278 C 2417.6 2.02678 1.18147 0
M  V30 26279 C 2418.62 0.94485 1.46112 0
M  V30 26280 O 2419.8 1.25544 1.57483 0
M  V30 26281 C 2416.86 2.41107 2.49135 0
M  V30 26282 C 2415.92 3.63322 2.28682 0
M  V30 26283 C 2415.15 3.99909 3.53424 0
M  V30 26284 O 2415.38 3.36981 4.60217 0
M  V30 26285 O 2414.31 4.9308 3.45189 0
M  V30 26286 H 2418.14 2.92307 0.824017 0
M  V30 26287 H 2415.72 1.45439 0.341719 0
M  V30 26288 H 2417.6 2.66617 3.26333 0
M  V30 26289 H 2416.28 1.54629 2.84379 0
M  V30 26290 H 2415.19 3.4298 1.49384 0
M  V30 26291 H 2416.52 4.50466 1.98347 0
M  V30 26292 N 2418.17 -0.401677 1.52395 0
M  V30 26293 C 2419.08 -1.51441 1.79173 0
M  V30 26294 C 2420.1 -1.60259 0.67772 0
M  V30 26295 O 2421.27 -1.76834 0.96394 0
M  V30 26296 C 2418.34 -2.87103 1.94352 0
M  V30 26297 C 2417.4 -2.8811 3.18262 0
M  V30 26298 C 2416.63 -4.17302 3.32708 0
M  V30 26299 O 2416.86 -5.11593 2.52247 0
M  V30 26300 O 2415.79 -4.25316 4.25899 0
M  V30 26301 H 2419.62 -1.31747 2.73635 0
M  V30 26302 H 2417.2 -0.588272 1.37331 0
M  V30 26303 H 2419.08 -3.67552 2.06116 0
M  V30 26304 H 2417.76 -3.06849 1.03079 0
M  V30 26305 H 2416.66 -2.06489 3.11951 0
M  V30 26306 H 2418 -2.73315 4.09341 0
M  V30 26307 N 2419.65 -1.43144 -0.659362 0
M  V30 26308 C 2420.87 -1.48075 -1.45219 0
M  V30 26309 C 2421.3 -0.098028 -1.87844 0
M  V30 26310 O 2420.66 0.906913 -1.56987 0
M  V30 26311 C 2420.71 -2.42652 -2.66744 0
M  V30 26312 O 2419.81 -1.90854 -3.6558 0
M  V30 26313 H 2419.15 -0.501095 -0.43566 0
M  V30 26314 H 2421.68 -1.87995 -0.807399 0
M  V30 26315 H 2421.69 -2.59751 -3.14632 0
M  V30 26316 H 2420.37 -3.43103 -2.35061 0
M  V30 26317 H 2418.94 -1.83387 -3.2469 0
M  V30 26318 N 2421.13 0.897149 -1.29572 0
M  V30 26319 C 2422.08 1.98853 -1.11542 0
M  V30 26320 C 2423.06 1.60864 -0.0340998 0
M  V30 26321 O 2424.25 1.75138 -0.256093 0
M  V30 26322 C 2421.38 3.33928 -0.796661 0
M  V30 26323 C 2420.47 3.78269 -1.91765 0
M  V30 26324 N 2420.86 3.9482 -3.1615 0
M  V30 26325 C 2419.16 4.07565 -1.81126 0
M  V30 26326 C 2419.86 4.32226 -3.89301 0
M  V30 26327 N 2418.83 4.41413 -3.17263 0
M  V30 26328 H 2422.64 2.09722 -2.05897 0
M  V30 26329 H 2420.15 1.08614 -1.20734 0
M  V30 26330 H 2422.15 4.11825 -0.648531 0
M  V30 26331 H 2420.81 3.24403 0.138946 0
M  V30 26332 H 2421.82 3.80282 -3.51576 0
M  V30 26333 H 2418.5 4.06582 -0.948533 0
M  V30 26334 H 2419.89 4.52856 -4.96357 0
M  V30 26335 N 2422.61 1.1209 1.10786 0
M  V30 26336 C 2423.85 0.868691 1.82035 0
M  V30 26337 C 2424.17 -0.607394 1.8593 0
M  V30 26338 O 2425.37 -0.976085 2.53347 0
M  V30 26339 C 2423.83 1.50441 3.26949 0
M  V30 26340 C 2423.44 3.01502 3.31362 0
M  V30 26341 C 2425.18 1.33232 4.0305 0
M  V30 26342 C 2423.09 3.58025 4.70714 0
M  V30 26343 H 2422.02 0.32133 0.682102 0
M  V30 26344 H 2424.67 1.34696 1.24616 0
M  V30 26345 H 2423.05 0.953803 3.84342 0
M  V30 26346 H 2424.23 3.63025 2.83813 0
M  V30 26347 H 2422.54 3.18065 2.68744 0
M  V30 26348 H 2425.14 1.72887 5.05978 0
M  V30 26349 H 2425.48 0.275602 4.15387 0
M  V30 26350 H 2426.01 1.85194 3.52062 0
M  V30 26351 H 2422.75 4.6344 4.63577 0
M  V30 26352 H 2422.27 3.01277 5.18645 0
M  V30 26353 H 2423.95 3.56869 5.39679 0
M  V30 26354 N 2424.08 -1.28513 0.912254 0
M  V30 26355 C 2425.03 -2.29313 0.389637 0
M  V30 26356 C 2426.03 -1.61289 -0.517887 0
M  V30 26357 O 2427.23 -1.75515 -0.399297 0
M  V30 26358 H 2423.61 -0.744291 0.107399 0
M  V30 26359 H 2425.58 -2.70822 1.25291 0
M  V30 26360 C 2424.33 -3.45868 -0.356435 0
M  V30 26361 H 2423.65 -3.98413 0.332678 0
M  V30 26362 H 2425.09 -4.18401 -0.686777 0
M  V30 26363 C 2423.55 -2.98409 -1.56377 0
M  V30 26364 O 2424.08 -3.00754 -2.66289 0
M  V30 26365 N 2422.28 -2.54087 -1.41025 0
M  V30 26366 H 2421.83 -2.52378 -0.516045 0
M  V30 26367 H 2421.79 -2.22693 -2.21935 0
M  V30 26368 N 2425.56 -0.676073 -1.42362 0
M  V30 26369 C 2426.98 -0.345745 -1.5581 0
M  V30 26370 C 2427.18 1.14877 -1.65546 0
M  V30 26371 O 2426.23 1.93422 -1.62309 0
M  V30 26372 C 2427.55 -1.07718 -2.80744 0
M  V30 26373 C 2429.1 -1.05963 -2.94518 0
M  V30 26374 C 2429.57 -1.77241 -4.22315 0
M  V30 26375 N 2431.06 -1.74115 -4.2923 0
M  V30 26376 C 2431.8 -2.26122 -5.26931 0
M  V30 26377 N 2431.29 -2.86516 -6.30777 0
M  V30 26378 N 2433.09 -2.16489 -5.18738 0
M  V30 26379 H 2425.24 -1.64563 -1.34286 0
M  V30 26380 H 2427.5 -0.693361 -0.646494 0
M  V30 26381 H 2427.21 -2.13226 -2.79692 0
M  V30 26382 H 2427.08 -0.643225 -3.71675 0
M  V30 26383 H 2429.47 -0.0128774 -2.95097 0
M  V30 26384 H 2429.55 -1.53247 -2.04814 0
M  V30 26385 H 2429.19 -2.81885 -4.22497 0
M  V30 26386 H 2429.12 -1.27405 -5.10955 0
M  V30 26387 H 2431.61 -1.30065 -3.54812 0
M  V30 26388 H 2431.93 -3.23817 -7.01685 0
M  V30 26389 H 2430.27 -2.90586 -6.31335 0
M  V30 26390 H 2433.46 -1.68994 -4.3653 0
M  V30 26391 H 2433.63 -2.57326 -5.94716 0
M  V30 26392 N 2427.04 1.51915 -0.419488 0
M  V30 26393 C 2427.99 2.24127 0.418457 0
M  V30 26394 C 2428.97 1.25658 1.00493 0
M  V30 26395 O 2430.17 1.50843 0.926031 0
M  V30 26396 C 2427.3 3.07374 1.52893 0
M  V30 26397 C 2426.38 4.1326 0.952724 0
M  V30 26398 N 2426.77 5.05693 0.104086 0
M  V30 26399 C 2425.07 4.28928 1.22217 0
M  V30 26400 C 2425.77 5.81293 -0.217622 0
M  V30 26401 N 2424.75 5.42169 0.394198 0
M  V30 26402 H 2428.55 2.9295 -0.2361 0
M  V30 26403 H 2426.06 1.60756 -0.230509 0
M  V30 26404 H 2428.06 3.57669 2.14193 0
M  V30 26405 H 2426.72 2.40091 2.18601 0
M  V30 26406 H 2427.73 5.17242 -0.261015 0
M  V30 26407 H 2424.41 3.72874 1.87806 0
M  V30 26408 H 2425.8 6.65749 -0.907109 0
M  V30 26409 N 2428.52 0.150242 1.56882 0
M  V30 26410 C 2429.47 -0.805274 2.18216 0
M  V30 26411 C 2430.46 -1.25294 1.14008 0
M  V30 26412 O 2431.67 -1.22104 1.32252 0
M  V30 26413 H 2428.04 -0.277901 0.698767 0
M  V30 26414 H 2430.01 -0.26381 2.97232 0
M  V30 26415 C 2428.76 -2.03304 2.82069 0
M  V30 26416 H 2428.08 -1.69756 3.61971 0
M  V30 26417 H 2429.52 -2.68097 3.28481 0
M  V30 26418 C 2427.98 -2.84312 1.80744 0
M  V30 26419 O 2428.51 -3.80764 1.27989 0
M  V30 26420 N 2426.72 -2.4891 1.49974 0
M  V30 26421 H 2426.27 -1.70539 1.93065 0
M  V30 26422 H 2426.22 -3.03403 0.82427 0
M  V30 26423 N 2430 -1.57115 -0.123538 0
M  V30 26424 C 2430.94 -2.00986 -1.17078 0
M  V30 26425 C 2431.94 -0.906034 -1.43134 0
M  V30 26426 O 2433.14 -1.09124 -1.4315 0
M  V30 26427 H 2429.52 -0.640127 -0.394641 0
M  V30 26428 H 2431.49 -2.88181 -0.774241 0
M  V30 26429 C 2430.24 -2.42627 -2.49053 0
M  V30 26430 H 2429.56 -3.27129 -2.2984 0
M  V30 26431 H 2431 -2.77126 -3.20901 0
M  V30 26432 C 2429.46 -1.28811 -3.11303 0
M  V30 26433 O 2429.99 -0.6016 -3.9717 0
M  V30 26434 N 2428.2 -1.04633 -2.7111 0
M  V30 26435 H 2427.74 -1.60637 -2.01379 0
M  V30 26436 H 2427.7 -0.28674 -3.1309 0
M  V30 26437 N 2431.47 0.393589 -1.52606 0
M  V30 26438 C 2432.72 1.13907 -1.67426 0
M  V30 26439 C 2433.05 1.90089 -0.411892 0
M  V30 26440 O 2432.3 1.86094 0.605594 0
M  V30 26441 C 2432.6 2.147 -2.85725 0
M  V30 26442 C 2432.27 1.5521 -4.23345 0
M  V30 26443 C 2430.93 1.38712 -4.60774 0
M  V30 26444 C 2433.28 1.11915 -5.09043 0
M  V30 26445 C 2430.61 0.774587 -5.81564 0
M  V30 26446 C 2432.96 0.520742 -6.30453 0
M  V30 26447 C 2431.63 0.343017 -6.66618 0
M  V30 26448 H 2430.9 0.416815 -0.612655 0
M  V30 26449 H 2433.54 0.424282 -1.86741 0
M  V30 26450 H 2431.85 2.92381 -2.60808 0
M  V30 26451 H 2433.55 2.72282 -2.94386 0
M  V30 26452 H 2430.14 1.69038 -3.93858 0
M  V30 26453 H 2434.32 1.23465 -4.80698 0
M  V30 26454 H 2429.58 0.625047 -6.08197 0
M  V30 26455 H 2433.75 0.176943 -6.96175 0
M  V30 26456 H 2431.38 -0.133705 -7.60082 0
M  V30 26457 N 2432.95 1.43492 0.651762 0
M  V30 26458 C 2434.37 1.26924 0.967598 0
M  V30 26459 C 2434.57 0.190017 2.00602 0
M  V30 26460 O 2433.62 -0.431063 2.48793 0
M  V30 26461 C 2434.94 2.63404 1.45048 0
M  V30 26462 C 2436.49 2.70948 1.56705 0
M  V30 26463 C 2436.96 4.07849 2.08383 0
M  V30 26464 N 2438.45 4.09921 2.15683 0
M  V30 26465 C 2439.19 5.12683 2.56795 0
M  V30 26466 N 2438.68 6.25819 2.97192 0
M  V30 26467 N 2440.48 5.00037 2.56747 0
M  V30 26468 H 2432.63 2.12371 -0.0353532 0
M  V30 26469 H 2434.89 0.946846 0.0467692 0
M  V30 26470 H 2434.6 3.43349 0.761865 0
M  V30 26471 H 2434.47 2.88898 2.42524 0
M  V30 26472 H 2436.86 1.91334 2.24667 0
M  V30 26473 H 2436.94 2.49217 0.576576 0
M  V30 26474 H 2436.58 4.87929 1.41022 0
M  V30 26475 H 2436.51 4.26944 3.08264 0
M  V30 26476 H 2439 3.28257 1.87231 0
M  V30 26477 H 2439.32 7.0006 3.27315 0
M  V30 26478 H 2437.66 6.29289 2.94993 0
M  V30 26479 H 2440.85 4.10717 2.24565 0
M  V30 26480 H 2441.02 5.80252 2.88465 0
M  V30 26481 N 2434.43 -0.890264 1.30046 0
M  V30 26482 C 2435.66 -1.68012 1.21601 0
M  V30 26483 C 2436.08 -1.86825 -0.218645 0
M  V30 26484 O 2435.44 -1.39538 -1.15754 0
M  V30 26485 C 2435.49 -3.03687 1.94439 0
M  V30 26486 O 2434.59 -3.92427 1.26787 0
M  V30 26487 H 2433.93 -0.513584 0.420865 0
M  V30 26488 H 2436.46 -1.11148 1.71777 0
M  V30 26489 H 2436.47 -3.53766 2.03257 0
M  V30 26490 H 2435.15 -2.89313 2.98782 0
M  V30 26491 H 2433.72 -3.50864 1.26288 0
M  V30 26492 N 2435.91 -1.12676 -1.1019 0
M  V30 26493 C 2437.16 -0.883638 -1.82203 0
M  V30 26494 C 2437.48 0.590459 -1.85321 0
M  V30 26495 O 2436.74 1.45261 -1.3114 0
M  V30 26496 C 2437.04 -1.40676 -3.2855 0
M  V30 26497 C 2436.7 -2.89633 -3.45577 0
M  V30 26498 C 2435.37 -3.30305 -3.49931 0
M  V30 26499 C 2437.72 -3.85507 -3.50762 0
M  V30 26500 C 2435.05 -4.65552 -3.57041 0
M  V30 26501 C 2437.4 -5.20587 -3.59404 0
M  V30 26502 C 2436.06 -5.60798 -3.62024 0
M  V30 26503 H 2435.33 -0.323346 -0.66673 0
M  V30 26504 H 2437.98 -1.40738 -1.29866 0
M  V30 26505 H 2436.28 -0.803538 -3.83472 0
M  V30 26506 H 2437.98 -1.19482 -3.82786 0
M  V30 26507 H 2434.57 -2.57178 -3.42866 0
M  V30 26508 H 2438.75 -3.55177 -3.46645 0
M  V30 26509 H 2434.01 -4.96094 -3.57353 0
M  V30 26510 H 2438.18 -5.947 -3.62361 0
M  V30 26511 H 2435.81 -6.65586 -3.67286 0
M  V30 26512 N 2437.39 1.28028 -0.919057 0
M  V30 26513 C 2438.63 1.94747 -0.554969 0
M  V30 26514 C 2438.96 1.72305 0.90228 0
M  V30 26515 O 2438.22 1.04021 1.65766 0
M  V30 26516 C 2438.52 3.47939 -0.816917 0
M  V30 26517 C 2438.18 3.90488 -2.25455 0
M  V30 26518 C 2436.84 4.01816 -2.64759 0
M  V30 26519 C 2439.2 4.12188 -3.18984 0
M  V30 26520 C 2436.52 4.32225 -3.96734 0
M  V30 26521 C 2438.88 4.44078 -4.5053 0
M  V30 26522 C 2437.54 4.53618 -4.89681 0
M  V30 26523 H 2436.81 0.712629 -0.203077 0
M  V30 26524 H 2439.46 1.52263 -1.16139 0
M  V30 26525 H 2437.76 3.91592 -0.127746 0
M  V30 26526 H 2439.46 3.97688 -0.514308 0
M  V30 26527 H 2436.05 3.82202 -1.93958 0
M  V30 26528 H 2440.23 4.02884 -2.89824 0
M  V30 26529 H 2435.49 4.37818 -4.26762 0
M  V30 26530 H 2439.66 4.59816 -5.23013 0
M  V30 26531 H 2437.29 4.76935 -5.91977 0
M  V30 26532 N 2438.86 0.683613 1.42002 0
M  V30 26533 C 2440.11 0.209136 2.01015 0
M  V30 26534 C 2440.43 -1.19147 1.54367 0
M  V30 26535 O 2439.7 -1.80171 0.769115 0
M  V30 26536 H 2438.28 0.0743281 0.743293 0
M  V30 26537 H 2440.95 0.882097 1.73796 0
M  V30 26538 H 2440.04 0.217255 3.11343 0
M  V30 26539 N 2440.34 -1.5169 0.427538 0
M  V30 26540 C 2441.57 -2.06903 -0.143565 0
M  V30 26541 C 2441.99 -1.29384 -1.36533 0
M  V30 26542 O 2441.35 -0.329074 -1.78289 0
M  V30 26543 C 2441.4 -3.57729 -0.454144 0
M  V30 26544 O 2440.5 -3.82478 -1.54222 0
M  V30 26545 H 2439.84 -0.663971 -0.00615961 0
M  V30 26546 H 2442.37 -1.95418 0.606048 0
M  V30 26547 H 2442.38 -4.0182 -0.707455 0
M  V30 26548 H 2441.06 -4.13578 0.438885 0
M  V30 26549 H 2439.64 -3.50257 -1.27963 0
M  V30 26550 N 2441.82 -0.15856 -1.568 0
M  V30 26551 C 2442.75 0.77257 -2.20349 0
M  V30 26552 C 2443.73 1.24857 -1.1552 0
M  V30 26553 O 2444.92 1.30404 -1.43905 0
M  V30 26554 C 2442.05 2.00724 -2.83421 0
M  V30 26555 C 2441 1.66758 -3.94177 0
M  V30 26556 C 2440.33 2.97584 -4.44238 0
M  V30 26557 C 2441.63 0.905357 -5.14393 0
M  V30 26558 H 2443.32 0.242906 -2.98413 0
M  V30 26559 H 2440.87 0.115393 -1.43537 0
M  V30 26560 H 2442.82 2.66354 -3.26548 0
M  V30 26561 H 2441.54 2.56082 -2.02705 0
M  V30 26562 H 2440.2 1.03502 -3.51686 0
M  V30 26563 H 2439.85 3.50957 -3.60331 0
M  V30 26564 H 2439.55 2.75617 -5.1895 0
M  V30 26565 H 2441.08 3.64266 -4.90044 0
M  V30 26566 H 2442.49 1.46398 -5.54293 0
M  V30 26567 H 2440.89 0.785195 -5.94941 0
M  V30 26568 H 2441.96 -0.100753 -4.84795 0
M  V30 26569 N 2443.3 1.57178 0.115204 0
M  V30 26570 C 2444.23 1.95827 1.17162 0
M  V30 26571 C 2445.21 0.828487 1.3991 0
M  V30 26572 O 2446.39 1.087 1.54002 0
M  V30 26573 C 2443.52 2.25776 2.52474 0
M  V30 26574 C 2442.57 3.48314 2.4613 0
M  V30 26575 S 2443.4 5.00763 1.89727 0
M  V30 26576 C 2444.56 5.33868 3.26704 0
M  V30 26577 H 2444.79 2.85126 0.842053 0
M  V30 26578 H 2442.32 1.51003 0.32211 0
M  V30 26579 H 2444.28 2.43708 3.30328 0
M  V30 26580 H 2442.94 1.37084 2.82607 0
M  V30 26581 H 2442.13 3.66647 3.45813 0
M  V30 26582 H 2441.74 3.29787 1.76398 0
M  V30 26583 H 2444.03 5.29283 4.22926 0
M  V30 26584 H 2444.97 6.35071 3.13194 0
M  V30 26585 H 2445.38 4.61341 3.25308 0
M  V30 26586 N 2444.78 -0.38549 1.52813 0
M  V30 26587 C 2445.71 -1.47749 1.80811 0
M  V30 26588 C 2446.69 -1.56759 0.660346 0
M  V30 26589 O 2447.87 -1.71651 0.908277 0
M  V30 26590 C 2445 -2.85321 1.98013 0
M  V30 26591 C 2443.96 -2.91148 3.13714 0
M  V30 26592 C 2443.28 -4.31204 3.16176 0
M  V30 26593 C 2444.58 -2.60475 4.52714 0
M  V30 26594 H 2446.28 -1.24568 2.72256 0
M  V30 26595 H 2443.82 -0.597816 1.31004 0
M  V30 26596 H 2445.78 -3.61722 2.16183 0
M  V30 26597 H 2444.5 -3.09846 1.03261 0
M  V30 26598 H 2443.16 -2.17195 2.95333 0
M  V30 26599 H 2442.81 -4.52774 2.191 0
M  V30 26600 H 2442.51 -4.36022 3.93901 0
M  V30 26601 H 2444.03 -5.09506 3.36505 0
M  V30 26602 H 2445.45 -3.26593 4.71179 0
M  V30 26603 H 2443.84 -2.76639 5.32533 0
M  V30 26604 H 2444.91 -1.55801 4.59188 0
M  V30 26605 N 2446.26 -1.43835 -0.644143 0
M  V30 26606 C 2447.19 -1.52512 -1.76812 0
M  V30 26607 C 2448.17 -0.379081 -1.65822 0
M  V30 26608 O 2449.35 -0.597498 -1.8478 0
M  V30 26609 C 2446.48 -1.45645 -3.15285 0
M  V30 26610 C 2445.44 -2.58592 -3.41049 0
M  V30 26611 C 2444.76 -2.36778 -4.79417 0
M  V30 26612 C 2446.06 -4.00803 -3.34895 0
M  V30 26613 H 2447.76 -2.46588 -1.69807 0
M  V30 26614 H 2445.3 -1.18681 -0.815521 0
M  V30 26615 H 2447.25 -1.50318 -3.93678 0
M  V30 26616 H 2445.98 -0.480781 -3.23042 0
M  V30 26617 H 2444.64 -2.53287 -2.65031 0
M  V30 26618 H 2444.29 -1.37433 -4.83861 0
M  V30 26619 H 2443.99 -3.12496 -4.97614 0
M  V30 26620 H 2445.51 -2.43248 -5.60056 0
M  V30 26621 H 2446.92 -4.07546 -4.03211 0
M  V30 26622 H 2445.32 -4.76619 -3.64628 0
M  V30 26623 H 2446.39 -4.25295 -2.32921 0
M  V30 26624 N 2447.73 0.883355 -1.30517 0
M  V30 26625 C 2448.98 1.6353 -1.19433 0
M  V30 26626 C 2449.31 1.92879 0.250593 0
M  V30 26627 O 2448.56 1.54937 1.19553 0
M  V30 26628 C 2448.86 2.98205 -1.96999 0
M  V30 26629 C 2448.53 2.88402 -3.46605 0
M  V30 26630 C 2447.19 2.85435 -3.87402 0
M  V30 26631 C 2449.54 2.7641 -4.41867 0
M  V30 26632 C 2446.87 2.68318 -5.21749 0
M  V30 26633 C 2449.22 2.60831 -5.76324 0
M  V30 26634 C 2447.89 2.5624 -6.16358 0
M  V30 26635 H 2447.16 0.598398 -0.437036 0
M  V30 26636 H 2449.8 1.02693 -1.61637 0
M  V30 26637 H 2448.11 3.63002 -1.47435 0
M  V30 26638 H 2449.81 3.55351 -1.85814 0
M  V30 26639 H 2446.4 2.91521 -3.14187 0
M  V30 26640 H 2450.58 2.77767 -4.11289 0
M  V30 26641 H 2445.84 2.63179 -5.51857 0
M  V30 26642 H 2450.01 2.50527 -6.49776 0
M  V30 26643 H 2447.64 2.42735 -7.20405 0
M  V30 26644 N 2449.21 1.13259 1.09591 0
M  V30 26645 C 2450.63 0.870447 1.33774 0
M  V30 26646 C 2450.83 -0.494891 1.95328 0
M  V30 26647 O 2449.88 -1.24177 2.19855 0
M  V30 26648 C 2451.2 1.99373 2.25102 0
M  V30 26649 C 2452.74 2.02562 2.38616 0
M  V30 26650 C 2453.22 3.14148 3.33279 0
M  V30 26651 N 2454.71 3.13647 3.40851 0
M  V30 26652 C 2455.45 3.96628 4.14094 0
M  V30 26653 N 2454.94 4.89619 4.90148 0
M  V30 26654 N 2456.73 3.84733 4.09801 0
M  V30 26655 H 2448.89 2.01217 0.680101 0
M  V30 26656 H 2451.15 0.876113 0.362118 0
M  V30 26657 H 2450.85 2.97804 1.87098 0
M  V30 26658 H 2450.73 1.90641 3.25478 0
M  V30 26659 H 2453.12 1.04745 2.75885 0
M  V30 26660 H 2453.2 2.15367 1.38025 0
M  V30 26661 H 2452.84 4.12203 2.96734 0
M  V30 26662 H 2452.77 2.98581 4.3377 0
M  V30 26663 H 2455.26 2.46287 2.8662 0
M  V30 26664 H 2455.57 5.49427 5.43461 0
M  V30 26665 H 2453.92 4.93626 4.89243 0
M  V30 26666 H 2457.11 3.11414 3.49484 0
M  V30 26667 H 2457.28 4.49632 4.66621 0
M  V30 26668 N 2450.69 -1.27539 0.925834 0
M  V30 26669 C 2451.91 -1.99097 0.580959 0
M  V30 26670 C 2452.34 -1.68624 -0.833526 0
M  V30 26671 O 2451.7 -0.925449 -1.55901 0
M  V30 26672 C 2451.75 -3.51356 0.811248 0
M  V30 26673 O 2450.85 -4.12213 -0.124056 0
M  V30 26674 H 2450.19 -0.625118 0.223884 0
M  V30 26675 H 2452.72 -1.62393 1.24458 0
M  V30 26676 H 2452.73 -4.01487 0.726081 0
M  V30 26677 H 2451.41 -3.72869 1.84233 0
M  V30 26678 H 2449.98 -3.72898 0.0108661 0
M  V30 26679 N 2452.17 -0.691135 -1.41637 0
M  V30 26680 C 2453.13 -0.0320188 -2.29178 0
M  V30 26681 C 2454.13 0.71247 -1.44154 0
M  V30 26682 O 2455.32 0.548024 -1.65355 0
M  V30 26683 C 2452.45 0.965104 -3.26953 0
M  V30 26684 H 2453.65 -0.802732 -2.88957 0
M  V30 26685 H 2451.2 -0.454382 -1.4955 0
M  V30 26686 H 2451.93 1.76374 -2.72145 0
M  V30 26687 H 2451.72 0.434454 -3.89686 0
M  V30 26688 H 2453.21 1.42421 -3.92563 0
M  V30 26689 N 2453.65 1.51461 -0.435577 0
M  V30 26690 C 2454.87 2.0649 0.130206 0
M  V30 26691 C 2455.29 1.30318 1.36612 0
M  V30 26692 O 2454.65 0.362255 1.78869 0
M  V30 26693 C 2454.7 3.58635 0.45419 0
M  V30 26694 O 2454.42 4.3193 -0.732666 0
M  V30 26695 C 2455.92 4.30172 1.07084 0
M  V30 26696 H 2453.14 0.670944 0.0087049 0
M  V30 26697 H 2455.68 1.9506 -0.614151 0
M  V30 26698 H 2453.84 3.69986 1.14845 0
M  V30 26699 H 2454.25 5.22515 -0.455879 0
M  V30 26700 H 2455.73 5.37718 1.24754 0
M  V30 26701 H 2456.2 3.8835 2.05137 0
M  V30 26702 H 2456.81 4.2326 0.416015 0
M  V30 26703 N 2455.12 0.166873 1.56714 0
M  V30 26704 C 2456.37 -0.478271 1.96359 0
M  V30 26705 C 2456.69 -1.64078 1.05373 0
M  V30 26706 O 2455.96 -1.95537 0.119189 0
M  V30 26707 H 2454.54 -0.17968 0.725068 0
M  V30 26708 H 2457.21 0.247018 1.93328 0
M  V30 26709 H 2456.3 -0.84124 3.00549 0
M  V30 26710 N 2456.6 -1.57237 -0.106866 0
M  V30 26711 C 2457.51 -2.04532 -1.14907 0
M  V30 26712 C 2458.53 -0.967975 -1.4459 0
M  V30 26713 O 2459.7 -1.28033 -1.55465 0
M  V30 26714 C 2456.77 -2.4504 -2.45267 0
M  V30 26715 C 2455.83 -3.66914 -2.22873 0
M  V30 26716 C 2455.06 -4.05481 -3.47017 0
M  V30 26717 O 2455.29 -3.4426 -4.54798 0
M  V30 26718 O 2454.22 -4.9851 -3.37301 0
M  V30 26719 H 2458.05 -2.93581 -0.777409 0
M  V30 26720 H 2455.63 -1.45965 -0.318538 0
M  V30 26721 H 2457.51 -2.71775 -3.2205 0
M  V30 26722 H 2456.19 -1.59134 -2.81883 0
M  V30 26723 H 2455.1 -3.45313 -1.43909 0
M  V30 26724 H 2456.43 -4.53564 -1.91155 0
M  V30 26725 N 2458.08 0.377381 -1.53015 0
M  V30 26726 C 2459.04 1.44441 -1.77959 0
M  V30 26727 C 2460.04 1.47086 -0.649789 0
M  V30 26728 O 2461.23 1.48053 -0.917923 0
M  V30 26729 C 2458.37 2.83648 -1.89094 0
M  V30 26730 H 2459.56 1.23602 -2.73245 0
M  V30 26731 H 2457.11 0.609819 -1.43913 0
M  V30 26732 H 2457.85 3.09816 -0.958347 0
M  V30 26733 H 2457.63 2.83128 -2.71258 0
M  V30 26734 H 2459.12 3.60942 -2.10026 0
M  V30 26735 N 2459.56 1.44175 0.636506 0
M  V30 26736 C 2460.8 1.47887 1.39646 0
M  V30 26737 C 2461.16 0.10778 1.92098 0
M  V30 26738 O 2460.45 -0.876178 1.70393 0
M  V30 26739 C 2460.65 2.47009 2.58305 0
M  V30 26740 C 2460.48 3.93621 2.17469 0
M  V30 26741 C 2459.25 4.61847 2.05002 0
M  V30 26742 C 2461.44 4.82987 1.76714 0
M  V30 26743 N 2459.43 5.93307 1.57672 0
M  V30 26744 C 2460.8 6.0385 1.4059 0
M  V30 26745 C 2462.85 4.70099 1.64046 0
M  V30 26746 C 2461.55 7.13254 0.930662 0
M  V30 26747 C 2463.58 5.79523 1.17927 0
M  V30 26748 C 2462.94 6.99523 0.827502 0
M  V30 26749 H 2459.04 0.596214 0.506016 0
M  V30 26750 H 2461.63 1.80466 0.730759 0
M  V30 26751 H 2459.8 2.16429 3.22511 0
M  V30 26752 H 2461.53 2.41051 3.25079 0
M  V30 26753 H 2458.28 4.16585 2.25287 0
M  V30 26754 H 2458.71 6.63133 1.36322 0
M  V30 26755 H 2463.35 3.77766 1.89876 0
M  V30 26756 H 2461.07 8.05401 0.659871 0
M  V30 26757 H 2464.65 5.71576 1.08591 0
M  V30 26758 H 2463.53 7.82753 0.476094 0
M  V30 26759 N 2461.04 -0.876421 1.30983 0
M  V30 26760 C 2461.97 -1.98892 1.13906 0
M  V30 26761 C 2462.98 -1.62604 0.0799101 0
M  V30 26762 O 2464.17 -1.75483 0.326773 0
M  V30 26763 C 2461.27 -3.31234 0.716757 0
M  V30 26764 C 2460.44 -3.95905 1.85951 0
M  V30 26765 C 2459.5 -5.06556 1.42434 0
M  V30 26766 O 2458.53 -5.27725 2.13296 0
M  V30 26767 N 2459.73 -5.79682 0.308127 0
M  V30 26768 H 2462.5 -2.1409 2.09727 0
M  V30 26769 H 2460.06 -1.05002 1.23232 0
M  V30 26770 H 2462.05 -4.02633 0.408473 0
M  V30 26771 H 2460.62 -3.12242 -0.149664 0
M  V30 26772 H 2459.84 -3.17569 2.33546 0
M  V30 26773 H 2461.13 -4.35851 2.6251 0
M  V30 26774 H 2460.52 -5.64996 -0.282141 0
M  V30 26775 H 2459.08 -6.51773 0.0593428 0
M  V30 26776 N 2462.51 -1.13839 -1.08989 0
M  V30 26777 C 2463.42 -0.833371 -2.19299 0
M  V30 26778 C 2464.44 0.183816 -1.73026 0
M  V30 26779 O 2465.62 0.0137738 -2.01395 0
M  V30 26780 C 2462.68 -0.308711 -3.45323 0
M  V30 26781 C 2461.74 -1.38771 -4.06253 0
M  V30 26782 C 2460.98 -0.887989 -5.26261 0
M  V30 26783 O 2461.2 0.27277 -5.69747 0
M  V30 26784 O 2460.13 -1.66432 -5.78432 0
M  V30 26785 H 2463.96 -1.7551 -2.47851 0
M  V30 26786 H 2461.54 -0.916186 -1.1801 0
M  V30 26787 H 2463.43 -0.0217479 -4.21394 0
M  V30 26788 H 2462.1 0.585375 -3.18363 0
M  V30 26789 H 2461.01 -1.72805 -3.31797 0
M  V30 26790 H 2462.34 -2.2561 -4.37448 0
M  V30 26791 N 2463.99 1.27046 -0.932584 0
M  V30 26792 C 2465.24 1.93438 -0.571385 0
M  V30 26793 C 2465.55 1.74054 0.892436 0
M  V30 26794 O 2466.76 2.34829 1.36263 0
M  V30 26795 C 2465.22 3.46551 -0.971121 0
M  V30 26796 C 2464.82 3.74682 -2.45596 0
M  V30 26797 C 2466.57 4.18995 -0.681406 0
M  V30 26798 C 2464.48 5.21193 -2.79484 0
M  V30 26799 H 2463.41 0.724172 -0.209978 0
M  V30 26800 H 2466.06 1.44261 -1.13406 0
M  V30 26801 H 2464.44 3.94563 -0.337052 0
M  V30 26802 H 2465.61 3.37408 -3.13835 0
M  V30 26803 H 2463.93 3.15451 -2.71808 0
M  V30 26804 H 2466.52 5.26882 -0.911032 0
M  V30 26805 H 2466.87 4.14548 0.381555 0
M  V30 26806 H 2467.4 3.76821 -1.2748 0
M  V30 26807 H 2464.14 5.30735 -3.84709 0
M  V30 26808 H 2463.66 5.59596 -2.159 0
M  V30 26809 H 2465.34 5.89117 -2.67489 0
M  V30 26810 N 2465.47 0.698636 1.41269 0
M  V30 26811 C 2466.4 -0.0153496 2.28195 0
M  V30 26812 C 2467.38 -0.784858 1.42403 0
M  V30 26813 O 2468.57 -0.775037 1.7183 0
M  V30 26814 C 2465.69 -1.02912 3.22687 0
M  V30 26815 C 2464.74 -0.352426 4.25041 0
M  V30 26816 S 2465.57 0.907415 5.27756 0
M  V30 26817 C 2466.73 -0.104686 6.25812 0
M  V30 26818 H 2466.96 0.721909 2.88402 0
M  V30 26819 H 2464.49 0.489022 1.46451 0
M  V30 26820 H 2466.45 -1.60886 3.77658 0
M  V30 26821 H 2465.11 -1.73898 2.61569 0
M  V30 26822 H 2464.31 -1.1182 4.91439 0
M  V30 26823 H 2463.91 0.154319 3.73681 0
M  V30 26824 H 2466.2 -0.956985 6.70707 0
M  V30 26825 H 2467.14 0.525448 7.06148 0
M  V30 26826 H 2467.55 -0.460832 5.62616 0
M  V30 26827 N 2466.95 -1.51228 0.443603 0
M  V30 26828 C 2467.88 -2.30784 -0.355102 0
M  V30 26829 C 2468.86 -1.3647 -1.01538 0
M  V30 26830 O 2470.04 -1.65391 -1.01782 0
M  V30 26831 C 2467.17 -3.15442 -1.45306 0
M  V30 26832 C 2466.13 -4.18085 -0.915929 0
M  V30 26833 C 2465.45 -4.91303 -2.11011 0
M  V30 26834 C 2466.75 -5.22272 0.053952 0
M  V30 26835 H 2468.45 -2.97803 0.308819 0
M  V30 26836 H 2465.99 -1.43217 0.149963 0
M  V30 26837 H 2467.95 -3.6988 -2.01908 0
M  V30 26838 H 2466.67 -2.46255 -2.14536 0
M  V30 26839 H 2465.33 -3.64707 -0.372081 0
M  V30 26840 H 2464.98 -4.18614 -2.78875 0
M  V30 26841 H 2464.68 -5.60715 -1.75707 0
M  V30 26842 H 2466.2 -5.48567 -2.68155 0
M  V30 26843 H 2467.62 -5.71745 -0.421969 0
M  V30 26844 H 2466.01 -5.99247 0.319881 0
M  V30 26845 H 2467.08 -4.74714 0.988663 0
M  V30 26846 N 2468.43 -0.175182 -1.56623 0
M  V30 26847 C 2469.65 0.478102 -2.01814 0
M  V30 26848 C 2470.08 1.55755 -1.0546 0
M  V30 26849 O 2469.43 1.81267 -0.0347758 0
M  V30 26850 C 2469.48 1.02981 -3.45583 0
M  V30 26851 O 2468.59 2.14364 -3.52309 0
M  V30 26852 H 2467.93 0.114047 -0.654132 0
M  V30 26853 H 2470.46 -0.280209 -2.02672 0
M  V30 26854 H 2470.47 1.35145 -3.84967 0
M  V30 26855 H 2469.14 0.239483 -4.1521 0
M  V30 26856 H 2467.72 1.83216 -3.24786 0
M  V30 26857 N 2469.91 1.57292 0.0985263 0
M  V30 26858 C 2471.15 1.87739 0.808299 0
M  V30 26859 C 2471.51 0.76575 1.76069 0
M  V30 26860 O 2472.71 0.952543 2.51356 0
M  V30 26861 C 2470.98 3.23426 1.52088 0
M  V30 26862 S 2472.54 3.75558 2.2694 0
M  V30 26863 H 2469.36 0.658 0.269365 0
M  V30 26864 H 2471.96 1.9539 0.0655925 0
M  V30 26865 H 2470.66 4.02255 0.813559 0
M  V30 26866 H 2470.2 3.18905 2.30355 0
M  V30 26867 H 2472.21 3.48699 3.53021 0
M  V30 26868 N 2471.38 -0.369261 1.53213 0
M  V30 26869 C 2472.31 -1.45823 1.82368 0
M  V30 26870 C 2473.29 -1.5605 0.676935 0
M  V30 26871 O 2474.48 -1.70678 0.926431 0
M  V30 26872 C 2471.61 -2.83205 2.01028 0
M  V30 26873 C 2470.56 -2.87805 3.16785 0
M  V30 26874 C 2469.89 -4.27826 3.20732 0
M  V30 26875 C 2471.19 -2.55659 4.55451 0
M  V30 26876 H 2472.88 -1.21674 2.73562 0
M  V30 26877 H 2470.43 -0.583888 1.31631 0
M  V30 26878 H 2472.38 -3.59409 2.20007 0
M  V30 26879 H 2471.11 -3.08734 1.06541 0
M  V30 26880 H 2469.77 -2.14051 2.9762 0
M  V30 26881 H 2469.41 -4.50425 2.23889 0
M  V30 26882 H 2469.11 -4.3182 3.98504 0
M  V30 26883 H 2470.64 -5.05909 3.4189 0
M  V30 26884 H 2472.05 -3.21578 4.74616 0
M  V30 26885 H 2470.45 -2.70975 5.35437 0
M  V30 26886 H 2471.52 -1.50922 4.60815 0
M  V30 26887 N 2472.86 -1.4451 -0.628851 0
M  V30 26888 C 2474.11 -1.47122 -1.38562 0
M  V30 26889 C 2474.43 -0.105933 -1.94712 0
M  V30 26890 O 2473.7 0.862048 -1.75913 0
M  V30 26891 H 2472.28 -0.541738 -0.514324 0
M  V30 26892 H 2474.94 -1.80306 -0.739986 0
M  V30 26893 H 2474.04 -2.19793 -2.21579 0
M  V30 26894 N 2474.34 0.869463 -1.31446 0
M  V30 26895 C 2475.25 2.00927 -1.211 0
M  V30 26896 C 2476.27 1.73531 -0.127615 0
M  V30 26897 O 2477.44 1.98414 -0.345512 0
M  V30 26898 C 2474.51 3.34286 -0.919437 0
M  V30 26899 C 2473.57 3.75002 -2.08978 0
M  V30 26900 C 2472.8 5.01997 -1.81202 0
M  V30 26901 O 2473.02 5.65482 -0.747395 0
M  V30 26902 O 2471.96 5.39492 -2.66893 0
M  V30 26903 H 2475.78 2.12588 -2.16887 0
M  V30 26904 H 2473.37 0.997848 -1.11191 0
M  V30 26905 H 2475.25 4.14255 -0.772698 0
M  V30 26906 H 2473.93 3.23699 0.00839082 0
M  V30 26907 H 2472.83 2.95672 -2.29192 0
M  V30 26908 H 2474.17 3.90216 -2.99987 0
M  V30 26909 N 2475.82 1.14415 1.08383 0
M  V30 26910 C 2476.76 0.831303 2.15309 0
M  V30 26911 C 2477.73 -0.211263 1.64751 0
M  V30 26912 O 2478.92 -0.0811339 1.90627 0
M  V30 26913 C 2476.06 0.315203 3.43658 0
M  V30 26914 C 2475.17 1.4181 4.08061 0
M  V30 26915 C 2474.31 0.859218 5.24205 0
M  V30 26916 C 2473.35 1.93977 5.80551 0
M  V30 26917 N 2472.48 1.39805 6.8804 0
M  V30 26918 H 2477.32 1.74713 2.41411 0
M  V30 26919 H 2474.86 0.871929 1.18473 0
M  V30 26920 H 2476.82 -0.0022355 4.172 0
M  V30 26921 H 2475.45 -0.563724 3.1784 0
M  V30 26922 H 2474.5 1.85193 3.32277 0
M  V30 26923 H 2475.81 2.23434 4.45958 0
M  V30 26924 H 2474.97 0.493697 6.04688 0
M  V30 26925 H 2473.71 0.0120177 4.87699 0
M  V30 26926 H 2472.71 2.31424 4.98721 0
M  V30 26927 H 2473.94 2.79057 6.19116 0
M  V30 26928 H 2471.88 0.573034 6.53492 0
M  V30 26929 H 2471.8 2.15067 7.24764 0
M  V30 26930 H 2473.07 1.06044 7.72253 0
M  V30 26931 N 2477.3 -1.26549 0.939309 0
M  V30 26932 C 2478.54 -1.93456 0.584724 0
M  V30 26933 C 2478.86 -1.74078 -0.878743 0
M  V30 26934 O 2478.13 -1.0953 -1.62419 0
M  V30 26935 H 2476.71 -0.715911 0.213263 0
M  V30 26936 H 2479.38 -1.54027 1.19423 0
M  V30 26937 H 2478.47 -3.01649 0.800902 0
M  V30 26938 N 2478.77 -0.706118 -1.40896 0
M  V30 26939 C 2480.01 -0.245862 -2.02916 0
M  V30 26940 C 2480.38 1.13646 -1.54753 0
M  V30 26941 O 2481.58 1.69317 -2.08771 0
M  V30 26942 C 2479.85 -0.3126 -3.5603 0
M  V30 26943 S 2481.41 0.0720617 -4.38741 0
M  V30 26944 H 2478.23 -0.0982131 -0.704184 0
M  V30 26945 H 2480.83 -0.926238 -1.72166 0
M  V30 26946 H 2479.53 -1.32046 -3.88577 0
M  V30 26947 H 2479.06 0.386572 -3.91496 0
M  V30 26948 H 2481.08 1.29683 -4.78954 0
M  V30 26949 N 2480.25 1.50991 -0.451617 0
M  V30 26950 C 2481.16 2.31846 0.35839 0
M  V30 26951 C 2482.18 1.41375 1.01435 0
M  V30 26952 O 2483.35 1.74441 1.0066 0
M  V30 26953 C 2480.42 3.15518 1.43699 0
M  V30 26954 C 2479.48 4.21786 0.799668 0
M  V30 26955 C 2478.71 5.01459 1.82687 0
M  V30 26956 O 2478.94 4.81947 3.05096 0
M  V30 26957 O 2477.87 5.85164 1.40948 0
M  V30 26958 H 2481.7 3.02194 -0.302085 0
M  V30 26959 H 2479.28 1.47862 -0.213851 0
M  V30 26960 H 2481.16 3.67493 2.0622 0
M  V30 26961 H 2479.84 2.4792 2.08129 0
M  V30 26962 H 2478.74 3.73853 0.136018 0
M  V30 26963 H 2480.08 4.91799 0.198632 0
M  V30 26964 N 2481.73 0.183486 1.56528 0
M  V30 26965 C 2483.14 -0.331144 1.8374 0
M  V30 26966 C 2483.49 -1.62209 1.10375 0
M  V30 26967 O 2482.62 -2.13372 0.360747 0
M  V30 26968 C 2483.21 -0.607587 3.33307 0
M  V30 26969 C 2481.77 -1.06662 3.60971 0
M  V30 26970 C 2480.92 -0.10898 2.77086 0
M  V30 26971 H 2483.87 0.407511 1.53379 0
M  V30 26972 H 2483.89 -1.45826 3.51447 0
M  V30 26973 H 2483.4 0.332154 3.86676 0
M  V30 26974 H 2481.5 -2.02104 3.13025 0
M  V30 26975 H 2481.62 -0.967364 4.69232 0
M  V30 26976 H 2479.98 -0.60867 2.4732 0
M  V30 26977 H 2480.76 0.824998 3.3324 0
M  V30 26978 N 2483.21 -1.57342 -0.0901833 0
M  V30 26979 C 2484.48 -1.77363 -0.82473 0
M  V30 26980 C 2484.86 -0.766404 -1.96696 0
M  V30 26981 O 2484.21 0.204139 -2.27586 0
M  V30 26982 C 2484.42 -3.23288 -1.31476 0
M  V30 26983 C 2485.77 -3.86607 -1.75556 0
M  V30 26984 O 2486.79 -3.27067 -1.41087 0
M  V30 26985 O 2485.65 -4.91318 -2.39309 0
M  V30 26986 H 2482.75 -0.727241 -0.393764 0
M  V30 26987 H 2485.29 -1.69549 -0.071684 0
M  V30 26988 H 2484.07 -3.88136 -0.496603 0
M  V30 26989 H 2483.69 -3.35754 -2.12967 0
M  V30 26990 N 2484.69 0.36113 -1.53407 0
M  V30 26991 C 2485.91 1.1238 -1.73719 0
M  V30 26992 C 2486.33 1.82903 -0.468193 0
M  V30 26993 O 2485.69 1.73723 0.559167 0
M  V30 26994 C 2485.74 2.15073 -2.90561 0
M  V30 26995 O 2485.46 1.47421 -4.12551 0
M  V30 26996 C 2486.96 3.03852 -3.22783 0
M  V30 26997 H 2484.18 0.335848 -0.580902 0
M  V30 26998 H 2486.72 0.418693 -2.00168 0
M  V30 26999 H 2484.88 2.81175 -2.66494 0
M  V30 27000 H 2485.29 2.15879 -4.78013 0
M  V30 27001 H 2486.77 3.7188 -4.07933 0
M  V30 27002 H 2487.24 3.68908 -2.38335 0
M  V30 27003 H 2487.85 2.43361 -3.48792 0
M  V30 27004 N 2486.16 1.44842 0.621179 0
M  V30 27005 C 2487.39 1.51648 1.40749 0
M  V30 27006 C 2487.81 0.144583 1.88246 0
M  V30 27007 O 2487.16 -0.851388 1.61424 0
M  V30 27008 C 2487.22 2.48955 2.62114 0
M  V30 27009 O 2486.94 3.80812 2.16596 0
M  V30 27010 C 2488.44 2.65325 3.5513 0
M  V30 27011 H 2485.66 0.514012 0.431316 0
M  V30 27012 H 2488.2 1.89901 0.758801 0
M  V30 27013 H 2486.36 2.13811 3.23054 0
M  V30 27014 H 2486.77 4.33438 2.9535 0
M  V30 27015 H 2488.24 3.37417 4.36868 0
M  V30 27016 H 2488.72 1.70893 4.04589 0
M  V30 27017 H 2489.33 3.0141 3.00053 0
M  V30 27018 N 2487.64 -0.862479 1.31905 0
M  V30 27019 C 2488.61 -1.95193 1.20134 0
M  V30 27020 C 2489.61 -1.60302 0.126437 0
M  V30 27021 O 2490.8 -1.70088 0.376264 0
M  V30 27022 C 2487.93 -3.30242 0.845749 0
M  V30 27023 H 2489.12 -2.0706 2.16947 0
M  V30 27024 H 2486.67 -1.0517 1.15624 0
M  V30 27025 H 2487.41 -3.24075 -0.1209 0
M  V30 27026 H 2487.19 -3.56941 1.62282 0
M  V30 27027 H 2488.68 -4.10108 0.78749 0
M  V30 27028 N 2489.12 -1.14988 -1.07775 0
M  V30 27029 C 2490.53 -0.932156 -1.61764 0
M  V30 27030 C 2490.88 0.527547 -1.88975 0
M  V30 27031 O 2490.01 1.39778 -1.652 0
M  V30 27032 C 2490.6 -1.68569 -2.93888 0
M  V30 27033 C 2489.16 -1.51336 -3.44637 0
M  V30 27034 C 2488.31 -1.70404 -2.18764 0
M  V30 27035 H 2491.26 -1.30076 -0.909178 0
M  V30 27036 H 2491.28 -1.15266 -3.62621 0
M  V30 27037 H 2490.79 -2.74804 -2.74052 0
M  V30 27038 H 2488.89 -0.474767 -3.69563 0
M  V30 27039 H 2489.01 -2.28754 -4.20962 0
M  V30 27040 H 2487.37 -1.13021 -2.28251 0
M  V30 27041 H 2488.15 -2.77996 -2.01428 0
M  V30 27042 N 2490.6 1.26049 -0.946007 0
M  V30 27043 C 2491.82 1.98148 -0.61256 0
M  V30 27044 C 2492.25 1.69928 0.806594 0
M  V30 27045 O 2491.61 0.950135 1.54409 0
M  V30 27046 C 2491.65 3.50021 -0.867043 0
M  V30 27047 O 2490.76 4.12359 0.0584609 0
M  V30 27048 H 2490.1 0.621477 -0.233801 0
M  V30 27049 H 2492.63 1.60392 -1.27025 0
M  V30 27050 H 2492.64 4.00281 -0.789862 0
M  V30 27051 H 2491.31 3.6989 -1.90142 0
M  V30 27052 H 2489.89 3.72834 -0.0701897 0
M  V30 27053 N 2492.08 0.71358 1.4052 0
M  V30 27054 C 2493.32 0.251727 2.00526 0
M  V30 27055 C 2493.65 -1.15845 1.56859 0
M  V30 27056 O 2492.92 -1.78499 0.807159 0
M  V30 27057 H 2491.5 0.0900777 0.741549 0
M  V30 27058 H 2494.16 0.918763 1.71886 0
M  V30 27059 H 2493.25 0.283246 3.10812 0
M  V30 27060 N 2493.55 -1.50749 0.459618 0
M  V30 27061 C 2494.49 -2.26085 -0.37661 0
M  V30 27062 C 2495.5 -1.30963 -0.967086 0
M  V30 27063 O 2496.69 -1.56557 -0.85744 0
M  V30 27064 C 2493.79 -3.01835 -1.54106 0
M  V30 27065 C 2492.96 -4.24225 -1.06545 0
M  V30 27066 C 2492.02 -4.82366 -2.10261 0
M  V30 27067 O 2491.05 -5.43598 -1.68788 0
M  V30 27068 N 2492.25 -4.68353 -3.42966 0
M  V30 27069 H 2495.01 -2.98489 0.269176 0
M  V30 27070 H 2492.57 -1.59286 0.289748 0
M  V30 27071 H 2494.57 -3.37612 -2.23159 0
M  V30 27072 H 2493.14 -2.32302 -2.09176 0
M  V30 27073 H 2492.36 -3.93686 -0.201205 0
M  V30 27074 H 2493.64 -5.03602 -0.725427 0
M  V30 27075 H 2493.04 -4.1963 -3.79378 0
M  V30 27076 H 2491.6 -5.08431 -4.07849 0
M  V30 27077 N 2495.03 -0.191784 -1.56429 0
M  V30 27078 C 2495.98 0.747135 -2.20274 0
M  V30 27079 C 2496.97 1.22227 -1.1729 0
M  V30 27080 O 2498.18 1.18555 -1.35443 0
M  V30 27081 H 2494.56 0.259277 -0.705889 0
M  V30 27082 H 2496.53 0.184911 -2.97827 0
M  V30 27083 C 2495.28 1.95754 -2.8736 0
M  V30 27084 H 2494.6 1.601 -3.66344 0
M  V30 27085 H 2496.04 2.59294 -3.35474 0
M  V30 27086 C 2494.5 2.7942 -1.88218 0
M  V30 27087 O 2495.03 3.77237 -1.3804 0
M  V30 27088 N 2493.23 2.44846 -1.56521 0
M  V30 27089 H 2492.78 1.6536 -1.97519 0
M  V30 27090 H 2492.74 3.01111 -0.904422 0
M  V30 27091 N 2496.51 1.57387 0.0818378 0
M  V30 27092 C 2497.42 2.06335 1.11639 0
M  V30 27093 C 2498.44 0.990856 1.43032 0
M  V30 27094 O 2499.61 1.3049 1.53409 0
M  V30 27095 C 2496.68 2.48911 2.41338 0
M  V30 27096 C 2495.74 3.70414 2.17007 0
M  V30 27097 C 2494.97 4.1095 3.40522 0
M  V30 27098 O 2495.19 3.51452 4.49263 0
M  V30 27099 O 2494.13 5.03813 3.29327 0
M  V30 27100 H 2497.95 2.94781 0.730605 0
M  V30 27101 H 2495.54 1.46453 0.295276 0
M  V30 27102 H 2497.42 2.76864 3.17686 0
M  V30 27103 H 2496.1 1.63598 2.79316 0
M  V30 27104 H 2495 3.47559 1.38397 0
M  V30 27105 H 2496.34 4.56548 1.83915 0
M  V30 27106 N 2497.99 -0.35299 1.53596 0
M  V30 27107 C 2498.94 -1.45332 1.81608 0
M  V30 27108 C 2499.93 -1.54891 0.685951 0
M  V30 27109 O 2501.14 -1.57627 0.869123 0
M  V30 27110 H 2497.51 -0.484391 0.575212 0
M  V30 27111 H 2499.48 -1.18916 2.73681 0
M  V30 27112 C 2498.23 -2.81992 2.03411 0
M  V30 27113 H 2497.55 -2.754 2.89818 0
M  V30 27114 H 2498.99 -3.58128 2.26981 0
M  V30 27115 C 2497.45 -3.26847 0.816851 0
M  V30 27116 O 2497.98 -4.01698 0.0116562 0
M  V30 27117 N 2496.19 -2.83538 0.636732 0
M  V30 27118 H 2495.74 -2.22791 1.29313 0
M  V30 27119 H 2495.69 -3.13905 -0.17628 0
M  V30 27120 N 2499.47 -1.45169 -0.613489 0
M  V30 27121 C 2500.38 -1.55915 -1.75293 0
M  V30 27122 C 2501.39 -0.443886 -1.68243 0
M  V30 27123 O 2502.57 -0.703743 -1.88705 0
M  V30 27124 C 2499.63 -1.51725 -3.11738 0
M  V30 27125 C 2498.7 -2.74244 -3.30286 0
M  V30 27126 C 2497.93 -2.70244 -4.60221 0
M  V30 27127 O 2498.15 -1.77239 -5.42165 0
M  V30 27128 O 2497.09 -3.6136 -4.81355 0
M  V30 27129 H 2500.91 -2.52215 -1.69178 0
M  V30 27130 H 2498.5 -1.27613 -0.776864 0
M  V30 27131 H 2500.38 -1.51975 -3.93041 0
M  V30 27132 H 2499.05 -0.585753 -3.18356 0
M  V30 27133 H 2497.96 -2.79557 -2.48593 0
M  V30 27134 H 2499.29 -3.665 -3.28541 0
M  V30 27135 N 2500.95 0.855472 -1.32361 0
M  V30 27136 C 2502.36 1.14355 -1.11334 0
M  V30 27137 C 2502.56 2.01217 0.106716 0
M  V30 27138 O 2501.62 2.39762 0.791849 0
M  V30 27139 C 2502.93 1.82167 -2.3924 0
M  V30 27140 C 2504.48 1.94805 -2.44989 0
M  V30 27141 C 2504.95 2.66033 -3.72814 0
M  V30 27142 N 2506.44 2.73558 -3.73791 0
M  V30 27143 C 2507.18 3.29319 -4.694 0
M  V30 27144 N 2506.68 3.85897 -5.75374 0
M  V30 27145 N 2508.47 3.27415 -4.56898 0
M  V30 27146 H 2500.62 0.27699 -2.10586 0
M  V30 27147 H 2502.88 0.185348 -0.929704 0
M  V30 27148 H 2502.59 1.25796 -3.28433 0
M  V30 27149 H 2502.46 2.8233 -2.50139 0
M  V30 27150 H 2504.85 2.50336 -1.56256 0
M  V30 27151 H 2504.93 0.936406 -2.38044 0
M  V30 27152 H 2504.57 2.11166 -4.61921 0
M  V30 27153 H 2504.5 3.67635 -3.7703 0
M  V30 27154 H 2507 2.33419 -2.97193 0
M  V30 27155 H 2507.31 4.26599 -6.44386 0
M  V30 27156 H 2505.65 3.84232 -5.7913 0
M  V30 27157 H 2508.84 2.82461 -3.73274 0
M  V30 27158 H 2509.02 3.70571 -5.31584 0
M  V30 27159 N 2502.42 1.15558 1.07164 0
M  V30 27160 C 2503.66 0.942191 1.81389 0
M  V30 27161 C 2504.03 -0.521239 1.84789 0
M  V30 27162 O 2505.23 -0.853026 2.54906 0
M  V30 27163 C 2503.5 1.54191 3.22428 0
M  V30 27164 S 2505.06 1.4719 4.13377 0
M  V30 27165 H 2501.88 0.339042 0.624957 0
M  V30 27166 H 2504.48 1.47142 1.28722 0
M  V30 27167 H 2503.18 2.59989 3.17543 0
M  V30 27168 H 2502.71 1.01162 3.80171 0
M  V30 27169 H 2504.73 0.466091 4.94006 0
M  V30 27170 N 2503.9 -1.25546 0.952678 0
M  V30 27171 C 2505.15 -1.92825 0.605209 0
M  V30 27172 C 2505.47 -1.75 -0.860231 0
M  V30 27173 O 2504.74 -1.11247 -1.61248 0
M  V30 27174 H 2503.32 -0.713608 0.220844 0
M  V30 27175 H 2505.98 -1.52751 1.2105 0
M  V30 27176 H 2505.08 -3.00782 0.832851 0
M  V30 27177 N 2505.38 -0.721022 -1.40139 0
M  V30 27178 C 2506.61 -0.272692 -2.05095 0
M  V30 27179 C 2507.02 1.08747 -1.54336 0
M  V30 27180 O 2506.38 1.68448 -0.702241 0
M  V30 27181 C 2506.43 -0.249898 -3.60635 0
M  V30 27182 O 2506.15 -1.55636 -4.09523 0
M  V30 27183 C 2507.65 0.216318 -4.42772 0
M  V30 27184 H 2504.87 -0.12157 -0.659895 0
M  V30 27185 H 2507.42 -0.980754 -1.79448 0
M  V30 27186 H 2505.57 0.409169 -3.85233 0
M  V30 27187 H 2505.99 -1.46049 -5.03756 0
M  V30 27188 H 2507.46 0.181115 -5.51703 0
M  V30 27189 H 2507.94 1.25934 -4.20758 0
M  V30 27190 H 2508.54 -0.412671 -4.23293 0
M  V30 27191 N 2506.86 1.50503 -0.467606 0
M  V30 27192 C 2508.13 1.95024 0.149996 0
M  V30 27193 C 2508.51 1.40782 1.57301 0
M  V30 27194 O 2507.86 0.607358 2.2028 0
M  V30 27195 C 2508.07 3.48866 0.0968711 0
M  V30 27196 C 2509.42 4.23626 0.28749 0
M  V30 27197 O 2510.44 3.55777 0.173615 0
M  V30 27198 O 2509.3 5.44048 0.51709 0
M  V30 27199 H 2506.4 0.819165 0.113568 0
M  V30 27200 H 2508.94 1.61285 -0.527758 0
M  V30 27201 H 2507.72 3.80885 -0.896798 0
M  V30 27202 H 2507.34 3.89132 0.816234 0
M  V30 27203 N 2508.34 0.200077 1.56325 0
M  V30 27204 C 2509.27 -0.713877 2.2232 0
M  V30 27205 C 2510.25 -1.2175 1.1879 0
M  V30 27206 O 2511.43 -1.26543 1.47311 0
M  V30 27207 C 2508.56 -1.93139 2.88643 0
M  V30 27208 C 2507.52 -1.56248 3.9846 0
M  V30 27209 C 2506.84 -2.85701 4.51972 0
M  V30 27210 C 2508.14 -0.768656 5.16613 0
M  V30 27211 H 2509.84 -0.163702 2.98952 0
M  V30 27212 H 2507.38 -0.0772966 1.43792 0
M  V30 27213 H 2509.33 -2.57602 3.33495 0
M  V30 27214 H 2508.06 -2.50618 2.09424 0
M  V30 27215 H 2506.72 -0.941409 3.54306 0
M  V30 27216 H 2506.37 -3.4128 3.69509 0
M  V30 27217 H 2506.07 -2.61761 5.26075 0
M  V30 27218 H 2507.59 -3.51145 4.99529 0
M  V30 27219 H 2509 -1.3165 5.57979 0
M  V30 27220 H 2507.4 -0.627181 5.96814 0
M  V30 27221 H 2508.47 0.229253 4.84358 0
M  V30 27222 N 2509.81 -1.57429 -0.0734901 0
M  V30 27223 C 2510.78 -2.02591 -1.07189 0
M  V30 27224 C 2511.78 -0.922684 -1.31694 0
M  V30 27225 O 2512.97 -1.1876 -1.27443 0
M  V30 27226 C 2510.1 -2.4051 -2.41594 0
M  V30 27227 H 2511.29 -2.92027 -0.682676 0
M  V30 27228 H 2508.84 -1.53007 -0.319167 0
M  V30 27229 H 2509.58 -1.54095 -2.85351 0
M  V30 27230 H 2509.36 -3.21013 -2.25151 0
M  V30 27231 H 2510.85 -2.76033 -3.13362 0
M  V30 27232 N 2511.29 0.344839 -1.53781 0
M  V30 27233 C 2512.52 1.10371 -1.74648 0
M  V30 27234 C 2512.93 1.8288 -0.484943 0
M  V30 27235 O 2512.27 1.75178 0.553031 0
M  V30 27236 C 2512.33 2.16301 -2.87149 0
M  V30 27237 C 2512 1.63378 -4.26798 0
M  V30 27238 C 2513 1.08679 -5.08414 0
M  V30 27239 C 2510.68 1.68264 -4.73279 0
M  V30 27240 C 2512.67 0.595681 -6.3461 0
M  V30 27241 C 2510.36 1.18765 -5.99448 0
M  V30 27242 C 2511.36 0.645096 -6.79947 0
M  V30 27243 O 2511.05 0.157485 -8.03746 0
M  V30 27244 H 2510.78 0.335064 -0.587118 0
M  V30 27245 H 2513.33 0.403217 -2.01403 0
M  V30 27246 H 2511.56 2.89905 -2.55915 0
M  V30 27247 H 2513.25 2.77742 -2.95997 0
M  V30 27248 H 2514.02 1.04227 -4.73668 0
M  V30 27249 H 2509.9 2.09434 -4.1068 0
M  V30 27250 H 2513.44 0.171532 -6.97389 0
M  V30 27251 H 2509.34 1.22917 -6.33689 0
M  V30 27252 H 2510.11 0.274893 -8.18038 0
M  V30 27253 N 2512.77 1.45492 0.605781 0
M  V30 27254 C 2514.02 1.49825 1.36676 0
M  V30 27255 C 2514.35 0.140209 1.93693 0
M  V30 27256 O 2513.62 -0.84555 1.75159 0
M  V30 27257 C 2513.91 2.57883 2.51333 0
M  V30 27258 C 2513.76 4.03137 1.995 0
M  V30 27259 C 2515.08 2.62212 3.53459 0
M  V30 27260 H 2512.2 0.545475 0.495607 0
M  V30 27261 H 2514.84 1.77311 0.682701 0
M  V30 27262 H 2512.99 2.34577 3.09687 0
M  V30 27263 H 2514.66 4.37659 1.45782 0
M  V30 27264 H 2512.9 4.13709 1.30489 0
M  V30 27265 H 2513.58 4.74436 2.82161 0
M  V30 27266 H 2516.05 2.831 3.04948 0
M  V30 27267 H 2514.93 3.3968 4.31172 0
M  V30 27268 H 2515.19 1.6737 4.09194 0
M  V30 27269 N 2514.25 -0.848441 1.32813 0
M  V30 27270 C 2515.48 -1.63299 1.26559 0
M  V30 27271 C 2515.89 -1.88457 -0.167567 0
M  V30 27272 O 2515.23 -1.4583 -1.1171 0
M  V30 27273 C 2515.29 -3.01236 1.96207 0
M  V30 27274 C 2514.96 -2.99092 3.45533 0
M  V30 27275 C 2515.95 -2.75493 4.40908 0
M  V30 27276 C 2513.64 -3.19531 3.87564 0
M  V30 27277 C 2515.63 -2.72346 5.76287 0
M  V30 27278 C 2513.32 -3.1601 5.2305 0
M  V30 27279 C 2514.32 -2.92447 6.17222 0
M  V30 27280 O 2514 -2.88812 7.50229 0
M  V30 27281 H 2513.74 -0.515148 0.437719 0
M  V30 27282 H 2516.29 -1.06567 1.75592 0
M  V30 27283 H 2514.52 -3.59782 1.41752 0
M  V30 27284 H 2516.21 -3.62013 1.8358 0
M  V30 27285 H 2516.98 -2.59463 4.09761 0
M  V30 27286 H 2512.85 -3.36894 3.1468 0
M  V30 27287 H 2516.4 -2.53874 6.49764 0
M  V30 27288 H 2512.3 -3.31586 5.53824 0
M  V30 27289 H 2513.06 -3.04722 7.59662 0
M  V30 27290 N 2515.73 -1.16125 -1.06549 0
M  V30 27291 C 2516.97 -0.941158 -1.793 0
M  V30 27292 C 2517.3 0.531202 -1.87106 0
M  V30 27293 O 2516.56 1.41016 -1.35695 0
M  V30 27294 C 2516.86 -1.51057 -3.23908 0
M  V30 27295 C 2516.52 -3.00481 -3.36187 0
M  V30 27296 C 2515.18 -3.41271 -3.39246 0
M  V30 27297 C 2517.54 -3.96471 -3.38319 0
M  V30 27298 C 2514.86 -4.76675 -3.42049 0
M  V30 27299 C 2517.22 -5.31758 -3.4266 0
M  V30 27300 C 2515.88 -5.72032 -3.44 0
M  V30 27301 H 2515.15 -0.344394 -0.656105 0
M  V30 27302 H 2517.8 -1.44798 -1.25322 0
M  V30 27303 H 2516.1 -0.925129 -3.80721 0
M  V30 27304 H 2517.8 -1.31599 -3.78791 0
M  V30 27305 H 2514.39 -2.67956 -3.34511 0
M  V30 27306 H 2518.57 -3.66026 -3.3517 0
M  V30 27307 H 2513.83 -5.07212 -3.41389 0
M  V30 27308 H 2518 -6.05927 -3.43257 0
M  V30 27309 H 2515.63 -6.76934 -3.45925 0
M  V30 27310 N 2517.2 1.25039 -0.959323 0
M  V30 27311 C 2518.45 1.93168 -0.617559 0
M  V30 27312 C 2518.78 1.74903 0.843951 0
M  V30 27313 O 2518.06 1.09699 1.60613 0
M  V30 27314 C 2518.34 3.46429 -0.982796 0
M  V30 27315 C 2518.19 3.739 -2.50038 0
M  V30 27316 C 2519.51 4.3712 -0.511253 0
M  V30 27317 H 2516.63 0.701548 -0.225832 0
M  V30 27318 H 2519.27 1.47568 -1.19682 0
M  V30 27319 H 2517.42 3.85399 -0.489874 0
M  V30 27320 H 2519.1 3.44538 -3.06743 0
M  V30 27321 H 2517.34 3.19342 -2.93603 0
M  V30 27322 H 2518.01 4.81099 -2.70644 0
M  V30 27323 H 2520.49 4.05479 -0.934146 0
M  V30 27324 H 2519.36 5.43106 -0.795456 0
M  V30 27325 H 2519.62 4.38162 0.588757 0
M  V30 27326 N 2518.68 0.728444 1.39755 0
M  V30 27327 C 2519.91 0.282195 2.05471 0
M  V30 27328 C 2520.33 -1.07218 1.54551 0
M  V30 27329 O 2519.69 -1.67804 0.686401 0
M  V30 27330 C 2519.74 0.286327 3.59461 0
M  V30 27331 O 2518.84 -0.728227 4.05919 0
M  V30 27332 H 2518.18 0.129629 0.651224 0
M  V30 27333 H 2520.71 0.992531 1.78913 0
M  V30 27334 H 2520.72 0.128444 4.07798 0
M  V30 27335 H 2519.4 1.27463 3.95886 0
M  V30 27336 H 2517.98 -0.537017 3.69013 0
M  V30 27337 N 2520.16 -1.50253 0.475581 0
M  V30 27338 C 2521.41 -2.0235 -0.0778563 0
M  V30 27339 C 2521.74 -1.35725 -1.39317 0
M  V30 27340 O 2520.99 -0.473428 -1.89887 0
M  V30 27341 C 2521.29 -3.56096 -0.305052 0
M  V30 27342 C 2520.96 -4.41224 0.929107 0
M  V30 27343 C 2519.62 -4.64207 1.26747 0
M  V30 27344 C 2521.97 -4.9092 1.75062 0
M  V30 27345 C 2519.3 -5.34133 2.42733 0
M  V30 27346 C 2521.65 -5.6212 2.9018 0
M  V30 27347 C 2520.31 -5.83356 3.24426 0
M  V30 27348 H 2519.58 -0.740452 -0.0284897 0
M  V30 27349 H 2522.23 -1.8082 0.630575 0
M  V30 27350 H 2520.54 -3.76165 -1.09577 0
M  V30 27351 H 2522.23 -3.93975 -0.747308 0
M  V30 27352 H 2518.82 -4.23558 0.655502 0
M  V30 27353 H 2523.01 -4.73014 1.50239 0
M  V30 27354 H 2518.26 -5.48782 2.69534 0
M  V30 27355 H 2522.44 -5.99608 3.5418 0
M  V30 27356 H 2520.06 -6.37315 4.14407 0
M  V30 27357 N 2521.64 -0.208365 -1.56217 0
M  V30 27358 C 2522.89 0.42717 -1.97125 0
M  V30 27359 C 2523.2 1.61833 -1.09861 0
M  V30 27360 O 2524.41 2.32252 -1.4061 0
M  V30 27361 C 2522.86 0.81138 -3.50635 0
M  V30 27362 C 2522.47 -0.356228 -4.46581 0
M  V30 27363 C 2524.21 1.41325 -4.00284 0
M  V30 27364 C 2522.12 0.0496813 -5.91379 0
M  V30 27365 H 2521.05 0.163368 -0.736089 0
M  V30 27366 H 2523.7 -0.302488 -1.8099 0
M  V30 27367 H 2522.08 1.59808 -3.62322 0
M  V30 27368 H 2523.26 -1.13378 -4.46634 0
M  V30 27369 H 2521.57 -0.870467 -4.072 0
M  V30 27370 H 2524.17 1.72963 -5.05953 0
M  V30 27371 H 2524.51 2.32443 -3.45364 0
M  V30 27372 H 2525.05 0.690255 -3.91766 0
M  V30 27373 H 2521.79 -0.827643 -6.50254 0
M  V30 27374 H 2521.31 0.791821 -5.9455 0
M  V30 27375 H 2522.98 0.480929 -6.4521 0
M  V30 27376 N 2523.12 1.57465 0.0651402 0
M  V30 27377 C 2524.36 1.87574 0.76303 0
M  V30 27378 C 2524.69 0.800993 1.77241 0
M  V30 27379 O 2523.95 -0.202282 1.94652 0
M  V30 27380 C 2524.25 3.24364 1.50075 0
M  V30 27381 C 2523.91 4.46467 0.630738 0
M  V30 27382 C 2522.57 4.79609 0.390998 0
M  V30 27383 C 2524.93 5.21193 0.0278549 0
M  V30 27384 C 2522.25 5.84886 -0.460997 0
M  V30 27385 C 2524.61 6.27372 -0.811632 0
M  V30 27386 C 2523.27 6.59011 -1.06118 0
M  V30 27387 H 2522.54 0.686383 0.279212 0
M  V30 27388 H 2525.19 1.91485 0.0236389 0
M  V30 27389 H 2523.49 3.16275 2.31252 0
M  V30 27390 H 2525.19 3.44897 2.04565 0
M  V30 27391 H 2521.78 4.20531 0.827727 0
M  V30 27392 H 2525.96 4.95896 0.200175 0
M  V30 27393 H 2521.22 6.07794 -0.663014 0
M  V30 27394 H 2525.39 6.84433 -1.28549 0
M  V30 27395 H 2523.02 7.40414 -1.72313 0
M  V30 27396 N 2524.59 -0.336679 1.53962 0
M  V30 27397 C 2525.84 -1.07615 1.71538 0
M  V30 27398 C 2526.17 -1.88429 0.482158 0
M  V30 27399 O 2525.42 -1.88214 -0.536109 0
M  V30 27400 C 2525.72 -2.03948 2.93496 0
M  V30 27401 C 2525.39 -1.39391 4.28813 0
M  V30 27402 C 2524.05 -1.21515 4.65605 0
M  V30 27403 C 2526.4 -0.929451 5.12846 0
M  V30 27404 C 2523.73 -0.558209 5.84038 0
M  V30 27405 C 2526.08 -0.286394 6.31951 0
M  V30 27406 C 2524.75 -0.0953696 6.67432 0
M  V30 27407 H 2524.02 -0.39379 0.627703 0
M  V30 27408 H 2526.66 -0.354682 1.88187 0
M  V30 27409 H 2524.97 -2.825 2.7148 0
M  V30 27410 H 2526.67 -2.61169 3.04289 0
M  V30 27411 H 2523.26 -1.54304 3.9986 0
M  V30 27412 H 2527.44 -1.05539 4.84949 0
M  V30 27413 H 2522.7 -0.398888 6.10097 0
M  V30 27414 H 2526.87 0.08156 6.96352 0
M  V30 27415 H 2524.5 0.415713 7.59062 0
M  V30 27416 N 2526.07 -1.45812 -0.598057 0
M  V30 27417 C 2527.31 -1.51872 -1.368 0
M  V30 27418 C 2527.68 -0.160257 -1.9133 0
M  V30 27419 O 2528.88 -0.0955774 -2.6863 0
M  V30 27420 C 2527.15 -2.57517 -2.4783 0
M  V30 27421 S 2528.71 -2.82872 -3.35453 0
M  V30 27422 H 2525.53 -0.536763 -0.466268 0
M  V30 27423 H 2528.13 -1.82952 -0.68912 0
M  V30 27424 H 2526.83 -3.54875 -2.06135 0
M  V30 27425 H 2526.36 -2.28119 -3.20508 0
M  V30 27426 H 2528.38 -2.16975 -4.46247 0
M  V30 27427 N 2527.55 0.841385 -1.33261 0
M  V30 27428 C 2528.78 1.63383 -1.27753 0
M  V30 27429 C 2529.2 1.87508 0.149155 0
M  V30 27430 O 2528.56 1.43738 1.10495 0
M  V30 27431 C 2528.61 2.96261 -2.05576 0
M  V30 27432 O 2527.71 3.87451 -1.41264 0
M  V30 27433 H 2527.05 0.49761 -0.439636 0
M  V30 27434 H 2529.58 1.04696 -1.75784 0
M  V30 27435 H 2529.59 3.45979 -2.16247 0
M  V30 27436 H 2528.27 2.78025 -3.09314 0
M  V30 27437 H 2526.84 3.45935 -1.39223 0
M  V30 27438 N 2529.03 1.16688 1.05932 0
M  V30 27439 C 2530.28 0.950653 1.78798 0
M  V30 27440 C 2530.6 -0.521272 1.87385 0
M  V30 27441 O 2529.86 -1.40294 1.36441 0
M  V30 27442 C 2530.16 1.52773 3.23102 0
M  V30 27443 C 2529.82 3.0226 3.34589 0
M  V30 27444 C 2528.49 3.43065 3.37431 0
M  V30 27445 C 2530.84 3.9826 3.36212 0
M  V30 27446 C 2528.17 4.78483 3.39516 0
M  V30 27447 C 2530.52 5.33568 3.39835 0
M  V30 27448 C 2529.18 5.73848 3.40961 0
M  V30 27449 H 2528.45 0.347869 0.654269 0
M  V30 27450 H 2531.1 1.45461 1.24553 0
M  V30 27451 H 2529.4 0.945307 3.80225 0
M  V30 27452 H 2531.1 1.33606 3.78088 0
M  V30 27453 H 2527.69 2.69726 3.33085 0
M  V30 27454 H 2531.88 3.67798 3.33224 0
M  V30 27455 H 2527.13 5.09015 3.38694 0
M  V30 27456 H 2531.31 6.07739 3.40039 0
M  V30 27457 H 2528.93 6.78759 3.4233 0
M  V30 27458 N 2530.51 -1.24529 0.96594 0
M  V30 27459 C 2531.44 -2.27783 0.513516 0
M  V30 27460 C 2532.42 -1.6415 -0.445945 0
M  V30 27461 O 2533.6 -1.91157 -0.342451 0
M  V30 27462 C 2530.73 -3.46731 -0.198778 0
M  V30 27463 C 2529.69 -4.22619 0.67653 0
M  V30 27464 C 2529.01 -5.34439 -0.167154 0
M  V30 27465 C 2530.31 -4.84119 1.96026 0
M  V30 27466 H 2532.01 -2.65879 1.37654 0
M  V30 27467 H 2529.55 -1.27811 0.663344 0
M  V30 27468 H 2531.51 -4.18098 -0.526493 0
M  V30 27469 H 2530.23 -3.07656 -1.09614 0
M  V30 27470 H 2528.89 -3.5305 0.987492 0
M  V30 27471 H 2528.54 -4.91604 -1.06462 0
M  V30 27472 H 2528.24 -5.86131 0.415284 0
M  V30 27473 H 2529.76 -6.08634 -0.489581 0
M  V30 27474 H 2531.18 -5.4757 1.69823 0
M  V30 27475 H 2529.57 -5.46036 2.48927 0
M  V30 27476 H 2530.64 -4.05672 2.65629 0
M  V30 27477 N 2531.99 -0.735845 -1.39367 0
M  V30 27478 C 2532.92 -0.0451576 -2.28155 0
M  V30 27479 C 2533.9 0.746826 -1.44434 0
M  V30 27480 O 2535.08 0.729207 -1.73824 0
M  V30 27481 C 2532.21 0.943208 -3.25302 0
M  V30 27482 C 2531.25 0.23961 -4.25826 0
M  V30 27483 S 2532.09 -1.04702 -5.25164 0
M  V30 27484 C 2533.24 -0.0612739 -6.2587 0
M  V30 27485 H 2533.48 -0.79812 -2.86387 0
M  V30 27486 H 2531.01 -0.527679 -1.45103 0
M  V30 27487 H 2532.97 1.50817 -3.81791 0
M  V30 27488 H 2531.63 1.66901 -2.66088 0
M  V30 27489 H 2530.82 0.987509 -4.94231 0
M  V30 27490 H 2530.42 -0.25334 -3.73141 0
M  V30 27491 H 2532.71 0.778823 -6.73009 0
M  V30 27492 H 2533.66 -0.712485 -7.04506 0
M  V30 27493 H 2534.07 0.311503 -5.6364 0
M  V30 27494 N 2533.46 1.49999 -0.483543 0
M  V30 27495 C 2534.39 2.31644 0.293788 0
M  V30 27496 C 2535.37 1.39114 0.97884 0
M  V30 27497 O 2536.56 1.68031 0.973614 0
M  V30 27498 C 2533.69 3.19183 1.36892 0
M  V30 27499 C 2532.64 4.20366 0.804759 0
M  V30 27500 C 2531.97 4.96725 1.97911 0
M  V30 27501 C 2533.27 5.21945 -0.192404 0
M  V30 27502 H 2534.96 2.9688 -0.387668 0
M  V30 27503 H 2532.51 1.42769 -0.187881 0
M  V30 27504 H 2534.46 3.75103 1.9203 0
M  V30 27505 H 2533.19 2.51857 2.07932 0
M  V30 27506 H 2531.85 3.65565 0.275254 0
M  V30 27507 H 2531.49 4.25861 2.67678 0
M  V30 27508 H 2531.19 5.65176 1.60779 0
M  V30 27509 H 2532.72 5.55483 2.53516 0
M  V30 27510 H 2534.13 5.72663 0.270232 0
M  V30 27511 H 2532.53 5.98188 -0.478648 0
M  V30 27512 H 2533.6 4.71926 -1.11418 0
M  V30 27513 N 2534.94 0.216646 1.56104 0
M  V30 27514 C 2535.89 -0.711997 2.21435 0
M  V30 27515 C 2536.88 -1.20345 1.1922 0
M  V30 27516 O 2538.09 -1.16385 1.37312 0
M  V30 27517 H 2534.46 -0.248014 0.709925 0
M  V30 27518 H 2536.44 -0.137506 2.98083 0
M  V30 27519 C 2535.18 -1.91158 2.90438 0
M  V30 27520 H 2534.51 -1.54251 3.68845 0
M  V30 27521 H 2535.95 -2.53924 3.39557 0
M  V30 27522 C 2534.41 -2.7639 1.9264 0
M  V30 27523 O 2534.94 -3.74993 1.44024 0
M  V30 27524 N 2533.14 -2.42325 1.60396 0
M  V30 27525 H 2532.69 -1.62197 2.00125 0
M  V30 27526 H 2532.65 -2.99634 0.952212 0
M  V30 27527 N 2536.42 -1.57498 -0.0567885 0
M  V30 27528 C 2537.35 -2.07752 -1.06589 0
M  V30 27529 C 2538.33 -0.974106 -1.39446 0
M  V30 27530 O 2539.52 -1.24773 -1.48813 0
M  V30 27531 C 2536.65 -2.53394 -2.37505 0
M  V30 27532 C 2535.6 -3.67749 -2.18963 0
M  V30 27533 C 2534.93 -3.99498 -3.55395 0
M  V30 27534 C 2536.23 -4.97238 -1.5985 0
M  V30 27535 H 2537.92 -2.92311 -0.647655 0
M  V30 27536 H 2535.47 -1.40622 -0.310091 0
M  V30 27537 H 2537.42 -2.87167 -3.08404 0
M  V30 27538 H 2536.14 -1.65883 -2.81337 0
M  V30 27539 H 2534.8 -3.34282 -1.50502 0
M  V30 27540 H 2534.45 -3.09095 -3.96824 0
M  V30 27541 H 2534.15 -4.76508 -3.43823 0
M  V30 27542 H 2535.67 -4.3578 -4.27701 0
M  V30 27543 H 2537.09 -5.29145 -2.20632 0
M  V30 27544 H 2535.48 -5.78671 -1.58932 0
M  V30 27545 H 2536.55 -4.81639 -0.561421 0
M  V30 27546 N 2537.9 0.328509 -1.54138 0
M  V30 27547 C 2539.14 1.06703 -1.72106 0
M  V30 27548 C 2539.47 1.88171 -0.492145 0
M  V30 27549 O 2538.73 1.88495 0.52612 0
M  V30 27550 C 2539.03 2.02388 -2.94574 0
M  V30 27551 C 2538.69 1.37115 -4.29547 0
M  V30 27552 C 2537.35 1.19044 -4.66242 0
M  V30 27553 C 2539.71 0.902241 -5.13331 0
M  V30 27554 C 2537.03 0.527229 -5.84326 0
M  V30 27555 C 2539.39 0.252876 -6.32094 0
M  V30 27556 C 2538.05 0.0599727 -6.67473 0
M  V30 27557 H 2537.32 0.390455 -0.629782 0
M  V30 27558 H 2539.97 0.344697 -1.88372 0
M  V30 27559 H 2538.27 2.81056 -2.72974 0
M  V30 27560 H 2539.97 2.59551 -3.0567 0
M  V30 27561 H 2536.56 1.52181 -4.00673 0
M  V30 27562 H 2540.74 1.02966 -4.85502 0
M  V30 27563 H 2536 0.366527 -6.103 0
M  V30 27564 H 2540.17 -0.118488 -6.96299 0
M  V30 27565 H 2537.8 -0.455962 -7.58831 0
M  V30 27566 N 2539.38 1.46127 0.590316 0
M  V30 27567 C 2540.62 1.51266 1.35079 0
M  V30 27568 C 2540.95 0.160745 1.93534 0
M  V30 27569 O 2540.23 -0.826925 1.76046 0
M  V30 27570 C 2540.51 2.60535 2.48584 0
M  V30 27571 C 2540.37 4.05231 1.95213 0
M  V30 27572 C 2541.68 2.65946 3.50658 0
M  V30 27573 H 2538.8 0.550701 0.489794 0
M  V30 27574 H 2541.45 1.78025 0.663856 0
M  V30 27575 H 2539.6 2.37848 3.07181 0
M  V30 27576 H 2541.27 4.39181 1.41131 0
M  V30 27577 H 2539.51 4.1507 1.26093 0
M  V30 27578 H 2540.18 4.77402 2.77113 0
M  V30 27579 H 2542.66 2.86319 3.01929 0
M  V30 27580 H 2541.53 3.44234 4.27545 0
M  V30 27581 H 2541.79 1.71701 4.07396 0
M  V30 27582 N 2540.85 -0.834306 1.33705 0
M  V30 27583 C 2541.82 -1.92601 1.24247 0
M  V30 27584 C 2542.82 -1.59998 0.160411 0
M  V30 27585 O 2544.01 -1.69252 0.412257 0
M  V30 27586 C 2541.14 -3.28374 0.915608 0
M  V30 27587 H 2542.33 -2.02412 2.2129 0
M  V30 27588 H 2539.88 -1.02694 1.17829 0
M  V30 27589 H 2540.62 -3.24258 -0.0521316 0
M  V30 27590 H 2540.4 -3.53419 1.69817 0
M  V30 27591 H 2541.89 -4.08345 0.874303 0
M  V30 27592 N 2542.33 -1.17248 -1.05312 0
M  V30 27593 C 2543.58 -0.961544 -1.78556 0
M  V30 27594 C 2543.91 0.508664 -1.8742 0
M  V30 27595 O 2543.19 1.37755 -1.37309 0
M  V30 27596 C 2543.47 -1.60182 -3.22512 0
M  V30 27597 C 2543.32 -3.14405 -3.21667 0
M  V30 27598 C 2544.64 -1.30471 -4.20316 0
M  V30 27599 H 2541.76 -0.350734 -0.648193 0
M  V30 27600 H 2544.4 -1.44729 -1.231 0
M  V30 27601 H 2542.55 -1.18878 -3.69865 0
M  V30 27602 H 2544.22 -3.64758 -2.82399 0
M  V30 27603 H 2542.47 -3.47218 -2.60042 0
M  V30 27604 H 2543.14 -3.54332 -4.23265 0
M  V30 27605 H 2545.61 -1.66235 -3.81451 0
M  V30 27606 H 2544.49 -1.77857 -5.19286 0
M  V30 27607 H 2544.75 -0.225287 -4.41526 0
M  V30 27608 N 2543.81 1.24015 -0.972531 0
M  V30 27609 C 2545.06 1.91522 -0.632636 0
M  V30 27610 C 2545.37 1.76806 0.83661 0
M  V30 27611 O 2546.58 2.39045 1.28723 0
M  V30 27612 C 2545.03 3.43286 -1.08088 0
M  V30 27613 C 2544.64 3.66679 -2.57392 0
M  V30 27614 C 2546.39 4.16615 -0.814362 0
M  V30 27615 C 2544.29 5.12038 -2.95924 0
M  V30 27616 H 2543.22 0.717125 -0.232911 0
M  V30 27617 H 2545.87 1.4058 -1.17938 0
M  V30 27618 H 2544.26 3.93291 -0.462409 0
M  V30 27619 H 2545.43 3.27253 -3.24411 0
M  V30 27620 H 2543.75 3.06644 -2.81706 0
M  V30 27621 H 2546.34 5.23717 -1.07819 0
M  V30 27622 H 2546.69 4.15552 0.249477 0
M  V30 27623 H 2547.22 3.72574 -1.39404 0
M  V30 27624 H 2543.96 5.18227 -4.01399 0
M  V30 27625 H 2543.48 5.52444 -2.33593 0
M  V30 27626 H 2545.16 5.80309 -2.86096 0
M  V30 27627 N 2545.29 0.743226 1.38974 0
M  V30 27628 C 2546.22 0.0572566 2.28128 0
M  V30 27629 C 2547.2 -0.739156 1.44828 0
M  V30 27630 O 2548.38 -0.719978 1.74208 0
M  V30 27631 C 2545.51 -0.925944 3.25797 0
M  V30 27632 C 2544.56 -0.217024 4.25947 0
M  V30 27633 S 2545.39 1.07486 5.24602 0
M  V30 27634 C 2546.55 0.0944645 6.25829 0
M  V30 27635 H 2546.78 0.813296 2.85959 0
M  V30 27636 H 2544.31 0.535366 1.44821 0
M  V30 27637 H 2546.27 -1.4879 3.82586 0
M  V30 27638 H 2544.93 -1.65488 2.66969 0
M  V30 27639 H 2544.12 -0.961285 4.94748 0
M  V30 27640 H 2543.73 0.273125 3.73001 0
M  V30 27641 H 2546.02 -0.743121 6.73412 0
M  V30 27642 H 2546.96 0.749837 7.04119 0
M  V30 27643 H 2547.37 -0.281607 5.63797 0
M  V30 27644 N 2546.77 -1.4974 0.491491 0
M  V30 27645 C 2548.04 -1.95238 -0.11895 0
M  V30 27646 C 2548.42 -1.43267 -1.55042 0
M  V30 27647 O 2547.77 -0.642326 -2.19286 0
M  V30 27648 C 2547.98 -3.48975 -0.0413573 0
M  V30 27649 C 2549.33 -4.24029 -0.220059 0
M  V30 27650 O 2550.35 -3.56008 -0.116992 0
M  V30 27651 O 2549.21 -5.44802 -0.430472 0
M  V30 27652 H 2546.31 -0.820868 -0.100521 0
M  V30 27653 H 2548.85 -1.60425 0.553351 0
M  V30 27654 H 2547.62 -3.7941 0.95728 0
M  V30 27655 H 2547.25 -3.90381 -0.754223 0
M  V30 27656 N 2548.24 -0.224922 -1.55987 0
M  V30 27657 C 2549.19 0.700244 -2.21809 0
M  V30 27658 C 2550.19 1.19712 -1.19856 0
M  V30 27659 O 2551.39 1.15655 -1.37927 0
M  V30 27660 H 2547.77 0.244245 -0.71123 0
M  V30 27661 H 2549.74 0.121696 -2.98152 0
M  V30 27662 C 2548.49 1.89615 -2.91447 0
M  V30 27663 H 2547.81 1.52293 -3.69658 0
M  V30 27664 H 2549.25 2.52119 -3.40899 0
M  V30 27665 C 2547.71 2.75365 -1.94103 0
M  V30 27666 O 2548.24 3.74224 -1.4601 0
M  V30 27667 N 2546.45 2.41471 -1.61679 0
M  V30 27668 H 2545.99 1.61133 -2.00982 0
M  V30 27669 H 2545.95 2.99124 -0.968089 0
M  V30 27670 N 2549.72 1.57526 0.0484352 0
M  V30 27671 C 2550.97 1.88373 0.743092 0
M  V30 27672 C 2551.3 0.819746 1.76381 0
M  V30 27673 O 2550.55 -0.181625 1.94855 0
M  V30 27674 C 2550.85 3.25938 1.46627 0
M  V30 27675 C 2550.52 4.47111 0.583348 0
M  V30 27676 C 2549.18 4.79997 0.340107 0
M  V30 27677 C 2551.53 5.21193 -0.0274261 0
M  V30 27678 C 2548.86 5.84364 -0.523006 0
M  V30 27679 C 2551.21 6.26476 -0.878127 0
M  V30 27680 C 2549.88 6.57848 -1.13102 0
M  V30 27681 H 2549.15 0.689306 0.271917 0
M  V30 27682 H 2551.79 1.915 0.003328 0
M  V30 27683 H 2550.1 3.1871 2.27885 0
M  V30 27684 H 2551.79 3.47048 2.00895 0
M  V30 27685 H 2548.38 4.21386 0.783077 0
M  V30 27686 H 2552.57 4.96081 0.147567 0
M  V30 27687 H 2547.82 6.07057 -0.727441 0
M  V30 27688 H 2552 6.83031 -1.35801 0
M  V30 27689 H 2549.63 7.38544 -1.80157 0
M  V30 27690 N 2551.2 -0.32033 1.5431 0
M  V30 27691 C 2552.11 -1.4173 1.86948 0
M  V30 27692 C 2553.13 -1.56441 0.761717 0
M  V30 27693 O 2554.3 -1.71475 1.05632 0
M  V30 27694 C 2551.37 -2.76397 2.09297 0
M  V30 27695 C 2550.43 -2.70835 3.33087 0
M  V30 27696 C 2549.66 -3.99079 3.5436 0
M  V30 27697 O 2549.88 -4.97503 2.79011 0
M  V30 27698 O 2548.82 -4.02142 4.47845 0
M  V30 27699 H 2552.64 -1.17057 2.80234 0
M  V30 27700 H 2550.23 -0.514649 1.40256 0
M  V30 27701 H 2552.11 -3.56109 2.25309 0
M  V30 27702 H 2550.79 -3.00954 1.19199 0
M  V30 27703 H 2549.69 -1.89663 3.22458 0
M  V30 27704 H 2551.03 -2.51232 4.23253 0
M  V30 27705 N 2552.68 -1.46438 -0.582558 0
M  V30 27706 C 2553.91 -1.55101 -1.36481 0
M  V30 27707 C 2554.32 -0.191089 -1.88233 0
M  V30 27708 O 2553.66 0.821829 -1.64291 0
M  V30 27709 C 2553.72 -2.4953 -2.58796 0
M  V30 27710 C 2553.39 -3.95768 -2.2851 0
M  V30 27711 C 2554.38 -4.84975 -1.87337 0
M  V30 27712 C 2552.07 -4.409 -2.4065 0
M  V30 27713 C 2554.06 -6.17328 -1.58699 0
M  V30 27714 C 2551.75 -5.73287 -2.11625 0
M  V30 27715 C 2552.75 -6.61321 -1.70714 0
M  V30 27716 O 2552.43 -7.91251 -1.42043 0
M  V30 27717 H 2552.17 -0.527071 -0.423288 0
M  V30 27718 H 2554.72 -1.92548 -0.715155 0
M  V30 27719 H 2552.95 -2.07101 -3.26567 0
M  V30 27720 H 2554.64 -2.48598 -3.20864 0
M  V30 27721 H 2555.41 -4.51363 -1.77473 0
M  V30 27722 H 2551.28 -3.72602 -2.71456 0
M  V30 27723 H 2554.83 -6.85999 -1.26692 0
M  V30 27724 H 2550.73 -6.06448 -2.21113 0
M  V30 27725 H 2551.49 -8.03518 -1.55887 0
M  V30 27726 N 2554.16 0.827204 -1.34146 0
M  V30 27727 C 2555.09 1.95285 -1.28008 0
M  V30 27728 C 2556.07 1.69361 -0.15835 0
M  V30 27729 O 2557.25 1.9102 -0.35002 0
M  V30 27730 C 2554.38 3.31662 -1.03041 0
M  V30 27731 C 2553.34 3.72015 -2.11634 0
M  V30 27732 C 2552.66 5.06327 -1.71863 0
M  V30 27733 C 2553.96 3.84563 -3.53424 0
M  V30 27734 H 2555.66 2.00678 -2.22191 0
M  V30 27735 H 2553.2 0.964116 -1.06962 0
M  V30 27736 H 2555.16 4.09991 -0.973935 0
M  V30 27737 H 2553.88 3.26557 -0.0529965 0
M  V30 27738 H 2552.54 2.95958 -2.16344 0
M  V30 27739 H 2552.19 4.97705 -0.727929 0
M  V30 27740 H 2551.89 5.34297 -2.44541 0
M  V30 27741 H 2553.41 5.87119 -1.67702 0
M  V30 27742 H 2554.82 4.53174 -3.5115 0
M  V30 27743 H 2553.22 4.23983 -4.24687 0
M  V30 27744 H 2554.29 2.86682 -3.91077 0
M  V30 27745 N 2555.63 1.17805 1.04688 0
M  V30 27746 C 2556.86 0.994262 1.81444 0
M  V30 27747 C 2557.28 -0.457427 1.83175 0
M  V30 27748 O 2556.63 -1.31768 1.26267 0
M  V30 27749 C 2556.69 1.53416 3.27332 0
M  V30 27750 O 2556.41 2.929 3.25793 0
M  V30 27751 C 2557.91 1.39567 4.20756 0
M  V30 27752 H 2555.13 0.351457 0.571593 0
M  V30 27753 H 2557.67 1.56211 1.31979 0
M  V30 27754 H 2555.83 1.00822 3.7405 0
M  V30 27755 H 2556.24 3.17956 4.17138 0
M  V30 27756 H 2557.71 1.8215 5.21081 0
M  V30 27757 H 2558.19 0.343471 4.37855 0
M  V30 27758 H 2558.8 1.91202 3.79897 0
M  V30 27759 N 2557.11 -1.23497 0.979094 0
M  V30 27760 C 2558.53 -1.44033 0.687501 0
M  V30 27761 C 2558.73 -1.87151 -0.746768 0
M  V30 27762 O 2557.78 -2.01672 -1.51936 0
M  V30 27763 C 2559.1 -2.49304 1.68131 0
M  V30 27764 C 2560.65 -2.63119 1.69521 0
M  V30 27765 C 2561.12 -3.71598 2.67729 0
M  V30 27766 N 2562.61 -3.79039 2.6624 0
M  V30 27767 C 2563.35 -4.62531 3.38899 0
M  V30 27768 N 2562.84 -5.50123 4.21113 0
M  V30 27769 N 2564.64 -4.56716 3.2767 0
M  V30 27770 H 2556.79 -0.938101 1.90561 0
M  V30 27771 H 2559.05 -0.473883 0.82106 0
M  V30 27772 H 2558.76 -2.24536 2.70697 0
M  V30 27773 H 2558.63 -3.47668 1.46312 0
M  V30 27774 H 2561.02 -2.87239 0.676612 0
M  V30 27775 H 2561.1 -1.65076 1.95406 0
M  V30 27776 H 2560.74 -3.48227 3.6973 0
M  V30 27777 H 2560.67 -4.6918 2.39119 0
M  V30 27778 H 2563.16 -3.16443 2.06573 0
M  V30 27779 H 2563.48 -6.10819 4.73414 0
M  V30 27780 H 2561.82 -5.49751 4.25204 0
M  V30 27781 H 2565.01 -3.87304 2.62893 0
M  V30 27782 H 2565.18 -5.21556 3.84556 0
M  V30 27783 N 2558.59 -0.750586 -1.38578 0
M  V30 27784 C 2559.87 -0.231043 -1.94231 0
M  V30 27785 C 2560.25 1.27015 -1.68613 0
M  V30 27786 O 2559.6 2.04321 -1.023 0
M  V30 27787 C 2559.81 -0.581489 -3.44122 0
M  V30 27788 C 2561.15 -0.539463 -4.21159 0
M  V30 27789 O 2562.18 -0.519603 -3.5239 0
M  V30 27790 O 2561.04 -0.547745 -5.43748 0
M  V30 27791 H 2558.13 -0.0474408 -0.825638 0
M  V30 27792 H 2560.68 -0.830504 -1.47989 0
M  V30 27793 H 2559.45 -1.61839 -3.56264 0
M  V30 27794 H 2559.07 0.0461348 -3.97573 0
M  V30 27795 N 2560.07 1.49477 -0.499425 0
M  V30 27796 C 2561.29 2.07352 0.0446855 0
M  V30 27797 C 2561.72 1.35751 1.30205 0
M  V30 27798 O 2561.08 0.413763 1.76515 0
M  V30 27799 C 2561.13 3.59488 0.28295 0
M  V30 27800 O 2560.23 3.89401 1.35798 0
M  V30 27801 H 2559.57 0.663509 -0.0255263 0
M  V30 27802 H 2562.1 1.92304 -0.698594 0
M  V30 27803 H 2562.11 4.04737 0.514936 0
M  V30 27804 H 2560.79 4.11013 -0.635708 0
M  V30 27805 H 2559.36 3.55963 1.11107 0
M  V30 27806 N 2561.55 0.233191 1.55865 0
M  V30 27807 C 2562.77 -0.402871 2.0345 0
M  V30 27808 C 2563.2 -1.51734 1.11168 0
M  V30 27809 O 2562.56 -1.81013 0.102028 0
M  V30 27810 C 2562.6 -0.900839 3.49167 0
M  V30 27811 O 2561.71 -2.01141 3.60022 0
M  V30 27812 H 2561.05 -0.089691 0.657915 0
M  V30 27813 H 2563.58 0.355236 2.01493 0
M  V30 27814 H 2563.59 -1.20764 3.89718 0
M  V30 27815 H 2562.26 -0.0852158 4.15813 0
M  V30 27816 H 2560.84 -1.71036 3.31363 0
M  V30 27817 N 2563.03 -1.57549 -0.0400806 0
M  V30 27818 C 2564.27 -1.87946 -0.732075 0
M  V30 27819 C 2564.59 -0.830237 -1.77106 0
M  V30 27820 O 2565.79 -1.02307 -2.51487 0
M  V30 27821 C 2564.25 -3.33496 -1.35309 0
M  V30 27822 C 2563.86 -4.46623 -0.351027 0
M  V30 27823 C 2565.6 -3.73055 -2.0256 0
M  V30 27824 C 2563.51 -5.83228 -0.979756 0
M  V30 27825 H 2562.44 -0.701206 -0.277176 0
M  V30 27826 H 2565.09 -1.83495 0.0138824 0
M  V30 27827 H 2563.47 -3.32657 -2.14838 0
M  V30 27828 H 2564.65 -4.58912 0.416755 0
M  V30 27829 H 2562.96 -4.15825 0.218782 0
M  V30 27830 H 2565.56 -4.72427 -2.50433 0
M  V30 27831 H 2565.9 -3.04479 -2.83899 0
M  V30 27832 H 2566.43 -3.76021 -1.2982 0
M  V30 27833 H 2563.17 -6.55176 -0.20602 0
M  V30 27834 H 2562.69 -5.7468 -1.71764 0
M  V30 27835 H 2564.37 -6.29601 -1.49035 0
M  V30 27836 N 2564.5 0.312142 -1.54478 0
M  V30 27837 C 2565.43 1.38954 -1.87654 0
M  V30 27838 C 2566.41 1.5343 -0.734385 0
M  V30 27839 O 2567.6 1.67122 -0.989139 0
M  V30 27840 C 2564.73 2.75549 -2.11401 0
M  V30 27841 C 2563.68 2.75849 -3.27248 0
M  V30 27842 C 2563.01 4.15628 -3.36389 0
M  V30 27843 C 2564.31 2.38579 -4.64626 0
M  V30 27844 H 2566 1.11437 -2.77889 0
M  V30 27845 H 2563.55 0.534631 -1.33707 0
M  V30 27846 H 2565.5 3.50996 -2.33195 0
M  V30 27847 H 2564.23 3.04567 -1.17926 0
M  V30 27848 H 2562.89 2.02857 -3.0536 0
M  V30 27849 H 2562.53 4.41805 -2.40452 0
M  V30 27850 H 2562.23 4.16732 -4.14256 0
M  V30 27851 H 2563.76 4.92871 -3.60431 0
M  V30 27852 H 2565.17 3.03741 -4.86225 0
M  V30 27853 H 2563.57 2.50916 -5.45125 0
M  V30 27854 H 2564.64 1.33715 -4.66099 0
M  V30 27855 N 2565.98 1.46745 0.574784 0
M  V30 27856 C 2567.23 1.52163 1.33006 0
M  V30 27857 C 2567.55 0.178126 1.94185 0
M  V30 27858 O 2566.82 -0.796165 1.78992 0
M  V30 27859 H 2565.4 0.560454 0.493863 0
M  V30 27860 H 2568.06 1.82928 0.672557 0
M  V30 27861 H 2567.16 2.27866 2.13269 0
M  V30 27862 N 2567.46 -0.820078 1.34583 0
M  V30 27863 C 2568.87 -1.39307 1.243 0
M  V30 27864 C 2569.22 -1.95767 -0.130317 0
M  V30 27865 O 2568.35 -1.90274 -1.03077 0
M  V30 27866 C 2568.94 -2.53247 2.25058 0
M  V30 27867 C 2567.5 -3.06446 2.18558 0
M  V30 27868 C 2566.65 -1.79333 2.11506 0
M  V30 27869 H 2569.6 -0.624236 1.45907 0
M  V30 27870 H 2569.62 -3.31421 1.86923 0
M  V30 27871 H 2569.13 -2.12125 3.25 0
M  V30 27872 H 2567.23 -3.52067 1.21982 0
M  V30 27873 H 2567.35 -3.65344 3.09937 0
M  V30 27874 H 2565.71 -2.00344 1.57271 0
M  V30 27875 H 2566.49 -1.40381 3.13286 0
M  V30 27876 N 2568.94 -1.18359 -1.04062 0
M  V30 27877 C 2569.89 -0.878598 -2.10392 0
M  V30 27878 C 2570.87 0.151685 -1.60183 0
M  V30 27879 O 2572.06 -0.0523614 -1.76923 0
M  V30 27880 C 2569.19 -0.406156 -3.40889 0
M  V30 27881 C 2568.28 -1.46851 -3.97864 0
M  V30 27882 N 2568.67 -2.68497 -4.28653 0
M  V30 27883 C 2566.97 -1.32904 -4.25738 0
M  V30 27884 C 2567.67 -3.36845 -4.74247 0
M  V30 27885 N 2566.64 -2.64228 -4.75063 0
M  V30 27886 H 2570.45 -1.80331 -2.32073 0
M  V30 27887 H 2567.96 -1.074 -1.21816 0
M  V30 27888 H 2569.96 -0.169161 -4.16557 0
M  V30 27889 H 2568.62 0.512218 -3.20634 0
M  V30 27890 H 2569.63 -3.05364 -4.18298 0
M  V30 27891 H 2566.31 -0.473207 -4.1481 0
M  V30 27892 H 2567.7 -4.40807 -5.07088 0
M  V30 27893 N 2570.42 1.22976 -0.98563 0
M  V30 27894 C 2571.37 2.22423 -0.501219 0
M  V30 27895 C 2572.35 1.55141 0.426622 0
M  V30 27896 O 2573.54 1.75159 0.254625 0
M  V30 27897 C 2570.67 3.42774 0.189942 0
M  V30 27898 C 2569.76 4.17275 -0.757776 0
M  V30 27899 N 2570.15 4.68652 -1.90259 0
M  V30 27900 C 2568.45 4.42315 -0.572168 0
M  V30 27901 C 2569.15 5.25388 -2.49685 0
M  V30 27902 N 2568.12 5.13623 -1.78022 0
M  V30 27903 H 2571.92 2.5978 -1.37446 0
M  V30 27904 H 2569.44 1.38565 -0.846965 0
M  V30 27905 H 2571.44 4.13198 0.554317 0
M  V30 27906 H 2570.1 3.06931 1.0594 0
M  V30 27907 H 2571.11 4.64835 -2.28362 0
M  V30 27908 H 2567.78 4.1674 0.251836 0
M  V30 27909 H 2569.17 5.75726 -3.46395 0
M  V30 27910 N 2571.89 0.757924 1.38178 0
M  V30 27911 C 2572.82 0.148638 2.33026 0
M  V30 27912 C 2573.8 -0.698723 1.55087 0
M  V30 27913 O 2574.99 -0.63902 1.83385 0
M  V30 27914 C 2572.12 -0.741975 3.39282 0
M  V30 27915 C 2571.07 0.00299469 4.28 0
M  V30 27916 C 2570.4 -1.00615 5.25148 0
M  V30 27917 C 2571.7 1.17394 5.08936 0
M  V30 27918 H 2573.39 0.940959 2.84229 0
M  V30 27919 H 2570.94 0.453932 1.36658 0
M  V30 27920 H 2572.89 -1.17792 4.04602 0
M  V30 27921 H 2571.62 -1.56666 2.86571 0
M  V30 27922 H 2570.28 0.419568 3.64191 0
M  V30 27923 H 2569.92 -1.82502 4.68724 0
M  V30 27924 H 2569.62 -0.512325 5.85362 0
M  V30 27925 H 2571.15 -1.44133 5.93345 0
M  V30 27926 H 2572.56 0.815324 5.67473 0
M  V30 27927 H 2570.96 1.59892 5.78407 0
M  V30 27928 H 2572.03 1.98475 4.4242 0
M  V30 27929 N 2573.37 -1.4921 0.507345 0
M  V30 27930 C 2574.65 -1.95353 -0.0982359 0
M  V30 27931 C 2575.03 -1.44903 -1.53513 0
M  V30 27932 O 2574.38 -0.665548 -2.18593 0
M  V30 27933 C 2574.59 -3.49 -0.00434148 0
M  V30 27934 C 2575.94 -4.24239 -0.175072 0
M  V30 27935 O 2576.96 -3.56112 -0.0792265 0
M  V30 27936 O 2575.82 -5.45228 -0.372664 0
M  V30 27937 H 2572.91 -0.821888 -0.0918091 0
M  V30 27938 H 2575.46 -1.59829 0.570335 0
M  V30 27939 H 2574.23 -3.78373 0.997468 0
M  V30 27940 H 2573.85 -3.91159 -0.712776 0
M  V30 27941 N 2574.85 -0.241454 -1.55739 0
M  V30 27942 C 2575.76 0.671266 -2.24791 0
M  V30 27943 C 2576.78 1.1977 -1.26219 0
M  V30 27944 O 2577.95 1.23512 -1.59081 0
M  V30 27945 C 2575.02 1.85391 -2.9297 0
M  V30 27946 C 2574.08 1.36749 -4.06938 0
M  V30 27947 C 2573.31 2.49376 -4.71855 0
M  V30 27948 O 2573.53 3.6798 -4.35829 0
M  V30 27949 O 2572.47 2.19444 -5.60471 0
M  V30 27950 H 2576.29 0.112913 -3.0349 0
M  V30 27951 H 2573.88 -0.0101776 -1.49397 0
M  V30 27952 H 2575.76 2.54417 -3.35931 0
M  V30 27953 H 2574.44 2.39998 -2.17215 0
M  V30 27954 H 2573.34 0.644661 -3.68504 0
M  V30 27955 H 2574.68 0.867561 -4.84494 0
M  V30 27956 N 2576.33 1.57568 0.0317248 0
M  V30 27957 C 2577.58 1.89151 0.723071 0
M  V30 27958 C 2577.9 0.838408 1.75502 0
M  V30 27959 O 2577.16 -0.160948 1.95037 0
M  V30 27960 C 2577.46 3.27475 1.43161 0
M  V30 27961 C 2577.12 4.47704 0.535893 0
M  V30 27962 C 2575.79 4.8033 0.289178 0
M  V30 27963 C 2578.14 5.21134 -0.0827041 0
M  V30 27964 C 2575.47 5.83777 -0.584956 0
M  V30 27965 C 2577.82 6.25509 -0.944524 0
M  V30 27966 C 2576.48 6.56612 -1.20073 0
M  V30 27967 H 2575.75 0.692151 0.26459 0
M  V30 27968 H 2578.4 1.91492 -0.0169833 0
M  V30 27969 H 2576.7 3.21109 2.24492 0
M  V30 27970 H 2578.4 3.49159 1.97203 0
M  V30 27971 H 2574.99 4.22193 0.738339 0
M  V30 27972 H 2579.17 4.96209 0.094943 0
M  V30 27973 H 2574.43 6.06251 -0.791787 0
M  V30 27974 H 2578.6 6.81552 -1.43038 0
M  V30 27975 H 2576.23 7.36592 -1.8798 0
M  V30 27976 N 2577.81 -0.303946 1.54641 0
M  V30 27977 C 2579.05 -1.04106 1.7404 0
M  V30 27978 C 2579.39 -1.87023 0.523084 0
M  V30 27979 O 2578.66 -1.88488 -0.479841 0
M  V30 27980 C 2578.94 -1.9495 3.02765 0
M  V30 27981 C 2578.8 -1.15233 4.34789 0
M  V30 27982 C 2580.12 -2.94169 3.27342 0
M  V30 27983 H 2577.23 -0.377068 0.633237 0
M  V30 27984 H 2579.88 -0.315968 1.87354 0
M  V30 27985 H 2578.03 -2.56776 2.91544 0
M  V30 27986 H 2579.7 -0.557155 4.57923 0
M  V30 27987 H 2577.94 -0.454977 4.31407 0
M  V30 27988 H 2578.61 -1.82041 5.21119 0
M  V30 27989 H 2581.09 -2.42471 3.38152 0
M  V30 27990 H 2579.96 -3.549 4.18733 0
M  V30 27991 H 2580.23 -3.67673 2.45497 0
M  V30 27992 N 2579.28 -1.47047 -0.566994 0
M  V30 27993 C 2580.7 -1.32349 -0.891951 0
M  V30 27994 C 2580.9 -0.306651 -1.99153 0
M  V30 27995 O 2579.96 0.285276 -2.50883 0
M  V30 27996 C 2581.27 -2.71413 -1.29444 0
M  V30 27997 C 2582.82 -2.79623 -1.40641 0
M  V30 27998 C 2583.29 -4.19304 -1.8425 0
M  V30 27999 N 2584.78 -4.21798 -1.91417 0
M  V30 28000 C 2585.52 -5.26783 -2.26467 0
M  V30 28001 N 2585.01 -6.42081 -2.60199 0
M  V30 28002 N 2586.81 -5.14156 -2.27157 0
M  V30 28003 H 2578.96 -2.11803 0.159111 0
M  V30 28004 H 2581.22 -0.947962 0.00851418 0
M  V30 28005 H 2580.93 -3.47207 -0.560387 0
M  V30 28006 H 2580.8 -3.02546 -2.25268 0
M  V30 28007 H 2583.19 -2.04107 -2.1313 0
M  V30 28008 H 2583.27 -2.52155 -0.430294 0
M  V30 28009 H 2582.91 -4.95321 -1.12335 0
M  V30 28010 H 2582.84 -4.4419 -2.82847 0
M  V30 28011 H 2585.33 -3.38615 -1.67774 0
M  V30 28012 H 2585.65 -7.17953 -2.85943 0
M  V30 28013 H 2583.99 -6.45417 -2.57802 0
M  V30 28014 H 2587.18 -4.23111 -2.00237 0
M  V30 28015 H 2587.36 -5.96083 -2.54144 0
M  V30 28016 N 2580.76 0.812929 -1.35016 0
M  V30 28017 C 2582.01 1.57202 -1.28123 0
M  V30 28018 C 2582.34 1.93652 0.145835 0
M  V30 28019 O 2581.62 1.60838 1.09368 0
M  V30 28020 C 2581.9 2.86488 -2.18167 0
M  V30 28021 C 2581.75 2.56555 -3.69459 0
M  V30 28022 C 2583.07 3.88142 -2.07446 0
M  V30 28023 H 2580.19 0.570358 -0.466756 0
M  V30 28024 H 2582.83 0.935754 -1.65359 0
M  V30 28025 H 2580.98 3.40785 -1.86541 0
M  V30 28026 H 2582.65 2.0849 -4.11497 0
M  V30 28027 H 2580.9 1.89844 -3.90053 0
M  V30 28028 H 2581.57 3.48792 -4.27841 0
M  V30 28029 H 2584.04 3.43226 -2.35234 0
M  V30 28030 H 2582.92 4.76391 -2.72658 0
M  V30 28031 H 2583.18 4.29341 -1.05446 0
M  V30 28032 N 2582.24 1.18909 1.03433 0
M  V30 28033 C 2583.49 0.999851 1.77129 0
M  V30 28034 C 2583.84 -0.465016 1.86696 0
M  V30 28035 O 2583.13 -1.34081 1.36868 0
M  V30 28036 C 2583.33 1.59592 3.19789 0
M  V30 28037 C 2583.16 3.11723 3.24128 0
M  V30 28038 C 2581.93 3.80584 3.32391 0
M  V30 28039 C 2584.13 4.09144 3.11618 0
M  V30 28040 N 2582.11 5.20161 3.26046 0
M  V30 28041 C 2583.48 5.35283 3.12845 0
M  V30 28042 C 2585.53 4.00577 2.95706 0
M  V30 28043 C 2584.24 6.53847 2.99794 0
M  V30 28044 C 2586.26 5.18745 2.84002 0
M  V30 28045 C 2585.62 6.4378 2.85879 0
M  V30 28046 H 2581.72 0.419943 0.659676 0
M  V30 28047 H 2584.31 1.50791 1.23167 0
M  V30 28048 H 2582.48 1.11395 3.72083 0
M  V30 28049 H 2584.21 1.34157 3.81817 0
M  V30 28050 H 2580.97 3.31348 3.38386 0
M  V30 28051 H 2581.39 5.93178 3.26296 0
M  V30 28052 H 2586.03 3.04735 2.93081 0
M  V30 28053 H 2583.75 7.49881 3.01171 0
M  V30 28054 H 2587.34 5.13913 2.72735 0
M  V30 28055 H 2586.22 7.3368 2.76918 0
M  V30 28056 N 2583.72 -1.22452 0.992137 0
M  V30 28057 C 2584.68 -2.22579 0.546922 0
M  V30 28058 C 2585.68 -1.5649 -0.369802 0
M  V30 28059 O 2586.87 -1.73446 -0.161865 0
M  V30 28060 C 2584 -3.40285 -0.204599 0
M  V30 28061 H 2585.2 -2.63482 1.43239 0
M  V30 28062 H 2582.75 -1.35489 0.779263 0
M  V30 28063 H 2583.48 -3.04854 -1.10609 0
M  V30 28064 H 2583.27 -3.89467 0.453609 0
M  V30 28065 H 2584.76 -4.14544 -0.504285 0
M  V30 28066 N 2585.2 -0.765242 -1.37774 0
M  V30 28067 C 2586.11 -0.147707 -2.34135 0
M  V30 28068 C 2587.12 0.687187 -1.59855 0
M  V30 28069 O 2588.3 0.608626 -1.91984 0
M  V30 28070 C 2585.36 0.726111 -3.39011 0
M  V30 28071 C 2584.42 -0.124492 -4.29119 0
M  V30 28072 C 2583.66 0.707715 -5.28987 0
M  V30 28073 O 2583.88 1.94515 -5.36209 0
M  V30 28074 O 2582.81 0.120354 -6.0178 0
M  V30 28075 H 2586.64 -0.943808 -2.88662 0
M  V30 28076 H 2584.23 -0.526302 -1.39823 0
M  V30 28077 H 2586.11 1.22517 -4.03197 0
M  V30 28078 H 2584.78 1.50051 -2.86821 0
M  V30 28079 H 2583.69 -0.669761 -3.68056 0
M  V30 28080 H 2585.02 -0.861821 -4.84596 0
M  V30 28081 N 2586.67 1.48939 -0.515251 0
M  V30 28082 C 2587.9 2.0659 0.0205372 0
M  V30 28083 C 2588.31 1.37407 1.30061 0
M  V30 28084 O 2587.66 0.450663 1.78086 0
M  V30 28085 C 2587.72 3.57982 0.330061 0
M  V30 28086 C 2587.38 4.48943 -0.854374 0
M  V30 28087 C 2588.38 4.89605 -1.74879 0
M  V30 28088 C 2586.06 4.91048 -1.05721 0
M  V30 28089 C 2588.06 5.71127 -2.83006 0
M  V30 28090 C 2585.74 5.72343 -2.14164 0
M  V30 28091 C 2586.74 6.12289 -3.02641 0
M  V30 28092 O 2586.43 6.91955 -4.0921 0
M  V30 28093 H 2586.16 0.675585 -0.0236952 0
M  V30 28094 H 2588.72 1.92517 -0.71599 0
M  V30 28095 H 2586.95 3.70114 1.12037 0
M  V30 28096 H 2588.64 3.97814 0.806163 0
M  V30 28097 H 2589.4 4.5771 -1.60396 0
M  V30 28098 H 2585.28 4.59449 -0.377869 0
M  V30 28099 H 2588.82 6.02226 -3.52094 0
M  V30 28100 H 2584.72 6.03652 -2.28637 0
M  V30 28101 H 2585.49 7.10286 -4.06739 0
M  V30 28102 N 2588.15 0.249709 1.55609 0
M  V30 28103 C 2589.43 -0.424727 1.90933 0
M  V30 28104 C 2589.81 -1.75656 1.17081 0
M  V30 28105 O 2589.16 -2.26662 0.289216 0
M  V30 28106 C 2589.37 -0.590049 3.43976 0
M  V30 28107 C 2590.72 -0.884641 4.15282 0
M  V30 28108 O 2591.74 -0.675809 3.4973 0
M  V30 28109 O 2590.6 -1.2825 5.31238 0
M  V30 28110 H 2587.69 -0.228454 0.794819 0
M  V30 28111 H 2590.24 0.293984 1.67134 0
M  V30 28112 H 2589.01 0.348248 3.89747 0
M  V30 28113 H 2588.63 -1.35919 3.73646 0
M  V30 28114 N 2589.63 -1.57583 -0.0233682 0
M  V30 28115 C 2591.05 -1.55032 -0.379107 0
M  V30 28116 C 2591.25 -0.976579 -1.76253 0
M  V30 28117 O 2590.3 -0.600121 -2.45265 0
M  V30 28118 C 2591.62 -2.99433 -0.275739 0
M  V30 28119 C 2593.16 -3.1101 -0.352403 0
M  V30 28120 C 2593.64 -4.57153 -0.278421 0
M  V30 28121 N 2595.13 -4.61972 -0.337041 0
M  V30 28122 C 2595.87 -5.726 -0.302775 0
M  V30 28123 N 2595.36 -6.92449 -0.220468 0
M  V30 28124 N 2597.15 -5.60991 -0.352924 0
M  V30 28125 H 2589.31 -1.93226 0.881903 0
M  V30 28126 H 2591.57 -0.886503 0.335882 0
M  V30 28127 H 2591.27 -3.45158 0.675168 0
M  V30 28128 H 2591.15 -3.6179 -1.06714 0
M  V30 28129 H 2593.54 -2.65229 -1.29375 0
M  V30 28130 H 2593.62 -2.51474 0.468453 0
M  V30 28131 H 2593.26 -5.03603 0.659278 0
M  V30 28132 H 2593.19 -5.14607 -1.11746 0
M  V30 28133 H 2595.68 -3.75746 -0.402936 0
M  V30 28134 H 2595.99 -7.72542 -0.199577 0
M  V30 28135 H 2594.34 -6.9475 -0.186433 0
M  V30 28136 H 2597.53 -4.66254 -0.415258 0
M  V30 28137 H 2597.7 -6.47196 -0.322752 0
M  V30 28138 N 2591.11 0.29574 -1.548 0
M  V30 28139 C 2592.07 1.34804 -1.85366 0
M  V30 28140 C 2593.07 1.43435 -0.726842 0
M  V30 28141 O 2594.26 1.4298 -0.995113 0
M  V30 28142 C 2591.39 2.73226 -2.03864 0
M  V30 28143 H 2592.59 1.08944 -2.79412 0
M  V30 28144 H 2590.14 0.532676 -1.46943 0
M  V30 28145 H 2590.88 3.04301 -1.12123 0
M  V30 28146 H 2590.66 2.68351 -2.85885 0
M  V30 28147 H 2592.15 3.49301 -2.28863 0
M  V30 28148 N 2592.59 1.47346 0.559187 0
M  V30 28149 C 2593.55 1.59238 1.64851 0
M  V30 28150 C 2594.55 0.467634 1.5385 0
M  V30 28151 O 2595.74 0.732645 1.58044 0
M  V30 28152 C 2592.87 1.53501 3.04385 0
M  V30 28153 H 2594.07 2.56341 1.55657 0
M  V30 28154 H 2591.62 1.35507 0.778949 0
M  V30 28155 H 2592.35 0.57766 3.19114 0
M  V30 28156 H 2592.14 2.35128 3.13779 0
M  V30 28157 H 2593.63 1.64957 3.83639 0
M  V30 28158 N 2594.07 -0.805758 1.35445 0
M  V30 28159 C 2595.31 -1.57625 1.3013 0
M  V30 28160 C 2595.67 -1.91609 -0.122533 0
M  V30 28161 O 2596.87 -2.6712 -0.30006 0
M  V30 28162 C 2595.14 -2.82969 2.18319 0
M  V30 28163 S 2596.7 -3.73366 2.30528 0
M  V30 28164 H 2593.52 -0.540058 0.462449 0
M  V30 28165 H 2596.12 -0.95039 1.70844 0
M  V30 28166 H 2594.82 -2.56028 3.20746 0
M  V30 28167 H 2594.36 -3.5054 1.78564 0
M  V30 28168 H 2596.37 -4.73278 1.4907 0
M  V30 28169 N 2595.54 -1.19456 -1.02801 0
M  V30 28170 C 2596.79 -0.995753 -1.75867 0
M  V30 28171 C 2597.11 0.47451 -1.89139 0
M  V30 28172 O 2596.38 1.34363 -1.4256 0
M  V30 28173 H 2594.96 -0.365446 -0.651504 0
M  V30 28174 H 2597.62 -1.50365 -1.24001 0
M  V30 28175 H 2596.72 -1.44452 -2.76659 0
M  V30 28176 N 2597.02 1.21924 -0.998617 0
M  V30 28177 C 2598.44 1.42921 -0.710328 0
M  V30 28178 C 2598.64 1.88316 0.7169 0
M  V30 28179 O 2597.69 2.04064 1.48708 0
M  V30 28180 C 2599.01 2.46597 -1.72076 0
M  V30 28181 C 2600.55 2.60389 -1.73686 0
M  V30 28182 C 2601.03 3.67291 -2.73607 0
M  V30 28183 N 2602.52 3.74755 -2.72236 0
M  V30 28184 C 2603.26 4.57081 -3.46214 0
M  V30 28185 N 2602.75 5.43354 -4.29812 0
M  V30 28186 N 2604.54 4.51445 -3.34894 0
M  V30 28187 H 2596.7 0.907666 -1.92029 0
M  V30 28188 H 2598.96 0.460761 -0.828495 0
M  V30 28189 H 2598.66 2.20201 -2.74234 0
M  V30 28190 H 2598.54 3.45296 -1.51824 0
M  V30 28191 H 2600.93 2.86126 -0.722223 0
M  V30 28192 H 2601.01 1.61946 -1.98008 0
M  V30 28193 H 2600.65 3.42301 -3.75223 0
M  V30 28194 H 2600.58 4.65316 -2.46553 0
M  V30 28195 H 2603.07 3.13116 -2.11581 0
M  V30 28196 H 2603.38 6.0321 -4.83071 0
M  V30 28197 H 2601.73 5.42917 -4.33897 0
M  V30 28198 H 2604.92 3.83073 -2.69022 0
M  V30 28199 H 2605.09 5.15372 -3.92805 0
M  V30 28200 N 2598.5 0.772537 1.37367 0
M  V30 28201 C 2599.75 0.333896 1.98917 0
M  V30 28202 C 2600.06 -1.09586 1.62019 0
M  V30 28203 O 2601.27 -1.63593 2.16679 0
M  V30 28204 C 2599.72 0.546033 3.55734 0
M  V30 28205 C 2599.33 1.9861 4.01569 0
M  V30 28206 C 2601.08 0.171054 4.24155 0
M  V30 28207 C 2598.98 2.14579 5.51099 0
M  V30 28208 H 2597.91 0.121098 0.744212 0
M  V30 28209 H 2600.56 0.951778 1.56887 0
M  V30 28210 H 2598.95 -0.141317 3.95748 0
M  V30 28211 H 2600.12 2.70847 3.72798 0
M  V30 28212 H 2598.43 2.31775 3.45933 0
M  V30 28213 H 2601.03 0.268874 5.34024 0
M  V30 28214 H 2601.37 -0.878783 4.06919 0
M  V30 28215 H 2601.91 0.810983 3.89446 0
M  V30 28216 H 2598.65 3.17885 5.73262 0
M  V30 28217 H 2598.17 1.46827 5.81551 0
M  V30 28218 H 2599.85 1.94479 6.17079 0
M  V30 28219 N 2599.98 -1.48664 0.523142 0
M  V30 28220 C 2600.93 -2.26477 -0.263066 0
M  V30 28221 C 2601.91 -1.32282 -0.915982 0
M  V30 28222 O 2603.1 -1.56864 -0.819919 0
M  V30 28223 C 2600.23 -3.17176 -1.31356 0
M  V30 28224 C 2599.32 -4.18842 -0.665775 0
M  V30 28225 N 2599.71 -5.05209 0.244522 0
M  V30 28226 C 2598.01 -4.36328 -0.923787 0
M  V30 28227 C 2598.71 -5.78413 0.617545 0
M  V30 28228 N 2597.68 -5.43596 -0.0197731 0
M  V30 28229 H 2601.49 -2.90628 0.437346 0
M  V30 28230 H 2599 -1.58786 0.340703 0
M  V30 28231 H 2601 -3.71574 -1.89045 0
M  V30 28232 H 2599.66 -2.5458 -2.01542 0
M  V30 28233 H 2600.67 -5.14215 0.616712 0
M  V30 28234 H 2597.35 -3.84926 -1.61673 0
M  V30 28235 H 2598.74 -6.57918 1.36357 0
M  V30 28236 N 2601.46 -0.257958 -1.55475 0
M  V30 28237 C 2602.69 0.366991 -2.03314 0
M  V30 28238 C 2603.09 1.51279 -1.13628 0
M  V30 28239 O 2602.44 1.83124 -0.145366 0
M  V30 28240 C 2602.5 0.926223 -3.47363 0
M  V30 28241 C 2602.16 -0.0887387 -4.56914 0
M  V30 28242 C 2603.16 -0.902213 -5.12012 0
M  V30 28243 C 2600.84 -0.218025 -5.01827 0
M  V30 28244 C 2602.84 -1.83132 -6.10525 0
M  V30 28245 C 2600.53 -1.15063 -6.0017 0
M  V30 28246 C 2601.52 -1.9558 -6.54399 0
M  V30 28247 O 2601.21 -2.87266 -7.50822 0
M  V30 28248 H 2600.94 0.0900325 -0.669978 0
M  V30 28249 H 2603.5 -0.382709 -2.01803 0
M  V30 28250 H 2601.73 1.72569 -3.46059 0
M  V30 28251 H 2603.42 1.46243 -3.7864 0
M  V30 28252 H 2604.18 -0.812975 -4.78138 0
M  V30 28253 H 2600.06 0.39864 -4.59273 0
M  V30 28254 H 2603.61 -2.4602 -6.52779 0
M  V30 28255 H 2599.5 -1.24075 -6.33463 0
M  V30 28256 H 2600.27 -2.81753 -7.68478 0
M  V30 28257 N 2602.93 1.57593 0.0150108 0
M  V30 28258 C 2604.16 1.94176 0.71436 0
M  V30 28259 C 2604.58 0.858871 1.68133 0
M  V30 28260 O 2603.93 -0.163535 1.81766 0
M  V30 28261 C 2603.99 3.30738 1.45927 0
M  V30 28262 O 2603.71 4.34869 0.531091 0
M  V30 28263 C 2605.21 3.8169 2.2545 0
M  V30 28264 H 2602.43 0.640528 0.199912 0
M  V30 28265 H 2604.97 2.04476 -0.0316455 0
M  V30 28266 H 2603.13 3.21793 2.15703 0
M  V30 28267 H 2603.54 5.1378 1.055 0
M  V30 28268 H 2605.01 4.79714 2.73091 0
M  V30 28269 H 2605.49 3.13612 3.0748 0
M  V30 28270 H 2606.1 3.93763 1.6072 0
M  V30 28271 N 2604.41 -0.287527 1.54955 0
M  V30 28272 C 2605.32 -1.37733 1.89913 0
M  V30 28273 C 2606.34 -1.5479 0.794729 0
M  V30 28274 O 2607.51 -1.69196 1.09246 0
M  V30 28275 C 2604.58 -2.71896 2.15113 0
M  V30 28276 C 2603.64 -2.63709 3.38757 0
M  V30 28277 C 2602.87 -3.91473 3.62746 0
M  V30 28278 O 2603.1 -4.91473 2.89501 0
M  V30 28279 O 2602.03 -3.92553 4.56274 0
M  V30 28280 H 2605.86 -1.11087 2.82654 0
M  V30 28281 H 2603.44 -0.484782 1.41316 0
M  V30 28282 H 2605.32 -3.5125 2.32812 0
M  V30 28283 H 2604 -2.98358 1.25556 0
M  V30 28284 H 2602.91 -1.8278 3.26408 0
M  V30 28285 H 2604.24 -2.42198 4.28487 0
M  V30 28286 N 2605.89 -1.47641 -0.551365 0
M  V30 28287 C 2606.82 -1.55113 -1.67378 0
M  V30 28288 C 2607.8 -0.402884 -1.5753 0
M  V30 28289 O 2608.99 -0.611506 -1.78306 0
M  V30 28290 C 2606.11 -1.45914 -3.05658 0
M  V30 28291 C 2605.16 -2.65313 -3.33933 0
M  V30 28292 S 2605.99 -4.27463 -3.22546 0
M  V30 28293 C 2607.15 -4.20826 -4.6331 0
M  V30 28294 H 2607.38 -2.5007 -1.60786 0
M  V30 28295 H 2604.91 -1.3591 -0.73265 0
M  V30 28296 H 2606.87 -1.41293 -3.85417 0
M  V30 28297 H 2605.53 -0.523302 -3.0971 0
M  V30 28298 H 2604.73 -2.54956 -4.34757 0
M  V30 28299 H 2604.33 -2.67086 -2.61804 0
M  V30 28300 H 2606.62 -3.89441 -5.54385 0
M  V30 28301 H 2607.56 -5.21756 -4.78723 0
M  V30 28302 H 2607.97 -3.51601 -4.4163 0
M  V30 28303 N 2607.37 0.798563 -1.3587 0
M  V30 28304 C 2608.6 1.58489 -1.32532 0
M  V30 28305 C 2609.01 1.88949 0.0975073 0
M  V30 28306 O 2608.35 1.49876 1.06221 0
M  V30 28307 C 2608.41 2.93746 -2.07252 0
M  V30 28308 C 2608.08 2.86062 -3.56396 0
M  V30 28309 C 2609.07 2.58939 -4.50829 0
M  V30 28310 C 2606.76 3.04926 -3.99156 0
M  V30 28311 C 2608.75 2.5077 -5.85998 0
M  V30 28312 C 2606.44 2.9638 -5.34418 0
M  V30 28313 C 2607.44 2.69338 -6.27651 0
M  V30 28314 O 2607.12 2.60769 -7.60431 0
M  V30 28315 H 2606.86 0.498548 -0.456537 0
M  V30 28316 H 2609.41 0.999767 -1.79426 0
M  V30 28317 H 2607.64 3.54273 -1.55007 0
M  V30 28318 H 2609.33 3.5495 -1.96889 0
M  V30 28319 H 2610.1 2.44076 -4.19108 0
M  V30 28320 H 2605.97 3.24983 -3.26966 0
M  V30 28321 H 2609.52 2.29584 -6.58739 0
M  V30 28322 H 2605.42 3.10803 -5.65749 0
M  V30 28323 H 2606.18 2.76318 -7.70448 0
M  V30 28324 N 2608.85 1.19999 1.02166 0
M  V30 28325 C 2609.76 0.959811 2.14067 0
M  V30 28326 C 2610.77 -0.0826244 1.73804 0
M  V30 28327 O 2611.95 0.103669 2.01133 0
M  V30 28328 C 2609.01 0.509519 3.42936 0
M  V30 28329 C 2608.07 1.6222 3.97471 0
M  V30 28330 C 2607.31 1.1933 5.20188 0
M  V30 28331 O 2607.53 0.0598729 5.70369 0
M  V30 28332 O 2606.46 1.99873 5.67745 0
M  V30 28333 H 2610.29 1.89662 2.37196 0
M  V30 28334 H 2607.88 0.983431 1.12468 0
M  V30 28335 H 2609.76 0.267396 4.20551 0
M  V30 28336 H 2608.43 -0.398764 3.21234 0
M  V30 28337 H 2607.34 1.91856 3.21158 0
M  V30 28338 H 2608.67 2.50731 4.2355 0
M  V30 28339 N 2610.32 -1.21392 1.00507 0
M  V30 28340 C 2611.26 -2.2242 0.510359 0
M  V30 28341 C 2612.24 -1.56646 -0.435972 0
M  V30 28342 O 2613.42 -1.85056 -0.358677 0
M  V30 28343 C 2610.55 -3.37711 -0.258673 0
M  V30 28344 C 2609.59 -4.21739 0.635469 0
M  V30 28345 S 2610.43 -4.92694 2.09792 0
M  V30 28346 C 2611.58 -6.11416 1.33872 0
M  V30 28347 H 2611.81 -2.64039 1.36641 0
M  V30 28348 H 2609.35 -1.31261 0.813014 0
M  V30 28349 H 2611.31 -4.04551 -0.696301 0
M  V30 28350 H 2609.97 -2.94575 -1.09015 0
M  V30 28351 H 2609.16 -5.03982 0.0431075 0
M  V30 28352 H 2608.76 -3.60094 1.01038 0
M  V30 28353 H 2611.05 -6.74724 0.61266 0
M  V30 28354 H 2612 -6.75088 2.13686 0
M  V30 28355 H 2612.4 -5.58115 0.846666 0
M  V30 28356 N 2611.8 -0.779811 -1.36955 0
M  V30 28357 C 2612.73 -0.185692 -2.3276 0
M  V30 28358 C 2613.71 0.673961 -1.56179 0
M  V30 28359 O 2614.9 0.609765 -1.84379 0
M  V30 28360 C 2612.03 0.687904 -3.40419 0
M  V30 28361 C 2610.98 -0.0710854 -4.27941 0
M  V30 28362 C 2610.31 0.92248 -5.26682 0
M  V30 28363 C 2611.61 -1.25476 -5.07004 0
M  V30 28364 H 2613.3 -0.986058 -2.82696 0
M  V30 28365 H 2610.85 -0.475616 -1.35919 0
M  V30 28366 H 2612.8 1.1134 -4.06425 0
M  V30 28367 H 2611.53 1.52088 -2.89028 0
M  V30 28368 H 2610.18 -0.477454 -3.63478 0
M  V30 28369 H 2609.83 1.75022 -4.71568 0
M  V30 28370 H 2609.53 0.419134 -5.86103 0
M  V30 28371 H 2611.06 1.34675 -5.95563 0
M  V30 28372 H 2612.47 -0.9055 -5.66104 0
M  V30 28373 H 2610.87 -1.69074 -5.7579 0
M  V30 28374 H 2611.94 -2.05489 -4.39207 0
M  V30 28375 N 2613.28 1.48384 -0.531019 0
M  V30 28376 C 2614.51 2.069 -0.00137759 0
M  V30 28377 C 2614.92 1.38742 1.28047 0
M  V30 28378 O 2614.28 0.475275 1.76203 0
M  V30 28379 C 2614.33 3.60798 0.225192 0
M  V30 28380 O 2614.05 4.26396 -1.00587 0
M  V30 28381 C 2615.55 4.36111 0.795096 0
M  V30 28382 H 2612.77 0.670139 -0.0339822 0
M  V30 28383 H 2615.32 1.90759 -0.736959 0
M  V30 28384 H 2613.47 3.7654 0.910825 0
M  V30 28385 H 2613.89 5.18558 -0.787256 0
M  V30 28386 H 2615.36 5.44563 0.903047 0
M  V30 28387 H 2615.84 4.0061 1.80024 0
M  V30 28388 H 2616.44 4.25049 0.145995 0
M  V30 28389 N 2614.76 0.2662 1.55336 0
M  V30 28390 C 2615.69 -0.618941 2.25147 0
M  V30 28391 C 2616.67 -1.16602 1.23847 0
M  V30 28392 O 2617.85 -1.20181 1.52546 0
M  V30 28393 C 2614.98 -1.80723 2.96575 0
M  V30 28394 C 2613.94 -1.39208 4.04729 0
M  V30 28395 C 2613.26 -2.66275 4.63683 0
M  V30 28396 C 2614.56 -0.548851 5.19408 0
M  V30 28397 H 2616.26 -0.036759 2.99377 0
M  V30 28398 H 2613.8 -0.0162398 1.43991 0
M  V30 28399 H 2615.76 -2.43226 3.44121 0
M  V30 28400 H 2614.48 -2.4151 2.19865 0
M  V30 28401 H 2613.14 -0.790288 3.5798 0
M  V30 28402 H 2612.79 -3.25301 3.83651 0
M  V30 28403 H 2612.49 -2.39213 5.36704 0
M  V30 28404 H 2614.01 -3.29642 5.13973 0
M  V30 28405 H 2615.43 -1.07866 5.63061 0
M  V30 28406 H 2613.82 -0.373488 5.98937 0
M  V30 28407 H 2614.89 0.434479 4.8295 0
M  V30 28408 N 2616.24 -1.57599 -0.0066531 0
M  V30 28409 C 2617.17 -2.03433 -1.03394 0
M  V30 28410 C 2618.15 -0.9229 -1.33871 0
M  V30 28411 O 2619.33 -1.19051 -1.46148 0
M  V30 28412 C 2616.46 -2.42632 -2.36321 0
M  V30 28413 C 2615.5 -3.64441 -2.21551 0
M  V30 28414 S 2616.34 -5.12644 -1.5478 0
M  V30 28415 C 2617.49 -5.55106 -2.89151 0
M  V30 28416 H 2617.73 -2.90249 -0.643636 0
M  V30 28417 H 2615.26 -1.52863 -0.217322 0
M  V30 28418 H 2617.22 -2.65885 -3.12755 0
M  V30 28419 H 2615.88 -1.56227 -2.72492 0
M  V30 28420 H 2615.07 -3.89598 -3.19733 0
M  V30 28421 H 2614.67 -3.41156 -1.53261 0
M  V30 28422 H 2616.97 -5.5716 -3.8546 0
M  V30 28423 H 2617.91 -6.55137 -2.68701 0
M  V30 28424 H 2618.32 -4.82655 -2.92754 0
M  V30 28425 N 2617.72 0.279305 -1.55105 0
M  V30 28426 C 2618.94 1.03442 -1.79762 0
M  V30 28427 C 2619.37 1.79383 -0.565984 0
M  V30 28428 O 2618.72 1.74714 0.484229 0
M  V30 28429 C 2618.77 1.97366 -3.01793 0
M  V30 28430 O 2617.88 3.06033 -2.76437 0
M  V30 28431 H 2617.22 0.296069 -0.594339 0
M  V30 28432 H 2619.75 0.31013 -2.02236 0
M  V30 28433 H 2619.76 2.39436 -3.30355 0
M  V30 28434 H 2618.43 1.41503 -3.91088 0
M  V30 28435 H 2617.01 2.68323 -2.58954 0
M  V30 28436 N 2619.19 1.47931 0.543528 0
M  V30 28437 C 2620.6 1.48955 1.12558 0
M  V30 28438 C 2620.96 0.251788 1.94578 0
M  V30 28439 O 2620.08 -0.642219 2.06651 0
M  V30 28440 C 2620.68 2.69896 2.04797 0
M  V30 28441 C 2619.23 2.73835 2.58246 0
M  V30 28442 C 2618.38 2.42268 1.34914 0
M  V30 28443 H 2621.33 1.55243 0.329443 0
M  V30 28444 H 2621.35 2.47644 2.88882 0
M  V30 28445 H 2620.87 3.59965 1.45074 0
M  V30 28446 H 2618.97 1.8794 3.21729 0
M  V30 28447 H 2619.08 3.74901 2.98306 0
M  V30 28448 H 2617.44 1.93137 1.66043 0
M  V30 28449 H 2618.23 3.34562 0.769634 0
M  V30 28450 N 2620.67 -0.791347 1.36292 0
M  V30 28451 C 2622.08 -1.36639 1.27227 0
M  V30 28452 C 2622.43 -1.95999 -0.0887624 0
M  V30 28453 O 2621.56 -1.92418 -0.990173 0
M  V30 28454 C 2622.15 -2.48417 2.30379 0
M  V30 28455 C 2620.71 -3.01742 2.25009 0
M  V30 28456 C 2619.86 -1.74807 2.15263 0
M  V30 28457 H 2622.81 -0.593147 1.47199 0
M  V30 28458 H 2622.83 -3.27382 1.93911 0
M  V30 28459 H 2622.34 -2.05183 3.29426 0
M  V30 28460 H 2620.44 -3.494 1.29423 0
M  V30 28461 H 2620.56 -3.58687 3.17616 0
M  V30 28462 H 2618.92 -1.96963 1.61486 0
M  V30 28463 H 2619.7 -1.33704 3.16193 0
M  V30 28464 N 2622.15 -1.2054 -1.01528 0
M  V30 28465 C 2623.08 -0.979333 -2.1197 0
M  V30 28466 C 2624.06 0.0921489 -1.6985 0
M  V30 28467 O 2625.25 -0.0656273 -1.94089 0
M  V30 28468 C 2622.38 -0.532044 -3.432 0
M  V30 28469 C 2621.33 -1.54692 -3.99067 0
M  V30 28470 C 2620.66 -0.95622 -5.2608 0
M  V30 28471 C 2621.96 -2.931 -4.32308 0
M  V30 28472 H 2623.65 -1.90302 -2.3114 0
M  V30 28473 H 2621.2 -0.916392 -1.11078 0
M  V30 28474 H 2623.15 -0.361118 -4.1985 0
M  V30 28475 H 2621.87 0.427271 -3.23793 0
M  V30 28476 H 2620.53 -1.70523 -3.24527 0
M  V30 28477 H 2620.18 0.0110654 -5.02999 0
M  V30 28478 H 2619.88 -1.63403 -5.64423 0
M  V30 28479 H 2621.4 -0.79639 -6.05384 0
M  V30 28480 H 2622.82 -2.80772 -4.9984 0
M  V30 28481 H 2621.21 -3.57799 -4.81767 0
M  V30 28482 H 2622.28 -3.44723 -3.41019 0
M  V30 28483 N 2623.63 1.20858 -1.01149 0
M  V30 28484 C 2624.88 1.89718 -0.69652 0
M  V30 28485 C 2625.2 1.78905 0.775756 0
M  V30 28486 O 2624.47 1.18814 1.55757 0
M  V30 28487 H 2623.05 0.702259 -0.25464 0
M  V30 28488 H 2625.71 1.46802 -1.282 0
M  V30 28489 H 2624.8 2.96466 -0.97541 0
M  V30 28490 N 2625.11 0.787064 1.3654 0
M  V30 28491 C 2626.04 0.198033 2.32659 0
M  V30 28492 C 2627.02 -0.665669 1.56534 0
M  V30 28493 O 2628.2 -0.599978 1.84699 0
M  V30 28494 C 2625.33 -0.669841 3.40779 0
M  V30 28495 C 2624.29 0.0937791 4.27897 0
M  V30 28496 C 2623.61 -0.894536 5.27164 0
M  V30 28497 C 2624.91 1.28163 5.06332 0
M  V30 28498 H 2626.61 1.00104 2.82169 0
M  V30 28499 H 2624.15 0.482817 1.35665 0
M  V30 28500 H 2626.1 -1.09184 4.0701 0
M  V30 28501 H 2624.83 -1.50553 2.8983 0
M  V30 28502 H 2623.49 0.496724 3.63219 0
M  V30 28503 H 2623.14 -1.72519 4.72489 0
M  V30 28504 H 2622.84 -0.388046 5.86317 0
M  V30 28505 H 2624.36 -1.31515 5.96269 0
M  V30 28506 H 2625.77 0.93551 5.65616 0
M  V30 28507 H 2624.17 1.72125 5.74885 0
M  V30 28508 H 2625.24 2.07815 4.38111 0
M  V30 28509 N 2626.58 -1.48101 0.53888 0
M  V30 28510 C 2627.83 -2.02098 0.00802152 0
M  V30 28511 C 2628.15 -1.41741 -1.33919 0
M  V30 28512 O 2627.42 -0.585967 -1.86931 0
M  V30 28513 H 2626 -0.747 -2.30875e-05 0
M  V30 28514 H 2628.66 -1.81713 0.704732 0
M  V30 28515 H 2627.76 -3.11959 -0.0937124 0
M  V30 28516 N 2628.06 -0.274434 -1.55192 0
M  V30 28517 C 2629.01 0.613335 -2.22501 0
M  V30 28518 C 2629.98 1.15027 -1.19825 0
M  V30 28519 O 2631.16 1.1997 -1.48364 0
M  V30 28520 C 2628.3 1.79194 -2.9493 0
M  V30 28521 C 2627.42 1.28892 -4.12324 0
M  V30 28522 C 2626.55 2.42926 -4.72398 0
M  V30 28523 C 2625.59 1.89624 -5.81987 0
M  V30 28524 N 2624.73 2.97129 -6.36128 0
M  V30 28525 H 2629.57 0.0327036 -2.97982 0
M  V30 28526 H 2627.1 0.0043756 -1.47099 0
M  V30 28527 H 2629.06 2.48472 -3.35138 0
M  V30 28528 H 2627.69 2.34461 -2.21874 0
M  V30 28529 H 2626.74 0.48926 -3.77241 0
M  V30 28530 H 2628.06 0.858501 -4.91356 0
M  V30 28531 H 2627.21 3.20199 -5.15323 0
M  V30 28532 H 2625.95 2.89283 -3.92641 0
M  V30 28533 H 2624.95 1.10831 -5.38513 0
M  V30 28534 H 2626.18 1.44204 -6.63613 0
M  V30 28535 H 2624.13 3.42869 -5.59265 0
M  V30 28536 H 2624.04 2.58502 -7.10431 0
M  V30 28537 H 2625.31 3.74379 -6.83711 0
M  V30 28538 N 2629.54 1.576 -0.00170483 0
M  V30 28539 C 2630.96 1.55616 0.354395 0
M  V30 28540 C 2631.16 1.0045 1.74677 0
M  V30 28541 O 2630.21 0.639065 2.44279 0
M  V30 28542 C 2631.52 2.99834 0.228067 0
M  V30 28543 C 2633.07 3.11531 0.302879 0
M  V30 28544 C 2633.55 4.57538 0.205656 0
M  V30 28545 N 2635.04 4.6245 0.263503 0
M  V30 28546 C 2635.77 5.73009 0.211641 0
M  V30 28547 N 2635.27 6.92712 0.110277 0
M  V30 28548 N 2637.06 5.61481 0.263631 0
M  V30 28549 H 2629.21 1.91798 -0.912532 0
M  V30 28550 H 2631.48 0.881047 -0.349943 0
M  V30 28551 H 2631.18 3.44041 -0.729995 0
M  V30 28552 H 2631.06 3.63442 1.00945 0
M  V30 28553 H 2633.44 2.67253 1.25139 0
M  V30 28554 H 2633.52 2.50697 -0.508401 0
M  V30 28555 H 2633.17 5.0249 -0.739313 0
M  V30 28556 H 2633.1 5.1632 1.03545 0
M  V30 28557 H 2635.59 3.76339 0.343107 0
M  V30 28558 H 2635.9 7.72762 0.076647 0
M  V30 28559 H 2634.25 6.94959 0.0758804 0
M  V30 28560 H 2637.44 4.66856 0.341028 0
M  V30 28561 H 2637.61 6.47627 0.219748 0
M  V30 28562 N 2631.02 -0.271076 1.55251 0
M  V30 28563 C 2632.26 -1.01005 1.777 0
M  V30 28564 C 2632.62 -1.83428 0.567278 0
M  V30 28565 O 2633.82 -2.60315 0.670059 0
M  V30 28566 C 2632.09 -1.86766 3.04718 0
M  V30 28567 S 2633.65 -2.66903 3.48293 0
M  V30 28568 H 2630.47 -0.340161 0.624349 0
M  V30 28569 H 2633.07 -0.280281 1.9348 0
M  V30 28570 H 2631.78 -1.25142 3.90855 0
M  V30 28571 H 2631.31 -2.6406 2.91609 0
M  V30 28572 H 2633.32 -3.8926 3.07719 0
M  V30 28573 N 2632.5 -1.48217 -0.535675 0
M  V30 28574 C 2633.91 -1.4955 -1.11767 0
M  V30 28575 C 2634.26 -0.262104 -1.94441 0
M  V30 28576 O 2633.38 0.63125 -2.06988 0
M  V30 28577 C 2633.98 -2.70978 -2.03363 0
M  V30 28578 C 2632.54 -2.75201 -2.56791 0
M  V30 28579 C 2631.68 -2.4298 -1.33627 0
M  V30 28580 H 2634.64 -1.55415 -0.321205 0
M  V30 28581 H 2634.66 -2.49172 -2.87565 0
M  V30 28582 H 2634.17 -3.6073 -1.43163 0
M  V30 28583 H 2632.27 -1.89643 -3.20728 0
M  V30 28584 H 2632.38 -3.76477 -2.96313 0
M  V30 28585 H 2630.75 -1.94015 -1.65017 0
M  V30 28586 H 2631.53 -3.34965 -0.751881 0
M  V30 28587 N 2633.97 0.784108 -1.3671 0
M  V30 28588 C 2635.2 1.57817 -1.34568 0
M  V30 28589 C 2635.62 1.87972 0.0694927 0
M  V30 28590 O 2634.98 1.48295 1.04299 0
M  V30 28591 C 2635.03 2.87276 -2.17957 0
M  V30 28592 O 2634.13 3.81111 -1.5757 0
M  V30 28593 H 2633.48 0.478516 -0.460346 0
M  V30 28594 H 2636.01 0.971463 -1.80066 0
M  V30 28595 H 2636.02 3.36496 -2.30727 0
M  V30 28596 H 2634.69 2.64655 -3.20828 0
M  V30 28597 H 2633.27 3.39719 -1.5377 0
M  V30 28598 N 2635.45 1.21076 1.00888 0
M  V30 28599 C 2636.4 0.966548 2.09586 0
M  V30 28600 C 2637.37 -0.10606 1.65761 0
M  V30 28601 O 2638.55 0.0402623 1.90758 0
M  V30 28602 C 2635.69 0.533118 3.40957 0
M  V30 28603 C 2634.81 1.67474 3.98217 0
M  V30 28604 C 2633.94 1.19085 5.1768 0
M  V30 28605 C 2632.98 2.30506 5.67039 0
M  V30 28606 N 2632.12 1.83279 6.77756 0
M  V30 28607 H 2636.96 1.89712 2.29812 0
M  V30 28608 H 2634.5 0.945509 1.12688 0
M  V30 28609 H 2636.45 0.263093 4.1637 0
M  V30 28610 H 2635.08 -0.360449 3.20781 0
M  V30 28611 H 2634.14 2.05949 3.19827 0
M  V30 28612 H 2635.45 2.51343 4.30846 0
M  V30 28613 H 2634.6 0.877256 6.00324 0
M  V30 28614 H 2633.34 0.322151 4.86635 0
M  V30 28615 H 2632.35 2.62673 4.82994 0
M  V30 28616 H 2633.57 3.17865 6.00115 0
M  V30 28617 H 2631.52 0.98747 6.48525 0
M  V30 28618 H 2631.43 2.60724 7.09619 0
M  V30 28619 H 2632.7 1.54942 7.63946 0
M  V30 28620 N 2636.93 -1.2032 1.01789 0
M  V30 28621 C 2638.18 -1.90002 0.709018 0
M  V30 28622 C 2638.51 -1.78731 -0.759541 0
M  V30 28623 O 2637.78 -1.17237 -1.55196 0
M  V30 28624 C 2638.07 -3.41346 1.14696 0
M  V30 28625 C 2637.92 -3.61544 2.67593 0
M  V30 28626 C 2639.24 -4.34183 0.719226 0
M  V30 28627 H 2636.36 -0.689974 0.259046 0
M  V30 28628 H 2639 -1.4169 1.26586 0
M  V30 28629 H 2637.15 -3.82623 0.673195 0
M  V30 28630 H 2638.82 -3.29511 3.22832 0
M  V30 28631 H 2637.07 -3.04971 3.08505 0
M  V30 28632 H 2637.74 -4.67638 2.93289 0
M  V30 28633 H 2640.21 -4.0056 1.12654 0
M  V30 28634 H 2639.09 -5.38692 1.05367 0
M  V30 28635 H 2639.35 -4.40472 -0.379034 0
M  V30 28636 N 2638.41 -0.794293 -1.3612 0
M  V30 28637 C 2639.37 -0.201929 -2.28309 0
M  V30 28638 C 2640.37 0.603577 -1.49042 0
M  V30 28639 O 2641.56 0.423858 -1.68965 0
M  V30 28640 C 2638.69 0.719919 -3.33212 0
M  V30 28641 H 2639.89 -1.01486 -2.82207 0
M  V30 28642 H 2637.44 -0.564062 -1.45767 0
M  V30 28643 H 2638.17 1.55701 -2.84478 0
M  V30 28644 H 2637.96 0.144197 -3.91835 0
M  V30 28645 H 2639.45 1.12909 -4.02046 0
M  V30 28646 N 2639.89 1.47813 -0.546727 0
M  V30 28647 C 2641.12 2.06587 -0.0232882 0
M  V30 28648 C 2641.52 1.40135 1.27117 0
M  V30 28649 O 2640.87 0.488337 1.7709 0
M  V30 28650 C 2640.93 3.58601 0.254054 0
M  V30 28651 C 2640.59 4.47029 -0.949409 0
M  V30 28652 C 2641.59 4.85786 -1.85225 0
M  V30 28653 C 2639.28 4.88695 -1.16113 0
M  V30 28654 C 2641.27 5.64996 -2.95057 0
M  V30 28655 C 2638.96 5.67672 -2.26256 0
M  V30 28656 C 2639.95 6.05732 -3.1556 0
M  V30 28657 O 2639.64 6.8312 -4.23796 0
M  V30 28658 H 2639.37 0.67493 -0.03802 0
M  V30 28659 H 2641.93 1.90955 -0.756665 0
M  V30 28660 H 2640.16 3.72407 1.04161 0
M  V30 28661 H 2641.85 3.99434 0.721599 0
M  V30 28662 H 2642.61 4.54204 -1.70069 0
M  V30 28663 H 2638.49 4.58544 -0.47524 0
M  V30 28664 H 2642.04 5.94622 -3.64789 0
M  V30 28665 H 2637.93 5.98666 -2.4139 0
M  V30 28666 H 2638.7 7.01499 -4.21713 0
M  V30 28667 N 2641.36 0.28266 1.55044 0
M  V30 28668 C 2642.31 -0.601526 2.22823 0
M  V30 28669 C 2643.28 -1.1439 1.20433 0
M  V30 28670 O 2644.47 -1.19181 1.48998 0
M  V30 28671 C 2641.61 -1.77627 2.95876 0
M  V30 28672 C 2640.72 -1.26703 4.13002 0
M  V30 28673 C 2639.85 -2.40418 4.7368 0
M  V30 28674 C 2638.89 -1.86535 5.82985 0
M  V30 28675 N 2638.03 -2.93751 6.37695 0
M  V30 28676 H 2642.87 -0.0169004 2.97995 0
M  V30 28677 H 2640.41 0.0034255 1.471 0
M  V30 28678 H 2642.37 -2.46691 3.36451 0
M  V30 28679 H 2641 -2.33281 2.23114 0
M  V30 28680 H 2640.05 -0.469247 3.77495 0
M  V30 28681 H 2641.36 -0.832431 4.91805 0
M  V30 28682 H 2640.51 -3.17461 5.17014 0
M  V30 28683 H 2639.25 -2.87196 3.94169 0
M  V30 28684 H 2638.26 -1.07973 5.39094 0
M  V30 28685 H 2639.48 -1.40683 6.64368 0
M  V30 28686 H 2637.43 -3.39898 5.61075 0
M  V30 28687 H 2637.35 -2.54731 7.11792 0
M  V30 28688 H 2638.61 -3.70748 6.85687 0
M  V30 28689 N 2642.84 -1.57597 0.0100627 0
M  V30 28690 C 2644.26 -1.55801 -0.346137 0
M  V30 28691 C 2644.46 -1.01375 -1.74142 0
M  V30 28692 O 2643.51 -0.652011 -2.43937 0
M  V30 28693 C 2644.83 -2.99951 -0.212163 0
M  V30 28694 C 2646.38 -3.11687 -0.286354 0
M  V30 28695 C 2646.85 -4.57641 -0.181389 0
M  V30 28696 N 2648.34 -4.62583 -0.238974 0
M  V30 28697 C 2649.08 -5.73113 -0.18125 0
M  V30 28698 N 2648.57 -6.92761 -0.0735392 0
M  V30 28699 N 2650.37 -5.61613 -0.23385 0
M  V30 28700 H 2642.52 -1.91312 0.92269 0
M  V30 28701 H 2644.78 -0.879179 0.354611 0
M  V30 28702 H 2644.49 -3.43649 0.74823 0
M  V30 28703 H 2644.36 -3.63972 -0.99016 0
M  V30 28704 H 2646.75 -2.67913 -1.2372 0
M  V30 28705 H 2646.83 -2.50424 0.521689 0
M  V30 28706 H 2646.47 -5.02091 0.765951 0
M  V30 28707 H 2646.4 -5.16862 -1.00805 0
M  V30 28708 H 2648.89 -3.76516 -0.323144 0
M  V30 28709 H 2649.21 -7.72792 -0.0356645 0
M  V30 28710 H 2647.55 -6.94989 -0.0390239 0
M  V30 28711 H 2650.74 -4.6703 -0.316265 0
M  V30 28712 H 2650.91 -6.47735 -0.1854 0
M  V30 28713 N 2644.32 0.262839 -1.55393 0
M  V30 28714 C 2645.25 1.32913 -1.9198 0
M  V30 28715 C 2646.23 1.51016 -0.782826 0
M  V30 28716 O 2647.42 1.6389 -1.04181 0
M  V30 28717 C 2644.55 2.68684 -2.2006 0
M  V30 28718 C 2643.5 2.65298 -3.35858 0
M  V30 28719 C 2642.83 4.04715 -3.49442 0
M  V30 28720 C 2644.13 2.23677 -4.71981 0
M  V30 28721 H 2645.82 1.02539 -2.81293 0
M  V30 28722 H 2643.37 0.491823 -1.35341 0
M  V30 28723 H 2645.32 3.43399 -2.44243 0
M  V30 28724 H 2644.04 3.00661 -1.27556 0
M  V30 28725 H 2642.7 1.9304 -3.11659 0
M  V30 28726 H 2642.35 4.33932 -2.54386 0
M  V30 28727 H 2642.05 4.03342 -4.27304 0
M  V30 28728 H 2643.57 4.81155 -3.75929 0
M  V30 28729 H 2644.99 2.88118 -4.95642 0
M  V30 28730 H 2643.39 2.33446 -5.52832 0
M  V30 28731 H 2644.46 1.18819 -4.70117 0
M  V30 28732 N 2645.8 1.48499 0.527807 0
M  V30 28733 C 2647.04 1.56859 1.28542 0
M  V30 28734 C 2647.38 0.242685 1.92678 0
M  V30 28735 O 2646.65 -0.751514 1.79395 0
M  V30 28736 C 2646.94 2.70843 2.3731 0
M  V30 28737 C 2646.79 4.13146 1.77851 0
M  V30 28738 C 2648.11 2.80579 3.39063 0
M  V30 28739 H 2645.23 0.570979 0.465996 0
M  V30 28740 H 2647.87 1.80681 0.587752 0
M  V30 28741 H 2646.02 2.50663 2.96817 0
M  V30 28742 H 2647.69 4.44771 1.22377 0
M  V30 28743 H 2645.93 4.20044 1.08375 0
M  V30 28744 H 2646.6 4.88725 2.56615 0
M  V30 28745 H 2649.08 2.98867 2.89513 0
M  V30 28746 H 2647.96 3.62058 4.1256 0
M  V30 28747 H 2648.22 1.88825 3.99747 0
M  V30 28748 N 2647.28 -0.776847 1.37123 0
M  V30 28749 C 2648.21 -1.90399 1.35168 0
M  V30 28750 C 2649.19 -1.68657 0.221099 0
M  V30 28751 O 2650.37 -1.89589 0.420675 0
M  V30 28752 C 2647.5 -3.27609 1.1528 0
M  V30 28753 C 2646.46 -3.63904 2.25295 0
M  V30 28754 C 2645.78 -4.996 1.90536 0
M  V30 28755 C 2647.08 -3.71181 3.67453 0
M  V30 28756 H 2648.78 -1.92293 2.29486 0
M  V30 28757 H 2646.32 -0.923753 1.10466 0
M  V30 28758 H 2648.28 -4.06094 1.12543 0
M  V30 28759 H 2647 -3.26135 0.17416 0
M  V30 28760 H 2645.66 -2.87724 2.27179 0
M  V30 28761 H 2645.31 -4.9466 0.912147 0
M  V30 28762 H 2645.01 -5.24853 2.64202 0
M  V30 28763 H 2646.53 -5.8049 1.89377 0
M  V30 28764 H 2647.95 -4.39829 3.67727 0
M  V30 28765 H 2646.34 -4.07929 4.4013 0
M  V30 28766 H 2647.41 -2.7197 4.01448 0
M  V30 28767 N 2648.76 -1.2161 -1.00244 0
M  V30 28768 C 2649.69 -0.920929 -2.08792 0
M  V30 28769 C 2650.67 0.132524 -1.62059 0
M  V30 28770 O 2651.85 0.00300347 -1.885 0
M  V30 28771 C 2648.98 -0.383286 -3.36524 0
M  V30 28772 C 2648.02 -1.41994 -4.02169 0
M  V30 28773 S 2648.86 -2.99001 -4.4425 0
M  V30 28774 C 2650.01 -2.4685 -5.75166 0
M  V30 28775 H 2650.25 -1.84014 -2.33508 0
M  V30 28776 H 2647.78 -1.04611 -1.1356 0
M  V30 28777 H 2649.74 -0.0796593 -4.10423 0
M  V30 28778 H 2648.4 0.514657 -3.09855 0
M  V30 28779 H 2647.59 -0.993422 -4.94112 0
M  V30 28780 H 2647.19 -1.67177 -3.34556 0
M  V30 28781 H 2649.48 -1.87496 -6.51039 0
M  V30 28782 H 2650.43 -3.37246 -6.22632 0
M  V30 28783 H 2650.84 -1.8847 -5.32108 0
M  V30 28784 N 2650.23 1.19778 -1.02425 0
M  V30 28785 C 2651.18 2.24874 -0.594514 0
M  V30 28786 C 2652.18 1.65297 0.370569 0
M  V30 28787 O 2653.38 1.78397 0.239653 0
M  V30 28788 H 2649.76 0.731599 -0.173974 0
M  V30 28789 H 2651.73 2.58442 -1.49165 0
M  V30 28790 C 2650.48 3.47673 0.0435901 0
M  V30 28791 H 2649.8 3.938 -0.690032 0
M  V30 28792 H 2651.24 4.22885 0.307287 0
M  V30 28793 C 2649.7 3.11276 1.28876 0
M  V30 28794 O 2650.23 3.23508 2.3813 0
M  V30 28795 N 2648.43 2.65752 1.17576 0
M  V30 28796 H 2647.98 2.55999 0.286724 0
M  V30 28797 H 2647.94 2.4177 2.00984 0
M  V30 28798 N 2651.71 0.801501 1.35697 0
M  V30 28799 C 2652.64 0.153962 2.2768 0
M  V30 28800 C 2653.62 -0.677064 1.47833 0
M  V30 28801 O 2654.81 -0.645443 1.77105 0
M  V30 28802 C 2651.93 -0.786929 3.29432 0
M  V30 28803 C 2650.98 -0.0361697 4.26485 0
M  V30 28804 S 2651.81 1.29639 5.19571 0
M  V30 28805 C 2652.97 0.359815 6.24865 0
M  V30 28806 H 2653.2 0.93385 2.82253 0
M  V30 28807 H 2650.73 0.596308 1.4242 0
M  V30 28808 H 2652.69 -1.32429 3.88552 0
M  V30 28809 H 2651.35 -1.54016 2.73748 0
M  V30 28810 H 2650.55 -0.75058 4.9838 0
M  V30 28811 H 2650.15 0.431082 3.71507 0
M  V30 28812 H 2652.44 -0.456835 6.75958 0
M  V30 28813 H 2653.38 1.0478 7.00305 0
M  V30 28814 H 2653.79 -0.0422281 5.64484 0
M  V30 28815 N 2653.19 -1.47521 0.554558 0
M  V30 28816 C 2654.6 -1.86311 0.120479 0
M  V30 28817 C 2654.95 -1.46148 -1.30902 0
M  V30 28818 O 2654.08 -0.863329 -1.98433 0
M  V30 28819 C 2654.67 -3.38137 0.211868 0
M  V30 28820 C 2653.23 -3.76029 -0.167158 0
M  V30 28821 C 2652.38 -2.71574 0.560624 0
M  V30 28822 H 2655.33 -1.39076 0.764433 0
M  V30 28823 H 2655.35 -3.76203 -0.570209 0
M  V30 28824 H 2654.86 -3.67338 1.25238 0
M  V30 28825 H 2652.96 -3.52444 -1.20888 0
M  V30 28826 H 2653.08 -4.78725 0.189557 0
M  V30 28827 H 2651.44 -2.547 0.00401313 0
M  V30 28828 H 2652.22 -3.03617 1.60224 0
M  V30 28829 N 2654.67 -0.290879 -1.54892 0
M  V30 28830 C 2655.91 0.321832 -2.0023 0
M  V30 28831 C 2656.25 1.54314 -1.17902 0
M  V30 28832 O 2655.52 1.92848 -0.252964 0
M  V30 28833 C 2655.8 0.688453 -3.53458 0
M  V30 28834 C 2655.66 -0.541287 -4.46531 0
M  V30 28835 C 2656.98 1.51888 -4.13059 0
M  V30 28836 H 2654.1 0.115502 -0.727893 0
M  V30 28837 H 2656.74 -0.400963 -1.85721 0
M  V30 28838 H 2654.89 1.30427 -3.65952 0
M  V30 28839 H 2656.56 -1.17981 -4.45958 0
M  V30 28840 H 2654.8 -1.17643 -4.17543 0
M  V30 28841 H 2655.47 -0.240772 -5.51475 0
M  V30 28842 H 2657.95 0.998649 -4.03938 0
M  V30 28843 H 2656.83 1.74419 -5.20451 0
M  V30 28844 H 2657.09 2.50492 -3.64289 0
M  V30 28845 N 2656.15 1.57589 -0.0184203 0
M  V30 28846 C 2657.11 2.08496 0.951949 0
M  V30 28847 C 2658.11 0.997896 1.2609 0
M  V30 28848 O 2659.3 1.25989 1.20302 0
M  V30 28849 C 2656.43 2.54186 2.27161 0
M  V30 28850 H 2657.62 2.9551 0.511255 0
M  V30 28851 H 2655.18 1.54607 0.229416 0
M  V30 28852 H 2655.91 1.7047 2.75881 0
M  V30 28853 H 2655.7 3.33594 2.06052 0
M  V30 28854 H 2657.19 2.93833 2.96735 0
M  V30 28855 N 2657.62 -0.254594 1.5553 0
M  V30 28856 C 2658.53 -1.33674 1.92791 0
M  V30 28857 C 2659.55 -1.5307 0.827383 0
M  V30 28858 O 2660.73 -1.66841 1.1281 0
M  V30 28859 C 2657.79 -2.67272 2.20832 0
M  V30 28860 C 2656.85 -2.56464 3.44274 0
M  V30 28861 C 2656.08 -3.83691 3.70968 0
M  V30 28862 O 2656.31 -4.85221 2.99861 0
M  V30 28863 O 2655.24 -3.82786 4.64498 0
M  V30 28864 H 2659.07 -1.05066 2.84947 0
M  V30 28865 H 2656.65 -0.454698 1.42313 0
M  V30 28866 H 2658.53 -3.46233 2.4021 0
M  V30 28867 H 2657.21 -2.95627 1.31856 0
M  V30 28868 H 2656.12 -1.75815 3.30212 0
M  V30 28869 H 2657.45 -2.33055 4.33528 0
M  V30 28870 N 2659.1 -1.48777 -0.519925 0
M  V30 28871 C 2660.38 -1.47799 -1.2812 0
M  V30 28872 C 2660.76 -0.195194 -2.10196 0
M  V30 28873 O 2660.11 0.822887 -2.13169 0
M  V30 28874 C 2660.32 -2.74591 -2.15408 0
M  V30 28875 C 2661.66 -3.23325 -2.7522 0
M  V30 28876 O 2662.69 -2.75578 -2.25689 0
M  V30 28877 O 2661.55 -4.06435 -3.65339 0
M  V30 28878 H 2658.64 -0.590711 -0.578783 0
M  V30 28879 H 2661.19 -1.61021 -0.535751 0
M  V30 28880 H 2659.96 -3.5946 -1.54611 0
M  V30 28881 H 2659.58 -2.64138 -2.97182 0
M  V30 28882 N 2660.58 0.769564 -1.37534 0
M  V30 28883 C 2661.51 1.89028 -1.27843 0
M  V30 28884 C 2662.49 1.61825 -0.158532 0
M  V30 28885 O 2663.67 1.85533 -0.333118 0
M  V30 28886 C 2660.8 3.24299 -0.977129 0
M  V30 28887 C 2659.85 3.7041 -2.11421 0
M  V30 28888 S 2660.68 3.83824 -3.73416 0
M  V30 28889 C 2661.84 5.2194 -3.45441 0
M  V30 28890 H 2662.07 1.96959 -2.22698 0
M  V30 28891 H 2659.6 0.930892 -1.23182 0
M  V30 28892 H 2661.56 4.02427 -0.81012 0
M  V30 28893 H 2660.22 3.14066 -0.0460253 0
M  V30 28894 H 2659.41 4.68484 -1.85845 0
M  V30 28895 H 2659.02 2.9939 -2.24146 0
M  V30 28896 H 2661.31 6.0718 -3.00565 0
M  V30 28897 H 2662.25 5.52529 -4.42851 0
M  V30 28898 H 2662.66 4.89981 -2.80319 0
M  V30 28899 N 2662.06 1.22139 0.995977 0
M  V30 28900 C 2663.29 1.07032 1.77064 0
M  V30 28901 C 2663.7 -0.379324 1.8495 0
M  V30 28902 O 2663.06 -1.26295 1.31742 0
M  V30 28903 C 2663.11 1.67161 3.2053 0
M  V30 28904 O 2662.83 3.06455 3.13077 0
M  V30 28905 C 2664.33 1.57287 4.14458 0
M  V30 28906 H 2661.55 0.375384 0.556172 0
M  V30 28907 H 2664.1 1.61668 1.25235 0
M  V30 28908 H 2662.25 1.16596 3.69438 0
M  V30 28909 H 2662.66 3.35362 4.03277 0
M  V30 28910 H 2664.14 2.04087 5.12887 0
M  V30 28911 H 2664.62 0.528871 4.36004 0
M  V30 28912 H 2665.22 2.07143 3.71446 0
M  V30 28913 N 2663.54 -1.19233 1.03059 0
M  V30 28914 C 2664.78 -1.89239 0.729131 0
M  V30 28915 C 2665.12 -1.79526 -0.740541 0
M  V30 28916 O 2664.39 -1.18876 -1.53944 0
M  V30 28917 C 2664.67 -3.4011 1.1831 0
M  V30 28918 C 2664.53 -3.58686 2.71412 0
M  V30 28919 C 2665.85 -4.33396 0.765237 0
M  V30 28920 H 2662.96 -0.687188 0.26635 0
M  V30 28921 H 2665.61 -1.40339 1.28082 0
M  V30 28922 H 2663.76 -3.81887 0.71374 0
M  V30 28923 H 2665.43 -3.26068 3.26308 0
M  V30 28924 H 2663.67 -3.01681 3.11722 0
M  V30 28925 H 2664.34 -4.64501 2.98233 0
M  V30 28926 H 2666.82 -3.99343 1.16896 0
M  V30 28927 H 2665.69 -5.37544 1.11075 0
M  V30 28928 H 2665.96 -4.40849 -0.332295 0
M  V30 28929 N 2665.01 -0.808686 -1.3527 0
M  V30 28930 C 2665.96 -0.193164 -2.2718 0
M  V30 28931 C 2666.95 0.634239 -1.47872 0
M  V30 28932 O 2668.14 0.491152 -1.70049 0
M  V30 28933 C 2665.27 0.655692 -3.3698 0
M  V30 28934 C 2664.36 -0.181555 -4.23711 0
M  V30 28935 N 2664.75 -1.2456 -4.90223 0
M  V30 28936 C 2663.04 0.0364709 -4.45985 0
M  V30 28937 C 2663.75 -1.75692 -5.54533 0
M  V30 28938 N 2662.72 -1.06303 -5.33105 0
M  V30 28939 H 2666.52 -1.00729 -2.761 0
M  V30 28940 H 2664.04 -0.650055 -1.48822 0
M  V30 28941 H 2666.03 1.11272 -4.01776 0
M  V30 28942 H 2664.69 1.46814 -2.89613 0
M  V30 28943 H 2665.71 -1.62827 -4.91638 0
M  V30 28944 H 2662.38 0.817892 -4.0941 0
M  V30 28945 H 2663.77 -2.64632 -6.17592 0
M  V30 28946 N 2666.49 1.47225 -0.562374 0
M  V30 28947 C 2667.74 2.0246 -0.0402521 0
M  V30 28948 C 2668.07 1.43616 1.31166 0
M  V30 28949 O 2667.32 0.583333 1.86804 0
M  V30 28950 C 2667.62 3.57269 0.0969189 0
M  V30 28951 C 2667.29 4.35056 -1.18477 0
M  V30 28952 C 2665.95 4.56028 -1.53596 0
M  V30 28953 C 2668.3 4.79878 -2.03387 0
M  V30 28954 C 2665.63 5.19072 -2.73462 0
M  V30 28955 C 2667.98 5.44245 -3.2246 0
M  V30 28956 C 2666.65 5.63449 -3.57885 0
M  V30 28957 H 2665.92 0.740854 -0.0147293 0
M  V30 28958 H 2668.56 1.76836 -0.734926 0
M  V30 28959 H 2666.87 3.81914 0.874593 0
M  V30 28960 H 2668.56 3.97662 0.516338 0
M  V30 28961 H 2665.15 4.19015 -0.901334 0
M  V30 28962 H 2669.34 4.6345 -1.77561 0
M  V30 28963 H 2664.59 5.32133 -3.01071 0
M  V30 28964 H 2668.77 5.77938 -3.88536 0
M  V30 28965 H 2666.4 6.1207 -4.50859 0
M  V30 28966 N 2667.97 0.299089 1.54736 0
M  V30 28967 C 2669.2 -0.313411 2.04512 0
M  V30 28968 C 2669.61 -1.47665 1.17646 0
M  V30 28969 O 2668.97 -1.81382 0.201672 0
M  V30 28970 C 2669.02 -0.77148 3.53172 0
M  V30 28971 O 2668.74 0.345456 4.36736 0
M  V30 28972 C 2670.24 -1.44933 4.18938 0
M  V30 28973 H 2667.46 -0.0683666 0.667508 0
M  V30 28974 H 2670.01 0.438164 1.99751 0
M  V30 28975 H 2668.16 -1.47308 3.583 0
M  V30 28976 H 2668.58 -0.0108297 5.24499 0
M  V30 28977 H 2670.05 -1.72102 5.24485 0
M  V30 28978 H 2670.53 -2.38876 3.68558 0
M  V30 28979 H 2671.13 -0.790955 4.1788 0
M  V30 28980 N 2669.45 -1.57577 0.0267774 0
M  V30 28981 C 2670.67 -1.96409 -0.666193 0
M  V30 28982 C 2671.1 -0.9031 -1.65002 0
M  V30 28983 O 2670.46 0.136231 -1.80787 0
M  V30 28984 C 2670.5 -3.34338 -1.35095 0
M  V30 28985 O 2669.61 -3.30536 -2.46617 0
M  V30 28986 H 2668.95 -0.640471 -0.175194 0
M  V30 28987 H 2671.48 -2.04411 0.0879336 0
M  V30 28988 H 2671.49 -3.70516 -1.70828 0
M  V30 28989 H 2670.16 -4.11104 -0.629771 0
M  V30 28990 H 2668.74 -3.06072 -2.13013 0
M  V30 28991 N 2670.93 0.246342 -1.55663 0
M  V30 28992 C 2672.15 0.991845 -1.81577 0
M  V30 28993 C 2672.57 1.78926 -0.602576 0
M  V30 28994 O 2671.93 1.77392 0.428764 0
M  V30 28995 C 2671.98 1.92927 -3.05715 0
M  V30 28996 O 2671.7 1.16413 -4.2235 0
M  V30 28997 C 2673.2 2.79072 -3.44432 0
M  V30 28998 H 2670.42 0.291833 -0.604214 0
M  V30 28999 H 2672.96 0.26906 -2.02722 0
M  V30 29000 H 2671.12 2.60633 -2.86617 0
M  V30 29001 H 2671.53 1.79826 -4.9271 0
M  V30 29002 H 2673.01 3.40596 -4.34394 0
M  V30 29003 H 2673.48 3.50212 -2.65043 0
M  V30 29004 H 2674.09 2.16818 -3.65883 0
M  V30 29005 N 2672.4 1.4905 0.512027 0
M  V30 29006 C 2673.33 1.67812 1.62362 0
M  V30 29007 C 2674.32 0.526837 1.61736 0
M  V30 29008 O 2675.5 0.761435 1.7865 0
M  V30 29009 C 2672.63 1.7344 3.00892 0
M  V30 29010 C 2671.58 2.88248 3.16382 0
M  V30 29011 C 2670.91 2.7898 4.56152 0
M  V30 29012 C 2672.21 4.29327 2.97449 0
M  V30 29013 H 2673.9 2.60875 1.46916 0
M  V30 29014 H 2671.45 1.25542 0.705357 0
M  V30 29015 H 2673.4 1.85152 3.78546 0
M  V30 29016 H 2672.13 0.769675 3.17401 0
M  V30 29017 H 2670.79 2.7612 2.4115 0
M  V30 29018 H 2670.43 1.80438 4.69522 0
M  V30 29019 H 2670.13 3.56029 4.67458 0
M  V30 29020 H 2671.66 2.92684 5.35881 0
M  V30 29021 H 2673.07 4.42193 3.64881 0
M  V30 29022 H 2671.47 5.07513 3.20236 0
M  V30 29023 H 2672.54 4.44539 1.93684 0
M  V30 29024 N 2673.88 -0.762259 1.3794 0
M  V30 29025 C 2674.82 -1.88347 1.28843 0
M  V30 29026 C 2675.79 -1.61739 0.167112 0
M  V30 29027 O 2676.98 -1.85354 0.342953 0
M  V30 29028 C 2674.1 -3.23776 0.994314 0
M  V30 29029 C 2673.15 -3.69283 2.13382 0
M  V30 29030 S 2673.98 -3.81839 3.75446 0
M  V30 29031 C 2675.14 -5.20101 3.48204 0
M  V30 29032 H 2675.37 -1.95776 2.23739 0
M  V30 29033 H 2672.91 -0.924346 1.23674 0
M  V30 29034 H 2674.86 -4.01991 0.83145 0
M  V30 29035 H 2673.52 -3.14037 0.0626803 0
M  V30 29036 H 2672.72 -4.67492 1.88327 0
M  V30 29037 H 2672.32 -2.98197 2.25731 0
M  V30 29038 H 2674.61 -6.05577 3.0378 0
M  V30 29039 H 2675.55 -5.50173 4.45775 0
M  V30 29040 H 2675.96 -4.88488 2.82914 0
M  V30 29041 N 2675.36 -1.22666 -0.989486 0
M  V30 29042 C 2676.32 -1.00109 -2.06181 0
M  V30 29043 C 2677.32 0.0337443 -1.60765 0
M  V30 29044 O 2678.51 -0.205102 -1.72988 0
M  V30 29045 C 2675.65 -0.512849 -3.3702 0
M  V30 29046 H 2676.84 -1.9526 -2.27626 0
M  V30 29047 H 2674.39 -1.04582 -1.16156 0
M  V30 29048 H 2675.13 0.44286 -3.21262 0
M  V30 29049 H 2674.91 -1.25949 -3.71321 0
M  V30 29050 H 2676.4 -0.375388 -4.15909 0
M  V30 29051 N 2676.84 1.18685 -1.0369 0
M  V30 29052 C 2677.77 2.24402 -0.645446 0
M  V30 29053 C 2678.75 1.66471 0.349482 0
M  V30 29054 O 2679.94 1.92828 0.230419 0
M  V30 29055 C 2677.07 3.473 -0.00371441 0
M  V30 29056 C 2676.02 4.17956 -0.921779 0
M  V30 29057 C 2675.35 5.34504 -0.144723 0
M  V30 29058 C 2676.65 4.71867 -2.23918 0
M  V30 29059 H 2678.34 2.57401 -1.52922 0
M  V30 29060 H 2675.89 1.23726 -0.736733 0
M  V30 29061 H 2677.84 4.20456 0.281835 0
M  V30 29062 H 2676.56 3.13524 0.914908 0
M  V30 29063 H 2675.22 3.46692 -1.19165 0
M  V30 29064 H 2674.87 4.96975 0.776186 0
M  V30 29065 H 2674.57 5.82712 -0.756308 0
M  V30 29066 H 2676.09 6.10453 0.133897 0
M  V30 29067 H 2677.51 5.36737 -2.01459 0
M  V30 29068 H 2675.9 5.30594 -2.80339 0
M  V30 29069 H 2676.97 3.89495 -2.88829 0
M  V30 29070 N 2678.32 0.815849 1.34839 0
M  V30 29071 C 2679.57 0.397011 1.97754 0
M  V30 29072 C 2679.88 -1.04376 1.65424 0
M  V30 29073 O 2681.09 -1.56616 2.21774 0
M  V30 29074 C 2679.54 0.658931 3.53816 0
M  V30 29075 C 2679.15 2.11285 3.95047 0
M  V30 29076 C 2680.89 0.305909 4.23396 0
M  V30 29077 C 2678.8 2.32004 5.43993 0
M  V30 29078 H 2677.73 0.144713 0.739982 0
M  V30 29079 H 2680.38 1.00121 1.53779 0
M  V30 29080 H 2678.76 -0.0153416 3.95997 0
M  V30 29081 H 2679.94 2.8257 3.63993 0
M  V30 29082 H 2678.25 2.42663 3.38384 0
M  V30 29083 H 2680.85 0.438633 5.32898 0
M  V30 29084 H 2681.19 -0.74888 4.09509 0
M  V30 29085 H 2681.73 0.934471 3.86668 0
M  V30 29086 H 2678.46 3.35962 5.62859 0
M  V30 29087 H 2677.98 1.65254 5.76586 0
M  V30 29088 H 2679.66 2.14012 6.1058 0
M  V30 29089 N 2679.8 -1.46924 0.570174 0
M  V30 29090 C 2681.21 -1.57921 0.230898 0
M  V30 29091 C 2681.41 -1.56704 -1.26673 0
M  V30 29092 O 2680.47 -1.47733 -2.04771 0
M  V30 29093 C 2681.78 -2.87869 0.869023 0
M  V30 29094 C 2683.33 -3.01477 0.84145 0
M  V30 29095 C 2683.8 -4.34143 1.45888 0
M  V30 29096 N 2685.29 -4.40812 1.42265 0
M  V30 29097 C 2686.03 -5.42054 1.8699 0
M  V30 29098 N 2685.53 -6.50038 2.39629 0
M  V30 29099 N 2687.32 -5.33178 1.77982 0
M  V30 29100 H 2679.47 -1.45959 1.54304 0
M  V30 29101 H 2681.73 -0.695459 0.644236 0
M  V30 29102 H 2681.44 -2.94534 1.92205 0
M  V30 29103 H 2681.31 -3.75383 0.369748 0
M  V30 29104 H 2683.7 -2.94401 -0.202921 0
M  V30 29105 H 2683.78 -2.15471 1.37862 0
M  V30 29106 H 2683.42 -4.41976 2.50239 0
M  V30 29107 H 2683.35 -5.18903 0.897049 0
M  V30 29108 H 2685.85 -3.63372 1.03774 0
M  V30 29109 H 2686.16 -7.23483 2.71646 0
M  V30 29110 H 2684.5 -6.50892 2.43648 0
M  V30 29111 H 2687.69 -4.47718 1.36625 0
M  V30 29112 H 2687.87 -6.11939 2.13154 0
M  V30 29113 N 2681.27 -0.307291 -1.54575 0
M  V30 29114 C 2682.5 0.302561 -2.04676 0
M  V30 29115 C 2682.92 1.47039 -1.18427 0
M  V30 29116 O 2682.27 1.81273 -0.211289 0
M  V30 29117 C 2682.32 0.752739 -3.53576 0
M  V30 29118 O 2682.05 -0.368613 -4.36547 0
M  V30 29119 C 2683.55 1.42709 -4.19701 0
M  V30 29120 H 2680.77 0.0648257 -0.667861 0
M  V30 29121 H 2683.31 -0.448751 -1.99516 0
M  V30 29122 H 2681.47 1.45406 -3.59076 0
M  V30 29123 H 2681.88 -0.0169859 -5.24497 0
M  V30 29124 H 2683.35 1.69318 -5.25391 0
M  V30 29125 H 2683.83 2.36918 -3.69819 0
M  V30 29126 H 2684.44 0.768782 -4.18294 0
M  V30 29127 N 2682.75 1.57561 -0.0351337 0
M  V30 29128 C 2683.71 2.09494 0.929782 0
M  V30 29129 C 2684.71 1.01121 1.25024 0
M  V30 29130 O 2685.9 1.27258 1.18959 0
M  V30 29131 C 2683.04 2.56581 2.24452 0
M  V30 29132 H 2684.23 2.96036 0.479883 0
M  V30 29133 H 2681.78 1.54842 0.213005 0
M  V30 29134 H 2682.52 1.73386 2.74058 0
M  V30 29135 H 2682.3 3.35761 2.02502 0
M  V30 29136 H 2683.79 2.96964 2.93602 0
M  V30 29137 N 2684.23 -0.238084 1.55791 0
M  V30 29138 C 2685.16 -1.29842 1.9407 0
M  V30 29139 C 2686.14 -1.49752 0.806752 0
M  V30 29140 O 2687.33 -1.62212 1.06775 0
M  V30 29141 C 2684.46 -2.65149 2.24307 0
M  V30 29142 C 2683.41 -2.59921 3.40037 0
M  V30 29143 C 2682.74 -3.99105 3.55836 0
M  V30 29144 C 2684.04 -2.16139 4.7548 0
M  V30 29145 H 2685.73 -0.980514 2.82889 0
M  V30 29146 H 2683.28 -0.470229 1.36106 0
M  V30 29147 H 2685.23 -3.3947 2.49676 0
M  V30 29148 H 2683.95 -2.98594 1.32323 0
M  V30 29149 H 2682.61 -1.88057 3.1469 0
M  V30 29150 H 2682.26 -4.2983 2.61258 0
M  V30 29151 H 2681.96 -3.96493 4.33667 0
M  V30 29152 H 2683.48 -4.75113 3.83536 0
M  V30 29153 H 2684.9 -2.80197 5.00163 0
M  V30 29154 H 2683.29 -2.24621 5.56476 0
M  V30 29155 H 2684.36 -1.11325 4.71948 0
M  V30 29156 N 2685.71 -1.4932 -0.504115 0
M  V30 29157 C 2686.98 -1.49149 -1.26546 0
M  V30 29158 C 2687.36 -0.217477 -2.09977 0
M  V30 29159 O 2686.71 0.800232 -2.14029 0
M  V30 29160 C 2686.92 -2.7686 -2.12484 0
M  V30 29161 C 2688.27 -3.26226 -2.71775 0
M  V30 29162 O 2689.29 -2.77956 -2.22753 0
M  V30 29163 O 2688.15 -4.10287 -3.61008 0
M  V30 29164 H 2685.25 -0.596817 -0.572485 0
M  V30 29165 H 2687.79 -1.6158 -0.518642 0
M  V30 29166 H 2686.57 -3.61079 -1.50789 0
M  V30 29167 H 2686.19 -2.67275 -2.94364 0
M  V30 29168 N 2687.19 0.754933 -1.38342 0
M  V30 29169 C 2688.43 1.50938 -1.33794 0
M  V30 29170 C 2688.75 1.95475 0.0698923 0
M  V30 29171 O 2689.95 2.70456 0.237908 0
M  V30 29172 C 2688.41 2.72639 -2.34939 0
M  V30 29173 C 2688.02 2.35132 -3.81336 0
M  V30 29174 C 2689.76 3.50532 -2.39431 0
M  V30 29175 C 2687.67 3.53436 -4.7417 0
M  V30 29176 H 2686.6 0.566732 -0.497323 0
M  V30 29177 H 2689.25 0.825374 -1.6389 0
M  V30 29178 H 2687.63 3.43013 -1.97884 0
M  V30 29179 H 2688.81 1.72432 -4.27322 0
M  V30 29180 H 2687.12 1.70375 -3.79949 0
M  V30 29181 H 2689.72 4.38492 -3.05988 0
M  V30 29182 H 2690.06 3.91592 -1.41285 0
M  V30 29183 H 2690.59 2.8717 -2.75279 0
M  V30 29184 H 2687.33 3.17443 -5.73507 0
M  V30 29185 H 2686.85 4.15183 -4.32878 0
M  V30 29186 H 2688.53 4.20034 -4.92118 0
M  V30 29187 N 2688.66 1.23189 0.982967 0
M  V30 29188 C 2689.61 1.01079 2.07489 0
M  V30 29189 C 2690.58 -0.0708758 1.65949 0
M  V30 29190 O 2691.77 0.0807157 1.90629 0
M  V30 29191 C 2688.91 0.60532 3.3975 0
M  V30 29192 C 2688.02 1.75883 3.94575 0
M  V30 29193 C 2687.15 1.30039 5.15037 0
M  V30 29194 C 2686.19 2.42481 5.62022 0
M  V30 29195 N 2685.33 1.97614 6.73716 0
M  V30 29196 H 2690.17 1.94544 2.25736 0
M  V30 29197 H 2687.71 0.969199 1.10657 0
M  V30 29198 H 2689.66 0.351352 4.15718 0
M  V30 29199 H 2688.29 -0.292325 3.21474 0
M  V30 29200 H 2687.35 2.12687 3.15386 0
M  V30 29201 H 2688.66 2.60426 4.25417 0
M  V30 29202 H 2687.81 1.0044 5.98328 0
M  V30 29203 H 2686.55 0.425301 4.85842 0
M  V30 29204 H 2685.56 2.72858 4.77314 0
M  V30 29205 H 2686.78 3.30523 5.93238 0
M  V30 29206 H 2684.73 1.12481 6.46285 0
M  V30 29207 H 2684.64 2.75717 7.03929 0
M  V30 29208 H 2685.91 1.71111 7.60487 0
M  V30 29209 N 2690.14 -1.18133 1.04318 0
M  V30 29210 C 2691.39 -1.87508 0.743223 0
M  V30 29211 C 2691.7 -1.81382 -0.732104 0
M  V30 29212 O 2692.91 -2.46143 -1.14567 0
M  V30 29213 C 2691.37 -3.364 1.27919 0
M  V30 29214 C 2690.97 -3.51048 2.78333 0
M  V30 29215 C 2692.72 -4.11159 1.05588 0
M  V30 29216 C 2690.62 -4.93914 3.25274 0
M  V30 29217 H 2689.55 -0.702326 0.274325 0
M  V30 29218 H 2692.21 -1.33465 1.25934 0
M  V30 29219 H 2690.59 -3.89926 0.690922 0
M  V30 29220 H 2691.76 -3.07782 3.42939 0
M  V30 29221 H 2690.08 -2.89698 2.99105 0
M  V30 29222 H 2692.67 -5.1654 1.3817 0
M  V30 29223 H 2693.02 -4.16299 -0.00677412 0
M  V30 29224 H 2693.55 -3.63813 1.60889 0
M  V30 29225 H 2690.29 -4.93943 4.3093 0
M  V30 29226 H 2689.81 -5.37885 2.65405 0
M  V30 29227 H 2691.49 -5.62641 3.19443 0
M  V30 29228 N 2691.62 -0.822988 -1.34405 0
M  V30 29229 C 2692.58 -0.250311 -2.27829 0
M  V30 29230 C 2693.58 0.571827 -1.50289 0
M  V30 29231 O 2694.77 0.387923 -1.69826 0
M  V30 29232 C 2691.91 0.649078 -3.34664 0
M  V30 29233 H 2693.1 -1.07449 -2.7999 0
M  V30 29234 H 2690.65 -0.594855 -1.44538 0
M  V30 29235 H 2691.39 1.49632 -2.87717 0
M  V30 29236 H 2691.17 0.061051 -3.92052 0
M  V30 29237 H 2692.66 1.04356 -4.04351 0
M  V30 29238 N 2693.1 1.4662 -0.577957 0
M  V30 29239 C 2694.05 2.30258 0.158008 0
M  V30 29240 C 2695.02 1.40329 0.888645 0
M  V30 29241 O 2696.2 1.69281 0.880253 0
M  V30 29242 C 2693.34 3.24705 1.16879 0
M  V30 29243 C 2692.45 4.29732 0.442088 0
M  V30 29244 C 2691.59 5.1131 1.43998 0
M  V30 29245 C 2690.63 6.08091 0.699413 0
M  V30 29246 N 2689.76 6.82554 1.64513 0
M  V30 29247 H 2694.6 2.92666 -0.561294 0
M  V30 29248 H 2692.14 1.44241 -0.288616 0
M  V30 29249 H 2694.1 3.77903 1.76763 0
M  V30 29250 H 2692.73 2.64117 1.85586 0
M  V30 29251 H 2691.78 3.79428 -0.271699 0
M  V30 29252 H 2693.09 4.98612 -0.13708 0
M  V30 29253 H 2692.25 5.68762 2.11176 0
M  V30 29254 H 2690.99 4.4238 2.05307 0
M  V30 29255 H 2689.99 5.49798 0.0138251 0
M  V30 29256 H 2691.22 6.79038 0.0917746 0
M  V30 29257 H 2689.16 6.16338 2.24642 0
M  V30 29258 H 2689.08 7.47678 1.11865 0
M  V30 29259 H 2690.35 7.44566 2.30741 0
M  V30 29260 N 2694.58 0.315484 1.5441 0
M  V30 29261 C 2695.82 -0.288936 2.00024 0
M  V30 29262 C 2696.15 -1.53288 1.20532 0
M  V30 29263 O 2695.42 -1.93511 0.30502 0
M  V30 29264 H 2694 -0.109753 0.738893 0
M  V30 29265 H 2696.66 0.430163 1.90094 0
M  V30 29266 H 2695.75 -0.550945 3.07199 0
M  V30 29267 N 2696.05 -1.5754 0.0434891 0
M  V30 29268 C 2697.3 -1.92005 -0.630753 0
M  V30 29269 C 2697.62 -0.921838 -1.71835 0
M  V30 29270 O 2696.89 0.0344876 -1.9587 0
M  V30 29271 H 2695.47 -0.708749 -0.235975 0
M  V30 29272 H 2698.14 -1.9467 0.0946804 0
M  V30 29273 H 2697.23 -2.93028 -1.07429 0
M  V30 29274 N 2697.53 0.229818 -1.55915 0
M  V30 29275 C 2698.5 1.26821 -1.90916 0
M  V30 29276 C 2699.5 1.40223 -0.787024 0
M  V30 29277 O 2700.69 1.3863 -1.05486 0
M  V30 29278 C 2697.82 2.64333 -2.15269 0
M  V30 29279 H 2699.01 0.969948 -2.83782 0
M  V30 29280 H 2696.56 0.469873 -1.4907 0
M  V30 29281 H 2697.3 2.99272 -1.24928 0
M  V30 29282 H 2697.08 2.55984 -2.9701 0
M  V30 29283 H 2698.57 3.3928 -2.43473 0
M  V30 29284 N 2699.01 1.49585 0.49619 0
M  V30 29285 C 2700.29 1.49818 1.25753 0
M  V30 29286 C 2700.67 0.228609 2.09858 0
M  V30 29287 O 2700.02 -0.78887 2.14451 0
M  V30 29288 C 2700.23 2.77983 2.11013 0
M  V30 29289 C 2701.57 3.27663 2.70041 0
M  V30 29290 O 2702.6 2.79133 2.21276 0
M  V30 29291 O 2701.46 4.12196 3.58827 0
M  V30 29292 H 2698.55 0.599844 0.569312 0
M  V30 29293 H 2701.1 1.61853 0.510066 0
M  V30 29294 H 2699.87 3.61874 1.48872 0
M  V30 29295 H 2699.49 2.68832 2.92942 0
M  V30 29296 N 2700.49 -0.747586 1.3874 0
M  V30 29297 C 2701.9 -1.05146 1.20069 0
M  V30 29298 C 2702.1 -2.01429 0.0535189 0
M  V30 29299 O 2701.16 -2.45297 -0.598817 0
M  V30 29300 C 2702.47 -1.62579 2.52959 0
M  V30 29301 C 2704.02 -1.74721 2.59695 0
M  V30 29302 C 2704.5 -2.35566 3.92776 0
M  V30 29303 N 2705.99 -2.4299 3.94348 0
M  V30 29304 C 2706.72 -2.90977 4.94085 0
M  V30 29305 N 2706.22 -3.38954 6.0422 0
M  V30 29306 N 2708.01 -2.90072 4.81472 0
M  V30 29307 H 2700.16 -0.108771 2.12121 0
M  V30 29308 H 2702.43 -0.110882 0.941493 0
M  V30 29309 H 2702.13 -0.992991 3.37391 0
M  V30 29310 H 2702.01 -2.6156 2.71783 0
M  V30 29311 H 2704.39 -2.37127 1.75655 0
M  V30 29312 H 2704.47 -0.744283 2.44733 0
M  V30 29313 H 2704.12 -1.73792 4.77241 0
M  V30 29314 H 2704.05 -3.36512 4.05052 0
M  V30 29315 H 2706.54 -2.09064 3.14802 0
M  V30 29316 H 2706.85 -3.74044 6.76248 0
M  V30 29317 H 2705.2 -3.36996 6.07831 0
M  V30 29318 H 2708.39 -2.51905 3.9454 0
M  V30 29319 H 2708.56 -3.27157 5.5935 0
M  V30 29320 N 2701.97 -1.23709 -0.97642 0
M  V30 29321 C 2702.9 -0.979611 -2.07211 0
M  V30 29322 C 2703.91 0.0478242 -1.6273 0
M  V30 29323 O 2705.1 -0.188181 -1.77505 0
M  V30 29324 C 2702.2 -0.454849 -3.35834 0
M  V30 29325 C 2701.37 -1.54338 -4.09266 0
M  V30 29326 C 2700.43 -1.0228 -5.16164 0
M  V30 29327 O 2699.46 -1.71263 -5.42824 0
M  V30 29328 N 2700.66 0.147317 -5.80313 0
M  V30 29329 H 2703.43 -1.92296 -2.29875 0
M  V30 29330 H 2700.99 -1.1462 -1.14341 0
M  V30 29331 H 2702.98 -0.0915342 -4.04596 0
M  V30 29332 H 2701.55 0.394014 -3.10107 0
M  V30 29333 H 2700.77 -2.07929 -3.34902 0
M  V30 29334 H 2702.06 -2.2753 -4.55091 0
M  V30 29335 H 2701.45 0.724254 -5.61045 0
M  V30 29336 H 2700.01 0.451858 -6.50232 0
M  V30 29337 N 2703.44 1.17579 -1.04943 0
M  V30 29338 C 2704.38 2.21038 -0.606213 0
M  V30 29339 C 2705.39 1.59446 0.328735 0
M  V30 29340 O 2706.58 1.78084 0.121863 0
M  V30 29341 C 2703.68 3.38638 0.133235 0
M  V30 29342 C 2702.85 4.29801 -0.811787 0
M  V30 29343 C 2701.91 5.26076 -0.11405 0
M  V30 29344 O 2700.94 5.64273 -0.747336 0
M  V30 29345 N 2702.14 5.69006 1.14943 0
M  V30 29346 H 2704.9 2.59686 -1.4961 0
M  V30 29347 H 2702.46 1.32452 -0.93102 0
M  V30 29348 H 2704.46 4.00075 0.610073 0
M  V30 29349 H 2703.03 2.98608 0.924764 0
M  V30 29350 H 2702.25 3.65834 -1.4683 0
M  V30 29351 H 2703.53 4.87602 -1.45335 0
M  V30 29352 H 2702.93 5.40044 1.68431 0
M  V30 29353 H 2701.49 6.326 1.57038 0
M  V30 29354 N 2704.92 0.830104 1.33967 0
M  V30 29355 C 2705.85 0.271951 2.31911 0
M  V30 29356 C 2706.83 -0.615532 1.58572 0
M  V30 29357 O 2708.02 -0.540914 1.86515 0
M  V30 29358 C 2705.15 -0.561086 3.42738 0
M  V30 29359 C 2704.1 0.229864 4.27382 0
M  V30 29360 C 2703.43 -0.72637 5.29743 0
M  V30 29361 C 2704.73 1.44206 5.01998 0
M  V30 29362 H 2706.42 1.0903 2.78842 0
M  V30 29363 H 2703.97 0.525733 1.3406 0
M  V30 29364 H 2705.92 -0.961795 4.10277 0
M  V30 29365 H 2704.65 -1.41256 2.94473 0
M  V30 29366 H 2703.3 0.612028 3.61455 0
M  V30 29367 H 2702.95 -1.574 4.77739 0
M  V30 29368 H 2702.65 -0.201317 5.87255 0
M  V30 29369 H 2704.18 -1.12478 6.00151 0
M  V30 29370 H 2705.59 1.11498 5.62353 0
M  V30 29371 H 2703.99 1.90327 5.69118 0
M  V30 29372 H 2705.06 2.21648 4.31277 0
M  V30 29373 N 2706.4 -1.46311 0.585725 0
M  V30 29374 C 2707.68 -1.95599 0.00545469 0
M  V30 29375 C 2708.06 -1.52837 -1.45617 0
M  V30 29376 O 2707.41 -0.780484 -2.14757 0
M  V30 29377 C 2707.62 -3.48532 0.180662 0
M  V30 29378 C 2708.96 -4.2457 0.0500537 0
M  V30 29379 O 2709.99 -3.56031 0.109652 0
M  V30 29380 O 2708.85 -5.46437 -0.0831265 0
M  V30 29381 H 2705.94 -0.825599 -0.0481136 0
M  V30 29382 H 2708.49 -1.56581 0.654255 0
M  V30 29383 H 2707.26 -3.72554 1.19663 0
M  V30 29384 H 2706.88 -3.94387 -0.504429 0
M  V30 29385 N 2707.88 -0.323668 -1.54241 0
M  V30 29386 C 2709.1 0.283568 -2.05452 0
M  V30 29387 C 2709.53 1.44995 -1.19826 0
M  V30 29388 O 2708.89 1.8011 -0.20739 0
M  V30 29389 C 2708.94 0.695732 -3.53825 0
M  V30 29390 O 2708.04 1.79809 -3.71137 0
M  V30 29391 H 2707.38 0.0511801 -0.662025 0
M  V30 29392 H 2709.91 -0.472108 -1.99079 0
M  V30 29393 H 2709.92 0.978365 -3.96096 0
M  V30 29394 H 2708.6 -0.15736 -4.15602 0
M  V30 29395 H 2707.17 1.51425 -3.40771 0
M  V30 29396 N 2709.36 1.57515 -0.0518432 0
M  V30 29397 C 2710.27 2.15054 0.937501 0
M  V30 29398 C 2711.28 1.10851 1.3412 0
M  V30 29399 O 2712.46 1.43022 1.41798 0
M  V30 29400 C 2709.52 2.68469 2.19374 0
M  V30 29401 C 2708.59 3.87473 1.84834 0
M  V30 29402 C 2707.82 4.38331 3.04469 0
M  V30 29403 O 2708.04 3.88263 4.17861 0
M  V30 29404 O 2706.98 5.29911 2.85444 0
M  V30 29405 H 2710.8 2.99912 0.478148 0
M  V30 29406 H 2708.39 1.48429 0.170094 0
M  V30 29407 H 2710.27 3.02792 2.93079 0
M  V30 29408 H 2708.94 1.86682 2.64446 0
M  V30 29409 H 2707.85 3.58038 1.08443 0
M  V30 29410 H 2709.18 4.70492 1.44561 0
M  V30 29411 N 2710.84 -0.221546 1.56035 0
M  V30 29412 C 2711.77 -1.27776 1.95436 0
M  V30 29413 C 2712.75 -1.48887 0.82259 0
M  V30 29414 O 2713.93 -1.61071 1.08489 0
M  V30 29415 C 2711.06 -2.62755 2.27106 0
M  V30 29416 C 2710.02 -2.563 3.42774 0
M  V30 29417 C 2709.34 -3.95308 3.60049 0
M  V30 29418 C 2710.64 -2.11084 4.77745 0
M  V30 29419 H 2712.34 -0.950454 2.83913 0
M  V30 29420 H 2709.88 -0.455767 1.36597 0
M  V30 29421 H 2711.83 -3.36803 2.53262 0
M  V30 29422 H 2710.56 -2.97173 1.35483 0
M  V30 29423 H 2709.22 -1.84709 3.16667 0
M  V30 29424 H 2708.87 -4.27034 2.65802 0
M  V30 29425 H 2708.57 -3.91871 4.37848 0
M  V30 29426 H 2710.09 -4.71018 3.88554 0
M  V30 29427 H 2711.5 -2.74876 5.03106 0
M  V30 29428 H 2709.9 -2.18707 5.58827 0
M  V30 29429 H 2710.97 -1.06313 4.73102 0
M  V30 29430 N 2712.31 -1.49846 -0.48825 0
M  V30 29431 C 2713.25 -1.63587 -1.60536 0
M  V30 29432 C 2714.26 -0.517999 -1.54339 0
M  V30 29433 O 2715.45 -0.790544 -1.6004 0
M  V30 29434 C 2712.55 -1.5884 -2.99371 0
M  V30 29435 C 2711.72 -2.86374 -3.30619 0
M  V30 29436 C 2710.78 -2.74504 -4.48925 0
M  V30 29437 O 2709.81 -3.48451 -4.50078 0
M  V30 29438 N 2711.01 -1.86904 -5.49588 0
M  V30 29439 H 2713.77 -2.59938 -1.49171 0
M  V30 29440 H 2711.33 -1.47095 -0.676365 0
M  V30 29441 H 2713.33 -1.48536 -3.76456 0
M  V30 29442 H 2711.9 -0.702946 -3.04594 0
M  V30 29443 H 2711.12 -3.10934 -2.42309 0
M  V30 29444 H 2712.4 -3.70898 -3.48299 0
M  V30 29445 H 2711.8 -1.26107 -5.51465 0
M  V30 29446 H 2710.36 -1.82514 -6.25725 0
M  V30 29447 N 2713.79 0.740218 -1.39135 0
M  V30 29448 C 2714.74 1.85417 -1.37437 0
M  V30 29449 C 2715.71 1.64431 -0.234851 0
M  V30 29450 O 2716.89 1.85911 -0.429158 0
M  V30 29451 C 2714.03 3.22873 -1.2185 0
M  V30 29452 C 2713.15 3.55599 -2.45302 0
M  V30 29453 C 2712.28 4.82428 -2.22343 0
M  V30 29454 C 2711.32 5.07982 -3.41497 0
M  V30 29455 N 2710.46 6.26012 -3.17888 0
M  V30 29456 H 2715.3 1.86203 -2.32664 0
M  V30 29457 H 2712.83 0.909926 -1.1558 0
M  V30 29458 H 2714.79 4.02211 -1.10825 0
M  V30 29459 H 2713.42 3.21379 -0.302557 0
M  V30 29460 H 2712.47 2.71002 -2.6695 0
M  V30 29461 H 2713.79 3.70404 -3.34069 0
M  V30 29462 H 2712.94 5.69737 -2.0853 0
M  V30 29463 H 2711.68 4.69787 -1.30962 0
M  V30 29464 H 2710.68 4.19138 -3.55814 0
M  V30 29465 H 2711.91 5.22512 -4.33772 0
M  V30 29466 H 2709.86 6.14669 -2.29167 0
M  V30 29467 H 2709.77 6.4138 -4.00209 0
M  V30 29468 H 2711.04 7.16174 -3.07758 0
M  V30 29469 N 2715.27 1.24225 0.969846 0
M  V30 29470 C 2716.18 1.04974 2.09804 0
M  V30 29471 C 2717.2 -0.00883396 1.73998 0
M  V30 29472 O 2718.37 0.188883 2.00512 0
M  V30 29473 C 2715.44 0.654512 3.40466 0
M  V30 29474 C 2714.5 1.78933 3.90233 0
M  V30 29475 C 2713.73 1.41286 5.14659 0
M  V30 29476 O 2713.95 0.301732 5.69601 0
M  V30 29477 O 2712.89 2.23773 5.58757 0
M  V30 29478 H 2716.71 1.99552 2.28939 0
M  V30 29479 H 2714.3 1.03025 1.08195 0
M  V30 29480 H 2716.18 0.445525 4.19038 0
M  V30 29481 H 2714.86 -0.262159 3.22637 0
M  V30 29482 H 2713.76 2.05304 3.12731 0
M  V30 29483 H 2715.1 2.68469 4.12535 0
M  V30 29484 N 2716.75 -1.1702 1.05565 0
M  V30 29485 C 2717.98 -1.91287 0.788484 0
M  V30 29486 C 2718.39 -1.77026 -0.656287 0
M  V30 29487 O 2717.75 -1.10994 -1.44867 0
M  V30 29488 C 2717.8 -3.4223 1.1645 0
M  V30 29489 O 2717.52 -3.56056 2.55257 0
M  V30 29490 C 2719.02 -4.33563 0.924013 0
M  V30 29491 H 2716.24 -0.606808 0.2864 0
M  V30 29492 H 2718.78 -1.48373 1.40733 0
M  V30 29493 H 2716.94 -3.82876 0.590333 0
M  V30 29494 H 2717.35 -4.49604 2.70105 0
M  V30 29495 H 2718.83 -5.37965 1.23682 0
M  V30 29496 H 2719.3 -4.38975 -0.140611 0
M  V30 29497 H 2719.91 -3.98636 1.48221 0
M  V30 29498 N 2718.23 -0.837197 -1.33524 0
M  V30 29499 C 2719.16 -0.284246 -2.31763 0
M  V30 29500 C 2720.14 0.607114 -1.58897 0
M  V30 29501 O 2721.32 0.531015 -1.86799 0
M  V30 29502 C 2718.45 0.542901 -3.4303 0
M  V30 29503 C 2717.41 -0.252526 -4.27254 0
M  V30 29504 C 2716.73 0.698266 -5.30121 0
M  V30 29505 C 2718.03 -1.46866 -5.01226 0
M  V30 29506 H 2719.73 -1.10507 -2.7826 0
M  V30 29507 H 2717.27 -0.532836 -1.33779 0
M  V30 29508 H 2719.22 0.940024 -4.10782 0
M  V30 29509 H 2717.95 1.39692 -2.95218 0
M  V30 29510 H 2716.61 -0.631188 -3.61125 0
M  V30 29511 H 2716.26 1.54864 -4.78567 0
M  V30 29512 H 2715.96 0.170171 -5.87354 0
M  V30 29513 H 2717.48 1.09294 -6.00739 0
M  V30 29514 H 2718.89 -1.14479 -5.61754 0
M  V30 29515 H 2717.29 -1.93343 -5.68101 0
M  V30 29516 H 2718.36 -2.23932 -4.30096 0
M  V30 29517 N 2719.7 1.45999 -0.593476 0
M  V30 29518 C 2720.67 2.28867 0.123497 0
M  V30 29519 C 2721.67 1.3899 0.808604 0
M  V30 29520 O 2722.86 1.61257 0.658916 0
M  V30 29521 C 2719.99 3.19655 1.18464 0
M  V30 29522 H 2721.18 2.93736 -0.604894 0
M  V30 29523 H 2718.73 1.52287 -0.351902 0
M  V30 29524 H 2719.47 2.59555 1.94426 0
M  V30 29525 H 2719.25 3.85842 0.697762 0
M  V30 29526 H 2720.74 3.82 1.68719 0
M  V30 29527 N 2721.18 0.331843 1.54067 0
M  V30 29528 C 2722.43 -0.269173 1.99896 0
M  V30 29529 C 2722.74 -1.52591 1.22374 0
M  V30 29530 O 2723.95 -2.20344 1.58621 0
M  V30 29531 C 2722.41 -0.530182 3.55973 0
M  V30 29532 C 2722.01 0.709978 4.42338 0
M  V30 29533 C 2723.76 -1.0907 4.10249 0
M  V30 29534 C 2721.67 0.420416 5.89904 0
M  V30 29535 H 2720.6 -0.104358 0.746743 0
M  V30 29536 H 2723.25 0.445355 1.78014 0
M  V30 29537 H 2721.63 -1.30511 3.73875 0
M  V30 29538 H 2722.8 1.48512 4.36212 0
M  V30 29539 H 2721.12 1.1913 3.98995 0
M  V30 29540 H 2723.71 -1.3221 5.18097 0
M  V30 29541 H 2724.06 -2.04263 3.62743 0
M  V30 29542 H 2724.59 -0.376755 3.96012 0
M  V30 29543 H 2721.33 1.34175 6.41621 0
M  V30 29544 H 2720.85 -0.316857 5.98962 0
M  V30 29545 H 2722.53 0.0333093 6.46991 0
M  V30 29546 N 2722.66 -1.57485 0.0601958 0
M  V30 29547 C 2723.91 -1.94147 -0.606518 0
M  V30 29548 C 2724.26 -0.939255 -1.67916 0
M  V30 29549 O 2723.55 0.0402312 -1.91558 0
M  V30 29550 C 2723.75 -3.35264 -1.23825 0
M  V30 29551 C 2723.58 -4.4912 -0.228329 0
M  V30 29552 C 2722.35 -5.04969 0.182902 0
M  V30 29553 C 2724.55 -5.11563 0.52984 0
M  V30 29554 N 2722.53 -6.0236 1.18474 0
M  V30 29555 C 2723.9 -6.04344 1.3845 0
M  V30 29556 C 2725.95 -4.94426 0.587171 0
M  V30 29557 C 2724.66 -6.81828 2.29137 0
M  V30 29558 C 2726.68 -5.72543 1.4815 0
M  V30 29559 C 2726.04 -6.64963 2.32386 0
M  V30 29560 H 2722.14 -0.757729 -0.193315 0
M  V30 29561 H 2724.73 -1.94234 0.134634 0
M  V30 29562 H 2722.9 -3.35937 -1.94938 0
M  V30 29563 H 2724.63 -3.59192 -1.86449 0
M  V30 29564 H 2721.39 -4.73186 -0.197885 0
M  V30 29565 H 2721.81 -6.55751 1.68283 0
M  V30 29566 H 2726.45 -4.22771 -0.0498697 0
M  V30 29567 H 2724.17 -7.52768 2.93882 0
M  V30 29568 H 2727.76 -5.61307 1.53055 0
M  V30 29569 H 2726.64 -7.24355 3.00467 0
M  V30 29570 N 2724.14 0.213268 -1.5615 0
M  V30 29571 C 2725.55 0.779552 -1.69646 0
M  V30 29572 C 2725.9 1.84635 -0.663648 0
M  V30 29573 O 2725.03 2.1562 0.183595 0
M  V30 29574 C 2725.62 1.42079 -3.0757 0
M  V30 29575 C 2724.18 1.93437 -3.22892 0
M  V30 29576 C 2723.33 0.797565 -2.65583 0
M  V30 29577 H 2726.28 -0.011523 -1.58696 0
M  V30 29578 H 2726.3 2.28981 -3.03888 0
M  V30 29579 H 2725.81 0.64412 -3.82718 0
M  V30 29580 H 2723.91 2.73879 -2.52628 0
M  V30 29581 H 2724.02 2.10864 -4.30201 0
M  V30 29582 H 2722.39 1.20708 -2.2428 0
M  V30 29583 H 2723.17 0.0334336 -3.43284 0
M  V30 29584 N 2725.62 1.50103 0.480296 0
M  V30 29585 C 2726.57 1.64683 1.57682 0
M  V30 29586 C 2727.55 0.501727 1.52877 0
M  V30 29587 O 2728.74 0.755696 1.60057 0
M  V30 29588 C 2725.87 1.73583 2.96182 0
M  V30 29589 C 2724.96 2.9374 3.05905 0
M  V30 29590 N 2725.35 4.17545 2.85464 0
M  V30 29591 C 2723.65 2.92107 3.37031 0
M  V30 29592 C 2724.35 4.98425 2.99912 0
M  V30 29593 N 2723.32 4.32197 3.29707 0
M  V30 29594 H 2727.13 2.58107 1.40563 0
M  V30 29595 H 2724.64 1.4716 0.686848 0
M  V30 29596 H 2726.64 1.8213 3.75012 0
M  V30 29597 H 2725.3 0.813112 3.14354 0
M  V30 29598 H 2726.31 4.47192 2.61227 0
M  V30 29599 H 2722.98 2.09297 3.61249 0
M  V30 29600 H 2724.37 6.06845 2.88426 0
M  V30 29601 N 2727.09 -0.732829 1.39526 0
M  V30 29602 C 2728.02 -1.86003 1.41157 0
M  V30 29603 C 2729.01 -1.67868 0.274644 0
M  V30 29604 O 2730.19 -1.88155 0.480778 0
M  V30 29605 C 2727.32 -3.23776 1.25644 0
M  V30 29606 C 2726.27 -3.56552 2.36759 0
M  V30 29607 C 2725.6 -4.93285 2.06334 0
M  V30 29608 C 2726.9 -3.59303 3.79076 0
M  V30 29609 H 2728.59 -1.84895 2.35487 0
M  V30 29610 H 2726.14 -0.888142 1.13349 0
M  V30 29611 H 2728.09 -4.02308 1.25405 0
M  V30 29612 H 2726.82 -3.25416 0.277829 0
M  V30 29613 H 2725.48 -2.80351 2.36218 0
M  V30 29614 H 2725.12 -4.91508 1.06906 0
M  V30 29615 H 2724.82 -5.16182 2.80766 0
M  V30 29616 H 2726.35 -5.74171 2.07749 0
M  V30 29617 H 2727.76 -4.27907 3.81534 0
M  V30 29618 H 2726.16 -3.9372 4.52885 0
M  V30 29619 H 2727.23 -2.5906 4.09897 0
M  V30 29620 N 2728.57 -1.24737 -0.963244 0
M  V30 29621 C 2729.8 -1.11785 -1.74697 0
M  V30 29622 C 2730.22 0.325226 -1.85267 0
M  V30 29623 O 2729.58 1.23551 -1.32683 0
M  V30 29624 C 2729.63 -1.76737 -3.14319 0
M  V30 29625 O 2728.73 -1.04116 -3.99041 0
M  V30 29626 H 2728.07 -0.390777 -0.536833 0
M  V30 29627 H 2730.6 -1.65133 -1.20798 0
M  V30 29628 H 2730.61 -1.82674 -3.64821 0
M  V30 29629 H 2729.29 -2.81732 -3.05941 0
M  V30 29630 H 2727.87 -1.05998 -3.57518 0
M  V30 29631 N 2730.05 1.16459 -1.06184 0
M  V30 29632 C 2730.98 2.20382 -0.629623 0
M  V30 29633 C 2732 1.59786 0.311805 0
M  V30 29634 O 2733.18 1.78203 0.102968 0
M  V30 29635 C 2730.28 3.3876 0.0973099 0
M  V30 29636 C 2729.46 4.28916 -0.857327 0
M  V30 29637 C 2728.52 5.25926 -0.169841 0
M  V30 29638 O 2727.54 5.63448 -0.807143 0
M  V30 29639 N 2728.74 5.70194 1.08901 0
M  V30 29640 H 2731.51 2.58085 -1.52356 0
M  V30 29641 H 2729.07 1.31457 -0.945016 0
M  V30 29642 H 2731.06 4.007 0.567606 0
M  V30 29643 H 2729.63 2.99572 0.89304 0
M  V30 29644 H 2728.85 3.64256 -1.50702 0
M  V30 29645 H 2730.14 4.86033 -1.50498 0
M  V30 29646 H 2729.54 5.418 1.62694 0
M  V30 29647 H 2728.1 6.3423 1.5032 0
M  V30 29648 N 2731.53 0.844266 1.33079 0
M  V30 29649 C 2732.48 0.279364 2.29103 0
M  V30 29650 C 2733.45 -0.607855 1.54578 0
M  V30 29651 O 2734.63 -0.544977 1.82851 0
M  V30 29652 C 2731.77 -0.53502 3.40927 0
M  V30 29653 C 2730.88 0.376825 4.30353 0
M  V30 29654 C 2730.02 -0.449183 5.29297 0
M  V30 29655 C 2729.06 0.460713 6.10364 0
M  V30 29656 N 2728.19 -0.327489 7.01336 0
M  V30 29657 H 2733.03 1.10351 2.76815 0
M  V30 29658 H 2730.57 0.555635 1.36202 0
M  V30 29659 H 2732.53 -1.02271 4.04471 0
M  V30 29660 H 2731.16 -1.32409 2.94394 0
M  V30 29661 H 2730.21 0.982856 3.67483 0
M  V30 29662 H 2731.52 1.07557 4.87066 0
M  V30 29663 H 2730.68 -1.00048 5.98394 0
M  V30 29664 H 2729.42 -1.18134 4.73176 0
M  V30 29665 H 2728.42 1.02398 5.4018 0
M  V30 29666 H 2729.65 1.19132 6.68569 0
M  V30 29667 H 2727.59 -1.04293 6.47656 0
M  V30 29668 H 2727.51 0.312433 7.55354 0
M  V30 29669 H 2728.78 -0.860844 7.74732 0
M  V30 29670 N 2733.01 -1.45682 0.60121 0
M  V30 29671 C 2733.94 -2.27565 -0.17009 0
M  V30 29672 C 2734.92 -1.36752 -0.879637 0
M  V30 29673 O 2736.1 -1.66177 -0.889798 0
M  V30 29674 C 2733.23 -3.14963 -1.24562 0
M  V30 29675 C 2732.27 -4.21672 -0.639904 0
M  V30 29676 S 2733.11 -5.32695 0.547369 0
M  V30 29677 C 2734.26 -6.23661 -0.52891 0
M  V30 29678 H 2734.5 -2.92634 0.524634 0
M  V30 29679 H 2732.03 -1.49431 0.388563 0
M  V30 29680 H 2733.99 -3.65876 -1.86131 0
M  V30 29681 H 2732.65 -2.49172 -1.91238 0
M  V30 29682 H 2731.84 -4.82723 -1.44895 0
M  V30 29683 H 2731.44 -3.73868 -0.0994901 0
M  V30 29684 H 2733.74 -6.62672 -1.4097 0
M  V30 29685 H 2734.68 -7.08086 0.0452844 0
M  V30 29686 H 2735.09 -5.58195 -0.841372 0
M  V30 29687 N 2734.48 -0.340009 -1.53889 0
M  V30 29688 C 2735.41 0.510816 -2.27844 0
M  V30 29689 C 2736.4 1.1056 -1.29269 0
M  V30 29690 O 2737.58 1.12766 -1.58106 0
M  V30 29691 C 2734.71 1.66367 -3.0486 0
M  V30 29692 C 2733.66 1.19739 -4.10909 0
M  V30 29693 C 2732.99 2.43848 -4.75859 0
M  V30 29694 C 2734.29 0.30041 -5.21435 0
M  V30 29695 H 2735.98 -0.10612 -2.99212 0
M  V30 29696 H 2733.53 -0.0524786 -1.43904 0
M  V30 29697 H 2735.48 2.26531 -3.55333 0
M  V30 29698 H 2734.21 2.30745 -2.31137 0
M  V30 29699 H 2732.87 0.618591 -3.61343 0
M  V30 29700 H 2732.51 3.06626 -3.98735 0
M  V30 29701 H 2732.21 2.13333 -5.47506 0
M  V30 29702 H 2733.74 3.04744 -5.29115 0
M  V30 29703 H 2735.15 0.80879 -5.67566 0
M  V30 29704 H 2733.55 0.0873021 -6.00036 0
M  V30 29705 H 2734.62 -0.664406 -4.80327 0
M  V30 29706 N 2735.96 1.57451 -0.0685468 0
M  V30 29707 C 2737.24 1.84759 0.642134 0
M  V30 29708 C 2737.62 0.960377 1.87989 0
M  V30 29709 O 2736.97 0.0258296 2.28485 0
M  V30 29710 C 2737.18 3.34874 0.982888 0
M  V30 29711 C 2738.53 4.02306 1.35777 0
M  V30 29712 O 2739.55 3.396 1.07471 0
M  V30 29713 O 2738.41 5.12899 1.88672 0
M  V30 29714 H 2735.5 0.763161 0.318612 0
M  V30 29715 H 2738.05 1.6941 -0.0992313 0
M  V30 29716 H 2736.82 3.91163 0.103652 0
M  V30 29717 H 2736.44 3.55474 1.78112 0
M  V30 29718 N 2737.44 -0.204984 1.56261 0
M  V30 29719 C 2738.37 -1.25696 1.96781 0
M  V30 29720 C 2739.35 -1.48007 0.838335 0
M  V30 29721 O 2740.54 -1.59911 1.10192 0
M  V30 29722 C 2737.67 -2.60331 2.2988 0
M  V30 29723 C 2736.62 -2.5265 3.45473 0
M  V30 29724 C 2735.95 -3.91467 3.64222 0
M  V30 29725 C 2737.25 -2.06005 4.79957 0
M  V30 29726 H 2738.94 -0.920288 2.84905 0
M  V30 29727 H 2736.49 -0.441253 1.37073 0
M  V30 29728 H 2738.44 -3.34098 2.5682 0
M  V30 29729 H 2737.16 -2.9572 1.38627 0
M  V30 29730 H 2735.82 -1.8134 3.18609 0
M  V30 29731 H 2735.47 -4.24191 2.70316 0
M  V30 29732 H 2735.17 -3.87205 4.4198 0
M  V30 29733 H 2736.7 -4.66871 3.93528 0
M  V30 29734 H 2738.11 -2.69524 5.05994 0
M  V30 29735 H 2736.51 -2.12767 5.61115 0
M  V30 29736 H 2737.58 -1.01289 4.74203 0
M  V30 29737 N 2738.92 -1.50356 -0.472329 0
M  V30 29738 C 2739.85 -1.72057 -1.57856 0
M  V30 29739 C 2740.83 -0.569533 -1.60282 0
M  V30 29740 O 2742.02 -0.808534 -1.76568 0
M  V30 29741 C 2739.15 -1.81357 -2.96188 0
M  V30 29742 C 2738.1 -2.96535 -3.08628 0
M  V30 29743 C 2737.43 -2.90975 -4.48595 0
M  V30 29744 C 2738.73 -4.37062 -2.85962 0
M  V30 29745 H 2740.42 -2.64679 -1.39948 0
M  V30 29746 H 2737.97 -1.27368 -0.671823 0
M  V30 29747 H 2739.92 -1.95123 -3.73504 0
M  V30 29748 H 2738.64 -0.853558 -3.15249 0
M  V30 29749 H 2737.3 -2.82417 -2.33744 0
M  V30 29750 H 2736.95 -1.92823 -4.64573 0
M  V30 29751 H 2736.65 -3.68297 -4.57855 0
M  V30 29752 H 2738.17 -3.06789 -5.27933 0
M  V30 29753 H 2739.59 -4.51712 -3.53028 0
M  V30 29754 H 2737.98 -5.15825 -3.06667 0
M  V30 29755 H 2739.05 -4.49517 -1.8183 0
M  V30 29756 N 2740.4 0.725419 -1.39912 0
M  V30 29757 C 2741.64 1.48735 -1.37861 0
M  V30 29758 C 2741.98 1.94187 0.0223846 0
M  V30 29759 O 2741.25 1.67468 0.989175 0
M  V30 29760 C 2741.53 2.72033 -2.35945 0
M  V30 29761 C 2741.39 2.32539 -3.85027 0
M  V30 29762 C 2742.71 3.74163 -2.31711 0
M  V30 29763 H 2739.83 0.539519 -0.502084 0
M  V30 29764 H 2742.47 0.828697 -1.70975 0
M  V30 29765 H 2740.62 3.28232 -2.07836 0
M  V30 29766 H 2742.29 1.81898 -4.23923 0
M  V30 29767 H 2740.53 1.64654 -4.01337 0
M  V30 29768 H 2741.2 3.20877 -4.49157 0
M  V30 29769 H 2743.68 3.27571 -2.56586 0
M  V30 29770 H 2742.56 4.58087 -3.02403 0
M  V30 29771 H 2742.82 4.21766 -1.32537 0
M  V30 29772 N 2741.88 1.25246 0.956615 0
M  V30 29773 C 2743.29 1.09015 1.51567 0
M  V30 29774 C 2743.64 -0.334779 1.93323 0
M  V30 29775 O 2742.76 -1.22451 1.78423 0
M  V30 29776 C 2743.36 1.97276 2.75441 0
M  V30 29777 C 2741.92 1.85236 3.27665 0
M  V30 29778 C 2741.06 1.91546 2.00513 0
M  V30 29779 H 2744.01 1.38561 0.773722 0
M  V30 29780 H 2744.04 1.51158 3.49187 0
M  V30 29781 H 2743.55 3.00977 2.45019 0
M  V30 29782 H 2741.65 0.844109 3.62913 0
M  V30 29783 H 2741.76 2.69938 3.95816 0
M  V30 29784 H 2740.13 1.35407 2.15724 0
M  V30 29785 H 2740.91 2.96847 1.72443 0
M  V30 29786 N 2743.35 -1.15894 1.068 0
M  V30 29787 C 2744.29 -2.19402 0.627542 0
M  V30 29788 C 2745.26 -1.58737 -0.352324 0
M  V30 29789 O 2746.45 -1.86697 -0.260078 0
M  V30 29790 C 2743.58 -3.38607 -0.0792965 0
M  V30 29791 C 2742.62 -4.17778 0.858131 0
M  V30 29792 S 2743.45 -4.80881 2.35614 0
M  V30 29793 C 2744.61 -6.0346 1.66094 0
M  V30 29794 H 2744.84 -2.56424 1.50445 0
M  V30 29795 H 2742.38 -1.26767 0.88145 0
M  V30 29796 H 2744.33 -4.07674 -0.480878 0
M  V30 29797 H 2743 -2.9994 -0.932471 0
M  V30 29798 H 2742.19 -5.03045 0.310197 0
M  V30 29799 H 2741.79 -3.54232 1.19983 0
M  V30 29800 H 2744.08 -6.70528 0.969455 0
M  V30 29801 H 2745.03 -6.62812 2.49171 0
M  V30 29802 H 2745.43 -5.52842 1.14132 0
M  V30 29803 N 2744.83 -0.851312 -1.32629 0
M  V30 29804 C 2746.24 -0.508132 -1.79652 0
M  V30 29805 C 2746.59 0.973785 -1.70329 0
M  V30 29806 O 2745.72 1.75942 -1.25989 0
M  V30 29807 C 2746.31 -0.915573 -3.26194 0
M  V30 29808 C 2744.87 -0.624342 -3.71186 0
M  V30 29809 C 2744.02 -1.11714 -2.53802 0
M  V30 29810 H 2746.97 -1.03884 -1.19974 0
M  V30 29811 H 2746.99 -0.230602 -3.79801 0
M  V30 29812 H 2746.5 -1.99417 -3.32948 0
M  V30 29813 H 2744.6 0.443672 -3.69949 0
M  V30 29814 H 2744.72 -1.18829 -4.6413 0
M  V30 29815 H 2743.08 -0.537527 -2.48963 0
M  V30 29816 H 2743.86 -2.20277 -2.63311 0
M  V30 29817 N 2746.31 1.45361 -0.608928 0
M  V30 29818 C 2747.26 2.30542 0.109131 0
M  V30 29819 C 2748.23 1.42183 0.858679 0
M  V30 29820 O 2749.41 1.7111 0.844148 0
M  V30 29821 C 2746.55 3.27111 1.09965 0
M  V30 29822 C 2745.66 4.30573 0.350836 0
M  V30 29823 C 2744.8 5.1425 1.33119 0
M  V30 29824 C 2743.84 6.09438 0.57027 0
M  V30 29825 N 2742.98 6.8589 1.49998 0
M  V30 29826 H 2747.82 2.9141 -0.623246 0
M  V30 29827 H 2745.35 1.43596 -0.319147 0
M  V30 29828 H 2747.31 3.81567 1.68708 0
M  V30 29829 H 2745.94 2.67994 1.79942 0
M  V30 29830 H 2744.99 3.78767 -0.35212 0
M  V30 29831 H 2746.3 4.98209 -0.242812 0
M  V30 29832 H 2745.46 5.73113 1.99064 0
M  V30 29833 H 2744.2 4.46636 1.95877 0
M  V30 29834 H 2743.2 5.49704 -0.102798 0
M  V30 29835 H 2744.43 6.7908 -0.05228 0
M  V30 29836 H 2742.37 6.20964 2.11518 0
M  V30 29837 H 2742.29 7.49883 0.959802 0
M  V30 29838 H 2743.56 7.49293 2.14896 0
M  V30 29839 N 2747.79 0.348166 1.53706 0
M  V30 29840 C 2748.75 -0.494019 2.23813 0
M  V30 29841 C 2749.75 -1.02386 1.23991 0
M  V30 29842 O 2750.94 -0.91237 1.48396 0
M  V30 29843 C 2748.07 -1.68867 2.96136 0
M  V30 29844 H 2749.27 0.119193 2.99663 0
M  V30 29845 H 2746.82 0.0995813 1.55982 0
M  V30 29846 H 2747.55 -2.34045 2.24485 0
M  V30 29847 H 2747.34 -1.3159 3.6936 0
M  V30 29848 H 2748.83 -2.28591 3.49479 0
M  V30 29849 N 2749.27 -1.57412 0.0768958 0
M  V30 29850 C 2750.49 -1.98429 -0.603369 0
M  V30 29851 C 2750.92 -0.955137 -1.62046 0
M  V30 29852 O 2750.27 0.0786459 -1.81129 0
M  V30 29853 C 2750.32 -3.38466 -1.2439 0
M  V30 29854 O 2749.43 -3.38214 -2.35976 0
M  V30 29855 H 2748.77 -0.64572 -0.15473 0
M  V30 29856 H 2751.3 -2.04028 0.152921 0
M  V30 29857 H 2751.31 -3.75763 -1.58954 0
M  V30 29858 H 2749.98 -4.129 -0.498663 0
M  V30 29859 H 2748.56 -3.12693 -2.03168 0
M  V30 29860 N 2750.74 0.196695 -1.56368 0
M  V30 29861 C 2752.02 0.943129 -1.71361 0
M  V30 29862 C 2752.4 2.01442 -0.631228 0
M  V30 29863 O 2751.75 2.25678 0.358032 0
M  V30 29864 C 2751.96 1.531 -3.13626 0
M  V30 29865 C 2753.31 2.01374 -3.7381 0
M  V30 29866 O 2754.33 1.62946 -3.16744 0
M  V30 29867 O 2753.19 2.72082 -4.73955 0
M  V30 29868 H 2750.28 0.442183 -0.698859 0
M  V30 29869 H 2752.83 0.186517 -1.68672 0
M  V30 29870 H 2751.6 0.758717 -3.83874 0
M  V30 29871 H 2751.23 2.35249 -3.20536 0
M  V30 29872 N 2752.22 1.50604 0.464349 0
M  V30 29873 C 2753.15 1.72892 1.56941 0
M  V30 29874 C 2754.13 0.578025 1.59978 0
M  V30 29875 O 2755.32 0.817886 1.76137 0
M  V30 29876 C 2752.45 1.82925 2.95222 0
M  V30 29877 C 2751.4 2.98167 3.07051 0
M  V30 29878 C 2750.73 2.9335 4.47045 0
M  V30 29879 C 2752.03 4.38572 2.8364 0
M  V30 29880 H 2753.72 2.65417 1.38542 0
M  V30 29881 H 2751.27 1.27722 0.665059 0
M  V30 29882 H 2753.22 1.97101 3.72464 0
M  V30 29883 H 2751.95 0.870264 3.14792 0
M  V30 29884 H 2750.6 2.83652 2.32243 0
M  V30 29885 H 2750.25 1.95284 4.63544 0
M  V30 29886 H 2749.95 3.7072 4.55895 0
M  V30 29887 H 2751.48 3.09584 5.26298 0
M  V30 29888 H 2752.89 4.53578 3.50628 0
M  V30 29889 H 2751.29 5.17444 3.03928 0
M  V30 29890 H 2752.36 4.50475 1.79443 0
M  V30 29891 N 2753.7 -0.717989 1.40295 0
M  V30 29892 C 2754.93 -1.50711 1.41753 0
M  V30 29893 C 2755.34 -1.88793 0.0165698 0
M  V30 29894 O 2754.7 -1.55277 -0.958915 0
M  V30 29895 C 2754.75 -2.78396 2.30603 0
M  V30 29896 O 2754.47 -2.41926 3.65244 0
M  V30 29897 C 2755.97 -3.72309 2.40627 0
M  V30 29898 H 2753.19 -0.465186 0.483573 0
M  V30 29899 H 2755.74 -0.885857 1.84317 0
M  V30 29900 H 2753.89 -3.36812 1.91407 0
M  V30 29901 H 2754.31 -3.24068 4.12408 0
M  V30 29902 H 2755.78 -4.58748 3.07009 0
M  V30 29903 H 2756.26 -4.15248 1.43058 0
M  V30 29904 H 2756.86 -3.19806 2.80365 0
M  V30 29905 N 2755.18 -1.25752 -0.94996 0
M  V30 29906 C 2756.42 -1.10941 -1.69764 0
M  V30 29907 C 2756.76 0.347995 -1.91057 0
M  V30 29908 O 2756.03 1.25622 -1.4849 0
M  V30 29909 C 2756.32 -1.86939 -3.07776 0
M  V30 29910 C 2756.17 -3.40535 -2.93864 0
M  V30 29911 C 2757.49 -1.65623 -4.07746 0
M  V30 29912 H 2754.61 -0.404407 -0.616136 0
M  V30 29913 H 2757.25 -1.54641 -1.10391 0
M  V30 29914 H 2755.4 -1.49797 -3.5846 0
M  V30 29915 H 2757.07 -3.87379 -2.5047 0
M  V30 29916 H 2755.31 -3.68008 -2.2968 0
M  V30 29917 H 2755.98 -3.88929 -3.91712 0
M  V30 29918 H 2758.46 -1.97966 -3.6599 0
M  V30 29919 H 2757.34 -2.21227 -5.02344 0
M  V30 29920 H 2757.6 -0.598672 -4.38028 0
M  V30 29921 N 2756.66 1.15326 -1.07413 0
M  V30 29922 C 2757.9 1.85759 -0.796106 0
M  V30 29923 C 2758.23 1.82766 0.679832 0
M  V30 29924 O 2757.5 1.26903 1.4924 0
M  V30 29925 H 2756.08 0.687774 -0.291507 0
M  V30 29926 H 2758.74 1.398 -1.35801 0
M  V30 29927 H 2757.83 2.90879 -1.13119 0
M  V30 29928 N 2758.13 0.858334 1.32176 0
M  V30 29929 C 2759.08 0.303647 2.28794 0
M  V30 29930 C 2760.05 -0.591426 1.55214 0
M  V30 29931 O 2761.24 -0.525553 1.83419 0
M  V30 29932 C 2758.38 -0.49883 3.41476 0
M  V30 29933 C 2757.49 0.422448 4.2993 0
M  V30 29934 C 2756.62 -0.393018 5.29744 0
M  V30 29935 C 2755.66 0.525425 6.09841 0
M  V30 29936 N 2754.8 -0.253084 7.01644 0
M  V30 29937 H 2759.64 1.13281 2.75629 0
M  V30 29938 H 2757.18 0.570049 1.35605 0
M  V30 29939 H 2759.14 -0.979755 4.05533 0
M  V30 29940 H 2757.77 -1.29279 2.95782 0
M  V30 29941 H 2756.82 1.02178 3.6642 0
M  V30 29942 H 2758.13 1.12717 4.85897 0
M  V30 29943 H 2757.28 -0.936951 5.99421 0
M  V30 29944 H 2756.02 -1.13109 4.74402 0
M  V30 29945 H 2755.03 1.08121 5.39064 0
M  V30 29946 H 2756.25 1.26216 6.67268 0
M  V30 29947 H 2754.2 -0.974181 6.48726 0
M  V30 29948 H 2754.12 0.392531 7.5498 0
M  V30 29949 H 2755.38 -0.778625 7.75602 0
M  V30 29950 N 2759.61 -1.45036 0.616628 0
M  V30 29951 C 2760.86 -2.01384 0.112897 0
M  V30 29952 C 2761.17 -1.48971 -1.26755 0
M  V30 29953 O 2762.38 -1.97354 -1.86451 0
M  V30 29954 C 2760.84 -3.59583 0.15112 0
M  V30 29955 C 2760.44 -4.20992 1.53198 0
M  V30 29956 C 2762.19 -4.2346 -0.2969 0
M  V30 29957 C 2760.1 -5.7137 1.5261 0
M  V30 29958 H 2759.03 -0.75302 0.0384387 0
M  V30 29959 H 2761.68 -1.66411 0.773291 0
M  V30 29960 H 2760.06 -3.91787 -0.576101 0
M  V30 29961 H 2761.23 -4.00348 2.28163 0
M  V30 29962 H 2759.55 -3.69344 1.92286 0
M  V30 29963 H 2762.14 -5.33738 -0.320618 0
M  V30 29964 H 2762.49 -3.94772 -1.32138 0
M  V30 29965 H 2763.02 -3.96006 0.377349 0
M  V30 29966 H 2759.76 -6.04771 2.52848 0
M  V30 29967 H 2759.28 -5.9418 0.819168 0
M  V30 29968 H 2760.96 -6.34738 1.25368 0
M  V30 29969 N 2761.09 -0.356312 -1.53519 0
M  V30 29970 C 2762.32 0.236947 -2.05237 0
M  V30 29971 C 2762.73 1.43746 -1.23019 0
M  V30 29972 O 2762.07 1.81829 -0.261532 0
M  V30 29973 C 2762.13 0.703438 -3.52551 0
M  V30 29974 C 2761.8 -0.379139 -4.55425 0
M  V30 29975 C 2762.79 -1.22601 -5.05238 0
M  V30 29976 C 2760.48 -0.536726 -4.99424 0
M  V30 29977 C 2762.47 -2.21589 -5.97643 0
M  V30 29978 C 2760.16 -1.52999 -5.91637 0
M  V30 29979 C 2761.16 -2.36801 -6.40636 0
M  V30 29980 O 2760.85 -3.34434 -7.31033 0
M  V30 29981 H 2760.58 0.0472422 -0.674347 0
M  V30 29982 H 2763.13 -0.510273 -1.98961 0
M  V30 29983 H 2761.36 1.50211 -3.56333 0
M  V30 29984 H 2763.05 1.21867 -3.87174 0
M  V30 29985 H 2763.82 -1.11541 -4.72 0
M  V30 29986 H 2759.7 0.105753 -4.60879 0
M  V30 29987 H 2763.24 -2.87036 -6.35811 0
M  V30 29988 H 2759.14 -1.6411 -6.2429 0
M  V30 29989 H 2759.91 -3.30054 -7.49004 0
M  V30 29990 N 2762.57 1.57369 -0.0852427 0
M  V30 29991 C 2763.53 2.12346 0.862662 0
M  V30 29992 C 2764.53 1.05048 1.21744 0
M  V30 29993 O 2765.72 1.30978 1.1485 0
M  V30 29994 C 2762.85 2.63592 2.16176 0
M  V30 29995 H 2764.05 2.97413 0.385459 0
M  V30 29996 H 2761.6 1.55441 0.163636 0
M  V30 29997 H 2762.33 1.82018 2.68403 0
M  V30 29998 H 2762.12 3.42033 1.91717 0
M  V30 29999 H 2763.61 3.06154 2.84006 0
M  V30 30000 N 2764.05 -0.188399 1.5647 0
M  V30 30001 C 2765.01 -1.21715 1.94212 0
M  V30 30002 C 2766.01 -1.38087 0.823925 0
M  V30 30003 O 2767.2 -1.35785 1.09124 0
M  V30 30004 C 2764.33 -2.58533 2.22202 0
M  V30 30005 H 2765.52 -0.894367 2.86254 0
M  V30 30006 H 2763.08 -0.430185 1.50263 0
M  V30 30007 H 2763.81 -2.95854 1.32819 0
M  V30 30008 H 2763.6 -2.48019 3.03692 0
M  V30 30009 H 2765.09 -3.32705 2.52382 0
M  V30 30010 N 2765.53 -1.50848 -0.456355 0
M  V30 30011 C 2766.46 -1.65443 -1.57174 0
M  V30 30012 C 2767.44 -0.502252 -1.54649 0
M  V30 30013 O 2768.62 -0.723664 -1.74056 0
M  V30 30014 C 2765.75 -1.65057 -2.9576 0
M  V30 30015 C 2764.79 -2.86013 -3.16384 0
M  V30 30016 S 2765.63 -4.4711 -2.94708 0
M  V30 30017 C 2766.78 -4.49439 -4.35609 0
M  V30 30018 H 2767.02 -2.5979 -1.44557 0
M  V30 30019 H 2764.55 -1.40295 -0.644733 0
M  V30 30020 H 2766.51 -1.65518 -3.75651 0
M  V30 30021 H 2765.17 -0.719207 -3.05755 0
M  V30 30022 H 2764.36 -2.82089 -4.17663 0
M  V30 30023 H 2763.96 -2.83195 -2.44288 0
M  V30 30024 H 2766.25 -4.23909 -5.28495 0
M  V30 30025 H 2767.2 -5.51145 -4.44572 0
M  V30 30026 H 2767.61 -3.78975 -4.18376 0
M  V30 30027 N 2767 0.710538 -1.40674 0
M  V30 30028 C 2767.94 1.83435 -1.35745 0
M  V30 30029 C 2768.91 1.61007 -0.227025 0
M  V30 30030 O 2770.1 1.83953 -0.41151 0
M  V30 30031 C 2767.23 3.19863 -1.1138 0
M  V30 30032 C 2766.27 3.61109 -2.26941 0
M  V30 30033 S 2767.1 3.67641 -3.89359 0
M  V30 30034 C 2768.26 5.06819 -3.67267 0
M  V30 30035 H 2768.49 1.87337 -2.30851 0
M  V30 30036 H 2766.03 0.877809 -1.27019 0
M  V30 30037 H 2767.98 3.98629 -0.980074 0
M  V30 30038 H 2766.65 3.13588 -0.17919 0
M  V30 30039 H 2765.84 4.6018 -2.05548 0
M  V30 30040 H 2765.44 2.89614 -2.36643 0
M  V30 30041 H 2767.73 5.93885 -3.26047 0
M  V30 30042 H 2768.68 5.33249 -4.65887 0
M  V30 30043 H 2769.08 4.77651 -3.00849 0
M  V30 30044 N 2768.48 1.26254 0.943277 0
M  V30 30045 C 2769.73 1.11065 1.68367 0
M  V30 30046 C 2770.04 -0.34607 1.92514 0
M  V30 30047 O 2771.25 -0.618599 2.64359 0
M  V30 30048 C 2769.71 1.93952 3.03168 0
M  V30 30049 C 2769.31 3.44186 2.86776 0
M  V30 30050 C 2771.06 1.87366 3.80912 0
M  V30 30051 C 2768.96 4.19326 4.17036 0
M  V30 30052 H 2767.89 0.412034 0.631462 0
M  V30 30053 H 2770.55 1.50546 1.0492 0
M  V30 30054 H 2768.93 1.47302 3.67584 0
M  V30 30055 H 2770.1 3.98589 2.31222 0
M  V30 30056 H 2768.42 3.51985 2.22476 0
M  V30 30057 H 2771.01 2.40792 4.77413 0
M  V30 30058 H 2771.36 0.843928 4.07656 0
M  V30 30059 H 2771.89 2.31827 3.23266 0
M  V30 30060 H 2768.63 5.2276 3.95478 0
M  V30 30061 H 2768.15 3.69704 4.72312 0
M  V30 30062 H 2769.83 4.2766 4.85506 0
M  V30 30063 N 2769.96 -1.14755 1.08024 0
M  V30 30064 C 2770.89 -2.18724 0.650777 0
M  V30 30065 C 2771.87 -1.59102 -0.335468 0
M  V30 30066 O 2773.05 -1.86963 -0.240262 0
M  V30 30067 C 2770.18 -3.38672 -0.0433782 0
M  V30 30068 C 2769.23 -4.16844 0.902393 0
M  V30 30069 S 2770.06 -4.78355 2.40701 0
M  V30 30070 C 2771.22 -6.01664 1.72485 0
M  V30 30071 H 2771.45 -2.54814 1.53157 0
M  V30 30072 H 2768.98 -1.25825 0.894845 0
M  V30 30073 H 2770.94 -4.08161 -0.437612 0
M  V30 30074 H 2769.6 -3.00912 -0.900606 0
M  V30 30075 H 2768.79 -5.02687 0.363534 0
M  V30 30076 H 2768.4 -3.52939 1.23734 0
M  V30 30077 H 2770.69 -6.69462 1.04052 0
M  V30 30078 H 2771.63 -6.60132 2.56187 0
M  V30 30079 H 2772.04 -5.516 1.19989 0
M  V30 30080 N 2771.44 -0.865331 -1.31719 0
M  V30 30081 C 2772.71 -0.394823 -1.91574 0
M  V30 30082 C 2773.09 1.12268 -1.78771 0
M  V30 30083 O 2772.44 1.94916 -1.19248 0
M  V30 30084 C 2772.65 -0.871042 -3.37955 0
M  V30 30085 C 2774 -0.894457 -4.15072 0
M  V30 30086 O 2775.02 -0.816386 -3.46718 0
M  V30 30087 O 2773.88 -1.0066 -5.3715 0
M  V30 30088 H 2770.98 -0.117243 -0.818647 0
M  V30 30089 H 2773.52 -0.952938 -1.40418 0
M  V30 30090 H 2772.3 -1.9145 -3.41266 0
M  V30 30091 H 2771.92 -0.290977 -3.96534 0
M  V30 30092 N 2772.92 1.44707 -0.624311 0
M  V30 30093 C 2774.15 2.06173 -0.132763 0
M  V30 30094 C 2774.55 1.46676 1.1951 0
M  V30 30095 O 2773.9 0.581522 1.74253 0
M  V30 30096 C 2773.96 3.59444 0.0636101 0
M  V30 30097 C 2773.62 4.41368 -1.18503 0
M  V30 30098 C 2774.62 4.75285 -2.10715 0
M  V30 30099 C 2772.3 4.81853 -1.41854 0
M  V30 30100 C 2774.3 5.48561 -3.24592 0
M  V30 30101 C 2771.99 5.5488 -2.56029 0
M  V30 30102 C 2772.98 5.88153 -3.47225 0
M  V30 30103 O 2772.67 6.59695 -4.59411 0
M  V30 30104 H 2772.4 0.671966 -0.0737432 0
M  V30 30105 H 2774.96 1.86675 -0.856822 0
M  V30 30106 H 2773.19 3.77405 0.842743 0
M  V30 30107 H 2774.88 4.02698 0.508853 0
M  V30 30108 H 2775.64 4.44551 -1.93906 0
M  V30 30109 H 2771.52 4.5538 -0.717636 0
M  V30 30110 H 2775.07 5.74449 -3.95795 0
M  V30 30111 H 2770.96 5.85029 -2.72784 0
M  V30 30112 H 2771.73 6.78158 -4.58305 0
M  V30 30113 N 2774.39 0.364449 1.53328 0
M  V30 30114 C 2775.62 -0.22606 2.0536 0
M  V30 30115 C 2776.03 -1.43092 1.23779 0
M  V30 30116 O 2775.37 -1.81688 0.271171 0
M  V30 30117 C 2775.44 -0.684732 3.52919 0
M  V30 30118 C 2775.1 0.403286 4.55217 0
M  V30 30119 C 2776.1 1.25278 5.0458 0
M  V30 30120 C 2773.78 0.563204 4.99133 0
M  V30 30121 C 2775.78 2.24755 5.96459 0
M  V30 30122 C 2773.46 1.56134 5.90818 0
M  V30 30123 C 2774.46 2.40195 6.39371 0
M  V30 30124 O 2774.15 3.38306 7.29249 0
M  V30 30125 H 2773.88 -0.0436653 0.674588 0
M  V30 30126 H 2776.44 0.520817 1.98687 0
M  V30 30127 H 2774.67 -1.48319 3.57125 0
M  V30 30128 H 2776.35 -1.19812 3.87814 0
M  V30 30129 H 2777.12 1.14042 4.71401 0
M  V30 30130 H 2773 -0.0813099 4.60928 0
M  V30 30131 H 2776.54 2.90404 6.3428 0
M  V30 30132 H 2772.44 1.67418 6.23411 0
M  V30 30133 H 2773.21 3.34022 7.47243 0
M  V30 30134 N 2775.87 -1.57322 0.0935872 0
M  V30 30135 C 2776.82 -2.13941 -0.865897 0
M  V30 30136 C 2777.79 -1.05756 -1.28081 0
M  V30 30137 O 2778.97 -1.33535 -1.36283 0
M  V30 30138 C 2776.11 -2.72291 -2.12018 0
M  V30 30139 C 2775.23 -3.94704 -1.75593 0
M  V30 30140 C 2774.36 -4.41224 -2.95796 0
M  V30 30141 C 2773.4 -5.56229 -2.55491 0
M  V30 30142 N 2772.54 -5.97608 -3.68523 0
M  V30 30143 H 2777.38 -2.95616 -0.376209 0
M  V30 30144 H 2774.91 -1.46067 -0.174026 0
M  V30 30145 H 2776.87 -3.0424 -2.85471 0
M  V30 30146 H 2775.5 -1.93347 -2.58489 0
M  V30 30147 H 2774.55 -3.69079 -0.921143 0
M  V30 30148 H 2775.87 -4.78174 -1.41955 0
M  V30 30149 H 2775.02 -4.74948 -3.77504 0
M  V30 30150 H 2773.76 -3.56651 -3.32643 0
M  V30 30151 H 2772.76 -5.22134 -1.72209 0
M  V30 30152 H 2773.99 -6.42549 -2.19789 0
M  V30 30153 H 2771.94 -5.15982 -4.05091 0
M  V30 30154 H 2771.85 -6.75871 -3.38725 0
M  V30 30155 H 2773.12 -6.35962 -4.50746 0
M  V30 30156 N 2777.35 0.180099 -1.56568 0
M  V30 30157 C 2778.28 1.24748 -1.92277 0
M  V30 30158 C 2779.29 1.40934 -0.814947 0
M  V30 30159 O 2780.48 1.41093 -1.09338 0
M  V30 30160 C 2777.58 2.61748 -2.1527 0
M  V30 30161 C 2776.76 2.66975 -3.46472 0
M  V30 30162 C 2775.82 3.85276 -3.58397 0
M  V30 30163 O 2774.84 3.71682 -4.31093 0
M  V30 30164 N 2776.04 5.01366 -2.92595 0
M  V30 30165 H 2778.81 0.944252 -2.84436 0
M  V30 30166 H 2776.37 0.369925 -1.57617 0
M  V30 30167 H 2778.36 3.39341 -2.20521 0
M  V30 30168 H 2776.93 2.84497 -1.29538 0
M  V30 30169 H 2776.15 1.75543 -3.52956 0
M  V30 30170 H 2777.44 2.67471 -4.32824 0
M  V30 30171 H 2776.84 5.15312 -2.33389 0
M  V30 30172 H 2775.39 5.76853 -3.03454 0
M  V30 30173 N 2778.83 1.51088 0.448349 0
M  V30 30174 C 2780.05 1.67283 1.22602 0
M  V30 30175 C 2780.48 0.365078 1.84523 0
M  V30 30176 O 2779.84 -0.673612 1.68322 0
M  V30 30177 C 2779.88 2.78233 2.29388 0
M  V30 30178 O 2778.99 2.41069 3.34604 0
M  V30 30179 H 2778.33 0.558136 0.359695 0
M  V30 30180 H 2780.86 1.97593 0.530868 0
M  V30 30181 H 2780.87 3.0199 2.74346 0
M  V30 30182 H 2779.54 3.73134 1.83694 0
M  V30 30183 H 2778.12 2.27843 2.95198 0
M  V30 30184 N 2780.31 -0.703068 1.41049 0
M  V30 30185 C 2781.25 -1.81708 1.42305 0
M  V30 30186 C 2782.22 -1.63751 0.278364 0
M  V30 30187 O 2783.41 -1.84708 0.478298 0
M  V30 30188 C 2780.55 -3.19528 1.30367 0
M  V30 30189 C 2779.66 -3.4897 2.54644 0
M  V30 30190 C 2778.8 -4.76364 2.35055 0
M  V30 30191 C 2777.84 -4.98749 3.54846 0
M  V30 30192 N 2776.97 -6.17364 3.34374 0
M  V30 30193 H 2781.81 -1.79969 2.37519 0
M  V30 30194 H 2779.35 -0.878962 1.17952 0
M  V30 30195 H 2781.31 -3.99131 1.2145 0
M  V30 30196 H 2779.94 -3.20464 0.387658 0
M  V30 30197 H 2778.99 -2.63829 2.74041 0
M  V30 30198 H 2780.3 -3.61417 3.43772 0
M  V30 30199 H 2779.46 -5.64008 2.23562 0
M  V30 30200 H 2778.19 -4.6615 1.43372 0
M  V30 30201 H 2777.2 -4.09556 3.66802 0
M  V30 30202 H 2778.42 -5.10827 4.47473 0
M  V30 30203 H 2776.37 -6.08377 2.45383 0
M  V30 30204 H 2776.29 -6.30544 4.17074 0
M  V30 30205 H 2777.56 -7.07762 3.26638 0
M  V30 30206 N 2781.78 -1.26752 -0.936569 0
M  V30 30207 C 2783.03 -1.12736 -1.68578 0
M  V30 30208 C 2783.36 0.327711 -1.91415 0
M  V30 30209 O 2782.64 1.2404 -1.49814 0
M  V30 30210 C 2782.92 -1.90193 -3.05776 0
M  V30 30211 C 2782.77 -3.43632 -2.90236 0
M  V30 30212 C 2784.09 -1.69939 -4.05967 0
M  V30 30213 H 2781.21 -0.410919 -0.611812 0
M  V30 30214 H 2783.85 -1.55803 -1.08745 0
M  V30 30215 H 2782 -1.5359 -3.56851 0
M  V30 30216 H 2783.68 -3.90014 -2.46347 0
M  V30 30217 H 2781.92 -3.70423 -2.25763 0
M  V30 30218 H 2782.59 -3.93062 -3.87565 0
M  V30 30219 H 2785.07 -2.01836 -3.6387 0
M  V30 30220 H 2783.94 -2.26543 -4.9997 0
M  V30 30221 H 2784.2 -0.645097 -4.37368 0
M  V30 30222 N 2783.26 1.1418 -1.08631 0
M  V30 30223 C 2784.21 2.19337 -0.718338 0
M  V30 30224 C 2785.18 1.63431 0.296558 0
M  V30 30225 O 2786.36 1.89949 0.180046 0
M  V30 30226 C 2783.5 3.44831 -0.136264 0
M  V30 30227 C 2782.62 4.14877 -1.20421 0
M  V30 30228 C 2781.75 5.27961 -0.585759 0
M  V30 30229 C 2780.79 5.89843 -1.63559 0
M  V30 30230 N 2779.93 6.94373 -1.03876 0
M  V30 30231 H 2784.77 2.50161 -1.61937 0
M  V30 30232 H 2782.31 1.22842 -0.809211 0
M  V30 30233 H 2784.26 4.16625 0.218948 0
M  V30 30234 H 2782.89 3.14482 0.728065 0
M  V30 30235 H 2781.95 3.41448 -1.67682 0
M  V30 30236 H 2783.26 4.56962 -1.99967 0
M  V30 30237 H 2782.41 6.06436 -0.178924 0
M  V30 30238 H 2781.15 4.87103 0.241334 0
M  V30 30239 H 2780.16 5.10069 -2.05206 0
M  V30 30240 H 2781.38 6.32775 -2.4652 0
M  V30 30241 H 2779.33 6.55587 -0.232803 0
M  V30 30242 H 2779.24 7.34957 -1.77129 0
M  V30 30243 H 2780.51 7.76719 -0.65786 0
M  V30 30244 N 2784.74 0.872304 1.31258 0
M  V30 30245 C 2785.69 0.327897 2.28459 0
M  V30 30246 C 2786.66 -0.57493 1.55832 0
M  V30 30247 O 2787.84 -0.506069 1.83966 0
M  V30 30248 C 2784.98 -0.462584 3.41986 0
M  V30 30249 C 2784.1 0.468024 4.29457 0
M  V30 30250 C 2783.23 -0.33681 5.30131 0
M  V30 30251 C 2782.27 0.590077 6.09249 0
M  V30 30252 N 2781.41 -0.178651 7.01873 0
M  V30 30253 H 2786.25 1.16198 2.74412 0
M  V30 30254 H 2783.78 0.5844 1.34993 0
M  V30 30255 H 2785.74 -0.936688 4.06549 0
M  V30 30256 H 2784.37 -1.26135 2.97136 0
M  V30 30257 H 2783.42 1.06058 3.65316 0
M  V30 30258 H 2784.74 1.17864 4.84675 0
M  V30 30259 H 2783.89 -0.873322 6.00382 0
M  V30 30260 H 2782.63 -1.08071 4.75575 0
M  V30 30261 H 2781.63 1.13833 5.37887 0
M  V30 30262 H 2782.86 1.33287 6.65891 0
M  V30 30263 H 2780.8 -0.90532 6.49723 0
M  V30 30264 H 2780.72 0.472585 7.54521 0
M  V30 30265 H 2781.99 -0.696318 7.76384 0
M  V30 30266 N 2786.22 -1.44374 0.631976 0
M  V30 30267 C 2787.15 -2.28932 -0.11087 0
M  V30 30268 C 2788.16 -1.4133 -0.808061 0
M  V30 30269 O 2789.35 -1.65474 -0.669367 0
M  V30 30270 C 2786.45 -3.17722 -1.17923 0
M  V30 30271 C 2785.63 -4.33744 -0.564381 0
M  V30 30272 C 2784.68 -5.03562 -1.52681 0
M  V30 30273 O 2783.71 -5.59551 -1.04362 0
M  V30 30274 N 2784.91 -5.05093 -2.86114 0
M  V30 30275 H 2787.68 -2.93326 0.614809 0
M  V30 30276 H 2785.24 -1.5483 0.473199 0
M  V30 30277 H 2787.23 -3.61295 -1.82341 0
M  V30 30278 H 2785.8 -2.55072 -1.80712 0
M  V30 30279 H 2785.02 -3.93352 0.258442 0
M  V30 30280 H 2786.31 -5.08623 -0.134265 0
M  V30 30281 H 2785.71 -4.60939 -3.27951 0
M  V30 30282 H 2784.26 -5.52451 -3.45891 0
M  V30 30283 N 2787.7 -0.372575 -1.53133 0
M  V30 30284 C 2789.11 -0.0218081 -1.59585 0
M  V30 30285 C 2789.31 1.46129 -1.38739 0
M  V30 30286 O 2788.37 2.22376 -1.19603 0
M  V30 30287 C 2789.68 -0.484011 -2.96779 0
M  V30 30288 C 2791.23 -0.43883 -3.09909 0
M  V30 30289 C 2791.7 -0.876955 -4.49526 0
M  V30 30290 N 2793.2 -0.832294 -4.55661 0
M  V30 30291 C 2793.93 -1.1429 -5.61894 0
M  V30 30292 N 2793.43 -1.52315 -6.75849 0
M  V30 30293 N 2795.22 -1.06524 -5.51914 0
M  V30 30294 H 2787.37 -1.3383 -1.64934 0
M  V30 30295 H 2789.63 -0.547471 -0.773938 0
M  V30 30296 H 2789.34 -1.5192 -3.17196 0
M  V30 30297 H 2789.21 0.125718 -3.7699 0
M  V30 30298 H 2791.6 0.587243 -2.89198 0
M  V30 30299 H 2791.68 -1.08415 -2.31689 0
M  V30 30300 H 2791.33 -1.90118 -4.70975 0
M  V30 30301 H 2791.26 -0.208819 -5.26186 0
M  V30 30302 H 2793.75 -0.552261 -3.73843 0
M  V30 30303 H 2794.06 -1.74423 -7.52859 0
M  V30 30304 H 2792.4 -1.56186 -6.77223 0
M  V30 30305 H 2795.6 -0.767317 -4.61768 0
M  V30 30306 H 2795.77 -1.31064 -6.34607 0
M  V30 30307 N 2789.17 1.5727 -0.101929 0
M  V30 30308 C 2790.11 2.11438 0.884685 0
M  V30 30309 C 2791.12 1.05316 1.24147 0
M  V30 30310 O 2792.31 1.32742 1.19339 0
M  V30 30311 C 2789.41 2.58488 2.19174 0
M  V30 30312 C 2788.58 3.8852 2.00926 0
M  V30 30313 C 2787.64 4.21346 3.15205 0
M  V30 30314 O 2786.67 4.90453 2.88868 0
M  V30 30315 N 2787.87 3.77295 4.41167 0
M  V30 30316 H 2790.63 2.96714 0.422006 0
M  V30 30317 H 2788.19 1.61687 0.0829844 0
M  V30 30318 H 2790.19 2.77489 2.94588 0
M  V30 30319 H 2788.76 1.78185 2.56844 0
M  V30 30320 H 2787.98 3.78599 1.09803 0
M  V30 30321 H 2789.26 4.73577 1.86018 0
M  V30 30322 H 2788.66 3.21524 4.65445 0
M  V30 30323 H 2787.22 4.01438 5.13508 0
M  V30 30324 N 2790.65 -0.171793 1.56661 0
M  V30 30325 C 2791.58 -1.23727 1.92936 0
M  V30 30326 C 2792.6 -1.405 0.822409 0
M  V30 30327 O 2793.79 -1.40512 1.10085 0
M  V30 30328 C 2790.89 -2.60603 2.16655 0
M  V30 30329 C 2790.06 -2.65134 3.47883 0
M  V30 30330 C 2789.12 -3.8337 3.60435 0
M  V30 30331 O 2788.14 -3.69391 4.33058 0
M  V30 30332 N 2789.35 -4.99808 2.9525 0
M  V30 30333 H 2792.11 -0.929155 2.84933 0
M  V30 30334 H 2789.67 -0.361561 1.57811 0
M  V30 30335 H 2791.66 -3.38167 2.22318 0
M  V30 30336 H 2790.23 -2.83806 1.31045 0
M  V30 30337 H 2789.45 -1.73669 3.53882 0
M  V30 30338 H 2790.74 -2.65172 4.34236 0
M  V30 30339 H 2790.14 -5.14067 2.36119 0
M  V30 30340 H 2788.7 -5.75235 3.06509 0
M  V30 30341 N 2792.13 -1.51324 -0.44033 0
M  V30 30342 C 2793.06 -1.75367 -1.54171 0
M  V30 30343 C 2794.04 -0.603403 -1.59038 0
M  V30 30344 O 2795.23 -0.845804 -1.74814 0
M  V30 30345 C 2792.36 -1.87598 -2.92274 0
M  V30 30346 C 2791.31 -3.03014 -3.02269 0
M  V30 30347 C 2790.64 -3.00425 -4.42322 0
M  V30 30348 C 2791.94 -4.43029 -2.76627 0
M  V30 30349 H 2793.63 -2.67588 -1.34302 0
M  V30 30350 H 2791.18 -1.28764 -0.644656 0
M  V30 30351 H 2793.13 -2.03002 -3.69281 0
M  V30 30352 H 2791.85 -0.920234 -3.13368 0
M  V30 30353 H 2790.51 -2.87311 -2.27701 0
M  V30 30354 H 2790.16 -2.02634 -4.60379 0
M  V30 30355 H 2789.86 -3.77926 -4.49939 0
M  V30 30356 H 2791.38 -3.17918 -5.21306 0
M  V30 30357 H 2792.8 -4.59099 -3.43368 0
M  V30 30358 H 2791.2 -5.22213 -2.95657 0
M  V30 30359 H 2792.27 -4.53273 -1.72254 0
M  V30 30360 N 2793.61 0.695578 -1.41419 0
M  V30 30361 C 2794.52 1.8393 -1.45626 0
M  V30 30362 C 2795.53 1.70508 -0.346855 0
M  V30 30363 O 2796.71 1.92423 -0.594574 0
M  V30 30364 C 2793.78 3.19911 -1.33633 0
M  V30 30365 C 2792.84 3.45442 -2.54888 0
M  V30 30366 C 2792.07 4.74936 -2.43458 0
M  V30 30367 O 2792.29 5.51421 -1.45914 0
M  V30 30368 O 2791.23 5.0125 -3.33215 0
M  V30 30369 H 2795.05 1.83338 -2.42118 0
M  V30 30370 H 2792.64 0.848637 -1.22957 0
M  V30 30371 H 2794.52 4.01096 -1.29228 0
M  V30 30372 H 2793.19 3.21187 -0.402564 0
M  V30 30373 H 2792.1 2.64188 -2.64869 0
M  V30 30374 H 2793.43 3.48981 -3.47093 0
M  V30 30375 N 2795.09 1.27247 0.929833 0
M  V30 30376 C 2796 1.11596 2.06358 0
M  V30 30377 C 2797.01 0.0465266 1.73938 0
M  V30 30378 O 2798.19 0.252579 1.9981 0
M  V30 30379 C 2795.25 0.762497 3.38211 0
M  V30 30380 C 2794.32 1.91257 3.84343 0
M  V30 30381 C 2793.55 1.57588 5.09904 0
M  V30 30382 O 2793.77 0.482793 5.68353 0
M  V30 30383 O 2792.71 2.41436 5.51355 0
M  V30 30384 H 2796.53 2.06734 2.22474 0
M  V30 30385 H 2794.12 1.06415 1.04863 0
M  V30 30386 H 2796 0.578614 4.17409 0
M  V30 30387 H 2794.67 -0.159382 3.23307 0
M  V30 30388 H 2793.58 2.1515 3.06041 0
M  V30 30389 H 2794.91 2.81458 4.03785 0
M  V30 30390 N 2796.57 -1.13603 1.09235 0
M  V30 30391 C 2797.5 -2.18636 0.687832 0
M  V30 30392 C 2798.51 -1.60557 -0.269331 0
M  V30 30393 O 2799.7 -1.78413 -0.0556849 0
M  V30 30394 C 2796.8 -3.38899 -0.00745944 0
M  V30 30395 C 2795.97 -4.26492 0.970745 0
M  V30 30396 C 2795.03 -5.25291 0.309222 0
M  V30 30397 O 2794.06 -5.6111 0.956247 0
M  V30 30398 N 2795.26 -5.7288 -0.937454 0
M  V30 30399 H 2798.02 -2.53954 1.59145 0
M  V30 30400 H 2795.59 -1.28906 0.979538 0
M  V30 30401 H 2797.58 -4.02064 -0.461168 0
M  V30 30402 H 2796.15 -3.01835 -0.8133 0
M  V30 30403 H 2795.37 -3.60132 1.60307 0
M  V30 30404 H 2796.66 -4.81872 1.63331 0
M  V30 30405 H 2796.05 -5.45923 -1.48272 0
M  V30 30406 H 2794.61 -6.37992 -1.33451 0
M  V30 30407 N 2798.04 -0.879253 -1.30793 0
M  V30 30408 C 2798.99 -0.340008 -2.28282 0
M  V30 30409 C 2799.96 0.566658 -1.56135 0
M  V30 30410 O 2801.15 0.496306 -1.84232 0
M  V30 30411 C 2798.29 0.444441 -3.42226 0
M  V30 30412 C 2797.4 -0.490793 -4.29203 0
M  V30 30413 C 2796.53 0.308691 -5.30302 0
M  V30 30414 C 2795.57 -0.622379 -6.08928 0
M  V30 30415 N 2794.71 0.141427 -7.01958 0
M  V30 30416 H 2799.55 -1.17652 -2.73792 0
M  V30 30417 H 2797.09 -0.591551 -1.34681 0
M  V30 30418 H 2799.04 0.915114 -4.0704 0
M  V30 30419 H 2797.67 1.24557 -2.97801 0
M  V30 30420 H 2796.73 -1.07994 -3.64748 0
M  V30 30421 H 2798.04 -1.20433 -4.84043 0
M  V30 30422 H 2797.19 0.84147 -6.00836 0
M  V30 30423 H 2795.93 1.05547 -4.76142 0
M  V30 30424 H 2794.94 -1.16683 -5.37276 0
M  V30 30425 H 2796.16 -1.36816 -6.65175 0
M  V30 30426 H 2794.11 0.870851 -6.50194 0
M  V30 30427 H 2794.02 -0.512592 -7.5426 0
M  V30 30428 H 2795.29 0.655135 -7.76742 0
M  V30 30429 N 2799.52 1.44037 -0.639624 0
M  V30 30430 C 2800.47 2.32488 0.0723 0
M  V30 30431 C 2801.46 1.47836 0.827103 0
M  V30 30432 O 2802.67 1.64129 0.739041 0
M  V30 30433 H 2799.04 0.750817 0.0421564 0
M  V30 30434 H 2801.02 2.90274 -0.691644 0
M  V30 30435 C 2799.76 3.31955 1.03446 0
M  V30 30436 H 2799.09 3.97109 0.46308 0
M  V30 30437 H 2800.53 3.96507 1.50193 0
M  V30 30438 C 2798.99 2.61521 2.12387 0
M  V30 30439 O 2799.52 2.42049 3.20585 0
M  V30 30440 N 2797.72 2.21119 1.88559 0
M  V30 30441 H 2797.27 2.37156 1.00572 0
M  V30 30442 H 2797.23 1.74321 2.61648 0
M  V30 30443 N 2801 0.380691 1.52933 0
M  V30 30444 C 2801.96 -0.446433 2.2481 0
M  V30 30445 C 2802.96 -0.997325 1.26135 0
M  V30 30446 O 2804.15 -0.880687 1.50298 0
M  V30 30447 C 2801.28 -1.62548 2.99652 0
M  V30 30448 H 2802.48 0.182729 2.99343 0
M  V30 30449 H 2800.03 0.132645 1.55736 0
M  V30 30450 H 2800.77 -2.29231 2.29399 0
M  V30 30451 H 2800.55 -1.23726 3.72068 0
M  V30 30452 H 2802.04 -2.21127 3.5425 0
M  V30 30453 N 2802.48 -1.57214 0.110268 0
M  V30 30454 C 2803.89 -1.81995 -0.416495 0
M  V30 30455 C 2804.24 -1.02688 -1.67181 0
M  V30 30456 O 2803.36 -0.26082 -2.14822 0
M  V30 30457 C 2803.96 -3.3011 -0.762408 0
M  V30 30458 C 2802.52 -3.55603 -1.23385 0
M  V30 30459 C 2801.67 -2.76276 -0.238117 0
M  V30 30460 H 2804.62 -1.55113 0.335518 0
M  V30 30461 H 2804.64 -3.44262 -1.62062 0
M  V30 30462 H 2804.15 -3.87805 0.151415 0
M  V30 30463 H 2802.25 -3.03256 -2.16486 0
M  V30 30464 H 2802.36 -4.64209 -1.1852 0
M  V30 30465 H 2800.73 -2.44212 -0.723378 0
M  V30 30466 H 2801.51 -3.36725 0.66865 0
M  V30 30467 N 2803.96 0.163482 -1.5675 0
M  V30 30468 C 2804.89 1.23129 -1.92132 0
M  V30 30469 C 2805.87 1.42392 -0.785072 0
M  V30 30470 O 2807.05 1.57272 -1.03913 0
M  V30 30471 C 2804.18 2.59297 -2.17905 0
M  V30 30472 C 2803.22 2.56724 -3.4058 0
M  V30 30473 S 2804.06 2.05036 -4.94692 0
M  V30 30474 C 2805.21 3.42966 -5.2357 0
M  V30 30475 H 2805.45 0.929333 -2.82402 0
M  V30 30476 H 2802.98 0.368392 -1.49941 0
M  V30 30477 H 2804.94 3.37666 -2.33435 0
M  V30 30478 H 2803.6 2.86689 -1.28329 0
M  V30 30479 H 2802.79 3.56924 -3.55839 0
M  V30 30480 H 2802.39 1.86456 -3.24207 0
M  V30 30481 H 2804.68 4.39001 -5.16027 0
M  V30 30482 H 2805.63 3.32575 -6.2514 0
M  V30 30483 H 2806.04 3.3934 -4.51119 0
M  V30 30484 N 2805.43 1.51555 0.432299 0
M  V30 30485 C 2806.68 1.64473 1.18131 0
M  V30 30486 C 2807.01 0.363382 1.91075 0
M  V30 30487 O 2806.26 -0.652757 1.84493 0
M  V30 30488 C 2806.56 2.80168 2.21902 0
M  V30 30489 C 2806.23 4.19257 1.65934 0
M  V30 30490 C 2804.89 4.57094 1.50393 0
M  V30 30491 C 2807.24 5.0603 1.24834 0
M  V30 30492 C 2804.57 5.79405 0.922341 0
M  V30 30493 C 2806.92 6.28924 0.68102 0
M  V30 30494 C 2805.59 6.65529 0.512556 0
M  V30 30495 H 2804.86 0.601849 0.432272 0
M  V30 30496 H 2807.5 1.856 0.471669 0
M  V30 30497 H 2805.81 2.53282 2.98924 0
M  V30 30498 H 2807.51 2.87362 2.79686 0
M  V30 30499 H 2804.1 3.89428 1.79007 0
M  V30 30500 H 2808.28 4.774 1.35658 0
M  V30 30501 H 2803.54 6.06409 0.779627 0
M  V30 30502 H 2807.71 6.95499 0.354058 0
M  V30 30503 H 2805.34 7.60176 0.0597748 0
M  V30 30504 N 2806.91 -0.688069 1.41786 0
M  V30 30505 C 2807.84 -1.81348 1.40162 0
M  V30 30506 C 2808.86 -1.59962 0.302648 0
M  V30 30507 O 2810.05 -1.69326 0.564871 0
M  V30 30508 C 2807.15 -3.18238 1.16523 0
M  V30 30509 C 2806.32 -3.66589 2.38603 0
M  V30 30510 C 2805.38 -4.82171 2.10708 0
M  V30 30511 O 2804.4 -4.93399 2.83806 0
M  V30 30512 N 2805.61 -5.69945 1.10197 0
M  V30 30513 H 2808.37 -1.83231 2.37163 0
M  V30 30514 H 2805.93 -0.870673 1.36495 0
M  V30 30515 H 2807.92 -3.93197 0.95801 0
M  V30 30516 H 2806.49 -3.11335 0.280928 0
M  V30 30517 H 2805.71 -2.82454 2.74979 0
M  V30 30518 H 2807 -3.95632 3.19926 0
M  V30 30519 H 2806.4 -5.63512 0.497115 0
M  V30 30520 H 2804.96 -6.44771 0.954632 0
M  V30 30521 N 2808.39 -1.27739 -0.923072 0
M  V30 30522 C 2809.81 -1.05243 -1.19983 0
M  V30 30523 C 2810.01 0.211095 -2.00391 0
M  V30 30524 O 2809.06 0.915325 -2.35325 0
M  V30 30525 C 2810.37 -2.29454 -1.94348 0
M  V30 30526 C 2811.92 -2.34539 -2.07268 0
M  V30 30527 C 2812.4 -3.58492 -2.8504 0
M  V30 30528 N 2813.89 -3.59077 -2.92606 0
M  V30 30529 C 2814.62 -4.5166 -3.53258 0
M  V30 30530 N 2814.12 -5.54552 -4.15264 0
M  V30 30531 N 2815.91 -4.39274 -3.50706 0
M  V30 30532 H 2808.06 -2.08863 -0.386005 0
M  V30 30533 H 2810.33 -0.918821 -0.233391 0
M  V30 30534 H 2810.03 -3.21455 -1.42687 0
M  V30 30535 H 2809.91 -2.35135 -2.94943 0
M  V30 30536 H 2812.29 -1.43042 -2.58115 0
M  V30 30537 H 2812.37 -2.32859 -1.05879 0
M  V30 30538 H 2812.02 -4.50329 -2.34876 0
M  V30 30539 H 2811.95 -3.57425 -3.86724 0
M  V30 30540 H 2814.44 -2.84667 -2.48542 0
M  V30 30541 H 2814.75 -6.21356 -4.59496 0
M  V30 30542 H 2813.1 -5.58389 -4.13796 0
M  V30 30543 H 2816.29 -3.58098 -3.01469 0
M  V30 30544 H 2816.46 -5.11617 -3.97684 0
M  V30 30545 N 2809.87 1.13022 -1.09836 0
M  V30 30546 C 2810.8 2.17661 -0.685491 0
M  V30 30547 C 2811.78 1.59615 0.310114 0
M  V30 30548 O 2812.96 1.87321 0.210487 0
M  V30 30549 C 2810.09 3.38698 -0.0105071 0
M  V30 30550 C 2809.14 4.15356 -0.968595 0
M  V30 30551 S 2809.97 4.74465 -2.48281 0
M  V30 30552 C 2811.13 5.98844 -1.82035 0
M  V30 30553 H 2811.36 2.52346 -1.57191 0
M  V30 30554 H 2808.89 1.24385 -0.91475 0
M  V30 30555 H 2810.85 4.08805 0.372622 0
M  V30 30556 H 2809.51 3.02306 0.85262 0
M  V30 30557 H 2808.7 5.02045 -0.443461 0
M  V30 30558 H 2808.31 3.50926 -1.29333 0
M  V30 30559 H 2810.6 6.67722 -1.14689 0
M  V30 30560 H 2811.54 6.55972 -2.66657 0
M  V30 30561 H 2811.95 5.49622 -1.28749 0
M  V30 30562 N 2811.35 0.886177 1.30325 0
M  V30 30563 C 2812.26 0.357907 2.31854 0
M  V30 30564 C 2813.27 -0.540473 1.65393 0
M  V30 30565 O 2814.45 -0.433304 1.96684 0
M  V30 30566 C 2811.51 -0.417939 3.44172 0
M  V30 30567 C 2810.57 0.510338 4.26256 0
M  V30 30568 C 2809.81 -0.228575 5.3321 0
M  V30 30569 O 2810.03 -1.45449 5.51544 0
M  V30 30570 O 2808.96 0.421938 6.00419 0
M  V30 30571 H 2812.79 1.19987 2.78993 0
M  V30 30572 H 2810.38 0.650052 1.34516 0
M  V30 30573 H 2812.26 -0.857178 4.1259 0
M  V30 30574 H 2810.93 -1.23618 2.99166 0
M  V30 30575 H 2809.84 0.998414 3.60531 0
M  V30 30576 H 2811.17 1.29462 4.74869 0
M  V30 30577 N 2812.82 -1.43695 0.647253 0
M  V30 30578 C 2814.24 -1.85168 0.238722 0
M  V30 30579 C 2814.59 -1.54177 -1.21342 0
M  V30 30580 O 2813.71 -0.987777 -1.92541 0
M  V30 30581 C 2814.31 -3.36105 0.426481 0
M  V30 30582 C 2812.87 -3.76331 0.0723202 0
M  V30 30583 C 2812.01 -2.67459 0.7322 0
M  V30 30584 H 2814.96 -1.33933 0.851333 0
M  V30 30585 H 2814.98 -3.79068 -0.329803 0
M  V30 30586 H 2814.5 -3.5863 1.48346 0
M  V30 30587 H 2812.6 -3.59419 -0.982292 0
M  V30 30588 H 2812.71 -4.7655 0.493625 0
M  V30 30589 H 2811.07 -2.54159 0.165984 0
M  V30 30590 H 2811.86 -2.92812 1.79209 0
M  V30 30591 N 2814.3 -0.388796 -1.52729 0
M  V30 30592 C 2815.53 0.196174 -2.0647 0
M  V30 30593 C 2815.95 1.39782 -1.25868 0
M  V30 30594 O 2815.31 1.79068 -0.283594 0
M  V30 30595 C 2815.36 0.545037 -3.56457 0
M  V30 30596 O 2814.46 1.63906 -3.78429 0
M  V30 30597 H 2813.8 0.0230553 -0.6636 0
M  V30 30598 H 2816.33 -0.556119 -1.96897 0
M  V30 30599 H 2816.34 0.809487 -3.99889 0
M  V30 30600 H 2815.02 -0.333489 -4.14561 0
M  V30 30601 H 2813.6 1.36836 -3.46887 0
M  V30 30602 N 2815.78 1.57153 -0.118604 0
M  V30 30603 C 2817.01 1.99959 0.550547 0
M  V30 30604 C 2817.43 0.997765 1.59456 0
M  V30 30605 O 2816.79 -0.0305951 1.81274 0
M  V30 30606 C 2816.84 3.41645 1.15373 0
M  V30 30607 O 2815.94 3.44352 2.26926 0
M  V30 30608 H 2815.28 0.649596 0.137555 0
M  V30 30609 H 2817.81 2.03551 -0.206961 0
M  V30 30610 H 2817.82 3.79845 1.48935 0
M  V30 30611 H 2816.5 4.14077 0.389014 0
M  V30 30612 H 2815.07 3.1797 1.94806 0
M  V30 30613 N 2817.26 -0.155167 1.56834 0
M  V30 30614 C 2818.19 -1.19372 2.0068 0
M  V30 30615 C 2819.17 -1.45265 0.884998 0
M  V30 30616 O 2820.35 -1.56324 1.15223 0
M  V30 30617 C 2817.48 -2.52886 2.38046 0
M  V30 30618 C 2816.44 -2.41531 3.53336 0
M  V30 30619 C 2815.76 -3.79681 3.76492 0
M  V30 30620 C 2817.06 -1.90631 4.86268 0
M  V30 30621 H 2818.76 -0.829182 2.87689 0
M  V30 30622 H 2816.3 -0.397421 1.38407 0
M  V30 30623 H 2818.26 -3.25758 2.67319 0
M  V30 30624 H 2816.98 -2.9116 1.47965 0
M  V30 30625 H 2815.64 -1.71112 3.24216 0
M  V30 30626 H 2815.29 -4.15377 2.83675 0
M  V30 30627 H 2814.99 -3.72948 4.54074 0
M  V30 30628 H 2816.51 -4.54115 4.08182 0
M  V30 30629 H 2817.93 -2.5329 5.14312 0
M  V30 30630 H 2816.32 -1.94808 5.676 0
M  V30 30631 H 2817.39 -0.861512 4.77185 0
M  V30 30632 N 2818.74 -1.51782 -0.424256 0
M  V30 30633 C 2820.15 -1.57428 -1.00365 0
M  V30 30634 C 2820.5 -0.405614 -1.91961 0
M  V30 30635 O 2819.62 0.475972 -2.11101 0
M  V30 30636 C 2820.22 -2.85316 -1.82702 0
M  V30 30637 C 2818.78 -2.93491 -2.35669 0
M  V30 30638 C 2817.92 -2.52222 -1.15235 0
M  V30 30639 H 2820.88 -1.5737 -0.205037 0
M  V30 30640 H 2820.9 -2.69817 -2.68289 0
M  V30 30641 H 2820.41 -3.70355 -1.16011 0
M  V30 30642 H 2818.51 -2.12912 -3.05777 0
M  V30 30643 H 2818.62 -3.9742 -2.67571 0
M  V30 30644 H 2816.99 -2.05721 -1.5017 0
M  V30 30645 H 2817.77 -3.3962 -0.501341 0
M  V30 30646 N 2820.21 0.68054 -1.42149 0
M  V30 30647 C 2821.15 1.80603 -1.41122 0
M  V30 30648 C 2822.16 1.59799 -0.311127 0
M  V30 30649 O 2823.35 1.69025 -0.573843 0
M  V30 30650 C 2820.45 3.17616 -1.18209 0
M  V30 30651 C 2819.62 3.65318 -2.40544 0
M  V30 30652 C 2818.68 4.81047 -2.13262 0
M  V30 30653 O 2817.71 4.91887 -2.86419 0
M  V30 30654 N 2818.91 5.69352 -1.13218 0
M  V30 30655 H 2821.67 1.81971 -2.38131 0
M  V30 30656 H 2819.23 0.863422 -1.36955 0
M  V30 30657 H 2821.23 3.92684 -0.978849 0
M  V30 30658 H 2819.8 3.11182 -0.297435 0
M  V30 30659 H 2819.02 2.80992 -2.76473 0
M  V30 30660 H 2820.3 3.9393 -3.22019 0
M  V30 30661 H 2819.7 5.6324 -0.526992 0
M  V30 30662 H 2818.26 6.44256 -0.988812 0
M  V30 30663 N 2821.69 1.28226 0.916285 0
M  V30 30664 C 2822.6 1.13778 2.05163 0
M  V30 30665 C 2823.62 0.0649724 1.73879 0
M  V30 30666 O 2824.79 0.273757 1.99531 0
M  V30 30667 C 2821.86 0.798326 3.37384 0
M  V30 30668 C 2820.92 1.95323 3.82292 0
M  V30 30669 C 2820.15 1.62987 5.08204 0
M  V30 30670 O 2820.38 0.543048 5.67809 0
M  V30 30671 O 2819.31 2.4727 5.48763 0
M  V30 30672 H 2823.14 2.09082 2.20269 0
M  V30 30673 H 2820.72 1.07521 1.03728 0
M  V30 30674 H 2822.6 0.622853 4.16772 0
M  V30 30675 H 2821.28 -0.125082 3.23458 0
M  V30 30676 H 2820.19 2.18384 3.03742 0
M  V30 30677 H 2821.52 2.85725 4.00777 0
M  V30 30678 N 2823.17 -1.12438 1.10433 0
M  V30 30679 C 2824.42 -1.83304 0.841572 0
M  V30 30680 C 2824.73 -1.85008 -0.634928 0
M  V30 30681 O 2825.94 -2.5187 -1.01359 0
M  V30 30682 C 2824.39 -3.29146 1.45571 0
M  V30 30683 C 2824 -3.35801 2.9655 0
M  V30 30684 C 2825.75 -4.04984 1.27234 0
M  V30 30685 C 2823.65 -4.75977 3.50998 0
M  V30 30686 H 2822.58 -0.686797 0.311168 0
M  V30 30687 H 2825.23 -1.26602 1.32831 0
M  V30 30688 H 2823.62 -3.85715 0.896642 0
M  V30 30689 H 2824.79 -2.89171 3.58771 0
M  V30 30690 H 2823.11 -2.73436 3.14041 0
M  V30 30691 H 2825.7 -5.08489 1.65357 0
M  V30 30692 H 2826.05 -4.1575 0.213907 0
M  V30 30693 H 2826.58 -3.54773 1.79947 0
M  V30 30694 H 2823.32 -4.70405 4.56507 0
M  V30 30695 H 2822.84 -5.2306 2.93544 0
M  V30 30696 H 2824.52 -5.44917 3.48818 0
M  V30 30697 N 2824.65 -0.893076 -1.29853 0
M  V30 30698 C 2825.9 -0.511632 -1.95103 0
M  V30 30699 C 2826.21 0.945537 -1.71228 0
M  V30 30700 O 2827.42 1.4342 -2.30528 0
M  V30 30701 C 2825.87 -0.864095 -3.49373 0
M  V30 30702 C 2825.48 -2.33958 -3.82057 0
M  V30 30703 C 2827.23 -0.552241 -4.20893 0
M  V30 30704 C 2825.13 -2.63325 -5.29541 0
M  V30 30705 H 2824.06 -0.18761 -0.730287 0
M  V30 30706 H 2826.71 -1.08916 -1.4768 0
M  V30 30707 H 2825.1 -0.215562 -3.95413 0
M  V30 30708 H 2826.27 -3.03311 -3.46899 0
M  V30 30709 H 2824.58 -2.61979 -3.2366 0
M  V30 30710 H 2827.18 -0.748582 -5.29434 0
M  V30 30711 H 2827.52 0.508851 -4.13178 0
M  V30 30712 H 2828.06 -1.15832 -3.80562 0
M  V30 30713 H 2824.8 -3.68207 -5.42314 0
M  V30 30714 H 2824.32 -1.9859 -5.6597 0
M  V30 30715 H 2826 -2.49247 -5.97064 0
M  V30 30716 N 2826.13 1.4335 -0.654865 0
M  V30 30717 C 2827.09 2.29185 0.0263159 0
M  V30 30718 C 2828.09 1.42295 0.748926 0
M  V30 30719 O 2829.28 1.63907 0.589929 0
M  V30 30720 C 2826.41 3.24391 1.048 0
M  V30 30721 H 2827.61 2.90906 -0.728934 0
M  V30 30722 H 2825.16 1.50657 -0.416175 0
M  V30 30723 H 2825.89 2.67568 1.83243 0
M  V30 30724 H 2825.68 3.88454 0.533486 0
M  V30 30725 H 2827.17 3.88812 1.52365 0
M  V30 30726 N 2827.61 0.39689 1.52521 0
M  V30 30727 C 2828.55 -0.44939 2.28218 0
M  V30 30728 C 2829.55 -1.05649 1.32418 0
M  V30 30729 O 2830.75 -0.996097 1.49926 0
M  V30 30730 H 2827.13 -0.163687 0.733969 0
M  V30 30731 H 2829.1 0.210419 2.97657 0
M  V30 30732 C 2827.85 -1.56049 3.10715 0
M  V30 30733 H 2827.17 -1.10266 3.84293 0
M  V30 30734 H 2828.61 -2.1267 3.66807 0
M  V30 30735 C 2827.07 -2.52087 2.23504 0
M  V30 30736 O 2827.6 -3.55679 1.86697 0
M  V30 30737 N 2825.81 -2.22006 1.87514 0
M  V30 30738 H 2825.35 -1.37798 2.17645 0
M  V30 30739 H 2825.31 -2.86512 1.29453 0
M  V30 30740 N 2829.08 -1.57088 0.126936 0
M  V30 30741 C 2830.05 -2.14558 -0.806059 0
M  V30 30742 C 2831.05 -1.08239 -1.18916 0
M  V30 30743 O 2832.24 -1.33977 -1.11337 0
M  V30 30744 C 2829.37 -2.69231 -2.09111 0
M  V30 30745 H 2830.56 -2.9833 -0.306469 0
M  V30 30746 H 2828.11 -1.5582 -0.122366 0
M  V30 30747 H 2828.85 -1.8907 -2.63483 0
M  V30 30748 H 2828.63 -3.46996 -1.82581 0
M  V30 30749 H 2830.12 -3.13577 -2.75789 0
M  V30 30750 N 2830.56 0.146848 -1.56914 0
M  V30 30751 C 2831.51 1.1813 -1.98277 0
M  V30 30752 C 2832.48 1.4268 -0.850392 0
M  V30 30753 O 2833.66 1.55012 -1.11247 0
M  V30 30754 C 2830.8 2.50975 -2.36866 0
M  V30 30755 C 2829.92 2.33598 -3.63395 0
M  V30 30756 C 2829.05 3.59479 -3.91086 0
M  V30 30757 C 2828.09 3.3714 -5.10885 0
M  V30 30758 N 2827.23 4.55152 -5.34585 0
M  V30 30759 H 2832.07 0.821572 -2.86451 0
M  V30 30760 H 2829.6 0.394223 -1.41719 0
M  V30 30761 H 2831.56 3.28435 -2.57267 0
M  V30 30762 H 2830.19 2.84895 -1.51771 0
M  V30 30763 H 2829.24 1.47193 -3.50768 0
M  V30 30764 H 2830.56 2.13051 -4.51011 0
M  V30 30765 H 2829.71 4.45367 -4.11987 0
M  V30 30766 H 2828.45 3.83031 -3.01892 0
M  V30 30767 H 2827.45 2.4964 -4.89857 0
M  V30 30768 H 2828.68 3.14987 -6.01631 0
M  V30 30769 H 2826.63 4.78876 -4.48346 0
M  V30 30770 H 2826.54 4.37608 -6.1647 0
M  V30 30771 H 2827.81 5.42253 -5.59984 0
M  V30 30772 N 2832.04 1.52005 0.4162 0
M  V30 30773 C 2833 1.74226 1.48923 0
M  V30 30774 C 2834 0.612146 1.48692 0
M  V30 30775 O 2835.19 0.879947 1.50342 0
M  V30 30776 C 2832.32 1.81814 2.88368 0
M  V30 30777 H 2833.52 2.70011 1.30515 0
M  V30 30778 H 2831.07 1.42314 0.646246 0
M  V30 30779 H 2831.81 0.87919 3.12155 0
M  V30 30780 H 2831.59 2.63965 2.89939 0
M  V30 30781 H 2833.08 2.00772 3.6617 0
M  V30 30782 N 2833.52 -0.672992 1.42508 0
M  V30 30783 C 2834.45 -1.79848 1.48919 0
M  V30 30784 C 2835.43 -1.66552 0.345595 0
M  V30 30785 O 2836.61 -1.85946 0.560148 0
M  V30 30786 C 2833.74 -3.18156 1.39263 0
M  V30 30787 C 2832.7 -3.46189 2.51668 0
M  V30 30788 C 2832.02 -4.8409 2.2707 0
M  V30 30789 C 2833.32 -3.42902 3.93974 0
M  V30 30790 H 2835.02 -1.74741 2.43117 0
M  V30 30791 H 2832.56 -0.839267 1.17014 0
M  V30 30792 H 2834.52 -3.96627 1.42356 0
M  V30 30793 H 2833.24 -3.23945 0.415599 0
M  V30 30794 H 2831.9 -2.7008 2.47896 0
M  V30 30795 H 2831.55 -4.86532 1.27656 0
M  V30 30796 H 2831.25 -5.03809 3.02407 0
M  V30 30797 H 2832.77 -5.64843 2.31915 0
M  V30 30798 H 2834.19 -4.1134 3.9934 0
M  V30 30799 H 2832.58 -3.74157 4.69176 0
M  V30 30800 H 2833.65 -2.41442 4.20516 0
M  V30 30801 N 2835 -1.2871 -0.909472 0
M  V30 30802 C 2836.41 -1.14565 -1.47417 0
M  V30 30803 C 2836.76 0.262798 -1.94432 0
M  V30 30804 O 2835.88 1.15745 -1.82845 0
M  V30 30805 C 2836.48 -2.07363 -2.67929 0
M  V30 30806 C 2835.04 -1.97269 -3.20565 0
M  V30 30807 C 2834.18 -1.98856 -1.93266 0
M  V30 30808 H 2837.13 -1.41337 -0.721762 0
M  V30 30809 H 2837.16 -1.64013 -3.43336 0
M  V30 30810 H 2836.67 -3.09864 -2.3368 0
M  V30 30811 H 2834.77 -0.97822 -3.5953 0
M  V30 30812 H 2834.88 -2.84443 -3.85524 0
M  V30 30813 H 2833.25 -1.43321 -2.1055 0
M  V30 30814 H 2834.03 -3.03043 -1.61306 0
M  V30 30815 N 2836.47 1.1185 -1.11028 0
M  V30 30816 C 2837.7 1.87035 -0.877577 0
M  V30 30817 C 2838.11 1.80222 0.575894 0
M  V30 30818 O 2837.45 1.17851 1.40914 0
M  V30 30819 C 2837.52 3.3687 -1.25535 0
M  V30 30820 C 2837.18 3.67454 -2.7171 0
M  V30 30821 C 2838.18 3.65298 -3.69937 0
M  V30 30822 C 2835.86 3.96595 -3.0825 0
M  V30 30823 C 2837.86 3.91851 -5.02724 0
M  V30 30824 C 2835.54 4.22807 -4.41223 0
M  V30 30825 C 2836.54 4.20423 -5.38269 0
M  V30 30826 O 2836.23 4.4598 -6.68847 0
M  V30 30827 H 2835.96 0.598447 -0.314384 0
M  V30 30828 H 2838.52 1.42408 -1.48017 0
M  V30 30829 H 2836.75 3.82081 -0.595875 0
M  V30 30830 H 2838.43 3.93411 -0.999133 0
M  V30 30831 H 2839.2 3.4284 -3.43053 0
M  V30 30832 H 2835.08 3.97589 -2.33333 0
M  V30 30833 H 2838.62 3.89905 -5.78463 0
M  V30 30834 H 2834.52 4.4474 -4.67843 0
M  V30 30835 H 2835.29 4.63569 -6.74571 0
M  V30 30836 N 2837.95 0.89995 1.29378 0
M  V30 30837 C 2838.88 0.3945 2.30143 0
M  V30 30838 C 2839.86 -0.530611 1.61612 0
M  V30 30839 O 2841.05 -0.441286 1.8912 0
M  V30 30840 C 2838.18 -0.378619 3.4523 0
M  V30 30841 C 2837.13 0.456087 4.25563 0
M  V30 30842 C 2836.46 -0.444544 5.32849 0
M  V30 30843 C 2837.76 1.70613 4.93648 0
M  V30 30844 H 2839.45 1.23657 2.7267 0
M  V30 30845 H 2837 0.596057 1.31085 0
M  V30 30846 H 2838.95 -0.742964 4.14799 0
M  V30 30847 H 2837.67 -1.25448 3.01547 0
M  V30 30848 H 2836.33 0.802767 3.57703 0
M  V30 30849 H 2835.98 -1.31854 4.85411 0
M  V30 30850 H 2835.68 0.110257 5.87497 0
M  V30 30851 H 2837.21 -0.805076 6.05269 0
M  V30 30852 H 2838.62 1.41151 5.55652 0
M  V30 30853 H 2837.02 2.20227 5.58229 0
M  V30 30854 H 2838.09 2.44197 4.18922 0
M  V30 30855 N 2839.43 -1.43001 0.662458 0
M  V30 30856 C 2840.36 -2.29115 -0.0622857 0
M  V30 30857 C 2841.38 -1.43012 -0.777901 0
M  V30 30858 O 2842.56 -1.66857 -0.634116 0
M  V30 30859 C 2839.66 -3.20152 -1.11157 0
M  V30 30860 C 2838.84 -4.34843 -0.472251 0
M  V30 30861 C 2837.9 -5.06688 -1.41965 0
M  V30 30862 O 2836.92 -5.61639 -0.924696 0
M  V30 30863 N 2838.12 -5.11048 -2.75336 0
M  V30 30864 H 2840.89 -2.91956 0.67689 0
M  V30 30865 H 2838.45 -1.53792 0.505934 0
M  V30 30866 H 2840.44 -3.65081 -1.74637 0
M  V30 30867 H 2839.01 -2.58848 -1.75261 0
M  V30 30868 H 2838.23 -3.92715 0.34182 0
M  V30 30869 H 2839.52 -5.08793 -0.0263487 0
M  V30 30870 H 2838.92 -4.67792 -3.181 0
M  V30 30871 H 2837.48 -5.59664 -3.34095 0
M  V30 30872 N 2840.91 -0.404973 -1.52308 0
M  V30 30873 C 2841.84 0.457871 -2.2458 0
M  V30 30874 C 2842.85 1.01367 -1.27391 0
M  V30 30875 O 2844.04 0.913323 -1.53364 0
M  V30 30876 C 2841.14 1.64888 -2.96083 0
M  V30 30877 C 2840.32 1.2177 -4.20108 0
M  V30 30878 C 2839.37 2.27514 -4.74472 0
M  V30 30879 O 2838.4 1.88276 -5.3716 0
M  V30 30880 N 2839.6 3.59627 -4.55685 0
M  V30 30881 H 2842.37 -0.161393 -2.99265 0
M  V30 30882 H 2839.93 -0.232135 -1.60227 0
M  V30 30883 H 2841.92 2.35185 -3.29348 0
M  V30 30884 H 2840.49 2.17415 -2.2461 0
M  V30 30885 H 2839.71 0.343002 -3.92705 0
M  V30 30886 H 2841 0.906508 -5.00659 0
M  V30 30887 H 2840.4 3.94259 -4.0568 0
M  V30 30888 H 2838.95 4.25913 -4.93397 0
M  V30 30889 N 2842.39 1.57018 -0.135265 0
M  V30 30890 C 2843.66 1.87317 0.563194 0
M  V30 30891 C 2844.04 1.03925 1.83747 0
M  V30 30892 O 2843.39 0.122715 2.2817 0
M  V30 30893 C 2843.6 3.38741 0.839972 0
M  V30 30894 C 2844.95 4.07702 1.18591 0
M  V30 30895 O 2845.97 3.43853 0.92971 0
M  V30 30896 O 2844.83 5.20439 1.66749 0
M  V30 30897 H 2841.93 0.775988 0.285957 0
M  V30 30898 H 2844.47 1.68836 -0.170994 0
M  V30 30899 H 2843.24 3.9125 -0.0623472 0
M  V30 30900 H 2842.87 3.62708 1.62875 0
M  V30 30901 N 2843.86 -0.138524 1.5699 0
M  V30 30902 C 2845.28 -0.697724 1.73172 0
M  V30 30903 C 2845.63 -1.81259 0.750984 0
M  V30 30904 O 2844.75 -2.1625 -0.080511 0
M  V30 30905 C 2845.35 -1.27242 3.13998 0
M  V30 30906 C 2843.91 -1.77811 3.31753 0
M  V30 30907 C 2843.05 -0.669944 2.69086 0
M  V30 30908 H 2846 0.0872257 1.5846 0
M  V30 30909 H 2846.02 -2.14221 3.14467 0
M  V30 30910 H 2845.54 -0.460787 3.85355 0
M  V30 30911 H 2843.64 -2.61514 2.65407 0
M  V30 30912 H 2843.75 -1.90099 4.39772 0
M  V30 30913 H 2842.11 -1.0987 2.29784 0
M  V30 30914 H 2842.9 0.13039 3.43052 0
M  V30 30915 N 2845.34 -1.52224 -0.408133 0
M  V30 30916 C 2846.59 -1.66578 -1.15671 0
M  V30 30917 C 2846.92 -0.395029 -1.9014 0
M  V30 30918 O 2846.2 0.606581 -1.84799 0
M  V30 30919 C 2846.48 -2.88845 -2.15037 0
M  V30 30920 C 2846.33 -4.25972 -1.44457 0
M  V30 30921 C 2847.65 -3.06635 -3.15694 0
M  V30 30922 H 2844.77 -0.606204 -0.419149 0
M  V30 30923 H 2847.41 -1.8478 -0.442315 0
M  V30 30924 H 2845.56 -2.73457 -2.75959 0
M  V30 30925 H 2847.23 -4.53089 -0.866464 0
M  V30 30926 H 2845.48 -4.27328 -0.746537 0
M  V30 30927 H 2846.15 -5.07572 -2.16967 0
M  V30 30928 H 2848.62 -3.20928 -2.64848 0
M  V30 30929 H 2847.5 -3.93697 -3.82484 0
M  V30 30930 H 2847.76 -2.19994 -3.83478 0
M  V30 30931 N 2846.82 0.665425 -1.42863 0
M  V30 30932 C 2848.05 1.45845 -1.47458 0
M  V30 30933 C 2848.47 1.87884 -0.0900642 0
M  V30 30934 O 2847.83 1.56601 0.913559 0
M  V30 30935 C 2847.88 2.6777 -2.41519 0
M  V30 30936 O 2846.98 3.66385 -1.89303 0
M  V30 30937 H 2846.32 0.43778 -0.499244 0
M  V30 30938 H 2848.85 0.815361 -1.87651 0
M  V30 30939 H 2848.86 3.15731 -2.58415 0
M  V30 30940 H 2847.54 2.36513 -3.42103 0
M  V30 30941 H 2846.11 3.25465 -1.82009 0
M  V30 30942 N 2848.3 1.29191 0.902633 0
M  V30 30943 C 2849.55 1.16761 1.64958 0
M  V30 30944 C 2849.87 -0.281846 1.92952 0
M  V30 30945 O 2849.14 -1.19341 1.55353 0
M  V30 30946 H 2847.72 0.429129 0.611439 0
M  V30 30947 H 2850.38 1.62076 1.08247 0
M  V30 30948 H 2849.48 1.71548 2.60725 0
M  V30 30949 N 2849.78 -1.1126 1.1162 0
M  V30 30950 C 2850.71 -2.19423 0.798499 0
M  V30 30951 C 2851.69 -1.68483 -0.233973 0
M  V30 30952 O 2852.87 -1.93957 -0.0970363 0
M  V30 30953 C 2850 -3.46449 0.242953 0
M  V30 30954 C 2848.96 -4.10613 1.20751 0
M  V30 30955 C 2848.28 -5.32237 0.512588 0
M  V30 30956 C 2849.58 -4.55321 2.55892 0
M  V30 30957 H 2851.28 -2.46255 1.7029 0
M  V30 30958 H 2848.82 -1.18357 0.820216 0
M  V30 30959 H 2850.78 -4.21399 0.00847854 0
M  V30 30960 H 2849.5 -3.19081 -0.696754 0
M  V30 30961 H 2848.16 -3.37659 1.42765 0
M  V30 30962 H 2847.81 -5.01142 -0.431987 0
M  V30 30963 H 2847.51 -5.76118 1.15593 0
M  V30 30964 H 2849.03 -6.09925 0.28695 0
M  V30 30965 H 2850.44 -5.21584 2.37956 0
M  V30 30966 H 2848.84 -5.10021 3.16225 0
M  V30 30967 H 2849.91 -3.68672 3.14974 0
M  V30 30968 N 2851.25 -0.906798 -1.28899 0
M  V30 30969 C 2852.48 -0.551338 -1.99938 0
M  V30 30970 C 2852.9 0.858466 -1.67368 0
M  V30 30971 O 2852.26 1.57258 -0.902204 0
M  V30 30972 C 2852.31 -0.758999 -3.52522 0
M  V30 30973 O 2851.41 0.185236 -4.11984 0
M  V30 30974 H 2850.76 -0.214579 -0.628372 0
M  V30 30975 H 2853.29 -1.22033 -1.64223 0
M  V30 30976 H 2853.3 -0.6664 -4.02521 0
M  V30 30977 H 2851.97 -1.78678 -3.75562 0
M  V30 30978 H 2850.55 0.0444922 -3.72873 0
M  V30 30979 N 2852.73 1.42648 -0.670032 0
M  V30 30980 C 2853.98 2.01205 -0.189945 0
M  V30 30981 C 2854.3 1.53223 1.20614 0
M  V30 30982 O 2853.57 0.751888 1.80896 0
M  V30 30983 H 2852.15 0.743968 -0.067232 0
M  V30 30984 H 2854.81 1.7463 -0.865473 0
M  V30 30985 H 2853.91 3.11536 -0.187536 0
M  V30 30986 N 2854.21 0.413044 1.52091 0
M  V30 30987 C 2855.63 0.0641116 1.59471 0
M  V30 30988 C 2855.83 -1.42399 1.42565 0
M  V30 30989 O 2854.88 -2.19127 1.25457 0
M  V30 30990 C 2856.2 0.562526 2.95391 0
M  V30 30991 C 2857.74 0.520842 3.08636 0
M  V30 30992 C 2858.22 0.995831 4.47043 0
M  V30 30993 N 2859.71 0.952812 4.53294 0
M  V30 30994 C 2860.45 1.29148 5.58667 0
M  V30 30995 N 2859.94 1.7018 6.71573 0
M  V30 30996 N 2861.73 1.2112 5.48896 0
M  V30 30997 H 2853.89 1.38156 1.61328 0
M  V30 30998 H 2856.15 0.567798 0.75915 0
M  V30 30999 H 2855.85 1.60277 3.13056 0
M  V30 31000 H 2855.73 -0.0257212 3.77191 0
M  V30 31001 H 2858.12 -0.510361 2.90653 0
M  V30 31002 H 2858.2 1.14519 2.28733 0
M  V30 31003 H 2857.84 2.02538 4.65769 0
M  V30 31004 H 2857.77 0.348255 5.25447 0
M  V30 31005 H 2860.26 0.651184 3.72247 0
M  V30 31006 H 2860.57 1.94323 7.4797 0
M  V30 31007 H 2858.92 1.74087 6.72844 0
M  V30 31008 H 2862.11 0.889477 4.59571 0
M  V30 31009 H 2862.28 1.47844 6.30909 0
M  V30 31010 N 2855.69 -1.56945 0.143591 0
M  V30 31011 C 2856.91 -2.0081 -0.518666 0
M  V30 31012 C 2857.34 -1.02301 -1.57849 0
M  V30 31013 O 2856.7 0.00175203 -1.813 0
M  V30 31014 C 2856.75 -3.43438 -1.09923 0
M  V30 31015 O 2855.85 -3.47919 -2.21419 0
M  V30 31016 H 2855.19 -0.651702 -0.127203 0
M  V30 31017 H 2857.72 -2.03196 0.239318 0
M  V30 31018 H 2857.73 -3.82167 -1.42873 0
M  V30 31019 H 2856.41 -4.14643 -0.323089 0
M  V30 31020 H 2854.98 -3.21029 -1.89723 0
M  V30 31021 N 2857.17 0.130197 -1.57061 0
M  V30 31022 C 2858.42 0.83828 -1.83895 0
M  V30 31023 C 2858.74 1.80938 -0.727078 0
M  V30 31024 O 2858.01 1.943 0.249893 0
M  V30 31025 H 2856.59 0.312561 -0.678465 0
M  V30 31026 H 2859.25 0.120189 -1.94529 0
M  V30 31027 H 2858.34 1.39033 -2.79421 0
M  V30 31028 N 2858.65 1.52438 0.400055 0
M  V30 31029 C 2859.88 1.70555 1.16595 0
M  V30 31030 C 2860.28 0.418698 1.84509 0
M  V30 31031 O 2859.63 -0.615825 1.7307 0
M  V30 31032 C 2859.69 2.79164 2.26512 0
M  V30 31033 C 2859.35 4.20631 1.78658 0
M  V30 31034 C 2860.35 5.04166 1.26937 0
M  V30 31035 C 2858.03 4.66905 1.85217 0
M  V30 31036 C 2860.03 6.3205 0.824076 0
M  V30 31037 C 2857.72 5.94777 1.40299 0
M  V30 31038 C 2858.71 6.77179 0.889803 0
M  V30 31039 O 2858.4 8.02656 0.44714 0
M  V30 31040 H 2858.13 0.574657 0.356013 0
M  V30 31041 H 2860.69 1.99819 0.475562 0
M  V30 31042 H 2858.92 2.45297 2.98942 0
M  V30 31043 H 2860.61 2.85792 2.88232 0
M  V30 31044 H 2861.37 4.69603 1.21236 0
M  V30 31045 H 2857.25 4.02863 2.24104 0
M  V30 31046 H 2860.8 6.96317 0.422835 0
M  V30 31047 H 2856.69 6.28846 1.45682 0
M  V30 31048 H 2857.46 8.16515 0.569625 0
M  V30 31049 N 2860.12 -0.657839 1.43214 0
M  V30 31050 C 2861.53 -1.2389 1.39671 0
M  V30 31051 C 2861.89 -1.95953 0.0984561 0
M  V30 31052 O 2861.01 -2.00979 -0.802265 0
M  V30 31053 C 2861.61 -2.25327 2.53008 0
M  V30 31054 C 2860.16 -2.78921 2.52745 0
M  V30 31055 C 2859.31 -1.53493 2.30944 0
M  V30 31056 H 2862.26 -0.450146 1.52182 0
M  V30 31057 H 2862.28 -3.07409 2.24232 0
M  V30 31058 H 2861.8 -1.7285 3.47483 0
M  V30 31059 H 2859.9 -3.35474 1.62136 0
M  V30 31060 H 2860.01 -3.26781 3.50358 0
M  V30 31061 H 2858.37 -1.80675 1.79524 0
M  V30 31062 H 2859.16 -1.02958 3.27498 0
M  V30 31063 N 2861.6 -1.29668 -0.895769 0
M  V30 31064 C 2862.83 -1.20888 -1.68526 0
M  V30 31065 C 2863.25 0.226563 -1.86731 0
M  V30 31066 O 2862.61 1.16344 -1.39046 0
M  V30 31067 C 2862.66 -1.9315 -3.04509 0
M  V30 31068 O 2861.76 -1.25122 -3.92961 0
M  V30 31069 H 2861.1 -0.418684 -0.515364 0
M  V30 31070 H 2863.63 -1.71304 -1.11875 0
M  V30 31071 H 2863.64 -2.01756 -3.54625 0
M  V30 31072 H 2862.32 -2.97553 -2.90577 0
M  V30 31073 H 2860.89 -1.248 -3.51396 0
M  V30 31074 N 2863.08 1.10667 -1.12208 0
M  V30 31075 C 2864.01 2.16158 -0.731506 0
M  V30 31076 C 2864.99 1.60237 0.276188 0
M  V30 31077 O 2866.17 1.87725 0.170707 0
M  V30 31078 C 2863.3 3.386 -0.0823477 0
M  V30 31079 C 2862.35 4.13208 -1.05648 0
M  V30 31080 S 2863.18 4.69092 -2.58289 0
M  V30 31081 C 2864.34 5.94848 -1.94697 0
M  V30 31082 H 2864.57 2.48954 -1.62508 0
M  V30 31083 H 2862.1 1.22417 -0.940928 0
M  V30 31084 H 2864.06 4.09504 0.285824 0
M  V30 31085 H 2862.72 3.04047 0.788304 0
M  V30 31086 H 2861.91 5.00992 -0.549852 0
M  V30 31087 H 2861.52 3.48104 -1.36748 0
M  V30 31088 H 2863.81 6.65139 -1.28827 0
M  V30 31089 H 2864.75 6.50169 -2.80511 0
M  V30 31090 H 2865.16 5.46767 -1.40379 0
M  V30 31091 N 2864.56 0.913621 1.28416 0
M  V30 31092 C 2865.78 0.561934 1.99642 0
M  V30 31093 C 2866.21 -0.849578 1.67821 0
M  V30 31094 O 2865.57 -1.56777 0.910531 0
M  V30 31095 C 2865.61 0.777684 3.52114 0
M  V30 31096 O 2864.72 -0.163385 4.12076 0
M  V30 31097 H 2864.06 0.217909 0.627226 0
M  V30 31098 H 2866.59 1.22902 1.63573 0
M  V30 31099 H 2866.6 0.687737 4.02162 0
M  V30 31100 H 2865.27 1.80667 3.7461 0
M  V30 31101 H 2863.85 -0.0247172 3.72892 0
M  V30 31102 N 2866.04 -1.4229 0.677588 0
M  V30 31103 C 2867.45 -1.84619 0.277945 0
M  V30 31104 C 2867.8 -1.56716 -1.18045 0
M  V30 31105 O 2866.92 -1.0284 -1.90402 0
M  V30 31106 C 2867.52 -3.35125 0.497678 0
M  V30 31107 C 2866.08 -3.76092 0.152129 0
M  V30 31108 C 2865.22 -2.65845 0.788767 0
M  V30 31109 H 2868.17 -1.32097 0.87955 0
M  V30 31110 H 2868.2 -3.79682 -0.249323 0
M  V30 31111 H 2867.71 -3.55402 1.55919 0
M  V30 31112 H 2865.81 -3.61421 -0.905833 0
M  V30 31113 H 2865.92 -4.75396 0.594597 0
M  V30 31114 H 2864.29 -2.53749 0.219858 0
M  V30 31115 H 2865.07 -2.88945 1.85379 0
M  V30 31116 N 2867.51 -0.421104 -1.5187 0
M  V30 31117 C 2868.44 0.389322 -2.30231 0
M  V30 31118 C 2869.42 1.03553 -1.34948 0
M  V30 31119 O 2870.61 1.04226 -1.63861 0
M  V30 31120 C 2867.74 1.49973 -3.1325 0
M  V30 31121 C 2866.69 0.977893 -4.16679 0
M  V30 31122 C 2866.02 2.18281 -4.88116 0
M  V30 31123 C 2867.32 0.0235857 -5.22295 0
M  V30 31124 H 2869.01 -0.264576 -2.98229 0
M  V30 31125 H 2866.56 -0.128685 -1.43424 0
M  V30 31126 H 2868.51 2.07377 -3.66842 0
M  V30 31127 H 2867.24 2.18168 -2.43044 0
M  V30 31128 H 2865.9 0.426181 -3.64114 0
M  V30 31129 H 2865.54 2.85059 -4.14428 0
M  V30 31130 H 2865.24 1.84011 -5.58044 0
M  V30 31131 H 2866.77 2.76269 -5.44525 0
M  V30 31132 H 2868.18 0.506798 -5.71056 0
M  V30 31133 H 2866.58 -0.230887 -5.99656 0
M  V30 31134 H 2867.65 -0.918083 -4.76129 0
M  V30 31135 N 2868.99 1.56866 -0.151912 0
M  V30 31136 C 2870.22 2.01082 0.508009 0
M  V30 31137 C 2870.64 1.03136 1.57304 0
M  V30 31138 O 2870 0.00786277 1.81298 0
M  V30 31139 C 2870.05 3.44016 1.081 0
M  V30 31140 O 2869.15 3.49088 2.19571 0
M  V30 31141 H 2868.49 0.652367 0.123745 0
M  V30 31142 H 2871.02 2.03066 -0.250091 0
M  V30 31143 H 2871.03 3.82919 1.40844 0
M  V30 31144 H 2869.71 4.14809 0.301095 0
M  V30 31145 H 2868.29 3.22031 1.88017 0
M  V30 31146 N 2870.47 -0.121866 1.57128 0
M  V30 31147 C 2871.88 -0.679317 1.73903 0
M  V30 31148 C 2872.23 -1.80452 0.770166 0
M  V30 31149 O 2871.36 -2.16323 -0.0575703 0
M  V30 31150 C 2871.95 -1.23905 3.1533 0
M  V30 31151 C 2870.51 -1.74282 3.33621 0
M  V30 31152 C 2869.66 -0.641366 2.69781 0
M  V30 31153 H 2872.61 0.104028 1.58359 0
M  V30 31154 H 2872.63 -2.10874 3.16722 0
M  V30 31155 H 2872.14 -0.419889 3.85822 0
M  V30 31156 H 2870.24 -2.58684 2.68166 0
M  V30 31157 H 2870.36 -1.85424 4.41763 0
M  V30 31158 H 2868.72 -1.07426 2.30937 0
M  V30 31159 H 2869.5 0.166767 3.42895 0
M  V30 31160 N 2871.95 -1.52648 -0.391965 0
M  V30 31161 C 2872.88 -1.73465 -1.49808 0
M  V30 31162 C 2873.89 -0.615104 -1.50733 0
M  V30 31163 O 2875.08 -0.890723 -1.54688 0
M  V30 31164 C 2872.18 -1.77557 -2.88663 0
M  V30 31165 C 2871.36 -3.0682 -3.11737 0
M  V30 31166 C 2870.41 -3.02498 -4.30559 0
M  V30 31167 O 2869.44 -3.76369 -4.27007 0
M  V30 31168 N 2870.64 -2.21477 -5.36589 0
M  V30 31169 H 2873.41 -2.68899 -1.32338 0
M  V30 31170 H 2870.97 -1.51099 -0.581448 0
M  V30 31171 H 2872.96 -1.72176 -3.66248 0
M  V30 31172 H 2871.53 -0.895233 -2.99507 0
M  V30 31173 H 2870.75 -3.25715 -2.22044 0
M  V30 31174 H 2872.04 -3.92298 -3.24006 0
M  V30 31175 H 2871.44 -1.60923 -5.42329 0
M  V30 31176 H 2869.99 -2.21938 -6.12851 0
M  V30 31177 N 2873.43 0.650235 -1.43561 0
M  V30 31178 C 2874.7 1.40762 -1.35813 0
M  V30 31179 C 2875.08 2.11099 -0.00740089 0
M  V30 31180 O 2874.43 2.05002 1.00929 0
M  V30 31181 C 2874.64 2.38985 -2.54336 0
M  V30 31182 C 2875.99 3.02895 -2.97556 0
M  V30 31183 O 2877.01 2.49313 -2.54404 0
M  V30 31184 O 2875.87 4.00052 -3.72318 0
M  V30 31185 H 2872.97 0.629045 -0.536872 0
M  V30 31186 H 2875.51 0.676892 -1.55616 0
M  V30 31187 H 2874.28 1.8598 -3.44278 0
M  V30 31188 H 2873.91 3.19504 -2.36649 0
M  V30 31189 N 2874.9 1.30141 0.88888 0
M  V30 31190 C 2876.15 1.18106 1.63505 0
M  V30 31191 C 2876.47 -0.264107 1.93809 0
M  V30 31192 O 2877.67 -0.505919 2.66745 0
M  V30 31193 C 2876.13 2.06636 2.94669 0
M  V30 31194 C 2875.74 3.56039 2.7192 0
M  V30 31195 C 2877.48 2.03353 3.72623 0
M  V30 31196 C 2875.39 4.36637 3.98876 0
M  V30 31197 H 2874.32 0.438445 0.613418 0
M  V30 31198 H 2876.97 1.54861 0.9844 0
M  V30 31199 H 2875.35 1.6276 3.61006 0
M  V30 31200 H 2876.52 4.08037 2.14109 0
M  V30 31201 H 2874.84 3.61104 2.07347 0
M  V30 31202 H 2877.44 2.60824 4.66771 0
M  V30 31203 H 2877.78 1.01607 4.0371 0
M  V30 31204 H 2878.31 2.45329 3.13143 0
M  V30 31205 H 2875.05 5.39063 3.7295 0
M  V30 31206 H 2874.57 3.89404 4.56207 0
M  V30 31207 H 2876.25 4.47867 4.66931 0
M  V30 31208 N 2876.38 -1.1007 1.12794 0
M  V30 31209 C 2877.63 -1.82109 0.885577 0
M  V30 31210 C 2877.96 -1.85384 -0.588487 0
M  V30 31211 O 2877.21 -1.31294 -1.45122 0
M  V30 31212 C 2877.51 -3.284 1.41025 0
M  V30 31213 C 2877.18 -3.45268 2.90001 0
M  V30 31214 C 2875.84 -3.4958 3.30677 0
M  V30 31215 C 2878.19 -3.50351 3.8588 0
M  V30 31216 C 2875.52 -3.56545 4.65932 0
M  V30 31217 C 2877.87 -3.5885 5.2097 0
M  V30 31218 C 2876.54 -3.61427 5.61183 0
M  V30 31219 H 2875.81 -0.666385 0.324056 0
M  V30 31220 H 2878.45 -1.29716 1.40876 0
M  V30 31221 H 2876.76 -3.83386 0.807618 0
M  V30 31222 H 2878.45 -3.82659 1.19889 0
M  V30 31223 H 2875.04 -3.42592 2.57543 0
M  V30 31224 H 2879.23 -3.46267 3.55546 0
M  V30 31225 H 2874.48 -3.56824 4.96474 0
M  V30 31226 H 2878.66 -3.61727 5.95085 0
M  V30 31227 H 2876.29 -3.66577 6.65977 0
M  V30 31228 N 2877.86 -0.920419 -1.2793 0
M  V30 31229 C 2878.79 -0.371208 -2.26174 0
M  V30 31230 C 2879.81 0.494038 -1.55123 0
M  V30 31231 O 2880.99 0.307839 -1.75825 0
M  V30 31232 C 2878.09 0.487422 -3.35377 0
M  V30 31233 C 2877.27 -0.356849 -4.35942 0
M  V30 31234 C 2876.33 0.43795 -5.24374 0
M  V30 31235 O 2875.35 -0.151815 -5.68998 0
M  V30 31236 N 2876.55 1.73946 -5.53826 0
M  V30 31237 H 2879.32 -1.21569 -2.73936 0
M  V30 31238 H 2876.88 -0.787071 -1.41481 0
M  V30 31239 H 2878.87 1.02603 -3.91478 0
M  V30 31240 H 2877.44 1.23264 -2.87271 0
M  V30 31241 H 2876.66 -1.07679 -3.79208 0
M  V30 31242 H 2877.95 -0.934294 -5.00148 0
M  V30 31243 H 2877.35 2.24105 -5.19417 0
M  V30 31244 H 2875.91 2.22475 -6.12657 0
M  V30 31245 N 2879.34 1.41929 -0.685124 0
M  V30 31246 C 2880.27 2.33484 -0.0273917 0
M  V30 31247 C 2881.25 1.51248 0.778339 0
M  V30 31248 O 2882.43 1.79818 0.733417 0
M  V30 31249 C 2879.56 3.34969 0.917213 0
M  V30 31250 C 2878.52 4.27438 0.219334 0
M  V30 31251 C 2877.84 5.19213 1.27758 0
M  V30 31252 C 2879.14 5.14347 -0.907984 0
M  V30 31253 H 2880.84 2.88733 -0.792045 0
M  V30 31254 H 2878.38 1.38832 -0.382332 0
M  V30 31255 H 2880.34 3.97937 1.3865 0
M  V30 31256 H 2879.06 2.78046 1.71341 0
M  V30 31257 H 2877.72 3.65879 -0.229822 0
M  V30 31258 H 2877.37 4.58611 2.06604 0
M  V30 31259 H 2877.07 5.81911 0.815701 0
M  V30 31260 H 2878.59 5.85057 1.7476 0
M  V30 31261 H 2880.01 5.70942 -0.519448 0
M  V30 31262 H 2878.4 5.85932 -1.29631 0
M  V30 31263 H 2879.47 4.52133 -1.75226 0
M  V30 31264 N 2880.82 0.429152 1.51644 0
M  V30 31265 C 2881.78 -0.374686 2.26117 0
M  V30 31266 C 2882.78 -0.956691 1.29244 0
M  V30 31267 O 2883.97 -0.832425 1.53024 0
M  V30 31268 C 2881.1 -1.52932 3.04671 0
M  V30 31269 H 2882.29 0.277871 2.9861 0
M  V30 31270 H 2879.85 0.182124 1.55235 0
M  V30 31271 H 2880.58 -2.21817 2.36575 0
M  V30 31272 H 2880.37 -1.11826 3.75816 0
M  V30 31273 H 2881.86 -2.09745 3.61105 0
M  V30 31274 N 2882.29 -1.56783 0.160229 0
M  V30 31275 C 2883.53 -1.98436 -0.490144 0
M  V30 31276 C 2883.9 -1.04358 -1.61162 0
M  V30 31277 O 2885.1 -1.35107 -2.32378 0
M  V30 31278 C 2883.37 -3.43956 -0.971046 0
M  V30 31279 S 2884.93 -4.07635 -1.62416 0
M  V30 31280 H 2881.75 -0.693212 -0.158044 0
M  V30 31281 H 2884.35 -1.93829 0.25507 0
M  V30 31282 H 2883.05 -4.10146 -0.144251 0
M  V30 31283 H 2882.58 -3.52305 -1.75057 0
M  V30 31284 H 2884.6 -4.01773 -2.91192 0
M  V30 31285 N 2883.77 0.113531 -1.57191 0
M  V30 31286 C 2884.71 1.16954 -1.95952 0
M  V30 31287 C 2885.68 1.39822 -0.829976 0
M  V30 31288 O 2886.87 1.53886 -1.08864 0
M  V30 31289 C 2884 2.52233 -2.26044 0
M  V30 31290 C 2883.04 2.45759 -3.48575 0
M  V30 31291 S 2883.87 1.89194 -5.00965 0
M  V30 31292 C 2885.03 3.26135 -5.34216 0
M  V30 31293 H 2885.26 0.839019 -2.85215 0
M  V30 31294 H 2882.8 0.320503 -1.51037 0
M  V30 31295 H 2884.75 3.30068 -2.4406 0
M  V30 31296 H 2883.42 2.82461 -1.37385 0
M  V30 31297 H 2882.61 3.45422 -3.67014 0
M  V30 31298 H 2882.21 1.76047 -3.29975 0
M  V30 31299 H 2884.5 4.22362 -5.29732 0
M  V30 31300 H 2885.45 3.12518 -6.35404 0
M  V30 31301 H 2885.85 3.24816 -4.61687 0
M  V30 31302 N 2885.25 1.52854 0.383864 0
M  V30 31303 C 2886.53 1.58734 1.14293 0
M  V30 31304 C 2886.91 0.383647 2.07585 0
M  V30 31305 O 2886.26 -0.627622 2.19712 0
M  V30 31306 C 2886.47 2.9287 1.89811 0
M  V30 31307 C 2887.81 3.46791 2.44992 0
M  V30 31308 O 2888.84 2.94778 1.99961 0
M  V30 31309 O 2887.7 4.37677 3.27262 0
M  V30 31310 H 2884.79 0.640422 0.523248 0
M  V30 31311 H 2887.34 1.65191 0.388602 0
M  V30 31312 H 2886.11 3.7192 1.21619 0
M  V30 31313 H 2885.73 2.89821 2.72194 0
M  V30 31314 N 2886.73 -0.642612 1.43904 0
M  V30 31315 C 2888.14 -1.22402 1.40977 0
M  V30 31316 C 2888.49 -1.95837 0.119234 0
M  V30 31317 O 2887.62 -2.01819 -0.780903 0
M  V30 31318 C 2888.21 -2.22631 2.55384 0
M  V30 31319 C 2886.77 -2.76225 2.55689 0
M  V30 31320 C 2885.92 -1.51035 2.32559 0
M  V30 31321 H 2888.87 -0.433979 1.52651 0
M  V30 31322 H 2888.89 -3.05013 2.2748 0
M  V30 31323 H 2888.4 -1.69155 3.49297 0
M  V30 31324 H 2886.5 -3.33735 1.65685 0
M  V30 31325 H 2886.62 -3.23047 3.53804 0
M  V30 31326 H 2884.98 -1.7876 1.8143 0
M  V30 31327 H 2885.76 -0.994783 3.28571 0
M  V30 31328 N 2888.21 -1.30611 -0.881966 0
M  V30 31329 C 2889.17 -1.17223 -1.96955 0
M  V30 31330 C 2890.17 -0.102626 -1.60472 0
M  V30 31331 O 2891.36 -0.350973 -1.70628 0
M  V30 31332 C 2888.49 -0.796631 -3.31461 0
M  V30 31333 H 2889.69 -2.13849 -2.10258 0
M  V30 31334 H 2887.24 -1.1405 -1.06875 0
M  V30 31335 H 2887.97 0.168996 -3.23859 0
M  V30 31336 H 2887.76 -1.56965 -3.59311 0
M  V30 31337 H 2889.25 -0.726522 -4.11232 0
M  V30 31338 N 2889.69 1.0947 -1.13376 0
M  V30 31339 C 2890.96 1.78205 -0.80636 0
M  V30 31340 C 2891.34 1.9908 0.702156 0
M  V30 31341 O 2890.69 1.59185 1.63928 0
M  V30 31342 C 2890.9 3.10535 -1.59276 0
M  V30 31343 C 2892.25 3.8525 -1.78516 0
M  V30 31344 O 2893.27 3.20285 -1.55871 0
M  V30 31345 O 2892.13 5.01875 -2.16296 0
M  V30 31346 H 2889.23 0.772838 -0.294364 0
M  V30 31347 H 2891.77 1.16031 -1.23835 0
M  V30 31348 H 2890.54 2.90823 -2.61797 0
M  V30 31349 H 2890.17 3.80434 -1.15568 0
M  V30 31350 N 2891.16 0.92719 1.2744 0
M  V30 31351 C 2892.44 0.485776 1.89472 0
M  V30 31352 C 2892.82 -1.0361 1.83924 0
M  V30 31353 O 2892.17 -1.89004 1.28412 0
M  V30 31354 C 2892.38 1.03129 3.33415 0
M  V30 31355 C 2893.73 1.09147 4.10332 0
M  V30 31356 O 2894.75 0.98088 3.42428 0
M  V30 31357 O 2893.61 1.26174 5.31735 0
M  V30 31358 H 2890.7 0.156169 0.812121 0
M  V30 31359 H 2893.25 1.01885 1.35711 0
M  V30 31360 H 2892.02 2.07514 3.31743 0
M  V30 31361 H 2891.64 0.479837 3.94694 0
M  V30 31362 N 2892.64 -1.41564 0.692641 0
M  V30 31363 C 2893.89 -2.00878 0.221931 0
M  V30 31364 C 2894.21 -1.55122 -1.18161 0
M  V30 31365 O 2893.48 -0.780572 -1.79677 0
M  V30 31366 H 2892.06 -0.742805 0.0790594 0
M  V30 31367 H 2894.72 -1.73231 0.893145 0
M  V30 31368 H 2893.82 -3.11198 0.237075 0
M  V30 31369 N 2894.12 -0.437188 -1.51415 0
M  V30 31370 C 2895.05 0.410131 -2.25501 0
M  V30 31371 C 2896.06 0.986421 -1.29513 0
M  V30 31372 O 2897.25 0.880587 -1.55267 0
M  V30 31373 C 2894.35 1.5857 -2.99514 0
M  V30 31374 C 2893.53 1.12831 -4.22597 0
M  V30 31375 C 2892.59 2.17399 -4.79191 0
M  V30 31376 O 2891.61 1.7684 -5.41033 0
M  V30 31377 N 2892.81 3.49881 -4.6321 0
M  V30 31378 H 2895.58 -0.224836 -2.98855 0
M  V30 31379 H 2893.14 -0.266069 -1.59699 0
M  V30 31380 H 2895.13 2.28146 -3.34262 0
M  V30 31381 H 2893.7 2.12602 -2.29171 0
M  V30 31382 H 2892.92 0.259626 -3.93344 0
M  V30 31383 H 2894.21 0.800107 -5.0247 0
M  V30 31384 H 2893.61 3.85565 -4.13951 0
M  V30 31385 H 2892.16 4.15352 -5.02321 0
M  V30 31386 N 2895.6 1.56696 -0.168541 0
M  V30 31387 C 2896.84 1.96799 0.477123 0
M  V30 31388 C 2897.17 1.0544 1.6344 0
M  V30 31389 O 2896.43 0.0879247 1.95502 0
M  V30 31390 C 2896.73 3.42998 1.00435 0
M  V30 31391 C 2896.39 4.50885 -0.0367349 0
M  V30 31392 C 2895.05 4.80116 -0.322869 0
M  V30 31393 C 2897.41 5.15869 -0.743537 0
M  V30 31394 C 2894.73 5.71629 -1.32124 0
M  V30 31395 C 2897.09 6.0846 -1.73087 0
M  V30 31396 C 2895.75 6.36059 -2.02448 0
M  V30 31397 H 2895.02 0.720138 0.174592 0
M  V30 31398 H 2897.67 1.89728 -0.259917 0
M  V30 31399 H 2895.97 3.47007 1.81916 0
M  V30 31400 H 2897.67 3.71366 1.51288 0
M  V30 31401 H 2894.26 4.2815 0.196457 0
M  V30 31402 H 2898.44 4.93401 -0.535688 0
M  V30 31403 H 2893.7 5.91297 -1.55493 0
M  V30 31404 H 2897.87 6.57882 -2.28394 0
M  V30 31405 H 2895.5 7.06772 -2.79959 0
M  V30 31406 N 2897.08 -0.105193 1.57249 0
M  V30 31407 C 2898.01 -1.15432 1.9801 0
M  V30 31408 C 2899.02 -1.36886 0.88126 0
M  V30 31409 O 2900.21 -1.35716 1.15946 0
M  V30 31410 C 2897.31 -2.51179 2.27513 0
M  V30 31411 C 2896.48 -2.50141 3.58815 0
M  V30 31412 C 2895.54 -3.67738 3.76371 0
M  V30 31413 O 2894.57 -3.50691 4.48335 0
M  V30 31414 N 2895.77 -4.86835 3.16183 0
M  V30 31415 H 2898.53 -0.807469 2.88617 0
M  V30 31416 H 2896.1 -0.294302 1.59203 0
M  V30 31417 H 2898.09 -3.28433 2.3646 0
M  V30 31418 H 2896.66 -2.77993 1.42964 0
M  V30 31419 H 2895.88 -1.58503 3.6093 0
M  V30 31420 H 2897.17 -2.46516 4.45093 0
M  V30 31421 H 2896.56 -5.03589 2.5771 0
M  V30 31422 H 2895.12 -5.61718 3.30631 0
M  V30 31423 N 2898.55 -1.53055 -0.375752 0
M  V30 31424 C 2899.46 -1.81717 -1.48378 0
M  V30 31425 C 2900.48 -0.704823 -1.59086 0
M  V30 31426 O 2901.66 -0.993816 -1.75172 0
M  V30 31427 C 2898.72 -1.99197 -2.83763 0
M  V30 31428 C 2897.78 -3.23107 -2.82667 0
M  V30 31429 C 2897.02 -3.39743 -4.11595 0
M  V30 31430 O 2897.24 -2.60894 -5.07238 0
M  V30 31431 O 2896.17 -4.33056 -4.18026 0
M  V30 31432 H 2900 -2.75832 -1.27084 0
M  V30 31433 H 2897.58 -1.38309 -0.564877 0
M  V30 31434 H 2899.47 -2.12325 -3.64 0
M  V30 31435 H 2898.14 -1.08272 -3.05056 0
M  V30 31436 H 2897.05 -3.15411 -2.01164 0
M  V30 31437 H 2898.38 -4.13921 -2.66328 0
M  V30 31438 N 2900.03 0.634971 -1.44242 0
M  V30 31439 C 2901.45 0.952719 -1.28045 0
M  V30 31440 C 2901.65 2.00367 -0.213415 0
M  V30 31441 O 2900.7 2.49279 0.401998 0
M  V30 31442 C 2902.02 1.41964 -2.65079 0
M  V30 31443 C 2903.57 1.53532 -2.72758 0
M  V30 31444 C 2904.04 2.03609 -4.10253 0
M  V30 31445 N 2905.53 2.10885 -4.1241 0
M  V30 31446 C 2906.27 2.50794 -5.15645 0
M  V30 31447 N 2905.76 2.89868 -6.29244 0
M  V30 31448 N 2907.56 2.50894 -5.03 0
M  V30 31449 H 2899.71 -0.0601353 -2.12315 0
M  V30 31450 H 2901.97 0.0357159 -0.947327 0
M  V30 31451 H 2901.68 0.721743 -3.44215 0
M  V30 31452 H 2901.55 2.39136 -2.91709 0
M  V30 31453 H 2903.94 2.22419 -1.93943 0
M  V30 31454 H 2904.02 0.547452 -2.49873 0
M  V30 31455 H 2903.66 1.35318 -4.89542 0
M  V30 31456 H 2903.59 3.0326 -4.30512 0
M  V30 31457 H 2906.08 1.83387 -3.3042 0
M  V30 31458 H 2906.4 3.19123 -7.03833 0
M  V30 31459 H 2904.74 2.87629 -6.32688 0
M  V30 31460 H 2907.93 2.19756 -4.1331 0
M  V30 31461 H 2908.1 2.81673 -5.83579 0
M  V30 31462 N 2901.51 1.31076 0.875027 0
M  V30 31463 C 2902.44 1.14117 1.98771 0
M  V30 31464 C 2903.46 0.0816405 1.62595 0
M  V30 31465 O 2904.64 0.328641 1.75449 0
M  V30 31466 C 2901.74 0.720282 3.31157 0
M  V30 31467 C 2900.92 1.86373 3.95707 0
M  V30 31468 C 2899.98 1.42973 5.06404 0
M  V30 31469 O 2899 2.13857 5.27498 0
M  V30 31470 N 2900.2 0.314296 5.79649 0
M  V30 31471 H 2902.97 2.09955 2.13867 0
M  V30 31472 H 2900.53 1.23344 1.04871 0
M  V30 31473 H 2902.52 0.412758 4.0259 0
M  V30 31474 H 2901.09 -0.146341 3.12257 0
M  V30 31475 H 2900.31 2.33884 3.1732 0
M  V30 31476 H 2901.6 2.62974 4.35571 0
M  V30 31477 H 2901 -0.276129 5.65026 0
M  V30 31478 H 2899.56 0.0662787 6.51766 0
M  V30 31479 N 2902.99 -1.08867 1.13955 0
M  V30 31480 C 2904.21 -1.85451 0.928592 0
M  V30 31481 C 2904.64 -1.80838 -0.51761 0
M  V30 31482 O 2904 -1.19003 -1.36777 0
M  V30 31483 C 2904.04 -3.31111 1.4282 0
M  V30 31484 O 2903.15 -4.07755 0.617201 0
M  V30 31485 H 2902.49 -0.574833 0.33236 0
M  V30 31486 H 2905.02 -1.3744 1.51563 0
M  V30 31487 H 2905.03 -3.81957 1.43432 0
M  V30 31488 H 2903.7 -3.33784 2.48115 0
M  V30 31489 H 2902.28 -3.66658 0.67943 0
M  V30 31490 N 2904.47 -0.933936 -1.26946 0
M  V30 31491 C 2905.4 -0.45538 -2.29016 0
M  V30 31492 C 2906.38 0.487576 -1.62962 0
M  V30 31493 O 2907.56 0.390989 -1.90223 0
M  V30 31494 C 2904.69 0.286954 -3.46113 0
M  V30 31495 C 2903.65 -0.568757 -4.24204 0
M  V30 31496 C 2902.97 0.303112 -5.3384 0
M  V30 31497 C 2904.27 -1.83642 -4.88951 0
M  V30 31498 H 2905.97 -1.30843 -2.69296 0
M  V30 31499 H 2903.51 -0.630602 -1.29458 0
M  V30 31500 H 2905.47 0.632726 -4.16623 0
M  V30 31501 H 2904.19 1.17409 -3.04767 0
M  V30 31502 H 2902.85 -0.897323 -3.55449 0
M  V30 31503 H 2902.5 1.18938 -4.88736 0
M  V30 31504 H 2902.2 -0.265983 -5.86998 0
M  V30 31505 H 2903.72 0.644316 -6.07191 0
M  V30 31506 H 2905.13 -1.55833 -5.51715 0
M  V30 31507 H 2903.53 -2.3495 -5.52194 0
M  V30 31508 H 2904.6 -2.55219 -4.123 0
M  V30 31509 N 2905.94 1.41194 -0.700139 0
M  V30 31510 C 2906.85 2.34569 -0.0383266 0
M  V30 31511 C 2907.87 1.56476 0.761009 0
M  V30 31512 O 2909.05 1.88935 0.69752 0
M  V30 31513 C 2906.11 3.35255 0.883463 0
M  V30 31514 C 2905.17 4.29233 0.0758202 0
M  V30 31515 C 2904.41 5.2511 0.953707 0
M  V30 31516 O 2904.63 5.26551 2.19317 0
M  V30 31517 O 2903.56 6.00563 0.400943 0
M  V30 31518 H 2907.39 2.92751 -0.808125 0
M  V30 31519 H 2904.97 1.42126 -0.460504 0
M  V30 31520 H 2906.86 3.97043 1.41192 0
M  V30 31521 H 2905.53 2.79509 1.63267 0
M  V30 31522 H 2904.44 3.70779 -0.49734 0
M  V30 31523 H 2905.77 4.88089 -0.634827 0
M  V30 31524 N 2907.42 0.445212 1.51181 0
M  V30 31525 C 2908.83 -0.0160671 1.86693 0
M  V30 31526 C 2909.18 -1.41237 1.36185 0
M  V30 31527 O 2908.31 -2.04214 0.715931 0
M  V30 31528 C 2908.9 -0.0359323 3.38781 0
M  V30 31529 C 2907.46 -0.441649 3.738 0
M  V30 31530 C 2906.61 0.360559 2.74946 0
M  V30 31531 H 2909.56 0.6607 1.44293 0
M  V30 31532 H 2909.58 -0.843748 3.71027 0
M  V30 31533 H 2909.09 0.980444 3.75512 0
M  V30 31534 H 2907.2 -1.46334 3.42662 0
M  V30 31535 H 2907.31 -0.160976 4.78829 0
M  V30 31536 H 2905.67 -0.182225 2.54047 0
M  V30 31537 H 2906.46 1.37596 3.14519 0
M  V30 31538 N 2908.9 -1.56605 0.176849 0
M  V30 31539 C 2909.81 -2.21823 -0.763643 0
M  V30 31540 C 2910.83 -1.21158 -1.24887 0
M  V30 31541 O 2912 -1.53838 -1.29984 0
M  V30 31542 C 2909.07 -2.85053 -1.97347 0
M  V30 31543 C 2908.13 -4.00935 -1.53459 0
M  V30 31544 C 2907.36 -4.6114 -2.68674 0
M  V30 31545 O 2907.58 -4.2024 -3.85687 0
M  V30 31546 O 2906.52 -5.50918 -2.42432 0
M  V30 31547 H 2910.34 -3.02764 -0.23831 0
M  V30 31548 H 2907.93 -1.49311 -0.0516069 0
M  V30 31549 H 2909.81 -3.25124 -2.6809 0
M  V30 31550 H 2908.49 -2.07105 -2.48775 0
M  V30 31551 H 2907.39 -3.65523 -0.796487 0
M  V30 31552 H 2908.73 -4.80492 -1.06716 0
M  V30 31553 N 2910.38 0.0968524 -1.57302 0
M  V30 31554 C 2911.62 0.801853 -1.86274 0
M  V30 31555 C 2911.96 1.78466 -0.765725 0
M  V30 31556 O 2911.23 1.93177 0.226461 0
M  V30 31557 C 2911.52 1.53216 -3.25879 0
M  V30 31558 C 2911.37 0.567451 -4.46206 0
M  V30 31559 C 2912.69 2.48315 -3.63356 0
M  V30 31560 H 2909.81 0.290049 -0.677526 0
M  V30 31561 H 2912.45 0.0655243 -1.89887 0
M  V30 31562 H 2910.6 2.15983 -3.2293 0
M  V30 31563 H 2912.27 -0.0530792 -4.61269 0
M  V30 31564 H 2910.51 -0.119309 -4.33636 0
M  V30 31565 H 2911.18 1.11555 -5.4061 0
M  V30 31566 H 2913.66 1.95641 -3.67238 0
M  V30 31567 H 2912.54 2.96432 -4.61973 0
M  V30 31568 H 2912.8 3.31993 -2.91947 0
M  V30 31569 N 2911.86 1.53252 0.36763 0
M  V30 31570 C 2913.08 1.73546 1.13562 0
M  V30 31571 C 2913.51 0.462376 1.82329 0
M  V30 31572 O 2912.86 -0.583442 1.71656 0
M  V30 31573 C 2912.91 2.90001 2.14317 0
M  V30 31574 O 2912.02 2.58467 3.21355 0
M  V30 31575 H 2911.36 0.576418 0.329604 0
M  V30 31576 H 2913.89 2.00129 0.425382 0
M  V30 31577 H 2913.9 3.16108 2.57953 0
M  V30 31578 H 2912.57 3.82347 1.63657 0
M  V30 31579 H 2911.15 2.4317 2.82706 0
M  V30 31580 N 2913.34 -0.627313 1.44577 0
M  V30 31581 C 2914.25 -1.76773 1.54235 0
M  V30 31582 C 2915.26 -1.68659 0.427811 0
M  V30 31583 O 2916.44 -1.89368 0.685705 0
M  V30 31584 C 2913.5 -3.13171 1.48744 0
M  V30 31585 C 2912.56 -3.32888 2.71079 0
M  V30 31586 C 2911.8 -4.62779 2.6584 0
M  V30 31587 O 2912.02 -5.43831 1.72057 0
M  V30 31588 O 2910.95 -4.84781 3.5675 0
M  V30 31589 H 2914.78 -1.71577 2.50589 0
M  V30 31590 H 2912.36 -0.789006 1.26866 0
M  V30 31591 H 2914.25 -3.94474 1.48218 0
M  V30 31592 H 2912.92 -3.18901 0.555348 0
M  V30 31593 H 2911.83 -2.5125 2.77172 0
M  V30 31594 H 2913.16 -3.32023 3.63348 0
M  V30 31595 N 2914.81 -1.31539 -0.868063 0
M  V30 31596 C 2915.74 -1.21942 -1.99129 0
M  V30 31597 C 2916.72 -0.106196 -1.69768 0
M  V30 31598 O 2917.91 -0.291115 -1.92006 0
M  V30 31599 C 2915.04 -0.927938 -3.34674 0
M  V30 31600 C 2913.99 -2.00094 -3.78347 0
M  V30 31601 C 2913.32 -1.56212 -5.11373 0
M  V30 31602 C 2914.62 -3.41431 -3.9525 0
M  V30 31603 H 2916.31 -2.15915 -2.07416 0
M  V30 31604 H 2913.86 -1.03946 -0.996551 0
M  V30 31605 H 2915.81 -0.847399 -4.12792 0
M  V30 31606 H 2914.54 0.0474468 -3.26566 0
M  V30 31607 H 2913.2 -2.07141 -3.0247 0
M  V30 31608 H 2912.84 -0.574538 -4.99708 0
M  V30 31609 H 2912.54 -2.27995 -5.41564 0
M  V30 31610 H 2914.07 -1.49569 -5.91998 0
M  V30 31611 H 2915.48 -3.37048 -4.63758 0
M  V30 31612 H 2913.88 -4.11448 -4.36842 0
M  V30 31613 H 2914.95 -3.82077 -2.98572 0
M  V30 31614 N 2916.29 1.08262 -1.1453 0
M  V30 31615 C 2917.24 2.1522 -0.833593 0
M  V30 31616 C 2918.21 1.64773 0.20951 0
M  V30 31617 O 2919.39 1.90636 0.0791053 0
M  V30 31618 C 2916.53 3.43624 -0.31886 0
M  V30 31619 C 2915.65 4.0791 -1.42244 0
M  V30 31620 C 2914.78 5.24113 -0.864796 0
M  V30 31621 C 2913.82 5.80344 -1.94595 0
M  V30 31622 N 2912.96 6.87891 -1.40537 0
M  V30 31623 H 2917.8 2.41225 -1.74969 0
M  V30 31624 H 2915.33 1.1838 -0.87319 0
M  V30 31625 H 2917.29 4.172 -0.00220421 0
M  V30 31626 H 2915.92 3.17899 0.560342 0
M  V30 31627 H 2914.97 3.3208 -1.85546 0
M  V30 31628 H 2916.29 4.4572 -2.23909 0
M  V30 31629 H 2915.44 6.04635 -0.500131 0
M  V30 31630 H 2914.18 4.87697 -0.0172077 0
M  V30 31631 H 2913.18 4.98475 -2.31955 0
M  V30 31632 H 2914.41 6.18818 -2.79715 0
M  V30 31633 H 2912.36 6.53431 -0.579988 0
M  V30 31634 H 2912.27 7.24534 -2.15838 0
M  V30 31635 H 2913.54 7.7214 -1.06866 0
M  V30 31636 N 2917.77 0.940655 1.26449 0
M  V30 31637 C 2918.99 0.604155 1.98405 0
M  V30 31638 C 2919.42 -0.81379 1.69585 0
M  V30 31639 O 2918.78 -1.5481 0.943581 0
M  V30 31640 C 2918.83 0.852197 3.50385 0
M  V30 31641 O 2917.93 -0.0759406 4.1233 0
M  V30 31642 H 2917.27 0.231164 0.622462 0
M  V30 31643 H 2919.8 1.26344 1.60929 0
M  V30 31644 H 2919.81 0.772887 4.00613 0
M  V30 31645 H 2918.49 1.88572 3.70693 0
M  V30 31646 H 2917.06 0.0543843 3.7286 0
M  V30 31647 N 2919.25 -1.40821 0.707617 0
M  V30 31648 C 2920.49 -2.01326 0.244067 0
M  V30 31649 C 2920.83 -1.55957 -1.1572 0
M  V30 31650 O 2920.1 -0.776075 -1.78346 0
M  V30 31651 C 2920.38 -3.58718 0.315191 0
M  V30 31652 C 2920.24 -4.14181 1.75426 0
M  V30 31653 C 2921.56 -4.38948 -0.318174 0
M  V30 31654 H 2918.68 -0.731464 0.09016 0
M  V30 31655 H 2921.32 -1.67407 0.898614 0
M  V30 31656 H 2919.47 -3.87745 -0.242108 0
M  V30 31657 H 2921.14 -3.95983 2.36633 0
M  V30 31658 H 2919.38 -3.68769 2.28456 0
M  V30 31659 H 2920.05 -5.23342 1.75547 0
M  V30 31660 H 2922.53 -4.15805 0.156587 0
M  V30 31661 H 2921.41 -5.48384 -0.237923 0
M  V30 31662 H 2921.67 -4.19328 -1.40059 0
M  V30 31663 N 2920.73 -0.453223 -1.50943 0
M  V30 31664 C 2921.66 0.386191 -2.25923 0
M  V30 31665 C 2922.67 0.972629 -1.30552 0
M  V30 31666 O 2923.86 0.864069 -1.56192 0
M  V30 31667 C 2920.96 1.55384 -3.01179 0
M  V30 31668 C 2920.13 1.08343 -4.2377 0
M  V30 31669 C 2919.19 2.12304 -4.8147 0
M  V30 31670 O 2918.22 1.71091 -5.42878 0
M  V30 31671 N 2919.42 3.44948 -4.66895 0
M  V30 31672 H 2922.18 -0.256521 -2.986 0
M  V30 31673 H 2919.75 -0.282993 -1.59408 0
M  V30 31674 H 2921.74 2.24588 -3.36663 0
M  V30 31675 H 2920.31 2.10159 -2.31413 0
M  V30 31676 H 2919.53 0.217892 -3.93597 0
M  V30 31677 H 2920.82 0.746769 -5.0329 0
M  V30 31678 H 2920.21 3.81153 -4.18018 0
M  V30 31679 H 2918.77 4.10001 -5.06698 0
M  V30 31680 N 2922.2 1.56509 -0.185151 0
M  V30 31681 C 2923.61 1.83775 0.329189 0
M  V30 31682 C 2923.97 1.10548 1.62091 0
M  V30 31683 O 2923.09 0.363018 2.13333 0
M  V30 31684 C 2923.69 3.33372 0.60404 0
M  V30 31685 C 2922.24 3.61084 1.06278 0
M  V30 31686 C 2921.39 2.77097 0.106031 0
M  V30 31687 H 2924.34 1.53335 -0.409143 0
M  V30 31688 H 2924.36 3.51602 1.45452 0
M  V30 31689 H 2923.88 3.8664 -0.336269 0
M  V30 31690 H 2921.98 3.1324 2.01771 0
M  V30 31691 H 2922.09 4.69335 0.96237 0
M  V30 31692 H 2920.45 2.47385 0.606038 0
M  V30 31693 H 2921.24 3.33152 -0.828544 0
M  V30 31694 N 2923.68 -0.0885089 1.57351 0
M  V30 31695 C 2924.91 -0.808017 1.91013 0
M  V30 31696 C 2925.33 -1.71164 0.780039 0
M  V30 31697 O 2924.69 -1.79307 -0.268051 0
M  V30 31698 C 2924.74 -1.59179 3.23565 0
M  V30 31699 O 2923.84 -2.70124 3.11619 0
M  V30 31700 H 2923.18 -0.221554 0.625947 0
M  V30 31701 H 2925.71 -0.0617594 2.04507 0
M  V30 31702 H 2925.72 -1.97461 3.57034 0
M  V30 31703 H 2924.4 -0.92867 4.05399 0
M  V30 31704 H 2922.97 -2.34822 2.89678 0
M  V30 31705 N 2925.16 -1.53445 -0.359498 0
M  V30 31706 C 2926.11 -1.8099 -1.46101 0
M  V30 31707 C 2927.1 -0.679378 -1.5518 0
M  V30 31708 O 2928.31 -0.862433 -1.57994 0
M  V30 31709 H 2924.68 -0.573154 -0.486825 0
M  V30 31710 H 2926.65 -2.73175 -1.20075 0
M  V30 31711 C 2925.4 -2.02213 -2.82852 0
M  V30 31712 H 2924.73 -2.88648 -2.76626 0
M  V30 31713 H 2926.17 -2.25461 -3.59087 0
M  V30 31714 C 2924.62 -0.802988 -3.27191 0
M  V30 31715 O 2925.15 0.00537225 -4.017 0
M  V30 31716 N 2923.36 -0.624707 -2.83806 0
M  V30 31717 H 2922.91 -1.28368 -2.23337 0
M  V30 31718 H 2922.87 0.189586 -3.13828 0
M  V30 31719 N 2926.64 0.619637 -1.44908 0
M  V30 31720 C 2927.59 1.72502 -1.49088 0
M  V30 31721 C 2928.57 1.56926 -0.3554 0
M  V30 31722 O 2929.76 1.66467 -0.60147 0
M  V30 31723 C 2926.89 3.11224 -1.44894 0
M  V30 31724 C 2925.98 3.32229 -2.63599 0
M  V30 31725 N 2926.37 3.23548 -3.8878 0
M  V30 31726 C 2924.67 3.63063 -2.5904 0
M  V30 31727 C 2925.37 3.45556 -4.67938 0
M  V30 31728 N 2924.34 3.68976 -3.99196 0
M  V30 31729 H 2928.15 1.64265 -2.43709 0
M  V30 31730 H 2925.66 0.822495 -1.40031 0
M  V30 31731 H 2927.66 3.90509 -1.45973 0
M  V30 31732 H 2926.32 3.20619 -0.513199 0
M  V30 31733 H 2927.33 3.02214 -4.2058 0
M  V30 31734 H 2924.01 3.79368 -1.74316 0
M  V30 31735 H 2925.4 3.44339 -5.76958 0
M  V30 31736 N 2928.12 1.31997 0.861075 0
M  V30 31737 C 2929.36 1.2195 1.6116 0
M  V30 31738 C 2929.69 -0.220317 1.93751 0
M  V30 31739 O 2928.96 -1.14338 1.59071 0
M  V30 31740 H 2927.54 0.448364 0.597477 0
M  V30 31741 H 2930.2 1.65438 1.03036 0
M  V30 31742 H 2929.29 1.79756 2.55135 0
M  V30 31743 N 2929.59 -1.07653 1.15103 0
M  V30 31744 C 2930.84 -1.7957 0.91856 0
M  V30 31745 C 2931.16 -1.87535 -0.555889 0
M  V30 31746 O 2932.36 -2.55943 -0.905848 0
M  V30 31747 C 2930.82 -3.22676 1.594 0
M  V30 31748 C 2930.43 -3.22921 3.10525 0
M  V30 31749 C 2932.17 -3.99223 1.44296 0
M  V30 31750 C 2930.08 -4.60662 3.7087 0
M  V30 31751 H 2929.01 -0.672981 0.340018 0
M  V30 31752 H 2931.66 -1.20854 1.38082 0
M  V30 31753 H 2930.04 -3.81565 1.05943 0
M  V30 31754 H 2931.21 -2.73694 3.70713 0
M  V30 31755 H 2929.53 -2.59871 3.25356 0
M  V30 31756 H 2932.13 -5.01018 1.86775 0
M  V30 31757 H 2932.47 -4.14469 0.390048 0
M  V30 31758 H 2933 -3.46821 1.94832 0
M  V30 31759 H 2929.74 -4.5062 4.76048 0
M  V30 31760 H 2929.26 -5.10139 3.15465 0
M  V30 31761 H 2930.94 -5.29633 3.71616 0
M  V30 31762 N 2931.07 -0.947348 -1.25949 0
M  V30 31763 C 2932.3 -0.61427 -1.97257 0
M  V30 31764 C 2932.71 0.816325 -1.70683 0
M  V30 31765 O 2932.05 1.55672 -0.975298 0
M  V30 31766 C 2932.12 -0.784142 -3.50844 0
M  V30 31767 C 2931.78 -2.19053 -4.0108 0
M  V30 31768 C 2932.78 -3.16656 -4.12341 0
M  V30 31769 C 2930.46 -2.51276 -4.34932 0
M  V30 31770 C 2932.46 -4.4458 -4.56758 0
M  V30 31771 C 2930.14 -3.79431 -4.79036 0
M  V30 31772 C 2931.14 -4.75896 -4.89911 0
M  V30 31773 O 2930.83 -6.01768 -5.33039 0
M  V30 31774 H 2930.56 -0.229822 -0.635734 0
M  V30 31775 H 2933.11 -1.2721 -1.61266 0
M  V30 31776 H 2931.34 -0.0691689 -3.86638 0
M  V30 31777 H 2933.03 -0.453206 -4.03362 0
M  V30 31778 H 2933.8 -2.93086 -3.86427 0
M  V30 31779 H 2929.68 -1.76923 -4.25698 0
M  V30 31780 H 2933.22 -5.19876 -4.65161 0
M  V30 31781 H 2929.12 -4.02811 -5.04395 0
M  V30 31782 H 2929.89 -6.05039 -5.51245 0
M  V30 31783 N 2932.55 1.40444 -0.715075 0
M  V30 31784 C 2933.48 2.33373 -0.0769109 0
M  V30 31785 C 2934.46 1.52865 0.746082 0
M  V30 31786 O 2935.65 1.81334 0.69511 0
M  V30 31787 C 2932.78 3.3684 0.845955 0
M  V30 31788 C 2931.73 4.27807 0.128619 0
M  V30 31789 C 2931.06 5.21806 1.16716 0
M  V30 31790 C 2932.36 5.12305 -1.01688 0
M  V30 31791 H 2934.05 2.86988 -0.853112 0
M  V30 31792 H 2931.6 1.37989 -0.411694 0
M  V30 31793 H 2933.55 4.00789 1.30178 0
M  V30 31794 H 2932.27 2.81618 1.65405 0
M  V30 31795 H 2930.93 3.65309 -0.307378 0
M  V30 31796 H 2930.58 4.6289 1.96829 0
M  V30 31797 H 2930.28 5.8351 0.692085 0
M  V30 31798 H 2931.8 5.88632 1.6231 0
M  V30 31799 H 2933.22 5.69712 -0.640437 0
M  V30 31800 H 2931.62 5.8305 -1.4203 0
M  V30 31801 H 2932.69 4.48314 -1.84777 0
M  V30 31802 N 2934.03 0.461222 1.507 0
M  V30 31803 C 2935.44 0.00373509 1.867 0
M  V30 31804 C 2935.79 -1.39785 1.37676 0
M  V30 31805 O 2934.92 -2.03443 0.737551 0
M  V30 31806 C 2935.51 1.97394e-06 3.388 0
M  V30 31807 C 2934.07 -0.401978 3.74247 0
M  V30 31808 C 2933.22 0.3897 2.74548 0
M  V30 31809 H 2936.17 0.675967 1.43584 0
M  V30 31810 H 2936.19 -0.804348 3.71901 0
M  V30 31811 H 2935.7 1.02022 3.74451 0
M  V30 31812 H 2933.8 -1.42691 3.44195 0
M  V30 31813 H 2933.91 -0.11018 4.78973 0
M  V30 31814 H 2932.28 -0.155269 2.54226 0
M  V30 31815 H 2933.06 1.40924 3.13042 0
M  V30 31816 N 2935.51 -1.56408 0.193449 0
M  V30 31817 C 2936.73 -2.02358 -0.454517 0
M  V30 31818 C 2937.16 -1.07271 -1.54514 0
M  V30 31819 O 2936.51 -0.055928 -1.81214 0
M  V30 31820 C 2936.56 -3.46761 -0.989408 0
M  V30 31821 O 2935.67 -3.54787 -2.10238 0
M  V30 31822 H 2935.01 -0.655419 -0.106405 0
M  V30 31823 H 2937.54 -2.02331 0.303842 0
M  V30 31824 H 2937.55 -3.86518 -1.30643 0
M  V30 31825 H 2936.22 -4.15461 -0.19101 0
M  V30 31826 H 2934.8 -3.26903 -1.79413 0
M  V30 31827 N 2936.98 0.0801629 -1.57396 0
M  V30 31828 C 2938.26 0.81342 -1.77884 0
M  V30 31829 C 2938.64 1.96204 -0.778913 0
M  V30 31830 O 2937.99 2.27712 0.189643 0
M  V30 31831 C 2938.2 1.29415 -3.24119 0
M  V30 31832 C 2939.55 1.73091 -3.87717 0
M  V30 31833 O 2940.57 1.39002 -3.27959 0
M  V30 31834 O 2939.43 2.36176 -4.92832 0
M  V30 31835 H 2936.52 0.389125 -0.729733 0
M  V30 31836 H 2939.07 0.0608868 -1.69591 0
M  V30 31837 H 2937.84 0.471879 -3.88444 0
M  V30 31838 H 2937.47 2.10824 -3.37104 0
M  V30 31839 N 2938.46 1.53634 0.351355 0
M  V30 31840 C 2939.69 1.74431 1.11272 0
M  V30 31841 C 2940.11 0.47983 1.82601 0
M  V30 31842 O 2939.46 -0.548094 1.74075 0
M  V30 31843 C 2939.51 2.91925 2.13218 0
M  V30 31844 O 2939.23 4.13482 1.44791 0
M  V30 31845 C 2940.74 3.24711 3.01791 0
M  V30 31846 H 2937.96 0.583029 0.332142 0
M  V30 31847 H 2940.5 2.00431 0.405939 0
M  V30 31848 H 2938.65 2.68279 2.79473 0
M  V30 31849 H 2939.07 4.79378 2.12831 0
M  V30 31850 H 2940.54 4.10293 3.69275 0
M  V30 31851 H 2941.02 2.4068 3.67383 0
M  V30 31852 H 2941.63 3.50334 2.41135 0
M  V30 31853 N 2939.94 -0.611943 1.45234 0
M  V30 31854 C 2940.87 -1.73664 1.49578 0
M  V30 31855 C 2941.89 -1.58133 0.387015 0
M  V30 31856 O 2943.07 -1.66094 0.653833 0
M  V30 31857 C 2940.17 -3.11614 1.33228 0
M  V30 31858 C 2939.35 -3.53426 2.577 0
M  V30 31859 C 2938.41 -4.70324 2.35971 0
M  V30 31860 O 2937.43 -4.77661 3.09561 0
M  V30 31861 N 2938.63 -5.63302 1.40253 0
M  V30 31862 H 2941.4 -1.70402 2.46542 0
M  V30 31863 H 2938.96 -0.797096 1.40918 0
M  V30 31864 H 2940.95 -3.87566 1.16509 0
M  V30 31865 H 2939.52 -3.09408 0.445565 0
M  V30 31866 H 2938.74 -2.67481 2.89565 0
M  V30 31867 H 2940.03 -3.78118 3.40448 0
M  V30 31868 H 2939.43 -5.60084 0.795121 0
M  V30 31869 H 2937.99 -6.38805 1.29507 0
M  V30 31870 N 2941.42 -1.32452 -0.854063 0
M  V30 31871 C 2942.33 -1.23437 -1.995 0
M  V30 31872 C 2943.34 -0.147858 -1.73371 0
M  V30 31873 O 2944.52 -0.368644 -1.97997 0
M  V30 31874 C 2941.59 -0.958387 -3.3319 0
M  V30 31875 C 2940.65 -2.1334 -3.72538 0
M  V30 31876 C 2939.88 -1.87049 -4.99848 0
M  V30 31877 O 2940.1 -0.813338 -5.64571 0
M  V30 31878 O 2939.04 -2.73171 -5.36341 0
M  V30 31879 H 2942.86 -2.19353 -2.10042 0
M  V30 31880 H 2940.45 -1.12348 -0.984804 0
M  V30 31881 H 2942.33 -0.820991 -4.13325 0
M  V30 31882 H 2941 -0.0293868 -3.23687 0
M  V30 31883 H 2939.91 -2.32627 -2.92977 0
M  V30 31884 H 2941.24 -3.04521 -3.86688 0
M  V30 31885 N 2942.9 1.07041 -1.15672 0
M  V30 31886 C 2943.85 2.1256 -0.82477 0
M  V30 31887 C 2944.83 1.59746 0.192401 0
M  V30 31888 O 2946.02 1.76998 -0.0073187 0
M  V30 31889 C 2943.15 3.41812 -0.31927 0
M  V30 31890 C 2942.24 4.01472 -1.36678 0
M  V30 31891 N 2942.63 4.35347 -2.57501 0
M  V30 31892 C 2940.93 4.28982 -1.22026 0
M  V30 31893 C 2941.63 4.82666 -3.24666 0
M  V30 31894 N 2940.6 4.81633 -2.52052 0
M  V30 31895 H 2944.41 2.36587 -1.74367 0
M  V30 31896 H 2941.92 1.2451 -1.04265 0
M  V30 31897 H 2943.92 4.16852 -0.0630949 0
M  V30 31898 H 2942.58 3.19227 0.593652 0
M  V30 31899 H 2943.59 4.25934 -2.94619 0
M  V30 31900 H 2940.27 4.1588 -0.367487 0
M  V30 31901 H 2941.66 5.18143 -4.27759 0
M  V30 31902 N 2944.38 0.954014 1.25445 0
M  V30 31903 C 2945.34 0.478219 2.24156 0
M  V30 31904 C 2946.34 -0.417749 1.55279 0
M  V30 31905 O 2947.53 -0.215124 1.72867 0
M  V30 31906 C 2944.66 -0.309142 3.39495 0
M  V30 31907 H 2945.85 1.35069 2.67762 0
M  V30 31908 H 2943.41 0.737231 1.37821 0
M  V30 31909 H 2944.14 -1.19931 3.01309 0
M  V30 31910 H 2943.93 0.333631 3.90678 0
M  V30 31911 H 2945.42 -0.631521 4.12797 0
M  V30 31912 N 2945.85 -1.40063 0.722513 0
M  V30 31913 C 2947.1 -2.00362 0.26449 0
M  V30 31914 C 2947.42 -1.57594 -1.14844 0
M  V30 31915 O 2946.69 -0.818508 -1.77981 0
M  V30 31916 H 2945.27 -0.74096 0.0947976 0
M  V30 31917 H 2947.93 -1.71297 0.929689 0
M  V30 31918 H 2947.03 -3.10625 0.303031 0
M  V30 31919 N 2947.33 -0.469207 -1.50453 0
M  V30 31920 C 2948.56 0.0864528 -2.0722 0
M  V30 31921 C 2948.98 1.32913 -1.331 0
M  V30 31922 O 2948.34 1.77313 -0.378115 0
M  V30 31923 C 2948.39 0.355321 -3.58845 0
M  V30 31924 O 2947.49 1.43615 -3.86586 0
M  V30 31925 H 2946.83 -0.0121531 -0.663889 0
M  V30 31926 H 2949.36 -0.659708 -1.93672 0
M  V30 31927 H 2949.37 0.596376 -4.03618 0
M  V30 31928 H 2948.05 -0.55277 -4.1221 0
M  V30 31929 H 2946.62 1.18256 -3.53652 0
M  V30 31930 N 2948.81 1.56303 -0.201741 0
M  V30 31931 C 2950.06 1.97376 0.434412 0
M  V30 31932 C 2950.38 1.09001 1.6169 0
M  V30 31933 O 2949.65 0.162716 1.95223 0
M  V30 31934 H 2948.23 0.728891 0.163484 0
M  V30 31935 H 2950.89 1.9273 -0.290022 0
M  V30 31936 H 2949.99 3.02348 0.774082 0
M  V30 31937 N 2950.29 -0.0718147 1.57436 0
M  V30 31938 C 2951.7 -0.426601 1.53793 0
M  V30 31939 C 2951.9 -1.79173 0.921918 0
M  V30 31940 O 2950.96 -2.46994 0.524417 0
M  V30 31941 C 2952.27 -0.367686 2.98444 0
M  V30 31942 C 2953.82 -0.447874 3.09779 0
M  V30 31943 C 2954.3 -0.418866 4.56081 0
M  V30 31944 N 2955.79 -0.478941 4.60717 0
M  V30 31945 C 2956.52 -0.47871 5.71398 0
M  V30 31946 N 2956.02 -0.433295 6.91444 0
M  V30 31947 N 2957.81 -0.525265 5.5964 0
M  V30 31948 H 2949.96 0.822068 1.95846 0
M  V30 31949 H 2952.22 0.308463 0.896412 0
M  V30 31950 H 2951.93 0.568711 3.47071 0
M  V30 31951 H 2951.8 -1.17789 3.58337 0
M  V30 31952 H 2954.19 -1.37469 2.61125 0
M  V30 31953 H 2954.27 0.390902 2.52796 0
M  V30 31954 H 2953.92 0.504105 5.05392 0
M  V30 31955 H 2953.85 -1.27517 5.10927 0
M  V30 31956 H 2956.34 -0.518289 3.74329 0
M  V30 31957 H 2956.65 -0.437044 7.71563 0
M  V30 31958 H 2955 -0.399984 6.93848 0
M  V30 31959 H 2958.19 -0.558437 4.64757 0
M  V30 31960 H 2958.36 -0.521616 6.45897 0
M  V30 31961 N 2951.77 -1.53818 -0.343203 0
M  V30 31962 C 2952.73 -1.81133 -1.40441 0
M  V30 31963 C 2953.73 -0.682392 -1.45602 0
M  V30 31964 O 2954.92 -0.950675 -1.45972 0
M  V30 31965 C 2952.05 -1.95366 -2.79365 0
M  V30 31966 H 2953.24 -2.7593 -1.17484 0
M  V30 31967 H 2950.8 -1.45236 -0.57761 0
M  V30 31968 H 2951.53 -1.02712 -3.07605 0
M  V30 31969 H 2951.32 -2.77498 -2.77015 0
M  V30 31970 H 2952.81 -2.18014 -3.56174 0
M  V30 31971 N 2953.24 0.604233 -1.45557 0
M  V30 31972 C 2954.47 1.3946 -1.53512 0
M  V30 31973 C 2954.89 1.87333 -0.169671 0
M  V30 31974 O 2954.25 1.60335 0.846317 0
M  V30 31975 C 2954.3 2.57286 -2.52659 0
M  V30 31976 O 2953.4 3.58027 -2.04672 0
M  V30 31977 H 2952.74 0.416211 -0.517363 0
M  V30 31978 H 2955.27 0.735038 -1.90941 0
M  V30 31979 H 2955.28 3.04486 -2.71573 0
M  V30 31980 H 2953.96 2.2179 -3.51826 0
M  V30 31981 H 2952.54 3.17452 -1.95649 0
M  V30 31982 N 2954.72 1.32903 0.847027 0
M  V30 31983 C 2955.95 1.27059 1.63923 0
M  V30 31984 C 2956.37 -0.157103 1.87443 0
M  V30 31985 O 2955.73 -1.11103 1.43268 0
M  V30 31986 C 2955.78 2.04318 2.9713 0
M  V30 31987 O 2954.88 1.3962 3.88046 0
M  V30 31988 H 2954.22 0.437523 0.49947 0
M  V30 31989 H 2956.75 1.75338 1.0544 0
M  V30 31990 H 2956.76 2.14778 3.46892 0
M  V30 31991 H 2955.44 3.08133 2.79333 0
M  V30 31992 H 2954.01 1.37756 3.46522 0
M  V30 31993 N 2956.2 -1.06426 1.16238 0
M  V30 31994 C 2957.13 -2.13294 0.811228 0
M  V30 31995 C 2958.11 -1.61152 -0.216526 0
M  V30 31996 O 2959.29 -1.8823 -0.100916 0
M  V30 31997 C 2956.42 -3.38061 0.20796 0
M  V30 31998 C 2955.47 -4.09002 1.20911 0
M  V30 31999 S 2956.3 -4.59182 2.75521 0
M  V30 32000 C 2957.46 -5.87212 2.1664 0
M  V30 32001 H 2957.69 -2.42752 1.71636 0
M  V30 32002 H 2955.22 -1.1884 0.985714 0
M  V30 32003 H 2957.18 -4.10282 -0.133643 0
M  V30 32004 H 2955.84 -3.06763 -0.674916 0
M  V30 32005 H 2955.03 -4.98606 0.735413 0
M  V30 32006 H 2954.64 -3.42788 1.49573 0
M  V30 32007 H 2956.93 -6.59899 1.53424 0
M  V30 32008 H 2957.87 -6.3931 3.04448 0
M  V30 32009 H 2958.28 -5.4118 1.60575 0
M  V30 32010 N 2957.68 -0.960653 -1.24937 0
M  V30 32011 C 2959.09 -0.65856 -1.74699 0
M  V30 32012 C 2959.44 0.825927 -1.77969 0
M  V30 32013 O 2958.57 1.64632 -1.40447 0
M  V30 32014 C 2959.16 -1.18873 -3.17261 0
M  V30 32015 C 2957.72 -0.936678 -3.64559 0
M  V30 32016 C 2956.87 -1.32822 -2.43421 0
M  V30 32017 H 2959.82 -1.13678 -1.10739 0
M  V30 32018 H 2959.84 -0.551655 -3.7648 0
M  V30 32019 H 2959.35 -2.26917 -3.1485 0
M  V30 32020 H 2957.45 0.128542 -3.72378 0
M  V30 32021 H 2957.56 -1.57737 -4.52389 0
M  V30 32022 H 2955.93 -0.746591 -2.43512 0
M  V30 32023 H 2956.71 -2.418 -2.43696 0
M  V30 32024 N 2959.16 1.39677 -0.729931 0
M  V30 32025 C 2960.57 1.54376 -0.404978 0
M  V30 32026 C 2960.77 1.69811 1.08473 0
M  V30 32027 O 2959.83 1.69575 1.87084 0
M  V30 32028 C 2961.14 2.76427 -1.18357 0
M  V30 32029 C 2962.69 2.90258 -1.17129 0
M  V30 32030 C 2963.16 4.1524 -1.93235 0
M  V30 32031 N 2964.66 4.22269 -1.90375 0
M  V30 32032 C 2965.39 5.17914 -2.46074 0
M  V30 32033 N 2964.89 6.19379 -3.10389 0
M  V30 32034 N 2966.68 5.10094 -2.36136 0
M  V30 32035 H 2958.83 1.27906 -1.6957 0
M  V30 32036 H 2961.09 0.619551 -0.717538 0
M  V30 32037 H 2960.8 2.71348 -2.23748 0
M  V30 32038 H 2960.67 3.68949 -0.784653 0
M  V30 32039 H 2963.06 2.94833 -0.125529 0
M  V30 32040 H 2963.14 1.98814 -1.60955 0
M  V30 32041 H 2962.79 4.11427 -2.97809 0
M  V30 32042 H 2962.72 5.05719 -1.46819 0
M  V30 32043 H 2965.21 3.49588 -1.43516 0
M  V30 32044 H 2965.52 6.88811 -3.5037 0
M  V30 32045 H 2963.86 6.19781 -3.14478 0
M  V30 32046 H 2967.06 4.2976 -1.85537 0
M  V30 32047 H 2967.23 5.84458 -2.79843 0
M  V30 32048 N 2960.63 0.47718 1.50202 0
M  V30 32049 C 2961.56 -0.303605 2.31518 0
M  V30 32050 C 2962.55 -0.984728 1.38698 0
M  V30 32051 O 2963.73 -0.980728 1.67617 0
M  V30 32052 C 2960.86 -1.38244 3.186 0
M  V30 32053 C 2959.81 -0.822572 4.20021 0
M  V30 32054 C 2959.14 -2.00015 4.95881 0
M  V30 32055 C 2960.44 0.170277 5.22022 0
M  V30 32056 H 2962.13 0.37508 2.97041 0
M  V30 32057 H 2959.68 0.181828 1.42847 0
M  V30 32058 H 2961.63 -1.93619 3.74286 0
M  V30 32059 H 2960.36 -2.08998 2.50973 0
M  V30 32060 H 2959.02 -0.290749 3.65445 0
M  V30 32061 H 2958.66 -2.69481 4.24722 0
M  V30 32062 H 2958.36 -1.63173 5.64489 0
M  V30 32063 H 2959.89 -2.55869 5.54404 0
M  V30 32064 H 2961.3 -0.294506 5.72543 0
M  V30 32065 H 2959.7 0.453286 5.98386 0
M  V30 32066 H 2960.77 1.09416 4.72394 0
M  V30 32067 N 2962.11 -1.56194 0.210027 0
M  V30 32068 C 2963.34 -2.02383 -0.429961 0
M  V30 32069 C 2963.76 -1.09001 -1.54157 0
M  V30 32070 O 2963.11 -0.0975176 -1.82239 0
M  V30 32071 C 2963.16 -3.48177 -0.972372 0
M  V30 32072 O 2962.88 -4.37997 0.0949001 0
M  V30 32073 C 2964.39 -4.09955 -1.68676 0
M  V30 32074 H 2961.61 -0.6625 -0.106463 0
M  V30 32075 H 2964.15 -2.01931 0.323107 0
M  V30 32076 H 2962.3 -3.49281 -1.67576 0
M  V30 32077 H 2962.72 -5.23577 -0.311038 0
M  V30 32078 H 2964.19 -5.13774 -2.01842 0
M  V30 32079 H 2964.67 -3.5428 -2.59581 0
M  V30 32080 H 2965.28 -4.12668 -1.02885 0
M  V30 32081 N 2963.59 0.0634645 -1.57472 0
M  V30 32082 C 2964.84 0.762161 -1.87933 0
M  V30 32083 C 2965.17 1.76802 -0.803408 0
M  V30 32084 O 2964.44 1.93614 0.185434 0
M  V30 32085 C 2964.73 1.46269 -3.29055 0
M  V30 32086 C 2964.58 0.472676 -4.4731 0
M  V30 32087 C 2965.9 2.40552 -3.68541 0
M  V30 32088 H 2963.02 0.275612 -0.683525 0
M  V30 32089 H 2965.66 0.0252317 -1.89983 0
M  V30 32090 H 2963.81 2.09084 -3.27439 0
M  V30 32091 H 2965.48 -0.150909 -4.61053 0
M  V30 32092 H 2963.73 -0.211263 -4.33285 0
M  V30 32093 H 2964.4 1.00062 -5.42855 0
M  V30 32094 H 2966.87 1.87808 -3.71305 0
M  V30 32095 H 2965.75 2.86566 -4.68157 0
M  V30 32096 H 2966.01 3.25726 -2.98923 0
M  V30 32097 N 2965.07 1.53998 0.33504 0
M  V30 32098 C 2966.35 1.6229 1.09185 0
M  V30 32099 C 2966.73 0.449495 2.06259 0
M  V30 32100 O 2966.07 -0.557405 2.21597 0
M  V30 32101 C 2966.28 2.9876 1.80398 0
M  V30 32102 C 2967.63 3.5441 2.33835 0
M  V30 32103 O 2968.66 3.0099 1.90482 0
M  V30 32104 O 2967.51 4.47868 3.13172 0
M  V30 32105 H 2964.61 0.656744 0.502609 0
M  V30 32106 H 2967.15 1.66343 0.335851 0
M  V30 32107 H 2965.93 3.75601 1.09725 0
M  V30 32108 H 2965.55 2.98334 2.62835 0
M  V30 32109 N 2966.55 -0.596505 1.45875 0
M  V30 32110 C 2967.96 -1.17855 1.448 0
M  V30 32111 C 2968.31 -1.95359 0.181478 0
M  V30 32112 O 2967.43 -2.04201 -0.716301 0
M  V30 32113 C 2968.03 -2.14394 2.62337 0
M  V30 32114 C 2966.59 -2.67951 2.64347 0
M  V30 32115 C 2965.73 -1.4356 2.37246 0
M  V30 32116 H 2968.69 -0.385195 1.53954 0
M  V30 32117 H 2968.71 -2.97622 2.37068 0
M  V30 32118 H 2968.22 -1.57957 3.54501 0
M  V30 32119 H 2966.32 -3.28295 1.76219 0
M  V30 32120 H 2966.43 -3.11627 3.63903 0
M  V30 32121 H 2964.8 -1.72898 1.87025 0
M  V30 32122 H 2965.58 -0.889747 3.3157 0
M  V30 32123 N 2968.02 -1.3335 -0.839967 0
M  V30 32124 C 2968.96 -1.19347 -1.95675 0
M  V30 32125 C 2969.97 -0.124721 -1.62322 0
M  V30 32126 O 2971.16 -0.375042 -1.74516 0
M  V30 32127 C 2968.26 -0.807829 -3.29131 0
M  V30 32128 C 2967.43 -1.96799 -3.90626 0
M  V30 32129 C 2966.49 -1.5635 -5.02435 0
M  V30 32130 O 2965.52 -2.27768 -5.21642 0
M  V30 32131 N 2966.72 -0.467869 -5.78611 0
M  V30 32132 H 2969.48 -2.15551 -2.08225 0
M  V30 32133 H 2967.04 -1.26081 -1.01564 0
M  V30 32134 H 2969.04 -0.519352 -4.01354 0
M  V30 32135 H 2967.61 0.0635001 -3.12535 0
M  V30 32136 H 2966.83 -2.42215 -3.11007 0
M  V30 32137 H 2968.11 -2.7443 -4.28446 0
M  V30 32138 H 2967.51 0.126225 -5.65559 0
M  V30 32139 H 2966.07 -0.23906 -6.51361 0
M  V30 32140 N 2969.5 1.05808 -1.16801 0
M  V30 32141 C 2970.75 1.78962 -0.953967 0
M  V30 32142 C 2971.08 1.87203 0.516605 0
M  V30 32143 O 2970.36 1.36724 1.38336 0
M  V30 32144 C 2970.64 3.23188 -1.58813 0
M  V30 32145 C 2970.49 3.22997 -3.13038 0
M  V30 32146 C 2971.81 4.20865 -1.28688 0
M  V30 32147 H 2968.93 0.649674 -0.347983 0
M  V30 32148 H 2971.57 1.23712 -1.44206 0
M  V30 32149 H 2969.72 3.70366 -1.17309 0
M  V30 32150 H 2971.39 2.83943 -3.63558 0
M  V30 32151 H 2969.64 2.61512 -3.46113 0
M  V30 32152 H 2970.31 4.24763 -3.52534 0
M  V30 32153 H 2972.78 3.82152 -1.64617 0
M  V30 32154 H 2971.66 5.20035 -1.75654 0
M  V30 32155 H 2971.92 4.41617 -0.206569 0
M  V30 32156 N 2970.98 0.967265 1.24426 0
M  V30 32157 C 2972.23 0.629846 1.92771 0
M  V30 32158 C 2972.56 -0.832797 1.75437 0
M  V30 32159 O 2971.83 -1.59911 1.10719 0
M  V30 32160 C 2972.12 1.00484 3.45796 0
M  V30 32161 C 2971.97 2.52414 3.723 0
M  V30 32162 C 2973.29 0.539076 4.36786 0
M  V30 32163 H 2970.41 0.230294 0.700095 0
M  V30 32164 H 2973.05 1.20619 1.46803 0
M  V30 32165 H 2971.2 0.514404 3.85079 0
M  V30 32166 H 2972.87 3.0893 3.42578 0
M  V30 32167 H 2971.12 2.95631 3.17466 0
M  V30 32168 H 2971.79 2.73702 4.79366 0
M  V30 32169 H 2974.26 0.959946 4.04876 0
M  V30 32170 H 2973.14 0.830022 5.42588 0
M  V30 32171 H 2973.4 -0.560846 4.38528 0
M  V30 32172 N 2972.46 -1.39288 0.737328 0
M  V30 32173 C 2973.69 -2.04763 0.296609 0
M  V30 32174 C 2974.1 -1.55594 -1.06939 0
M  V30 32175 O 2973.46 -0.721852 -1.67617 0
M  V30 32176 C 2973.51 -3.60319 0.291969 0
M  V30 32177 O 2973.23 -4.07679 1.60404 0
M  V30 32178 C 2974.73 -4.42994 -0.16463 0
M  V30 32179 H 2971.95 -0.658432 0.129263 0
M  V30 32180 H 2974.5 -1.78291 1.00163 0
M  V30 32181 H 2972.65 -3.85684 -0.364183 0
M  V30 32182 H 2973.07 -5.02017 1.51918 0
M  V30 32183 H 2974.54 -5.51877 -0.116717 0
M  V30 32184 H 2975.02 -4.22199 -1.21015 0
M  V30 32185 H 2975.62 -4.22783 0.462043 0
M  V30 32186 N 2973.94 -0.485139 -1.49947 0
M  V30 32187 C 2975.21 0.127225 -1.95186 0
M  V30 32188 C 2975.59 1.55648 -1.42608 0
M  V30 32189 O 2974.94 2.19556 -0.633024 0
M  V30 32190 C 2975.15 0.0561503 -3.48955 0
M  V30 32191 C 2976.5 0.238032 -4.23932 0
M  V30 32192 O 2977.52 0.132083 -3.55955 0
M  V30 32193 O 2976.38 0.453562 -5.44615 0
M  V30 32194 H 2973.48 0.104 -0.820435 0
M  V30 32195 H 2976.02 -0.546545 -1.60658 0
M  V30 32196 H 2974.8 -0.941188 -3.79812 0
M  V30 32197 H 2974.42 0.770765 -3.90058 0
M  V30 32198 N 2975.42 1.56081 -0.218307 0
M  V30 32199 C 2976.83 1.84432 0.290134 0
M  V30 32200 C 2977.18 1.13961 1.5971 0
M  V30 32201 O 2976.3 0.408187 2.12515 0
M  V30 32202 C 2976.9 3.34578 0.533191 0
M  V30 32203 C 2975.46 3.63258 0.985947 0
M  V30 32204 C 2974.6 2.7726 0.047231 0
M  V30 32205 H 2977.55 1.52433 -0.441575 0
M  V30 32206 H 2977.58 3.54608 1.37961 0
M  V30 32207 H 2977.09 3.8584 -0.418205 0
M  V30 32208 H 2975.19 3.17449 1.95081 0
M  V30 32209 H 2975.3 4.71271 0.862601 0
M  V30 32210 H 2973.67 2.48615 0.553428 0
M  V30 32211 H 2974.45 3.31319 -0.899024 0
M  V30 32212 N 2976.89 -0.0551124 1.57504 0
M  V30 32213 C 2978.12 -0.767318 1.92684 0
M  V30 32214 C 2978.54 -1.69471 0.81617 0
M  V30 32215 O 2977.9 -1.79836 -0.229957 0
M  V30 32216 C 2977.95 -1.5228 3.26869 0
M  V30 32217 O 2977.05 -2.63454 3.17279 0
M  V30 32218 H 2976.39 -0.208227 0.630506 0
M  V30 32219 H 2978.92 -0.0183666 2.04592 0
M  V30 32220 H 2978.93 -1.89844 3.61142 0
M  V30 32221 H 2977.61 -0.84247 4.07278 0
M  V30 32222 H 2976.19 -2.28624 2.94593 0
M  V30 32223 N 2978.37 -1.54173 -0.326869 0
M  V30 32224 C 2979.6 -1.76496 -1.08921 0
M  V30 32225 C 2980.02 -0.510555 -1.81039 0
M  V30 32226 O 2979.38 0.537725 -1.73142 0
M  V30 32227 C 2979.43 -2.95581 -2.06553 0
M  V30 32228 O 2978.53 -2.66896 -3.14389 0
M  V30 32229 H 2977.87 -0.584954 -0.314205 0
M  V30 32230 H 2980.4 -2.01187 -0.372172 0
M  V30 32231 H 2980.41 -3.22836 -2.49481 0
M  V30 32232 H 2979.09 -3.86552 -1.53462 0
M  V30 32233 H 2977.66 -2.5058 -2.76159 0
M  V30 32234 N 2979.85 0.58876 -1.4619 0
M  V30 32235 C 2980.78 1.71271 -1.50803 0
M  V30 32236 C 2981.76 1.58504 -0.362663 0
M  V30 32237 O 2982.94 1.79804 -0.56593 0
M  V30 32238 C 2980.07 3.09273 -1.38087 0
M  V30 32239 C 2979.12 3.40577 -2.56729 0
M  V30 32240 S 2979.95 3.3332 -4.19116 0
M  V30 32241 C 2981.11 4.7387 -4.08899 0
M  V30 32242 H 2981.34 1.67098 -2.45897 0
M  V30 32243 H 2978.87 0.767001 -1.34002 0
M  V30 32244 H 2980.83 3.88888 -1.31439 0
M  V30 32245 H 2979.49 3.10942 -0.444313 0
M  V30 32246 H 2978.68 4.41105 -2.43809 0
M  V30 32247 H 2978.29 2.68516 -2.60336 0
M  V30 32248 H 2980.58 5.64116 -3.75206 0
M  V30 32249 H 2981.52 4.91847 -5.09404 0
M  V30 32250 H 2981.93 4.50435 -3.40247 0
M  V30 32251 N 2981.33 1.33794 0.832883 0
M  V30 32252 C 2982.74 1.13259 1.12448 0
M  V30 32253 C 2982.94 -0.0725478 2.01369 0
M  V30 32254 O 2982 -0.75104 2.41072 0
M  V30 32255 C 2983.31 2.42298 1.7808 0
M  V30 32256 C 2984.86 2.48261 1.90619 0
M  V30 32257 C 2985.34 3.77276 2.59667 0
M  V30 32258 N 2986.83 3.78381 2.67175 0
M  V30 32259 C 2987.56 4.74922 3.21305 0
M  V30 32260 N 2987.06 5.81841 3.76075 0
M  V30 32261 N 2988.85 4.6239 3.19612 0
M  V30 32262 H 2981 2.11026 0.241207 0
M  V30 32263 H 2983.26 0.932716 0.169541 0
M  V30 32264 H 2982.97 3.30521 1.20203 0
M  V30 32265 H 2982.84 2.54895 2.78044 0
M  V30 32266 H 2985.23 1.60483 2.47648 0
M  V30 32267 H 2985.31 2.39599 0.895868 0
M  V30 32268 H 2984.96 4.65439 2.03296 0
M  V30 32269 H 2984.89 3.83216 3.61183 0
M  V30 32270 H 2987.38 3.01112 2.28341 0
M  V30 32271 H 2987.69 6.51534 4.156 0
M  V30 32272 H 2986.04 5.85568 3.74347 0
M  V30 32273 H 2989.23 3.78015 2.76084 0
M  V30 32274 H 2989.4 5.37797 3.61495 0
M  V30 32275 N 2982.81 -1.05187 1.1736 0
M  V30 32276 C 2984.22 -1.30353 0.920884 0
M  V30 32277 C 2984.42 -1.97075 -0.419959 0
M  V30 32278 O 2983.48 -2.24436 -1.15692 0
M  V30 32279 C 2984.79 -2.17326 2.07821 0
M  V30 32280 C 2986.34 -2.30709 2.11524 0
M  V30 32281 C 2986.81 -3.21043 3.26643 0
M  V30 32282 N 2988.3 -3.28628 3.26432 0
M  V30 32283 C 2989.04 -3.9865 4.12148 0
M  V30 32284 N 2988.54 -4.71098 5.07975 0
M  V30 32285 N 2990.33 -3.94814 4.00098 0
M  V30 32286 H 2982.48 -0.602785 2.03667 0
M  V30 32287 H 2984.74 -0.328406 0.8893 0
M  V30 32288 H 2984.45 -1.75592 3.0473 0
M  V30 32289 H 2984.32 -3.17962 2.02928 0
M  V30 32290 H 2986.71 -2.71685 1.15201 0
M  V30 32291 H 2986.79 -1.29702 2.20479 0
M  V30 32292 H 2986.43 -2.8078 4.23231 0
M  V30 32293 H 2986.36 -4.22055 3.14924 0
M  V30 32294 H 2988.86 -2.77008 2.5705 0
M  V30 32295 H 2989.17 -5.22089 5.69775 0
M  V30 32296 H 2987.51 -4.70041 5.11944 0
M  V30 32297 H 2990.7 -3.3734 3.24529 0
M  V30 32298 H 2990.88 -4.49115 4.67118 0
M  V30 32299 N 2984.28 -0.97385 -1.23911 0
M  V30 32300 C 2985.51 -0.656546 -1.96734 0
M  V30 32301 C 2985.93 0.768541 -1.71683 0
M  V30 32302 O 2985.29 1.52254 -0.984294 0
M  V30 32303 C 2985.34 -0.944796 -3.48003 0
M  V30 32304 O 2984.44 -0.0334082 -4.12386 0
M  V30 32305 H 2983.78 -0.247586 -0.616114 0
M  V30 32306 H 2986.31 -1.30567 -1.57523 0
M  V30 32307 H 2986.32 -0.87883 -3.98423 0
M  V30 32308 H 2985 -1.98334 -3.65563 0
M  V30 32309 H 2983.58 -0.153222 -3.72585 0
M  V30 32310 N 2985.76 1.38895 -0.744705 0
M  V30 32311 C 2987.01 2.00311 -0.296919 0
M  V30 32312 C 2987.34 1.59104 1.11875 0
M  V30 32313 O 2986.59 0.815734 1.77888 0
M  V30 32314 C 2986.89 3.55609 -0.357364 0
M  V30 32315 C 2986.56 4.16498 -1.72743 0
M  V30 32316 C 2985.22 4.32843 -2.1024 0
M  V30 32317 C 2987.57 4.5018 -2.62655 0
M  V30 32318 C 2984.9 4.80161 -3.37138 0
M  V30 32319 C 2987.25 4.98911 -3.88935 0
M  V30 32320 C 2985.91 5.13463 -4.26512 0
M  V30 32321 H 2985.18 0.732991 -0.10865 0
M  V30 32322 H 2987.83 1.66077 -0.953448 0
M  V30 32323 H 2986.14 3.89926 0.382736 0
M  V30 32324 H 2987.83 4.00999 0.00738911 0
M  V30 32325 H 2984.42 4.04185 -1.42592 0
M  V30 32326 H 2988.61 4.37162 -2.34953 0
M  V30 32327 H 2983.86 4.89613 -3.66182 0
M  V30 32328 H 2988.04 5.23944 -4.58754 0
M  V30 32329 H 2985.66 5.49889 -5.24906 0
M  V30 32330 N 2987.24 0.493084 1.49688 0
M  V30 32331 C 2988.47 -0.053475 2.07331 0
M  V30 32332 C 2988.89 -1.30779 1.35198 0
M  V30 32333 O 2988.25 -1.76689 0.406277 0
M  V30 32334 C 2988.3 -0.298187 3.59365 0
M  V30 32335 O 2987.4 -1.37447 3.88821 0
M  V30 32336 H 2986.74 0.0227134 0.663611 0
M  V30 32337 H 2989.27 0.690436 1.92598 0
M  V30 32338 H 2989.28 -0.532088 4.04516 0
M  V30 32339 H 2987.96 0.618279 4.11279 0
M  V30 32340 H 2986.53 -1.12615 3.55489 0
M  V30 32341 N 2988.72 -1.55963 0.226582 0
M  V30 32342 C 2989.95 -2.02828 -0.408471 0
M  V30 32343 C 2990.36 -1.1063 -1.52992 0
M  V30 32344 O 2989.72 -0.116841 -1.82126 0
M  V30 32345 C 2989.77 -3.49189 -0.935389 0
M  V30 32346 O 2989.49 -4.37872 0.14135 0
M  V30 32347 C 2990.99 -4.11721 -1.64318 0
M  V30 32348 H 2988.21 -0.663592 -0.0994303 0
M  V30 32349 H 2990.76 -2.01577 0.344506 0
M  V30 32350 H 2988.91 -3.51038 -1.63862 0
M  V30 32351 H 2989.32 -5.23877 -0.255488 0
M  V30 32352 H 2990.8 -5.15886 -1.96381 0
M  V30 32353 H 2991.28 -3.57013 -2.55809 0
M  V30 32354 H 2991.88 -4.13736 -0.985028 0
M  V30 32355 N 2990.2 0.0467589 -1.57531 0
M  V30 32356 C 2991.45 0.740036 -1.87634 0
M  V30 32357 C 2991.76 1.77456 -0.822722 0
M  V30 32358 O 2992.96 2.51918 -1.0124 0
M  V30 32359 C 2991.42 1.36721 -3.32919 0
M  V30 32360 C 2991.03 0.369956 -4.4647 0
M  V30 32361 C 2992.77 2.04139 -3.72193 0
M  V30 32362 C 2990.68 1.00447 -5.82807 0
M  V30 32363 H 2989.61 0.280146 -0.700025 0
M  V30 32364 H 2992.26 -0.00610376 -1.83499 0
M  V30 32365 H 2990.64 2.16246 -3.31743 0
M  V30 32366 H 2991.82 -0.397298 -4.59084 0
M  V30 32367 H 2990.13 -0.201152 -4.15914 0
M  V30 32368 H 2992.73 2.52433 -4.71362 0
M  V30 32369 H 2993.07 2.85187 -3.03273 0
M  V30 32370 H 2993.6 1.31413 -3.75467 0
M  V30 32371 H 2990.34 0.233791 -6.55083 0
M  V30 32372 H 2989.86 1.74198 -5.73947 0
M  V30 32373 H 2991.54 1.51702 -6.28964 0
M  V30 32374 N 2991.67 1.54344 0.318688 0
M  V30 32375 C 2993.09 1.45163 0.663319 0
M  V30 32376 C 2993.29 0.628453 1.91449 0
M  V30 32377 O 2992.35 0.12917 2.52169 0
M  V30 32378 C 2993.66 2.88938 0.832785 0
M  V30 32379 C 2995.21 2.9887 0.929813 0
M  V30 32380 C 2995.68 4.43805 1.13141 0
M  V30 32381 N 2997.17 4.47439 1.19804 0
M  V30 32382 C 2997.91 5.56744 1.37199 0
M  V30 32383 N 2997.4 6.76008 1.51607 0
M  V30 32384 N 2999.2 5.444 1.39946 0
M  V30 32385 H 2991.35 2.06343 -0.503607 0
M  V30 32386 H 2993.61 0.933786 -0.163544 0
M  V30 32387 H 2993.32 3.51697 -0.0154137 0
M  V30 32388 H 2993.19 3.35335 1.72715 0
M  V30 32389 H 2995.58 2.36236 1.76851 0
M  V30 32390 H 2995.66 2.55797 0.0118112 0
M  V30 32391 H 2995.3 5.07028 0.297547 0
M  V30 32392 H 2995.23 4.84492 2.06336 0
M  V30 32393 H 2997.72 3.61508 1.10094 0
M  V30 32394 H 2998.04 7.5507 1.64586 0
M  V30 32395 H 2996.38 6.78907 1.48696 0
M  V30 32396 H 2999.57 4.50177 1.2829 0
M  V30 32397 H 2999.75 6.29639 1.53161 0
M  V30 32398 N 2993.15 -0.580999 1.465 0
M  V30 32399 C 2994.43 -1.34122 1.42375 0
M  V30 32400 C 2994.81 -2.10823 0.10811 0
M  V30 32401 O 2994.16 -2.09584 -0.910329 0
M  V30 32402 C 2994.37 -2.26578 2.65449 0
M  V30 32403 C 2995.72 -2.88354 3.11669 0
M  V30 32404 O 2996.74 -2.36891 2.6601 0
M  V30 32405 O 2995.6 -3.81833 3.90981 0
M  V30 32406 H 2992.69 -0.602714 0.566273 0
M  V30 32407 H 2995.24 -0.601875 1.58668 0
M  V30 32408 H 2994.01 -1.69342 3.52759 0
M  V30 32409 H 2993.63 -3.0785 2.51623 0
M  V30 32410 N 2994.63 -1.34234 -0.825776 0
M  V30 32411 C 2995.58 -1.25574 -1.93649 0
M  V30 32412 C 2996.55 -0.131565 -1.65578 0
M  V30 32413 O 2997.73 -0.31206 -1.88231 0
M  V30 32414 C 2994.87 -1.01421 -3.2986 0
M  V30 32415 C 2993.99 -2.22585 -3.70243 0
M  V30 32416 C 2993.12 -1.91739 -4.95388 0
M  V30 32417 C 2992.16 -3.09063 -5.28343 0
M  V30 32418 N 2991.3 -2.78119 -6.44666 0
M  V30 32419 H 2996.14 -2.20564 -2.00388 0
M  V30 32420 H 2993.67 -1.09664 -0.980422 0
M  V30 32421 H 2995.63 -0.854557 -4.08354 0
M  V30 32422 H 2994.26 -0.100993 -3.22642 0
M  V30 32423 H 2993.31 -2.49481 -2.87165 0
M  V30 32424 H 2994.63 -3.10253 -3.9057 0
M  V30 32425 H 2993.78 -1.72494 -5.81662 0
M  V30 32426 H 2992.52 -1.01328 -4.77058 0
M  V30 32427 H 2991.52 -3.28907 -4.40568 0
M  V30 32428 H 2992.75 -4.00248 -5.48615 0
M  V30 32429 H 2990.69 -1.90281 -6.27797 0
M  V30 32430 H 2990.61 -3.59318 -6.65152 0
M  V30 32431 H 2991.88 -2.62371 -7.34018 0
M  V30 32432 N 2996.11 1.04563 -1.17917 0
M  V30 32433 C 2997.52 1.29863 -0.927784 0
M  V30 32434 C 2997.72 1.97295 0.409501 0
M  V30 32435 O 2996.78 2.25046 1.14501 0
M  V30 32436 C 2998.09 2.16221 -2.08971 0
M  V30 32437 C 2999.64 2.29584 -2.12745 0
M  V30 32438 C 3000.12 3.19306 -3.28341 0
M  V30 32439 N 3001.61 3.26893 -3.2817 0
M  V30 32440 C 3002.34 3.96458 -4.14256 0
M  V30 32441 N 3001.84 4.68398 -5.10466 0
M  V30 32442 N 3003.63 3.92687 -4.02186 0
M  V30 32443 H 2995.78 0.591975 -2.03984 0
M  V30 32444 H 2998.05 0.323685 -0.891029 0
M  V30 32445 H 2997.75 1.73973 -3.05657 0
M  V30 32446 H 2997.63 3.16882 -2.04611 0
M  V30 32447 H 3000.01 2.7107 -1.1664 0
M  V30 32448 H 3000.09 1.28531 -2.21164 0
M  V30 32449 H 2999.74 2.78532 -4.24715 0
M  V30 32450 H 2999.67 4.20379 -3.17158 0
M  V30 32451 H 3002.16 2.75641 -2.58516 0
M  V30 32452 H 3002.47 5.1906 -5.72536 0
M  V30 32453 H 3000.82 4.67319 -5.1443 0
M  V30 32454 H 3004.01 3.35614 -3.26314 0
M  V30 32455 H 3004.18 4.46632 -4.69494 0
M  V30 32456 N 2997.59 0.980408 1.23393 0
M  V30 32457 C 2998.81 0.66697 1.96383 0
M  V30 32458 C 2999.24 -0.759426 1.72088 0
M  V30 32459 O 2998.59 -1.5173 0.992355 0
M  V30 32460 C 2998.64 0.963238 3.47497 0
M  V30 32461 O 2997.75 0.0552775 4.12363 0
M  V30 32462 H 2997.09 0.25085 0.614793 0
M  V30 32463 H 2999.62 1.314 1.56828 0
M  V30 32464 H 2999.63 0.899947 3.97951 0
M  V30 32465 H 2998.3 2.0027 3.64506 0
M  V30 32466 H 2996.88 0.172979 3.72499 0
M  V30 32467 N 2999.06 -1.38498 0.75206 0
M  V30 32468 C 3000.01 -2.32327 0.112675 0
M  V30 32469 C 3001.01 -1.53941 -0.70701 0
M  V30 32470 O 3002.21 -1.69482 -0.606279 0
M  V30 32471 H 2998.59 -0.751793 0.0176407 0
M  V30 32472 H 3000.56 -2.8386 0.920124 0
M  V30 32473 C 2999.31 -3.39126 -0.767399 0
M  V30 32474 H 2998.63 -3.99533 -0.146052 0
M  V30 32475 H 3000.07 -4.07189 -1.18209 0
M  V30 32476 C 2998.53 -2.77572 -1.90934 0
M  V30 32477 O 2999.06 -2.66759 -3.00337 0
M  V30 32478 N 2997.27 -2.35404 -1.70392 0
M  V30 32479 H 2996.81 -2.44398 -0.814087 0
M  V30 32480 H 2996.77 -1.94561 -2.46968 0
M  V30 32481 N 3000.54 -0.501015 -1.49424 0
M  V30 32482 C 3001.77 0.0424789 -2.07356 0
M  V30 32483 C 3002.19 1.3006 -1.35889 0
M  V30 32484 O 3001.55 1.76471 -0.415641 0
M  V30 32485 C 3001.6 0.279124 -3.59518 0
M  V30 32486 O 3000.7 1.35383 -3.89545 0
M  V30 32487 H 3000.04 -0.0262324 -0.663482 0
M  V30 32488 H 3002.57 -0.70064 -1.9223 0
M  V30 32489 H 3002.58 0.510628 -4.04792 0
M  V30 32490 H 3001.26 -0.640082 -4.10945 0
M  V30 32491 H 2999.84 1.10728 -3.56081 0
M  V30 32492 N 3002.02 1.5584 -0.234849 0
M  V30 32493 C 3003.25 2.03492 0.400705 0
M  V30 32494 C 3003.67 1.1133 1.51616 0
M  V30 32495 O 3003.03 0.103954 1.81002 0
M  V30 32496 C 3003.08 3.49262 0.897123 0
M  V30 32497 O 3002.18 3.60236 2.00758 0
M  V30 32498 H 3001.52 0.65801 0.0889908 0
M  V30 32499 H 3004.05 2.01455 -0.35738 0
M  V30 32500 H 3004.06 3.89846 1.20349 0
M  V30 32501 H 3002.74 4.15822 0.0807908 0
M  V30 32502 H 3001.31 3.31544 1.70683 0
M  V30 32503 N 3003.5 -0.038404 1.57553 0
M  V30 32504 C 3004.75 -0.726739 1.89974 0
M  V30 32505 C 3005.1 -1.73461 0.832411 0
M  V30 32506 O 3004.39 -1.90931 -0.159942 0
M  V30 32507 C 3004.59 -1.44548 3.26865 0
M  V30 32508 C 3004.42 -0.508735 4.46813 0
M  V30 32509 C 3003.19 -0.133234 5.05124 0
M  V30 32510 C 3005.38 0.2089 5.13876 0
M  V30 32511 N 3003.37 0.805742 6.08589 0
M  V30 32512 C 3004.74 1.00386 6.11819 0
M  V30 32513 C 3006.79 0.276837 4.9713 0
M  V30 32514 C 3005.5 1.86051 6.94822 0
M  V30 32515 C 3007.52 1.12057 5.80687 0
M  V30 32516 C 3006.88 1.90348 6.78194 0
M  V30 32517 H 3002.98 -0.24032 0.744157 0
M  V30 32518 H 3005.57 0.0129077 1.94696 0
M  V30 32519 H 3003.74 -2.15564 3.23089 0
M  V30 32520 H 3005.47 -2.08546 3.46829 0
M  V30 32521 H 3002.22 -0.493401 4.71023 0
M  V30 32522 H 3002.65 1.26946 6.64991 0
M  V30 32523 H 3007.29 -0.314148 4.21631 0
M  V30 32524 H 3005.01 2.46233 7.69672 0
M  V30 32525 H 3008.59 1.17655 5.69779 0
M  V30 32526 H 3007.47 2.54582 7.41726 0
M  V30 32527 N 3004.98 -1.54511 -0.310498 0
M  V30 32528 C 3005.91 -1.87802 -1.38754 0
M  V30 32529 C 3006.89 -0.736018 -1.53352 0
M  V30 32530 O 3008.07 -0.990917 -1.67016 0
M  V30 32531 C 3005.2 -2.11694 -2.75323 0
M  V30 32532 C 3004.16 -3.27541 -2.75501 0
M  V30 32533 C 3003.48 -3.36832 -4.15269 0
M  V30 32534 C 3004.78 -4.6488 -2.38084 0
M  V30 32535 H 3006.48 -2.78007 -1.11141 0
M  V30 32536 H 3004.02 -1.33764 -0.533208 0
M  V30 32537 H 3005.98 -2.33568 -3.50748 0
M  V30 32538 H 3004.7 -1.1825 -3.04441 0
M  V30 32539 H 3003.36 -3.05575 -2.02532 0
M  V30 32540 H 3003.01 -2.40922 -4.41549 0
M  V30 32541 H 3002.71 -4.14699 -4.16291 0
M  V30 32542 H 3004.23 -3.60955 -4.92487 0
M  V30 32543 H 3005.65 -4.86548 -3.03223 0
M  V30 32544 H 3004.04 -5.45392 -2.50335 0
M  V30 32545 H 3005.11 -4.66241 -1.33219 0
M  V30 32546 N 3006.46 0.573222 -1.46806 0
M  V30 32547 C 3007.37 1.70927 -1.6069 0
M  V30 32548 C 3008.38 1.66955 -0.490113 0
M  V30 32549 O 3009.56 1.86692 -0.755515 0
M  V30 32550 C 3006.62 3.07435 -1.60264 0
M  V30 32551 C 3005.68 3.22598 -2.83248 0
M  V30 32552 C 3004.92 4.52594 -2.82833 0
M  V30 32553 O 3005.14 5.37071 -1.92123 0
M  V30 32554 O 3004.07 4.71207 -3.74497 0
M  V30 32555 H 3007.9 1.62159 -2.56784 0
M  V30 32556 H 3005.48 0.741376 -1.29707 0
M  V30 32557 H 3007.37 3.88701 -1.62756 0
M  V30 32558 H 3006.04 3.1662 -0.673324 0
M  V30 32559 H 3004.95 2.40789 -2.86306 0
M  V30 32560 H 3006.28 3.18309 -3.7542 0
M  V30 32561 N 3007.93 1.3467 0.818645 0
M  V30 32562 C 3008.84 1.28683 1.96158 0
M  V30 32563 C 3009.86 0.193772 1.72918 0
M  V30 32564 O 3011.04 0.42101 1.9695 0
M  V30 32565 C 3008.1 1.04639 3.30532 0
M  V30 32566 C 3007.16 2.23142 3.66751 0
M  V30 32567 C 3006.39 2.00236 4.94713 0
M  V30 32568 O 3006.62 0.962739 5.62217 0
M  V30 32569 O 3005.55 2.87295 5.28909 0
M  V30 32570 H 3009.38 2.24845 2.04153 0
M  V30 32571 H 3006.96 1.14919 0.954671 0
M  V30 32572 H 3008.84 0.930288 4.11003 0
M  V30 32573 H 3007.52 0.115196 3.23495 0
M  V30 32574 H 3006.43 2.40313 2.86706 0
M  V30 32575 H 3007.76 3.14666 3.78479 0
M  V30 32576 N 3009.41 -1.03936 1.1847 0
M  V30 32577 C 3010.66 -1.77159 0.980864 0
M  V30 32578 C 3010.99 -1.88242 -0.489392 0
M  V30 32579 O 3010.24 -1.38802 -1.37958 0
M  V30 32580 C 3010.54 -3.20463 1.58235 0
M  V30 32581 C 3010.21 -3.29411 3.07895 0
M  V30 32582 C 3008.87 -3.3156 3.48743 0
M  V30 32583 C 3011.22 -3.29404 4.03909 0
M  V30 32584 C 3008.55 -3.31346 4.84176 0
M  V30 32585 C 3010.9 -3.3073 5.39259 0
M  V30 32586 C 3009.56 -3.31172 5.79553 0
M  V30 32587 H 3008.83 -0.648271 0.358924 0
M  V30 32588 H 3011.48 -1.22066 1.47554 0
M  V30 32589 H 3009.79 -3.78566 1.00971 0
M  V30 32590 H 3011.48 -3.75766 1.40004 0
M  V30 32591 H 3008.07 -3.28459 2.75341 0
M  V30 32592 H 3012.26 -3.26934 3.73401 0
M  V30 32593 H 3007.51 -3.30006 5.1469 0
M  V30 32594 H 3011.69 -3.29675 6.13423 0
M  V30 32595 H 3009.31 -3.3076 6.84472 0
M  V30 32596 N 3010.89 -0.986938 -1.22871 0
M  V30 32597 C 3012.11 -0.677375 -1.96026 0
M  V30 32598 C 3012.54 0.750289 -1.72488 0
M  V30 32599 O 3011.9 1.51202 -1.00039 0
M  V30 32600 C 3011.95 -0.981654 -3.46981 0
M  V30 32601 O 3011.05 -0.0771454 -4.12328 0
M  V30 32602 H 3010.39 -0.254107 -0.613454 0
M  V30 32603 H 3012.92 -1.3223 -1.56129 0
M  V30 32604 H 3012.93 -0.921039 -3.97468 0
M  V30 32605 H 3011.61 -2.022 -3.63439 0
M  V30 32606 H 3010.18 -0.192731 -3.72402 0
M  V30 32607 N 3012.37 1.38098 -0.759394 0
M  V30 32608 C 3013.3 2.28046 -0.0838762 0
M  V30 32609 C 3014.28 1.45681 0.722204 0
M  V30 32610 O 3015.46 1.75037 0.699598 0
M  V30 32611 C 3012.59 3.26856 0.887859 0
M  V30 32612 C 3011.64 4.26172 0.167299 0
M  V30 32613 S 3012.47 5.23312 -1.13601 0
M  V30 32614 C 3013.62 6.25676 -0.167495 0
M  V30 32615 H 3013.86 2.84991 -0.846614 0
M  V30 32616 H 3011.39 1.44187 -0.552231 0
M  V30 32617 H 3013.35 3.84296 1.44315 0
M  V30 32618 H 3012.01 2.68882 1.62361 0
M  V30 32619 H 3011.2 4.95836 0.90348 0
M  V30 32620 H 3010.8 3.72657 -0.316637 0
M  V30 32621 H 3013.1 6.74234 0.66448 0
M  V30 32622 H 3014.04 7.03196 -0.83196 0
M  V30 32623 H 3014.45 5.64087 0.21579 0
M  V30 32624 N 3013.85 0.508932 1.49156 0
M  V30 32625 C 3014.76 -0.269615 2.33046 0
M  V30 32626 C 3015.77 -0.959637 1.45145 0
M  V30 32627 O 3016.95 -0.939264 1.78157 0
M  V30 32628 C 3014.01 -1.31548 3.20774 0
M  V30 32629 C 3013.07 -0.638056 4.24532 0
M  V30 32630 C 3012.31 -1.63409 5.08068 0
M  V30 32631 O 3012.53 -2.86474 4.93243 0
M  V30 32632 O 3011.46 -1.18505 5.90119 0
M  V30 32633 H 3015.29 0.417236 3.0082 0
M  V30 32634 H 3012.87 0.270145 1.46937 0
M  V30 32635 H 3014.76 -1.9204 3.75098 0
M  V30 32636 H 3013.43 -1.98512 2.55685 0
M  V30 32637 H 3012.34 0.00680933 3.74099 0
M  V30 32638 H 3013.67 -0.010729 4.92199 0
M  V30 32639 N 3015.32 -1.55714 0.243111 0
M  V30 32640 C 3016.74 -1.59208 -0.111825 0
M  V30 32641 C 3016.94 -1.26023 -1.57228 0
M  V30 32642 O 3016 -1.00573 -2.31606 0
M  V30 32643 C 3017.31 -2.99789 0.233938 0
M  V30 32644 C 3018.86 -3.12494 0.177928 0
M  V30 32645 C 3019.33 -4.55288 0.49767 0
M  V30 32646 N 3020.82 -4.61028 0.44803 0
M  V30 32647 C 3021.56 -5.69488 0.668645 0
M  V30 32648 N 3021.05 -6.86225 0.952185 0
M  V30 32649 N 3022.85 -5.58893 0.59961 0
M  V30 32650 H 3015 -1.75556 1.19558 0
M  V30 32651 H 3017.26 -0.81704 0.48078 0
M  V30 32652 H 3016.97 -3.28797 1.24841 0
M  V30 32653 H 3016.84 -3.74616 -0.44078 0
M  V30 32654 H 3019.23 -2.83269 -0.827213 0
M  V30 32655 H 3019.31 -2.3995 0.886441 0
M  V30 32656 H 3018.95 -4.85234 1.50035 0
M  V30 32657 H 3018.88 -5.26087 -0.232279 0
M  V30 32658 H 3021.37 -3.77153 0.237454 0
M  V30 32659 H 3021.69 -7.64815 1.10805 0
M  V30 32660 H 3020.03 -6.87918 0.989617 0
M  V30 32661 H 3023.22 -4.6657 0.37817 0
M  V30 32662 H 3023.4 -6.4335 0.774941 0
M  V30 32663 N 3016.8 0.030048 -1.57571 0
M  V30 32664 C 3018.03 0.736567 -1.9388 0
M  V30 32665 C 3018.45 1.68151 -0.843028 0
M  V30 32666 O 3017.81 1.80179 0.201318 0
M  V30 32667 C 3017.86 1.47061 -3.2925 0
M  V30 32668 O 3016.96 2.58373 -3.2143 0
M  V30 32669 H 3016.3 0.19817 -0.633739 0
M  V30 32670 H 3018.83 -0.0141845 -2.04595 0
M  V30 32671 H 3018.84 1.84074 -3.64116 0
M  V30 32672 H 3017.52 0.777569 -4.08567 0
M  V30 32673 H 3016.1 2.23909 -2.98193 0
M  V30 32674 N 3018.28 1.54674 0.3023 0
M  V30 32675 C 3019.51 1.78207 1.061 0
M  V30 32676 C 3019.93 0.539292 1.80203 0
M  V30 32677 O 3019.29 -0.510112 1.73976 0
M  V30 32678 C 3019.34 2.9883 2.01824 0
M  V30 32679 O 3018.44 2.71864 3.10103 0
M  V30 32680 H 3017.78 0.589879 0.304859 0
M  V30 32681 H 3020.31 2.01753 0.340118 0
M  V30 32682 H 3020.32 3.26764 2.44313 0
M  V30 32683 H 3019 3.88944 1.47293 0
M  V30 32684 H 3017.57 2.54942 2.72138 0
M  V30 32685 N 3019.76 -0.565428 1.47108 0
M  V30 32686 C 3020.67 -1.70072 1.61594 0
M  V30 32687 C 3021.68 -1.66692 0.49896 0
M  V30 32688 O 3022.86 -1.86289 0.765405 0
M  V30 32689 C 3019.93 -3.06581 1.61893 0
M  V30 32690 C 3018.99 -3.21091 2.84954 0
M  V30 32691 C 3018.22 -4.51088 2.85229 0
M  V30 32692 O 3018.44 -5.36044 1.94968 0
M  V30 32693 O 3017.38 -4.69214 3.76991 0
M  V30 32694 H 3021.2 -1.60795 2.57641 0
M  V30 32695 H 3018.79 -0.734487 1.30099 0
M  V30 32696 H 3020.67 -3.87832 1.64815 0
M  V30 32697 H 3019.34 -3.16258 0.690105 0
M  V30 32698 H 3018.25 -2.39268 2.87579 0
M  V30 32699 H 3019.58 -3.16313 3.77103 0
M  V30 32700 N 3021.24 -1.35102 -0.811492 0
M  V30 32701 C 3022.18 -1.27645 -1.94447 0
M  V30 32702 C 3023.18 -0.172317 -1.68521 0
M  V30 32703 O 3024.38 -0.337998 -1.76798 0
M  V30 32704 H 3020.76 -0.396835 -0.638769 0
M  V30 32705 H 3022.73 -2.23372 -1.97857 0
M  V30 32706 C 3021.48 -1.06035 -3.31137 0
M  V30 32707 H 3020.8 -1.90234 -3.51641 0
M  V30 32708 H 3022.24 -1.04857 -4.1083 0
M  V30 32709 C 3020.7 0.23598 -3.36073 0
M  V30 32710 O 3021.23 1.23346 -3.82294 0
M  V30 32711 N 3019.44 0.273057 -2.89314 0
M  V30 32712 H 3018.98 -0.539255 -2.51892 0
M  V30 32713 H 3018.94 1.14015 -2.92998 0
M  V30 32714 N 3022.71 1.03306 -1.19019 0
M  V30 32715 C 3023.94 1.80272 -1.01537 0
M  V30 32716 C 3024.36 1.83696 0.436018 0
M  V30 32717 O 3023.71 1.27796 1.30286 0
M  V30 32718 C 3023.77 3.25519 -1.57225 0
M  V30 32719 O 3023.49 3.22352 -2.96683 0
M  V30 32720 C 3024.99 4.19099 -1.44468 0
M  V30 32721 H 3022.21 0.567453 -0.358104 0
M  V30 32722 H 3024.75 1.30147 -1.5774 0
M  V30 32723 H 3022.91 3.72848 -1.0518 0
M  V30 32724 H 3023.32 4.13399 -3.22803 0
M  V30 32725 H 3024.79 5.1892 -1.88219 0
M  V30 32726 H 3025.27 4.37424 -0.394547 0
M  V30 32727 H 3025.88 3.7764 -1.95623 0
M  V30 32728 N 3024.19 0.99344 1.22346 0
M  V30 32729 C 3025.42 0.687057 1.94841 0
M  V30 32730 C 3025.83 -0.752415 1.73595 0
M  V30 32731 O 3025.17 -1.51945 1.0324 0
M  V30 32732 C 3025.24 0.913815 3.47692 0
M  V30 32733 C 3024.9 2.33787 3.92673 0
M  V30 32734 C 3025.9 3.31741 4.00305 0
M  V30 32735 C 3023.58 2.67245 4.25306 0
M  V30 32736 C 3025.58 4.61226 4.39943 0
M  V30 32737 C 3023.26 3.96949 4.64624 0
M  V30 32738 C 3024.26 4.9375 4.71911 0
M  V30 32739 O 3023.95 6.21136 5.10338 0
M  V30 32740 H 3023.68 0.253258 0.626767 0
M  V30 32741 H 3026.23 1.33108 1.56434 0
M  V30 32742 H 3024.46 0.21262 3.86115 0
M  V30 32743 H 3026.15 0.602599 4.01402 0
M  V30 32744 H 3026.92 3.07226 3.75283 0
M  V30 32745 H 3022.8 1.92601 4.18839 0
M  V30 32746 H 3026.34 5.36782 4.45545 0
M  V30 32747 H 3022.24 4.21253 4.89097 0
M  V30 32748 H 3023.01 6.25081 5.28409 0
M  V30 32749 N 3025.67 -1.37693 0.766707 0
M  V30 32750 C 3026.62 -2.30326 0.147766 0
M  V30 32751 C 3027.59 -1.50845 -0.695339 0
M  V30 32752 O 3028.77 -1.79432 -0.648749 0
M  V30 32753 C 3025.91 -3.37306 -0.729291 0
M  V30 32754 C 3025.03 -4.31805 0.12987 0
M  V30 32755 C 3024.16 -5.25858 -0.751419 0
M  V30 32756 C 3023.2 -6.12 0.110583 0
M  V30 32757 N 3022.34 -6.98311 -0.7284 0
M  V30 32758 H 3027.18 -2.82678 0.943254 0
M  V30 32759 H 3024.71 -1.3916 0.476761 0
M  V30 32760 H 3026.67 -3.97953 -1.25256 0
M  V30 32761 H 3025.3 -2.86332 -1.49043 0
M  V30 32762 H 3024.35 -3.72507 0.770895 0
M  V30 32763 H 3025.67 -4.92424 0.79501 0
M  V30 32764 H 3024.82 -5.91686 -1.34136 0
M  V30 32765 H 3023.56 -4.65638 -1.45025 0
M  V30 32766 H 3022.56 -5.45156 0.713094 0
M  V30 32767 H 3023.79 -6.74292 0.806676 0
M  V30 32768 H 3021.73 -6.40625 -1.41194 0
M  V30 32769 H 3021.65 -7.55904 -0.120447 0
M  V30 32770 H 3022.92 -7.68534 -1.30289 0
M  V30 32771 N 3027.15 -0.516835 -1.48884 0
M  V30 32772 C 3028.37 0.0204836 -2.0739 0
M  V30 32773 C 3028.8 1.28612 -1.37261 0
M  V30 32774 O 3028.16 1.76021 -0.434335 0
M  V30 32775 C 3028.2 0.240977 -3.59794 0
M  V30 32776 O 3027.31 1.31244 -3.90959 0
M  V30 32777 H 3026.65 -0.033268 -0.663166 0
M  V30 32778 H 3029.18 -0.720989 -1.91476 0
M  V30 32779 H 3029.19 0.467666 -4.05311 0
M  V30 32780 H 3027.86 -0.683632 -4.10243 0
M  V30 32781 H 3026.44 1.06945 -3.57236 0
M  V30 32782 N 3028.63 1.55583 -0.251365 0
M  V30 32783 C 3030.04 1.59265 0.103381 0
M  V30 32784 C 3030.24 1.26855 1.56557 0
M  V30 32785 O 3029.3 1.018 2.31069 0
M  V30 32786 C 3030.61 2.9966 -0.249833 0
M  V30 32787 C 3032.16 3.12395 -0.194497 0
M  V30 32788 C 3032.63 4.55018 -0.521808 0
M  V30 32789 N 3034.13 4.60784 -0.472474 0
M  V30 32790 C 3034.86 5.69125 -0.698837 0
M  V30 32791 N 3034.36 6.85711 -0.988564 0
M  V30 32792 N 3036.15 5.58567 -0.629241 0
M  V30 32793 H 3028.3 1.74919 -1.20487 0
M  V30 32794 H 3030.56 0.814479 -0.485106 0
M  V30 32795 H 3030.27 3.2813 -1.26583 0
M  V30 32796 H 3030.14 3.74844 0.420907 0
M  V30 32797 H 3032.53 2.83703 0.812179 0
M  V30 32798 H 3032.61 2.39476 -0.899154 0
M  V30 32799 H 3032.26 4.84431 -1.52606 0
M  V30 32800 H 3032.19 5.26203 0.204376 0
M  V30 32801 H 3034.68 3.77022 -0.257452 0
M  V30 32802 H 3034.99 7.64217 -1.14859 0
M  V30 32803 H 3033.33 6.87384 -1.02608 0
M  V30 32804 H 3036.53 4.66363 -0.402908 0
M  V30 32805 H 3036.7 6.4293 -0.809048 0
M  V30 32806 N 3030.1 -0.0216912 1.57585 0
M  V30 32807 C 3031.52 -0.377457 1.55072 0
M  V30 32808 C 3031.72 -1.76149 0.978454 0
M  V30 32809 O 3030.78 -2.45201 0.602731 0
M  V30 32810 C 3032.09 -0.272552 2.99462 0
M  V30 32811 C 3033.64 -0.349093 3.11047 0
M  V30 32812 C 3034.11 -0.273556 4.57182 0
M  V30 32813 N 3035.6 -0.332125 4.62008 0
M  V30 32814 C 3036.34 -0.296682 5.72632 0
M  V30 32815 N 3035.83 -0.213099 6.92472 0
M  V30 32816 N 3037.63 -0.346954 5.61028 0
M  V30 32817 H 3029.78 0.883959 1.93132 0
M  V30 32818 H 3032.04 0.336825 0.886145 0
M  V30 32819 H 3031.75 0.678841 3.45086 0
M  V30 32820 H 3031.62 -1.06329 3.61903 0
M  V30 32821 H 3034.01 -1.29092 2.65366 0
M  V30 32822 H 3034.09 0.471129 2.51424 0
M  V30 32823 H 3033.73 0.664637 5.03533 0
M  V30 32824 H 3033.66 -1.11198 5.14726 0
M  V30 32825 H 3036.15 -0.398937 3.75788 0
M  V30 32826 H 3036.47 -0.191356 7.72563 0
M  V30 32827 H 3034.81 -0.179039 6.94769 0
M  V30 32828 H 3038 -0.410296 4.66298 0
M  V30 32829 H 3038.18 -0.315865 6.4723 0
M  V30 32830 N 3031.58 -1.54832 -0.294093 0
M  V30 32831 C 3033 -1.462 -0.640141 0
M  V30 32832 C 3033.2 -0.658832 -1.90425 0
M  V30 32833 O 3032.26 -0.169272 -2.51932 0
M  V30 32834 C 3033.57 -2.90226 -0.786712 0
M  V30 32835 C 3035.12 -3.00312 -0.882148 0
M  V30 32836 C 3035.59 -4.45549 -1.06066 0
M  V30 32837 N 3037.08 -4.49288 -1.1267 0
M  V30 32838 C 3037.82 -5.58856 -1.28325 0
M  V30 32839 N 3037.31 -6.78335 -1.40833 0
M  V30 32840 N 3039.11 -5.46558 -1.31268 0
M  V30 32841 H 3031.26 -2.05516 0.53637 0
M  V30 32842 H 3033.52 -0.931066 0.178379 0
M  V30 32843 H 3033.23 -3.51628 0.0713636 0
M  V30 32844 H 3033.1 -3.3804 -1.67358 0
M  V30 32845 H 3035.49 -2.3902 -1.73071 0
M  V30 32846 H 3035.57 -2.55784 0.0288854 0
M  V30 32847 H 3035.21 -5.07437 -0.216846 0
M  V30 32848 H 3035.14 -4.87714 -1.98603 0
M  V30 32849 H 3037.63 -3.63213 -1.04329 0
M  V30 32850 H 3037.95 -7.57593 -1.52553 0
M  V30 32851 H 3036.29 -6.81187 -1.37876 0
M  V30 32852 H 3039.48 -4.52161 -1.21112 0
M  V30 32853 H 3039.66 -6.31996 -1.43124 0
M  V30 32854 N 3033.06 0.557619 -1.47405 0
M  V30 32855 C 3034.29 1.34505 -1.57871 0
M  V30 32856 C 3034.71 1.86699 -0.229184 0
M  V30 32857 O 3034.07 1.62946 0.79488 0
M  V30 32858 C 3034.12 2.49117 -2.60716 0
M  V30 32859 O 3033.22 3.51334 -2.15959 0
M  V30 32860 H 3032.56 0.399541 -0.530342 0
M  V30 32861 H 3035.09 0.67392 -1.93183 0
M  V30 32862 H 3035.1 2.95692 -2.81123 0
M  V30 32863 H 3033.78 2.10485 -3.58704 0
M  V30 32864 H 3032.35 3.11067 -2.05649 0
M  V30 32865 N 3034.54 1.35531 0.804316 0
M  V30 32866 C 3035.77 1.31859 1.5905 0
M  V30 32867 C 3036.18 -0.105516 1.88906 0
M  V30 32868 O 3035.52 -1.06856 1.49424 0
M  V30 32869 C 3035.58 2.06005 2.94622 0
M  V30 32870 C 3035.25 3.5518 2.8757 0
M  V30 32871 C 3036.24 4.49727 2.60848 0
M  V30 32872 C 3033.93 3.97859 3.06616 0
M  V30 32873 C 3035.92 5.84929 2.53252 0
M  V30 32874 C 3033.61 5.33157 2.98642 0
M  V30 32875 C 3034.61 6.26504 2.71996 0
M  V30 32876 O 3034.3 7.59318 2.6399 0
M  V30 32877 H 3034.03 0.45442 0.500478 0
M  V30 32878 H 3036.58 1.79001 1.00736 0
M  V30 32879 H 3034.81 1.53504 3.54927 0
M  V30 32880 H 3036.5 1.95383 3.55782 0
M  V30 32881 H 3037.27 4.1807 2.45851 0
M  V30 32882 H 3033.15 3.25586 3.26366 0
M  V30 32883 H 3036.69 6.5776 2.32374 0
M  V30 32884 H 3032.59 5.64426 3.13198 0
M  V30 32885 H 3033.35 7.6927 2.79581 0
M  V30 32886 N 3036.02 -1.02674 1.19565 0
M  V30 32887 C 3036.97 -2.09352 0.903092 0
M  V30 32888 C 3037.95 -1.6035 -0.13298 0
M  V30 32889 O 3039.14 -1.76849 0.0730055 0
M  V30 32890 C 3036.27 -3.40392 0.445911 0
M  V30 32891 C 3035.36 -3.96123 1.51484 0
M  V30 32892 N 3035.75 -4.2549 2.73481 0
M  V30 32893 C 3034.05 -4.24158 1.37863 0
M  V30 32894 C 3034.75 -4.70284 3.42357 0
M  V30 32895 N 3033.72 -4.71947 2.69754 0
M  V30 32896 H 3037.53 -2.29953 1.83027 0
M  V30 32897 H 3035.04 -1.20554 1.08814 0
M  V30 32898 H 3037.04 -4.16331 0.217763 0
M  V30 32899 H 3035.7 -3.2121 -0.474764 0
M  V30 32900 H 3036.71 -4.14706 3.10225 0
M  V30 32901 H 3033.39 -4.14229 0.521585 0
M  V30 32902 H 3034.78 -5.0191 4.46695 0
M  V30 32903 N 3037.5 -0.999914 -1.21817 0
M  V30 32904 C 3038.72 -0.698128 -1.95297 0
M  V30 32905 C 3039.15 0.731952 -1.73275 0
M  V30 32906 O 3038.5 1.50132 -1.01637 0
M  V30 32907 C 3038.55 -1.0184 -3.4592 0
M  V30 32908 O 3037.66 -0.120874 -4.12223 0
M  V30 32909 H 3037 -0.260599 -0.610724 0
M  V30 32910 H 3039.53 -1.33879 -1.54718 0
M  V30 32911 H 3039.54 -0.963144 -3.96469 0
M  V30 32912 H 3038.21 -2.06044 -3.61274 0
M  V30 32913 H 3036.79 -0.232219 -3.72176 0
M  V30 32914 N 3038.97 1.37284 -0.773999 0
M  V30 32915 C 3040.2 2.04432 -0.349597 0
M  V30 32916 C 3040.62 1.57992 1.02079 0
M  V30 32917 O 3039.98 0.741201 1.65457 0
M  V30 32918 C 3040.03 3.58326 -0.404355 0
M  V30 32919 O 3039.13 4.08094 0.594375 0
M  V30 32920 H 3038.47 0.64661 -0.15097 0
M  V30 32921 H 3041 1.75553 -1.05082 0
M  V30 32922 H 3041.01 4.07155 -0.26245 0
M  V30 32923 H 3039.69 3.91482 -1.4041 0
M  V30 32924 H 3038.27 3.70579 0.415403 0
M  V30 32925 N 3040.45 0.524724 1.48608 0
M  V30 32926 C 3041.38 -0.229796 2.32366 0
M  V30 32927 C 3042.36 -0.940104 1.41761 0
M  V30 32928 O 3043.55 -0.926906 1.70652 0
M  V30 32929 C 3040.68 -1.28038 3.22837 0
M  V30 32930 C 3039.63 -0.688529 4.22425 0
M  V30 32931 C 3038.96 -1.84137 5.01994 0
M  V30 32932 C 3040.26 0.336268 5.21216 0
M  V30 32933 H 3041.95 0.469391 2.95698 0
M  V30 32934 H 3039.5 0.227181 1.42197 0
M  V30 32935 H 3041.45 -1.81613 3.80256 0
M  V30 32936 H 3040.17 -2.00907 2.57495 0
M  V30 32937 H 3038.83 -0.174338 3.66185 0
M  V30 32938 H 3038.48 -2.55832 4.33081 0
M  V30 32939 H 3038.18 -1.45132 5.69395 0
M  V30 32940 H 3039.71 -2.38101 5.62263 0
M  V30 32941 H 3041.12 -0.112206 5.7319 0
M  V30 32942 H 3039.52 0.643429 5.96641 0
M  V30 32943 H 3040.59 1.2439 4.68674 0
M  V30 32944 N 3041.93 -1.55447 0.259613 0
M  V30 32945 C 3043.35 -1.59317 -0.094933 0
M  V30 32946 C 3043.55 -1.27683 -1.55882 0
M  V30 32947 O 3042.6 -1.03024 -2.30526 0
M  V30 32948 C 3043.91 -2.99524 0.265721 0
M  V30 32949 C 3045.46 -3.12288 0.211062 0
M  V30 32950 C 3045.94 -4.54735 0.545931 0
M  V30 32951 N 3047.43 -4.60527 0.496903 0
M  V30 32952 C 3048.16 -5.68747 0.729009 0
M  V30 32953 N 3047.66 -6.85177 1.02491 0
M  V30 32954 N 3049.45 -5.58225 0.658854 0
M  V30 32955 H 3041.6 -1.74278 1.21413 0
M  V30 32956 H 3043.87 -0.811895 0.489418 0
M  V30 32957 H 3043.57 -3.27455 1.28321 0
M  V30 32958 H 3043.45 -3.75062 -0.401023 0
M  V30 32959 H 3045.83 -2.8413 -0.797122 0
M  V30 32960 H 3045.91 -2.38996 0.911841 0
M  V30 32961 H 3045.56 -4.83615 1.55173 0
M  V30 32962 H 3045.49 -5.26304 -0.176467 0
M  V30 32963 H 3047.98 -3.7688 0.277443 0
M  V30 32964 H 3048.29 -7.63597 1.1891 0
M  V30 32965 H 3046.64 -6.8683 1.06252 0
M  V30 32966 H 3049.83 -4.66143 0.427635 0
M  V30 32967 H 3050 -6.42491 0.843133 0
M  V30 32968 N 3043.41 0.0133338 -1.57594 0
M  V30 32969 C 3044.34 1.0082 -2.10613 0
M  V30 32970 C 3045.32 1.36707 -1.01219 0
M  V30 32971 O 3046.5 1.45315 -1.2883 0
M  V30 32972 C 3043.63 2.30427 -2.59848 0
M  V30 32973 C 3042.59 2.08738 -3.73647 0
M  V30 32974 C 3041.91 3.44243 -4.09147 0
M  V30 32975 C 3043.21 1.46077 -5.01457 0
M  V30 32976 H 3044.91 0.566798 -2.93986 0
M  V30 32977 H 3042.45 0.271194 -1.41423 0
M  V30 32978 H 3044.41 3.00367 -2.95563 0
M  V30 32979 H 3043.13 2.76655 -1.73578 0
M  V30 32980 H 3041.79 1.41227 -3.38306 0
M  V30 32981 H 3041.44 3.88149 -3.1992 0
M  V30 32982 H 3041.14 3.30551 -4.85808 0
M  V30 32983 H 3042.66 4.1552 -4.47409 0
M  V30 32984 H 3044.08 2.05956 -5.35028 0
M  V30 32985 H 3042.47 1.42914 -5.82834 0
M  V30 32986 H 3043.54 0.428386 -4.83004 0
M  V30 32987 N 3044.89 1.54985 0.285878 0
M  V30 32988 C 3046.11 1.79322 1.04204 0
M  V30 32989 C 3046.54 0.558374 1.79621 0
M  V30 32990 O 3045.89 -0.491631 1.74507 0
M  V30 32991 C 3045.94 3.00954 1.98643 0
M  V30 32992 O 3045.05 2.75137 3.07202 0
M  V30 32993 H 3044.39 0.593079 0.298586 0
M  V30 32994 H 3046.92 2.02103 0.3187 0
M  V30 32995 H 3046.93 3.29337 2.40834 0
M  V30 32996 H 3045.6 3.90484 1.4316 0
M  V30 32997 H 3044.18 2.57814 2.69418 0
M  V30 32998 N 3046.36 -0.549794 1.47699 0
M  V30 32999 C 3047.33 -1.63834 1.60285 0
M  V30 33000 C 3048.33 -1.53549 0.477421 0
M  V30 33001 O 3049.52 -1.57574 0.742693 0
M  V30 33002 C 3046.65 -3.03401 1.55436 0
M  V30 33003 H 3047.84 -1.54022 2.57327 0
M  V30 33004 H 3045.4 -0.770305 1.36 0
M  V30 33005 H 3046.13 -3.18739 0.597968 0
M  V30 33006 H 3045.92 -3.12275 2.37121 0
M  V30 33007 H 3047.41 -3.82581 1.67396 0
M  V30 33008 N 3047.84 -1.35955 -0.797117 0
M  V30 33009 C 3048.79 -1.26187 -1.89897 0
M  V30 33010 C 3049.78 -0.155035 -1.60151 0
M  V30 33011 O 3050.97 -0.387138 -1.72714 0
M  V30 33012 C 3048.1 -1.04565 -3.26988 0
M  V30 33013 C 3047.18 -2.19681 -3.62768 0
M  V30 33014 N 3047.57 -3.4496 -3.69914 0
M  V30 33015 C 3045.87 -2.11277 -3.92782 0
M  V30 33016 C 3046.57 -4.20718 -4.01711 0
M  V30 33017 N 3045.55 -3.49575 -4.16291 0
M  V30 33018 H 3049.35 -2.21093 -1.93637 0
M  V30 33019 H 3046.87 -1.28564 -0.992223 0
M  V30 33020 H 3048.86 -0.956545 -4.05778 0
M  V30 33021 H 3047.52 -0.105524 -3.24528 0
M  V30 33022 H 3048.53 -3.79192 -3.52752 0
M  V30 33023 H 3045.21 -1.25175 -3.98293 0
M  V30 33024 H 3046.6 -5.29023 -4.14227 0
M  V30 33025 N 3049.32 1.02038 -1.20108 0
M  V30 33026 C 3050.74 1.27866 -0.955121 0
M  V30 33027 C 3050.94 1.98119 0.36756 0
M  V30 33028 O 3049.99 2.27424 1.09701 0
M  V30 33029 C 3051.31 2.1174 -2.1351 0
M  V30 33030 C 3052.85 2.25019 -2.17567 0
M  V30 33031 C 3053.33 3.12269 -3.3504 0
M  V30 33032 N 3054.82 3.19858 -3.3503 0
M  V30 33033 C 3055.55 3.87582 -4.22573 0
M  V30 33034 N 3055.05 4.57465 -5.20286 0
M  V30 33035 N 3056.84 3.84068 -4.10425 0
M  V30 33036 H 3048.99 0.548574 -2.05194 0
M  V30 33037 H 3051.26 0.304712 -0.897694 0
M  V30 33038 H 3050.96 1.67451 -3.09278 0
M  V30 33039 H 3050.84 3.1247 -2.11287 0
M  V30 33040 H 3053.22 2.68535 -1.22364 0
M  V30 33041 H 3053.31 1.23811 -2.23841 0
M  V30 33042 H 3052.95 2.6946 -4.30527 0
M  V30 33043 H 3052.88 4.13557 -3.26004 0
M  V30 33044 H 3055.37 2.70096 -2.64304 0
M  V30 33045 H 3055.68 5.06798 -5.83417 0
M  V30 33046 H 3054.03 4.56302 -5.24227 0
M  V30 33047 H 3057.22 3.28617 -3.33359 0
M  V30 33048 H 3057.39 4.36573 -4.78862 0
M  V30 33049 N 3050.8 1.00636 1.21285 0
M  V30 33050 C 3051.73 0.588128 2.25972 0
M  V30 33051 C 3052.71 -0.391735 1.65528 0
M  V30 33052 O 3053.89 -0.279418 1.92179 0
M  V30 33053 C 3051.02 -0.0846726 3.47197 0
M  V30 33054 C 3049.98 0.815113 4.20167 0
M  V30 33055 C 3049.3 0.00864792 5.34699 0
M  V30 33056 C 3050.6 2.11836 4.77412 0
M  V30 33057 H 3052.3 1.46322 2.61209 0
M  V30 33058 H 3049.84 0.705007 1.25561 0
M  V30 33059 H 3051.8 -0.388747 4.19603 0
M  V30 33060 H 3050.52 -0.994401 3.11094 0
M  V30 33061 H 3049.18 1.10303 3.49612 0
M  V30 33062 H 3048.83 -0.902412 4.94839 0
M  V30 33063 H 3048.53 0.607767 5.84448 0
M  V30 33064 H 3050.05 -0.28921 6.09915 0
M  V30 33065 H 3051.47 1.87735 5.41691 0
M  V30 33066 H 3049.86 2.66745 5.37557 0
M  V30 33067 H 3050.93 2.78823 3.96719 0
M  V30 33068 N 3052.28 -1.36872 0.781268 0
M  V30 33069 C 3053.22 -2.32036 0.16193 0
M  V30 33070 C 3054.22 -1.55406 -0.674197 0
M  V30 33071 O 3055.42 -1.7073 -0.570193 0
M  V30 33072 H 3051.8 -0.75125 0.0335834 0
M  V30 33073 H 3053.77 -2.81844 0.980128 0
M  V30 33074 C 3052.52 -3.40677 -0.695292 0
M  V30 33075 H 3051.84 -3.99753 -0.0612723 0
M  V30 33076 H 3053.28 -4.09604 -1.09546 0
M  V30 33077 C 3051.74 -2.81559 -1.85003 0
M  V30 33078 O 3052.27 -2.7307 -2.94611 0
M  V30 33079 N 3050.48 -2.38965 -1.6536 0
M  V30 33080 H 3050.02 -2.4607 -0.762063 0
M  V30 33081 H 3049.98 -1.99756 -2.42786 0
M  V30 33082 N 3053.75 -0.532597 -1.48328 0
M  V30 33083 C 3054.98 -0.00151401 -2.074 0
M  V30 33084 C 3055.4 1.27149 -1.38618 0
M  V30 33085 O 3054.76 1.7555 -0.45298 0
M  V30 33086 C 3054.81 0.202803 -3.60029 0
M  V30 33087 O 3053.91 1.2709 -3.92329 0
M  V30 33088 H 3053.26 -0.0402999 -0.662776 0
M  V30 33089 H 3055.79 -0.741257 -1.907 0
M  V30 33090 H 3055.8 0.424651 -4.05784 0
M  V30 33091 H 3054.47 -0.727105 -4.09495 0
M  V30 33092 H 3053.05 1.0315 -3.5835 0
M  V30 33093 N 3055.23 1.55307 -0.267853 0
M  V30 33094 C 3056.51 1.91416 0.402416 0
M  V30 33095 C 3056.89 1.19123 1.74278 0
M  V30 33096 O 3056.24 0.315649 2.26309 0
M  V30 33097 C 3056.45 3.44641 0.549865 0
M  V30 33098 C 3057.8 4.16286 0.836115 0
M  V30 33099 O 3058.82 3.50495 0.634948 0
M  V30 33100 O 3057.68 5.32699 1.22041 0
M  V30 33101 H 3054.77 0.797431 0.219163 0
M  V30 33102 H 3057.32 1.6678 -0.313469 0
M  V30 33103 H 3056.09 3.89314 -0.39371 0
M  V30 33104 H 3055.71 3.75207 1.3155 0
M  V30 33105 N 3056.71 -0.00497598 1.57599 0
M  V30 33106 C 3057.94 -0.705629 1.95027 0
M  V30 33107 C 3058.36 -1.66788 0.869673 0
M  V30 33108 O 3057.72 -1.80476 -0.172628 0
M  V30 33109 C 3057.77 -1.41804 3.31548 0
M  V30 33110 O 3056.87 -2.53226 3.255 0
M  V30 33111 H 3056.21 -0.188063 0.636811 0
M  V30 33112 H 3058.74 0.046732 2.04547 0
M  V30 33113 H 3058.75 -1.78258 3.66999 0
M  V30 33114 H 3057.43 -0.712471 4.09752 0
M  V30 33115 H 3056 -2.19136 3.01718 0
M  V30 33116 N 3058.19 -1.55135 -0.277654 0
M  V30 33117 C 3059.44 -1.75175 -1.00788 0
M  V30 33118 C 3059.76 -0.553299 -1.86986 0
M  V30 33119 O 3059.03 0.431917 -1.91079 0
M  V30 33120 H 3057.61 -0.645984 -0.375118 0
M  V30 33121 H 3060.27 -1.9253 -0.303007 0
M  V30 33122 H 3059.37 -2.65073 -1.64751 0
M  V30 33123 N 3059.67 0.541953 -1.47989 0
M  V30 33124 C 3060.62 1.64356 -1.58022 0
M  V30 33125 C 3061.6 1.54821 -0.438083 0
M  V30 33126 O 3062.79 1.63045 -0.688866 0
M  V30 33127 C 3059.92 3.03106 -1.61188 0
M  V30 33128 C 3059.01 3.17789 -2.80839 0
M  V30 33129 N 3059.4 3.02485 -4.05384 0
M  V30 33130 C 3057.7 3.48821 -2.77921 0
M  V30 33131 C 3058.4 3.20266 -4.85597 0
M  V30 33132 N 3057.37 3.47296 -4.18194 0
M  V30 33133 H 3061.18 1.51116 -2.52074 0
M  V30 33134 H 3058.69 0.747111 -1.44194 0
M  V30 33135 H 3060.69 3.82223 -1.66468 0
M  V30 33136 H 3059.35 3.17448 -0.682431 0
M  V30 33137 H 3060.36 2.79495 -4.36008 0
M  V30 33138 H 3057.03 3.69594 -1.94181 0
M  V30 33139 H 3058.42 3.13272 -5.94399 0
M  V30 33140 N 3061.15 1.36376 0.789896 0
M  V30 33141 C 3062.09 1.30664 1.90252 0
M  V30 33142 C 3063.06 0.175419 1.65171 0
M  V30 33143 O 3064.25 0.361856 1.87337 0
M  V30 33144 C 3061.39 1.10131 3.27055 0
M  V30 33145 C 3060.5 2.32323 3.64211 0
M  V30 33146 C 3059.64 2.04806 4.9013 0
M  V30 33147 C 3058.67 3.22962 5.19963 0
M  V30 33148 N 3057.81 2.95113 6.37066 0
M  V30 33149 H 3062.65 2.258 1.9447 0
M  V30 33150 H 3060.19 1.12225 0.951002 0
M  V30 33151 H 3062.15 0.962525 4.05945 0
M  V30 33152 H 3060.78 0.1865 3.22261 0
M  V30 33153 H 3059.83 2.57007 2.80449 0
M  V30 33154 H 3061.14 3.20499 3.82207 0
M  V30 33155 H 3060.29 1.87855 5.76884 0
M  V30 33156 H 3059.03 1.13941 4.74203 0
M  V30 33157 H 3058.04 3.40473 4.31693 0
M  V30 33158 H 3059.26 4.14653 5.3781 0
M  V30 33159 H 3057.21 2.06859 6.22532 0
M  V30 33160 H 3057.13 3.76827 6.55391 0
M  V30 33161 H 3058.39 2.8174 7.26803 0
M  V30 33162 N 3062.62 -1.014 1.20647 0
M  V30 33163 C 3063.85 -1.7917 1.04465 0
M  V30 33164 C 3064.27 -1.83764 -0.401556 0
M  V30 33165 O 3063.63 -1.27461 -1.28932 0
M  V30 33166 C 3063.68 -3.21358 1.63589 0
M  V30 33167 O 3062.78 -4.03005 0.875268 0
M  V30 33168 H 3062.12 -0.552532 0.368245 0
M  V30 33169 H 3064.65 -1.27523 1.59997 0
M  V30 33170 H 3064.66 -3.72062 1.67433 0
M  V30 33171 H 3063.34 -3.17329 2.6884 0
M  V30 33172 H 3061.92 -3.61595 0.911235 0
M  V30 33173 N 3064.1 -1.01278 -1.2075 0
M  V30 33174 C 3065.38 -0.615145 -1.85675 0
M  V30 33175 C 3065.76 0.906942 -1.90625 0
M  V30 33176 O 3065.11 1.79709 -1.41127 0
M  V30 33177 C 3065.32 -1.25852 -3.25518 0
M  V30 33178 C 3066.66 -1.37155 -4.01838 0
M  V30 33179 O 3067.69 -1.21444 -3.34858 0
M  V30 33180 O 3066.55 -1.62504 -5.2178 0
M  V30 33181 H 3063.64 -0.211743 -0.799434 0
M  V30 33182 H 3066.19 -1.10992 -1.2837 0
M  V30 33183 H 3064.96 -2.29874 -3.1666 0
M  V30 33184 H 3064.58 -0.750593 -3.90451 0
M  V30 33185 N 3065.58 1.36456 -0.788516 0
M  V30 33186 C 3066.81 2.03521 -0.372401 0
M  V30 33187 C 3067.22 1.59456 1.0109 0
M  V30 33188 O 3066.58 0.783564 1.64823 0
M  V30 33189 C 3066.63 3.58987 -0.425498 0
M  V30 33190 O 3066.35 4.01445 -1.75425 0
M  V30 33191 C 3067.85 4.433 0.000102246 0
M  V30 33192 H 3065.07 0.65318 -0.153611 0
M  V30 33193 H 3067.62 1.74451 -1.06711 0
M  V30 33194 H 3065.77 3.8677 0.220788 0
M  V30 33195 H 3066.19 4.96033 -1.70445 0
M  V30 33196 H 3067.66 5.5193 -0.0881889 0
M  V30 33197 H 3068.14 4.264 1.05262 0
M  V30 33198 H 3068.74 4.20777 -0.618637 0
M  V30 33199 N 3067.06 0.540456 1.48043 0
M  V30 33200 C 3068.01 -0.236617 2.26769 0
M  V30 33201 C 3068.99 -0.900481 1.33342 0
M  V30 33202 O 3070.18 -0.801556 1.5781 0
M  V30 33203 C 3067.31 -1.27645 3.18687 0
M  V30 33204 C 3066.4 -0.616849 4.1959 0
M  V30 33205 N 3066.79 0.303466 5.04889 0
M  V30 33206 C 3065.09 -0.872802 4.37376 0
M  V30 33207 C 3065.79 0.685006 5.77653 0
M  V30 33208 N 3064.76 0.0436683 5.43582 0
M  V30 33209 H 3068.57 0.471234 2.90098 0
M  V30 33210 H 3066.08 0.359211 1.58378 0
M  V30 33211 H 3068.08 -1.84696 3.73755 0
M  V30 33212 H 3066.74 -1.98557 2.56915 0
M  V30 33213 H 3067.75 0.676681 5.1346 0
M  V30 33214 H 3064.43 -1.5717 3.86787 0
M  V30 33215 H 3065.82 1.44026 6.56282 0
M  V30 33216 N 3068.54 -1.55163 0.276085 0
M  V30 33217 C 3069.95 -1.59409 -0.0780299 0
M  V30 33218 C 3070.15 -1.29329 -1.54519 0
M  V30 33219 O 3069.21 -1.05463 -2.29421 0
M  V30 33220 C 3070.52 -2.99225 0.297475 0
M  V30 33221 C 3072.07 -3.12046 0.244172 0
M  V30 33222 C 3072.54 -4.5413 0.594131 0
M  V30 33223 N 3074.03 -4.59974 0.545721 0
M  V30 33224 C 3074.77 -5.67942 0.789292 0
M  V30 33225 N 3074.27 -6.84051 1.09753 0
M  V30 33226 N 3076.06 -5.57495 0.718024 0
M  V30 33227 H 3068.21 -1.7298 1.23254 0
M  V30 33228 H 3070.47 -0.806658 0.498002 0
M  V30 33229 H 3070.18 -3.26075 1.31787 0
M  V30 33230 H 3070.05 -3.75466 -0.36122 0
M  V30 33231 H 3072.44 -2.8496 -0.766941 0
M  V30 33232 H 3072.52 -2.38015 0.937138 0
M  V30 33233 H 3072.16 -4.81942 1.60294 0
M  V30 33234 H 3072.09 -5.26462 -0.120636 0
M  V30 33235 H 3074.59 -3.76565 0.3174 0
M  V30 33236 H 3074.9 -7.62293 1.27002 0
M  V30 33237 H 3073.24 -6.85664 1.13531 0
M  V30 33238 H 3076.43 -4.65663 0.477052 0
M  V30 33239 H 3076.61 -6.41561 0.91123 0
M  V30 33240 N 3070.01 -0.00338196 -1.576 0
M  V30 33241 C 3071.24 0.695276 -1.95399 0
M  V30 33242 C 3071.66 1.66325 -0.878505 0
M  V30 33243 O 3071.02 1.80565 0.163054 0
M  V30 33244 C 3071.07 1.40044 -3.32295 0
M  V30 33245 O 3070.17 2.51497 -3.26838 0
M  V30 33246 H 3069.51 0.184683 -0.637799 0
M  V30 33247 H 3072.04 -0.0575789 -2.04519 0
M  V30 33248 H 3072.05 1.76309 -3.67939 0
M  V30 33249 H 3070.73 0.690731 -4.10124 0
M  V30 33250 H 3069.31 2.17533 -3.02876 0
M  V30 33251 N 3071.49 1.5528 0.269423 0
M  V30 33252 C 3072.74 1.75707 0.998573 0
M  V30 33253 C 3073.06 0.563207 1.8669 0
M  V30 33254 O 3072.33 -0.421777 1.91306 0
M  V30 33255 H 3070.91 0.647965 0.371686 0
M  V30 33256 H 3073.57 1.92688 0.292792 0
M  V30 33257 H 3072.67 2.65943 1.63343 0
M  V30 33258 N 3072.97 -0.534097 1.48274 0
M  V30 33259 C 3074.22 -1.2876 1.55773 0
M  V30 33260 C 3074.54 -1.9362 0.231609 0
M  V30 33261 O 3073.81 -1.81119 -0.746501 0
M  V30 33262 H 3072.39 -0.47822 0.57386 0
M  V30 33263 H 3075.05 -0.621855 1.84713 0
M  V30 33264 H 3074.15 -2.06904 2.3366 0
M  V30 33265 N 3074.45 -1.36793 -0.782652 0
M  V30 33266 C 3075.86 -1.17354 -1.08167 0
M  V30 33267 C 3076.06 -0.00223911 -2.015 0
M  V30 33268 O 3075.12 0.66105 -2.43693 0
M  V30 33269 C 3076.43 -2.4874 -1.68964 0
M  V30 33270 C 3077.98 -2.55164 -1.81274 0
M  V30 33271 C 3078.46 -3.86653 -2.45485 0
M  V30 33272 N 3079.95 -3.88036 -2.52947 0
M  V30 33273 C 3080.68 -4.8652 -3.03457 0
M  V30 33274 N 3080.18 -5.95398 -3.54222 0
M  V30 33275 N 3081.97 -4.73933 -3.02231 0
M  V30 33276 H 3074.12 -2.11776 -0.16272 0
M  V30 33277 H 3076.38 -0.938366 -0.134807 0
M  V30 33278 H 3076.09 -3.34754 -1.07853 0
M  V30 33279 H 3075.96 -2.65039 -2.68392 0
M  V30 33280 H 3078.35 -1.69563 -2.41521 0
M  V30 33281 H 3078.43 -2.42759 -0.806325 0
M  V30 33282 H 3078.08 -4.72663 -1.85881 0
M  V30 33283 H 3078.01 -3.96357 -3.46711 0
M  V30 33284 H 3080.5 -3.0938 -2.17008 0
M  V30 33285 H 3080.81 -6.66509 -3.91133 0
M  V30 33286 H 3079.16 -5.99058 -3.52356 0
M  V30 33287 H 3082.35 -3.88001 -2.61864 0
M  V30 33288 H 3082.52 -5.50843 -3.41286 0
M  V30 33289 N 3075.93 1.00759 -1.21184 0
M  V30 33290 C 3076.84 2.12933 -0.984729 0
M  V30 33291 C 3077.85 1.73888 0.0623351 0
M  V30 33292 O 3079.03 2.00998 -0.127135 0
M  V30 33293 C 3076.09 3.42318 -0.549507 0
M  V30 33294 C 3075.15 3.95551 -1.66848 0
M  V30 33295 C 3074.39 5.1876 -1.25393 0
M  V30 33296 O 3074.61 5.7026 -0.126433 0
M  V30 33297 O 3073.54 5.65374 -2.06485 0
M  V30 33298 H 3077.37 2.34967 -1.92417 0
M  V30 33299 H 3074.96 1.11312 -0.99649 0
M  V30 33300 H 3076.84 4.2021 -0.316458 0
M  V30 33301 H 3075.51 3.21678 0.361248 0
M  V30 33302 H 3074.42 3.18897 -1.95591 0
M  V30 33303 H 3075.75 4.20595 -2.55657 0
M  V30 33304 N 3077.4 1.01917 1.20211 0
M  V30 33305 C 3078.82 0.734484 1.41695 0
M  V30 33306 C 3079.02 -0.684833 1.89505 0
M  V30 33307 O 3078.08 -1.45223 2.06559 0
M  V30 33308 C 3079.39 1.76237 2.43641 0
M  V30 33309 C 3080.94 1.7808 2.57403 0
M  V30 33310 C 3081.41 2.79802 3.62595 0
M  V30 33311 N 3082.9 2.78558 3.70081 0
M  V30 33312 C 3083.64 3.53923 4.51139 0
M  V30 33313 N 3083.13 4.38972 5.35981 0
M  V30 33314 N 3084.93 3.42508 4.45696 0
M  V30 33315 H 3077.08 1.93542 0.874942 0
M  V30 33316 H 3079.34 0.836196 0.446632 0
M  V30 33317 H 3079.05 2.77932 2.15514 0
M  V30 33318 H 3078.92 1.57663 3.42669 0
M  V30 33319 H 3081.31 0.770684 2.84859 0
M  V30 33320 H 3081.39 2.00728 1.58562 0
M  V30 33321 H 3081.03 3.80979 3.35883 0
M  V30 33322 H 3080.96 2.54415 4.61064 0
M  V30 33323 H 3083.45 2.16866 3.0948 0
M  V30 33324 H 3083.77 4.9324 5.94923 0
M  V30 33325 H 3082.11 4.43049 5.35474 0
M  V30 33326 H 3085.3 2.75485 3.78452 0
M  V30 33327 H 3085.48 4.01496 5.0863 0
M  V30 33328 N 3078.88 -1.36036 0.795742 0
M  V30 33329 C 3080.13 -1.98678 0.370326 0
M  V30 33330 C 3080.45 -1.6346 -1.06329 0
M  V30 33331 O 3079.72 -0.911701 -1.73392 0
M  V30 33332 H 3078.3 -0.734894 0.133941 0
M  V30 33333 H 3080.96 -1.66128 1.01918 0
M  V30 33334 H 3080.06 -3.08582 0.467261 0
M  V30 33335 N 3080.36 -0.5483 -1.47755 0
M  V30 33336 C 3081.78 -0.207429 -1.58246 0
M  V30 33337 C 3081.98 1.28986 -1.54806 0
M  V30 33338 O 3081.03 2.06942 -1.44677 0
M  V30 33339 C 3082.35 -0.826193 -2.89127 0
M  V30 33340 C 3083.89 -0.796603 -3.02693 0
M  V30 33341 C 3084.37 -1.39427 -4.36261 0
M  V30 33342 N 3085.86 -1.35706 -4.42875 0
M  V30 33343 C 3086.59 -1.78922 -5.4477 0
M  V30 33344 N 3086.09 -2.29953 -6.53524 0
M  V30 33345 N 3087.88 -1.70047 -5.35762 0
M  V30 33346 H 3080.03 -1.5212 -1.48234 0
M  V30 33347 H 3082.3 -0.633841 -0.704946 0
M  V30 33348 H 3082 -1.87811 -2.97355 0
M  V30 33349 H 3081.88 -0.313982 -3.75891 0
M  V30 33350 H 3084.26 0.246603 -2.94068 0
M  V30 33351 H 3084.35 -1.34648 -2.17494 0
M  V30 33352 H 3083.99 -2.4365 -4.45642 0
M  V30 33353 H 3083.92 -0.819919 -5.20178 0
M  V30 33354 H 3086.41 -0.983687 -3.64873 0
M  V30 33355 H 3086.72 -2.60876 -7.27436 0
M  V30 33356 H 3085.07 -2.33958 -6.54438 0
M  V30 33357 H 3088.26 -1.29963 -4.49697 0
M  V30 33358 H 3088.43 -2.04046 -6.15036 0
M  V30 33359 N 3081.84 1.55014 -0.28431 0
M  V30 33360 C 3083.06 2.04664 0.335763 0
M  V30 33361 C 3083.49 1.16097 1.47997 0
M  V30 33362 O 3082.85 0.161486 1.80579 0
M  V30 33363 C 3082.89 3.5194 0.785553 0
M  V30 33364 O 3082 3.66441 1.89196 0
M  V30 33365 H 3081.34 0.660508 0.0680117 0
M  V30 33366 H 3083.87 2.00216 -0.42129 0
M  V30 33367 H 3083.88 3.93478 1.07885 0
M  V30 33368 H 3082.55 4.15868 -0.0515406 0
M  V30 33369 H 3081.13 3.36807 1.60049 0
M  V30 33370 N 3083.32 0.0117398 1.57596 0
M  V30 33371 C 3084.26 -0.97586 2.09155 0
M  V30 33372 C 3085.23 -1.33402 0.989603 0
M  V30 33373 O 3086.42 -1.43035 1.26275 0
M  V30 33374 C 3083.56 -2.25876 2.6091 0
M  V30 33375 C 3082.67 -1.95859 3.8505 0
M  V30 33376 C 3081.81 -3.18316 4.25263 0
M  V30 33377 C 3080.85 -2.84039 5.42207 0
M  V30 33378 N 3079.98 -3.99068 5.77658 0
M  V30 33379 H 3084.82 -0.529259 2.93262 0
M  V30 33380 H 3082.36 -0.249666 1.44966 0
M  V30 33381 H 3084.32 -3.0089 2.89 0
M  V30 33382 H 3082.95 -2.68184 1.79659 0
M  V30 33383 H 3082 -1.11162 3.63796 0
M  V30 33384 H 3083.31 -1.66602 4.70154 0
M  V30 33385 H 3082.47 -4.01666 4.54697 0
M  V30 33386 H 3081.2 -3.5072 3.3889 0
M  V30 33387 H 3080.21 -1.99098 5.12484 0
M  V30 33388 H 3081.43 -2.5287 6.30265 0
M  V30 33389 H 3079.38 -4.31347 4.94242 0
M  V30 33390 H 3079.3 -3.73376 6.57363 0
M  V30 33391 H 3080.57 -4.83173 6.1169 0
M  V30 33392 N 3084.79 -1.55421 -0.261185 0
M  V30 33393 C 3085.7 -1.92223 -1.3449 0
M  V30 33394 C 3086.72 -0.820887 -1.53419 0
M  V30 33395 O 3087.9 -1.12102 -1.67318 0
M  V30 33396 C 3084.96 -2.19697 -2.68205 0
M  V30 33397 C 3084.02 -3.43184 -2.57921 0
M  V30 33398 C 3083.26 -3.69338 -3.8526 0
M  V30 33399 O 3083.48 -2.97801 -4.86488 0
M  V30 33400 O 3082.41 -4.62871 -3.84752 0
M  V30 33401 H 3086.24 -2.84499 -1.06273 0
M  V30 33402 H 3083.82 -1.42119 -0.460727 0
M  V30 33403 H 3085.71 -2.3874 -3.47248 0
M  V30 33404 H 3084.38 -1.30602 -2.96184 0
M  V30 33405 H 3083.29 -3.29463 -1.77214 0
M  V30 33406 H 3084.62 -4.32536 -2.3489 0
M  V30 33407 N 3086.27 0.526227 -1.48555 0
M  V30 33408 C 3087.69 0.855114 -1.34759 0
M  V30 33409 C 3087.89 1.98232 -0.361455 0
M  V30 33410 O 3086.94 2.51575 0.215981 0
M  V30 33411 C 3088.26 1.2191 -2.74879 0
M  V30 33412 C 3089.81 1.32877 -2.83395 0
M  V30 33413 C 3090.28 1.72616 -4.24226 0
M  V30 33414 N 3091.77 1.79712 -4.26917 0
M  V30 33415 C 3092.51 2.11854 -5.32828 0
M  V30 33416 N 3092 2.42394 -6.49012 0
M  V30 33417 N 3093.8 2.12892 -5.20225 0
M  V30 33418 H 3085.95 -0.21746 -2.11284 0
M  V30 33419 H 3088.21 -0.0346529 -0.947366 0
M  V30 33420 H 3087.92 0.464425 -3.4862 0
M  V30 33421 H 3087.79 2.16839 -3.08643 0
M  V30 33422 H 3090.18 2.0742 -2.09907 0
M  V30 33423 H 3090.26 0.360594 -2.53246 0
M  V30 33424 H 3089.9 0.986323 -4.98231 0
M  V30 33425 H 3089.83 2.7049 -4.51821 0
M  V30 33426 H 3092.32 1.58373 -3.43113 0
M  V30 33427 H 3092.64 2.66035 -7.25565 0
M  V30 33428 H 3090.98 2.39905 -6.52281 0
M  V30 33429 H 3094.17 1.88493 -4.28472 0
M  V30 33430 H 3094.34 2.37609 -6.02865 0
M  V30 33431 N 3087.75 1.37206 0.775387 0
M  V30 33432 C 3088.7 1.32674 1.88855 0
M  V30 33433 C 3089.67 0.192928 1.64976 0
M  V30 33434 O 3090.85 0.381706 1.86943 0
M  V30 33435 C 3087.99 1.13593 3.25869 0
M  V30 33436 C 3087.11 2.36173 3.61727 0
M  V30 33437 C 3086.24 2.09993 4.87931 0
M  V30 33438 C 3085.28 3.28459 5.16509 0
M  V30 33439 N 3084.42 3.01853 6.339 0
M  V30 33440 H 3089.26 2.2785 1.92064 0
M  V30 33441 H 3086.79 1.13227 0.939046 0
M  V30 33442 H 3088.75 1.00553 4.04901 0
M  V30 33443 H 3087.38 0.22067 3.22045 0
M  V30 33444 H 3086.43 2.59967 2.77708 0
M  V30 33445 H 3087.75 3.24535 3.78786 0
M  V30 33446 H 3086.9 1.93963 5.74859 0
M  V30 33447 H 3085.64 1.18964 4.72968 0
M  V30 33448 H 3084.64 3.45032 4.28057 0
M  V30 33449 H 3085.87 4.20334 5.33382 0
M  V30 33450 H 3083.81 2.1345 6.20302 0
M  V30 33451 H 3083.73 3.83757 6.51357 0
M  V30 33452 H 3085 2.89433 7.23774 0
M  V30 33453 N 3089.23 -1.00115 1.21716 0
M  V30 33454 C 3090.18 -2.07389 0.947295 0
M  V30 33455 C 3091.16 -1.60596 -0.098938 0
M  V30 33456 O 3092.35 -1.76655 0.110501 0
M  V30 33457 C 3089.48 -3.39369 0.518013 0
M  V30 33458 C 3088.57 -3.92821 1.59853 0
M  V30 33459 N 3088.96 -4.19593 2.82445 0
M  V30 33460 C 3087.26 -4.21138 1.46829 0
M  V30 33461 C 3087.96 -4.62916 3.52255 0
M  V30 33462 N 3086.94 -4.66119 2.79704 0
M  V30 33463 H 3090.74 -2.26019 1.87864 0
M  V30 33464 H 3088.25 -1.18219 1.11347 0
M  V30 33465 H 3090.25 -4.15775 0.306024 0
M  V30 33466 H 3088.91 -3.22145 -0.406524 0
M  V30 33467 H 3089.92 -4.08032 3.18951 0
M  V30 33468 H 3086.6 -4.1303 0.609331 0
M  V30 33469 H 3087.99 -4.92322 4.57241 0
M  V30 33470 N 3090.71 -1.02553 -1.19669 0
M  V30 33471 C 3091.64 -0.624004 -2.25008 0
M  V30 33472 C 3092.62 0.365351 -1.6613 0
M  V30 33473 O 3093.8 0.248809 -1.926 0
M  V30 33474 C 3090.93 0.0294259 -3.47288 0
M  V30 33475 C 3089.89 -0.881854 -4.18817 0
M  V30 33476 C 3089.21 -0.0937128 -5.34618 0
M  V30 33477 C 3090.51 -2.19405 -4.73982 0
M  V30 33478 H 3092.21 -1.50459 -2.58849 0
M  V30 33479 H 3089.75 -0.724893 -1.24424 0
M  V30 33480 H 3091.71 0.321943 -4.20168 0
M  V30 33481 H 3090.43 0.944783 -3.12636 0
M  V30 33482 H 3089.09 -1.15851 -3.47813 0
M  V30 33483 H 3088.74 0.823574 -4.96212 0
M  V30 33484 H 3088.44 -0.70067 -5.83408 0
M  V30 33485 H 3089.96 0.192142 -6.10298 0
M  V30 33486 H 3091.38 -1.96329 -5.38635 0
M  V30 33487 H 3089.77 -2.75263 -5.33245 0
M  V30 33488 H 3090.84 -2.85099 -3.92233 0
M  V30 33489 N 3092.19 1.35612 -0.802945 0
M  V30 33490 C 3093.12 2.32412 -0.225172 0
M  V30 33491 C 3094.1 1.573 0.647356 0
M  V30 33492 O 3095.28 1.85387 0.578382 0
M  V30 33493 C 3092.41 3.41538 0.630025 0
M  V30 33494 C 3091.37 4.27759 -0.14371 0
M  V30 33495 C 3090.69 5.28172 0.832953 0
M  V30 33496 C 3091.99 5.04801 -1.34063 0
M  V30 33497 H 3093.69 2.80982 -1.0339 0
M  V30 33498 H 3091.23 1.35092 -0.498617 0
M  V30 33499 H 3093.18 4.08256 1.04426 0
M  V30 33500 H 3091.91 2.91567 1.4716 0
M  V30 33501 H 3090.57 3.62615 -0.539079 0
M  V30 33502 H 3090.22 4.74471 1.66993 0
M  V30 33503 H 3089.92 5.8673 0.319594 0
M  V30 33504 H 3091.44 5.97763 1.24547 0
M  V30 33505 H 3092.85 5.64485 -1.00146 0
M  V30 33506 H 3091.25 5.72837 -1.78822 0
M  V30 33507 H 3092.32 4.35655 -2.12914 0
M  V30 33508 N 3093.66 0.556128 1.47462 0
M  V30 33509 C 3094.89 0.0345093 2.07371 0
M  V30 33510 C 3095.31 -1.24927 1.40623 0
M  V30 33511 O 3094.67 -1.74807 0.480851 0
M  V30 33512 C 3094.72 -0.145499 3.60306 0
M  V30 33513 O 3093.82 -1.20832 3.94301 0
M  V30 33514 H 3093.16 0.050839 0.662051 0
M  V30 33515 H 3095.69 0.771502 1.89497 0
M  V30 33516 H 3095.7 -0.360041 4.06408 0
M  V30 33517 H 3094.38 0.79216 4.08286 0
M  V30 33518 H 3092.96 -0.974357 3.59945 0
M  V30 33519 N 3095.14 -1.54861 0.292527 0
M  V30 33520 C 3096.55 -1.85606 -0.201808 0
M  V30 33521 C 3096.9 -1.21451 -1.54091 0
M  V30 33522 O 3096.03 -0.509116 -2.10326 0
M  V30 33523 C 3096.62 -3.36741 -0.372952 0
M  V30 33524 C 3095.18 -3.67548 -0.81151 0
M  V30 33525 C 3094.33 -2.77169 0.085107 0
M  V30 33526 H 3097.28 -1.50153 0.5138 0
M  V30 33527 H 3097.3 -3.60787 -1.20885 0
M  V30 33528 H 3096.81 -3.83405 0.601818 0
M  V30 33529 H 3094.91 -3.26395 -1.79713 0
M  V30 33530 H 3095.03 -4.7485 -0.636769 0
M  V30 33531 H 3093.39 -2.50972 -0.43418 0
M  V30 33532 H 3094.17 -3.26653 1.05608 0
M  V30 33533 N 3096.62 -0.0200973 -1.57587 0
M  V30 33534 C 3097.9 0.698645 -1.82697 0
M  V30 33535 C 3098.28 1.90854 -0.902115 0
M  V30 33536 O 3097.62 2.28457 0.0444432 0
M  V30 33537 C 3097.83 1.0854 -3.31693 0
M  V30 33538 C 3099.18 1.48083 -3.9794 0
M  V30 33539 O 3100.21 1.17863 -3.36135 0
M  V30 33540 O 3099.07 2.04355 -5.06854 0
M  V30 33541 H 3096.16 0.341929 -0.753003 0
M  V30 33542 H 3098.71 -0.0470899 -1.69635 0
M  V30 33543 H 3097.48 0.223887 -3.90659 0
M  V30 33544 H 3097.1 1.88959 -3.49829 0
M  V30 33545 N 3098.1 1.55557 0.252939 0
M  V30 33546 C 3099.34 1.77368 0.983275 0
M  V30 33547 C 3099.68 0.58429 1.85202 0
M  V30 33548 O 3098.95 -0.417611 1.89964 0
M  V30 33549 C 3099.23 3.09011 1.84891 0
M  V30 33550 C 3099.09 4.38343 1.00875 0
M  V30 33551 C 3100.41 3.36836 2.83248 0
M  V30 33552 H 3097.53 0.645292 0.356044 0
M  V30 33553 H 3100.17 1.88292 0.254199 0
M  V30 33554 H 3098.32 2.99829 2.47052 0
M  V30 33555 H 3099.99 4.59507 0.406299 0
M  V30 33556 H 3098.23 4.3267 0.312894 0
M  V30 33557 H 3098.9 5.26822 1.64809 0
M  V30 33558 H 3101.38 3.45942 2.31222 0
M  V30 33559 H 3100.26 4.30175 3.40941 0
M  V30 33560 H 3100.52 2.57453 3.59403 0
M  V30 33561 N 3099.58 -0.518341 1.48832 0
M  V30 33562 C 3100.8 -1.30272 1.61381 0
M  V30 33563 C 3101.23 -1.86025 0.278603 0
M  V30 33564 O 3100.58 -1.64996 -0.751398 0
M  V30 33565 C 3100.63 -2.42117 2.6723 0
M  V30 33566 O 3099.74 -3.45485 2.25198 0
M  V30 33567 H 3099.08 -0.38534 0.540749 0
M  V30 33568 H 3101.61 -0.622464 1.94901 0
M  V30 33569 H 3101.62 -2.88135 2.88864 0
M  V30 33570 H 3100.29 -2.00901 3.64159 0
M  V30 33571 H 3098.87 -3.05505 2.13824 0
M  V30 33572 N 3101.05 -1.37615 -0.7681 0
M  V30 33573 C 3102.47 -1.18495 -1.06917 0
M  V30 33574 C 3102.67 -0.0236107 -2.01486 0
M  V30 33575 O 3101.73 0.635166 -2.44381 0
M  V30 33576 C 3103.04 -2.50518 -1.66317 0
M  V30 33577 C 3104.59 -2.57073 -1.78557 0
M  V30 33578 C 3105.06 -3.89235 -2.41371 0
M  V30 33579 N 3106.55 -3.90697 -2.48817 0
M  V30 33580 C 3107.29 -4.89711 -2.98279 0
M  V30 33581 N 3106.78 -5.99122 -3.47887 0
M  V30 33582 N 3108.58 -4.77112 -2.97187 0
M  V30 33583 H 3100.73 -2.11936 -0.140249 0
M  V30 33584 H 3102.99 -0.939743 -0.124847 0
M  V30 33585 H 3102.7 -3.3588 -1.04297 0
M  V30 33586 H 3102.57 -2.6787 -2.65566 0
M  V30 33587 H 3104.96 -1.72116 -2.39709 0
M  V30 33588 H 3105.04 -2.43601 -0.780531 0
M  V30 33589 H 3104.68 -4.74608 -1.80857 0
M  V30 33590 H 3104.61 -4.00012 -3.42488 0
M  V30 33591 H 3107.1 -3.11664 -2.13715 0
M  V30 33592 H 3107.42 -6.7062 -3.84042 0
M  V30 33593 H 3105.76 -6.02762 -3.45982 0
M  V30 33594 H 3108.95 -3.90757 -2.57734 0
M  V30 33595 H 3109.13 -5.54432 -3.35424 0
M  V30 33596 N 3102.53 0.994677 -1.22245 0
M  V30 33597 C 3103.77 1.74918 -1.0575 0
M  V30 33598 C 3104.14 1.87773 0.400667 0
M  V30 33599 O 3105.34 2.59888 0.686423 0
M  V30 33600 C 3103.61 3.11784 -1.74716 0
M  V30 33601 S 3105.17 4.02995 -1.73611 0
M  V30 33602 H 3101.98 0.601727 -0.378741 0
M  V30 33603 H 3104.59 1.18939 -1.55157 0
M  V30 33604 H 3103.29 3.00068 -2.79977 0
M  V30 33605 H 3102.82 3.72834 -1.25532 0
M  V30 33606 H 3104.84 4.89959 -0.784531 0
M  V30 33607 N 3104.01 1.03186 1.19123 0
M  V30 33608 C 3104.96 0.60882 2.24491 0
M  V30 33609 C 3105.95 -0.360036 1.6553 0
M  V30 33610 O 3107.16 -0.228289 1.78546 0
M  V30 33611 H 3103.53 0.178628 0.730476 0
M  V30 33612 H 3105.5 1.50807 2.57487 0
M  V30 33613 C 3104.25 -0.0214515 3.47693 0
M  V30 33614 H 3103.58 0.715093 3.93353 0
M  V30 33615 H 3105.02 -0.280354 4.23072 0
M  V30 33616 C 3103.47 -1.26891 3.1209 0
M  V30 33617 O 3104 -2.36065 3.25017 0
M  V30 33618 N 3102.21 -1.15881 2.66496 0
M  V30 33619 H 3101.76 -0.270418 2.56177 0
M  V30 33620 H 3101.72 -1.9944 2.43045 0
M  V30 33621 N 3105.49 -1.35184 0.810125 0
M  V30 33622 C 3106.71 -2.03434 0.403676 0
M  V30 33623 C 3107.14 -1.60643 -0.978541 0
M  V30 33624 O 3106.5 -0.784808 -1.63433 0
M  V30 33625 C 3106.54 -3.57128 0.499217 0
M  V30 33626 O 3105.65 -4.09527 -0.485967 0
M  V30 33627 H 3104.99 -0.64238 0.168061 0
M  V30 33628 H 3107.52 -1.72706 1.09699 0
M  V30 33629 H 3107.53 -4.06316 0.370308 0
M  V30 33630 H 3106.2 -3.87621 1.5074 0
M  V30 33631 H 3104.78 -3.7155 -0.317004 0
M  V30 33632 N 3106.97 -0.56394 -1.47165 0
M  V30 33633 C 3107.88 0.182936 -2.33886 0
M  V30 33634 C 3108.89 0.905106 -1.48606 0
M  V30 33635 O 3110.07 0.872495 -1.8152 0
M  V30 33636 C 3107.13 1.19552 -3.25435 0
M  V30 33637 C 3106.19 0.480054 -4.26608 0
M  V30 33638 C 3105.43 1.4444 -5.13783 0
M  V30 33639 O 3105.65 2.6797 -5.03536 0
M  V30 33640 O 3104.58 0.965216 -5.9411 0
M  V30 33641 H 3108.41 -0.528596 -2.99064 0
M  V30 33642 H 3106 -0.324494 -1.45833 0
M  V30 33643 H 3107.88 1.77986 -3.81967 0
M  V30 33644 H 3106.55 1.88886 -2.62876 0
M  V30 33645 H 3105.46 -0.145649 -3.73816 0
M  V30 33646 H 3106.79 -0.171955 -4.919 0
M  V30 33647 N 3108.44 1.54704 -0.300735 0
M  V30 33648 C 3109.35 2.2719 0.584956 0
M  V30 33649 C 3110.37 1.30699 1.14864 0
M  V30 33650 O 3111.55 1.63681 1.17348 0
M  V30 33651 C 3108.61 2.99834 1.74071 0
M  V30 33652 C 3107.67 4.11862 1.21113 0
M  V30 33653 C 3106.91 4.81032 2.3118 0
M  V30 33654 O 3107.13 4.4956 3.51072 0
M  V30 33655 O 3106.06 5.6844 1.97887 0
M  V30 33656 H 3109.89 3.037 -0.00303516 0
M  V30 33657 H 3107.47 1.49249 -0.0672064 0
M  V30 33658 H 3109.36 3.454 2.41407 0
M  V30 33659 H 3108.03 2.26219 2.31531 0
M  V30 33660 H 3106.94 3.70696 0.503505 0
M  V30 33661 H 3108.27 4.87453 0.68196 0
M  V30 33662 N 3109.92 0.0284543 1.57574 0
M  V30 33663 C 3111.34 -0.327931 1.56195 0
M  V30 33664 C 3111.54 -1.72947 1.034 0
M  V30 33665 O 3110.59 -2.43159 0.680435 0
M  V30 33666 C 3111.91 -0.177143 3.00178 0
M  V30 33667 C 3113.46 -0.249959 3.12 0
M  V30 33668 C 3113.93 -0.127968 4.57821 0
M  V30 33669 N 3115.42 -0.184973 4.62831 0
M  V30 33670 C 3116.16 -0.114353 5.73286 0
M  V30 33671 N 3115.65 0.00731402 6.928 0
M  V30 33672 N 3117.45 -0.168292 5.61848 0
M  V30 33673 H 3109.6 0.944955 1.90222 0
M  V30 33674 H 3111.86 0.364847 0.87498 0
M  V30 33675 H 3111.57 0.788284 3.42752 0
M  V30 33676 H 3111.44 -0.947616 3.65103 0
M  V30 33677 H 3113.83 -1.20584 2.69339 0
M  V30 33678 H 3113.91 0.550879 2.49798 0
M  V30 33679 H 3113.55 0.824495 5.01163 0
M  V30 33680 H 3113.48 -0.947662 5.18003 0
M  V30 33681 H 3115.97 -0.279181 3.76867 0
M  V30 33682 H 3116.29 0.0545261 7.72781 0
M  V30 33683 H 3114.63 0.042087 6.94987 0
M  V30 33684 H 3117.82 -0.261739 4.67368 0
M  V30 33685 H 3117.99 -0.109794 6.47907 0
M  V30 33686 N 3111.4 -1.55689 -0.244686 0
M  V30 33687 C 3112.65 -1.77273 -0.970494 0
M  V30 33688 C 3112.97 -0.592837 -1.8577 0
M  V30 33689 O 3112.24 0.391289 -1.91952 0
M  V30 33690 H 3110.82 -0.653796 -0.361331 0
M  V30 33691 H 3113.48 -1.9313 -0.2621 0
M  V30 33692 H 3112.58 -2.68508 -1.59091 0
M  V30 33693 N 3112.88 0.510441 -1.49105 0
M  V30 33694 C 3114.11 1.28941 -1.61808 0
M  V30 33695 C 3114.52 1.86624 -0.285806 0
M  V30 33696 O 3113.88 1.67372 0.727521 0
M  V30 33697 C 3113.93 2.4264 -2.6797 0
M  V30 33698 O 3113.65 1.8733 -3.96029 0
M  V30 33699 C 3115.15 3.34161 -2.91292 0
M  V30 33700 H 3112.37 0.391419 -0.545006 0
M  V30 33701 H 3114.92 0.613771 -1.95072 0
M  V30 33702 H 3113.07 3.06051 -2.37511 0
M  V30 33703 H 3113.48 2.61901 -4.54431 0
M  V30 33704 H 3114.96 4.10243 -3.6933 0
M  V30 33705 H 3115.44 3.90584 -2.00849 0
M  V30 33706 H 3116.04 2.76525 -3.23132 0
M  V30 33707 N 3114.36 1.38021 0.760791 0
M  V30 33708 C 3115.29 1.30553 1.88384 0
M  V30 33709 C 3116.3 0.219147 1.61318 0
M  V30 33710 O 3117.49 0.476152 1.72032 0
M  V30 33711 C 3114.59 0.998348 3.23861 0
M  V30 33712 C 3113.76 2.19239 3.78488 0
M  V30 33713 C 3112.82 1.85377 4.92465 0
M  V30 33714 O 3111.85 2.57794 5.07475 0
M  V30 33715 N 3113.05 0.80442 5.74899 0
M  V30 33716 H 3115.82 2.27325 1.95304 0
M  V30 33717 H 3113.38 1.31788 0.9404 0
M  V30 33718 H 3115.37 0.75247 3.97643 0
M  V30 33719 H 3113.94 0.118825 3.12374 0
M  V30 33720 H 3113.16 2.59936 2.96356 0
M  V30 33721 H 3114.45 2.98943 4.11717 0
M  V30 33722 H 3113.84 0.203727 5.65333 0
M  V30 33723 H 3112.4 0.618415 6.4886 0
M  V30 33724 N 3115.83 -0.98818 1.22771 0
M  V30 33725 C 3116.8 -2.06075 1.00329 0
M  V30 33726 C 3117.8 -1.60768 -0.0320335 0
M  V30 33727 O 3118.99 -1.72966 0.206943 0
M  V30 33728 C 3116.12 -3.36966 0.516436 0
M  V30 33729 H 3117.31 -2.27418 1.95503 0
M  V30 33730 H 3114.87 -1.16045 1.04706 0
M  V30 33731 H 3115.6 -3.21309 -0.439441 0
M  V30 33732 H 3115.39 -3.71187 1.26344 0
M  V30 33733 H 3116.88 -4.15869 0.379813 0
M  V30 33734 N 3117.31 -1.03816 -1.18575 0
M  V30 33735 C 3118.59 -0.654391 -1.84329 0
M  V30 33736 C 3118.97 0.866304 -1.92506 0
M  V30 33737 O 3118.32 1.76675 -1.44907 0
M  V30 33738 C 3118.53 -1.32729 -3.22776 0
M  V30 33739 C 3119.88 -1.45648 -3.98838 0
M  V30 33740 O 3120.9 -1.2852 -3.32206 0
M  V30 33741 O 3119.76 -1.73535 -5.18216 0
M  V30 33742 H 3116.85 -0.228652 -0.794762 0
M  V30 33743 H 3119.4 -1.1369 -1.25987 0
M  V30 33744 H 3118.17 -2.36539 -3.11713 0
M  V30 33745 H 3117.79 -0.833245 -3.88771 0
M  V30 33746 N 3118.79 1.34753 -0.817283 0
M  V30 33747 C 3120.04 1.99174 -0.412442 0
M  V30 33748 C 3120.39 1.63641 1.01189 0
M  V30 33749 O 3119.68 0.894927 1.69416 0
M  V30 33750 C 3119.88 3.53215 -0.545362 0
M  V30 33751 C 3119.71 4.03713 -1.98107 0
M  V30 33752 C 3118.48 4.32569 -2.61174 0
M  V30 33753 C 3120.68 4.21489 -2.94706 0
M  V30 33754 N 3118.66 4.69066 -3.96044 0
M  V30 33755 C 3120.03 4.61102 -4.1447 0
M  V30 33756 C 3122.08 4.03723 -2.91397 0
M  V30 33757 C 3120.79 4.84806 -5.31371 0
M  V30 33758 C 3122.81 4.28591 -4.0751 0
M  V30 33759 C 3122.17 4.68485 -5.26024 0
M  V30 33760 H 3118.27 0.756279 -0.198913 0
M  V30 33761 H 3120.86 1.63265 -1.06079 0
M  V30 33762 H 3119.03 3.88331 0.0730537 0
M  V30 33763 H 3120.76 4.04539 -0.11407 0
M  V30 33764 H 3117.52 4.23274 -2.12453 0
M  V30 33765 H 3117.94 4.91557 -4.65511 0
M  V30 33766 H 3122.58 3.72013 -2.00914 0
M  V30 33767 H 3120.3 5.15386 -6.22417 0
M  V30 33768 H 3123.89 4.16386 -4.06342 0
M  V30 33769 H 3122.77 4.8735 -6.14378 0
M  V30 33770 N 3120.27 0.571737 1.46864 0
M  V30 33771 C 3121.18 -0.17053 2.33979 0
M  V30 33772 C 3122.2 -0.897212 1.49084 0
M  V30 33773 O 3123.37 -0.862856 1.8198 0
M  V30 33774 C 3120.44 -1.17825 3.26065 0
M  V30 33775 C 3119.5 -0.457424 4.26856 0
M  V30 33776 C 3118.73 -1.41713 5.14542 0
M  V30 33777 O 3118.95 -2.65296 5.0495 0
M  V30 33778 O 3117.89 -0.933695 5.94614 0
M  V30 33779 H 3121.71 0.544449 2.9878 0
M  V30 33780 H 3119.3 0.332223 1.45659 0
M  V30 33781 H 3121.18 -1.75958 3.82906 0
M  V30 33782 H 3119.86 -1.87489 2.63874 0
M  V30 33783 H 3118.76 0.165472 3.73734 0
M  V30 33784 H 3120.1 0.198039 4.91801 0
M  V30 33785 N 3121.75 -1.54542 0.308935 0
M  V30 33786 C 3122.97 -2.05172 -0.30316 0
M  V30 33787 C 3123.4 -1.18437 -1.46131 0
M  V30 33788 O 3122.76 -0.190194 -1.803 0
M  V30 33789 C 3122.8 -3.53145 -0.729464 0
M  V30 33790 O 3121.91 -3.69404 -1.83342 0
M  V30 33791 H 3121.25 -0.661506 -0.0574949 0
M  V30 33792 H 3123.78 -1.9952 0.45309 0
M  V30 33793 H 3123.79 -3.95144 -1.01612 0
M  V30 33794 H 3122.46 -4.15733 0.117695 0
M  V30 33795 H 3121.04 -3.3931 -1.5467 0
M  V30 33796 N 3123.23 -0.0368104 -1.57557 0
M  V30 33797 C 3124.64 0.50094 -1.79854 0
M  V30 33798 C 3124.99 1.71789 -0.947779 0
M  V30 33799 O 3124.11 2.15805 -0.160325 0
M  V30 33800 C 3124.71 0.915569 -3.26194 0
M  V30 33801 C 3123.27 1.39839 -3.4946 0
M  V30 33802 C 3122.41 0.366736 -2.74864 0
M  V30 33803 H 3125.36 -0.262796 -1.56509 0
M  V30 33804 H 3125.39 1.77944 -3.36327 0
M  V30 33805 H 3124.9 0.0296545 -3.88089 0
M  V30 33806 H 3123 2.30397 -2.92828 0
M  V30 33807 H 3123.11 1.40046 -4.58175 0
M  V30 33808 H 3121.48 0.836512 -2.40571 0
M  V30 33809 H 3122.26 -0.510845 -3.39478 0
M  V30 33810 N 3124.7 1.55817 0.236426 0
M  V30 33811 C 3125.61 1.94338 1.31415 0
M  V30 33812 C 3126.63 0.845191 1.52094 0
M  V30 33813 O 3127.81 1.14749 1.65513 0
M  V30 33814 C 3124.87 2.23936 2.64676 0
M  V30 33815 C 3123.93 3.47244 2.52429 0
M  V30 33816 C 3123.16 3.75421 3.79335 0
M  V30 33817 O 3123.39 3.05503 4.81689 0
M  V30 33818 O 3122.32 4.68934 3.77339 0
M  V30 33819 H 3126.15 2.86154 1.01734 0
M  V30 33820 H 3123.73 1.42833 0.438059 0
M  V30 33821 H 3125.61 2.44234 3.43406 0
M  V30 33822 H 3124.29 1.35297 2.94068 0
M  V30 33823 H 3123.2 3.32241 1.7195 0
M  V30 33824 H 3124.53 4.36218 2.27979 0
M  V30 33825 N 3126.18 -0.502526 1.49373 0
M  V30 33826 C 3127.6 -0.833567 1.36102 0
M  V30 33827 C 3127.8 -1.97631 0.392946 0
M  V30 33828 O 3126.85 -2.51886 -0.175931 0
M  V30 33829 C 3128.17 -1.17521 2.76784 0
M  V30 33830 C 3129.71 -1.28351 2.85473 0
M  V30 33831 C 3130.19 -1.65845 4.26918 0
M  V30 33832 N 3131.68 -1.72897 4.29722 0
M  V30 33833 C 3132.42 -2.0335 5.36131 0
M  V30 33834 N 3131.91 -2.32038 6.52787 0
M  V30 33835 N 3133.7 -2.04588 5.23546 0
M  V30 33836 H 3125.86 0.251046 2.10911 0
M  V30 33837 H 3128.12 0.0497203 0.946695 0
M  V30 33838 H 3127.82 -0.408903 3.49315 0
M  V30 33839 H 3127.7 -2.11901 3.12054 0
M  V30 33840 H 3130.09 -2.04054 2.1318 0
M  V30 33841 H 3130.17 -0.320259 2.53787 0
M  V30 33842 H 3129.81 -0.906934 4.99737 0
M  V30 33843 H 3129.74 -2.63268 4.56068 0
M  V30 33844 H 3132.23 -1.52894 3.45589 0
M  V30 33845 H 3132.54 -2.54458 7.29706 0
M  V30 33846 H 3130.89 -2.29497 6.56015 0
M  V30 33847 H 3134.08 -1.81652 4.31416 0
M  V30 33848 H 3134.25 -2.27988 6.06569 0
M  V30 33849 N 3127.66 -1.38422 -0.75346 0
M  V30 33850 C 3129.08 -1.19622 -1.05654 0
M  V30 33851 C 3129.28 -0.0449797 -2.0145 0
M  V30 33852 O 3128.33 0.60921 -2.45041 0
M  V30 33853 C 3129.64 -2.52268 -1.6365 0
M  V30 33854 C 3131.19 -2.58952 -1.75821 0
M  V30 33855 C 3131.67 -3.91774 -2.37229 0
M  V30 33856 N 3133.16 -3.93314 -2.44659 0
M  V30 33857 C 3133.89 -4.92847 -2.93069 0
M  V30 33858 N 3133.39 -6.02778 -3.41513 0
M  V30 33859 N 3135.18 -4.80238 -2.9211 0
M  V30 33860 H 3127.33 -2.12073 -0.117762 0
M  V30 33861 H 3129.6 -0.941015 -0.114873 0
M  V30 33862 H 3129.3 -3.36967 -1.00728 0
M  V30 33863 H 3129.18 -2.70672 -2.6271 0
M  V30 33864 H 3131.56 -1.74648 -2.3787 0
M  V30 33865 H 3131.64 -2.44415 -0.75465 0
M  V30 33866 H 3131.29 -4.765 -1.75813 0
M  V30 33867 H 3131.22 -4.03622 -3.38226 0
M  V30 33868 H 3133.71 -3.13913 -2.10397 0
M  V30 33869 H 3134.02 -6.74656 -3.76907 0
M  V30 33870 H 3132.37 -6.06397 -3.39569 0
M  V30 33871 H 3135.56 -3.93468 -2.53575 0
M  V30 33872 H 3135.73 -5.57958 -3.29525 0
M  V30 33873 N 3129.14 0.981655 -1.23294 0
M  V30 33874 C 3130.07 2.07624 -0.970818 0
M  V30 33875 C 3131.08 1.62708 0.054722 0
M  V30 33876 O 3132.27 1.77583 -0.180655 0
M  V30 33877 C 3129.37 3.36024 -0.440609 0
M  V30 33878 C 3128.54 4.09916 -1.52602 0
M  V30 33879 C 3127.6 5.16593 -1.00091 0
M  V30 33880 O 3126.63 5.43545 -1.68961 0
M  V30 33881 N 3127.83 5.80245 0.171915 0
M  V30 33882 H 3130.6 2.30688 -1.9132 0
M  V30 33883 H 3128.16 1.14826 -1.14135 0
M  V30 33884 H 3130.15 4.04632 -0.0743822 0
M  V30 33885 H 3128.72 3.09937 0.407156 0
M  V30 33886 H 3127.94 3.3578 -2.06507 0
M  V30 33887 H 3129.23 4.56051 -2.25598 0
M  V30 33888 H 3128.63 5.60733 0.748031 0
M  V30 33889 H 3127.18 6.50034 0.479418 0
M  V30 33890 N 3130.62 1.04444 1.18022 0
M  V30 33891 C 3131.84 0.770131 1.92571 0
M  V30 33892 C 3132.27 -0.667138 1.75872 0
M  V30 33893 O 3131.62 -1.46256 1.07139 0
M  V30 33894 C 3131.67 1.14608 3.41902 0
M  V30 33895 O 3130.78 0.273784 4.1149 0
M  V30 33896 H 3130.12 0.283086 0.600631 0
M  V30 33897 H 3132.65 1.39529 1.49643 0
M  V30 33898 H 3132.66 1.10963 3.92621 0
M  V30 33899 H 3131.33 2.1931 3.53378 0
M  V30 33900 H 3129.91 0.37019 3.71058 0
M  V30 33901 N 3132.09 -1.34317 0.824418 0
M  V30 33902 C 3133.51 -1.5122 0.510363 0
M  V30 33903 C 3133.71 -1.76881 -0.96517 0
M  V30 33904 O 3132.77 -1.8206 -1.74958 0
M  V30 33905 C 3134.08 -2.67617 1.37119 0
M  V30 33906 C 3135.63 -2.815 1.36846 0
M  V30 33907 C 3136.1 -4.00942 2.21381 0
M  V30 33908 N 3137.59 -4.08152 2.19012 0
M  V30 33909 C 3138.33 -4.99732 2.81168 0
M  V30 33910 N 3137.82 -5.96526 3.52319 0
M  V30 33911 N 3139.62 -4.92616 2.70714 0
M  V30 33912 H 3131.77 -1.15921 1.77978 0
M  V30 33913 H 3134.03 -0.56865 0.758513 0
M  V30 33914 H 3133.74 -2.5529 2.41909 0
M  V30 33915 H 3133.61 -3.62667 1.03695 0
M  V30 33916 H 3136 -2.93268 0.328335 0
M  V30 33917 H 3136.08 -1.87254 1.74268 0
M  V30 33918 H 3135.72 -3.89934 3.25444 0
M  V30 33919 H 3135.65 -4.94403 1.81308 0
M  V30 33920 H 3138.14 -3.38871 1.67258 0
M  V30 33921 H 3138.46 -6.63039 3.96988 0
M  V30 33922 H 3136.8 -5.96645 3.56426 0
M  V30 33923 H 3139.99 -4.15958 2.14702 0
M  V30 33924 H 3140.17 -5.63792 3.19441 0
M  V30 33925 N 3133.57 -0.579517 -1.46558 0
M  V30 33926 C 3134.8 -0.067496 -2.0729 0
M  V30 33927 C 3135.22 1.22674 -1.42593 0
M  V30 33928 O 3134.58 1.7402 -0.5086 0
M  V30 33929 C 3134.63 0.0881594 -3.60492 0
M  V30 33930 O 3133.73 1.14544 -3.96174 0
M  V30 33931 H 3133.07 -0.0613652 -0.661158 0
M  V30 33932 H 3135.6 -0.801552 -1.88245 0
M  V30 33933 H 3135.61 0.295339 -4.0693 0
M  V30 33934 H 3134.29 -0.857015 -4.06974 0
M  V30 33935 H 3132.86 0.916969 -3.6145 0
M  V30 33936 N 3135.05 1.54376 -0.317127 0
M  V30 33937 C 3136.46 1.85904 0.172254 0
M  V30 33938 C 3136.81 1.23888 1.52139 0
M  V30 33939 O 3135.94 0.542513 2.09489 0
M  V30 33940 C 3136.53 3.37292 0.319332 0
M  V30 33941 C 3135.09 3.68792 0.752933 0
M  V30 33942 C 3134.24 2.76999 -0.129191 0
M  V30 33943 H 3137.19 1.49316 -0.537623 0
M  V30 33944 H 3137.21 3.62664 1.1513 0
M  V30 33945 H 3136.72 3.824 -0.662739 0
M  V30 33946 H 3134.82 3.29213 1.74498 0
M  V30 33947 H 3134.94 4.75802 0.561144 0
M  V30 33948 H 3133.3 2.51631 0.394198 0
M  V30 33949 H 3134.08 3.24931 -1.10791 0
M  V30 33950 N 3136.53 0.0451655 1.57535 0
M  V30 33951 C 3137.75 -0.643225 1.97173 0
M  V30 33952 C 3138.18 -1.63937 0.922295 0
M  V30 33953 O 3137.54 -1.80934 -0.115123 0
M  V30 33954 C 3137.58 -1.31184 3.35891 0
M  V30 33955 O 3136.69 -2.42743 3.33391 0
M  V30 33956 H 3136.03 -0.167708 0.642472 0
M  V30 33957 H 3138.56 0.111783 2.04294 0
M  V30 33958 H 3138.57 -1.66492 3.72484 0
M  V30 33959 H 3137.24 -0.581751 4.11811 0
M  V30 33960 H 3135.82 -2.09427 3.08537 0
M  V30 33961 N 3138.01 -1.5594 -0.228159 0
M  V30 33962 C 3138.92 -1.95032 -1.30382 0
M  V30 33963 C 3139.93 -0.853245 -1.51643 0
M  V30 33964 O 3141.11 -1.15625 -1.64902 0
M  V30 33965 C 3138.17 -2.25337 -2.63485 0
M  V30 33966 C 3137.23 -3.48578 -2.50584 0
M  V30 33967 C 3136.47 -3.77427 -3.77339 0
M  V30 33968 O 3136.69 -3.08053 -4.80062 0
M  V30 33969 O 3135.62 -4.70928 -3.74847 0
M  V30 33970 H 3139.45 -2.86689 -1.00215 0
M  V30 33971 H 3137.04 -1.43064 -0.430478 0
M  V30 33972 H 3138.92 -2.46052 -3.42106 0
M  V30 33973 H 3137.59 -1.36855 -2.93347 0
M  V30 33974 H 3136.5 -3.33148 -1.70185 0
M  V30 33975 H 3137.83 -4.37421 -2.25663 0
M  V30 33976 N 3139.48 0.494597 -1.49638 0
M  V30 33977 C 3140.73 1.24584 -1.59132 0
M  V30 33978 C 3141.05 1.92938 -0.282862 0
M  V30 33979 O 3140.32 1.83035 0.698218 0
M  V30 33980 H 3138.9 0.462837 -0.586337 0
M  V30 33981 H 3141.57 0.572663 -1.86297 0
M  V30 33982 H 3140.66 2.00636 -2.39064 0
M  V30 33983 N 3140.96 1.3882 0.746109 0
M  V30 33984 C 3142.38 1.20181 1.05018 0
M  V30 33985 C 3142.58 0.0556625 2.01423 0
M  V30 33986 O 3141.63 -0.596207 2.4536 0
M  V30 33987 C 3142.95 2.53132 1.6231 0
M  V30 33988 C 3144.5 2.59881 1.74445 0
M  V30 33989 C 3144.97 3.93026 2.35148 0
M  V30 33990 N 3146.46 3.94606 2.4257 0
M  V30 33991 C 3147.2 4.94394 2.90451 0
M  V30 33992 N 3146.69 6.0458 3.38311 0
M  V30 33993 N 3148.49 4.8178 2.89559 0
M  V30 33994 H 3140.64 2.12133 0.106514 0
M  V30 33995 H 3142.9 0.94161 0.10988 0
M  V30 33996 H 3142.61 3.37496 0.9894 0
M  V30 33997 H 3142.48 2.72061 2.61271 0
M  V30 33998 H 3144.87 1.75907 2.3694 0
M  V30 33999 H 3144.95 2.44812 0.741678 0
M  V30 34000 H 3144.59 4.77426 1.73284 0
M  V30 34001 H 3144.52 4.0541 3.36081 0
M  V30 34002 H 3147.01 3.15025 2.08729 0
M  V30 34003 H 3147.33 6.76645 3.73324 0
M  V30 34004 H 3145.67 6.0819 3.36349 0
M  V30 34005 H 3148.86 3.94807 2.51485 0
M  V30 34006 H 3149.03 5.59698 3.26561 0
M  V30 34007 N 3142.44 -0.975103 1.23812 0
M  V30 34008 C 3143.67 -1.75756 1.10112 0
M  V30 34009 C 3144.09 -1.84948 -0.34289 0
M  V30 34010 O 3143.45 -1.31498 -1.24812 0
M  V30 34011 C 3143.5 -3.15991 1.7373 0
M  V30 34012 O 3142.6 -4.00016 1.00304 0
M  V30 34013 H 3141.94 -0.540537 0.385636 0
M  V30 34014 H 3144.47 -1.22369 1.63973 0
M  V30 34015 H 3144.48 -3.66547 1.79185 0
M  V30 34016 H 3143.16 -3.08616 2.788 0
M  V30 34017 H 3141.73 -3.58513 1.02581 0
M  V30 34018 N 3143.92 -1.05068 -1.17467 0
M  V30 34019 C 3144.85 -0.608565 -2.20973 0
M  V30 34020 C 3145.86 0.327038 -1.59481 0
M  V30 34021 O 3147.05 0.119968 -1.78096 0
M  V30 34022 C 3144.15 0.129631 -3.38652 0
M  V30 34023 C 3143.33 -0.81636 -4.29714 0
M  V30 34024 C 3142.38 -0.119649 -5.26064 0
M  V30 34025 O 3141.41 -0.75334 -5.64193 0
M  V30 34026 N 3142.61 1.14337 -5.69128 0
M  V30 34027 H 3145.38 -1.49887 -2.59527 0
M  V30 34028 H 3142.94 -0.932429 -1.32353 0
M  V30 34029 H 3144.93 0.605816 -4.0014 0
M  V30 34030 H 3143.5 0.921585 -2.98706 0
M  V30 34031 H 3142.72 -1.47219 -3.65678 0
M  V30 34032 H 3144.01 -1.45853 -4.87447 0
M  V30 34033 H 3143.41 1.67856 -5.40223 0
M  V30 34034 H 3141.96 1.56365 -6.32766 0
M  V30 34035 N 3145.4 1.33878 -0.831529 0
M  V30 34036 C 3146.62 2.02233 -0.436961 0
M  V30 34037 C 3147.04 1.62591 0.95966 0
M  V30 34038 O 3146.4 0.835605 1.62246 0
M  V30 34039 C 3146.45 3.57452 -0.539492 0
M  V30 34040 O 3146.17 3.9566 -1.88108 0
M  V30 34041 C 3147.67 4.43076 -0.14093 0
M  V30 34042 H 3144.89 0.647963 -0.174314 0
M  V30 34043 H 3147.43 1.70967 -1.12207 0
M  V30 34044 H 3145.59 3.87277 0.0976279 0
M  V30 34045 H 3146 4.90359 -1.8614 0
M  V30 34046 H 3147.48 5.5137 -0.263736 0
M  V30 34047 H 3147.95 4.29533 0.91643 0
M  V30 34048 H 3148.56 4.18595 -0.752191 0
M  V30 34049 N 3146.87 0.587281 1.46249 0
M  V30 34050 C 3148.29 0.161951 1.85996 0
M  V30 34051 C 3148.64 -1.27614 1.49027 0
M  V30 34052 O 3147.76 -1.96461 0.907316 0
M  V30 34053 C 3148.36 0.287137 3.37581 0
M  V30 34054 C 3146.92 -0.083355 3.76308 0
M  V30 34055 C 3146.06 0.620979 2.70258 0
M  V30 34056 H 3149.01 0.795223 1.37339 0
M  V30 34057 H 3149.03 -0.486266 3.7738 0
M  V30 34058 H 3148.55 1.3339 3.64457 0
M  V30 34059 H 3146.65 -1.13007 3.55049 0
M  V30 34060 H 3146.76 0.296148 4.78184 0
M  V30 34061 H 3145.12 0.0607475 2.54628 0
M  V30 34062 H 3145.91 1.66948 2.99972 0
M  V30 34063 N 3148.35 -1.54206 0.325309 0
M  V30 34064 C 3149.3 -2.25873 -0.55536 0
M  V30 34065 C 3150.29 -1.27346 -1.11711 0
M  V30 34066 O 3151.5 -1.45116 -1.06495 0
M  V30 34067 H 3147.88 -0.725534 -0.197747 0
M  V30 34068 H 3149.85 -2.98315 0.0713382 0
M  V30 34069 C 3148.6 -3.03098 -1.70373 0
M  V30 34070 H 3147.92 -3.78731 -1.28073 0
M  V30 34071 H 3149.36 -3.56487 -2.2955 0
M  V30 34072 C 3147.82 -2.11501 -2.62238 0
M  V30 34073 O 3148.35 -1.69902 -3.64 0
M  V30 34074 N 3146.55 -1.76954 -2.30512 0
M  V30 34075 H 3146.1 -2.1098 -1.47801 0
M  V30 34076 H 3146.06 -1.15947 -2.92239 0
M  V30 34077 N 3149.83 -0.0535194 -1.57509 0
M  V30 34078 C 3151.25 0.30304 -1.56697 0
M  V30 34079 C 3151.45 1.7128 -1.06138 0
M  V30 34080 O 3150.5 2.42046 -0.719033 0
M  V30 34081 C 3151.82 0.129365 -3.00422 0
M  V30 34082 C 3153.36 0.200291 -3.12359 0
M  V30 34083 C 3153.84 0.0551166 -4.57967 0
M  V30 34084 N 3155.33 0.111317 -4.63066 0
M  V30 34085 C 3156.07 0.0231336 -5.73395 0
M  V30 34086 N 3155.56 -0.117532 -6.927 0
M  V30 34087 N 3157.35 0.0788852 -5.62045 0
M  V30 34088 H 3149.51 -0.975098 -1.88694 0
M  V30 34089 H 3151.77 -0.378721 -0.869065 0
M  V30 34090 H 3151.47 -0.842713 -3.41455 0
M  V30 34091 H 3151.35 0.889411 -3.66564 0
M  V30 34092 H 3153.74 1.16284 -2.71223 0
M  V30 34093 H 3153.82 -0.59055 -2.4889 0
M  V30 34094 H 3153.46 -0.904121 -4.99788 0
M  V30 34095 H 3153.39 0.865132 -5.19445 0
M  V30 34096 H 3155.88 0.219189 -3.77264 0
M  V30 34097 H 3156.19 -0.177462 -7.72596 0
M  V30 34098 H 3154.54 -0.152648 -6.94832 0
M  V30 34099 H 3157.73 0.187351 -4.67725 0
M  V30 34100 H 3157.9 0.00670341 -6.48 0
M  V30 34101 N 3151.31 1.56059 0.219886 0
M  V30 34102 C 3152.24 1.8904 1.29601 0
M  V30 34103 C 3153.25 0.778816 1.42963 0
M  V30 34104 O 3154.44 1.05712 1.4383 0
M  V30 34105 C 3151.54 2.08539 2.67142 0
M  V30 34106 C 3150.72 3.39566 2.75706 0
M  V30 34107 C 3149.78 3.48476 3.94273 0
M  V30 34108 O 3148.8 4.21494 3.82533 0
M  V30 34109 N 3150 2.79741 5.0865 0
M  V30 34110 H 3152.77 2.81941 1.01633 0
M  V30 34111 H 3150.33 1.56625 0.409918 0
M  V30 34112 H 3152.32 2.11814 3.44843 0
M  V30 34113 H 3150.89 1.22255 2.87702 0
M  V30 34114 H 3150.11 3.48375 1.84469 0
M  V30 34115 H 3151.4 4.25877 2.784 0
M  V30 34116 H 3150.8 2.20199 5.21084 0
M  V30 34117 H 3149.35 2.88675 5.84389 0
M  V30 34118 N 3152.79 -0.486655 1.49898 0
M  V30 34119 C 3154.04 -1.23739 1.59791 0
M  V30 34120 C 3154.36 -1.92785 0.29309 0
M  V30 34121 O 3153.63 -1.83402 -0.688502 0
M  V30 34122 H 3152.21 -0.459721 0.588783 0
M  V30 34123 H 3154.87 -0.562775 1.86598 0
M  V30 34124 H 3153.96 -1.99366 2.40124 0
M  V30 34125 N 3154.27 -1.39214 -0.738737 0
M  V30 34126 C 3155.49 -1.395 -1.52799 0
M  V30 34127 C 3155.91 0.0114585 -1.88797 0
M  V30 34128 O 3155.27 0.98186 -1.53837 0
M  V30 34129 C 3155.32 -2.26445 -2.81789 0
M  V30 34130 O 3155.04 -3.61613 -2.47321 0
M  V30 34131 C 3156.54 -2.35073 -3.7584 0
M  V30 34132 H 3153.76 -0.476614 -0.472313 0
M  V30 34133 H 3156.3 -1.82982 -0.913121 0
M  V30 34134 H 3154.46 -1.86386 -3.39616 0
M  V30 34135 H 3154.87 -4.07551 -3.30155 0
M  V30 34136 H 3156.35 -3.00165 -4.63255 0
M  V30 34137 H 3156.82 -1.36877 -4.17326 0
M  V30 34138 H 3157.43 -2.75586 -3.23932 0
M  V30 34139 N 3155.74 0.968523 -1.24328 0
M  V30 34140 C 3156.99 1.70801 -1.08035 0
M  V30 34141 C 3157.31 1.91228 0.381695 0
M  V30 34142 O 3156.58 1.48944 1.2725 0
M  V30 34143 H 3155.16 0.632905 -0.396788 0
M  V30 34144 H 3157.82 1.1652 -1.56234 0
M  V30 34145 H 3156.92 2.69284 -1.57773 0
M  V30 34146 N 3157.22 1.0569 1.16908 0
M  V30 34147 C 3158.45 0.790512 1.91744 0
M  V30 34148 C 3158.87 -0.648447 1.76569 0
M  V30 34149 O 3158.23 -1.45112 1.08684 0
M  V30 34150 C 3158.28 1.18228 3.40668 0
M  V30 34151 O 3157.38 0.317413 4.11177 0
M  V30 34152 H 3156.72 0.289441 0.597595 0
M  V30 34153 H 3159.25 1.41108 1.48154 0
M  V30 34154 H 3159.26 1.15121 3.91422 0
M  V30 34155 H 3157.94 2.23046 3.51032 0
M  V30 34156 H 3156.51 0.409524 3.70644 0
M  V30 34157 N 3158.7 -1.33435 0.838617 0
M  V30 34158 C 3159.63 -2.31733 0.286713 0
M  V30 34159 C 3160.61 -1.58961 -0.605423 0
M  V30 34160 O 3161.8 -1.86855 -0.529026 0
M  V30 34161 C 3158.93 -3.43088 -0.539251 0
M  V30 34162 C 3157.88 -4.27227 0.257072 0
M  V30 34163 C 3157.21 -5.30195 -0.692625 0
M  V30 34164 C 3158.51 -5.01069 1.474 0
M  V30 34165 H 3160.2 -2.78142 1.10803 0
M  V30 34166 H 3157.75 -1.33722 0.534259 0
M  V30 34167 H 3159.7 -4.10881 -0.935652 0
M  V30 34168 H 3158.42 -2.95367 -1.39378 0
M  V30 34169 H 3157.08 -3.61058 0.63503 0
M  V30 34170 H 3156.73 -4.78731 -1.54354 0
M  V30 34171 H 3156.43 -5.87371 -0.16392 0
M  V30 34172 H 3157.95 -6.00855 -1.08655 0
M  V30 34173 H 3159.37 -5.61632 1.15077 0
M  V30 34174 H 3157.76 -5.67895 1.93947 0
M  V30 34175 H 3158.83 -4.29857 2.2439 0
M  V30 34176 N 3160.18 -0.595029 -1.45935 0
M  V30 34177 C 3161.4 -0.089478 -2.07207 0
M  V30 34178 C 3161.83 1.21155 -1.43886 0
M  V30 34179 O 3161.19 1.73471 -0.527029 0
M  V30 34180 C 3161.23 0.0499194 -3.60565 0
M  V30 34181 O 3160.34 1.10335 -3.97366 0
M  V30 34182 H 3159.68 -0.0683743 -0.66047 0
M  V30 34183 H 3162.21 -0.821473 -1.87385 0
M  V30 34184 H 3162.22 0.252162 -4.0722 0
M  V30 34185 H 3160.89 -0.900132 -4.06042 0
M  V30 34186 H 3159.47 0.878581 -3.62402 0
M  V30 34187 N 3161.66 1.54031 -0.333483 0
M  V30 34188 C 3162.57 2.2838 0.536634 0
M  V30 34189 C 3163.58 1.33106 1.12066 0
M  V30 34190 O 3164.76 1.66133 1.1385 0
M  V30 34191 C 3161.82 3.03459 1.67672 0
M  V30 34192 C 3160.88 4.14338 1.1235 0
M  V30 34193 C 3160.12 4.85827 2.20924 0
M  V30 34194 O 3160.34 4.56906 3.41458 0
M  V30 34195 O 3159.27 5.7251 1.85785 0
M  V30 34196 H 3163.1 3.03625 -0.0674537 0
M  V30 34197 H 3160.68 1.49073 -0.0988492 0
M  V30 34198 H 3162.57 3.50442 2.34026 0
M  V30 34199 H 3161.24 2.3108 2.2668 0
M  V30 34200 H 3160.15 3.71681 0.424761 0
M  V30 34201 H 3161.48 4.8879 0.578411 0
M  V30 34202 N 3163.13 0.0618717 1.57479 0
M  V30 34203 C 3164.36 -0.622276 1.97845 0
M  V30 34204 C 3164.78 -1.6295 0.939631 0
M  V30 34205 O 3164.14 -1.81046 -0.0959261 0
M  V30 34206 C 3164.19 -1.27614 3.37264 0
M  V30 34207 O 3163.29 -2.39193 3.35947 0
M  V30 34208 H 3162.63 -0.160884 0.644214 0
M  V30 34209 H 3165.16 0.133445 2.04164 0
M  V30 34210 H 3165.17 -1.62532 3.74229 0
M  V30 34211 H 3163.85 -0.53804 4.12405 0
M  V30 34212 H 3162.43 -2.06142 3.10741 0
M  V30 34213 N 3164.61 -1.56173 -0.211607 0
M  V30 34214 C 3165.84 -1.84089 -0.955291 0
M  V30 34215 C 3166.26 -0.643438 -1.76753 0
M  V30 34216 O 3165.62 0.407811 -1.76654 0
M  V30 34217 C 3165.67 -3.10089 -1.84058 0
M  V30 34218 O 3164.77 -2.89481 -2.93725 0
M  V30 34219 H 3164.11 -0.606649 -0.269949 0
M  V30 34220 H 3166.64 -2.03393 -0.221911 0
M  V30 34221 H 3166.65 -3.40453 -2.24846 0
M  V30 34222 H 3165.33 -3.9687 -1.24366 0
M  V30 34223 H 3163.91 -2.70375 -2.56811 0
M  V30 34224 N 3166.09 0.478699 -1.50154 0
M  V30 34225 C 3167.34 1.22806 -1.60005 0
M  V30 34226 C 3167.65 1.9325 -0.302311 0
M  V30 34227 O 3168.86 2.70056 -0.279631 0
M  V30 34228 C 3167.31 2.23103 -2.82406 0
M  V30 34229 C 3166.92 1.58497 -4.19026 0
M  V30 34230 C 3168.67 2.98729 -3.01598 0
M  V30 34231 C 3166.57 2.57035 -5.32622 0
M  V30 34232 H 3165.5 0.462063 -0.59583 0
M  V30 34233 H 3168.15 0.499381 -1.76574 0
M  V30 34234 H 3166.54 2.9923 -2.59379 0
M  V30 34235 H 3167.71 0.882108 -4.52278 0
M  V30 34236 H 3166.03 0.951806 -4.05376 0
M  V30 34237 H 3168.62 3.72461 -3.83637 0
M  V30 34238 H 3168.97 3.57667 -2.13026 0
M  V30 34239 H 3169.5 2.29715 -3.2477 0
M  V30 34240 H 3166.24 2.02847 -6.23324 0
M  V30 34241 H 3165.76 3.25496 -5.03798 0
M  V30 34242 H 3167.44 3.19018 -5.62882 0
M  V30 34243 N 3167.57 1.39603 0.731343 0
M  V30 34244 C 3168.98 1.33047 1.30978 0
M  V30 34245 C 3169.33 -0.0034647 1.962 0
M  V30 34246 O 3168.46 -0.905581 1.96541 0
M  V30 34247 C 3169.05 2.40962 2.38166 0
M  V30 34248 C 3167.61 2.37915 2.91674 0
M  V30 34249 C 3166.76 2.22659 1.65282 0
M  V30 34250 H 3169.71 1.49638 0.528589 0
M  V30 34251 H 3169.73 2.07961 3.18642 0
M  V30 34252 H 3169.24 3.38035 1.90667 0
M  V30 34253 H 3167.34 1.44491 3.43443 0
M  V30 34254 H 3167.45 3.3291 3.44539 0
M  V30 34255 H 3165.82 1.69896 1.89756 0
M  V30 34256 H 3166.6 3.21707 1.1983 0
M  V30 34257 N 3169.05 -0.961916 1.2484 0
M  V30 34258 C 3170.27 -1.74578 1.1197 0
M  V30 34259 C 3170.7 -1.85302 -0.323254 0
M  V30 34260 O 3170.05 -1.32815 -1.2341 0
M  V30 34261 C 3170.1 -3.14131 1.77071 0
M  V30 34262 O 3169.21 -3.9893 1.04541 0
M  V30 34263 H 3168.55 -0.536417 0.391348 0
M  V30 34264 H 3171.08 -1.20623 1.65261 0
M  V30 34265 H 3171.09 -3.64626 1.83062 0
M  V30 34266 H 3169.76 -3.05641 2.82057 0
M  V30 34267 H 3168.34 -3.57405 1.06378 0
M  V30 34268 N 3170.52 -1.06308 -1.16346 0
M  V30 34269 C 3171.77 -0.78104 -1.87157 0
M  V30 34270 C 3172.1 0.690752 -1.815 0
M  V30 34271 O 3171.38 1.50607 -1.23076 0
M  V30 34272 C 3171.66 -1.27644 -3.36718 0
M  V30 34273 C 3171.51 -2.81201 -3.51065 0
M  V30 34274 C 3172.83 -0.884463 -4.31121 0
M  V30 34275 H 3169.95 -0.285199 -0.679581 0
M  V30 34276 H 3172.59 -1.31903 -1.36753 0
M  V30 34277 H 3170.74 -0.818781 -3.79774 0
M  V30 34278 H 3172.42 -3.35176 -3.16946 0
M  V30 34279 H 3170.66 -3.19923 -2.9297 0
M  V30 34280 H 3171.33 -3.10929 -4.561 0
M  V30 34281 H 3173.81 -1.27864 -3.95967 0
M  V30 34282 H 3172.68 -1.25857 -5.34276 0
M  V30 34283 H 3172.94 0.210595 -4.41598 0
M  V30 34284 N 3172 1.32989 -0.845682 0
M  V30 34285 C 3173.23 2.02292 -0.457471 0
M  V30 34286 C 3173.65 1.63181 0.935606 0
M  V30 34287 O 3173.01 0.827864 1.61295 0
M  V30 34288 C 3173.06 3.55679 -0.593728 0
M  V30 34289 O 3172.16 4.10671 0.377218 0
M  V30 34290 H 3171.5 0.637698 -0.185033 0
M  V30 34291 H 3174.03 1.69736 -1.1424 0
M  V30 34292 H 3174.04 4.05191 -0.477905 0
M  V30 34293 H 3172.72 3.83489 -1.60964 0
M  V30 34294 H 3171.3 3.7226 0.218383 0
M  V30 34295 N 3173.48 0.60276 1.45618 0
M  V30 34296 C 3174.76 0.0282816 1.9558 0
M  V30 34297 C 3175.14 -1.43823 1.54526 0
M  V30 34298 O 3174.49 -2.13832 0.805493 0
M  V30 34299 C 3174.7 0.221325 3.48298 0
M  V30 34300 C 3176.04 0.0995995 4.24483 0
M  V30 34301 O 3177.07 0.151195 3.55879 0
M  V30 34302 O 3175.93 -0.0193493 5.46497 0
M  V30 34303 H 3173.02 -0.0384752 0.826105 0
M  V30 34304 H 3175.57 0.672484 1.55807 0
M  V30 34305 H 3174.34 1.24003 3.71132 0
M  V30 34306 H 3173.96 -0.458368 3.94949 0
M  V30 34307 N 3174.96 -1.53852 0.341647 0
M  V30 34308 C 3176.19 -2.05299 -0.256893 0
M  V30 34309 C 3176.6 -1.21673 -1.44364 0
M  V30 34310 O 3175.96 -0.251615 -1.80757 0
M  V30 34311 C 3176.01 -3.55165 -0.673792 0
M  V30 34312 O 3175.73 -4.35617 0.465764 0
M  V30 34313 C 3177.23 -4.22776 -1.33325 0
M  V30 34314 H 3174.45 -0.66914 -0.0499327 0
M  V30 34315 H 3177 -1.98466 0.493082 0
M  V30 34316 H 3175.15 -3.62226 -1.37371 0
M  V30 34317 H 3175.56 -5.24329 0.133815 0
M  V30 34318 H 3177.04 -5.29032 -1.57573 0
M  V30 34319 H 3177.52 -3.75005 -2.28622 0
M  V30 34320 H 3178.12 -4.19903 -0.675415 0
M  V30 34321 N 3176.44 -0.0702223 -1.57443 0
M  V30 34322 C 3177.66 0.611775 -1.98172 0
M  V30 34323 C 3178.09 1.62449 -0.948259 0
M  V30 34324 O 3177.44 1.81094 0.0863235 0
M  V30 34325 C 3177.49 1.25824 -3.37936 0
M  V30 34326 O 3176.6 2.37408 -3.37211 0
M  V30 34327 H 3175.94 0.157466 -0.645059 0
M  V30 34328 H 3178.47 -0.144271 -2.04091 0
M  V30 34329 H 3178.48 1.60545 -3.75086 0
M  V30 34330 H 3177.15 0.516162 -4.12685 0
M  V30 34331 H 3175.73 2.04492 -3.11829 0
M  V30 34332 N 3177.91 1.56283 0.203321 0
M  V30 34333 C 3179.14 1.84243 0.941394 0
M  V30 34334 C 3179.56 0.651689 1.77196 0
M  V30 34335 O 3178.91 -0.379681 1.78507 0
M  V30 34336 C 3178.97 3.10919 1.84423 0
M  V30 34337 O 3178.69 4.254 1.04721 0
M  V30 34338 C 3180.19 3.51997 2.69467 0
M  V30 34339 H 3177.41 0.612032 0.27506 0
M  V30 34340 H 3179.95 2.03387 0.213053 0
M  V30 34341 H 3178.11 2.93696 2.5263 0
M  V30 34342 H 3178.52 4.97481 1.6617 0
M  V30 34343 H 3179.99 4.43622 3.28487 0
M  V30 34344 H 3180.47 2.74601 3.4277 0
M  V30 34345 H 3181.08 3.71723 2.06645 0
M  V30 34346 N 3179.39 -0.470729 1.50406 0
M  V30 34347 C 3180.8 -1.05159 1.54268 0
M  V30 34348 C 3181.16 -1.93118 0.346393 0
M  V30 34349 O 3180.28 -2.09537 -0.540662 0
M  V30 34350 C 3180.88 -1.91389 2.79563 0
M  V30 34351 C 3179.43 -2.44583 2.86105 0
M  V30 34352 C 3178.58 -1.22937 2.4856 0
M  V30 34353 H 3181.53 -0.253332 1.56665 0
M  V30 34354 H 3181.55 -2.7646 2.61439 0
M  V30 34355 H 3181.07 -1.27344 3.66613 0
M  V30 34356 H 3179.17 -3.12179 2.03408 0
M  V30 34357 H 3179.28 -2.79665 3.89004 0
M  V30 34358 H 3177.64 -1.56425 2.01005 0
M  V30 34359 H 3178.43 -0.605539 3.37917 0
M  V30 34360 N 3180.87 -1.39989 -0.72393 0
M  V30 34361 C 3182.29 -1.21836 -1.03093 0
M  V30 34362 C 3182.49 -0.0877001 -2.01309 0
M  V30 34363 O 3181.54 0.557096 -2.46278 0
M  V30 34364 C 3182.86 -2.55682 -1.58262 0
M  V30 34365 C 3184.4 -2.62623 -1.70288 0
M  V30 34366 C 3184.88 -3.96717 -2.28865 0
M  V30 34367 N 3186.37 -3.98415 -2.36262 0
M  V30 34368 C 3187.11 -4.98953 -2.82549 0
M  V30 34369 N 3186.6 -6.09886 -3.2865 0
M  V30 34370 N 3188.39 -4.86326 -2.81858 0
M  V30 34371 H 3180.55 -2.12275 -0.0727518 0
M  V30 34372 H 3182.81 -0.943239 -0.0948863 0
M  V30 34373 H 3182.51 -3.39028 -0.935582 0
M  V30 34374 H 3182.39 -2.76183 -2.5691 0
M  V30 34375 H 3184.78 -1.79655 -2.34112 0
M  V30 34376 H 3184.86 -2.45961 -0.702637 0
M  V30 34377 H 3184.5 -4.80122 -1.65666 0
M  V30 34378 H 3184.43 -4.10706 -3.29588 0
M  V30 34379 H 3186.92 -3.18305 -2.03691 0
M  V30 34380 H 3187.23 -6.82499 -3.62512 0
M  V30 34381 H 3185.58 -6.13464 -3.2663 0
M  V30 34382 H 3188.77 -3.98758 -2.45172 0
M  V30 34383 H 3188.94 -5.64822 -3.17616 0
M  V30 34384 N 3182.35 0.955282 -1.25348 0
M  V30 34385 C 3183.77 1.22623 -1.02156 0
M  V30 34386 C 3183.97 1.99789 0.262025 0
M  V30 34387 O 3183.02 2.3292 0.974917 0
M  V30 34388 C 3184.33 2.00125 -2.24434 0
M  V30 34389 C 3185.88 2.1317 -2.29189 0
M  V30 34390 C 3186.36 2.94071 -3.51122 0
M  V30 34391 N 3187.85 3.01649 -3.51514 0
M  V30 34392 C 3188.58 3.64638 -4.42523 0
M  V30 34393 N 3188.08 4.29242 -5.43804 0
M  V30 34394 N 3189.87 3.61772 -4.30206 0
M  V30 34395 H 3182.02 0.439034 -2.07813 0
M  V30 34396 H 3184.29 0.256699 -0.912584 0
M  V30 34397 H 3183.99 1.50821 -3.1772 0
M  V30 34398 H 3183.87 3.00831 -2.27553 0
M  V30 34399 H 3186.25 2.61671 -1.36426 0
M  V30 34400 H 3186.33 1.11771 -2.30089 0
M  V30 34401 H 3185.98 2.4626 -4.44205 0
M  V30 34402 H 3185.91 3.95695 -3.47467 0
M  V30 34403 H 3188.4 2.55706 -2.7825 0
M  V30 34404 H 3188.71 4.7516 -6.09461 0
M  V30 34405 H 3187.06 4.27872 -5.47677 0
M  V30 34406 H 3190.25 3.10485 -3.5031 0
M  V30 34407 H 3190.42 4.10575 -5.0133 0
M  V30 34408 N 3183.83 1.06924 1.1578 0
M  V30 34409 C 3185.05 0.810805 1.90895 0
M  V30 34410 C 3185.48 -0.629683 1.77247 0
M  V30 34411 O 3184.84 -1.43951 1.10217 0
M  V30 34412 C 3184.88 1.21835 3.39394 0
M  V30 34413 O 3183.99 0.361006 4.10817 0
M  V30 34414 H 3183.33 0.295763 0.594492 0
M  V30 34415 H 3185.86 1.42671 1.46649 0
M  V30 34416 H 3185.87 1.19266 3.90179 0
M  V30 34417 H 3184.54 2.26756 3.48646 0
M  V30 34418 H 3183.12 0.448813 3.70189 0
M  V30 34419 N 3185.31 -1.32538 0.852723 0
M  V30 34420 C 3186.72 -1.50103 0.542324 0
M  V30 34421 C 3186.92 -1.78888 -0.927434 0
M  V30 34422 O 3185.98 -1.85731 -1.71057 0
M  V30 34423 C 3187.29 -2.64649 1.42764 0
M  V30 34424 C 3188.84 -2.78534 1.42787 0
M  V30 34425 C 3189.31 -3.96156 2.29835 0
M  V30 34426 N 3190.8 -4.03414 2.2762 0
M  V30 34427 C 3191.54 -4.93656 2.91704 0
M  V30 34428 N 3191.04 -5.88918 3.64893 0
M  V30 34429 N 3192.83 -4.86763 2.81102 0
M  V30 34430 H 3184.98 -1.12119 1.80397 0
M  V30 34431 H 3187.24 -0.552433 0.770404 0
M  V30 34432 H 3186.95 -2.50101 2.4727 0
M  V30 34433 H 3186.82 -3.60386 1.11364 0
M  V30 34434 H 3189.21 -2.92505 0.390468 0
M  V30 34435 H 3189.29 -1.83516 1.78201 0
M  V30 34436 H 3188.93 -3.82943 3.33642 0
M  V30 34437 H 3188.86 -4.90446 1.91755 0
M  V30 34438 H 3191.36 -3.35247 1.74408 0
M  V30 34439 H 3191.67 -6.54469 4.10963 0
M  V30 34440 H 3190.01 -5.88951 3.69001 0
M  V30 34441 H 3193.2 -4.1131 2.23476 0
M  V30 34442 H 3193.38 -5.5689 3.31328 0
M  V30 34443 N 3186.78 -0.610474 -1.45296 0
M  V30 34444 C 3188.2 -0.27436 -1.57224 0
M  V30 34445 C 3188.4 1.22304 -1.60138 0
M  V30 34446 O 3187.46 2.00619 -1.53323 0
M  V30 34447 C 3188.77 -0.948078 -2.85363 0
M  V30 34448 C 3190.32 -0.924269 -2.99042 0
M  V30 34449 C 3190.79 -1.57805 -4.29955 0
M  V30 34450 N 3192.28 -1.54368 -4.36721 0
M  V30 34451 C 3193.02 -2.01867 -5.36691 0
M  V30 34452 N 3192.51 -2.57464 -6.43183 0
M  V30 34453 N 3194.31 -1.92618 -5.28067 0
M  V30 34454 H 3186.46 -1.5827 -1.41648 0
M  V30 34455 H 3188.72 -0.66317 -0.677429 0
M  V30 34456 H 3188.43 -2.00254 -2.89121 0
M  V30 34457 H 3188.3 -0.473127 -3.74221 0
M  V30 34458 H 3190.69 0.121657 -2.94849 0
M  V30 34459 H 3190.77 -1.43751 -2.11587 0
M  V30 34460 H 3190.41 -2.62332 -4.34907 0
M  V30 34461 H 3190.34 -1.03981 -5.16232 0
M  V30 34462 H 3192.83 -1.13756 -3.60372 0
M  V30 34463 H 3193.15 -2.91494 -7.15717 0
M  V30 34464 H 3191.49 -2.61505 -6.43926 0
M  V30 34465 H 3194.68 -1.48919 -4.4378 0
M  V30 34466 H 3194.86 -2.29948 -6.05828 0
M  V30 34467 N 3188.26 1.53669 -0.349801 0
M  V30 34468 C 3189.19 2.22783 0.538536 0
M  V30 34469 C 3190.21 1.23654 1.05894 0
M  V30 34470 O 3191.4 1.49972 0.968019 0
M  V30 34471 C 3188.5 2.89946 1.75454 0
M  V30 34472 C 3187.67 4.15445 1.36836 0
M  V30 34473 C 3186.73 4.65961 2.44472 0
M  V30 34474 O 3185.75 5.30023 2.07519 0
M  V30 34475 N 3186.96 4.42423 3.75821 0
M  V30 34476 H 3189.72 2.99652 -0.0534007 0
M  V30 34477 H 3187.28 1.6096 -0.174221 0
M  V30 34478 H 3189.27 3.20655 2.46906 0
M  V30 34479 H 3187.84 2.16626 2.25371 0
M  V30 34480 H 3187.06 3.91213 0.484352 0
M  V30 34481 H 3188.35 4.97066 1.08641 0
M  V30 34482 H 3187.75 3.91203 4.08628 0
M  V30 34483 H 3186.31 4.77722 4.43424 0
M  V30 34484 N 3189.74 0.0785709 1.57404 0
M  V30 34485 C 3190.67 -0.883688 2.16132 0
M  V30 34486 C 3191.65 -1.30573 1.09017 0
M  V30 34487 O 3192.84 -1.37557 1.37083 0
M  V30 34488 C 3189.97 -2.14885 2.7284 0
M  V30 34489 C 3188.92 -1.86599 3.85182 0
M  V30 34490 C 3188.25 -3.19803 4.28521 0
M  V30 34491 C 3189.55 -1.16592 5.0912 0
M  V30 34492 H 3191.24 -0.394431 2.9679 0
M  V30 34493 H 3188.79 -0.188279 1.42764 0
M  V30 34494 H 3190.74 -2.82624 3.12572 0
M  V30 34495 H 3189.46 -2.66065 1.89413 0
M  V30 34496 H 3188.12 -1.21262 3.45964 0
M  V30 34497 H 3187.77 -3.68837 3.42006 0
M  V30 34498 H 3187.47 -3.01665 5.04254 0
M  V30 34499 H 3188.99 -3.88728 4.70874 0
M  V30 34500 H 3190.41 -1.74412 5.46126 0
M  V30 34501 H 3188.8 -1.0869 5.90175 0
M  V30 34502 H 3189.87 -0.146052 4.8468 0
M  V30 34503 N 3191.22 -1.56389 -0.19503 0
M  V30 34504 C 3192.63 -1.70545 -0.7597 0
M  V30 34505 C 3192.98 -0.68515 -1.83848 0
M  V30 34506 O 3192.1 0.158419 -2.15819 0
M  V30 34507 C 3192.7 -3.09207 -1.3848 0
M  V30 34508 C 3191.26 -3.25128 -1.89655 0
M  V30 34509 C 3190.41 -2.66495 -0.766516 0
M  V30 34510 H 3193.36 -1.58672 0.0300427 0
M  V30 34511 H 3193.38 -3.0654 -2.25419 0
M  V30 34512 H 3192.89 -3.83443 -0.599411 0
M  V30 34513 H 3190.99 -2.55807 -2.70912 0
M  V30 34514 H 3191.1 -4.32633 -2.05829 0
M  V30 34515 H 3189.47 -2.25674 -1.18082 0
M  V30 34516 H 3190.25 -3.43299 0.00663136 0
M  V30 34517 N 3192.7 0.462746 -1.50653 0
M  V30 34518 C 3194.11 1.04339 -1.54823 0
M  V30 34519 C 3194.46 1.92932 -0.356629 0
M  V30 34520 O 3193.58 2.09821 0.529542 0
M  V30 34521 C 3194.18 1.89904 -2.80574 0
M  V30 34522 C 3192.74 2.43062 -2.87398 0
M  V30 34523 C 3191.88 1.21617 -2.49208 0
M  V30 34524 H 3194.83 0.24502 -1.56797 0
M  V30 34525 H 3194.86 2.75069 -2.62902 0
M  V30 34526 H 3194.37 1.25398 -3.67283 0
M  V30 34527 H 3192.47 3.11096 -2.05061 0
M  V30 34528 H 3192.58 2.77598 -3.90482 0
M  V30 34529 H 3190.95 1.55357 -2.01832 0
M  V30 34530 H 3191.73 0.58761 -3.38234 0
M  V30 34531 N 3194.17 1.40371 0.716495 0
M  V30 34532 C 3195.42 1.38805 1.47854 0
M  V30 34533 C 3195.75 -0.0100194 1.94197 0
M  V30 34534 O 3195.03 -0.978491 1.68095 0
M  V30 34535 C 3195.31 2.37672 2.70526 0
M  V30 34536 C 3195.16 3.865 2.30083 0
M  V30 34537 C 3196.48 2.34088 3.7268 0
M  V30 34538 H 3193.6 0.505509 0.536311 0
M  V30 34539 H 3196.24 1.715 0.817794 0
M  V30 34540 H 3194.39 2.09922 3.26902 0
M  V30 34541 H 3196.07 4.25073 1.79195 0
M  V30 34542 H 3194.31 4.02377 1.62095 0
M  V30 34543 H 3194.98 4.51191 3.1801 0
M  V30 34544 H 3197.46 2.58666 3.25931 0
M  V30 34545 H 3196.33 3.05314 4.56152 0
M  V30 34546 H 3196.59 1.3522 4.20913 0
M  V30 34547 N 3195.65 -0.948621 1.25853 0
M  V30 34548 C 3197.06 -1.5087 1.09978 0
M  V30 34549 C 3197.41 -1.93532 -0.322462 0
M  V30 34550 O 3196.54 -1.79199 -1.21313 0
M  V30 34551 C 3197.13 -2.74179 1.99026 0
M  V30 34552 C 3195.69 -3.26479 1.87319 0
M  V30 34553 C 3194.84 -1.99289 1.92819 0
M  V30 34554 H 3197.79 -0.764883 1.39051 0
M  V30 34555 H 3197.81 -3.48218 1.53378 0
M  V30 34556 H 3197.32 -2.43098 3.02531 0
M  V30 34557 H 3195.43 -3.62368 0.8672 0
M  V30 34558 H 3195.54 -3.94089 2.72453 0
M  V30 34559 H 3193.9 -2.14858 1.36778 0
M  V30 34560 H 3194.69 -1.70549 2.97939 0
M  V30 34561 N 3197.13 -1.07536 -1.15212 0
M  V30 34562 C 3198.54 -0.822074 -1.67627 0
M  V30 34563 C 3198.89 0.652538 -1.85031 0
M  V30 34564 O 3198.02 1.50495 -1.55499 0
M  V30 34565 C 3198.61 -1.48571 -3.04487 0
M  V30 34566 C 3197.17 -1.27989 -3.53971 0
M  V30 34567 C 3196.32 -1.55418 -2.29653 0
M  V30 34568 H 3199.27 -1.23715 -0.993994 0
M  V30 34569 H 3199.29 -0.907981 -3.69508 0
M  V30 34570 H 3198.8 -2.55894 -2.91788 0
M  V30 34571 H 3196.9 -0.226971 -3.71908 0
M  V30 34572 H 3197.02 -2.00138 -4.35295 0
M  V30 34573 H 3195.38 -0.975293 -2.35287 0
M  V30 34574 H 3196.16 -2.63927 -2.19539 0
M  V30 34575 N 3198.61 1.32084 -0.85974 0
M  V30 34576 C 3199.56 2.28761 -0.306082 0
M  V30 34577 C 3200.53 1.55277 0.589774 0
M  V30 34578 O 3201.71 1.83475 0.5236 0
M  V30 34579 C 3198.85 3.41529 0.495196 0
M  V30 34580 C 3197.96 4.29884 -0.427023 0
M  V30 34581 C 3197.1 5.29786 0.387381 0
M  V30 34582 C 3196.14 6.09784 -0.531914 0
M  V30 34583 N 3195.27 7.0167 0.245617 0
M  V30 34584 H 3200.11 2.75508 -1.13574 0
M  V30 34585 H 3197.65 1.35545 -0.571492 0
M  V30 34586 H 3199.61 4.05637 0.975439 0
M  V30 34587 H 3198.24 2.95919 1.28964 0
M  V30 34588 H 3197.29 3.66311 -1.02568 0
M  V30 34589 H 3198.6 4.85777 -1.13234 0
M  V30 34590 H 3197.76 5.99521 0.930572 0
M  V30 34591 H 3196.5 4.74522 1.12604 0
M  V30 34592 H 3195.5 5.38949 -1.08695 0
M  V30 34593 H 3196.73 6.67133 -1.26926 0
M  V30 34594 H 3194.67 6.4883 0.967277 0
M  V30 34595 H 3194.59 7.54938 -0.400565 0
M  V30 34596 H 3195.86 7.75684 0.77037 0
M  V30 34597 N 3200.09 0.618171 1.4497 0
M  V30 34598 C 3201.5 0.201367 1.85611 0
M  V30 34599 C 3201.85 -1.24424 1.51701 0
M  V30 34600 O 3200.97 -1.94492 0.948784 0
M  V30 34601 C 3201.57 0.358678 3.36896 0
M  V30 34602 C 3200.13 -0.0035158 3.764 0
M  V30 34603 C 3199.27 0.678165 2.6888 0
M  V30 34604 H 3202.23 0.824176 1.35621 0
M  V30 34605 H 3202.25 -0.406109 3.78327 0
M  V30 34606 H 3201.76 1.4109 3.61546 0
M  V30 34607 H 3199.86 -1.05451 3.57367 0
M  V30 34608 H 3199.97 0.397511 4.77448 0
M  V30 34609 H 3198.34 0.114744 2.54441 0
M  V30 34610 H 3199.12 1.73273 2.96364 0
M  V30 34611 N 3201.56 -1.53481 0.357946 0
M  V30 34612 C 3202.98 -1.59599 0.00657912 0
M  V30 34613 C 3203.18 -1.37338 -1.47446 0
M  V30 34614 O 3202.24 -1.17476 -2.23508 0
M  V30 34615 C 3203.55 -2.97227 0.455669 0
M  V30 34616 C 3205.1 -3.10313 0.409238 0
M  V30 34617 C 3205.57 -4.50342 0.83402 0
M  V30 34618 N 3207.06 -4.56435 0.788776 0
M  V30 34619 C 3207.8 -5.62959 1.08924 0
M  V30 34620 N 3207.29 -6.77272 1.45859 0
M  V30 34621 N 3209.09 -5.52905 1.01253 0
M  V30 34622 H 3201.24 -1.66203 1.3225 0
M  V30 34623 H 3203.5 -0.779126 0.540061 0
M  V30 34624 H 3203.21 -3.18631 1.48887 0
M  V30 34625 H 3203.08 -3.76853 -0.161685 0
M  V30 34626 H 3205.47 -2.88624 -0.614812 0
M  V30 34627 H 3205.55 -2.32713 1.06199 0
M  V30 34628 H 3205.19 -4.72768 1.85615 0
M  V30 34629 H 3205.12 -5.26361 0.1586 0
M  V30 34630 H 3207.61 -3.74353 0.516563 0
M  V30 34631 H 3207.93 -7.54489 1.67231 0
M  V30 34632 H 3206.27 -6.78682 1.49717 0
M  V30 34633 H 3209.46 -4.62479 0.723219 0
M  V30 34634 H 3209.64 -6.35829 1.25003 0
M  V30 34635 N 3203.04 -0.0869173 -1.5736 0
M  V30 34636 C 3204.45 0.443467 -1.81357 0
M  V30 34637 C 3204.8 1.68687 -1.00195 0
M  V30 34638 O 3203.93 2.15186 -0.228901 0
M  V30 34639 C 3204.52 0.811329 -3.28942 0
M  V30 34640 C 3203.08 1.2865 -3.53732 0
M  V30 34641 C 3202.23 0.279104 -2.75892 0
M  V30 34642 H 3205.18 -0.312455 -1.55594 0
M  V30 34643 H 3205.2 1.67154 -3.41818 0
M  V30 34644 H 3204.71 -0.093828 -3.87987 0
M  V30 34645 H 3202.82 2.20964 -3.00009 0
M  V30 34646 H 3202.93 1.25398 -4.62398 0
M  V30 34647 H 3201.29 0.759552 -2.43111 0
M  V30 34648 H 3202.08 -0.618589 -3.37681 0
M  V30 34649 N 3204.52 1.5649 0.186734 0
M  V30 34650 C 3205.45 1.98234 1.23391 0
M  V30 34651 C 3206.43 0.855551 1.47018 0
M  V30 34652 O 3207.62 1.1205 1.58614 0
M  V30 34653 C 3204.75 2.32903 2.57631 0
M  V30 34654 C 3203.7 3.48398 2.48601 0
M  V30 34655 C 3203.03 3.68766 3.8719 0
M  V30 34656 C 3204.33 4.82329 2.0039 0
M  V30 34657 H 3206.02 2.8596 0.886976 0
M  V30 34658 H 3203.57 1.37578 0.425226 0
M  V30 34659 H 3205.52 2.60702 3.31078 0
M  V30 34660 H 3204.24 1.42069 2.94082 0
M  V30 34661 H 3202.9 3.20703 1.77609 0
M  V30 34662 H 3202.55 2.75248 4.21008 0
M  V30 34663 H 3202.25 4.46468 3.82021 0
M  V30 34664 H 3203.77 3.98949 4.62246 0
M  V30 34665 H 3205.19 5.09105 2.63601 0
M  V30 34666 H 3203.59 5.6356 2.06204 0
M  V30 34667 H 3204.66 4.75353 0.957478 0
M  V30 34668 N 3206 -0.45475 1.50897 0
M  V30 34669 C 3206.93 -1.55837 1.73888 0
M  V30 34670 C 3207.91 -1.59606 0.5882 0
M  V30 34671 O 3209.09 -1.75613 0.829085 0
M  V30 34672 C 3206.22 -2.94051 1.84801 0
M  V30 34673 C 3205.18 -3.05146 3.00116 0
M  V30 34674 C 3204.5 -4.45169 2.96191 0
M  V30 34675 C 3205.8 -2.80842 4.4037 0
M  V30 34676 H 3207.5 -1.3685 2.66294 0
M  V30 34677 H 3205.04 -0.656913 1.28143 0
M  V30 34678 H 3207 -3.71201 1.99469 0
M  V30 34679 H 3205.72 -3.14231 0.89029 0
M  V30 34680 H 3204.38 -2.30432 2.85125 0
M  V30 34681 H 3204.03 -4.62291 1.98232 0
M  V30 34682 H 3203.73 -4.53525 3.73616 0
M  V30 34683 H 3205.25 -5.24316 3.12929 0
M  V30 34684 H 3206.67 -3.47733 4.55801 0
M  V30 34685 H 3205.06 -3.00627 5.19368 0
M  V30 34686 H 3206.13 -1.76571 4.51609 0
M  V30 34687 N 3207.48 -1.40749 -0.709041 0
M  V30 34688 C 3208.7 -1.42904 -1.5031 0
M  V30 34689 C 3209.13 -0.0322461 -1.88072 0
M  V30 34690 O 3208.48 0.961283 -1.53717 0
M  V30 34691 C 3208.53 -2.33171 -2.7507 0
M  V30 34692 O 3207.64 -1.77947 -3.72033 0
M  V30 34693 H 3206.98 -0.485546 -0.452925 0
M  V30 34694 H 3209.51 -1.85055 -0.87268 0
M  V30 34695 H 3209.52 -2.48584 -3.23528 0
M  V30 34696 H 3208.19 -3.34668 -2.46921 0
M  V30 34697 H 3206.77 -1.71914 -3.30908 0
M  V30 34698 N 3208.96 0.941933 -1.26354 0
M  V30 34699 C 3210.19 1.71993 -1.14463 0
M  V30 34700 C 3210.59 1.86759 0.302924 0
M  V30 34701 O 3209.94 1.37402 1.21928 0
M  V30 34702 C 3210 3.1459 -1.73992 0
M  V30 34703 C 3209.66 3.23212 -3.23084 0
M  V30 34704 C 3210.66 3.06547 -4.19911 0
M  V30 34705 C 3208.34 3.46626 -3.63532 0
M  V30 34706 C 3210.34 3.13163 -5.55165 0
M  V30 34707 C 3208.03 3.52877 -4.9892 0
M  V30 34708 C 3209.02 3.36161 -5.94546 0
M  V30 34709 O 3208.71 3.42119 -7.27468 0
M  V30 34710 H 3208.44 0.545349 -0.399463 0
M  V30 34711 H 3211 1.18942 -1.67457 0
M  V30 34712 H 3209.23 3.69061 -1.15459 0
M  V30 34713 H 3210.92 3.743 -1.57018 0
M  V30 34714 H 3211.68 2.88314 -3.9 0
M  V30 34715 H 3207.56 3.58693 -2.89587 0
M  V30 34716 H 3211.11 3.00033 -6.29782 0
M  V30 34717 H 3207 3.7063 -5.28492 0
M  V30 34718 H 3207.77 3.58667 -7.35731 0
M  V30 34719 N 3210.43 1.08146 1.1464 0
M  V30 34720 C 3211.66 0.831006 1.90024 0
M  V30 34721 C 3212.08 -0.610848 1.77905 0
M  V30 34722 O 3211.44 -1.42774 1.11738 0
M  V30 34723 C 3211.49 1.25428 3.38083 0
M  V30 34724 O 3210.59 0.404558 4.10411 0
M  V30 34725 H 3209.93 0.302052 0.591321 0
M  V30 34726 H 3212.46 1.44219 1.45128 0
M  V30 34727 H 3212.47 1.23397 3.88892 0
M  V30 34728 H 3211.15 2.30442 3.46222 0
M  V30 34729 H 3209.73 0.488051 3.69692 0
M  V30 34730 N 3211.91 -1.31626 0.866732 0
M  V30 34731 C 3213.14 -2.01538 0.489596 0
M  V30 34732 C 3213.56 -1.64649 -0.909527 0
M  V30 34733 O 3212.92 -0.853419 -1.59958 0
M  V30 34734 C 3212.97 -3.54689 0.650238 0
M  V30 34735 O 3212.07 -4.11219 -0.311836 0
M  V30 34736 H 3211.41 -0.634674 0.195155 0
M  V30 34737 H 3213.94 -1.67897 1.16926 0
M  V30 34738 H 3213.95 -4.0438 0.542307 0
M  V30 34739 H 3212.63 -3.80879 1.67044 0
M  V30 34740 H 3211.2 -3.7256 -0.159132 0
M  V30 34741 N 3213.39 -0.62585 -1.4464 0
M  V30 34742 C 3214.32 0.0691778 -2.33398 0
M  V30 34743 C 3215.3 0.840215 -1.479 0
M  V30 34744 O 3216.49 0.807145 -1.76632 0
M  V30 34745 C 3213.62 1.05494 -3.3089 0
M  V30 34746 C 3212.57 0.395893 -4.26165 0
M  V30 34747 C 3211.9 1.49119 -5.13486 0
M  V30 34748 C 3213.2 -0.694524 -5.17662 0
M  V30 34749 H 3214.89 -0.671976 -2.91762 0
M  V30 34750 H 3212.44 -0.324598 -1.40294 0
M  V30 34751 H 3214.39 1.54986 -3.91864 0
M  V30 34752 H 3213.11 1.82692 -2.70724 0
M  V30 34753 H 3211.77 -0.0783336 -3.66516 0
M  V30 34754 H 3211.42 2.25391 -4.49675 0
M  V30 34755 H 3211.12 1.05562 -5.7804 0
M  V30 34756 H 3212.64 1.98802 -5.7733 0
M  V30 34757 H 3214.06 -0.282919 -5.72601 0
M  V30 34758 H 3212.45 -1.05291 -5.90791 0
M  V30 34759 H 3213.52 -1.5638 -4.58992 0
M  V30 34760 N 3214.87 1.53289 -0.36608 0
M  V30 34761 C 3216.12 2.00446 0.224579 0
M  V30 34762 C 3216.43 1.25743 1.49827 0
M  V30 34763 O 3217.64 1.6349 2.16756 0
M  V30 34764 C 3216.09 3.57066 0.450756 0
M  V30 34765 C 3215.7 4.40647 -0.808335 0
M  V30 34766 C 3217.44 4.12577 0.999043 0
M  V30 34767 C 3215.35 5.88821 -0.551715 0
M  V30 34768 H 3214.28 0.748883 0.0876982 0
M  V30 34769 H 3216.93 1.76977 -0.484898 0
M  V30 34770 H 3215.31 3.7669 1.2215 0
M  V30 34771 H 3216.49 4.32796 -1.58191 0
M  V30 34772 H 3214.8 3.96242 -1.27988 0
M  V30 34773 H 3217.4 5.20914 1.20636 0
M  V30 34774 H 3217.74 3.67203 1.96133 0
M  V30 34775 H 3218.28 3.96753 0.288448 0
M  V30 34776 H 3215.01 6.38473 -1.48434 0
M  V30 34777 H 3214.53 5.9952 0.183357 0
M  V30 34778 H 3216.21 6.46757 -0.177421 0
M  V30 34779 N 3216.35 0.0952613 1.57312 0
M  V30 34780 C 3217.76 -0.261388 1.57445 0
M  V30 34781 C 3217.96 -1.68406 1.10642 0
M  V30 34782 O 3217.02 -2.40054 0.782954 0
M  V30 34783 C 3218.33 -0.0496678 3.00659 0
M  V30 34784 C 3219.88 -0.117404 3.1278 0
M  V30 34785 C 3220.35 0.0663246 4.57952 0
M  V30 34786 N 3221.84 0.011496 4.63199 0
M  V30 34787 C 3222.58 0.1289 5.73255 0
M  V30 34788 N 3222.08 0.301147 6.92145 0
M  V30 34789 N 3223.87 0.0701587 5.62056 0
M  V30 34790 H 3216.02 1.02478 1.86043 0
M  V30 34791 H 3218.28 0.40163 0.858719 0
M  V30 34792 H 3217.99 0.932948 3.391 0
M  V30 34793 H 3217.86 -0.79191 3.68793 0
M  V30 34794 H 3220.25 -1.09052 2.74211 0
M  V30 34795 H 3220.33 0.656331 2.47237 0
M  V30 34796 H 3219.97 1.03631 4.97215 0
M  V30 34797 H 3219.9 -0.727106 5.21556 0
M  V30 34798 H 3222.4 -0.119087 3.77712 0
M  V30 34799 H 3222.71 0.38224 7.71854 0
M  V30 34800 H 3221.05 0.336817 6.94183 0
M  V30 34801 H 3224.24 -0.0632765 4.68057 0
M  V30 34802 H 3224.42 0.165105 6.4779 0
M  V30 34803 N 3217.82 -1.56587 -0.178432 0
M  V30 34804 C 3218.77 -1.92265 -1.22548 0
M  V30 34805 C 3219.76 -0.790155 -1.40162 0
M  V30 34806 O 3220.95 -1.05325 -1.42252 0
M  V30 34807 C 3218.08 -2.27997 -2.56656 0
M  V30 34808 C 3217.16 -3.47743 -2.42766 0
M  V30 34809 N 3217.56 -4.65188 -1.98579 0
M  V30 34810 C 3215.85 -3.5221 -2.73613 0
M  V30 34811 C 3216.55 -5.47333 -1.96982 0
M  V30 34812 N 3215.53 -4.88184 -2.39117 0
M  V30 34813 H 3219.33 -2.80559 -0.875443 0
M  V30 34814 H 3216.85 -1.57727 -0.386758 0
M  V30 34815 H 3218.84 -2.51749 -3.32307 0
M  V30 34816 H 3217.5 -1.41039 -2.92469 0
M  V30 34817 H 3218.51 -4.89541 -1.69028 0
M  V30 34818 H 3215.19 -2.75712 -3.13511 0
M  V30 34819 H 3216.58 -6.51432 -1.64578 0
M  V30 34820 N 3219.3 0.446741 -1.51136 0
M  V30 34821 C 3220.26 1.52403 -1.7119 0
M  V30 34822 C 3221.26 1.49895 -0.582064 0
M  V30 34823 O 3222.45 1.52084 -0.849478 0
M  V30 34824 C 3219.59 2.91973 -1.75968 0
M  V30 34825 H 3220.78 1.35929 -2.67326 0
M  V30 34826 H 3218.33 0.674788 -1.40983 0
M  V30 34827 H 3219.07 3.13863 -0.81612 0
M  V30 34828 H 3218.85 2.95199 -2.5807 0
M  V30 34829 H 3220.34 3.70141 -1.93354 0
M  V30 34830 N 3220.78 1.41123 0.701567 0
M  V30 34831 C 3222.03 1.39881 1.45869 0
M  V30 34832 C 3222.35 0.00672197 1.94999 0
M  V30 34833 O 3221.62 -0.95044 1.71299 0
M  V30 34834 H 3220.2 0.514866 0.541222 0
M  V30 34835 H 3222.86 1.76307 0.830772 0
M  V30 34836 H 3221.96 2.08234 2.32476 0
M  V30 34837 N 3222.26 -0.935219 1.26852 0
M  V30 34838 C 3223.48 -1.72163 1.15648 0
M  V30 34839 C 3223.91 -1.85946 -0.283876 0
M  V30 34840 O 3223.27 -1.35402 -1.20565 0
M  V30 34841 C 3223.31 -3.10304 1.83695 0
M  V30 34842 O 3222.42 -3.96623 1.12979 0
M  V30 34843 H 3221.76 -0.527995 0.402638 0
M  V30 34844 H 3224.29 -1.1709 1.67783 0
M  V30 34845 H 3224.3 -3.60661 1.90755 0
M  V30 34846 H 3222.97 -2.9959 2.88477 0
M  V30 34847 H 3221.55 -3.55068 1.13935 0
M  V30 34848 N 3223.74 -1.08752 -1.14065 0
M  V30 34849 C 3224.99 -0.814267 -1.84533 0
M  V30 34850 C 3225.3 0.662323 -1.84045 0
M  V30 34851 O 3226.5 1.05087 -2.50338 0
M  V30 34852 C 3224.96 -1.40669 -3.31271 0
M  V30 34853 C 3224.57 -2.91532 -3.40166 0
M  V30 34854 C 3226.31 -1.21208 -4.06828 0
M  V30 34855 C 3224.22 -3.43894 -4.81135 0
M  V30 34856 H 3223.15 -0.300939 -0.691341 0
M  V30 34857 H 3225.8 -1.30937 -1.2856 0
M  V30 34858 H 3224.18 -0.839283 -3.87004 0
M  V30 34859 H 3225.36 -3.54439 -2.94465 0
M  V30 34860 H 3223.67 -3.09947 -2.78068 0
M  V30 34861 H 3226.27 -1.5779 -5.10888 0
M  V30 34862 H 3226.61 -0.152165 -4.16022 0
M  V30 34863 H 3227.14 -1.74661 -3.57405 0
M  V30 34864 H 3223.88 -4.49474 -4.7713 0
M  V30 34865 H 3223.4 -2.85747 -5.2736 0
M  V30 34866 H 3225.08 -3.4069 -5.50036 0
M  V30 34867 N 3225.21 1.31165 -0.873701 0
M  V30 34868 C 3226.44 2.01276 -0.500277 0
M  V30 34869 C 3226.86 1.65129 0.900782 0
M  V30 34870 O 3226.22 0.86189 1.59503 0
M  V30 34871 C 3226.27 3.54339 -0.669039 0
M  V30 34872 O 3225.37 4.11379 0.290023 0
M  V30 34873 H 3224.72 0.63363 -0.198518 0
M  V30 34874 H 3227.25 1.67275 -1.17814 0
M  V30 34875 H 3227.26 4.04087 -0.563745 0
M  V30 34876 H 3225.93 3.79988 -1.69062 0
M  V30 34877 H 3224.51 3.72639 0.139372 0
M  V30 34878 N 3226.69 0.633512 1.44307 0
M  V30 34879 C 3228.1 0.221042 1.85387 0
M  V30 34880 C 3228.45 -1.22808 1.53012 0
M  V30 34881 O 3227.58 -1.93475 0.969359 0
M  V30 34882 C 3228.17 0.39439 3.36497 0
M  V30 34883 C 3226.73 0.0364066 3.76382 0
M  V30 34884 C 3225.88 0.706645 2.68145 0
M  V30 34885 H 3228.83 0.838514 1.34739 0
M  V30 34886 H 3228.85 -0.36596 3.78736 0
M  V30 34887 H 3228.36 1.44917 3.60029 0
M  V30 34888 H 3226.47 -1.01654 3.58465 0
M  V30 34889 H 3226.58 0.448129 4.77 0
M  V30 34890 H 3224.94 0.141725 2.54305 0
M  V30 34891 H 3225.73 1.76406 2.94509 0
M  V30 34892 N 3228.17 -1.53093 0.374204 0
M  V30 34893 C 3229.58 -1.86415 -0.103139 0
M  V30 34894 C 3229.93 -1.29449 -1.47436 0
M  V30 34895 O 3229.06 -0.619889 -2.07331 0
M  V30 34896 C 3229.65 -3.38245 -0.193929 0
M  V30 34897 C 3228.21 -3.71333 -0.61554 0
M  V30 34898 C 3227.36 -2.76329 0.231909 0
M  V30 34899 H 3230.31 -1.47218 0.59267 0
M  V30 34900 H 3230.33 -3.66687 -1.01591 0
M  V30 34901 H 3229.84 -3.79676 0.804207 0
M  V30 34902 H 3227.94 -3.35463 -1.62159 0
M  V30 34903 H 3228.06 -4.77557 -0.384166 0
M  V30 34904 H 3226.42 -2.52921 -0.300535 0
M  V30 34905 H 3227.2 -3.20595 1.22774 0
M  V30 34906 N 3229.65 -0.103603 -1.57259 0
M  V30 34907 C 3230.61 0.837822 -2.13338 0
M  V30 34908 C 3231.61 1.2051 -1.06461 0
M  V30 34909 O 3232.8 1.13313 -1.32309 0
M  V30 34910 C 3229.93 2.13085 -2.66097 0
M  V30 34911 H 3231.13 0.350723 -2.97842 0
M  V30 34912 H 3228.68 0.145484 -1.55621 0
M  V30 34913 H 3229.41 2.6626 -1.85137 0
M  V30 34914 H 3229.2 1.87713 -3.44248 0
M  V30 34915 H 3230.69 2.80413 -3.09448 0
M  V30 34916 N 3231.13 1.56679 0.170126 0
M  V30 34917 C 3232.4 1.72937 0.913908 0
M  V30 34918 C 3232.78 0.665328 2.00341 0
M  V30 34919 O 3232.13 -0.319676 2.26253 0
M  V30 34920 C 3232.34 3.16179 1.47755 0
M  V30 34921 C 3233.69 3.77174 1.95001 0
M  V30 34922 O 3234.71 3.19465 1.57546 0
M  V30 34923 O 3233.57 4.78505 2.63998 0
M  V30 34924 H 3230.67 0.706263 0.430257 0
M  V30 34925 H 3233.21 1.68964 0.157861 0
M  V30 34926 H 3231.98 3.85106 0.693452 0
M  V30 34927 H 3231.61 3.24483 2.29775 0
M  V30 34928 N 3232.6 -0.43872 1.5137 0
M  V30 34929 C 3233.85 -1.18592 1.63647 0
M  V30 34930 C 3234.17 -1.91755 0.354275 0
M  V30 34931 O 3233.44 -1.855 -0.629805 0
M  V30 34932 H 3232.02 -0.440756 0.603111 0
M  V30 34933 H 3234.69 -0.503126 1.88294 0
M  V30 34934 H 3233.78 -1.91625 2.46346 0
M  V30 34935 N 3234.08 -1.41493 -0.694073 0
M  V30 34936 C 3235.31 -1.4449 -1.48786 0
M  V30 34937 C 3235.73 -0.0521919 -1.88028 0
M  V30 34938 O 3235.09 0.944925 -1.54728 0
M  V30 34939 C 3235.14 -2.36075 -2.72582 0
M  V30 34940 O 3234.24 -1.81882 -3.70125 0
M  V30 34941 H 3233.58 -0.490323 -0.44775 0
M  V30 34942 H 3236.11 -1.8597 -0.853003 0
M  V30 34943 H 3236.12 -2.52001 -3.20873 0
M  V30 34944 H 3234.8 -3.37268 -2.43357 0
M  V30 34945 H 3233.38 -1.75414 -3.29066 0
M  V30 34946 N 3235.56 0.928479 -1.27346 0
M  V30 34947 C 3236.47 2.06239 -1.11815 0
M  V30 34948 C 3237.49 1.73933 -0.0483775 0
M  V30 34949 O 3238.66 1.99783 -0.254705 0
M  V30 34950 C 3235.73 3.3813 -0.766096 0
M  V30 34951 C 3234.79 3.84139 -1.91666 0
M  V30 34952 C 3234.02 5.09736 -1.5813 0
M  V30 34953 O 3234.24 5.68301 -0.488841 0
M  V30 34954 O 3233.18 5.51098 -2.42023 0
M  V30 34955 H 3237 2.22254 -2.06971 0
M  V30 34956 H 3234.59 1.0475 -1.06526 0
M  V30 34957 H 3236.47 4.17347 -0.583055 0
M  V30 34958 H 3235.15 3.23324 0.155941 0
M  V30 34959 H 3234.05 3.05812 -2.15475 0
M  V30 34960 H 3235.39 4.03485 -2.81887 0
M  V30 34961 N 3237.04 1.09355 1.13486 0
M  V30 34962 C 3237.95 0.744346 2.22478 0
M  V30 34963 C 3238.96 -0.253374 1.72145 0
M  V30 34964 O 3240.14 -0.0948986 2.01176 0
M  V30 34965 C 3237.21 0.169341 3.46286 0
M  V30 34966 C 3236.27 1.22292 4.11513 0
M  V30 34967 C 3235.5 0.675254 5.29411 0
M  V30 34968 O 3235.72 -0.502082 5.68186 0
M  V30 34969 O 3234.66 1.42993 5.84668 0
M  V30 34970 H 3238.48 1.65383 2.5472 0
M  V30 34971 H 3236.07 0.8679 1.21605 0
M  V30 34972 H 3237.95 -0.148036 4.2114 0
M  V30 34973 H 3236.62 -0.713158 3.15746 0
M  V30 34974 H 3235.53 1.59298 3.38489 0
M  V30 34975 H 3236.86 2.07803 4.46182 0
M  V30 34976 N 3238.52 -1.307 0.880644 0
M  V30 34977 C 3239.77 -1.95921 0.495928 0
M  V30 34978 C 3240.09 -1.69891 -0.957184 0
M  V30 34979 O 3239.36 -1.02013 -1.67243 0
M  V30 34980 H 3237.94 -0.724888 0.180406 0
M  V30 34981 H 3240.6 -1.59311 1.12277 0
M  V30 34982 H 3239.69 -3.04986 0.662562 0
M  V30 34983 N 3240 -0.641156 -1.43969 0
M  V30 34984 C 3241.22 -0.155354 -2.06817 0
M  V30 34985 C 3241.65 1.16516 -1.47667 0
M  V30 34986 O 3241 1.71706 -0.58195 0
M  V30 34987 C 3241.05 -0.064817 -3.60542 0
M  V30 34988 O 3240.16 0.976377 -4.00675 0
M  V30 34989 H 3239.5 -0.089352 -0.657961 0
M  V30 34990 H 3242.03 -0.880672 -1.84676 0
M  V30 34991 H 3242.04 0.122481 -4.07816 0
M  V30 34992 H 3240.71 -1.02886 -4.02973 0
M  V30 34993 H 3239.29 0.762841 -3.65014 0
M  V30 34994 N 3241.47 1.52892 -0.382318 0
M  V30 34995 C 3242.88 1.86467 0.0932513 0
M  V30 34996 C 3243.24 1.30229 1.46748 0
M  V30 34997 O 3242.36 0.630876 2.07 0
M  V30 34998 C 3242.96 3.38343 0.175988 0
M  V30 34999 C 3241.51 3.71654 0.595838 0
M  V30 35000 C 3240.66 2.76202 -0.24656 0
M  V30 35001 H 3243.61 1.46902 -0.600469 0
M  V30 35002 H 3243.63 3.67221 0.996447 0
M  V30 35003 H 3243.15 3.79245 -0.824331 0
M  V30 35004 H 3241.25 3.36318 1.60378 0
M  V30 35005 H 3241.36 4.77754 0.358835 0
M  V30 35006 H 3239.72 2.53077 0.287118 0
M  V30 35007 H 3240.51 3.1994 -1.24473 0
M  V30 35008 N 3242.95 0.111941 1.57202 0
M  V30 35009 C 3243.88 -0.837645 2.17958 0
M  V30 35010 C 3244.86 -1.28231 1.11762 0
M  V30 35011 O 3246.05 -1.34618 1.3997 0
M  V30 35012 C 3243.18 -2.09049 2.77337 0
M  V30 35013 C 3242.13 -1.78386 3.89053 0
M  V30 35014 C 3241.46 -3.10641 4.35208 0
M  V30 35015 C 3242.76 -1.05766 5.11479 0
M  V30 35016 H 3244.45 -0.331389 2.9756 0
M  V30 35017 H 3242 -0.157954 1.43131 0
M  V30 35018 H 3243.95 -2.75931 3.18497 0
M  V30 35019 H 3242.67 -2.61987 1.95014 0
M  V30 35020 H 3241.33 -1.13896 3.48458 0
M  V30 35021 H 3240.98 -3.61499 3.49753 0
M  V30 35022 H 3240.68 -2.90901 5.10539 0
M  V30 35023 H 3242.21 -3.78653 4.79014 0
M  V30 35024 H 3243.62 -1.62789 5.49702 0
M  V30 35025 H 3242.02 -0.961469 5.92348 0
M  V30 35026 H 3243.09 -0.0432118 4.84881 0
M  V30 35027 N 3244.43 -1.56767 -0.161814 0
M  V30 35028 C 3245.66 -1.86674 -0.892214 0
M  V30 35029 C 3246.07 -0.698441 -1.75406 0
M  V30 35030 O 3245.43 0.33222 -1.79451 0
M  V30 35031 C 3245.48 -3.15699 -1.76115 0
M  V30 35032 O 3245.2 -4.28027 -0.934056 0
M  V30 35033 C 3246.7 -3.59018 -2.6004 0
M  V30 35034 H 3243.92 -0.61911 -0.258736 0
M  V30 35035 H 3246.47 -2.03881 -0.159053 0
M  V30 35036 H 3244.62 -3.0029 -2.44754 0
M  V30 35037 H 3245.04 -5.01712 -1.52922 0
M  V30 35038 H 3246.51 -4.52175 -3.1661 0
M  V30 35039 H 3246.99 -2.83592 -3.35369 0
M  V30 35040 H 3247.59 -3.77071 -1.96717 0
M  V30 35041 N 3245.91 0.430686 -1.51601 0
M  V30 35042 C 3247.13 1.20642 -1.68702 0
M  V30 35043 C 3247.56 1.84085 -0.386587 0
M  V30 35044 O 3246.92 1.69096 0.653923 0
M  V30 35045 C 3246.96 2.26125 -2.80891 0
M  V30 35046 O 3246.07 3.31767 -2.44957 0
M  V30 35047 H 3245.41 0.353157 -0.562295 0
M  V30 35048 H 3247.94 0.507772 -1.98199 0
M  V30 35049 H 3247.95 2.70803 -3.05172 0
M  V30 35050 H 3246.62 1.79327 -3.75253 0
M  V30 35051 H 3245.2 2.92519 -2.31273 0
M  V30 35052 N 3247.39 1.4186 0.686559 0
M  V30 35053 C 3248.32 1.40355 1.81199 0
M  V30 35054 C 3249.33 0.30435 1.5993 0
M  V30 35055 O 3250.52 0.566673 1.69266 0
M  V30 35056 C 3247.62 1.16862 3.18114 0
M  V30 35057 C 3246.79 2.38993 3.66335 0
M  V30 35058 C 3245.85 2.11221 4.81946 0
M  V30 35059 O 3244.88 2.84331 4.93097 0
M  V30 35060 N 3246.08 1.10803 5.69827 0
M  V30 35061 H 3248.84 2.37358 1.82979 0
M  V30 35062 H 3246.41 1.36588 0.86922 0
M  V30 35063 H 3248.4 0.962194 3.93095 0
M  V30 35064 H 3246.97 0.284241 3.11305 0
M  V30 35065 H 3246.19 2.75279 2.82161 0
M  V30 35066 H 3247.48 3.20347 3.95292 0
M  V30 35067 H 3246.87 0.503111 5.63458 0
M  V30 35068 H 3245.43 0.961492 6.44669 0
M  V30 35069 N 3248.86 -0.921712 1.27837 0
M  V30 35070 C 3249.83 -2.00467 1.11111 0
M  V30 35071 C 3250.83 -1.60712 0.0532312 0
M  V30 35072 O 3252.02 -1.71626 0.298338 0
M  V30 35073 C 3249.15 -3.33754 0.694328 0
M  V30 35074 H 3250.34 -2.16735 2.07283 0
M  V30 35075 H 3247.89 -1.10331 1.1071 0
M  V30 35076 H 3248.63 -3.23187 -0.268504 0
M  V30 35077 H 3248.41 -3.63968 1.45842 0
M  V30 35078 H 3249.9 -4.13271 0.599723 0
M  V30 35079 N 3250.34 -1.09956 -1.12905 0
M  V30 35080 C 3251.27 -0.765837 -2.20584 0
M  V30 35081 C 3252.25 0.258959 -1.68117 0
M  V30 35082 O 3253.44 0.125819 -1.93792 0
M  V30 35083 C 3250.57 -0.191496 -3.46772 0
M  V30 35084 C 3249.52 -1.14642 -4.12361 0
M  V30 35085 C 3248.85 -0.43352 -5.3294 0
M  V30 35086 C 3250.15 -2.49104 -4.59069 0
M  V30 35087 H 3251.84 -1.66616 -2.48756 0
M  V30 35088 H 3249.39 -0.802555 -1.19562 0
M  V30 35089 H 3251.34 0.0540795 -4.21365 0
M  V30 35090 H 3250.06 0.744046 -3.18012 0
M  V30 35091 H 3248.72 -1.37737 -3.39741 0
M  V30 35092 H 3248.37 0.506334 -5.00445 0
M  V30 35093 H 3248.07 -1.07028 -5.77771 0
M  V30 35094 H 3249.6 -0.196374 -6.10284 0
M  V30 35095 H 3251.01 -2.30186 -5.25059 0
M  V30 35096 H 3249.41 -3.08619 -5.1466 0
M  V30 35097 H 3250.48 -3.09466 -3.73308 0
M  V30 35098 N 3251.82 1.30231 -0.887563 0
M  V30 35099 C 3252.73 2.31816 -0.360374 0
M  V30 35100 C 3253.75 1.65451 0.538712 0
M  V30 35101 O 3254.92 1.9673 0.431211 0
M  V30 35102 C 3251.99 3.44216 0.414276 0
M  V30 35103 C 3251.05 4.26201 -0.514874 0
M  V30 35104 C 3250.28 5.33234 0.222901 0
M  V30 35105 O 3250.5 5.51699 1.44862 0
M  V30 35106 O 3249.44 6.00374 -0.428327 0
M  V30 35107 H 3253.26 2.78865 -1.20284 0
M  V30 35108 H 3250.85 1.34447 -0.651483 0
M  V30 35109 H 3252.73 4.12681 0.852787 0
M  V30 35110 H 3251.41 2.99297 1.233 0
M  V30 35111 H 3250.31 3.60424 -1.00225 0
M  V30 35112 H 3251.65 4.74731 -1.29967 0
M  V30 35113 N 3253.3 0.648782 1.43627 0
M  V30 35114 C 3254.52 0.16632 2.06732 0
M  V30 35115 C 3254.95 -1.15731 1.48283 0
M  V30 35116 O 3254.31 -1.71395 0.591048 0
M  V30 35117 C 3254.35 0.0839365 3.60502 0
M  V30 35118 O 3253.46 -0.955114 4.01187 0
M  V30 35119 H 3252.8 0.0928401 0.657478 0
M  V30 35120 H 3255.33 0.890453 1.84207 0
M  V30 35121 H 3255.34 -0.100851 4.07875 0
M  V30 35122 H 3254.01 1.05021 4.02422 0
M  V30 35123 H 3252.59 -0.743473 3.65413 0
M  V30 35124 N 3254.78 -1.52688 0.390421 0
M  V30 35125 C 3255.72 -2.28025 -0.45906 0
M  V30 35126 C 3256.72 -1.31969 -1.0621 0
M  V30 35127 O 3257.92 -1.49503 -1.00244 0
M  V30 35128 H 3254.3 -0.733269 -0.166797 0
M  V30 35129 H 3256.27 -2.97744 0.1978 0
M  V30 35130 C 3255.02 -3.10051 -1.57365 0
M  V30 35131 H 3254.34 -3.83822 -1.11894 0
M  V30 35132 H 3255.78 -3.65902 -2.14223 0
M  V30 35133 C 3254.24 -2.22433 -2.53032 0
M  V30 35134 O 3254.77 -1.85187 -3.56467 0
M  V30 35135 N 3252.98 -1.86571 -2.22799 0
M  V30 35136 H 3252.52 -2.17059 -1.38719 0
M  V30 35137 H 3252.48 -1.28238 -2.87058 0
M  V30 35138 N 3256.25 -0.120276 -1.5714 0
M  V30 35139 C 3257.2 0.846771 -2.16639 0
M  V30 35140 C 3258.2 1.27447 -1.11596 0
M  V30 35141 O 3259.4 1.24606 -1.29898 0
M  V30 35142 H 3255.78 0.291185 -0.693336 0
M  V30 35143 H 3257.75 0.320484 -2.96674 0
M  V30 35144 C 3256.5 2.0865 -2.78138 0
M  V30 35145 H 3255.82 1.76633 -3.58665 0
M  V30 35146 H 3257.26 2.74317 -3.23305 0
M  V30 35147 C 3255.72 2.8771 -1.75285 0
M  V30 35148 O 3256.25 3.83138 -1.207 0
M  V30 35149 N 3254.46 2.51727 -1.45197 0
M  V30 35150 H 3254 1.74192 -1.89776 0
M  V30 35151 H 3253.96 3.0492 -0.76622 0
M  V30 35152 N 3257.73 1.56851 0.153498 0
M  V30 35153 C 3258.7 1.96875 1.17358 0
M  V30 35154 C 3259.7 0.85448 1.36218 0
M  V30 35155 O 3260.89 1.12122 1.3332 0
M  V30 35156 C 3258.02 2.27905 2.53519 0
M  V30 35157 H 3259.21 2.88175 0.830381 0
M  V30 35158 H 3256.76 1.51184 0.396606 0
M  V30 35159 H 3257.5 1.39376 2.92822 0
M  V30 35160 H 3257.28 3.09141 2.41193 0
M  V30 35161 H 3258.77 2.59731 3.27001 0
M  V30 35162 N 3259.21 -0.42264 1.51827 0
M  V30 35163 C 3260.45 -1.18013 1.6689 0
M  V30 35164 C 3260.81 -1.88123 0.383892 0
M  V30 35165 O 3262.02 -2.65648 0.41046 0
M  V30 35166 C 3260.29 -2.15865 2.84845 0
M  V30 35167 S 3261.85 -2.99903 3.20318 0
M  V30 35168 H 3258.66 -0.39999 0.587817 0
M  V30 35169 H 3261.27 -0.469446 1.8978 0
M  V30 35170 H 3259.97 -1.63023 3.76632 0
M  V30 35171 H 3259.5 -2.91493 2.64188 0
M  V30 35172 H 3261.52 -4.17671 2.67891 0
M  V30 35173 N 3260.69 -1.42222 -0.679027 0
M  V30 35174 C 3261.62 -1.48155 -1.80478 0
M  V30 35175 C 3262.6 -0.338532 -1.66697 0
M  V30 35176 O 3263.78 -0.552261 -1.86182 0
M  V30 35177 C 3260.91 -1.37914 -3.18743 0
M  V30 35178 C 3259.87 -2.50198 -3.47253 0
M  V30 35179 C 3259.19 -2.25016 -4.85048 0
M  V30 35180 C 3260.49 -3.92517 -3.44569 0
M  V30 35181 H 3262.19 -2.42374 -1.7577 0
M  V30 35182 H 3259.73 -1.16657 -0.84422 0
M  V30 35183 H 3261.69 -1.40673 -3.97227 0
M  V30 35184 H 3260.41 -0.401863 -3.24118 0
M  V30 35185 H 3259.07 -2.46749 -2.71128 0
M  V30 35186 H 3258.72 -1.25593 -4.87068 0
M  V30 35187 H 3258.42 -3.00268 -5.05087 0
M  V30 35188 H 3259.94 -2.29518 -5.65821 0
M  V30 35189 H 3261.36 -3.97592 -4.13029 0
M  V30 35190 H 3259.75 -4.67586 -3.76143 0
M  V30 35191 H 3260.82 -4.19489 -2.43223 0
M  V30 35192 N 3262.17 0.91492 -1.28324 0
M  V30 35193 C 3263.39 1.69773 -1.18257 0
M  V30 35194 C 3263.81 1.87016 0.258945 0
M  V30 35195 O 3263.17 1.39632 1.17512 0
M  V30 35196 C 3263.22 3.09051 -1.87536 0
M  V30 35197 O 3262.94 2.92607 -3.26057 0
M  V30 35198 C 3264.44 4.03421 -1.83756 0
M  V30 35199 H 3261.66 0.530737 -0.41056 0
M  V30 35200 H 3264.2 1.1452 -1.69427 0
M  V30 35201 H 3262.36 3.61126 -1.40239 0
M  V30 35202 H 3262.77 3.80749 -3.60736 0
M  V30 35203 H 3264.25 4.98617 -2.36822 0
M  V30 35204 H 3264.72 4.31672 -0.809677 0
M  V30 35205 H 3265.33 3.57275 -2.30726 0
M  V30 35206 N 3263.64 1.10553 1.1232 0
M  V30 35207 C 3264.55 0.767901 2.21676 0
M  V30 35208 C 3265.57 -0.235102 1.72404 0
M  V30 35209 O 3266.75 -0.0735558 2.01266 0
M  V30 35210 C 3263.81 0.20606 3.46087 0
M  V30 35211 C 3262.87 1.26649 4.10193 0
M  V30 35212 C 3262.11 0.731367 5.28665 0
M  V30 35213 O 3262.33 -0.44179 5.68687 0
M  V30 35214 O 3261.26 1.49186 5.83118 0
M  V30 35215 H 3265.09 1.68075 2.52952 0
M  V30 35216 H 3262.67 0.880749 1.20678 0
M  V30 35217 H 3264.56 -0.103361 4.21273 0
M  V30 35218 H 3263.23 -0.679629 3.16485 0
M  V30 35219 H 3262.14 1.62879 3.36781 0
M  V30 35220 H 3263.47 2.12524 4.43953 0
M  V30 35221 N 3265.12 -1.29758 0.894457 0
M  V30 35222 C 3266.35 -2.00455 0.532235 0
M  V30 35223 C 3266.77 -1.66541 -0.874398 0
M  V30 35224 O 3266.13 -0.887157 -1.58111 0
M  V30 35225 C 3266.18 -3.5323 0.725326 0
M  V30 35226 O 3265.28 -4.11788 -0.22454 0
M  V30 35227 H 3264.62 -0.630391 0.208573 0
M  V30 35228 H 3267.15 -1.6538 1.20461 0
M  V30 35229 H 3267.16 -4.03139 0.62796 0
M  V30 35230 H 3265.84 -3.7725 1.75086 0
M  V30 35231 H 3264.42 -3.72814 -0.0800706 0
M  V30 35232 N 3266.6 -0.65639 -1.4328 0
M  V30 35233 C 3267.83 -0.177281 -2.06641 0
M  V30 35234 C 3268.25 1.14943 -1.48895 0
M  V30 35235 O 3267.61 1.71079 -0.60013 0
M  V30 35236 C 3267.66 -0.103054 -3.60453 0
M  V30 35237 O 3266.76 0.933825 -4.01688 0
M  V30 35238 H 3266.1 -0.0963255 -0.656976 0
M  V30 35239 H 3268.63 -0.90021 -1.83732 0
M  V30 35240 H 3268.64 0.0792193 -4.07923 0
M  V30 35241 H 3267.32 -1.07154 -4.01859 0
M  V30 35242 H 3265.89 0.724083 -3.65802 0
M  V30 35243 N 3268.08 1.52478 -0.398513 0
M  V30 35244 C 3269.03 2.28265 0.446961 0
M  V30 35245 C 3270.02 1.32531 1.05508 0
M  V30 35246 O 3271.23 1.50032 0.994501 0
M  V30 35247 H 3267.6 0.734143 0.162906 0
M  V30 35248 H 3269.57 2.97635 -0.213587 0
M  V30 35249 C 3268.32 3.10881 1.55718 0
M  V30 35250 H 3267.65 3.8441 1.09857 0
M  V30 35251 H 3269.09 3.67033 2.1228 0
M  V30 35252 C 3267.54 2.23772 2.51849 0
M  V30 35253 O 3268.07 1.87075 3.5548 0
M  V30 35254 N 3266.28 1.8775 2.21807 0
M  V30 35255 H 3265.83 2.17792 1.37566 0
M  V30 35256 H 3265.79 1.29758 2.86374 0
M  V30 35257 N 3269.56 0.128608 1.57074 0
M  V30 35258 C 3270.78 -0.537804 2.00306 0
M  V30 35259 C 3271.21 -1.58818 1.0079 0
M  V30 35260 O 3270.57 -1.8129 -0.019052 0
M  V30 35261 C 3270.61 -1.13195 3.42373 0
M  V30 35262 O 3269.72 -2.24729 3.4579 0
M  V30 35263 H 3269.06 -0.133416 0.650458 0
M  V30 35264 H 3271.59 0.219918 2.03415 0
M  V30 35265 H 3271.6 -1.46513 3.80786 0
M  V30 35266 H 3270.27 -0.362641 4.14316 0
M  V30 35267 H 3268.85 -1.92777 3.19204 0
M  V30 35268 N 3271.04 -1.5693 -0.145178 0
M  V30 35269 C 3272.45 -1.72875 -0.705058 0
M  V30 35270 C 3272.8 -0.743293 -1.81575 0
M  V30 35271 O 3271.92 0.0896773 -2.16214 0
M  V30 35272 C 3272.52 -3.13456 -1.28572 0
M  V30 35273 C 3271.08 -3.30997 -1.79215 0
M  V30 35274 C 3270.22 -2.68799 -0.681345 0
M  V30 35275 H 3273.17 -1.58496 0.0805077 0
M  V30 35276 H 3273.2 -3.13556 -2.15552 0
M  V30 35277 H 3272.71 -3.85156 -0.477118 0
M  V30 35278 H 3270.81 -2.64296 -2.62637 0
M  V30 35279 H 3270.92 -4.38962 -1.91961 0
M  V30 35280 H 3269.29 -2.29316 -1.10843 0
M  V30 35281 H 3270.07 -3.43104 0.115846 0
M  V30 35282 N 3272.51 0.414582 -1.52049 0
M  V30 35283 C 3273.46 1.50373 -1.71383 0
M  V30 35284 C 3274.45 1.50552 -0.567719 0
M  V30 35285 O 3275.64 1.5662 -0.824569 0
M  V30 35286 C 3272.77 2.88355 -1.86296 0
M  V30 35287 C 3271.85 2.92845 -3.06762 0
M  V30 35288 N 3272.25 2.6704 -4.29562 0
M  V30 35289 C 3270.54 3.24012 -3.06483 0
M  V30 35290 C 3271.24 2.77959 -5.10993 0
M  V30 35291 N 3270.22 3.10605 -4.46123 0
M  V30 35292 H 3274.02 1.29209 -2.63974 0
M  V30 35293 H 3271.54 0.622218 -1.50007 0
M  V30 35294 H 3273.53 3.66739 -1.98262 0
M  V30 35295 H 3272.19 3.10522 -0.949014 0
M  V30 35296 H 3273.2 2.41537 -4.58127 0
M  V30 35297 H 3269.88 3.51808 -2.24805 0
M  V30 35298 H 3271.27 2.61769 -6.18811 0
M  V30 35299 N 3273.99 1.4258 0.671475 0
M  V30 35300 C 3275.4 1.38483 1.25217 0
M  V30 35301 C 3275.75 0.0797534 1.96038 0
M  V30 35302 O 3274.88 -0.821406 2.00205 0
M  V30 35303 C 3275.47 2.50846 2.27731 0
M  V30 35304 C 3274.03 2.50072 2.8132 0
M  V30 35305 C 3273.18 2.29469 1.5569 0
M  V30 35306 H 3276.13 1.51746 0.464647 0
M  V30 35307 H 3276.15 2.21288 3.09535 0
M  V30 35308 H 3275.66 3.45818 1.76158 0
M  V30 35309 H 3273.76 1.58928 3.37006 0
M  V30 35310 H 3273.88 3.47224 3.3011 0
M  V30 35311 H 3272.24 1.77791 1.8238 0
M  V30 35312 H 3273.02 3.265 1.06078 0
M  V30 35313 N 3275.47 -0.908102 1.28807 0
M  V30 35314 C 3276.4 -2.01611 1.09022 0
M  V30 35315 C 3277.41 -1.6275 0.0402345 0
M  V30 35316 O 3278.6 -1.76228 0.283884 0
M  V30 35317 C 3275.7 -3.32883 0.635771 0
M  V30 35318 C 3274.88 -4.00322 1.76242 0
M  V30 35319 C 3273.94 -5.09879 1.30039 0
M  V30 35320 O 3272.96 -5.32769 2.00363 0
M  V30 35321 N 3274.16 -5.80261 0.166677 0
M  V30 35322 H 3276.93 -2.19141 2.04444 0
M  V30 35323 H 3274.49 -1.07976 1.20635 0
M  V30 35324 H 3276.48 -4.0351 0.310168 0
M  V30 35325 H 3275.05 -3.11784 -0.225761 0
M  V30 35326 H 3274.27 -3.23169 2.25733 0
M  V30 35327 H 3275.56 -4.42123 2.51804 0
M  V30 35328 H 3274.96 -5.6414 -0.419835 0
M  V30 35329 H 3273.51 -6.51724 -0.0996135 0
M  V30 35330 N 3276.95 -1.11147 -1.11732 0
M  V30 35331 C 3277.88 -0.724843 -2.17437 0
M  V30 35332 C 3278.89 0.242041 -1.60991 0
M  V30 35333 O 3280.08 0.0253945 -1.78482 0
M  V30 35334 C 3277.18 -0.0500635 -3.38863 0
M  V30 35335 C 3276.35 -1.04299 -4.24783 0
M  V30 35336 C 3275.41 -0.398336 -5.2469 0
M  V30 35337 O 3274.44 -1.05135 -5.59406 0
M  V30 35338 N 3275.64 0.840083 -5.74389 0
M  V30 35339 H 3278.41 -1.63433 -2.51217 0
M  V30 35340 H 3275.97 -1.00128 -1.27225 0
M  V30 35341 H 3277.96 0.392858 -4.02789 0
M  V30 35342 H 3276.53 0.761952 -3.03172 0
M  V30 35343 H 3275.75 -1.66396 -3.5736 0
M  V30 35344 H 3277.04 -1.71487 -4.7903 0
M  V30 35345 H 3276.44 1.38984 -5.48361 0
M  V30 35346 H 3274.99 1.22603 -6.40165 0
M  V30 35347 N 3278.43 1.29282 -0.901326 0
M  V30 35348 C 3279.65 2.00169 -0.542858 0
M  V30 35349 C 3280.08 1.67002 0.865553 0
M  V30 35350 O 3279.43 0.895529 1.57639 0
M  V30 35351 C 3279.48 3.5284 -0.744049 0
M  V30 35352 O 3278.59 4.11902 0.202699 0
M  V30 35353 H 3277.93 0.629276 -0.211914 0
M  V30 35354 H 3280.46 1.64738 -1.21336 0
M  V30 35355 H 3280.47 4.028 -0.64933 0
M  V30 35356 H 3279.14 3.76316 -1.77084 0
M  V30 35357 H 3277.72 3.72851 0.0602982 0
M  V30 35358 N 3279.9 0.663979 1.4293 0
M  V30 35359 C 3280.84 -0.0598475 2.29122 0
M  V30 35360 C 3281.85 -0.776379 1.43095 0
M  V30 35361 O 3283.04 -0.63234 1.66924 0
M  V30 35362 C 3280.14 -1.10816 3.2027 0
M  V30 35363 C 3279.31 -0.467623 4.34893 0
M  V30 35364 C 3278.37 -1.41426 5.06838 0
M  V30 35365 O 3277.4 -0.918719 5.61737 0
M  V30 35366 N 3278.6 -2.74792 5.11341 0
M  V30 35367 H 3281.36 0.679996 2.91884 0
M  V30 35368 H 3278.92 0.50757 1.53738 0
M  V30 35369 H 3280.92 -1.74248 3.65267 0
M  V30 35370 H 3279.49 -1.74986 2.59034 0
M  V30 35371 H 3278.71 0.345999 3.92679 0
M  V30 35372 H 3279.99 -0.0209343 5.08796 0
M  V30 35373 H 3279.39 -3.17602 4.6813 0
M  V30 35374 H 3277.95 -3.33499 5.60019 0
M  V30 35375 N 3281.38 -1.52265 0.406593 0
M  V30 35376 C 3282.33 -2.23764 -0.437443 0
M  V30 35377 C 3283.32 -1.24801 -1.01555 0
M  V30 35378 O 3284.51 -1.50053 -0.938787 0
M  V30 35379 C 3281.64 -3.06066 -1.55494 0
M  V30 35380 C 3280.72 -4.12438 -0.987727 0
M  V30 35381 N 3281.11 -5.05586 -0.146955 0
M  V30 35382 C 3279.41 -4.27876 -1.25849 0
M  V30 35383 C 3280.11 -5.81456 0.168331 0
M  V30 35384 N 3279.09 -5.41815 -0.44015 0
M  V30 35385 H 3282.89 -2.9314 0.211255 0
M  V30 35386 H 3280.4 -1.60945 0.216872 0
M  V30 35387 H 3282.4 -3.5584 -2.17218 0
M  V30 35388 H 3281.06 -2.38229 -2.20628 0
M  V30 35389 H 3282.07 -5.17445 0.217153 0
M  V30 35390 H 3278.75 -3.71269 -1.9096 0
M  V30 35391 H 3280.14 -6.66494 0.850634 0
M  V30 35392 N 3282.86 -0.136936 -1.57004 0
M  V30 35393 C 3283.82 0.792381 -2.15067 0
M  V30 35394 C 3284.82 1.18225 -1.08994 0
M  V30 35395 O 3286.01 1.10481 -1.34683 0
M  V30 35396 C 3283.15 2.07392 -2.70557 0
M  V30 35397 H 3284.34 0.287467 -2.98519 0
M  V30 35398 H 3281.89 0.112442 -1.55895 0
M  V30 35399 H 3282.63 2.62273 -1.90744 0
M  V30 35400 H 3282.41 1.80368 -3.48152 0
M  V30 35401 H 3283.9 2.73786 -3.15326 0
M  V30 35402 N 3284.34 1.57005 0.136853 0
M  V30 35403 C 3285.56 1.88438 0.866372 0
M  V30 35404 C 3285.99 0.727036 1.73481 0
M  V30 35405 O 3285.35 -0.323063 1.78398 0
M  V30 35406 C 3285.39 3.18517 1.69054 0
M  V30 35407 O 3284.5 3.03165 2.79579 0
M  V30 35408 H 3283.84 0.618838 0.240698 0
M  V30 35409 H 3286.37 2.0422 0.124617 0
M  V30 35410 H 3286.38 3.50793 2.08347 0
M  V30 35411 H 3285.05 4.02352 1.05289 0
M  V30 35412 H 3283.63 2.8232 2.43619 0
M  V30 35413 N 3285.82 -0.406513 1.52267 0
M  V30 35414 C 3287.23 -0.985214 1.58589 0
M  V30 35415 C 3287.58 -1.91475 0.427989 0
M  V30 35416 O 3286.7 -2.11642 -0.451304 0
M  V30 35417 C 3287.3 -1.7936 2.87429 0
M  V30 35418 C 3285.86 -2.32228 2.96221 0
M  V30 35419 C 3285 -1.12284 2.5355 0
M  V30 35420 H 3287.96 -0.186657 1.57598 0
M  V30 35421 H 3287.98 -2.65122 2.72929 0
M  V30 35422 H 3287.49 -1.1168 3.71684 0
M  V30 35423 H 3285.59 -3.03271 2.16466 0
M  V30 35424 H 3285.7 -2.62914 4.00516 0
M  V30 35425 H 3284.07 -1.47759 2.07459 0
M  V30 35426 H 3284.85 -0.461671 3.40182 0
M  V30 35427 N 3287.29 -1.42934 -0.663904 0
M  V30 35428 C 3288.23 -1.4322 -1.78943 0
M  V30 35429 C 3289.24 -0.329755 -1.59425 0
M  V30 35430 O 3290.43 -0.59353 -1.68343 0
M  V30 35431 C 3287.53 -1.21908 -3.16215 0
M  V30 35432 C 3286.7 -2.44791 -3.62486 0
M  V30 35433 C 3285.76 -2.18862 -4.78525 0
M  V30 35434 O 3284.79 -2.9214 -4.88511 0
M  V30 35435 N 3285.99 -1.19855 -5.67992 0
M  V30 35436 H 3288.75 -2.40239 -1.7918 0
M  V30 35437 H 3286.31 -1.37953 -0.84738 0
M  V30 35438 H 3288.31 -1.02461 -3.91515 0
M  V30 35439 H 3286.88 -0.333731 -3.10813 0
M  V30 35440 H 3286.1 -2.79734 -2.77746 0
M  V30 35441 H 3287.38 -3.26595 -3.90145 0
M  V30 35442 H 3286.78 -0.592689 -5.62587 0
M  V30 35443 H 3285.34 -1.06393 -6.43058 0
M  V30 35444 N 3288.77 0.901258 -1.29287 0
M  V30 35445 C 3290.19 1.1818 -1.07265 0
M  V30 35446 C 3290.39 2.00721 0.177051 0
M  V30 35447 O 3289.44 2.36845 0.875251 0
M  V30 35448 C 3290.76 1.90426 -2.3272 0
M  V30 35449 C 3292.31 2.03258 -2.38024 0
M  V30 35450 C 3292.78 2.78914 -3.63278 0
M  V30 35451 N 3294.27 2.86469 -3.63992 0
M  V30 35452 C 3295.01 3.45541 -4.57591 0
M  V30 35453 N 3294.5 4.05792 -5.6152 0
M  V30 35454 N 3296.3 3.432 -4.45163 0
M  V30 35455 H 3288.45 0.350499 -2.09488 0
M  V30 35456 H 3290.71 0.217762 -0.92265 0
M  V30 35457 H 3290.42 1.3721 -3.23831 0
M  V30 35458 H 3290.29 2.90909 -2.40108 0
M  V30 35459 H 3292.68 2.55649 -1.47402 0
M  V30 35460 H 3292.76 1.01912 -2.34622 0
M  V30 35461 H 3292.4 2.27198 -4.5425 0
M  V30 35462 H 3292.33 3.80601 -3.63937 0
M  V30 35463 H 3294.82 2.43674 -2.88845 0
M  V30 35464 H 3295.14 4.48883 -6.29066 0
M  V30 35465 H 3293.48 4.04259 -5.65332 0
M  V30 35466 H 3296.67 2.95347 -3.63163 0
M  V30 35467 H 3296.84 3.88943 -5.18293 0
M  V30 35468 N 3290.25 1.11738 1.11141 0
M  V30 35469 C 3291.48 0.889468 1.86473 0
M  V30 35470 C 3291.89 -0.564407 1.80585 0
M  V30 35471 O 3291.23 -1.40161 1.18746 0
M  V30 35472 C 3291.29 1.27677 3.36064 0
M  V30 35473 C 3290.96 2.74045 3.65716 0
M  V30 35474 C 3291.95 3.72256 3.62935 0
M  V30 35475 C 3289.64 3.10769 3.94624 0
M  V30 35476 C 3291.63 5.05209 3.88642 0
M  V30 35477 C 3289.32 4.43906 4.19989 0
M  V30 35478 C 3290.32 5.40935 4.16987 0
M  V30 35479 O 3290.01 6.71674 4.41712 0
M  V30 35480 H 3289.74 0.318189 0.596433 0
M  V30 35481 H 3292.29 1.48921 1.41463 0
M  V30 35482 H 3290.52 0.620192 3.81694 0
M  V30 35483 H 3292.21 1.02416 3.92767 0
M  V30 35484 H 3292.98 3.45229 3.40649 0
M  V30 35485 H 3288.86 2.3586 3.96095 0
M  V30 35486 H 3292.4 5.80934 3.86214 0
M  V30 35487 H 3288.3 4.70665 4.41752 0
M  V30 35488 H 3289.07 6.77509 4.59264 0
M  V30 35489 N 3291.73 -1.28802 0.90817 0
M  V30 35490 C 3292.98 -1.94493 0.534366 0
M  V30 35491 C 3293.29 -1.7232 -0.925489 0
M  V30 35492 O 3294.5 -2.32186 -1.4072 0
M  V30 35493 C 3292.95 -3.48341 0.90481 0
M  V30 35494 C 3292.56 -3.79301 2.38401 0
M  V30 35495 C 3294.3 -4.20219 0.601323 0
M  V30 35496 C 3292.21 -5.26432 2.69487 0
M  V30 35497 H 3291.14 -0.728047 0.19612 0
M  V30 35498 H 3293.79 -1.46399 1.10632 0
M  V30 35499 H 3292.17 -3.95134 0.261694 0
M  V30 35500 H 3293.35 -3.43336 3.07339 0
M  V30 35501 H 3291.66 -3.20581 2.65738 0
M  V30 35502 H 3294.26 -5.28524 0.810318 0
M  V30 35503 H 3294.6 -4.13744 -0.460597 0
M  V30 35504 H 3295.14 -3.79185 1.20266 0
M  V30 35505 H 3291.88 -5.3798 3.74511 0
M  V30 35506 H 3291.4 -5.63614 2.05181 0
M  V30 35507 H 3293.07 -5.94114 2.56198 0
M  V30 35508 N 3293.21 -0.67155 -1.42576 0
M  V30 35509 C 3294.43 -0.199188 -2.06441 0
M  V30 35510 C 3294.86 1.13357 -1.50106 0
M  V30 35511 O 3294.21 1.70433 -0.618241 0
M  V30 35512 C 3294.26 -0.141279 -3.60323 0
M  V30 35513 O 3293.37 0.891168 -4.02656 0
M  V30 35514 H 3292.71 -0.103288 -0.655917 0
M  V30 35515 H 3295.24 -0.919646 -1.82767 0
M  V30 35516 H 3295.25 0.0359492 -4.07984 0
M  V30 35517 H 3293.92 -1.1141 -4.007 0
M  V30 35518 H 3292.5 0.685245 -3.6655 0
M  V30 35519 N 3294.68 1.52047 -0.414663 0
M  V30 35520 C 3295.59 2.30903 0.41482 0
M  V30 35521 C 3296.61 1.3886 1.04852 0
M  V30 35522 O 3297.79 1.71934 1.04883 0
M  V30 35523 C 3294.85 3.1192 1.5135 0
M  V30 35524 C 3293.91 4.19711 0.902285 0
M  V30 35525 C 3293.15 4.96855 1.94861 0
M  V30 35526 O 3293.37 4.74363 3.16758 0
M  V30 35527 O 3292.3 5.81553 1.55176 0
M  V30 35528 H 3296.13 3.02841 -0.228304 0
M  V30 35529 H 3293.71 1.48339 -0.17773 0
M  V30 35530 H 3295.6 3.62355 2.15121 0
M  V30 35531 H 3294.27 2.42771 2.14112 0
M  V30 35532 H 3293.18 3.7341 0.227144 0
M  V30 35533 H 3294.51 4.91168 0.318501 0
M  V30 35534 N 3296.16 0.145261 1.56929 0
M  V30 35535 C 3297.57 -0.375852 1.82878 0
M  V30 35536 C 3297.92 -1.64852 1.06387 0
M  V30 35537 O 3297.05 -2.14188 0.308608 0
M  V30 35538 C 3297.64 -0.688686 3.31727 0
M  V30 35539 C 3296.2 -1.15433 3.58263 0
M  V30 35540 C 3295.35 -0.176517 2.76738 0
M  V30 35541 H 3298.3 0.369987 1.54327 0
M  V30 35542 H 3298.32 -1.54353 3.47787 0
M  V30 35543 H 3297.83 0.237762 3.87371 0
M  V30 35544 H 3295.94 -2.09677 3.08003 0
M  V30 35545 H 3296.05 -1.0815 4.66734 0
M  V30 35546 H 3294.41 -0.6688 2.45762 0
M  V30 35547 H 3295.2 0.743491 3.35152 0
M  V30 35548 N 3297.64 -1.57075 -0.128525 0
M  V30 35549 C 3298.87 -1.88251 -0.851181 0
M  V30 35550 C 3299.28 -0.733562 -1.744 0
M  V30 35551 O 3298.62 0.305076 -1.81149 0
M  V30 35552 C 3298.68 -3.14339 -1.74445 0
M  V30 35553 C 3298.35 -4.45313 -1.02691 0
M  V30 35554 C 3299.35 -5.18566 -0.372149 0
M  V30 35555 C 3297.03 -4.92022 -1.01092 0
M  V30 35556 C 3299.02 -6.36744 0.289011 0
M  V30 35557 C 3296.71 -6.1012 -0.345955 0
M  V30 35558 C 3297.71 -6.82328 0.302864 0
M  V30 35559 O 3297.4 -7.98181 0.957241 0
M  V30 35560 H 3297.13 -0.627867 -0.250518 0
M  V30 35561 H 3299.68 -2.05047 -0.120382 0
M  V30 35562 H 3297.91 -2.93601 -2.51666 0
M  V30 35563 H 3299.6 -3.31612 -2.34069 0
M  V30 35564 H 3300.37 -4.83539 -0.376186 0
M  V30 35565 H 3296.25 -4.35729 -1.50536 0
M  V30 35566 H 3299.79 -6.93043 0.796022 0
M  V30 35567 H 3295.69 -6.44606 -0.339648 0
M  V30 35568 H 3296.46 -8.13961 0.860759 0
M  V30 35569 N 3299.12 0.398432 -1.5248 0
M  V30 35570 C 3300.05 1.49276 -1.79552 0
M  V30 35571 C 3301.03 1.57313 -0.647032 0
M  V30 35572 O 3302.22 1.72415 -0.893691 0
M  V30 35573 C 3299.35 2.8699 -1.95587 0
M  V30 35574 C 3298.3 2.93797 -3.11235 0
M  V30 35575 C 3297.63 4.33869 -3.12509 0
M  V30 35576 C 3298.93 2.64304 -4.50489 0
M  V30 35577 H 3300.62 1.26872 -2.7119 0
M  V30 35578 H 3298.17 0.608901 -1.30493 0
M  V30 35579 H 3300.12 3.63542 -2.13108 0
M  V30 35580 H 3298.84 3.10711 -1.0063 0
M  V30 35581 H 3297.5 2.19691 -2.93481 0
M  V30 35582 H 3297.15 4.54615 -2.15253 0
M  V30 35583 H 3296.85 4.39346 -3.9019 0
M  V30 35584 H 3298.37 5.12341 -3.32173 0
M  V30 35585 H 3299.79 3.30576 -4.68393 0
M  V30 35586 H 3298.18 2.81144 -5.30168 0
M  V30 35587 H 3299.25 1.59688 -4.57851 0
M  V30 35588 N 3300.6 1.43284 0.656314 0
M  V30 35589 C 3301.56 1.47877 1.75115 0
M  V30 35590 C 3302.56 0.363874 1.56629 0
M  V30 35591 O 3303.75 0.625493 1.62583 0
M  V30 35592 C 3300.88 1.32836 3.13954 0
M  V30 35593 H 3302.08 2.45377 1.72424 0
M  V30 35594 H 3299.63 1.30004 0.867682 0
M  V30 35595 H 3300.36 0.363317 3.22258 0
M  V30 35596 H 3300.15 2.13654 3.28777 0
M  V30 35597 H 3301.64 1.38976 3.93796 0
M  V30 35598 N 3302.08 -0.894389 1.29763 0
M  V30 35599 C 3303.01 -2.01545 1.17906 0
M  V30 35600 C 3303.99 -1.69948 0.0719701 0
M  V30 35601 O 3305.17 -1.92553 0.252372 0
M  V30 35602 C 3302.3 -3.36476 0.860321 0
M  V30 35603 C 3301.26 -3.82301 1.92431 0
M  V30 35604 C 3300.58 -5.14416 1.45877 0
M  V30 35605 C 3301.88 -4.02048 3.33398 0
M  V30 35606 H 3303.58 -2.11724 2.11692 0
M  V30 35607 H 3301.12 -1.01729 1.01918 0
M  V30 35608 H 3303.07 -4.14415 0.76406 0
M  V30 35609 H 3301.8 -3.26404 -0.113232 0
M  V30 35610 H 3300.46 -3.06582 2.01005 0
M  V30 35611 H 3300.11 -5.00764 0.473742 0
M  V30 35612 H 3299.81 -5.46048 2.17038 0
M  V30 35613 H 3301.33 -5.94891 1.37611 0
M  V30 35614 H 3302.74 -4.70454 3.27636 0
M  V30 35615 H 3301.14 -4.45043 4.02563 0
M  V30 35616 H 3302.21 -3.06209 3.75984 0
M  V30 35617 N 3303.55 -1.12326 -1.10547 0
M  V30 35618 C 3304.5 -0.759017 -2.14995 0
M  V30 35619 C 3305.49 0.241433 -1.59078 0
M  V30 35620 O 3306.68 0.0471128 -1.76937 0
M  V30 35621 C 3303.81 -0.21401 -3.42632 0
M  V30 35622 C 3302.89 -1.24268 -4.05485 0
M  V30 35623 N 3303.29 -2.43992 -4.43059 0
M  V30 35624 C 3301.58 -1.08777 -4.32532 0
M  V30 35625 C 3302.28 -3.09671 -4.92422 0
M  V30 35626 N 3301.26 -2.37122 -4.89156 0
M  V30 35627 H 3305.06 -1.67009 -2.41837 0
M  V30 35628 H 3302.58 -1.00387 -1.27657 0
M  V30 35629 H 3304.57 0.0651195 -4.16849 0
M  V30 35630 H 3303.23 0.691535 -3.1725 0
M  V30 35631 H 3304.24 -2.81382 -4.34792 0
M  V30 35632 H 3300.92 -0.239428 -4.16813 0
M  V30 35633 H 3302.31 -4.11624 -5.31051 0
M  V30 35634 N 3305.03 1.28319 -0.914988 0
M  V30 35635 C 3305.94 2.30999 -0.409464 0
M  V30 35636 C 3306.96 1.66556 0.503497 0
M  V30 35637 O 3308.13 1.976 0.389385 0
M  V30 35638 C 3305.2 3.45017 0.341169 0
M  V30 35639 C 3304.26 4.25013 -0.605161 0
M  V30 35640 C 3303.49 5.33587 0.109744 0
M  V30 35641 O 3303.72 5.54647 1.33127 0
M  V30 35642 O 3302.65 5.9933 -0.555579 0
M  V30 35643 H 3306.48 2.76251 -1.26172 0
M  V30 35644 H 3304.06 1.33035 -0.679855 0
M  V30 35645 H 3305.94 4.14397 0.765059 0
M  V30 35646 H 3304.62 3.01845 1.16923 0
M  V30 35647 H 3303.52 3.58217 -1.07848 0
M  V30 35648 H 3304.86 4.71867 -1.40008 0
M  V30 35649 N 3306.51 0.679102 1.42218 0
M  V30 35650 C 3307.79 0.131914 1.95155 0
M  V30 35651 C 3308.17 -1.3543 1.61932 0
M  V30 35652 O 3307.51 -2.09261 0.917709 0
M  V30 35653 C 3307.72 0.405638 3.46635 0
M  V30 35654 C 3309.07 0.324469 4.23358 0
M  V30 35655 O 3310.1 0.339626 3.54577 0
M  V30 35656 O 3308.96 0.270364 5.45831 0
M  V30 35657 H 3306.05 0.00536892 0.826983 0
M  V30 35658 H 3308.6 0.754128 1.52023 0
M  V30 35659 H 3307.37 1.43502 3.64037 0
M  V30 35660 H 3306.99 -0.24837 3.96823 0
M  V30 35661 N 3307.99 -1.51825 0.42272 0
M  V30 35662 C 3309.21 -2.06856 -0.150133 0
M  V30 35663 C 3309.64 -1.2895 -1.36943 0
M  V30 35664 O 3309 -0.323412 -1.78392 0
M  V30 35665 C 3309.04 -3.57583 -0.4655 0
M  V30 35666 O 3308.15 -3.81986 -1.55435 0
M  V30 35667 H 3307.49 -0.663949 -0.00826764 0
M  V30 35668 H 3310.02 -1.95609 0.599841 0
M  V30 35669 H 3310.03 -4.01593 -0.720209 0
M  V30 35670 H 3308.7 -4.13715 0.425752 0
M  V30 35671 H 3307.28 -3.49849 -1.29075 0
M  V30 35672 N 3309.47 -0.153581 -1.5685 0
M  V30 35673 C 3310.42 0.795488 -2.13673 0
M  V30 35674 C 3311.4 1.20497 -1.06626 0
M  V30 35675 O 3312.59 1.17029 -1.3279 0
M  V30 35676 C 3309.72 2.03194 -2.76708 0
M  V30 35677 C 3308.81 1.64525 -3.90886 0
M  V30 35678 N 3309.2 0.967143 -4.96468 0
M  V30 35679 C 3307.5 1.93752 -4.01717 0
M  V30 35680 C 3308.2 0.779426 -5.76455 0
M  V30 35681 N 3307.17 1.31535 -5.27446 0
M  V30 35682 H 3310.97 0.268237 -2.92673 0
M  V30 35683 H 3308.49 0.047731 -1.6233 0
M  V30 35684 H 3310.49 2.7219 -3.15782 0
M  V30 35685 H 3309.15 2.56431 -1.99182 0
M  V30 35686 H 3310.16 0.627163 -5.14089 0
M  V30 35687 H 3306.83 2.48791 -3.35275 0
M  V30 35688 H 3308.22 0.244486 -6.71455 0
M  V30 35689 N 3310.94 1.57141 0.120193 0
M  V30 35690 C 3311.91 1.9932 1.13156 0
M  V30 35691 C 3312.91 0.883182 1.34375 0
M  V30 35692 O 3314.1 1.14925 1.30912 0
M  V30 35693 C 3311.23 2.33232 2.48628 0
M  V30 35694 H 3312.42 2.89871 0.769069 0
M  V30 35695 H 3309.97 1.51992 0.364449 0
M  V30 35696 H 3310.71 1.45556 2.898 0
M  V30 35697 H 3310.49 3.14188 2.34581 0
M  V30 35698 H 3311.98 2.66609 3.21418 0
M  V30 35699 N 3312.42 -0.39034 1.5269 0
M  V30 35700 C 3313.65 -1.16126 1.71841 0
M  V30 35701 C 3314.07 -1.82995 0.435258 0
M  V30 35702 O 3313.43 -1.70771 -0.60886 0
M  V30 35703 C 3313.48 -2.18598 2.86788 0
M  V30 35704 O 3312.58 -3.25156 2.53668 0
M  V30 35705 H 3311.92 -0.338125 0.571461 0
M  V30 35706 H 3314.45 -0.455045 1.99476 0
M  V30 35707 H 3314.46 -2.62617 3.12244 0
M  V30 35708 H 3313.14 -1.69315 3.79875 0
M  V30 35709 H 3311.72 -2.86285 2.38947 0
M  V30 35710 N 3313.9 -1.4363 -0.648706 0
M  V30 35711 C 3315.18 -1.35963 -1.40618 0
M  V30 35712 C 3315.56 -0.00964733 -2.11098 0
M  V30 35713 O 3314.91 1.00711 -2.05109 0
M  V30 35714 C 3315.12 -2.54591 -2.38715 0
M  V30 35715 C 3316.46 -2.97878 -3.02579 0
M  V30 35716 O 3317.49 -2.5467 -2.49042 0
M  V30 35717 O 3316.35 -3.72743 -3.99656 0
M  V30 35718 H 3313.44 -0.537541 -0.628473 0
M  V30 35719 H 3315.99 -1.55688 -0.675236 0
M  V30 35720 H 3314.76 -3.44475 -1.85613 0
M  V30 35721 H 3314.38 -2.36989 -3.19252 0
M  V30 35722 N 3315.38 0.887495 -1.30236 0
M  V30 35723 C 3316.62 1.65326 -1.20194 0
M  V30 35724 C 3316.98 1.90493 0.240087 0
M  V30 35725 O 3318.18 2.6477 0.463697 0
M  V30 35726 C 3316.45 2.95855 -2.00511 0
M  V30 35727 S 3318.01 3.86831 -2.0714 0
M  V30 35728 H 3314.83 0.567464 -0.428376 0
M  V30 35729 H 3317.43 1.05361 -1.64679 0
M  V30 35730 H 3316.14 2.75261 -3.04401 0
M  V30 35731 H 3315.67 3.60854 -1.56678 0
M  V30 35732 H 3317.68 4.81547 -1.19695 0
M  V30 35733 N 3316.86 1.12911 1.0995 0
M  V30 35734 C 3318.1 0.885761 1.81655 0
M  V30 35735 C 3318.43 -0.58988 1.85864 0
M  V30 35736 O 3317.7 -1.42872 1.34031 0
M  V30 35737 H 3316.28 0.324706 0.672737 0
M  V30 35738 H 3318.94 1.42458 1.3301 0
M  V30 35739 H 3318.03 1.27172 2.85015 0
M  V30 35740 N 3318.33 -1.27832 0.92178 0
M  V30 35741 C 3319.24 -2.30779 0.421709 0
M  V30 35742 C 3320.26 -1.66821 -0.494657 0
M  V30 35743 O 3321.44 -1.97804 -0.3789 0
M  V30 35744 C 3318.5 -3.45193 -0.322867 0
M  V30 35745 C 3317.56 -4.24686 0.627692 0
M  V30 35746 C 3316.8 -5.33638 -0.0814447 0
M  V30 35747 O 3317.02 -5.55345 -1.30183 0
M  V30 35748 O 3315.95 -5.99027 0.587355 0
M  V30 35749 H 3319.78 -2.75578 1.27635 0
M  V30 35750 H 3317.36 -1.32673 0.6869 0
M  V30 35751 H 3319.25 -4.14797 -0.743072 0
M  V30 35752 H 3317.92 -3.02461 -1.15321 0
M  V30 35753 H 3316.83 -3.5764 1.09746 0
M  V30 35754 H 3318.16 -4.71118 1.42508 0
M  V30 35755 N 3319.81 -0.686634 -1.41856 0
M  V30 35756 C 3320.72 -0.0159418 -2.34595 0
M  V30 35757 C 3321.74 0.775905 -1.55742 0
M  V30 35758 O 3322.91 0.715517 -1.88261 0
M  V30 35759 C 3319.98 0.915414 -3.34397 0
M  V30 35760 C 3319.04 0.116775 -4.29141 0
M  V30 35761 C 3318.27 1.00377 -5.24176 0
M  V30 35762 O 3318.5 2.24331 -5.24435 0
M  V30 35763 O 3317.43 0.458232 -6.00153 0
M  V30 35764 H 3321.26 -0.780153 -2.93509 0
M  V30 35765 H 3318.84 -0.446921 -1.42559 0
M  V30 35766 H 3320.72 1.44974 -3.95677 0
M  V30 35767 H 3319.4 1.65927 -2.77939 0
M  V30 35768 H 3318.31 -0.461936 -3.71237 0
M  V30 35769 H 3319.64 -0.588223 -4.88672 0
M  V30 35770 N 3321.29 1.51599 -0.430766 0
M  V30 35771 C 3322.2 2.3133 0.390307 0
M  V30 35772 C 3323.22 1.39964 1.03374 0
M  V30 35773 O 3324.39 1.73037 1.03054 0
M  V30 35774 C 3321.46 3.13508 1.48033 0
M  V30 35775 C 3320.52 4.20644 0.857718 0
M  V30 35776 C 3319.75 4.98894 1.8958 0
M  V30 35777 O 3319.97 4.77696 3.11709 0
M  V30 35778 O 3318.91 5.83166 1.48999 0
M  V30 35779 H 3322.73 3.02581 -0.260411 0
M  V30 35780 H 3320.32 1.48142 -0.193454 0
M  V30 35781 H 3322.2 3.64616 2.11265 0
M  V30 35782 H 3320.88 2.45028 2.11525 0
M  V30 35783 H 3319.78 3.7363 0.187526 0
M  V30 35784 H 3321.12 4.91479 0.266388 0
M  V30 35785 N 3322.77 0.161897 1.56766 0
M  V30 35786 C 3324 -0.491992 2.00965 0
M  V30 35787 C 3324.41 -1.57436 1.04209 0
M  V30 35788 O 3323.77 -1.82453 0.0414318 0
M  V30 35789 C 3323.82 -1.07898 3.45022 0
M  V30 35790 O 3323.54 -0.0398315 4.38082 0
M  V30 35791 C 3325.04 -1.81202 4.04575 0
M  V30 35792 H 3322.26 -0.126785 0.658913 0
M  V30 35793 H 3324.81 0.260859 2.02829 0
M  V30 35794 H 3322.96 -1.78237 3.43963 0
M  V30 35795 H 3323.37 -0.471894 5.22373 0
M  V30 35796 H 3324.85 -2.17545 5.07325 0
M  V30 35797 H 3325.33 -2.70352 3.4613 0
M  V30 35798 H 3325.93 -1.15527 4.09309 0
M  V30 35799 N 3324.25 -1.57203 -0.111858 0
M  V30 35800 C 3325.18 -2.03896 -1.13793 0
M  V30 35801 C 3326.16 -0.924721 -1.42769 0
M  V30 35802 O 3327.34 -1.1949 -1.53087 0
M  V30 35803 C 3324.47 -2.4493 -2.46225 0
M  V30 35804 C 3323.43 -3.59863 -2.31696 0
M  V30 35805 C 3322.75 -3.86819 -3.69154 0
M  V30 35806 C 3324.05 -4.91341 -1.77149 0
M  V30 35807 H 3325.75 -2.89866 -0.74953 0
M  V30 35808 H 3323.29 -1.39451 -0.359101 0
M  V30 35809 H 3325.25 -2.76201 -3.18262 0
M  V30 35810 H 3323.97 -1.55938 -2.86968 0
M  V30 35811 H 3322.63 -3.28812 -1.62106 0
M  V30 35812 H 3322.28 -2.95022 -4.07396 0
M  V30 35813 H 3321.98 -4.64187 -3.60284 0
M  V30 35814 H 3323.5 -4.20549 -4.42686 0
M  V30 35815 H 3324.91 -5.21102 -2.39011 0
M  V30 35816 H 3323.31 -5.72756 -1.79081 0
M  V30 35817 H 3324.38 -4.7938 -0.729591 0
M  V30 35818 N 3325.72 0.382237 -1.52894 0
M  V30 35819 C 3326.95 1.14763 -1.72154 0
M  V30 35820 C 3327.37 1.83531 -0.442943 0
M  V30 35821 O 3326.72 1.72936 0.583055 0
M  V30 35822 C 3326.78 2.19057 -2.8757 0
M  V30 35823 O 3326.5 1.53092 -4.10481 0
M  V30 35824 C 3328 3.08272 -3.18565 0
M  V30 35825 H 3325.22 0.343822 -0.576218 0
M  V30 35826 H 3327.76 0.446238 -1.99572 0
M  V30 35827 H 3325.92 2.84821 -2.62594 0
M  V30 35828 H 3326.33 2.22446 -4.74993 0
M  V30 35829 H 3327.8 3.77466 -4.02769 0
M  V30 35830 H 3328.28 3.72157 -2.33229 0
M  V30 35831 H 3328.89 2.48144 -3.45405 0
M  V30 35832 N 3327.2 1.43972 0.64108 0
M  V30 35833 C 3328.45 1.46231 1.40081 0
M  V30 35834 C 3328.78 0.0911352 1.94286 0
M  V30 35835 O 3328.03 -0.905657 1.73483 0
M  V30 35836 C 3328.33 2.46188 2.59088 0
M  V30 35837 C 3328 3.91764 2.2323 0
M  V30 35838 C 3326.66 4.3141 2.13163 0
M  V30 35839 C 3329.01 4.83453 1.94738 0
M  V30 35840 C 3326.34 5.60682 1.72778 0
M  V30 35841 C 3328.69 6.13102 1.55848 0
M  V30 35842 C 3327.36 6.51713 1.44315 0
M  V30 35843 H 3326.63 0.535097 0.512594 0
M  V30 35844 H 3329.27 1.77126 0.727924 0
M  V30 35845 H 3327.58 2.0874 3.31564 0
M  V30 35846 H 3329.28 2.45186 3.17309 0
M  V30 35847 H 3325.87 3.60393 2.3198 0
M  V30 35848 H 3330.05 4.53585 2.0143 0
M  V30 35849 H 3325.31 5.89425 1.62445 0
M  V30 35850 H 3329.48 6.83614 1.32836 0
M  V30 35851 H 3327.11 7.51786 1.12793 0
M  V30 35852 N 3328.68 -0.880575 1.30704 0
M  V30 35853 C 3329.59 -2.01947 1.19393 0
M  V30 35854 C 3330.61 -1.73633 0.112898 0
M  V30 35855 O 3331.78 -1.987 0.328678 0
M  V30 35856 C 3328.85 -3.35054 0.891063 0
M  V30 35857 C 3327.91 -3.76761 2.05791 0
M  V30 35858 C 3327.14 -5.03516 1.7694 0
M  V30 35859 O 3327.37 -5.66096 0.699426 0
M  V30 35860 O 3326.3 -5.41735 2.62309 0
M  V30 35861 H 3330.13 -2.14419 2.15077 0
M  V30 35862 H 3327.71 -1.00724 1.10341 0
M  V30 35863 H 3329.59 -4.14895 0.737549 0
M  V30 35864 H 3328.27 -3.2368 -0.035834 0
M  V30 35865 H 3327.17 -2.97604 2.26677 0
M  V30 35866 H 3328.51 -3.92745 2.96668 0
M  V30 35867 N 3330.16 -1.13492 -1.09349 0
M  V30 35868 C 3331.12 -0.815956 -2.14184 0
M  V30 35869 C 3332.12 0.174948 -1.59845 0
M  V30 35870 O 3333.31 -0.0522277 -1.74122 0
M  V30 35871 C 3330.44 -0.214577 -3.40224 0
M  V30 35872 H 3331.64 -1.74493 -2.4391 0
M  V30 35873 H 3329.19 -0.939656 -1.24901 0
M  V30 35874 H 3329.93 0.723578 -3.16125 0
M  V30 35875 H 3329.71 -0.928169 -3.80956 0
M  V30 35876 H 3331.2 -0.00829339 -4.17599 0
M  V30 35877 N 3331.64 1.27341 -0.928546 0
M  V30 35878 C 3332.6 2.25074 -0.43296 0
M  V30 35879 C 3333.6 1.54406 0.448949 0
M  V30 35880 O 3334.79 1.72398 0.249909 0
M  V30 35881 C 3331.92 3.38804 0.377479 0
M  V30 35882 H 3333.12 2.70429 -1.29647 0
M  V30 35883 H 3330.67 1.39278 -0.709313 0
M  V30 35884 H 3331.4 2.98832 1.25977 0
M  V30 35885 H 3331.19 3.91271 -0.254851 0
M  V30 35886 H 3332.68 4.11441 0.714562 0
M  V30 35887 N 3333.12 0.694147 1.4149 0
M  V30 35888 C 3334.36 0.224845 2.0155 0
M  V30 35889 C 3334.69 -1.17202 1.54846 0
M  V30 35890 O 3333.97 -1.79079 0.759022 0
M  V30 35891 C 3334.25 0.280947 3.59002 0
M  V30 35892 C 3334.11 1.71466 4.15836 0
M  V30 35893 C 3335.42 -0.360045 4.38625 0
M  V30 35894 H 3332.54 0.0831761 0.732291 0
M  V30 35895 H 3335.19 0.882598 1.68256 0
M  V30 35896 H 3333.34 -0.279096 3.87496 0
M  V30 35897 H 3335.01 2.32844 3.98223 0
M  V30 35898 H 3333.25 2.24926 3.70932 0
M  V30 35899 H 3333.92 1.70546 5.24994 0
M  V30 35900 H 3336.4 0.116903 4.15936 0
M  V30 35901 H 3335.27 -0.29024 5.48132 0
M  V30 35902 H 3335.53 -1.44054 4.17972 0
M  V30 35903 N 3334.59 -1.51368 0.438799 0
M  V30 35904 C 3335.56 -2.26351 -0.36028 0
M  V30 35905 C 3336.56 -1.29851 -0.948442 0
M  V30 35906 O 3337.75 -1.53551 -0.822665 0
M  V30 35907 C 3334.88 -3.05639 -1.50989 0
M  V30 35908 H 3336.07 -2.98427 0.296879 0
M  V30 35909 H 3333.62 -1.55116 0.192005 0
M  V30 35910 H 3334.36 -2.37983 -2.20306 0
M  V30 35911 H 3334.14 -3.7652 -1.09431 0
M  V30 35912 H 3335.63 -3.62433 -2.07441 0
M  V30 35913 N 3336.07 -0.170208 -1.56678 0
M  V30 35914 C 3337.3 0.481327 -2.01223 0
M  V30 35915 C 3337.71 1.56881 -1.05042 0
M  V30 35916 O 3337.07 1.82428 -0.0511072 0
M  V30 35917 C 3337.12 1.06067 -3.4559 0
M  V30 35918 O 3336.84 0.0165984 -4.38097 0
M  V30 35919 C 3338.34 1.79054 -4.0553 0
M  V30 35920 H 3335.56 0.123289 -0.659576 0
M  V30 35921 H 3338.11 -0.271612 -2.02688 0
M  V30 35922 H 3336.26 1.76411 -3.44903 0
M  V30 35923 H 3336.68 0.444184 -5.22616 0
M  V30 35924 H 3338.15 2.14852 -5.08471 0
M  V30 35925 H 3338.63 2.68513 -3.47559 0
M  V30 35926 H 3339.23 1.13354 -4.09916 0
M  V30 35927 N 3337.55 1.5726 0.10352 0
M  V30 35928 C 3338.77 1.90233 0.826207 0
M  V30 35929 C 3339.2 0.763671 1.719 0
M  V30 35930 O 3338.56 -0.285149 1.79044 0
M  V30 35931 C 3338.61 3.22031 1.62259 0
M  V30 35932 O 3337.71 3.09028 2.73086 0
M  V30 35933 H 3337.05 0.623804 0.227517 0
M  V30 35934 H 3339.58 2.04439 0.0812711 0
M  V30 35935 H 3339.59 3.55133 2.00859 0
M  V30 35936 H 3338.27 4.04495 0.967312 0
M  V30 35937 H 3336.84 2.87424 2.37575 0
M  V30 35938 N 3339.03 -0.374123 1.53095 0
M  V30 35939 C 3339.96 -1.46401 1.81904 0
M  V30 35940 C 3340.94 -1.56264 0.671977 0
M  V30 35941 O 3342.12 -1.70971 0.921008 0
M  V30 35942 C 3339.25 -2.83842 2.00128 0
M  V30 35943 C 3338.21 -2.88809 3.15869 0
M  V30 35944 C 3337.53 -4.28842 3.19372 0
M  V30 35945 C 3338.83 -2.57104 4.54637 0
M  V30 35946 H 3340.53 -1.22542 2.73174 0
M  V30 35947 H 3338.07 -0.588064 1.31445 0
M  V30 35948 H 3340.03 -3.60106 2.18865 0
M  V30 35949 H 3338.75 -3.0907 1.05561 0
M  V30 35950 H 3337.41 -2.14995 2.96939 0
M  V30 35951 H 3337.06 -4.51133 2.22458 0
M  V30 35952 H 3336.76 -4.33083 3.97131 0
M  V30 35953 H 3338.28 -5.06991 3.40282 0
M  V30 35954 H 3339.7 -3.23083 4.73593 0
M  V30 35955 H 3338.09 -2.72673 5.34574 0
M  V30 35956 H 3339.16 -1.52384 4.60334 0
M  V30 35957 N 3340.51 -1.4431 -0.633436 0
M  V30 35958 C 3341.75 -1.46681 -1.39029 0
M  V30 35959 C 3342.07 -0.0997508 -1.94745 0
M  V30 35960 O 3341.34 0.867628 -1.75639 0
M  V30 35961 H 3339.92 -0.540102 -0.516041 0
M  V30 35962 H 3342.59 -1.8007 -0.745707 0
M  V30 35963 H 3341.68 -2.19089 -2.22276 0
M  V30 35964 N 3341.98 0.873632 -1.3117 0
M  V30 35965 C 3343.4 1.15878 -1.09747 0
M  V30 35966 C 3343.6 2.01051 0.134436 0
M  V30 35967 O 3342.66 2.38648 0.824815 0
M  V30 35968 C 3343.97 1.85446 -2.36707 0
M  V30 35969 C 3345.52 1.98163 -2.42282 0
M  V30 35970 C 3345.99 2.71145 -3.69113 0
M  V30 35971 N 3347.48 2.78684 -3.69986 0
M  V30 35972 C 3348.22 3.35757 -4.64817 0
M  V30 35973 N 3347.71 3.9379 -5.70001 0
M  V30 35974 N 3349.51 3.3368 -4.52343 0
M  V30 35975 H 3341.66 0.305984 -2.10184 0
M  V30 35976 H 3343.92 0.198142 -0.927062 0
M  V30 35977 H 3343.63 1.3031 -3.26668 0
M  V30 35978 H 3343.5 2.85751 -2.46224 0
M  V30 35979 H 3345.89 2.52465 -1.52792 0
M  V30 35980 H 3345.97 0.969122 -2.36731 0
M  V30 35981 H 3345.61 2.17512 -4.58967 0
M  V30 35982 H 3345.54 3.72796 -3.71928 0
M  V30 35983 H 3348.03 2.37493 -2.93948 0
M  V30 35984 H 3348.35 4.35439 -6.38446 0
M  V30 35985 H 3346.69 3.92176 -5.7378 0
M  V30 35986 H 3349.88 2.87578 -3.69346 0
M  V30 35987 H 3350.06 3.77861 -5.26426 0
M  V30 35988 N 3343.46 1.1407 1.08746 0
M  V30 35989 C 3344.69 0.930565 1.85352 0
M  V30 35990 C 3345.11 -0.515685 1.80893 0
M  V30 35991 O 3344.47 -1.3665 1.19149 0
M  V30 35992 C 3344.52 1.43173 3.30959 0
M  V30 35993 O 3343.62 0.621539 4.07689 0
M  V30 35994 H 3342.96 0.332972 0.574479 0
M  V30 35995 H 3345.49 1.51709 1.37279 0
M  V30 35996 H 3345.5 1.43838 3.81804 0
M  V30 35997 H 3344.18 2.4847 3.3352 0
M  V30 35998 H 3342.76 0.683331 3.66586 0
M  V30 35999 N 3344.94 -1.26847 0.935286 0
M  V30 36000 C 3345.89 -2.28573 0.430936 0
M  V30 36001 C 3346.88 -1.62197 -0.48871 0
M  V30 36002 O 3348.09 -1.76207 -0.367574 0
M  V30 36003 H 3344.46 -0.742233 0.120806 0
M  V30 36004 H 3346.43 -2.68519 1.30155 0
M  V30 36005 C 3345.18 -3.46455 -0.293992 0
M  V30 36006 H 3344.51 -3.97749 0.404486 0
M  V30 36007 H 3345.95 -4.19572 -0.611198 0
M  V30 36008 C 3344.41 -3.01181 -1.5097 0
M  V30 36009 O 3344.94 -3.05508 -2.60821 0
M  V30 36010 N 3343.14 -2.5659 -1.36419 0
M  V30 36011 H 3342.69 -2.53268 -0.470439 0
M  V30 36012 H 3342.65 -2.2666 -2.17882 0
M  V30 36013 N 3346.42 -0.701641 -1.4112 0
M  V30 36014 C 3347.65 -0.244402 -2.05451 0
M  V30 36015 C 3348.06 1.10864 -1.52822 0
M  V30 36016 O 3347.42 1.694 -0.67896 0
M  V30 36017 C 3347.47 -0.200175 -3.60945 0
M  V30 36018 O 3347.19 -1.49977 -4.11629 0
M  V30 36019 C 3348.69 0.277316 -4.42432 0
M  V30 36020 H 3345.91 -0.112464 -0.661508 0
M  V30 36021 H 3348.46 -0.955931 -1.80782 0
M  V30 36022 H 3346.61 0.462219 -3.84633 0
M  V30 36023 H 3347.02 -1.39093 -5.05721 0
M  V30 36024 H 3348.5 0.257128 -5.51401 0
M  V30 36025 H 3348.98 1.3172 -4.18983 0
M  V30 36026 H 3349.58 -0.354297 -4.23822 0
M  V30 36027 N 3347.9 1.51133 -0.446821 0
M  V30 36028 C 3349.15 2.01354 0.118011 0
M  V30 36029 C 3349.46 1.33508 1.42951 0
M  V30 36030 O 3350.66 1.7475 2.07785 0
M  V30 36031 C 3349.12 3.58953 0.260849 0
M  V30 36032 C 3348.73 4.35743 -1.04078 0
M  V30 36033 C 3350.47 4.17292 0.778941 0
M  V30 36034 C 3348.38 5.85069 -0.863061 0
M  V30 36035 H 3347.31 0.752478 0.0478783 0
M  V30 36036 H 3349.96 1.74158 -0.578028 0
M  V30 36037 H 3348.34 3.82635 1.02011 0
M  V30 36038 H 3349.52 4.23802 -1.80911 0
M  V30 36039 H 3347.83 3.88901 -1.48812 0
M  V30 36040 H 3350.43 5.26576 0.928543 0
M  V30 36041 H 3350.77 3.77083 1.76392 0
M  V30 36042 H 3351.3 3.97724 0.0777323 0
M  V30 36043 H 3348.04 6.29707 -1.8207 0
M  V30 36044 H 3347.56 5.99649 -0.134693 0
M  V30 36045 H 3349.24 6.44907 -0.520003 0
M  V30 36046 N 3349.37 0.178515 1.56586 0
M  V30 36047 C 3350.62 -0.463665 1.96709 0
M  V30 36048 C 3350.94 -1.6329 1.06589 0
M  V30 36049 O 3350.21 -1.95443 0.133717 0
M  V30 36050 H 3348.79 -0.174286 0.726384 0
M  V30 36051 H 3351.46 0.261379 1.93139 0
M  V30 36052 H 3350.55 -0.818881 3.01166 0
M  V30 36053 N 3350.85 -1.57312 -0.0951784 0
M  V30 36054 C 3352.08 -1.90668 -0.816107 0
M  V30 36055 C 3352.5 -0.772776 -1.71493 0
M  V30 36056 O 3351.86 0.27565 -1.79192 0
M  V30 36057 C 3351.91 -3.22887 -1.60549 0
M  V30 36058 O 3351.01 -3.10471 -2.71443 0
M  V30 36059 H 3350.35 -0.625002 -0.224206 0
M  V30 36060 H 3352.88 -2.04479 -0.0704281 0
M  V30 36061 H 3352.89 -3.56193 -1.98973 0
M  V30 36062 H 3351.57 -4.05002 -0.945847 0
M  V30 36063 H 3350.15 -2.8868 -2.36048 0
M  V30 36064 N 3352.33 0.365999 -1.53291 0
M  V30 36065 C 3353.29 1.43114 -1.79028 0
M  V30 36066 C 3354.29 1.46599 -0.660702 0
M  V30 36067 O 3355.48 1.47367 -0.928901 0
M  V30 36068 C 3352.62 2.82235 -1.91197 0
M  V30 36069 H 3353.81 1.21568 -2.74156 0
M  V30 36070 H 3351.36 0.599107 -1.44362 0
M  V30 36071 H 3352.1 3.09096 -0.981345 0
M  V30 36072 H 3351.88 2.81104 -2.73355 0
M  V30 36073 H 3353.37 3.59371 -2.12702 0
M  V30 36074 N 3353.81 1.44644 0.625774 0
M  V30 36075 C 3355.22 1.42396 1.20748 0
M  V30 36076 C 3355.57 0.142081 1.95685 0
M  V30 36077 O 3354.7 -0.757297 2.02716 0
M  V30 36078 C 3355.29 2.57964 2.19636 0
M  V30 36079 C 3353.85 2.58895 2.73222 0
M  V30 36080 C 3353 2.34306 1.48311 0
M  V30 36081 H 3355.95 1.53147 0.416135 0
M  V30 36082 H 3355.97 2.31024 3.02338 0
M  V30 36083 H 3355.48 3.51247 1.65067 0
M  V30 36084 H 3353.58 1.69569 3.31779 0
M  V30 36085 H 3353.69 3.5755 3.18896 0
M  V30 36086 H 3352.06 1.83504 1.76631 0
M  V30 36087 H 3352.84 3.2971 0.956369 0
M  V30 36088 N 3355.29 -0.866663 1.31631 0
M  V30 36089 C 3356.7 -1.4357 1.1935 0
M  V30 36090 C 3357.05 -1.95191 -0.198731 0
M  V30 36091 O 3356.17 -1.86551 -1.09671 0
M  V30 36092 C 3356.77 -2.60967 2.1606 0
M  V30 36093 C 3355.33 -3.13906 2.07702 0
M  V30 36094 C 3354.47 -1.86623 2.05102 0
M  V30 36095 H 3357.43 -0.674903 1.43634 0
M  V30 36096 H 3357.45 -3.37758 1.75213 0
M  V30 36097 H 3356.96 -2.23366 3.17379 0
M  V30 36098 H 3355.06 -3.56119 1.0959 0
M  V30 36099 H 3355.17 -3.75964 2.96964 0
M  V30 36100 H 3353.54 -2.05724 1.50165 0
M  V30 36101 H 3354.32 -1.51256 3.08183 0
M  V30 36102 N 3356.77 -1.14645 -1.0814 0
M  V30 36103 C 3357.7 -0.858705 -2.17137 0
M  V30 36104 C 3358.68 0.187422 -1.69064 0
M  V30 36105 O 3359.86 0.0435117 -1.94151 0
M  V30 36106 C 3356.99 -0.338401 -3.45647 0
M  V30 36107 C 3355.95 -1.32029 -4.07127 0
M  V30 36108 C 3355.27 -0.659168 -5.30621 0
M  V30 36109 C 3356.57 -2.68351 -4.48091 0
M  V30 36110 H 3358.27 -1.77017 -2.41465 0
M  V30 36111 H 3355.81 -0.852543 -1.1605 0
M  V30 36112 H 3357.76 -0.124685 -4.21216 0
M  V30 36113 H 3356.49 0.608496 -3.20881 0
M  V30 36114 H 3355.15 -1.52022 -3.33594 0
M  V30 36115 H 3354.8 0.293623 -5.02142 0
M  V30 36116 H 3354.5 -1.31437 -5.72711 0
M  V30 36117 H 3356.02 -0.45504 -6.08902 0
M  V30 36118 H 3357.43 -2.52249 -5.14824 0
M  V30 36119 H 3355.83 -3.30169 -5.01107 0
M  V30 36120 H 3356.9 -3.25021 -3.59846 0
M  V30 36121 N 3358.24 1.26349 -0.942 0
M  V30 36122 C 3359.66 1.46011 -0.644439 0
M  V30 36123 C 3359.86 1.84852 0.801999 0
M  V30 36124 O 3358.92 1.97073 1.57856 0
M  V30 36125 C 3360.23 2.54185 -1.60656 0
M  V30 36126 C 3361.78 2.68036 -1.61635 0
M  V30 36127 C 3362.25 3.79382 -2.5658 0
M  V30 36128 N 3363.74 3.86776 -2.5487 0
M  V30 36129 C 3364.48 4.72388 -3.25018 0
M  V30 36130 N 3363.97 5.62382 -4.04596 0
M  V30 36131 N 3365.77 4.66242 -3.13967 0
M  V30 36132 H 3357.92 0.99426 -1.87692 0
M  V30 36133 H 3360.18 0.498049 -0.80663 0
M  V30 36134 H 3359.89 2.32473 -2.63911 0
M  V30 36135 H 3359.76 3.51858 -1.35926 0
M  V30 36136 H 3362.15 2.89121 -0.591041 0
M  V30 36137 H 3362.23 1.70804 -1.9042 0
M  V30 36138 H 3361.87 3.59049 -3.5923 0
M  V30 36139 H 3361.8 4.76072 -2.25085 0
M  V30 36140 H 3364.29 3.22436 -1.97088 0
M  V30 36141 H 3364.61 6.24604 -4.55072 0
M  V30 36142 H 3362.95 5.62132 -4.08696 0
M  V30 36143 H 3366.14 3.94938 -2.5128 0
M  V30 36144 H 3366.32 5.32742 -3.68904 0
M  V30 36145 N 3359.72 0.709115 1.40746 0
M  V30 36146 C 3360.67 0.028967 2.27982 0
M  V30 36147 C 3361.66 -0.739139 1.42918 0
M  V30 36148 O 3362.85 -0.612404 1.66068 0
M  V30 36149 C 3359.98 -0.896798 3.3138 0
M  V30 36150 C 3359.06 -0.124222 4.23918 0
M  V30 36151 N 3359.45 0.889131 4.97924 0
M  V30 36152 C 3357.75 -0.35773 4.44563 0
M  V30 36153 C 3358.45 1.35278 5.65752 0
M  V30 36154 N 3357.43 0.676142 5.39379 0
M  V30 36155 H 3361.23 0.805725 2.8264 0
M  V30 36156 H 3358.74 0.541132 1.53119 0
M  V30 36157 H 3360.74 -1.39932 3.92714 0
M  V30 36158 H 3359.4 -1.673 2.78282 0
M  V30 36159 H 3360.41 1.26979 5.02092 0
M  V30 36160 H 3357.09 -1.11077 4.02453 0
M  V30 36161 H 3358.48 2.19443 6.35055 0
M  V30 36162 N 3361.2 -1.50894 0.454829 0
M  V30 36163 C 3362.42 -2.07128 -0.106222 0
M  V30 36164 C 3362.85 -1.31826 -1.34177 0
M  V30 36165 O 3362.21 -0.361179 -1.77666 0
M  V30 36166 C 3362.26 -3.5849 -0.389546 0
M  V30 36167 O 3361.36 -3.85198 -1.47298 0
M  V30 36168 H 3360.7 -0.663975 0.00581755 0
M  V30 36169 H 3363.23 -1.94293 0.641197 0
M  V30 36170 H 3363.24 -4.0303 -0.634863 0
M  V30 36171 H 3361.92 -4.12719 0.513411 0
M  V30 36172 H 3360.49 -3.52508 -1.21625 0
M  V30 36173 N 3362.68 -0.186817 -1.56489 0
M  V30 36174 C 3363.92 0.44821 -1.984 0
M  V30 36175 C 3364.28 1.59807 -1.07142 0
M  V30 36176 O 3363.57 1.9126 -0.114153 0
M  V30 36177 C 3363.77 0.964254 -3.44147 0
M  V30 36178 C 3363.59 -0.134071 -4.495 0
M  V30 36179 C 3362.36 -0.588939 -5.01856 0
M  V30 36180 C 3364.56 -0.94006 -5.05636 0
M  V30 36181 N 3362.54 -1.66595 -5.90863 0
M  V30 36182 C 3363.92 -1.86665 -5.91233 0
M  V30 36183 C 3365.97 -0.983405 -4.88092 0
M  V30 36184 C 3364.67 -2.83297 -6.61162 0
M  V30 36185 C 3366.7 -1.93774 -5.58754 0
M  V30 36186 C 3366.06 -2.85178 -6.44091 0
M  V30 36187 H 3362.16 0.13167 -0.770835 0
M  V30 36188 H 3364.74 -0.290605 -1.92519 0
M  V30 36189 H 3362.92 1.67254 -3.50544 0
M  V30 36190 H 3364.65 1.5692 -3.73039 0
M  V30 36191 H 3361.4 -0.183795 -4.73243 0
M  V30 36192 H 3361.83 -2.20541 -6.40071 0
M  V30 36193 H 3366.47 -0.290732 -4.21799 0
M  V30 36194 H 3364.19 -3.53545 -7.26658 0
M  V30 36195 H 3367.77 -1.97758 -5.47159 0
M  V30 36196 H 3366.65 -3.5782 -6.97807 0
M  V30 36197 N 3364.16 1.57361 0.0868344 0
M  V30 36198 C 3365.09 1.99344 1.13113 0
M  V30 36199 C 3366.1 0.897175 1.35848 0
M  V30 36200 O 3367.29 1.17522 1.34354 0
M  V30 36201 C 3364.39 2.30429 2.48507 0
M  V30 36202 C 3363.56 3.6171 2.45936 0
M  V30 36203 C 3362.62 3.80637 3.6332 0
M  V30 36204 O 3361.65 4.52398 3.45435 0
M  V30 36205 N 3362.85 3.21843 4.83112 0
M  V30 36206 H 3365.61 2.8954 0.773731 0
M  V30 36207 H 3363.18 1.59535 0.275703 0
M  V30 36208 H 3365.17 2.40277 3.25651 0
M  V30 36209 H 3363.74 1.46198 2.76306 0
M  V30 36210 H 3362.96 3.62755 1.5428 0
M  V30 36211 H 3364.25 4.47939 2.41305 0
M  V30 36212 H 3363.64 2.63569 5.00548 0
M  V30 36213 H 3362.2 3.37164 5.57821 0
M  V30 36214 N 3365.63 -0.357865 1.53483 0
M  V30 36215 C 3366.57 -1.46148 1.7526 0
M  V30 36216 C 3367.54 -1.51078 0.601194 0
M  V30 36217 O 3368.73 -1.69012 0.834691 0
M  V30 36218 C 3365.86 -2.84469 1.83835 0
M  V30 36219 C 3364.9 -2.97229 3.05871 0
M  V30 36220 S 3365.73 -2.65182 4.6523 0
M  V30 36221 C 3366.89 -4.05638 4.76664 0
M  V30 36222 H 3367.12 -1.27457 2.68593 0
M  V30 36223 H 3364.66 -0.552672 1.4417 0
M  V30 36224 H 3366.61 -3.64163 1.89461 0
M  V30 36225 H 3365.28 -3.00465 0.915398 0
M  V30 36226 H 3364.47 -3.98549 3.08504 0
M  V30 36227 H 3364.07 -2.25466 2.98397 0
M  V30 36228 H 3366.36 -4.9998 4.57194 0
M  V30 36229 H 3367.31 -4.08006 5.78737 0
M  V30 36230 H 3367.71 -3.92997 4.05233 0
M  V30 36231 N 3367.11 -1.44974 -0.618094 0
M  V30 36232 C 3368.52 -1.43035 -1.19991 0
M  V30 36233 C 3368.87 -0.152457 -1.95607 0
M  V30 36234 O 3368 0.746536 -2.03115 0
M  V30 36235 C 3368.59 -2.59126 -2.18264 0
M  V30 36236 C 3367.15 -2.6034 -2.71845 0
M  V30 36237 C 3366.3 -2.35089 -1.47066 0
M  V30 36238 H 3369.25 -1.53366 -0.408007 0
M  V30 36239 H 3369.27 -2.32624 -3.01108 0
M  V30 36240 H 3368.78 -3.52117 -1.63202 0
M  V30 36241 H 3366.88 -1.71326 -3.30875 0
M  V30 36242 H 3367 -3.59237 -3.16995 0
M  V30 36243 H 3365.36 -1.84438 -1.75655 0
M  V30 36244 H 3366.14 -3.30212 -0.93887 0
M  V30 36245 N 3368.59 0.85967 -1.32089 0
M  V30 36246 C 3369.54 1.98922 -1.20552 0
M  V30 36247 C 3370.53 1.69033 -0.111451 0
M  V30 36248 O 3371.74 1.77902 -0.274041 0
M  V30 36249 H 3368.11 0.65266 -0.373549 0
M  V30 36250 H 3370.08 2.05781 -2.16094 0
M  V30 36251 C 3368.83 3.34745 -0.940284 0
M  V30 36252 H 3368.16 3.5827 -1.77433 0
M  V30 36253 H 3369.6 4.14343 -0.899785 0
M  V30 36254 C 3368.05 3.35003 0.356983 0
M  V30 36255 O 3368.58 3.77599 1.37048 0
M  V30 36256 N 3366.79 2.88142 0.377179 0
M  V30 36257 H 3366.34 2.53673 -0.448095 0
M  V30 36258 H 3366.3 2.88697 1.24504 0
M  V30 36259 N 3370.07 1.15217 1.0753 0
M  V30 36260 C 3371.32 0.924094 1.79736 0
M  V30 36261 C 3371.64 -0.550323 1.87073 0
M  V30 36262 O 3370.91 -1.39997 1.37031 0
M  V30 36263 H 3369.49 0.338903 0.665698 0
M  V30 36264 H 3372.15 1.45247 1.29958 0
M  V30 36265 H 3371.24 1.33189 2.82254 0
M  V30 36266 N 3371.55 -1.25848 0.948687 0
M  V30 36267 C 3372.5 -2.23812 0.434968 0
M  V30 36268 C 3373.48 -1.53806 -0.47249 0
M  V30 36269 O 3374.67 -1.74326 -0.306512 0
M  V30 36270 C 3371.8 -3.42059 -0.291618 0
M  V30 36271 C 3370.89 -4.19341 0.633566 0
M  V30 36272 N 3371.28 -4.74094 1.76263 0
M  V30 36273 C 3369.58 -4.43818 0.440607 0
M  V30 36274 C 3370.28 -5.32569 2.33978 0
M  V30 36275 N 3369.25 -5.18682 1.62696 0
M  V30 36276 H 3373.06 -2.63746 1.29673 0
M  V30 36277 H 3370.57 -1.41018 0.805456 0
M  V30 36278 H 3372.57 -4.11371 -0.676739 0
M  V30 36279 H 3371.23 -3.03651 -1.15006 0
M  V30 36280 H 3372.24 -4.71409 2.14462 0
M  V30 36281 H 3368.91 -4.15808 -0.375442 0
M  V30 36282 H 3370.3 -5.85756 3.2915 0
M  V30 36283 N 3373.02 -0.716569 -1.40368 0
M  V30 36284 C 3374.25 -0.265793 -2.04883 0
M  V30 36285 C 3374.66 1.09777 -1.54097 0
M  V30 36286 O 3374.01 1.70128 -0.692974 0
M  V30 36287 C 3374.07 -0.168933 -3.59103 0
M  V30 36288 C 3373.73 -1.46794 -4.32782 0
M  V30 36289 C 3374.73 -2.41005 -4.60666 0
M  V30 36290 C 3372.41 -1.72713 -4.71673 0
M  V30 36291 C 3374.41 -3.59381 -5.26426 0
M  V30 36292 C 3372.09 -2.91371 -5.37165 0
M  V30 36293 C 3373.09 -3.84527 -5.64471 0
M  V30 36294 O 3372.78 -5.01104 -6.2861 0
M  V30 36295 H 3372.51 -0.117037 -0.665792 0
M  V30 36296 H 3375.07 -0.97573 -1.80745 0
M  V30 36297 H 3373.3 0.596956 -3.82065 0
M  V30 36298 H 3374.99 0.247411 -4.05145 0
M  V30 36299 H 3375.75 -2.22244 -4.31083 0
M  V30 36300 H 3371.63 -1.01057 -4.49787 0
M  V30 36301 H 3375.17 -4.3211 -5.47656 0
M  V30 36302 H 3371.07 -3.1004 -5.66167 0
M  V30 36303 H 3371.84 -5.01195 -6.47106 0
M  V30 36304 N 3374.5 1.50651 -0.462825 0
M  V30 36305 C 3375.92 1.59174 -0.116508 0
M  V30 36306 C 3376.12 1.47169 1.37635 0
M  V30 36307 O 3375.17 1.32594 2.14884 0
M  V30 36308 C 3376.49 2.93382 -0.659341 0
M  V30 36309 C 3378.04 3.06757 -0.622034 0
M  V30 36310 C 3378.51 4.43527 -1.14227 0
M  V30 36311 N 3380 4.49917 -1.10133 0
M  V30 36312 C 3380.74 5.54118 -1.47446 0
M  V30 36313 N 3380.23 6.65615 -1.92168 0
M  V30 36314 N 3382.03 5.44617 -1.39101 0
M  V30 36315 H 3374.18 1.56698 -1.43386 0
M  V30 36316 H 3376.44 0.740072 -0.592451 0
M  V30 36317 H 3376.15 3.07618 -1.70483 0
M  V30 36318 H 3376.02 3.77072 -0.0983051 0
M  V30 36319 H 3378.41 2.92174 0.414524 0
M  V30 36320 H 3378.49 2.24845 -1.21978 0
M  V30 36321 H 3378.13 4.58858 -2.17742 0
M  V30 36322 H 3378.06 5.24018 -0.520822 0
M  V30 36323 H 3380.55 3.69905 -0.773219 0
M  V30 36324 H 3380.87 7.41176 -2.18809 0
M  V30 36325 H 3379.21 6.66756 -1.96114 0
M  V30 36326 H 3382.4 4.56399 -1.04009 0
M  V30 36327 H 3382.57 6.25707 -1.68507 0
M  V30 36328 N 3375.98 0.195113 1.56388 0
M  V30 36329 C 3377.4 -0.16073 1.58789 0
M  V30 36330 C 3377.6 -1.61029 1.21128 0
M  V30 36331 O 3376.65 -2.34589 0.934035 0
M  V30 36332 C 3377.97 0.141641 3.00366 0
M  V30 36333 C 3379.51 0.0817497 3.12893 0
M  V30 36334 C 3379.99 0.357431 4.56603 0
M  V30 36335 N 3381.48 0.30605 4.62188 0
M  V30 36336 C 3382.21 0.493208 5.71275 0
M  V30 36337 N 3381.71 0.740716 6.88829 0
M  V30 36338 N 3383.5 0.427463 5.60472 0
M  V30 36339 H 3375.65 1.14103 1.79149 0
M  V30 36340 H 3377.92 0.455428 0.831438 0
M  V30 36341 H 3377.62 1.14671 3.32481 0
M  V30 36342 H 3377.5 -0.555769 3.73083 0
M  V30 36343 H 3379.88 -0.913929 2.80591 0
M  V30 36344 H 3379.97 0.812236 2.42562 0
M  V30 36345 H 3379.61 1.35043 4.89618 0
M  V30 36346 H 3379.54 -0.393944 5.25124 0
M  V30 36347 H 3382.03 0.121365 3.77705 0
M  V30 36348 H 3382.34 0.872336 7.67861 0
M  V30 36349 H 3380.69 0.77761 6.90636 0
M  V30 36350 H 3383.88 0.234519 4.67512 0
M  V30 36351 H 3384.05 0.57674 6.45428 0
M  V30 36352 N 3377.46 -1.57404 -0.0784879 0
M  V30 36353 C 3378.87 -1.53611 -0.433116 0
M  V30 36354 C 3379.07 -0.914315 -1.79562 0
M  V30 36355 O 3378.13 -0.513942 -2.47214 0
M  V30 36356 C 3379.44 -2.98285 -0.380334 0
M  V30 36357 C 3380.99 -3.09586 -0.461002 0
M  V30 36358 C 3381.47 -4.55899 -0.438196 0
M  V30 36359 N 3382.96 -4.6051 -0.498467 0
M  V30 36360 C 3383.69 -5.7119 -0.502928 0
M  V30 36361 N 3383.19 -6.91254 -0.462602 0
M  V30 36362 N 3384.98 -5.59413 -0.548984 0
M  V30 36363 H 3377.13 -1.96193 0.813758 0
M  V30 36364 H 3379.4 -0.897712 0.30466 0
M  V30 36365 H 3379.1 -3.47309 0.553993 0
M  V30 36366 H 3378.98 -3.57835 -1.19307 0
M  V30 36367 H 3381.36 -2.6054 -1.38575 0
M  V30 36368 H 3381.44 -2.52959 0.380182 0
M  V30 36369 H 3381.09 -5.05601 0.482677 0
M  V30 36370 H 3381.02 -5.10382 -1.29682 0
M  V30 36371 H 3383.51 -3.74106 -0.534153 0
M  V30 36372 H 3383.82 -7.71371 -0.469747 0
M  V30 36373 H 3382.17 -6.93672 -0.429393 0
M  V30 36374 H 3385.36 -4.64516 -0.578134 0
M  V30 36375 H 3385.53 -6.4567 -0.548992 0
M  V30 36376 N 3378.94 0.34972 -1.53671 0
M  V30 36377 C 3380.35 0.692431 -1.43797 0
M  V30 36378 C 3380.55 1.92676 -0.589753 0
M  V30 36379 O 3379.61 2.52378 -0.0783383 0
M  V30 36380 C 3380.92 0.89083 -2.87202 0
M  V30 36381 C 3382.47 0.98984 -2.96936 0
M  V30 36382 C 3382.94 1.2206 -4.41436 0
M  V30 36383 N 3384.44 1.28794 -4.44934 0
M  V30 36384 C 3385.17 1.48388 -5.53867 0
M  V30 36385 N 3384.67 1.65196 -6.72817 0
M  V30 36386 N 3386.46 1.50886 -5.4147 0
M  V30 36387 H 3378.61 -0.461931 -2.07316 0
M  V30 36388 H 3380.87 -0.144698 -0.936892 0
M  V30 36389 H 3380.58 0.0554477 -3.51656 0
M  V30 36390 H 3380.45 1.79436 -3.31787 0
M  V30 36391 H 3382.84 1.81575 -2.32625 0
M  V30 36392 H 3382.92 0.0633456 -2.55722 0
M  V30 36393 H 3382.57 0.39964 -5.06325 0
M  V30 36394 H 3382.5 2.16056 -4.80237 0
M  V30 36395 H 3384.99 1.17355 -3.59216 0
M  V30 36396 H 3385.3 1.79765 -7.51601 0
M  V30 36397 H 3383.64 1.62344 -6.75773 0
M  V30 36398 H 3386.84 1.37334 -4.47501 0
M  V30 36399 H 3387.01 1.65815 -6.26426 0
M  V30 36400 N 3380.41 1.45299 0.610397 0
M  V30 36401 C 3381.83 1.29643 0.930849 0
M  V30 36402 C 3382.03 0.247393 1.99976 0
M  V30 36403 O 3381.09 -0.35963 2.49926 0
M  V30 36404 C 3382.4 2.6745 1.37444 0
M  V30 36405 C 3383.95 2.75325 1.4888 0
M  V30 36406 C 3384.42 4.1365 1.96616 0
M  V30 36407 N 3385.91 4.1593 2.03854 0
M  V30 36408 C 3386.65 5.19828 2.42006 0
M  V30 36409 N 3386.14 6.34074 2.79146 0
M  V30 36410 N 3387.94 5.07186 2.42321 0
M  V30 36411 H 3380.09 2.12182 -0.0961632 0
M  V30 36412 H 3382.35 0.947797 0.0196316 0
M  V30 36413 H 3382.06 3.4539 0.663215 0
M  V30 36414 H 3381.93 2.95725 2.3415 0
M  V30 36415 H 3384.32 1.9769 2.19095 0
M  V30 36416 H 3384.4 2.50766 0.504962 0
M  V30 36417 H 3384.04 4.91768 1.2699 0
M  V30 36418 H 3383.97 4.35598 2.95909 0
M  V30 36419 H 3386.46 3.33485 1.77753 0
M  V30 36420 H 3386.78 7.09148 3.07131 0
M  V30 36421 H 3385.12 6.37479 2.76849 0
M  V30 36422 H 3388.31 4.1698 2.12709 0
M  V30 36423 H 3388.49 5.88276 2.71727 0
M  V30 36424 N 3381.89 -0.852653 1.32543 0
M  V30 36425 C 3383.14 -1.6038 1.22974 0
M  V30 36426 C 3383.46 -1.93888 -0.207975 0
M  V30 36427 O 3382.73 -1.59796 -1.13323 0
M  V30 36428 H 3381.31 -0.59461 0.452159 0
M  V30 36429 H 3383.97 -1.0198 1.6609 0
M  V30 36430 H 3383.07 -2.53986 1.81377 0
M  V30 36431 N 3383.37 -1.15786 -1.06918 0
M  V30 36432 C 3384.62 -0.933612 -1.79243 0
M  V30 36433 C 3384.94 0.540394 -1.87363 0
M  V30 36434 O 3384.21 1.39269 -1.37772 0
M  V30 36435 H 3382.79 -0.342428 -0.663892 0
M  V30 36436 H 3385.45 -1.45935 -1.29186 0
M  V30 36437 H 3384.55 -1.34684 -2.81544 0
M  V30 36438 N 3384.85 1.25343 -0.955348 0
M  V30 36439 C 3386.26 1.74977 -0.651148 0
M  V30 36440 C 3386.61 1.77617 0.833464 0
M  V30 36441 O 3385.74 1.39748 1.65225 0
M  V30 36442 C 3386.33 3.17762 -1.17527 0
M  V30 36443 C 3384.89 3.64953 -0.921215 0
M  V30 36444 C 3384.04 2.43982 -1.31789 0
M  V30 36445 H 3386.99 1.1122 -1.13207 0
M  V30 36446 H 3387.01 3.7671 -0.535691 0
M  V30 36447 H 3386.52 3.15809 -2.2558 0
M  V30 36448 H 3384.62 3.7232 0.144326 0
M  V30 36449 H 3384.73 4.53054 -1.55818 0
M  V30 36450 H 3383.1 2.43826 -0.736262 0
M  V30 36451 H 3383.88 2.44718 -2.40765 0
M  V30 36452 N 3386.33 0.724003 1.39986 0
M  V30 36453 C 3387.58 0.266622 2.00334 0
M  V30 36454 C 3387.9 -1.14676 1.57716 0
M  V30 36455 O 3387.17 -1.77894 0.820402 0
M  V30 36456 H 3385.75 0.095586 0.740859 0
M  V30 36457 H 3388.41 0.931511 1.71198 0
M  V30 36458 H 3387.5 0.306337 3.10593 0
M  V30 36459 N 3387.81 -1.50403 0.470808 0
M  V30 36460 C 3389.22 -1.86693 0.0156229 0
M  V30 36461 C 3389.57 -1.38563 -1.38905 0
M  V30 36462 O 3388.69 -0.75049 -2.02969 0
M  V30 36463 C 3389.29 -3.38793 0.0215747 0
M  V30 36464 C 3387.85 -3.74496 -0.37814 0
M  V30 36465 C 3386.99 -2.74294 0.407174 0
M  V30 36466 H 3389.94 -1.43151 0.685096 0
M  V30 36467 H 3389.97 -3.72406 -0.780652 0
M  V30 36468 H 3389.48 -3.73793 1.04404 0
M  V30 36469 H 3387.58 -3.45096 -1.40497 0
M  V30 36470 H 3387.69 -4.79034 -0.0796801 0
M  V30 36471 H 3386.06 -2.5432 -0.139078 0
M  V30 36472 H 3386.84 -3.12138 1.42915 0
M  V30 36473 N 3389.28 -0.203404 -1.56282 0
M  V30 36474 C 3390.53 0.432312 -1.97422 0
M  V30 36475 C 3390.85 1.61574 -1.09173 0
M  V30 36476 O 3390.12 1.95206 -0.164793 0
M  V30 36477 H 3388.7 0.162708 -0.729065 0
M  V30 36478 H 3391.36 -0.292073 -1.92699 0
M  V30 36479 H 3390.46 0.770864 -3.0243 0
M  V30 36480 N 3390.76 1.57444 0.0701393 0
M  V30 36481 C 3391.69 1.99102 1.11505 0
M  V30 36482 C 3392.67 0.868219 1.3748 0
M  V30 36483 O 3393.86 1.13066 1.50825 0
M  V30 36484 C 3390.98 2.32914 2.45904 0
M  V30 36485 C 3390.03 3.5522 2.36053 0
M  V30 36486 S 3390.86 5.05992 1.75307 0
M  V30 36487 C 3392.02 5.43006 3.11279 0
M  V30 36488 H 3392.25 2.87421 0.760046 0
M  V30 36489 H 3389.78 1.51863 0.278729 0
M  V30 36490 H 3391.74 2.53069 3.23212 0
M  V30 36491 H 3390.4 1.45122 2.78565 0
M  V30 36492 H 3389.6 3.76401 3.3517 0
M  V30 36493 H 3389.2 3.34704 1.6688 0
M  V30 36494 H 3391.49 5.41178 4.07593 0
M  V30 36495 H 3392.43 6.4378 2.94877 0
M  V30 36496 H 3392.84 4.70469 3.11961 0
M  V30 36497 N 3392.24 -0.341566 1.53854 0
M  V30 36498 C 3393.17 -1.44281 1.768 0
M  V30 36499 C 3394.15 -1.50431 0.617184 0
M  V30 36500 O 3395.33 -1.68117 0.85257 0
M  V30 36501 C 3392.46 -2.82503 1.86842 0
M  V30 36502 C 3391.51 -2.93968 3.09006 0
M  V30 36503 S 3392.34 -2.60232 4.68016 0
M  V30 36504 C 3393.5 -4.00559 4.8094 0
M  V30 36505 H 3393.73 -1.24601 2.69929 0
M  V30 36506 H 3391.26 -0.53735 1.44748 0
M  V30 36507 H 3393.22 -3.62133 1.93313 0
M  V30 36508 H 3391.88 -2.99477 0.947215 0
M  V30 36509 H 3391.07 -3.95255 3.12714 0
M  V30 36510 H 3390.68 -2.22289 3.00772 0
M  V30 36511 H 3392.97 -4.95103 4.62471 0
M  V30 36512 H 3393.91 -4.01845 5.83032 0
M  V30 36513 H 3394.32 -3.88676 4.09379 0
M  V30 36514 N 3393.72 -1.45621 -0.602683 0
M  V30 36515 C 3394.96 -1.51437 -1.37281 0
M  V30 36516 C 3395.32 -0.154182 -1.9138 0
M  V30 36517 O 3396.52 -0.0870482 -2.68659 0
M  V30 36518 C 3394.79 -2.56729 -2.48646 0
M  V30 36519 S 3396.35 -2.81806 -3.3635 0
M  V30 36520 H 3393.17 -0.53528 -0.46797 0
M  V30 36521 H 3395.77 -1.82732 -0.694925 0
M  V30 36522 H 3394.48 -3.54219 -2.07261 0
M  V30 36523 H 3394.01 -2.27101 -3.2123 0
M  V30 36524 H 3396.02 -2.15557 -4.46933 0
M  V30 36525 N 3395.2 0.845612 -1.32993 0
M  V30 36526 C 3396.44 1.59726 -1.23822 0
M  V30 36527 C 3396.76 1.93995 0.19769 0
M  V30 36528 O 3396.03 1.60394 1.12474 0
M  V30 36529 H 3394.61 0.592204 -0.455306 0
M  V30 36530 H 3397.28 1.01098 -1.66629 0
M  V30 36531 H 3396.37 2.5302 -1.82722 0
M  V30 36532 N 3396.67 1.16351 1.06302 0
M  V30 36533 C 3397.64 0.872457 2.11945 0
M  V30 36534 C 3398.64 -0.132506 1.60253 0
M  V30 36535 O 3399.83 0.0983747 1.73922 0
M  V30 36536 C 3396.96 0.304706 3.39535 0
M  V30 36537 H 3398.15 1.80899 2.39198 0
M  V30 36538 H 3395.7 0.97244 1.22365 0
M  V30 36539 H 3396.44 -0.639509 3.17932 0
M  V30 36540 H 3396.22 1.02885 3.78361 0
M  V30 36541 H 3397.71 0.11901 4.1743 0
M  V30 36542 N 3398.15 -1.24835 0.961982 0
M  V30 36543 C 3399.4 -1.93037 0.621668 0
M  V30 36544 C 3399.73 -1.75082 -0.840226 0
M  V30 36545 O 3399.01 -1.1004 -1.60379 0
M  V30 36546 C 3399.29 -3.46219 0.990167 0
M  V30 36547 C 3399.14 -3.73367 2.50833 0
M  V30 36548 C 3400.46 -4.37011 0.520555 0
M  V30 36549 H 3397.58 -0.701065 0.227324 0
M  V30 36550 H 3400.22 -1.47313 1.19996 0
M  V30 36551 H 3398.37 -3.85294 0.498076 0
M  V30 36552 H 3400.04 -3.43885 3.07475 0
M  V30 36553 H 3398.29 -3.18717 2.94282 0
M  V30 36554 H 3398.96 -4.80522 2.71667 0
M  V30 36555 H 3401.43 -4.05279 0.942774 0
M  V30 36556 H 3400.31 -5.42935 0.807013 0
M  V30 36557 H 3400.57 -4.38286 -0.57943 0
M  V30 36558 N 3399.63 -0.731417 -1.396 0
M  V30 36559 C 3400.58 -0.0781737 -2.32469 0
M  V30 36560 C 3401.57 0.729784 -1.52874 0
M  V30 36561 O 3402.78 0.631372 -1.68564 0
M  V30 36562 H 3399.15 -0.00647837 -0.751972 0
M  V30 36563 H 3401.12 -0.877883 -2.85194 0
M  V30 36564 C 3399.87 0.817658 -3.37949 0
M  V30 36565 H 3399.2 0.205347 -3.99272 0
M  V30 36566 H 3400.64 1.24241 -4.05389 0
M  V30 36567 C 3399.09 1.95033 -2.74707 0
M  V30 36568 O 3399.62 3.04264 -2.62271 0
M  V30 36569 N 3397.83 1.73868 -2.32848 0
M  V30 36570 H 3397.38 0.850278 -2.43163 0
M  V30 36571 H 3397.34 2.49829 -1.90874 0
M  V30 36572 N 3401.11 1.50152 -0.478778 0
M  V30 36573 C 3402.06 2.30314 0.325334 0
M  V30 36574 C 3403.05 1.37937 0.983348 0
M  V30 36575 O 3404.26 1.55093 0.913574 0
M  V30 36576 H 3400.63 0.741746 0.123762 0
M  V30 36577 H 3402.6 2.96084 -0.371056 0
M  V30 36578 C 3401.35 3.18698 1.3902 0
M  V30 36579 H 3400.67 3.89693 0.89326 0
M  V30 36580 H 3402.11 3.77769 1.92526 0
M  V30 36581 C 3400.57 2.36807 2.39633 0
M  V30 36582 O 3401.1 2.05655 3.45063 0
M  V30 36583 N 3399.31 1.99244 2.11543 0
M  V30 36584 H 3398.86 2.24778 1.25828 0
M  V30 36585 H 3398.81 1.44756 2.79093 0
M  V30 36586 N 3402.59 0.211689 1.56172 0
M  V30 36587 C 3403.52 -0.697336 2.22844 0
M  V30 36588 C 3404.5 -1.20864 1.19691 0
M  V30 36589 O 3405.68 -1.25444 1.48248 0
M  V30 36590 C 3402.81 -1.90988 2.9007 0
M  V30 36591 C 3401.77 -1.53283 3.9961 0
M  V30 36592 C 3401.09 -2.82335 4.54083 0
M  V30 36593 C 3402.39 -0.730242 5.1717 0
M  V30 36594 H 3404.09 -0.141481 2.99066 0
M  V30 36595 H 3401.63 -0.0666085 1.43846 0
M  V30 36596 H 3403.59 -2.55117 3.354 0
M  V30 36597 H 3402.31 -2.49054 2.1128 0
M  V30 36598 H 3400.97 -0.915052 3.54996 0
M  V30 36599 H 3400.62 -3.38525 3.72035 0
M  V30 36600 H 3400.32 -2.57844 5.28006 0
M  V30 36601 H 3401.84 -3.47423 5.02125 0
M  V30 36602 H 3403.25 -1.275 5.58942 0
M  V30 36603 H 3401.65 -0.582811 5.97263 0
M  V30 36604 H 3402.72 0.265242 4.84174 0
M  V30 36605 N 3404.06 -1.57479 -0.0617887 0
M  V30 36606 C 3404.99 -2.07413 -1.07248 0
M  V30 36607 C 3405.98 -0.969674 -1.39755 0
M  V30 36608 O 3407.16 -1.243 -1.49208 0
M  V30 36609 C 3404.29 -2.52639 -2.38308 0
M  V30 36610 C 3403.24 -3.67052 -2.2013 0
M  V30 36611 C 3402.57 -3.98368 -3.56661 0
M  V30 36612 C 3403.87 -4.96728 -1.61428 0
M  V30 36613 H 3405.56 -2.92104 -0.656932 0
M  V30 36614 H 3403.11 -1.40522 -0.314554 0
M  V30 36615 H 3405.06 -2.86186 -3.09314 0
M  V30 36616 H 3403.79 -1.64989 -2.81862 0
M  V30 36617 H 3402.45 -3.33803 -1.51563 0
M  V30 36618 H 3402.09 -3.07833 -3.97804 0
M  V30 36619 H 3401.79 -4.75414 -3.45334 0
M  V30 36620 H 3403.32 -4.3442 -4.29082 0
M  V30 36621 H 3404.73 -5.28442 -2.22311 0
M  V30 36622 H 3403.13 -5.78164 -1.60769 0
M  V30 36623 H 3404.2 -4.81458 -0.57671 0
M  V30 36624 N 3405.54 0.333401 -1.54033 0
M  V30 36625 C 3406.77 1.09668 -1.76033 0
M  V30 36626 C 3407.19 1.81253 -0.502876 0
M  V30 36627 O 3406.55 1.72913 0.54506 0
M  V30 36628 C 3406.6 2.07804 -2.94703 0
M  V30 36629 O 3405.7 3.15517 -2.65561 0
M  V30 36630 H 3405.04 0.316682 -0.583617 0
M  V30 36631 H 3407.57 0.380697 -2.01027 0
M  V30 36632 H 3407.58 2.50847 -3.21776 0
M  V30 36633 H 3406.26 1.551 -3.85898 0
M  V30 36634 H 3404.84 2.77219 -2.49407 0
M  V30 36635 N 3407.02 1.45939 0.594952 0
M  V30 36636 C 3408.3 1.41088 1.35475 0
M  V30 36637 C 3408.68 0.0879883 2.10917 0
M  V30 36638 O 3408.03 -0.930287 2.08705 0
M  V30 36639 C 3408.24 2.63275 2.29101 0
M  V30 36640 C 3409.58 3.08903 2.91315 0
M  V30 36641 O 3410.61 2.63737 2.39418 0
M  V30 36642 O 3409.47 3.8732 3.85546 0
M  V30 36643 H 3406.56 0.560496 0.60809 0
M  V30 36644 H 3409.11 1.58087 0.616988 0
M  V30 36645 H 3407.88 3.51127 1.72701 0
M  V30 36646 H 3407.5 2.48674 3.10237 0
M  V30 36647 N 3408.5 -0.838547 1.3344 0
M  V30 36648 C 3409.73 -1.6259 1.27954 0
M  V30 36649 C 3410.14 -1.88207 -0.149469 0
M  V30 36650 O 3409.5 -1.46246 -1.09171 0
M  V30 36651 C 3409.55 -2.97591 2.05235 0
M  V30 36652 O 3409.27 -2.73099 3.42562 0
M  V30 36653 C 3410.77 -3.92021 2.06964 0
M  V30 36654 H 3407.99 -0.505897 0.440805 0
M  V30 36655 H 3410.54 -1.04447 1.75816 0
M  V30 36656 H 3408.69 -3.52335 1.61055 0
M  V30 36657 H 3409.1 -3.5907 3.82321 0
M  V30 36658 H 3410.58 -4.83962 2.6549 0
M  V30 36659 H 3411.06 -4.26217 1.05998 0
M  V30 36660 H 3411.66 -3.43215 2.51164 0
M  V30 36661 N 3409.98 -1.16914 -1.05683 0
M  V30 36662 C 3410.89 -0.895838 -2.16822 0
M  V30 36663 C 3411.9 0.134185 -1.73482 0
M  V30 36664 O 3413.08 -0.0439129 -2.01352 0
M  V30 36665 C 3410.14 -0.407488 -3.44297 0
M  V30 36666 C 3409.2 -1.50349 -4.02111 0
M  V30 36667 C 3408.44 -1.03835 -5.23502 0
M  V30 36668 O 3408.66 0.109478 -5.70295 0
M  V30 36669 O 3407.59 -1.8293 -5.73428 0
M  V30 36670 H 3411.42 -1.82537 -2.42722 0
M  V30 36671 H 3409.01 -0.94961 -1.15338 0
M  V30 36672 H 3410.89 -0.14243 -4.21159 0
M  V30 36673 H 3409.56 0.493953 -3.19909 0
M  V30 36674 H 3408.47 -1.82237 -3.26712 0
M  V30 36675 H 3409.8 -2.38046 -4.30807 0
M  V30 36676 N 3411.45 1.24323 -0.968589 0
M  V30 36677 C 3412.36 2.29054 -0.50707 0
M  V30 36678 C 3413.38 1.68542 0.432401 0
M  V30 36679 O 3414.56 1.99074 0.305225 0
M  V30 36680 C 3411.62 3.46154 0.194529 0
M  V30 36681 C 3410.68 4.22064 -0.784879 0
M  V30 36682 C 3409.92 5.33572 -0.116668 0
M  V30 36683 O 3410.14 5.59794 1.09482 0
M  V30 36684 O 3409.07 5.96435 -0.809275 0
M  V30 36685 H 3412.9 2.70651 -1.37775 0
M  V30 36686 H 3410.48 1.30032 -0.735667 0
M  V30 36687 H 3412.37 4.17269 0.588611 0
M  V30 36688 H 3411.04 3.06533 1.04016 0
M  V30 36689 H 3409.95 3.53321 -1.22944 0
M  V30 36690 H 3411.28 4.65504 -1.59895 0
M  V30 36691 N 3412.93 0.73881 1.3921 0
M  V30 36692 C 3414.21 0.214567 1.9442 0
M  V30 36693 C 3414.59 -1.2844 1.6753 0
M  V30 36694 O 3413.94 -2.05181 1.00564 0
M  V30 36695 C 3414.15 0.552293 3.44602 0
M  V30 36696 C 3415.5 0.503738 4.21601 0
M  V30 36697 O 3416.52 0.489709 3.52818 0
M  V30 36698 O 3415.38 0.501626 5.44193 0
M  V30 36699 H 3412.47 0.0404392 0.826011 0
M  V30 36700 H 3415.02 0.817928 1.48688 0
M  V30 36701 H 3413.79 1.58813 3.57623 0
M  V30 36702 H 3413.41 -0.0798398 3.9752 0
M  V30 36703 N 3414.41 -1.49895 0.486734 0
M  V30 36704 C 3415.69 -1.95199 -0.125148 0
M  V30 36705 C 3416.07 -1.42774 -1.55496 0
M  V30 36706 O 3415.42 -0.635361 -2.19489 0
M  V30 36707 C 3415.63 -3.48961 -0.0524368 0
M  V30 36708 C 3416.97 -4.23957 -0.23352 0
M  V30 36709 O 3418 -3.55969 -0.128295 0
M  V30 36710 O 3416.86 -5.44663 -0.447767 0
M  V30 36711 H 3413.95 -0.820545 -0.103127 0
M  V30 36712 H 3416.5 -1.606 0.548254 0
M  V30 36713 H 3415.27 -3.79712 0.94523 0
M  V30 36714 H 3414.89 -3.90139 -0.766614 0
M  V30 36715 N 3415.89 -0.219968 -1.56057 0
M  V30 36716 C 3416.84 0.690807 -2.20219 0
M  V30 36717 C 3417.81 1.19149 -1.15727 0
M  V30 36718 O 3418.99 1.25087 -1.44076 0
M  V30 36719 C 3416.13 1.89403 -2.8848 0
M  V30 36720 C 3415.24 1.43239 -4.07562 0
M  V30 36721 C 3414.38 2.59305 -4.6361 0
M  V30 36722 C 3413.42 2.0987 -5.74997 0
M  V30 36723 N 3412.56 3.19203 -6.25343 0
M  V30 36724 H 3417.4 0.13694 -2.97685 0
M  V30 36725 H 3414.93 0.0558392 -1.46994 0
M  V30 36726 H 3416.89 2.60045 -3.2624 0
M  V30 36727 H 3415.52 2.4208 -2.13535 0
M  V30 36728 H 3414.57 0.620947 -3.75298 0
M  V30 36729 H 3415.88 1.02989 -4.88052 0
M  V30 36730 H 3415.04 3.38033 -5.03804 0
M  V30 36731 H 3413.78 3.02843 -3.82279 0
M  V30 36732 H 3412.78 1.29604 -5.34306 0
M  V30 36733 H 3414.01 1.67334 -6.58161 0
M  V30 36734 H 3411.95 3.62226 -5.46926 0
M  V30 36735 H 3411.87 2.832 -7.00952 0
M  V30 36736 H 3413.14 3.98071 -6.70194 0
M  V30 36737 N 3417.37 1.57509 0.0534363 0
M  V30 36738 C 3418.61 1.89977 0.754198 0
M  V30 36739 C 3418.97 0.815864 1.73804 0
M  V30 36740 O 3420.17 1.02414 2.48525 0
M  V30 36741 C 3418.44 3.27649 1.42762 0
M  V30 36742 S 3420 3.81903 2.16091 0
M  V30 36743 H 3416.82 0.665444 0.250409 0
M  V30 36744 H 3419.42 1.95498 0.00960447 0
M  V30 36745 H 3418.13 4.0442 0.698016 0
M  V30 36746 H 3417.66 3.25371 2.21127 0
M  V30 36747 H 3419.67 3.58666 3.42889 0
M  V30 36748 O 3418.88 -0.196728 1.60297 0
M  V30 36749 H 3419.58 -0.835748 1.74742 0
M  V30 END ATOM
M  V30 BEGIN BOND
M  V30 END BOND
M  V30 END CTAB
M  END
$$$$
