drugbank_target|P48552 Nuclear receptor-interacting protein 1 (DB06884)
 OpenBabel12092120383D

  0  0  0     0  0            999 V3000
M  V30 BEGIN CTAB
M  V30 COUNTS 17702 17862 0 0 0
M  V30 BEGIN ATOM
M  V30 1 H -0.908 1.98254 -0.117106 0
M  V30 2 N 0 1.576 0 0
M  V30 3 C 0.933 2.03868 1.02534 0
M  V30 4 C 1.911 0.928543 1.3348 0
M  V30 5 O 3.095 1.19667 1.45644 0
M  V30 6 C 0.222 2.43627 2.35294 0
M  V30 7 C -0.732 3.65373 2.2001 0
M  V30 8 S 0.101 5.13292 1.52614 0
M  V30 9 C 1.257 5.56322 2.86805 0
M  V30 10 H 1.49 2.90518 0.631377 0
M  V30 11 H -0.977 1.52953 0.210867 0
M  V30 12 H 0.981 2.67203 3.11629 0
M  V30 13 H -0.358 1.57376 2.7183 0
M  V30 14 H -1.165 3.90944 3.18086 0
M  V30 15 H -1.563 3.418 1.51819 0
M  V30 16 H 0.729 5.58782 3.83104 0
M  V30 17 H 1.672 6.56266 2.65933 0
M  V30 18 H 2.08 4.83886 2.90714 0
M  V30 19 N 1.4781 -0.272755 1.55222 0
M  V30 20 C 2.7061 -1.02255 1.79865 0
M  V30 21 C 3.1211 -1.79924 0.572088 0
M  V30 22 O 2.4781 -1.76638 -0.458842 0
M  V30 23 C 2.5291 -1.98094 3.02392 0
M  V30 24 O 2.2501 -1.23572 4.20311 0
M  V30 25 C 3.7511 -2.84884 3.39641 0
M  V30 26 H 0.9711 -0.302057 0.599168 0
M  V30 27 H 3.5151 -0.303465 2.02236 0
M  V30 28 H 1.6701 -2.65465 2.82147 0
M  V30 29 H 2.0841 -1.88172 4.89583 0
M  V30 30 H 3.5581 -3.47927 4.28545 0
M  V30 31 H 4.0351 -3.54665 2.59055 0
M  V30 32 H 4.6411 -2.23003 3.62146 0
M  V30 33 N 2.9562 -1.48159 -0.537278 0
M  V30 34 C 3.9062 -1.5854 -1.63857 0
M  V30 35 C 4.8902 -0.442969 -1.54682 0
M  V30 36 O 6.0822 -0.69401 -1.62827 0
M  V30 37 C 3.2112 -1.62144 -3.02596 0
M  V30 38 C 2.2972 -2.81841 -3.16901 0
M  V30 39 N 2.6882 -4.06337 -3.01204 0
M  V30 40 C 0.9862 -2.79021 -3.47942 0
M  V30 41 C 1.6872 -4.86606 -3.18731 0
M  V30 42 N 0.6632 -4.19288 -3.45974 0
M  V30 43 H 4.4652 -2.5255 -1.50319 0
M  V30 44 H 1.9792 -1.4443 -0.742555 0
M  V30 45 H 3.9762 -1.67674 -3.81695 0
M  V30 46 H 2.6362 -0.69245 -3.17231 0
M  V30 47 H 3.6472 -4.36888 -2.78117 0
M  V30 48 H 0.3242 -1.95347 -3.6898 0
M  V30 49 H 1.7142 -5.95385 -3.11394 0
M  V30 50 N 4.4343 0.785586 -1.36625 0
M  V30 51 C 5.6823 1.54057 -1.30808 0
M  V30 52 C 6.0033 1.94683 0.111157 0
M  V30 53 O 5.2733 1.65241 1.05224 0
M  V30 54 H 3.8533 0.571354 -0.481211 0
M  V30 55 H 6.5153 0.935821 -1.70963 0
M  V30 56 H 5.6113 2.44637 -1.93801 0
M  V30 57 N 5.9124 1.20967 1.01018 0
M  V30 58 C 6.8224 0.980157 2.13143 0
M  V30 59 C 7.8384 -0.0660665 1.73875 0
M  V30 60 O 9.0144 0.122821 2.01025 0
M  V30 61 C 6.0794 0.54216 3.42435 0
M  V30 62 C 5.1404 1.65999 3.95908 0
M  V30 63 C 4.3734 1.2428 5.19028 0
M  V30 64 O 4.5964 0.114196 5.70286 0
M  V30 65 O 3.5304 2.05271 5.65816 0
M  V30 66 H 7.3564 1.91913 2.35379 0
M  V30 67 H 4.9414 0.994099 1.11526 0
M  V30 68 H 6.8234 0.30744 4.20277 0
M  V30 69 H 5.4984 -0.36815 3.216 0
M  V30 70 H 4.4054 1.94906 3.19316 0
M  V30 71 H 5.7384 2.54753 4.21143 0
M  V30 72 N 7.3905 -1.2043 1.01659 0
M  V30 73 C 8.3005 -2.2689 0.596484 0
M  V30 74 C 9.3165 -1.70107 -0.36599 0
M  V30 75 O 10.4925 -2.00117 -0.226942 0
M  V30 76 C 7.5575 -3.4665 -0.0586659 0
M  V30 77 C 6.6185 -4.18662 0.949751 0
M  V30 78 C 5.8515 -5.32705 0.32577 0
M  V30 79 O 6.0745 -5.63656 -0.874509 0
M  V30 80 O 5.0085 -5.92803 1.04249 0
M  V30 81 H 8.8345 -2.65041 1.4828 0
M  V30 82 H 6.4195 -1.27048 0.786082 0
M  V30 83 H 8.3015 -4.19256 -0.424564 0
M  V30 84 H 6.9765 -3.10375 -0.91918 0
M  V30 85 H 5.8835 -3.48229 1.36702 0
M  V30 86 H 7.2165 -4.58878 1.78023 0
M  V30 87 N 8.8686 -0.792821 -1.36206 0
M  V30 88 C 9.7986 -0.207853 -2.32573 0
M  V30 89 C 10.7796 0.659055 -1.56813 0
M  V30 90 O 11.9646 0.592176 -1.84951 0
M  V30 91 C 9.0946 0.655449 -3.41059 0
M  V30 92 C 8.0486 -0.111842 -4.27854 0
M  V30 93 C 7.3746 0.872274 -5.27537 0
M  V30 94 C 8.6746 -1.30299 -5.05786 0
M  V30 95 H 10.3686 -1.01294 -2.81744 0
M  V30 96 H 7.9146 -0.48854 -1.3546 0
M  V30 97 H 9.8676 1.07464 -4.07467 0
M  V30 98 H 8.5916 1.49328 -2.90463 0
M  V30 99 H 7.2506 -0.512053 -3.63006 0
M  V30 100 H 6.8986 1.70523 -4.73214 0
M  V30 101 H 6.5986 0.363291 -5.86476 0
M  V30 102 H 8.1226 1.28996 -5.96818 0
M  V30 103 H 9.5366 -0.959379 -5.65216 0
M  V30 104 H 7.9336 -1.7455 -5.74154 0
M  V30 105 H 9.0036 -2.09663 -4.37229 0
M  V30 106 N 10.3467 1.47872 -0.545128 0
M  V30 107 C 11.5947 2.02093 -0.016553 0
M  V30 108 C 11.9157 1.42305 1.3332 0
M  V30 109 O 11.1857 0.593853 1.86682 0
M  V30 110 H 9.7657 0.746993 -0.00313038 0
M  V30 111 H 12.4277 1.81414 -0.712397 0
M  V30 112 H 11.5237 3.11996 0.0805422 0
M  V30 113 N 11.8248 0.280983 1.55075 0
M  V30 114 C 13.0498 -0.340154 2.04592 0
M  V30 115 C 13.4748 -1.48246 1.15779 0
M  V30 116 O 12.8328 -1.80614 0.15761 0
M  V30 117 C 12.8808 -0.793104 3.5177 0
M  V30 118 O 11.9848 -1.89981 3.66034 0
M  V30 119 H 11.3258 -0.0694289 0.66036 0
M  V30 120 H 13.8558 0.416993 2.00306 0
M  V30 121 H 13.8658 -1.08729 3.93245 0
M  V30 122 H 12.5408 0.0426163 4.15878 0
M  V30 123 H 11.1178 -1.60771 3.36463 0
M  V30 124 N 13.3029 -1.57598 0.00835791 0
M  V30 125 C 14.5799 -1.82172 -0.712235 0
M  V30 126 C 14.9599 -0.887873 -1.9152 0
M  V30 127 O 14.3079 0.06146 -2.28417 0
M  V30 128 C 14.5179 -3.30875 -1.11008 0
M  V30 129 C 15.8659 -3.96826 -1.51044 0
M  V30 130 O 16.8899 -3.35248 -1.20364 0
M  V30 131 O 15.7489 -5.05318 -2.08125 0
M  V30 132 H 12.8429 -0.750435 -0.347529 0
M  V30 133 H 15.3889 -1.69665 0.0344523 0
M  V30 134 H 14.1609 -3.90481 -0.252982 0
M  V30 135 H 13.7839 -3.48412 -1.9156 0
M  V30 136 N 14.781 0.264519 -1.55364 0
M  V30 137 C 16.027 0.99646 -1.76631 0
M  V30 138 C 16.36 1.85632 -0.570478 0
M  V30 139 O 15.635 1.89647 0.43175 0
M  V30 140 C 15.918 1.87187 -3.07625 0
M  V30 141 C 15.771 1.04138 -4.37579 0
M  V30 142 C 17.09 2.85749 -3.34717 0
M  V30 143 H 14.209 0.360841 -0.642622 0
M  V30 144 H 16.851 0.268218 -1.88097 0
M  V30 145 H 15.001 2.49279 -2.9798 0
M  V30 146 H 16.673 0.440517 -4.59192 0
M  V30 147 H 14.916 0.345115 -4.32425 0
M  V30 148 H 15.587 1.68729 -5.2558 0
M  V30 149 H 18.063 2.33793 -3.4421 0
M  V30 150 H 16.939 3.44136 -4.27623 0
M  V30 151 H 17.2 3.61311 -2.54768 0
M  V30 152 N 16.2591 1.48442 0.529413 0
M  V30 153 C 17.2091 1.59407 1.63014 0
M  V30 154 C 18.1931 0.451166 1.54445 0
M  V30 155 O 19.3851 0.702635 1.62456 0
M  V30 156 C 16.5141 1.63746 3.01732 0
M  V30 157 C 15.6001 2.83518 3.15402 0
M  V30 158 N 15.9911 4.07929 2.99045 0
M  V30 159 C 14.2891 2.80862 3.46457 0
M  V30 160 C 14.9901 4.8829 3.16146 0
M  V30 161 N 13.9661 4.21117 3.43746 0
M  V30 162 H 17.7681 2.53343 1.48978 0
M  V30 163 H 15.2821 1.44821 0.734885 0
M  V30 164 H 17.2791 1.69695 3.80801 0
M  V30 165 H 15.9391 0.709264 3.16859 0
M  V30 166 H 16.9501 4.38357 2.75796 0
M  V30 167 H 13.6271 1.97301 3.67938 0
M  V30 168 H 15.0171 5.97028 3.08232 0
M  V30 169 N 17.7372 -0.778329 1.37039 0
M  V30 170 C 18.6692 -1.90034 1.2814 0
M  V30 171 C 19.6822 -1.61585 0.198558 0
M  V30 172 O 20.8712 -1.72625 0.454175 0
M  V30 173 C 17.9712 -3.25108 0.956968 0
M  V30 174 C 17.1442 -3.81253 2.14394 0
M  V30 175 C 16.2032 -4.94789 1.79082 0
M  V30 176 O 15.2292 -5.10721 2.51301 0
M  V30 177 N 16.4312 -5.75878 0.731043 0
M  V30 178 H 19.1962 -1.98186 2.24816 0
M  V30 179 H 16.7572 -0.957129 1.30578 0
M  V30 180 H 18.7492 -3.9857 0.701701 0
M  V30 181 H 17.3192 -3.125 0.0789812 0
M  V30 182 H 16.5392 -2.99647 2.56135 0
M  V30 183 H 17.8272 -4.15495 2.93668 0
M  V30 184 H 17.2252 -5.65547 0.131618 0
M  V30 185 H 15.7822 -6.49596 0.535622 0
M  V30 186 N 19.2153 -1.21501 -1.00376 0
M  V30 187 C 20.4923 -0.941745 -1.71437 0
M  V30 188 C 20.8723 0.546114 -2.03914 0
M  V30 189 O 20.2203 1.51128 -1.71384 0
M  V30 190 C 20.4303 -1.82812 -2.97289 0
M  V30 191 C 21.7783 -2.07771 -3.70292 0
M  V30 192 O 22.8023 -1.80171 -3.07273 0
M  V30 193 O 21.6613 -2.54456 -4.83647 0
M  V30 194 H 18.7553 -0.353243 -0.747762 0
M  V30 195 H 21.3013 -1.32436 -1.06108 0
M  V30 196 H 20.0733 -2.83501 -2.69709 0
M  V30 197 H 19.6963 -1.4464 -3.70358 0
M  V30 198 N 20.6934 1.19889 -1.02296 0
M  V30 199 C 21.9184 1.9393 -0.735237 0
M  V30 200 C 22.3434 1.74639 0.698782 0
M  V30 201 O 21.7014 1.04481 1.48167 0
M  V30 202 C 21.7494 3.43916 -1.08417 0
M  V30 203 O 20.8534 4.11917 -0.199446 0
M  V30 204 H 20.1944 0.605645 -0.272196 0
M  V30 205 H 22.7244 1.52137 -1.36804 0
M  V30 206 H 22.7344 3.9456 -1.03856 0
M  V30 207 H 21.4094 3.5728 -2.12894 0
M  V30 208 H 19.9864 3.71666 -0.303136 0
M  V30 209 N 22.1715 0.800033 1.35784 0
M  V30 210 C 23.4205 0.37387 1.98205 0
M  V30 211 C 23.7335 -1.06302 1.64193 0
M  V30 212 O 24.9395 -1.59198 2.19928 0
M  V30 213 C 23.3955 0.617532 3.54562 0
M  V30 214 C 23.0035 2.06654 3.9749 0
M  V30 215 C 24.7475 0.256401 4.23725 0
M  V30 216 C 22.6545 2.2563 5.46667 0
M  V30 217 H 21.5845 0.136055 0.741623 0
M  V30 218 H 24.2355 0.983166 1.54939 0
M  V30 219 H 22.6175 -0.0616248 3.95952 0
M  V30 220 H 23.7915 2.78296 3.67271 0
M  V30 221 H 22.1065 2.38691 3.41197 0
M  V30 222 H 24.7035 0.376318 5.33374 0
M  V30 223 H 25.0465 -0.796692 4.08606 0
M  V30 224 H 25.5795 0.889214 3.87734 0
M  V30 225 H 22.3185 3.2936 5.66747 0
M  V30 226 H 21.8385 1.58504 5.78478 0
M  V30 227 H 23.5175 2.06861 6.1304 0
M  V30 228 N 23.6496 -1.47581 0.552962 0
M  V30 229 C 24.8956 -2.02782 0.0273648 0
M  V30 230 C 25.2286 -1.42687 -1.31734 0
M  V30 231 O 24.5036 -0.580897 -1.85623 0
M  V30 232 C 24.7866 -3.60031 -0.0702371 0
M  V30 233 C 24.6396 -4.30566 1.30126 0
M  V30 234 C 25.9586 -4.33028 -0.785771 0
M  V30 235 H 23.0776 -0.736912 0.0114185 0
M  V30 236 H 25.7196 -1.76056 0.714432 0
M  V30 237 H 23.8696 -3.82932 -0.655382 0
M  V30 238 H 25.5416 -4.19018 1.92929 0
M  V30 239 H 23.7846 -3.91086 1.87709 0
M  V30 240 H 24.4556 -5.39114 1.18573 0
M  V30 241 H 26.9316 -4.15095 -0.288982 0
M  V30 242 H 25.8076 -5.42695 -0.823013 0
M  V30 243 H 26.0686 -4.01945 -1.841 0
M  V30 244 N 25.1277 -0.289203 -1.54924 0
M  V30 245 C 26.0577 0.58549 -2.2604 0
M  V30 246 C 27.0387 1.14753 -1.25562 0
M  V30 247 O 28.2237 1.17906 -1.54311 0
M  V30 248 C 25.3537 1.76305 -2.99222 0
M  V30 249 C 24.3077 1.33191 -4.06748 0
M  V30 250 C 23.6337 2.5937 -4.6758 0
M  V30 251 C 24.9337 0.471775 -5.20165 0
M  V30 252 H 26.6277 -0.00763532 -2.99399 0
M  V30 253 H 24.1737 -0.00511229 -1.43999 0
M  V30 254 H 26.1267 2.38097 -3.47689 0
M  V30 255 H 24.8507 2.38223 -2.23422 0
M  V30 256 H 23.5097 0.737121 -3.59113 0
M  V30 257 H 23.1577 3.19576 -3.88433 0
M  V30 258 H 22.8577 2.31228 -5.40192 0
M  V30 259 H 24.3817 3.21985 -5.18804 0
M  V30 260 H 25.7957 0.995056 -5.64599 0
M  V30 261 H 24.1927 0.284639 -5.99425 0
M  V30 262 H 25.2627 -0.506041 -4.82252 0
M  V30 263 N 26.6058 1.57591 -0.0167156 0
M  V30 264 C 27.8338 1.95575 0.675128 0
M  V30 265 C 28.2488 0.892542 1.6637 0
M  V30 266 O 27.6058 -0.126912 1.82058 0
M  V30 267 C 27.6568 3.33608 1.39239 0
M  V30 268 O 27.3778 4.3585 0.443444 0
M  V30 269 C 28.8788 3.86151 2.17721 0
M  V30 270 H 26.0988 0.644423 0.186978 0
M  V30 271 H 28.6428 2.0437 -0.0728 0
M  V30 272 H 26.7978 3.2607 2.09182 0
M  V30 273 H 27.2118 5.158 0.951358 0
M  V30 274 H 28.6858 4.85114 2.63379 0
M  V30 275 H 29.1628 3.19738 3.01105 0
M  V30 276 H 29.7688 3.96918 1.52761 0
M  V30 277 N 28.0839 -0.256276 1.55502 0
M  V30 278 C 29.3139 -1.00196 1.80677 0
M  V30 279 C 29.7219 -1.79805 0.588797 0
M  V30 280 O 29.0649 -1.78055 -0.451883 0
M  V30 281 C 29.1269 -1.99515 2.99055 0
M  V30 282 C 28.7909 -1.38688 4.35448 0
M  V30 283 C 29.7879 -0.794079 5.138 0
M  V30 284 C 27.4729 -1.40906 4.82132 0
M  V30 285 C 29.4669 -0.231562 6.36979 0
M  V30 286 C 27.1539 -0.842684 6.05262 0
M  V30 287 C 28.1519 -0.254953 6.82524 0
M  V30 288 O 27.8399 0.3027 8.0333 0
M  V30 289 H 27.5719 -0.300919 0.60533 0
M  V30 290 H 30.1259 -0.287307 2.03381 0
M  V30 291 H 28.3559 -2.74785 2.72084 0
M  V30 292 H 30.0449 -2.60349 3.11405 0
M  V30 293 H 30.8109 -0.769519 4.78856 0
M  V30 294 H 26.6899 -1.85591 4.21992 0
M  V30 295 H 30.2339 0.227816 6.97228 0
M  V30 296 H 26.1309 -0.86454 6.39684 0
M  V30 297 H 26.8989 0.193662 8.18271 0
M  V30 298 N 29.562 -1.4872 -0.521534 0
M  V30 299 C 30.492 -1.66771 -1.63431 0
M  V30 300 C 31.473 -0.516499 -1.62069 0
M  V30 301 O 32.658 -0.750013 -1.79132 0
M  V30 302 C 29.788 -1.71515 -3.01993 0
M  V30 303 C 28.742 -2.86222 -3.18216 0
M  V30 304 C 28.068 -2.76061 -4.57924 0
M  V30 305 C 29.368 -4.27419 -3.00184 0
M  V30 306 H 31.062 -2.59932 -1.48579 0
M  V30 307 H 28.608 -1.25089 -0.713358 0
M  V30 308 H 30.561 -1.82731 -3.7972 0
M  V30 309 H 29.285 -0.749393 -3.17886 0
M  V30 310 H 27.944 -2.74575 -2.42908 0
M  V30 311 H 27.592 -1.77437 -4.70665 0
M  V30 312 H 27.292 -3.53037 -4.69722 0
M  V30 313 H 28.816 -2.89256 -5.37739 0
M  V30 314 H 30.23 -4.39855 -3.67697 0
M  V30 315 H 28.627 -5.05458 -3.2347 0
M  V30 316 H 29.697 -4.43293 -1.96518 0
M  V30 317 N 31.0401 0.771051 -1.3745 0
M  V30 318 C 31.9501 1.91538 -1.35464 0
M  V30 319 C 32.9661 1.72134 -0.254123 0
M  V30 320 O 34.1421 1.95358 -0.489626 0
M  V30 321 C 31.2071 3.26671 -1.16134 0
M  V30 322 C 30.2681 3.58723 -2.35831 0
M  V30 323 C 29.5011 4.87409 -2.17413 0
M  V30 324 O 29.7241 5.58506 -1.15876 0
M  V30 325 O 28.6581 5.18539 -3.05615 0
M  V30 326 H 32.4841 1.96165 -2.31847 0
M  V30 327 H 30.0691 0.9139 -1.18187 0
M  V30 328 H 31.9511 4.07499 -1.07345 0
M  V30 329 H 30.6261 3.22894 -0.228251 0
M  V30 330 H 29.5331 2.78127 -2.50192 0
M  V30 331 H 30.8661 3.67243 -3.27709 0
M  V30 332 N 32.5182 1.22032 0.997298 0
M  V30 333 C 33.7662 1.04016 1.73278 0
M  V30 334 C 34.0872 -0.426255 1.90284 0
M  V30 335 O 33.3572 -1.30694 1.45931 0
M  V30 336 H 31.9372 0.381897 0.642 0
M  V30 337 H 34.5992 1.5347 1.20137 0
M  V30 338 H 33.6952 1.51441 2.72896 0
M  V30 339 N 33.9963 -1.19345 1.0293 0
M  V30 340 C 34.9263 -2.2481 0.631105 0
M  V30 341 C 35.9073 -1.66245 -0.360104 0
M  V30 342 O 37.0923 -1.92677 -0.242726 0
M  V30 343 C 34.2223 -3.47295 -0.0184607 0
M  V30 344 C 33.1763 -4.18536 0.895073 0
M  V30 345 C 32.5023 -5.34586 0.110592 0
M  V30 346 C 33.8023 -4.73287 2.209 0
M  V30 347 H 35.4963 -2.58372 1.51275 0
M  V30 348 H 33.0423 -1.24194 0.728818 0
M  V30 349 H 34.9953 -4.20268 -0.308675 0
M  V30 350 H 33.7193 -3.12933 -0.934907 0
M  V30 351 H 32.3783 -3.47446 1.16949 0
M  V30 352 H 32.0263 -4.96469 -0.807902 0
M  V30 353 H 31.7263 -5.83183 0.719087 0
M  V30 354 H 33.2503 -6.10355 -0.172871 0
M  V30 355 H 34.6643 -5.38013 1.98028 0
M  V30 356 H 33.0613 -5.32373 2.76946 0
M  V30 357 H 34.1313 -3.91331 2.86336 0
M  V30 358 N 35.4744 -0.807222 -1.35358 0
M  V30 359 C 36.4044 -0.232509 -2.3234 0
M  V30 360 C 37.3854 0.642386 -1.57504 0
M  V30 361 O 38.5704 0.572526 -1.85569 0
M  V30 362 C 35.7004 0.619238 -3.41735 0
M  V30 363 C 34.6544 -0.157215 -4.27711 0
M  V30 364 C 33.9804 0.816273 -5.28433 0
M  V30 365 C 35.2804 -1.35656 -5.04376 0
M  V30 366 H 36.9744 -1.04276 -2.80654 0
M  V30 367 H 34.5204 -0.50288 -1.34934 0
M  V30 368 H 36.4734 1.03137 -4.08584 0
M  V30 369 H 35.1974 1.46239 -2.92031 0
M  V30 370 H 33.8564 -0.550525 -3.62443 0
M  V30 371 H 33.5044 1.65494 -4.74996 0
M  V30 372 H 33.2044 0.301067 -5.86828 0
M  V30 373 H 34.7284 1.22659 -5.98153 0
M  V30 374 H 36.1424 -1.01927 -5.64166 0
M  V30 375 H 34.5394 -1.8063 -5.7227 0
M  V30 376 H 35.6094 -2.14288 -4.34981 0
M  V30 377 N 36.9525 1.47285 -0.560781 0
M  V30 378 C 37.8855 2.27009 0.232821 0
M  V30 379 C 38.8635 1.34273 0.917039 0
M  V30 380 O 40.0475 1.63659 0.935315 0
M  V30 381 C 37.1745 3.11406 1.33206 0
M  V30 382 C 36.2205 4.19746 0.756019 0
M  V30 383 S 37.0535 5.34003 -0.400165 0
M  V30 384 C 38.2095 6.21964 0.700805 0
M  V30 385 H 38.4425 2.93971 -0.443683 0
M  V30 386 H 35.9755 1.50446 -0.347181 0
M  V30 387 H 37.9335 3.60601 1.96156 0
M  V30 388 H 36.5945 2.438 1.98041 0
M  V30 389 H 35.7875 4.78541 1.5816 0
M  V30 390 H 35.3895 3.73451 0.202619 0
M  V30 391 H 37.6815 6.58529 1.59202 0
M  V30 392 H 38.6245 7.07941 0.150126 0
M  V30 393 H 39.0325 5.5566 0.995083 0
M  V30 394 N 38.4306 0.297415 1.54768 0
M  V30 395 C 39.3806 -0.595275 2.20092 0
M  V30 396 C 40.3646 -1.10163 1.17273 0
M  V30 397 O 41.5566 -1.043 1.43006 0
M  V30 398 C 38.6856 -1.7684 2.94249 0
M  V30 399 C 37.7716 -1.27818 4.0438 0
M  V30 400 N 38.1626 -0.505695 5.03266 0
M  V30 401 C 36.4606 -1.55923 4.17857 0
M  V30 402 C 37.1616 -0.245094 5.81183 0
M  V30 403 N 36.1376 -0.823881 5.3732 0
M  V30 404 H 39.9396 0.00250837 2.939 0
M  V30 405 H 37.4536 0.102007 1.62079 0
M  V30 406 H 39.4506 -2.41944 3.39513 0
M  V30 407 H 38.1106 -2.36992 2.21957 0
M  V30 408 H 39.1216 -0.150928 5.1768 0
M  V30 409 H 35.7986 -2.16849 3.56767 0
M  V30 410 H 37.1886 0.375084 6.70852 0
M  V30 411 N 39.9087 -1.5758 0.0250728 0
M  V30 412 C 40.8407 -2.06869 -0.986796 0
M  V30 413 C 41.8537 -0.991332 -1.29137 0
M  V30 414 O 43.0427 -1.26761 -1.25674 0
M  V30 415 C 40.1427 -2.47486 -2.31525 0
M  V30 416 C 39.3157 -3.78253 -2.19643 0
M  V30 417 C 38.3747 -4.05464 -3.35388 0
M  V30 418 O 37.4007 -4.75774 -3.12454 0
M  V30 419 N 38.6027 -3.55321 -4.59051 0
M  V30 420 H 41.3677 -2.94302 -0.566276 0
M  V30 421 H 38.9287 -1.6109 -0.161776 0
M  V30 422 H 40.9207 -2.62785 -3.07776 0
M  V30 423 H 39.4907 -1.65441 -2.65232 0
M  V30 424 H 38.7107 -3.7279 -1.28144 0
M  V30 425 H 39.9987 -4.63936 -2.08903 0
M  V30 426 H 39.3967 -2.98431 -4.80578 0
M  V30 427 H 37.9537 -3.75905 -5.32483 0
M  V30 428 N 41.3868 0.248026 -1.55636 0
M  V30 429 C 42.3498 1.29044 -1.89421 0
M  V30 430 C 43.3498 1.41134 -0.770581 0
M  V30 431 O 44.5398 1.39854 -1.03858 0
M  V30 432 C 41.6718 2.66831 -2.12165 0
M  V30 433 H 42.8648 1.00305 -2.82629 0
M  V30 434 H 40.4178 0.487265 -1.48511 0
M  V30 435 H 41.1528 3.00711 -1.21422 0
M  V30 436 H 40.9378 2.59438 -2.93997 0
M  V30 437 H 42.4278 3.42103 -2.3949 0
M  V30 438 N 42.8649 1.48995 0.513639 0
M  V30 439 C 43.8279 1.64229 1.59879 0
M  V30 440 C 44.8279 0.514696 1.5234 0
M  V30 441 O 46.0179 0.78087 1.55718 0
M  V30 442 C 43.1499 1.62783 2.99524 0
M  V30 443 H 44.3429 2.61004 1.47705 0
M  V30 444 H 41.8959 1.37837 0.736936 0
M  V30 445 H 42.6309 0.675461 3.17188 0
M  V30 446 H 42.4159 2.4466 3.06404 0
M  V30 447 H 43.9059 1.76669 3.78388 0
M  V30 448 N 44.343 -0.763751 1.37857 0
M  V30 449 C 45.591 -1.51957 1.33243 0
M  V30 450 C 45.912 -1.94835 -0.0801709 0
M  V30 451 O 45.182 -1.66894 -1.02582 0
M  V30 452 H 43.762 -0.563626 0.49024 0
M  V30 453 H 46.424 -0.908504 1.7243 0
M  V30 454 H 45.52 -2.41523 1.97669 0
M  V30 455 N 45.8211 -1.22559 -0.990812 0
M  V30 456 C 47.0691 -1.04933 -1.72724 0
M  V30 457 C 47.3901 0.416158 -1.90508 0
M  V30 458 O 46.6601 1.29918 -1.46622 0
M  V30 459 H 45.2401 -0.385296 -0.639965 0
M  V30 460 H 47.9021 -1.54105 -1.19322 0
M  V30 461 H 46.9981 -1.52886 -2.72089 0
M  V30 462 N 47.2992 1.18797 -1.03562 0
M  V30 463 C 48.5242 1.9314 -0.755764 0
M  V30 464 C 48.9492 1.7537 0.68022 0
M  V30 465 O 48.3072 1.06046 1.47051 0
M  V30 466 C 48.3552 3.42747 -1.12058 0
M  V30 467 O 47.4592 4.11683 -0.243124 0
M  V30 468 H 46.8002 0.602724 -0.278604 0
M  V30 469 H 49.3302 1.50678 -1.3841 0
M  V30 470 H 49.3402 3.93437 -1.08035 0
M  V30 471 H 48.0152 3.55002 -2.16672 0
M  V30 472 H 46.5922 3.71323 -0.342539 0
M  V30 473 N 48.7773 0.814389 1.34928 0
M  V30 474 C 50.0253 0.397636 1.9815 0
M  V30 475 C 50.3463 -1.04069 1.64908 0
M  V30 476 O 49.6163 -1.72121 0.93548 0
M  V30 477 H 48.1963 0.144043 0.732981 0
M  V30 478 H 50.8583 1.04195 1.6471 0
M  V30 479 H 49.9543 0.509688 3.0791 0
M  V30 480 N 50.2554 -1.46986 0.568584 0
M  V30 481 C 51.4834 -2.0683 0.0539956 0
M  V30 482 C 51.8984 -1.41953 -1.24478 0
M  V30 483 O 51.2554 -0.519933 -1.74937 0
M  V30 484 C 51.3064 -3.61254 -0.133362 0
M  V30 485 O 51.0274 -4.237 1.11399 0
M  V30 486 C 52.5284 -4.37992 -0.683927 0
M  V30 487 H 49.7484 -0.669058 0.0510141 0
M  V30 488 H 52.2924 -1.88824 0.785234 0
M  V30 489 H 50.4474 -3.78735 -0.81477 0
M  V30 490 H 50.8614 -5.16388 0.91888 0
M  V30 491 H 52.3354 -5.46684 -0.764263 0
M  V30 492 H 52.8124 -4.05058 -1.69778 0
M  V30 493 H 53.4184 -4.25283 -0.0378494 0
M  V30 494 N 51.7335 -0.305618 -1.54608 0
M  V30 495 C 52.6965 0.555591 -2.22364 0
M  V30 496 C 53.6965 1.05768 -1.21119 0
M  V30 497 O 54.8865 0.952972 -1.45822 0
M  V30 498 C 52.0185 1.76974 -2.91364 0
M  V30 499 H 53.2115 -0.0364572 -2.99878 0
M  V30 500 H 50.7645 -0.0565007 -1.56198 0
M  V30 501 H 51.4995 2.40151 -2.17941 0
M  V30 502 H 51.2845 1.41732 -3.65588 0
M  V30 503 H 52.7745 2.38148 -3.43038 0
M  V30 504 N 53.2116 1.57565 -0.0334293 0
M  V30 505 C 54.4576 1.92262 0.645226 0
M  V30 506 C 54.7906 0.910543 1.71531 0
M  V30 507 O 54.0656 -0.066099 1.94388 0
M  V30 508 C 54.3486 3.37422 1.2577 0
M  V30 509 C 54.2016 4.49369 0.196891 0
M  V30 510 C 55.5206 3.82628 2.17449 0
M  V30 511 H 52.6396 0.699171 0.233085 0
M  V30 512 H 55.2816 1.89779 -0.0915694 0
M  V30 513 H 53.4316 3.39669 1.88566 0
M  V30 514 H 55.1036 4.59254 -0.433962 0
M  V30 515 H 53.3466 4.31168 -0.477137 0
M  V30 516 H 54.0176 5.47978 0.665124 0
M  V30 517 H 56.4936 3.82145 1.64634 0
M  V30 518 H 55.3696 4.84883 2.57254 0
M  V30 519 H 55.6306 3.18376 3.0674 0
M  V30 520 N 54.6897 -0.239769 1.55765 0
M  V30 521 C 55.9667 -0.990056 1.68693 0
M  V30 522 C 56.3467 -2.03107 0.5754 0
M  V30 523 O 55.6947 -2.24604 -0.42017 0
M  V30 524 C 55.9047 -1.61696 3.09282 0
M  V30 525 C 57.2527 -2.11613 3.6811 0
M  V30 526 O 58.2767 -1.71624 3.12127 0
M  V30 527 O 57.1357 -2.85057 4.66267 0
M  V30 528 H 54.2297 -0.461299 0.686391 0
M  V30 529 H 56.7757 -0.232991 1.68093 0
M  V30 530 H 55.5477 -0.864357 3.81634 0
M  V30 531 H 55.1707 -2.44005 3.13923 0
M  V30 532 N 56.1678 -1.49265 -0.50573 0
M  V30 533 C 57.1148 -1.65585 -1.6078 0
M  V30 534 C 58.0848 -0.497396 -1.58478 0
M  V30 535 O 59.2698 -0.72385 -1.76536 0
M  V30 536 C 56.4098 -1.72408 -2.98948 0
M  V30 537 C 55.5228 -2.99525 -3.11301 0
M  V30 538 C 54.6578 -2.97356 -4.40174 0
M  V30 539 C 53.6968 -4.19074 -4.46143 0
M  V30 540 N 52.8338 -4.14841 -5.66437 0
M  V30 541 H 57.6738 -2.59688 -1.46172 0
M  V30 542 H 55.2108 -1.28761 -0.711261 0
M  V30 543 H 57.1688 -1.74344 -3.79025 0
M  V30 544 H 55.7988 -0.817753 -3.1227 0
M  V30 545 H 54.8508 -3.07222 -2.24318 0
M  V30 546 H 56.1628 -3.89518 -3.11572 0
M  V30 547 H 55.3168 -2.97829 -5.28567 0
M  V30 548 H 54.0558 -2.05133 -4.42461 0
M  V30 549 H 53.0608 -4.1885 -3.56153 0
M  V30 550 H 54.2858 -5.12483 -4.45575 0
M  V30 551 H 52.2318 -3.25453 -5.69575 0
M  V30 552 H 52.1488 -4.98564 -5.68304 0
M  V30 553 H 53.4168 -4.1941 -6.57051 0
M  V30 554 N 57.6459 0.756429 -1.3826 0
M  V30 555 C 58.5929 1.87011 -1.35261 0
M  V30 556 C 59.5629 1.64695 -0.215616 0
M  V30 557 O 60.7479 1.864 -0.407399 0
M  V30 558 C 57.8879 3.24275 -1.18068 0
M  V30 559 C 57.0009 3.58442 -2.41129 0
M  V30 560 C 56.1359 4.84994 -2.16689 0
M  V30 561 C 55.1749 5.11939 -3.35537 0
M  V30 562 N 54.3119 6.29685 -3.10549 0
M  V30 563 H 59.1519 1.8891 -2.30472 0
M  V30 564 H 56.6889 0.923373 -1.14509 0
M  V30 565 H 58.6469 4.03479 -1.06116 0
M  V30 566 H 57.2769 3.21711 -0.264973 0
M  V30 567 H 56.3289 2.74103 -2.63764 0
M  V30 568 H 57.6409 3.74283 -3.29717 0
M  V30 569 H 56.7949 5.72135 -2.01857 0
M  V30 570 H 55.5339 4.71286 -1.25462 0
M  V30 571 H 54.5389 4.23268 -3.50891 0
M  V30 572 H 55.7639 5.27546 -4.27635 0
M  V30 573 H 53.7099 6.17306 -2.21967 0
M  V30 574 H 53.6269 6.46014 -3.92686 0
M  V30 575 H 54.8949 7.19722 -2.99367 0
M  V30 576 N 59.124 1.23083 0.984299 0
M  V30 577 C 60.349 1.088 1.76571 0
M  V30 578 C 60.774 -0.356657 1.84688 0
M  V30 579 O 60.132 -1.25788 1.30565 0
M  V30 580 C 60.18 1.71371 3.17277 0
M  V30 581 O 59.284 0.973213 4.00752 0
M  V30 582 H 58.625 0.381599 0.543395 0
M  V30 583 H 61.155 1.63057 1.23587 0
M  V30 584 H 61.165 1.76449 3.67872 0
M  V30 585 H 59.84 2.76493 3.10684 0
M  V30 586 H 58.417 0.999078 3.59267 0
M  V30 587 N 60.6021 -1.18246 1.0419 0
M  V30 588 C 61.5651 -2.20128 0.638452 0
M  V30 589 C 62.5651 -1.57885 -0.304805 0
M  V30 590 O 63.7551 -1.73967 -0.0900369 0
M  V30 591 C 60.8871 -3.4084 -0.0637751 0
M  V30 592 H 62.0801 -2.57336 1.54007 0
M  V30 593 H 59.6331 -1.32152 0.834598 0
M  V30 594 H 60.3681 -3.09166 -0.979136 0
M  V30 595 H 60.1531 -3.8726 0.614198 0
M  V30 596 H 61.6431 -4.16274 -0.332512 0
M  V30 597 N 62.0802 -0.821533 -1.34494 0
M  V30 598 C 63.3282 -0.408139 -1.97936 0
M  V30 599 C 63.6492 1.03193 -1.65457 0
M  V30 600 O 62.9192 1.71622 -0.944595 0
M  V30 601 H 61.4992 -0.147928 -0.732206 0
M  V30 602 H 64.1612 -1.05067 -1.64155 0
M  V30 603 H 63.2572 -0.52601 -3.07635 0
M  V30 604 N 63.5583 1.46682 -0.576371 0
M  V30 605 C 64.5083 2.27278 0.181288 0
M  V30 606 C 65.4923 1.35497 0.867721 0
M  V30 607 O 66.6843 1.59717 0.762863 0
M  V30 608 C 63.8133 3.21703 1.19841 0
M  V30 609 C 62.8993 4.20969 0.51442 0
M  V30 610 N 63.2903 5.03999 -0.426407 0
M  V30 611 C 61.5883 4.39373 0.765963 0
M  V30 612 C 62.2893 5.75812 -0.825565 0
M  V30 613 N 61.2653 5.43315 -0.176116 0
M  V30 614 H 65.0673 2.88863 -0.541785 0
M  V30 615 H 62.5813 1.57455 -0.397697 0
M  V30 616 H 64.5783 3.78145 1.75533 0
M  V30 617 H 63.2383 2.61677 1.92238 0
M  V30 618 H 64.2493 5.11659 -0.8016 0
M  V30 619 H 60.9263 3.90502 1.47698 0
M  V30 620 H 62.3163 6.52577 -1.59976 0
M  V30 621 N 65.0364 0.313813 1.54444 0
M  V30 622 C 65.9844 -0.572171 2.25453 0
M  V30 623 C 66.9784 -1.12657 1.2651 0
M  V30 624 O 68.1844 -1.07573 1.44319 0
M  V30 625 H 64.5594 -0.203146 0.724041 0
M  V30 626 H 66.5304 0.0491145 2.9836 0
M  V30 627 C 65.2794 -1.72626 3.0182 0
M  V30 628 H 64.6024 -1.30891 3.77767 0
M  V30 629 H 66.0424 -2.32199 3.54767 0
M  V30 630 C 64.5014 -2.63806 2.09542 0
M  V30 631 O 65.0314 -3.65256 1.67185 0
M  V30 632 N 63.2374 -2.31824 1.75232 0
M  V30 633 H 62.7844 -1.49368 2.09873 0
M  V30 634 H 62.7424 -2.93095 1.13767 0
M  V30 635 N 66.5145 -1.57545 0.0417849 0
M  V30 636 C 67.4245 -2.14451 -0.951213 0
M  V30 637 C 68.4405 -1.09992 -1.34825 0
M  V30 638 O 69.6165 -1.42114 -1.42708 0
M  V30 639 C 66.6815 -2.67063 -2.21084 0
M  V30 640 C 65.7425 -3.86284 -1.87304 0
M  V30 641 C 64.9755 -4.36378 -3.07261 0
M  V30 642 O 65.1985 -3.85587 -4.20332 0
M  V30 643 O 64.1325 -5.28077 -2.88822 0
M  V30 644 H 67.9585 -2.99601 -0.497287 0
M  V30 645 H 65.5435 -1.48317 -0.179567 0
M  V30 646 H 67.4255 -3.00914 -2.95006 0
M  V30 647 H 66.1005 -1.84989 -2.65633 0
M  V30 648 H 65.0075 -3.57338 -1.10727 0
M  V30 649 H 66.3405 -4.6956 -1.47562 0
M  V30 650 N 67.9926 0.231505 -1.5589 0
M  V30 651 C 68.9026 1.308 -1.94752 0
M  V30 652 C 69.9186 1.51826 -0.849989 0
M  V30 653 O 71.0946 1.6515 -1.15271 0
M  V30 654 C 68.1596 2.63968 -2.24771 0
M  V30 655 C 67.2206 2.51331 -3.48039 0
M  V30 656 C 66.4536 3.78148 -3.76616 0
M  V30 657 O 66.6766 4.80722 -3.07022 0
M  V30 658 O 65.6106 3.75857 -4.70123 0
M  V30 659 H 69.4366 1.0083 -2.86474 0
M  V30 660 H 67.0216 0.433547 -1.42971 0
M  V30 661 H 68.9036 3.42633 -2.45318 0
M  V30 662 H 67.5786 2.9364 -1.36225 0
M  V30 663 H 66.4856 1.709 -3.32782 0
M  V30 664 H 67.8186 2.26601 -4.36936 0
M  V30 665 N 69.4707 1.49531 0.497807 0
M  V30 666 C 70.7477 1.49682 1.25915 0
M  V30 667 C 71.1277 0.226339 2.09883 0
M  V30 668 O 70.4757 -0.791189 2.14365 0
M  V30 669 C 70.6857 2.77755 2.11313 0
M  V30 670 C 72.0337 3.27371 2.70395 0
M  V30 671 O 73.0577 2.78894 2.21578 0
M  V30 672 O 71.9167 4.11808 3.59272 0
M  V30 673 H 69.0107 0.599228 0.56996 0
M  V30 674 H 71.5567 1.61798 0.511816 0
M  V30 675 H 70.3287 3.61713 1.49264 0
M  V30 676 H 69.9517 2.68515 2.93233 0
M  V30 677 N 70.9488 -0.749086 1.3866 0
M  V30 678 C 71.8808 -1.87273 1.32142 0
M  V30 679 C 72.8938 -1.61127 0.232787 0
M  V30 680 O 74.0828 -1.71623 0.49069 0
M  V30 681 C 71.1828 -3.23005 1.02571 0
M  V30 682 C 70.3558 -3.7662 2.22433 0
M  V30 683 C 69.4148 -4.90879 1.89537 0
M  V30 684 O 68.4408 -5.05276 2.62078 0
M  V30 685 N 69.6428 -5.74198 0.853031 0
M  V30 686 H 72.4078 -1.93373 2.28969 0
M  V30 687 H 69.9688 -0.929216 1.32579 0
M  V30 688 H 71.9608 -3.96992 0.786085 0
M  V30 689 H 70.5308 -3.12262 0.145249 0
M  V30 690 H 69.7508 -2.94147 2.62434 0
M  V30 691 H 71.0388 -4.09173 3.02415 0
M  V30 692 H 70.4368 -5.6514 0.25155 0
M  V30 693 H 68.9938 -6.48313 0.67329 0
M  V30 694 N 72.4269 -1.23603 -0.977757 0
M  V30 695 C 73.3749 -1.01704 -2.09187 0
M  V30 696 C 74.3689 0.0448214 -1.69341 0
M  V30 697 O 75.5749 -0.108902 -1.7967 0
M  V30 698 H 71.9499 -0.311803 -0.684312 0
M  V30 699 H 73.9209 -1.96207 -2.24823 0
M  V30 700 C 72.6699 -0.627746 -3.41986 0
M  V30 701 H 71.9929 -1.43656 -3.73099 0
M  V30 702 H 73.4329 -0.514053 -4.20872 0
M  V30 703 C 71.8919 0.664238 -3.30287 0
M  V30 704 O 72.4219 1.71268 -3.6336 0
M  V30 705 N 70.6279 0.641156 -2.83439 0
M  V30 706 H 70.1749 -0.212376 -2.56723 0
M  V30 707 H 70.1329 1.50583 -2.75993 0
M  V30 708 N 73.905 1.17692 -1.04816 0
M  V30 709 C 75.152 1.87859 -0.75599 0
M  V30 710 C 75.48 1.80812 0.716752 0
M  V30 711 O 74.735 1.20819 1.53952 0
M  V30 712 C 75.034 3.37462 -1.17703 0
M  V30 713 C 74.7 3.64713 -2.65133 0
M  V30 714 C 73.362 3.71859 -3.05408 0
M  V30 715 C 75.714 3.76492 -3.60421 0
M  V30 716 C 73.042 3.88271 -4.39843 0
M  V30 717 C 75.394 3.94421 -4.94585 0
M  V30 718 C 74.058 3.99806 -5.3452 0
M  V30 719 H 73.328 0.687425 -0.276636 0
M  V30 720 H 75.975 1.39255 -1.31455 0
M  V30 721 H 74.28 3.88097 -0.537395 0
M  V30 722 H 75.977 3.90109 -0.928218 0
M  V30 723 H 72.567 3.59772 -2.32942 0
M  V30 724 H 76.751 3.70295 -3.30447 0
M  V30 725 H 72.007 3.90687 -4.70291 0
M  V30 726 H 76.181 4.02477 -5.68318 0
M  V30 727 H 73.808 4.12276 -6.38696 0
M  V30 728 N 75.3831 0.828654 1.34056 0
M  V30 729 C 76.3311 0.242973 2.31327 0
M  V30 730 C 77.3251 -0.61944 1.57668 0
M  V30 731 O 78.5311 -0.51014 1.7262 0
M  V30 732 H 74.9061 0.059834 0.749616 0
M  V30 733 H 76.8771 1.07809 2.78244 0
M  V30 734 C 75.6261 -0.575733 3.429 0
M  V30 735 H 74.9491 0.0785582 3.99723 0
M  V30 736 H 76.3891 -0.951547 4.13185 0
M  V30 737 C 74.8481 -1.75044 2.87856 0
M  V30 738 O 75.3781 -2.84882 2.83205 0
M  V30 739 N 73.5841 -1.56903 2.44602 0
M  V30 740 H 73.1311 -0.675547 2.48584 0
M  V30 741 H 73.0891 -2.35652 2.08124 0
M  V30 742 N 76.8612 -1.46375 0.584142 0
M  V30 743 C 78.1102 -2.01585 0.0679741 0
M  V30 744 C 78.4232 -1.46109 -1.30045 0
M  V30 745 O 79.6292 -1.93148 -1.90804 0
M  V30 746 C 78.0852 -3.5983 0.0709207 0
M  V30 747 C 77.6932 -4.24303 1.43775 0
M  V30 748 C 79.4372 -4.22693 -0.391228 0
M  V30 749 C 77.3442 -5.74631 1.39834 0
M  V30 750 H 76.2742 -0.753689 0.0216421 0
M  V30 751 H 78.9252 -1.68093 0.736001 0
M  V30 752 H 77.3072 -3.90405 -0.663299 0
M  V30 753 H 78.4812 -4.05335 2.19181 0
M  V30 754 H 76.7962 -3.73539 1.84004 0
M  V30 755 H 79.3932 -5.3289 -0.439524 0
M  V30 756 H 79.7362 -3.91728 -1.40906 0
M  V30 757 H 80.2692 -3.96749 0.288974 0
M  V30 758 H 77.0082 -6.10258 2.39303 0
M  V30 759 H 76.5282 -5.95858 0.686505 0
M  V30 760 H 78.2072 -6.37375 1.11187 0
M  V30 761 N 78.3393 -0.321999 -1.54275 0
M  V30 762 C 79.5643 0.285791 -2.05422 0
M  V30 763 C 79.9893 1.45124 -1.19669 0
M  V30 764 O 79.3473 1.80132 -0.205441 0
M  V30 765 C 79.3953 0.69956 -3.53749 0
M  V30 766 O 78.4993 1.8021 -3.70942 0
M  V30 767 H 77.8403 0.0518962 -0.661969 0
M  V30 768 H 80.3703 -0.469954 -1.9913 0
M  V30 769 H 80.3803 0.982649 -3.9599 0
M  V30 770 H 79.0553 -0.152864 -4.15619 0
M  V30 771 H 77.6323 1.51794 -3.40607 0
M  V30 772 N 79.8174 1.5752 -0.0501392 0
M  V30 773 C 81.0654 1.9227 0.622642 0
M  V30 774 C 81.3864 0.929083 1.71444 0
M  V30 775 O 80.6564 -0.0262186 1.95882 0
M  V30 776 H 79.2364 0.709739 0.232981 0
M  V30 777 H 81.8984 1.94628 -0.102898 0
M  V30 778 H 80.9944 2.93479 1.06191 0
M  V30 779 N 81.2955 -0.223234 1.56011 0
M  V30 780 C 82.5205 -0.968978 1.83373 0
M  V30 781 C 82.9455 -1.77227 0.630254 0
M  V30 782 O 82.3035 -1.76345 -0.420959 0
M  V30 783 C 82.3515 -1.86363 3.08709 0
M  V30 784 O 81.4555 -2.95873 2.87285 0
M  V30 785 H 80.7965 -0.274461 0.604622 0
M  V30 786 H 83.3265 -0.237056 2.03222 0
M  V30 787 H 83.3365 -2.27376 3.38768 0
M  V30 788 H 82.0115 -1.27319 3.95933 0
M  V30 789 H 80.5885 -2.58818 2.68454 0
M  V30 790 N 82.7736 -1.49793 -0.48987 0
M  V30 791 C 83.7366 -1.66752 -1.57246 0
M  V30 792 C 84.7366 -0.538867 -1.51502 0
M  V30 793 O 85.9266 -0.805545 -1.54456 0
M  V30 794 C 83.0586 -1.67528 -2.96896 0
M  V30 795 H 84.2516 -2.63321 -1.43534 0
M  V30 796 H 81.8046 -1.38992 -0.714914 0
M  V30 797 H 82.5396 -0.725837 -3.16073 0
M  V30 798 H 82.3246 -2.49504 -3.02473 0
M  V30 799 H 83.8146 -1.82667 -3.7553 0
M  V30 800 N 84.2517 0.741722 -1.39055 0
M  V30 801 C 85.4987 1.50114 -1.35912 0
M  V30 802 C 85.8267 1.94443 0.0470937 0
M  V30 803 O 85.0817 1.66612 1.02659 0
M  V30 804 C 85.3807 2.7592 -2.27163 0
M  V30 805 C 85.0467 2.50493 -3.74919 0
M  V30 806 C 83.7087 2.43267 -4.1518 0
M  V30 807 C 86.0607 2.28585 -4.684 0
M  V30 808 C 83.3887 2.12166 -5.46994 0
M  V30 809 C 85.7407 1.99002 -6.00484 0
M  V30 810 C 84.4047 1.90241 -6.39816 0
M  V30 811 H 83.6747 0.549306 -0.497336 0
M  V30 812 H 86.3217 0.851896 -1.71508 0
M  V30 813 H 84.6267 3.45553 -1.84663 0
M  V30 814 H 86.3237 3.33923 -2.22028 0
M  V30 815 H 82.9137 2.56992 -3.43006 0
M  V30 816 H 87.0977 2.33139 -4.38132 0
M  V30 817 H 82.3537 2.03901 -5.76398 0
M  V30 818 H 86.5277 1.81057 -6.72452 0
M  V30 819 H 84.1547 1.65907 -7.41875 0
M  V30 820 N 85.7298 1.2412 0.971189 0
M  V30 821 C 87.1408 1.07236 1.52831 0
M  V30 822 C 87.4918 -0.357352 1.92918 0
M  V30 823 O 86.6168 -1.24528 1.76979 0
M  V30 824 C 87.2118 1.94043 2.77728 0
M  V30 825 C 85.7708 1.81394 3.29808 0
M  V30 826 C 84.9178 1.89189 2.02738 0
M  V30 827 H 87.8688 1.37648 0.789864 0
M  V30 828 H 87.8898 1.47066 3.5093 0
M  V30 829 H 87.4018 2.98093 2.4852 0
M  V30 830 H 85.5028 0.801634 3.63874 0
M  V30 831 H 85.6158 2.65294 3.98944 0
M  V30 832 H 83.9798 1.32877 2.17292 0
M  V30 833 H 84.7628 2.94812 1.759 0
M  V30 834 N 87.2079 -1.17134 1.05439 0
M  V30 835 C 88.4359 -1.91372 0.786414 0
M  V30 836 C 88.8509 -1.76955 -0.658202 0
M  V30 837 O 88.2079 -1.10838 -1.44987 0
M  V30 838 C 88.2589 -3.42356 1.1608 0
M  V30 839 O 87.9799 -3.56332 2.54871 0
M  V30 840 C 89.4809 -4.33663 0.919322 0
M  V30 841 H 86.7009 -0.607118 0.285743 0
M  V30 842 H 89.2449 -1.48525 1.40572 0
M  V30 843 H 87.3999 -3.82939 0.586191 0
M  V30 844 H 87.8139 -4.49896 2.69618 0
M  V30 845 H 89.2879 -5.38099 1.231 0
M  V30 846 H 89.7649 -4.38959 -0.145359 0
M  V30 847 H 90.3709 -3.98796 1.47789 0
M  V30 848 N 88.686 -0.835752 -1.33615 0
M  V30 849 C 89.926 -0.43599 -1.99696 0
M  V30 850 C 90.29 0.98557 -1.64774 0
M  V30 851 O 91.491 1.48889 -2.23798 0
M  V30 852 C 89.762 -0.646721 -3.515 0
M  V30 853 S 91.321 -0.341715 -4.37467 0
M  V30 854 H 88.139 -0.164136 -0.691795 0
M  V30 855 H 90.741 -1.08436 -1.62671 0
M  V30 856 H 89.445 -1.68077 -3.74404 0
M  V30 857 H 88.976 0.0159173 -3.93397 0
M  V30 858 H 90.991 0.839708 -4.89043 0
M  V30 859 N 90.1641 1.46063 -0.591896 0
M  V30 860 C 91.0961 2.28539 0.174001 0
M  V30 861 C 92.1091 1.39047 0.846753 0
M  V30 862 O 93.2981 1.63564 0.714774 0
M  V30 863 C 90.3981 3.14347 1.26645 0
M  V30 864 C 89.5711 4.32021 0.683856 0
M  V30 865 C 88.6301 4.99157 1.66518 0
M  V30 866 O 87.6561 5.56458 1.19763 0
M  V30 867 N 88.8581 4.97005 2.99943 0
M  V30 868 H 91.6231 2.94911 -0.533633 0
M  V30 869 H 89.1841 1.56077 -0.430294 0
M  V30 870 H 91.1761 3.56125 1.92242 0
M  V30 871 H 89.7461 2.49988 1.87682 0
M  V30 872 H 88.9661 3.93915 -0.1498 0
M  V30 873 H 90.2541 5.08059 0.274567 0
M  V30 874 H 89.6521 4.51714 3.40545 0
M  V30 875 H 88.2091 5.42696 3.61004 0
M  V30 876 N 91.6422 0.330177 1.54103 0
M  V30 877 C 92.8672 -0.274893 2.0557 0
M  V30 878 C 93.2922 -1.44487 1.20437 0
M  V30 879 O 92.6502 -1.80021 0.214991 0
M  V30 880 C 92.6982 -0.68079 3.54115 0
M  V30 881 O 91.8022 -1.7824 3.71893 0
M  V30 882 H 91.1432 -0.0483849 0.662235 0
M  V30 883 H 93.6732 0.480508 1.98878 0
M  V30 884 H 93.6832 -0.961635 3.96505 0
M  V30 885 H 92.3582 0.174903 4.15532 0
M  V30 886 H 90.9352 -1.49985 3.41407 0
M  V30 887 N 93.1203 -1.57491 0.0584922 0
M  V30 888 C 94.0683 -2.13148 -0.931168 0
M  V30 889 C 95.0623 -1.06507 -1.31729 0
M  V30 890 O 96.2683 -1.24906 -1.29609 0
M  V30 891 H 92.6433 -0.68137 -0.31818 0
M  V30 892 H 94.6143 -2.95187 -0.436707 0
M  V30 893 C 93.3633 -2.69732 -2.19408 0
M  V30 894 H 92.6863 -3.51454 -1.90578 0
M  V30 895 H 94.1263 -3.12287 -2.86798 0
M  V30 896 C 92.5853 -1.63855 -2.94369 0
M  V30 897 O 93.1153 -1.05565 -3.87581 0
M  V30 898 N 91.3213 -1.35202 -2.57233 0
M  V30 899 H 90.8683 -1.82791 -1.81508 0
M  V30 900 H 90.8263 -0.645922 -3.07693 0
M  V30 901 N 94.5984 0.214957 -1.56127 0
M  V30 902 C 95.8464 0.936518 -1.79091 0
M  V30 903 C 96.1674 1.84606 -0.628148 0
M  V30 904 O 95.4374 1.92664 0.35462 0
M  V30 905 H 94.0174 0.3488 -0.660566 0
M  V30 906 H 96.6794 0.22523 -1.93594 0
M  V30 907 H 95.7754 1.53943 -2.71492 0
M  V30 908 N 96.0765 1.50051 0.48192 0
M  V30 909 C 97.4875 1.5348 1.06305 0
M  V30 910 C 97.8385 0.331997 1.93371 0
M  V30 911 O 96.9635 -0.556256 2.09129 0
M  V30 912 C 97.5585 2.7813 1.93466 0
M  V30 913 C 96.1175 2.84275 2.46707 0
M  V30 914 C 95.2645 2.47637 1.24785 0
M  V30 915 H 98.2155 1.56472 0.264995 0
M  V30 916 H 98.2365 2.59372 2.78399 0
M  V30 917 H 97.7485 3.65654 1.30072 0
M  V30 918 H 95.8495 2.01077 3.13686 0
M  V30 919 H 95.9625 3.8691 2.82555 0
M  V30 920 H 94.3265 1.99835 1.57918 0
M  V30 921 H 95.1095 3.37457 0.630694 0
M  V30 922 N 97.5546 -0.734337 1.39446 0
M  V30 923 C 98.8006 -1.49613 1.36908 0
M  V30 924 C 99.1336 -1.94169 -0.0347829 0
M  V30 925 O 98.4086 -1.66833 -0.999847 0
M  V30 926 C 98.6916 -2.73534 2.34203 0
M  V30 927 C 98.5446 -2.34993 3.83534 0
M  V30 928 C 99.8636 -3.75635 2.29317 0
M  V30 929 H 96.9826 -0.542714 0.498629 0
M  V30 930 H 99.6246 -0.839597 1.70443 0
M  V30 931 H 97.7746 -3.29553 2.05736 0
M  V30 932 H 99.4466 -1.84601 4.22753 0
M  V30 933 H 97.6896 -1.67213 4.00278 0
M  V30 934 H 98.3606 -3.23738 4.47099 0
M  V30 935 H 100.837 -3.29203 2.54489 0
M  V30 936 H 99.7126 -4.60008 2.99472 0
M  V30 937 H 99.9736 -4.22603 1.29842 0
M  V30 938 N 99.0327 -1.24633 -0.964593 0
M  V30 939 C 99.9627 -1.06611 -2.07741 0
M  V30 940 C 100.944 0.0218666 -1.70086 0
M  V30 941 O 102.129 -0.145793 -1.93652 0
M  V30 942 C 99.2587 -0.673444 -3.40708 0
M  V30 943 C 98.2127 -1.71054 -3.92332 0
M  V30 944 C 97.5387 -1.17285 -5.21678 0
M  V30 945 C 98.8387 -3.10718 -4.19824 0
M  V30 946 H 100.533 -1.99693 -2.23076 0
M  V30 947 H 98.0787 -0.96152 -1.07195 0
M  V30 948 H 100.032 -0.534345 -4.17998 0
M  V30 949 H 98.7557 0.293073 -3.25282 0
M  V30 950 H 97.4147 -1.83791 -3.17201 0
M  V30 951 H 97.0627 -0.196847 -5.02615 0
M  V30 952 H 96.7627 -1.86592 -5.57187 0
M  V30 953 H 98.2867 -1.04593 -6.01575 0
M  V30 954 H 99.7007 -3.01192 -4.87808 0
M  V30 955 H 98.0977 -3.77406 -4.66567 0
M  V30 956 H 99.1677 -3.58524 -3.26479 0
M  V30 957 N 100.511 1.16574 -1.06058 0
M  V30 958 C 101.459 2.22941 -0.663343 0
M  V30 959 C 102.453 1.66358 0.319593 0
M  V30 960 O 103.659 1.7905 0.184713 0
M  V30 961 H 100.034 0.725907 -0.196376 0
M  V30 962 H 102.005 2.53736 -1.57037 0
M  V30 963 C 100.754 3.47642 -0.0632808 0
M  V30 964 H 100.077 3.91493 -0.810733 0
M  V30 965 H 101.517 4.2363 0.177177 0
M  V30 966 C 99.9758 3.1509 1.19248 0
M  V30 967 O 100.506 3.30673 2.28075 0
M  V30 968 N 98.7118 2.6924 1.09353 0
M  V30 969 H 98.2588 2.5676 0.207912 0
M  V30 970 H 98.2168 2.47833 1.93458 0
M  V30 971 N 101.989 0.842826 1.3317 0
M  V30 972 C 103.217 0.454055 2.01856 0
M  V30 973 C 103.632 -0.94587 1.63397 0
M  V30 974 O 102.989 -1.61534 0.849302 0
M  V30 975 C 103.04 0.569715 3.56982 0
M  V30 976 O 102.761 1.91448 3.94055 0
M  V30 977 C 104.262 0.178412 4.42941 0
M  V30 978 H 101.482 0.17979 0.646465 0
M  V30 979 H 104.026 1.1365 1.70012 0
M  V30 980 H 102.181 -0.0648587 3.87346 0
M  V30 981 H 102.595 1.90282 4.88767 0
M  V30 982 H 104.069 0.310376 5.51127 0
M  V30 983 H 104.546 -0.880056 4.30293 0
M  V30 984 H 105.152 0.787579 4.17944 0
M  V30 985 N 103.467 -1.45747 0.599634 0
M  V30 986 C 104.417 -2.27538 -0.145107 0
M  V30 987 C 105.401 -1.3686 -0.846055 0
M  V30 988 O 106.593 -1.6091 -0.737357 0
M  V30 989 C 103.722 -3.23569 -1.14708 0
M  V30 990 C 102.808 -4.21734 -0.447383 0
M  V30 991 N 103.199 -5.03257 0.506535 0
M  V30 992 C 101.497 -4.40536 -0.695966 0
M  V30 993 C 102.198 -5.74426 0.917068 0
M  V30 994 N 101.174 -5.42966 0.26253 0
M  V30 995 H 104.976 -2.87965 0.587672 0
M  V30 996 H 102.49 -1.56803 0.422697 0
M  V30 997 H 104.487 -3.8089 -1.69495 0
M  V30 998 H 103.147 -2.64702 -1.8805 0
M  V30 999 H 104.158 -5.10319 0.882899 0
M  V30 1000 H 100.835 -3.92802 -1.41467 0
M  V30 1001 H 102.225 -6.4995 1.70338 0
M  V30 1002 N 104.945 -0.338344 -1.53925 0
M  V30 1003 C 106.173 0.261298 -2.05243 0
M  V30 1004 C 106.588 1.44625 -1.21363 0
M  V30 1005 O 105.945 1.80811 -0.247736 0
M  V30 1006 C 105.996 0.681412 -3.5502 0
M  V30 1007 O 105.717 -0.456414 -4.35716 0
M  V30 1008 C 107.218 1.34232 -4.22489 0
M  V30 1009 H 104.438 0.0513685 -0.669031 0
M  V30 1010 H 106.982 -0.488822 -1.98572 0
M  V30 1011 H 105.137 1.38148 -3.61931 0
M  V30 1012 H 105.551 -0.122564 -5.24357 0
M  V30 1013 H 107.025 1.58708 -5.28693 0
M  V30 1014 H 107.502 2.29426 -3.74514 0
M  V30 1015 H 108.108 0.684424 -4.19757 0
M  V30 1016 N 106.423 1.57458 -0.0668435 0
M  V30 1017 C 107.653 1.97337 0.611677 0
M  V30 1018 C 108.061 0.943744 1.63982 0
M  V30 1019 O 107.404 -0.0785584 1.83532 0
M  V30 1020 C 107.466 3.33511 1.34205 0
M  V30 1021 C 107.13 4.54598 0.467941 0
M  V30 1022 C 108.127 5.19186 -0.272439 0
M  V30 1023 C 105.812 5.0075 0.39427 0
M  V30 1024 C 107.806 6.28274 -1.07476 0
M  V30 1025 C 105.493 6.09711 -0.411729 0
M  V30 1026 C 106.491 6.73335 -1.14492 0
M  V30 1027 O 106.179 7.80199 -1.93763 0
M  V30 1028 H 105.911 0.654042 0.170893 0
M  V30 1029 H 108.465 2.04961 -0.134289 0
M  V30 1030 H 106.695 3.22487 2.13398 0
M  V30 1031 H 108.384 3.58029 1.91233 0
M  V30 1032 H 109.15 4.84477 -0.225086 0
M  V30 1033 H 105.029 4.51009 0.954569 0
M  V30 1034 H 108.573 6.77866 -1.64755 0
M  V30 1035 H 104.47 6.43854 -0.460664 0
M  V30 1036 H 105.238 7.97053 -1.86142 0
M  V30 1037 N 107.901 -0.206675 1.56239 0
M  V30 1038 C 108.833 -1.27997 1.9013 0
M  V30 1039 C 109.846 -1.42299 0.790883 0
M  V30 1040 O 111.035 -1.42931 1.06925 0
M  V30 1041 C 108.135 -2.65368 2.10792 0
M  V30 1042 C 107.308 -2.72824 3.41886 0
M  V30 1043 C 106.367 -3.9131 3.51799 0
M  V30 1044 O 105.393 -3.78953 4.24716 0
M  V30 1045 N 106.595 -5.06265 2.84035 0
M  V30 1046 H 109.36 -0.992444 2.82791 0
M  V30 1047 H 106.921 -0.396652 1.56966 0
M  V30 1048 H 108.913 -3.43039 2.14724 0
M  V30 1049 H 107.483 -2.86657 1.24685 0
M  V30 1050 H 106.703 -1.81515 3.49923 0
M  V30 1051 H 107.991 -2.74786 4.28217 0
M  V30 1052 H 107.389 -5.19203 2.246 0
M  V30 1053 H 105.946 -5.81925 2.93609 0
M  V30 1054 N 109.379 -1.50304 -0.473955 0
M  V30 1055 C 110.627 -1.60832 -1.22382 0
M  V30 1056 C 110.948 -0.30939 -1.9253 0
M  V30 1057 O 110.218 0.67296 -1.83978 0
M  V30 1058 H 108.798 -0.592652 -0.454723 0
M  V30 1059 H 111.46 -1.87068 -0.546968 0
M  V30 1060 H 110.556 -2.41803 -1.97327 0
M  V30 1061 N 110.857 0.726932 -1.39834 0
M  V30 1062 C 112.082 1.52121 -1.40976 0
M  V30 1063 C 112.507 1.88098 -0.00826029 0
M  V30 1064 O 111.865 1.52479 0.980807 0
M  V30 1065 C 111.913 2.78021 -2.29644 0
M  V30 1066 O 111.017 3.74272 -1.73188 0
M  V30 1067 H 110.358 0.45908 -0.479731 0
M  V30 1068 H 112.888 0.896207 -1.83927 0
M  V30 1069 H 112.898 3.26671 -2.44438 0
M  V30 1070 H 111.573 2.51169 -3.31492 0
M  V30 1071 H 110.15 3.33073 -1.6768 0
M  V30 1072 N 112.336 1.25143 0.95797 0
M  V30 1073 C 113.584 1.09476 1.69881 0
M  V30 1074 C 113.905 -0.365502 1.91544 0
M  V30 1075 O 113.175 -1.25985 1.50015 0
M  V30 1076 H 111.755 0.402128 0.629525 0
M  V30 1077 H 114.417 1.57214 1.15194 0
M  V30 1078 H 113.513 1.60046 2.6794 0
M  V30 1079 N 113.814 -1.1601 1.06675 0
M  V30 1080 C 114.747 -2.1947 0.625168 0
M  V30 1081 C 115.725 -1.58699 -0.354041 0
M  V30 1082 O 116.909 -1.86669 -0.262098 0
M  V30 1083 C 114.036 -3.38598 -0.0829593 0
M  V30 1084 C 113.082 -4.1787 0.853611 0
M  V30 1085 S 113.915 -4.81135 2.35094 0
M  V30 1086 C 115.071 -6.03639 1.65441 0
M  V30 1087 H 115.304 -2.56587 1.50168 0
M  V30 1088 H 112.837 -1.26862 0.880078 0
M  V30 1089 H 114.795 -4.07621 -0.485288 0
M  V30 1090 H 113.456 -2.99839 -0.935716 0
M  V30 1091 H 112.649 -5.03078 0.304755 0
M  V30 1092 H 112.251 -3.54361 1.196 0
M  V30 1093 H 114.543 -6.70632 0.962201 0
M  V30 1094 H 115.486 -6.63081 2.48454 0
M  V30 1095 H 115.894 -5.52965 1.13534 0
M  V30 1096 N 115.292 -0.849877 -1.32721 0
M  V30 1097 C 116.222 -0.306308 -2.31482 0
M  V30 1098 C 117.203 0.591952 -1.59468 0
M  V30 1099 O 118.388 0.513199 -1.87296 0
M  V30 1100 C 115.518 0.510204 -3.43532 0
M  V30 1101 C 114.472 -0.293209 -4.26994 0
M  V30 1102 C 113.798 0.647743 -5.30762 0
M  V30 1103 C 115.098 -1.51634 -4.99804 0
M  V30 1104 H 116.792 -1.13153 -2.77195 0
M  V30 1105 H 114.338 -0.545553 -1.33266 0
M  V30 1106 H 116.291 0.900856 -4.11658 0
M  V30 1107 H 115.015 1.36874 -2.96535 0
M  V30 1108 H 113.674 -0.665555 -3.60508 0
M  V30 1109 H 113.322 1.50299 -4.8002 0
M  V30 1110 H 113.022 0.11422 -5.87489 0
M  V30 1111 H 114.546 1.03567 -6.01753 0
M  V30 1112 H 115.96 -1.19824 -5.60638 0
M  V30 1113 H 114.357 -1.98745 -5.66234 0
M  V30 1114 H 115.427 -2.28018 -4.27943 0
M  V30 1115 N 116.77 1.45427 -0.607355 0
M  V30 1116 C 117.72 2.27612 0.133038 0
M  V30 1117 C 118.704 1.37307 0.838785 0
M  V30 1118 O 119.896 1.61299 0.728813 0
M  V30 1119 C 117.025 3.24173 1.12991 0
M  V30 1120 C 116.111 4.21965 0.425011 0
M  V30 1121 N 116.502 5.02982 -0.533217 0
M  V30 1122 C 114.8 4.40899 0.672593 0
M  V30 1123 C 115.501 5.73931 -0.947518 0
M  V30 1124 N 114.477 5.42819 -0.291321 0
M  V30 1125 H 118.279 2.87649 -0.602935 0
M  V30 1126 H 115.793 1.56576 -0.431006 0
M  V30 1127 H 117.79 3.81783 1.67473 0
M  V30 1128 H 116.45 2.65696 1.86644 0
M  V30 1129 H 117.461 5.09843 -0.90995 0
M  V30 1130 H 114.138 3.93547 1.39382 0
M  V30 1131 H 115.528 6.49037 -1.73782 0
M  V30 1132 N 118.248 0.346503 1.53744 0
M  V30 1133 C 119.178 -0.501193 2.28058 0
M  V30 1134 C 120.159 -1.10014 1.29734 0
M  V30 1135 O 121.344 -1.12097 1.58581 0
M  V30 1136 C 118.474 -1.65078 3.05559 0
M  V30 1137 C 117.428 -1.18003 4.11411 0
M  V30 1138 C 116.754 -2.41837 4.76884 0
M  V30 1139 C 118.054 -0.278394 5.21558 0
M  V30 1140 H 119.748 0.11875 2.99164 0
M  V30 1141 H 117.294 0.0585531 1.43881 0
M  V30 1142 H 119.247 -2.25028 3.56287 0
M  V30 1143 H 117.971 -2.29767 2.32109 0
M  V30 1144 H 116.63 -0.603331 3.61601 0
M  V30 1145 H 116.278 -3.0494 4.00026 0
M  V30 1146 H 115.978 -2.1102 5.48402 0
M  V30 1147 H 117.502 -3.02508 5.30397 0
M  V30 1148 H 118.916 -0.784823 5.67903 0
M  V30 1149 H 117.313 -0.0619707 6.00068 0
M  V30 1150 H 118.383 0.684677 4.80042 0
M  V30 1151 N 119.726 -1.57421 0.075193 0
M  V30 1152 C 120.673 -2.12915 -0.890843 0
M  V30 1153 C 121.643 -1.04252 -1.29309 0
M  V30 1154 O 122.828 -1.31933 -1.37834 0
M  V30 1155 C 119.968 -2.69795 -2.15186 0
M  V30 1156 C 119.081 -3.92624 -1.80194 0
M  V30 1157 C 118.216 -4.37736 -3.00933 0
M  V30 1158 C 117.255 -5.53205 -2.61974 0
M  V30 1159 N 116.392 -5.9326 -3.75483 0
M  V30 1160 H 121.232 -2.95156 -0.410735 0
M  V30 1161 H 118.769 -1.45854 -0.191086 0
M  V30 1162 H 120.727 -3.00883 -2.89008 0
M  V30 1163 H 119.357 -1.90313 -2.60731 0
M  V30 1164 H 118.409 -3.67977 -0.964218 0
M  V30 1165 H 119.721 -4.76482 -1.47534 0
M  V30 1166 H 118.875 -4.70503 -3.8303 0
M  V30 1167 H 117.614 -3.52739 -3.36789 0
M  V30 1168 H 116.619 -5.20086 -1.783 0
M  V30 1169 H 117.844 -6.39936 -2.27284 0
M  V30 1170 H 115.79 -5.11212 -4.11094 0
M  V30 1171 H 115.707 -6.71865 -3.46602 0
M  V30 1172 H 116.975 -6.30651 -4.58148 0
M  V30 1173 N 121.204 0.198386 -1.56346 0
M  V30 1174 C 122.151 1.24589 -1.94284 0
M  V30 1175 C 123.121 1.454 -0.802997 0
M  V30 1176 O 124.306 1.58588 -1.06087 0
M  V30 1177 C 121.446 2.58631 -2.28482 0
M  V30 1178 C 120.559 2.45426 -3.55514 0
M  V30 1179 C 119.694 3.7215 -3.79049 0
M  V30 1180 C 118.733 3.53763 -4.99518 0
M  V30 1181 N 117.87 4.72491 -5.19323 0
M  V30 1182 H 122.71 0.915356 -2.83593 0
M  V30 1183 H 120.247 0.440629 -1.40346 0
M  V30 1184 H 122.205 3.3672 -2.46324 0
M  V30 1185 H 120.835 2.89734 -1.42317 0
M  V30 1186 H 119.887 1.58652 -3.45737 0
M  V30 1187 H 121.199 2.27772 -4.43758 0
M  V30 1188 H 120.353 4.58679 -3.97113 0
M  V30 1189 H 119.092 3.92754 -2.89129 0
M  V30 1190 H 118.097 2.65619 -4.8138 0
M  V30 1191 H 119.322 3.34607 -5.90944 0
M  V30 1192 H 117.268 4.93365 -4.3235 0
M  V30 1193 H 117.185 4.5765 -6.01741 0
M  V30 1194 H 118.453 5.6038 -5.41843 0
M  V30 1195 N 122.682 1.50554 0.465978 0
M  V30 1196 C 123.645 1.69233 1.54574 0
M  V30 1197 C 124.645 0.562901 1.50626 0
M  V30 1198 O 125.835 0.830016 1.53155 0
M  V30 1199 C 122.967 1.7223 2.94193 0
M  V30 1200 H 124.16 2.65571 1.39327 0
M  V30 1201 H 121.713 1.40111 0.692711 0
M  V30 1202 H 122.448 0.77603 3.14878 0
M  V30 1203 H 122.233 2.54285 2.98466 0
M  V30 1204 H 123.723 1.88618 3.72576 0
M  V30 1205 N 124.16 -0.719506 1.40217 0
M  V30 1206 C 125.576 -1.02707 1.22161 0
M  V30 1207 C 125.776 -2.0128 0.0940557 0
M  V30 1208 O 124.832 -2.46452 -0.549318 0
M  V30 1209 C 126.145 -1.57454 2.56181 0
M  V30 1210 C 127.693 -1.69458 2.63159 0
M  V30 1211 C 128.168 -2.27611 3.97438 0
M  V30 1212 N 129.659 -2.35002 3.99159 0
M  V30 1213 C 130.394 -2.80972 4.99842 0
M  V30 1214 N 129.89 -3.26723 6.10921 0
M  V30 1215 N 131.683 -2.80321 4.87213 0
M  V30 1216 H 123.834 -0.0660492 2.12297 0
M  V30 1217 H 126.097 -0.0919077 0.943534 0
M  V30 1218 H 125.803 -0.924873 3.39321 0
M  V30 1219 H 125.677 -2.56036 2.76993 0
M  V30 1220 H 128.064 -2.33543 1.80393 0
M  V30 1221 H 128.145 -0.694867 2.46181 0
M  V30 1222 H 127.789 -1.6415 4.80643 0
M  V30 1223 H 127.719 -3.2829 4.11744 0
M  V30 1224 H 130.21 -2.02685 3.18947 0
M  V30 1225 H 130.523 -3.60355 6.8364 0
M  V30 1226 H 128.868 -3.24692 6.14492 0
M  V30 1227 H 132.059 -2.43912 3.9953 0
M  V30 1228 H 132.232 -3.15831 5.65822 0
M  V30 1229 N 125.638 -1.25649 -0.95132 0
M  V30 1230 C 126.568 -1.08808 -2.06599 0
M  V30 1231 C 127.549 0.00382547 -1.701 0
M  V30 1232 O 128.734 -0.166325 -1.93486 0
M  V30 1233 C 125.864 -0.709542 -3.39975 0
M  V30 1234 C 124.818 -1.75206 -3.90496 0
M  V30 1235 C 124.144 -1.22811 -5.20405 0
M  V30 1236 C 125.444 -3.15153 -4.16504 0
M  V30 1237 H 127.138 -2.02048 -2.20946 0
M  V30 1238 H 124.684 -0.972835 -1.06169 0
M  V30 1239 H 126.637 -0.578649 -4.17408 0
M  V30 1240 H 125.361 0.258556 -3.25575 0
M  V30 1241 H 124.02 -1.87145 -3.15234 0
M  V30 1242 H 123.668 -0.250145 -5.02378 0
M  V30 1243 H 123.368 -1.92492 -5.55176 0
M  V30 1244 H 124.892 -1.10968 -6.00432 0
M  V30 1245 H 126.306 -3.06349 -4.84586 0
M  V30 1246 H 124.703 -3.82333 -4.62538 0
M  V30 1247 H 125.773 -3.61966 -3.22658 0
M  V30 1248 N 127.117 1.15442 -1.07289 0
M  V30 1249 C 128.047 2.22312 -0.714107 0
M  V30 1250 C 129.028 1.67467 0.298155 0
M  V30 1251 O 130.213 1.93445 0.171048 0
M  V30 1252 C 127.343 3.47124 -0.110448 0
M  V30 1253 C 126.297 4.14926 -1.04979 0
M  V30 1254 C 125.623 5.33807 -0.308924 0
M  V30 1255 C 126.923 4.64762 -2.38314 0
M  V30 1256 H 128.617 2.5258 -1.6076 0
M  V30 1257 H 126.163 1.21404 -0.77441 0
M  V30 1258 H 128.116 4.21124 0.152482 0
M  V30 1259 H 126.84 3.16187 0.81812 0
M  V30 1260 H 125.499 3.42866 -1.29764 0
M  V30 1261 H 125.147 4.99126 0.623084 0
M  V30 1262 H 124.847 5.80113 -0.935036 0
M  V30 1263 H 126.371 6.10576 -0.0537771 0
M  V30 1264 H 127.785 5.30292 -2.1786 0
M  V30 1265 H 126.182 5.21728 -2.96514 0
M  V30 1266 H 127.252 3.80434 -3.00663 0
M  V30 1267 N 128.595 0.856903 1.32268 0
M  V30 1268 C 129.527 0.260412 2.27716 0
M  V30 1269 C 130.54 -0.569137 1.52528 0
M  V30 1270 O 131.729 -0.39326 1.74114 0
M  V30 1271 C 128.829 -0.650477 3.32599 0
M  V30 1272 C 128.002 0.14372 4.37164 0
M  V30 1273 C 127.061 -0.69328 5.21613 0
M  V30 1274 O 126.087 -0.12599 5.69061 0
M  V30 1275 N 127.289 -2.00761 5.44679 0
M  V30 1276 H 130.054 1.08059 2.79541 0
M  V30 1277 H 127.615 0.717103 1.45152 0
M  V30 1278 H 129.607 -1.21581 3.86005 0
M  V30 1279 H 128.177 -1.37133 2.80915 0
M  V30 1280 H 127.397 0.890486 3.8401 0
M  V30 1281 H 128.685 0.68915 5.04111 0
M  V30 1282 H 128.083 -2.49181 5.07863 0
M  V30 1283 H 126.64 -2.52103 6.01072 0
M  V30 1284 N 130.073 -1.45103 0.615059 0
M  V30 1285 C 131.298 -2.07064 0.117988 0
M  V30 1286 C 131.723 -1.4554 -1.19163 0
M  V30 1287 O 131.081 -0.550855 -1.72729 0
M  V30 1288 C 131.129 -3.606 -0.000288387 0
M  V30 1289 O 130.233 -3.98847 -1.04856 0
M  V30 1290 H 129.574 -0.659467 0.0774581 0
M  V30 1291 H 132.104 -1.86236 0.847186 0
M  V30 1292 H 132.114 -4.07529 -0.196091 0
M  V30 1293 H 130.789 -4.04765 0.955932 0
M  V30 1294 H 129.366 -3.63577 -0.828619 0
M  V30 1295 N 131.551 -0.354651 -1.53558 0
M  V30 1296 C 132.776 0.242153 -2.05981 0
M  V30 1297 C 133.201 1.42553 -1.2272 0
M  V30 1298 O 132.559 1.79656 -0.243604 0
M  V30 1299 C 132.607 0.624367 -3.55154 0
M  V30 1300 O 131.711 1.72301 -3.74681 0
M  V30 1301 H 131.052 0.0378432 -0.662921 0
M  V30 1302 H 133.582 -0.512087 -1.98088 0
M  V30 1303 H 133.592 0.898433 -3.97985 0
M  V30 1304 H 132.267 -0.240989 -4.15201 0
M  V30 1305 H 130.844 1.44535 -3.4375 0
M  V30 1306 N 133.029 1.57378 -0.0835403 0
M  V30 1307 C 133.939 2.16897 0.894021 0
M  V30 1308 C 134.955 1.13528 1.31861 0
M  V30 1309 O 136.131 1.45848 1.3889 0
M  V30 1310 C 133.196 2.72831 2.13925 0
M  V30 1311 C 132.257 3.91115 1.76997 0
M  V30 1312 C 131.49 4.44371 2.95584 0
M  V30 1313 O 131.713 3.96596 4.09961 0
M  V30 1314 O 130.647 5.35549 2.74719 0
M  V30 1315 H 134.473 3.00814 0.417679 0
M  V30 1316 H 132.058 1.48741 0.140181 0
M  V30 1317 H 133.94 3.0863 2.86924 0
M  V30 1318 H 132.615 1.91967 2.60635 0
M  V30 1319 H 131.522 3.60148 1.01214 0
M  V30 1320 H 132.855 4.73307 1.3506 0
M  V30 1321 N 134.507 -0.190092 1.56449 0
M  V30 1322 C 135.784 -0.935886 1.71757 0
M  V30 1323 C 136.164 -2.01173 0.639726 0
M  V30 1324 O 135.512 -2.25827 -0.348502 0
M  V30 1325 C 135.722 -1.51775 3.1427 0
M  V30 1326 C 137.07 -1.99794 3.74656 0
M  V30 1327 O 138.094 -1.61607 3.1743 0
M  V30 1328 O 136.953 -2.70079 4.751 0
M  V30 1329 H 134.047 -0.439229 0.700719 0
M  V30 1330 H 136.593 -0.179395 1.68749 0
M  V30 1331 H 135.365 -0.742505 3.84191 0
M  V30 1332 H 134.988 -2.33894 3.21527 0
M  V30 1333 N 135.985 -1.50799 -0.457987 0
M  V30 1334 C 137.231 -1.63648 -1.20792 0
M  V30 1335 C 137.586 -0.338662 -1.89396 0
M  V30 1336 O 136.879 0.664291 -1.79716 0
M  V30 1337 C 137.073 -2.76358 -2.2663 0
M  V30 1338 C 136.902 -4.16974 -1.68411 0
M  V30 1339 C 135.672 -4.83199 -1.47807 0
M  V30 1340 C 137.87 -5.00774 -1.17176 0
M  V30 1341 N 135.852 -6.07991 -0.849692 0
M  V30 1342 C 137.223 -6.16397 -0.667403 0
M  V30 1343 C 139.278 -4.86452 -1.06155 0
M  V30 1344 C 137.981 -7.19272 -0.0636908 0
M  V30 1345 C 140.007 -5.89515 -0.471759 0
M  V30 1346 C 139.369 -7.04397 0.0221557 0
M  V30 1347 H 135.468 -0.652888 -0.43042 0
M  V30 1348 H 138.052 -1.87962 -0.507785 0
M  V30 1349 H 136.223 -2.53744 -2.94056 0
M  V30 1350 H 137.955 -2.78496 -2.93636 0
M  V30 1351 H 134.71 -4.40714 -1.73403 0
M  V30 1352 H 135.134 -6.74733 -0.553537 0
M  V30 1353 H 139.776 -3.97907 -1.42932 0
M  V30 1354 H 137.494 -8.07481 0.316253 0
M  V30 1355 H 141.08 -5.805 -0.388671 0
M  V30 1356 H 139.96 -7.82782 0.471375 0
M  V30 1357 N 137.463 0.71206 -1.40597 0
M  V30 1358 C 138.411 1.84746 -1.41321 0
M  V30 1359 C 139.405 1.66842 -0.293268 0
M  V30 1360 O 140.611 1.73904 -0.464481 0
M  V30 1361 H 136.986 0.608522 -0.441819 0
M  V30 1362 H 138.957 1.81252 -2.37045 0
M  V30 1363 C 137.706 3.22638 -1.29614 0
M  V30 1364 H 137.029 3.37023 -2.15071 0
M  V30 1365 H 138.469 4.02209 -1.3418 0
M  V30 1366 C 136.928 3.36899 -0.00673121 0
M  V30 1367 O 137.458 3.90186 0.954859 0
M  V30 1368 N 135.664 2.9053 0.0639327 0
M  V30 1369 H 135.211 2.47353 -0.719311 0
M  V30 1370 H 135.169 3.0045 0.926118 0
M  V30 1371 N 138.941 1.26152 0.944643 0
M  V30 1372 C 139.904 1.07474 2.0244 0
M  V30 1373 C 140.904 0.0242064 1.60782 0
M  V30 1374 O 142.094 0.267302 1.72137 0
M  V30 1375 C 139.226 0.633956 3.34953 0
M  V30 1376 H 140.419 2.03336 2.20442 0
M  V30 1377 H 137.972 1.087 1.12312 0
M  V30 1378 H 138.707 -0.326811 3.22649 0
M  V30 1379 H 138.492 1.39247 3.66542 0
M  V30 1380 H 139.982 0.52501 4.14287 0
M  V30 1381 N 140.419 -1.14872 1.07899 0
M  V30 1382 C 141.382 -2.17986 0.708161 0
M  V30 1383 C 142.382 -1.58775 -0.25442 0
M  V30 1384 O 143.572 -1.74166 -0.034645 0
M  V30 1385 C 140.704 -3.40871 0.0446929 0
M  V30 1386 H 141.897 -2.52306 1.62116 0
M  V30 1387 H 139.45 -1.2943 0.876218 0
M  V30 1388 H 140.185 -3.12124 -0.880281 0
M  V30 1389 H 139.97 -3.8511 0.737091 0
M  V30 1390 H 141.46 -4.17121 -0.19991 0
M  V30 1391 N 141.898 -0.863906 -1.31812 0
M  V30 1392 C 142.845 -0.313303 -2.28664 0
M  V30 1393 C 143.815 0.584868 -1.55462 0
M  V30 1394 O 145 0.517805 -1.83639 0
M  V30 1395 C 142.14 0.48441 -3.41683 0
M  V30 1396 C 141.253 -0.440594 -4.29747 0
M  V30 1397 C 140.388 0.370652 -5.29905 0
M  V30 1398 C 139.427 -0.551164 -6.09613 0
M  V30 1399 N 138.564 0.223462 -7.01744 0
M  V30 1400 H 143.404 -1.14444 -2.75148 0
M  V30 1401 H 140.941 -0.575769 -1.35364 0
M  V30 1402 H 142.899 0.962627 -4.05943 0
M  V30 1403 H 141.529 1.28029 -2.96325 0
M  V30 1404 H 140.581 -1.03724 -3.65986 0
M  V30 1405 H 141.893 -1.14767 -4.85417 0
M  V30 1406 H 141.047 0.911638 -5.99812 0
M  V30 1407 H 139.786 1.11105 -4.74876 0
M  V30 1408 H 138.791 -1.10396 -5.38603 0
M  V30 1409 H 140.016 -1.29032 -6.66729 0
M  V30 1410 H 137.962 0.946787 -6.49132 0
M  V30 1411 H 137.879 -0.424399 -7.54808 0
M  V30 1412 H 139.147 0.745876 -7.75923 0
M  V30 1413 N 143.376 1.44774 -0.622745 0
M  V30 1414 C 144.792 1.56986 -0.287652 0
M  V30 1415 C 144.992 1.61167 1.20944 0
M  V30 1416 O 144.048 1.55015 1.99315 0
M  V30 1417 C 145.361 2.84551 -0.972188 0
M  V30 1418 C 146.909 2.9825 -0.949536 0
M  V30 1419 C 147.384 4.28605 -1.61437 0
M  V30 1420 N 148.875 4.35399 -1.58057 0
M  V30 1421 C 149.61 5.34964 -2.064 0
M  V30 1422 N 149.106 6.40981 -2.62897 0
M  V30 1423 N 150.899 5.26419 -1.97078 0
M  V30 1424 H 143.05 1.40304 -1.59463 0
M  V30 1425 H 145.313 0.671794 -0.668878 0
M  V30 1426 H 145.019 2.87417 -2.02693 0
M  V30 1427 H 144.893 3.73807 -0.504771 0
M  V30 1428 H 147.28 2.94941 0.0967067 0
M  V30 1429 H 147.361 2.10364 -1.45536 0
M  V30 1430 H 147.005 4.32672 -2.66002 0
M  V30 1431 H 146.935 5.15334 -1.08344 0
M  V30 1432 H 149.426 3.59397 -1.16801 0
M  V30 1433 H 149.739 7.13225 -2.97539 0
M  V30 1434 H 148.084 6.4169 -2.66943 0
M  V30 1435 H 151.275 4.42504 -1.52669 0
M  V30 1436 H 151.448 6.03861 -2.35066 0
M  V30 1437 N 144.854 0.36279 1.53368 0
M  V30 1438 C 145.801 -0.485008 2.25646 0
M  V30 1439 C 146.771 -1.07982 1.2621 0
M  V30 1440 O 147.956 -1.11284 1.54986 0
M  V30 1441 C 145.096 -1.62023 3.04701 0
M  V30 1442 C 144.209 -1.05086 4.19024 0
M  V30 1443 C 143.344 -2.15496 4.85525 0
M  V30 1444 C 142.383 -1.5601 5.91884 0
M  V30 1445 N 141.52 -2.60241 6.52088 0
M  V30 1446 H 146.36 0.137864 2.97681 0
M  V30 1447 H 143.897 0.0798061 1.46883 0
M  V30 1448 H 145.855 -2.28887 3.48807 0
M  V30 1449 H 144.485 -2.2138 2.34927 0
M  V30 1450 H 143.537 -0.27259 3.79422 0
M  V30 1451 H 144.849 -0.575926 4.95464 0
M  V30 1452 H 144.003 -2.90186 5.32801 0
M  V30 1453 H 142.742 -2.66341 4.08551 0
M  V30 1454 H 141.747 -0.798338 5.43973 0
M  V30 1455 H 142.972 -1.05994 6.70777 0
M  V30 1456 H 140.918 -3.10304 5.77968 0
M  V30 1457 H 140.835 -2.17426 7.24059 0
M  V30 1458 H 142.103 -3.34641 7.04014 0
M  V30 1459 N 146.332 -1.57332 0.0918853 0
M  V30 1460 C 147.748 -1.57389 -0.264766 0
M  V30 1461 C 147.948 -1.10281 -1.68643 0
M  V30 1462 O 147.004 -0.777801 -2.40222 0
M  V30 1463 C 148.317 -3.00648 -0.0561195 0
M  V30 1464 C 149.865 -3.12754 -0.124116 0
M  V30 1465 C 150.34 -4.57965 0.0564972 0
M  V30 1466 N 151.831 -4.632 0.00155611 0
M  V30 1467 C 152.566 -5.73281 0.116598 0
M  V30 1468 N 152.062 -6.92208 0.286294 0
M  V30 1469 N 153.855 -5.6207 0.0580973 0
M  V30 1470 H 146.006 -1.86262 1.02079 0
M  V30 1471 H 148.269 -0.859579 0.399786 0
M  V30 1472 H 147.975 -3.393 0.925669 0
M  V30 1473 H 147.849 -3.68623 -0.799823 0
M  V30 1474 H 150.236 -2.73976 -1.09641 0
M  V30 1475 H 150.317 -2.47377 0.651024 0
M  V30 1476 H 149.961 -4.97436 1.02564 0
M  V30 1477 H 149.891 -5.21399 -0.738297 0
M  V30 1478 H 152.382 -3.77686 -0.127192 0
M  V30 1479 H 152.695 -7.71934 0.365676 0
M  V30 1480 H 151.04 -6.94254 0.32192 0
M  V30 1481 H 154.231 -4.68043 -0.0733204 0
M  V30 1482 H 154.404 -6.47824 0.151203 0
M  V30 1483 N 147.81 0.181792 -1.56548 0
M  V30 1484 C 148.74 1.22765 -1.98623 0
M  V30 1485 C 149.721 1.46747 -0.860189 0
M  V30 1486 O 150.906 1.58259 -1.12551 0
M  V30 1487 C 148.036 2.56894 -2.33715 0
M  V30 1488 C 146.99 2.475 -3.49182 0
M  V30 1489 C 146.316 3.86023 -3.69986 0
M  V30 1490 C 147.616 1.98866 -4.82959 0
M  V30 1491 H 149.31 0.877942 -2.86239 0
M  V30 1492 H 146.856 0.42088 -1.37712 0
M  V30 1493 H 148.809 3.30253 -2.61746 0
M  V30 1494 H 147.533 2.93632 -1.42997 0
M  V30 1495 H 146.192 1.76596 -3.21262 0
M  V30 1496 H 145.84 4.20136 -2.76576 0
M  V30 1497 H 145.54 3.80609 -4.47672 0
M  V30 1498 H 147.064 4.60984 -4.00407 0
M  V30 1499 H 148.478 2.61992 -5.09934 0
M  V30 1500 H 146.875 2.04424 -5.64208 0
M  V30 1501 H 147.945 0.942465 -4.75653 0
M  V30 1502 N 149.288 1.51039 0.449983 0
M  V30 1503 C 150.513 1.6715 1.22783 0
M  V30 1504 C 150.938 0.363081 1.84563 0
M  V30 1505 O 150.296 -0.675433 1.68249 0
M  V30 1506 C 150.344 2.77985 2.29689 0
M  V30 1507 O 149.448 2.40707 3.34864 0
M  V30 1508 H 148.789 0.557746 0.360299 0
M  V30 1509 H 151.319 1.97535 0.533005 0
M  V30 1510 H 151.329 3.01693 2.74673 0
M  V30 1511 H 150.004 3.72935 1.84098 0
M  V30 1512 H 148.581 2.27523 2.95445 0
M  V30 1513 N 150.766 -0.704594 1.40972 0
M  V30 1514 C 152.043 -1.45847 1.30338 0
M  V30 1515 C 152.423 -2.10973 -0.0732344 0
M  V30 1516 O 151.771 -2.00997 -1.08685 0
M  V30 1517 C 151.981 -2.48525 2.45023 0
M  V30 1518 C 153.329 -3.1404 2.8577 0
M  V30 1519 O 154.353 -2.58848 2.44696 0
M  V30 1520 O 153.212 -4.13981 3.56766 0
M  V30 1521 H 150.306 -0.649092 0.512454 0
M  V30 1522 H 152.852 -0.735836 1.52917 0
M  V30 1523 H 151.624 -1.98994 3.36923 0
M  V30 1524 H 151.247 -3.2831 2.24272 0
M  V30 1525 N 152.244 -1.26651 -0.937939 0
M  V30 1526 C 153.469 -1.15279 -1.72411 0
M  V30 1527 C 153.894 0.287866 -1.85884 0
M  V30 1528 O 153.252 1.20855 -1.35143 0
M  V30 1529 C 153.3 -1.83028 -3.10698 0
M  V30 1530 O 152.404 -1.12128 -3.96864 0
M  V30 1531 H 151.745 -0.401504 -0.528858 0
M  V30 1532 H 154.275 -1.67531 -1.1745 0
M  V30 1533 H 154.285 -1.89981 -3.6107 0
M  V30 1534 H 152.96 -2.87833 -3.00208 0
M  V30 1535 H 151.537 -1.13173 -3.55312 0
M  V30 1536 N 153.722 1.14298 -1.08507 0
M  V30 1537 C 154.971 1.84708 -0.810305 0
M  V30 1538 C 155.284 1.83903 0.666271 0
M  V30 1539 O 156.49 2.50112 1.05624 0
M  V30 1540 C 154.946 3.31572 -1.39957 0
M  V30 1541 C 154.554 3.40791 -2.90801 0
M  V30 1542 C 156.298 4.07087 -1.20334 0
M  V30 1543 C 154.205 4.81872 -3.4286 0
M  V30 1544 H 153.135 0.691985 -0.299454 0
M  V30 1545 H 155.786 1.28841 -1.30661 0
M  V30 1546 H 154.168 3.87183 -0.830976 0
M  V30 1547 H 155.342 2.95225 -3.53806 0
M  V30 1548 H 153.657 2.78732 -3.0935 0
M  V30 1549 H 156.254 5.11225 -1.56693 0
M  V30 1550 H 156.597 4.16054 -0.143237 0
M  V30 1551 H 157.13 3.57779 -1.73893 0
M  V30 1552 H 153.869 4.78094 -4.48449 0
M  V30 1553 H 153.389 5.27972 -2.84615 0
M  V30 1554 H 155.068 5.50765 -3.39509 0
M  V30 1555 N 155.201 0.870884 1.31352 0
M  V30 1556 C 156.134 0.271983 2.26573 0
M  V30 1557 C 157.112 -0.599385 1.51149 0
M  V30 1558 O 158.296 -0.552605 1.80218 0
M  V30 1559 C 155.423 -0.614801 3.33073 0
M  V30 1560 C 154.469 0.185342 4.26097 0
M  V30 1561 S 155.302 1.56444 5.12138 0
M  V30 1562 C 156.458 0.683807 6.22153 0
M  V30 1563 H 156.691 1.07916 2.77023 0
M  V30 1564 H 154.224 0.669459 1.39132 0
M  V30 1565 H 156.182 -1.12074 3.94905 0
M  V30 1566 H 154.843 -1.39593 2.81376 0
M  V30 1567 H 154.036 -0.490771 5.01605 0
M  V30 1568 H 153.638 0.623415 3.68768 0
M  V30 1569 H 155.93 -0.10521 6.77418 0
M  V30 1570 H 156.873 1.41004 6.93919 0
M  V30 1571 H 157.281 0.250952 5.63942 0
M  V30 1572 N 156.679 -1.44442 0.630414 0
M  V30 1573 C 157.627 -2.32437 -0.0871428 0
M  V30 1574 C 158.621 -1.47304 -0.836525 0
M  V30 1575 O 159.827 -1.63653 -0.749506 0
M  V30 1576 H 156.202 -0.750533 -0.0469495 0
M  V30 1577 H 158.173 -2.90709 0.673096 0
M  V30 1578 C 156.922 -3.31288 -1.05563 0
M  V30 1579 H 156.245 -3.96805 -0.488426 0
M  V30 1580 H 157.685 -3.9554 -1.52721 0
M  V30 1581 C 156.144 -2.6016 -2.14052 0
M  V30 1582 O 156.674 -2.39997 -3.22124 0
M  V30 1583 N 154.88 -2.19911 -1.89967 0
M  V30 1584 H 154.427 -2.36509 -1.02085 0
M  V30 1585 H 154.385 -1.72646 -2.62756 0
M  V30 1586 N 158.157 -0.370918 -1.53173 0
M  V30 1587 C 159.087 0.464847 -2.28826 0
M  V30 1588 C 160.068 1.07936 -1.31468 0
M  V30 1589 O 161.253 1.0956 -1.60344 0
M  V30 1590 C 158.383 1.60196 -3.08147 0
M  V30 1591 C 157.337 1.11443 -4.13237 0
M  V30 1592 C 156.663 2.3422 -4.80672 0
M  V30 1593 C 157.963 0.195384 -5.21934 0
M  V30 1594 H 159.657 -0.166329 -2.98938 0
M  V30 1595 H 157.203 -0.0814359 -1.4377 0
M  V30 1596 H 159.156 2.19332 -3.59822 0
M  V30 1597 H 157.88 2.26045 -2.35735 0
M  V30 1598 H 156.539 0.545727 -3.62515 0
M  V30 1599 H 156.187 2.98537 -4.04827 0
M  V30 1600 H 155.887 2.02269 -5.51689 0
M  V30 1601 H 157.411 2.94032 -5.35143 0
M  V30 1602 H 158.825 0.694375 -5.69079 0
M  V30 1603 H 157.222 -0.0335027 -6.00091 0
M  V30 1604 H 158.292 -0.760961 -4.78892 0
M  V30 1605 N 159.635 1.57281 -0.100228 0
M  V30 1606 C 160.583 2.15542 0.874328 0
M  V30 1607 C 161.577 1.09962 1.28859 0
M  V30 1608 O 162.783 1.28298 1.26252 0
M  V30 1609 H 159.158 0.689567 0.300003 0
M  V30 1610 H 161.129 2.96241 0.35829 0
M  V30 1611 C 159.878 2.75454 2.1218 0
M  V30 1612 H 159.201 3.56384 1.81193 0
M  V30 1613 H 160.641 3.19781 2.78417 0
M  V30 1614 C 159.1 1.71602 2.89921 0
M  V30 1615 O 159.63 1.15804 3.84646 0
M  V30 1616 N 157.836 1.41975 2.53558 0
M  V30 1617 H 157.383 1.87539 1.76598 0
M  V30 1618 H 157.341 0.727274 3.05873 0
M  V30 1619 N 161.113 -0.173488 1.56642 0
M  V30 1620 C 162.359 -0.891784 1.8214 0
M  V30 1621 C 162.692 -1.8199 0.677736 0
M  V30 1622 O 161.967 -1.91842 -0.320446 0
M  V30 1623 C 162.25 -1.68933 3.18015 0
M  V30 1624 C 162.103 -0.784487 4.42906 0
M  V30 1625 C 163.422 -2.65748 3.50808 0
M  V30 1626 H 160.541 -0.322761 0.662567 0
M  V30 1627 H 163.183 -0.158095 1.89341 0
M  V30 1628 H 161.333 -2.31482 3.12007 0
M  V30 1629 H 163.005 -0.172046 4.60979 0
M  V30 1630 H 161.248 -0.0924117 4.33702 0
M  V30 1631 H 161.919 -1.37799 5.34524 0
M  V30 1632 H 164.395 -2.13327 3.57255 0
M  V30 1633 H 163.271 -3.18619 4.4696 0
M  V30 1634 H 163.532 -3.45842 2.75401 0
M  V30 1635 N 162.591 -1.51276 -0.441967 0
M  V30 1636 C 163.538 -1.72256 -1.53612 0
M  V30 1637 C 164.508 -0.564164 -1.56225 0
M  V30 1638 O 165.693 -0.798074 -1.73307 0
M  V30 1639 C 162.833 -1.84932 -2.91366 0
M  V30 1640 C 161.946 -3.12459 -2.98317 0
M  V30 1641 C 161.081 -3.15758 -4.27166 0
M  V30 1642 C 160.12 -4.37619 -4.27967 0
M  V30 1643 N 159.257 -4.38493 -5.48333 0
M  V30 1644 H 164.097 -2.65654 -1.35026 0
M  V30 1645 H 161.634 -1.31662 -0.656009 0
M  V30 1646 H 163.592 -1.90263 -3.7129 0
M  V30 1647 H 162.222 -0.949461 -3.08521 0
M  V30 1648 H 161.274 -3.1646 -2.11086 0
M  V30 1649 H 162.586 -4.02382 -2.94771 0
M  V30 1650 H 161.74 -3.19979 -5.15459 0
M  V30 1651 H 160.479 -2.23715 -4.33362 0
M  V30 1652 H 159.484 -4.33579 -3.38067 0
M  V30 1653 H 160.709 -5.30921 -4.23438 0
M  V30 1654 H 158.655 -3.49318 -5.55259 0
M  V30 1655 H 158.572 -5.22219 -5.46647 0
M  V30 1656 H 159.84 -4.469 -6.38671 0
M  V30 1657 N 164.069 0.697108 -1.41344 0
M  V30 1658 C 165.016 1.81106 -1.43071 0
M  V30 1659 C 165.986 1.63632 -0.285275 0
M  V30 1660 O 167.171 1.84504 -0.486091 0
M  V30 1661 C 164.311 3.18975 -1.31715 0
M  V30 1662 C 163.424 3.47892 -2.56115 0
M  V30 1663 C 162.559 4.75367 -2.37064 0
M  V30 1664 C 161.598 4.97247 -3.56948 0
M  V30 1665 N 160.735 6.15947 -3.36977 0
M  V30 1666 H 165.575 1.78965 -2.38276 0
M  V30 1667 H 163.112 0.873975 -1.18322 0
M  V30 1668 H 165.07 3.98615 -1.23133 0
M  V30 1669 H 163.7 3.20297 -0.401183 0
M  V30 1670 H 162.752 2.62669 -2.75153 0
M  V30 1671 H 164.064 3.59962 -3.45295 0
M  V30 1672 H 163.218 5.63059 -2.25941 0
M  V30 1673 H 161.957 4.65541 -1.45338 0
M  V30 1674 H 160.962 4.08004 -3.68527 0
M  V30 1675 H 162.187 5.08934 -4.49626 0
M  V30 1676 H 160.133 6.07336 -2.47949 0
M  V30 1677 H 160.05 6.28777 -4.19732 0
M  V30 1678 H 161.318 7.06377 -3.29623 0
M  V30 1679 N 165.547 1.27147 0.931209 0
M  V30 1680 C 166.457 1.11372 2.06478 0
M  V30 1681 C 167.473 0.044645 1.73943 0
M  V30 1682 O 168.649 0.250417 1.99837 0
M  V30 1683 C 165.714 0.758838 3.38294 0
M  V30 1684 C 164.775 1.90841 3.84549 0
M  V30 1685 C 164.008 1.57036 5.10074 0
M  V30 1686 O 164.231 0.476645 5.68405 0
M  V30 1687 O 163.165 2.40839 5.51616 0
M  V30 1688 H 166.991 2.06493 2.22698 0
M  V30 1689 H 164.576 1.06301 1.04978 0
M  V30 1690 H 166.458 0.574098 4.17471 0
M  V30 1691 H 165.133 -0.162879 3.2329 0
M  V30 1692 H 164.04 2.14819 3.06274 0
M  V30 1693 H 165.373 2.81021 4.04089 0
M  V30 1694 N 167.025 -1.13721 1.09112 0
M  V30 1695 C 167.988 -2.17222 0.731241 0
M  V30 1696 C 168.988 -1.59035 -0.237566 0
M  V30 1697 O 170.178 -1.74192 -0.0161704 0
M  V30 1698 C 167.31 -3.40804 0.0808443 0
M  V30 1699 H 168.503 -2.50573 1.64783 0
M  V30 1700 H 166.056 -1.28493 0.889897 0
M  V30 1701 H 166.791 -3.1304 -0.847127 0
M  V30 1702 H 166.576 -3.84306 0.777896 0
M  V30 1703 H 168.066 -4.1731 -0.155657 0
M  V30 1704 N 168.503 -0.877838 -1.30888 0
M  V30 1705 C 169.433 -0.35534 -2.3078 0
M  V30 1706 C 170.414 0.557994 -1.60687 0
M  V30 1707 O 171.599 0.473355 -1.88343 0
M  V30 1708 C 168.729 0.437221 -3.44537 0
M  V30 1709 C 167.683 -0.383715 -4.26276 0
M  V30 1710 C 167.009 0.535014 -5.32017 0
M  V30 1711 C 168.309 -1.62201 -4.96476 0
M  V30 1712 H 170.003 -1.19007 -2.74732 0
M  V30 1713 H 167.549 -0.573698 -1.32078 0
M  V30 1714 H 169.502 0.813334 -4.13477 0
M  V30 1715 H 168.226 1.30553 -2.99372 0
M  V30 1716 H 166.885 -0.741874 -3.59015 0
M  V30 1717 H 166.533 1.40083 -4.831 0
M  V30 1718 H 166.233 -0.0104211 -5.87599 0
M  V30 1719 H 167.757 0.907799 -6.03814 0
M  V30 1720 H 169.171 -1.31689 -5.5797 0
M  V30 1721 H 167.568 -2.10711 -5.61891 0
M  V30 1722 H 168.638 -2.37044 -4.23011 0
M  V30 1723 N 169.982 1.44106 -0.638065 0
M  V30 1724 C 170.912 2.33448 0.0494287 0
M  V30 1725 C 171.893 1.48606 0.827672 0
M  V30 1726 O 173.078 1.77308 0.792173 0
M  V30 1727 C 170.208 3.31771 1.02691 0
M  V30 1728 C 169.162 4.26485 0.359823 0
M  V30 1729 C 168.488 5.14729 1.44769 0
M  V30 1730 C 169.788 5.17056 -0.738296 0
M  V30 1731 H 171.482 2.91183 -0.696636 0
M  V30 1732 H 169.028 1.40014 -0.336456 0
M  V30 1733 H 170.981 3.93161 1.51666 0
M  V30 1734 H 169.705 2.7226 1.80395 0
M  V30 1735 H 168.364 3.66437 -0.10934 0
M  V30 1736 H 168.012 4.51566 2.21578 0
M  V30 1737 H 167.712 5.78913 1.00668 0
M  V30 1738 H 169.236 5.78991 1.93911 0
M  V30 1739 H 170.65 5.72342 -0.331354 0
M  V30 1740 H 169.047 5.89879 -1.10286 0
M  V30 1741 H 170.117 4.57652 -1.60258 0
M  V30 1742 N 171.46 0.379036 1.52974 0
M  V30 1743 C 172.423 -0.448865 2.24762 0
M  V30 1744 C 173.423 -0.998689 1.26027 0
M  V30 1745 O 174.613 -0.882313 1.50203 0
M  V30 1746 C 171.745 -1.62872 2.99476 0
M  V30 1747 H 172.938 0.179491 2.99362 0
M  V30 1748 H 170.491 0.13096 1.5575 0
M  V30 1749 H 171.226 -2.29479 2.29151 0
M  V30 1750 H 171.011 -1.24128 3.71934 0
M  V30 1751 H 172.501 -2.2151 3.5401 0
M  V30 1752 N 172.938 -1.57226 0.108567 0
M  V30 1753 C 174.186 -1.94448 -0.550853 0
M  V30 1754 C 174.507 -0.992074 -1.67878 0
M  V30 1755 O 173.777 -0.0465 -1.95845 0
M  V30 1756 H 172.357 -0.717897 -0.206479 0
M  V30 1757 H 175.019 -1.94112 0.175062 0
M  V30 1758 H 174.115 -2.97218 -0.952259 0
M  V30 1759 N 174.416 0.165178 -1.56732 0
M  V30 1760 C 175.349 1.23336 -1.91998 0
M  V30 1761 C 176.327 1.42476 -0.783531 0
M  V30 1762 O 177.511 1.57384 -1.03743 0
M  V30 1763 C 174.638 2.59533 -2.17625 0
M  V30 1764 C 173.684 2.57093 -3.40302 0
M  V30 1765 S 174.517 2.05571 -4.9447 0
M  V30 1766 C 175.673 3.43532 -5.23198 0
M  V30 1767 H 175.906 0.932387 -2.82301 0
M  V30 1768 H 173.439 0.370013 -1.49901 0
M  V30 1769 H 175.397 3.37918 -2.3307 0
M  V30 1770 H 174.058 2.86827 -1.28019 0
M  V30 1771 H 173.251 3.57308 -3.55453 0
M  V30 1772 H 172.853 1.86806 -3.24005 0
M  V30 1773 H 175.145 4.39559 -5.15552 0
M  V30 1774 H 176.088 3.33251 -6.2478 0
M  V30 1775 H 176.496 3.39828 -4.50752 0
M  V30 1776 N 175.894 1.51508 0.433938 0
M  V30 1777 C 177.14 1.64588 1.18484 0
M  V30 1778 C 177.473 0.362666 1.90784 0
M  V30 1779 O 176.748 -0.637892 1.83742 0
M  V30 1780 C 177.031 2.85149 2.19913 0
M  V30 1781 C 176.884 4.23456 1.51674 0
M  V30 1782 C 178.203 3.01227 3.20858 0
M  V30 1783 H 175.322 0.598994 0.429389 0
M  V30 1784 H 177.964 1.84002 0.473647 0
M  V30 1785 H 176.114 2.68729 2.80566 0
M  V30 1786 H 177.786 4.51552 0.943322 0
M  V30 1787 H 176.029 4.25998 0.819035 0
M  V30 1788 H 176.7 5.03812 2.2556 0
M  V30 1789 H 179.176 3.16382 2.70263 0
M  V30 1790 H 178.052 3.87141 3.89118 0
M  V30 1791 H 178.313 2.13447 3.8716 0
M  V30 1792 N 177.372 -0.689602 1.41712 0
M  V30 1793 C 178.649 -1.44457 1.31877 0
M  V30 1794 C 179.029 -2.11039 -0.0508537 0
M  V30 1795 O 178.377 -2.02138 -1.06547 0
M  V30 1796 C 178.587 -2.45913 2.47645 0
M  V30 1797 C 179.935 -3.10991 2.89084 0
M  V30 1798 O 180.959 -2.56238 2.47428 0
M  V30 1799 O 179.818 -4.10174 3.61137 0
M  V30 1800 H 176.912 -0.64362 0.519309 0
M  V30 1801 H 179.458 -0.719576 1.53689 0
M  V30 1802 H 178.23 -1.95409 3.39015 0
M  V30 1803 H 177.853 -3.25913 2.27742 0
M  V30 1804 N 178.85 -1.27639 -0.924453 0
M  V30 1805 C 180.075 -1.17101 -1.71179 0
M  V30 1806 C 180.5 0.268134 -1.86179 0
M  V30 1807 O 179.858 1.19415 -1.36418 0
M  V30 1808 C 179.906 -1.86313 -3.08739 0
M  V30 1809 O 179.01 -1.16331 -3.95652 0
M  V30 1810 H 178.351 -0.407091 -0.524569 0
M  V30 1811 H 180.881 -1.68767 -1.15666 0
M  V30 1812 H 180.891 -1.938 -3.59034 0
M  V30 1813 H 179.566 -2.91001 -2.97138 0
M  V30 1814 H 178.143 -1.16935 -3.54091 0
M  V30 1815 N 180.328 1.1314 -1.09713 0
M  V30 1816 C 181.574 1.84757 -0.836224 0
M  V30 1817 C 181.907 1.8347 0.636598 0
M  V30 1818 O 181.182 1.27491 1.46889 0
M  V30 1819 C 181.465 3.32782 -1.37578 0
M  V30 1820 C 181.318 3.42567 -2.91493 0
M  V30 1821 C 182.637 4.28307 -1.01198 0
M  V30 1822 H 179.756 0.67082 -0.305236 0
M  V30 1823 H 182.398 1.3278 -1.35903 0
M  V30 1824 H 180.548 3.77177 -0.931097 0
M  V30 1825 H 182.22 3.06862 -3.44432 0
M  V30 1826 H 180.463 2.83349 -3.28475 0
M  V30 1827 H 181.134 4.46674 -3.24324 0
M  V30 1828 H 183.61 3.91999 -1.39556 0
M  V30 1829 H 182.486 5.30307 -1.41653 0
M  V30 1830 H 182.747 4.42029 0.0794833 0
M  V30 1831 N 181.806 0.884767 1.30421 0
M  V30 1832 C 183.217 0.553656 1.78302 0
M  V30 1833 C 183.568 -0.930153 1.7275 0
M  V30 1834 O 182.693 -1.72681 1.30423 0
M  V30 1835 C 183.288 0.998234 3.2376 0
M  V30 1836 C 181.847 0.71854 3.69478 0
M  V30 1837 C 180.994 1.18132 2.50879 0
M  V30 1838 H 183.945 1.06901 1.17294 0
M  V30 1839 H 183.966 0.327118 3.79091 0
M  V30 1840 H 183.478 2.0782 3.27769 0
M  V30 1841 H 181.579 -0.349444 3.70958 0
M  V30 1842 H 181.692 1.30595 4.60958 0
M  V30 1843 H 180.056 0.600669 2.47516 0
M  V30 1844 H 180.839 2.26902 2.57624 0
M  V30 1845 N 183.284 -1.43765 0.645699 0
M  V30 1846 C 184.231 -2.30745 -0.0504648 0
M  V30 1847 C 185.201 -1.4432 -0.822241 0
M  V30 1848 O 186.386 -1.73202 -0.800358 0
M  V30 1849 C 183.526 -3.29802 -1.0161 0
M  V30 1850 C 182.639 -4.31326 -0.241219 0
M  V30 1851 C 181.774 -5.17469 -1.19998 0
M  V30 1852 C 180.813 -6.10691 -0.415094 0
M  V30 1853 N 179.95 -6.89483 -1.32506 0
M  V30 1854 H 184.79 -2.8973 0.697155 0
M  V30 1855 H 182.327 -1.42738 0.355563 0
M  V30 1856 H 184.285 -3.85734 -1.58949 0
M  V30 1857 H 182.915 -2.72483 -1.73069 0
M  V30 1858 H 181.967 -3.77749 0.448334 0
M  V30 1859 H 183.279 -4.9743 0.369437 0
M  V30 1860 H 182.433 -5.7799 -1.84424 0
M  V30 1861 H 181.172 -4.51473 -1.84455 0
M  V30 1862 H 180.177 -5.49265 0.242565 0
M  V30 1863 H 181.402 -6.78727 0.224966 0
M  V30 1864 H 179.348 -6.26142 -1.95657 0
M  V30 1865 H 179.265 -7.52081 -0.768783 0
M  V30 1866 H 180.533 -7.54516 -1.9577 0
M  V30 1867 N 184.763 -0.387143 -1.52771 0
M  V30 1868 C 186.011 0.195349 -2.01154 0
M  V30 1869 C 186.332 1.475 -1.27549 0
M  V30 1870 O 185.602 1.91878 -0.394924 0
M  V30 1871 H 184.182 0.075178 -0.743207 0
M  V30 1872 H 186.844 -0.518337 -1.87881 0
M  V30 1873 H 185.94 0.407096 -3.09434 0
M  V30 1874 N 186.241 1.57166 -0.116904 0
M  V30 1875 C 187.188 2.15202 0.83408 0
M  V30 1876 C 188.158 1.07644 1.26499 0
M  V30 1877 O 189.343 1.35541 1.34288 0
M  V30 1878 C 186.483 2.75405 2.07957 0
M  V30 1879 C 185.596 3.97264 1.69721 0
M  V30 1880 C 184.731 4.45561 2.89221 0
M  V30 1881 C 183.77 5.59956 2.47215 0
M  V30 1882 N 182.907 6.03006 3.59622 0
M  V30 1883 H 187.747 2.96141 0.332335 0
M  V30 1884 H 185.284 1.46309 0.152349 0
M  V30 1885 H 187.242 3.08439 2.80929 0
M  V30 1886 H 185.872 1.97159 2.55594 0
M  V30 1887 H 184.924 3.70404 0.866316 0
M  V30 1888 H 186.236 4.80226 1.34849 0
M  V30 1889 H 185.39 4.80493 3.7042 0
M  V30 1890 H 184.129 3.61544 3.27318 0
M  V30 1891 H 183.134 5.2463 1.64448 0
M  V30 1892 H 184.359 6.45738 2.10238 0
M  V30 1893 H 182.305 5.21931 3.97396 0
M  V30 1894 H 182.222 6.80819 3.28667 0
M  V30 1895 H 183.49 6.42576 4.41267 0
M  V30 1896 N 187.719 -0.156864 1.56817 0
M  V30 1897 C 188.651 -1.21883 1.94106 0
M  V30 1898 C 189.664 -1.3971 0.835754 0
M  V30 1899 O 190.853 -1.39457 1.11418 0
M  V30 1900 C 187.953 -2.58527 2.19127 0
M  V30 1901 C 187.126 -2.61809 3.50393 0
M  V30 1902 C 186.185 -3.7992 3.64071 0
M  V30 1903 O 185.211 -3.65249 4.36557 0
M  V30 1904 N 186.413 -4.96973 2.99997 0
M  V30 1905 H 189.178 -0.901974 2.85805 0
M  V30 1906 H 186.739 -0.346513 1.58148 0
M  V30 1907 H 188.731 -3.36034 2.25529 0
M  V30 1908 H 187.301 -2.82545 1.33742 0
M  V30 1909 H 186.521 -1.7029 3.5552 0
M  V30 1910 H 187.809 -2.61024 4.36742 0
M  V30 1911 H 187.207 -5.11794 2.41004 0
M  V30 1912 H 185.764 -5.7229 3.11974 0
M  V30 1913 N 189.197 -1.51736 -0.425897 0
M  V30 1914 C 190.474 -1.55519 -1.1863 0
M  V30 1915 C 190.854 -0.326219 -2.08564 0
M  V30 1916 O 190.202 0.688012 -2.17896 0
M  V30 1917 C 190.412 -2.87521 -1.9782 0
M  V30 1918 C 191.76 -3.39899 -2.54468 0
M  V30 1919 O 192.784 -2.89148 -2.08019 0
M  V30 1920 O 191.643 -4.2848 -3.39215 0
M  V30 1921 H 188.737 -0.625739 -0.540721 0
M  V30 1922 H 191.283 -1.64055 -0.434038 0
M  V30 1923 H 190.055 -3.68422 -1.31836 0
M  V30 1924 H 189.678 -2.822 -2.80088 0
M  V30 1925 N 190.675 0.682077 -1.42076 0
M  V30 1926 C 191.9 1.47558 -1.45744 0
M  V30 1927 C 192.325 1.87977 -0.0680981 0
M  V30 1928 O 191.683 1.55522 0.9318 0
M  V30 1929 C 191.731 2.70575 -2.38373 0
M  V30 1930 O 190.835 3.68573 -1.85007 0
M  V30 1931 H 190.176 0.443585 -0.494093 0
M  V30 1932 H 192.706 0.837238 -1.86686 0
M  V30 1933 H 192.716 3.18729 -2.54707 0
M  V30 1934 H 191.391 2.40495 -3.39315 0
M  V30 1935 H 189.968 3.2757 -1.78192 0
M  V30 1936 N 192.153 1.28127 0.917671 0
M  V30 1937 C 193.381 1.17892 1.70026 0
M  V30 1938 C 193.796 -0.262958 1.8696 0
M  V30 1939 O 193.153 -1.17811 1.3938 0
M  V30 1940 C 193.204 1.86872 3.09453 0
M  V30 1941 O 192.925 3.25428 2.93306 0
M  V30 1942 C 194.426 1.8289 4.03815 0
M  V30 1943 H 191.646 0.40942 0.531617 0
M  V30 1944 H 194.19 1.69181 1.14883 0
M  V30 1945 H 192.345 1.39464 3.61426 0
M  V30 1946 H 192.759 3.59918 3.81523 0
M  V30 1947 H 194.233 2.35751 4.99125 0
M  V30 1948 H 194.71 0.800412 4.31845 0
M  V30 1949 H 195.316 2.29959 3.57769 0
M  V30 1950 N 193.631 -1.12557 1.10312 0
M  V30 1951 C 194.561 -2.20341 0.772798 0
M  V30 1952 C 195.542 -1.68198 -0.25365 0
M  V30 1953 O 196.727 -1.93831 -0.119699 0
M  V30 1954 C 193.857 -3.46709 0.202443 0
M  V30 1955 C 192.811 -4.11996 1.15943 0
M  V30 1956 C 192.137 -5.328 0.450345 0
M  V30 1957 C 193.437 -4.5828 2.50552 0
M  V30 1958 H 195.131 -2.48229 1.674 0
M  V30 1959 H 192.677 -1.19308 0.806326 0
M  V30 1960 H 194.63 -4.2138 -0.0407752 0
M  V30 1961 H 193.354 -3.18245 -0.734001 0
M  V30 1962 H 192.013 -3.39305 1.38808 0
M  V30 1963 H 191.661 -5.00602 -0.490531 0
M  V30 1964 H 191.361 -5.7743 1.08851 0
M  V30 1965 H 192.885 -6.10219 0.215642 0
M  V30 1966 H 194.299 -5.2433 2.31843 0
M  V30 1967 H 192.696 -5.13683 3.10242 0
M  V30 1968 H 193.766 -3.72329 3.10643 0
M  V30 1969 N 195.109 -0.891671 -1.2995 0
M  V30 1970 C 196.039 -0.379797 -2.30391 0
M  V30 1971 C 197.02 0.540919 -1.6127 0
M  V30 1972 O 198.205 0.453352 -1.88834 0
M  V30 1973 C 195.335 0.400654 -3.44981 0
M  V30 1974 C 194.289 -0.428905 -4.25846 0
M  V30 1975 C 193.615 0.478557 -5.32554 0
M  V30 1976 C 194.915 -1.67458 -4.94727 0
M  V30 1977 H 196.609 -1.21914 -2.73454 0
M  V30 1978 H 194.155 -0.587675 -1.31462 0
M  V30 1979 H 196.108 0.769434 -4.14316 0
M  V30 1980 H 194.832 1.27371 -3.0074 0
M  V30 1981 H 193.491 -0.779911 -3.58208 0
M  V30 1982 H 193.139 1.34951 -4.84559 0
M  V30 1983 H 192.839 -0.0727433 -5.87555 0
M  V30 1984 H 194.363 0.843705 -6.04743 0
M  V30 1985 H 195.777 -1.376 -5.56542 0
M  V30 1986 H 194.174 -2.16659 -5.59624 0
M  V30 1987 H 195.244 -2.41518 -4.20473 0
M  V30 1988 N 196.587 1.43421 -0.653314 0
M  V30 1989 C 197.55 2.29182 0.0287951 0
M  V30 1990 C 198.55 1.42213 0.750465 0
M  V30 1991 O 199.74 1.63843 0.591701 0
M  V30 1992 C 196.872 3.24278 1.05151 0
M  V30 1993 H 198.065 2.90985 -0.725786 0
M  V30 1994 H 195.618 1.50702 -0.414545 0
M  V30 1995 H 196.353 2.6737 1.83532 0
M  V30 1996 H 196.138 3.88396 0.537687 0
M  V30 1997 H 197.628 3.88647 1.52786 0
M  V30 1998 N 198.065 0.39524 1.52563 0
M  V30 1999 C 199.29 -0.187456 2.06551 0
M  V30 2000 C 199.715 -1.39249 1.26457 0
M  V30 2001 O 199.073 -1.78947 0.291151 0
M  V30 2002 C 199.121 -0.529985 3.56684 0
M  V30 2003 O 198.225 -1.62307 3.79118 0
M  V30 2004 H 197.566 -0.0202537 0.663691 0
M  V30 2005 H 200.096 0.564426 1.96661 0
M  V30 2006 H 200.106 -0.792598 4.00227 0
M  V30 2007 H 198.781 0.350987 4.14416 0
M  V30 2008 H 197.358 -1.3537 3.47461 0
M  V30 2009 N 199.544 -1.57102 0.125237 0
M  V30 2010 C 200.474 -2.18659 -0.819174 0
M  V30 2011 C 201.455 -1.12843 -1.27281 0
M  V30 2012 O 202.64 -1.41104 -1.33429 0
M  V30 2013 C 199.77 -2.79096 -2.06695 0
M  V30 2014 C 198.724 -3.90548 -1.75088 0
M  V30 2015 C 198.05 -4.37821 -3.06948 0
M  V30 2016 C 199.35 -5.12356 -1.01435 0
M  V30 2017 H 201.044 -2.9783 -0.306202 0
M  V30 2018 H 198.59 -1.4326 -0.145839 0
M  V30 2019 H 200.543 -3.2082 -2.73226 0
M  V30 2020 H 199.267 -1.97223 -2.60328 0
M  V30 2021 H 197.926 -3.49409 -1.10944 0
M  V30 2022 H 197.574 -3.52799 -3.58527 0
M  V30 2023 H 197.274 -5.12982 -2.86571 0
M  V30 2024 H 198.798 -4.822 -3.74587 0
M  V30 2025 H 200.212 -5.5106 -1.58132 0
M  V30 2026 H 198.609 -5.9314 -0.911319 0
M  V30 2027 H 199.679 -4.849 -0.00218681 0
M  V30 2028 N 201.022 0.148545 -1.56898 0
M  V30 2029 C 201.952 1.18524 -2.01182 0
M  V30 2030 C 202.933 1.4489 -0.891123 0
M  V30 2031 O 204.118 1.55836 -1.15882 0
M  V30 2032 C 201.248 2.51879 -2.39112 0
M  V30 2033 C 200.202 2.40038 -3.54353 0
M  V30 2034 C 199.528 3.78089 -3.78091 0
M  V30 2035 C 200.828 1.88577 -4.87069 0
M  V30 2036 H 202.522 0.817029 -2.88036 0
M  V30 2037 H 200.068 0.391575 -1.38574 0
M  V30 2038 H 202.021 3.24627 -2.68692 0
M  V30 2039 H 200.745 2.90532 -1.49193 0
M  V30 2040 H 199.404 1.69742 -3.24936 0
M  V30 2041 H 199.052 4.14175 -2.85426 0
M  V30 2042 H 198.752 3.71028 -4.55645 0
M  V30 2043 H 200.276 4.52387 -4.10095 0
M  V30 2044 H 201.69 2.51117 -5.15377 0
M  V30 2045 H 200.087 1.9241 -5.68417 0
M  V30 2046 H 201.157 0.84136 -4.77545 0
M  V30 2047 N 202.5 1.5196 0.417844 0
M  V30 2048 C 203.432 1.70895 1.52733 0
M  V30 2049 C 204.445 0.589405 1.51756 0
M  V30 2050 O 205.634 0.864312 1.56179 0
M  V30 2051 C 202.734 1.72627 2.91639 0
M  V30 2052 C 201.907 3.01479 3.16905 0
M  V30 2053 C 200.966 2.95139 4.35637 0
M  V30 2054 O 199.992 3.69059 4.3334 0
M  V30 2055 N 201.194 2.12328 5.40275 0
M  V30 2056 H 203.959 2.66612 1.36888 0
M  V30 2057 H 201.52 1.50089 0.607037 0
M  V30 2058 H 203.512 1.65928 3.6912 0
M  V30 2059 H 202.082 0.844216 3.00985 0
M  V30 2060 H 201.302 3.21895 2.27546 0
M  V30 2061 H 202.59 3.86736 3.30625 0
M  V30 2062 H 201.988 1.51685 5.44985 0
M  V30 2063 H 200.545 2.11494 6.16534 0
M  V30 2064 N 203.978 -0.674533 1.42435 0
M  V30 2065 C 205.203 -1.46784 1.46524 0
M  V30 2066 C 205.628 -1.87938 0.078066 0
M  V30 2067 O 204.986 -1.56014 -0.92354 0
M  V30 2068 C 205.034 -2.69307 2.39805 0
M  V30 2069 O 204.138 -3.67587 1.86959 0
M  V30 2070 H 203.479 -0.440959 0.496439 0
M  V30 2071 H 206.009 -0.827326 1.87127 0
M  V30 2072 H 206.019 -3.17374 2.56393 0
M  V30 2073 H 204.694 -2.38692 3.40586 0
M  V30 2074 H 203.271 -3.2662 1.79927 0
M  V30 2075 N 205.456 -1.28612 -0.910864 0
M  V30 2076 C 206.703 -1.15934 -1.66029 0
M  V30 2077 C 207.031 0.291483 -1.92303 0
M  V30 2078 O 206.286 1.22816 -1.52364 0
M  V30 2079 C 206.585 -1.90624 -3.0232 0
M  V30 2080 C 206.251 -3.40405 -2.95695 0
M  V30 2081 C 204.913 -3.81255 -2.93595 0
M  V30 2082 C 207.265 -4.359 -2.85728 0
M  V30 2083 C 204.593 -5.15936 -2.79334 0
M  V30 2084 C 206.945 -5.70657 -2.73007 0
M  V30 2085 C 205.609 -6.10779 -2.69267 0
M  V30 2086 H 204.879 -0.424234 -0.607541 0
M  V30 2087 H 207.526 -1.5942 -1.06101 0
M  V30 2088 H 205.831 -1.39696 -3.6605 0
M  V30 2089 H 207.528 -1.78228 -3.59215 0
M  V30 2090 H 204.118 -3.07927 -2.98125 0
M  V30 2091 H 208.302 -4.053 -2.86436 0
M  V30 2092 H 203.558 -5.46146 -2.74835 0
M  V30 2093 H 207.732 -6.44311 -2.64264 0
M  V30 2094 H 205.359 -7.1509 -2.57974 0
M  V30 2095 N 206.934 1.1197 -1.10907 0
M  V30 2096 C 208.159 1.87942 -0.877064 0
M  V30 2097 C 208.584 1.79341 0.567314 0
M  V30 2098 O 207.942 1.15184 1.40009 0
M  V30 2099 C 207.99 3.34926 -1.33629 0
M  V30 2100 O 207.094 4.09303 -0.504447 0
M  V30 2101 H 206.435 0.583785 -0.316371 0
M  V30 2102 H 208.965 1.4157 -1.47712 0
M  V30 2103 H 208.975 3.8577 -1.32837 0
M  V30 2104 H 207.65 3.40504 -2.3881 0
M  V30 2105 H 206.227 3.68393 -0.577993 0
M  V30 2106 N 208.412 0.89855 1.29475 0
M  V30 2107 C 209.637 0.538561 2.00285 0
M  V30 2108 C 210.062 -0.869135 1.66816 0
M  V30 2109 O 209.42 -1.57831 0.892145 0
M  V30 2110 C 209.468 0.736475 3.52999 0
M  V30 2111 O 208.572 -0.211537 4.11857 0
M  V30 2112 H 207.913 0.210563 0.62973 0
M  V30 2113 H 210.443 1.20982 1.64998 0
M  V30 2114 H 210.453 0.640685 4.02938 0
M  V30 2115 H 209.128 1.76276 3.76696 0
M  V30 2116 H 207.705 -0.0682991 3.72837 0
M  V30 2117 N 209.89 -1.43072 0.660911 0
M  V30 2118 C 211.306 -1.56169 0.329173 0
M  V30 2119 C 211.506 -1.64317 -1.16629 0
M  V30 2120 O 210.562 -1.60245 -1.95135 0
M  V30 2121 C 211.875 -2.81873 1.04729 0
M  V30 2122 C 213.423 -2.95627 1.02828 0
M  V30 2123 C 213.898 -4.24174 1.72744 0
M  V30 2124 N 215.389 -4.31055 1.69545 0
M  V30 2125 C 216.124 -5.29304 2.20511 0
M  V30 2126 N 215.62 -6.33786 2.79799 0
M  V30 2127 N 217.413 -5.21008 2.10966 0
M  V30 2128 H 209.564 -1.36027 1.63127 0
M  V30 2129 H 211.827 -0.653823 0.686454 0
M  V30 2130 H 211.533 -2.81942 2.10242 0
M  V30 2131 H 211.407 -3.72338 0.603702 0
M  V30 2132 H 213.794 -2.95094 -0.0184742 0
M  V30 2133 H 213.875 -2.06431 1.51063 0
M  V30 2134 H 213.519 -4.25467 2.7738 0
M  V30 2135 H 213.449 -5.1228 1.2197 0
M  V30 2136 H 215.94 -3.56174 1.26288 0
M  V30 2137 H 216.253 -7.05086 3.16344 0
M  V30 2138 H 214.598 -6.34387 2.83863 0
M  V30 2139 H 217.789 -4.38301 1.64347 0
M  V30 2140 H 217.962 -5.97416 2.50993 0
M  V30 2141 N 211.368 -0.403325 -1.52352 0
M  V30 2142 C 212.298 0.416205 -2.29761 0
M  V30 2143 C 213.279 1.05123 -1.33728 0
M  V30 2144 O 214.464 1.06134 -1.62632 0
M  V30 2145 C 211.594 1.53624 -3.11475 0
M  V30 2146 C 210.548 1.02653 -4.15507 0
M  V30 2147 C 209.874 2.23971 -4.85532 0
M  V30 2148 C 211.174 0.08463 -5.22231 0
M  V30 2149 H 212.868 -0.229701 -2.98518 0
M  V30 2150 H 210.414 -0.111913 -1.43564 0
M  V30 2151 H 212.367 2.1165 -3.64393 0
M  V30 2152 H 211.091 2.20994 -2.40477 0
M  V30 2153 H 209.75 0.46871 -3.63591 0
M  V30 2154 H 209.398 2.89883 -4.11068 0
M  V30 2155 H 209.098 1.90521 -5.55856 0
M  V30 2156 H 210.622 2.82614 -5.41259 0
M  V30 2157 H 212.036 0.573509 -5.70424 0
M  V30 2158 H 210.433 -0.160783 -5.99885 0
M  V30 2159 H 211.503 -0.86237 -4.7717 0
M  V30 2160 N 212.846 1.57033 -0.133567 0
M  V30 2161 C 213.778 2.13176 0.841944 0
M  V30 2162 C 214.791 1.07794 1.22001 0
M  V30 2163 O 215.98 1.35117 1.16643 0
M  V30 2164 C 213.08 2.62847 2.13926 0
M  V30 2165 C 212.253 3.92486 1.93064 0
M  V30 2166 C 211.312 4.27605 3.0666 0
M  V30 2167 O 210.338 4.96168 2.78937 0
M  V30 2168 N 211.54 3.861 4.33483 0
M  V30 2169 H 214.305 2.97503 0.362192 0
M  V30 2170 H 211.866 1.61821 0.05042 0
M  V30 2171 H 213.858 2.83363 2.88942 0
M  V30 2172 H 212.428 1.83319 2.53205 0
M  V30 2173 H 211.648 3.80732 1.02159 0
M  V30 2174 H 212.936 4.77225 1.76447 0
M  V30 2175 H 212.334 3.30828 4.58878 0
M  V30 2176 H 210.891 4.11694 5.05323 0
M  V30 2177 N 214.325 -0.140222 1.56975 0
M  V30 2178 C 215.553 -0.866437 1.87884 0
M  V30 2179 C 215.968 -1.74428 0.722517 0
M  V30 2180 O 215.325 -1.79891 -0.30749 0
M  V30 2181 C 215.376 -1.71753 3.18093 0
M  V30 2182 O 215.097 -0.875056 4.29272 0
M  V30 2183 C 216.598 -2.55074 3.62563 0
M  V30 2184 H 213.818 -0.25019 0.622612 0
M  V30 2185 H 216.362 -0.130977 2.0408 0
M  V30 2186 H 214.517 -2.40598 3.03631 0
M  V30 2187 H 214.931 -1.46002 5.03769 0
M  V30 2188 H 216.405 -3.10356 4.5649 0
M  V30 2189 H 216.882 -3.31434 2.88181 0
M  V30 2190 H 217.488 -1.91509 3.79743 0
M  V30 2191 N 215.803 -1.52179 -0.40978 0
M  V30 2192 C 217.049 -1.66453 -1.15851 0
M  V30 2193 C 217.382 -0.392972 -1.90182 0
M  V30 2194 O 216.657 0.608579 -1.84734 0
M  V30 2195 C 216.94 -2.88612 -2.15349 0
M  V30 2196 C 216.793 -4.25815 -1.44918 0
M  V30 2197 C 218.112 -3.06294 -3.16026 0
M  V30 2198 H 215.231 -0.60575 -0.419805 0
M  V30 2199 H 217.873 -1.84732 -0.444314 0
M  V30 2200 H 216.023 -2.73158 -2.76255 0
M  V30 2201 H 217.695 -4.52995 -0.871365 0
M  V30 2202 H 215.938 -4.27247 -0.751159 0
M  V30 2203 H 216.609 -5.07337 -2.17516 0
M  V30 2204 H 219.085 -3.20641 -2.65195 0
M  V30 2205 H 217.961 -3.93283 -3.8291 0
M  V30 2206 H 218.222 -2.19579 -3.83715 0
M  V30 2207 N 217.281 0.66697 -1.42791 0
M  V30 2208 C 218.244 1.76211 -1.46568 0
M  V30 2209 C 219.244 1.56896 -0.352196 0
M  V30 2210 O 220.434 1.63044 -0.613364 0
M  V30 2211 C 217.566 3.14935 -1.30494 0
M  V30 2212 H 218.759 1.74247 -2.44086 0
M  V30 2213 H 216.312 0.877342 -1.29354 0
M  V30 2214 H 217.047 3.2252 -0.339301 0
M  V30 2215 H 216.832 3.30359 -2.11199 0
M  V30 2216 H 218.322 3.94821 -1.36038 0
M  V30 2217 N 218.759 1.29093 0.90403 0
M  V30 2218 C 219.689 1.16401 2.02418 0
M  V30 2219 C 220.67 0.0593085 1.69997 0
M  V30 2220 O 221.855 0.238021 1.92736 0
M  V30 2221 C 218.985 0.835233 3.37107 0
M  V30 2222 C 217.939 1.89578 3.83724 0
M  V30 2223 C 217.265 1.42041 5.15489 0
M  V30 2224 C 218.565 3.30394 4.04521 0
M  V30 2225 H 220.259 2.10109 2.13295 0
M  V30 2226 H 217.805 1.01157 1.02486 0
M  V30 2227 H 219.758 0.733169 4.14973 0
M  V30 2228 H 218.482 -0.137543 3.2631 0
M  V30 2229 H 217.141 1.98715 3.08071 0
M  V30 2230 H 216.789 0.436426 5.01103 0
M  V30 2231 H 216.489 2.12964 5.4765 0
M  V30 2232 H 218.013 1.33176 5.959 0
M  V30 2233 H 219.427 3.24123 4.72882 0
M  V30 2234 H 217.824 3.99237 4.48029 0
M  V30 2235 H 218.894 3.73692 3.09002 0
M  V30 2236 N 220.237 -1.11381 1.11499 0
M  V30 2237 C 221.462 -1.87475 0.887019 0
M  V30 2238 C 221.887 -1.79639 -0.557796 0
M  V30 2239 O 221.245 -1.15924 -1.39396 0
M  V30 2240 C 221.293 -3.34213 1.35403 0
M  V30 2241 O 220.397 -4.0903 0.526146 0
M  V30 2242 H 219.738 -0.582099 0.319463 0
M  V30 2243 H 222.268 -1.40785 1.48461 0
M  V30 2244 H 222.278 -3.8506 1.34881 0
M  V30 2245 H 220.953 -3.39232 2.40612 0
M  V30 2246 H 219.53 -3.68082 0.597522 0
M  V30 2247 N 221.715 -0.905404 -1.28997 0
M  V30 2248 C 222.647 -0.344748 -2.26592 0
M  V30 2249 C 223.66 0.512135 -1.54535 0
M  V30 2250 O 224.849 0.328368 -1.75454 0
M  V30 2251 C 221.949 0.526587 -3.34784 0
M  V30 2252 C 221.122 -0.305871 -4.36329 0
M  V30 2253 C 220.181 0.499209 -5.23827 0
M  V30 2254 O 219.207 -0.0853004 -5.69136 0
M  V30 2255 N 220.409 1.80408 -5.51755 0
M  V30 2256 H 223.174 -1.18359 -2.75338 0
M  V30 2257 H 220.735 -0.770481 -1.42391 0
M  V30 2258 H 222.727 1.07171 -3.90252 0
M  V30 2259 H 221.297 1.26613 -2.85811 0
M  V30 2260 H 220.517 -1.0324 -3.80441 0
M  V30 2261 H 221.805 -0.875773 -5.01206 0
M  V30 2262 H 221.203 2.3016 -5.16762 0
M  V30 2263 H 219.76 2.29621 -6.10014 0
M  V30 2264 N 223.193 1.4272 -0.668489 0
M  V30 2265 C 224.125 2.2914 0.052613 0
M  V30 2266 C 225.138 1.43339 0.771857 0
M  V30 2267 O 226.327 1.67123 0.627067 0
M  V30 2268 C 223.427 3.20618 1.09804 0
M  V30 2269 C 222.6 4.35039 0.45389 0
M  V30 2270 C 221.659 5.07282 1.39825 0
M  V30 2271 O 220.685 5.62024 0.900978 0
M  V30 2272 N 221.887 5.12206 2.73176 0
M  V30 2273 H 224.652 2.91668 -0.689209 0
M  V30 2274 H 222.213 1.53577 -0.512422 0
M  V30 2275 H 224.205 3.65815 1.73094 0
M  V30 2276 H 222.775 2.59585 1.74167 0
M  V30 2277 H 221.995 3.92567 -0.358396 0
M  V30 2278 H 223.283 5.088 0.00486972 0
M  V30 2279 H 222.681 4.6913 3.16122 0
M  V30 2280 H 221.238 5.61069 3.31729 0
M  V30 2281 N 224.671 0.411399 1.52136 0
M  V30 2282 C 225.92 -0.165009 2.01024 0
M  V30 2283 C 226.233 -1.4603 1.30133 0
M  V30 2284 O 227.439 -2.1181 1.69849 0
M  V30 2285 C 225.895 -0.344618 3.58246 0
M  V30 2286 C 225.503 0.938716 4.38055 0
M  V30 2287 C 227.247 -0.876195 4.15359 0
M  V30 2288 C 225.154 0.726172 5.86925 0
M  V30 2289 H 224.084 -0.0654407 0.751155 0
M  V30 2290 H 226.735 0.537192 1.75461 0
M  V30 2291 H 225.117 -1.10921 3.80148 0
M  V30 2292 H 226.291 1.70963 4.27912 0
M  V30 2293 H 224.606 1.39688 3.92271 0
M  V30 2294 H 227.203 -1.05128 5.24263 0
M  V30 2295 H 227.546 -1.85152 3.7286 0
M  V30 2296 H 228.079 -0.170607 3.97434 0
M  V30 2297 H 224.818 1.67312 6.33788 0
M  V30 2298 H 224.338 -0.00540283 5.998 0
M  V30 2299 H 226.017 0.369231 6.45946 0
M  V30 2300 N 226.149 -1.5696 0.141893 0
M  V30 2301 C 227.565 -1.58151 -0.21456 0
M  V30 2302 C 227.765 -1.1559 -1.65049 0
M  V30 2303 O 226.821 -0.853832 -2.37626 0
M  V30 2304 C 228.134 -3.00674 0.0395576 0
M  V30 2305 C 229.682 -3.1299 -0.0245529 0
M  V30 2306 C 230.157 -4.57554 0.202167 0
M  V30 2307 N 231.648 -4.62961 0.148919 0
M  V30 2308 C 232.383 -5.7262 0.298924 0
M  V30 2309 N 231.879 -6.90947 0.50637 0
M  V30 2310 N 233.672 -5.61601 0.236886 0
M  V30 2311 H 225.823 -1.8292 1.07953 0
M  V30 2312 H 228.086 -0.846425 0.42693 0
M  V30 2313 H 227.792 -3.36183 1.03315 0
M  V30 2314 H 227.666 -3.70981 -0.682143 0
M  V30 2315 H 230.053 -2.77326 -1.00869 0
M  V30 2316 H 230.134 -2.4518 0.729396 0
M  V30 2317 H 229.778 -4.93922 1.18338 0
M  V30 2318 H 229.708 -5.23484 -0.572044 0
M  V30 2319 H 232.199 -3.77899 -0.00697015 0
M  V30 2320 H 232.512 -7.7038 0.611076 0
M  V30 2321 H 230.857 -6.92878 0.542628 0
M  V30 2322 H 234.048 -4.68039 0.0756209 0
M  V30 2323 H 234.221 -6.47015 0.357227 0
M  V30 2324 N 227.627 0.131896 -1.57047 0
M  V30 2325 C 228.559 1.1878 -1.9602 0
M  V30 2326 C 229.572 1.38363 -0.857875 0
M  V30 2327 O 230.761 1.37666 -1.13623 0
M  V30 2328 C 227.861 2.55008 -2.23213 0
M  V30 2329 C 227.034 2.56201 -3.54513 0
M  V30 2330 C 226.093 3.7408 -3.70069 0
M  V30 2331 O 225.119 3.58258 -4.42312 0
M  V30 2332 N 226.321 4.92137 -3.07866 0
M  V30 2333 H 229.086 0.85639 -2.87204 0
M  V30 2334 H 226.647 0.321309 -1.5868 0
M  V30 2335 H 228.639 3.32404 -2.30846 0
M  V30 2336 H 227.209 2.80382 -1.3822 0
M  V30 2337 H 226.429 1.64613 -3.58185 0
M  V30 2338 H 227.717 2.54043 -4.4084 0
M  V30 2339 H 227.115 5.07895 -2.49116 0
M  V30 2340 H 225.672 5.67254 -3.21039 0
M  V30 2341 N 229.106 1.52395 0.401703 0
M  V30 2342 C 230.331 1.70972 1.17403 0
M  V30 2343 C 230.756 0.421615 1.83314 0
M  V30 2344 O 230.114 -0.621564 1.70312 0
M  V30 2345 C 230.162 2.85151 2.20728 0
M  V30 2346 O 229.266 2.51238 3.27037 0
M  V30 2347 H 228.607 0.568927 0.342372 0
M  V30 2348 H 231.137 1.99131 0.469891 0
M  V30 2349 H 231.147 3.10279 2.64936 0
M  V30 2350 H 229.822 3.78603 1.7214 0
M  V30 2351 H 228.399 2.36808 2.88057 0
M  V30 2352 N 230.584 -0.659388 1.43143 0
M  V30 2353 C 231.514 -1.78422 1.50625 0
M  V30 2354 C 232.495 -1.66216 0.361443 0
M  V30 2355 O 233.68 -1.85404 0.577834 0
M  V30 2356 C 230.81 -3.16815 1.42287 0
M  V30 2357 C 229.764 -3.43777 2.54954 0
M  V30 2358 C 229.09 -4.81905 2.31671 0
M  V30 2359 C 230.39 -3.39134 3.97222 0
M  V30 2360 H 232.084 -1.72417 2.44771 0
M  V30 2361 H 229.63 -0.828084 1.17808 0
M  V30 2362 H 231.583 -3.95253 1.46127 0
M  V30 2363 H 230.307 -3.23534 0.446435 0
M  V30 2364 H 228.966 -2.67707 2.50457 0
M  V30 2365 H 228.614 -4.85294 1.32284 0
M  V30 2366 H 228.314 -5.00906 3.07192 0
M  V30 2367 H 229.838 -5.62609 2.37284 0
M  V30 2368 H 231.252 -4.07518 4.03239 0
M  V30 2369 H 229.649 -3.69671 4.72719 0
M  V30 2370 H 230.719 -2.37426 4.22797 0
M  V30 2371 N 232.062 -1.29571 -0.897171 0
M  V30 2372 C 233.009 -1.14916 -2.00158 0
M  V30 2373 C 233.979 -0.0418149 -1.66047 0
M  V30 2374 O 235.164 -0.209793 -1.89643 0
M  V30 2375 C 232.304 -0.834307 -3.34863 0
M  V30 2376 C 231.417 -2.02234 -3.8174 0
M  V30 2377 C 230.552 -1.64664 -5.05034 0
M  V30 2378 C 229.591 -2.80033 -5.44286 0
M  V30 2379 N 228.728 -2.42843 -6.58765 0
M  V30 2380 H 233.568 -2.09403 -2.12025 0
M  V30 2381 H 231.105 -1.042 -1.0383 0
M  V30 2382 H 233.063 -0.632436 -4.12379 0
M  V30 2383 H 231.693 0.0736656 -3.22716 0
M  V30 2384 H 230.745 -2.33583 -3.00238 0
M  V30 2385 H 232.057 -2.88673 -4.06779 0
M  V30 2386 H 231.211 -1.4078 -5.9014 0
M  V30 2387 H 229.95 -0.753766 -4.8184 0
M  V30 2388 H 228.955 -3.04596 -4.57713 0
M  V30 2389 H 230.18 -3.69989 -5.6946 0
M  V30 2390 H 228.126 -1.56046 -6.3717 0
M  V30 2391 H 228.043 -3.22815 -6.83613 0
M  V30 2392 H 229.311 -2.22285 -7.47134 0
M  V30 2393 N 233.54 1.10788 -1.12088 0
M  V30 2394 C 234.45 2.20599 -0.798338 0
M  V30 2395 C 235.466 1.72712 0.21135 0
M  V30 2396 O 236.642 2.01348 0.0458477 0
M  V30 2397 C 233.707 3.45771 -0.253674 0
M  V30 2398 C 232.768 4.08411 -1.32283 0
M  V30 2399 C 232.001 5.27608 -0.80406 0
M  V30 2400 O 232.224 5.69241 0.363478 0
M  V30 2401 O 231.158 5.8101 -1.57198 0
M  V30 2402 H 234.984 2.50614 -1.7154 0
M  V30 2403 H 232.569 1.19454 -0.897275 0
M  V30 2404 H 234.451 4.21376 0.0453691 0
M  V30 2405 H 233.126 3.1739 0.636005 0
M  V30 2406 H 232.033 3.34507 -1.67499 0
M  V30 2407 H 233.366 4.40986 -2.18614 0
M  V30 2408 N 235.018 0.912232 1.28515 0
M  V30 2409 C 235.95 0.35676 2.26406 0
M  V30 2410 C 236.963 -0.503933 1.54804 0
M  V30 2411 O 238.152 -0.319059 1.75625 0
M  V30 2412 C 235.252 -0.508825 3.35058 0
M  V30 2413 C 234.425 0.329007 4.36161 0
M  V30 2414 C 233.484 -0.471422 5.24084 0
M  V30 2415 O 232.51 0.115482 5.69083 0
M  V30 2416 N 233.712 -1.77479 5.52704 0
M  V30 2417 H 236.477 1.19818 2.74707 0
M  V30 2418 H 234.038 0.778022 1.4198 0
M  V30 2419 H 236.03 -1.051 3.90815 0
M  V30 2420 H 234.6 -1.25095 2.86478 0
M  V30 2421 H 233.82 1.05256 3.79888 0
M  V30 2422 H 235.108 0.90234 5.00735 0
M  V30 2423 H 234.506 -2.27417 5.17975 0
M  V30 2424 H 233.063 -2.26382 6.11224 0
M  V30 2425 N 236.496 -1.42363 0.676048 0
M  V30 2426 C 237.744 -2.01123 0.198437 0
M  V30 2427 C 238.065 -1.53731 -1.19966 0
M  V30 2428 O 237.335 -0.759518 -1.80577 0
M  V30 2429 H 235.915 -0.743678 0.0703721 0
M  V30 2430 H 238.577 -1.74263 0.872837 0
M  V30 2431 H 237.673 -3.11454 0.200686 0
M  V30 2432 N 237.974 -0.419461 -1.51915 0
M  V30 2433 C 239.204 0.151915 -2.06041 0
M  V30 2434 C 239.612 1.38539 -1.28855 0
M  V30 2435 O 238.955 1.80592 -0.336463 0
M  V30 2436 C 239.017 0.557119 -3.55157 0
M  V30 2437 C 238.681 -0.567054 -4.53468 0
M  V30 2438 C 239.678 -1.43379 -4.99738 0
M  V30 2439 C 237.363 -0.742693 -4.96779 0
M  V30 2440 C 239.357 -2.46102 -5.87973 0
M  V30 2441 C 237.044 -1.77322 -5.84808 0
M  V30 2442 C 238.042 -2.63078 -6.30301 0
M  V30 2443 O 237.73 -3.64364 -7.16585 0
M  V30 2444 H 237.462 0.0193293 -0.675724 0
M  V30 2445 H 240.016 -0.592073 -1.96682 0
M  V30 2446 H 238.246 1.35355 -3.62238 0
M  V30 2447 H 239.935 1.05759 -3.9188 0
M  V30 2448 H 240.701 -1.30954 -4.66986 0
M  V30 2449 H 236.58 -0.0848307 -4.60922 0
M  V30 2450 H 240.124 -3.13071 -6.23404 0
M  V30 2451 H 236.021 -1.89773 -6.16974 0
M  V30 2452 H 236.789 -3.60731 -7.34721 0
M  V30 2453 N 239.452 1.56882 -0.150215 0
M  V30 2454 C 240.415 2.1573 0.774157 0
M  V30 2455 C 241.415 1.0999 1.17298 0
M  V30 2456 O 242.605 1.35613 1.09338 0
M  V30 2457 C 239.737 2.72302 2.05096 0
M  V30 2458 H 240.93 2.98752 0.262201 0
M  V30 2459 H 238.483 1.55985 0.099248 0
M  V30 2460 H 239.218 1.92956 2.6065 0
M  V30 2461 H 239.003 3.49665 1.77416 0
M  V30 2462 H 240.493 3.17632 2.71109 0
M  V30 2463 N 240.93 -0.123565 1.57115 0
M  V30 2464 C 241.86 -1.15309 2.03042 0
M  V30 2465 C 242.841 -1.43454 0.914061 0
M  V30 2466 O 244.026 -1.53973 1.18347 0
M  V30 2467 C 241.156 -2.48043 2.43089 0
M  V30 2468 C 240.11 -2.3437 3.58127 0
M  V30 2469 C 239.436 -3.72026 3.84059 0
M  V30 2470 C 240.736 -1.80804 4.90007 0
M  V30 2471 H 242.43 -0.771102 2.893 0
M  V30 2472 H 239.976 -0.369479 1.39179 0
M  V30 2473 H 241.929 -3.20311 2.73823 0
M  V30 2474 H 240.653 -2.88122 1.53796 0
M  V30 2475 H 239.312 -1.64551 3.27595 0
M  V30 2476 H 238.96 -4.09582 2.91979 0
M  V30 2477 H 238.66 -3.63732 4.6149 0
M  V30 2478 H 240.184 -4.45806 4.1724 0
M  V30 2479 H 241.598 -2.42886 5.19307 0
M  V30 2480 H 239.995 -1.83343 5.71407 0
M  V30 2481 H 241.065 -0.76528 4.78823 0
M  V30 2482 N 242.408 -1.52605 -0.393616 0
M  V30 2483 C 243.633 -1.71592 -1.16495 0
M  V30 2484 C 244.058 -0.43133 -1.83088 0
M  V30 2485 O 243.416 0.612523 -1.7064 0
M  V30 2486 C 243.464 -2.86318 -2.19213 0
M  V30 2487 O 242.568 -2.52969 -3.257 0
M  V30 2488 H 241.909 -0.570734 -0.33935 0
M  V30 2489 H 244.439 -1.99377 -0.459324 0
M  V30 2490 H 244.449 -3.1168 -2.63286 0
M  V30 2491 H 243.124 -3.79511 -1.7013 0
M  V30 2492 H 241.701 -2.38332 -2.86797 0
M  V30 2493 N 243.887 0.651787 -1.4349 0
M  V30 2494 C 244.837 1.75783 -1.45205 0
M  V30 2495 C 245.821 1.57679 -0.320328 0
M  V30 2496 O 247.013 1.67767 -0.564211 0
M  V30 2497 C 244.142 3.14377 -1.3792 0
M  V30 2498 C 243.228 3.38023 -2.56127 0
M  V30 2499 N 243.619 3.32135 -3.81471 0
M  V30 2500 C 241.917 3.68747 -2.50882 0
M  V30 2501 C 242.618 3.55902 -4.60118 0
M  V30 2502 N 241.594 3.77783 -3.90872 0
M  V30 2503 H 245.396 1.69657 -2.39987 0
M  V30 2504 H 242.91 0.853508 -1.38163 0
M  V30 2505 H 244.907 3.93666 -1.37231 0
M  V30 2506 H 243.567 3.21683 -0.441596 0
M  V30 2507 H 244.578 3.11515 -4.13738 0
M  V30 2508 H 241.255 3.8316 -1.65816 0
M  V30 2509 H 242.645 3.57116 -5.69138 0
M  V30 2510 N 245.365 1.30045 0.890287 0
M  V30 2511 C 246.642 1.09227 1.62262 0
M  V30 2512 C 247.022 -0.360305 2.08002 0
M  V30 2513 O 246.37 -1.35084 1.84295 0
M  V30 2514 C 246.58 2.08835 2.79623 0
M  V30 2515 C 247.928 2.40266 3.50082 0
M  V30 2516 O 248.952 2.07104 2.89804 0
M  V30 2517 O 247.811 2.96967 4.58773 0
M  V30 2518 H 244.905 0.419132 0.712922 0
M  V30 2519 H 247.451 1.41451 0.937529 0
M  V30 2520 H 246.223 3.06633 2.43089 0
M  V30 2521 H 245.846 1.77397 3.55832 0
M  V30 2522 N 246.843 -1.10192 1.12674 0
M  V30 2523 C 248.068 -1.86523 0.906853 0
M  V30 2524 C 248.493 -1.80221 -0.538711 0
M  V30 2525 O 247.851 -1.17396 -1.38158 0
M  V30 2526 C 247.899 -3.32758 1.3894 0
M  V30 2527 O 247.003 -4.08449 0.5695 0
M  V30 2528 H 246.344 -0.578678 0.325619 0
M  V30 2529 H 248.874 -1.39203 1.49946 0
M  V30 2530 H 248.884 -3.83608 1.38958 0
M  V30 2531 H 247.559 -3.36661 2.44197 0
M  V30 2532 H 246.136 -3.67427 0.636528 0
M  V30 2533 N 248.321 -0.919034 -1.28029 0
M  V30 2534 C 249.251 -0.428581 -2.29533 0
M  V30 2535 C 250.232 0.50659 -1.62381 0
M  V30 2536 O 251.417 0.413195 -1.89753 0
M  V30 2537 C 248.547 0.327388 -3.45753 0
M  V30 2538 C 247.501 -0.519137 -4.2484 0
M  V30 2539 C 246.827 0.365486 -5.33449 0
M  V30 2540 C 248.127 -1.77914 -4.91064 0
M  V30 2541 H 249.821 -1.27687 -2.70807 0
M  V30 2542 H 247.367 -0.615428 -1.30186 0
M  V30 2543 H 249.32 0.681378 -4.15855 0
M  V30 2544 H 248.044 1.20963 -3.03374 0
M  V30 2545 H 246.703 -0.855717 -3.56473 0
M  V30 2546 H 246.351 1.24642 -4.87312 0
M  V30 2547 H 246.051 -0.197356 -5.87268 0
M  V30 2548 H 247.575 0.715241 -6.06396 0
M  V30 2549 H 248.989 -1.49374 -5.53498 0
M  V30 2550 H 247.386 -2.2848 -5.54903 0
M  V30 2551 H 248.456 -2.50382 -4.15255 0
M  V30 2552 N 249.799 1.42003 -0.683588 0
M  V30 2553 C 250.746 2.30798 -0.0107309 0
M  V30 2554 C 251.716 1.4645 0.783688 0
M  V30 2555 O 252.901 1.75263 0.754156 0
M  V30 2556 C 250.041 3.3238 0.928306 0
M  V30 2557 C 249.154 4.31814 0.126776 0
M  V30 2558 C 248.289 5.20468 1.06236 0
M  V30 2559 C 247.328 6.11577 0.253035 0
M  V30 2560 N 246.465 6.92754 1.14179 0
M  V30 2561 H 251.305 2.8778 -0.773727 0
M  V30 2562 H 248.842 1.41745 -0.393283 0
M  V30 2563 H 250.8 3.89813 1.48666 0
M  V30 2564 H 249.43 2.76976 1.65783 0
M  V30 2565 H 248.482 3.76427 -0.54833 0
M  V30 2566 H 249.794 4.96276 -0.501192 0
M  V30 2567 H 248.948 5.82677 1.69035 0
M  V30 2568 H 247.687 4.56204 1.7242 0
M  V30 2569 H 246.692 5.48428 -0.388108 0
M  V30 2570 H 247.917 6.77892 -0.404839 0
M  V30 2571 H 245.863 6.3111 1.78987 0
M  V30 2572 H 245.78 7.53855 0.569111 0
M  V30 2573 H 247.048 7.59441 1.75697 0
M  V30 2574 N 251.277 0.427512 1.51691 0
M  V30 2575 C 252.523 -0.142439 2.02299 0
M  V30 2576 C 252.856 -1.43214 1.31162 0
M  V30 2577 O 252.131 -1.89833 0.423511 0
M  V30 2578 C 252.414 -0.371301 3.58181 0
M  V30 2579 C 252.267 0.936358 4.39946 0
M  V30 2580 C 253.586 -1.14542 4.24933 0
M  V30 2581 H 250.705 -0.0502937 0.735282 0
M  V30 2582 H 253.347 0.564584 1.81418 0
M  V30 2583 H 251.497 -0.973559 3.76104 0
M  V30 2584 H 253.169 1.57184 4.33694 0
M  V30 2585 H 251.412 1.5432 4.05423 0
M  V30 2586 H 252.083 0.730388 5.47147 0
M  V30 2587 H 254.559 -0.635362 4.11221 0
M  V30 2588 H 253.435 -1.27431 5.33903 0
M  V30 2589 H 253.696 -2.17093 3.85127 0
M  V30 2590 N 252.755 -1.56801 0.158532 0
M  V30 2591 C 253.665 -2.20916 -0.789518 0
M  V30 2592 C 254.681 -1.1969 -1.26294 0
M  V30 2593 O 255.857 -1.52308 -1.31773 0
M  V30 2594 C 252.922 -2.82727 -2.00665 0
M  V30 2595 C 251.983 -3.99114 -1.58134 0
M  V30 2596 C 251.216 -4.57968 -2.74045 0
M  V30 2597 O 251.439 -4.15704 -3.90572 0
M  V30 2598 O 250.373 -5.48047 -2.48855 0
M  V30 2599 H 254.199 -3.02464 -0.273681 0
M  V30 2600 H 251.784 -1.4924 -0.0690548 0
M  V30 2601 H 253.666 -3.21968 -2.71872 0
M  V30 2602 H 252.341 -2.04184 -2.51179 0
M  V30 2603 H 251.248 -3.64567 -0.839155 0
M  V30 2604 H 252.581 -4.79212 -1.12325 0
M  V30 2605 N 254.233 0.115231 -1.57178 0
M  V30 2606 C 255.18 1.14115 -2.00615 0
M  V30 2607 C 256.15 1.40939 -0.878941 0
M  V30 2608 O 257.335 1.52741 -1.14345 0
M  V30 2609 C 254.475 2.46156 -2.4187 0
M  V30 2610 C 253.588 2.26236 -3.68024 0
M  V30 2611 C 252.723 3.51534 -3.98243 0
M  V30 2612 C 251.762 3.26787 -5.17568 0
M  V30 2613 N 250.899 4.44298 -5.43639 0
M  V30 2614 H 255.739 0.763743 -2.88047 0
M  V30 2615 H 253.276 0.365615 -1.42484 0
M  V30 2616 H 255.234 3.23189 -2.63827 0
M  V30 2617 H 253.864 2.81783 -1.57475 0
M  V30 2618 H 252.916 1.40102 -3.5366 0
M  V30 2619 H 254.228 2.03929 -4.55208 0
M  V30 2620 H 253.382 4.36984 -4.20868 0
M  V30 2621 H 252.121 3.76876 -3.09541 0
M  V30 2622 H 251.126 2.39729 -4.94783 0
M  V30 2623 H 252.351 3.02812 -6.0785 0
M  V30 2624 H 250.297 4.69754 -4.57895 0
M  V30 2625 H 250.214 4.25109 -6.25154 0
M  V30 2626 H 251.482 5.3087 -5.70786 0
M  V30 2627 N 255.711 1.52812 0.385517 0
M  V30 2628 C 256.988 1.5861 1.14465 0
M  V30 2629 C 257.368 0.381402 2.07626 0
M  V30 2630 O 256.716 -0.629999 2.19643 0
M  V30 2631 C 256.926 2.92664 1.90128 0
M  V30 2632 C 258.274 3.46526 2.45367 0
M  V30 2633 O 259.298 2.94562 2.0028 0
M  V30 2634 O 258.157 4.37323 3.27736 0
M  V30 2635 H 255.251 0.639855 0.523941 0
M  V30 2636 H 257.797 1.65149 0.390389 0
M  V30 2637 H 256.569 3.71788 1.22022 0
M  V30 2638 H 256.192 2.89527 2.72507 0
M  V30 2639 N 257.189 -0.644168 1.43834 0
M  V30 2640 C 258.119 -1.76814 1.52509 0
M  V30 2641 C 259.1 -1.65823 0.379052 0
M  V30 2642 O 260.285 -1.84781 0.597466 0
M  V30 2643 C 257.415 -3.15288 1.4564 0
M  V30 2644 C 256.369 -3.41053 2.58586 0
M  V30 2645 C 255.695 -4.79421 2.36769 0
M  V30 2646 C 256.995 -3.34902 4.00797 0
M  V30 2647 H 258.689 -1.69812 2.46586 0
M  V30 2648 H 256.235 -0.815542 1.1868 0
M  V30 2649 H 258.188 -3.93681 1.50311 0
M  V30 2650 H 256.912 -3.23043 0.480725 0
M  V30 2651 H 255.571 -2.65035 2.53282 0
M  V30 2652 H 255.219 -4.83863 1.37424 0
M  V30 2653 H 254.919 -4.9762 3.12487 0
M  V30 2654 H 256.443 -5.6006 2.43238 0
M  V30 2655 H 257.857 -4.03218 4.07539 0
M  V30 2656 H 256.254 -3.64637 4.76613 0
M  V30 2657 H 257.324 -2.32928 4.25291 0
M  V30 2658 N 258.668 -1.30515 -0.883378 0
M  V30 2659 C 260.084 -1.08881 -1.16692 0
M  V30 2660 C 260.284 0.149409 -2.00945 0
M  V30 2661 O 259.34 0.84257 -2.38027 0
M  V30 2662 C 260.653 -2.35319 -1.87204 0
M  V30 2663 C 262.201 -2.40799 -1.99962 0
M  V30 2664 C 262.676 -3.67083 -2.73887 0
M  V30 2665 N 264.167 -3.679 -2.81432 0
M  V30 2666 C 264.902 -4.62303 -3.3921 0
M  V30 2667 N 264.398 -5.67052 -3.98025 0
M  V30 2668 N 266.191 -4.49845 -3.3704 0
M  V30 2669 H 258.342 -2.09951 -0.321633 0
M  V30 2670 H 260.605 -0.92556 -0.205043 0
M  V30 2671 H 260.311 -3.25689 -1.3274 0
M  V30 2672 H 260.185 -2.44089 -2.87577 0
M  V30 2673 H 262.572 -1.50907 -2.53597 0
M  V30 2674 H 262.653 -2.36003 -0.98673 0
M  V30 2675 H 262.297 -4.57334 -2.20925 0
M  V30 2676 H 262.227 -3.69141 -3.75556 0
M  V30 2677 H 264.718 -2.92171 -2.39676 0
M  V30 2678 H 265.031 -6.35184 -4.40183 0
M  V30 2679 H 263.376 -5.70842 -3.96439 0
M  V30 2680 H 266.567 -3.67194 -2.90321 0
M  V30 2681 H 266.74 -5.23597 -3.81772 0
M  V30 2682 N 260.146 1.09593 -1.13257 0
M  V30 2683 C 261.386 1.83349 -0.903472 0
M  V30 2684 C 261.75 1.83641 0.560351 0
M  V30 2685 O 262.951 2.53037 0.906947 0
M  V30 2686 C 261.222 3.25629 -1.47311 0
M  V30 2687 S 262.781 4.16408 -1.38382 0
M  V30 2688 H 259.599 0.632014 -0.325699 0
M  V30 2689 H 262.201 1.31817 -1.44376 0
M  V30 2690 H 260.905 3.22991 -2.53189 0
M  V30 2691 H 260.436 3.82233 -0.930689 0
M  V30 2692 H 262.451 4.94884 -0.361113 0
M  V30 2693 N 261.624 0.925811 1.2754 0
M  V30 2694 C 262.854 0.580666 1.98272 0
M  V30 2695 C 263.262 -0.845207 1.69272 0
M  V30 2696 O 262.605 -1.57306 0.948707 0
M  V30 2697 C 262.667 0.724418 3.52126 0
M  V30 2698 C 262.331 2.12206 4.04744 0
M  V30 2699 C 263.328 3.09604 4.17662 0
M  V30 2700 C 261.013 2.4385 4.39138 0
M  V30 2701 C 263.007 4.36755 4.64246 0
M  V30 2702 C 260.694 3.71237 4.85414 0
M  V30 2703 C 261.692 4.67503 4.97926 0
M  V30 2704 O 261.38 5.92624 5.43187 0
M  V30 2705 H 261.112 0.218987 0.639547 0
M  V30 2706 H 263.666 1.24452 1.63404 0
M  V30 2707 H 261.896 0.0034663 3.867 0
M  V30 2708 H 263.585 0.384607 4.04074 0
M  V30 2709 H 264.351 2.86478 3.91351 0
M  V30 2710 H 260.23 1.69665 4.28643 0
M  V30 2711 H 263.774 5.11898 4.73927 0
M  V30 2712 H 259.671 3.94182 5.11166 0
M  V30 2713 H 260.439 5.95585 5.61445 0
M  V30 2714 N 263.102 -1.41638 0.69111 0
M  V30 2715 C 264.35 -2.00902 0.219758 0
M  V30 2716 C 264.671 -1.54994 -1.18329 0
M  V30 2717 O 263.941 -0.778628 -1.79762 0
M  V30 2718 H 262.521 -0.74289 0.0782558 0
M  V30 2719 H 265.183 -1.73327 0.891271 0
M  V30 2720 H 264.279 -3.11224 0.233708 0
M  V30 2721 N 264.58 -0.43555 -1.51462 0
M  V30 2722 C 265.826 0.131709 -2.02372 0
M  V30 2723 C 266.159 1.42516 -1.3192 0
M  V30 2724 O 265.434 1.89606 -0.433573 0
M  V30 2725 C 265.717 0.352301 -3.58373 0
M  V30 2726 C 265.57 -0.959676 -4.39443 0
M  V30 2727 C 266.889 1.12286 -4.25535 0
M  V30 2728 H 264.008 0.0463936 -0.735538 0
M  V30 2729 H 266.65 -0.574197 -1.81116 0
M  V30 2730 H 264.8 0.9536 -3.76615 0
M  V30 2731 H 266.472 -1.59482 -4.32855 0
M  V30 2732 H 264.715 -1.56468 -4.04599 0
M  V30 2733 H 265.386 -0.759394 -5.46752 0
M  V30 2734 H 267.862 0.613545 -4.11552 0
M  V30 2735 H 266.738 1.24598 -5.34571 0
M  V30 2736 H 266.999 2.15048 -3.86273 0
M  V30 2737 N 266.058 1.56714 -0.166846 0
M  V30 2738 C 267.021 2.16539 0.751232 0
M  V30 2739 C 268.021 1.11228 1.16125 0
M  V30 2740 O 269.211 1.36765 1.07894 0
M  V30 2741 C 266.343 2.74462 2.02196 0
M  V30 2742 H 267.536 2.99013 0.230499 0
M  V30 2743 H 265.089 1.56081 0.0826982 0
M  V30 2744 H 265.824 1.95709 2.58589 0
M  V30 2745 H 265.609 3.51527 1.73698 0
M  V30 2746 H 267.099 3.20489 2.67725 0
M  V30 2747 N 267.536 -0.106894 1.57237 0
M  V30 2748 C 268.761 -0.830287 1.90055 0
M  V30 2749 C 269.186 -1.72064 0.75998 0
M  V30 2750 O 268.544 -1.78982 -0.288991 0
M  V30 2751 C 268.592 -1.6295 3.21683 0
M  V30 2752 O 267.696 -2.73748 3.08441 0
M  V30 2753 H 267.037 -0.228855 0.623315 0
M  V30 2754 H 269.567 -0.085658 2.04421 0
M  V30 2755 H 269.577 -2.01621 3.54701 0
M  V30 2756 H 268.252 -0.975989 4.04286 0
M  V30 2757 H 266.829 -2.38192 2.86913 0
M  V30 2758 N 269.014 -1.53014 -0.377408 0
M  V30 2759 C 270.239 -1.72818 -1.14668 0
M  V30 2760 C 270.664 -0.450725 -1.8262 0
M  V30 2761 O 270.022 0.59439 -1.7128 0
M  V30 2762 C 270.07 -2.88627 -2.16164 0
M  V30 2763 O 269.174 -2.56409 -3.22998 0
M  V30 2764 H 268.515 -0.574301 -0.333278 0
M  V30 2765 H 271.045 -1.99853 -0.438152 0
M  V30 2766 H 271.055 -3.14455 -2.59966 0
M  V30 2767 H 269.73 -3.81294 -1.66095 0
M  V30 2768 H 268.307 -2.4136 -2.84253 0
M  V30 2769 N 270.492 0.636531 -1.44174 0
M  V30 2770 C 271.442 1.74233 -1.47061 0
M  V30 2771 C 272.426 1.57331 -0.337034 0
M  V30 2772 O 273.618 1.67159 -0.581973 0
M  V30 2773 C 270.747 3.12897 -1.41246 0
M  V30 2774 C 269.833 3.35288 -2.59698 0
M  V30 2775 N 270.224 3.2807 -3.84972 0
M  V30 2776 C 268.522 3.66065 -2.54778 0
M  V30 2777 C 269.223 3.51001 -4.63867 0
M  V30 2778 N 268.199 3.73616 -3.94857 0
M  V30 2779 H 272.001 1.67103 -2.41773 0
M  V30 2780 H 269.515 0.838806 -1.3906 0
M  V30 2781 H 271.512 3.92189 -1.41398 0
M  V30 2782 H 270.172 3.21197 -0.47569 0
M  V30 2783 H 271.183 3.07109 -4.17019 0
M  V30 2784 H 267.86 3.81379 -1.6987 0
M  V30 2785 H 269.25 3.51059 -5.72894 0
M  V30 2786 N 271.97 1.30982 0.876444 0
M  V30 2787 C 272.9 1.20668 1.99903 0
M  V30 2788 C 273.881 0.095354 1.69833 0
M  V30 2789 O 275.066 0.27885 1.92188 0
M  V30 2790 C 272.196 0.90655 3.3526 0
M  V30 2791 C 271.15 1.97675 3.79617 0
M  V30 2792 C 270.476 1.52943 5.1236 0
M  V30 2793 C 271.776 3.389 3.97422 0
M  V30 2794 H 273.47 2.14586 2.0879 0
M  V30 2795 H 271.016 1.03308 1.00317 0
M  V30 2796 H 272.969 0.821025 4.13324 0
M  V30 2797 H 271.693 -0.0682969 3.26529 0
M  V30 2798 H 270.352 2.05205 3.03787 0
M  V30 2799 H 270 0.54262 5.00065 0
M  V30 2800 H 269.7 2.24532 5.43009 0
M  V30 2801 H 271.224 1.45786 5.92941 0
M  V30 2802 H 272.638 3.34081 4.659 0
M  V30 2803 H 271.035 4.0865 4.3946 0
M  V30 2804 H 272.105 3.80163 3.01006 0
M  V30 2805 N 273.449 -1.08991 1.13837 0
M  V30 2806 C 274.396 -2.15748 0.819835 0
M  V30 2807 C 275.366 -1.64636 -0.220026 0
M  V30 2808 O 276.551 -1.90582 -0.0912757 0
M  V30 2809 C 273.691 -3.4382 0.296913 0
M  V30 2810 C 272.804 -4.0881 1.39636 0
M  V30 2811 C 271.939 -5.24655 0.831314 0
M  V30 2812 C 270.978 -5.81575 1.90886 0
M  V30 2813 N 270.115 -6.88774 1.36142 0
M  V30 2814 H 274.955 -2.42338 1.73426 0
M  V30 2815 H 272.492 -1.18935 0.865613 0
M  V30 2816 H 274.45 -4.17193 -0.0244339 0
M  V30 2817 H 273.08 -3.17535 -0.580628 0
M  V30 2818 H 272.132 -3.33258 1.83422 0
M  V30 2819 H 273.444 -4.47141 2.21058 0
M  V30 2820 H 272.598 -6.04942 0.461515 0
M  V30 2821 H 271.337 -4.87698 -0.013932 0
M  V30 2822 H 270.342 -4.99946 2.28767 0
M  V30 2823 H 271.567 -6.20592 2.75758 0
M  V30 2824 H 269.513 -6.53788 0.538254 0
M  V30 2825 H 269.43 -7.25898 2.11208 0
M  V30 2826 H 270.698 -7.72806 1.01933 0
M  V30 2827 N 274.927 -0.932562 -1.27047 0
M  V30 2828 C 276.155 -0.592031 -1.98249 0
M  V30 2829 C 276.57 0.831062 -1.69525 0
M  V30 2830 O 275.927 1.55299 -0.958561 0
M  V30 2831 C 275.978 -0.814279 -3.5221 0
M  V30 2832 O 275.699 -2.18139 -3.7993 0
M  V30 2833 C 277.2 -0.483121 -4.4066 0
M  V30 2834 H 274.42 -0.223896 -0.632544 0
M  V30 2835 H 276.964 -1.25091 -1.61779 0
M  V30 2836 H 275.119 -0.20213 -3.86872 0
M  V30 2837 H 275.533 -2.235 -4.74498 0
M  V30 2838 H 277.007 -0.689298 -5.47679 0
M  V30 2839 H 277.484 0.581546 -4.35333 0
M  V30 2840 H 278.09 -1.07362 -4.11526 0
M  V30 2841 N 276.405 1.4127 -0.698611 0
M  V30 2842 C 277.335 2.33447 -0.049629 0
M  V30 2843 C 278.316 1.51982 0.763898 0
M  V30 2844 O 279.501 1.80509 0.716257 0
M  V30 2845 C 276.631 3.35828 0.885267 0
M  V30 2846 C 275.585 4.27627 0.178613 0
M  V30 2847 C 274.911 5.20406 1.22807 0
M  V30 2848 C 276.211 5.13459 -0.956933 0
M  V30 2849 H 277.905 2.87966 -0.81951 0
M  V30 2850 H 275.451 1.38461 -0.395538 0
M  V30 2851 H 277.404 3.9924 1.34854 0
M  V30 2852 H 276.128 2.79666 1.68685 0
M  V30 2853 H 274.787 3.65643 -0.26466 0
M  V30 2854 H 274.435 4.60558 2.02226 0
M  V30 2855 H 274.135 5.82661 0.760239 0
M  V30 2856 H 275.659 5.86695 1.69179 0
M  V30 2857 H 277.073 5.70421 -0.573805 0
M  V30 2858 H 275.47 5.8467 -1.35205 0
M  V30 2859 H 276.54 4.50443 -1.79524 0
M  V30 2860 N 277.883 0.443576 1.51229 0
M  V30 2861 C 278.813 -0.355142 2.30783 0
M  V30 2862 C 279.794 -1.0154 1.36468 0
M  V30 2863 O 280.979 -1.01785 1.65389 0
M  V30 2864 C 278.109 -1.45312 3.15439 0
M  V30 2865 C 277.063 -0.916002 4.18083 0
M  V30 2866 C 276.389 -2.1102 4.91299 0
M  V30 2867 C 277.689 0.0538602 5.22272 0
M  V30 2868 H 279.383 0.308767 2.97804 0
M  V30 2869 H 276.929 0.149937 1.43217 0
M  V30 2870 H 278.882 -2.01914 3.69876 0
M  V30 2871 H 277.606 -2.14541 2.46252 0
M  V30 2872 H 276.265 -0.372145 3.64706 0
M  V30 2873 H 275.913 -2.78882 4.18609 0
M  V30 2874 H 275.613 -1.75717 5.60712 0
M  V30 2875 H 277.137 -2.68164 5.48562 0
M  V30 2876 H 278.551 -0.422069 5.71744 0
M  V30 2877 H 276.948 0.319776 5.99247 0
M  V30 2878 H 278.018 0.98858 4.74716 0
M  V30 2879 N 279.361 -1.56624 0.175154 0
M  V30 2880 C 280.308 -2.18149 -0.753634 0
M  V30 2881 C 281.278 -1.12265 -1.22417 0
M  V30 2882 O 282.463 -1.40432 -1.29165 0
M  V30 2883 C 279.603 -2.82933 -1.97592 0
M  V30 2884 C 278.716 -4.03289 -1.5486 0
M  V30 2885 C 277.851 -4.55988 -2.72485 0
M  V30 2886 C 276.89 -5.68746 -2.26262 0
M  V30 2887 N 276.027 -6.15938 -3.36994 0
M  V30 2888 H 280.867 -2.9717 -0.222195 0
M  V30 2889 H 278.404 -1.46774 -0.0979422 0
M  V30 2890 H 280.362 -3.18653 -2.69288 0
M  V30 2891 H 278.992 -2.06509 -2.481 0
M  V30 2892 H 278.044 -3.73364 -0.728246 0
M  V30 2893 H 279.356 -4.849 -1.16933 0
M  V30 2894 H 278.51 -4.9391 -3.52332 0
M  V30 2895 H 277.249 -3.73443 -3.13674 0
M  V30 2896 H 276.254 -5.30372 -1.44863 0
M  V30 2897 H 277.479 -6.53095 -1.86127 0
M  V30 2898 H 275.425 -5.36321 -3.77751 0
M  V30 2899 H 275.342 -6.92548 -3.03172 0
M  V30 2900 H 276.61 -6.58511 -4.17114 0
M  V30 2901 N 280.839 0.0985539 -1.57292 0
M  V30 2902 C 281.786 1.11981 -2.01814 0
M  V30 2903 C 282.756 1.39999 -0.89384 0
M  V30 2904 O 283.941 1.5152 -1.15958 0
M  V30 2905 C 281.081 2.43577 -2.44467 0
M  V30 2906 C 280.194 2.2232 -3.70402 0
M  V30 2907 C 279.329 3.4729 -4.01949 0
M  V30 2908 C 278.368 3.2128 -5.21005 0
M  V30 2909 N 277.505 4.38507 -5.48321 0
M  V30 2910 H 282.345 0.733149 -2.88841 0
M  V30 2911 H 279.882 0.350482 -1.42864 0
M  V30 2912 H 281.84 3.20373 -2.6724 0
M  V30 2913 H 280.47 2.80097 -1.60455 0
M  V30 2914 H 279.522 1.36343 -3.55126 0
M  V30 2915 H 280.834 1.99089 -4.57345 0
M  V30 2916 H 279.988 4.32495 -4.25479 0
M  V30 2917 H 278.727 3.73572 -3.13521 0
M  V30 2918 H 277.732 2.34468 -4.97298 0
M  V30 2919 H 278.957 2.96348 -6.11028 0
M  V30 2920 H 276.903 4.64871 -4.62851 0
M  V30 2921 H 276.82 4.18455 -6.29628 0
M  V30 2922 H 278.088 5.24787 -5.76385 0
M  V30 2923 N 282.317 1.53212 0.369288 0
M  V30 2924 C 283.542 1.73423 1.1375 0
M  V30 2925 C 283.967 0.460404 1.82378 0
M  V30 2926 O 283.325 -0.585298 1.71592 0
M  V30 2927 C 283.373 2.89769 2.1463 0
M  V30 2928 O 282.477 2.58119 3.21634 0
M  V30 2929 H 281.818 0.576061 0.330227 0
M  V30 2930 H 284.348 2.00083 0.427547 0
M  V30 2931 H 284.358 3.15829 2.58294 0
M  V30 2932 H 283.033 3.8217 1.64071 0
M  V30 2933 H 281.61 2.42864 2.82969 0
M  V30 2934 N 283.795 -0.628877 1.44509 0
M  V30 2935 C 284.742 -1.74074 1.51549 0
M  V30 2936 C 285.712 -1.62084 0.363021 0
M  V30 2937 O 286.897 -1.81975 0.573567 0
M  V30 2938 C 284.037 -3.12328 1.46784 0
M  V30 2939 C 283.15 -3.35277 2.72422 0
M  V30 2940 C 282.285 -4.63515 2.59475 0
M  V30 2941 C 281.324 -4.7965 3.80266 0
M  V30 2942 N 280.461 -5.99168 3.65981 0
M  V30 2943 H 285.301 -1.67392 2.46544 0
M  V30 2944 H 282.838 -0.816527 1.22357 0
M  V30 2945 H 284.796 -3.92286 1.42012 0
M  V30 2946 H 283.426 -3.18018 0.553544 0
M  V30 2947 H 282.478 -2.49242 2.87372 0
M  V30 2948 H 283.79 -3.43078 3.62076 0
M  V30 2949 H 282.944 -5.51638 2.52548 0
M  V30 2950 H 281.683 -4.58076 1.67384 0
M  V30 2951 H 280.688 -3.89957 3.87574 0
M  V30 2952 H 281.913 -4.86902 4.73395 0
M  V30 2953 H 279.859 -5.94814 2.76644 0
M  V30 2954 H 279.776 -6.08035 4.49254 0
M  V30 2955 H 281.044 -6.89846 3.6295 0
M  V30 2956 N 285.273 -1.31445 -0.869486 0
M  V30 2957 C 286.519 -1.21337 -1.62496 0
M  V30 2958 C 286.852 0.227872 -1.92858 0
M  V30 2959 O 286.127 1.16094 -1.56053 0
M  V30 2960 C 286.41 -2.05814 -2.95487 0
M  V30 2961 C 286.263 -3.5824 -2.72 0
M  V30 2962 C 287.582 -1.9079 -3.96594 0
M  V30 2963 H 284.701 -0.442135 -0.589649 0
M  V30 2964 H 287.343 -1.6124 -1.00507 0
M  V30 2965 H 285.493 -1.71913 -3.48394 0
M  V30 2966 H 287.165 -4.0228 -2.25762 0
M  V30 2967 H 285.408 -3.81647 -2.06224 0
M  V30 2968 H 286.079 -4.12657 -3.66631 0
M  V30 2969 H 288.555 -2.20459 -3.52898 0
M  V30 2970 H 287.431 -2.52199 -4.87531 0
M  V30 2971 H 287.692 -0.871341 -4.33428 0
M  V30 2972 N 286.751 1.08385 -1.14413 0
M  V30 2973 C 287.698 2.15311 -0.831265 0
M  V30 2974 C 288.668 1.64751 0.211292 0
M  V30 2975 O 289.853 1.90627 0.0811674 0
M  V30 2976 C 286.993 3.43658 -0.315143 0
M  V30 2977 C 286.106 4.08064 -1.41802 0
M  V30 2978 C 285.241 5.24207 -0.859126 0
M  V30 2979 C 284.28 5.80554 -1.93967 0
M  V30 2980 N 283.417 6.88042 -1.39793 0
M  V30 2981 H 288.257 2.41415 -1.74708 0
M  V30 2982 H 285.794 1.18474 -0.871909 0
M  V30 2983 H 287.752 4.172 0.00230884 0
M  V30 2984 H 286.382 3.17839 0.56378 0
M  V30 2985 H 285.434 3.3228 -1.85187 0
M  V30 2986 H 286.746 4.45962 -2.23427 0
M  V30 2987 H 285.9 6.04689 -0.49359 0
M  V30 2988 H 284.639 4.87699 -0.011932 0
M  V30 2989 H 283.644 4.98725 -2.31415 0
M  V30 2990 H 284.869 6.19121 -2.79046 0
M  V30 2991 H 282.815 6.53493 -0.572919 0
M  V30 2992 H 282.732 7.24767 -2.15054 0
M  V30 2993 H 284 7.72255 -1.0603 0
M  V30 2994 N 288.23 0.939286 1.26551 0
M  V30 2995 C 289.507 0.5038 1.89001 0
M  V30 2996 C 289.887 -1.01854 1.84903 0
M  V30 2997 O 289.235 -1.87773 1.30206 0
M  V30 2998 C 289.445 1.063 3.32417 0
M  V30 2999 C 290.793 1.13051 4.09273 0
M  V30 3000 O 291.817 1.01345 3.41479 0
M  V30 3001 O 290.676 1.31233 5.30509 0
M  V30 3002 H 287.77 0.163897 0.810597 0
M  V30 3003 H 290.316 1.03173 1.34735 0
M  V30 3004 H 289.088 2.10665 3.29752 0
M  V30 3005 H 288.711 0.517408 3.94219 0
M  V30 3006 N 289.708 -1.40897 0.706093 0
M  V30 3007 C 290.64 -2.29199 0.00815776 0
M  V30 3008 C 291.653 -1.45336 -0.733582 0
M  V30 3009 O 292.842 -1.68727 -0.582537 0
M  V30 3010 C 289.942 -3.23417 -1.01265 0
M  V30 3011 C 289.115 -4.36089 -0.338387 0
M  V30 3012 C 288.174 -5.10811 -1.26326 0
M  V30 3013 O 287.2 -5.64215 -0.751651 0
M  V30 3014 N 288.402 -5.19269 -2.595 0
M  V30 3015 H 291.167 -2.89738 0.766297 0
M  V30 3016 H 288.728 -1.52164 0.55296 0
M  V30 3017 H 290.72 -3.70276 -1.63334 0
M  V30 3018 H 289.29 -2.64112 -1.67223 0
M  V30 3019 H 288.51 -3.91479 0.462352 0
M  V30 3020 H 289.798 -5.08634 0.130031 0
M  V30 3021 H 289.196 -4.77347 -3.03573 0
M  V30 3022 H 287.753 -5.69667 -3.16737 0
M  V30 3023 N 291.186 -0.45159 -1.50991 0
M  V30 3024 C 292.133 0.352625 -2.2809 0
M  V30 3025 C 293.103 1.0044 -1.32291 0
M  V30 3026 O 294.288 1.02058 -1.6121 0
M  V30 3027 C 291.428 1.43983 -3.13629 0
M  V30 3028 C 290.541 0.804772 -4.24438 0
M  V30 3029 C 289.676 1.86822 -4.97263 0
M  V30 3030 C 288.715 1.21236 -5.99973 0
M  V30 3031 N 287.852 2.2178 -6.66152 0
M  V30 3032 H 292.692 -0.311186 -2.96371 0
M  V30 3033 H 290.229 -0.165308 -1.46168 0
M  V30 3034 H 292.187 2.08161 -3.61559 0
M  V30 3035 H 290.817 2.07307 -2.47434 0
M  V30 3036 H 289.869 0.0509129 -3.80366 0
M  V30 3037 H 291.181 0.286076 -4.97979 0
M  V30 3038 H 290.335 2.58628 -5.48813 0
M  V30 3039 H 289.074 2.42068 -4.23385 0
M  V30 3040 H 288.079 0.479828 -5.47702 0
M  V30 3041 H 289.304 0.667051 -6.75816 0
M  V30 3042 H 287.25 2.76079 -5.95077 0
M  V30 3043 H 287.167 1.74841 -7.35504 0
M  V30 3044 H 288.435 2.93026 -7.22327 0
M  V30 3045 N 292.664 1.56529 -0.183458 0
M  V30 3046 C 294.075 1.83739 0.331177 0
M  V30 3047 C 294.426 1.10373 1.62211 0
M  V30 3048 O 293.551 0.36071 2.13373 0
M  V30 3049 C 294.146 3.33306 0.607646 0
M  V30 3050 C 292.705 3.60969 1.06668 0
M  V30 3051 C 291.852 2.77086 0.109029 0
M  V30 3052 H 294.803 1.53379 -0.407484 0
M  V30 3053 H 294.824 3.51444 1.45832 0
M  V30 3054 H 294.336 3.86677 -0.332086 0
M  V30 3055 H 292.437 3.13021 2.0211 0
M  V30 3056 H 292.55 4.69231 0.967447 0
M  V30 3057 H 290.914 2.47319 0.608714 0
M  V30 3058 H 291.697 3.33241 -0.82494 0
M  V30 3059 N 294.142 -0.090211 1.57342 0
M  V30 3060 C 295.419 -0.824761 1.77361 0
M  V30 3061 C 295.799 -1.96698 0.76637 0
M  V30 3062 O 295.147 -2.27586 -0.204179 0
M  V30 3063 C 295.357 -1.31481 3.23286 0
M  V30 3064 C 296.705 -1.75563 3.86604 0
M  V30 3065 O 297.729 -1.41093 3.27065 0
M  V30 3066 O 296.588 -2.39317 4.91314 0
M  V30 3067 H 293.682 -0.393776 0.727234 0
M  V30 3068 H 296.228 -0.0717138 1.69548 0
M  V30 3069 H 295 -0.496671 3.88135 0
M  V30 3070 H 294.623 -2.12973 3.35751 0
M  V30 3071 N 295.62 -1.53406 -0.361157 0
M  V30 3072 C 296.848 -1.73717 -1.12383 0
M  V30 3073 C 297.263 -0.468161 -1.82904 0
M  V30 3074 O 296.62 0.559198 -1.73722 0
M  V30 3075 C 296.671 -2.90558 -2.15078 0
M  V30 3076 O 296.392 -4.12549 -1.47428 0
M  V30 3077 C 297.893 -3.22777 -3.03858 0
M  V30 3078 H 295.113 -0.580896 -0.335858 0
M  V30 3079 H 297.657 -2.00167 -0.418728 0
M  V30 3080 H 295.812 -2.66489 -2.8118 0
M  V30 3081 H 296.226 -4.78009 -2.15887 0
M  V30 3082 H 297.7 -4.07927 -3.71887 0
M  V30 3083 H 298.177 -2.38329 -3.68912 0
M  V30 3084 H 298.783 -3.48787 -2.43367 0
M  V30 3085 N 297.098 0.621204 -1.44841 0
M  V30 3086 C 298.046 1.75385 -1.52784 0
M  V30 3087 C 299.04 1.64639 -0.398779 0
M  V30 3088 O 300.246 1.70598 -0.574137 0
M  V30 3089 H 296.621 0.579193 -0.479625 0
M  V30 3090 H 298.592 1.6581 -2.48092 0
M  V30 3091 C 297.341 3.13742 -1.4987 0
M  V30 3092 H 296.664 3.22663 -2.36069 0
M  V30 3093 H 298.104 3.92861 -1.59487 0
M  V30 3094 C 296.563 3.36175 -0.220973 0
M  V30 3095 O 297.093 3.95469 0.704782 0
M  V30 3096 N 295.299 2.90348 -0.120963 0
M  V30 3097 H 294.846 2.42278 -0.875162 0
M  V30 3098 H 294.804 3.05732 0.733168 0
M  V30 3099 N 298.576 1.31904 0.862503 0
M  V30 3100 C 299.506 1.22782 1.98612 0
M  V30 3101 C 300.487 0.113362 1.69722 0
M  V30 3102 O 301.672 0.299218 1.91881 0
M  V30 3103 C 298.802 0.942058 3.34279 0
M  V30 3104 C 297.756 2.0169 3.77499 0
M  V30 3105 C 297.082 1.58369 5.10709 0
M  V30 3106 C 298.382 3.43096 3.93805 0
M  V30 3107 H 300.076 2.16788 2.06502 0
M  V30 3108 H 297.622 1.04366 0.992154 0
M  V30 3109 H 299.575 0.864818 4.1243 0
M  V30 3110 H 298.299 -0.0336603 3.26583 0
M  V30 3111 H 296.958 2.08416 3.01593 0
M  V30 3112 H 296.606 0.595628 4.99461 0
M  V30 3113 H 296.306 2.30279 5.40597 0
M  V30 3114 H 297.83 1.52067 5.91361 0
M  V30 3115 H 299.244 3.39003 4.62331 0
M  V30 3116 H 297.641 4.13288 4.35101 0
M  V30 3117 H 298.711 3.83334 2.96957 0
M  V30 3118 N 300.054 -1.07777 1.14986 0
M  V30 3119 C 301.465 -1.61766 0.932127 0
M  V30 3120 C 301.816 -1.88974 -0.527581 0
M  V30 3121 O 300.941 -1.65198 -1.39781 0
M  V30 3122 C 301.536 -2.93891 1.68563 0
M  V30 3123 C 300.095 -3.44639 1.5133 0
M  V30 3124 C 299.242 -2.18767 1.704 0
M  V30 3125 H 302.193 -0.909201 1.30074 0
M  V30 3126 H 302.214 -3.62623 1.15259 0
M  V30 3127 H 301.726 -2.74057 2.74799 0
M  V30 3128 H 299.827 -3.69564 0.474702 0
M  V30 3129 H 299.94 -4.20966 2.28746 0
M  V30 3130 H 298.304 -2.28253 1.13016 0
M  V30 3131 H 299.087 -2.01433 2.77992 0
M  V30 3132 N 301.532 -0.945985 -1.26051 0
M  V30 3133 C 302.809 -0.513816 -1.88731 0
M  V30 3134 C 303.189 1.00872 -1.8544 0
M  V30 3135 O 302.537 1.8708 -1.312 0
M  V30 3136 C 302.747 -1.08062 -3.31849 0
M  V30 3137 C 304.095 -1.1522 -4.08668 0
M  V30 3138 O 305.119 -1.03155 -3.40936 0
M  V30 3139 O 303.978 -1.34044 -5.29806 0
M  V30 3140 H 301.072 -0.168193 -0.809716 0
M  V30 3141 H 303.618 -1.03886 -1.34186 0
M  V30 3142 H 302.39 -2.1241 -3.2863 0
M  V30 3143 H 302.013 -0.538307 -3.93939 0
M  V30 3144 N 303.011 1.40521 -0.713556 0
M  V30 3145 C 304.257 2.01221 -0.252564 0
M  V30 3146 C 304.59 1.56444 1.1506 0
M  V30 3147 O 303.865 0.783597 1.78017 0
M  V30 3148 C 304.148 3.58582 -0.330332 0
M  V30 3149 C 304.001 4.13437 -1.77173 0
M  V30 3150 C 305.32 4.39079 0.299641 0
M  V30 3151 H 302.439 0.731077 -0.0932471 0
M  V30 3152 H 305.081 1.67026 -0.905673 0
M  V30 3153 H 303.231 3.87844 0.225737 0
M  V30 3154 H 304.903 3.9498 -2.38303 0
M  V30 3155 H 303.146 3.67801 -2.3001 0
M  V30 3156 H 303.817 5.22597 -1.77755 0
M  V30 3157 H 306.293 4.15735 -0.174139 0
M  V30 3158 H 305.169 5.4848 0.214771 0
M  V30 3159 H 305.43 4.19915 1.38288 0
M  V30 3160 N 304.489 0.459591 1.5075 0
M  V30 3161 C 305.717 -0.0973749 2.06671 0
M  V30 3162 C 306.132 -1.34524 1.32472 0
M  V30 3163 O 305.489 -1.7827 0.390634 0
M  V30 3164 C 305.54 -0.39714 3.59312 0
M  V30 3165 O 305.261 0.801214 4.30711 0
M  V30 3166 C 306.762 -1.00234 4.31819 0
M  V30 3167 H 303.982 0.00195854 0.670997 0
M  V30 3168 H 306.526 0.645072 1.94059 0
M  V30 3169 H 304.681 -1.08951 3.71764 0
M  V30 3170 H 305.095 0.538857 5.21725 0
M  V30 3171 H 306.569 -1.16193 5.39632 0
M  V30 3172 H 307.046 -1.98939 3.91561 0
M  V30 3173 H 307.652 -0.348699 4.23868 0
M  V30 3174 N 305.967 -1.56429 0.191757 0
M  V30 3175 C 306.914 -2.18936 -0.730454 0
M  V30 3176 C 307.884 -1.13557 -1.21219 0
M  V30 3177 O 309.069 -1.41794 -1.27668 0
M  V30 3178 C 306.209 -2.85013 -1.9458 0
M  V30 3179 C 305.322 -4.04909 -1.50574 0
M  V30 3180 C 304.457 -4.58853 -2.67634 0
M  V30 3181 C 303.496 -5.71114 -2.20217 0
M  V30 3182 N 302.633 -6.19478 -3.30442 0
M  V30 3183 H 307.473 -2.97389 -0.190664 0
M  V30 3184 H 305.01 -1.46869 -0.0823694 0
M  V30 3185 H 306.968 -3.21492 -2.65893 0
M  V30 3186 H 305.598 -2.09129 -2.45896 0
M  V30 3187 H 304.65 -3.74115 -0.688605 0
M  V30 3188 H 305.962 -4.86113 -1.11784 0
M  V30 3189 H 305.116 -4.97619 -3.47074 0
M  V30 3190 H 303.855 -3.76749 -3.09696 0
M  V30 3191 H 302.86 -5.31879 -1.3923 0
M  V30 3192 H 304.085 -6.55033 -1.79189 0
M  V30 3193 H 302.031 -5.40297 -3.72041 0
M  V30 3194 H 301.948 -6.95725 -2.9581 0
M  V30 3195 H 303.216 -6.62898 -4.10106 0
M  V30 3196 N 307.445 0.0818655 -1.57387 0
M  V30 3197 C 308.393 1.11712 -2.04018 0
M  V30 3198 C 309.387 1.40683 -0.94364 0
M  V30 3199 O 310.593 1.40209 -1.12878 0
M  V30 3200 H 306.968 0.377542 -0.650358 0
M  V30 3201 H 308.939 0.697614 -2.90131 0
M  V30 3202 C 307.688 2.42537 -2.49141 0
M  V30 3203 H 307.011 2.21092 -3.33104 0
M  V30 3204 H 308.451 3.13446 -2.85531 0
M  V30 3205 C 306.91 3.0778 -1.37014 0
M  V30 3206 O 307.44 3.95436 -0.706621 0
M  V30 3207 N 305.646 2.68242 -1.11779 0
M  V30 3208 H 305.193 1.97052 -1.65917 0
M  V30 3209 H 305.151 3.1222 -0.369594 0
M  V30 3210 N 308.923 1.53595 0.353017 0
M  V30 3211 C 309.853 1.83902 1.43883 0
M  V30 3212 C 310.834 0.693421 1.55324 0
M  V30 3213 O 312.019 0.944452 1.69687 0
M  V30 3214 C 309.149 2.04016 2.8106 0
M  V30 3215 C 308.103 3.19814 2.84434 0
M  V30 3216 C 307.429 3.25244 4.24406 0
M  V30 3217 C 308.729 4.58133 2.50822 0
M  V30 3218 H 310.423 2.74835 1.1877 0
M  V30 3219 H 307.969 1.32242 0.569917 0
M  V30 3220 H 309.922 2.238 3.57059 0
M  V30 3221 H 308.646 1.09804 3.07588 0
M  V30 3222 H 307.305 2.9987 2.10887 0
M  V30 3223 H 306.953 2.28646 4.48029 0
M  V30 3224 H 306.653 4.03054 4.27576 0
M  V30 3225 H 308.177 3.47228 5.0226 0
M  V30 3226 H 309.591 4.77995 3.16534 0
M  V30 3227 H 307.988 5.38276 2.6529 0
M  V30 3228 H 309.058 4.62387 1.46034 0
M  V30 3229 N 310.401 -0.613514 1.45168 0
M  V30 3230 C 311.65 -1.36874 1.4815 0
M  V30 3231 C 311.963 -1.952 0.124982 0
M  V30 3232 O 313.169 -2.71481 0.0324176 0
M  V30 3233 C 311.625 -2.47905 2.60904 0
M  V30 3234 C 311.233 -1.96016 4.02842 0
M  V30 3235 C 312.977 -3.24965 2.73126 0
M  V30 3236 C 310.884 -3.04494 5.06988 0
M  V30 3237 H 309.814 -0.514428 0.551253 0
M  V30 3238 H 312.465 -0.658182 1.7129 0
M  V30 3239 H 310.847 -3.21618 2.31037 0
M  V30 3240 H 312.021 -1.29051 4.4236 0
M  V30 3241 H 310.336 -1.31719 3.95018 0
M  V30 3242 H 312.933 -4.05865 3.48106 0
M  V30 3243 H 313.276 -3.75588 1.79553 0
M  V30 3244 H 313.809 -2.5835 3.0249 0
M  V30 3245 H 310.548 -2.58795 6.0225 0
M  V30 3246 H 310.068 -3.70044 4.72046 0
M  V30 3247 H 311.747 -3.68976 5.31475 0
M  V30 3248 N 311.879 -1.3236 -0.855495 0
M  V30 3249 C 313.295 -1.11332 -1.14356 0
M  V30 3250 C 313.495 0.106751 -2.01217 0
M  V30 3251 O 312.551 0.791891 -2.39761 0
M  V30 3252 C 313.864 -2.39237 -1.82171 0
M  V30 3253 C 315.412 -2.44986 -1.9481 0
M  V30 3254 C 315.887 -3.7281 -2.66039 0
M  V30 3255 N 317.378 -3.73787 -2.73565 0
M  V30 3256 C 318.113 -4.69394 -3.29327 0
M  V30 3257 N 317.609 -5.75367 -3.85907 0
M  V30 3258 N 319.402 -4.56893 -3.27423 0
M  V30 3259 H 311.553 -2.10586 -0.277027 0
M  V30 3260 H 313.816 -0.929701 -0.185364 0
M  V30 3261 H 313.522 -3.28431 -1.25802 0
M  V30 3262 H 313.396 -2.50134 -2.82335 0
M  V30 3263 H 315.783 -1.56252 -2.50338 0
M  V30 3264 H 315.864 -2.38043 -0.936448 0
M  V30 3265 H 315.508 -4.61918 -2.11174 0
M  V30 3266 H 315.438 -3.77024 -3.67642 0
M  V30 3267 H 317.929 -2.97189 -2.33424 0
M  V30 3268 H 318.242 -6.44378 -4.26611 0
M  V30 3269 H 316.587 -5.79123 -3.84242 0
M  V30 3270 H 319.778 -3.73269 -2.82467 0
M  V30 3271 H 319.951 -5.31577 -3.7058 0
M  V30 3272 N 313.357 1.07166 -1.15556 0
M  V30 3273 C 314.634 1.76546 -0.842069 0
M  V30 3274 C 315.014 2.00453 0.661939 0
M  V30 3275 O 314.362 1.62452 1.60691 0
M  V30 3276 C 314.572 3.07266 -1.65495 0
M  V30 3277 C 315.92 3.81578 -1.86234 0
M  V30 3278 O 316.944 3.17083 -1.62287 0
M  V30 3279 O 315.803 4.97419 -2.26355 0
M  V30 3280 H 312.897 0.766756 -0.309862 0
M  V30 3281 H 315.443 1.13514 -1.26145 0
M  V30 3282 H 314.215 2.85494 -2.67598 0
M  V30 3283 H 313.838 3.7803 -1.23203 0
M  V30 3284 N 314.835 0.952656 1.25548 0
M  V30 3285 C 316.251 0.656769 1.4546 0
M  V30 3286 C 316.451 -0.78633 1.85524 0
M  V30 3287 O 315.507 -1.56183 1.98402 0
M  V30 3288 C 316.82 1.62801 2.52817 0
M  V30 3289 C 318.368 1.63897 2.66659 0
M  V30 3290 C 318.843 2.5978 3.77198 0
M  V30 3291 N 320.334 2.58133 3.84606 0
M  V30 3292 C 321.069 3.29003 4.69621 0
M  V30 3293 N 320.565 4.09339 5.58939 0
M  V30 3294 N 322.358 3.179 4.63569 0
M  V30 3295 H 314.509 1.88526 0.978344 0
M  V30 3296 H 316.772 0.810815 0.491206 0
M  V30 3297 H 316.478 2.65869 2.30232 0
M  V30 3298 H 316.352 1.38898 3.50695 0
M  V30 3299 H 318.739 0.615481 2.8861 0
M  V30 3300 H 318.82 1.91858 1.69187 0
M  V30 3301 H 318.464 3.62254 3.55997 0
M  V30 3302 H 318.394 2.29105 4.7415 0
M  V30 3303 H 320.885 1.99809 3.20757 0
M  V30 3304 H 321.198 4.6034 6.20731 0
M  V30 3305 H 319.543 4.13438 5.58654 0
M  V30 3306 H 322.734 2.54612 3.92798 0
M  V30 3307 H 322.907 3.73398 5.29602 0
M  V30 3308 N 316.313 -1.40141 0.720998 0
M  V30 3309 C 317.56 -2.00787 0.262842 0
M  V30 3310 C 317.888 -1.5718 -1.14563 0
M  V30 3311 O 317.143 -0.785391 -1.79249 0
M  V30 3312 C 317.442 -3.56165 0.296892 0
M  V30 3313 C 317.108 -4.19373 1.65641 0
M  V30 3314 C 315.77 -4.36352 2.02855 0
M  V30 3315 C 318.122 -4.54578 2.54968 0
M  V30 3316 C 315.45 -4.8582 3.28931 0
M  V30 3317 C 317.802 -5.05447 3.80402 0
M  V30 3318 C 316.466 -5.20635 4.17726 0
M  V30 3319 H 315.736 -0.734731 0.0961807 0
M  V30 3320 H 318.383 -1.67673 0.925093 0
M  V30 3321 H 316.688 -3.8922 -0.448932 0
M  V30 3322 H 318.385 -4.00929 -0.0755208 0
M  V30 3323 H 314.975 -4.06549 1.35704 0
M  V30 3324 H 319.159 -4.41091 2.27491 0
M  V30 3325 H 314.415 -4.95764 3.57811 0
M  V30 3326 H 318.589 -5.31663 4.49786 0
M  V30 3327 H 316.216 -5.58728 5.15487 0
M  V30 3328 N 317.792 -0.46758 -1.50504 0
M  V30 3329 C 318.755 0.317059 -2.26996 0
M  V30 3330 C 319.755 0.923513 -1.31635 0
M  V30 3331 O 320.945 0.793239 -1.55091 0
M  V30 3332 C 318.077 1.45134 -3.08462 0
M  V30 3333 H 319.27 -0.353723 -2.97807 0
M  V30 3334 H 316.823 -0.221545 -1.54722 0
M  V30 3335 H 317.558 2.15728 -2.4214 0
M  V30 3336 H 317.343 1.02232 -3.78538 0
M  V30 3337 H 318.833 2.00493 -3.66323 0
M  V30 3338 N 319.27 1.56325 -0.20005 0
M  V30 3339 C 320.18 2.22931 0.730668 0
M  V30 3340 C 321.196 1.22997 1.23076 0
M  V30 3341 O 322.372 1.55748 1.27689 0
M  V30 3342 C 319.437 2.87948 1.93098 0
M  V30 3343 C 318.498 4.03166 1.47497 0
M  V30 3344 C 317.731 4.65073 2.61807 0
M  V30 3345 O 317.954 4.25913 3.79413 0
M  V30 3346 O 316.888 5.54452 2.34237 0
M  V30 3347 H 320.714 3.03084 0.193391 0
M  V30 3348 H 318.299 1.49371 0.0294621 0
M  V30 3349 H 320.181 3.29063 2.6324 0
M  V30 3350 H 318.856 2.10771 2.45677 0
M  V30 3351 H 317.763 3.66664 0.742201 0
M  V30 3352 H 319.096 4.82022 0.995796 0
M  V30 3353 N 320.748 -0.0735177 1.57428 0
M  V30 3354 C 321.973 -0.789787 1.91774 0
M  V30 3355 C 322.398 -1.70413 0.796306 0
M  V30 3356 O 321.756 -1.79555 -0.250961 0
M  V30 3357 C 321.804 -1.5609 3.25067 0
M  V30 3358 O 320.908 -2.67144 3.14178 0
M  V30 3359 H 320.249 -0.215582 0.628029 0
M  V30 3360 H 322.779 -0.0422781 2.04556 0
M  V30 3361 H 322.789 -1.94052 3.58898 0
M  V30 3362 H 321.464 -0.890015 4.06265 0
M  V30 3363 H 320.041 -2.32052 2.91901 0
M  V30 3364 N 322.226 -1.5378 -0.344866 0
M  V30 3365 C 323.637 -1.62428 -0.920552 0
M  V30 3366 C 323.988 -0.504747 -1.89596 0
M  V30 3367 O 323.113 0.365711 -2.13287 0
M  V30 3368 C 323.708 -2.94419 -1.67639 0
M  V30 3369 C 322.267 -3.05333 -2.20111 0
M  V30 3370 C 321.414 -2.57866 -1.01982 0
M  V30 3371 H 324.365 -1.58222 -0.123042 0
M  V30 3372 H 324.386 -2.83384 -2.53917 0
M  V30 3373 H 323.898 -3.7588 -0.966224 0
M  V30 3374 H 321.999 -2.28502 -2.94308 0
M  V30 3375 H 322.112 -4.10778 -2.46573 0
M  V30 3376 H 320.476 -2.13241 -1.39285 0
M  V30 3377 H 321.259 -3.41765 -0.324308 0
M  V30 3378 N 323.704 0.605807 -1.45491 0
M  V30 3379 C 324.654 1.71074 -1.50724 0
M  V30 3380 C 325.638 1.5658 -0.37033 0
M  V30 3381 O 326.83 1.65887 -0.617299 0
M  V30 3382 C 323.959 3.0983 -1.47852 0
M  V30 3383 C 323.045 3.29704 -2.66751 0
M  V30 3384 N 323.436 3.19831 -3.91844 0
M  V30 3385 C 321.734 3.60579 -2.62486 0
M  V30 3386 C 322.435 3.41083 -4.71208 0
M  V30 3387 N 321.411 3.65157 -4.02693 0
M  V30 3388 H 325.213 1.61937 -2.45263 0
M  V30 3389 H 322.727 0.80912 -1.40808 0
M  V30 3390 H 324.724 3.89101 -1.49686 0
M  V30 3391 H 323.384 3.20115 -0.543714 0
M  V30 3392 H 324.395 2.98194 -4.23439 0
M  V30 3393 H 321.072 3.7769 -1.77922 0
M  V30 3394 H 322.462 3.38828 -5.80211 0
M  V30 3395 N 325.182 1.32811 0.848464 0
M  V30 3396 C 326.132 1.18842 1.94578 0
M  V30 3397 C 327.116 0.0937517 1.60627 0
M  V30 3398 O 328.308 0.320887 1.74067 0
M  V30 3399 C 325.437 0.91999 3.30743 0
M  V30 3400 C 324.523 2.05665 3.70894 0
M  V30 3401 N 324.914 3.30579 3.8282 0
M  V30 3402 C 323.212 1.9612 4.00566 0
M  V30 3403 C 323.913 4.05067 4.17487 0
M  V30 3404 N 322.889 3.33419 4.2934 0
M  V30 3405 H 326.691 2.13536 2.0194 0
M  V30 3406 H 324.205 1.2468 1.0406 0
M  V30 3407 H 326.202 0.800859 4.09136 0
M  V30 3408 H 324.862 -0.0185076 3.24695 0
M  V30 3409 H 325.873 3.65441 3.66978 0
M  V30 3410 H 322.55 1.09871 4.02784 0
M  V30 3411 H 323.94 5.12815 4.34131 0
M  V30 3412 N 326.66 -1.06551 1.16123 0
M  V30 3413 C 327.906 -1.79567 0.94252 0
M  V30 3414 C 328.239 -1.86869 -0.528547 0
M  V30 3415 O 327.514 -1.35838 -1.39206 0
M  V30 3416 C 327.797 -3.24195 1.56747 0
M  V30 3417 C 327.65 -3.24989 3.10969 0
M  V30 3418 C 328.969 -4.21678 1.25998 0
M  V30 3419 H 326.088 -0.651883 0.343828 0
M  V30 3420 H 328.73 -1.2463 1.43413 0
M  V30 3421 H 326.88 -3.71107 1.14942 0
M  V30 3422 H 328.552 -2.86258 3.61737 0
M  V30 3423 H 326.795 -2.63716 3.44436 0
M  V30 3424 H 327.466 -4.27005 3.49815 0
M  V30 3425 H 329.942 -3.83196 1.62174 0
M  V30 3426 H 328.818 -5.21146 1.7233 0
M  V30 3427 H 329.079 -4.4174 0.178367 0
M  V30 3428 N 328.138 -0.959301 -1.25041 0
M  V30 3429 C 329.386 -0.615393 -1.92503 0
M  V30 3430 C 329.707 0.850969 -1.75452 0
M  V30 3431 O 328.977 1.60658 -1.12098 0
M  V30 3432 H 327.557 -0.224613 -0.712431 0
M  V30 3433 H 330.219 -1.21855 -1.5211 0
M  V30 3434 H 329.315 -0.848738 -3.00338 0
M  V30 3435 N 329.616 1.39756 -0.72842 0
M  V30 3436 C 330.548 2.29157 -0.0446202 0
M  V30 3437 C 331.561 1.46484 0.710367 0
M  V30 3438 O 332.75 1.69632 0.55562 0
M  V30 3439 C 329.85 3.24987 0.961071 0
M  V30 3440 C 329.023 4.36572 0.268967 0
M  V30 3441 C 328.082 5.12756 1.18184 0
M  V30 3442 O 327.108 5.6534 0.661794 0
M  V30 3443 N 328.31 5.23331 2.51206 0
M  V30 3444 H 331.075 2.88482 -0.812295 0
M  V30 3445 H 328.636 1.51265 -0.577098 0
M  V30 3446 H 330.628 3.72827 1.57423 0
M  V30 3447 H 329.198 2.66739 1.63 0
M  V30 3448 H 328.418 3.90694 -0.524574 0
M  V30 3449 H 329.706 5.08363 -0.210934 0
M  V30 3450 H 329.104 4.82116 2.9594 0
M  V30 3451 H 327.661 5.74634 3.07634 0
M  V30 3452 N 331.094 0.475555 1.50254 0
M  V30 3453 C 332.319 -0.0777042 2.07254 0
M  V30 3454 C 332.744 -1.3235 1.3366 0
M  V30 3455 O 332.102 -1.77152 0.385597 0
M  V30 3456 C 332.15 -0.340169 3.58992 0
M  V30 3457 O 331.254 -1.41982 3.87188 0
M  V30 3458 H 330.595 0.0149556 0.663832 0
M  V30 3459 H 333.125 0.667878 1.93392 0
M  V30 3460 H 333.135 -0.579332 4.03866 0
M  V30 3461 H 331.81 0.570167 4.11973 0
M  V30 3462 H 330.387 -1.16762 3.54148 0
M  V30 3463 N 332.573 -1.56217 0.208337 0
M  V30 3464 C 333.821 -1.97558 -0.426076 0
M  V30 3465 C 334.142 -1.09683 -1.61229 0
M  V30 3466 O 333.412 -0.170956 -1.95153 0
M  V30 3467 H 331.992 -0.729575 -0.160405 0
M  V30 3468 H 334.654 -1.92606 0.298155 0
M  V30 3469 H 333.75 -3.02672 -0.761312 0
M  V30 3470 N 334.051 0.0651679 -1.57465 0
M  V30 3471 C 335.279 0.775808 -1.91804 0
M  V30 3472 C 335.694 1.70782 -0.804916 0
M  V30 3473 O 335.051 1.81153 0.221311 0
M  V30 3474 C 335.102 1.56381 -3.25925 0
M  V30 3475 O 334.823 0.669248 -4.32958 0
M  V30 3476 C 336.324 2.37485 -3.7432 0
M  V30 3477 H 333.544 0.2202 -0.63384 0
M  V30 3478 H 336.088 0.0334587 -2.04473 0
M  V30 3479 H 334.243 2.25837 -3.14764 0
M  V30 3480 H 334.657 1.21801 -5.10162 0
M  V30 3481 H 336.131 2.88223 -4.70778 0
M  V30 3482 H 336.608 3.17307 -3.03666 0
M  V30 3483 H 337.214 1.73173 -3.88447 0
M  V30 3484 N 335.529 1.53961 0.336706 0
M  V30 3485 C 336.476 1.82428 1.41381 0
M  V30 3486 C 337.446 0.670444 1.51968 0
M  V30 3487 O 338.631 0.915565 1.67398 0
M  V30 3488 C 335.771 2.04564 2.77934 0
M  V30 3489 C 334.884 3.32267 2.76084 0
M  V30 3490 C 334.019 3.44434 4.04399 0
M  V30 3491 C 333.058 4.66061 3.96804 0
M  V30 3492 N 332.195 4.75224 5.16823 0
M  V30 3493 H 337.035 2.74324 1.16405 0
M  V30 3494 H 334.572 1.35869 0.563752 0
M  V30 3495 H 336.53 2.15388 3.57301 0
M  V30 3496 H 335.16 1.15974 3.01247 0
M  V30 3497 H 334.212 3.3025 1.88784 0
M  V30 3498 H 335.524 4.21733 2.66351 0
M  V30 3499 H 334.678 3.54728 4.92192 0
M  V30 3500 H 333.417 2.53037 4.16921 0
M  V30 3501 H 332.422 4.55838 3.07396 0
M  V30 3502 H 333.647 5.58829 3.85858 0
M  V30 3503 H 331.593 3.86739 5.29876 0
M  V30 3504 H 331.51 5.58636 5.09374 0
M  V30 3505 H 332.778 4.89835 6.06367 0
M  V30 3506 N 337.007 -0.598083 1.45811 0
M  V30 3507 C 338.253 -1.35882 1.50545 0
M  V30 3508 C 338.586 -1.93616 0.150445 0
M  V30 3509 O 337.861 -1.75604 -0.83628 0
M  V30 3510 C 338.144 -2.49966 2.59208 0
M  V30 3511 C 337.997 -1.97367 4.04186 0
M  V30 3512 C 339.316 -3.52068 2.64076 0
M  V30 3513 H 336.435 -0.492717 0.548087 0
M  V30 3514 H 339.077 -0.673319 1.77669 0
M  V30 3515 H 337.227 -3.08443 2.3621 0
M  V30 3516 H 338.899 -1.43466 4.38423 0
M  V30 3517 H 337.142 -1.283 4.14393 0
M  V30 3518 H 337.813 -2.79649 4.75921 0
M  V30 3519 H 340.289 -3.03448 2.84708 0
M  V30 3520 H 339.165 -4.2937 3.41954 0
M  V30 3521 H 339.426 -4.08304 1.69531 0
M  V30 3522 N 338.485 -1.33259 -0.841409 0
M  V30 3523 C 339.418 -1.1764 -1.95541 0
M  V30 3524 C 340.396 -0.072501 -1.62438 0
M  V30 3525 O 341.58 -0.23427 -1.87039 0
M  V30 3526 C 338.707 -0.803794 -3.29024 0
M  V30 3527 C 337.753 -1.91482 -3.81099 0
M  V30 3528 S 338.586 -3.52538 -4.03085 0
M  V30 3529 C 339.742 -3.17279 -5.39523 0
M  V30 3530 H 339.975 -2.11941 -2.08491 0
M  V30 3531 H 337.508 -1.18072 -0.9949 0
M  V30 3532 H 339.466 -0.595592 -4.06156 0
M  V30 3533 H 338.127 0.120574 -3.13868 0
M  V30 3534 H 337.32 -1.60742 -4.7768 0
M  V30 3535 H 336.922 -2.07956 -3.10854 0
M  V30 3536 H 339.214 -2.67946 -6.22263 0
M  V30 3537 H 340.157 -4.1293 -5.75234 0
M  V30 3538 H 340.565 -2.53943 -5.04156 0
M  V30 3539 N 339.963 1.05934 -1.16686 0
M  V30 3540 C 341.188 1.83029 -0.975455 0
M  V30 3541 C 341.613 1.82096 0.471452 0
M  V30 3542 O 340.971 1.22443 1.33706 0
M  V30 3543 C 341.019 3.27372 -1.51195 0
M  V30 3544 O 340.123 4.06054 -0.720701 0
M  V30 3545 H 339.464 0.566194 -0.346872 0
M  V30 3546 H 341.994 1.33541 -1.55009 0
M  V30 3547 H 342.004 3.78186 -1.53099 0
M  V30 3548 H 340.679 3.27366 -2.56523 0
M  V30 3549 H 339.256 3.64812 -0.772458 0
M  V30 3550 N 341.441 0.965919 1.2453 0
M  V30 3551 C 342.351 0.502154 2.29163 0
M  V30 3552 C 343.367 -0.436017 1.68448 0
M  V30 3553 O 344.543 -0.309497 1.99008 0
M  V30 3554 C 341.608 -0.201956 3.46111 0
M  V30 3555 C 340.669 0.775821 4.22232 0
M  V30 3556 C 339.902 0.105217 5.33596 0
M  V30 3557 O 340.125 -1.10683 5.59558 0
M  V30 3558 O 339.059 0.796475 5.96607 0
M  V30 3559 H 342.885 1.37194 2.70946 0
M  V30 3560 H 340.47 0.732875 1.30189 0
M  V30 3561 H 342.352 -0.597564 4.17142 0
M  V30 3562 H 341.027 -1.04673 3.06309 0
M  V30 3563 H 339.934 1.22185 3.53584 0
M  V30 3564 H 341.267 1.58896 4.65846 0
M  V30 3565 N 342.919 -1.39368 0.735821 0
M  V30 3566 C 344.33 -1.83313 0.354015 0
M  V30 3567 C 344.681 -1.61461 -1.11466 0
M  V30 3568 O 343.806 -1.10621 -1.85989 0
M  V30 3569 C 344.401 -3.32781 0.635769 0
M  V30 3570 C 342.96 -3.75142 0.307448 0
M  V30 3571 C 342.107 -2.62358 0.897974 0
M  V30 3572 H 345.058 -1.28349 0.933398 0
M  V30 3573 H 345.079 -3.80388 -0.0921773 0
M  V30 3574 H 344.591 -3.48654 1.70476 0
M  V30 3575 H 342.692 -3.64857 -0.755674 0
M  V30 3576 H 342.805 -4.72532 0.790583 0
M  V30 3577 H 341.169 -2.52624 0.324551 0
M  V30 3578 H 341.952 -2.81036 1.97164 0
M  V30 3579 N 344.397 -0.483516 -1.5 0
M  V30 3580 C 345.327 0.293829 -2.31644 0
M  V30 3581 C 346.308 0.978864 -1.39112 0
M  V30 3582 O 347.493 0.973644 -1.68029 0
M  V30 3583 C 344.623 1.36897 -3.19181 0
M  V30 3584 C 343.577 0.804833 -4.20365 0
M  V30 3585 C 342.903 1.9792 -4.96721 0
M  V30 3586 C 344.203 -0.192313 -5.21946 0
M  V30 3587 H 345.897 -0.387616 -2.9688 0
M  V30 3588 H 343.443 -0.187856 -1.42769 0
M  V30 3589 H 345.396 1.92037 -3.751 0
M  V30 3590 H 344.12 2.07936 -2.51853 0
M  V30 3591 H 342.779 0.275319 -3.65565 0
M  V30 3592 H 342.427 2.67686 -4.25856 0
M  V30 3593 H 342.127 1.60789 -5.65173 0
M  V30 3594 H 343.651 2.53526 -5.55479 0
M  V30 3595 H 345.065 0.270333 -5.72662 0
M  V30 3596 H 343.462 -0.478543 -5.98189 0
M  V30 3597 H 344.532 -1.11409 -4.71928 0
M  V30 3598 N 345.875 1.56104 -0.216619 0
M  V30 3599 C 347.1 2.0301 0.424462 0
M  V30 3600 C 347.525 1.0955 1.52907 0
M  V30 3601 O 346.883 0.0827914 1.81111 0
M  V30 3602 C 346.931 3.4819 0.937883 0
M  V30 3603 O 346.035 3.57865 2.04955 0
M  V30 3604 H 345.376 0.656925 0.0966755 0
M  V30 3605 H 347.906 2.01859 -0.33381 0
M  V30 3606 H 347.916 3.88413 1.24897 0
M  V30 3607 H 346.591 4.15699 0.129387 0
M  V30 3608 H 345.168 3.29527 1.74546 0
M  V30 3609 N 347.353 -0.0568162 1.57498 0
M  V30 3610 C 348.593 -0.758273 1.89815 0
M  V30 3611 C 348.957 -1.73978 0.812132 0
M  V30 3612 O 350.158 -2.48744 1.01881 0
M  V30 3613 C 348.429 -1.43465 3.27342 0
M  V30 3614 S 349.988 -2.1691 3.81439 0
M  V30 3615 H 346.806 -0.251836 0.664906 0
M  V30 3616 H 349.408 -0.0137997 1.95495 0
M  V30 3617 H 348.112 -0.706693 4.0427 0
M  V30 3618 H 347.643 -2.21825 3.24896 0
M  V30 3619 H 349.658 -3.43658 3.5793 0
M  V30 3620 N 348.832 -1.54138 -0.328536 0
M  V30 3621 C 349.795 -1.82462 -1.38709 0
M  V30 3622 C 350.795 -0.696229 -1.44946 0
M  V30 3623 O 351.985 -0.964535 -1.4506 0
M  V30 3624 C 349.117 -1.98018 -2.77492 0
M  V30 3625 H 350.31 -2.77037 -1.14851 0
M  V30 3626 H 347.863 -1.45779 -0.563751 0
M  V30 3627 H 348.598 -1.05637 -3.06613 0
M  V30 3628 H 348.383 -2.80124 -2.74359 0
M  V30 3629 H 349.873 -2.21396 -3.54081 0
M  V30 3630 N 350.31 0.590341 -1.46126 0
M  V30 3631 C 351.273 1.68194 -1.55703 0
M  V30 3632 C 352.273 1.54808 -0.434868 0
M  V30 3633 O 353.463 1.59564 -0.698928 0
M  V30 3634 C 350.595 3.07575 -1.47005 0
M  V30 3635 H 351.788 1.61064 -2.52979 0
M  V30 3636 H 349.341 0.807541 -1.33823 0
M  V30 3637 H 350.076 3.20268 -0.509785 0
M  V30 3638 H 349.861 3.187 -2.28414 0
M  V30 3639 H 351.351 3.87055 -1.56776 0
M  V30 3640 N 351.788 1.33704 0.83433 0
M  V30 3641 C 353.204 1.13137 1.12571 0
M  V30 3642 C 353.404 -0.0747261 2.01361 0
M  V30 3643 O 352.46 -0.753647 2.4099 0
M  V30 3644 C 353.773 2.42105 1.78342 0
M  V30 3645 C 355.321 2.48054 1.90888 0
M  V30 3646 C 355.796 3.76995 2.60075 0
M  V30 3647 N 357.287 3.78092 2.67584 0
M  V30 3648 C 358.022 4.74574 3.21818 0
M  V30 3649 N 357.518 5.81434 3.76705 0
M  V30 3650 N 359.311 4.62044 3.20112 0
M  V30 3651 H 351.462 2.11 0.243489 0
M  V30 3652 H 353.725 0.932532 0.17055 0
M  V30 3653 H 353.431 3.30391 1.20561 0
M  V30 3654 H 353.305 2.54594 2.7832 0
M  V30 3655 H 355.692 1.60215 2.47821 0
M  V30 3656 H 355.773 2.39502 0.898459 0
M  V30 3657 H 355.417 4.65219 2.03799 0
M  V30 3658 H 355.347 3.82825 3.61597 0
M  V30 3659 H 357.838 3.00865 2.28667 0
M  V30 3660 H 358.151 6.51084 4.16305 0
M  V30 3661 H 356.496 5.85163 3.7498 0
M  V30 3662 H 359.687 3.77716 2.76493 0
M  V30 3663 H 359.86 5.37406 3.62076 0
M  V30 3664 N 353.266 -1.05314 1.17247 0
M  V30 3665 C 354.196 -2.1498 0.911362 0
M  V30 3666 C 355.177 -1.69471 -0.146169 0
M  V30 3667 O 356.362 -1.942 0.003812 0
M  V30 3668 C 353.492 -3.4472 0.422528 0
M  V30 3669 C 352.446 -4.03789 1.4191 0
M  V30 3670 C 351.772 -5.28858 0.788274 0
M  V30 3671 C 353.072 -4.41418 2.7919 0
M  V30 3672 H 354.766 -2.3708 1.82848 0
M  V30 3673 H 352.312 -1.13938 0.880569 0
M  V30 3674 H 354.265 -4.20787 0.227289 0
M  V30 3675 H 352.989 -3.22269 -0.530123 0
M  V30 3676 H 351.648 -3.2979 1.60106 0
M  V30 3677 H 351.296 -5.02709 -0.171173 0
M  V30 3678 H 350.996 -5.69338 1.45353 0
M  V30 3679 H 352.52 -6.07612 0.603282 0
M  V30 3680 H 353.934 -5.08524 2.64719 0
M  V30 3681 H 352.331 -4.92913 3.42282 0
M  V30 3682 H 353.401 -3.51819 3.33693 0
M  V30 3683 N 354.744 -0.972509 -1.24016 0
M  V30 3684 C 355.676 -0.464375 -2.24446 0
M  V30 3685 C 356.689 0.4295 -1.57032 0
M  V30 3686 O 357.878 0.234902 -1.76948 0
M  V30 3687 C 354.978 0.348385 -3.37105 0
M  V30 3688 C 354.151 -0.53673 -4.34094 0
M  V30 3689 C 353.21 0.220838 -5.25736 0
M  V30 3690 O 352.236 -0.386867 -5.67884 0
M  V30 3691 N 353.438 1.50907 -5.60542 0
M  V30 3692 H 356.203 -1.32788 -2.68677 0
M  V30 3693 H 353.764 -0.844877 -1.38107 0
M  V30 3694 H 355.756 0.863341 -3.95384 0
M  V30 3695 H 354.326 1.11285 -2.92121 0
M  V30 3696 H 353.546 -1.23261 -3.74433 0
M  V30 3697 H 354.834 -1.14022 -4.95859 0
M  V30 3698 H 354.232 2.02444 -5.28236 0
M  V30 3699 H 352.789 1.96962 -6.21329 0
M  V30 3700 N 356.222 1.38976 -0.743202 0
M  V30 3701 C 357.185 2.28901 -0.117014 0
M  V30 3702 C 358.185 1.46698 0.658503 0
M  V30 3703 O 359.375 1.67274 0.486305 0
M  V30 3704 C 356.507 3.30309 0.84315 0
M  V30 3705 H 357.7 2.8578 -0.909373 0
M  V30 3706 H 355.253 1.47761 -0.509547 0
M  V30 3707 H 355.988 2.785 1.66157 0
M  V30 3708 H 355.773 3.91029 0.289594 0
M  V30 3709 H 357.263 3.97577 1.2776 0
M  V30 3710 N 357.7 0.491464 1.49741 0
M  V30 3711 C 358.946 -0.0565092 2.02721 0
M  V30 3712 C 359.279 -1.37522 1.37118 0
M  V30 3713 O 358.554 -1.87866 0.503645 0
M  V30 3714 C 358.837 -0.219051 3.59433 0
M  V30 3715 C 358.69 1.12211 4.35579 0
M  V30 3716 C 360.009 -0.964157 4.29409 0
M  V30 3717 H 357.128 -0.0190627 0.736753 0
M  V30 3718 H 359.77 0.641021 1.7886 0
M  V30 3719 H 357.92 -0.813165 3.79895 0
M  V30 3720 H 359.592 1.75437 4.26637 0
M  V30 3721 H 357.835 1.71377 3.98513 0
M  V30 3722 H 358.506 0.961794 5.43556 0
M  V30 3723 H 360.982 -0.460378 4.13545 0
M  V30 3724 H 359.858 -1.04671 5.38828 0
M  V30 3725 H 360.119 -2.00563 3.93988 0
M  V30 3726 N 359.178 -1.55987 0.224894 0
M  V30 3727 C 360.141 -2.19178 -0.670348 0
M  V30 3728 C 361.141 -1.15461 -1.11917 0
M  V30 3729 O 362.331 -1.40675 -1.02743 0
M  V30 3730 C 359.463 -2.81777 -1.9187 0
M  V30 3731 H 360.656 -2.99662 -0.119364 0
M  V30 3732 H 358.209 -1.5628 -0.0247128 0
M  V30 3733 H 358.944 -2.05172 -2.51147 0
M  V30 3734 H 358.729 -3.57732 -1.60531 0
M  V30 3735 H 360.219 -3.30205 -2.55645 0
M  V30 3736 N 360.656 0.0484629 -1.57525 0
M  V30 3737 C 361.881 0.759177 -1.93006 0
M  V30 3738 C 362.306 1.69125 -0.823317 0
M  V30 3739 O 361.664 1.79931 0.222364 0
M  V30 3740 C 361.712 1.50899 -3.27509 0
M  V30 3741 O 360.816 2.62112 -3.18388 0
M  V30 3742 H 360.157 0.205564 -0.631379 0
M  V30 3743 H 362.687 0.00972959 -2.04598 0
M  V30 3744 H 362.697 1.88317 -3.6194 0
M  V30 3745 H 361.372 0.825269 -4.0763 0
M  V30 3746 H 359.949 2.27379 -2.95556 0
M  V30 3747 N 362.134 1.5431 0.320358 0
M  V30 3748 C 363.067 1.78769 1.41834 0
M  V30 3749 C 364.045 0.63783 1.49568 0
M  V30 3750 O 365.229 0.875628 1.66928 0
M  V30 3751 C 362.356 1.90712 2.79905 0
M  V30 3752 C 361.402 3.13023 2.89687 0
M  V30 3753 S 362.235 4.71554 2.53766 0
M  V30 3754 C 363.391 4.86408 3.93902 0
M  V30 3755 H 363.624 2.71619 1.20874 0
M  V30 3756 H 361.157 1.45474 0.517377 0
M  V30 3757 H 363.115 1.98279 3.59438 0
M  V30 3758 H 361.776 0.988343 2.98145 0
M  V30 3759 H 360.969 3.18124 3.90913 0
M  V30 3760 H 360.571 3.03803 2.18128 0
M  V30 3761 H 362.863 4.69241 4.88691 0
M  V30 3762 H 363.806 5.88508 3.93782 0
M  V30 3763 H 364.214 4.14689 3.83005 0
M  V30 3764 N 363.613 -0.582584 1.46437 0
M  V30 3765 C 364.859 -1.34278 1.51978 0
M  V30 3766 C 365.192 -1.93446 0.170973 0
M  V30 3767 O 364.467 -1.76481 -0.817608 0
M  V30 3768 C 364.75 -2.47203 2.61845 0
M  V30 3769 C 364.603 -1.93069 4.06257 0
M  V30 3770 C 365.922 -3.49247 2.67795 0
M  V30 3771 H 363.041 -0.486876 0.553282 0
M  V30 3772 H 365.683 -0.654437 1.78374 0
M  V30 3773 H 363.833 -3.0592 2.39469 0
M  V30 3774 H 365.505 -1.38808 4.3992 0
M  V30 3775 H 363.748 -1.23898 4.1573 0
M  V30 3776 H 364.419 -2.74586 4.7886 0
M  V30 3777 H 366.895 -3.00411 2.8791 0
M  V30 3778 H 365.771 -4.25719 3.46489 0
M  V30 3779 H 366.032 -4.06482 1.73852 0
M  V30 3780 N 365.091 -1.34144 -0.827227 0
M  V30 3781 C 366.001 -1.27428 -1.96975 0
M  V30 3782 C 367.017 -0.182728 -1.73038 0
M  V30 3783 O 368.193 -0.408426 -1.97215 0
M  V30 3784 C 365.258 -1.02526 -3.31194 0
M  V30 3785 C 364.319 -2.20796 -3.68168 0
M  V30 3786 C 363.552 -1.97073 -4.95982 0
M  V30 3787 O 363.775 -0.926822 -5.6282 0
M  V30 3788 O 362.709 -2.83912 -5.30733 0
M  V30 3789 H 366.535 -2.23537 -2.05584 0
M  V30 3790 H 364.12 -1.14307 -0.961989 0
M  V30 3791 H 366.002 -0.904026 -4.11589 0
M  V30 3792 H 364.677 -0.0945389 -3.23562 0
M  V30 3793 H 363.584 -2.38477 -2.88235 0
M  V30 3794 H 364.917 -3.12243 -3.8048 0
M  V30 3795 N 366.569 1.04691 -1.17803 0
M  V30 3796 C 367.516 2.12557 -0.899343 0
M  V30 3797 C 368.486 1.65339 0.158771 0
M  V30 3798 O 369.671 1.90789 0.0204797 0
M  V30 3799 C 366.811 3.42481 -0.424315 0
M  V30 3800 C 365.924 4.03346 -1.54713 0
M  V30 3801 C 365.059 5.21208 -1.02546 0
M  V30 3802 C 364.098 5.74089 -2.12339 0
M  V30 3803 N 363.235 6.83247 -1.61612 0
M  V30 3804 H 368.075 2.35734 -1.823 0
M  V30 3805 H 365.612 1.1564 -0.909159 0
M  V30 3806 H 367.57 4.16996 -0.130421 0
M  V30 3807 H 366.2 3.19471 0.462377 0
M  V30 3808 H 365.252 3.2622 -1.95664 0
M  V30 3809 H 366.564 4.38628 -2.37501 0
M  V30 3810 H 365.718 6.02812 -0.685718 0
M  V30 3811 H 364.457 4.87414 -0.167084 0
M  V30 3812 H 363.462 4.91111 -2.47165 0
M  V30 3813 H 364.687 6.0993 -2.98601 0
M  V30 3814 H 362.633 6.5134 -0.780533 0
M  V30 3815 H 362.55 7.17559 -2.38003 0
M  V30 3816 H 363.818 7.68491 -1.30545 0
M  V30 3817 N 368.047 0.979072 1.23499 0
M  V30 3818 C 369.463 0.687475 1.44034 0
M  V30 3819 C 369.663 -0.746801 1.8715 0
M  V30 3820 O 368.719 -1.51939 2.0167 0
M  V30 3821 C 370.032 1.68127 2.49307 0
M  V30 3822 C 371.58 1.69516 2.63122 0
M  V30 3823 C 372.055 2.67723 3.71603 0
M  V30 3824 N 373.546 2.66233 3.79044 0
M  V30 3825 C 374.281 3.38891 4.62537 0
M  V30 3826 N 373.777 4.21103 5.50131 0
M  V30 3827 N 375.57 3.27661 4.56721 0
M  V30 3828 H 367.721 1.90559 0.938135 0
M  V30 3829 H 369.984 0.821051 0.473897 0
M  V30 3830 H 369.69 2.70693 2.2454 0
M  V30 3831 H 369.564 1.46306 3.4767 0
M  V30 3832 H 371.951 0.676561 2.8724 0
M  V30 3833 H 372.032 1.95404 1.65079 0
M  V30 3834 H 371.676 3.69724 3.48233 0
M  V30 3835 H 371.606 2.39111 4.69184 0
M  V30 3836 H 374.097 2.06568 3.16446 0
M  V30 3837 H 374.41 4.73403 6.10827 0
M  V30 3838 H 372.755 4.25195 5.49759 0
M  V30 3839 H 375.946 2.62887 3.87309 0
M  V30 3840 H 376.119 3.84547 5.21562 0
M  V30 3841 N 369.525 -1.3858 0.750561 0
M  V30 3842 C 370.488 -2.28836 0.129152 0
M  V30 3843 C 371.488 -1.47045 -0.650714 0
M  V30 3844 O 372.678 -1.6753 -0.477428 0
M  V30 3845 C 369.81 -3.30751 -0.825622 0
M  V30 3846 H 371.003 -2.85294 0.924516 0
M  V30 3847 H 368.556 -1.47489 0.517376 0
M  V30 3848 H 369.291 -2.79378 -1.64677 0
M  V30 3849 H 369.076 -3.91177 -0.268852 0
M  V30 3850 H 370.566 -3.98249 -1.2565 0
M  V30 3851 N 371.003 -0.499398 -1.49478 0
M  V30 3852 C 372.228 0.044722 -2.07352 0
M  V30 3853 C 372.653 1.30207 -1.35749 0
M  V30 3854 O 372.011 1.76516 -0.413732 0
M  V30 3855 C 372.059 0.283013 -3.59488 0
M  V30 3856 O 371.163 1.35804 -3.89398 0
M  V30 3857 H 370.504 -0.0255147 -0.66351 0
M  V30 3858 H 373.034 -0.698561 -1.92305 0
M  V30 3859 H 373.044 0.515007 -4.04737 0
M  V30 3860 H 371.719 -0.635636 -4.11014 0
M  V30 3861 H 370.296 1.11113 -3.55961 0
M  V30 3862 N 372.481 1.55866 -0.233164 0
M  V30 3863 C 373.892 1.847 0.272554 0
M  V30 3864 C 374.243 1.15477 1.58617 0
M  V30 3865 O 373.368 0.42841 2.12117 0
M  V30 3866 C 373.963 3.35071 0.501299 0
M  V30 3867 C 372.522 3.6418 0.951304 0
M  V30 3868 C 371.669 2.77292 0.0208209 0
M  V30 3869 H 374.62 1.52005 -0.456074 0
M  V30 3870 H 374.641 3.55906 1.34577 0
M  V30 3871 H 374.153 3.85424 -0.454936 0
M  V30 3872 H 372.254 3.19293 1.92049 0
M  V30 3873 H 372.367 4.72071 0.817675 0
M  V30 3874 H 370.731 2.49131 0.529723 0
M  V30 3875 H 371.514 3.30448 -0.93054 0
M  V30 3876 N 373.959 -0.0401083 1.57549 0
M  V30 3877 C 374.922 -1.02871 2.04817 0
M  V30 3878 C 375.922 -1.29708 0.950388 0
M  V30 3879 O 377.112 -1.24897 1.21435 0
M  V30 3880 C 374.244 -2.36443 2.45576 0
M  V30 3881 H 375.437 -0.620631 2.93408 0
M  V30 3882 H 372.99 -0.286667 1.53649 0
M  V30 3883 H 373.725 -2.82021 1.60108 0
M  V30 3884 H 373.51 -2.18296 3.25713 0
M  V30 3885 H 375 -3.07441 2.82612 0
M  V30 3886 N 375.437 -1.54477 -0.31217 0
M  V30 3887 C 376.665 -1.77205 -1.068 0
M  V30 3888 C 377.08 -0.526114 -1.81321 0
M  V30 3889 O 376.437 0.503647 -1.75413 0
M  V30 3890 C 376.488 -2.97253 -2.05725 0
M  V30 3891 O 376.209 -4.1703 -1.34228 0
M  V30 3892 C 377.71 -3.32281 -2.93435 0
M  V30 3893 H 374.93 -0.591287 -0.317208 0
M  V30 3894 H 377.474 -2.01398 -0.354834 0
M  V30 3895 H 375.629 -2.753 -2.72559 0
M  V30 3896 H 376.043 -4.84636 -2.00571 0
M  V30 3897 H 377.517 -4.19551 -3.58721 0
M  V30 3898 H 377.994 -2.49945 -3.61143 0
M  V30 3899 H 378.6 -3.56353 -2.32147 0
M  V30 3900 N 376.915 0.57481 -1.46744 0
M  V30 3901 C 378.14 1.36341 -1.56288 0
M  V30 3902 C 378.565 1.86954 -0.207347 0
M  V30 3903 O 377.923 1.62006 0.813871 0
M  V30 3904 C 377.971 2.52147 -2.57787 0
M  V30 3905 O 377.075 3.53834 -2.11838 0
M  V30 3906 H 376.416 0.405713 -0.525636 0
M  V30 3907 H 378.946 0.696453 -1.92382 0
M  V30 3908 H 378.956 2.98958 -2.77648 0
M  V30 3909 H 377.631 2.14663 -3.5622 0
M  V30 3910 H 376.208 3.1345 -2.01999 0
M  V30 3911 N 378.394 1.34581 0.820102 0
M  V30 3912 C 379.805 1.24298 1.39309 0
M  V30 3913 C 380.156 -0.130351 1.95767 0
M  V30 3914 O 379.281 -1.0308 1.90272 0
M  V30 3915 C 379.876 2.25054 2.53251 0
M  V30 3916 C 378.435 2.18552 3.0645 0
M  V30 3917 C 377.582 2.11503 1.79337 0
M  V30 3918 H 380.533 1.45906 0.624262 0
M  V30 3919 H 380.554 1.86917 3.31425 0
M  V30 3920 H 380.066 3.24996 2.1213 0
M  V30 3921 H 378.167 1.21976 3.52069 0
M  V30 3922 H 378.28 3.0993 3.65349 0
M  V30 3923 H 376.644 1.57268 2.00347 0
M  V30 3924 H 377.427 3.13284 1.40386 0
M  V30 3925 N 379.872 -1.04064 1.18357 0
M  V30 3926 C 380.819 -2.12077 0.910603 0
M  V30 3927 C 381.789 -1.65421 -0.15 0
M  V30 3928 O 382.974 -1.90797 -0.0103614 0
M  V30 3929 C 380.114 -3.42252 0.442472 0
M  V30 3930 C 379.227 -4.0252 1.5685 0
M  V30 3931 C 378.362 -5.20657 1.05309 0
M  V30 3932 C 377.401 -5.72955 2.1538 0
M  V30 3933 N 376.538 -6.8238 1.65233 0
M  V30 3934 H 381.378 -2.34764 1.83548 0
M  V30 3935 H 378.915 -1.15157 0.915279 0
M  V30 3936 H 380.873 -4.16921 0.152534 0
M  V30 3937 H 379.503 -3.19712 -0.445428 0
M  V30 3938 H 378.555 -3.25178 1.97391 0
M  V30 3939 H 379.867 -4.37362 2.39824 0
M  V30 3940 H 379.021 -6.0244 0.717677 0
M  V30 3941 H 377.76 -4.87318 0.19293 0
M  V30 3942 H 376.765 -4.89793 2.49766 0
M  V30 3943 H 377.99 -6.08337 3.01832 0
M  V30 3944 H 375.936 -6.50917 0.815064 0
M  V30 3945 H 375.853 -7.16286 2.41805 0
M  V30 3946 H 377.121 -7.67788 1.34619 0
M  V30 3947 N 381.35 -0.985608 -1.22978 0
M  V30 3948 C 382.761 -0.693593 -1.73338 0
M  V30 3949 C 383.112 0.789935 -1.79595 0
M  V30 3950 O 382.237 1.61771 -1.43733 0
M  V30 3951 C 382.832 -1.25235 -3.14804 0
M  V30 3952 C 381.391 -1.00987 -3.626 0
M  V30 3953 C 380.538 -1.37695 -2.40698 0
M  V30 3954 H 383.489 -1.15884 -1.08428 0
M  V30 3955 H 383.51 -0.627329 -3.75293 0
M  V30 3956 H 383.022 -2.33209 -3.10218 0
M  V30 3957 H 381.123 0.0535565 -3.72562 0
M  V30 3958 H 381.236 -1.66812 -4.49122 0
M  V30 3959 H 379.6 -0.795459 -2.4196 0
M  V30 3960 H 380.383 -2.46657 -2.38779 0
M  V30 3961 N 382.828 1.3818 -0.7579 0
M  V30 3962 C 384.053 2.04827 -0.325679 0
M  V30 3963 C 384.478 1.56788 1.03919 0
M  V30 3964 O 383.836 0.721811 1.66312 0
M  V30 3965 C 383.884 3.58774 -0.362447 0
M  V30 3966 O 382.988 4.07372 0.642033 0
M  V30 3967 H 382.329 0.64833 -0.143402 0
M  V30 3968 H 384.859 1.7677 -1.03023 0
M  V30 3969 H 384.869 4.07434 -0.214844 0
M  V30 3970 H 383.544 3.93096 -1.35824 0
M  V30 3971 H 382.121 3.70068 0.458688 0
M  V30 3972 N 384.306 0.507319 1.49211 0
M  V30 3973 C 385.552 -0.0350047 2.0277 0
M  V30 3974 C 385.885 -1.3606 1.38569 0
M  V30 3975 O 385.16 -1.87321 0.523542 0
M  V30 3976 C 385.443 -0.180916 3.59645 0
M  V30 3977 C 385.296 1.16825 4.34364 0
M  V30 3978 C 386.615 -0.918558 4.30407 0
M  V30 3979 H 383.734 -0.0112473 0.736914 0
M  V30 3980 H 386.376 0.659956 1.7817 0
M  V30 3981 H 384.526 -0.772826 3.80736 0
M  V30 3982 H 386.198 1.79952 4.24753 0
M  V30 3983 H 384.441 1.75594 3.96673 0
M  V30 3984 H 385.112 1.01939 5.42506 0
M  V30 3985 H 387.588 -0.41649 4.1401 0
M  V30 3986 H 386.464 -0.989505 5.39907 0
M  V30 3987 H 386.725 -1.96373 3.96093 0
M  V30 3988 N 385.784 -1.5574 0.241426 0
M  V30 3989 C 386.747 -2.19877 -0.647063 0
M  V30 3990 C 387.747 -1.16642 -1.10686 0
M  V30 3991 O 388.937 -1.41757 -1.01245 0
M  V30 3992 C 386.069 -2.83797 -1.88871 0
M  V30 3993 H 387.262 -2.99772 -0.087574 0
M  V30 3994 H 384.815 -1.56298 -0.00813574 0
M  V30 3995 H 385.55 -2.07824 -2.48957 0
M  V30 3996 H 385.335 -3.59414 -1.56728 0
M  V30 3997 H 386.825 -3.32898 -2.52129 0
M  V30 3998 N 387.262 0.0317525 -1.57568 0
M  V30 3999 C 388.502 0.727979 -1.90997 0
M  V30 4000 C 388.866 1.72664 -0.839708 0
M  V30 4001 O 390.067 2.47092 -1.05825 0
M  V30 4002 C 388.338 1.38239 -3.29583 0
M  V30 4003 S 389.897 2.10814 -3.84841 0
M  V30 4004 H 386.715 0.241226 -0.668828 0
M  V30 4005 H 389.317 -0.0173037 -1.95492 0
M  V30 4006 H 388.021 0.642288 -4.05343 0
M  V30 4007 H 387.552 2.16628 -3.28384 0
M  V30 4008 H 389.567 3.3792 -3.63352 0
M  V30 4009 N 388.74 1.54641 0.303973 0
M  V30 4010 C 389.965 1.78092 1.06292 0
M  V30 4011 C 390.39 0.537342 1.80262 0
M  V30 4012 O 389.748 -0.511993 1.7392 0
M  V30 4013 C 389.796 2.98612 2.02147 0
M  V30 4014 O 388.9 2.71528 3.10397 0
M  V30 4015 H 388.241 0.589548 0.305497 0
M  V30 4016 H 390.771 2.01716 0.3423 0
M  V30 4017 H 390.781 3.265 2.44667 0
M  V30 4018 H 389.456 3.88785 1.47714 0
M  V30 4019 H 388.033 2.54648 2.72413 0
M  V30 4020 N 390.218 -0.567019 1.47046 0
M  V30 4021 C 391.15 -1.68985 1.54844 0
M  V30 4022 C 392.163 -1.56869 0.435431 0
M  V30 4023 O 393.352 -1.64006 0.70457 0
M  V30 4024 C 390.452 -3.07373 1.42742 0
M  V30 4025 C 389.625 -3.45339 2.6844 0
M  V30 4026 C 388.684 -4.62849 2.50314 0
M  V30 4027 O 387.71 -4.67922 3.24095 0
M  V30 4028 N 388.912 -5.58726 1.57499 0
M  V30 4029 H 391.677 -1.62745 2.51663 0
M  V30 4030 H 389.238 -0.753411 1.43302 0
M  V30 4031 H 391.23 -3.83803 1.28365 0
M  V30 4032 H 389.8 -3.07893 0.540445 0
M  V30 4033 H 389.02 -2.58455 2.97648 0
M  V30 4034 H 390.308 -3.67476 3.51907 0
M  V30 4035 H 389.706 -5.57376 0.966876 0
M  V30 4036 H 388.263 -6.34523 1.49078 0
M  V30 4037 N 391.696 -1.35014 -0.812953 0
M  V30 4038 C 392.626 -1.30069 -1.93919 0
M  V30 4039 C 393.607 -0.176275 -1.69184 0
M  V30 4040 O 394.792 -0.370227 -1.90638 0
M  V30 4041 C 391.922 -1.06547 -3.30552 0
M  V30 4042 C 390.876 -2.15561 -3.69753 0
M  V30 4043 C 390.202 -1.77214 -5.04479 0
M  V30 4044 C 391.502 -3.57476 -3.808 0
M  V30 4045 H 393.196 -2.24303 -1.98314 0
M  V30 4046 H 390.742 -1.07977 -0.952736 0
M  V30 4047 H 392.695 -1.01729 -4.08937 0
M  V30 4048 H 391.419 -0.0875719 -3.26483 0
M  V30 4049 H 390.078 -2.19466 -2.9365 0
M  V30 4050 H 389.726 -0.780589 -4.96906 0
M  V30 4051 H 389.426 -2.50184 -5.31678 0
M  V30 4052 H 390.95 -1.7391 -5.8531 0
M  V30 4053 H 392.364 -3.55929 -4.4943 0
M  V30 4054 H 390.761 -4.29152 -4.19462 0
M  V30 4055 H 391.831 -3.94091 -2.82525 0
M  V30 4056 N 393.175 1.03435 -1.18907 0
M  V30 4057 C 394.138 2.09756 -0.923844 0
M  V30 4058 C 395.138 1.60528 0.093416 0
M  V30 4059 O 396.328 1.73631 -0.140727 0
M  V30 4060 C 393.46 3.38692 -0.387354 0
M  V30 4061 H 394.653 2.34719 -1.86674 0
M  V30 4062 H 392.206 1.19959 -1.00197 0
M  V30 4063 H 392.941 3.19396 0.561845 0
M  V30 4064 H 392.726 3.75742 -1.12074 0
M  V30 4065 H 394.216 4.17016 -0.220694 0
M  V30 4066 N 394.653 0.992116 1.22453 0
M  V30 4067 C 395.583 0.561677 2.26644 0
M  V30 4068 C 396.564 -0.411055 1.65059 0
M  V30 4069 O 397.749 -0.301861 1.9184 0
M  V30 4070 C 394.879 -0.125247 3.47074 0
M  V30 4071 C 393.833 0.765948 4.21091 0
M  V30 4072 C 393.159 -0.0538484 5.34673 0
M  V30 4073 C 394.459 2.06242 4.79856 0
M  V30 4074 H 396.153 1.43259 2.62902 0
M  V30 4075 H 393.699 0.690283 1.26377 0
M  V30 4076 H 395.652 -0.437764 4.1912 0
M  V30 4077 H 394.376 -1.03069 3.0991 0
M  V30 4078 H 393.035 1.0621 3.50878 0
M  V30 4079 H 392.683 -0.960188 4.9375 0
M  V30 4080 H 392.383 0.539415 5.85119 0
M  V30 4081 H 393.907 -0.360477 6.09535 0
M  V30 4082 H 395.321 1.8139 5.43848 0
M  V30 4083 H 393.718 2.60444 5.40638 0
M  V30 4084 H 394.788 2.74167 3.99951 0
M  V30 4085 N 396.131 -1.37776 0.765217 0
M  V30 4086 C 397.061 -2.32945 0.160953 0
M  V30 4087 C 398.042 -1.55454 -0.690516 0
M  V30 4088 O 399.227 -1.83721 -0.629318 0
M  V30 4089 C 396.357 -3.39669 -0.724031 0
M  V30 4090 C 395.311 -4.27992 0.0256173 0
M  V30 4091 C 394.637 -5.25673 -0.978383 0
M  V30 4092 C 395.937 -5.08309 1.20082 0
M  V30 4093 H 397.631 -2.83728 0.955969 0
M  V30 4094 H 395.177 -1.36416 0.461149 0
M  V30 4095 H 397.13 -4.05219 -1.15652 0
M  V30 4096 H 395.854 -2.87396 -1.5515 0
M  V30 4097 H 394.513 -3.63964 0.438812 0
M  V30 4098 H 394.161 -4.69682 -1.80022 0
M  V30 4099 H 393.861 -5.85625 -0.481378 0
M  V30 4100 H 395.385 -5.94098 -1.40995 0
M  V30 4101 H 396.799 -5.67034 0.845307 0
M  V30 4102 H 395.196 -5.77554 1.62947 0
M  V30 4103 H 396.266 -4.41365 2.00811 0
M  V30 4104 N 397.609 -0.515225 -1.4894 0
M  V30 4105 C 398.539 0.244628 -2.32215 0
M  V30 4106 C 399.52 0.949136 -1.41157 0
M  V30 4107 O 400.705 0.937783 -1.70057 0
M  V30 4108 C 397.835 1.30096 -3.22013 0
M  V30 4109 C 396.789 0.715486 -4.21977 0
M  V30 4110 C 396.115 1.87339 -5.00808 0
M  V30 4111 C 397.415 -0.302982 -5.2142 0
M  V30 4112 H 399.109 -0.450501 -2.95991 0
M  V30 4113 H 396.655 -0.218098 -1.42339 0
M  V30 4114 H 398.608 1.84037 -3.79089 0
M  V30 4115 H 397.332 2.02547 -2.56207 0
M  V30 4116 H 395.991 0.197715 -3.66066 0
M  V30 4117 H 395.639 2.58592 -4.31438 0
M  V30 4118 H 395.339 1.48764 -5.68457 0
M  V30 4119 H 396.863 2.41686 -5.60732 0
M  V30 4120 H 398.277 0.148802 -5.73107 0
M  V30 4121 H 396.674 -0.60532 -5.97039 0
M  V30 4122 H 397.744 -1.21395 -4.69459 0
M  V30 4123 N 399.087 1.5561 -0.249682 0
M  V30 4124 C 400.312 2.03865 0.381305 0
M  V30 4125 C 400.737 1.12769 1.50548 0
M  V30 4126 O 400.095 0.121189 1.80895 0
M  V30 4127 C 400.143 3.50101 0.863816 0
M  V30 4128 O 399.247 3.62132 1.97318 0
M  V30 4129 H 398.588 0.658827 0.0827194 0
M  V30 4130 H 401.118 2.01105 -0.376552 0
M  V30 4131 H 401.128 3.90975 1.1663 0
M  V30 4132 H 399.803 4.1588 0.0411816 0
M  V30 4133 H 398.38 3.33155 1.67517 0
M  V30 4134 N 400.565 -0.0233959 1.57583 0
M  V30 4135 C 401.79 -0.728376 1.94189 0
M  V30 4136 C 402.215 -1.67793 0.850119 0
M  V30 4137 O 401.573 -1.80262 -0.19371 0
M  V30 4138 C 401.621 -1.45669 3.29868 0
M  V30 4139 O 400.725 -2.57013 3.22518 0
M  V30 4140 H 400.066 -0.195493 0.63457 0
M  V30 4141 H 402.596 0.0228214 2.04587 0
M  V30 4142 H 402.606 -1.82535 3.6489 0
M  V30 4143 H 401.281 -0.760314 4.08891 0
M  V30 4144 H 399.858 -2.22648 2.99136 0
M  V30 4145 N 402.043 -1.548 -0.295768 0
M  V30 4146 C 402.953 -1.89177 -1.38742 0
M  V30 4147 C 403.969 -0.786481 -1.55211 0
M  V30 4148 O 405.145 -1.08344 -1.69775 0
M  V30 4149 C 402.21 -2.13663 -2.73036 0
M  V30 4150 C 401.271 -3.37349 -2.65508 0
M  V30 4151 C 400.504 -3.60658 -3.93398 0
M  V30 4152 O 400.727 -2.86882 -4.93006 0
M  V30 4153 O 399.661 -4.54179 -3.94975 0
M  V30 4154 H 403.487 -2.82059 -1.12589 0
M  V30 4155 H 401.072 -1.41056 -0.492295 0
M  V30 4156 H 402.954 -2.3094 -3.52484 0
M  V30 4157 H 401.629 -1.23967 -2.99022 0
M  V30 4158 H 400.536 -3.25431 -1.84514 0
M  V30 4159 H 401.869 -4.27192 -2.44474 0
M  V30 4160 N 403.521 0.559213 -1.47345 0
M  V30 4161 C 404.484 1.64854 -1.59235 0
M  V30 4162 C 405.484 1.53851 -0.467607 0
M  V30 4163 O 406.674 1.58045 -0.732617 0
M  V30 4164 C 403.806 3.04388 -1.53496 0
M  V30 4165 H 404.999 1.55662 -2.56339 0
M  V30 4166 H 402.552 0.778973 -1.35505 0
M  V30 4167 H 403.287 3.19115 -0.577604 0
M  V30 4168 H 403.072 3.13783 -2.35123 0
M  V30 4169 H 404.562 3.83642 -1.6495 0
M  V30 4170 N 404.999 1.35443 0.805782 0
M  V30 4171 C 405.949 1.24972 1.90699 0
M  V30 4172 C 406.933 0.144806 1.60247 0
M  V30 4173 O 408.125 0.376102 1.72958 0
M  V30 4174 C 405.254 1.02475 3.27649 0
M  V30 4175 C 404.34 2.17361 3.64164 0
M  V30 4176 N 404.731 3.42591 3.72109 0
M  V30 4177 C 403.029 2.08765 3.94123 0
M  V30 4178 C 403.73 4.18144 4.04389 0
M  V30 4179 N 402.706 3.4691 4.18515 0
M  V30 4180 H 406.508 2.19852 1.95044 0
M  V30 4181 H 404.022 1.27928 1.00041 0
M  V30 4182 H 406.019 0.930617 4.06381 0
M  V30 4183 H 404.679 0.0848009 3.24589 0
M  V30 4184 H 405.69 3.76932 3.55166 0
M  V30 4185 H 402.367 1.22629 3.99084 0
M  V30 4186 H 403.757 5.26367 4.17597 0
M  V30 4187 N 406.477 -1.02803 1.19454 0
M  V30 4188 C 407.407 -2.12999 0.956758 0
M  V30 4189 C 408.388 -1.69743 -0.110188 0
M  V30 4190 O 409.573 -1.94148 0.0450038 0
M  V30 4191 C 406.703 -3.43746 0.495553 0
M  V30 4192 C 405.657 -4.00688 1.50443 0
M  V30 4193 C 404.983 -5.27067 0.900275 0
M  V30 4194 C 406.283 -4.35397 2.8849 0
M  V30 4195 H 407.977 -2.33148 1.87836 0
M  V30 4196 H 405.523 -1.12045 0.904539 0
M  V30 4197 H 407.476 -4.2021 0.316493 0
M  V30 4198 H 406.2 -3.23321 -0.461646 0
M  V30 4199 H 404.859 -3.2632 1.67065 0
M  V30 4200 H 404.507 -5.02959 -0.064503 0
M  V30 4201 H 404.207 -5.66127 1.57397 0
M  V30 4202 H 405.731 -6.06196 0.73203 0
M  V30 4203 H 407.145 -5.02795 2.75446 0
M  V30 4204 H 405.542 -4.85541 3.52661 0
M  V30 4205 H 406.612 -3.44662 3.41081 0
M  V30 4206 N 407.956 -0.998596 -1.21925 0
M  V30 4207 C 408.888 -0.511879 -2.23411 0
M  V30 4208 C 409.901 0.396094 -1.57908 0
M  V30 4209 O 411.09 0.197316 -1.77406 0
M  V30 4210 C 408.19 0.276802 -3.37768 0
M  V30 4211 C 407.363 -0.628687 -4.32858 0
M  V30 4212 C 406.422 0.109272 -5.26087 0
M  V30 4213 O 405.448 -0.507237 -5.66935 0
M  V30 4214 N 406.65 1.38983 -5.63617 0
M  V30 4215 H 409.415 -1.38457 -2.658 0
M  V30 4216 H 406.976 -0.873981 -1.36283 0
M  V30 4217 H 408.968 0.77928 -3.97126 0
M  V30 4218 H 407.538 1.05063 -2.94415 0
M  V30 4219 H 406.758 -1.31175 -3.71735 0
M  V30 4220 H 408.046 -1.24514 -4.93329 0
M  V30 4221 H 407.444 1.91194 -5.32411 0
M  V30 4222 H 406.001 1.83739 -6.25367 0
M  V30 4223 N 409.434 1.37368 -0.772513 0
M  V30 4224 C 410.366 2.28899 -0.117502 0
M  V30 4225 C 411.379 1.4867 0.663405 0
M  V30 4226 O 412.568 1.71314 0.501372 0
M  V30 4227 C 409.668 3.2788 0.857192 0
M  V30 4228 C 408.841 4.37207 0.129938 0
M  V30 4229 C 407.9 5.16257 1.01811 0
M  V30 4230 O 406.926 5.67159 0.481601 0
M  V30 4231 N 408.128 5.31058 2.3443 0
M  V30 4232 H 410.893 2.85752 -0.903662 0
M  V30 4233 H 408.454 1.49353 -0.62493 0
M  V30 4234 H 410.446 3.77647 1.45482 0
M  V30 4235 H 409.016 2.7179 1.54432 0
M  V30 4236 H 408.236 3.88827 -0.648605 0
M  V30 4237 H 409.524 5.07434 -0.372559 0
M  V30 4238 H 408.922 4.91287 2.80452 0
M  V30 4239 H 407.479 5.84131 2.89197 0
M  V30 4240 N 410.912 0.523116 1.48665 0
M  V30 4241 C 412.142 -0.00961724 2.06598 0
M  V30 4242 C 412.55 -1.29333 1.38093 0
M  V30 4243 O 411.893 -1.77846 0.46007 0
M  V30 4244 C 411.955 -0.311135 3.58151 0
M  V30 4245 C 411.619 0.878092 4.48485 0
M  V30 4246 C 412.616 1.77464 4.88674 0
M  V30 4247 C 410.301 1.08315 4.90483 0
M  V30 4248 C 412.295 2.86021 5.69623 0
M  V30 4249 C 409.982 2.17187 5.71203 0
M  V30 4250 C 410.98 3.05873 6.10681 0
M  V30 4251 O 410.668 4.12862 6.89783 0
M  V30 4252 H 410.4 0.0272658 0.67545 0
M  V30 4253 H 412.954 0.726156 1.92136 0
M  V30 4254 H 411.184 -1.10079 3.70701 0
M  V30 4255 H 412.873 -0.785125 3.98234 0
M  V30 4256 H 413.639 1.62813 4.56855 0
M  V30 4257 H 409.518 0.402149 4.59243 0
M  V30 4258 H 413.062 3.55272 6.00356 0
M  V30 4259 H 408.959 2.31824 6.02435 0
M  V30 4260 H 409.727 4.10487 7.08126 0
M  V30 4261 N 412.39 -1.55475 0.257931 0
M  V30 4262 C 413.615 -2.04064 -0.370488 0
M  V30 4263 C 414.04 -1.13565 -1.49948 0
M  V30 4264 O 413.398 -0.130781 -1.80828 0
M  V30 4265 C 413.446 -3.50554 -0.845237 0
M  V30 4266 O 412.55 -3.63173 -1.95394 0
M  V30 4267 H 411.891 -0.659257 -0.0792243 0
M  V30 4268 H 414.421 -2.00903 0.387212 0
M  V30 4269 H 414.431 -3.91588 -1.14555 0
M  V30 4270 H 413.106 -4.15896 -0.0191259 0
M  V30 4271 H 411.683 -3.34039 -1.65748 0
M  V30 4272 N 413.868 0.0150385 -1.57593 0
M  V30 4273 C 415.284 0.370907 -1.5523 0
M  V30 4274 C 415.484 1.75735 -0.985882 0
M  V30 4275 O 414.54 2.44944 -0.613077 0
M  V30 4276 C 415.853 0.259908 -2.99575 0
M  V30 4277 C 417.401 0.335959 -3.11192 0
M  V30 4278 C 417.876 0.254253 -4.57294 0
M  V30 4279 N 419.367 0.312618 -4.62144 0
M  V30 4280 C 420.102 0.272505 -5.72752 0
M  V30 4281 N 419.598 0.183864 -6.92556 0
M  V30 4282 N 421.391 0.323267 -5.6117 0
M  V30 4283 H 413.542 -0.892104 -1.92757 0
M  V30 4284 H 415.805 -0.340563 -0.884715 0
M  V30 4285 H 415.511 -0.693403 -3.44797 0
M  V30 4286 H 415.385 1.048 -3.62349 0
M  V30 4287 H 417.772 1.27971 -2.65909 0
M  V30 4288 H 417.853 -0.481739 -2.51223 0
M  V30 4289 H 417.497 -0.685887 -5.03247 0
M  V30 4290 H 417.427 1.09024 -5.15191 0
M  V30 4291 H 419.918 0.38307 -3.75953 0
M  V30 4292 H 420.231 0.15874 -7.72637 0
M  V30 4293 H 418.576 0.149708 -6.94839 0
M  V30 4294 H 421.767 0.390607 -4.66467 0
M  V30 4295 H 421.94 0.288539 -6.47357 0
M  V30 4296 N 415.346 1.54954 0.287554 0
M  V30 4297 C 416.256 1.8991 1.37736 0
M  V30 4298 C 417.272 0.794701 1.54792 0
M  V30 4299 O 418.448 1.09243 1.69198 0
M  V30 4300 C 415.513 2.15108 2.71899 0
M  V30 4301 C 414.574 3.38752 2.63715 0
M  V30 4302 C 413.807 3.62739 3.91479 0
M  V30 4303 O 414.03 2.89492 4.91478 0
M  V30 4304 O 412.964 4.56267 3.92561 0
M  V30 4305 H 416.79 2.82652 1.11092 0
M  V30 4306 H 414.375 1.41315 0.484807 0
M  V30 4307 H 416.257 2.32806 3.51254 0
M  V30 4308 H 414.932 1.25551 2.9836 0
M  V30 4309 H 413.839 3.26405 1.82786 0
M  V30 4310 H 415.172 4.28483 2.42205 0
M  V30 4311 N 416.824 -0.551391 1.4764 0
M  V30 4312 C 417.774 -1.65362 1.56969 0
M  V30 4313 C 418.758 -1.55098 0.428189 0
M  V30 4314 O 419.95 -1.63481 0.678441 0
M  V30 4315 C 417.079 -3.04129 1.59249 0
M  V30 4316 C 416.165 -3.19576 2.78804 0
M  V30 4317 N 416.556 -3.05067 4.03445 0
M  V30 4318 C 414.854 -3.50588 2.75688 0
M  V30 4319 C 415.555 -3.2336 4.83543 0
M  V30 4320 N 414.531 -3.4996 4.15968 0
M  V30 4321 H 418.333 -1.52722 2.51104 0
M  V30 4322 H 415.847 -0.756303 1.43714 0
M  V30 4323 H 417.844 -3.83278 1.64024 0
M  V30 4324 H 416.504 -3.17877 0.662148 0
M  V30 4325 H 417.515 -2.82273 4.34215 0
M  V30 4326 H 414.192 -3.70827 1.91817 0
M  V30 4327 H 415.582 -3.17061 5.92387 0
M  V30 4328 N 418.302 -1.35869 -0.798587 0
M  V30 4329 C 419.265 -1.29307 -1.89242 0
M  V30 4330 C 420.265 -0.202747 -1.59517 0
M  V30 4331 O 421.455 -0.456957 -1.681 0
M  V30 4332 C 418.587 -1.00229 -3.25833 0
M  V30 4333 H 419.78 -2.26576 -1.96478 0
M  V30 4334 H 417.333 -1.20509 -0.995358 0
M  V30 4335 H 418.068 -0.033801 -3.24282 0
M  V30 4336 H 417.853 -1.79121 -3.48795 0
M  V30 4337 H 419.343 -0.98219 -4.05885 0
M  V30 4338 N 419.78 1.02168 -1.19998 0
M  V30 4339 C 420.71 2.12488 -0.96804 0
M  V30 4340 C 421.691 1.69799 0.101185 0
M  V30 4341 O 422.876 1.94121 -0.0552993 0
M  V30 4342 C 420.006 3.43479 -0.513776 0
M  V30 4343 C 418.96 3.99884 -1.52566 0
M  V30 4344 C 418.286 5.26582 -0.928214 0
M  V30 4345 C 419.586 4.33861 -2.90795 0
M  V30 4346 H 421.28 2.32149 -1.89069 0
M  V30 4347 H 418.826 1.11564 -0.910468 0
M  V30 4348 H 420.779 4.20036 -0.338774 0
M  V30 4349 H 419.503 3.23561 0.444493 0
M  V30 4350 H 418.162 3.25429 -1.68794 0
M  V30 4351 H 417.81 5.02986 0.0378289 0
M  V30 4352 H 417.51 5.65284 -1.60397 0
M  V30 4353 H 419.034 6.05799 -0.764167 0
M  V30 4354 H 420.448 5.01327 -2.78109 0
M  V30 4355 H 418.845 4.83664 -3.55231 0
M  V30 4356 H 419.915 3.42848 -3.42904 0
M  V30 4357 N 421.258 1.00505 1.21394 0
M  V30 4358 C 422.205 0.565496 2.23765 0
M  V30 4359 C 423.175 -0.408466 1.60999 0
M  V30 4360 O 424.36 -0.310503 1.88257 0
M  V30 4361 C 421.5 -0.101667 3.4495 0
M  V30 4362 C 420.613 0.915479 4.22188 0
M  V30 4363 C 419.748 0.220574 5.30742 0
M  V30 4364 C 418.787 1.22527 5.99711 0
M  V30 4365 N 417.924 0.557831 6.9988 0
M  V30 4366 H 422.764 1.44314 2.60725 0
M  V30 4367 H 420.301 0.722643 1.28126 0
M  V30 4368 H 422.259 -0.505504 4.14126 0
M  V30 4369 H 420.889 -0.94303 3.08718 0
M  V30 4370 H 419.941 1.43756 3.52191 0
M  V30 4371 H 421.253 1.68005 4.69655 0
M  V30 4372 H 420.407 -0.239368 6.06228 0
M  V30 4373 H 419.146 -0.576401 4.84282 0
M  V30 4374 H 418.151 1.69571 5.22997 0
M  V30 4375 H 419.376 2.02332 6.48258 0
M  V30 4376 H 417.322 -0.219486 6.55633 0
M  V30 4377 H 417.239 1.26065 7.45415 0
M  V30 4378 H 418.507 0.121095 7.79406 0
M  V30 4379 N 422.737 -1.36956 0.779787 0
M  V30 4380 C 423.965 -2.03755 0.359398 0
M  V30 4381 C 424.38 -1.58807 -1.02106 0
M  V30 4382 O 423.737 -0.773024 -1.6532 0
M  V30 4383 C 423.788 -3.59251 0.402568 0
M  V30 4384 O 423.509 -4.02557 1.72858 0
M  V30 4385 C 425.01 -4.43291 -0.0284068 0
M  V30 4386 H 422.23 -0.654148 0.149437 0
M  V30 4387 H 424.774 -1.75128 1.05595 0
M  V30 4388 H 422.929 -3.86621 -0.245478 0
M  V30 4389 H 423.343 -4.97111 1.67275 0
M  V30 4390 H 424.817 -5.51975 0.0529466 0
M  V30 4391 H 425.294 -4.25719 -1.07982 0
M  V30 4392 H 425.9 -4.21163 0.591758 0
M  V30 4393 N 424.215 -0.530993 -1.48385 0
M  V30 4394 C 425.147 0.268353 -2.27624 0
M  V30 4395 C 426.16 0.903525 -1.35426 0
M  V30 4396 O 427.349 0.781796 -1.60469 0
M  V30 4397 C 424.449 1.39535 -3.08842 0
M  V30 4398 C 423.622 0.861913 -4.28824 0
M  V30 4399 C 422.681 1.87016 -4.91845 0
M  V30 4400 O 421.707 1.4267 -5.5103 0
M  V30 4401 N 422.909 3.20238 -4.84178 0
M  V30 4402 H 425.674 -0.41123 -2.96865 0
M  V30 4403 H 423.235 -0.365387 -1.57723 0
M  V30 4404 H 425.227 2.06803 -3.47871 0
M  V30 4405 H 423.797 1.97859 -2.42014 0
M  V30 4406 H 423.017 0.0132126 -3.94198 0
M  V30 4407 H 424.305 0.484415 -5.06489 0
M  V30 4408 H 423.703 3.58932 -4.37246 0
M  V30 4409 H 422.26 3.83136 -5.27305 0
M  V30 4410 N 425.693 1.55336 -0.266172 0
M  V30 4411 C 426.641 2.23587 0.641228 0
M  V30 4412 C 427.635 1.22986 1.16494 0
M  V30 4413 O 428.841 1.40943 1.1196 0
M  V30 4414 H 425.216 0.717452 0.225315 0
M  V30 4415 H 427.187 2.9837 0.0426561 0
M  V30 4416 C 425.936 2.96369 1.81826 0
M  V30 4417 H 425.259 3.73563 1.42445 0
M  V30 4418 H 426.699 3.47459 2.42998 0
M  V30 4419 C 425.158 2.0133 2.70125 0
M  V30 4420 O 425.688 1.55875 3.70224 0
M  V30 4421 N 423.894 1.6802 2.37102 0
M  V30 4422 H 423.441 2.05181 1.55751 0
M  V30 4423 H 423.399 1.047 2.96454 0
M  V30 4424 N 427.171 -0.0066808 1.57599 0
M  V30 4425 C 428.134 -0.985035 2.06953 0
M  V30 4426 C 429.134 -1.27663 0.977687 0
M  V30 4427 O 430.324 -1.22293 1.24057 0
M  V30 4428 C 427.456 -2.3118 2.50536 0
M  V30 4429 H 428.649 -0.558255 2.94658 0
M  V30 4430 H 426.202 -0.254011 1.54222 0
M  V30 4431 H 426.937 -2.78561 1.66054 0
M  V30 4432 H 426.722 -2.11338 3.3027 0
M  V30 4433 H 428.212 -3.01377 2.8907 0
M  V30 4434 N 428.649 -1.55105 -0.279332 0
M  V30 4435 C 429.597 -1.88333 -1.36505 0
M  V30 4436 C 430.591 -0.759043 -1.51443 0
M  V30 4437 O 431.797 -0.943312 -1.53302 0
M  V30 4438 H 428.172 -0.59766 -0.456406 0
M  V30 4439 H 430.143 -2.79041 -1.05728 0
M  V30 4440 C 428.892 -2.16628 -2.7197 0
M  V30 4441 H 428.215 -3.02624 -2.61264 0
M  V30 4442 H 429.655 -2.43803 -3.46895 0
M  V30 4443 C 428.114 -0.971807 -3.22579 0
M  V30 4444 O 428.644 -0.203228 -4.01186 0
M  V30 4445 N 426.85 -0.771238 -2.80179 0
M  V30 4446 H 426.397 -1.39792 -2.1637 0
M  V30 4447 H 426.355 0.0263667 -3.14389 0
M  V30 4448 N 430.127 0.543554 -1.4793 0
M  V30 4449 C 431.059 1.665 -1.57513 0
M  V30 4450 C 432.072 1.56156 -0.460333 0
M  V30 4451 O 433.261 1.62865 -0.730573 0
M  V30 4452 C 430.361 3.05063 -1.47614 0
M  V30 4453 C 429.534 3.41024 -2.739 0
M  V30 4454 C 428.593 4.58809 -2.57645 0
M  V30 4455 O 427.619 4.62707 -3.31498 0
M  V30 4456 N 428.821 5.56149 -1.66368 0
M  V30 4457 H 431.586 1.5872 -2.5422 0
M  V30 4458 H 429.147 0.730517 -1.44482 0
M  V30 4459 H 431.139 3.81712 -1.34455 0
M  V30 4460 H 429.709 3.06994 -0.589359 0
M  V30 4461 H 428.929 2.53687 -3.01723 0
M  V30 4462 H 430.217 3.61831 -3.57709 0
M  V30 4463 H 429.615 5.55767 -1.05543 0
M  V30 4464 H 428.172 6.32071 -1.59154 0
M  V30 4465 N 431.605 1.3629 0.791371 0
M  V30 4466 C 432.568 1.30309 1.88553 0
M  V30 4467 C 433.568 0.211204 1.59407 0
M  V30 4468 O 434.758 0.465865 1.67855 0
M  V30 4469 C 431.89 1.01956 3.25297 0
M  V30 4470 H 433.083 2.27614 1.95273 0
M  V30 4471 H 430.636 1.21035 0.988953 0
M  V30 4472 H 431.371 0.050998 3.2426 0
M  V30 4473 H 431.156 1.80968 3.4784 0
M  V30 4474 H 432.646 1.0037 4.05359 0
M  V30 4475 N 433.083 -1.0153 1.20538 0
M  V30 4476 C 434.046 -2.0826 0.957098 0
M  V30 4477 C 435.046 -1.60657 -0.0678655 0
M  V30 4478 O 436.236 -1.73385 0.168332 0
M  V30 4479 C 433.368 -3.38033 0.441188 0
M  V30 4480 H 434.561 -2.31719 1.90384 0
M  V30 4481 H 432.114 -1.1835 1.02093 0
M  V30 4482 H 432.849 -3.20249 -0.510961 0
M  V30 4483 H 432.634 -3.73911 1.18038 0
M  V30 4484 H 434.124 -4.16613 0.287009 0
M  V30 4485 N 434.561 -1.01147 -1.20859 0
M  V30 4486 C 435.786 -0.716698 -1.94623 0
M  V30 4487 C 436.211 0.715415 -1.73964 0
M  V30 4488 O 435.569 1.49157 -1.03062 0
M  V30 4489 C 435.617 -1.0513 -3.44935 0
M  V30 4490 O 434.721 -0.160131 -4.12089 0
M  V30 4491 H 434.062 -0.266404 -0.608214 0
M  V30 4492 H 436.592 -1.35346 -1.53436 0
M  V30 4493 H 436.602 -1.00086 -3.95533 0
M  V30 4494 H 435.277 -2.09475 -3.59295 0
M  V30 4495 H 433.854 -0.267657 -3.71938 0
M  V30 4496 N 436.039 1.36541 -0.78704 0
M  V30 4497 C 436.949 2.3387 -0.184896 0
M  V30 4498 C 437.965 1.60927 0.661697 0
M  V30 4499 O 439.141 1.92927 0.57804 0
M  V30 4500 C 436.206 3.40122 0.672145 0
M  V30 4501 C 435.267 4.28867 -0.19267 0
M  V30 4502 C 434.5 5.30045 0.623561 0
M  V30 4503 O 434.723 5.39232 1.8597 0
M  V30 4504 O 433.657 6.01895 0.0247068 0
M  V30 4505 H 437.483 2.87126 -0.989562 0
M  V30 4506 H 435.068 1.38969 -0.548455 0
M  V30 4507 H 436.95 4.05093 1.16094 0
M  V30 4508 H 435.625 2.89169 1.45474 0
M  V30 4509 H 434.532 3.66945 -0.728166 0
M  V30 4510 H 435.865 4.83165 -0.938722 0
M  V30 4511 N 437.518 0.538854 1.48102 0
M  V30 4512 C 438.934 0.19732 1.58376 0
M  V30 4513 C 439.134 -1.29971 1.5398 0
M  V30 4514 O 438.19 -2.07861 1.43352 0
M  V30 4515 C 439.503 0.807716 2.89649 0
M  V30 4516 C 441.051 0.77726 3.03196 0
M  V30 4517 C 441.526 1.36639 4.37143 0
M  V30 4518 N 443.017 1.32875 4.43732 0
M  V30 4519 C 443.752 1.7544 5.45901 0
M  V30 4520 N 443.248 2.25776 6.54979 0
M  V30 4521 N 445.041 1.66623 5.36836 0
M  V30 4522 H 437.192 1.5117 1.49202 0
M  V30 4523 H 439.455 0.629327 0.708979 0
M  V30 4524 H 439.161 1.85909 2.98548 0
M  V30 4525 H 439.035 0.289975 3.76084 0
M  V30 4526 H 441.422 -0.265374 2.93904 0
M  V30 4527 H 441.503 1.33256 2.18349 0
M  V30 4528 H 441.147 2.408 4.47189 0
M  V30 4529 H 441.077 0.786689 5.20691 0
M  V30 4530 H 443.568 0.96037 3.65493 0
M  V30 4531 H 443.881 2.56226 7.29087 0
M  V30 4532 H 442.226 2.29775 6.55918 0
M  V30 4533 H 445.417 1.27089 4.50517 0
M  V30 4534 H 445.59 2.00115 6.16326 0
M  V30 4535 N 438.996 -1.55193 0.274407 0
M  V30 4536 C 439.926 -2.25471 -0.607032 0
M  V30 4537 C 440.907 -1.24461 -1.15946 0
M  V30 4538 O 442.092 -1.53179 -1.19373 0
M  V30 4539 C 439.222 -2.97526 -1.79153 0
M  V30 4540 C 438.176 -4.05459 -1.37067 0
M  V30 4541 C 437.502 -4.65084 -2.6382 0
M  V30 4542 C 438.802 -5.19691 -0.521389 0
M  V30 4543 H 440.496 -2.99393 -0.0209343 0
M  V30 4544 H 438.042 -1.43997 -0.00862866 0
M  V30 4545 H 439.995 -3.45402 -2.41404 0
M  V30 4546 H 438.719 -2.21138 -2.40344 0
M  V30 4547 H 437.378 -3.58393 -0.771355 0
M  V30 4548 H 437.026 -3.85365 -3.23268 0
M  V30 4549 H 436.726 -5.37961 -2.36372 0
M  V30 4550 H 438.25 -5.15708 -3.26921 0
M  V30 4551 H 439.664 -5.63623 -1.04889 0
M  V30 4552 H 438.061 -5.99126 -0.341825 0
M  V30 4553 H 439.131 -4.82713 0.46 0
M  V30 4554 N 440.474 -0.00167713 -1.576 0
M  V30 4555 C 441.437 0.974046 -2.07473 0
M  V30 4556 C 442.437 1.27143 -0.984444 0
M  V30 4557 O 443.627 1.21633 -1.24703 0
M  V30 4558 C 440.759 2.29849 -2.51759 0
M  V30 4559 H 441.952 0.54262 -2.9495 0
M  V30 4560 H 439.505 0.245829 -1.54355 0
M  V30 4561 H 440.24 2.77677 -1.67529 0
M  V30 4562 H 440.025 2.09584 -3.31386 0
M  V30 4563 H 441.515 2.9984 -2.90664 0
M  V30 4564 N 441.952 1.55251 0.271103 0
M  V30 4565 C 442.915 1.87484 1.31842 0
M  V30 4566 C 443.915 0.749545 1.42262 0
M  V30 4567 O 445.105 1.01771 1.4138 0
M  V30 4568 C 442.237 2.0818 2.69951 0
M  V30 4569 H 443.43 2.81108 1.0449 0
M  V30 4570 H 440.983 1.47771 0.509258 0
M  V30 4571 H 441.718 1.16944 3.02481 0
M  V30 4572 H 441.503 2.90114 2.63774 0
M  V30 4573 H 442.993 2.34385 3.4562 0
M  V30 4574 N 443.43 -0.535701 1.48216 0
M  V30 4575 C 444.363 -1.65726 1.56876 0
M  V30 4576 C 445.341 -1.57094 0.419542 0
M  V30 4577 O 446.525 -1.77648 0.630352 0
M  V30 4578 C 443.652 -3.04096 1.49142 0
M  V30 4579 C 442.698 -3.31105 2.68834 0
M  V30 4580 S 443.531 -3.18001 4.30854 0
M  V30 4581 C 444.687 -4.58828 4.25709 0
M  V30 4582 H 444.92 -1.58129 2.51759 0
M  V30 4583 H 442.453 -0.718218 1.36678 0
M  V30 4584 H 444.411 -3.839 1.45366 0
M  V30 4585 H 443.072 -3.09139 0.556067 0
M  V30 4586 H 442.265 -4.32033 2.59545 0
M  V30 4587 H 441.867 -2.58961 2.69843 0
M  V30 4588 H 444.159 -5.5023 3.95289 0
M  V30 4589 H 445.102 -4.73172 5.26796 0
M  V30 4590 H 445.51 -4.37883 3.56257 0
M  V30 4591 N 444.908 -1.36708 -0.784132 0
M  V30 4592 C 445.871 -1.31307 -1.87859 0
M  V30 4593 C 446.871 -0.219654 -1.59293 0
M  V30 4594 O 448.061 -0.47476 -1.67606 0
M  V30 4595 C 445.193 -1.03679 -3.24751 0
M  V30 4596 H 446.386 -2.28647 -1.94064 0
M  V30 4597 H 443.939 -1.21558 -0.98252 0
M  V30 4598 H 444.674 -0.0681936 -3.24228 0
M  V30 4599 H 444.459 -1.82811 -3.46876 0
M  V30 4600 H 445.949 -1.02518 -4.04821 0
M  V30 4601 N 446.386 1.0089 -1.21074 0
M  V30 4602 C 447.802 1.2695 -0.967257 0
M  V30 4603 C 448.002 1.9846 0.348673 0
M  V30 4604 O 447.058 2.28459 1.0753 0
M  V30 4605 C 448.371 2.09697 -2.15517 0
M  V30 4606 C 449.919 2.22937 -2.197 0
M  V30 4607 C 450.394 3.09064 -3.37999 0
M  V30 4608 N 451.885 3.16653 -3.38061 0
M  V30 4609 C 452.62 3.8354 -4.26245 0
M  V30 4610 N 452.116 4.52488 -5.2462 0
M  V30 4611 N 453.909 3.80141 -4.14064 0
M  V30 4612 H 446.06 0.529005 -2.05707 0
M  V30 4613 H 448.323 0.296148 -0.900556 0
M  V30 4614 H 448.029 1.64497 -3.10859 0
M  V30 4615 H 447.903 3.10444 -2.14253 0
M  V30 4616 H 450.29 2.67357 -1.24916 0
M  V30 4617 H 450.371 1.21673 -2.2501 0
M  V30 4618 H 450.015 2.65347 -4.33074 0
M  V30 4619 H 449.945 4.10433 -3.29928 0
M  V30 4620 H 452.436 2.67566 -2.66865 0
M  V30 4621 H 452.749 5.01219 -5.88217 0
M  V30 4622 H 451.094 4.51288 -5.28549 0
M  V30 4623 H 454.285 3.25427 -3.36474 0
M  V30 4624 H 454.458 4.31992 -4.82998 0
M  V30 4625 N 447.864 1.01787 1.20321 0
M  V30 4626 C 448.794 0.609625 2.25401 0
M  V30 4627 C 449.775 -0.375951 1.65893 0
M  V30 4628 O 450.96 -0.261101 1.92437 0
M  V30 4629 C 448.09 -0.0515995 3.47262 0
M  V30 4630 C 447.044 0.855095 4.19371 0
M  V30 4631 C 446.37 0.0595757 5.34667 0
M  V30 4632 C 447.67 2.16374 4.75373 0
M  V30 4633 H 449.364 1.48803 2.59804 0
M  V30 4634 H 446.91 0.716934 1.24884 0
M  V30 4635 H 448.863 -0.348764 4.19954 0
M  V30 4636 H 447.587 -0.964726 3.12027 0
M  V30 4637 H 446.246 1.13628 3.48546 0
M  V30 4638 H 445.894 -0.85524 4.95676 0
M  V30 4639 H 445.594 0.663406 5.83843 0
M  V30 4640 H 447.118 -0.231105 6.10162 0
M  V30 4641 H 448.532 1.92885 5.39878 0
M  V30 4642 H 446.929 2.71853 5.34991 0
M  V30 4643 H 447.999 2.82589 3.94045 0
M  V30 4644 N 449.342 -1.36122 0.79427 0
M  V30 4645 C 450.274 -2.28683 0.153903 0
M  V30 4646 C 451.287 -1.49707 -0.639669 0
M  V30 4647 O 452.476 -1.7209 -0.474054 0
M  V30 4648 C 449.576 -3.29202 -0.804921 0
M  V30 4649 C 448.749 -4.37358 -0.060366 0
M  V30 4650 C 447.808 -5.17811 -0.935849 0
M  V30 4651 O 446.834 -5.67853 -0.391309 0
M  V30 4652 N 448.036 -5.34721 -2.25951 0
M  V30 4653 H 450.801 -2.84278 0.949008 0
M  V30 4654 H 448.362 -1.4834 0.648611 0
M  V30 4655 H 450.354 -3.79914 -1.39455 0
M  V30 4656 H 448.924 -2.74212 -1.50088 0
M  V30 4657 H 448.144 -3.87746 0.710382 0
M  V30 4658 H 449.432 -5.06777 0.45324 0
M  V30 4659 H 448.83 -4.95687 -2.72601 0
M  V30 4660 H 447.387 -5.88657 -2.79867 0
M  V30 4661 N 450.82 -0.546701 -1.47814 0
M  V30 4662 C 451.73 0.21026 -2.33656 0
M  V30 4663 C 452.746 0.922413 -1.47538 0
M  V30 4664 O 453.922 0.893652 -1.80488 0
M  V30 4665 C 450.987 1.23348 -3.24016 0
M  V30 4666 C 450.048 0.529883 -4.26017 0
M  V30 4667 C 449.281 1.50435 -5.12059 0
M  V30 4668 O 449.504 2.73837 -5.00369 0
M  V30 4669 O 448.438 1.03459 -5.92942 0
M  V30 4670 H 452.264 -0.493605 -2.99662 0
M  V30 4671 H 449.849 -0.307427 -1.46203 0
M  V30 4672 H 451.731 1.82438 -3.79861 0
M  V30 4673 H 450.406 1.91945 -2.60651 0
M  V30 4674 H 449.313 -0.101948 -3.73961 0
M  V30 4675 H 450.646 -0.11445 -4.92067 0
M  V30 4676 N 452.299 1.55045 -0.282633 0
M  V30 4677 C 453.247 2.24254 0.617478 0
M  V30 4678 C 454.241 1.24215 1.15183 0
M  V30 4679 O 455.447 1.42123 1.10459 0
M  V30 4680 H 451.822 0.719801 0.217693 0
M  V30 4681 H 453.793 2.98398 0.0110076 0
M  V30 4682 C 452.542 2.98281 1.78672 0
M  V30 4683 H 451.865 3.75053 1.38475 0
M  V30 4684 H 453.305 3.50017 2.393 0
M  V30 4685 C 451.764 2.04184 2.67975 0
M  V30 4686 O 452.294 1.59792 3.6855 0
M  V30 4687 N 450.5 1.70526 2.35307 0
M  V30 4688 H 450.047 2.06821 1.53567 0
M  V30 4689 H 450.005 1.07839 2.95327 0
M  V30 4690 N 453.777 0.010035 1.57597 0
M  V30 4691 C 455.025 -0.671371 1.90623 0
M  V30 4692 C 455.346 -1.73753 0.885151 0
M  V30 4693 O 454.616 -1.95752 -0.0760611 0
M  V30 4694 H 453.196 -0.250968 0.703579 0
M  V30 4695 H 455.858 0.0533325 1.94827 0
M  V30 4696 H 454.954 -1.13626 2.90681 0
M  V30 4697 N 455.255 -1.55392 -0.262866 0
M  V30 4698 C 456.187 -1.85392 -1.34768 0
M  V30 4699 C 457.2 -0.739069 -1.45057 0
M  V30 4700 O 458.389 -1.01703 -1.46693 0
M  V30 4701 C 455.489 -2.01088 -2.72795 0
M  V30 4702 C 454.662 -3.31828 -2.84972 0
M  V30 4703 C 453.721 -3.37464 -4.03738 0
M  V30 4704 O 452.747 -4.10778 -3.94018 0
M  V30 4705 N 453.949 -2.65599 -5.16176 0
M  V30 4706 H 456.714 -2.79029 -1.09375 0
M  V30 4707 H 454.275 -1.55434 -0.452981 0
M  V30 4708 H 456.267 -2.02217 -3.50557 0
M  V30 4709 H 454.837 -1.1427 -2.90966 0
M  V30 4710 H 454.057 -3.43152 -1.94012 0
M  V30 4711 H 455.345 -4.18032 -2.90045 0
M  V30 4712 H 454.743 -2.05736 -5.26962 0
M  V30 4713 H 453.3 -2.72439 -5.92132 0
M  V30 4714 N 456.733 0.527833 -1.48498 0
M  V30 4715 C 457.68 1.6322 -1.6318 0
M  V30 4716 C 458.65 1.59199 -0.473815 0
M  V30 4717 O 459.835 1.77591 -0.697563 0
M  V30 4718 C 456.975 3.01474 -1.67951 0
M  V30 4719 C 456.088 3.15713 -2.94871 0
M  V30 4720 C 455.223 4.44539 -2.90789 0
M  V30 4721 C 454.262 4.52315 -4.12404 0
M  V30 4722 N 453.399 5.72533 -4.06387 0
M  V30 4723 H 458.239 1.50011 -2.57489 0
M  V30 4724 H 455.776 0.730298 -1.27691 0
M  V30 4725 H 457.734 3.81572 -1.68698 0
M  V30 4726 H 456.364 3.1345 -0.771306 0
M  V30 4727 H 455.416 2.28854 -3.03859 0
M  V30 4728 H 456.728 3.1732 -3.8485 0
M  V30 4729 H 455.882 5.3293 -2.89949 0
M  V30 4730 H 454.621 4.45457 -1.98542 0
M  V30 4731 H 453.626 3.62331 -4.13517 0
M  V30 4732 H 454.851 4.53134 -5.05812 0
M  V30 4733 H 452.797 5.74344 -3.16962 0
M  V30 4734 H 452.714 5.75643 -4.90073 0
M  V30 4735 H 453.982 6.63204 -4.0961 0
M  V30 4736 N 458.211 1.37122 0.776871 0
M  V30 4737 C 459.488 1.22586 1.52421 0
M  V30 4738 C 459.868 -0.182726 2.10308 0
M  V30 4739 O 459.216 -1.18979 1.9508 0
M  V30 4740 C 459.426 2.31782 2.60918 0
M  V30 4741 C 460.774 2.69071 3.2846 0
M  V30 4742 O 461.798 2.3092 2.71209 0
M  V30 4743 O 460.657 3.3478 4.31954 0
M  V30 4744 H 457.751 0.478045 0.674835 0
M  V30 4745 H 460.297 1.48888 0.814275 0
M  V30 4746 H 459.069 3.26131 2.16227 0
M  V30 4747 H 458.692 2.06916 3.39517 0
M  V30 4748 N 459.689 -1.00246 1.21608 0
M  V30 4749 C 460.935 -1.74319 1.03638 0
M  V30 4750 C 461.268 -1.89408 -0.428749 0
M  V30 4751 O 460.543 -1.43026 -1.3181 0
M  V30 4752 C 460.826 -3.15431 1.73711 0
M  V30 4753 C 460.679 -3.08049 3.27759 0
M  V30 4754 C 461.998 -4.14407 1.48173 0
M  V30 4755 H 459.117 -0.632741 0.377899 0
M  V30 4756 H 461.759 -1.16853 1.49818 0
M  V30 4757 H 459.909 -3.64493 1.34452 0
M  V30 4758 H 461.581 -2.66681 3.76403 0
M  V30 4759 H 459.824 -2.45088 3.57931 0
M  V30 4760 H 460.495 -4.07862 3.71958 0
M  V30 4761 H 462.971 -3.74061 1.82258 0
M  V30 4762 H 461.847 -5.11279 1.99713 0
M  V30 4763 H 462.108 -4.40174 0.412273 0
M  V30 4764 N 461.167 -1.02423 -1.1978 0
M  V30 4765 C 462.415 -0.716569 -1.8897 0
M  V30 4766 C 462.736 0.756769 -1.79716 0
M  V30 4767 O 462.006 1.5449 -1.20456 0
M  V30 4768 H 460.586 -0.262062 -0.699523 0
M  V30 4769 H 463.248 -1.29747 -1.45436 0
M  V30 4770 H 462.344 -1.00675 -2.95417 0
M  V30 4771 N 462.645 1.35699 -0.801477 0
M  V30 4772 C 463.87 2.03687 -0.390678 0
M  V30 4773 C 464.295 1.60015 0.988778 0
M  V30 4774 O 463.653 0.774357 1.63931 0
M  V30 4775 C 463.701 3.57439 -0.476404 0
M  V30 4776 O 462.805 4.09208 0.512106 0
M  V30 4777 H 462.146 0.64344 -0.163956 0
M  V30 4778 H 464.676 1.73403 -1.08594 0
M  V30 4779 H 464.686 4.06544 -0.344357 0
M  V30 4780 H 463.361 3.88576 -1.48262 0
M  V30 4781 H 461.938 3.7134 0.340721 0
M  V30 4782 N 464.123 0.554532 1.47522 0
M  V30 4783 C 465.353 0.0342074 2.06572 0
M  V30 4784 C 465.761 -1.26375 1.40805 0
M  V30 4785 O 465.104 -1.7683 0.49769 0
M  V30 4786 C 465.166 -0.235096 3.5873 0
M  V30 4787 C 464.83 0.973024 4.46521 0
M  V30 4788 C 465.827 1.8779 4.848 0
M  V30 4789 C 463.512 1.18694 4.88075 0
M  V30 4790 C 465.506 2.98039 5.63428 0
M  V30 4791 C 463.193 2.29254 5.66468 0
M  V30 4792 C 464.191 3.18757 6.04055 0
M  V30 4793 O 463.879 4.27401 6.8087 0
M  V30 4794 H 463.611 0.041587 0.67472 0
M  V30 4795 H 466.165 0.766748 1.90552 0
M  V30 4796 H 464.395 -1.02191 3.72953 0
M  V30 4797 H 466.084 -0.700477 3.9981 0
M  V30 4798 H 466.85 1.72467 4.53299 0
M  V30 4799 H 462.729 0.49947 4.58286 0
M  V30 4800 H 466.273 3.67926 5.92685 0
M  V30 4801 H 462.17 2.4455 5.97382 0
M  V30 4802 H 462.938 4.25415 6.9926 0
M  V30 4803 N 465.601 -1.54893 0.290851 0
M  V30 4804 C 466.533 -2.20564 -0.623236 0
M  V30 4805 C 467.546 -1.19519 -1.1054 0
M  V30 4806 O 468.735 -1.46165 -1.02459 0
M  V30 4807 C 465.835 -2.83033 -1.86401 0
M  V30 4808 C 465.008 -4.09916 -1.52604 0
M  V30 4809 C 464.067 -4.56284 -2.62091 0
M  V30 4810 O 463.093 -5.2171 -2.27612 0
M  V30 4811 N 464.295 -4.27746 -3.92446 0
M  V30 4812 H 467.06 -2.99638 -0.0610915 0
M  V30 4813 H 464.621 -1.61508 0.112615 0
M  V30 4814 H 466.613 -3.1099 -2.58973 0
M  V30 4815 H 465.183 -2.0786 -2.33481 0
M  V30 4816 H 464.403 -3.89078 -0.633424 0
M  V30 4817 H 465.691 -4.92554 -1.27547 0
M  V30 4818 H 465.089 -3.7531 -4.23272 0
M  V30 4819 H 463.646 -4.60437 -4.61347 0
M  V30 4820 N 467.08 -0.0183926 -1.57589 0
M  V30 4821 C 468.01 0.965596 -2.12599 0
M  V30 4822 C 468.991 1.34641 -1.0395 0
M  V30 4823 O 470.176 1.42693 -1.31729 0
M  V30 4824 C 467.306 2.25149 -2.64434 0
M  V30 4825 C 466.26 2.01175 -3.77773 0
M  V30 4826 C 465.586 3.35937 -4.15994 0
M  V30 4827 C 466.886 1.35953 -5.04296 0
M  V30 4828 H 468.58 0.507504 -2.95067 0
M  V30 4829 H 466.126 0.242671 -1.41941 0
M  V30 4830 H 468.079 2.94357 -3.01549 0
M  V30 4831 H 466.803 2.73105 -1.79112 0
M  V30 4832 H 465.462 1.34388 -3.4108 0
M  V30 4833 H 465.11 3.81631 -3.27669 0
M  V30 4834 H 464.81 3.20705 -4.92364 0
M  V30 4835 H 466.334 4.0643 -4.55683 0
M  V30 4836 H 467.748 1.95144 -5.39065 0
M  V30 4837 H 466.145 1.31152 -5.85593 0
M  V30 4838 H 467.215 0.331071 -4.83768 0
M  V30 4839 N 468.558 1.5553 0.254621 0
M  V30 4840 C 469.969 1.67518 0.824286 0
M  V30 4841 C 470.32 0.614429 1.86331 0
M  V30 4842 O 469.445 -0.240736 2.15057 0
M  V30 4843 C 470.04 3.03692 1.50189 0
M  V30 4844 C 468.599 3.17646 2.01935 0
M  V30 4845 C 467.746 2.63373 0.867746 0
M  V30 4846 H 470.697 1.58671 0.0305843 0
M  V30 4847 H 470.718 2.97706 2.36962 0
M  V30 4848 H 470.23 3.80874 0.745431 0
M  V30 4849 H 468.331 2.45273 2.80485 0
M  V30 4850 H 468.444 4.24455 2.22204 0
M  V30 4851 H 466.808 2.20999 1.26616 0
M  V30 4852 H 467.591 3.43074 0.124498 0
M  V30 4853 N 470.036 -0.519951 1.48776 0
M  V30 4854 C 470.983 -1.62352 1.64044 0
M  V30 4855 C 471.953 -1.58945 0.482251 0
M  V30 4856 O 473.138 -1.77219 0.706971 0
M  V30 4857 C 470.278 -3.00579 1.69547 0
M  V30 4858 C 469.391 -3.14145 2.96541 0
M  V30 4859 C 468.526 -4.42991 2.93142 0
M  V30 4860 C 467.565 -4.50122 4.14797 0
M  V30 4861 N 466.702 -5.7037 4.09418 0
M  V30 4862 H 471.542 -1.48643 2.58281 0
M  V30 4863 H 469.079 -0.723516 1.28077 0
M  V30 4864 H 471.037 -3.80671 1.70719 0
M  V30 4865 H 469.667 -3.13036 0.787918 0
M  V30 4866 H 468.719 -2.27239 3.05068 0
M  V30 4867 H 470.031 -3.15275 3.86527 0
M  V30 4868 H 469.185 -5.31385 2.92772 0
M  V30 4869 H 467.924 -4.44398 2.00902 0
M  V30 4870 H 466.929 -3.60133 4.15433 0
M  V30 4871 H 468.154 -4.50445 5.08208 0
M  V30 4872 H 466.1 -5.72655 3.20004 0
M  V30 4873 H 466.017 -5.73036 4.93119 0
M  V30 4874 H 467.285 -6.61023 4.13121 0
M  V30 4875 N 471.514 -1.37532 -0.769588 0
M  V30 4876 C 472.762 -1.32597 -1.5252 0
M  V30 4877 C 473.083 0.0884294 -1.94799 0
M  V30 4878 O 472.353 1.03289 -1.66458 0
M  V30 4879 H 470.933 -0.487846 -0.565699 0
M  V30 4880 H 473.595 -1.72044 -0.915806 0
M  V30 4881 H 472.691 -1.96643 -2.42359 0
M  V30 4882 N 472.992 0.995999 -1.22138 0
M  V30 4883 C 473.925 2.08302 -0.931952 0
M  V30 4884 C 474.903 1.62127 0.123956 0
M  V30 4885 O 476.087 1.88499 -0.00696004 0
M  V30 4886 C 473.214 3.36317 -0.401068 0
M  V30 4887 C 472.26 4.01413 -1.44117 0
M  V30 4888 S 473.093 4.42664 -3.01345 0
M  V30 4889 C 474.249 5.73853 -2.49887 0
M  V30 4890 H 474.482 2.32532 -1.85246 0
M  V30 4891 H 472.015 1.13005 -1.0521 0
M  V30 4892 H 473.973 4.10375 -0.101352 0
M  V30 4893 H 472.634 3.10123 0.498272 0
M  V30 4894 H 471.827 4.9358 -1.01952 0
M  V30 4895 H 471.429 3.33668 -1.68943 0
M  V30 4896 H 473.721 6.50039 -1.90934 0
M  V30 4897 H 474.664 6.20841 -3.40532 0
M  V30 4898 H 475.072 5.31105 -1.9128 0
M  V30 4899 N 474.47 1.03057 1.19235 0
M  V30 4900 C 475.695 0.74757 1.93458 0
M  V30 4901 C 476.12 -0.687648 1.7508 0
M  V30 4902 O 475.478 -1.47499 1.05422 0
M  V30 4903 C 475.526 1.10604 3.43219 0
M  V30 4904 O 474.63 0.225671 4.11782 0
M  V30 4905 H 473.971 0.276047 0.603899 0
M  V30 4906 H 476.501 1.3777 1.51263 0
M  V30 4907 H 476.511 1.06366 3.93891 0
M  V30 4908 H 475.186 2.15165 3.55917 0
M  V30 4909 H 473.763 0.326795 3.71465 0
M  V30 4910 N 475.948 -1.35272 0.808662 0
M  V30 4911 C 477.173 -2.03477 0.401475 0
M  V30 4912 C 477.598 -1.60537 -0.980279 0
M  V30 4913 O 476.956 -0.78304 -1.63518 0
M  V30 4914 C 477.004 -3.57181 0.495354 0
M  V30 4915 O 476.108 -4.09474 -0.490397 0
M  V30 4916 H 475.449 -0.642561 0.167366 0
M  V30 4917 H 477.979 -1.72824 1.09512 0
M  V30 4918 H 477.989 -4.06356 0.365912 0
M  V30 4919 H 476.664 -3.87784 1.5032 0
M  V30 4920 H 475.241 -3.71516 -0.321023 0
M  V30 4921 N 477.426 -0.562348 -1.47226 0
M  V30 4922 C 478.376 0.202967 -2.27095 0
M  V30 4923 C 479.36 0.880611 -1.34663 0
M  V30 4924 O 480.552 0.778069 -1.58981 0
M  V30 4925 C 477.681 1.22906 -3.20545 0
M  V30 4926 C 476.767 0.554566 -4.20459 0
M  V30 4927 N 477.158 -0.378295 -5.04383 0
M  V30 4928 C 475.456 0.807854 -4.38623 0
M  V30 4929 C 476.157 -0.770583 -5.76573 0
M  V30 4930 N 475.133 -0.124263 -5.43458 0
M  V30 4931 H 478.935 -0.514196 -2.89367 0
M  V30 4932 H 476.449 -0.382655 -1.57827 0
M  V30 4933 H 478.446 1.79134 -3.76453 0
M  V30 4934 H 477.106 1.94726 -2.59831 0
M  V30 4935 H 478.117 -0.75274 -5.124 0
M  V30 4936 H 474.794 1.51418 -3.89075 0
M  V30 4937 H 476.184 -1.53742 -6.54074 0
M  V30 4938 N 478.904 1.54736 -0.299062 0
M  V30 4939 C 479.834 2.26409 0.571085 0
M  V30 4940 C 480.815 1.2629 1.13951 0
M  V30 4941 O 482 1.55059 1.16921 0
M  V30 4942 C 479.13 3.00338 1.74396 0
M  V30 4943 C 478.084 4.07588 1.30599 0
M  V30 4944 C 477.41 4.69222 2.56387 0
M  V30 4945 C 478.71 5.20455 0.438645 0
M  V30 4946 H 480.404 2.99388 -0.0266991 0
M  V30 4947 H 477.95 1.43993 -0.0142812 0
M  V30 4948 H 479.903 3.49198 2.35878 0
M  V30 4949 H 478.627 2.24934 2.36796 0
M  V30 4950 H 477.286 3.59575 0.71424 0
M  V30 4951 H 476.934 3.9046 3.17097 0
M  V30 4952 H 476.634 5.41653 2.27784 0
M  V30 4953 H 478.158 5.20844 3.18675 0
M  V30 4954 H 479.572 5.65221 0.959085 0
M  V30 4955 H 477.969 5.99594 0.246466 0
M  V30 4956 H 479.039 4.8192 -0.536738 0
M  V30 4957 N 480.382 0.0267497 1.57577 0
M  V30 4958 C 481.33 -0.973923 2.11229 0
M  V30 4959 C 482.324 -1.33849 1.03831 0
M  V30 4960 O 483.53 -1.321 1.22269 0
M  V30 4961 H 479.905 -0.331844 0.674821 0
M  V30 4962 H 481.876 -0.496092 2.94247 0
M  V30 4963 C 480.625 -2.24798 2.65257 0
M  V30 4964 H 479.948 -1.9762 3.47543 0
M  V30 4965 H 481.388 -2.93031 3.06445 0
M  V30 4966 C 479.847 -2.97611 1.57891 0
M  V30 4967 O 480.377 -3.89629 0.97735 0
M  V30 4968 N 478.583 -2.59905 1.29992 0
M  V30 4969 H 478.13 -1.85154 1.79097 0
M  V30 4970 H 478.088 -3.08932 0.583798 0
M  V30 4971 N 481.861 -1.55662 -0.24637 0
M  V30 4972 C 483.109 -1.77168 -0.972411 0
M  V30 4973 C 483.43 -0.590827 -1.85834 0
M  V30 4974 O 482.7 0.393365 -1.9191 0
M  V30 4975 H 481.28 -0.653405 -0.362038 0
M  V30 4976 H 483.942 -1.93101 -0.264189 0
M  V30 4977 H 483.038 -2.68335 -1.59382 0
M  V30 4978 N 483.339 0.512053 -1.4905 0
M  V30 4979 C 484.271 1.63121 -1.6101 0
M  V30 4980 C 485.284 1.55145 -0.493352 0
M  V30 4981 O 486.473 1.61278 -0.764955 0
M  V30 4982 C 483.573 3.01863 -1.54052 0
M  V30 4983 C 482.746 3.35138 -2.81072 0
M  V30 4984 C 481.805 4.5324 -2.67319 0
M  V30 4985 O 480.831 4.55571 -3.41238 0
M  V30 4986 N 482.033 5.52495 -1.78127 0
M  V30 4987 H 484.798 1.53292 -2.5753 0
M  V30 4988 H 482.359 0.699706 -1.45999 0
M  V30 4989 H 484.351 3.78774 -1.42521 0
M  V30 4990 H 482.921 3.05675 -0.654345 0
M  V30 4991 H 482.141 2.4723 -3.07036 0
M  V30 4992 H 483.429 3.54162 -3.65304 0
M  V30 4993 H 482.827 5.53403 -1.17308 0
M  V30 4994 H 481.384 6.28553 -1.72525 0
M  V30 4995 N 484.817 1.37938 0.762283 0
M  V30 4996 C 485.78 1.34279 1.85747 0
M  V30 4997 C 486.78 0.244969 1.58923 0
M  V30 4998 O 487.97 0.501365 1.66829 0
M  V30 4999 C 485.102 1.08833 3.23061 0
M  V30 5000 H 486.295 2.31705 1.90401 0
M  V30 5001 H 483.848 1.23105 0.963057 0
M  V30 5002 H 484.583 0.119767 3.24079 0
M  V30 5003 H 484.368 1.88306 3.43923 0
M  V30 5004 H 485.858 1.08946 4.03138 0
M  V30 5005 N 486.295 -0.989507 1.22664 0
M  V30 5006 C 487.711 -1.25395 0.987331 0
M  V30 5007 C 487.911 -1.9899 -0.317056 0
M  V30 5008 O 486.967 -2.30141 -1.03882 0
M  V30 5009 C 488.28 -2.06242 2.18826 0
M  V30 5010 C 489.828 -2.19413 2.23219 0
M  V30 5011 C 490.303 -3.03648 3.42873 0
M  V30 5012 N 491.794 -3.11234 3.43056 0
M  V30 5013 C 492.529 -3.7671 4.32293 0
M  V30 5014 N 492.025 -4.44085 5.31752 0
M  V30 5015 N 493.818 -3.73505 4.2006 0
M  V30 5016 H 485.969 -0.496212 2.06522 0
M  V30 5017 H 488.232 -0.281784 0.905153 0
M  V30 5018 H 487.938 -1.59531 3.13437 0
M  V30 5019 H 487.812 -3.06996 2.19165 0
M  V30 5020 H 490.199 -2.65336 1.29154 0
M  V30 5021 H 490.28 -1.18078 2.26917 0
M  V30 5022 H 489.924 -2.58424 4.37241 0
M  V30 5023 H 489.854 -4.05132 3.36416 0
M  V30 5024 H 492.345 -2.63287 2.71088 0
M  V30 5025 H 492.658 -4.91797 5.96117 0
M  V30 5026 H 491.003 -4.42822 5.35662 0
M  V30 5027 H 494.194 -3.20033 3.41609 0
M  V30 5028 H 494.367 -4.24253 4.8981 0
M  V30 5029 N 487.773 -1.03688 -1.18687 0
M  V30 5030 C 489.001 -0.757918 -1.92518 0
M  V30 5031 C 489.416 0.684398 -1.75959 0
M  V30 5032 O 488.773 1.46617 -1.08673 0
M  V30 5033 C 488.824 -1.10985 -3.44042 0
M  V30 5034 O 488.545 -2.49554 -3.60076 0
M  V30 5035 C 490.046 -0.854844 -4.3498 0
M  V30 5036 H 487.266 -0.276699 -0.611293 0
M  V30 5037 H 489.81 -1.38352 -1.50595 0
M  V30 5038 H 487.965 -0.529279 -3.83767 0
M  V30 5039 H 488.379 -2.6291 -4.53849 0
M  V30 5040 H 489.853 -1.15098 -5.39867 0
M  V30 5041 H 490.33 0.210507 -4.38695 0
M  V30 5042 H 490.936 -1.41853 -4.00946 0
M  V30 5043 N 489.251 1.34841 -0.815825 0
M  V30 5044 C 490.476 2.03261 -0.41226 0
M  V30 5045 C 490.901 1.61055 0.971751 0
M  V30 5046 O 490.259 0.7917 1.63101 0
M  V30 5047 C 490.307 3.56914 -0.514289 0
M  V30 5048 O 489.411 4.09728 0.468675 0
M  V30 5049 H 488.752 0.641664 -0.170771 0
M  V30 5050 H 491.282 1.72241 -1.10427 0
M  V30 5051 H 491.292 4.06156 -0.387457 0
M  V30 5052 H 489.967 3.86982 -1.52375 0
M  V30 5053 H 488.544 3.71681 0.301316 0
M  V30 5054 N 490.729 0.570148 1.46925 0
M  V30 5055 C 491.954 0.0542592 2.07329 0
M  V30 5056 C 492.379 -1.23582 1.41806 0
M  V30 5057 O 491.737 -1.74341 0.497479 0
M  V30 5058 C 491.785 -0.111175 3.60429 0
M  V30 5059 O 490.889 -1.17071 3.95434 0
M  V30 5060 H 490.23 0.0571425 0.661537 0
M  V30 5061 H 492.76 0.789516 1.88753 0
M  V30 5062 H 492.77 -0.321315 4.06733 0
M  V30 5063 H 491.445 0.831012 4.07513 0
M  V30 5064 H 490.022 -0.940029 3.60857 0
M  V30 5065 N 492.207 -1.54576 0.307264 0
M  V30 5066 C 493.432 -2.05139 -0.305379 0
M  V30 5067 C 493.857 -1.18278 -1.46259 0
M  V30 5068 O 493.215 -0.188243 -1.8032 0
M  V30 5069 C 493.263 -3.53066 -0.733283 0
M  V30 5070 O 492.367 -3.69206 -1.83741 0
M  V30 5071 H 491.708 -0.661444 -0.0582105 0
M  V30 5072 H 494.238 -1.99569 0.450931 0
M  V30 5073 H 494.248 -3.95034 -1.02039 0
M  V30 5074 H 492.923 -4.15746 0.113198 0
M  V30 5075 H 491.5 -3.39143 -1.55037 0
M  V30 5076 N 493.685 -0.035106 -1.57561 0
M  V30 5077 C 494.632 0.94474 -2.10578 0
M  V30 5078 C 495.602 1.3192 -1.00927 0
M  V30 5079 O 496.787 1.41147 -1.28382 0
M  V30 5080 C 493.927 2.21982 -2.64231 0
M  V30 5081 C 493.04 1.90128 -3.87911 0
M  V30 5082 C 492.175 3.11975 -4.29936 0
M  V30 5083 C 491.214 2.75968 -5.46359 0
M  V30 5084 N 490.351 3.90459 -5.83512 0
M  V30 5085 H 495.191 0.485717 -2.94015 0
M  V30 5086 H 492.728 0.228143 -1.4532 0
M  V30 5087 H 494.686 2.96572 -2.9343 0
M  V30 5088 H 493.316 2.6549 -1.83616 0
M  V30 5089 H 492.368 1.05755 -3.65404 0
M  V30 5090 H 493.68 1.59613 -4.72573 0
M  V30 5091 H 492.834 3.9488 -4.60603 0
M  V30 5092 H 491.573 3.45657 -3.44053 0
M  V30 5093 H 490.578 1.91478 -5.1538 0
M  V30 5094 H 491.803 2.43497 -6.33945 0
M  V30 5095 H 489.749 4.23971 -5.00584 0
M  V30 5096 H 489.666 3.63588 -6.62827 0
M  V30 5097 H 490.934 4.7405 -6.18787 0
M  V30 5098 N 495.163 1.55791 0.238111 0
M  V30 5099 C 496.093 1.94068 1.29846 0
M  V30 5100 C 497.074 0.806726 1.49753 0
M  V30 5101 O 498.259 1.06772 1.62214 0
M  V30 5102 C 495.389 2.24302 2.65153 0
M  V30 5103 C 494.343 3.40032 2.59927 0
M  V30 5104 C 493.669 3.55829 3.99111 0
M  V30 5105 C 494.969 4.75476 2.16148 0
M  V30 5106 H 496.663 2.82887 0.980563 0
M  V30 5107 H 494.209 1.36105 0.470253 0
M  V30 5108 H 496.162 2.4967 3.39475 0
M  V30 5109 H 494.886 1.32318 2.98596 0
M  V30 5110 H 493.545 3.14687 1.88063 0
M  V30 5111 H 493.193 2.6125 4.29834 0
M  V30 5112 H 492.893 4.3366 3.96501 0
M  V30 5113 H 494.417 3.83528 4.7512 0
M  V30 5114 H 495.831 5.00158 2.80205 0
M  V30 5115 H 494.228 5.56472 2.24631 0
M  V30 5116 H 495.298 4.71946 1.11333 0
M  V30 5117 N 496.642 -0.504142 1.49319 0
M  V30 5118 C 497.575 -1.62361 1.60356 0
M  V30 5119 C 498.553 -1.56169 0.45277 0
M  V30 5120 O 499.737 -1.76271 0.667892 0
M  V30 5121 C 496.864 -3.00864 1.55559 0
M  V30 5122 C 495.91 -3.25328 2.75797 0
M  V30 5123 S 496.743 -3.08791 4.37503 0
M  V30 5124 C 497.899 -4.49695 4.35345 0
M  V30 5125 H 498.132 -1.52753 2.55056 0
M  V30 5126 H 495.665 -0.689065 1.38171 0
M  V30 5127 H 497.623 -3.8073 1.53477 0
M  V30 5128 H 496.284 -3.0789 0.621515 0
M  V30 5129 H 495.477 -4.2643 2.68651 0
M  V30 5130 H 495.079 -2.53179 2.75275 0
M  V30 5131 H 497.371 -5.41721 4.06871 0
M  V30 5132 H 498.314 -4.61891 5.36714 0
M  V30 5133 H 498.722 -4.30227 3.65465 0
M  V30 5134 N 498.12 -1.38341 -0.754957 0
M  V30 5135 C 499.083 -1.35262 -1.85032 0
M  V30 5136 C 500.083 -0.253393 -1.58791 0
M  V30 5137 O 501.273 -0.510205 -1.66561 0
M  V30 5138 C 498.405 -1.10544 -3.22479 0
M  V30 5139 H 499.598 -2.32712 -1.8917 0
M  V30 5140 H 497.151 -1.23614 -0.956515 0
M  V30 5141 H 497.886 -0.136952 -3.24011 0
M  V30 5142 H 497.671 -1.90127 -3.4292 0
M  V30 5143 H 499.161 -1.11082 -4.02555 0
M  V30 5144 N 499.598 0.982988 -1.23187 0
M  V30 5145 C 500.823 1.76455 -1.08988 0
M  V30 5146 C 501.248 1.84726 0.354691 0
M  V30 5147 O 500.606 1.30699 1.25649 0
M  V30 5148 C 500.654 3.17094 -1.71708 0
M  V30 5149 O 499.758 4.00648 -0.977477 0
M  V30 5150 H 499.099 0.542988 -0.382177 0
M  V30 5151 H 501.629 1.23413 -1.63188 0
M  V30 5152 H 501.639 3.67684 -1.76841 0
M  V30 5153 H 500.314 3.10389 -2.76823 0
M  V30 5154 H 498.891 3.59161 -1.0029 0
M  V30 5155 N 501.076 1.04316 1.18135 0
M  V30 5156 C 502.023 0.636398 2.21853 0
M  V30 5157 C 502.993 -0.357039 1.62217 0
M  V30 5158 O 504.178 -0.250453 1.89149 0
M  V30 5159 C 501.318 0.00812779 3.45099 0
M  V30 5160 C 500.431 1.04933 4.19062 0
M  V30 5161 C 499.566 0.389313 5.29771 0
M  V30 5162 C 498.605 1.41544 5.9551 0
M  V30 5163 N 497.742 0.78021 6.97751 0
M  V30 5164 H 502.582 1.52536 2.56002 0
M  V30 5165 H 500.119 0.76304 1.25762 0
M  V30 5166 H 502.077 -0.373497 4.15525 0
M  V30 5167 H 500.707 -0.844336 3.11562 0
M  V30 5168 H 499.759 1.54888 3.47439 0
M  V30 5169 H 501.071 1.82862 4.64072 0
M  V30 5170 H 500.225 -0.0463805 6.06682 0
M  V30 5171 H 498.964 -0.422038 4.8587 0
M  V30 5172 H 497.969 1.86124 5.17337 0
M  V30 5173 H 499.194 2.22854 6.41493 0
M  V30 5174 H 497.14 -0.0107899 6.55999 0
M  V30 5175 H 497.057 1.49716 7.41027 0
M  V30 5176 H 498.325 0.368996 7.78626 0
M  V30 5177 N 502.554 -1.34406 0.822964 0
M  V30 5178 C 503.779 -2.0304 0.423034 0
M  V30 5179 C 504.204 -1.61568 -0.963196 0
M  V30 5180 O 503.562 -0.800339 -1.62678 0
M  V30 5181 C 503.61 -3.56636 0.53321 0
M  V30 5182 O 502.714 -4.09971 -0.446939 0
M  V30 5183 H 502.055 -0.64075 0.174171 0
M  V30 5184 H 504.585 -1.71653 1.11339 0
M  V30 5185 H 504.595 -4.05945 0.408991 0
M  V30 5186 H 503.27 -3.86168 1.54425 0
M  V30 5187 H 501.847 -3.71835 -0.281601 0
M  V30 5188 N 504.032 -0.577932 -1.46621 0
M  V30 5189 C 505.257 -0.0652536 -2.07297 0
M  V30 5190 C 505.682 1.22828 -1.4246 0
M  V30 5191 O 505.04 1.74075 -0.506718 0
M  V30 5192 C 505.088 0.0920589 -3.60482 0
M  V30 5193 O 504.192 1.14972 -3.96049 0
M  V30 5194 H 503.533 -0.06065 -0.661224 0
M  V30 5195 H 506.063 -0.799515 -1.88332 0
M  V30 5196 H 506.073 0.299741 -4.06897 0
M  V30 5197 H 504.748 -0.852612 -4.07067 0
M  V30 5198 H 503.325 0.920879 -3.61351 0
M  V30 5199 N 505.51 1.54411 -0.315457 0
M  V30 5200 C 506.473 2.22713 0.54142 0
M  V30 5201 C 507.473 1.2179 1.04995 0
M  V30 5202 O 508.663 1.46426 0.943667 0
M  V30 5203 C 505.795 2.92485 1.75116 0
M  V30 5204 H 506.988 2.99849 -0.0555508 0
M  V30 5205 H 504.541 1.56159 -0.0664453 0
M  V30 5206 H 505.276 2.19466 2.38758 0
M  V30 5207 H 505.061 3.66483 1.39401 0
M  V30 5208 H 506.551 3.44548 2.35959 0
M  V30 5209 N 506.988 0.0434614 1.5754 0
M  V30 5210 C 508.216 -0.641835 1.96693 0
M  V30 5211 C 508.631 -1.64832 0.920652 0
M  V30 5212 O 507.988 -1.82247 -0.095993 0
M  V30 5213 C 508.039 -1.33557 3.35924 0
M  V30 5214 O 507.76 -0.369403 4.3654 0
M  V30 5215 C 509.261 -2.11135 3.89791 0
M  V30 5216 H 506.481 -0.176013 0.647503 0
M  V30 5217 H 509.025 0.107478 2.04217 0
M  V30 5218 H 507.18 -2.03617 3.29574 0
M  V30 5219 H 507.594 -0.863674 5.1734 0
M  V30 5220 H 509.068 -2.55107 4.89514 0
M  V30 5221 H 509.545 -2.95634 3.24803 0
M  V30 5222 H 510.151 -1.46002 3.99454 0
M  V30 5223 N 508.466 -1.55915 -0.229846 0
M  V30 5224 C 509.712 -1.78807 -0.956868 0
M  V30 5225 C 510.045 -0.611687 -1.84315 0
M  V30 5226 O 509.32 0.389398 -1.90562 0
M  V30 5227 C 509.603 -3.11718 -1.80288 0
M  V30 5228 C 509.456 -4.3979 -0.943649 0
M  V30 5229 C 510.775 -3.40999 -2.78222 0
M  V30 5230 H 507.894 -0.6505 -0.346437 0
M  V30 5231 H 510.536 -1.88648 -0.226252 0
M  V30 5232 H 508.686 -3.03459 -2.42579 0
M  V30 5233 H 510.358 -4.60059 -0.338121 0
M  V30 5234 H 508.601 -4.33086 -0.248705 0
M  V30 5235 H 509.272 -5.29208 -1.5698 0
M  V30 5236 H 511.748 -3.49332 -2.26067 0
M  V30 5237 H 510.624 -4.35183 -3.34526 0
M  V30 5238 H 510.885 -2.62754 -3.55546 0
M  V30 5239 N 509.944 0.496216 -1.49584 0
M  V30 5240 C 511.191 1.25003 -1.59312 0
M  V30 5241 C 511.519 1.92445 -0.28198 0
M  V30 5242 O 510.774 1.81557 0.730452 0
M  V30 5243 C 511.073 2.3359 -2.705 0
M  V30 5244 C 510.739 1.83574 -4.11839 0
M  V30 5245 C 509.401 1.69653 -4.50302 0
M  V30 5246 C 511.753 1.46193 -5.00277 0
M  V30 5247 C 509.081 1.16736 -5.74969 0
M  V30 5248 C 511.433 0.947265 -6.25468 0
M  V30 5249 C 510.097 0.794485 -6.62755 0
M  V30 5250 H 509.367 0.45742 -0.582965 0
M  V30 5251 H 512.014 0.549996 -1.83432 0
M  V30 5252 H 510.319 3.09401 -2.40371 0
M  V30 5253 H 512.016 2.91627 -2.75235 0
M  V30 5254 H 508.606 1.9537 -3.81482 0
M  V30 5255 H 512.79 1.55793 -4.71214 0
M  V30 5256 H 508.046 1.03623 -6.02555 0
M  V30 5257 H 512.22 0.648846 -6.93371 0
M  V30 5258 H 509.847 0.382271 -7.59238 0
M  V30 5259 N 511.423 1.38739 0.74761 0
M  V30 5260 C 512.355 1.32341 1.87132 0
M  V30 5261 C 513.368 0.234502 1.61102 0
M  V30 5262 O 514.557 0.492516 1.71571 0
M  V30 5263 C 511.657 1.02915 3.22896 0
M  V30 5264 C 510.83 2.22834 3.76383 0
M  V30 5265 C 509.889 1.90059 4.90677 0
M  V30 5266 O 508.915 2.62615 5.04997 0
M  V30 5267 N 510.117 0.859141 5.74107 0
M  V30 5268 H 512.882 2.29175 1.93129 0
M  V30 5269 H 510.443 1.32678 0.927805 0
M  V30 5270 H 512.435 0.79031 3.96908 0
M  V30 5271 H 511.005 0.148572 3.12247 0
M  V30 5272 H 510.225 2.62747 2.93867 0
M  V30 5273 H 511.513 3.02851 4.08851 0
M  V30 5274 H 510.911 0.257564 5.65113 0
M  V30 5275 H 509.468 0.680189 6.48241 0
M  V30 5276 N 512.901 -0.976442 1.23707 0
M  V30 5277 C 513.849 -2.09078 1.01927 0
M  V30 5278 C 514.843 -1.69345 -0.0430193 0
M  V30 5279 O 516.049 -1.79659 0.110814 0
M  V30 5280 H 512.424 -0.68398 0.312531 0
M  V30 5281 H 514.395 -2.24614 1.96447 0
M  V30 5282 C 513.144 -3.41919 0.631385 0
M  V30 5283 H 512.467 -3.72946 1.44053 0
M  V30 5284 H 513.907 -4.20817 0.518532 0
M  V30 5285 C 512.366 -3.30357 -0.660723 0
M  V30 5286 O 512.896 -3.63542 -1.70881 0
M  V30 5287 N 511.102 -2.83507 -0.638139 0
M  V30 5288 H 510.649 -2.567 0.215108 0
M  V30 5289 H 510.607 -2.76153 -1.50289 0
M  V30 5290 N 514.379 -1.04941 -1.1758 0
M  V30 5291 C 515.79 -0.784501 -1.69418 0
M  V30 5292 C 516.141 0.693625 -1.8353 0
M  V30 5293 O 515.266 1.53925 -1.52106 0
M  V30 5294 C 515.861 -1.41746 -3.07723 0
M  V30 5295 C 514.42 -1.20066 -3.56737 0
M  V30 5296 C 513.567 -1.5026 -2.33061 0
M  V30 5297 H 516.518 -1.21469 -1.02133 0
M  V30 5298 H 516.539 -0.825381 -3.7144 0
M  V30 5299 H 516.051 -2.49325 -2.9742 0
M  V30 5300 H 514.152 -0.144006 -3.72322 0
M  V30 5301 H 514.265 -1.90384 -4.39648 0
M  V30 5302 H 512.629 -0.922598 -2.37403 0
M  V30 5303 H 513.412 -2.58967 -2.25368 0
M  V30 5304 N 515.857 1.33968 -0.830081 0
M  V30 5305 C 516.79 2.27303 -0.202182 0
M  V30 5306 C 517.768 1.49235 0.645581 0
M  V30 5307 O 518.952 1.78433 0.607762 0
M  V30 5308 C 516.079 3.31025 0.716932 0
M  V30 5309 C 515.125 4.26466 -0.0542271 0
M  V30 5310 S 515.958 5.16707 -1.40622 0
M  V30 5311 C 517.114 6.23962 -0.492167 0
M  V30 5312 H 517.347 2.8021 -0.99346 0
M  V30 5313 H 514.88 1.41124 -0.626359 0
M  V30 5314 H 516.838 3.91271 1.24165 0
M  V30 5315 H 515.499 2.76951 1.4818 0
M  V30 5316 H 514.692 4.99858 0.644785 0
M  V30 5317 H 514.294 3.7051 -0.509722 0
M  V30 5318 H 516.586 6.76774 0.31347 0
M  V30 5319 H 517.529 6.97927 -1.19599 0
M  V30 5320 H 517.937 5.64447 -0.0774176 0
M  V30 5321 N 517.335 0.585699 1.46312 0
M  V30 5322 C 518.583 0.072278 2.01971 0
M  V30 5323 C 518.904 -1.29345 1.45928 0
M  V30 5324 O 518.174 -1.84973 0.645109 0
M  V30 5325 H 516.754 0.023729 0.746623 0
M  V30 5326 H 519.416 0.762155 1.7938 0
M  V30 5327 H 518.512 0.00552767 3.121 0
M  V30 5328 N 518.813 -1.54241 0.323641 0
M  V30 5329 C 520.062 -1.9975 -0.279806 0
M  V30 5330 C 520.375 -1.2156 -1.5324 0
M  V30 5331 O 521.581 -1.57447 -2.21185 0
M  V30 5332 C 520.037 -3.55686 -0.549115 0
M  V30 5333 C 519.645 -4.4271 0.686432 0
M  V30 5334 C 521.389 -4.09663 -1.11251 0
M  V30 5335 C 519.296 -5.90119 0.389022 0
M  V30 5336 H 518.226 -0.746177 -0.10833 0
M  V30 5337 H 520.877 -1.78248 0.435877 0
M  V30 5338 H 519.259 -3.73176 -1.32499 0
M  V30 5339 H 520.433 -4.36996 1.46188 0
M  V30 5340 H 518.748 -3.99623 1.17005 0
M  V30 5341 H 521.345 -5.17386 -1.34965 0
M  V30 5342 H 521.688 -3.61651 -2.06191 0
M  V30 5343 H 522.221 -3.95806 -0.39782 0
M  V30 5344 H 518.96 -6.42326 1.30759 0
M  V30 5345 H 518.48 -5.98785 -0.348722 0
M  V30 5346 H 520.159 -6.47 -0.0011164 0
M  V30 5347 N 520.291 -0.0518155 -1.57515 0
M  V30 5348 C 521.54 0.621286 -1.91893 0
M  V30 5349 C 521.853 1.71966 -0.932052 0
M  V30 5350 O 523.059 2.45096 -1.16791 0
M  V30 5351 C 521.515 1.15641 -3.40816 0
M  V30 5352 C 521.123 0.0901146 -4.47909 0
M  V30 5353 C 522.867 1.80472 -3.84227 0
M  V30 5354 C 520.774 0.638154 -5.87947 0
M  V30 5355 H 519.704 0.235835 -0.716169 0
M  V30 5356 H 522.355 -0.120809 -1.83102 0
M  V30 5357 H 520.737 1.95084 -3.44613 0
M  V30 5358 H 521.911 -0.683525 -4.55702 0
M  V30 5359 H 520.226 -0.460774 -4.13843 0
M  V30 5360 H 522.823 2.22471 -4.86221 0
M  V30 5361 H 523.166 2.65669 -3.20508 0
M  V30 5362 H 523.699 1.07683 -3.82948 0
M  V30 5363 H 520.438 -0.176202 -6.55263 0
M  V30 5364 H 519.958 1.37976 -5.83714 0
M  V30 5365 H 521.637 1.12085 -6.37217 0
M  V30 5366 N 521.769 1.56035 0.221574 0
M  V30 5367 C 523.18 1.69229 0.788567 0
M  V30 5368 C 523.531 0.653814 1.84986 0
M  V30 5369 O 522.656 -0.195065 2.15519 0
M  V30 5370 C 523.251 3.06809 1.43713 0
M  V30 5371 C 521.81 3.21858 1.95152 0
M  V30 5372 C 520.957 2.65155 0.811685 0
M  V30 5373 H 523.908 1.587 -0.00307894 0
M  V30 5374 H 523.929 3.02666 2.30594 0
M  V30 5375 H 523.441 3.82369 0.664475 0
M  V30 5376 H 521.542 2.51167 2.7522 0
M  V30 5377 H 521.655 4.29073 2.1315 0
M  V30 5378 H 520.019 2.23635 1.21899 0
M  V30 5379 H 520.802 3.43261 0.0516987 0
M  V30 5380 N 523.247 -0.488276 1.49845 0
M  V30 5381 C 524.472 -1.26997 1.63971 0
M  V30 5382 C 524.897 -1.85427 0.315994 0
M  V30 5383 O 524.255 -1.66475 -0.718032 0
M  V30 5384 C 524.303 -2.36689 2.72049 0
M  V30 5385 O 523.407 -3.40882 2.32107 0
M  V30 5386 H 522.748 -0.374376 0.548396 0
M  V30 5387 H 525.278 -0.583104 1.96115 0
M  V30 5388 H 525.288 -2.82262 2.94605 0
M  V30 5389 H 523.963 -1.93529 3.68129 0
M  V30 5390 H 522.54 -3.01139 2.19931 0
M  V30 5391 N 524.725 -1.39134 -0.740242 0
M  V30 5392 C 525.95 -1.39518 -1.53459 0
M  V30 5393 C 526.375 0.00968883 -1.88098 0
M  V30 5394 O 525.733 0.995312 -1.51536 0
M  V30 5395 C 525.781 -2.26981 -2.802 0
M  V30 5396 O 524.885 -1.69609 -3.75908 0
M  V30 5397 H 524.226 -0.475328 -0.463637 0
M  V30 5398 H 526.756 -1.83064 -0.913717 0
M  V30 5399 H 526.766 -2.41309 -3.28989 0
M  V30 5400 H 525.441 -3.29081 -2.5432 0
M  V30 5401 H 524.018 -1.64495 -3.34658 0
M  V30 5402 N 526.204 0.969867 -1.24223 0
M  V30 5403 C 527.615 1.52717 -1.07399 0
M  V30 5404 C 527.966 1.92956 0.355298 0
M  V30 5405 O 527.091 1.77112 1.2434 0
M  V30 5406 C 527.686 2.77521 -1.94339 0
M  V30 5407 C 526.245 3.29615 -1.81744 0
M  V30 5408 C 525.392 2.02537 -1.89405 0
M  V30 5409 H 528.343 0.788399 -1.37732 0
M  V30 5410 H 528.364 3.50773 -1.47439 0
M  V30 5411 H 527.876 2.48203 -2.98357 0
M  V30 5412 H 525.977 3.63789 -0.805505 0
M  V30 5413 H 526.09 3.98661 -2.65718 0
M  V30 5414 H 524.454 2.17151 -1.33108 0
M  V30 5415 H 525.237 1.75587 -2.94999 0
M  V30 5416 N 527.682 1.05563 1.17022 0
M  V30 5417 C 528.629 0.659893 2.21165 0
M  V30 5418 C 529.599 -0.339813 1.62587 0
M  V30 5419 O 530.784 -0.230378 1.89404 0
M  V30 5420 C 527.924 0.0447297 3.45071 0
M  V30 5421 C 527.037 1.09372 4.17926 0
M  V30 5422 C 526.172 0.445481 5.29329 0
M  V30 5423 C 525.211 1.47852 5.93975 0
M  V30 5424 N 524.348 0.854172 6.96885 0
M  V30 5425 H 529.188 1.55243 2.54369 0
M  V30 5426 H 526.725 0.776336 1.24946 0
M  V30 5427 H 528.683 -0.329404 4.15898 0
M  V30 5428 H 527.313 -0.811244 3.1244 0
M  V30 5429 H 526.365 1.58564 3.45777 0
M  V30 5430 H 527.677 1.87773 4.62107 0
M  V30 5431 H 526.831 0.0179688 6.06697 0
M  V30 5432 H 525.57 -0.370481 4.86291 0
M  V30 5433 H 524.575 1.91601 5.15334 0
M  V30 5434 H 525.8 2.29645 6.39093 0
M  V30 5435 H 523.746 0.0587882 6.55974 0
M  V30 5436 H 523.663 1.57567 7.39397 0
M  V30 5437 H 524.931 0.451559 7.78191 0
M  V30 5438 N 529.16 -1.33526 0.837174 0
M  V30 5439 C 530.108 -2.31168 0.257698 0
M  V30 5440 C 531.102 -1.5806 -0.609388 0
M  V30 5441 O 532.308 -1.72941 -0.499139 0
M  V30 5442 H 528.683 -0.74922 0.0646058 0
M  V30 5443 H 530.654 -2.77552 1.09578 0
M  V30 5444 C 529.403 -3.4326 -0.553887 0
M  V30 5445 H 528.726 -3.99665 0.104008 0
M  V30 5446 H 530.166 -4.13782 -0.925219 0
M  V30 5447 C 528.625 -2.88965 -1.73207 0
M  V30 5448 O 529.155 -2.85013 -2.83073 0
M  V30 5449 N 527.361 -2.45596 -1.55342 0
M  V30 5450 H 526.908 -2.49009 -0.659705 0
M  V30 5451 H 526.866 -2.0962 -2.34322 0
M  V30 5452 N 530.638 -0.59345 -1.46 0
M  V30 5453 C 531.601 0.123538 -2.28867 0
M  V30 5454 C 532.601 0.808628 -1.38989 0
M  V30 5455 O 533.791 0.658945 -1.61256 0
M  V30 5456 C 530.923 1.1847 -3.19653 0
M  V30 5457 H 532.116 -0.604843 -2.93737 0
M  V30 5458 H 529.669 -0.351875 -1.52288 0
M  V30 5459 H 530.404 1.94431 -2.59552 0
M  V30 5460 H 530.189 0.69783 -3.8584 0
M  V30 5461 H 531.679 1.68726 -3.81997 0
M  V30 5462 N 532.116 1.54067 -0.331816 0
M  V30 5463 C 533.364 2.00319 0.267739 0
M  V30 5464 C 533.685 1.22148 1.52003 0
M  V30 5465 O 532.955 0.325494 1.93177 0
M  V30 5466 H 531.535 0.740014 0.101922 0
M  V30 5467 H 534.197 1.89628 -0.450267 0
M  V30 5468 H 533.293 3.07765 0.518385 0
M  V30 5469 N 533.594 0.0601682 1.57485 0
M  V30 5470 C 534.824 -0.620037 1.97076 0
M  V30 5471 C 535.232 -1.64381 0.936784 0
M  V30 5472 O 534.575 -1.83497 -0.0863377 0
M  V30 5473 C 534.637 -1.35617 3.32939 0
M  V30 5474 C 534.301 -0.487208 4.54396 0
M  V30 5475 C 535.298 0.250428 5.19297 0
M  V30 5476 C 532.983 -0.415494 5.00579 0
M  V30 5477 C 534.977 1.04812 6.28723 0
M  V30 5478 C 532.664 0.385879 6.0988 0
M  V30 5479 C 533.662 1.11637 6.73815 0
M  V30 5480 O 533.35 1.90454 7.81014 0
M  V30 5481 H 533.082 -0.173664 0.653312 0
M  V30 5482 H 535.636 0.1256 2.05016 0
M  V30 5483 H 533.866 -2.14763 3.2158 0
M  V30 5484 H 535.555 -1.92749 3.57215 0
M  V30 5485 H 536.321 0.204546 4.84568 0
M  V30 5486 H 532.2 -0.973679 4.506 0
M  V30 5487 H 535.744 1.6188 6.78558 0
M  V30 5488 H 531.641 0.433366 6.44044 0
M  V30 5489 H 532.409 1.82762 7.97835 0
M  V30 5490 N 535.072 -1.5615 -0.213296 0
M  V30 5491 C 536.019 -1.93086 -1.26437 0
M  V30 5492 C 536.989 -0.789086 -1.4616 0
M  V30 5493 O 538.174 -1.04569 -1.59593 0
M  V30 5494 C 535.314 -2.26003 -2.608 0
M  V30 5495 C 534.427 -3.53156 -2.48807 0
M  V30 5496 C 533.562 -3.7548 -3.7575 0
M  V30 5497 C 532.601 -4.96119 -3.58514 0
M  V30 5498 N 531.738 -5.14791 -4.77425 0
M  V30 5499 H 536.578 -2.82707 -0.942376 0
M  V30 5500 H 534.115 -1.39919 -0.454001 0
M  V30 5501 H 536.073 -2.431 -3.39055 0
M  V30 5502 H 534.703 -1.39546 -2.91079 0
M  V30 5503 H 533.755 -3.44207 -1.61944 0
M  V30 5504 H 535.067 -4.41565 -2.31996 0
M  V30 5505 H 534.221 -3.92718 -4.62447 0
M  V30 5506 H 532.96 -2.85368 -3.95495 0
M  V30 5507 H 531.965 -4.78823 -2.70201 0
M  V30 5508 H 533.19 -5.87724 -3.40231 0
M  V30 5509 H 531.136 -4.27623 -4.97468 0
M  V30 5510 H 531.053 -5.97347 -4.63371 0
M  V30 5511 H 532.321 -5.36471 -5.65525 0
M  V30 5512 N 536.55 0.480323 -1.50102 0
M  V30 5513 C 537.498 1.60024 -1.68805 0
M  V30 5514 C 538.492 1.60089 -0.553888 0
M  V30 5515 O 539.698 1.64349 -0.734127 0
M  V30 5516 H 536.073 0.530841 -0.532646 0
M  V30 5517 H 538.044 1.41408 -2.62767 0
M  V30 5518 C 536.793 2.98029 -1.79092 0
M  V30 5519 H 536.116 2.98694 -2.65748 0
M  V30 5520 H 537.556 3.75871 -1.96206 0
M  V30 5521 C 536.015 3.32538 -0.540388 0
M  V30 5522 O 536.545 4.00386 0.324637 0
M  V30 5523 N 534.751 2.87873 -0.397154 0
M  V30 5524 H 534.298 2.32834 -1.1021 0
M  V30 5525 H 534.256 3.11328 0.438425 0
M  V30 5526 N 538.028 1.39524 0.732853 0
M  V30 5527 C 539.253 1.40329 1.52717 0
M  V30 5528 C 539.678 0.000286574 1.881 0
M  V30 5529 O 539.036 -0.987262 1.52062 0
M  V30 5530 C 539.084 2.28464 2.78992 0
M  V30 5531 O 538.188 1.716 3.75003 0
M  V30 5532 H 537.529 0.47778 0.461109 0
M  V30 5533 H 540.059 1.83546 0.903996 0
M  V30 5534 H 540.069 2.43051 3.27705 0
M  V30 5535 H 538.744 3.30425 2.52572 0
M  V30 5536 H 537.321 1.66267 3.33781 0
M  V30 5537 N 539.506 -0.963266 1.24736 0
M  V30 5538 C 540.436 -2.07628 1.06832 0
M  V30 5539 C 541.417 -1.70088 -0.0200566 0
M  V30 5540 O 542.602 -1.93636 0.147854 0
M  V30 5541 C 539.732 -3.40636 0.677069 0
M  V30 5542 C 538.686 -3.9215 1.71471 0
M  V30 5543 C 538.012 -5.21553 1.1784 0
M  V30 5544 C 539.312 -4.19493 3.11164 0
M  V30 5545 H 541.006 -2.22864 1.9993 0
M  V30 5546 H 538.552 -1.07093 0.96266 0
M  V30 5547 H 540.505 -4.17941 0.538792 0
M  V30 5548 H 539.229 -3.25313 -0.289612 0
M  V30 5549 H 537.888 -3.17005 1.84128 0
M  V30 5550 H 537.536 -5.02593 0.202195 0
M  V30 5551 H 537.236 -5.56988 1.87185 0
M  V30 5552 H 538.76 -6.01463 1.05233 0
M  V30 5553 H 540.174 -4.87487 3.01711 0
M  V30 5554 H 538.571 -4.66165 3.77902 0
M  V30 5555 H 539.641 -3.26097 3.58871 0
M  V30 5556 N 540.985 -1.06182 -1.16461 0
M  V30 5557 C 541.895 -0.682671 -2.24448 0
M  V30 5558 C 542.911 0.30078 -1.71381 0
M  V30 5559 O 544.087 0.150376 -2.00838 0
M  V30 5560 C 541.152 -0.0737202 -3.46622 0
M  V30 5561 C 540.213 -1.10889 -4.14731 0
M  V30 5562 C 539.446 -0.528908 -5.31073 0
M  V30 5563 O 539.669 0.65868 -5.66584 0
M  V30 5564 O 538.603 -1.26805 -5.88391 0
M  V30 5565 H 542.429 -1.58291 -2.59187 0
M  V30 5566 H 540.014 -0.834013 -1.23954 0
M  V30 5567 H 541.896 0.264192 -4.20571 0
M  V30 5568 H 540.571 0.800015 -3.13658 0
M  V30 5569 H 539.478 -1.49896 -3.42756 0
M  V30 5570 H 540.811 -1.95412 -4.51747 0
M  V30 5571 N 542.463 1.3308 -0.844243 0
M  V30 5572 C 543.879 1.50447 -0.532729 0
M  V30 5573 C 544.079 1.78292 0.938837 0
M  V30 5574 O 543.135 1.84635 1.72239 0
M  V30 5575 C 544.448 2.65555 -1.41072 0
M  V30 5576 C 545.996 2.7944 -1.41005 0
M  V30 5577 C 546.471 3.97616 -2.27301 0
M  V30 5578 N 547.962 4.0486 -2.2504 0
M  V30 5579 C 548.697 4.95508 -2.88547 0
M  V30 5580 N 548.193 5.91236 -3.61126 0
M  V30 5581 N 549.986 4.88548 -2.77989 0
M  V30 5582 H 542.137 1.13269 -1.79677 0
M  V30 5583 H 544.4 0.55734 -0.766861 0
M  V30 5584 H 544.106 2.51675 -2.45668 0
M  V30 5585 H 543.98 3.61089 -1.09061 0
M  V30 5586 H 546.367 2.92749 -0.371784 0
M  V30 5587 H 546.448 1.8465 -1.77026 0
M  V30 5588 H 546.092 3.85066 -3.3119 0
M  V30 5589 H 546.022 4.91661 -1.88619 0
M  V30 5590 H 548.513 3.36353 -1.72264 0
M  V30 5591 H 548.826 6.57079 -4.06776 0
M  V30 5592 H 547.171 5.91295 -3.65234 0
M  V30 5593 H 550.362 4.12729 -2.20846 0
M  V30 5594 H 550.535 5.58994 -3.27765 0
M  V30 5595 N 543.941 0.601185 1.45683 0
M  V30 5596 C 544.889 -0.133955 2.32214 0
M  V30 5597 C 545.883 -0.866034 1.45589 0
M  V30 5598 O 547.089 -0.782326 1.6211 0
M  V30 5599 H 543.464 -0.0620613 0.749435 0
M  V30 5600 H 545.435 0.614389 2.92007 0
M  V30 5601 C 544.184 -1.12216 3.29094 0
M  V30 5602 H 543.507 -0.568273 3.95741 0
M  V30 5603 H 544.947 -1.60659 3.92383 0
M  V30 5604 C 543.406 -2.19251 2.55794 0
M  V30 5605 O 543.936 -3.26894 2.33459 0
M  V30 5606 N 542.142 -1.9436 2.16039 0
M  V30 5607 H 541.689 -1.06829 2.34404 0
M  V30 5608 H 541.647 -2.66181 1.67318 0
M  V30 5609 N 545.419 -1.53889 0.339982 0
M  V30 5610 C 546.367 -2.26391 -0.533822 0
M  V30 5611 C 547.361 -1.28404 -1.10493 0
M  V30 5612 O 548.567 -1.46124 -1.05108 0
M  V30 5613 H 544.942 -0.727385 -0.190828 0
M  V30 5614 H 546.913 -2.98233 0.0997484 0
M  V30 5615 C 545.662 -3.04707 -1.67479 0
M  V30 5616 H 544.985 -3.79934 -1.2446 0
M  V30 5617 H 546.425 -3.58657 -2.26144 0
M  V30 5618 C 544.884 -2.13989 -2.60212 0
M  V30 5619 O 545.414 -1.73361 -3.62366 0
M  V30 5620 N 543.62 -1.79141 -2.28816 0
M  V30 5621 H 543.167 -2.12378 -1.45785 0
M  V30 5622 H 543.125 -1.18725 -2.91121 0
M  V30 5623 N 546.897 -0.0685191 -1.57451 0
M  V30 5624 C 548.146 0.600898 -1.92541 0
M  V30 5625 C 548.459 1.70967 -0.950239 0
M  V30 5626 O 549.665 2.43844 -1.19384 0
M  V30 5627 C 548.121 1.12019 -3.42023 0
M  V30 5628 C 547.729 0.0426028 -4.4798 0
M  V30 5629 C 549.473 1.76386 -3.86119 0
M  V30 5630 C 547.38 0.575759 -5.88591 0
M  V30 5631 H 546.31 0.228225 -0.71863 0
M  V30 5632 H 548.961 -0.140223 -1.82963 0
M  V30 5633 H 547.343 1.91418 -3.46663 0
M  V30 5634 H 548.517 -0.73182 -4.54952 0
M  V30 5635 H 546.832 -0.504642 -4.13331 0
M  V30 5636 H 549.429 2.17302 -4.88553 0
M  V30 5637 H 549.772 2.62255 -3.23308 0
M  V30 5638 H 550.305 1.03615 -3.84069 0
M  V30 5639 H 547.044 -0.245691 -6.55039 0
M  V30 5640 H 546.564 1.31778 -5.85145 0
M  V30 5641 H 548.243 1.0532 -6.3837 0
M  V30 5642 N 548.375 1.56261 0.205012 0
M  V30 5643 C 549.322 1.93754 1.25411 0
M  V30 5644 C 550.292 0.796826 1.45739 0
M  V30 5645 O 551.477 1.05414 1.59036 0
M  V30 5646 C 548.617 2.27383 2.59598 0
M  V30 5647 C 547.73 3.5447 2.46931 0
M  V30 5648 C 546.865 3.77468 3.73753 0
M  V30 5649 C 545.904 4.98014 3.55877 0
M  V30 5650 N 545.041 5.17316 4.74688 0
M  V30 5651 H 549.881 2.83203 0.92737 0
M  V30 5652 H 547.418 1.40158 0.446574 0
M  V30 5653 H 549.376 2.44895 3.37761 0
M  V30 5654 H 548.006 1.41088 2.90335 0
M  V30 5655 H 547.058 3.45061 1.60116 0
M  V30 5656 H 548.37 4.42789 2.29651 0
M  V30 5657 H 547.524 3.95165 4.60358 0
M  V30 5658 H 546.263 2.87461 3.93976 0
M  V30 5659 H 545.268 4.80249 2.67657 0
M  V30 5660 H 546.493 5.8952 3.37109 0
M  V30 5661 H 544.439 4.30255 4.95194 0
M  V30 5662 H 544.356 5.99796 4.60197 0
M  V30 5663 H 545.624 5.39463 5.62672 0
M  V30 5664 N 549.853 -0.472356 1.50355 0
M  V30 5665 C 550.785 -1.58795 1.65278 0
M  V30 5666 C 551.798 -1.53782 0.534313 0
M  V30 5667 O 552.987 -1.59193 0.807446 0
M  V30 5668 C 550.087 -2.97672 1.62001 0
M  V30 5669 C 549.26 -3.27568 2.89859 0
M  V30 5670 C 548.319 -4.45993 2.79242 0
M  V30 5671 O 547.345 -4.46364 3.53197 0
M  V30 5672 N 548.547 -5.47578 1.92713 0
M  V30 5673 H 551.312 -1.46411 2.61503 0
M  V30 5674 H 548.873 -0.660751 1.47803 0
M  V30 5675 H 550.865 -3.74862 1.52513 0
M  V30 5676 H 549.435 -3.03832 0.735159 0
M  V30 5677 H 548.655 -2.39003 3.13483 0
M  V30 5678 H 549.943 -3.44352 3.74565 0
M  V30 5679 H 549.341 -5.50099 1.31939 0
M  V30 5680 H 547.898 -6.23757 1.8913 0
M  V30 5681 N 551.331 -1.39911 -0.725443 0
M  V30 5682 C 552.294 -1.39156 -1.82121 0
M  V30 5683 C 553.294 -0.287018 -1.58218 0
M  V30 5684 O 554.484 -0.545421 -1.65441 0
M  V30 5685 C 551.616 -1.1736 -3.20062 0
M  V30 5686 H 552.809 -2.36672 -1.84191 0
M  V30 5687 H 550.362 -1.25615 -0.930079 0
M  V30 5688 H 551.097 -0.205648 -3.23647 0
M  V30 5689 H 550.882 -1.97358 -3.3881 0
M  V30 5690 H 552.372 -1.19596 -4.00108 0
M  V30 5691 N 552.809 0.956637 -1.25245 0
M  V30 5692 C 553.772 2.03457 -1.05537 0
M  V30 5693 C 554.772 1.60798 -0.00886317 0
M  V30 5694 O 555.962 1.72384 -0.250865 0
M  V30 5695 C 553.094 3.35543 -0.601965 0
M  V30 5696 H 554.287 2.22372 -2.01223 0
M  V30 5697 H 551.84 1.13344 -1.07623 0
M  V30 5698 H 552.575 3.22323 0.357584 0
M  V30 5699 H 552.36 3.67854 -1.35743 0
M  V30 5700 H 553.85 4.14769 -0.485454 0
M  V30 5701 N 554.287 1.06798 1.15896 0
M  V30 5702 C 555.235 0.677525 2.22514 0
M  V30 5703 C 556.229 -0.308994 1.66558 0
M  V30 5704 O 557.435 -0.173308 1.79164 0
M  V30 5705 H 553.81 0.200994 0.724642 0
M  V30 5706 H 555.781 1.5865 2.52731 0
M  V30 5707 C 554.53 0.0854153 3.47595 0
M  V30 5708 H 553.853 0.835645 3.90969 0
M  V30 5709 H 555.293 -0.150199 4.23734 0
M  V30 5710 C 553.752 -1.1724 3.15843 0
M  V30 5711 O 554.282 -2.25965 3.32119 0
M  V30 5712 N 552.488 -1.07636 2.69931 0
M  V30 5713 H 552.035 -0.191559 2.56887 0
M  V30 5714 H 551.993 -1.91876 2.4906 0
M  V30 5715 N 555.766 -1.3263 0.851289 0
M  V30 5716 C 556.714 -2.30882 0.282202 0
M  V30 5717 C 557.708 -1.58697 -0.592589 0
M  V30 5718 O 558.914 -1.73461 -0.480768 0
M  V30 5719 H 555.289 -0.748492 0.0725487 0
M  V30 5720 H 557.26 -2.76374 1.12516 0
M  V30 5721 C 556.009 -3.43828 -0.517449 0
M  V30 5722 H 555.332 -3.99532 0.146392 0
M  V30 5723 H 556.772 -4.1474 -0.88128 0
M  V30 5724 C 555.231 -2.90786 -1.70133 0
M  V30 5725 O 555.761 -2.88 -2.80034 0
M  V30 5726 N 553.967 -2.4723 -1.52728 0
M  V30 5727 H 553.514 -2.49695 -0.633257 0
M  V30 5728 H 553.472 -2.12094 -2.32085 0
M  V30 5729 N 557.244 -0.608902 -1.45362 0
M  V30 5730 C 558.469 -0.10921 -2.07112 0
M  V30 5731 C 558.894 1.19779 -1.45033 0
M  V30 5732 O 558.252 1.72961 -0.543527 0
M  V30 5733 C 558.3 0.0155745 -3.60597 0
M  V30 5734 O 557.404 1.06546 -3.98399 0
M  V30 5735 H 556.745 -0.0746619 -0.659789 0
M  V30 5736 H 559.275 -0.839283 -1.86594 0
M  V30 5737 H 559.285 0.213364 -4.07442 0
M  V30 5738 H 557.96 -0.938765 -4.05167 0
M  V30 5739 H 556.537 0.844024 -3.63223 0
M  V30 5740 N 558.722 1.53707 -0.348139 0
M  V30 5741 C 559.652 2.28111 0.498766 0
M  V30 5742 C 560.633 1.29851 1.09876 0
M  V30 5743 O 561.818 1.587 1.11928 0
M  V30 5744 C 558.948 3.05735 1.64753 0
M  V30 5745 C 557.902 4.11537 1.17565 0
M  V30 5746 C 557.228 4.77142 2.4133 0
M  V30 5747 C 558.528 5.21587 0.272844 0
M  V30 5748 H 560.222 2.99152 -0.121934 0
M  V30 5749 H 557.768 1.43875 -0.0600842 0
M  V30 5750 H 559.721 3.56526 2.24649 0
M  V30 5751 H 558.445 2.32354 2.2952 0
M  V30 5752 H 557.104 3.61665 0.599483 0
M  V30 5753 H 556.752 4.0035 3.04514 0
M  V30 5754 H 556.452 5.48626 2.10436 0
M  V30 5755 H 557.976 5.30719 3.01943 0
M  V30 5756 H 559.39 5.67986 0.778779 0
M  V30 5757 H 557.787 6.00074 0.0555849 0
M  V30 5758 H 558.857 4.79969 -0.689785 0
M  V30 5759 N 560.2 0.0768682 1.57412 0
M  V30 5760 C 561.13 -0.886026 2.16037 0
M  V30 5761 C 562.111 -1.30691 1.08876 0
M  V30 5762 O 563.296 -1.37705 1.36934 0
M  V30 5763 C 560.426 -2.1518 2.72608 0
M  V30 5764 C 559.38 -1.87015 3.8498 0
M  V30 5765 C 558.706 -3.20266 4.28175 0
M  V30 5766 C 560.006 -1.17143 5.08994 0
M  V30 5767 H 561.7 -0.397642 2.96748 0
M  V30 5768 H 559.246 -0.189823 1.42743 0
M  V30 5769 H 561.199 -2.82962 3.12266 0
M  V30 5770 H 559.923 -2.66269 1.89125 0
M  V30 5771 H 558.582 -1.21636 3.45833 0
M  V30 5772 H 558.23 -3.69207 3.41607 0
M  V30 5773 H 557.93 -3.0221 5.03927 0
M  V30 5774 H 559.454 -3.89237 4.70454 0
M  V30 5775 H 560.868 -1.75003 5.45937 0
M  V30 5776 H 559.265 -1.09328 5.90057 0
M  V30 5777 H 560.335 -0.151295 4.84664 0
M  V30 5778 N 561.678 -1.56367 -0.196722 0
M  V30 5779 C 562.608 -1.97442 -1.24655 0
M  V30 5780 C 563.589 -0.846147 -1.47561 0
M  V30 5781 O 564.774 -1.11035 -1.59326 0
M  V30 5782 C 561.904 -2.31253 -2.59112 0
M  V30 5783 C 560.858 -3.46804 -2.50821 0
M  V30 5784 C 560.184 -3.66286 -3.89536 0
M  V30 5785 C 561.484 -4.8104 -2.03465 0
M  V30 5786 H 563.178 -2.85388 -0.905216 0
M  V30 5787 H 560.724 -1.37304 -0.434002 0
M  V30 5788 H 562.677 -2.58583 -3.32736 0
M  V30 5789 H 561.401 -1.40188 -2.94983 0
M  V30 5790 H 560.06 -3.19563 -1.79653 0
M  V30 5791 H 559.708 -2.72555 -4.22756 0
M  V30 5792 H 559.408 -4.4402 -3.84864 0
M  V30 5793 H 560.932 -3.9599 -4.64784 0
M  V30 5794 H 562.346 -5.07411 -2.66846 0
M  V30 5795 H 560.743 -5.62232 -2.09798 0
M  V30 5796 H 561.813 -4.74732 -0.98781 0
M  V30 5797 N 563.156 0.464375 -1.50603 0
M  V30 5798 C 564.106 1.55929 -1.66343 0
M  V30 5799 C 565.09 1.52338 -0.517887 0
M  V30 5800 O 566.282 1.59248 -0.772601 0
M  V30 5801 C 563.411 2.94327 -1.7671 0
M  V30 5802 C 562.497 3.02777 -2.96962 0
M  V30 5803 N 562.888 2.81026 -4.20545 0
M  V30 5804 C 561.186 3.33919 -2.95659 0
M  V30 5805 C 561.887 2.94618 -5.01573 0
M  V30 5806 N 560.863 3.25112 -4.35664 0
M  V30 5807 H 564.665 1.37822 -2.59581 0
M  V30 5808 H 562.179 0.671227 -1.47879 0
M  V30 5809 H 564.176 3.73063 -1.86091 0
M  V30 5810 H 562.836 3.13476 -0.846353 0
M  V30 5811 H 563.847 2.56477 -4.49933 0
M  V30 5812 H 560.524 3.59013 -2.13111 0
M  V30 5813 H 561.914 2.81984 -6.09865 0
M  V30 5814 N 564.634 1.40294 0.718013 0
M  V30 5815 C 565.564 1.43118 1.84498 0
M  V30 5816 C 566.545 0.292403 1.67568 0
M  V30 5817 O 567.73 0.500675 1.87635 0
M  V30 5818 C 564.86 1.29065 3.22427 0
M  V30 5819 C 563.814 2.40521 3.54025 0
M  V30 5820 C 563.14 2.11546 4.91073 0
M  V30 5821 C 564.44 3.82859 3.55269 0
M  V30 5822 H 566.134 2.37432 1.82391 0
M  V30 5823 H 563.68 1.14283 0.87609 0
M  V30 5824 H 565.633 1.29658 4.00957 0
M  V30 5825 H 564.357 0.312271 3.25104 0
M  V30 5826 H 563.016 2.39173 2.77834 0
M  V30 5827 H 562.664 1.12104 4.90348 0
M  V30 5828 H 562.364 2.86216 5.1318 0
M  V30 5829 H 563.888 2.13817 5.71939 0
M  V30 5830 H 565.302 3.86044 4.23843 0
M  V30 5831 H 563.699 4.57029 3.88902 0
M  V30 5832 H 564.769 4.12617 2.54706 0
M  V30 5833 N 566.112 -0.949982 1.2575 0
M  V30 5834 C 567.042 -2.06483 1.09028 0
M  V30 5835 C 568.023 -1.701 -0.00201532 0
M  V30 5836 O 569.208 -1.93469 0.168383 0
M  V30 5837 C 566.338 -3.39899 0.71316 0
M  V30 5838 C 565.292 -3.90309 1.75621 0
M  V30 5839 C 564.618 -5.20274 1.23365 0
M  V30 5840 C 565.918 -4.16169 3.15596 0
M  V30 5841 H 567.612 -2.20731 2.02283 0
M  V30 5842 H 565.158 -1.06066 0.973964 0
M  V30 5843 H 567.111 -4.17346 0.58309 0
M  V30 5844 H 565.835 -3.25602 -0.255091 0
M  V30 5845 H 564.494 -3.15035 1.8748 0
M  V30 5846 H 564.142 -5.02351 0.255491 0
M  V30 5847 H 563.842 -5.54971 1.93082 0
M  V30 5848 H 565.366 -6.00314 1.11607 0
M  V30 5849 H 566.78 -4.84259 3.06864 0
M  V30 5850 H 565.177 -4.62131 3.82825 0
M  V30 5851 H 566.247 -3.22273 3.6231 0
M  V30 5852 N 567.59 -1.07411 -1.15328 0
M  V30 5853 C 568.537 -0.694995 -2.20087 0
M  V30 5854 C 569.507 0.313904 -1.63107 0
M  V30 5855 O 570.692 0.200216 -1.89747 0
M  V30 5856 C 567.832 -0.0996218 -3.44956 0
M  V30 5857 C 566.945 -1.16007 -4.16133 0
M  V30 5858 C 566.08 -0.529636 -5.28553 0
M  V30 5859 C 565.119 -1.57283 -5.91548 0
M  V30 5860 N 564.256 -0.964932 -6.95438 0
M  V30 5861 H 569.096 -1.5927 -2.51867 0
M  V30 5862 H 566.633 -0.796115 -1.23695 0
M  V30 5863 H 568.591 0.263197 -4.16369 0
M  V30 5864 H 567.221 0.761435 -3.13691 0
M  V30 5865 H 566.273 -1.64045 -3.4321 0
M  V30 5866 H 567.585 -1.95101 -4.59061 0
M  V30 5867 H 566.739 -0.114487 -6.06592 0
M  V30 5868 H 565.478 0.29307 -4.86819 0
M  V30 5869 H 564.483 -1.99775 -5.12221 0
M  V30 5870 H 565.708 -2.39783 -6.35359 0
M  V30 5871 H 563.654 -0.16314 -6.55797 0
M  V30 5872 H 563.571 -1.69311 -7.36797 0
M  V30 5873 H 564.839 -0.575305 -7.77374 0
M  V30 5874 N 569.068 1.32177 -0.85831 0
M  V30 5875 C 570.293 2.01847 -0.476718 0
M  V30 5876 C 570.718 1.64065 0.920021 0
M  V30 5877 O 570.076 0.843189 1.60499 0
M  V30 5878 C 570.124 3.55097 -0.627578 0
M  V30 5879 O 569.228 4.11012 0.338086 0
M  V30 5880 H 568.569 0.635907 -0.191099 0
M  V30 5881 H 571.099 1.68641 -1.15851 0
M  V30 5882 H 571.109 4.04718 -0.516476 0
M  V30 5883 H 569.784 3.81938 -1.64609 0
M  V30 5884 H 568.361 3.72451 0.182917 0
M  V30 5885 N 570.547 0.616602 1.45037 0
M  V30 5886 C 571.479 -0.135186 2.28801 0
M  V30 5887 C 572.492 -0.82303 1.40464 0
M  V30 5888 O 573.681 -0.686909 1.64754 0
M  V30 5889 C 570.781 -1.21292 3.16451 0
M  V30 5890 C 569.954 -0.61043 4.3312 0
M  V30 5891 C 569.013 -1.58022 5.01912 0
M  V30 5892 O 568.039 -1.10301 5.58411 0
M  V30 5893 N 569.241 -2.91464 5.02025 0
M  V30 5894 H 572.006 0.583612 2.93963 0
M  V30 5895 H 569.567 0.456723 1.55324 0
M  V30 5896 H 571.559 -1.86169 3.59337 0
M  V30 5897 H 570.129 -1.83412 2.53138 0
M  V30 5898 H 569.349 0.216638 3.93604 0
M  V30 5899 H 570.637 -0.188293 5.08451 0
M  V30 5900 H 570.035 -3.32829 4.57429 0
M  V30 5901 H 568.592 -3.51741 5.48745 0
M  V30 5902 N 572.025 -1.5352 0.356285 0
M  V30 5903 C 573.253 -2.05534 -0.237328 0
M  V30 5904 C 573.668 -1.23043 -1.43199 0
M  V30 5905 O 573.025 -0.268821 -1.80509 0
M  V30 5906 C 573.076 -3.55791 -0.639933 0
M  V30 5907 O 572.797 -4.35154 0.507233 0
M  V30 5908 C 574.298 -4.24027 -1.29292 0
M  V30 5909 H 571.518 -0.669585 -0.0435572 0
M  V30 5910 H 574.062 -1.97988 0.511963 0
M  V30 5911 H 572.217 -3.63518 -1.33915 0
M  V30 5912 H 572.631 -5.24178 0.18375 0
M  V30 5913 H 574.105 -5.30509 -1.52527 0
M  V30 5914 H 574.582 -3.77166 -2.25039 0
M  V30 5915 H 575.188 -4.20527 -0.63539 0
M  V30 5916 N 573.503 -0.0852151 -1.57369 0
M  V30 5917 C 574.752 0.580443 -1.93168 0
M  V30 5918 C 575.065 1.6995 -0.968319 0
M  V30 5919 O 576.271 2.42564 -1.21963 0
M  V30 5920 C 574.727 1.08386 -3.43192 0
M  V30 5921 C 574.335 -0.00491388 -4.48 0
M  V30 5922 C 576.079 1.72281 -3.87968 0
M  V30 5923 C 573.986 0.513299 -5.89168 0
M  V30 5924 H 572.916 0.22059 -0.72101 0
M  V30 5925 H 575.567 -0.159621 -1.82804 0
M  V30 5926 H 573.949 1.8773 -3.48674 0
M  V30 5927 H 575.123 -0.780032 -4.5415 0
M  V30 5928 H 573.438 -0.548453 -4.12772 0
M  V30 5929 H 576.035 2.12108 -4.9083 0
M  V30 5930 H 576.378 2.58811 -3.26071 0
M  V30 5931 H 576.911 0.995359 -3.85146 0
M  V30 5932 H 573.65 -0.315153 -6.54742 0
M  V30 5933 H 573.17 1.25564 -5.8651 0
M  V30 5934 H 574.849 0.985433 -6.39451 0
M  V30 5935 N 574.981 1.5647 0.188427 0
M  V30 5936 C 576.392 1.70864 0.752494 0
M  V30 5937 C 576.743 0.692905 1.83557 0
M  V30 5938 O 575.868 -0.149307 2.15884 0
M  V30 5939 C 576.463 3.09789 1.37173 0
M  V30 5940 C 575.022 3.25925 1.88281 0
M  V30 5941 C 574.169 2.66817 0.755259 0
M  V30 5942 H 577.12 1.58657 -0.0367408 0
M  V30 5943 H 577.141 3.07489 2.24122 0
M  V30 5944 H 576.653 3.83693 0.583219 0
M  V30 5945 H 574.754 2.56948 2.6983 0
M  V30 5946 H 574.867 4.33498 2.04001 0
M  V30 5947 H 573.231 2.2617 1.17128 0
M  V30 5948 H 574.014 3.43294 -0.0211237 0
M  V30 5949 N 576.459 -0.456382 1.50847 0
M  V30 5950 C 577.406 -1.55249 1.70782 0
M  V30 5951 C 578.376 -1.56757 0.549231 0
M  V30 5952 O 579.561 -1.74061 0.7815 0
M  V30 5953 C 576.701 -2.93118 1.82143 0
M  V30 5954 C 575.814 -3.01285 3.09598 0
M  V30 5955 C 574.949 -4.30159 3.11667 0
M  V30 5956 C 573.988 -4.32124 4.33515 0
M  V30 5957 N 573.125 -5.52492 4.3324 0
M  V30 5958 H 577.965 -1.37555 2.64353 0
M  V30 5959 H 575.502 -0.668543 1.3103 0
M  V30 5960 H 577.46 -3.73088 1.86711 0
M  V30 5961 H 576.09 -3.09413 0.919978 0
M  V30 5962 H 575.142 -2.14096 3.14431 0
M  V30 5963 H 576.454 -2.98597 3.99551 0
M  V30 5964 H 575.608 -5.18489 3.15046 0
M  V30 5965 H 574.347 -4.35477 2.1957 0
M  V30 5966 H 573.352 -3.42189 4.30333 0
M  V30 5967 H 574.577 -4.28485 5.26856 0
M  V30 5968 H 572.523 -5.58567 3.44004 0
M  V30 5969 H 572.44 -5.51605 5.16979 0
M  V30 5970 H 573.708 -6.42906 4.40786 0
M  V30 5971 N 577.937 -1.40673 -0.710563 0
M  V30 5972 C 579.348 -1.34975 -1.28991 0
M  V30 5973 C 579.699 -0.0256272 -1.96183 0
M  V30 5974 O 578.824 0.876339 -1.97862 0
M  V30 5975 C 579.419 -2.44467 -2.34567 0
M  V30 5976 C 577.978 -2.42213 -2.88114 0
M  V30 5977 C 577.125 -2.25085 -1.61963 0
M  V30 5978 H 580.076 -1.50406 -0.506343 0
M  V30 5979 H 580.097 -2.12663 -3.15523 0
M  V30 5980 H 579.609 -3.40825 -1.85634 0
M  V30 5981 H 577.71 -1.49568 -3.41263 0
M  V30 5982 H 577.823 -3.37983 -3.39565 0
M  V30 5983 H 576.187 -1.72691 -1.87216 0
M  V30 5984 H 576.97 -3.23449 -1.15047 0
M  V30 5985 N 579.415 0.9433 -1.26252 0
M  V30 5986 C 580.348 2.04162 -1.01946 0
M  V30 5987 C 581.326 1.62507 0.0550808 0
M  V30 5988 O 582.51 1.883 -0.0869025 0
M  V30 5989 C 579.637 3.34313 -0.54335 0
M  V30 5990 C 578.683 3.94939 -1.61013 0
M  V30 5991 S 579.516 4.29484 -3.19849 0
M  V30 5992 C 580.672 5.62738 -2.74001 0
M  V30 5993 H 580.905 2.24466 -1.94942 0
M  V30 5994 H 578.438 1.08441 -1.09909 0
M  V30 5995 H 580.396 4.09576 -0.275315 0
M  V30 5996 H 579.057 3.11957 0.36629 0
M  V30 5997 H 578.25 4.88812 -1.22795 0
M  V30 5998 H 577.852 3.26202 -1.82943 0
M  V30 5999 H 580.144 6.41356 -2.18333 0
M  V30 6000 H 581.087 6.05839 -3.66558 0
M  V30 6001 H 581.495 5.22514 -2.13634 0
M  V30 6002 N 580.893 1.08022 1.14757 0
M  V30 6003 C 581.841 0.701088 2.21783 0
M  V30 6004 C 582.835 -0.291311 1.66876 0
M  V30 6005 O 584.041 -0.154296 1.79337 0
M  V30 6006 H 580.416 0.208668 0.722469 0
M  V30 6007 H 582.387 1.61321 2.51034 0
M  V30 6008 C 581.136 0.122278 3.47485 0
M  V30 6009 H 580.459 0.877065 3.90061 0
M  V30 6010 H 581.899 -0.105248 4.23869 0
M  V30 6011 C 580.358 -1.13883 3.17068 0
M  V30 6012 O 580.888 -2.22429 3.34497 0
M  V30 6013 N 579.094 -1.04767 2.71058 0
M  V30 6014 H 578.641 -0.164302 2.57075 0
M  V30 6015 H 578.599 -1.89224 2.51081 0
M  V30 6016 N 582.371 -1.3172 0.865308 0
M  V30 6017 C 583.619 -1.96487 0.472995 0
M  V30 6018 C 583.94 -1.68761 -0.976975 0
M  V30 6019 O 583.21 -1.00051 -1.68424 0
M  V30 6020 H 581.79 -0.726947 0.171922 0
M  V30 6021 H 584.452 -1.60612 1.10407 0
M  V30 6022 H 583.548 -3.0574 0.62687 0
M  V30 6023 N 583.85 -0.624285 -1.44708 0
M  V30 6024 C 584.8 0.106466 -2.27751 0
M  V30 6025 C 585.784 0.822703 -1.38277 0
M  V30 6026 O 586.976 0.709939 -1.62138 0
M  V30 6027 C 584.105 1.092 -3.25469 0
M  V30 6028 C 583.191 0.375737 -4.22432 0
M  V30 6029 N 583.582 -0.591881 -5.02325 0
M  V30 6030 C 581.88 0.621093 -4.41654 0
M  V30 6031 C 582.581 -1.01443 -5.72786 0
M  V30 6032 N 581.557 -0.354651 -5.42442 0
M  V30 6033 H 585.359 -0.636464 -2.86926 0
M  V30 6034 H 582.873 -0.44925 -1.56062 0
M  V30 6035 H 584.87 1.63006 -3.83712 0
M  V30 6036 H 583.529 1.8353 -2.67856 0
M  V30 6037 H 584.541 -0.969389 -5.08747 0
M  V30 6038 H 581.218 1.34779 -3.95147 0
M  V30 6039 H 582.608 -1.81345 -6.46965 0
M  V30 6040 N 585.328 1.53329 -0.364422 0
M  V30 6041 C 586.553 2.06132 0.229033 0
M  V30 6042 C 586.978 1.23625 1.41769 0
M  V30 6043 O 586.336 0.255038 1.79497 0
M  V30 6044 C 586.384 3.55544 0.60174 0
M  V30 6045 O 585.488 3.75771 1.69912 0
M  V30 6046 H 584.829 0.663148 0.0336213 0
M  V30 6047 H 587.359 1.97758 -0.524689 0
M  V30 6048 H 587.369 3.98549 0.873073 0
M  V30 6049 H 586.044 4.15039 -0.267421 0
M  V30 6050 H 584.621 3.44663 1.42343 0
M  V30 6051 N 586.806 0.0935595 1.57322 0
M  V30 6052 C 587.756 -0.876521 2.10478 0
M  V30 6053 C 588.74 -1.24482 1.01946 0
M  V30 6054 O 589.932 -1.22016 1.28223 0
M  V30 6055 C 587.061 -2.13615 2.68745 0
M  V30 6056 C 586.147 -1.79335 3.84317 0
M  V30 6057 N 586.538 -1.15606 4.92411 0
M  V30 6058 C 584.836 -2.08954 3.94023 0
M  V30 6059 C 585.537 -0.999036 5.73057 0
M  V30 6060 N 584.513 -1.51585 5.22037 0
M  V30 6061 H 588.315 -0.379829 2.91435 0
M  V30 6062 H 585.829 -0.109699 1.62029 0
M  V30 6063 H 587.826 -2.84053 3.05155 0
M  V30 6064 H 586.486 -2.63851 1.89242 0
M  V30 6065 H 587.497 -0.823063 5.11318 0
M  V30 6066 H 584.174 -2.61416 3.25527 0
M  V30 6067 H 585.564 -0.500772 6.70031 0
M  V30 6068 N 588.284 -1.56567 -0.180126 0
M  V30 6069 C 589.509 -1.85975 -0.918041 0
M  V30 6070 C 589.934 -0.678888 -1.75422 0
M  V30 6071 O 589.292 0.372168 -1.77439 0
M  V30 6072 C 589.34 -3.13731 -1.77779 0
M  V30 6073 O 588.444 -2.95335 -2.87838 0
M  V30 6074 H 587.785 -0.61196 -0.257683 0
M  V30 6075 H 590.315 -2.03798 -0.180923 0
M  V30 6076 H 590.325 -3.4491 -2.17948 0
M  V30 6077 H 589 -3.99293 -1.16352 0
M  V30 6078 H 587.577 -2.7549 -2.51316 0
M  V30 6079 N 589.762 0.448376 -1.51087 0
M  V30 6080 C 590.672 1.56882 -1.74428 0
M  V30 6081 C 591.688 1.62268 -0.62809 0
M  V30 6082 O 592.864 1.79716 -0.909075 0
M  V30 6083 C 589.929 2.92947 -1.85426 0
M  V30 6084 C 588.99 2.97766 -3.09247 0
M  V30 6085 C 588.223 4.27341 -3.19711 0
M  V30 6086 O 588.446 5.19112 -2.36387 0
M  V30 6087 O 587.38 4.38219 -4.12611 0
M  V30 6088 H 591.206 1.40104 -2.69452 0
M  V30 6089 H 588.791 0.630247 -1.35456 0
M  V30 6090 H 590.673 3.73719 -1.94709 0
M  V30 6091 H 589.348 3.09876 -0.935887 0
M  V30 6092 H 588.255 2.15989 -3.0545 0
M  V30 6093 H 589.588 2.8578 -4.00738 0
M  V30 6094 N 591.24 1.41047 0.703093 0
M  V30 6095 C 592.656 1.23351 1.01275 0
M  V30 6096 C 592.856 0.11754 2.01157 0
M  V30 6097 O 591.912 -0.520518 2.47077 0
M  V30 6098 C 593.225 2.58001 1.54454 0
M  V30 6099 C 594.773 2.65119 1.66376 0
M  V30 6100 C 595.248 4.00067 2.22958 0
M  V30 6101 N 596.739 4.01875 2.30328 0
M  V30 6102 C 597.474 5.03087 2.75119 0
M  V30 6103 N 596.97 6.14692 3.19571 0
M  V30 6104 N 598.763 4.90451 2.74616 0
M  V30 6105 H 590.914 2.1236 0.0412686 0
M  V30 6106 H 593.177 0.944543 0.08089 0
M  V30 6107 H 592.883 3.40378 0.88521 0
M  V30 6108 H 592.757 2.79962 2.52786 0
M  V30 6109 H 595.144 1.83106 2.31422 0
M  V30 6110 H 595.225 2.46975 0.666089 0
M  V30 6111 H 594.869 4.82526 1.58529 0
M  V30 6112 H 594.799 4.15547 3.23462 0
M  V30 6113 H 597.29 3.21291 1.98949 0
M  V30 6114 H 597.603 6.87799 3.52352 0
M  V30 6115 H 595.948 6.18239 3.17498 0
M  V30 6116 H 599.139 4.0235 2.39233 0
M  V30 6117 H 599.312 5.6947 3.09206 0
M  V30 6118 N 592.718 -0.936591 1.26751 0
M  V30 6119 C 593.966 -1.67998 1.12343 0
M  V30 6120 C 594.287 -1.92137 -0.332938 0
M  V30 6121 O 593.557 -1.52132 -1.23421 0
M  V30 6122 H 592.137 -0.622609 0.412756 0
M  V30 6123 H 594.799 -1.12509 1.59147 0
M  V30 6124 H 593.895 -2.65185 1.64571 0
M  V30 6125 N 594.196 -1.08629 -1.14182 0
M  V30 6126 C 595.421 -0.83902 -1.89671 0
M  V30 6127 C 595.846 0.603332 -1.78161 0
M  V30 6128 O 595.204 1.42301 -1.12339 0
M  V30 6129 C 595.252 -1.26854 -3.37551 0
M  V30 6130 O 594.356 -0.42188 -4.10236 0
M  V30 6131 H 593.697 -0.304545 -0.590041 0
M  V30 6132 H 596.227 -1.4483 -1.44518 0
M  V30 6133 H 596.237 -1.25038 -3.88368 0
M  V30 6134 H 594.912 -2.31901 -3.45246 0
M  V30 6135 H 593.489 -0.503654 -3.69483 0
M  V30 6136 N 595.674 1.31259 -0.872281 0
M  V30 6137 C 596.923 1.95893 -0.480493 0
M  V30 6138 C 597.236 1.697 0.972688 0
M  V30 6139 O 598.442 2.28214 1.47073 0
M  V30 6140 C 596.898 3.50705 -0.808342 0
M  V30 6141 C 596.506 3.85735 -2.27844 0
M  V30 6142 C 598.25 4.21719 -0.485136 0
M  V30 6143 C 596.157 5.33668 -2.54858 0
M  V30 6144 H 595.087 0.733182 -0.175955 0
M  V30 6145 H 597.738 1.49396 -1.0655 0
M  V30 6146 H 596.12 3.95706 -0.152558 0
M  V30 6147 H 597.294 3.51686 -2.97748 0
M  V30 6148 H 595.609 3.27792 -2.56791 0
M  V30 6149 H 598.206 5.30559 -0.664166 0
M  V30 6150 H 598.549 4.12316 0.574592 0
M  V30 6151 H 599.082 3.82359 -1.09756 0
M  V30 6152 H 595.821 5.48109 -3.59523 0
M  V30 6153 H 595.341 5.69061 -1.8955 0
M  V30 6154 H 597.02 6.00958 -2.39706 0
M  V30 6155 N 597.152 0.631951 1.44375 0
M  V30 6156 C 598.399 0.136767 2.02038 0
M  V30 6157 C 598.727 -1.24168 1.49709 0
M  V30 6158 O 597.982 -1.83809 0.671763 0
M  V30 6159 C 598.281 0.0735861 3.57324 0
M  V30 6160 C 597.947 1.39092 4.28911 0
M  V30 6161 C 596.609 1.75171 4.48184 0
M  V30 6162 C 598.961 2.26042 4.69632 0
M  V30 6163 C 596.289 2.97907 5.05439 0
M  V30 6164 C 598.641 3.4805 5.28246 0
M  V30 6165 C 597.305 3.84351 5.45738 0
M  V30 6166 H 596.575 0.0500466 0.739308 0
M  V30 6167 H 599.222 0.818429 1.7313 0
M  V30 6168 H 597.527 -0.691449 3.8565 0
M  V30 6169 H 599.224 -0.326091 3.99672 0
M  V30 6170 H 595.814 1.10015 4.1424 0
M  V30 6171 H 599.998 1.99463 4.54454 0
M  V30 6172 H 595.254 3.26108 5.17169 0
M  V30 6173 H 599.428 4.15658 5.5875 0
M  V30 6174 H 597.055 4.79538 5.8987 0
M  V30 6175 N 598.631 -1.53133 0.372548 0
M  V30 6176 C 599.541 -2.29671 -0.478379 0
M  V30 6177 C 600.557 -1.35913 -1.08644 0
M  V30 6178 O 601.733 -1.68975 -1.09588 0
M  V30 6179 C 598.798 -3.07625 -1.599 0
M  V30 6180 C 597.859 -4.17061 -1.01776 0
M  V30 6181 C 597.092 -4.91289 -2.08497 0
M  V30 6182 O 597.315 -4.65442 -3.29727 0
M  V30 6183 O 596.249 -5.7705 -1.71164 0
M  V30 6184 H 600.075 -3.03355 0.144649 0
M  V30 6185 H 597.66 -1.48773 0.136729 0
M  V30 6186 H 599.542 -3.56281 -2.25038 0
M  V30 6187 H 598.217 -2.3677 -2.2073 0
M  V30 6188 H 597.124 -3.72641 -0.330098 0
M  V30 6189 H 598.457 -4.90102 -0.453915 0
M  V30 6190 N 600.109 -0.101901 -1.5727 0
M  V30 6191 C 601.019 0.868647 -2.17926 0
M  V30 6192 C 602.035 1.30527 -1.1506 0
M  V30 6193 O 603.211 1.37178 -1.47459 0
M  V30 6194 C 600.276 2.10727 -2.75309 0
M  V30 6195 C 599.337 1.7242 -3.93154 0
M  V30 6196 C 598.57 2.90377 -4.47791 0
M  V30 6197 O 598.793 4.05305 -4.01353 0
M  V30 6198 O 597.727 2.6845 -5.38719 0
M  V30 6199 H 601.553 0.382544 -3.01281 0
M  V30 6200 H 599.138 0.122812 -1.48894 0
M  V30 6201 H 601.02 2.83303 -3.11958 0
M  V30 6202 H 599.695 2.58376 -1.94996 0
M  V30 6203 H 598.602 0.970039 -3.61305 0
M  V30 6204 H 599.935 1.29528 -4.74851 0
M  V30 6205 N 601.587 1.56661 0.17182 0
M  V30 6206 C 602.812 1.86459 0.908165 0
M  V30 6207 C 603.237 0.688181 1.75059 0
M  V30 6208 O 602.595 -0.362753 1.77634 0
M  V30 6209 C 602.643 3.14669 1.76112 0
M  V30 6210 O 601.747 2.96858 2.86268 0
M  V30 6211 H 601.088 0.613318 0.254434 0
M  V30 6212 H 603.618 2.03892 0.170113 0
M  V30 6213 H 603.628 3.46061 2.16115 0
M  V30 6214 H 602.303 3.99905 1.14233 0
M  V30 6215 H 600.88 2.76819 2.49852 0
M  V30 6216 N 603.065 -0.440357 1.51323 0
M  V30 6217 C 604.29 -1.21716 1.67928 0
M  V30 6218 C 604.715 -1.84328 0.374826 0
M  V30 6219 O 604.073 -1.68675 -0.664706 0
M  V30 6220 C 604.121 -2.27914 2.79442 0
M  V30 6221 O 603.225 -3.33325 2.42834 0
M  V30 6222 H 602.566 -0.35674 0.560029 0
M  V30 6223 H 605.096 -0.520417 1.97871 0
M  V30 6224 H 605.106 -2.72746 3.03436 0
M  V30 6225 H 603.781 -1.8172 3.741 0
M  V30 6226 H 602.358 -2.9399 2.294 0
M  V30 6227 N 604.543 -1.41418 -0.695603 0
M  V30 6228 C 605.771 -1.4413 -1.48439 0
M  V30 6229 C 606.186 -0.0465698 -1.88743 0
M  V30 6230 O 605.543 0.934117 -1.56782 0
M  V30 6231 C 605.594 -2.34998 -2.74696 0
M  V30 6232 O 605.315 -3.69043 -2.36091 0
M  V30 6233 C 606.816 -2.46513 -3.68438 0
M  V30 6234 H 604.036 -0.490905 -0.457442 0
M  V30 6235 H 606.58 -1.85702 -0.856454 0
M  V30 6236 H 604.735 -1.96735 -3.33728 0
M  V30 6237 H 605.149 -4.17505 -3.17474 0
M  V30 6238 H 606.623 -3.1426 -4.53811 0
M  V30 6239 H 607.1 -1.49638 -4.12922 0
M  V30 6240 H 607.706 -2.85412 -3.1531 0
M  V30 6241 N 606.021 0.929856 -1.27246 0
M  V30 6242 C 607.432 1.49223 -1.12203 0
M  V30 6243 C 607.783 1.93989 0.293731 0
M  V30 6244 O 606.908 1.80978 1.18642 0
M  V30 6245 C 607.503 2.71198 -2.0307 0
M  V30 6246 C 606.062 3.23666 -1.92139 0
M  V30 6247 C 605.209 1.96409 -1.95752 0
M  V30 6248 H 608.16 0.744181 -1.4017 0
M  V30 6249 H 608.181 3.45905 -1.58524 0
M  V30 6250 H 607.693 2.38585 -3.06102 0
M  V30 6251 H 605.794 3.61042 -0.920834 0
M  V30 6252 H 605.907 3.90006 -2.78267 0
M  V30 6253 H 604.271 2.12806 -1.39949 0
M  V30 6254 H 605.054 1.66113 -3.00436 0
M  V30 6255 N 607.499 1.09233 1.13605 0
M  V30 6256 C 608.727 0.848908 1.88683 0
M  V30 6257 C 609.142 -0.599667 1.79024 0
M  V30 6258 O 608.499 -1.41265 1.15544 0
M  V30 6259 C 608.55 1.27273 3.38355 0
M  V30 6260 O 608.271 2.66449 3.47759 0
M  V30 6261 C 609.772 1.0614 4.30406 0
M  V30 6262 H 606.992 0.305549 0.597395 0
M  V30 6263 H 609.536 1.4538 1.43823 0
M  V30 6264 H 607.691 0.711776 3.80805 0
M  V30 6265 H 608.105 2.84264 4.40788 0
M  V30 6266 H 609.579 1.40725 5.33761 0
M  V30 6267 H 610.056 -0.000960332 4.392 0
M  V30 6268 H 610.662 1.60821 3.93722 0
M  V30 6269 N 608.977 -1.30795 0.87923 0
M  V30 6270 C 610.205 -2.00527 0.509548 0
M  V30 6271 C 610.62 -1.65944 -0.90045 0
M  V30 6272 O 609.977 -0.893525 -1.5913 0
M  V30 6273 C 610.028 -3.55276 0.667943 0
M  V30 6274 O 609.749 -3.88625 2.02242 0
M  V30 6275 C 611.25 -4.4228 0.300494 0
M  V30 6276 H 608.47 -0.641261 0.197549 0
M  V30 6277 H 611.014 -1.66813 1.18295 0
M  V30 6278 H 609.169 -3.87377 0.0419843 0
M  V30 6279 H 609.583 -4.83334 2.03688 0
M  V30 6280 H 611.057 -5.50061 0.462242 0
M  V30 6281 H 611.534 -4.32556 -0.76106 0
M  V30 6282 H 612.14 -4.15613 0.902536 0
M  V30 6283 N 610.455 -0.639598 -1.44038 0
M  V30 6284 C 611.704 -0.144885 -2.01179 0
M  V30 6285 C 612.017 1.24372 -1.50967 0
M  V30 6286 O 613.223 1.83291 -2.00292 0
M  V30 6287 C 611.679 -0.208244 -3.59297 0
M  V30 6288 C 611.287 -1.59869 -4.18504 0
M  V30 6289 C 613.031 0.229568 -4.23879 0
M  V30 6290 C 610.938 -1.61671 -5.68873 0
M  V30 6291 H 609.868 -0.0504005 -0.752314 0
M  V30 6292 H 612.519 -0.799639 -1.65161 0
M  V30 6293 H 610.901 0.513767 -3.92653 0
M  V30 6294 H 612.075 -2.34496 -3.96671 0
M  V30 6295 H 610.39 -1.98131 -3.66242 0
M  V30 6296 H 612.987 0.235758 -5.3418 0
M  V30 6297 H 613.33 1.25848 -3.96822 0
M  V30 6298 H 613.863 -0.440233 -3.95357 0
M  V30 6299 H 610.602 -2.62427 -6.00677 0
M  V30 6300 H 610.122 -0.913489 -5.92803 0
M  V30 6301 H 611.801 -1.35439 -6.32665 0
M  V30 6302 N 611.933 1.52934 -0.380664 0
M  V30 6303 C 613.21 1.93845 0.261417 0
M  V30 6304 C 613.59 1.31544 1.65104 0
M  V30 6305 O 612.938 0.480234 2.23397 0
M  V30 6306 C 613.148 3.47739 0.296466 0
M  V30 6307 C 614.496 4.21284 0.529578 0
M  V30 6308 O 615.52 3.54199 0.377041 0
M  V30 6309 O 614.379 5.40195 0.827753 0
M  V30 6310 H 611.473 0.811318 0.160285 0
M  V30 6311 H 614.019 1.64042 -0.434544 0
M  V30 6312 H 612.791 3.85395 -0.67724 0
M  V30 6313 H 612.414 3.8382 1.0377 0
M  V30 6314 N 613.412 0.11024 1.57214 0
M  V30 6315 C 614.322 -0.857077 2.18383 0
M  V30 6316 C 615.338 -1.29915 1.1575 0
M  V30 6317 O 616.514 -1.36394 1.48184 0
M  V30 6318 C 613.579 -2.09264 2.76423 0
M  V30 6319 C 612.64 -1.70333 3.94063 0
M  V30 6320 C 611.873 -2.87999 4.49324 0
M  V30 6321 O 612.096 -4.0317 4.03497 0
M  V30 6322 O 611.03 -2.6559 5.40135 0
M  V30 6323 H 614.856 -0.366561 3.0148 0
M  V30 6324 H 612.441 -0.114914 1.48957 0
M  V30 6325 H 614.323 -2.81644 3.13456 0
M  V30 6326 H 612.998 -2.57339 1.96363 0
M  V30 6327 H 611.905 -0.950864 3.61814 0
M  V30 6328 H 613.238 -1.27007 4.75531 0
M  V30 6329 N 614.89 -1.56749 -0.16351 0
M  V30 6330 C 616.12 -1.86307 -0.892936 0
M  V30 6331 C 616.528 -0.6945 -1.75992 0
M  V30 6332 O 615.871 0.345384 -1.80424 0
M  V30 6333 C 615.933 -3.10372 -1.81409 0
M  V30 6334 C 615.597 -4.42913 -1.12593 0
M  V30 6335 C 616.594 -5.17608 -0.487661 0
M  V30 6336 C 614.279 -4.89646 -1.12035 0
M  V30 6337 C 616.273 -6.3723 0.14699 0
M  V30 6338 C 613.96 -6.09197 -0.481883 0
M  V30 6339 C 614.958 -6.82834 0.150678 0
M  V30 6340 O 614.646 -8.00116 0.779065 0
M  V30 6341 H 614.378 -0.622126 -0.264452 0
M  V30 6342 H 616.932 -2.04728 -0.166063 0
M  V30 6343 H 615.162 -2.87917 -2.58148 0
M  V30 6344 H 616.851 -3.26312 -2.41403 0
M  V30 6345 H 617.617 -4.8258 -0.483888 0
M  V30 6346 H 613.496 -4.32265 -1.60212 0
M  V30 6347 H 617.04 -6.94646 0.641325 0
M  V30 6348 H 612.937 -6.43688 -0.483266 0
M  V30 6349 H 613.705 -8.15678 0.679089 0
M  V30 6350 N 616.368 0.432326 -1.51554 0
M  V30 6351 C 617.593 1.20824 -1.68571 0
M  V30 6352 C 618.018 1.84126 -0.384596 0
M  V30 6353 O 617.376 1.69025 0.655751 0
M  V30 6354 C 617.424 2.26429 -2.80646 0
M  V30 6355 O 616.528 3.32032 -2.44598 0
M  V30 6356 H 615.869 0.353765 -0.561913 0
M  V30 6357 H 618.399 0.509916 -1.98144 0
M  V30 6358 H 618.409 2.71133 -3.04878 0
M  V30 6359 H 617.084 1.79733 -3.75058 0
M  V30 6360 H 615.661 2.92769 -2.30956 0
M  V30 6361 N 617.846 1.41785 0.688094 0
M  V30 6362 C 619.123 1.32031 1.44316 0
M  V30 6363 C 619.503 -0.0486079 2.11044 0
M  V30 6364 O 618.851 -1.06332 2.02252 0
M  V30 6365 C 619.061 2.47906 2.45649 0
M  V30 6366 C 620.409 2.89415 3.10683 0
M  V30 6367 O 621.433 2.477 2.55975 0
M  V30 6368 O 620.292 3.61573 4.09789 0
M  V30 6369 H 617.386 0.519994 0.643067 0
M  V30 6370 H 619.932 1.53765 0.71794 0
M  V30 6371 H 618.704 3.39222 1.95048 0
M  V30 6372 H 618.327 2.28089 3.25671 0
M  V30 6373 N 619.324 -0.923095 1.27737 0
M  V30 6374 C 620.272 -2.04567 1.10703 0
M  V30 6375 C 621.266 -1.69375 0.0288445 0
M  V30 6376 O 622.472 -1.79027 0.186913 0
M  V30 6377 H 618.847 -0.670109 0.34126 0
M  V30 6378 H 620.818 -2.1608 2.05796 0
M  V30 6379 C 619.567 -3.38934 0.775837 0
M  V30 6380 H 618.89 -3.66501 1.59741 0
M  V30 6381 H 620.33 -4.18239 0.696548 0
M  V30 6382 C 618.789 -3.32863 -0.520012 0
M  V30 6383 O 619.319 -3.70462 -1.55308 0
M  V30 6384 N 617.525 -2.85958 -0.51732 0
M  V30 6385 H 617.072 -2.55557 0.32379 0
M  V30 6386 H 617.03 -2.82279 -1.38441 0
M  V30 6387 N 620.802 -1.09834 -1.13024 0
M  V30 6388 C 621.75 -0.736283 -2.20639 0
M  V30 6389 C 622.744 0.264725 -1.67319 0
M  V30 6390 O 623.95 0.125745 -1.7956 0
M  V30 6391 H 620.325 -0.220136 -0.719058 0
M  V30 6392 H 622.296 -1.65295 -2.48436 0
M  V30 6393 C 621.045 -0.177544 -3.47246 0
M  V30 6394 H 620.368 -0.939009 -3.88616 0
M  V30 6395 H 621.808 0.0378007 -4.23983 0
M  V30 6396 C 620.267 1.08824 -3.1884 0
M  V30 6397 O 620.797 2.1708 -3.37993 0
M  V30 6398 N 619.003 1.00442 -2.7269 0
M  V30 6399 H 618.55 0.123383 -2.57304 0
M  V30 6400 H 618.508 1.85206 -2.5406 0
M  V30 6401 N 622.28 1.30327 -0.886154 0
M  V30 6402 C 623.691 1.78243 -0.555554 0
M  V30 6403 C 624.042 1.72849 0.928314 0
M  V30 6404 O 623.167 1.30607 1.72542 0
M  V30 6405 C 623.762 3.23654 -1.00168 0
M  V30 6406 C 622.321 3.69401 -0.722471 0
M  V30 6407 C 621.468 2.50753 -1.18399 0
M  V30 6408 H 624.419 1.1718 -1.07026 0
M  V30 6409 H 624.44 3.79056 -0.331152 0
M  V30 6410 H 623.952 3.27548 -2.08169 0
M  V30 6411 H 622.053 3.70995 0.345496 0
M  V30 6412 H 622.166 4.60818 -1.31085 0
M  V30 6413 H 620.53 2.47452 -0.603303 0
M  V30 6414 H 621.313 2.57383 -2.27176 0
M  V30 6415 N 623.758 0.647228 1.43697 0
M  V30 6416 C 624.983 0.164083 2.0675 0
M  V30 6417 C 625.408 -1.15892 1.48158 0
M  V30 6418 O 624.766 -1.71459 0.589194 0
M  V30 6419 C 624.814 0.0800368 3.60511 0
M  V30 6420 O 623.918 -0.959453 4.01084 0
M  V30 6421 H 623.259 0.0921288 0.657578 0
M  V30 6422 H 625.789 0.88846 1.84303 0
M  V30 6423 H 625.799 -0.105263 4.07864 0
M  V30 6424 H 624.474 1.04586 4.02535 0
M  V30 6425 H 623.051 -0.747425 3.65333 0
M  V30 6426 N 625.236 -1.5273 0.388769 0
M  V30 6427 C 626.483 -2.01573 -0.19359 0
M  V30 6428 C 626.811 -1.27525 -1.46859 0
M  V30 6429 O 626.066 -0.363926 -1.92286 0
M  V30 6430 C 626.365 -3.53765 -0.508445 0
M  V30 6431 C 626.031 -4.4582 0.674947 0
M  V30 6432 C 624.693 -4.70703 0.999596 0
M  V30 6433 C 627.045 -5.00138 1.46666 0
M  V30 6434 C 624.373 -5.47155 2.11751 0
M  V30 6435 C 626.725 -5.77812 2.57518 0
M  V30 6436 C 625.389 -6.00975 2.90492 0
M  V30 6437 H 624.659 -0.737606 -0.0708397 0
M  V30 6438 H 627.306 -1.84134 0.526006 0
M  V30 6439 H 625.611 -3.69274 -1.30936 0
M  V30 6440 H 627.308 -3.8905 -0.971664 0
M  V30 6441 H 623.898 -4.26616 0.411906 0
M  V30 6442 H 628.082 -4.8084 1.22909 0
M  V30 6443 H 623.338 -5.63314 2.3767 0
M  V30 6444 H 627.512 -6.18904 3.19267 0
M  V30 6445 H 625.139 -6.59998 3.77236 0
M  V30 6446 N 626.714 -0.118576 -1.57153 0
M  V30 6447 C 627.942 0.54726 -1.99531 0
M  V30 6448 C 628.357 1.60251 -0.998246 0
M  V30 6449 O 627.714 1.82498 0.00893106 0
M  V30 6450 C 627.765 1.17378 -3.41913 0
M  V30 6451 O 627.486 0.160703 -4.37805 0
M  V30 6452 C 628.987 1.92297 -3.9942 0
M  V30 6453 H 626.207 0.144919 -0.655164 0
M  V30 6454 H 628.751 -0.20479 -2.03472 0
M  V30 6455 H 626.906 1.87661 -3.38913 0
M  V30 6456 H 627.32 0.61586 -5.20872 0
M  V30 6457 H 628.794 2.31462 -5.01128 0
M  V30 6458 H 629.271 2.79801 -3.38538 0
M  V30 6459 H 629.877 1.26777 -4.05965 0
M  V30 6460 N 628.193 1.56834 0.155195 0
M  V30 6461 C 629.47 1.73799 0.897395 0
M  V30 6462 C 629.85 0.684379 1.99698 0
M  V30 6463 O 629.198 -0.298111 2.26547 0
M  V30 6464 C 629.408 3.17572 1.44737 0
M  V30 6465 C 630.756 3.79014 1.91399 0
M  V30 6466 O 631.78 3.20951 1.54496 0
M  V30 6467 O 630.639 4.80998 2.59429 0
M  V30 6468 H 627.733 0.710329 0.423511 0
M  V30 6469 H 630.279 1.69107 0.141761 0
M  V30 6470 H 629.051 3.85749 0.656741 0
M  V30 6471 H 628.674 3.26657 2.26674 0
M  V30 6472 N 629.671 -0.424282 1.51781 0
M  V30 6473 C 630.948 -1.18464 1.55646 0
M  V30 6474 C 631.328 -2.08529 0.328438 0
M  V30 6475 O 630.676 -2.17969 -0.685693 0
M  V30 6476 C 630.886 -1.97514 2.87731 0
M  V30 6477 C 632.234 -2.54106 3.40169 0
M  V30 6478 O 633.258 -2.07711 2.89369 0
M  V30 6479 O 632.117 -3.38759 4.28841 0
M  V30 6480 H 629.211 -0.540055 0.626314 0
M  V30 6481 H 631.757 -0.432291 1.64102 0
M  V30 6482 H 630.529 -1.31444 3.68562 0
M  V30 6483 H 630.152 -2.79787 2.82498 0
M  V30 6484 N 631.149 -1.42148 -0.680565 0
M  V30 6485 C 632.374 -1.45901 -1.47403 0
M  V30 6486 C 632.799 -0.0700985 -1.87969 0
M  V30 6487 O 632.157 0.930145 -1.55621 0
M  V30 6488 C 632.205 -2.38661 -2.70321 0
M  V30 6489 O 631.309 -1.85399 -3.68376 0
M  V30 6490 H 630.65 -0.494565 -0.443059 0
M  V30 6491 H 633.18 -1.86774 -0.835251 0
M  V30 6492 H 633.19 -2.55046 -3.18458 0
M  V30 6493 H 631.865 -3.39571 -2.40134 0
M  V30 6494 H 630.442 -1.78541 -3.2738 0
M  V30 6495 N 632.627 0.916307 -1.28225 0
M  V30 6496 C 633.852 1.7043 -1.18188 0
M  V30 6497 C 634.277 1.86346 0.256274 0
M  V30 6498 O 633.635 1.37175 1.18544 0
M  V30 6499 C 633.683 3.07546 -1.88275 0
M  V30 6500 O 632.787 3.94904 -1.18848 0
M  V30 6501 H 632.128 0.521967 -0.410423 0
M  V30 6502 H 634.658 1.14589 -1.69501 0
M  V30 6503 H 634.668 3.57793 -1.96082 0
M  V30 6504 H 633.343 2.95279 -2.92887 0
M  V30 6505 H 631.92 3.53339 -1.19187 0
M  V30 6506 N 634.105 1.10431 1.1244 0
M  V30 6507 C 635.353 0.845045 1.83585 0
M  V30 6508 C 635.674 -0.631168 1.84503 0
M  V30 6509 O 634.944 -1.45825 1.30813 0
M  V30 6510 H 633.524 0.309628 0.679809 0
M  V30 6511 H 636.186 1.39458 1.36153 0
M  V30 6512 H 635.282 1.20786 2.8778 0
M  V30 6513 N 635.583 -1.29855 0.893053 0
M  V30 6514 C 636.86 -1.90694 0.435336 0
M  V30 6515 C 637.24 -1.8111 -1.08454 0
M  V30 6516 O 636.588 -1.23352 -1.92345 0
M  V30 6517 C 636.798 -3.36033 0.942472 0
M  V30 6518 C 638.146 -4.13083 0.982226 0
M  V30 6519 O 639.17 -3.4491 0.889686 0
M  V30 6520 O 638.029 -5.34896 1.12022 0
M  V30 6521 H 635.123 -0.815978 0.134567 0
M  V30 6522 H 637.669 -1.38367 0.982484 0
M  V30 6523 H 636.441 -3.37132 1.9864 0
M  V30 6524 H 636.064 -3.95828 0.374952 0
M  V30 6525 N 637.061 -0.65484 -1.43351 0
M  V30 6526 C 637.971 0.0363603 -2.34572 0
M  V30 6527 C 638.987 0.810432 -1.53974 0
M  V30 6528 O 640.163 0.757308 -1.86619 0
M  V30 6529 C 637.228 0.989733 -3.32273 0
M  V30 6530 C 636.289 0.212414 -4.28774 0
M  V30 6531 C 635.522 1.12038 -5.21808 0
M  V30 6532 O 635.745 2.35967 -5.19303 0
M  V30 6533 O 634.679 0.59191 -5.98982 0
M  V30 6534 H 638.505 -0.714527 -2.95175 0
M  V30 6535 H 636.09 -0.415029 -1.4352 0
M  V30 6536 H 637.972 1.53759 -3.92347 0
M  V30 6537 H 636.647 1.72082 -2.74171 0
M  V30 6538 H 635.554 -0.379062 -3.72175 0
M  V30 6539 H 636.887 -0.479138 -4.89862 0
M  V30 6540 N 638.539 1.52521 -0.396863 0
M  V30 6541 C 639.764 2.06571 0.185258 0
M  V30 6542 C 640.189 1.26605 1.39115 0
M  V30 6543 O 639.547 0.293055 1.78916 0
M  V30 6544 C 639.595 3.5674 0.526189 0
M  V30 6545 O 638.699 3.7929 1.61903 0
M  V30 6546 H 638.04 0.663712 0.0195474 0
M  V30 6547 H 640.57 1.966 -0.566519 0
M  V30 6548 H 640.58 4.00311 0.788338 0
M  V30 6549 H 639.255 4.14379 -0.355397 0
M  V30 6550 H 637.832 3.47605 1.35 0
M  V30 6551 N 640.017 0.126909 1.57088 0
M  V30 6552 C 641.242 -0.53997 2.00248 0
M  V30 6553 C 641.667 -1.58927 1.00618 0
M  V30 6554 O 641.025 -1.81288 -0.0210131 0
M  V30 6555 C 641.073 -1.13565 3.4225 0
M  V30 6556 O 640.177 -2.25103 3.45547 0
M  V30 6557 H 639.518 -0.13412 0.650314 0
M  V30 6558 H 642.048 0.217718 2.03438 0
M  V30 6559 H 642.058 -1.46925 3.80627 0
M  V30 6560 H 640.733 -0.367122 4.14277 0
M  V30 6561 H 639.31 -1.93123 3.18995 0
M  V30 6562 N 641.495 -1.56914 -0.146875 0
M  V30 6563 C 642.725 -1.87243 -0.873126 0
M  V30 6564 C 643.133 -0.713127 -1.75246 0
M  V30 6565 O 642.476 0.326228 -1.8078 0
M  V30 6566 C 642.538 -3.12279 -1.78107 0
M  V30 6567 C 642.202 -4.44082 -1.07889 0
M  V30 6568 C 643.199 -5.18096 -0.432734 0
M  V30 6569 C 640.884 -4.90807 -1.06836 0
M  V30 6570 C 642.878 -6.37039 0.214569 0
M  V30 6571 C 640.565 -6.09674 -0.417243 0
M  V30 6572 C 641.563 -6.82636 0.223093 0
M  V30 6573 O 641.251 -7.99245 0.863884 0
M  V30 6574 H 640.983 -0.624896 -0.257839 0
M  V30 6575 H 643.537 -2.04892 -0.14434 0
M  V30 6576 H 641.767 -2.90639 -2.5508 0
M  V30 6577 H 643.456 -3.28854 -2.37929 0
M  V30 6578 H 644.222 -4.83066 -0.432677 0
M  V30 6579 H 640.101 -4.3394 -1.55618 0
M  V30 6580 H 643.645 -6.93927 0.714965 0
M  V30 6581 H 639.542 -6.44165 -0.414967 0
M  V30 6582 H 640.31 -8.14912 0.765564 0
M  V30 6583 N 642.974 0.416227 -1.52004 0
M  V30 6584 C 644.199 1.19029 -1.69843 0
M  V30 6585 C 644.624 1.83708 -0.404103 0
M  V30 6586 O 643.982 1.69711 0.637787 0
M  V30 6587 C 644.03 2.23439 -2.83032 0
M  V30 6588 O 643.134 3.29419 -2.48106 0
M  V30 6589 H 642.475 0.347785 -0.565634 0
M  V30 6590 H 645.005 0.488871 -1.98674 0
M  V30 6591 H 645.015 2.67884 -3.07737 0
M  V30 6592 H 643.69 1.75745 -3.76944 0
M  V30 6593 H 642.267 2.90303 -2.34048 0
M  V30 6594 N 644.452 1.42507 0.673017 0
M  V30 6595 C 645.4 1.46362 1.80779 0
M  V30 6596 C 646.394 0.339166 1.6597 0
M  V30 6597 O 647.6 0.512262 1.72557 0
M  V30 6598 H 643.975 0.458433 0.596107 0
M  V30 6599 H 645.946 2.41953 1.74646 0
M  V30 6600 C 644.695 1.38462 3.18941 0
M  V30 6601 H 644.018 2.24283 3.30964 0
M  V30 6602 H 645.458 1.45221 3.98355 0
M  V30 6603 C 643.917 0.0996354 3.36753 0
M  V30 6604 O 644.447 -0.846894 3.92671 0
M  V30 6605 N 642.653 0.016211 2.90595 0
M  V30 6606 H 642.2 0.78725 2.45276 0
M  V30 6607 H 642.158 -0.84291 3.0289 0
M  V30 6608 N 645.93 -0.909495 1.28709 0
M  V30 6609 C 647.17 -1.67344 1.17368 0
M  V30 6610 C 647.534 -1.90058 -0.272419 0
M  V30 6611 O 648.735 -2.63944 -0.508617 0
M  V30 6612 C 647.006 -2.99219 1.95455 0
M  V30 6613 S 648.565 -3.90295 2.00538 0
M  V30 6614 H 645.383 -0.57466 0.418672 0
M  V30 6615 H 647.985 -1.08144 1.62865 0
M  V30 6616 H 646.689 -2.80393 2.9968 0
M  V30 6617 H 646.22 -3.63464 1.50524 0
M  V30 6618 H 648.235 -4.83511 1.11496 0
M  V30 6619 N 647.408 -1.11026 -1.11852 0
M  V30 6620 C 648.654 -0.857729 -1.83768 0
M  V30 6621 C 648.987 0.615143 -1.842 0
M  V30 6622 O 648.262 1.45391 -1.29196 0
M  V30 6623 C 648.545 -1.41453 -3.31154 0
M  V30 6624 C 648.398 -2.95471 -3.39142 0
M  V30 6625 C 649.717 -1.0619 -4.27097 0
M  V30 6626 H 646.836 -0.313044 -0.667212 0
M  V30 6627 H 649.478 -1.37443 -1.31185 0
M  V30 6628 H 647.628 -0.975052 -3.76065 0
M  V30 6629 H 649.3 -3.4799 -3.02821 0
M  V30 6630 H 647.543 -3.31759 -2.79497 0
M  V30 6631 H 648.214 -3.29515 -4.42859 0
M  V30 6632 H 650.69 -1.44122 -3.90344 0
M  V30 6633 H 649.566 -1.47832 -5.28618 0
M  V30 6634 H 649.827 0.0278912 -4.42091 0
M  V30 6635 N 648.886 1.2938 -0.899927 0
M  V30 6636 C 650.297 1.77644 -0.574427 0
M  V30 6637 C 650.648 1.73824 0.909928 0
M  V30 6638 O 649.773 1.32429 1.71147 0
M  V30 6639 C 650.368 3.22573 -1.03595 0
M  V30 6640 C 648.927 3.68614 -0.76161 0
M  V30 6641 C 648.074 2.49483 -1.21052 0
M  V30 6642 H 651.025 1.16038 -1.08263 0
M  V30 6643 H 651.046 3.78684 -0.371337 0
M  V30 6644 H 650.558 3.25321 -2.11631 0
M  V30 6645 H 648.659 3.7134 0.306127 0
M  V30 6646 H 648.772 4.59402 -1.35965 0
M  V30 6647 H 647.136 2.46798 -0.629515 0
M  V30 6648 H 647.919 2.54959 -2.29893 0
M  V30 6649 N 650.364 0.662433 1.43002 0
M  V30 6650 C 651.613 0.176873 2.00923 0
M  V30 6651 C 651.926 -1.21954 1.52927 0
M  V30 6652 O 653.132 -1.80081 2.03182 0
M  V30 6653 C 651.588 0.265379 3.5892 0
M  V30 6654 C 651.196 1.66507 4.15908 0
M  V30 6655 C 652.94 -0.162103 4.2419 0
M  V30 6656 C 650.847 1.707 5.66229 0
M  V30 6657 H 649.777 0.0623627 0.751417 0
M  V30 6658 H 652.428 0.825813 1.63868 0
M  V30 6659 H 650.81 -0.451235 3.93421 0
M  V30 6660 H 651.984 2.40777 3.92891 0
M  V30 6661 H 650.299 2.03932 3.63044 0
M  V30 6662 H 652.896 -0.150745 5.34487 0
M  V30 6663 H 653.239 -1.19519 3.98774 0
M  V30 6664 H 653.772 0.503075 3.94606 0
M  V30 6665 H 650.511 2.7195 5.96426 0
M  V30 6666 H 650.031 1.00768 5.91275 0
M  V30 6667 H 651.71 1.45487 6.3043 0
M  V30 6668 N 651.842 -1.52309 0.404946 0
M  V30 6669 C 653.119 -1.94237 -0.230544 0
M  V30 6670 C 653.499 -1.34154 -1.6299 0
M  V30 6671 O 652.847 -0.515713 -2.22604 0
M  V30 6672 C 653.057 -3.48166 -0.241106 0
M  V30 6673 C 654.405 -4.22074 -0.462488 0
M  V30 6674 O 655.429 -3.54754 -0.320644 0
M  V30 6675 O 654.288 -5.41443 -0.741708 0
M  V30 6676 H 651.382 -0.813766 -0.147358 0
M  V30 6677 H 653.928 -1.6333 0.460587 0
M  V30 6678 H 652.7 -3.84269 0.738467 0
M  V30 6679 H 652.323 -3.85422 -0.97651 0
M  V30 6680 N 653.32 -0.135238 -1.57019 0
M  V30 6681 C 654.25 0.805235 -2.19176 0
M  V30 6682 C 655.231 1.2656 -1.13651 0
M  V30 6683 O 656.416 1.32528 -1.4195 0
M  V30 6684 C 653.546 2.04914 -2.80406 0
M  V30 6685 C 652.5 1.72598 -3.91655 0
M  V30 6686 C 651.826 3.04154 -4.39766 0
M  V30 6687 C 653.126 0.981709 -5.12991 0
M  V30 6688 H 654.82 0.287232 -2.98019 0
M  V30 6689 H 652.366 0.136714 -1.4335 0
M  V30 6690 H 654.319 2.71178 -3.22553 0
M  V30 6691 H 653.043 2.59067 -1.98877 0
M  V30 6692 H 651.702 1.08717 -3.50109 0
M  V30 6693 H 651.35 3.56274 -3.55075 0
M  V30 6694 H 651.05 2.83299 -5.14796 0
M  V30 6695 H 652.574 3.71509 -4.84576 0
M  V30 6696 H 653.988 1.5462 -5.52056 0
M  V30 6697 H 652.385 0.873533 -5.93708 0
M  V30 6698 H 653.455 -0.0286887 -4.84892 0
M  V30 6699 N 654.798 1.5699 0.138552 0
M  V30 6700 C 656.023 1.88344 0.86841 0
M  V30 6701 C 656.448 0.725159 1.7356 0
M  V30 6702 O 655.806 -0.324992 1.78363 0
M  V30 6703 C 655.854 3.18334 1.69398 0
M  V30 6704 O 654.958 3.02863 2.79907 0
M  V30 6705 H 654.299 0.618577 0.241367 0
M  V30 6706 H 656.829 2.04207 0.126826 0
M  V30 6707 H 656.839 3.50567 2.08726 0
M  V30 6708 H 655.514 4.02238 1.05725 0
M  V30 6709 H 654.091 2.82056 2.43924 0
M  V30 6710 N 656.276 -0.40816 1.52223 0
M  V30 6711 C 657.516 -1.16418 1.68006 0
M  V30 6712 C 657.88 -1.87749 0.401793 0
M  V30 6713 O 659.081 -2.65245 0.435743 0
M  V30 6714 C 657.352 -2.13143 2.86889 0
M  V30 6715 S 658.911 -2.96839 3.2316 0
M  V30 6716 H 655.729 -0.394373 0.5916 0
M  V30 6717 H 658.331 -0.451349 1.90219 0
M  V30 6718 H 657.035 -1.59428 3.78168 0
M  V30 6719 H 656.566 -2.88963 2.66953 0
M  V30 6720 H 658.581 -4.151 2.71857 0
M  V30 6721 N 657.755 -1.42862 -0.66545 0
M  V30 6722 C 658.702 -1.4707 -1.77874 0
M  V30 6723 C 659.672 -0.321654 -1.62956 0
M  V30 6724 O 660.857 -0.52707 -1.83376 0
M  V30 6725 C 657.997 -1.38788 -3.15962 0
M  V30 6726 C 657.11 -2.63801 -3.42101 0
M  V30 6727 C 656.245 -2.47594 -4.69969 0
M  V30 6728 C 655.284 -3.67936 -4.89172 0
M  V30 6729 N 654.421 -3.50614 -6.08288 0
M  V30 6730 H 659.261 -2.42204 -1.73613 0
M  V30 6731 H 656.798 -1.20239 -0.847401 0
M  V30 6732 H 658.756 -1.31982 -3.95773 0
M  V30 6733 H 657.386 -0.472431 -3.19324 0
M  V30 6734 H 656.438 -2.80935 -2.56475 0
M  V30 6735 H 657.75 -3.53228 -3.52181 0
M  V30 6736 H 656.904 -2.38427 -5.57886 0
M  V30 6737 H 655.643 -1.55672 -4.62188 0
M  V30 6738 H 654.648 -3.77525 -3.99694 0
M  V30 6739 H 655.873 -4.60851 -4.98792 0
M  V30 6740 H 653.819 -2.61417 -6.01662 0
M  V30 6741 H 653.736 -4.33634 -6.19272 0
M  V30 6742 H 655.004 -3.45276 -6.98859 0
M  V30 6743 N 659.233 0.902656 -1.29189 0
M  V30 6744 C 660.183 1.99326 -1.10695 0
M  V30 6745 C 661.167 1.60877 -0.0272521 0
M  V30 6746 O 662.359 1.75245 -0.248635 0
M  V30 6747 C 659.488 3.34265 -0.78244 0
M  V30 6748 C 658.574 3.79081 -1.90153 0
M  V30 6749 N 658.965 3.96162 -3.14466 0
M  V30 6750 C 657.263 4.08333 -1.79389 0
M  V30 6751 C 657.964 4.3388 -3.87458 0
M  V30 6752 N 656.94 4.42759 -3.15381 0
M  V30 6753 H 660.742 2.10597 -2.05003 0
M  V30 6754 H 658.256 1.09127 -1.20271 0
M  V30 6755 H 660.253 4.12097 -0.630996 0
M  V30 6756 H 658.913 3.2434 0.152754 0
M  V30 6757 H 659.924 3.81775 -3.49954 0
M  V30 6758 H 656.601 4.06982 -0.931217 0
M  V30 6759 H 657.991 4.54965 -4.94425 0
M  V30 6760 N 660.711 1.11618 1.11262 0
M  V30 6761 C 662.127 0.850468 1.35053 0
M  V30 6762 C 662.327 -0.523868 1.94571 0
M  V30 6763 O 661.383 -1.2743 2.17986 0
M  V30 6764 C 662.696 1.96005 2.28041 0
M  V30 6765 C 664.244 1.98993 2.416 0
M  V30 6766 C 664.719 3.0916 3.37911 0
M  V30 6767 N 666.21 3.08547 3.45475 0
M  V30 6768 C 666.945 3.9043 4.19943 0
M  V30 6769 N 666.441 4.8228 4.97371 0
M  V30 6770 N 668.234 3.786 4.15474 0
M  V30 6771 H 660.385 2.00184 0.709932 0
M  V30 6772 H 662.648 0.870635 0.375099 0
M  V30 6773 H 662.354 2.9499 1.91503 0
M  V30 6774 H 662.228 1.85782 3.28275 0
M  V30 6775 H 664.615 1.00633 2.77411 0
M  V30 6776 H 664.696 2.13292 1.4121 0
M  V30 6777 H 664.34 4.07748 3.02827 0
M  V30 6778 H 664.27 2.92102 4.3816 0
M  V30 6779 H 666.761 2.42 2.90249 0
M  V30 6780 H 667.074 5.41289 5.51567 0
M  V30 6781 H 665.419 4.863 4.96525 0
M  V30 6782 H 668.61 3.06185 3.54074 0
M  V30 6783 H 668.783 4.42647 4.73253 0
M  V30 6784 N 662.189 -1.289 0.906776 0
M  V30 6785 C 663.417 -1.99401 0.551969 0
M  V30 6786 C 663.832 -1.67816 -0.865048 0
M  V30 6787 O 663.189 -0.927078 -1.57199 0
M  V30 6788 C 663.24 -3.53779 0.743152 0
M  V30 6789 O 662.961 -3.84248 2.1044 0
M  V30 6790 C 664.462 -4.41543 0.39424 0
M  V30 6791 H 661.682 -0.636926 0.211106 0
M  V30 6792 H 664.226 -1.64266 1.21807 0
M  V30 6793 H 662.381 -3.87201 0.124143 0
M  V30 6794 H 662.795 -4.78904 2.13895 0
M  V30 6795 H 664.269 -5.48957 0.578814 0
M  V30 6796 H 664.746 -4.34073 -0.669137 0
M  V30 6797 H 665.352 -4.13605 0.990491 0
M  V30 6798 N 663.667 -0.670007 -1.42649 0
M  V30 6799 C 664.577 0.0114788 -2.34597 0
M  V30 6800 C 665.593 0.794055 -1.54825 0
M  V30 6801 O 666.769 0.737472 -1.87412 0
M  V30 6802 C 663.834 0.954436 -3.33304 0
M  V30 6803 C 662.895 0.166925 -4.28975 0
M  V30 6804 C 662.128 1.06497 -5.22967 0
M  V30 6805 O 662.351 2.30446 -5.21777 0
M  V30 6806 O 661.285 0.528347 -5.99577 0
M  V30 6807 H 665.111 -0.745794 -2.944 0
M  V30 6808 H 662.696 -0.430228 -1.43071 0
M  V30 6809 H 664.578 1.49589 -3.93956 0
M  V30 6810 H 663.253 1.69164 -2.7598 0
M  V30 6811 H 662.16 -0.418515 -3.71752 0
M  V30 6812 H 663.493 -0.531067 -4.89327 0
M  V30 6813 N 665.145 1.52092 -0.413018 0
M  V30 6814 C 666.092 2.27119 0.410558 0
M  V30 6815 C 667.062 1.29692 1.03774 0
M  V30 6816 O 668.247 1.58561 1.06128 0
M  V30 6817 C 665.387 3.09863 1.51918 0
M  V30 6818 C 664.5 4.22252 0.912528 0
M  V30 6819 C 663.635 4.92348 1.99417 0
M  V30 6820 C 662.674 5.96694 1.36466 0
M  V30 6821 N 661.811 6.60292 2.38661 0
M  V30 6822 H 666.651 2.97067 -0.235661 0
M  V30 6823 H 664.188 1.46542 -0.128055 0
M  V30 6824 H 666.146 3.56144 2.17295 0
M  V30 6825 H 664.776 2.42078 2.13537 0
M  V30 6826 H 663.828 3.80113 0.147697 0
M  V30 6827 H 665.14 4.9709 0.412717 0
M  V30 6828 H 664.294 5.42054 2.72512 0
M  V30 6829 H 663.033 4.17087 2.52764 0
M  V30 6830 H 662.038 5.46304 0.61906 0
M  V30 6831 H 663.263 6.73899 0.838827 0
M  V30 6832 H 661.209 5.87858 2.91134 0
M  V30 6833 H 661.126 7.30816 1.93503 0
M  V30 6834 H 662.394 7.14635 3.11314 0
M  V30 6835 N 666.623 0.143563 1.56945 0
M  V30 6836 C 667.848 -0.518701 2.00809 0
M  V30 6837 C 668.273 -1.5785 1.02298 0
M  V30 6838 O 667.631 -1.813 -0.0017839 0
M  V30 6839 C 667.679 -1.09929 3.43436 0
M  V30 6840 O 666.783 -2.21425 3.47915 0
M  V30 6841 H 666.124 -0.127215 0.6517 0
M  V30 6842 H 668.654 0.239283 2.03196 0
M  V30 6843 H 668.664 -1.4288 3.82164 0
M  V30 6844 H 667.339 -0.323162 4.14643 0
M  V30 6845 H 665.916 -1.89728 3.21026 0
M  V30 6846 N 668.101 -1.57061 -0.130224 0
M  V30 6847 C 669.011 -2.02802 -1.17934 0
M  V30 6848 C 670.027 -0.946378 -1.46013 0
M  V30 6849 O 671.203 -1.25708 -1.57351 0
M  V30 6850 C 668.268 -2.41368 -2.48882 0
M  V30 6851 C 667.329 -3.63561 -2.28301 0
M  V30 6852 C 666.562 -4.00279 -3.53005 0
M  V30 6853 O 666.785 -3.37463 -4.59864 0
M  V30 6854 O 665.719 -4.93441 -3.44673 0
M  V30 6855 H 669.545 -2.92394 -0.820958 0
M  V30 6856 H 667.13 -1.45475 -0.340197 0
M  V30 6857 H 669.012 -2.66958 -3.26054 0
M  V30 6858 H 667.687 -1.54926 -2.84217 0
M  V30 6859 H 666.594 -3.43136 -1.49025 0
M  V30 6860 H 667.927 -4.50673 -1.97875 0
M  V30 6861 N 669.579 0.400081 -1.52437 0
M  V30 6862 C 670.804 1.17221 -1.71096 0
M  V30 6863 C 671.229 1.83269 -0.423565 0
M  V30 6864 O 670.587 1.70378 0.619751 0
M  V30 6865 C 670.635 2.20425 -2.85386 0
M  V30 6866 O 669.739 3.26769 -2.51586 0
M  V30 6867 H 669.08 0.341766 -0.569291 0
M  V30 6868 H 671.61 0.467772 -1.99181 0
M  V30 6869 H 671.62 2.64605 -3.10561 0
M  V30 6870 H 670.295 1.71737 -3.78786 0
M  V30 6871 H 668.872 2.87804 -2.37114 0
M  V30 6872 N 671.057 1.43213 0.657864 0
M  V30 6873 C 672.334 1.35063 1.41483 0
M  V30 6874 C 672.714 -0.0038314 2.111 0
M  V30 6875 O 672.062 -1.02018 2.04462 0
M  V30 6876 C 672.272 2.53061 2.40335 0
M  V30 6877 C 673.62 2.9594 3.04474 0
M  V30 6878 O 674.644 2.53074 2.50663 0
M  V30 6879 O 673.503 3.70184 4.02027 0
M  V30 6880 H 670.597 0.533517 0.631893 0
M  V30 6881 H 673.143 1.55253 0.685162 0
M  V30 6882 H 671.915 3.43283 1.87809 0
M  V30 6883 H 671.538 2.34945 3.20759 0
M  V30 6884 N 672.536 -0.895792 1.29666 0
M  V30 6885 C 673.468 -2.00563 1.10937 0
M  V30 6886 C 674.481 -1.62705 0.055734 0
M  V30 6887 O 675.67 -1.7595 0.300656 0
M  V30 6888 C 672.77 -3.32262 0.667448 0
M  V30 6889 C 671.943 -3.98625 1.80047 0
M  V30 6890 C 671.002 -5.08617 1.3489 0
M  V30 6891 O 670.028 -5.30837 2.05429 0
M  V30 6892 N 671.23 -5.80076 0.221937 0
M  V30 6893 H 673.995 -2.17184 2.06522 0
M  V30 6894 H 671.556 -1.06822 1.21658 0
M  V30 6895 H 673.548 -4.03196 0.348586 0
M  V30 6896 H 672.118 -3.11985 -0.196055 0
M  V30 6897 H 671.338 -3.21005 2.28801 0
M  V30 6898 H 672.626 -4.39704 2.56003 0
M  V30 6899 H 672.024 -5.64514 -0.366084 0
M  V30 6900 H 670.581 -6.51789 -0.0375346 0
M  V30 6901 N 674.014 -1.12206 -1.10668 0
M  V30 6902 C 675.425 -0.890657 -1.64086 0
M  V30 6903 C 675.776 0.575502 -1.8757 0
M  V30 6904 O 674.901 1.4394 -1.61587 0
M  V30 6905 C 675.496 -1.61029 -2.98085 0
M  V30 6906 C 674.055 -1.4251 -3.48379 0
M  V30 6907 C 673.202 -1.64778 -2.23033 0
M  V30 6908 H 676.153 -1.27718 -0.94201 0
M  V30 6909 H 676.174 -1.05993 -3.65439 0
M  V30 6910 H 675.686 -2.67735 -2.80962 0
M  V30 6911 H 673.787 -0.380497 -3.70652 0
M  V30 6912 H 673.9 -2.17959 -4.26651 0
M  V30 6913 H 672.264 -1.07171 -2.31055 0
M  V30 6914 H 673.047 -2.72776 -2.08443 0
M  V30 6915 N 675.492 1.28418 -0.913599 0
M  V30 6916 C 676.738 1.9527 -0.547484 0
M  V30 6917 C 677.071 1.71745 0.906486 0
M  V30 6918 O 676.346 1.03834 1.64465 0
M  V30 6919 C 676.629 3.49748 -0.857205 0
M  V30 6920 C 676.482 3.82675 -2.3639 0
M  V30 6921 C 677.801 4.3868 -0.353258 0
M  V30 6922 H 674.92 0.709236 -0.200381 0
M  V30 6923 H 677.562 1.51789 -1.14281 0
M  V30 6924 H 675.712 3.86915 -0.350548 0
M  V30 6925 H 677.384 3.55378 -2.94116 0
M  V30 6926 H 675.627 3.29724 -2.81894 0
M  V30 6927 H 676.298 4.90547 -2.53115 0
M  V30 6928 H 678.774 4.08584 -0.787288 0
M  V30 6929 H 677.65 5.45621 -0.599049 0
M  V30 6930 H 677.911 4.35753 0.746413 0
M  V30 6931 N 676.97 0.677563 1.42291 0
M  V30 6932 C 678.195 0.207901 2.06355 0
M  V30 6933 C 678.62 -1.12723 1.50583 0
M  V30 6934 O 677.978 -1.70171 0.62543 0
M  V30 6935 C 678.026 0.156489 3.6026 0
M  V30 6936 O 677.13 -0.874162 4.03029 0
M  V30 6937 H 676.471 0.106056 0.655475 0
M  V30 6938 H 679.001 0.927354 1.82377 0
M  V30 6939 H 679.011 -0.0187258 4.07996 0
M  V30 6940 H 677.686 1.13101 4.00226 0
M  V30 6941 H 676.263 -0.669764 3.66836 0
M  V30 6942 N 678.448 -1.51871 0.421078 0
M  V30 6943 C 679.378 -2.30231 -0.389363 0
M  V30 6944 C 680.359 -1.34946 -1.03555 0
M  V30 6945 O 681.544 -1.63859 -1.04229 0
M  V30 6946 C 678.674 -3.13247 -1.49979 0
M  V30 6947 C 677.628 -4.16677 -0.977966 0
M  V30 6948 C 676.954 -4.88112 -2.1829 0
M  V30 6949 C 678.254 -5.22295 -0.0236775 0
M  V30 6950 H 679.948 -2.98229 0.264524 0
M  V30 6951 H 677.494 -1.43424 0.12866 0
M  V30 6952 H 679.447 -3.66838 -2.07383 0
M  V30 6953 H 678.171 -2.4304 -2.18173 0
M  V30 6954 H 676.83 -3.64114 -0.426245 0
M  V30 6955 H 676.478 -4.14423 -2.85066 0
M  V30 6956 H 676.178 -5.58041 -1.84021 0
M  V30 6957 H 677.702 -5.44521 -2.76278 0
M  V30 6958 H 679.116 -5.71055 -0.506899 0
M  V30 6959 H 677.513 -5.99656 0.230782 0
M  V30 6960 H 678.583 -4.76131 0.917999 0
M  V30 6961 N 679.926 -0.151884 -1.56866 0
M  V30 6962 C 681.203 0.543328 -1.87902 0
M  V30 6963 C 681.583 1.82636 -1.05864 0
M  V30 6964 O 680.931 2.28028 -0.146868 0
M  V30 6965 C 681.141 0.804056 -3.39611 0
M  V30 6966 C 682.489 1.14267 -4.08935 0
M  V30 6967 O 683.513 0.893248 -3.44818 0
M  V30 6968 O 682.372 1.61229 -5.22176 0
M  V30 6969 H 679.466 0.277724 -0.778973 0
M  V30 6970 H 682.012 -0.188862 -1.68646 0
M  V30 6971 H 680.784 -0.103772 -3.91162 0
M  V30 6972 H 680.407 1.59025 -3.64413 0
M  V30 6973 N 681.404 1.57128 0.121893 0
M  V30 6974 C 682.352 2.01109 1.16868 0
M  V30 6975 C 683.346 0.907532 1.43039 0
M  V30 6976 O 684.552 1.09274 1.43036 0
M  V30 6977 H 680.927 0.640539 0.393971 0
M  V30 6978 H 682.898 2.88261 0.771224 0
M  V30 6979 C 681.647 2.42887 2.48799 0
M  V30 6980 H 680.97 3.2737 2.29498 0
M  V30 6981 H 682.41 2.77461 3.20611 0
M  V30 6982 C 680.869 1.29137 3.11168 0
M  V30 6983 O 681.399 0.605756 3.97106 0
M  V30 6984 N 679.605 1.04916 2.71 0
M  V30 6985 H 679.152 1.60848 2.01211 0
M  V30 6986 H 679.11 0.290016 3.1306 0
M  V30 6987 N 682.882 -0.391992 1.52647 0
M  V30 6988 C 684.129 -1.13732 1.67545 0
M  V30 6989 C 684.457 -1.90045 0.413881 0
M  V30 6990 O 683.712 -1.86157 -0.603646 0
M  V30 6991 C 684.011 -2.14401 2.85949 0
M  V30 6992 C 683.677 -1.54767 4.23507 0
M  V30 6993 C 682.339 -1.38229 4.60919 0
M  V30 6994 C 684.691 -1.11382 5.0916 0
M  V30 6995 C 682.019 -0.7685 5.81645 0
M  V30 6996 C 684.371 -0.514143 6.30507 0
M  V30 6997 C 683.035 -0.33604 6.66654 0
M  V30 6998 H 682.305 -0.416174 0.613091 0
M  V30 6999 H 684.952 -0.422327 1.86785 0
M  V30 7000 H 683.257 -2.92108 2.61114 0
M  V30 7001 H 684.954 -2.71974 2.94671 0
M  V30 7002 H 681.544 -1.68626 3.94035 0
M  V30 7003 H 685.728 -1.22962 4.80826 0
M  V30 7004 H 680.984 -0.618681 6.08262 0
M  V30 7005 H 685.158 -0.169657 6.96193 0
M  V30 7006 H 682.785 0.14166 7.60068 0
M  V30 7007 N 684.36 -1.4356 -0.65026 0
M  V30 7008 C 685.588 -1.48779 -1.43779 0
M  V30 7009 C 686.003 -0.106593 -1.88499 0
M  V30 7010 O 685.36 0.883766 -1.59674 0
M  V30 7011 C 685.411 -2.43618 -2.67081 0
M  V30 7012 O 685.132 -3.76367 -2.24231 0
M  V30 7013 C 686.633 -2.5811 -3.60409 0
M  V30 7014 H 683.853 -0.50521 -0.441593 0
M  V30 7015 H 686.397 -1.88332 -0.796941 0
M  V30 7016 H 684.552 -2.07253 -3.273 0
M  V30 7017 H 684.966 -4.27394 -3.0403 0
M  V30 7018 H 686.44 -3.28539 -4.43583 0
M  V30 7019 H 686.917 -1.627 -4.07953 0
M  V30 7020 H 687.523 -2.95298 -3.0607 0
M  V30 7021 N 685.838 0.888903 -1.30139 0
M  V30 7022 C 686.77 1.99972 -1.11999 0
M  V30 7023 C 687.783 1.62673 -0.0643619 0
M  V30 7024 O 688.972 1.75788 -0.309983 0
M  V30 7025 C 686.072 3.31904 -0.685059 0
M  V30 7026 C 685.245 3.97665 -1.82158 0
M  V30 7027 C 684.304 5.07894 -1.37585 0
M  V30 7028 O 683.33 5.2974 -2.08241 0
M  V30 7029 N 684.532 5.7995 -0.252697 0
M  V30 7030 H 687.297 2.16085 -2.07671 0
M  V30 7031 H 684.858 1.06175 -1.22223 0
M  V30 7032 H 686.85 4.03005 -0.369964 0
M  V30 7033 H 685.42 3.12084 0.179507 0
M  V30 7034 H 684.64 3.19787 -2.305 0
M  V30 7035 H 685.928 4.3834 -2.58332 0
M  V30 7036 H 685.326 5.647 0.336141 0
M  V30 7037 H 683.883 6.518 0.00296813 0
M  V30 7038 N 687.317 1.12792 1.10072 0
M  V30 7039 C 688.542 0.908838 1.86427 0
M  V30 7040 C 688.967 -0.536793 1.80278 0
M  V30 7041 O 688.325 -1.38033 1.17543 0
M  V30 7042 C 688.373 1.39295 3.3261 0
M  V30 7043 O 687.477 0.573846 4.08388 0
M  V30 7044 H 686.818 0.326234 0.578331 0
M  V30 7045 H 689.348 1.50094 1.39043 0
M  V30 7046 H 689.358 1.39366 3.83459 0
M  V30 7047 H 688.033 2.44555 3.36401 0
M  V30 7048 H 686.61 0.640438 3.67359 0
M  V30 7049 N 688.795 -1.27931 0.920396 0
M  V30 7050 C 689.725 -2.29487 0.431024 0
M  V30 7051 C 690.706 -1.62435 -0.504861 0
M  V30 7052 O 691.891 -1.89797 -0.411176 0
M  V30 7053 C 689.021 -3.45788 -0.323709 0
M  V30 7054 C 687.975 -4.24784 0.523658 0
M  V30 7055 C 687.301 -5.33488 -0.359809 0
M  V30 7056 C 688.601 -4.90874 1.78437 0
M  V30 7057 H 690.295 -2.70671 1.27975 0
M  V30 7058 H 687.841 -1.30121 0.616813 0
M  V30 7059 H 689.794 -4.15927 -0.676952 0
M  V30 7060 H 688.518 -3.03502 -1.2064 0
M  V30 7061 H 687.177 -3.56382 0.85951 0
M  V30 7062 H 686.825 -4.87445 -1.24124 0
M  V30 7063 H 686.525 -5.87247 0.203605 0
M  V30 7064 H 688.049 -6.06472 -0.708787 0
M  V30 7065 H 689.463 -5.53339 1.49963 0
M  V30 7066 H 687.86 -5.54659 2.29071 0
M  V30 7067 H 688.93 -4.14988 2.50824 0
M  V30 7068 N 690.273 -0.685099 -1.4193 0
M  V30 7069 C 691.203 -0.0273506 -2.33484 0
M  V30 7070 C 692.184 0.778366 -1.51246 0
M  V30 7071 O 693.369 0.733449 -1.79817 0
M  V30 7072 C 690.499 0.917272 -3.34968 0
M  V30 7073 C 689.453 0.21941 -4.27437 0
M  V30 7074 C 688.779 1.27768 -5.1921 0
M  V30 7075 C 690.079 -0.907894 -5.14349 0
M  V30 7076 H 691.773 -0.791994 -2.88735 0
M  V30 7077 H 689.319 -0.382308 -1.38832 0
M  V30 7078 H 691.272 1.38657 -3.97935 0
M  V30 7079 H 689.996 1.71346 -2.78043 0
M  V30 7080 H 688.655 -0.229757 -3.65879 0
M  V30 7081 H 688.303 2.06612 -4.58607 0
M  V30 7082 H 688.003 0.815803 -5.81909 0
M  V30 7083 H 689.527 1.7477 -5.85054 0
M  V30 7084 H 690.941 -0.519348 -5.70943 0
M  V30 7085 H 689.338 -1.2962 -5.85934 0
M  V30 7086 H 690.408 -1.75218 -4.52136 0
M  V30 7087 N 691.751 1.51645 -0.429126 0
M  V30 7088 C 692.699 2.29119 0.400921 0
M  V30 7089 C 693.693 1.34628 1.02819 0
M  V30 7090 O 694.899 1.52004 0.964098 0
M  V30 7091 H 691.274 0.737273 0.148095 0
M  V30 7092 H 693.245 2.97144 -0.273457 0
M  V30 7093 C 691.994 3.13953 1.49429 0
M  V30 7094 H 691.317 3.86544 1.02097 0
M  V30 7095 H 692.757 3.71232 2.04849 0
M  V30 7096 C 691.216 2.28796 2.47293 0
M  V30 7097 O 691.746 1.94193 3.51642 0
M  V30 7098 N 689.952 1.92177 2.17982 0
M  V30 7099 H 689.499 2.20517 1.33154 0
M  V30 7100 H 689.457 1.35497 2.83704 0
M  V30 7101 N 693.229 0.160201 1.56784 0
M  V30 7102 C 694.457 -0.494165 2.00912 0
M  V30 7103 C 694.872 -1.57548 1.04038 0
M  V30 7104 O 694.229 -1.82457 0.0394581 0
M  V30 7105 C 694.28 -1.08271 3.44905 0
M  V30 7106 O 694.001 -0.0445704 4.38077 0
M  V30 7107 C 695.502 -1.8164 4.04378 0
M  V30 7108 H 692.722 -0.127498 0.658776 0
M  V30 7109 H 695.266 0.258665 2.02858 0
M  V30 7110 H 693.421 -1.78609 3.4377 0
M  V30 7111 H 693.835 -0.477544 5.22322 0
M  V30 7112 H 695.309 -2.18094 5.07089 0
M  V30 7113 H 695.786 -2.70727 3.45838 0
M  V30 7114 H 696.392 -1.15969 4.09184 0
M  V30 7115 N 694.707 -1.5719 -0.113559 0
M  V30 7116 C 695.953 -1.86289 -0.816583 0
M  V30 7117 C 696.308 -0.748672 -1.77236 0
M  V30 7118 O 695.601 0.250889 -1.8995 0
M  V30 7119 C 695.795 -3.19593 -1.59984 0
M  V30 7120 C 695.624 -4.43876 -0.721414 0
M  V30 7121 C 694.394 -5.03913 -0.374172 0
M  V30 7122 C 696.592 -5.14287 -0.0366045 0
M  V30 7123 N 694.574 -6.11741 0.514352 0
M  V30 7124 C 695.945 -6.15913 0.710706 0
M  V30 7125 C 698 -4.97885 0.039247 0
M  V30 7126 C 696.703 -7.0291 1.52675 0
M  V30 7127 C 698.729 -5.85373 0.842135 0
M  V30 7128 C 698.091 -6.86506 1.57762 0
M  V30 7129 H 694.19 -0.731839 -0.275564 0
M  V30 7130 H 696.774 -1.94535 -0.080033 0
M  V30 7131 H 694.945 -3.12432 -2.30739 0
M  V30 7132 H 696.677 -3.3648 -2.24862 0
M  V30 7133 H 693.432 -4.68131 -0.717653 0
M  V30 7134 H 693.856 -6.70293 0.950623 0
M  V30 7135 H 698.498 -4.19651 -0.51503 0
M  V30 7136 H 696.216 -7.80547 2.09217 0
M  V30 7137 H 699.802 -5.74746 0.903256 0
M  V30 7138 H 698.682 -7.53032 2.1889 0
M  V30 7139 N 696.185 0.383891 -1.52853 0
M  V30 7140 C 697.462 1.14296 -1.58732 0
M  V30 7141 C 697.842 2.07585 -0.383611 0
M  V30 7142 O 697.19 2.1971 0.627661 0
M  V30 7143 C 697.4 1.89816 -2.92867 0
M  V30 7144 C 698.748 2.44998 -3.46787 0
M  V30 7145 O 699.772 1.99966 -2.94774 0
M  V30 7146 O 698.631 3.2727 -4.37672 0
M  V30 7147 H 695.725 0.52326 -0.640413 0
M  V30 7148 H 698.271 0.388631 -1.6519 0
M  V30 7149 H 697.043 1.21626 -3.71918 0
M  V30 7150 H 696.666 2.72199 -2.89816 0
M  V30 7151 N 697.663 1.43903 0.642637 0
M  V30 7152 C 699.074 1.40975 1.22404 0
M  V30 7153 C 699.425 0.1192 1.95838 0
M  V30 7154 O 698.55 -0.780939 2.01818 0
M  V30 7155 C 699.145 2.5538 2.22636 0
M  V30 7156 C 697.704 2.55684 2.76229 0
M  V30 7157 C 696.851 2.32556 1.51039 0
M  V30 7158 H 699.802 1.5265 0.434006 0
M  V30 7159 H 699.823 2.27474 3.05017 0
M  V30 7160 H 699.335 3.49294 1.69161 0
M  V30 7161 H 697.436 1.65679 3.33738 0
M  V30 7162 H 697.549 3.53799 3.23053 0
M  V30 7163 H 695.913 1.81427 1.78764 0
M  V30 7164 H 696.696 3.28569 0.99484 0
M  V30 7165 N 699.141 -0.881989 1.30609 0
M  V30 7166 C 700.088 -1.98803 1.17244 0
M  V30 7167 C 701.058 -1.65987 0.0611905 0
M  V30 7168 O 702.243 -1.89385 0.231911 0
M  V30 7169 C 699.383 -3.33867 0.87333 0
M  V30 7170 C 698.496 -3.79354 2.06675 0
M  V30 7171 C 697.631 -5.03078 1.70547 0
M  V30 7172 C 696.67 -5.40981 2.86366 0
M  V30 7173 N 695.807 -6.55886 2.50514 0
M  V30 7174 H 700.647 -2.09566 2.11863 0
M  V30 7175 H 698.184 -1.02607 1.05405 0
M  V30 7176 H 700.142 -4.11612 0.680519 0
M  V30 7177 H 698.772 -3.2278 -0.0359983 0
M  V30 7178 H 697.824 -2.97492 2.37071 0
M  V30 7179 H 699.136 -4.03382 2.93401 0
M  V30 7180 H 698.29 -5.88457 1.47658 0
M  V30 7181 H 697.029 -4.80927 0.809947 0
M  V30 7182 H 696.034 -4.54127 3.09917 0
M  V30 7183 H 697.259 -5.65104 3.76609 0
M  V30 7184 H 695.205 -6.35306 1.63471 0
M  V30 7185 H 695.122 -6.79799 3.30771 0
M  V30 7186 H 696.39 -7.44489 2.30989 0
M  V30 7187 N 700.619 -1.13374 -1.09472 0
M  V30 7188 C 701.865 -0.896516 -1.81908 0
M  V30 7189 C 702.198 0.575933 -1.85463 0
M  V30 7190 O 701.473 1.42618 -1.32251 0
M  V30 7191 C 701.756 -1.48445 -3.28079 0
M  V30 7192 C 701.609 -3.02598 -3.32798 0
M  V30 7193 C 702.928 -1.15226 -4.24748 0
M  V30 7194 H 700.047 -0.327127 -0.660422 0
M  V30 7195 H 702.689 -1.40195 -1.2824 0
M  V30 7196 H 700.839 -1.0546 -3.73912 0
M  V30 7197 H 702.511 -3.54335 -2.95372 0
M  V30 7198 H 700.754 -3.37613 -2.72397 0
M  V30 7199 H 701.425 -3.38835 -4.3577 0
M  V30 7200 H 703.901 -1.52369 -3.87199 0
M  V30 7201 H 702.777 -1.59012 -5.25363 0
M  V30 7202 H 703.038 -0.0658891 -4.42051 0
M  V30 7203 N 702.098 1.27442 -0.927168 0
M  V30 7204 C 703.509 1.76385 -0.611979 0
M  V30 7205 C 703.86 1.75715 0.872853 0
M  V30 7206 O 702.985 1.3603 1.683 0
M  V30 7207 C 703.58 3.20303 -1.10414 0
M  V30 7208 C 702.139 3.66916 -0.839628 0
M  V30 7209 C 701.286 2.46859 -1.26317 0
M  V30 7210 H 704.237 1.13716 -1.107 0
M  V30 7211 H 704.258 3.77811 -0.451578 0
M  V30 7212 H 703.77 3.20759 -2.18484 0
M  V30 7213 H 701.871 3.71906 0.227292 0
M  V30 7214 H 701.984 4.56415 -1.45679 0
M  V30 7215 H 700.348 2.45407 -0.681723 0
M  V30 7216 H 701.131 2.50025 -2.3525 0
M  V30 7217 N 703.576 0.692616 1.41565 0
M  V30 7218 C 704.853 0.150496 1.9502 0
M  V30 7219 C 705.233 -1.33881 1.63215 0
M  V30 7220 O 704.581 -2.08378 0.937598 0
M  V30 7221 C 704.791 0.438636 3.46233 0
M  V30 7222 C 706.139 0.364777 4.2303 0
M  V30 7223 O 707.163 0.373383 3.54238 0
M  V30 7224 O 706.022 0.32234 5.45549 0
M  V30 7225 H 703.116 0.0132454 0.826894 0
M  V30 7226 H 705.662 0.768574 1.51298 0
M  V30 7227 H 704.434 1.46962 3.62654 0
M  V30 7228 H 704.057 -0.210562 3.97042 0
M  V30 7229 N 705.054 -1.51416 0.437162 0
M  V30 7230 C 706.3 -2.02386 -0.129555 0
M  V30 7231 C 706.633 -1.32071 -1.42376 0
M  V30 7232 O 705.908 -0.43559 -1.8956 0
M  V30 7233 C 706.191 -3.5841 -0.348487 0
M  V30 7234 C 706.044 -4.39341 0.964352 0
M  V30 7235 C 707.363 -4.25654 -1.11834 0
M  V30 7236 H 704.482 -0.735587 -0.0456109 0
M  V30 7237 H 707.124 -1.81055 0.576124 0
M  V30 7238 H 705.274 -3.76716 -0.949592 0
M  V30 7239 H 706.946 -4.32685 1.59942 0
M  V30 7240 H 705.189 -4.04432 1.56898 0
M  V30 7241 H 705.86 -5.4667 0.765212 0
M  V30 7242 H 708.336 -4.11617 -0.609165 0
M  V30 7243 H 707.212 -5.34704 -1.24029 0
M  V30 7244 H 707.473 -3.86502 -2.14636 0
M  V30 7245 N 706.532 -0.168513 -1.56696 0
M  V30 7246 C 707.809 0.523367 -1.88468 0
M  V30 7247 C 708.189 1.81503 -1.07796 0
M  V30 7248 O 707.537 2.27859 -0.171045 0
M  V30 7249 C 707.747 0.767991 -3.40445 0
M  V30 7250 C 709.095 1.09924 -4.10124 0
M  V30 7251 O 710.119 0.856625 -3.45746 0
M  V30 7252 O 708.978 1.55681 -5.23856 0
M  V30 7253 H 706.072 0.269447 -0.781874 0
M  V30 7254 H 708.618 -0.206739 -1.68436 0
M  V30 7255 H 707.39 -0.145254 -3.9103 0
M  V30 7256 H 707.013 1.55151 -3.66079 0
M  V30 7257 N 708.01 1.57248 0.105221 0
M  V30 7258 C 709.259 1.84756 0.809198 0
M  V30 7259 C 709.572 0.756262 1.80389 0
M  V30 7260 O 710.778 0.918158 2.55504 0
M  V30 7261 C 709.234 3.27613 1.48989 0
M  V30 7262 C 708.842 4.44788 0.535484 0
M  V30 7263 C 710.586 3.64356 2.17819 0
M  V30 7264 C 708.493 5.78676 1.22019 0
M  V30 7265 H 707.423 0.689139 0.305946 0
M  V30 7266 H 710.074 1.83395 0.0620371 0
M  V30 7267 H 708.456 3.23485 2.28415 0
M  V30 7268 H 709.63 4.60243 -0.226557 0
M  V30 7269 H 707.945 4.16374 -0.0465769 0
M  V30 7270 H 710.542 4.61663 2.69761 0
M  V30 7271 H 710.885 2.92474 2.96251 0
M  V30 7272 H 711.418 3.70328 1.45264 0
M  V30 7273 H 708.157 6.53763 0.476875 0
M  V30 7274 H 707.677 5.67083 1.9539 0
M  V30 7275 H 709.356 6.22897 1.74952 0
M  V30 7276 N 709.488 -0.375779 1.53054 0
M  V30 7277 C 710.435 -1.45978 1.78771 0
M  V30 7278 C 711.405 -1.53625 0.631552 0
M  V30 7279 O 712.59 -1.69674 0.872667 0
M  V30 7280 C 709.73 -2.8305 1.97425 0
M  V30 7281 C 708.843 -2.84451 3.25134 0
M  V30 7282 C 707.978 -4.13034 3.34031 0
M  V30 7283 C 707.017 -4.08536 4.55812 0
M  V30 7284 N 706.154 -5.2875 4.61918 0
M  V30 7285 H 710.994 -1.23349 2.71273 0
M  V30 7286 H 708.531 -0.598147 1.3439 0
M  V30 7287 H 710.489 -3.62666 2.06225 0
M  V30 7288 H 709.119 -3.04101 1.0827 0
M  V30 7289 H 708.171 -1.97127 3.25338 0
M  V30 7290 H 709.483 -2.76998 4.14818 0
M  V30 7291 H 708.637 -5.0106 3.42087 0
M  V30 7292 H 707.376 -4.23226 2.42345 0
M  V30 7293 H 706.381 -3.18897 4.47867 0
M  V30 7294 H 707.606 -3.99955 5.48828 0
M  V30 7295 H 705.552 -5.39547 3.73129 0
M  V30 7296 H 705.469 -5.23426 5.45492 0
M  V30 7297 H 706.737 -6.18637 4.74245 0
M  V30 7298 N 710.966 -1.44241 -0.634997 0
M  V30 7299 C 711.876 -1.53293 -1.77591 0
M  V30 7300 C 712.892 -0.418831 -1.68884 0
M  V30 7301 O 714.068 -0.675619 -1.8973 0
M  V30 7302 C 711.133 -1.47075 -3.13958 0
M  V30 7303 C 710.194 -2.69304 -3.34326 0
M  V30 7304 C 709.427 -2.63374 -4.64187 0
M  V30 7305 O 709.65 -1.69161 -5.44739 0
M  V30 7306 O 708.584 -3.54166 -4.86673 0
M  V30 7307 H 712.41 -2.49673 -1.72908 0
M  V30 7308 H 709.995 -1.26445 -0.795745 0
M  V30 7309 H 711.877 -1.46117 -3.95257 0
M  V30 7310 H 710.552 -0.538373 -3.19192 0
M  V30 7311 H 709.459 -2.75831 -2.52721 0
M  V30 7312 H 710.792 -3.61576 -3.33951 0
M  V30 7313 N 712.444 0.87505 -1.31075 0
M  V30 7314 C 713.721 1.60976 -1.11113 0
M  V30 7315 C 714.101 2.08409 0.336006 0
M  V30 7316 O 713.449 1.85858 1.32924 0
M  V30 7317 C 713.659 2.77166 -2.12085 0
M  V30 7318 C 715.007 3.47254 -2.44335 0
M  V30 7319 O 716.031 2.87367 -2.10472 0
M  V30 7320 O 714.89 4.55276 -3.02301 0
M  V30 7321 H 711.984 0.707982 -0.427424 0
M  V30 7322 H 714.53 0.920957 -1.42536 0
M  V30 7323 H 713.302 2.39494 -3.09449 0
M  V30 7324 H 712.925 3.53737 -1.81538 0
M  V30 7325 N 713.922 1.13953 1.08869 0
M  V30 7326 C 714.854 0.779906 2.15523 0
M  V30 7327 C 715.867 -0.20102 1.61554 0
M  V30 7328 O 717.056 0.0200049 1.78489 0
M  V30 7329 C 714.156 0.136226 3.38626 0
M  V30 7330 C 713.329 1.15069 4.21993 0
M  V30 7331 C 712.388 0.531645 5.23507 0
M  V30 7332 O 711.414 1.19327 5.56552 0
M  V30 7333 N 712.616 -0.693734 5.7634 0
M  V30 7334 H 715.381 1.69769 2.46979 0
M  V30 7335 H 712.942 1.03331 1.24637 0
M  V30 7336 H 714.934 -0.290295 4.03658 0
M  V30 7337 H 713.504 -0.684603 3.05011 0
M  V30 7338 H 712.724 1.75431 3.53012 0
M  V30 7339 H 714.012 1.83614 4.74514 0
M  V30 7340 H 713.41 -1.24994 5.51718 0
M  V30 7341 H 711.967 -1.06283 6.43076 0
M  V30 7342 N 715.4 -1.26948 0.933913 0
M  V30 7343 C 716.677 -1.89212 0.495784 0
M  V30 7344 C 717.057 -1.84469 -1.02637 0
M  V30 7345 O 716.405 -1.29409 -1.88323 0
M  V30 7346 C 716.615 -3.32865 1.0489 0
M  V30 7347 C 717.963 -4.09749 1.11315 0
M  V30 7348 O 718.987 -3.41905 0.998966 0
M  V30 7349 O 717.846 -5.31061 1.28983 0
M  V30 7350 H 714.94 -0.811284 0.160459 0
M  V30 7351 H 717.486 -1.35171 1.02601 0
M  V30 7352 H 716.258 -3.30642 2.09265 0
M  V30 7353 H 715.881 -3.94435 0.500692 0
M  V30 7354 N 716.879 -0.700114 -1.41195 0
M  V30 7355 C 718.107 -0.242179 -2.05478 0
M  V30 7356 C 718.522 1.11029 -1.52702 0
M  V30 7357 O 717.879 1.69473 -0.677127 0
M  V30 7358 C 717.93 -0.196271 -3.60967 0
M  V30 7359 O 717.651 -1.49532 -4.11791 0
M  V30 7360 C 719.152 0.282102 -4.42401 0
M  V30 7361 H 716.372 -0.111749 -0.661629 0
M  V30 7362 H 718.916 -0.953975 -1.80885 0
M  V30 7363 H 717.071 0.46638 -3.84582 0
M  V30 7364 H 717.485 -1.38545 -5.05871 0
M  V30 7365 H 718.959 0.263093 -5.51373 0
M  V30 7366 H 719.436 1.32174 -4.1884 0
M  V30 7367 H 720.042 -0.349712 -4.2386 0
M  V30 7368 N 718.357 1.51182 -0.445186 0
M  V30 7369 C 719.582 2.07056 0.119445 0
M  V30 7370 C 720.007 1.30966 1.35016 0
M  V30 7371 O 719.365 0.349827 1.77893 0
M  V30 7372 C 719.413 3.58234 0.412428 0
M  V30 7373 O 718.517 3.84249 1.49754 0
M  V30 7374 H 717.858 0.663998 -0.00157797 0
M  V30 7375 H 720.388 1.94699 -0.628779 0
M  V30 7376 H 720.398 4.02617 0.660583 0
M  V30 7377 H 719.073 4.13038 -0.487049 0
M  V30 7378 H 717.65 3.51724 1.23873 0
M  V30 7379 N 719.835 0.176821 1.56605 0
M  V30 7380 C 720.782 -0.751312 2.18229 0
M  V30 7381 C 721.752 -1.22297 1.12395 0
M  V30 7382 O 722.937 -1.29015 1.40569 0
M  V30 7383 C 720.077 -1.97291 2.83143 0
M  V30 7384 C 719.19 -1.54431 4.03454 0
M  V30 7385 C 718.325 -2.72 4.56278 0
M  V30 7386 C 717.364 -2.25657 5.68986 0
M  V30 7387 N 716.501 -3.36338 6.16296 0
M  V30 7388 H 721.341 -0.219033 2.97194 0
M  V30 7389 H 718.878 -0.0963803 1.46784 0
M  V30 7390 H 720.836 -2.68949 3.1894 0
M  V30 7391 H 719.466 -2.4788 2.06773 0
M  V30 7392 H 718.518 -0.724273 3.73441 0
M  V30 7393 H 719.83 -1.16417 4.85024 0
M  V30 7394 H 718.984 -3.51806 4.94285 0
M  V30 7395 H 717.723 -3.13277 3.73777 0
M  V30 7396 H 716.728 -1.44299 5.30526 0
M  V30 7397 H 717.953 -1.85432 6.53293 0
M  V30 7398 H 715.899 -3.7718 5.36723 0
M  V30 7399 H 715.816 -3.02435 6.9287 0
M  V30 7400 H 717.084 -4.16413 6.58954 0
M  V30 7401 N 721.313 -1.57302 -0.09688 0
M  V30 7402 C 722.261 -2.02942 -1.13654 0
M  V30 7403 C 723.255 -0.930173 -1.41577 0
M  V30 7404 O 724.461 -1.11535 -1.41279 0
M  V30 7405 H 720.836 -0.646726 -0.383731 0
M  V30 7406 H 722.807 -2.89452 -0.725267 0
M  V30 7407 C 721.556 -2.46815 -2.44903 0
M  V30 7408 H 720.879 -3.30979 -2.24261 0
M  V30 7409 H 722.319 -2.82527 -3.16156 0
M  V30 7410 C 720.778 -1.34071 -3.09074 0
M  V30 7411 O 721.308 -0.668856 -3.96092 0
M  V30 7412 N 719.514 -1.09214 -2.69296 0
M  V30 7413 H 719.061 -1.64029 -1.98626 0
M  V30 7414 H 719.019 -0.339785 -3.12559 0
M  V30 7415 N 722.791 0.367657 -1.53252 0
M  V30 7416 C 724.016 1.13566 -1.73544 0
M  V30 7417 C 724.441 1.82329 -0.462344 0
M  V30 7418 O 723.799 1.71655 0.583472 0
M  V30 7419 C 723.847 2.14322 -2.89997 0
M  V30 7420 O 722.951 3.21359 -2.58461 0
M  V30 7421 H 722.292 0.329614 -0.576412 0
M  V30 7422 H 724.822 0.425417 -2.00128 0
M  V30 7423 H 724.832 2.57958 -3.16104 0
M  V30 7424 H 723.507 1.63664 -3.82344 0
M  V30 7425 H 722.084 2.8271 -2.43165 0
M  V30 7426 N 724.269 1.44576 0.627338 0
M  V30 7427 C 725.216 1.51734 1.73912 0
M  V30 7428 C 726.186 0.364745 1.62046 0
M  V30 7429 O 727.371 0.575503 1.81914 0
M  V30 7430 C 724.511 1.47116 3.12171 0
M  V30 7431 C 723.624 2.72778 3.34986 0
M  V30 7432 C 722.759 2.59968 4.63239 0
M  V30 7433 C 721.798 3.80776 4.79245 0
M  V30 7434 N 720.935 3.66618 5.98778 0
M  V30 7435 H 725.775 2.46722 1.6713 0
M  V30 7436 H 723.312 1.22444 0.815224 0
M  V30 7437 H 725.27 1.42429 3.92135 0
M  V30 7438 H 723.9 0.556928 3.17959 0
M  V30 7439 H 722.952 2.87637 2.48936 0
M  V30 7440 H 724.264 3.62441 3.42692 0
M  V30 7441 H 723.418 2.53135 5.51369 0
M  V30 7442 H 722.157 1.67872 4.57898 0
M  V30 7443 H 721.162 3.87989 3.89544 0
M  V30 7444 H 722.387 4.73913 4.86398 0
M  V30 7445 H 720.333 2.77277 5.9452 0
M  V30 7446 H 720.25 4.499 6.07557 0
M  V30 7447 H 721.518 3.63684 6.89459 0
M  V30 7448 N 725.747 -0.868086 1.31537 0
M  V30 7449 C 726.677 -1.99131 1.21939 0
M  V30 7450 C 727.658 -1.69768 0.106166 0
M  V30 7451 O 728.843 -1.92006 0.291081 0
M  V30 7452 C 725.973 -3.34676 0.927879 0
M  V30 7453 C 724.927 -3.7835 2.00088 0
M  V30 7454 C 724.253 -5.11375 1.56203 0
M  V30 7455 C 725.553 -3.95256 3.41424 0
M  V30 7456 H 727.247 -2.07419 2.15911 0
M  V30 7457 H 724.793 -0.996569 1.03945 0
M  V30 7458 H 726.746 -4.12793 0.847327 0
M  V30 7459 H 725.47 -3.26565 -0.0475042 0
M  V30 7460 H 724.129 -3.02474 2.07135 0
M  V30 7461 H 723.777 -4.99709 0.57445 0
M  V30 7462 H 723.477 -5.41568 2.27985 0
M  V30 7463 H 725.001 -5.92001 1.49558 0
M  V30 7464 H 726.415 -4.63764 3.3704 0
M  V30 7465 H 724.812 -4.36849 4.1144 0
M  V30 7466 H 725.882 -2.98579 3.82072 0
M  V30 7467 N 727.225 -1.14528 -1.08264 0
M  V30 7468 C 728.173 -0.829201 -2.17318 0
M  V30 7469 C 729.167 0.193521 -1.68291 0
M  V30 7470 O 730.373 0.0494744 -1.79932 0
M  V30 7471 H 726.748 -0.250435 -0.709074 0
M  V30 7472 H 728.719 -1.75683 -2.41201 0
M  V30 7473 C 727.468 -0.324663 -3.46181 0
M  V30 7474 H 726.791 -1.10299 -3.84284 0
M  V30 7475 H 728.231 -0.142059 -4.23762 0
M  V30 7476 C 726.69 0.952033 -3.23169 0
M  V30 7477 O 727.22 2.02549 -3.46896 0
M  V30 7478 N 725.426 0.887854 -2.76705 0
M  V30 7479 H 724.973 0.0141402 -2.57596 0
M  V30 7480 H 724.931 1.74263 -2.61686 0
M  V30 7481 N 728.703 1.26451 -0.940633 0
M  V30 7482 C 729.928 1.98407 -0.60412 0
M  V30 7483 C 730.353 1.69584 0.81382 0
M  V30 7484 O 729.711 0.943553 1.54812 0
M  V30 7485 C 729.759 3.50387 -0.852136 0
M  V30 7486 O 728.863 4.1233 0.076013 0
M  V30 7487 H 728.204 0.622466 -0.231153 0
M  V30 7488 H 730.734 1.60932 -1.26342 0
M  V30 7489 H 730.744 4.00614 -0.772816 0
M  V30 7490 H 729.419 3.70696 -1.88566 0
M  V30 7491 H 727.996 3.7286 -0.0543187 0
M  V30 7492 N 730.181 0.707592 1.40822 0
M  V30 7493 C 731.131 0.0265008 2.27985 0
M  V30 7494 C 732.115 -0.740685 1.42838 0
M  V30 7495 O 733.307 -0.6142 1.66002 0
M  V30 7496 C 730.436 -0.900382 3.31282 0
M  V30 7497 C 729.522 -0.128807 4.23904 0
M  V30 7498 N 729.913 0.883744 4.9802 0
M  V30 7499 C 728.211 -0.362539 4.44524 0
M  V30 7500 C 728.912 1.34666 5.65898 0
M  V30 7501 N 727.888 0.670306 5.39451 0
M  V30 7502 H 731.69 0.802667 2.82727 0
M  V30 7503 H 729.204 0.539475 1.53178 0
M  V30 7504 H 731.201 -1.40357 3.92563 0
M  V30 7505 H 729.861 -1.67601 2.781 0
M  V30 7506 H 730.872 1.26435 5.0223 0
M  V30 7507 H 727.549 -1.11512 4.02332 0
M  V30 7508 H 728.939 2.18756 6.35292 0
M  V30 7509 N 731.66 -1.50943 0.453197 0
M  V30 7510 C 732.592 -2.25922 -0.38623 0
M  V30 7511 C 733.605 -1.3055 -0.972652 0
M  V30 7512 O 734.794 -1.56191 -0.864097 0
M  V30 7513 C 731.894 -3.01176 -1.5539 0
M  V30 7514 C 731.067 -4.23768 -1.0835 0
M  V30 7515 C 730.126 -4.81466 -2.12313 0
M  V30 7516 O 729.152 -5.42875 -1.71101 0
M  V30 7517 N 730.354 -4.66889 -3.44956 0
M  V30 7518 H 733.119 -2.98601 0.256468 0
M  V30 7519 H 730.68 -1.59408 0.282965 0
M  V30 7520 H 732.672 -3.36659 -2.24594 0
M  V30 7521 H 731.242 -2.31409 -2.10163 0
M  V30 7522 H 730.462 -3.93597 -0.217961 0
M  V30 7523 H 731.75 -5.03289 -0.746857 0
M  V30 7524 H 731.148 -4.18011 -3.81161 0
M  V30 7525 H 729.705 -5.06691 -4.1001 0
M  V30 7526 N 733.138 -0.185124 -1.56509 0
M  V30 7527 C 734.085 0.739729 -2.18624 0
M  V30 7528 C 735.055 1.217 -1.13042 0
M  V30 7529 O 736.24 1.28268 -1.41251 0
M  V30 7530 C 733.38 1.95787 -2.84186 0
M  V30 7531 C 732.493 1.52289 -4.04267 0
M  V30 7532 C 731.628 2.69576 -4.57714 0
M  V30 7533 C 730.667 2.22636 -5.70175 0
M  V30 7534 N 729.804 3.33065 -6.18071 0
M  V30 7535 H 734.644 0.203269 -2.97306 0
M  V30 7536 H 732.181 0.0885946 -1.46833 0
M  V30 7537 H 734.139 2.67253 -3.20361 0
M  V30 7538 H 732.769 2.4678 -2.08085 0
M  V30 7539 H 731.821 0.704458 -3.7382 0
M  V30 7540 H 733.133 1.13843 -4.85635 0
M  V30 7541 H 732.287 3.4918 -4.96143 0
M  V30 7542 H 731.026 3.1129 -3.75433 0
M  V30 7543 H 730.031 1.41483 -5.31284 0
M  V30 7544 H 731.256 1.81964 -6.54267 0
M  V30 7545 H 729.202 3.74328 -5.38715 0
M  V30 7546 H 729.119 2.98756 -6.94464 0
M  V30 7547 H 730.387 4.12912 -6.61153 0
M  V30 7548 N 734.616 1.57351 0.0885366 0
M  V30 7549 C 735.862 1.86696 0.791996 0
M  V30 7550 C 736.195 0.775148 1.78059 0
M  V30 7551 O 735.47 -0.216247 1.93294 0
M  V30 7552 C 735.753 3.26684 1.51491 0
M  V30 7553 C 735.606 4.465 0.543858 0
M  V30 7554 C 736.925 3.64664 2.46391 0
M  V30 7555 H 734.044 0.679049 0.286463 0
M  V30 7556 H 736.686 1.89919 0.0554866 0
M  V30 7557 H 734.836 3.24067 2.14273 0
M  V30 7558 H 736.508 4.61235 -0.0774597 0
M  V30 7559 H 734.751 4.33567 -0.142228 0
M  V30 7560 H 735.422 5.41192 1.08696 0
M  V30 7561 H 737.898 3.68267 1.93698 0
M  V30 7562 H 736.774 4.63534 2.93986 0
M  V30 7563 H 737.035 2.93698 3.30445 0
M  V30 7564 N 736.094 -0.359525 1.53444 0
M  V30 7565 C 737.322 -1.12198 1.73837 0
M  V30 7566 C 737.737 -1.82854 0.470107 0
M  V30 7567 O 737.094 -1.73781 -0.557349 0
M  V30 7568 C 737.145 -2.14769 2.90786 0
M  V30 7569 O 736.866 -1.46989 4.12706 0
M  V30 7570 C 738.367 -3.03514 3.231 0
M  V30 7571 H 735.587 -0.33524 0.581253 0
M  V30 7572 H 738.131 -0.416598 2.00212 0
M  V30 7573 H 736.286 -2.80896 2.66788 0
M  V30 7574 H 736.7 -2.15378 4.78239 0
M  V30 7575 H 738.174 -3.71453 4.08322 0
M  V30 7576 H 738.651 -3.68658 2.38721 0
M  V30 7577 H 739.257 -2.42996 3.49046 0
M  V30 7578 N 737.572 -1.44907 -0.619662 0
M  V30 7579 C 738.502 -1.55488 -1.742 0
M  V30 7580 C 739.483 -0.407143 -1.65156 0
M  V30 7581 O 740.668 -0.628743 -1.8374 0
M  V30 7582 C 737.798 -1.5097 -3.1277 0
M  V30 7583 C 736.752 -2.64337 -3.36615 0
M  V30 7584 C 736.078 -2.44872 -4.75333 0
M  V30 7585 C 737.378 -4.06423 -3.28051 0
M  V30 7586 H 739.072 -2.49432 -1.65602 0
M  V30 7587 H 736.618 -1.20047 -0.795281 0
M  V30 7588 H 738.571 -1.56971 -3.91073 0
M  V30 7589 H 737.295 -0.535486 -3.2218 0
M  V30 7590 H 735.954 -2.57744 -2.60698 0
M  V30 7591 H 735.602 -1.45617 -4.81461 0
M  V30 7592 H 735.302 -3.20888 -4.92244 0
M  V30 7593 H 736.826 -2.52709 -5.55851 0
M  V30 7594 H 738.24 -4.14324 -3.96243 0
M  V30 7595 H 736.637 -4.82733 -3.56495 0
M  V30 7596 H 737.707 -4.29183 -2.25676 0
M  V30 7597 N 739.05 0.861098 -1.31996 0
M  V30 7598 C 739.98 1.98482 -1.22993 0
M  V30 7599 C 740.961 1.6971 -0.115168 0
M  V30 7600 O 742.146 1.91849 -0.30126 0
M  V30 7601 C 739.276 3.34179 -0.945615 0
M  V30 7602 C 738.23 3.77284 -2.02091 0
M  V30 7603 C 737.556 5.1054 -1.58912 0
M  V30 7604 C 738.856 3.93439 -3.43515 0
M  V30 7605 H 740.55 2.06271 -2.17008 0
M  V30 7606 H 738.096 0.991043 -1.04472 0
M  V30 7607 H 740.049 4.12338 -0.869206 0
M  V30 7608 H 738.773 3.26586 0.0301849 0
M  V30 7609 H 737.432 3.01371 -2.08737 0
M  V30 7610 H 737.08 4.99397 -0.600942 0
M  V30 7611 H 736.78 5.40352 -2.30854 0
M  V30 7612 H 738.304 5.91199 -1.52696 0
M  V30 7613 H 739.718 4.6197 -3.39495 0
M  V30 7614 H 738.115 4.34661 -4.13751 0
M  V30 7615 H 739.185 2.96548 -3.8365 0
M  V30 7616 N 740.528 1.15101 1.07655 0
M  V30 7617 C 741.46 0.802722 2.14684 0
M  V30 7618 C 742.473 -0.183874 1.61758 0
M  V30 7619 O 743.662 0.0389349 1.78458 0
M  V30 7620 C 740.762 0.172135 3.38463 0
M  V30 7621 C 739.935 1.19538 4.20749 0
M  V30 7622 C 738.994 0.58714 5.22914 0
M  V30 7623 O 738.02 1.25224 5.55255 0
M  V30 7624 N 739.222 -0.632566 5.77043 0
M  V30 7625 H 741.987 1.72379 2.45164 0
M  V30 7626 H 739.548 1.04647 1.23534 0
M  V30 7627 H 741.54 -0.247465 4.03943 0
M  V30 7628 H 740.11 -0.652214 3.0572 0
M  V30 7629 H 739.33 1.79165 3.51132 0
M  V30 7630 H 740.618 1.88636 4.7254 0
M  V30 7631 H 740.016 -1.19135 5.53013 0
M  V30 7632 H 738.573 -0.994566 6.44167 0
M  V30 7633 N 742.006 -1.2595 0.947325 0
M  V30 7634 C 742.936 -2.28521 0.479604 0
M  V30 7635 C 743.917 -1.63469 -0.470293 0
M  V30 7636 O 745.102 -1.90627 -0.370824 0
M  V30 7637 C 742.232 -3.46397 -0.250289 0
M  V30 7638 C 741.186 -4.23578 0.613643 0
M  V30 7639 C 740.512 -5.34131 -0.246568 0
M  V30 7640 C 741.812 -4.86979 1.88809 0
M  V30 7641 H 743.506 -2.67895 1.33688 0
M  V30 7642 H 741.052 -1.28783 0.644274 0
M  V30 7643 H 743.005 -4.17269 -0.588576 0
M  V30 7644 H 741.729 -3.05993 -1.14175 0
M  V30 7645 H 740.388 -3.54478 0.93491 0
M  V30 7646 H 740.036 -4.89968 -1.13756 0
M  V30 7647 H 739.736 -5.86683 0.328123 0
M  V30 7648 H 741.26 -6.07839 -0.579986 0
M  V30 7649 H 742.674 -5.50034 1.61666 0
M  V30 7650 H 741.071 -5.49675 2.40784 0
M  V30 7651 H 742.141 -4.09575 2.5957 0
M  V30 7652 N 743.484 -0.715051 -1.40445 0
M  V30 7653 C 744.414 -0.0768699 -2.33373 0
M  V30 7654 C 745.395 0.746109 -1.52863 0
M  V30 7655 O 746.58 0.695142 -1.81332 0
M  V30 7656 C 743.71 0.846014 -3.36838 0
M  V30 7657 C 742.664 0.128694 -4.27806 0
M  V30 7658 C 741.99 1.16726 -5.21804 0
M  V30 7659 C 743.29 -1.01679 -5.12307 0
M  V30 7660 H 744.984 -0.853061 -2.8699 0
M  V30 7661 H 742.53 -0.41167 -1.3799 0
M  V30 7662 H 744.483 1.30185 -4.00786 0
M  V30 7663 H 743.207 1.6541 -2.81615 0
M  V30 7664 H 741.866 -0.307314 -3.6531 0
M  V30 7665 H 741.514 1.96838 -4.62887 0
M  V30 7666 H 741.214 0.692188 -5.83509 0
M  V30 7667 H 742.738 1.62321 -5.88629 0
M  V30 7668 H 744.152 -0.640337 -5.69713 0
M  V30 7669 H 742.549 -1.4202 -5.83053 0
M  V30 7670 H 743.619 -1.84769 -4.48317 0
M  V30 7671 N 744.962 1.50701 -0.461195 0
M  V30 7672 C 745.892 2.31182 0.328184 0
M  V30 7673 C 746.873 1.37644 0.999408 0
M  V30 7674 O 748.058 1.66565 0.99848 0
M  V30 7675 C 745.188 3.17113 1.41621 0
M  V30 7676 C 744.142 4.19124 0.867148 0
M  V30 7677 C 743.468 4.93728 2.05272 0
M  V30 7678 C 744.768 5.22174 -0.114808 0
M  V30 7679 H 746.462 2.97423 -0.343501 0
M  V30 7680 H 744.008 1.43033 -0.166641 0
M  V30 7681 H 745.961 3.72208 1.97584 0
M  V30 7682 H 744.685 2.48739 2.11652 0
M  V30 7683 H 743.344 3.65116 0.329557 0
M  V30 7684 H 742.992 4.21835 2.73978 0
M  V30 7685 H 742.692 5.62724 1.69161 0
M  V30 7686 H 744.216 5.51654 2.61744 0
M  V30 7687 H 745.63 5.72198 0.355316 0
M  V30 7688 H 744.027 5.98833 -0.389689 0
M  V30 7689 H 745.097 4.7353 -1.04391 0
M  V30 7690 N 746.441 0.193421 1.56409 0
M  V30 7691 C 747.689 -0.444908 1.97142 0
M  V30 7692 C 748.01 -1.62268 1.08139 0
M  V30 7693 O 747.28 -1.95307 0.152326 0
M  V30 7694 H 745.86 -0.16736 0.728011 0
M  V30 7695 H 748.522 0.279763 1.92882 0
M  V30 7696 H 747.618 -0.790159 3.01932 0
M  V30 7697 N 747.919 -1.57396 -0.0801906 0
M  V30 7698 C 748.869 -1.9955 -1.10289 0
M  V30 7699 C 749.853 -0.876234 -1.34948 0
M  V30 7700 O 751.045 -1.14012 -1.35389 0
M  V30 7701 C 748.174 -2.43596 -2.419 0
M  V30 7702 C 747.26 -3.6224 -2.20551 0
M  V30 7703 N 747.651 -4.76693 -1.69109 0
M  V30 7704 C 745.949 -3.68627 -2.51059 0
M  V30 7705 C 746.65 -5.58577 -1.62379 0
M  V30 7706 N 745.626 -5.02178 -2.0813 0
M  V30 7707 H 749.428 -2.85483 -0.698335 0
M  V30 7708 H 746.942 -1.59837 -0.287395 0
M  V30 7709 H 748.939 -2.72031 -3.15919 0
M  V30 7710 H 747.599 -1.59047 -2.8308 0
M  V30 7711 H 748.61 -4.9915 -1.38092 0
M  V30 7712 H 745.287 -2.94772 -2.95661 0
M  V30 7713 H 746.677 -6.60447 -1.2353 0
M  V30 7714 N 749.397 0.351382 -1.53633 0
M  V30 7715 C 750.344 1.43115 -1.81071 0
M  V30 7716 C 751.314 1.52601 -0.655913 0
M  V30 7717 O 752.499 1.68264 -0.89955 0
M  V30 7718 C 749.639 2.79874 -2.01903 0
M  V30 7719 C 748.752 2.79242 -3.29618 0
M  V30 7720 C 747.887 4.07667 -3.40559 0
M  V30 7721 C 746.926 4.01233 -4.62254 0
M  V30 7722 N 746.063 5.21334 -4.70271 0
M  V30 7723 H 750.903 1.19017 -2.73201 0
M  V30 7724 H 748.44 0.576691 -1.35324 0
M  V30 7725 H 750.398 3.5934 -2.11969 0
M  V30 7726 H 749.028 3.0234 -1.13094 0
M  V30 7727 H 748.08 1.91927 -3.28433 0
M  V30 7728 H 749.392 2.70363 -4.19172 0
M  V30 7729 H 748.546 4.95555 -3.50015 0
M  V30 7730 H 747.285 4.19317 -2.49047 0
M  V30 7731 H 746.29 3.11732 -4.52884 0
M  V30 7732 H 747.515 3.91173 -5.55122 0
M  V30 7733 H 745.461 5.33543 -3.81665 0
M  V30 7734 H 745.378 5.14681 -5.5375 0
M  V30 7735 H 746.646 6.11014 -4.84027 0
M  V30 7736 N 750.875 1.45233 0.611969 0
M  V30 7737 C 751.823 1.53898 1.74408 0
M  V30 7738 C 752.817 0.409254 1.64382 0
M  V30 7739 O 754.023 0.584988 1.70229 0
M  V30 7740 H 750.398 0.483303 0.576127 0
M  V30 7741 H 752.369 2.49143 1.64227 0
M  V30 7742 C 751.118 1.51865 3.12782 0
M  V30 7743 H 750.441 2.38118 3.21154 0
M  V30 7744 H 751.881 1.61986 3.91838 0
M  V30 7745 C 750.34 0.242374 3.36027 0
M  V30 7746 O 750.87 -0.679587 3.9591 0
M  V30 7747 N 749.076 0.139448 2.90265 0
M  V30 7748 H 748.623 0.890571 2.41716 0
M  V30 7749 H 748.581 -0.713686 3.06193 0
M  V30 7750 N 752.353 -0.854086 1.3245 0
M  V30 7751 C 753.263 -1.99503 1.23434 0
M  V30 7752 C 754.279 -1.73371 0.147828 0
M  V30 7753 O 755.455 -1.97998 0.368609 0
M  V30 7754 C 752.52 -3.33192 0.958328 0
M  V30 7755 C 751.581 -3.72542 2.13333 0
M  V30 7756 C 750.814 -4.99852 1.8704 0
M  V30 7757 O 751.037 -5.64573 0.813239 0
M  V30 7758 O 749.971 -5.36345 2.73161 0
M  V30 7759 H 753.797 -2.10046 2.1935 0
M  V30 7760 H 751.382 -0.984823 1.12346 0
M  V30 7761 H 753.264 -4.13327 0.820918 0
M  V30 7762 H 751.939 -3.23687 0.0293299 0
M  V30 7763 H 750.846 -2.92981 2.32622 0
M  V30 7764 H 752.179 -3.86694 3.04514 0
M  V30 7765 N 753.831 -1.1567 -1.07043 0
M  V30 7766 C 754.741 -0.870435 -2.17855 0
M  V30 7767 C 755.757 0.154452 -1.73313 0
M  V30 7768 O 756.933 -0.0203759 -2.0139 0
M  V30 7769 C 753.998 -0.367219 -3.4475 0
M  V30 7770 C 753.059 -1.45639 -4.03841 0
M  V30 7771 C 752.292 -0.977092 -5.2468 0
M  V30 7772 O 752.515 0.176127 -5.70128 0
M  V30 7773 O 751.449 -1.76215 -5.75527 0
M  V30 7774 H 755.275 -1.79687 -2.44839 0
M  V30 7775 H 752.86 -0.936064 -1.1644 0
M  V30 7776 H 754.742 -0.0931947 -4.21297 0
M  V30 7777 H 753.417 0.53131 -3.1931 0
M  V30 7778 H 752.324 -1.78406 -3.28819 0
M  V30 7779 H 753.657 -2.32995 -4.3356 0
M  V30 7780 N 755.309 1.25446 -0.953992 0
M  V30 7781 C 756.257 2.27909 -0.46478 0
M  V30 7782 C 757.251 1.62904 0.464607 0
M  V30 7783 O 758.457 1.76733 0.341407 0
M  V30 7784 H 754.832 0.74036 -0.131798 0
M  V30 7785 H 756.803 2.66559 -1.34122 0
M  V30 7786 C 755.552 3.46853 0.242589 0
M  V30 7787 H 754.875 3.97105 -0.463418 0
M  V30 7788 H 756.315 4.20432 0.548919 0
M  V30 7789 C 754.774 3.03386 1.46487 0
M  V30 7790 O 755.304 3.09342 2.56262 0
M  V30 7791 N 753.51 2.58584 1.32599 0
M  V30 7792 H 753.057 2.53938 0.432834 0
M  V30 7793 H 753.015 2.29866 2.14497 0
M  V30 7794 N 756.787 0.722489 1.40064 0
M  V30 7795 C 758.033 0.265371 2.01056 0
M  V30 7796 C 758.366 -1.14062 1.57174 0
M  V30 7797 O 757.641 -1.77514 0.794916 0
M  V30 7798 C 757.924 0.353157 3.58364 0
M  V30 7799 C 757.777 1.79802 4.123 0
M  V30 7800 C 759.096 -0.271677 4.39261 0
M  V30 7801 H 756.215 0.0979002 0.730469 0
M  V30 7802 H 758.857 0.916289 1.66446 0
M  V30 7803 H 757.007 -0.201037 3.87979 0
M  V30 7804 H 758.679 2.40813 3.93455 0
M  V30 7805 H 756.922 2.32348 3.66329 0
M  V30 7806 H 757.593 1.81079 5.21454 0
M  V30 7807 H 760.069 0.200607 4.15616 0
M  V30 7808 H 758.945 -0.179843 5.48605 0
M  V30 7809 H 759.206 -1.35611 4.20787 0
M  V30 7810 N 758.265 -1.50454 0.469181 0
M  V30 7811 C 759.175 -2.32248 -0.331349 0
M  V30 7812 C 760.191 -1.42548 -0.997807 0
M  V30 7813 O 761.367 -1.75602 -0.9862 0
M  V30 7814 C 758.432 -3.17171 -1.40012 0
M  V30 7815 C 757.493 -4.2269 -0.750463 0
M  V30 7816 C 756.726 -5.03554 -1.76831 0
M  V30 7817 O 756.949 -4.85469 -2.99459 0
M  V30 7818 O 755.883 -5.86767 -1.3412 0
M  V30 7819 H 759.709 -3.01821 0.337279 0
M  V30 7820 H 757.294 -1.47602 0.231066 0
M  V30 7821 H 759.176 -3.69871 -2.01924 0
M  V30 7822 H 757.851 -2.50328 -2.05226 0
M  V30 7823 H 756.758 -3.73986 -0.0924446 0
M  V30 7824 H 758.091 -4.91997 -0.14131 0
M  V30 7825 N 759.743 -0.201713 -1.56304 0
M  V30 7826 C 760.69 0.716499 -2.19397 0
M  V30 7827 C 761.66 1.20494 -1.14326 0
M  V30 7828 O 762.845 1.26763 -1.42604 0
M  V30 7829 C 759.985 1.92762 -2.86246 0
M  V30 7830 C 759.098 1.47993 -4.0586 0
M  V30 7831 C 758.233 2.64706 -4.60547 0
M  V30 7832 C 757.272 2.16576 -5.72504 0
M  V30 7833 N 756.409 3.26491 -6.21569 0
M  V30 7834 H 761.249 0.171724 -2.97505 0
M  V30 7835 H 758.786 0.073016 -1.46919 0
M  V30 7836 H 760.744 2.6384 -3.23178 0
M  V30 7837 H 759.374 2.44559 -2.10691 0
M  V30 7838 H 758.426 0.66477 -3.74546 0
M  V30 7839 H 759.738 1.08686 -4.86815 0
M  V30 7840 H 758.892 3.43898 -4.99819 0
M  V30 7841 H 757.631 3.0729 -3.78713 0
M  V30 7842 H 756.636 1.3584 -5.32755 0
M  V30 7843 H 757.861 1.75015 -6.56161 0
M  V30 7844 H 755.807 3.68594 -5.42655 0
M  V30 7845 H 755.724 2.91374 -6.97594 0
M  V30 7846 H 756.992 4.05877 -6.65495 0
M  V30 7847 N 761.222 1.57436 0.0718424 0
M  V30 7848 C 762.17 2.04725 1.10411 0
M  V30 7849 C 763.164 0.952579 1.4008 0
M  V30 7850 O 764.37 1.13769 1.39487 0
M  V30 7851 H 760.745 0.652749 0.373393 0
M  V30 7852 H 762.716 2.90569 0.679126 0
M  V30 7853 C 761.465 2.5068 2.40946 0
M  V30 7854 H 760.788 3.34505 2.18967 0
M  V30 7855 H 762.228 2.87521 3.11621 0
M  V30 7856 C 760.687 1.38971 3.06902 0
M  V30 7857 O 761.217 0.731786 3.94978 0
M  V30 7858 N 759.423 1.13485 2.67525 0
M  V30 7859 H 758.97 1.67168 1.95991 0
M  V30 7860 H 758.928 0.389467 3.11978 0
M  V30 7861 N 762.7 -0.34323 1.53817 0
M  V30 7862 C 763.928 -1.10348 1.75017 0
M  V30 7863 C 764.343 -1.82345 0.489475 0
M  V30 7864 O 763.7 -1.74362 -0.538886 0
M  V30 7865 C 763.751 -2.11672 2.93048 0
M  V30 7866 O 763.472 -1.42603 4.14241 0
M  V30 7867 C 764.973 -3.0007 3.26301 0
M  V30 7868 H 762.193 -0.329056 0.584776 0
M  V30 7869 H 764.737 -0.395339 2.00642 0
M  V30 7870 H 762.892 -2.78051 2.69753 0
M  V30 7871 H 763.306 -2.10294 4.80496 0
M  V30 7872 H 764.78 -3.67101 4.12239 0
M  V30 7873 H 765.257 -3.66105 2.42618 0
M  V30 7874 H 765.863 -2.3928 3.51604 0
M  V30 7875 N 764.178 -1.45556 -0.604258 0
M  V30 7876 C 765.403 -1.53509 -1.39462 0
M  V30 7877 C 765.828 -0.169638 -1.87333 0
M  V30 7878 O 765.186 0.846346 -1.60333 0
M  V30 7879 C 765.234 -2.52654 -2.5729 0
M  V30 7880 O 764.338 -2.04666 -3.5803 0
M  V30 7881 H 763.679 -0.517355 -0.416221 0
M  V30 7882 H 766.209 -1.90939 -0.735072 0
M  V30 7883 H 766.219 -2.71568 -3.04491 0
M  V30 7884 H 764.894 -3.51823 -2.21797 0
M  V30 7885 H 763.471 -1.95643 -3.17456 0
M  V30 7886 N 765.656 0.84705 -1.32902 0
M  V30 7887 C 767.067 1.41785 -1.21466 0
M  V30 7888 C 767.418 1.95464 0.169767 0
M  V30 7889 O 766.543 1.88157 1.06892 0
M  V30 7890 C 767.138 2.57734 -2.19906 0
M  V30 7891 C 765.697 3.10791 -2.12334 0
M  V30 7892 C 764.844 1.83562 -2.07847 0
M  V30 7893 H 767.795 0.653532 -1.44619 0
M  V30 7894 H 767.816 3.35123 -1.80202 0
M  V30 7895 H 767.328 2.18635 -3.20656 0
M  V30 7896 H 765.429 3.54455 -1.14858 0
M  V30 7897 H 765.542 3.71519 -3.02506 0
M  V30 7898 H 763.906 2.03475 -1.53199 0
M  V30 7899 H 764.689 1.4667 -3.10392 0
M  V30 7900 N 767.134 1.16236 1.06428 0
M  V30 7901 C 768.066 0.825446 2.1382 0
M  V30 7902 C 769.079 -0.166707 1.61944 0
M  V30 7903 O 770.268 0.0578606 1.78406 0
M  V30 7904 C 767.368 0.208023 3.38261 0
M  V30 7905 C 766.541 1.23994 4.19457 0
M  V30 7906 C 765.6 0.642569 5.22262 0
M  V30 7907 O 764.626 1.31106 5.53895 0
M  V30 7908 N 765.828 -0.571327 5.77682 0
M  V30 7909 H 768.593 1.7497 2.43322 0
M  V30 7910 H 766.154 1.05951 1.22417 0
M  V30 7911 H 768.146 -0.204608 4.04182 0
M  V30 7912 H 766.716 -0.619752 3.06395 0
M  V30 7913 H 765.936 1.82879 3.49212 0
M  V30 7914 H 767.224 1.93638 4.70512 0
M  V30 7915 H 766.622 -1.13263 5.54245 0
M  V30 7916 H 765.179 -0.926187 6.45186 0
M  V30 7917 N 768.612 -1.24939 0.960631 0
M  V30 7918 C 769.86 -1.92437 0.617441 0
M  V30 7919 C 770.181 -1.75543 -0.849101 0
M  V30 7920 O 769.451 -1.12269 -1.60538 0
M  V30 7921 H 768.031 -0.712192 0.225371 0
M  V30 7922 H 770.693 -1.5198 1.22017 0
M  V30 7923 H 769.789 -3.00247 0.851933 0
M  V30 7924 N 770.09 -0.729906 -1.39679 0
M  V30 7925 C 771.336 -0.27603 -2.00913 0
M  V30 7926 C 771.669 1.13227 -1.57776 0
M  V30 7927 O 770.944 1.7709 -0.804319 0
M  V30 7928 C 771.227 -0.372157 -3.58172 0
M  V30 7929 C 771.08 -1.81986 -4.11341 0
M  V30 7930 C 772.399 0.248378 -4.39399 0
M  V30 7931 H 769.518 -0.101773 -0.729939 0
M  V30 7932 H 772.16 -0.925104 -1.65957 0
M  V30 7933 H 770.31 0.180459 -3.88081 0
M  V30 7934 H 771.982 -2.42896 -3.92172 0
M  V30 7935 H 770.225 -2.34287 -3.65092 0
M  V30 7936 H 770.896 -1.83842 -5.20486 0
M  V30 7937 H 773.372 -0.222645 -4.15504 0
M  V30 7938 H 772.248 0.150746 -5.48693 0
M  V30 7939 H 772.509 1.33378 -4.21501 0
M  V30 7940 N 771.568 1.50203 -0.477153 0
M  V30 7941 C 772.518 2.25561 0.332625 0
M  V30 7942 C 773.502 1.29401 0.956249 0
M  V30 7943 O 774.694 1.54267 0.867795 0
M  V30 7944 C 771.823 3.12984 1.41052 0
M  V30 7945 C 770.909 4.16595 0.79433 0
M  V30 7946 N 771.3 5.05722 -0.0889633 0
M  V30 7947 C 769.598 4.33279 1.0576 0
M  V30 7948 C 770.299 5.80039 -0.439286 0
M  V30 7949 N 769.275 5.43278 0.187018 0
M  V30 7950 H 773.077 2.91836 -0.347718 0
M  V30 7951 H 770.591 1.59759 -0.291686 0
M  V30 7952 H 772.588 3.65582 2.00388 0
M  V30 7953 H 771.248 2.48258 2.09279 0
M  V30 7954 H 772.259 5.15869 -0.458205 0
M  V30 7955 H 768.936 3.79769 1.7344 0
M  V30 7956 H 770.326 6.61802 -1.1605 0
M  V30 7957 N 773.046 0.209999 1.56195 0
M  V30 7958 C 773.994 -0.721416 2.2113 0
M  V30 7959 C 774.988 -1.20852 1.18706 0
M  V30 7960 O 776.194 -1.16968 1.36815 0
M  V30 7961 H 772.569 -0.251033 0.708863 0
M  V30 7962 H 774.54 -0.150193 2.98022 0
M  V30 7963 C 773.289 -1.92392 2.89621 0
M  V30 7964 H 772.612 -1.5582 3.68185 0
M  V30 7965 H 774.052 -2.55367 3.38473 0
M  V30 7966 C 772.511 -2.77208 1.91461 0
M  V30 7967 O 773.041 -3.75603 1.42426 0
M  V30 7968 N 771.247 -2.43006 1.59363 0
M  V30 7969 H 770.794 -1.63047 1.99433 0
M  V30 7970 H 770.752 -3.00036 0.939449 0
M  V30 7971 N 774.524 -1.57472 -0.0634922 0
M  V30 7972 C 775.801 -1.78736 -0.794538 0
M  V30 7973 C 776.181 -0.799645 -1.95369 0
M  V30 7974 O 775.529 0.165521 -2.279 0
M  V30 7975 C 775.739 -3.25471 -1.25975 0
M  V30 7976 C 777.087 -3.89528 -1.68976 0
M  V30 7977 O 778.111 -3.29412 -1.35521 0
M  V30 7978 O 776.97 -4.95305 -2.30944 0
M  V30 7979 H 774.064 -0.733813 -0.381376 0
M  V30 7980 H 776.61 -1.69646 -0.0429258 0
M  V30 7981 H 775.382 -3.88922 -0.430721 0
M  V30 7982 H 775.005 -3.39317 -2.07243 0
M  V30 7983 N 776.003 0.335068 -1.53997 0
M  V30 7984 C 777.249 1.07594 -1.71905 0
M  V30 7985 C 777.582 1.88039 -0.485264 0
M  V30 7986 O 776.857 1.87482 0.517752 0
M  V30 7987 C 777.14 2.01016 -2.98772 0
M  V30 7988 C 776.993 1.23977 -4.32377 0
M  V30 7989 C 778.312 3.0071 -3.21343 0
M  V30 7990 H 775.431 0.38976 -0.625505 0
M  V30 7991 H 778.073 0.353684 -1.86679 0
M  V30 7992 H 776.223 2.62603 -2.86307 0
M  V30 7993 H 777.895 0.649383 -4.56706 0
M  V30 7994 H 776.138 0.541878 -4.30402 0
M  V30 7995 H 776.809 1.92512 -5.17342 0
M  V30 7996 H 779.285 2.4924 -3.33194 0
M  V30 7997 H 778.161 3.63272 -4.11491 0
M  V30 7998 H 778.422 3.72549 -2.38033 0
M  V30 7999 N 777.481 1.45874 0.596531 0
M  V30 8000 C 778.706 1.54247 1.38646 0
M  V30 8001 C 779.131 0.179571 1.87241 0
M  V30 8002 O 778.489 -0.837831 1.6078 0
M  V30 8003 C 778.537 2.54015 2.55946 0
M  V30 8004 O 777.641 2.06561 3.5694 0
M  V30 8005 H 776.982 0.519555 0.413471 0
M  V30 8006 H 779.512 1.91327 0.724936 0
M  V30 8007 H 779.522 2.73179 3.03047 0
M  V30 8008 H 778.197 3.52994 2.19928 0
M  V30 8009 H 776.774 1.97324 3.16414 0
M  V30 8010 N 778.959 -0.83999 1.33349 0
M  V30 8011 C 779.906 -1.94972 1.23509 0
M  V30 8012 C 780.876 -1.65709 0.113967 0
M  V30 8013 O 782.061 -1.88552 0.292045 0
M  V30 8014 C 779.201 -3.30919 0.979105 0
M  V30 8015 C 778.314 -3.72587 2.18639 0
M  V30 8016 C 777.449 -4.97397 1.86465 0
M  V30 8017 C 776.488 -5.31597 3.03432 0
M  V30 8018 N 775.625 -6.47584 2.71254 0
M  V30 8019 H 780.465 -2.0272 2.18423 0
M  V30 8020 H 778.002 -0.992017 1.08616 0
M  V30 8021 H 779.96 -4.09239 0.811126 0
M  V30 8022 H 778.59 -3.22731 0.0667099 0
M  V30 8023 H 777.642 -2.89799 2.46416 0
M  V30 8024 H 778.954 -3.93844 3.06086 0
M  V30 8025 H 778.108 -5.83462 1.66305 0
M  V30 8026 H 776.847 -4.78107 0.96254 0
M  V30 8027 H 775.852 -4.44037 3.24208 0
M  V30 8028 H 777.077 -5.52836 3.94397 0
M  V30 8029 H 775.023 -6.29783 1.836 0
M  V30 8030 H 774.94 -6.68931 3.52231 0
M  V30 8031 H 776.208 -7.36764 2.54558 0
M  V30 8032 N 780.437 -1.16799 -1.0581 0
M  V30 8033 C 781.684 -0.952524 -1.78699 0
M  V30 8034 C 782.012 0.51931 -1.87439 0
M  V30 8035 O 781.267 1.40151 -1.36587 0
M  V30 8036 C 781.566 -1.53111 -3.22942 0
M  V30 8037 C 781.232 -3.0261 -3.34273 0
M  V30 8038 C 779.894 -3.43418 -3.37072 0
M  V30 8039 C 782.246 -3.98611 -3.35795 0
M  V30 8040 C 779.574 -4.78838 -3.39015 0
M  V30 8041 C 781.926 -5.33923 -3.39277 0
M  V30 8042 C 780.59 -5.74205 -3.40361 0
M  V30 8043 H 779.86 -0.348553 -0.653905 0
M  V30 8044 H 782.507 -1.45591 -1.244 0
M  V30 8045 H 780.812 -0.949286 -3.80126 0
M  V30 8046 H 782.509 -1.34002 -3.77948 0
M  V30 8047 H 779.099 -2.70075 -3.32803 0
M  V30 8048 H 783.283 -3.68146 -3.32839 0
M  V30 8049 H 778.539 -5.09369 -3.38161 0
M  V30 8050 H 782.713 -6.08094 -3.39403 0
M  V30 8051 H 780.34 -6.79117 -3.4162 0
M  V30 8052 N 781.915 1.24427 -0.967243 0
M  V30 8053 C 782.863 2.27403 -0.488927 0
M  V30 8054 C 783.857 1.63388 0.447302 0
M  V30 8055 O 785.063 1.77085 0.322643 0
M  V30 8056 H 781.438 0.738921 -0.139643 0
M  V30 8057 H 783.409 2.65122 -1.36942 0
M  V30 8058 C 782.158 3.4709 0.205787 0
M  V30 8059 H 781.481 3.96591 -0.50551 0
M  V30 8060 H 782.921 4.2099 0.504296 0
M  V30 8061 C 781.38 3.04923 1.43261 0
M  V30 8062 O 781.91 3.12043 2.52967 0
M  V30 8063 N 780.116 2.59976 1.29849 0
M  V30 8064 H 779.663 2.54382 0.405876 0
M  V30 8065 H 779.621 2.32128 2.12047 0
M  V30 8066 N 783.393 0.737304 1.3929 0
M  V30 8067 C 784.621 0.296573 2.04763 0
M  V30 8068 C 785.036 -1.06941 1.55592 0
M  V30 8069 O 784.393 -1.67619 0.721822 0
M  V30 8070 C 784.444 0.291906 3.6032 0
M  V30 8071 O 784.165 1.60397 4.07682 0
M  V30 8072 C 785.666 -0.164708 4.42994 0
M  V30 8073 H 782.886 0.129251 0.658434 0
M  V30 8074 H 785.43 1.0016 1.78293 0
M  V30 8075 H 783.585 -0.364251 3.85684 0
M  V30 8076 H 783.999 1.51909 5.0202 0
M  V30 8077 H 785.473 -0.116814 5.51876 0
M  V30 8078 H 785.95 -1.21022 4.22197 0
M  V30 8079 H 786.556 0.461968 4.22784 0
M  V30 8080 N 784.871 -1.49948 0.485112 0
M  V30 8081 C 785.803 -2.26691 -0.338222 0
M  V30 8082 C 786.816 -1.32584 -0.944742 0
M  V30 8083 O 788.005 -1.57989 -0.830772 0
M  V30 8084 C 785.105 -3.04405 -1.48966 0
M  V30 8085 C 784.278 -4.25971 -0.993371 0
M  V30 8086 C 783.337 -4.85861 -2.02052 0
M  V30 8087 O 782.363 -5.46382 -1.59547 0
M  V30 8088 N 783.565 -4.74101 -3.34975 0
M  V30 8089 H 786.33 -2.97989 0.319748 0
M  V30 8090 H 783.891 -1.58772 0.316714 0
M  V30 8091 H 785.883 -3.41348 -2.17403 0
M  V30 8092 H 784.453 -2.35815 -2.05207 0
M  V30 8093 H 783.673 -3.93971 -0.134424 0
M  V30 8094 H 784.961 -5.0476 -0.639934 0
M  V30 8095 H 784.359 -4.26002 -3.72208 0
M  V30 8096 H 782.916 -5.15274 -3.9917 0
M  V30 8097 N 786.349 -0.21828 -1.56081 0
M  V30 8098 C 787.297 0.709679 -2.21509 0
M  V30 8099 C 788.291 1.20221 -1.19346 0
M  V30 8100 O 789.497 1.16241 -1.37433 0
M  V30 8101 H 785.872 0.247271 -0.710184 0
M  V30 8102 H 787.843 0.134386 -2.98097 0
M  V30 8103 C 786.592 1.90853 -2.90638 0
M  V30 8104 H 785.915 1.53865 -3.69006 0
M  V30 8105 H 787.355 2.53568 -3.39822 0
M  V30 8106 C 785.814 2.76189 -1.92929 0
M  V30 8107 O 786.344 3.74842 -1.44416 0
M  V30 8108 N 784.55 2.42157 -1.6065 0
M  V30 8109 H 784.097 1.61987 -2.00294 0
M  V30 8110 H 784.055 2.99534 -0.955347 0
M  V30 8111 N 787.827 1.57504 0.0551401 0
M  V30 8112 C 789.057 1.92015 0.762472 0
M  V30 8113 C 789.465 0.814088 1.7079 0
M  V30 8114 O 788.808 -0.220273 1.82375 0
M  V30 8115 C 788.87 3.22132 1.59598 0
M  V30 8116 C 788.534 4.49617 0.818141 0
M  V30 8117 C 789.531 5.19738 0.129933 0
M  V30 8118 C 787.216 4.96201 0.780387 0
M  V30 8119 C 789.21 6.34704 -0.585616 0
M  V30 8120 C 786.897 6.11069 0.0610756 0
M  V30 8121 C 787.895 6.80174 -0.62071 0
M  V30 8122 O 787.583 7.92849 -1.3284 0
M  V30 8123 H 787.315 0.638866 0.220967 0
M  V30 8124 H 789.869 2.05385 0.0246362 0
M  V30 8125 H 788.099 3.05016 2.37701 0
M  V30 8126 H 789.788 3.42166 2.18351 0
M  V30 8127 H 790.554 4.84767 0.150299 0
M  V30 8128 H 786.433 4.42275 1.30054 0
M  V30 8129 H 789.977 6.88578 -1.11833 0
M  V30 8130 H 785.874 6.45488 0.0386945 0
M  V30 8131 H 786.642 8.09062 -1.23938 0
M  V30 8132 N 789.305 -0.326896 1.54172 0
M  V30 8133 C 790.268 -1.38515 1.8261 0
M  V30 8134 C 791.268 -1.44872 0.697771 0
M  V30 8135 O 792.458 -1.44957 0.966078 0
M  V30 8136 C 789.59 -2.77281 1.98313 0
M  V30 8137 H 790.783 -1.14556 2.77159 0
M  V30 8138 H 788.336 -0.562199 1.45839 0
M  V30 8139 H 789.071 -3.065 1.05964 0
M  V30 8140 H 788.856 -2.74061 2.80416 0
M  V30 8141 H 790.346 -3.53845 2.21773 0
M  V30 8142 N 790.784 -1.46188 -0.588786 0
M  V30 8143 C 792.2 -1.31009 -0.911524 0
M  V30 8144 C 792.4 -0.277017 -1.99587 0
M  V30 8145 O 791.456 0.322532 -2.50432 0
M  V30 8146 C 792.769 -2.69459 -1.33463 0
M  V30 8147 C 794.317 -2.77502 -1.44782 0
M  V30 8148 C 794.792 -4.1652 -1.90461 0
M  V30 8149 N 796.283 -4.18907 -1.97665 0
M  V30 8150 C 797.018 -5.23359 -2.34271 0
M  V30 8151 N 796.514 -6.38143 -2.69714 0
M  V30 8152 N 798.307 -5.10723 -2.34774 0
M  V30 8153 H 790.458 -2.12016 0.127614 0
M  V30 8154 H 792.721 -0.947984 -0.00557599 0
M  V30 8155 H 792.427 -3.46336 -0.611929 0
M  V30 8156 H 792.301 -2.99165 -2.2974 0
M  V30 8157 H 794.688 -2.00917 -2.1614 0
M  V30 8158 H 794.769 -2.51488 -0.467724 0
M  V30 8159 H 794.413 -4.93597 -1.19684 0
M  V30 8160 H 794.343 -4.39937 -2.89418 0
M  V30 8161 H 796.834 -3.36084 -1.72789 0
M  V30 8162 H 797.147 -7.13624 -2.96582 0
M  V30 8163 H 795.492 -6.41514 -2.67366 0
M  V30 8164 H 798.683 -4.20088 -2.06503 0
M  V30 8165 H 798.856 -5.9224 -2.62975 0
M  V30 8166 N 792.262 0.832906 -1.33792 0
M  V30 8167 C 793.49 1.62048 -1.28639 0
M  V30 8168 C 793.905 1.88269 0.141522 0
M  V30 8169 O 793.262 1.46706 1.08553 0
M  V30 8170 C 793.313 2.96722 -2.0649 0
M  V30 8171 O 793.034 2.7165 -3.43712 0
M  V30 8172 C 794.535 3.91144 -2.08617 0
M  V30 8173 H 791.755 0.504032 -0.442937 0
M  V30 8174 H 794.299 1.03704 -1.76255 0
M  V30 8175 H 792.454 3.51652 -1.62541 0
M  V30 8176 H 792.868 3.57453 -3.83833 0
M  V30 8177 H 794.342 4.82837 -2.67531 0
M  V30 8178 H 794.819 4.25766 -1.07796 0
M  V30 8179 H 795.425 3.42152 -2.52611 0
M  V30 8180 N 793.74 1.17359 1.05189 0
M  V30 8181 C 794.965 0.98709 1.82404 0
M  V30 8182 C 795.39 -0.459848 1.82392 0
M  V30 8183 O 794.748 -1.32924 1.23292 0
M  V30 8184 C 794.796 1.53276 3.26403 0
M  V30 8185 O 793.9 0.746541 4.05587 0
M  V30 8186 H 793.241 0.35047 0.563974 0
M  V30 8187 H 795.771 1.55856 1.32552 0
M  V30 8188 H 795.781 1.55504 3.77203 0
M  V30 8189 H 794.456 2.58603 3.25726 0
M  V30 8190 H 793.033 0.795671 3.64312 0
M  V30 8191 N 795.218 -1.23913 0.973828 0
M  V30 8192 C 796.464 -1.92436 0.640026 0
M  V30 8193 C 796.797 -1.75875 -0.823512 0
M  V30 8194 O 796.072 -1.11563 -1.59323 0
M  V30 8195 C 796.355 -3.4526 1.0231 0
M  V30 8196 C 796.208 -3.70961 2.54378 0
M  V30 8197 C 797.527 -4.36495 0.562155 0
M  V30 8198 H 794.646 -0.698868 0.233992 0
M  V30 8199 H 797.288 -1.46163 1.21393 0
M  V30 8200 H 795.438 -3.84802 0.534751 0
M  V30 8201 H 797.11 -3.40941 3.10737 0
M  V30 8202 H 795.353 -3.15899 2.97305 0
M  V30 8203 H 796.024 -4.77912 2.76232 0
M  V30 8204 H 798.5 -4.04363 0.981333 0
M  V30 8205 H 797.376 -5.42142 0.858689 0
M  V30 8206 H 797.637 -4.38818 -0.537659 0
M  V30 8207 N 796.696 -0.74468 -1.38897 0
M  V30 8208 C 797.945 -0.293716 -1.9955 0
M  V30 8209 C 798.258 1.12831 -1.59777 0
M  V30 8210 O 799.464 1.67929 -2.13336 0
M  V30 8211 C 797.92 -0.474188 -3.56762 0
M  V30 8212 C 797.528 -1.90472 -4.05493 0
M  V30 8213 C 799.272 -0.0854875 -4.24414 0
M  V30 8214 C 797.179 -2.03423 -5.55314 0
M  V30 8215 H 796.109 -0.106066 -0.746502 0
M  V30 8216 H 798.76 -0.919948 -1.58774 0
M  V30 8217 H 797.142 0.221092 -3.95382 0
M  V30 8218 H 798.316 -2.63274 -3.78184 0
M  V30 8219 H 796.631 -2.24752 -3.50536 0
M  V30 8220 H 799.228 -0.161133 -5.34457 0
M  V30 8221 H 799.571 0.96066 -4.05064 0
M  V30 8222 H 800.104 -0.732286 -3.91002 0
M  V30 8223 H 796.843 -3.0626 -5.79556 0
M  V30 8224 H 796.363 -1.3507 -5.84394 0
M  V30 8225 H 798.042 -1.81996 -6.20876 0
M  V30 8226 N 798.174 1.49689 -0.493057 0
M  V30 8227 C 799.084 2.32746 0.294358 0
M  V30 8228 C 800.1 1.44117 0.975003 0
M  V30 8229 O 801.276 1.77149 0.958138 0
M  V30 8230 C 798.341 3.19358 1.34949 0
M  V30 8231 C 797.402 4.2383 0.683122 0
M  V30 8232 C 796.635 5.06303 1.68798 0
M  V30 8233 O 796.858 4.90172 2.91698 0
M  V30 8234 O 795.792 5.88826 1.24768 0
M  V30 8235 H 799.618 3.01247 -0.385254 0
M  V30 8236 H 797.203 1.47216 -0.254519 0
M  V30 8237 H 799.085 3.73037 1.96014 0
M  V30 8238 H 797.76 2.53561 2.01217 0
M  V30 8239 H 796.667 3.74086 0.0329351 0
M  V30 8240 H 798 4.9216 0.0630192 0
M  V30 8241 N 799.652 0.226554 1.55963 0
M  V30 8242 C 800.877 -0.411527 2.03276 0
M  V30 8243 C 801.302 -1.52206 1.10521 0
M  V30 8244 O 800.66 -1.81054 0.0943217 0
M  V30 8245 C 800.708 -0.915694 3.4878 0
M  V30 8246 O 799.812 -2.02672 3.59163 0
M  V30 8247 H 799.153 -0.0924907 0.657527 0
M  V30 8248 H 801.683 0.346656 2.01642 0
M  V30 8249 H 801.693 -1.22421 3.892 0
M  V30 8250 H 800.368 -0.102915 4.15773 0
M  V30 8251 H 798.945 -1.72445 3.30632 0
M  V30 8252 N 801.13 -1.57531 -0.0467866 0
M  V30 8253 C 802.541 -1.76945 -0.595603 0
M  V30 8254 C 802.892 -0.855354 -1.76573 0
M  V30 8255 O 802.017 -0.045668 -2.16352 0
M  V30 8256 C 802.612 -3.20881 -1.08725 0
M  V30 8257 C 801.171 -3.41553 -1.58172 0
M  V30 8258 C 800.318 -2.72533 -0.511968 0
M  V30 8259 H 803.269 -1.57682 0.179436 0
M  V30 8260 H 803.29 -3.26419 -1.95528 0
M  V30 8261 H 802.802 -3.87385 -0.235398 0
M  V30 8262 H 800.903 -2.80199 -2.456 0
M  V30 8263 H 801.016 -4.50104 -1.64143 0
M  V30 8264 H 799.38 -2.35797 -0.962899 0
M  V30 8265 H 800.163 -3.41709 0.330117 0
M  V30 8266 N 802.608 0.318715 -1.54344 0
M  V30 8267 C 803.833 1.07987 -1.77069 0
M  V30 8268 C 804.258 1.80766 -0.520117 0
M  V30 8269 O 803.616 1.73424 0.528566 0
M  V30 8270 C 803.664 2.04987 -2.96669 0
M  V30 8271 O 802.768 3.12974 -2.68554 0
M  V30 8272 H 802.109 0.311109 -0.586606 0
M  V30 8273 H 804.639 0.361533 -2.0138 0
M  V30 8274 H 804.649 2.47771 -3.2415 0
M  V30 8275 H 803.324 1.51417 -3.87357 0
M  V30 8276 H 801.901 2.74831 -2.52037 0
M  V30 8277 N 804.086 1.46499 0.581025 0
M  V30 8278 C 805.314 1.5547 1.36517 0
M  V30 8279 C 805.729 0.196407 1.87776 0
M  V30 8280 O 805.086 -0.806577 1.63709 0
M  V30 8281 C 805.137 2.56084 2.55154 0
M  V30 8282 O 804.858 3.86637 2.06018 0
M  V30 8283 C 806.359 2.75011 3.47683 0
M  V30 8284 H 803.579 0.525703 0.416986 0
M  V30 8285 H 806.123 1.9192 0.706177 0
M  V30 8286 H 804.278 2.22633 3.17039 0
M  V30 8287 H 804.692 4.41413 2.83292 0
M  V30 8288 H 806.166 3.49329 4.27403 0
M  V30 8289 H 806.643 1.81978 3.99726 0
M  V30 8290 H 807.249 3.09565 2.91632 0
M  V30 8291 N 805.565 -0.825799 1.34232 0
M  V30 8292 C 806.513 -1.95792 1.25572 0
M  V30 8293 C 807.507 -1.68695 0.154404 0
M  V30 8294 O 808.713 -1.77147 0.319196 0
M  V30 8295 H 805.088 -0.642949 0.390027 0
M  V30 8296 H 807.059 -2.00219 2.21258 0
M  V30 8297 C 805.808 -3.32245 1.02511 0
M  V30 8298 H 805.131 -3.53642 1.86487 0
M  V30 8299 H 806.571 -4.1192 1.00487 0
M  V30 8300 C 805.03 -3.35803 -0.27167 0
M  V30 8301 O 805.56 -3.80962 -1.274 0
M  V30 8302 N 803.766 -2.89008 -0.303778 0
M  V30 8303 H 803.313 -2.52451 0.512464 0
M  V30 8304 H 803.271 -2.9177 -1.17121 0
M  V30 8305 N 807.043 -1.17915 -1.04565 0
M  V30 8306 C 808.459 -0.927761 -1.29864 0
M  V30 8307 C 808.659 0.409536 -1.97294 0
M  V30 8308 O 807.715 1.14505 -2.25044 0
M  V30 8309 C 809.028 -2.08967 -2.16225 0
M  V30 8310 C 810.576 -2.12741 -2.29587 0
M  V30 8311 C 811.051 -3.28335 -3.19312 0
M  V30 8312 N 812.542 -3.28164 -3.26898 0
M  V30 8313 C 813.277 -4.14249 -3.96466 0
M  V30 8314 N 812.773 -5.10457 -4.68407 0
M  V30 8315 N 814.566 -4.02179 -3.92694 0
M  V30 8316 H 806.717 -2.03983 -0.592011 0
M  V30 8317 H 808.98 -0.891023 -0.323701 0
M  V30 8318 H 808.686 -3.05654 -1.73979 0
M  V30 8319 H 808.56 -2.04606 -3.16885 0
M  V30 8320 H 810.947 -1.16636 -2.71072 0
M  V30 8321 H 811.028 -2.21162 -1.28535 0
M  V30 8322 H 810.672 -4.2471 -2.78539 0
M  V30 8323 H 810.602 -3.17151 -4.20384 0
M  V30 8324 H 813.093 -2.58511 -2.75646 0
M  V30 8325 H 813.406 -5.72526 -5.1907 0
M  V30 8326 H 811.751 -5.14422 -4.67328 0
M  V30 8327 H 814.942 -3.26308 -3.3562 0
M  V30 8328 H 815.115 -4.69486 -4.4664 0
M  V30 8329 N 808.521 1.23394 -0.980386 0
M  V30 8330 C 809.749 1.95844 -0.667286 0
M  V30 8331 C 810.164 1.72574 0.765735 0
M  V30 8332 O 809.521 1.01715 1.51526 0
M  V30 8333 C 809.572 3.48844 -0.948151 0
M  V30 8334 O 809.293 3.71325 -2.32485 0
M  V30 8335 C 810.794 4.38494 -0.651002 0
M  V30 8336 H 808.014 0.623535 -0.247882 0
M  V30 8337 H 810.558 1.56885 -1.31176 0
M  V30 8338 H 808.713 3.85819 -0.349681 0
M  V30 8339 H 809.127 4.65619 -2.41452 0
M  V30 8340 H 810.601 5.44648 -0.897887 0
M  V30 8341 H 811.078 4.37236 0.414922 0
M  V30 8342 H 811.684 4.07127 -1.22995 0
M  V30 8343 N 809.999 0.752036 1.385 0
M  V30 8344 C 811.227 0.318274 2.04437 0
M  V30 8345 C 811.642 -1.05285 1.56718 0
M  V30 8346 O 810.999 -1.66844 0.73956 0
M  V30 8347 C 811.05 0.330106 3.5999 0
M  V30 8348 O 810.771 1.64712 4.05957 0
M  V30 8349 C 812.272 -0.117713 4.43144 0
M  V30 8350 H 809.492 0.136228 0.657026 0
M  V30 8351 H 812.036 1.02045 1.7722 0
M  V30 8352 H 810.191 -0.323323 3.86048 0
M  V30 8353 H 810.605 1.57225 5.0038 0
M  V30 8354 H 812.079 -0.0582735 5.51969 0
M  V30 8355 H 812.556 -1.16538 4.23457 0
M  V30 8356 H 813.162 0.506784 4.2227 0
M  V30 8357 N 811.477 -1.49425 0.500989 0
M  V30 8358 C 812.888 -1.86624 0.0532011 0
M  V30 8359 C 813.239 -1.41331 -1.36088 0
M  V30 8360 O 812.364 -0.791195 -2.01418 0
M  V30 8361 C 812.959 -3.38681 0.0897693 0
M  V30 8362 C 811.518 -3.75181 -0.302677 0
M  V30 8363 C 810.665 -2.73419 0.462307 0
M  V30 8364 H 813.616 -1.41743 0.713773 0
M  V30 8365 H 813.637 -3.73902 -0.705528 0
M  V30 8366 H 813.149 -3.71616 1.11907 0
M  V30 8367 H 811.25 -3.47855 -1.33521 0
M  V30 8368 H 811.363 -4.79097 0.0167653 0
M  V30 8369 H 809.727 -2.54548 -0.0878557 0
M  V30 8370 H 810.51 -3.09198 1.49169 0
M  V30 8371 N 812.955 -0.234822 -1.55841 0
M  V30 8372 C 814.201 0.393843 -1.98939 0
M  V30 8373 C 814.534 1.58466 -1.1226 0
M  V30 8374 O 813.809 1.93635 -0.183242 0
M  V30 8375 C 814.092 0.815492 -3.50745 0
M  V30 8376 C 813.945 -0.379878 -4.48193 0
M  V30 8377 C 815.264 1.66687 -4.07312 0
M  V30 8378 H 812.383 0.141681 -0.723253 0
M  V30 8379 H 815.025 -0.333716 -1.87046 0
M  V30 8380 H 813.175 1.43541 -3.6101 0
M  V30 8381 H 814.847 -1.0182 -4.49923 0
M  V30 8382 H 813.09 -1.02507 -4.21515 0
M  V30 8383 H 813.761 -0.0417069 -5.51984 0
M  V30 8384 H 816.237 1.14369 -4.00074 0
M  V30 8385 H 815.113 1.93078 -5.13821 0
M  V30 8386 H 815.374 2.63468 -3.55017 0
M  V30 8387 N 814.433 1.57553 0.0384317 0
M  V30 8388 C 815.658 1.93485 0.746872 0
M  V30 8389 C 816.083 0.834069 1.68597 0
M  V30 8390 O 815.441 -0.210902 1.80069 0
M  V30 8391 C 815.489 3.28463 1.4881 0
M  V30 8392 O 814.593 3.20051 2.60079 0
M  V30 8393 H 813.934 0.632675 0.201539 0
M  V30 8394 H 816.464 2.046 -0.00329815 0
M  V30 8395 H 816.474 3.63132 1.86009 0
M  V30 8396 H 815.149 4.08147 0.799297 0
M  V30 8397 H 813.726 2.96998 2.25492 0
M  V30 8398 N 815.911 -0.310526 1.54511 0
M  V30 8399 C 817.139 -1.06611 1.77318 0
M  V30 8400 C 817.554 -1.81265 0.528043 0
M  V30 8401 O 816.911 -1.75466 -0.50178 0
M  V30 8402 C 816.962 -2.05409 2.97472 0
M  V30 8403 O 816.683 -1.33785 4.17173 0
M  V30 8404 C 818.184 -2.93082 3.32593 0
M  V30 8405 H 815.404 -0.316578 0.591624 0
M  V30 8406 H 817.948 -0.352691 2.01436 0
M  V30 8407 H 816.103 -2.72266 2.7559 0
M  V30 8408 H 816.517 -2.00055 4.84849 0
M  V30 8409 H 817.991 -3.58274 4.19933 0
M  V30 8410 H 818.468 -3.60877 2.50329 0
M  V30 8411 H 819.074 -2.31768 3.566 0
M  V30 8412 N 817.389 -1.46805 -0.573248 0
M  V30 8413 C 818.8 -1.46655 -1.15539 0
M  V30 8414 C 819.151 -0.2125 -1.95046 0
M  V30 8415 O 818.276 0.683759 -2.05314 0
M  V30 8416 C 818.871 -2.65711 -2.10198 0
M  V30 8417 C 817.43 -2.68572 -2.63716 0
M  V30 8418 C 816.577 -2.39498 -1.39772 0
M  V30 8419 H 819.528 -1.54547 -0.36068 0
M  V30 8420 H 819.549 -2.41768 -2.93817 0
M  V30 8421 H 819.061 -3.56967 -1.52303 0
M  V30 8422 H 817.162 -1.81414 -3.25453 0
M  V30 8423 H 817.275 -3.68809 -3.05805 0
M  V30 8424 H 815.639 -1.89749 -1.69904 0
M  V30 8425 H 816.422 -3.32942 -0.836943 0
M  V30 8426 N 818.867 0.818669 -1.34668 0
M  V30 8427 C 820.278 1.39177 -1.24446 0
M  V30 8428 C 820.629 1.9578 0.128268 0
M  V30 8429 O 819.754 1.90382 1.02877 0
M  V30 8430 C 820.349 2.53012 -2.25323 0
M  V30 8431 C 818.908 3.06218 -2.18878 0
M  V30 8432 C 818.055 1.79112 -2.11694 0
M  V30 8433 H 821.006 0.622709 -1.45973 0
M  V30 8434 H 821.027 3.31226 -1.8727 0
M  V30 8435 H 820.539 2.11784 -3.25221 0
M  V30 8436 H 818.64 3.51939 -1.22351 0
M  V30 8437 H 818.753 3.65019 -3.10319 0
M  V30 8438 H 817.117 2.0018 -1.57481 0
M  V30 8439 H 817.9 1.40053 -3.13433 0
M  V30 8440 N 820.346 1.18468 1.03938 0
M  V30 8441 C 821.276 0.936389 2.13902 0
M  V30 8442 C 822.257 -0.126381 1.6963 0
M  V30 8443 O 823.442 0.0264757 1.94182 0
M  V30 8444 C 820.572 0.462729 3.44204 0
M  V30 8445 C 819.526 1.46613 4.02105 0
M  V30 8446 C 818.852 0.84994 5.27902 0
M  V30 8447 C 820.152 2.84323 4.3813 0
M  V30 8448 H 821.846 1.85602 2.3493 0
M  V30 8449 H 819.392 0.893806 1.12903 0
M  V30 8450 H 821.345 0.276382 4.20493 0
M  V30 8451 H 820.069 -0.492477 3.22866 0
M  V30 8452 H 818.728 1.63944 3.27899 0
M  V30 8453 H 818.376 -0.112493 5.02874 0
M  V30 8454 H 818.076 1.51988 5.67603 0
M  V30 8455 H 819.6 0.674152 6.06867 0
M  V30 8456 H 821.014 2.70636 5.054 0
M  V30 8457 H 819.411 3.48012 4.88884 0
M  V30 8458 H 820.481 3.37776 3.47901 0
M  V30 8459 N 821.824 -1.22873 0.986916 0
M  V30 8460 C 822.754 -2.2688 0.552064 0
M  V30 8461 C 823.735 -1.64883 -0.418048 0
M  V30 8462 O 824.92 -1.9171 -0.30999 0
M  V30 8463 C 822.05 -3.47018 -0.139959 0
M  V30 8464 C 821.004 -4.21411 0.748091 0
M  V30 8465 C 820.33 -5.34645 -0.0765132 0
M  V30 8466 C 821.63 -4.80726 2.04206 0
M  V30 8467 H 823.324 -2.63507 1.42143 0
M  V30 8468 H 820.87 -1.26668 0.68492 0
M  V30 8469 H 822.823 -4.18931 -0.455527 0
M  V30 8470 H 821.547 -3.0947 -1.04382 0
M  V30 8471 H 820.206 -3.51325 1.04721 0
M  V30 8472 H 819.854 -4.93339 -0.981109 0
M  V30 8473 H 819.554 -5.85342 0.514606 0
M  V30 8474 H 821.078 -6.09377 -0.386313 0
M  V30 8475 H 822.492 -5.44612 1.79083 0
M  V30 8476 H 820.889 -5.41737 2.5815 0
M  V30 8477 H 821.959 -4.01109 2.72469 0
M  V30 8478 N 823.302 -0.75937 -1.38099 0
M  V30 8479 C 824.53 -0.329111 -2.04266 0
M  V30 8480 C 824.945 1.04453 -1.57274 0
M  V30 8481 O 824.302 1.66449 -0.748397 0
M  V30 8482 C 824.353 -0.349192 -3.5981 0
M  V30 8483 O 824.074 -1.66863 -4.05078 0
M  V30 8484 C 825.575 0.0942106 -4.432 0
M  V30 8485 H 822.795 -0.13971 -0.656294 0
M  V30 8486 H 825.339 -1.02984 -1.76677 0
M  V30 8487 H 823.494 0.302846 -3.86214 0
M  V30 8488 H 823.908 -1.59877 -4.9954 0
M  V30 8489 H 825.382 0.0290004 -5.51992 0
M  V30 8490 H 825.859 1.1429 -4.24069 0
M  V30 8491 H 826.465 -0.529171 -4.21995 0
M  V30 8492 N 824.78 1.49157 -0.508906 0
M  V30 8493 C 826.005 2.07376 0.0315182 0
M  V30 8494 C 826.43 1.36575 1.2934 0
M  V30 8495 O 825.788 0.424963 1.76249 0
M  V30 8496 C 825.836 3.59661 0.260118 0
M  V30 8497 O 824.94 3.90255 1.33322 0
M  V30 8498 H 824.281 0.663334 -0.029739 0
M  V30 8499 H 826.811 1.91857 -0.710791 0
M  V30 8500 H 826.821 4.05056 0.489225 0
M  V30 8501 H 825.496 4.10601 -0.661794 0
M  V30 8502 H 824.073 3.56661 1.08844 0
M  V30 8503 N 826.258 0.243083 1.55714 0
M  V30 8504 C 827.483 -0.389944 2.03701 0
M  V30 8505 C 827.908 -1.51025 1.12129 0
M  V30 8506 O 827.266 -1.80944 0.11352 0
M  V30 8507 C 827.314 -0.878649 3.49731 0
M  V30 8508 O 826.418 -1.98851 3.61292 0
M  V30 8509 H 825.759 -0.0855115 0.658471 0
M  V30 8510 H 828.289 0.368023 2.01263 0
M  V30 8511 H 828.299 -1.18287 3.90477 0
M  V30 8512 H 826.974 -0.0588107 4.15858 0
M  V30 8513 H 825.551 -1.68928 3.32442 0
M  V30 8514 N 827.736 -1.57571 -0.0300757 0
M  V30 8515 C 828.683 -2.06492 -1.03101 0
M  V30 8516 C 829.653 -0.953862 -1.3598 0
M  V30 8517 O 830.838 -1.22436 -1.46335 0
M  V30 8518 C 827.978 -2.54826 -2.32718 0
M  V30 8519 C 827.091 -3.79718 -2.06006 0
M  V30 8520 C 826.226 -4.16668 -3.29487 0
M  V30 8521 C 825.265 -5.3448 -2.98324 0
M  V30 8522 N 824.402 -5.66867 -4.14254 0
M  V30 8523 H 829.242 -2.91755 -0.606877 0
M  V30 8524 H 826.779 -1.44252 -0.288038 0
M  V30 8525 H 828.737 -2.80916 -3.08451 0
M  V30 8526 H 827.367 -1.72481 -2.72856 0
M  V30 8527 H 826.419 -3.60718 -1.20774 0
M  V30 8528 H 827.731 -4.65569 -1.79017 0
M  V30 8529 H 826.885 -4.43881 -4.13588 0
M  V30 8530 H 825.624 -3.29466 -3.59588 0
M  V30 8531 H 824.629 -5.07021 -2.12625 0
M  V30 8532 H 825.854 -6.23334 -2.69502 0
M  V30 8533 H 823.8 -4.82625 -4.44308 0
M  V30 8534 H 823.717 -6.47226 -3.90685 0
M  V30 8535 H 824.985 -5.98656 -4.99231 0
M  V30 8536 N 829.214 0.302327 -1.54673 0
M  V30 8537 C 830.177 1.35592 -1.8479 0
M  V30 8538 C 831.177 1.43743 -0.72073 0
M  V30 8539 O 832.367 1.43402 -0.989017 0
M  V30 8540 C 829.499 2.74091 -2.02699 0
M  V30 8541 H 830.692 1.10132 -2.78946 0
M  V30 8542 H 828.245 0.538926 -1.46715 0
M  V30 8543 H 828.98 3.04775 -1.10826 0
M  V30 8544 H 828.765 2.69565 -2.8474 0
M  V30 8545 H 830.255 3.50272 -2.27374 0
M  V30 8546 N 830.692 1.47107 0.565454 0
M  V30 8547 C 831.94 1.53005 1.32038 0
M  V30 8548 C 832.261 0.190453 1.94068 0
M  V30 8549 O 831.531 -0.784783 1.79494 0
M  V30 8550 H 830.111 0.563578 0.490294 0
M  V30 8551 H 832.773 1.83351 0.660928 0
M  V30 8552 H 831.869 2.29215 2.11818 0
M  V30 8553 N 832.17 -0.811516 1.35101 0
M  V30 8554 C 833.395 -1.60499 1.31358 0
M  V30 8555 C 833.82 -1.87793 -0.107383 0
M  V30 8556 O 833.178 -1.46161 -1.07268 0
M  V30 8557 C 833.226 -2.91612 2.12119 0
M  V30 8558 O 832.33 -3.84211 1.49853 0
M  V30 8559 H 831.671 -0.487702 0.450603 0
M  V30 8560 H 834.201 -1.00758 1.7807 0
M  V30 8561 H 834.211 -3.4108 2.23894 0
M  V30 8562 H 832.886 -2.71071 3.15426 0
M  V30 8563 H 831.463 -3.42751 1.46889 0
M  V30 8564 N 833.648 -1.19017 -1.03309 0
M  V30 8565 C 835.059 -0.993206 -1.5809 0
M  V30 8566 C 835.41 0.45505 -1.9085 0
M  V30 8567 O 834.535 1.33372 -1.70414 0
M  V30 8568 C 835.13 -1.79661 -2.87241 0
M  V30 8569 C 833.689 -1.64377 -3.38611 0
M  V30 8570 C 832.836 -1.78628 -2.12102 0
M  V30 8571 H 835.787 -1.3345 -0.858879 0
M  V30 8572 H 835.808 -1.29019 -3.57958 0
M  V30 8573 H 835.32 -2.85061 -2.63366 0
M  V30 8574 H 833.421 -0.615447 -3.67482 0
M  V30 8575 H 833.534 -2.44651 -4.11926 0
M  V30 8576 H 831.898 -1.21648 -2.23772 0
M  V30 8577 H 832.681 -2.8548 -1.90673 0
M  V30 8578 N 835.127 1.22348 -0.993418 0
M  V30 8579 C 836.376 1.90422 -0.665019 0
M  V30 8580 C 836.689 1.78199 0.806512 0
M  V30 8581 O 837.895 2.41193 1.24652 0
M  V30 8582 C 836.351 3.41403 -1.13893 0
M  V30 8583 C 835.959 3.62262 -2.63572 0
M  V30 8584 C 837.703 4.15175 -0.884884 0
M  V30 8585 C 835.61 5.06947 -3.04564 0
M  V30 8586 H 834.54 0.713073 -0.245037 0
M  V30 8587 H 837.191 1.3856 -1.20305 0
M  V30 8588 H 835.573 3.9245 -0.529027 0
M  V30 8589 H 836.747 3.21705 -3.29913 0
M  V30 8590 H 835.062 3.01824 -2.86865 0
M  V30 8591 H 837.659 5.21813 -1.16684 0
M  V30 8592 H 838.002 4.15915 0.178982 0
M  V30 8593 H 838.535 3.70157 -1.45701 0
M  V30 8594 H 835.274 5.11346 -4.10128 0
M  V30 8595 H 834.794 5.48404 -2.42927 0
M  V30 8596 H 836.473 5.75374 -2.95894 0
M  V30 8597 N 836.605 0.766683 1.37694 0
M  V30 8598 C 837.553 0.137269 2.32195 0
M  V30 8599 C 838.547 -0.69067 1.54681 0
M  V30 8600 O 839.753 -0.588299 1.70115 0
M  V30 8601 H 836.128 0.0256003 0.751564 0
M  V30 8602 H 838.099 0.950129 2.82869 0
M  V30 8603 C 836.848 -0.731446 3.39919 0
M  V30 8604 H 836.171 -0.103738 3.99665 0
M  V30 8605 H 837.611 -1.13891 4.08417 0
M  V30 8606 C 836.07 -1.87984 2.79578 0
M  V30 8607 O 836.6 -2.97496 2.69924 0
M  V30 8608 N 834.806 -1.6789 2.37195 0
M  V30 8609 H 834.353 -0.788162 2.45246 0
M  V30 8610 H 834.311 -2.44894 1.97165 0
M  V30 8611 N 838.083 -1.48885 0.516809 0
M  V30 8612 C 839.013 -2.32241 -0.242157 0
M  V30 8613 C 839.994 -1.41258 -0.947633 0
M  V30 8614 O 841.179 -1.70156 -0.935973 0
M  V30 8615 C 838.309 -3.22151 -1.29754 0
M  V30 8616 C 837.263 -4.22053 -0.710995 0
M  V30 8617 C 836.589 -5.01007 -1.86806 0
M  V30 8618 C 837.889 -5.21388 0.30853 0
M  V30 8619 H 839.583 -2.95943 0.453651 0
M  V30 8620 H 837.129 -1.42316 0.219612 0
M  V30 8621 H 839.082 -3.79284 -1.83634 0
M  V30 8622 H 837.806 -2.56423 -2.02274 0
M  V30 8623 H 836.465 -3.66087 -0.193819 0
M  V30 8624 H 836.113 -4.31713 -2.58133 0
M  V30 8625 H 835.813 -5.68615 -1.48159 0
M  V30 8626 H 837.337 -5.60989 -2.4109 0
M  V30 8627 H 838.751 -5.73122 -0.142703 0
M  V30 8628 H 837.148 -5.96975 0.611673 0
M  V30 8629 H 838.218 -4.69329 1.21894 0
M  V30 8630 N 839.561 -0.251338 -1.55583 0
M  V30 8631 C 840.786 0.379136 -2.03905 0
M  V30 8632 C 841.211 1.50428 -1.12929 0
M  V30 8633 O 840.569 1.80882 -0.123114 0
M  V30 8634 C 840.617 0.86009 -3.50193 0
M  V30 8635 O 839.721 1.96932 -3.62342 0
M  V30 8636 H 839.062 0.0820183 -0.658915 0
M  V30 8637 H 841.592 -0.378692 -2.01065 0
M  V30 8638 H 841.602 1.16214 -3.91099 0
M  V30 8639 H 840.277 0.0367559 -4.15884 0
M  V30 8640 H 838.854 1.67163 -3.33333 0
M  V30 8641 N 841.039 1.57585 0.0217189 0
M  V30 8642 C 841.971 2.03849 1.04777 0
M  V30 8643 C 842.984 0.952558 1.32023 0
M  V30 8644 O 844.173 1.22974 1.29381 0
M  V30 8645 C 841.273 2.40504 2.3877 0
M  V30 8646 C 840.446 3.71566 2.30775 0
M  V30 8647 C 839.505 3.95329 3.47277 0
M  V30 8648 O 838.531 4.66289 3.26441 0
M  V30 8649 N 839.733 3.41536 4.69397 0
M  V30 8650 H 842.498 2.92491 0.653395 0
M  V30 8651 H 840.059 1.60538 0.209527 0
M  V30 8652 H 842.051 2.53532 3.15442 0
M  V30 8653 H 840.621 1.57494 2.70027 0
M  V30 8654 H 839.841 3.68822 1.39155 0
M  V30 8655 H 841.129 4.5753 2.22584 0
M  V30 8656 H 840.527 2.84033 4.89226 0
M  V30 8657 H 839.084 3.59932 5.43408 0
M  V30 8658 N 842.517 -0.29412 1.54831 0
M  V30 8659 C 843.467 -1.36476 1.82643 0
M  V30 8660 C 844.451 -1.45638 0.683984 0
M  V30 8661 O 845.643 -1.49675 0.944801 0
M  V30 8662 C 842.772 -2.72865 2.08326 0
M  V30 8663 C 841.858 -2.67898 3.28773 0
M  V30 8664 N 842.249 -2.32547 4.49172 0
M  V30 8665 C 840.547 -2.98991 3.30939 0
M  V30 8666 C 841.248 -2.37048 5.31209 0
M  V30 8667 N 840.224 -2.74679 4.69097 0
M  V30 8668 H 844.026 -1.08119 2.7329 0
M  V30 8669 H 841.54 -0.502718 1.54423 0
M  V30 8670 H 843.537 -3.5007 2.264 0
M  V30 8671 H 842.197 -3.02127 1.1895 0
M  V30 8672 H 843.208 -2.04883 4.7565 0
M  V30 8673 H 839.885 -3.33104 2.51691 0
M  V30 8674 H 841.275 -2.12457 6.37426 0
M  V30 8675 N 843.995 -1.47404 -0.557645 0
M  V30 8676 C 845.22 -1.57868 -1.34508 0
M  V30 8677 C 845.645 -0.229151 -1.86699 0
M  V30 8678 O 845.003 0.794908 -1.62944 0
M  V30 8679 C 845.051 -2.60712 -2.49122 0
M  V30 8680 O 844.155 -2.15952 -3.51338 0
M  V30 8681 H 843.496 -0.530335 -0.399551 0
M  V30 8682 H 846.026 -1.93181 -0.673954 0
M  V30 8683 H 846.036 -2.81118 -2.95697 0
M  V30 8684 H 844.711 -3.58701 -2.10491 0
M  V30 8685 H 843.288 -2.05644 -3.11071 0
M  V30 8686 N 845.473 0.80434 -1.35529 0
M  V30 8687 C 846.403 1.93086 -1.31301 0
M  V30 8688 C 847.384 1.69068 -0.187044 0
M  V30 8689 O 848.569 1.90399 -0.382359 0
M  V30 8690 C 845.699 3.29867 -1.0865 0
M  V30 8691 C 844.653 3.68373 -2.17911 0
M  V30 8692 C 843.979 5.0334 -1.80423 0
M  V30 8693 C 845.279 3.78516 -3.59893 0
M  V30 8694 H 846.973 1.96882 -2.25561 0
M  V30 8695 H 844.519 0.945841 -1.08581 0
M  V30 8696 H 846.472 4.08281 -1.04331 0
M  V30 8697 H 845.196 3.2642 -0.108359 0
M  V30 8698 H 843.855 2.92247 -2.21331 0
M  V30 8699 H 843.503 4.96399 -0.812213 0
M  V30 8700 H 843.203 5.30074 -2.53565 0
M  V30 8701 H 844.727 5.84191 -1.77633 0
M  V30 8702 H 846.141 4.47155 -3.58783 0
M  V30 8703 H 844.538 4.16721 -4.31814 0
M  V30 8704 H 845.608 2.8001 -3.95882 0
M  V30 8705 N 846.951 1.19563 1.02676 0
M  V30 8706 C 848.197 1.00105 1.76371 0
M  V30 8707 C 848.53 -0.466823 1.88506 0
M  V30 8708 O 847.805 -1.34665 1.40341 0
M  V30 8709 C 848.088 1.67321 3.18866 0
M  V30 8710 C 847.941 3.21486 3.1459 0
M  V30 8711 C 849.26 1.39794 4.17308 0
M  V30 8712 H 846.379 0.365075 0.640226 0
M  V30 8713 H 849.021 1.47433 1.19848 0
M  V30 8714 H 847.171 1.27081 3.67128 0
M  V30 8715 H 848.843 3.70953 2.7421 0
M  V30 8716 H 847.086 3.5292 2.52249 0
M  V30 8717 H 847.757 3.63665 4.15273 0
M  V30 8718 H 850.233 1.74685 3.77657 0
M  V30 8719 H 849.109 1.89371 5.15199 0
M  V30 8720 H 849.37 0.323505 4.40915 0
M  V30 8721 N 848.429 -1.21819 0.999893 0
M  V30 8722 C 849.678 -1.90066 0.675108 0
M  V30 8723 C 849.991 -1.78624 -0.79705 0
M  V30 8724 O 851.197 -2.41851 -1.23371 0
M  V30 8725 C 849.653 -3.40795 1.15702 0
M  V30 8726 C 849.261 -3.60859 2.6549 0
M  V30 8727 C 851.005 -4.147 0.906889 0
M  V30 8728 C 848.912 -5.05324 3.07248 0
M  V30 8729 H 847.842 -0.711763 0.248815 0
M  V30 8730 H 850.493 -1.3792 1.21038 0
M  V30 8731 H 848.875 -3.92164 0.549832 0
M  V30 8732 H 850.049 -3.19951 3.31614 0
M  V30 8733 H 848.364 -3.00298 2.88461 0
M  V30 8734 H 850.961 -5.21187 1.1945 0
M  V30 8735 H 851.304 -4.16004 -0.156923 0
M  V30 8736 H 851.837 -3.69379 1.47662 0
M  V30 8737 H 848.576 -5.09164 4.12834 0
M  V30 8738 H 848.096 -5.47108 2.45832 0
M  V30 8739 H 849.775 -5.73797 2.98941 0
M  V30 8740 N 849.908 -0.773975 -1.37286 0
M  V30 8741 C 850.855 -0.159938 -2.30245 0
M  V30 8742 C 851.825 0.687356 -1.51211 0
M  V30 8743 O 853.01 0.639255 -1.79773 0
M  V30 8744 C 850.15 0.711452 -3.37687 0
M  V30 8745 C 849.263 -0.152692 -4.3173 0
M  V30 8746 C 848.398 0.723613 -5.26248 0
M  V30 8747 C 847.437 -0.14293 -6.11933 0
M  V30 8748 N 846.574 0.691479 -6.98687 0
M  V30 8749 H 851.414 -0.958182 -2.82175 0
M  V30 8750 H 848.951 -0.48411 -1.38906 0
M  V30 8751 H 850.909 1.2315 -3.9861 0
M  V30 8752 H 849.539 1.47528 -2.87116 0
M  V30 8753 H 848.591 -0.790574 -3.72094 0
M  V30 8754 H 849.903 -0.821027 -4.91997 0
M  V30 8755 H 849.057 1.31006 -5.92387 0
M  V30 8756 H 847.796 1.42562 -4.66398 0
M  V30 8757 H 846.801 -0.7419 -5.44771 0
M  V30 8758 H 848.026 -0.842305 -6.73856 0
M  V30 8759 H 845.972 1.37806 -6.41362 0
M  V30 8760 H 845.889 0.0804911 -7.55957 0
M  V30 8761 H 847.157 1.26225 -7.69212 0
M  V30 8762 N 851.386 1.48609 -0.524698 0
M  V30 8763 C 852.632 2.034 0.00323579 0
M  V30 8764 C 852.987 1.39513 1.32491 0
M  V30 8765 O 852.28 0.529876 1.84127 0
M  V30 8766 C 852.474 3.56906 0.187873 0
M  V30 8767 C 852.303 4.35674 -1.11436 0
M  V30 8768 C 851.073 4.76809 -1.67276 0
M  V30 8769 C 853.271 4.72814 -2.02365 0
M  V30 8770 N 851.253 5.40093 -2.91843 0
M  V30 8771 C 852.624 5.36062 -3.11508 0
M  V30 8772 C 854.679 4.54747 -2.02755 0
M  V30 8773 C 853.382 5.83154 -4.21099 0
M  V30 8774 C 855.408 5.02815 -3.11337 0
M  V30 8775 C 854.77 5.66084 -4.19199 0
M  V30 8776 H 850.869 0.780967 -0.0401842 0
M  V30 8777 H 853.453 1.81495 -0.704808 0
M  V30 8778 H 851.624 3.78645 0.864996 0
M  V30 8779 H 853.356 3.98335 0.714938 0
M  V30 8780 H 850.111 4.57754 -1.21483 0
M  V30 8781 H 850.535 5.76305 -3.55249 0
M  V30 8782 H 855.177 4.05217 -1.20661 0
M  V30 8783 H 852.895 6.31692 -5.03975 0
M  V30 8784 H 856.481 4.9063 -3.12688 0
M  V30 8785 H 855.361 6.02604 -5.01834 0
M  V30 8786 N 852.864 0.259585 1.55447 0
M  V30 8787 C 853.812 -0.6507 2.23313 0
M  V30 8788 C 854.806 -1.17014 1.22491 0
M  V30 8789 O 856.012 -1.12557 1.40467 0
M  V30 8790 H 852.387 -0.228354 0.71649 0
M  V30 8791 H 854.358 -0.0553039 2.98349 0
M  V30 8792 C 853.107 -1.83081 2.95596 0
M  V30 8793 H 852.43 -1.44027 3.72956 0
M  V30 8794 H 853.87 -2.44469 3.46426 0
M  V30 8795 C 852.329 -2.70976 2.00184 0
M  V30 8796 O 852.859 -3.70882 1.54304 0
M  V30 8797 N 851.065 -2.37813 1.67014 0
M  V30 8798 H 850.612 -1.5662 2.04519 0
M  V30 8799 H 850.57 -2.96896 1.03443 0
M  V30 8800 N 854.342 -1.57594 -0.0133615 0
M  V30 8801 C 855.567 -1.94649 -0.715996 0
M  V30 8802 C 855.992 -0.860786 -1.67249 0
M  V30 8803 O 855.35 0.182228 -1.80382 0
M  V30 8804 C 855.398 -3.30789 -1.43566 0
M  V30 8805 O 854.502 -3.24148 -2.54955 0
M  V30 8806 H 853.843 -0.635801 -0.191449 0
M  V30 8807 H 856.373 -2.04569 0.0358478 0
M  V30 8808 H 856.383 -3.66045 -1.80208 0
M  V30 8809 H 855.058 -4.09367 -0.734263 0
M  V30 8810 H 853.635 -3.00548 -2.20739 0
M  V30 8811 N 855.82 0.285905 -1.54985 0
M  V30 8812 C 857.231 0.857869 -1.65824 0
M  V30 8813 C 857.582 1.87531 -0.576763 0
M  V30 8814 O 856.707 2.14528 0.284016 0
M  V30 8815 C 857.302 1.56277 -3.00604 0
M  V30 8816 C 855.861 2.08294 -3.13513 0
M  V30 8817 C 855.008 0.920633 -2.61571 0
M  V30 8818 H 857.959 0.0625463 -1.58577 0
M  V30 8819 H 857.98 2.42912 -2.92872 0
M  V30 8820 H 857.492 0.822017 -3.79295 0
M  V30 8821 H 855.593 2.8537 -2.39572 0
M  V30 8822 H 855.706 2.3071 -4.19892 0
M  V30 8823 H 854.07 1.31043 -2.18403 0
M  V30 8824 H 854.853 0.193594 -3.42754 0
M  V30 8825 N 857.298 1.47698 0.54982 0
M  V30 8826 C 858.709 1.48474 1.13191 0
M  V30 8827 C 859.06 0.243504 1.94683 0
M  V30 8828 O 858.185 -0.651009 2.06375 0
M  V30 8829 C 858.78 2.69022 2.05944 0
M  V30 8830 C 857.339 2.72733 2.5941 0
M  V30 8831 C 856.486 2.41691 1.35944 0
M  V30 8832 H 859.437 1.55101 0.336048 0
M  V30 8833 H 859.458 2.46412 2.89934 0
M  V30 8834 H 858.97 3.59345 1.46605 0
M  V30 8835 H 857.071 1.86568 3.22526 0
M  V30 8836 H 857.184 3.73628 2.99899 0
M  V30 8837 H 855.548 1.92428 1.66864 0
M  V30 8838 H 856.331 3.34231 0.783869 0
M  V30 8839 N 858.776 -0.797141 1.35954 0
M  V30 8840 C 860.006 -1.5835 1.32698 0
M  V30 8841 C 860.414 -1.88959 -0.0955298 0
M  V30 8842 O 859.757 -1.49987 -1.06064 0
M  V30 8843 C 859.819 -2.93529 2.0756 0
M  V30 8844 C 859.483 -2.85688 3.56695 0
M  V30 8845 C 860.48 -2.58467 4.51099 0
M  V30 8846 C 858.165 -3.04508 3.99475 0
M  V30 8847 C 860.159 -2.50157 5.8626 0
M  V30 8848 C 857.846 -2.9582 5.34728 0
M  V30 8849 C 858.844 -2.68681 6.27933 0
M  V30 8850 O 858.532 -2.59973 7.60703 0
M  V30 8851 H 858.264 -0.49807 0.457059 0
M  V30 8852 H 860.818 -0.997889 1.79531 0
M  V30 8853 H 859.048 -3.54111 1.55378 0
M  V30 8854 H 860.737 -3.54744 1.9726 0
M  V30 8855 H 861.503 -2.43638 4.19363 0
M  V30 8856 H 857.382 -3.24641 3.27306 0
M  V30 8857 H 860.926 -2.28894 6.58979 0
M  V30 8858 H 856.823 -3.10211 5.66074 0
M  V30 8859 H 857.591 -2.75511 7.70737 0
M  V30 8860 N 860.254 -1.20106 -1.0204 0
M  V30 8861 C 861.5 -1.01039 -1.75838 0
M  V30 8862 C 861.833 0.456819 -1.88751 0
M  V30 8863 O 861.108 1.33919 -1.41053 0
M  V30 8864 C 861.391 -1.69009 -3.17975 0
M  V30 8865 C 861.244 -3.2315 -3.1288 0
M  V30 8866 C 862.563 -1.42005 -4.16561 0
M  V30 8867 H 859.682 -0.368465 -0.638281 0
M  V30 8868 H 862.324 -1.48066 -1.19064 0
M  V30 8869 H 860.474 -1.29026 -3.66449 0
M  V30 8870 H 862.146 -3.72402 -2.72239 0
M  V30 8871 H 860.389 -3.54253 -2.50374 0
M  V30 8872 H 861.06 -3.65862 -4.13339 0
M  V30 8873 H 863.536 -1.76685 -3.76725 0
M  V30 8874 H 862.412 -1.92101 -5.14187 0
M  V30 8875 H 862.673 -0.346884 -4.40737 0
M  V30 8876 N 861.732 1.21287 -1.00634 0
M  V30 8877 C 862.972 1.92106 -0.698194 0
M  V30 8878 C 863.336 1.76437 0.757222 0
M  V30 8879 O 864.537 2.41641 1.17741 0
M  V30 8880 C 862.808 3.39748 -1.10932 0
M  V30 8881 S 864.367 4.29013 -0.921586 0
M  V30 8882 H 861.185 0.663755 -0.254853 0
M  V30 8883 H 863.787 1.46772 -1.29145 0
M  V30 8884 H 862.491 3.48669 -2.16467 0
M  V30 8885 H 862.022 3.90101 -0.508419 0
M  V30 8886 H 864.037 4.95871 0.180578 0
M  V30 8887 N 863.21 0.781244 1.36873 0
M  V30 8888 C 864.435 0.360398 2.04245 0
M  V30 8889 C 864.86 -1.01242 1.58529 0
M  V30 8890 O 864.218 -1.65063 0.749936 0
M  V30 8891 C 864.266 0.42329 3.58107 0
M  V30 8892 O 863.37 -0.572796 4.08403 0
M  V30 8893 H 862.711 0.154386 0.645803 0
M  V30 8894 H 865.241 1.06008 1.74996 0
M  V30 8895 H 865.251 0.283967 4.07011 0
M  V30 8896 H 863.926 1.42477 3.90734 0
M  V30 8897 H 862.503 -0.395809 3.70793 0
M  V30 8898 N 864.689 -1.48329 0.532571 0
M  V30 8899 C 865.917 -2.069 0.00354299 0
M  V30 8900 C 866.332 -1.38876 -1.27902 0
M  V30 8901 O 865.689 -0.477119 -1.76153 0
M  V30 8902 C 865.74 -3.60821 -0.221416 0
M  V30 8903 O 865.461 -4.26291 1.01034 0
M  V30 8904 C 866.962 -4.36194 -0.790531 0
M  V30 8905 H 864.182 -0.670103 0.0346836 0
M  V30 8906 H 866.726 -1.90682 0.738955 0
M  V30 8907 H 864.881 -3.76636 -0.906884 0
M  V30 8908 H 865.295 -5.18475 0.792683 0
M  V30 8909 H 866.769 -5.44657 -0.897347 0
M  V30 8910 H 867.246 -4.00798 -1.79605 0
M  V30 8911 H 867.852 -4.25064 -0.141546 0
M  V30 8912 N 866.167 -0.267825 -1.55308 0
M  V30 8913 C 867.099 0.65591 -2.19614 0
M  V30 8914 C 868.112 1.12302 -1.17865 0
M  V30 8915 O 869.301 1.04618 -1.44628 0
M  V30 8916 C 866.401 1.90582 -2.80235 0
M  V30 8917 C 865.574 1.58673 -4.07605 0
M  V30 8918 C 864.633 2.68836 -4.52343 0
M  V30 8919 O 863.659 2.35331 -5.18274 0
M  V30 8920 N 864.861 3.98752 -4.21873 0
M  V30 8921 H 867.626 0.105566 -2.99514 0
M  V30 8922 H 865.187 -0.0886263 -1.61657 0
M  V30 8923 H 867.179 2.63561 -3.07112 0
M  V30 8924 H 865.749 2.3654 -2.04371 0
M  V30 8925 H 864.969 0.691113 -3.88094 0
M  V30 8926 H 866.257 1.34845 -4.90606 0
M  V30 8927 H 865.655 4.28797 -3.68985 0
M  V30 8928 H 864.212 4.68131 -4.53537 0
M  V30 8929 N 867.645 1.57599 0.00500368 0
M  V30 8930 C 868.87 1.95026 0.705663 0
M  V30 8931 C 869.295 0.869643 1.6679 0
M  V30 8932 O 868.653 -0.172659 1.80476 0
M  V30 8933 C 868.701 3.31545 1.4181 0
M  V30 8934 O 867.805 3.25495 2.53232 0
M  V30 8935 H 867.146 0.636808 0.188074 0
M  V30 8936 H 869.676 2.04547 -0.046696 0
M  V30 8937 H 869.686 3.66996 1.78265 0
M  V30 8938 H 868.361 4.09751 0.712543 0
M  V30 8939 H 866.938 3.01714 2.19142 0
M  V30 8940 N 869.123 -0.277682 1.55134 0
M  V30 8941 C 870.033 -1.36524 1.90783 0
M  V30 8942 C 871.049 -1.54283 0.804542 0
M  V30 8943 O 872.225 -1.68499 1.10318 0
M  V30 8944 C 869.29 -2.70524 2.16835 0
M  V30 8945 C 868.351 -2.61552 3.40424 0
M  V30 8946 C 867.584 -3.89162 3.65224 0
M  V30 8947 O 867.807 -4.89624 2.92616 0
M  V30 8948 O 866.741 -3.89647 4.58758 0
M  V30 8949 H 870.567 -1.0929 2.83354 0
M  V30 8950 H 868.152 -0.475799 1.41621 0
M  V30 8951 H 870.034 -3.49765 2.35038 0
M  V30 8952 H 868.709 -2.97555 1.27448 0
M  V30 8953 H 867.616 -1.80704 3.27562 0
M  V30 8954 H 868.949 -2.39472 4.30016 0
M  V30 8955 N 870.601 -1.47988 -0.541979 0
M  V30 8956 C 871.548 -1.61615 -1.6477 0
M  V30 8957 C 872.518 -0.458602 -1.59644 0
M  V30 8958 O 873.703 -0.680585 -1.78249 0
M  V30 8959 C 870.843 -1.65066 -3.03063 0
M  V30 8960 C 869.956 -2.91845 -3.18513 0
M  V30 8961 C 869.091 -2.86534 -4.47294 0
M  V30 8962 C 868.13 -4.0807 -4.5623 0
M  V30 8963 N 867.267 -4.00905 -5.76385 0
M  V30 8964 H 872.107 -2.56046 -1.52461 0
M  V30 8965 H 869.644 -1.26989 -0.742449 0
M  V30 8966 H 871.602 -1.65049 -3.83164 0
M  V30 8967 H 870.232 -0.74136 -3.14171 0
M  V30 8968 H 869.284 -3.01661 -2.31743 0
M  V30 8969 H 870.596 -3.81804 -3.20978 0
M  V30 8970 H 869.75 -2.84851 -5.35672 0
M  V30 8971 H 868.489 -1.94283 -4.47332 0
M  V30 8972 H 867.494 -4.10041 -3.66261 0
M  V30 8973 H 868.719 -5.01465 -4.5794 0
M  V30 8974 H 866.665 -3.11467 -5.77342 0
M  V30 8975 H 866.582 -4.84557 -5.80293 0
M  V30 8976 H 867.85 -4.03263 -6.67083 0
M  V30 8977 N 872.079 0.78992 -1.36375 0
M  V30 8978 C 873.009 1.91683 -1.33341 0
M  V30 8979 C 873.99 1.68861 -0.204965 0
M  V30 8980 O 875.175 1.89982 -0.402531 0
M  V30 8981 C 872.305 3.28696 -1.12143 0
M  V30 8982 C 871.259 3.66041 -2.21806 0
M  V30 8983 C 870.585 5.01399 -1.85751 0
M  V30 8984 C 871.885 3.74677 -3.63888 0
M  V30 8985 H 873.579 1.94478 -2.27637 0
M  V30 8986 H 871.125 0.934271 -1.09578 0
M  V30 8987 H 873.078 4.07151 -1.08656 0
M  V30 8988 H 871.802 3.26287 -0.142974 0
M  V30 8989 H 870.461 2.89883 -2.24418 0
M  V30 8990 H 870.109 4.9551 -0.864817 0
M  V30 8991 H 869.809 5.27355 -2.59173 0
M  V30 8992 H 871.333 5.82274 -1.83819 0
M  V30 8993 H 872.747 4.43324 -3.63506 0
M  V30 8994 H 871.144 4.12118 -4.3621 0
M  V30 8995 H 872.214 2.75795 -3.9883 0
M  V30 8996 N 873.557 1.20646 1.01402 0
M  V30 8997 C 874.785 1.04389 1.78635 0
M  V30 8998 C 875.2 -0.406771 1.84366 0
M  V30 8999 O 874.557 -1.28239 1.2985 0
M  V30 9000 C 874.608 1.62378 3.22979 0
M  V30 9001 O 874.329 3.01768 3.17597 0
M  V30 9002 C 875.83 1.5111 4.1675 0
M  V30 9003 H 873.05 0.367077 0.56169 0
M  V30 9004 H 875.594 1.59789 1.27624 0
M  V30 9005 H 873.749 1.11092 3.7113 0
M  V30 9006 H 874.163 3.29331 4.08217 0
M  V30 9007 H 875.637 1.96441 5.15863 0
M  V30 9008 H 876.114 0.464011 4.36742 0
M  V30 9009 H 876.72 2.01599 3.74483 0
M  V30 9010 N 875.035 -1.20752 1.01276 0
M  V30 9011 C 875.983 -2.25432 0.572989 0
M  V30 9012 C 876.977 -1.64935 -0.386354 0
M  V30 9013 O 878.183 -1.7816 -0.256696 0
M  V30 9014 H 874.558 -0.733229 0.166972 0
M  V30 9015 H 876.529 -2.59856 1.46687 0
M  V30 9016 C 875.278 -3.47615 -0.0768249 0
M  V30 9017 H 874.601 -3.94442 0.652354 0
M  V30 9018 H 876.041 -4.22572 -0.3477 0
M  V30 9019 C 874.5 -3.1003 -1.31845 0
M  V30 9020 O 875.03 -3.21216 -2.41211 0
M  V30 9021 N 873.236 -2.64616 -1.20111 0
M  V30 9022 H 872.783 -2.55714 -0.311184 0
M  V30 9023 H 872.741 -2.39838 -2.03286 0
M  V30 9024 N 876.513 -0.788492 -1.36457 0
M  V30 9025 C 877.741 -0.372365 -2.03522 0
M  V30 9026 C 878.156 1.01093 -1.59454 0
M  V30 9027 O 877.513 1.64824 -0.783535 0
M  V30 9028 C 877.564 -0.425435 -3.58988 0
M  V30 9029 O 877.285 -1.75418 -4.01448 0
M  V30 9030 C 878.786 0.000180167 -4.433 0
M  V30 9031 H 876.006 -0.1536 -0.653183 0
M  V30 9032 H 878.55 -1.06708 -1.74452 0
M  V30 9033 H 876.705 0.220856 -3.8677 0
M  V30 9034 H 877.119 -1.70437 -4.96036 0
M  V30 9035 H 878.593 -0.0880919 -5.5193 0
M  V30 9036 H 879.07 1.05269 -4.26398 0
M  V30 9037 H 879.676 -0.618563 -4.20778 0
M  V30 9038 N 877.991 1.48044 -0.54043 0
M  V30 9039 C 878.954 2.28273 0.205966 0
M  V30 9040 C 879.954 1.35983 0.858209 0
M  V30 9041 O 881.144 1.58776 0.716651 0
M  V30 9042 C 878.276 3.15174 1.29917 0
M  V30 9043 H 879.469 2.95727 -0.498555 0
M  V30 9044 H 877.022 1.53457 -0.296745 0
M  V30 9045 H 877.757 2.52374 2.03661 0
M  V30 9046 H 877.542 3.83074 0.836475 0
M  V30 9047 H 879.032 3.75666 1.82387 0
M  V30 9048 N 879.47 0.276058 1.55163 0
M  V30 9049 C 880.695 -0.346648 2.04483 0
M  V30 9050 C 881.12 -1.48613 1.15308 0
M  V30 9051 O 880.478 -1.80663 0.151875 0
M  V30 9052 C 880.526 -0.804268 3.51517 0
M  V30 9053 O 879.63 -1.91143 3.65429 0
M  V30 9054 H 878.971 -0.0715251 0.660136 0
M  V30 9055 H 881.501 0.410631 2.00437 0
M  V30 9056 H 881.511 -1.09977 3.92898 0
M  V30 9057 H 880.186 0.0294123 4.1589 0
M  V30 9058 H 878.763 -1.61839 3.3595 0
M  V30 9059 N 880.948 -1.576 0.00335426 0
M  V30 9060 C 881.896 -2.09759 -1.00517 0
M  V30 9061 C 882.89 -1.01833 -1.35375 0
M  V30 9062 O 884.096 -1.20294 -1.339 0
M  V30 9063 H 880.471 -0.669821 -0.341825 0
M  V30 9064 H 882.442 -2.93478 -0.539718 0
M  V30 9065 C 881.191 -2.6189 -2.28711 0
M  V30 9066 H 880.514 -3.44571 -2.02758 0
M  V30 9067 H 881.954 -3.02061 -2.97548 0
M  V30 9068 C 880.413 -1.53455 -2.99922 0
M  V30 9069 O 880.943 -0.919402 -3.91037 0
M  V30 9070 N 879.149 -1.2612 -2.61806 0
M  V30 9071 H 878.696 -1.76329 -1.87792 0
M  V30 9072 H 878.654 -0.537872 -3.09765 0
M  V30 9073 N 882.426 0.269451 -1.5528 0
M  V30 9074 C 883.376 1.33553 -1.84791 0
M  V30 9075 C 884.36 1.44532 -0.707067 0
M  V30 9076 O 885.552 1.48153 -0.968493 0
M  V30 9077 C 882.681 2.69516 -2.12641 0
M  V30 9078 C 881.767 2.62633 -3.32993 0
M  V30 9079 N 882.158 2.25371 -4.52815 0
M  V30 9080 C 880.456 2.93688 -3.35654 0
M  V30 9081 C 881.157 2.28567 -5.34913 0
M  V30 9082 N 880.133 2.67181 -4.73408 0
M  V30 9083 H 883.935 1.03758 -2.74976 0
M  V30 9084 H 881.449 0.478087 -1.55203 0
M  V30 9085 H 883.446 3.46424 -2.3194 0
M  V30 9086 H 882.106 3.00197 -1.23742 0
M  V30 9087 H 883.117 1.9729 -4.7885 0
M  V30 9088 H 879.794 3.29057 -2.56958 0
M  V30 9089 H 881.184 2.02289 -6.40725 0
M  V30 9090 N 883.904 1.48273 0.534124 0
M  V30 9091 C 885.129 1.59988 1.31979 0
M  V30 9092 C 885.554 0.258824 1.86311 0
M  V30 9093 O 884.912 -0.768885 1.64188 0
M  V30 9094 C 884.96 2.64642 2.44943 0
M  V30 9095 O 884.064 2.21515 3.47858 0
M  V30 9096 H 883.405 0.536625 0.391063 0
M  V30 9097 H 885.935 1.94229 0.643135 0
M  V30 9098 H 885.945 2.85786 2.91187 0
M  V30 9099 H 884.62 3.62004 2.04758 0
M  V30 9100 H 883.197 2.10567 3.0776 0
M  V30 9101 N 885.382 -0.782676 1.36792 0
M  V30 9102 C 886.315 -1.90241 1.2603 0
M  V30 9103 C 887.293 -1.61969 0.143055 0
M  V30 9104 O 888.477 -1.85843 0.315366 0
M  V30 9105 C 885.604 -3.25218 0.946082 0
M  V30 9106 C 884.65 -3.72414 2.0787 0
M  V30 9107 S 885.483 -3.87376 3.69729 0
M  V30 9108 C 886.639 -5.25219 3.40435 0
M  V30 9109 H 886.872 -1.99079 2.20805 0
M  V30 9110 H 884.405 -0.942625 1.22286 0
M  V30 9111 H 886.363 -4.03183 0.771612 0
M  V30 9112 H 885.024 -3.14096 0.0159991 0
M  V30 9113 H 884.217 -4.7024 1.81358 0
M  V30 9114 H 883.819 -3.01519 2.21274 0
M  V30 9115 H 886.111 -6.10025 2.94746 0
M  V30 9116 H 887.054 -5.56738 4.37549 0
M  V30 9117 H 887.462 -4.92638 2.75622 0
M  V30 9118 N 886.86 -1.21182 -1.00761 0
M  V30 9119 C 888.137 -0.936297 -1.71735 0
M  V30 9120 C 888.517 0.552585 -2.03739 0
M  V30 9121 O 887.865 1.51672 -1.70903 0
M  V30 9122 C 888.075 -1.81867 -2.97868 0
M  V30 9123 C 889.423 -2.06594 -3.7095 0
M  V30 9124 O 890.447 -1.79194 -3.07844 0
M  V30 9125 O 889.306 -2.5292 -4.84452 0
M  V30 9126 H 886.4 -0.350867 -0.74888 0
M  V30 9127 H 888.946 -1.32098 -1.06527 0
M  V30 9128 H 887.718 -2.82643 -2.70607 0
M  V30 9129 H 887.341 -1.43463 -3.70815 0
M  V30 9130 N 888.338 1.20213 -1.01915 0
M  V30 9131 C 889.268 2.25336 -0.612023 0
M  V30 9132 C 890.249 1.65933 0.374186 0
M  V30 9133 O 891.434 1.92464 0.259053 0
M  V30 9134 C 888.564 3.47267 0.047904 0
M  V30 9135 C 887.518 4.1928 -0.859557 0
M  V30 9136 C 886.844 5.3466 -0.0652655 0
M  V30 9137 C 888.144 4.75143 -2.1688 0
M  V30 9138 H 889.838 2.59645 -1.49079 0
M  V30 9139 H 887.384 1.24808 -0.718263 0
M  V30 9140 H 889.337 4.19991 0.344294 0
M  V30 9141 H 888.061 3.12129 0.961404 0
M  V30 9142 H 886.72 3.48425 -1.13999 0
M  V30 9143 H 886.368 4.95767 0.849964 0
M  V30 9144 H 886.068 5.83772 -0.669618 0
M  V30 9145 H 887.592 6.10187 0.224612 0
M  V30 9146 H 889.006 5.39672 -1.9346 0
M  V30 9147 H 887.403 5.34702 -2.72422 0
M  V30 9148 H 888.473 3.93744 -2.83008 0
M  V30 9149 N 889.816 0.795718 1.36037 0
M  V30 9150 C 891.044 0.383153 2.03321 0
M  V30 9151 C 891.459 -1.00246 1.59988 0
M  V30 9152 O 890.816 -1.64406 0.792265 0
M  V30 9153 C 890.867 0.444467 3.58757 0
M  V30 9154 O 890.588 1.77544 4.00512 0
M  V30 9155 C 892.089 0.0233291 4.43294 0
M  V30 9156 H 889.309 0.157061 0.652359 0
M  V30 9157 H 891.853 1.07632 1.73884 0
M  V30 9158 H 890.008 -0.200341 3.86882 0
M  V30 9159 H 890.422 1.73065 4.95125 0
M  V30 9160 H 891.896 0.117361 5.51875 0
M  V30 9161 H 892.373 -1.03007 4.2695 0
M  V30 9162 H 892.979 0.64087 4.20444 0
M  V30 9163 N 891.294 -1.47756 0.548274 0
M  V30 9164 C 892.241 -2.29893 -0.204408 0
M  V30 9165 C 893.211 -1.38509 -0.916761 0
M  V30 9166 O 894.396 -1.67472 -0.91421 0
M  V30 9167 C 891.536 -3.22282 -1.23403 0
M  V30 9168 C 890.649 -4.28753 -0.528654 0
M  V30 9169 C 889.784 -5.08303 -1.54279 0
M  V30 9170 C 888.823 -6.06557 -0.821893 0
M  V30 9171 N 887.96 -6.79098 -1.78243 0
M  V30 9172 H 892.8 -2.93739 0.502163 0
M  V30 9173 H 890.337 -1.44793 0.259471 0
M  V30 9174 H 892.295 -3.74262 -1.84348 0
M  V30 9175 H 890.925 -2.6032 -1.90875 0
M  V30 9176 H 889.977 -3.79899 0.195132 0
M  V30 9177 H 891.289 -4.98787 0.0365066 0
M  V30 9178 H 890.443 -5.64388 -2.22602 0
M  V30 9179 H 889.182 -4.3815 -2.14186 0
M  V30 9180 H 888.187 -5.49659 -0.12469 0
M  V30 9181 H 889.412 -6.78715 -0.228685 0
M  V30 9182 H 887.358 -6.11682 -2.37025 0
M  V30 9183 H 887.275 -7.4527 -1.26919 0
M  V30 9184 H 888.543 -7.39762 -2.45709 0
M  V30 9185 N 892.772 -0.284283 -1.55015 0
M  V30 9186 C 893.997 0.335799 -2.04664 0
M  V30 9187 C 894.422 1.47999 -1.16094 0
M  V30 9188 O 893.78 1.8058 -0.161454 0
M  V30 9189 C 893.828 0.785615 -3.51938 0
M  V30 9190 O 892.932 1.89202 -3.66437 0
M  V30 9191 H 892.273 0.0680233 -0.660506 0
M  V30 9192 H 894.803 -0.421255 -2.00216 0
M  V30 9193 H 894.813 1.07892 -3.93476 0
M  V30 9194 H 893.488 -0.0514675 -4.15868 0
M  V30 9195 H 892.065 1.60055 -3.36804 0
M  V30 9196 N 894.251 1.57596 -0.0117121 0
M  V30 9197 C 895.198 2.09153 0.975897 0
M  V30 9198 C 896.168 0.989579 1.33404 0
M  V30 9199 O 897.353 1.26273 1.43038 0
M  V30 9200 C 894.493 2.60906 2.2588 0
M  V30 9201 C 893.606 3.85046 1.95866 0
M  V30 9202 C 892.741 4.25257 3.18323 0
M  V30 9203 C 891.78 5.42202 2.84049 0
M  V30 9204 N 890.917 5.77651 3.99079 0
M  V30 9205 H 895.757 2.93261 0.52931 0
M  V30 9206 H 893.294 1.44965 0.249691 0
M  V30 9207 H 895.252 2.88995 3.00895 0
M  V30 9208 H 893.882 1.79654 2.68187 0
M  V30 9209 H 892.934 3.63794 1.11168 0
M  V30 9210 H 894.246 4.70151 1.66611 0
M  V30 9211 H 893.4 4.5469 4.01674 0
M  V30 9212 H 892.139 3.38884 3.50726 0
M  V30 9213 H 891.144 5.1248 1.99107 0
M  V30 9214 H 892.369 6.3026 2.52881 0
M  V30 9215 H 890.315 4.94235 4.31356 0
M  V30 9216 H 890.232 6.57356 3.73388 0
M  V30 9217 H 891.5 6.11681 4.83183 0
M  V30 9218 N 895.729 -0.261212 1.5542 0
M  V30 9219 C 897.006 -1.01321 1.67312 0
M  V30 9220 C 897.386 -2.0388 0.547356 0
M  V30 9221 O 896.734 -2.24003 -0.451083 0
M  V30 9222 C 896.944 -1.65943 3.07024 0
M  V30 9223 C 898.292 -2.16666 3.65159 0
M  V30 9224 O 899.316 -1.75909 3.09733 0
M  V30 9225 O 898.175 -2.91455 4.62294 0
M  V30 9226 H 895.269 -0.470714 0.679968 0
M  V30 9227 H 897.815 -0.256133 1.67756 0
M  V30 9228 H 896.587 -0.916868 3.80407 0
M  V30 9229 H 896.21 -2.48308 3.1053 0
M  V30 9230 N 897.207 -1.48554 -0.526253 0
M  V30 9231 C 898.618 -1.50256 -1.10815 0
M  V30 9232 C 898.969 -0.274445 -1.94271 0
M  V30 9233 O 898.094 0.618094 -2.07385 0
M  V30 9234 C 898.689 -2.72264 -2.01638 0
M  V30 9235 C 897.248 -2.76826 -2.55038 0
M  V30 9236 C 896.395 -2.43823 -1.32081 0
M  V30 9237 H 899.346 -1.55616 -0.31133 0
M  V30 9238 H 899.367 -2.50993 -2.85977 0
M  V30 9239 H 898.879 -3.61632 -1.4087 0
M  V30 9240 H 896.98 -1.91676 -3.19517 0
M  V30 9241 H 897.093 -3.78351 -2.93917 0
M  V30 9242 H 895.457 -1.95058 -1.63781 0
M  V30 9243 H 896.24 -3.35436 -0.730596 0
M  V30 9244 N 898.685 0.775411 -1.37205 0
M  V30 9245 C 900.096 1.35147 -1.28811 0
M  V30 9246 C 900.447 1.96089 0.0659168 0
M  V30 9247 O 899.572 1.93558 0.967684 0
M  V30 9248 C 900.167 2.45715 -2.33258 0
M  V30 9249 C 898.726 2.99099 -2.2851 0
M  V30 9250 C 897.873 1.72286 -2.17285 0
M  V30 9251 H 900.824 0.575954 -1.4788 0
M  V30 9252 H 900.845 3.251 -1.97712 0
M  V30 9253 H 900.357 2.01331 -3.31795 0
M  V30 9254 H 898.458 3.47868 -1.33485 0
M  V30 9255 H 898.571 3.54962 -3.21774 0
M  V30 9256 H 896.935 1.95068 -1.6377 0
M  V30 9257 H 897.718 1.3001 -3.1773 0
M  V30 9258 N 900.163 1.21714 1.00117 0
M  V30 9259 C 901.411 1.03465 1.73607 0
M  V30 9260 C 901.732 -0.432295 1.90148 0
M  V30 9261 O 901.002 -1.31157 1.45515 0
M  V30 9262 H 899.582 0.379857 0.643209 0
M  V30 9263 H 902.244 1.53088 1.20624 0
M  V30 9264 H 901.34 1.50574 2.73375 0
M  V30 9265 N 901.641 -1.19671 1.02551 0
M  V30 9266 C 902.551 -2.26441 0.613329 0
M  V30 9267 C 903.567 -1.70375 -0.353339 0
M  V30 9268 O 904.743 -2.0028 -0.212064 0
M  V30 9269 C 901.808 -3.46684 -0.0329028 0
M  V30 9270 C 900.869 -4.17945 0.980837 0
M  V30 9271 C 900.102 -5.32448 0.36535 0
M  V30 9272 O 900.325 -5.64291 -0.832596 0
M  V30 9273 O 899.259 -5.92012 1.08652 0
M  V30 9274 H 903.085 -2.63932 1.50246 0
M  V30 9275 H 900.67 -1.2646 0.795502 0
M  V30 9276 H 902.552 -4.1956 -0.393395 0
M  V30 9277 H 901.227 -3.1105 -0.896089 0
M  V30 9278 H 900.134 -3.47204 1.39286 0
M  V30 9279 H 901.467 -4.57542 1.81428 0
M  V30 9280 N 903.119 -0.802921 -1.35613 0
M  V30 9281 C 904.066 -0.20874 -2.29854 0
M  V30 9282 C 905.036 0.655128 -1.52634 0
M  V30 9283 O 906.221 0.600979 -1.81088 0
M  V30 9284 C 903.361 0.639663 -3.3912 0
M  V30 9285 C 902.474 -0.244234 -4.31309 0
M  V30 9286 C 901.609 0.611825 -5.27665 0
M  V30 9287 C 900.648 -0.272698 -6.11492 0
M  V30 9288 N 899.785 0.543122 -6.99996 0
M  V30 9289 H 904.625 -1.01782 -2.80079 0
M  V30 9290 H 902.162 -0.513465 -1.37848 0
M  V30 9291 H 904.12 1.14668 -4.01132 0
M  V30 9292 H 902.75 1.41404 -2.9018 0
M  V30 9293 H 901.802 -0.869322 -3.70334 0
M  V30 9294 H 903.114 -0.925202 -4.90144 0
M  V30 9295 H 902.268 1.18412 -5.95032 0
M  V30 9296 H 901.007 1.32637 -4.69317 0
M  V30 9297 H 900.012 -0.857287 -5.43075 0
M  V30 9298 H 901.237 -0.985051 -6.71918 0
M  V30 9299 H 899.183 1.24171 -6.44141 0
M  V30 9300 H 899.1 -0.0798767 -7.55958 0
M  V30 9301 H 900.368 1.09881 -7.71717 0
M  V30 9302 N 904.597 1.47463 -0.556102 0
M  V30 9303 C 906.008 1.86298 -0.122429 0
M  V30 9304 C 906.359 1.46285 1.30749 0
M  V30 9305 O 905.484 0.865405 1.98342 0
M  V30 9306 C 906.079 3.38115 -0.215407 0
M  V30 9307 C 904.638 3.76046 0.163223 0
M  V30 9308 C 903.785 2.71515 -0.563466 0
M  V30 9309 H 906.736 1.38996 -0.765888 0
M  V30 9310 H 906.757 3.76263 0.566271 0
M  V30 9311 H 906.269 3.67207 -1.25622 0
M  V30 9312 H 904.37 3.5257 1.20519 0
M  V30 9313 H 904.483 4.78705 -0.194568 0
M  V30 9314 H 902.847 2.54699 -0.00667879 0
M  V30 9315 H 903.63 3.03449 -1.60542 0
M  V30 9316 N 906.075 0.2925 1.54862 0
M  V30 9317 C 907.038 -0.574423 2.21885 0
M  V30 9318 C 908.038 -1.06791 1.20218 0
M  V30 9319 O 909.228 -0.9653 1.45009 0
M  V30 9320 C 906.36 -1.79438 2.89853 0
M  V30 9321 H 907.553 0.0110319 2.99898 0
M  V30 9322 H 905.106 0.043256 1.5624 0
M  V30 9323 H 905.841 -2.4199 2.15897 0
M  V30 9324 H 905.626 -1.44827 3.64373 0
M  V30 9325 H 907.116 -2.41048 3.41007 0
M  V30 9326 N 907.553 -1.57587 0.0200696 0
M  V30 9327 C 908.485 -2.06555 -0.993359 0
M  V30 9328 C 909.498 -0.987227 -1.29451 0
M  V30 9329 O 910.687 -1.26361 -1.26075 0
M  V30 9330 C 907.787 -2.4675 -2.3231 0
M  V30 9331 C 906.96 -3.77554 -2.20843 0
M  V30 9332 C 906.019 -4.04397 -3.36674 0
M  V30 9333 O 905.045 -4.7478 -3.13963 0
M  V30 9334 N 906.247 -3.53861 -4.60176 0
M  V30 9335 H 909.012 -2.9412 -0.575617 0
M  V30 9336 H 906.573 -1.61038 -0.166889 0
M  V30 9337 H 908.565 -2.61806 -3.08609 0
M  V30 9338 H 907.135 -1.64598 -2.65756 0
M  V30 9339 H 906.355 -3.72382 -1.29327 0
M  V30 9340 H 907.643 -4.63271 -2.10375 0
M  V30 9341 H 907.041 -2.96904 -4.81523 0
M  V30 9342 H 905.598 -3.74213 -5.33674 0
M  V30 9343 N 909.032 0.252966 -1.55557 0
M  V30 9344 C 909.98 1.33289 -1.90622 0
M  V30 9345 C 910.974 1.50133 -0.784638 0
M  V30 9346 O 912.18 1.51679 -0.969196 0
M  V30 9347 H 908.555 0.446196 -0.605321 0
M  V30 9348 H 910.526 1.00977 -2.80796 0
M  V30 9349 C 909.275 2.68254 -2.21213 0
M  V30 9350 H 908.598 2.5609 -3.07014 0
M  V30 9351 H 910.038 3.42707 -2.49656 0
M  V30 9352 C 908.497 3.20884 -1.02642 0
M  V30 9353 O 909.027 4.00783 -0.271292 0
M  V30 9354 N 907.233 2.7883 -0.818682 0
M  V30 9355 H 906.78 2.13966 -1.43444 0
M  V30 9356 H 906.738 3.14388 -0.0269989 0
M  V30 9357 N 910.51 1.48831 0.518367 0
M  V30 9358 C 911.42 1.6692 1.64848 0
M  V30 9359 C 912.436 0.551711 1.65022 0
M  V30 9360 O 913.612 0.824251 1.83761 0
M  V30 9361 C 910.677 1.71559 3.01278 0
M  V30 9362 C 909.738 2.9502 3.11868 0
M  V30 9363 C 908.971 2.99428 4.4179 0
M  V30 9364 O 909.194 2.11914 5.29574 0
M  V30 9365 O 908.128 3.91719 4.5699 0
M  V30 9366 H 911.954 2.62623 1.52521 0
M  V30 9367 H 909.539 1.32368 0.692749 0
M  V30 9368 H 911.421 1.77064 3.82396 0
M  V30 9369 H 910.096 0.790316 3.13904 0
M  V30 9370 H 909.003 2.95042 2.30003 0
M  V30 9371 H 910.336 3.8697 3.04163 0
M  V30 9372 N 911.988 -0.768124 1.37614 0
M  V30 9373 C 913.236 -1.52379 1.3276 0
M  V30 9374 C 913.557 -1.94809 -0.0863564 0
M  V30 9375 O 912.827 -1.66568 -1.03112 0
M  V30 9376 H 911.407 -0.565179 0.488448 0
M  V30 9377 H 914.069 -0.913974 1.72141 0
M  V30 9378 H 913.165 -2.4215 1.96901 0
M  V30 9379 N 913.466 -1.22244 -0.994698 0
M  V30 9380 C 914.429 -0.992308 -2.06606 0
M  V30 9381 C 915.429 0.0405872 -1.60749 0
M  V30 9382 O 916.619 -0.197737 -1.73074 0
M  V30 9383 C 913.751 -0.498499 -3.37236 0
M  V30 9384 H 914.944 -1.9429 -2.28455 0
M  V30 9385 H 912.497 -1.04087 -1.166 0
M  V30 9386 H 913.232 0.456531 -3.21071 0
M  V30 9387 H 913.017 -1.24367 -3.71854 0
M  V30 9388 H 914.507 -0.35768 -4.16065 0
M  V30 9389 N 914.944 1.19125 -1.03184 0
M  V30 9390 C 915.876 2.21914 -0.573294 0
M  V30 9391 C 916.889 1.5894 0.352397 0
M  V30 9392 O 918.078 1.77883 0.148318 0
M  V30 9393 C 915.178 3.38403 0.18355 0
M  V30 9394 C 914.351 4.3096 -0.747817 0
M  V30 9395 C 913.41 5.26188 -0.0358489 0
M  V30 9396 O 912.436 5.65321 -0.663388 0
M  V30 9397 N 913.638 5.67235 1.23387 0
M  V30 9398 H 916.403 2.61881 -1.45734 0
M  V30 9399 H 913.964 1.33821 -0.911231 0
M  V30 9400 H 915.956 3.99124 0.669468 0
M  V30 9401 H 914.526 2.97201 0.969043 0
M  V30 9402 H 913.746 3.67976 -1.41377 0
M  V30 9403 H 915.034 4.89708 -1.38071 0
M  V30 9404 H 914.432 5.37481 1.76439 0
M  V30 9405 H 912.989 6.30196 1.66423 0
M  V30 9406 N 916.422 0.810101 1.35185 0
M  V30 9407 C 917.37 0.211071 2.3164 0
M  V30 9408 C 918.364 -0.641109 1.568 0
M  V30 9409 O 919.57 -0.533881 1.719 0
M  V30 9410 H 915.945 0.0494978 0.750369 0
M  V30 9411 H 917.916 1.03964 2.79703 0
M  V30 9412 C 916.665 -0.622933 3.42074 0
M  V30 9413 H 915.988 0.0234648 3.99793 0
M  V30 9414 H 917.428 -1.0084 4.11834 0
M  V30 9415 C 915.887 -1.78994 2.85417 0
M  V30 9416 O 916.417 -2.88758 2.79252 0
M  V30 9417 N 914.623 -1.60259 2.42416 0
M  V30 9418 H 914.17 -0.70974 2.4763 0
M  V30 9419 H 914.128 -2.38498 2.04857 0
M  V30 9420 N 917.9 -1.47166 0.563914 0
M  V30 9421 C 919.125 -2.0735 0.0454698 0
M  V30 9422 C 919.55 -1.41281 -1.24182 0
M  V30 9423 O 918.908 -0.490084 -1.7455 0
M  V30 9424 C 918.956 -3.60378 -0.126453 0
M  V30 9425 O 918.06 -3.94934 -1.18746 0
M  V30 9426 H 917.401 -0.661773 0.0543377 0
M  V30 9427 H 919.931 -1.89086 0.781508 0
M  V30 9428 H 919.941 -4.06593 -0.338554 0
M  V30 9429 H 918.616 -4.07862 0.81373 0
M  V30 9430 H 917.193 -3.60455 -0.955318 0
M  V30 9431 N 919.378 -0.300708 -1.54705 0
M  V30 9432 C 920.341 0.562648 -2.22187 0
M  V30 9433 C 921.341 1.06152 -1.20782 0
M  V30 9434 O 922.531 0.957596 -1.45519 0
M  V30 9435 C 919.663 1.77899 -2.908 0
M  V30 9436 H 920.856 -0.0269361 -2.99888 0
M  V30 9437 H 918.409 -0.0515412 -1.56215 0
M  V30 9438 H 919.144 2.40841 -2.17177 0
M  V30 9439 H 918.929 1.42892 -3.65136 0
M  V30 9440 H 920.419 2.39236 -3.42281 0
M  V30 9441 N 920.856 1.57574 -0.0284266 0
M  V30 9442 C 922.084 1.96071 0.660575 0
M  V30 9443 C 922.499 0.904881 1.65703 0
M  V30 9444 O 921.856 -0.113379 1.82147 0
M  V30 9445 C 921.907 3.34634 1.36756 0
M  V30 9446 O 921.628 4.36167 0.411041 0
M  V30 9447 C 923.129 3.87758 2.14845 0
M  V30 9448 H 920.349 0.645794 0.182183 0
M  V30 9449 H 922.893 2.04311 -0.0879858 0
M  V30 9450 H 921.048 3.27616 2.06753 0
M  V30 9451 H 921.462 5.16493 0.913 0
M  V30 9452 H 922.936 4.87058 2.59767 0
M  V30 9453 H 923.413 3.21967 2.9872 0
M  V30 9454 H 924.019 3.98043 1.49807 0
M  V30 9455 N 922.334 -0.244713 1.55689 0
M  V30 9456 C 923.581 -0.972446 1.77622 0
M  V30 9457 C 923.909 -1.85235 0.593137 0
M  V30 9458 O 923.164 -1.91064 -0.423464 0
M  V30 9459 C 923.463 -1.8617 3.05083 0
M  V30 9460 C 923.129 -1.13696 4.3633 0
M  V30 9461 C 921.791 -0.936679 4.71996 0
M  V30 9462 C 924.143 -0.623451 5.17458 0
M  V30 9463 C 921.471 -0.210612 5.86322 0
M  V30 9464 C 923.823 0.0891587 6.32537 0
M  V30 9465 C 922.487 0.300904 6.66821 0
M  V30 9466 H 921.757 -0.355843 0.649967 0
M  V30 9467 H 924.404 -0.242372 1.8996 0
M  V30 9468 H 922.709 -2.6589 2.87767 0
M  V30 9469 H 924.406 -2.4265 3.19253 0
M  V30 9470 H 920.996 -1.30301 4.08313 0
M  V30 9471 H 925.18 -0.765725 4.90357 0
M  V30 9472 H 920.436 -0.0361062 6.11389 0
M  V30 9473 H 924.61 0.494685 6.94641 0
M  V30 9474 H 922.237 0.865466 7.55257 0
M  V30 9475 N 923.813 -1.49104 -0.510467 0
M  V30 9476 C 925.038 -1.62068 -1.29417 0
M  V30 9477 C 925.463 -0.288432 -1.85875 0
M  V30 9478 O 924.821 0.742667 -1.65391 0
M  V30 9479 C 924.869 -2.68506 -2.40701 0
M  V30 9480 O 923.973 -2.27021 -3.4429 0
M  V30 9481 H 923.314 -0.542778 -0.382476 0
M  V30 9482 H 925.844 -1.95228 -0.612154 0
M  V30 9483 H 925.854 -2.90383 -2.86604 0
M  V30 9484 H 924.529 -3.65216 -1.98973 0
M  V30 9485 H 923.106 -2.15436 -3.04371 0
M  V30 9486 N 925.291 0.760815 -1.38019 0
M  V30 9487 C 926.254 1.85604 -1.34476 0
M  V30 9488 C 927.254 1.58897 -0.24666 0
M  V30 9489 O 928.444 1.66776 -0.50314 0
M  V30 9490 C 925.576 3.22945 -1.09176 0
M  V30 9491 H 926.769 1.90155 -2.31908 0
M  V30 9492 H 924.322 0.961746 -1.23208 0
M  V30 9493 H 925.057 3.24066 -0.123216 0
M  V30 9494 H 924.842 3.43723 -1.88672 0
M  V30 9495 H 926.332 4.03022 -1.09375 0
M  V30 9496 N 926.769 1.22769 0.988202 0
M  V30 9497 C 927.994 1.08239 1.76915 0
M  V30 9498 C 928.419 -0.362519 1.84574 0
M  V30 9499 O 927.777 -1.26202 1.30165 0
M  V30 9500 C 927.825 1.70363 3.17819 0
M  V30 9501 O 926.929 0.960484 4.01059 0
M  V30 9502 H 926.27 0.379872 0.544604 0
M  V30 9503 H 928.8 1.62663 1.24104 0
M  V30 9504 H 928.81 1.7528 3.6843 0
M  V30 9505 H 927.485 2.75505 3.1156 0
M  V30 9506 H 926.062 0.987667 3.59582 0
M  V30 9507 N 928.247 -1.18576 1.03814 0
M  V30 9508 C 929.194 -2.2212 0.626988 0
M  V30 9509 C 930.164 -1.62064 -0.363912 0
M  V30 9510 O 931.349 -1.89041 -0.258469 0
M  V30 9511 C 928.489 -3.45099 -0.00650133 0
M  V30 9512 C 927.602 -4.19503 1.03156 0
M  V30 9513 C 926.737 -5.29932 0.366852 0
M  V30 9514 C 925.776 -5.96104 1.39018 0
M  V30 9515 N 924.913 -6.98076 0.750625 0
M  V30 9516 H 929.753 -2.56646 1.51449 0
M  V30 9517 H 927.29 -1.26084 0.757702 0
M  V30 9518 H 929.248 -4.15363 -0.391108 0
M  V30 9519 H 927.878 -3.11201 -0.857536 0
M  V30 9520 H 926.93 -3.48092 1.53414 0
M  V30 9521 H 928.242 -4.64843 1.80893 0
M  V30 9522 H 927.396 -6.06657 -0.0720979 0
M  V30 9523 H 926.135 -4.85687 -0.442631 0
M  V30 9524 H 925.14 -5.18122 1.8393 0
M  V30 9525 H 926.365 -6.42432 2.20132 0
M  V30 9526 H 924.311 -6.55989 -0.0385981 0
M  V30 9527 H 924.228 -7.41655 1.46574 0
M  V30 9528 H 925.496 -7.78776 0.335986 0
M  V30 9529 N 929.725 -0.817259 -1.34754 0
M  V30 9530 C 930.655 -0.249769 -2.3216 0
M  V30 9531 C 931.636 0.630663 -1.57977 0
M  V30 9532 O 932.821 0.558719 -1.85989 0
M  V30 9533 C 929.951 0.593825 -3.42186 0
M  V30 9534 C 928.905 -0.188997 -4.27583 0
M  V30 9535 C 928.231 0.776979 -5.29025 0
M  V30 9536 C 929.531 -1.39401 -5.03354 0
M  V30 9537 H 931.225 -1.06359 -2.79872 0
M  V30 9538 H 928.771 -0.512894 -1.34556 0
M  V30 9539 H 930.724 1.00097 -4.09339 0
M  V30 9540 H 929.448 1.44064 -2.93109 0
M  V30 9541 H 928.107 -0.577445 -3.62024 0
M  V30 9542 H 927.755 1.61959 -4.76212 0
M  V30 9543 H 927.455 0.257448 -5.87036 0
M  V30 9544 H 928.979 1.18211 -5.99048 0
M  V30 9545 H 930.393 -1.06117 -5.63393 0
M  V30 9546 H 928.79 -1.84878 -5.70912 0
M  V30 9547 H 929.86 -2.17515 -4.33377 0
M  V30 9548 N 931.203 1.46865 -0.571711 0
M  V30 9549 C 932.133 2.3298 0.155795 0
M  V30 9550 C 933.114 1.44678 0.894553 0
M  V30 9551 O 934.299 1.73513 0.872176 0
M  V30 9552 C 931.429 3.26745 1.17708 0
M  V30 9553 C 930.383 4.24401 0.553863 0
M  V30 9554 C 929.709 5.07595 1.68083 0
M  V30 9555 C 931.009 5.19884 -0.501827 0
M  V30 9556 H 932.703 2.94056 -0.563176 0
M  V30 9557 H 930.249 1.41402 -0.27228 0
M  V30 9558 H 932.202 3.85838 1.6943 0
M  V30 9559 H 930.926 2.63753 1.92618 0
M  V30 9560 H 929.585 3.66554 0.057815 0
M  V30 9561 H 929.233 4.40996 2.41933 0
M  V30 9562 H 928.933 5.73722 1.26953 0
M  V30 9563 H 930.457 5.6955 2.20103 0
M  V30 9564 H 931.871 5.73257 -0.0701057 0
M  V30 9565 H 930.268 5.94293 -0.832815 0
M  V30 9566 H 931.338 4.64482 -1.39229 0
M  V30 9567 N 932.681 0.308908 1.54543 0
M  V30 9568 C 933.613 -0.597453 2.21276 0
M  V30 9569 C 934.626 -1.09137 1.20801 0
M  V30 9570 O 935.815 -1.00747 1.47351 0
M  V30 9571 C 932.915 -1.83085 2.85189 0
M  V30 9572 C 932.088 -1.4781 4.11669 0
M  V30 9573 C 931.147 -2.56748 4.59311 0
M  V30 9574 O 930.173 -2.21507 5.24331 0
M  V30 9575 N 931.375 -3.87427 4.32297 0
M  V30 9576 H 934.14 -0.0261183 2.99689 0
M  V30 9577 H 931.701 0.131456 1.61365 0
M  V30 9578 H 933.693 -2.55326 3.13992 0
M  V30 9579 H 932.263 -2.31039 2.1057 0
M  V30 9580 H 931.483 -0.587974 3.8979 0
M  V30 9581 H 932.771 -1.2179 4.94009 0
M  V30 9582 H 932.169 -4.18863 3.80224 0
M  V30 9583 H 930.726 -4.55942 4.6579 0
M  V30 9584 N 934.159 -1.57557 0.0367827 0
M  V30 9585 C 935.107 -2.11844 -0.960454 0
M  V30 9586 C 936.101 -1.04681 -1.33185 0
M  V30 9587 O 937.307 -1.23108 -1.31318 0
M  V30 9588 H 933.682 -0.676921 -0.32754 0
M  V30 9589 H 935.653 -2.94557 -0.477346 0
M  V30 9590 C 934.402 -2.66683 -2.23105 0
M  V30 9591 H 933.725 -3.48795 -1.95403 0
M  V30 9592 H 935.165 -3.08305 -2.91074 0
M  V30 9593 C 933.624 -1.59782 -2.96599 0
M  V30 9594 O 934.154 -1.00214 -3.88999 0
M  V30 9595 N 932.36 -1.31644 -2.59072 0
M  V30 9596 H 931.907 -1.80272 -1.8401 0
M  V30 9597 H 931.865 -0.603457 -3.08554 0
M  V30 9598 N 935.637 0.236453 -1.55816 0
M  V30 9599 C 936.567 1.29639 -1.94206 0
M  V30 9600 C 937.548 1.49667 -0.808319 0
M  V30 9601 O 938.733 1.621 -1.06945 0
M  V30 9602 C 935.863 2.64914 -2.24584 0
M  V30 9603 C 934.817 2.59565 -3.40308 0
M  V30 9604 C 934.143 3.98732 -3.56254 0
M  V30 9605 C 935.443 2.15642 -4.75706 0
M  V30 9606 H 937.137 0.977552 -2.82992 0
M  V30 9607 H 934.683 0.468804 -1.36155 0
M  V30 9608 H 936.636 3.39209 -2.50031 0
M  V30 9609 H 935.36 2.98455 -1.32636 0
M  V30 9610 H 934.019 1.87728 -3.14887 0
M  V30 9611 H 933.667 4.29556 -2.61707 0
M  V30 9612 H 933.367 3.96039 -4.34082 0
M  V30 9613 H 934.891 4.74711 -3.84033 0
M  V30 9614 H 936.305 2.79673 -5.00456 0
M  V30 9615 H 934.702 2.24039 -5.56711 0
M  V30 9616 H 935.772 1.10831 -4.72064 0
M  V30 9617 N 937.115 1.49373 0.502552 0
M  V30 9618 C 938.078 1.65413 1.58654 0
M  V30 9619 C 939.078 0.526003 1.51953 0
M  V30 9620 O 940.268 0.792421 1.55133 0
M  V30 9621 C 937.4 1.65005 2.98306 0
M  V30 9622 H 938.593 2.62095 1.45762 0
M  V30 9623 H 936.146 1.38381 0.726672 0
M  V30 9624 H 936.881 0.699014 3.16677 0
M  V30 9625 H 936.666 2.46931 3.04578 0
M  V30 9626 H 938.156 1.79477 3.77065 0
M  V30 9627 N 938.594 -0.753485 1.38421 0
M  V30 9628 C 939.526 -1.87692 1.31547 0
M  V30 9629 C 940.539 -1.612 0.227671 0
M  V30 9630 O 941.728 -1.71778 0.485238 0
M  V30 9631 C 938.828 -3.23329 1.01545 0
M  V30 9632 C 938.001 -3.77324 2.21236 0
M  V30 9633 C 937.06 -4.91478 1.87977 0
M  V30 9634 O 936.086 -5.06106 2.60472 0
M  V30 9635 N 937.288 -5.74466 0.834796 0
M  V30 9636 H 940.053 -1.94099 2.28354 0
M  V30 9637 H 937.614 -0.933421 1.32283 0
M  V30 9638 H 939.606 -3.9724 0.773477 0
M  V30 9639 H 938.176 -3.12307 0.135334 0
M  V30 9640 H 937.396 -2.94978 2.61498 0
M  V30 9641 H 938.684 -4.10131 3.01115 0
M  V30 9642 H 938.082 -5.65217 0.233606 0
M  V30 9643 H 936.639 -6.48524 0.652703 0
M  V30 9644 N 940.072 -1.23292 -0.981677 0
M  V30 9645 C 941.312 -1.07597 -1.73788 0
M  V30 9646 C 941.676 0.380762 -1.88187 0
M  V30 9647 O 942.877 0.658866 -2.606 0
M  V30 9648 C 941.148 -1.78008 -3.09916 0
M  V30 9649 S 942.707 -1.77868 -4.01134 0
M  V30 9650 H 939.525 -0.385092 -0.597683 0
M  V30 9651 H 942.127 -1.56408 -1.17289 0
M  V30 9652 H 940.831 -2.83139 -2.97087 0
M  V30 9653 H 940.362 -1.29473 -3.71484 0
M  V30 9654 H 942.377 -0.836368 -4.89101 0
M  V30 9655 N 941.55 1.18024 -1.04442 0
M  V30 9656 C 942.798 1.87727 -0.74854 0
M  V30 9657 C 943.119 1.80975 0.726156 0
M  V30 9658 O 942.389 1.23061 1.52423 0
M  V30 9659 H 940.969 0.694974 -0.273897 0
M  V30 9660 H 943.631 1.43213 -1.32197 0
M  V30 9661 H 942.727 2.93665 -1.05674 0
M  V30 9662 N 943.028 0.824394 1.34319 0
M  V30 9663 C 943.961 0.192544 2.27386 0
M  V30 9664 C 944.939 -0.651901 1.4896 0
M  V30 9665 O 946.123 -0.615321 1.78174 0
M  V30 9666 C 943.25 -0.730958 3.30718 0
M  V30 9667 C 942.296 0.0361484 4.26485 0
M  V30 9668 S 943.129 1.3843 5.17298 0
M  V30 9669 C 944.285 0.465713 6.24165 0
M  V30 9670 H 944.518 0.981573 2.80629 0
M  V30 9671 H 942.051 0.620371 1.41389 0
M  V30 9672 H 944.009 -1.25822 3.90742 0
M  V30 9673 H 942.67 -1.49352 2.7632 0
M  V30 9674 H 941.863 -0.665969 4.99581 0
M  V30 9675 H 941.465 0.494011 3.70723 0
M  V30 9676 H 943.757 -0.342157 6.76635 0
M  V30 9677 H 944.7 1.16639 6.98427 0
M  V30 9678 H 945.108 0.0534895 5.64475 0
M  V30 9679 N 944.506 -1.46559 0.579492 0
M  V30 9680 C 945.438 -2.28383 -0.19337 0
M  V30 9681 C 946.451 -1.38324 -0.858511 0
M  V30 9682 O 947.64 -1.62952 -0.728615 0
M  V30 9683 C 944.74 -3.13262 -1.29306 0
M  V30 9684 C 943.913 -4.31426 -0.720459 0
M  V30 9685 C 942.972 -4.97728 -1.70744 0
M  V30 9686 O 941.998 -5.55423 -1.24476 0
M  V30 9687 N 943.2 -4.94445 -3.04146 0
M  V30 9688 H 945.965 -2.95353 0.508611 0
M  V30 9689 H 943.526 -1.56436 0.417046 0
M  V30 9690 H 945.518 -3.54483 -1.95254 0
M  V30 9691 H 944.088 -2.48388 -1.89795 0
M  V30 9692 H 943.308 -3.94028 0.116398 0
M  V30 9693 H 944.596 -5.07808 -0.31763 0
M  V30 9694 H 943.994 -4.4881 -3.44363 0
M  V30 9695 H 942.551 -5.39616 -3.65592 0
M  V30 9696 N 945.984 -0.3171 -1.54377 0
M  V30 9697 C 947.209 0.292311 -2.0533 0
M  V30 9698 C 947.634 1.45503 -1.19207 0
M  V30 9699 O 946.992 1.80197 -0.199721 0
M  V30 9700 C 947.04 0.710787 -3.53525 0
M  V30 9701 O 946.144 1.81387 -3.70368 0
M  V30 9702 H 945.485 0.0539976 -0.661801 0
M  V30 9703 H 948.015 -0.463629 -1.99278 0
M  V30 9704 H 948.025 0.995216 -3.95676 0
M  V30 9705 H 946.7 -0.139668 -4.15665 0
M  V30 9706 H 945.277 1.52875 -3.40123 0
M  V30 9707 N 947.462 1.57535 -0.0451378 0
M  V30 9708 C 948.687 1.97172 0.64326 0
M  V30 9709 C 949.112 0.922266 1.63939 0
M  V30 9710 O 948.47 -0.115155 1.80934 0
M  V30 9711 C 948.518 3.35889 1.3119 0
M  V30 9712 O 947.622 3.33387 2.42748 0
M  V30 9713 H 946.963 0.642469 0.167719 0
M  V30 9714 H 949.493 2.04295 -0.111747 0
M  V30 9715 H 949.503 3.72481 1.66499 0
M  V30 9716 H 948.178 4.1181 0.581823 0
M  V30 9717 H 946.755 3.08533 2.09432 0
M  V30 9718 N 948.94 -0.228186 1.55939 0
M  V30 9719 C 949.873 -1.30971 1.86874 0
M  V30 9720 C 950.851 -1.45517 0.725496 0
M  V30 9721 O 952.035 -1.61436 0.973181 0
M  V30 9722 C 949.162 -2.68089 2.06992 0
M  V30 9723 C 948.208 -2.70594 3.29669 0
M  V30 9724 S 949.041 -2.25325 4.85787 0
M  V30 9725 C 950.197 -3.64331 5.08934 0
M  V30 9726 H 950.43 -1.04536 2.78315 0
M  V30 9727 H 947.963 -0.430103 1.48288 0
M  V30 9728 H 949.921 -3.47033 2.19267 0
M  V30 9729 H 948.582 -2.91752 1.16359 0
M  V30 9730 H 947.775 -3.71338 3.4077 0
M  V30 9731 H 947.377 -1.99708 3.16216 0
M  V30 9732 H 949.669 -4.59972 4.97425 0
M  V30 9733 H 950.612 -3.58151 6.10847 0
M  V30 9734 H 951.02 -3.57711 4.36695 0
M  V30 9735 N 950.418 -1.49637 -0.494624 0
M  V30 9736 C 951.643 -1.63431 -1.27691 0
M  V30 9737 C 952.068 -0.30813 -1.85559 0
M  V30 9738 O 951.426 0.725083 -1.66169 0
M  V30 9739 C 951.474 -2.71043 -2.3784 0
M  V30 9740 O 950.578 -2.3066 -3.41862 0
M  V30 9741 H 949.919 -0.546804 -0.376698 0
M  V30 9742 H 952.449 -1.95866 -0.591413 0
M  V30 9743 H 952.459 -2.93406 -2.83508 0
M  V30 9744 H 951.134 -3.67306 -1.95088 0
M  V30 9745 H 949.711 -2.18652 -3.02069 0
M  V30 9746 N 951.896 0.746133 -1.38819 0
M  V30 9747 C 953.142 1.50768 -1.35635 0
M  V30 9748 C 953.475 1.94132 0.0512435 0
M  V30 9749 O 952.75 1.65979 1.01396 0
M  V30 9750 C 953.033 2.7551 -2.31875 0
M  V30 9751 C 952.886 2.38236 -3.81528 0
M  V30 9752 C 954.205 3.77566 -2.26124 0
M  V30 9753 H 951.324 0.546922 -0.494009 0
M  V30 9754 H 953.966 0.854017 -1.69725 0
M  V30 9755 H 952.116 3.31285 -2.02935 0
M  V30 9756 H 953.788 1.88178 -4.21173 0
M  V30 9757 H 952.031 1.70601 -3.98846 0
M  V30 9758 H 952.702 3.27517 -4.44339 0
M  V30 9759 H 955.178 3.31349 -2.51689 0
M  V30 9760 H 954.054 4.62531 -2.95561 0
M  V30 9761 H 954.315 4.23689 -1.26254 0
M  V30 9762 N 953.375 1.23811 0.975125 0
M  V30 9763 C 954.285 1.0408 2.10249 0
M  V30 9764 C 955.301 -0.0162404 1.73992 0
M  V30 9765 O 956.477 0.180346 2.00591 0
M  V30 9766 C 953.542 0.640013 3.40741 0
M  V30 9767 C 952.603 1.7727 3.90991 0
M  V30 9768 C 951.836 1.39094 5.15256 0
M  V30 9769 O 952.059 0.277483 5.69725 0
M  V30 9770 O 950.993 2.21392 5.59704 0
M  V30 9771 H 954.819 1.98575 2.29786 0
M  V30 9772 H 952.404 1.02563 1.08633 0
M  V30 9773 H 954.286 0.427684 4.19224 0
M  V30 9774 H 952.961 -0.27589 3.22522 0
M  V30 9775 H 951.868 2.03971 3.13602 0
M  V30 9776 H 953.201 2.66711 4.13674 0
M  V30 9777 N 954.853 -1.17469 1.05066 0
M  V30 9778 C 955.763 -2.25089 0.661222 0
M  V30 9779 C 956.779 -1.71086 -0.31712 0
M  V30 9780 O 957.955 -2.00685 -0.169534 0
M  V30 9781 C 955.02 -3.46676 0.0406415 0
M  V30 9782 C 954.081 -4.15771 1.06927 0
M  V30 9783 C 953.314 -5.31553 0.478208 0
M  V30 9784 O 953.537 -5.6593 -0.712714 0
M  V30 9785 O 952.471 -5.89574 1.21185 0
M  V30 9786 H 956.297 -2.60685 1.5581 0
M  V30 9787 H 953.882 -1.24744 0.822147 0
M  V30 9788 H 955.764 -4.203 -0.304312 0
M  V30 9789 H 954.439 -3.1288 -0.829909 0
M  V30 9790 H 953.346 -3.44171 1.46619 0
M  V30 9791 H 954.679 -4.53591 1.91092 0
M  V30 9792 N 956.331 -0.831506 -1.3388 0
M  V30 9793 C 957.263 -0.216908 -2.28171 0
M  V30 9794 C 958.276 0.598141 -1.51414 0
M  V30 9795 O 959.465 0.426416 -1.73332 0
M  V30 9796 C 956.565 0.713831 -3.31297 0
M  V30 9797 C 955.738 -0.0602673 -4.37358 0
M  V30 9798 C 954.797 0.792696 -5.20195 0
M  V30 9799 O 953.823 0.234564 -5.68716 0
M  V30 9800 N 955.025 2.11119 -5.40748 0
M  V30 9801 H 957.79 -1.02704 -2.81553 0
M  V30 9802 H 955.351 -0.689272 -1.46495 0
M  V30 9803 H 957.343 1.28925 -3.83615 0
M  V30 9804 H 955.913 1.42469 -2.78247 0
M  V30 9805 H 955.133 -0.817041 -3.8564 0
M  V30 9806 H 956.421 -0.592822 -5.05335 0
M  V30 9807 H 955.819 2.58828 -5.03016 0
M  V30 9808 H 954.376 2.63527 -5.96151 0
M  V30 9809 N 957.809 1.4625 -0.587256 0
M  V30 9810 C 959.225 1.57641 -0.249284 0
M  V30 9811 C 959.425 1.58169 1.24839 0
M  V30 9812 O 958.481 1.50109 2.03036 0
M  V30 9813 C 959.794 2.86837 -0.902509 0
M  V30 9814 C 961.342 3.00476 -0.876524 0
M  V30 9815 C 961.817 4.32414 -1.50938 0
M  V30 9816 N 963.308 4.39124 -1.47392 0
M  V30 9817 C 964.043 5.39838 -1.93293 0
M  V30 9818 N 963.539 6.47202 -2.47188 0
M  V30 9819 N 965.332 5.31068 -1.84183 0
M  V30 9820 H 957.483 1.44151 -1.55994 0
M  V30 9821 H 959.746 0.687905 -0.652297 0
M  V30 9822 H 959.452 2.92274 -1.95624 0
M  V30 9823 H 959.326 3.74927 -0.413466 0
M  V30 9824 H 961.713 2.94618 0.168601 0
M  V30 9825 H 961.794 2.1385 -1.40363 0
M  V30 9826 H 961.438 4.3903 -2.55372 0
M  V30 9827 H 961.368 5.17823 -0.957455 0
M  V30 9828 H 963.859 3.62138 -1.08002 0
M  V30 9829 H 964.172 7.20269 -2.80058 0
M  V30 9830 H 962.517 6.48009 -2.51216 0
M  V30 9831 H 965.708 4.46095 -1.41833 0
M  V30 9832 H 965.881 6.09414 -2.2027 0
M  V30 9833 N 959.287 0.325282 1.54207 0
M  V30 9834 C 960.698 -0.162426 1.85992 0
M  V30 9835 C 961.049 -1.51482 1.2469 0
M  V30 9836 O 960.174 -2.092 0.553578 0
M  V30 9837 C 960.769 -0.3015 3.37456 0
M  V30 9838 C 959.328 -0.73343 3.69185 0
M  V30 9839 C 958.475 0.143831 2.76927 0
M  V30 9840 H 961.426 0.545508 1.4903 0
M  V30 9841 H 961.447 -1.13212 3.63268 0
M  V30 9842 H 960.959 0.682942 3.82044 0
M  V30 9843 H 959.06 -1.72755 3.30131 0
M  V30 9844 H 959.173 -0.535987 4.76092 0
M  V30 9845 H 957.537 -0.380892 2.51836 0
M  V30 9846 H 958.32 1.12507 3.24341 0
M  V30 9847 N 960.765 -1.57509 0.0534917 0
M  V30 9848 C 961.99 -1.97511 -0.632794 0
M  V30 9849 C 962.415 -0.930947 -1.63447 0
M  V30 9850 O 961.773 0.105558 -1.80992 0
M  V30 9851 C 961.821 -3.3658 -1.29407 0
M  V30 9852 O 960.925 -3.3467 -2.40977 0
M  V30 9853 H 960.266 -0.643349 -0.16431 0
M  V30 9854 H 962.796 -2.04232 0.12258 0
M  V30 9855 H 962.806 -3.73359 -1.64521 0
M  V30 9856 H 961.481 -4.12113 -0.559976 0
M  V30 9857 H 960.058 -3.09639 -2.07793 0
M  V30 9858 N 962.243 0.219913 -1.56058 0
M  V30 9859 C 963.19 1.27254 -1.92549 0
M  V30 9860 C 964.16 1.46493 -0.782883 0
M  V30 9861 O 965.345 1.60035 -1.03892 0
M  V30 9862 C 962.485 2.61756 -2.24896 0
M  V30 9863 C 961.598 2.50302 -3.52098 0
M  V30 9864 C 960.733 3.77338 -3.73884 0
M  V30 9865 C 959.772 3.60613 -4.94595 0
M  V30 9866 N 958.909 4.79603 -5.12763 0
M  V30 9867 H 963.749 0.954352 -2.82305 0
M  V30 9868 H 961.286 0.459928 -1.39725 0
M  V30 9869 H 963.244 3.40082 -2.4166 0
M  V30 9870 H 961.874 2.91668 -1.38311 0
M  V30 9871 H 960.926 1.63401 -3.43517 0
M  V30 9872 H 962.238 2.33866 -4.40577 0
M  V30 9873 H 961.392 4.64108 -3.90754 0
M  V30 9874 H 960.131 3.96702 -2.83689 0
M  V30 9875 H 959.136 2.72228 -4.77674 0
M  V30 9876 H 960.361 3.42719 -5.86277 0
M  V30 9877 H 958.307 4.99277 -4.2551 0
M  V30 9878 H 958.224 4.65899 -5.95377 0
M  V30 9879 H 959.492 5.67794 -5.34069 0
M  V30 9880 N 963.721 1.49897 0.486681 0
M  V30 9881 C 964.653 1.63755 1.60365 0
M  V30 9882 C 965.666 0.519614 1.54285 0
M  V30 9883 O 966.855 0.792219 1.59957 0
M  V30 9884 C 963.955 1.59153 2.99205 0
M  V30 9885 C 963.128 2.8672 3.30319 0
M  V30 9886 C 962.187 2.74974 4.48638 0
M  V30 9887 O 961.213 3.48922 4.49714 0
M  V30 9888 N 962.415 1.87479 5.49392 0
M  V30 9889 H 965.18 2.60094 1.48899 0
M  V30 9890 H 962.741 1.47166 0.674825 0
M  V30 9891 H 964.733 1.4893 3.76301 0
M  V30 9892 H 963.303 0.706133 3.0452 0
M  V30 9893 H 962.523 3.11188 2.41983 0
M  V30 9894 H 963.811 3.71262 3.47911 0
M  V30 9895 H 963.209 1.26684 5.51333 0
M  V30 9896 H 961.766 1.83169 6.25534 0
M  V30 9897 N 965.199 -0.738761 1.39212 0
M  V30 9898 C 966.129 -1.86602 1.40364 0
M  V30 9899 C 967.11 -1.67984 0.267495 0
M  V30 9900 O 968.295 -1.88358 0.472765 0
M  V30 9901 C 965.425 -3.24308 1.24265 0
M  V30 9902 C 964.379 -3.57557 2.35239 0
M  V30 9903 C 963.705 -4.94159 2.04233 0
M  V30 9904 C 965.005 -3.60914 3.77543 0
M  V30 9905 H 966.699 -1.85896 2.34698 0
M  V30 9906 H 964.245 -0.892959 1.1297 0
M  V30 9907 H 966.198 -4.02838 1.23692 0
M  V30 9908 H 964.922 -3.25531 0.263974 0
M  V30 9909 H 963.581 -2.81354 2.35022 0
M  V30 9910 H 963.229 -4.91959 1.04813 0
M  V30 9911 H 962.929 -5.17373 2.78567 0
M  V30 9912 H 964.453 -5.7505 2.05303 0
M  V30 9913 H 965.867 -4.29528 3.79709 0
M  V30 9914 H 964.264 -3.95644 4.51205 0
M  V30 9915 H 965.334 -2.60803 4.08791 0
M  V30 9916 N 966.677 -1.24326 -0.968545 0
M  V30 9917 C 967.607 -1.05951 -2.08079 0
M  V30 9918 C 968.588 0.0272666 -1.70078 0
M  V30 9919 O 969.773 -0.139644 -1.93697 0
M  V30 9920 C 966.903 -0.662623 -3.4092 0
M  V30 9921 C 965.857 -1.69807 -3.92873 0
M  V30 9922 C 965.183 -1.15628 -5.22048 0
M  V30 9923 C 966.483 -3.09383 -4.20808 0
M  V30 9924 H 968.177 -1.98984 -2.23709 0
M  V30 9925 H 965.723 -0.958112 -1.075 0
M  V30 9926 H 967.676 -0.521071 -4.18166 0
M  V30 9927 H 966.4 0.303399 -3.25188 0
M  V30 9928 H 965.059 -1.82783 -3.17783 0
M  V30 9929 H 964.707 -0.180888 -5.02675 0
M  V30 9930 H 964.407 -1.84822 -5.57776 0
M  V30 9931 H 965.931 -1.02683 -6.01904 0
M  V30 9932 H 967.345 -2.99642 -4.88761 0
M  V30 9933 H 965.742 -3.75923 -4.67763 0
M  V30 9934 H 966.812 -3.57486 -3.27616 0
M  V30 9935 N 968.156 1.1691 -1.05688 0
M  V30 9936 C 969.384 1.91204 -0.790485 0
M  V30 9937 C 969.799 1.77095 0.654434 0
M  V30 9938 O 969.156 1.11146 1.44751 0
M  V30 9939 C 969.207 3.42108 -1.16808 0
M  V30 9940 O 968.928 3.55788 -2.55629 0
M  V30 9941 C 970.429 4.33466 -0.92855 0
M  V30 9942 H 967.649 0.606508 -0.287035 0
M  V30 9943 H 970.193 1.48225 -1.40888 0
M  V30 9944 H 968.348 3.82814 -0.59434 0
M  V30 9945 H 968.762 4.49321 -2.70575 0
M  V30 9946 H 970.236 5.37836 -1.24245 0
M  V30 9947 H 970.713 4.38989 0.136016 0
M  V30 9948 H 971.319 3.98481 -1.48638 0
M  V30 9949 N 969.634 0.838594 1.33437 0
M  V30 9950 C 970.882 0.433312 1.974 0
M  V30 9951 C 971.203 -1.01078 1.66758 0
M  V30 9952 O 970.473 -1.70406 0.966373 0
M  V30 9953 H 969.053 0.15724 0.730263 0
M  V30 9954 H 971.715 1.07149 1.62804 0
M  V30 9955 H 970.811 0.565144 3.06941 0
M  V30 9956 N 971.112 -1.45937 0.595003 0
M  V30 9957 C 972.06 -2.32155 -0.143798 0
M  V30 9958 C 973.054 -1.45221 -0.872198 0
M  V30 9959 O 974.26 -1.61777 -0.789191 0
M  V30 9960 H 970.635 -0.749165 -0.0652377 0
M  V30 9961 H 972.606 -2.92264 0.602005 0
M  V30 9962 C 971.355 -3.28615 -1.13611 0
M  V30 9963 H 970.678 -3.95496 -0.585044 0
M  V30 9964 H 972.118 -3.91699 -1.62321 0
M  V30 9965 C 970.577 -2.54863 -2.20333 0
M  V30 9966 O 971.107 -2.32071 -3.27881 0
M  V30 9967 N 969.313 -2.15213 -1.95274 0
M  V30 9968 H 968.86 -2.33949 -1.07822 0
M  V30 9969 H 968.818 -1.66188 -2.66888 0
M  V30 9970 N 972.59 -0.333456 -1.54032 0
M  V30 9971 C 973.818 0.267813 -2.05159 0
M  V30 9972 C 974.233 1.4501 -1.20903 0
M  V30 9973 O 973.59 1.80888 -0.241994 0
M  V30 9974 C 973.641 0.69268 -3.54802 0
M  V30 9975 O 973.362 -0.442579 -4.35859 0
M  V30 9976 C 974.863 1.35572 -4.2206 0
M  V30 9977 H 972.083 0.0534924 -0.668864 0
M  V30 9978 H 974.627 -0.482515 -1.98726 0
M  V30 9979 H 972.782 1.39297 -3.6149 0
M  V30 9980 H 973.196 -0.105915 -5.24393 0
M  V30 9981 H 974.67 1.60385 -5.28186 0
M  V30 9982 H 975.147 2.30614 -3.73783 0
M  V30 9983 H 975.753 0.697748 -4.19537 0
M  V30 9984 N 974.068 1.57479 -0.061844 0
M  V30 9985 C 975.345 1.84484 0.649993 0
M  V30 9986 C 975.725 0.952366 1.88396 0
M  V30 9987 O 975.073 0.0161035 2.28494 0
M  V30 9988 C 975.283 3.34452 0.997133 0
M  V30 9989 C 976.631 4.01724 1.37488 0
M  V30 9990 O 977.655 3.3914 1.08916 0
M  V30 9991 O 976.514 5.12091 1.90854 0
M  V30 9992 H 973.608 0.761798 0.321858 0
M  V30 9993 H 976.154 1.6945 -0.0920192 0
M  V30 9994 H 974.926 3.91115 0.120301 0
M  V30 9995 H 974.549 3.54713 1.79624 0
M  V30 9996 N 975.546 -0.211634 1.56173 0
M  V30 9997 C 976.493 -1.26231 1.93221 0
M  V30 9998 C 977.463 -1.46076 0.790641 0
M  V30 9999 O 978.648 -1.59482 1.04739 0
M  V30 10000 C 975.788 -2.60559 2.26281 0
M  V30 10001 C 974.901 -2.48431 3.5342 0
M  V30 10002 C 974.036 -3.7535 3.7588 0
M  V30 10003 C 973.075 -3.57985 4.96501 0
M  V30 10004 N 972.212 -4.76877 5.15299 0
M  V30 10005 H 977.052 -0.939367 2.82807 0
M  V30 10006 H 974.589 -0.452511 1.39967 0
M  V30 10007 H 976.547 -3.38796 2.43461 0
M  V30 10008 H 975.177 -2.9093 1.39855 0
M  V30 10009 H 974.229 -1.61577 3.44379 0
M  V30 10010 H 975.541 -2.31526 4.41811 0
M  V30 10011 H 974.695 -4.62029 3.9321 0
M  V30 10012 H 973.434 -3.95191 2.85788 0
M  V30 10013 H 972.439 -2.69691 4.79111 0
M  V30 10014 H 973.664 -3.39605 5.88086 0
M  V30 10015 H 971.61 -4.97013 4.28152 0
M  V30 10016 H 971.527 -4.62735 5.9784 0
M  V30 10017 H 972.795 -5.64954 5.37073 0
M  V30 10018 N 977.024 -1.50153 -0.478725 0
M  V30 10019 C 978.435 -1.53706 -1.05978 0
M  V30 10020 C 978.786 -0.336112 -1.933 0
M  V30 10021 O 977.911 0.551803 -2.09246 0
M  V30 10022 C 978.506 -2.78541 -1.92874 0
M  V30 10023 C 977.065 -2.848 -2.46102 0
M  V30 10024 C 976.212 -2.47902 -1.24257 0
M  V30 10025 H 979.163 -1.56528 -0.261664 0
M  V30 10026 H 979.184 -2.59964 -2.77847 0
M  V30 10027 H 978.696 -3.6593 -1.29293 0
M  V30 10028 H 976.797 -2.01744 -3.13257 0
M  V30 10029 H 976.91 -3.87511 -2.81731 0
M  V30 10030 H 975.274 -2.0017 -1.57493 0
M  V30 10031 H 976.057 -3.3759 -0.62351 0
M  V30 10032 N 978.502 0.731368 -1.39602 0
M  V30 10033 C 979.751 1.48647 -1.36334 0
M  V30 10034 C 980.064 1.95565 0.0367383 0
M  V30 10035 O 981.27 2.7082 0.192017 0
M  V30 10036 C 979.726 2.68616 -2.39528 0
M  V30 10037 C 979.334 2.28632 -3.85268 0
M  V30 10038 C 981.078 3.46422 -2.45341 0
M  V30 10039 C 978.985 3.45345 -4.80095 0
M  V30 10040 H 977.915 0.558218 -0.506861 0
M  V30 10041 H 980.566 0.797467 -1.65266 0
M  V30 10042 H 978.948 3.39609 -2.03671 0
M  V30 10043 H 980.122 1.65162 -4.30184 0
M  V30 10044 H 978.437 1.63909 -3.82783 0
M  V30 10045 H 981.034 4.33241 -3.13379 0
M  V30 10046 H 981.377 3.8914 -1.47904 0
M  V30 10047 H 981.91 2.82461 -2.80108 0
M  V30 10048 H 978.649 3.07674 -5.78807 0
M  V30 10049 H 978.169 4.07784 -4.39855 0
M  V30 10050 H 979.848 4.1163 -4.99169 0
M  V30 10051 N 979.98 1.24838 0.961938 0
M  V30 10052 C 981.228 1.08936 1.70227 0
M  V30 10053 C 981.549 -0.371582 1.91427 0
M  V30 10054 O 980.819 -1.26461 1.49614 0
M  V30 10055 H 979.399 0.400128 0.630799 0
M  V30 10056 H 982.061 1.56848 1.15692 0
M  V30 10057 H 981.157 1.59195 2.68446 0
M  V30 10058 N 981.458 -1.16348 1.06306 0
M  V30 10059 C 982.391 -2.19667 0.618197 0
M  V30 10060 C 983.369 -1.58586 -0.359078 0
M  V30 10061 O 984.553 -1.86585 -0.268023 0
M  V30 10062 C 981.68 -3.3857 -0.0937091 0
M  V30 10063 C 980.726 -4.18139 0.840339 0
M  V30 10064 S 981.559 -4.81879 2.33565 0
M  V30 10065 C 982.715 -6.04161 1.63524 0
M  V30 10066 H 982.948 -2.57063 1.49352 0
M  V30 10067 H 980.481 -1.27141 0.876046 0
M  V30 10068 H 982.439 -4.07465 -0.498227 0
M  V30 10069 H 981.1 -2.9954 -0.94523 0
M  V30 10070 H 980.293 -5.03172 0.288781 0
M  V30 10071 H 979.895 -3.54739 1.18474 0
M  V30 10072 H 982.187 -6.70935 0.940904 0
M  V30 10073 H 983.13 -6.63866 2.46347 0
M  V30 10074 H 983.538 -5.53323 1.11778 0
M  V30 10075 N 982.937 -0.845659 -1.3299 0
M  V30 10076 C 984.186 -0.440928 -1.96822 0
M  V30 10077 C 984.499 1.00668 -1.67706 0
M  V30 10078 O 985.705 1.51641 -2.25205 0
M  V30 10079 C 984.161 -0.73752 -3.52262 0
M  V30 10080 C 983.769 -2.20026 -3.90247 0
M  V30 10081 C 985.513 -0.400072 -4.22611 0
M  V30 10082 C 983.42 -2.44054 -5.38694 0
M  V30 10083 H 982.35 -0.161148 -0.736578 0
M  V30 10084 H 985.001 -1.03519 -1.51513 0
M  V30 10085 H 983.383 -0.0728025 -3.95933 0
M  V30 10086 H 984.557 -2.90602 -3.57613 0
M  V30 10087 H 982.872 -2.50135 -3.32899 0
M  V30 10088 H 985.469 -0.557136 -5.3179 0
M  V30 10089 H 985.812 0.657547 -4.11074 0
M  V30 10090 H 986.345 -1.0203 -3.84493 0
M  V30 10091 H 983.084 -3.48407 -5.55241 0
M  V30 10092 H 982.604 -1.78047 -5.72765 0
M  V30 10093 H 984.283 -2.27549 -6.05665 0
M  V30 10094 N 984.415 1.45619 -0.602734 0
M  V30 10095 C 985.692 1.9558 -0.0282472 0
M  V30 10096 C 986.072 1.54523 1.43826 0
M  V30 10097 O 985.42 0.805456 2.13833 0
M  V30 10098 C 985.63 3.48298 -0.221263 0
M  V30 10099 C 986.978 4.24483 -0.0995249 0
M  V30 10100 O 988.002 3.55879 -0.151132 0
M  V30 10101 O 986.861 5.46497 0.0194454 0
M  V30 10102 H 983.955 0.826104 0.0384897 0
M  V30 10103 H 986.501 1.55808 -0.672456 0
M  V30 10104 H 985.273 3.71134 -1.23997 0
M  V30 10105 H 984.896 3.94948 0.458437 0
M  V30 10106 N 985.893 0.34162 1.53853 0
M  V30 10107 C 987.309 -0.0103769 1.59597 0
M  V30 10108 C 987.509 -1.48897 1.35764 0
M  V30 10109 O 986.565 -2.24743 1.15095 0
M  V30 10110 C 987.878 0.424067 2.97695 0
M  V30 10111 C 989.426 0.376247 3.1073 0
M  V30 10112 C 989.901 0.786129 4.51203 0
M  V30 10113 N 991.392 0.74024 4.57247 0
M  V30 10114 C 992.127 1.02937 5.64085 0
M  V30 10115 N 991.623 1.38655 6.78783 0
M  V30 10116 N 993.416 0.953734 5.5395 0
M  V30 10117 H 985.567 1.30477 1.67599 0
M  V30 10118 H 987.83 0.531753 0.78482 0
M  V30 10119 H 987.536 1.45493 3.20195 0
M  V30 10120 H 987.41 -0.201713 3.7666 0
M  V30 10121 H 989.797 -0.645441 2.87955 0
M  V30 10122 H 989.878 1.0372 2.33828 0
M  V30 10123 H 989.522 1.80582 4.74713 0
M  V30 10124 H 989.452 0.102671 5.265 0
M  V30 10125 H 991.943 0.476763 3.7488 0
M  V30 10126 H 992.256 1.59206 7.56223 0
M  V30 10127 H 990.601 1.42498 6.80235 0
M  V30 10128 H 993.792 0.674044 4.63222 0
M  V30 10129 H 993.965 1.18241 6.37121 0
M  V30 10130 N 987.371 -1.57444 0.0701946 0
M  V30 10131 C 988.301 -2.15659 -0.895176 0
M  V30 10132 C 989.282 -1.08321 -1.31151 0
M  V30 10133 O 990.467 -1.36349 -1.38284 0
M  V30 10134 C 987.597 -2.71693 -2.16334 0
M  V30 10135 C 986.551 -3.84183 -1.88645 0
M  V30 10136 C 985.877 -4.26814 -3.22078 0
M  V30 10137 C 987.177 -5.08493 -1.19299 0
M  V30 10138 H 988.871 -2.96576 -0.410217 0
M  V30 10139 H 986.417 -1.42662 -0.195872 0
M  V30 10140 H 988.37 -3.11064 -2.84284 0
M  V30 10141 H 987.094 -1.87994 -2.67069 0
M  V30 10142 H 985.753 -3.45314 -1.23101 0
M  V30 10143 H 985.401 -3.40039 -3.70651 0
M  V30 10144 H 985.101 -5.02642 -3.04344 0
M  V30 10145 H 986.625 -4.68799 -3.91228 0
M  V30 10146 H 988.039 -5.4519 -1.77316 0
M  V30 10147 H 986.436 -5.89588 -1.11828 0
M  V30 10148 H 987.506 -4.84595 -0.171839 0
M  V30 10149 N 988.849 0.203349 -1.56283 0
M  V30 10150 C 989.797 1.27157 -1.94766 0
M  V30 10151 C 990.791 1.4756 -0.832005 0
M  V30 10152 O 991.997 1.48519 -1.01696 0
M  V30 10153 H 988.372 0.426712 -0.61921 0
M  V30 10154 H 990.343 0.919921 -2.83866 0
M  V30 10155 C 989.092 2.6108 -2.29636 0
M  V30 10156 H 988.415 2.46193 -3.15006 0
M  V30 10157 H 989.855 3.34591 -2.60433 0
M  V30 10158 C 988.314 3.17456 -1.12799 0
M  V30 10159 O 988.844 3.99717 -0.398661 0
M  V30 10160 N 987.05 2.76084 -0.906975 0
M  V30 10161 H 986.597 2.09294 -1.50179 0
M  V30 10162 H 986.555 3.14143 -0.127005 0
M  V30 10163 N 990.327 1.50405 0.470755 0
M  V30 10164 C 991.552 1.65442 1.25075 0
M  V30 10165 C 991.977 0.337612 1.85045 0
M  V30 10166 O 991.335 -0.698555 1.67302 0
M  V30 10167 C 991.383 2.74793 2.33498 0
M  V30 10168 O 990.487 2.36069 3.3815 0
M  V30 10169 H 989.828 0.552728 0.367951 0
M  V30 10170 H 992.358 1.96782 0.560177 0
M  V30 10171 H 992.368 2.97879 2.78804 0
M  V30 10172 H 991.043 3.70363 1.8922 0
M  V30 10173 H 989.62 2.2343 2.98552 0
M  V30 10174 N 991.805 -0.723954 1.39988 0
M  V30 10175 C 993.216 -1.30273 1.33738 0
M  V30 10176 C 993.567 -1.96199 0.00690581 0
M  V30 10177 O 992.692 -1.97016 -0.895179 0
M  V30 10178 C 993.287 -2.36889 2.42217 0
M  V30 10179 C 991.846 -2.90412 2.39453 0
M  V30 10180 C 990.993 -1.64103 2.2353 0
M  V30 10181 H 993.944 -0.520672 1.49916 0
M  V30 10182 H 993.965 -3.17538 2.09642 0
M  V30 10183 H 993.477 -1.88878 3.39038 0
M  V30 10184 H 991.578 -3.42674 1.46304 0
M  V30 10185 H 991.691 -3.42775 3.34727 0
M  V30 10186 H 990.055 -1.88855 1.70897 0
M  V30 10187 H 990.838 -1.18128 3.22336 0
M  V30 10188 N 993.283 -1.25346 -0.955304 0
M  V30 10189 C 994.213 -1.08152 -2.06943 0
M  V30 10190 C 995.194 0.00922598 -1.70097 0
M  V30 10191 O 996.379 -0.160181 -1.93538 0
M  V30 10192 C 993.509 -0.698745 -3.40198 0
M  V30 10193 C 992.463 -1.73965 -3.9105 0
M  V30 10194 C 991.789 -1.21158 -5.20792 0
M  V30 10195 C 993.089 -3.13829 -4.17503 0
M  V30 10196 H 994.783 -2.01345 -2.21586 0
M  V30 10197 H 992.329 -0.969459 -1.06478 0
M  V30 10198 H 994.282 -0.565394 -4.1759 0
M  V30 10199 H 993.006 0.268892 -3.25491 0
M  V30 10200 H 991.665 -1.86143 -3.15827 0
M  V30 10201 H 991.313 -0.234193 -5.02455 0
M  V30 10202 H 991.013 -1.90728 -5.55785 0
M  V30 10203 H 992.537 -1.09061 -6.00781 0
M  V30 10204 H 993.951 -3.04809 -4.85556 0
M  V30 10205 H 992.348 -3.80863 -4.63749 0
M  V30 10206 H 993.418 -3.6094 -3.23806 0
M  V30 10207 N 994.761 1.15782 -1.06922 0
M  V30 10208 C 995.691 2.22538 -0.707045 0
M  V30 10209 C 996.672 1.67371 0.303471 0
M  V30 10210 O 997.857 1.9339 0.177189 0
M  V30 10211 C 994.987 3.47158 -0.0994269 0
M  V30 10212 C 993.941 4.15257 -1.03661 0
M  V30 10213 C 993.267 5.33902 -0.291974 0
M  V30 10214 C 994.567 4.65516 -2.36837 0
M  V30 10215 H 996.261 2.53089 -1.59958 0
M  V30 10216 H 993.807 1.21649 -0.770552 0
M  V30 10217 H 995.76 4.21073 0.165852 0
M  V30 10218 H 994.484 3.15926 0.828155 0
M  V30 10219 H 993.143 3.43276 -1.28674 0
M  V30 10220 H 992.791 4.98926 0.638928 0
M  V30 10221 H 992.491 5.80407 -0.916613 0
M  V30 10222 H 994.015 6.1059 -0.0343915 0
M  V30 10223 H 995.429 5.30981 -2.16175 0
M  V30 10224 H 993.826 5.22666 -2.94856 0
M  V30 10225 H 994.896 3.81387 -2.99453 0
M  V30 10226 N 996.239 0.8527 1.3254 0
M  V30 10227 C 997.464 0.468157 2.02047 0
M  V30 10228 C 997.889 -0.926967 1.63673 0
M  V30 10229 O 997.247 -1.60855 0.836378 0
M  V30 10230 C 997.295 0.612519 3.5536 0
M  V30 10231 O 996.399 -0.355506 4.10865 0
M  V30 10232 H 995.74 0.188401 0.636711 0
M  V30 10233 H 998.27 1.15135 1.6913 0
M  V30 10234 H 998.28 0.499315 4.04933 0
M  V30 10235 H 996.955 1.62988 3.82632 0
M  V30 10236 H 995.532 -0.198703 3.7237 0
M  V30 10237 N 997.718 -1.45297 0.610449 0
M  V30 10238 C 998.666 -2.32295 -0.119167 0
M  V30 10239 C 999.66 -1.46138 -0.856746 0
M  V30 10240 O 1000.87 -1.62605 -0.771988 0
M  V30 10241 H 997.241 -0.749815 -0.0572881 0
M  V30 10242 H 999.212 -2.91609 0.63297 0
M  V30 10243 C 997.961 -3.29802 -1.10119 0
M  V30 10244 H 997.284 -3.96095 -0.543063 0
M  V30 10245 H 998.724 -3.93398 -1.58158 0
M  V30 10246 C 997.183 -2.57185 -2.17617 0
M  V30 10247 O 997.713 -2.35535 -3.25401 0
M  V30 10248 N 995.919 -2.17272 -1.9298 0
M  V30 10249 H 995.466 -2.3508 -1.05334 0
M  V30 10250 H 995.424 -1.69009 -2.6511 0
M  V30 10251 N 999.196 -0.349774 -1.5367 0
M  V30 10252 C 1000.14 0.504121 -2.25227 0
M  V30 10253 C 1001.11 1.09048 -1.2529 0
M  V30 10254 O 1002.3 1.12594 -1.54037 0
M  V30 10255 C 999.438 1.64601 -3.03316 0
M  V30 10256 C 998.551 1.08635 -4.18118 0
M  V30 10257 C 997.686 2.19605 -4.83681 0
M  V30 10258 C 996.725 1.61023 -5.90541 0
M  V30 10259 N 995.862 2.6576 -6.49858 0
M  V30 10260 H 1000.7 -0.112621 -2.97787 0
M  V30 10261 H 998.239 -0.0673503 -1.46946 0
M  V30 10262 H 1000.2 2.31836 -3.46854 0
M  V30 10263 H 998.827 2.23364 -2.33041 0
M  V30 10264 H 997.879 0.304748 -3.79177 0
M  V30 10265 H 999.191 0.617911 -4.94958 0
M  V30 10266 H 998.345 2.94693 -5.30322 0
M  V30 10267 H 997.084 2.69795 -4.06278 0
M  V30 10268 H 996.089 0.844428 -5.43277 0
M  V30 10269 H 997.314 1.11677 -6.69855 0
M  V30 10270 H 995.26 3.15193 -5.75317 0
M  V30 10271 H 995.177 2.23557 -7.2219 0
M  V30 10272 H 996.445 3.40598 -7.01151 0
M  V30 10273 N 1000.67 1.57404 -0.0785433 0
M  V30 10274 C 1001.9 1.98074 0.597862 0
M  V30 10275 C 1002.32 0.95714 1.6274 0
M  V30 10276 O 1001.67 -0.0553728 1.82416 0
M  V30 10277 C 1001.72 3.38815 1.26041 0
M  V30 10278 O 1001.45 4.37254 0.27207 0
M  V30 10279 C 1002.95 3.94397 2.024 0
M  V30 10280 H 1000.17 0.651263 0.161546 0
M  V30 10281 H 1002.71 2.03927 -0.152941 0
M  V30 10282 H 1000.87 3.34028 1.96225 0
M  V30 10283 H 1001.28 5.19136 0.74822 0
M  V30 10284 H 1002.75 4.95075 2.4414 0
M  V30 10285 H 1003.23 3.31308 2.88326 0
M  V30 10286 H 1003.84 4.02607 1.37068 0
M  V30 10287 N 1002.15 -0.195058 1.56388 0
M  V30 10288 C 1003.1 -1.26122 1.95438 0
M  V30 10289 C 1004.09 -1.47117 0.839818 0
M  V30 10290 O 1005.3 -1.47978 1.02482 0
M  V30 10291 H 1001.67 -0.423422 0.621464 0
M  V30 10292 H 1003.65 -0.904854 2.8435 0
M  V30 10293 C 1002.39 -2.59858 2.31017 0
M  V30 10294 H 1001.72 -2.44519 3.16308 0
M  V30 10295 H 1003.16 -3.33205 2.62203 0
M  V30 10296 C 1001.62 -3.16853 1.14481 0
M  V30 10297 O 1002.15 -3.995 0.419853 0
M  V30 10298 N 1000.35 -2.75599 0.921604 0
M  V30 10299 H 999.9 -2.08495 1.51287 0
M  V30 10300 H 999.858 -3.14072 0.143663 0
M  V30 10301 N 1003.63 -1.50653 -0.462772 0
M  V30 10302 C 1004.59 -1.69561 -1.54213 0
M  V30 10303 C 1005.59 -0.566106 -1.50505 0
M  V30 10304 O 1006.78 -0.833273 -1.52978 0
M  V30 10305 C 1003.91 -1.72856 -2.93826 0
M  V30 10306 H 1005.11 -2.65867 -1.38761 0
M  V30 10307 H 1002.66 -1.40259 -0.689728 0
M  V30 10308 H 1003.4 -0.78273 -3.14712 0
M  V30 10309 H 1003.18 -2.54919 -2.97924 0
M  V30 10310 H 1004.67 -1.89411 -3.72174 0
M  V30 10311 N 1005.11 0.71652 -1.4037 0
M  V30 10312 C 1006.35 1.47857 -1.38803 0
M  V30 10313 C 1006.69 1.94197 0.0100536 0
M  V30 10314 O 1005.96 1.68093 0.978521 0
M  V30 10315 C 1006.25 2.7053 -2.37667 0
M  V30 10316 C 1006.1 2.3009 -3.86496 0
M  V30 10317 C 1007.42 3.72684 -2.34082 0
M  V30 10318 H 1004.54 0.53632 -0.505499 0
M  V30 10319 H 1007.18 0.817824 -1.71498 0
M  V30 10320 H 1005.33 3.26906 -2.09916 0
M  V30 10321 H 1007 1.79202 -4.2507 0
M  V30 10322 H 1005.24 1.62102 -4.02375 0
M  V30 10323 H 1005.91 3.18018 -4.51186 0
M  V30 10324 H 1008.39 3.25935 -2.58661 0
M  V30 10325 H 1007.27 4.56157 -3.05306 0
M  V30 10326 H 1007.53 4.20916 -1.35213 0
M  V30 10327 N 1006.59 1.25851 0.948643 0
M  V30 10328 C 1007.5 1.08516 2.07994 0
M  V30 10329 C 1008.51 0.0206696 1.73988 0
M  V30 10330 O 1009.69 0.222854 2.00163 0
M  V30 10331 C 1006.75 0.712145 3.39307 0
M  V30 10332 C 1005.81 1.85523 3.87143 0
M  V30 10333 C 1005.05 1.49992 5.1219 0
M  V30 10334 O 1005.27 0.398268 5.69008 0
M  V30 10335 O 1004.2 2.33215 5.54882 0
M  V30 10336 H 1008.03 2.03405 2.25522 0
M  V30 10337 H 1005.62 1.04844 1.06433 0
M  V30 10338 H 1007.5 0.516512 4.18223 0
M  V30 10339 H 1006.17 -0.207416 3.23035 0
M  V30 10340 H 1005.08 2.10578 3.09205 0
M  V30 10341 H 1006.41 2.75425 4.07924 0
M  V30 10342 N 1008.06 -1.15214 1.07534 0
M  V30 10343 C 1008.97 -2.23636 0.708818 0
M  V30 10344 C 1009.99 -1.7172 -0.280759 0
M  V30 10345 O 1011.17 -2.01 -0.126927 0
M  V30 10346 C 1008.23 -3.46512 0.114167 0
M  V30 10347 C 1007.29 -4.13409 1.15722 0
M  V30 10348 C 1006.53 -5.30419 0.59085 0
M  V30 10349 O 1006.75 -5.67314 -0.592512 0
M  V30 10350 O 1005.68 -5.86871 1.33663 0
M  V30 10351 H 1009.51 -2.57322 1.61305 0
M  V30 10352 H 1007.09 -1.22972 0.848422 0
M  V30 10353 H 1008.98 -4.20851 -0.215091 0
M  V30 10354 H 1007.65 -3.1457 -0.763356 0
M  V30 10355 H 1006.56 -3.40984 1.53886 0
M  V30 10356 H 1007.89 -4.49435 2.00671 0
M  V30 10357 N 1009.54 -0.859717 -1.32086 0
M  V30 10358 C 1010.49 -0.296897 -2.30697 0
M  V30 10359 C 1011.48 0.582473 -1.59071 0
M  V30 10360 O 1012.69 0.469713 -1.73763 0
M  V30 10361 H 1009.07 -0.0773132 -0.748015 0
M  V30 10362 H 1011.04 -1.14273 -2.75652 0
M  V30 10363 C 1009.79 0.495546 -3.44151 0
M  V30 10364 H 1009.11 -0.171829 -3.99431 0
M  V30 10365 H 1010.55 0.854854 -4.15293 0
M  V30 10366 C 1009.01 1.68278 -2.91863 0
M  V30 10367 O 1009.54 2.78194 -2.89777 0
M  V30 10368 N 1007.74 1.51151 -2.48197 0
M  V30 10369 H 1007.29 0.617345 -2.50093 0
M  V30 10370 H 1007.25 2.3073 -2.13567 0
M  V30 10371 N 1011.02 1.44971 -0.618145 0
M  V30 10372 C 1011.97 2.30606 0.09449 0
M  V30 10373 C 1012.94 1.42725 0.849633 0
M  V30 10374 O 1014.12 1.71643 0.833266 0
M  V30 10375 C 1011.26 3.27803 1.07886 0
M  V30 10376 C 1010.38 4.30787 0.323488 0
M  V30 10377 C 1009.51 5.15085 1.29851 0
M  V30 10378 C 1008.55 6.09788 0.531561 0
M  V30 10379 N 1007.69 6.86829 1.4564 0
M  V30 10380 H 1012.53 2.91008 -0.641738 0
M  V30 10381 H 1010.06 1.43391 -0.328259 0
M  V30 10382 H 1012.02 3.82631 1.66281 0
M  V30 10383 H 1010.65 2.69131 1.78237 0
M  V30 10384 H 1009.7 3.78536 -0.376164 0
M  V30 10385 H 1011.02 4.98044 -0.274443 0
M  V30 10386 H 1010.17 5.74365 1.95421 0
M  V30 10387 H 1008.91 4.4787 1.93037 0
M  V30 10388 H 1007.91 5.49628 -0.137702 0
M  V30 10389 H 1009.14 6.79033 -0.0953993 0
M  V30 10390 H 1007.08 6.22295 2.07571 0
M  V30 10391 H 1007 7.50477 0.912167 0
M  V30 10392 H 1008.27 7.50642 2.10134 0
M  V30 10393 N 1012.5 0.357919 1.53482 0
M  V30 10394 C 1013.46 -0.479797 2.24122 0
M  V30 10395 C 1014.46 -1.01596 1.24639 0
M  V30 10396 O 1015.65 -0.902928 1.48973 0
M  V30 10397 C 1012.78 -1.66983 2.97203 0
M  V30 10398 H 1013.98 0.138219 2.99581 0
M  V30 10399 H 1011.53 0.109484 1.55916 0
M  V30 10400 H 1012.26 -2.32615 2.25966 0
M  V30 10401 H 1012.05 -1.29242 3.70188 0
M  V30 10402 H 1013.54 -2.26367 3.50924 0
M  V30 10403 N 1013.98 -1.5736 0.0868897 0
M  V30 10404 C 1015.22 -1.94054 -0.578741 0
M  V30 10405 C 1015.55 -0.968047 -1.68698 0
M  V30 10406 O 1014.81 0.0137824 -1.95695 0
M  V30 10407 C 1015.11 -3.37316 -1.18123 0
M  V30 10408 C 1014.77 -4.50467 -0.197607 0
M  V30 10409 C 1013.43 -4.81145 0.072952 0
M  V30 10410 C 1015.79 -5.19036 0.474473 0
M  V30 10411 C 1013.11 -5.77723 1.02242 0
M  V30 10412 C 1015.47 -6.16632 1.41236 0
M  V30 10413 C 1014.13 -6.45719 1.69124 0
M  V30 10414 H 1013.4 -0.710093 -0.211776 0
M  V30 10415 H 1016.05 -1.90822 0.160978 0
M  V30 10416 H 1014.35 -3.37085 -1.99701 0
M  V30 10417 H 1016.05 -3.63003 -1.7038 0
M  V30 10418 H 1012.64 -4.2655 -0.418669 0
M  V30 10419 H 1016.82 -4.95518 0.278581 0
M  V30 10420 H 1012.08 -5.98578 1.24557 0
M  V30 10421 H 1016.25 -6.68862 1.939 0
M  V30 10422 H 1013.88 -7.20365 2.42855 0
M  V30 10423 N 1015.45 0.186762 -1.56489 0
M  V30 10424 C 1016.68 0.925916 -1.85584 0
M  V30 10425 C 1017.1 1.75708 -0.671446 0
M  V30 10426 O 1016.46 1.7728 0.379687 0
M  V30 10427 C 1016.51 1.79107 -3.12975 0
M  V30 10428 O 1015.61 2.89088 -2.94112 0
M  V30 10429 H 1014.96 0.260275 -0.610863 0
M  V30 10430 H 1017.49 0.189561 -2.0372 0
M  V30 10431 H 1017.5 2.19408 -3.43983 0
M  V30 10432 H 1016.17 1.18044 -3.98796 0
M  V30 10433 H 1014.75 2.52482 -2.74422 0
M  V30 10434 N 1016.93 1.50896 0.454776 0
M  V30 10435 C 1018.16 1.66759 1.23313 0
M  V30 10436 C 1018.58 0.35722 1.84677 0
M  V30 10437 O 1017.94 -0.680771 1.68033 0
M  V30 10438 C 1017.99 2.77254 2.3057 0
M  V30 10439 O 1017.09 2.39642 3.35627 0
M  V30 10440 H 1016.43 0.556599 0.362068 0
M  V30 10441 H 1018.96 1.97365 0.539274 0
M  V30 10442 H 1018.97 3.0082 2.75629 0
M  V30 10443 H 1017.65 3.72349 1.85281 0
M  V30 10444 H 1016.23 2.26584 2.96165 0
M  V30 10445 N 1018.41 -0.709066 1.40748 0
M  V30 10446 C 1019.34 -1.83412 1.37451 0
M  V30 10447 C 1020.36 -1.60394 0.27884 0
M  V30 10448 O 1021.54 -1.70147 0.539642 0
M  V30 10449 C 1018.64 -3.19935 1.1178 0
M  V30 10450 C 1017.82 -3.70095 2.33128 0
M  V30 10451 C 1016.88 -4.85249 2.03518 0
M  V30 10452 O 1015.9 -4.97563 2.76442 0
M  V30 10453 N 1017.1 -5.7152 1.01714 0
M  V30 10454 H 1019.87 -1.86736 2.34414 0
M  V30 10455 H 1017.43 -0.890863 1.35186 0
M  V30 10456 H 1019.42 -3.94578 0.899464 0
M  V30 10457 H 1017.99 -3.11718 0.234624 0
M  V30 10458 H 1017.21 -2.8651 2.70751 0
M  V30 10459 H 1018.5 -4.00344 3.1401 0
M  V30 10460 H 1017.9 -5.64188 0.413307 0
M  V30 10461 H 1016.46 -6.46119 0.858696 0
M  V30 10462 N 1019.89 -1.26353 -0.941956 0
M  V30 10463 C 1021.3 -1.10774 -1.50287 0
M  V30 10464 C 1021.65 0.312229 -1.937 0
M  V30 10465 O 1020.78 1.20364 -1.79838 0
M  V30 10466 C 1021.37 -2.00473 -2.73123 0
M  V30 10467 C 1019.93 -1.89042 -3.25485 0
M  V30 10468 C 1019.08 -1.93869 -1.98267 0
M  V30 10469 H 1022.03 -1.39454 -0.757523 0
M  V30 10470 H 1022.05 -1.55216 -3.47402 0
M  V30 10471 H 1021.56 -3.03812 -2.41495 0
M  V30 10472 H 1019.66 -0.886341 -3.61904 0
M  V30 10473 H 1019.78 -2.74533 -3.92643 0
M  V30 10474 H 1018.14 -1.37912 -2.14132 0
M  V30 10475 H 1018.92 -2.98837 -1.68972 0
M  V30 10476 N 1021.37 1.14642 -1.08144 0
M  V30 10477 C 1022.6 1.89484 -0.830864 0
M  V30 10478 C 1023.01 1.78443 0.616722 0
M  V30 10479 O 1022.37 1.14191 1.42361 0
M  V30 10480 C 1022.42 3.39554 -1.24039 0
M  V30 10481 O 1022.14 3.50286 -2.63119 0
M  V30 10482 C 1023.64 4.31399 -1.02029 0
M  V30 10483 H 1020.86 0.600283 -0.299835 0
M  V30 10484 H 1023.4 1.45204 -1.44001 0
M  V30 10485 H 1021.56 3.81467 -0.675407 0
M  V30 10486 H 1021.97 4.43481 -2.80045 0
M  V30 10487 H 1023.45 5.35079 -1.35625 0
M  V30 10488 H 1023.92 4.39179 0.0428697 0
M  V30 10489 H 1024.53 3.95238 -1.57057 0
M  V30 10490 N 1022.85 0.866709 1.31628 0
M  V30 10491 C 1024.09 0.475086 1.96437 0
M  V30 10492 C 1024.41 -0.975179 1.68865 0
M  V30 10493 O 1023.68 -1.68317 1.0023 0
M  V30 10494 H 1022.26 0.172695 0.726764 0
M  V30 10495 H 1024.93 1.10578 1.60494 0
M  V30 10496 H 1024.02 0.630123 3.05673 0
M  V30 10497 N 1024.32 -1.44642 0.625825 0
M  V30 10498 C 1025.73 -1.85502 0.211175 0
M  V30 10499 C 1026.09 -1.52356 -1.2362 0
M  V30 10500 O 1025.21 -0.959051 -1.93988 0
M  V30 10501 C 1025.81 -3.36702 0.37648 0
M  V30 10502 C 1024.36 -3.76396 0.0163795 0
M  V30 10503 C 1023.51 -2.68517 0.692368 0
M  V30 10504 H 1026.46 -1.35183 0.831333 0
M  V30 10505 H 1026.48 -3.78536 -0.386106 0
M  V30 10506 H 1026 -3.60795 1.42999 0
M  V30 10507 H 1024.1 -3.57919 -1.0356 0
M  V30 10508 H 1024.21 -4.77231 0.422742 0
M  V30 10509 H 1022.57 -2.54377 0.128191 0
M  V30 10510 H 1023.36 -2.95444 1.74837 0
M  V30 10511 N 1025.8 -0.366053 -1.5329 0
M  V30 10512 C 1026.71 0.488111 -2.29466 0
M  V30 10513 C 1027.73 1.09219 -1.35452 0
M  V30 10514 O 1028.9 1.10303 -1.68509 0
M  V30 10515 C 1025.97 1.61202 -3.06944 0
M  V30 10516 C 1025.03 1.03543 -4.16626 0
M  V30 10517 C 1024.26 2.10578 -4.904 0
M  V30 10518 O 1024.49 3.31697 -4.6404 0
M  V30 10519 O 1023.42 1.73609 -5.76319 0
M  V30 10520 H 1027.25 -0.131789 -3.03414 0
M  V30 10521 H 1024.83 -0.130421 -1.4883 0
M  V30 10522 H 1026.71 2.26546 -3.55324 0
M  V30 10523 H 1025.39 2.21732 -2.35832 0
M  V30 10524 H 1024.29 0.345892 -3.72498 0
M  V30 10525 H 1025.63 0.474687 -4.89906 0
M  V30 10526 N 1027.28 1.57312 -0.0952337 0
M  V30 10527 C 1028.69 1.81589 0.433875 0
M  V30 10528 C 1029.04 1.01086 1.68155 0
M  V30 10529 O 1028.17 0.240272 2.15062 0
M  V30 10530 C 1028.76 3.29366 0.793931 0
M  V30 10531 C 1027.32 3.54407 1.26778 0
M  V30 10532 C 1026.47 2.76035 0.264518 0
M  V30 10533 H 1029.42 1.55426 -0.320675 0
M  V30 10534 H 1029.44 3.42697 1.65345 0
M  V30 10535 H 1028.95 3.87932 -0.114334 0
M  V30 10536 H 1027.05 3.01173 2.19376 0
M  V30 10537 H 1027.17 4.63055 1.22952 0
M  V30 10538 H 1025.53 2.43509 0.746691 0
M  V30 10539 H 1026.31 3.37349 -0.636429 0
M  V30 10540 N 1028.76 -0.17846 1.56586 0
M  V30 10541 C 1030.01 -0.894464 1.81228 0
M  V30 10542 C 1030.33 -1.83089 0.671062 0
M  V30 10543 O 1029.6 -1.93439 -0.309557 0
M  V30 10544 H 1028.18 -0.333288 0.668527 0
M  V30 10545 H 1030.84 -0.179986 1.94067 0
M  V30 10546 H 1029.93 -1.47565 2.75011 0
M  V30 10547 N 1030.24 -1.51135 -0.446768 0
M  V30 10548 C 1031.17 -1.74709 -1.54916 0
M  V30 10549 C 1032.15 -0.596628 -1.59293 0
M  V30 10550 O 1033.33 -0.838356 -1.75172 0
M  V30 10551 C 1030.46 -1.86353 -2.9307 0
M  V30 10552 C 1029.42 -3.01725 -3.03556 0
M  V30 10553 C 1028.74 -2.9854 -4.43597 0
M  V30 10554 C 1030.04 -4.41848 -2.7851 0
M  V30 10555 H 1031.74 -2.67014 -1.3544 0
M  V30 10556 H 1029.28 -1.28489 -0.650131 0
M  V30 10557 H 1031.23 -2.01428 -3.70141 0
M  V30 10558 H 1029.96 -0.906887 -3.13756 0
M  V30 10559 H 1028.62 -2.86339 -2.28922 0
M  V30 10560 H 1028.27 -2.00673 -4.61237 0
M  V30 10561 H 1027.97 -3.76008 -4.51544 0
M  V30 10562 H 1029.49 -3.15696 -5.22655 0
M  V30 10563 H 1030.9 -4.57633 -3.45319 0
M  V30 10564 H 1029.3 -5.2095 -2.97877 0
M  V30 10565 H 1030.37 -4.52536 -1.74182 0
M  V30 10566 N 1031.71 0.701592 -1.41122 0
M  V30 10567 C 1032.94 1.49553 -1.43696 0
M  V30 10568 C 1033.36 1.88053 -0.0421865 0
M  V30 10569 O 1032.72 1.54223 0.953144 0
M  V30 10570 C 1032.77 2.73834 -2.34622 0
M  V30 10571 O 1031.87 3.71088 -1.7991 0
M  V30 10572 H 1031.21 0.450352 -0.487933 0
M  V30 10573 H 1033.74 0.862886 -1.85514 0
M  V30 10574 H 1033.75 3.22209 -2.5029 0
M  V30 10575 H 1032.43 2.45149 -3.35969 0
M  V30 10576 H 1031.01 3.29994 -1.73661 0
M  V30 10577 N 1033.19 1.2685 0.935242 0
M  V30 10578 C 1034.44 1.12522 1.67878 0
M  V30 10579 C 1034.76 -0.330894 1.92172 0
M  V30 10580 O 1034.03 -1.23259 1.52263 0
M  V30 10581 H 1032.61 0.413418 0.622169 0
M  V30 10582 H 1035.27 1.59267 1.12339 0
M  V30 10583 H 1034.37 1.64853 2.65009 0
M  V30 10584 N 1034.67 -1.14067 1.0875 0
M  V30 10585 C 1035.9 -1.89582 0.841038 0
M  V30 10586 C 1036.32 -1.78226 -0.601436 0
M  V30 10587 O 1035.68 -1.12491 -1.42181 0
M  V30 10588 C 1035.73 -3.37415 1.27213 0
M  V30 10589 O 1034.83 -4.10191 0.426246 0
M  V30 10590 H 1034.17 -0.589716 0.305173 0
M  V30 10591 H 1036.7 -1.44364 1.44984 0
M  V30 10592 H 1036.71 -3.88234 1.25451 0
M  V30 10593 H 1035.39 -3.44999 2.32268 0
M  V30 10594 H 1033.96 -3.69429 0.507585 0
M  V30 10595 N 1036.15 -0.873678 -1.31166 0
M  V30 10596 C 1037.06 -0.335726 -2.32185 0
M  V30 10597 C 1038.07 0.556259 -1.64869 0
M  V30 10598 O 1039.25 0.452087 -1.9626 0
M  V30 10599 C 1036.32 0.450822 -3.43756 0
M  V30 10600 C 1035.38 -0.469565 -4.26724 0
M  V30 10601 C 1034.61 0.279538 -5.32967 0
M  V30 10602 O 1034.83 1.50715 -5.50128 0
M  V30 10603 O 1033.77 -0.36452 -6.00795 0
M  V30 10604 H 1037.59 -1.17314 -2.80127 0
M  V30 10605 H 1035.18 -0.637163 -1.35132 0
M  V30 10606 H 1037.06 0.896582 -4.11752 0
M  V30 10607 H 1035.73 1.26472 -2.9797 0
M  V30 10608 H 1034.64 -0.963902 -3.61469 0
M  V30 10609 H 1035.97 -1.24916 -4.76085 0
M  V30 10610 N 1037.63 1.44308 -0.633487 0
M  V30 10611 C 1038.88 2.01239 -0.136356 0
M  V30 10612 C 1039.19 1.50438 1.25011 0
M  V30 10613 O 1040.39 1.99513 1.84138 0
M  V30 10614 C 1038.85 3.59382 -0.193011 0
M  V30 10615 C 1038.46 4.19178 -1.58093 0
M  V30 10616 C 1040.2 4.23778 0.247534 0
M  V30 10617 C 1038.11 5.69553 -1.59258 0
M  V30 10618 H 1037.04 0.752521 -0.0472109 0
M  V30 10619 H 1039.69 1.65498 -0.79263 0
M  V30 10620 H 1038.07 3.92432 0.530408 0
M  V30 10621 H 1039.25 3.97662 -2.32813 0
M  V30 10622 H 1037.56 3.67079 -1.96576 0
M  V30 10623 H 1040.16 5.34075 0.258401 0
M  V30 10624 H 1040.5 3.96285 1.27529 0
M  V30 10625 H 1041.03 3.9554 -0.423469 0
M  V30 10626 H 1037.77 6.01784 -2.59878 0
M  V30 10627 H 1037.29 5.93185 -0.888352 0
M  V30 10628 H 1038.97 6.33234 -1.32756 0
M  V30 10629 N 1039.1 0.374177 1.53094 0
M  V30 10630 C 1040.01 -0.475935 2.29722 0
M  V30 10631 C 1041.03 -1.085 1.36029 0
M  V30 10632 O 1042.21 -1.09408 1.69091 0
M  V30 10633 C 1039.27 -1.59572 3.07795 0
M  V30 10634 C 1038.33 -1.01332 4.17169 0
M  V30 10635 C 1037.57 -2.07975 4.9151 0
M  V30 10636 O 1037.79 -3.29232 4.65793 0
M  V30 10637 O 1036.72 -1.7055 5.77232 0
M  V30 10638 H 1040.55 0.147877 3.0334 0
M  V30 10639 H 1038.13 0.138312 1.48758 0
M  V30 10640 H 1040.02 -2.24658 3.5652 0
M  V30 10641 H 1038.69 -2.20478 2.37005 0
M  V30 10642 H 1037.6 -0.326133 3.72676 0
M  V30 10643 H 1038.93 -0.4487 4.90151 0
M  V30 10644 N 1040.58 -1.57259 0.103575 0
M  V30 10645 C 1041.53 -2.15727 -0.869739 0
M  V30 10646 C 1042.52 -1.10236 -1.28625 0
M  V30 10647 O 1043.73 -1.28567 -1.25979 0
M  V30 10648 H 1040.11 -0.690204 -0.298535 0
M  V30 10649 H 1042.08 -2.96317 -0.351984 0
M  V30 10650 C 1040.83 -2.75905 -2.11593 0
M  V30 10651 H 1040.15 -3.56768 -1.80434 0
M  V30 10652 H 1041.59 -3.20373 -2.77736 0
M  V30 10653 C 1040.05 -1.72218 -2.89556 0
M  V30 10654 O 1040.58 -1.16623 -3.84398 0
M  V30 10655 N 1038.78 -1.42514 -2.53255 0
M  V30 10656 H 1038.33 -1.87914 -1.76198 0
M  V30 10657 H 1038.29 -0.733782 -3.05717 0
M  V30 10658 N 1042.06 0.170153 -1.56679 0
M  V30 10659 C 1042.99 1.21285 -1.9953 0
M  V30 10660 C 1043.97 1.46104 -0.871071 0
M  V30 10661 O 1045.16 1.57419 -1.13724 0
M  V30 10662 C 1042.29 2.5515 -2.35618 0
M  V30 10663 C 1041.24 2.44898 -3.51011 0
M  V30 10664 C 1040.57 3.83263 -3.72845 0
M  V30 10665 C 1041.87 1.95271 -4.84424 0
M  V30 10666 H 1043.56 0.856646 -2.86883 0
M  V30 10667 H 1041.11 0.410634 -1.38021 0
M  V30 10668 H 1043.06 3.28299 -2.64193 0
M  V30 10669 H 1041.78 2.92561 -1.45175 0
M  V30 10670 H 1040.44 1.74203 -3.22566 0
M  V30 10671 H 1040.09 4.18069 -2.79691 0
M  V30 10672 H 1039.79 3.77272 -4.50488 0
M  V30 10673 H 1041.31 4.57996 -4.03822 0
M  V30 10674 H 1042.73 2.58195 -5.11867 0
M  V30 10675 H 1041.13 2.00225 -5.65712 0
M  V30 10676 H 1042.2 0.90709 -4.7634 0
M  V30 10677 N 1043.54 1.5137 0.438746 0
M  V30 10678 C 1044.47 1.75528 1.53987 0
M  V30 10679 C 1045.45 0.605067 1.58975 0
M  V30 10680 O 1046.63 0.847634 1.74725 0
M  V30 10681 C 1043.76 1.87904 2.92078 0
M  V30 10682 C 1042.72 3.0333 3.01951 0
M  V30 10683 C 1042.04 3.00888 4.42007 0
M  V30 10684 C 1043.34 4.43319 2.76163 0
M  V30 10685 H 1045.04 2.67728 1.34022 0
M  V30 10686 H 1042.58 1.28831 0.643308 0
M  V30 10687 H 1044.54 2.03388 3.69068 0
M  V30 10688 H 1043.26 0.923514 3.13271 0
M  V30 10689 H 1041.92 2.87549 2.274 0
M  V30 10690 H 1041.57 2.03116 4.60166 0
M  V30 10691 H 1041.27 3.78397 4.49544 0
M  V30 10692 H 1042.79 3.18464 5.20973 0
M  V30 10693 H 1044.21 4.59458 3.42887 0
M  V30 10694 H 1042.6 5.22523 2.9511 0
M  V30 10695 H 1043.67 4.53453 1.71779 0
M  V30 10696 N 1045.02 -0.694098 1.41492 0
M  V30 10697 C 1045.93 -1.83778 1.45818 0
M  V30 10698 C 1046.94 -1.70471 0.348639 0
M  V30 10699 O 1048.12 -1.92361 0.596588 0
M  V30 10700 C 1045.18 -3.19771 1.33967 0
M  V30 10701 C 1044.24 -3.45175 2.5525 0
M  V30 10702 C 1043.48 -4.74681 2.43955 0
M  V30 10703 O 1043.7 -5.51268 1.46491 0
M  V30 10704 O 1042.63 -5.00901 3.33739 0
M  V30 10705 H 1046.46 -1.83084 2.42309 0
M  V30 10706 H 1044.05 -0.847349 1.23046 0
M  V30 10707 H 1045.93 -4.00961 1.29648 0
M  V30 10708 H 1044.6 -3.21145 0.405926 0
M  V30 10709 H 1043.51 -2.6391 2.65146 0
M  V30 10710 H 1044.84 -3.48617 3.47458 0
M  V30 10711 N 1046.49 -1.27344 -0.928501 0
M  V30 10712 C 1047.91 -1.04732 -1.2043 0
M  V30 10713 C 1048.11 0.219623 -2.003 0
M  V30 10714 O 1047.17 0.925333 -2.34934 0
M  V30 10715 C 1048.48 -2.28625 -1.95323 0
M  V30 10716 C 1050.03 -2.33655 -2.08265 0
M  V30 10717 C 1050.5 -3.57275 -2.86563 0
M  V30 10718 N 1051.99 -3.57828 -2.94132 0
M  V30 10719 C 1052.73 -4.50152 -3.55177 0
M  V30 10720 N 1052.22 -5.52779 -4.17621 0
M  V30 10721 N 1054.02 -4.37777 -3.52573 0
M  V30 10722 H 1046.17 -2.08697 -0.394892 0
M  V30 10723 H 1048.43 -0.91782 -0.2373 0
M  V30 10724 H 1048.14 -3.20845 -1.44054 0
M  V30 10725 H 1048.01 -2.33878 -2.95941 0
M  V30 10726 H 1050.4 -1.41942 -2.58721 0
M  V30 10727 H 1050.48 -2.32406 -1.0687 0
M  V30 10728 H 1050.12 -4.49325 -2.3679 0
M  V30 10729 H 1050.05 -3.55775 -3.88242 0
M  V30 10730 H 1052.54 -2.83607 -2.49751 0
M  V30 10731 H 1052.86 -6.19394 -4.62137 0
M  V30 10732 H 1051.2 -5.56622 -4.16169 0
M  V30 10733 H 1054.39 -3.56811 -3.02991 0
M  V30 10734 H 1054.57 -5.09919 -3.99858 0
M  V30 10735 N 1047.97 1.13488 -1.09353 0
M  V30 10736 C 1049.39 1.36739 -0.823086 0
M  V30 10737 C 1049.59 1.93476 0.562963 0
M  V30 10738 O 1048.64 2.15374 1.31796 0
M  V30 10739 C 1049.96 2.31943 -1.91371 0
M  V30 10740 C 1051.51 2.4556 -1.94085 0
M  V30 10741 C 1051.98 3.44072 -3.02289 0
M  V30 10742 N 1053.47 3.51622 -3.01524 0
M  V30 10743 C 1054.21 4.27724 -3.8189 0
M  V30 10744 N 1053.7 5.06987 -4.72161 0
M  V30 10745 N 1055.5 4.23018 -3.70152 0
M  V30 10746 H 1047.65 0.75012 -1.98713 0
M  V30 10747 H 1049.91 0.392564 -0.862901 0
M  V30 10748 H 1049.62 1.97408 -2.91072 0
M  V30 10749 H 1049.49 3.31952 -1.79131 0
M  V30 10750 H 1051.88 2.79382 -0.950234 0
M  V30 10751 H 1051.96 1.45479 -2.10403 0
M  V30 10752 H 1051.6 3.10981 -4.01564 0
M  V30 10753 H 1051.53 4.43956 -2.83214 0
M  V30 10754 H 1054.02 2.95066 -2.36103 0
M  V30 10755 H 1054.34 5.6236 -5.30067 0
M  V30 10756 H 1052.68 5.06222 -4.76197 0
M  V30 10757 H 1055.87 3.60171 -2.98989 0
M  V30 10758 H 1056.04 4.82075 -4.33022 0
M  V30 10759 N 1049.45 0.880621 1.30701 0
M  V30 10760 C 1050.68 0.511682 2.00473 0
M  V30 10761 C 1051.09 -0.898684 1.6604 0
M  V30 10762 O 1050.45 -1.59035 0.895218 0
M  V30 10763 C 1050.5 0.671723 3.55204 0
M  V30 10764 O 1050.22 2.02656 3.8841 0
M  V30 10765 C 1051.72 0.3052 4.42248 0
M  V30 10766 H 1048.94 0.198231 0.64105 0
M  V30 10767 H 1051.49 1.18472 1.66687 0
M  V30 10768 H 1049.64 0.0461066 3.87373 0
M  V30 10769 H 1050.06 2.04202 4.83117 0
M  V30 10770 H 1051.53 0.468095 5.50012 0
M  V30 10771 H 1052.01 -0.756456 4.32637 0
M  V30 10772 H 1052.61 0.906959 4.15517 0
M  V30 10773 N 1050.93 -1.4397 0.641131 0
M  V30 10774 C 1052.18 -2.02246 0.14985 0
M  V30 10775 C 1052.51 -1.50387 -1.22871 0
M  V30 10776 O 1051.78 -0.692003 -1.81773 0
M  V30 10777 C 1052.07 -3.59798 0.147449 0
M  V30 10778 C 1051.92 -4.21916 1.55907 0
M  V30 10779 C 1053.24 -4.36985 -0.522667 0
M  V30 10780 H 1050.36 -0.734875 0.0559274 0
M  V30 10781 H 1053 -1.71418 0.819513 0
M  V30 10782 H 1051.15 -3.86193 -0.422789 0
M  V30 10783 H 1052.82 -4.06594 2.17896 0
M  V30 10784 H 1051.06 -3.79028 2.10998 0
M  V30 10785 H 1051.74 -5.30964 1.50934 0
M  V30 10786 H 1054.21 -4.16083 -0.0376226 0
M  V30 10787 H 1053.09 -5.46676 -0.493572 0
M  V30 10788 H 1053.35 -4.12335 -1.59475 0
M  V30 10789 N 1052.41 -0.382291 -1.52893 0
M  V30 10790 C 1053.34 0.447829 -2.29165 0
M  V30 10791 C 1054.32 1.06956 -1.32267 0
M  V30 10792 O 1055.5 1.08365 -1.61154 0
M  V30 10793 C 1052.63 1.57902 -3.09329 0
M  V30 10794 C 1051.59 1.08369 -4.14053 0
M  V30 10795 C 1050.91 2.30641 -4.82399 0
M  V30 10796 C 1052.21 0.156591 -5.22065 0
M  V30 10797 H 1053.91 -0.188541 -2.98806 0
M  V30 10798 H 1051.45 -0.0921179 -1.43705 0
M  V30 10799 H 1053.41 2.16652 -3.61442 0
M  V30 10800 H 1052.13 2.24287 -2.37409 0
M  V30 10801 H 1050.79 0.518772 -3.62911 0
M  V30 10802 H 1050.44 2.9552 -4.07034 0
M  V30 10803 H 1050.14 1.98163 -5.53177 0
M  V30 10804 H 1051.66 2.90047 -5.37313 0
M  V30 10805 H 1053.08 0.652065 -5.6958 0
M  V30 10806 H 1051.47 -0.0780978 -6.00049 0
M  V30 10807 H 1052.54 -0.796529 -4.78313 0
M  V30 10808 N 1053.89 1.57202 -0.111913 0
M  V30 10809 C 1054.82 2.11995 0.871242 0
M  V30 10810 C 1055.83 1.06102 1.23475 0
M  V30 10811 O 1057.02 1.33497 1.18494 0
M  V30 10812 C 1054.12 2.59874 2.17528 0
M  V30 10813 C 1053.29 3.89788 1.98455 0
M  V30 10814 C 1052.35 4.23339 3.12523 0
M  V30 10815 O 1051.38 4.92277 2.85748 0
M  V30 10816 N 1052.58 3.80089 4.38762 0
M  V30 10817 H 1055.34 2.96976 0.403157 0
M  V30 10818 H 1052.91 1.61737 0.0727159 0
M  V30 10819 H 1054.9 2.79354 2.9282 0
M  V30 10820 H 1053.47 1.79812 2.55707 0
M  V30 10821 H 1052.69 3.79288 1.07396 0
M  V30 10822 H 1053.98 4.74748 1.83007 0
M  V30 10823 H 1053.37 3.24473 4.63394 0
M  V30 10824 H 1051.93 4.04691 5.10949 0
M  V30 10825 N 1055.36 -0.161842 1.56767 0
M  V30 10826 C 1056.29 -1.20226 2.0017 0
M  V30 10827 C 1057.27 -1.4564 0.878807 0
M  V30 10828 O 1058.46 -1.56813 1.14557 0
M  V30 10829 C 1055.59 -2.53897 2.36968 0
M  V30 10830 C 1054.54 -2.43033 3.52305 0
M  V30 10831 C 1053.87 -3.81281 3.74872 0
M  V30 10832 C 1055.17 -1.927 4.85453 0
M  V30 10833 H 1056.86 -0.84142 2.87333 0
M  V30 10834 H 1054.41 -0.403309 1.38237 0
M  V30 10835 H 1056.36 -3.26893 2.6593 0
M  V30 10836 H 1055.09 -2.91787 1.46724 0
M  V30 10837 H 1053.75 -1.7249 3.23485 0
M  V30 10838 H 1053.39 -4.1658 2.81904 0
M  V30 10839 H 1053.09 -3.74877 4.52483 0
M  V30 10840 H 1054.62 -4.55848 4.06245 0
M  V30 10841 H 1056.03 -2.55477 5.13229 0
M  V30 10842 H 1054.43 -1.97222 5.66766 0
M  V30 10843 H 1055.5 -0.881816 4.76814 0
M  V30 10844 N 1056.84 -1.516 -0.430713 0
M  V30 10845 C 1057.77 -1.76342 -1.53054 0
M  V30 10846 C 1058.75 -0.61349 -1.58652 0
M  V30 10847 O 1059.94 -0.856888 -1.74273 0
M  V30 10848 C 1057.07 -1.8945 -2.91077 0
M  V30 10849 C 1056.02 -3.04928 -3.00339 0
M  V30 10850 C 1055.35 -3.03228 -4.40405 0
M  V30 10851 C 1056.65 -4.44777 -2.73808 0
M  V30 10852 H 1058.34 -2.68435 -1.326 0
M  V30 10853 H 1055.89 -1.29171 -0.636466 0
M  V30 10854 H 1057.84 -2.05343 -3.67984 0
M  V30 10855 H 1056.56 -0.940114 -3.12777 0
M  V30 10856 H 1055.22 -2.88751 -2.25872 0
M  V30 10857 H 1054.87 -2.05553 -4.59083 0
M  V30 10858 H 1054.57 -3.80776 -4.47531 0
M  V30 10859 H 1056.1 -3.21222 -5.19277 0
M  V30 10860 H 1057.51 -4.6127 -3.40445 0
M  V30 10861 H 1055.91 -5.2408 -2.92335 0
M  V30 10862 H 1056.98 -4.54358 -1.69372 0
M  V30 10863 N 1058.32 0.686584 -1.41858 0
M  V30 10864 C 1059.25 1.81264 -1.47193 0
M  V30 10865 C 1060.23 1.66875 -0.329657 0
M  V30 10866 O 1061.42 1.86473 -0.542347 0
M  V30 10867 C 1058.55 3.19472 -1.36216 0
M  V30 10868 C 1057.5 3.4858 -2.48347 0
M  V30 10869 C 1056.83 4.86239 -2.22432 0
M  V30 10870 C 1058.13 3.46653 -3.90678 0
M  V30 10871 H 1059.82 1.77057 -2.41436 0
M  V30 10872 H 1057.37 0.850415 -1.16206 0
M  V30 10873 H 1059.32 3.97969 -1.38558 0
M  V30 10874 H 1058.04 3.24327 -0.384611 0
M  V30 10875 H 1056.7 2.72437 -2.45303 0
M  V30 10876 H 1056.35 4.8773 -1.22999 0
M  V30 10877 H 1056.05 5.06677 -2.97577 0
M  V30 10878 H 1057.57 5.67034 -2.26505 0
M  V30 10879 H 1058.99 4.15139 -3.95389 0
M  V30 10880 H 1057.38 3.78625 -4.65578 0
M  V30 10881 H 1058.45 2.45451 -4.18189 0
M  V30 10882 N 1059.8 1.27835 0.921735 0
M  V30 10883 C 1061.05 1.14296 1.66676 0
M  V30 10884 C 1061.37 -0.310493 1.92512 0
M  V30 10885 O 1060.64 -1.21637 1.53562 0
M  V30 10886 H 1059.22 0.419994 0.617749 0
M  V30 10887 H 1061.88 1.60449 1.10644 0
M  V30 10888 H 1060.97 1.67654 2.63246 0
M  V30 10889 N 1061.28 -1.12907 1.09954 0
M  V30 10890 C 1062.22 -2.20561 0.73863 0
M  V30 10891 C 1063.22 -1.67347 -0.262944 0
M  V30 10892 O 1064.42 -1.79574 -0.123834 0
M  V30 10893 H 1060.8 -0.718823 0.220901 0
M  V30 10894 H 1062.77 -2.4826 1.65559 0
M  V30 10895 C 1061.52 -3.47227 0.181239 0
M  V30 10896 H 1060.84 -3.88516 0.943144 0
M  V30 10897 H 1062.28 -4.23987 -0.0332888 0
M  V30 10898 C 1060.74 -3.18956 -1.08485 0
M  V30 10899 O 1061.27 -3.38224 -2.1672 0
M  V30 10900 N 1059.48 -2.72797 -1.00151 0
M  V30 10901 H 1059.02 -2.57317 -0.120645 0
M  V30 10902 H 1058.98 -2.54256 -1.84935 0
M  V30 10903 N 1062.75 -0.88754 -1.30232 0
M  V30 10904 C 1064.16 -0.55745 -1.78184 0
M  V30 10905 C 1064.52 0.926474 -1.72948 0
M  V30 10906 O 1063.64 1.72403 -1.3079 0
M  V30 10907 C 1064.24 -1.00512 -3.23547 0
M  V30 10908 C 1062.79 -0.726402 -3.69324 0
M  V30 10909 C 1061.94 -1.18666 -2.50627 0
M  V30 10910 H 1064.89 -1.07151 -1.17066 0
M  V30 10911 H 1064.91 -0.335185 -3.79021 0
M  V30 10912 H 1064.43 -2.08517 -3.27326 0
M  V30 10913 H 1062.53 0.341548 -3.71031 0
M  V30 10914 H 1062.64 -1.31575 -4.60679 0
M  V30 10915 H 1061 -0.605936 -2.47387 0
M  V30 10916 H 1061.79 -2.2745 -2.57141 0
M  V30 10917 N 1064.23 1.43628 -0.648757 0
M  V30 10918 C 1065.18 2.32529 0.057536 0
M  V30 10919 C 1066.17 1.48358 0.817699 0
M  V30 10920 O 1067.38 1.64595 0.728605 0
M  V30 10921 H 1063.76 0.75107 0.037388 0
M  V30 10922 H 1065.73 2.89829 -0.710062 0
M  V30 10923 C 1064.48 3.32605 1.01336 0
M  V30 10924 H 1063.8 3.97395 0.437855 0
M  V30 10925 H 1065.24 3.97453 1.47672 0
M  V30 10926 C 1063.7 2.62865 2.10722 0
M  V30 10927 O 1064.23 2.4408 3.19042 0
M  V30 10928 N 1062.43 2.22312 1.87152 0
M  V30 10929 H 1061.98 2.3779 0.990644 0
M  V30 10930 H 1061.94 1.75979 2.60536 0
M  V30 10931 N 1065.71 0.390394 1.52688 0
M  V30 10932 C 1066.66 -0.444229 2.26485 0
M  V30 10933 C 1067.63 -1.05688 1.28138 0
M  V30 10934 O 1068.81 -1.0847 1.56968 0
M  V30 10935 C 1065.95 -1.56501 3.07574 0
M  V30 10936 C 1065.07 -0.975111 4.20851 0
M  V30 10937 C 1064.2 -2.06704 4.89333 0
M  V30 10938 C 1063.24 -1.45309 5.94602 0
M  V30 10939 N 1062.38 -2.48437 6.56676 0
M  V30 10940 H 1067.22 0.191535 2.97384 0
M  V30 10941 H 1064.75 0.106287 1.46716 0
M  V30 10942 H 1066.71 -2.22558 3.52879 0
M  V30 10943 H 1065.34 -2.17107 2.38881 0
M  V30 10944 H 1064.39 -0.204109 3.79852 0
M  V30 10945 H 1065.71 -0.486465 4.96422 0
M  V30 10946 H 1064.86 -2.80528 5.37949 0
M  V30 10947 H 1063.6 -2.58928 4.13289 0
M  V30 10948 H 1062.6 -0.700091 5.45324 0
M  V30 10949 H 1063.83 -0.938775 6.7258 0
M  V30 10950 H 1061.77 -2.99829 5.83471 0
M  V30 10951 H 1061.69 -2.04331 7.27863 0
M  V30 10952 H 1062.96 -3.21888 7.09935 0
M  V30 10953 N 1067.19 -1.57141 0.120249 0
M  V30 10954 C 1068.44 -1.94852 -0.536387 0
M  V30 10955 C 1068.76 -1.00452 -1.67136 0
M  V30 10956 O 1068.03 -0.061053 -1.95805 0
M  V30 10957 H 1066.61 -0.719411 -0.201138 0
M  V30 10958 H 1069.27 -1.93977 0.189482 0
M  V30 10959 H 1068.37 -2.97917 -0.930145 0
M  V30 10960 N 1068.67 0.153526 -1.5685 0
M  V30 10961 C 1069.61 1.18973 -1.97773 0
M  V30 10962 C 1070.58 1.43041 -0.844311 0
M  V30 10963 O 1071.77 1.55484 -1.10586 0
M  V30 10964 C 1068.91 2.51981 -2.35795 0
M  V30 10965 C 1068.02 2.35143 -3.62397 0
M  V30 10966 C 1067.16 3.61141 -3.89552 0
M  V30 10967 C 1066.2 3.39311 -5.09445 0
M  V30 10968 N 1065.33 4.57423 -5.32643 0
M  V30 10969 H 1070.17 0.833758 -2.86099 0
M  V30 10970 H 1067.71 0.400252 -1.4155 0
M  V30 10971 H 1069.67 3.29527 -2.55867 0
M  V30 10972 H 1068.3 2.85539 -1.50557 0
M  V30 10973 H 1067.35 1.48684 -3.50139 0
M  V30 10974 H 1068.66 2.14969 -4.501 0
M  V30 10975 H 1067.82 4.47117 -4.10087 0
M  V30 10976 H 1066.55 3.84312 -3.00259 0
M  V30 10977 H 1065.56 2.51723 -4.8879 0
M  V30 10978 H 1066.78 3.17545 -6.00285 0
M  V30 10979 H 1064.73 4.8078 -4.46303 0
M  V30 10980 H 1064.65 4.40228 -6.14602 0
M  V30 10981 H 1065.92 5.44632 -5.57671 0
M  V30 10982 N 1070.14 1.51827 0.422667 0
M  V30 10983 C 1071.37 1.69337 1.19748 0
M  V30 10984 C 1071.79 0.396312 1.83878 0
M  V30 10985 O 1071.15 -0.644976 1.6944 0
M  V30 10986 C 1071.2 2.82082 2.24637 0
M  V30 10987 O 1070.3 2.46708 3.30468 0
M  V30 10988 H 1069.65 0.564154 0.35018 0
M  V30 10989 H 1072.18 1.98465 0.497289 0
M  V30 10990 H 1072.19 3.06599 2.69186 0
M  V30 10991 H 1070.86 3.76195 1.77341 0
M  V30 10992 H 1069.44 2.32815 2.91293 0
M  V30 10993 N 1071.62 -0.679052 1.4222 0
M  V30 10994 C 1072.53 -1.82221 1.47759 0
M  V30 10995 C 1073.55 -1.70092 0.3667 0
M  V30 10996 O 1074.72 -1.91718 0.616957 0
M  V30 10997 C 1071.79 -3.18332 1.37351 0
M  V30 10998 C 1070.85 -3.42449 2.58896 0
M  V30 10999 C 1070.08 -4.72067 2.48976 0
M  V30 11000 O 1070.31 -5.49683 1.5233 0
M  V30 11001 O 1069.24 -4.97333 3.39033 0
M  V30 11002 H 1073.07 -1.80504 2.44238 0
M  V30 11003 H 1070.65 -0.834251 1.23938 0
M  V30 11004 H 1072.53 -3.99563 1.33893 0
M  V30 11005 H 1071.21 -3.20696 0.439965 0
M  V30 11006 H 1070.12 -2.61083 2.6793 0
M  V30 11007 H 1071.45 -3.44912 3.51136 0
M  V30 11008 N 1073.1 -1.28322 -0.914942 0
M  V30 11009 C 1074.05 -1.12146 -2.01722 0
M  V30 11010 C 1075.02 -0.0189279 -1.66089 0
M  V30 11011 O 1076.2 -0.183638 -1.89914 0
M  V30 11012 C 1073.34 -0.78808 -3.35981 0
M  V30 11013 C 1072.46 -1.96954 -3.84491 0
M  V30 11014 C 1071.59 -1.57688 -5.07255 0
M  V30 11015 C 1070.63 -2.72506 -5.48094 0
M  V30 11016 N 1069.77 -2.33741 -6.62049 0
M  V30 11017 H 1074.61 -2.06461 -2.1489 0
M  V30 11018 H 1072.14 -1.0276 -1.05256 0
M  V30 11019 H 1074.1 -0.575546 -4.13211 0
M  V30 11020 H 1072.73 0.118132 -3.22584 0
M  V30 11021 H 1071.78 -2.29423 -3.03429 0
M  V30 11022 H 1073.1 -2.8304 -4.10719 0
M  V30 11023 H 1072.25 -1.32634 -5.92025 0
M  V30 11024 H 1070.99 -0.687291 -4.82833 0
M  V30 11025 H 1069.99 -2.9826 -4.61867 0
M  V30 11026 H 1071.22 -3.62106 -5.74505 0
M  V30 11027 H 1069.16 -1.4725 -6.3926 0
M  V30 11028 H 1069.08 -3.13364 -6.87997 0
M  V30 11029 H 1070.35 -2.11968 -7.50127 0
M  V30 11030 N 1074.58 1.12322 -1.10551 0
M  V30 11031 C 1075.53 2.18087 -0.755424 0
M  V30 11032 C 1076.5 1.6391 0.268805 0
M  V30 11033 O 1077.68 1.90227 0.147813 0
M  V30 11034 C 1074.82 3.4455 -0.194713 0
M  V30 11035 C 1073.93 4.12775 -1.27439 0
M  V30 11036 C 1073.07 5.26891 -0.675194 0
M  V30 11037 C 1072.11 5.86985 -1.73536 0
M  V30 11038 N 1071.24 6.92512 -1.15635 0
M  V30 11039 H 1076.08 2.47379 -1.66155 0
M  V30 11040 H 1073.62 1.21452 -0.829924 0
M  V30 11041 H 1075.58 4.16936 0.148275 0
M  V30 11042 H 1074.21 3.15671 0.674638 0
M  V30 11043 H 1073.26 3.38556 -1.73448 0
M  V30 11044 H 1074.57 4.53506 -2.07687 0
M  V30 11045 H 1073.73 6.06046 -0.281723 0
M  V30 11046 H 1072.47 4.87442 0.158708 0
M  V30 11047 H 1071.47 5.06517 -2.13825 0
M  V30 11048 H 1072.7 6.28505 -2.57213 0
M  V30 11049 H 1070.64 6.55098 -0.343928 0
M  V30 11050 H 1070.56 7.31848 -1.89565 0
M  V30 11051 H 1071.83 7.75492 -0.789463 0
M  V30 11052 N 1076.06 0.894434 1.2976 0
M  V30 11053 C 1076.97 0.372622 2.31622 0
M  V30 11054 C 1077.98 -0.52996 1.65733 0
M  V30 11055 O 1079.16 -0.420807 1.96955 0
M  V30 11056 C 1076.22 -0.396076 3.4443 0
M  V30 11057 C 1075.28 0.537394 4.25923 0
M  V30 11058 C 1074.52 -0.194713 5.33345 0
M  V30 11059 O 1074.74 -1.41943 5.52457 0
M  V30 11060 O 1073.67 0.460055 6.00139 0
M  V30 11061 H 1077.5 1.21756 2.78225 0
M  V30 11062 H 1075.09 0.65858 1.34101 0
M  V30 11063 H 1076.97 -0.830962 4.13126 0
M  V30 11064 H 1075.64 -1.21716 2.99945 0
M  V30 11065 H 1074.55 1.02129 3.5989 0
M  V30 11066 H 1075.88 1.32475 4.74037 0
M  V30 11067 N 1077.53 -1.43282 0.656365 0
M  V30 11068 C 1078.48 -2.30776 -0.0333155 0
M  V30 11069 C 1079.45 -1.44928 -0.811493 0
M  V30 11070 O 1080.64 -1.73792 -0.787465 0
M  V30 11071 C 1077.78 -3.30548 -0.991566 0
M  V30 11072 C 1076.89 -4.31493 -0.209159 0
M  V30 11073 C 1076.02 -5.18346 -1.16149 0
M  V30 11074 C 1075.06 -6.10983 -0.369699 0
M  V30 11075 N 1074.2 -6.90449 -1.27378 0
M  V30 11076 H 1079.04 -2.89204 0.718668 0
M  V30 11077 H 1076.58 -1.4247 0.366161 0
M  V30 11078 H 1078.54 -3.86905 -1.56078 0
M  V30 11079 H 1077.17 -2.73762 -1.71039 0
M  V30 11080 H 1076.22 -3.77405 0.476394 0
M  V30 11081 H 1077.53 -4.97142 0.406394 0
M  V30 11082 H 1076.68 -5.79345 -1.80124 0
M  V30 11083 H 1075.42 -4.52831 -1.81095 0
M  V30 11084 H 1074.43 -5.49069 0.283377 0
M  V30 11085 H 1075.65 -6.78541 0.275399 0
M  V30 11086 H 1073.6 -6.27579 -1.90999 0
M  V30 11087 H 1073.52 -7.52631 -0.71287 0
M  V30 11088 H 1074.78 -7.5595 -1.90158 0
M  V30 11089 N 1079.01 -0.398486 -1.52479 0
M  V30 11090 C 1080.24 0.180557 -2.06111 0
M  V30 11091 C 1080.66 1.39751 -1.26945 0
M  V30 11092 O 1080.01 1.79699 -0.318497 0
M  V30 11093 C 1080.06 0.541573 -3.5742 0
M  V30 11094 O 1079.79 -0.627043 -4.33589 0
M  V30 11095 C 1081.29 1.17549 -4.27431 0
M  V30 11096 H 1078.51 0.0250754 -0.670531 0
M  V30 11097 H 1081.05 -0.566368 -1.96501 0
M  V30 11098 H 1079.21 1.23839 -3.67073 0
M  V30 11099 H 1079.62 -0.328233 -5.23472 0
M  V30 11100 H 1081.09 1.37839 -5.34513 0
M  V30 11101 H 1081.57 2.14553 -3.83228 0
M  V30 11102 H 1082.18 0.51918 -4.22119 0
M  V30 11103 N 1080.49 1.57075 -0.12858 0
M  V30 11104 C 1081.9 1.82468 0.39526 0
M  V30 11105 C 1082.25 1.0463 1.65973 0
M  V30 11106 O 1081.38 0.285835 2.14504 0
M  V30 11107 C 1081.97 3.30976 0.723889 0
M  V30 11108 C 1080.53 3.57016 1.19232 0
M  V30 11109 C 1079.68 2.76534 0.205907 0
M  V30 11110 H 1082.63 1.54711 -0.353571 0
M  V30 11111 H 1082.65 3.46127 1.58039 0
M  V30 11112 H 1082.16 3.87602 -0.196595 0
M  V30 11113 H 1080.26 3.05758 2.12938 0
M  V30 11114 H 1080.38 4.65558 1.13103 0
M  V30 11115 H 1078.74 2.45038 0.694872 0
M  V30 11116 H 1079.52 3.35923 -0.707842 0
M  V30 11117 N 1081.97 -0.145205 1.5693 0
M  V30 11118 C 1082.9 -1.18096 2.01434 0
M  V30 11119 C 1083.88 -1.447 0.894204 0
M  V30 11120 O 1085.07 -1.55589 1.16214 0
M  V30 11121 C 1082.2 -2.51369 2.39647 0
M  V30 11122 C 1081.15 -2.39283 3.54863 0
M  V30 11123 C 1080.48 -3.77283 3.78895 0
M  V30 11124 C 1081.78 -1.8754 4.87469 0
M  V30 11125 H 1083.47 -0.810897 2.8821 0
M  V30 11126 H 1081.02 -0.388624 1.38657 0
M  V30 11127 H 1082.97 -3.24054 2.69382 0
M  V30 11128 H 1081.69 -2.90214 1.49811 0
M  V30 11129 H 1080.35 -1.6905 3.25296 0
M  V30 11130 H 1080 -4.13567 2.86307 0
M  V30 11131 H 1079.7 -3.70057 4.56433 0
M  V30 11132 H 1081.22 -4.51514 4.11057 0
M  V30 11133 H 1082.64 -2.50019 5.1591 0
M  V30 11134 H 1081.03 -1.912 5.68826 0
M  V30 11135 H 1082.1 -0.831194 4.77723 0
M  V30 11136 N 1083.45 -1.52049 -0.414609 0
M  V30 11137 C 1084.86 -1.40729 -0.752822 0
M  V30 11138 C 1085.06 -0.507468 -1.95005 0
M  V30 11139 O 1084.12 0.0288189 -2.52484 0
M  V30 11140 C 1085.43 -2.83163 -1.01189 0
M  V30 11141 C 1086.98 -2.92469 -1.11494 0
M  V30 11142 C 1087.46 -4.35859 -1.4068 0
M  V30 11143 N 1088.95 -4.39069 -1.47557 0
M  V30 11144 C 1089.68 -5.47072 -1.71756 0
M  V30 11145 N 1089.18 -6.65201 -1.93595 0
M  V30 11146 N 1090.97 -5.3458 -1.73726 0
M  V30 11147 H 1083.12 -2.09089 0.373549 0
M  V30 11148 H 1085.38 -0.942188 0.104814 0
M  V30 11149 H 1085.09 -3.51104 -0.204609 0
M  V30 11150 H 1084.96 -3.23874 -1.93353 0
M  V30 11151 H 1087.35 -2.24711 -1.91282 0
M  V30 11152 H 1087.43 -2.55222 -0.171794 0
M  V30 11153 H 1087.08 -5.04174 -0.614119 0
M  V30 11154 H 1087.01 -4.70637 -2.36238 0
M  V30 11155 H 1089.5 -3.53913 -1.32491 0
M  V30 11156 H 1089.81 -7.43297 -2.11495 0
M  V30 11157 H 1088.16 -6.68276 -1.90871 0
M  V30 11158 H 1091.35 -4.41271 -1.56198 0
M  V30 11159 H 1091.52 -6.18826 -1.92246 0
M  V30 11160 N 1084.93 0.6715 -1.42579 0
M  V30 11161 C 1086.2 1.42766 -1.33706 0
M  V30 11162 C 1086.58 2.11086 0.0239748 0
M  V30 11163 O 1085.93 2.03479 1.03964 0
M  V30 11164 C 1086.14 2.42739 -2.50756 0
M  V30 11165 C 1087.49 3.07284 -2.93021 0
M  V30 11166 O 1088.51 2.53066 -2.50671 0
M  V30 11167 O 1087.37 4.05541 -3.66331 0
M  V30 11168 H 1084.47 0.636955 -0.527463 0
M  V30 11169 H 1087.01 0.699946 -1.54593 0
M  V30 11170 H 1085.78 1.91076 -3.41476 0
M  V30 11171 H 1085.41 3.22986 -2.31874 0
M  V30 11172 N 1086.4 1.28806 0.908124 0
M  V30 11173 C 1087.31 1.15079 2.04436 0
M  V30 11174 C 1088.33 0.076012 1.73834 0
M  V30 11175 O 1089.51 0.286421 1.99353 0
M  V30 11176 C 1086.57 0.819733 3.3687 0
M  V30 11177 C 1085.63 1.97746 3.81045 0
M  V30 11178 C 1084.86 1.66211 5.07158 0
M  V30 11179 O 1085.09 0.579092 5.67453 0
M  V30 11180 O 1084.02 2.5075 5.47182 0
M  V30 11181 H 1087.85 2.10477 2.18937 0
M  V30 11182 H 1085.43 1.08177 1.03044 0
M  V30 11183 H 1087.31 0.649304 4.16368 0
M  V30 11184 H 1085.99 -0.10454 3.23531 0
M  V30 11185 H 1084.9 2.20308 3.02349 0
M  V30 11186 H 1086.23 2.88264 3.98955 0
M  V30 11187 N 1087.88 -1.11734 1.11145 0
M  V30 11188 C 1089.11 -1.87755 0.881062 0
M  V30 11189 C 1089.53 -1.79461 -0.563496 0
M  V30 11190 O 1088.89 -1.15481 -1.39763 0
M  V30 11191 C 1088.94 -3.34641 1.34342 0
M  V30 11192 O 1088.04 -4.09195 0.513157 0
M  V30 11193 H 1087.38 -0.583111 0.317613 0
M  V30 11194 H 1089.91 -1.41256 1.48013 0
M  V30 11195 H 1089.92 -3.85486 1.33658 0
M  V30 11196 H 1088.6 -3.39994 2.39534 0
M  V30 11197 H 1087.17 -3.68269 0.585833 0
M  V30 11198 N 1089.36 -0.901303 -1.29284 0
M  V30 11199 C 1090.59 -0.543511 -1.99634 0
M  V30 11200 C 1091 0.872154 -1.67448 0
M  V30 11201 O 1090.36 1.57591 -0.920406 0
M  V30 11202 C 1090.41 -0.728148 -3.54091 0
M  V30 11203 O 1090.13 -2.08809 -3.85137 0
M  V30 11204 C 1091.63 -0.375519 -4.41707 0
M  V30 11205 H 1088.85 -0.208405 -0.637815 0
M  V30 11206 H 1091.4 -1.21109 -1.64781 0
M  V30 11207 H 1089.55 -0.107728 -3.8725 0
M  V30 11208 H 1089.97 -2.11863 -4.79807 0
M  V30 11209 H 1091.44 -0.555538 -5.49197 0
M  V30 11210 H 1091.92 0.687532 -4.33785 0
M  V30 11211 H 1092.52 -0.972949 -4.14021 0
M  V30 11212 N 1090.84 1.42931 -0.663954 0
M  V30 11213 C 1091.77 2.29122 0.0598878 0
M  V30 11214 C 1092.78 1.43094 0.776404 0
M  V30 11215 O 1093.97 1.66923 0.63237 0
M  V30 11216 C 1091.07 3.20268 1.10822 0
M  V30 11217 C 1090.24 4.34892 0.4677 0
M  V30 11218 C 1089.3 5.06836 1.41435 0
M  V30 11219 O 1088.33 5.61735 0.918818 0
M  V30 11220 N 1089.53 5.11336 2.74801 0
M  V30 11221 H 1092.3 2.91885 -0.679945 0
M  V30 11222 H 1089.86 1.53739 -0.507543 0
M  V30 11223 H 1091.85 3.65264 1.74255 0
M  V30 11224 H 1090.42 2.59031 1.7499 0
M  V30 11225 H 1089.64 3.92679 -0.34593 0
M  V30 11226 H 1090.93 5.08796 0.0210237 0
M  V30 11227 H 1090.33 4.68124 3.1761 0
M  V30 11228 H 1088.88 5.60013 3.33509 0
M  V30 11229 N 1092.32 0.406567 1.52266 0
M  V30 11230 C 1093.23 -0.4271 2.30679 0
M  V30 11231 C 1094.24 -1.0559 1.383 0
M  V30 11232 O 1095.42 -1.05797 1.71374 0
M  V30 11233 C 1092.48 -1.53008 3.1111 0
M  V30 11234 C 1091.54 -0.924604 4.19225 0
M  V30 11235 C 1090.78 -1.97502 4.95811 0
M  V30 11236 O 1091 -3.19277 4.72671 0
M  V30 11237 O 1089.93 -1.58268 5.80719 0
M  V30 11238 H 1093.76 0.212187 3.02958 0
M  V30 11239 H 1091.34 0.169835 1.48432 0
M  V30 11240 H 1093.23 -2.17046 3.61205 0
M  V30 11241 H 1091.9 -2.15401 2.41628 0
M  V30 11242 H 1090.81 -0.247009 3.73284 0
M  V30 11243 H 1092.14 -0.34463 4.90992 0
M  V30 11244 N 1093.79 -1.57004 0.136909 0
M  V30 11245 C 1094.74 -2.12815 -0.818144 0
M  V30 11246 C 1095.73 -1.0534 -1.21623 0
M  V30 11247 O 1096.92 -1.31539 -1.18434 0
M  V30 11248 C 1094.05 -2.74533 -2.06122 0
M  V30 11249 C 1093.14 -3.89117 -1.68669 0
M  V30 11250 N 1093.53 -4.95412 -1.01983 0
M  V30 11251 C 1091.82 -3.99636 -1.98009 0
M  V30 11252 C 1092.53 -5.75594 -0.840624 0
M  V30 11253 N 1091.5 -5.26019 -1.37131 0
M  V30 11254 H 1095.3 -2.92372 -0.299315 0
M  V30 11255 H 1092.82 -1.6227 -0.0649741 0
M  V30 11256 H 1094.81 -3.12872 -2.7553 0
M  V30 11257 H 1093.47 -1.96446 -2.58532 0
M  V30 11258 H 1094.49 -5.13393 -0.681744 0
M  V30 11259 H 1091.16 -3.32613 -2.52339 0
M  V30 11260 H 1092.55 -6.71157 -0.315807 0
M  V30 11261 N 1095.27 0.136881 -1.57004 0
M  V30 11262 C 1096.5 0.866405 -1.88436 0
M  V30 11263 C 1096.92 1.73483 -0.727006 0
M  V30 11264 O 1096.28 1.78398 0.323094 0
M  V30 11265 C 1096.33 1.69059 -3.18514 0
M  V30 11266 O 1095.43 2.79584 -3.03161 0
M  V30 11267 H 1094.77 0.240709 -0.618834 0
M  V30 11268 H 1097.3 0.124653 -2.0422 0
M  V30 11269 H 1097.31 2.08353 -3.50789 0
M  V30 11270 H 1095.99 1.05296 -4.0235 0
M  V30 11271 H 1094.57 2.43623 -2.82315 0
M  V30 11272 N 1096.75 1.52266 0.40654 0
M  V30 11273 C 1097.66 1.78688 1.52012 0
M  V30 11274 C 1098.68 0.6726 1.60475 0
M  V30 11275 O 1099.85 0.95829 1.77141 0
M  V30 11276 C 1096.92 1.93434 2.87722 0
M  V30 11277 C 1095.98 3.17341 2.89125 0
M  V30 11278 C 1095.21 3.31374 4.18362 0
M  V30 11279 O 1095.43 2.50613 5.12396 0
M  V30 11280 O 1094.37 4.24539 4.26674 0
M  V30 11281 H 1098.19 2.73213 1.3262 0
M  V30 11282 H 1095.78 1.37142 0.592653 0
M  V30 11283 H 1097.66 2.04941 3.68208 0
M  V30 11284 H 1096.34 1.02099 3.07177 0
M  V30 11285 H 1095.24 3.1129 2.07483 0
M  V30 11286 H 1096.58 4.08466 2.7462 0
M  V30 11287 N 1098.23 -0.663929 1.42933 0
M  V30 11288 C 1099.64 -0.978346 1.26097 0
M  V30 11289 C 1099.84 -2.00756 0.172968 0
M  V30 11290 O 1098.9 -2.48418 -0.452184 0
M  V30 11291 C 1100.21 -1.4728 2.62162 0
M  V30 11292 C 1101.76 -1.59001 2.69606 0
M  V30 11293 C 1102.24 -2.1184 4.06064 0
M  V30 11294 N 1103.73 -2.19158 4.08074 0
M  V30 11295 C 1104.46 -2.61141 5.10483 0
M  V30 11296 N 1103.96 -3.02498 6.23271 0
M  V30 11297 N 1105.75 -2.60986 4.97838 0
M  V30 11298 H 1097.9 0.0173096 2.12393 0
M  V30 11299 H 1100.17 -0.0548116 0.946414 0
M  V30 11300 H 1099.87 -0.791008 3.42689 0
M  V30 11301 H 1099.75 -2.4497 2.86827 0
M  V30 11302 H 1102.13 -2.26284 1.89418 0
M  V30 11303 H 1102.21 -0.597728 2.48718 0
M  V30 11304 H 1101.86 -1.45162 4.86714 0
M  V30 11305 H 1101.79 -3.1188 4.2431 0
M  V30 11306 H 1104.28 -1.90013 3.26655 0
M  V30 11307 H 1104.59 -3.33251 6.97254 0
M  V30 11308 H 1102.94 -3.00328 6.2676 0
M  V30 11309 H 1106.13 -2.28046 4.08794 0
M  V30 11310 H 1106.3 -2.93384 5.7778 0
M  V30 11311 N 1099.71 -1.29285 -0.901281 0
M  V30 11312 C 1100.67 -1.14283 -1.98676 0
M  V30 11313 C 1101.67 -0.0787641 -1.60607 0
M  V30 11314 O 1102.86 -0.325574 -1.71131 0
M  V30 11315 C 1099.99 -0.747279 -3.32609 0
M  V30 11316 H 1101.18 -2.10701 -2.13413 0
M  V30 11317 H 1098.74 -1.12449 -1.08558 0
M  V30 11318 H 1099.47 0.217111 -3.23572 0
M  V30 11319 H 1099.26 -1.51608 -3.61604 0
M  V30 11320 H 1100.75 -0.665322 -4.12266 0
M  V30 11321 N 1101.18 1.11143 -1.11736 0
M  V30 11322 C 1102.11 2.19339 -0.800795 0
M  V30 11323 C 1103.1 1.68508 0.23221 0
M  V30 11324 O 1104.28 1.93967 0.0950063 0
M  V30 11325 C 1101.41 3.46424 -0.246579 0
M  V30 11326 C 1100.36 4.10487 -1.21181 0
M  V30 11327 C 1099.69 5.32183 -0.518158 0
M  V30 11328 C 1100.99 4.55052 -2.56368 0
M  V30 11329 H 1102.68 2.46077 -1.70548 0
M  V30 11330 H 1100.23 1.18271 -0.821454 0
M  V30 11331 H 1102.18 4.21398 -0.0128889 0
M  V30 11332 H 1100.91 3.19154 0.693415 0
M  V30 11333 H 1099.57 3.3751 -1.43118 0
M  V30 11334 H 1099.21 5.01187 0.426742 0
M  V30 11335 H 1098.91 5.75997 -1.16196 0
M  V30 11336 H 1100.44 6.09895 -0.293333 0
M  V30 11337 H 1101.85 5.21335 -2.38501 0
M  V30 11338 H 1100.25 5.0969 -3.16758 0
M  V30 11339 H 1101.32 3.68343 -3.1536 0
M  V30 11340 N 1102.66 0.908147 1.28804 0
M  V30 11341 C 1103.89 0.553431 1.9988 0
M  V30 11342 C 1104.31 -0.856714 1.67458 0
M  V30 11343 O 1103.67 -1.57163 0.903849 0
M  V30 11344 C 1103.72 0.762688 3.52442 0
M  V30 11345 O 1102.82 -0.180924 4.12003 0
M  V30 11346 H 1102.16 0.215237 0.628147 0
M  V30 11347 H 1104.69 1.22205 1.64095 0
M  V30 11348 H 1104.7 0.670612 4.02451 0
M  V30 11349 H 1103.38 1.79071 3.75375 0
M  V30 11350 H 1101.96 -0.0405897 3.72878 0
M  V30 11351 N 1104.14 -1.42577 0.671525 0
M  V30 11352 C 1105.05 -2.34598 -0.00898225 0
M  V30 11353 C 1106.07 -1.54909 -0.792407 0
M  V30 11354 O 1107.24 -1.87491 -0.735477 0
M  V30 11355 C 1104.31 -3.33405 -0.950888 0
M  V30 11356 C 1103.37 -4.28993 -0.16236 0
M  V30 11357 C 1102.6 -5.2308 -1.0594 0
M  V30 11358 O 1102.82 -5.22022 -2.2989 0
M  V30 11359 O 1101.76 -5.99632 -0.521966 0
M  V30 11360 H 1105.58 -2.94321 0.748927 0
M  V30 11361 H 1103.17 -1.43025 0.43175 0
M  V30 11362 H 1105.05 -3.94115 -1.49169 0
M  V30 11363 H 1103.73 -2.7616 -1.68871 0
M  V30 11364 H 1102.63 -3.71707 0.42247 0
M  V30 11365 H 1103.97 -4.8927 0.536274 0
M  V30 11366 N 1105.62 -0.414636 -1.52048 0
M  V30 11367 C 1106.55 0.443601 -2.24866 0
M  V30 11368 C 1107.56 1.00556 -1.28032 0
M  V30 11369 O 1108.75 0.903566 -1.53941 0
M  V30 11370 C 1105.85 1.63004 -2.97124 0
M  V30 11371 C 1105.03 1.191 -4.20873 0
M  V30 11372 C 1104.08 2.24497 -4.75907 0
M  V30 11373 O 1103.11 1.84861 -5.38345 0
M  V30 11374 N 1104.31 3.56727 -4.57959 0
M  V30 11375 H 1107.08 -0.180393 -2.99157 0
M  V30 11376 H 1104.64 -0.242305 -1.60077 0
M  V30 11377 H 1106.63 2.33089 -3.30835 0
M  V30 11378 H 1105.2 2.15984 -2.25986 0
M  V30 11379 H 1104.42 0.318059 -3.92915 0
M  V30 11380 H 1105.71 0.874699 -5.01225 0
M  V30 11381 H 1105.11 3.91675 -4.08175 0
M  V30 11382 H 1103.66 4.22772 -4.96092 0
M  V30 11383 N 1107.1 1.56929 -0.145233 0
M  V30 11384 C 1108.35 1.95243 0.506273 0
M  V30 11385 C 1108.66 1.0325 1.66129 0
M  V30 11386 O 1109.86 1.31135 2.37731 0
M  V30 11387 C 1108.32 3.47079 0.952042 0
M  V30 11388 C 1107.93 4.47654 -0.175947 0
M  V30 11389 C 1109.67 3.94263 1.57344 0
M  V30 11390 C 1107.58 5.90698 0.287993 0
M  V30 11391 H 1106.51 0.728906 0.192903 0
M  V30 11392 H 1109.16 1.82062 -0.229295 0
M  V30 11393 H 1107.54 3.55587 1.74282 0
M  V30 11394 H 1108.72 4.50841 -0.952848 0
M  V30 11395 H 1107.03 4.10377 -0.70564 0
M  V30 11396 H 1109.63 4.9857 1.93214 0
M  V30 11397 H 1109.97 3.35714 2.46174 0
M  V30 11398 H 1110.5 3.88665 0.847593 0
M  V30 11399 H 1107.24 6.53061 -0.564889 0
M  V30 11400 H 1106.76 5.90876 1.03081 0
M  V30 11401 H 1108.44 6.42747 0.740586 0
M  V30 11402 N 1108.58 -0.128553 1.57075 0
M  V30 11403 C 1109.51 -1.15953 2.02675 0
M  V30 11404 C 1110.49 -1.43743 0.909501 0
M  V30 11405 O 1111.67 -1.54348 1.17857 0
M  V30 11406 C 1108.8 -2.48813 2.423 0
M  V30 11407 C 1107.76 -2.35506 3.57381 0
M  V30 11408 C 1107.08 -3.73243 3.82875 0
M  V30 11409 C 1108.38 -1.82359 4.89431 0
M  V30 11410 H 1110.08 -0.780283 2.89054 0
M  V30 11411 H 1107.62 -0.373896 1.39061 0
M  V30 11412 H 1109.57 -3.21179 2.72804 0
M  V30 11413 H 1108.3 -2.88609 1.52881 0
M  V30 11414 H 1106.96 -1.6559 3.27071 0
M  V30 11415 H 1106.61 -4.10507 2.90677 0
M  V30 11416 H 1106.31 -3.65195 4.60333 0
M  V30 11417 H 1107.83 -4.47128 4.15823 0
M  V30 11418 H 1109.24 -2.44533 5.18533 0
M  V30 11419 H 1107.64 -1.85156 5.70822 0
M  V30 11420 H 1108.71 -0.780478 4.78578 0
M  V30 11421 N 1110.05 -1.5248 -0.398459 0
M  V30 11422 C 1110.99 -1.71321 -1.50746 0
M  V30 11423 C 1111.96 -0.5609 -1.52619 0
M  V30 11424 O 1113.15 -0.789557 -1.71167 0
M  V30 11425 C 1110.28 -1.76223 -2.89246 0
M  V30 11426 C 1109.32 -2.97878 -3.05239 0
M  V30 11427 S 1110.15 -4.58031 -2.77431 0
M  V30 11428 C 1111.31 -4.65735 -4.18141 0
M  V30 11429 H 1111.54 -2.65117 -1.34538 0
M  V30 11430 H 1109.08 -1.42653 -0.590727 0
M  V30 11431 H 1111.03 -1.79733 -3.69062 0
M  V30 11432 H 1109.7 -0.83536 -3.02788 0
M  V30 11433 H 1108.89 -2.97821 -4.06594 0
M  V30 11434 H 1108.49 -2.92311 -2.33304 0
M  V30 11435 H 1110.78 -4.43768 -5.11934 0
M  V30 11436 H 1111.73 -5.67709 -4.23217 0
M  V30 11437 H 1112.13 -3.94664 -4.03609 0
M  V30 11438 N 1111.53 0.65634 -1.43283 0
M  V30 11439 C 1112.78 1.41837 -1.44949 0
M  V30 11440 C 1113.11 1.94065 -0.0723212 0
M  V30 11441 O 1112.39 1.72092 0.906346 0
M  V30 11442 C 1112.67 2.60206 -2.48927 0
M  V30 11443 C 1112.52 2.1349 -3.95907 0
M  V30 11444 C 1113.84 3.62421 -2.49678 0
M  V30 11445 H 1110.96 0.514398 -0.527792 0
M  V30 11446 H 1113.6 0.74435 -1.74813 0
M  V30 11447 H 1111.75 3.17708 -2.23592 0
M  V30 11448 H 1113.42 1.61012 -4.32288 0
M  V30 11449 H 1111.67 1.4489 -4.08888 0
M  V30 11450 H 1112.34 2.98596 -4.64268 0
M  V30 11451 H 1114.81 3.14671 -2.72252 0
M  V30 11452 H 1113.69 4.42798 -3.24378 0
M  V30 11453 H 1113.95 4.14802 -1.52944 0
M  V30 11454 N 1113.01 1.29761 0.894412 0
M  V30 11455 C 1113.96 1.15341 1.99912 0
M  V30 11456 C 1114.93 0.0453488 1.66038 0
M  V30 11457 O 1116.11 0.213829 1.89598 0
M  V30 11458 C 1113.25 0.841432 3.34685 0
M  V30 11459 C 1112.36 2.03046 3.81309 0
M  V30 11460 C 1111.5 1.65739 5.04682 0
M  V30 11461 C 1110.54 2.81191 5.43689 0
M  V30 11462 N 1109.68 2.44244 6.58247 0
M  V30 11463 H 1114.52 2.09854 2.11578 0
M  V30 11464 H 1112.05 1.04421 1.03608 0
M  V30 11465 H 1114.01 0.641211 4.12243 0
M  V30 11466 H 1112.64 -0.066797 3.22731 0
M  V30 11467 H 1111.69 2.34222 2.9974 0
M  V30 11468 H 1113 2.89538 4.06164 0
M  V30 11469 H 1112.16 1.42036 5.8984 0
M  V30 11470 H 1110.9 0.764019 4.81678 0
M  V30 11471 H 1109.9 3.0557 4.57064 0
M  V30 11472 H 1111.13 3.712 5.68672 0
M  V30 11473 H 1109.07 1.57402 6.36837 0
M  V30 11474 H 1108.99 3.24269 6.82924 0
M  V30 11475 H 1110.26 2.23875 7.46659 0
M  V30 11476 N 1114.49 -1.10549 1.12324 0
M  V30 11477 C 1115.74 -1.81851 0.872531 0
M  V30 11478 C 1116.05 -1.86058 -0.603468 0
M  V30 11479 O 1117.26 -2.53553 -0.970736 0
M  V30 11480 C 1115.71 -3.26631 1.51131 0
M  V30 11481 C 1115.32 -3.30725 3.02201 0
M  V30 11482 C 1117.06 -4.02768 1.34082 0
M  V30 11483 C 1114.97 -4.69957 3.59018 0
M  V30 11484 H 1113.9 -0.681422 0.322769 0
M  V30 11485 H 1116.55 -1.24332 1.34959 0
M  V30 11486 H 1114.93 -3.8414 0.961913 0
M  V30 11487 H 1116.11 -2.83046 3.63623 0
M  V30 11488 H 1114.42 -2.68072 3.18632 0
M  V30 11489 H 1117.02 -5.05612 1.73955 0
M  V30 11490 H 1117.36 -4.15328 0.284369 0
M  V30 11491 H 1117.9 -3.51671 1.85937 0
M  V30 11492 H 1114.63 -4.62597 4.64418 0
M  V30 11493 H 1114.15 -5.18008 3.02371 0
M  V30 11494 H 1115.83 -5.38925 3.58007 0
M  V30 11495 N 1115.97 -0.914965 -1.28321 0
M  V30 11496 C 1116.91 -0.402792 -2.27258 0
M  V30 11497 C 1117.88 0.523412 -1.57638 0
M  V30 11498 O 1119.07 0.445344 -1.8553 0
M  V30 11499 C 1116.21 0.349956 -3.43321 0
M  V30 11500 C 1115.32 -0.608892 -4.27687 0
M  V30 11501 C 1114.46 0.162425 -5.30952 0
M  V30 11502 C 1113.49 -0.789959 -6.06981 0
M  V30 11503 N 1112.63 -0.0520826 -7.02081 0
M  V30 11504 H 1117.47 -1.25153 -2.70446 0
M  V30 11505 H 1115.01 -0.628444 -1.33 0
M  V30 11506 H 1116.97 0.802589 -4.09407 0
M  V30 11507 H 1115.6 1.16303 -3.01121 0
M  V30 11508 H 1114.65 -1.18005 -3.61634 0
M  V30 11509 H 1115.96 -1.33727 -4.8054 0
M  V30 11510 H 1115.11 0.675563 -6.02927 0
M  V30 11511 H 1113.85 0.923851 -4.7887 0
M  V30 11512 H 1112.86 -1.31446 -5.33856 0
M  V30 11513 H 1114.08 -1.55096 -6.61152 0
M  V30 11514 H 1112.03 0.691331 -6.52347 0
M  V30 11515 H 1111.95 -0.720267 -7.52561 0
M  V30 11516 H 1113.21 0.44082 -7.78253 0
M  V30 11517 N 1117.44 1.42219 -0.679077 0
M  V30 11518 C 1118.67 2.06333 -0.210097 0
M  V30 11519 C 1119.09 1.50703 1.12562 0
M  V30 11520 O 1118.45 0.627241 1.70104 0
M  V30 11521 C 1118.5 3.60243 -0.160322 0
M  V30 11522 O 1117.6 4.03122 0.869872 0
M  V30 11523 H 1116.94 0.655362 -0.106754 0
M  V30 11524 H 1119.47 1.82278 -0.929294 0
M  V30 11525 H 1119.48 4.07997 0.014384 0
M  V30 11526 H 1118.16 4.00106 -1.13526 0
M  V30 11527 H 1116.74 3.66907 0.66586 0
M  V30 11528 N 1118.92 0.422693 1.51826 0
M  V30 11529 C 1119.83 -0.40261 2.31119 0
M  V30 11530 C 1120.85 -1.04117 1.39412 0
M  V30 11531 O 1122.02 -1.03973 1.72486 0
M  V30 11532 C 1119.09 -1.49699 3.12716 0
M  V30 11533 C 1118.15 -0.880088 4.20182 0
M  V30 11534 C 1117.38 -1.92232 4.97878 0
M  V30 11535 O 1117.61 -3.14246 4.76031 0
M  V30 11536 O 1116.54 -1.521 5.82365 0
M  V30 11537 H 1120.37 0.244308 3.02716 0
M  V30 11538 H 1117.95 0.185569 1.48243 0
M  V30 11539 H 1119.83 -2.13202 3.63487 0
M  V30 11540 H 1118.51 -2.12826 2.43899 0
M  V30 11541 H 1117.41 -0.207404 3.73525 0
M  V30 11542 H 1118.75 -0.292535 4.9133 0
M  V30 11543 N 1120.4 -1.5685 0.153553 0
M  V30 11544 C 1121.81 -1.83074 -0.36618 0
M  V30 11545 C 1122.16 -1.07257 -1.64288 0
M  V30 11546 O 1121.29 -0.319925 -2.14022 0
M  V30 11547 C 1121.88 -3.32086 -0.671142 0
M  V30 11548 C 1120.44 -3.58868 -1.13537 0
M  V30 11549 C 1119.59 -2.76827 -0.161887 0
M  V30 11550 H 1122.54 -1.54129 0.378139 0
M  V30 11551 H 1122.56 -3.48598 -1.52512 0
M  V30 11552 H 1122.07 -3.8724 0.258234 0
M  V30 11553 H 1120.17 -3.09107 -2.08047 0
M  V30 11554 H 1120.29 -4.67299 -1.05682 0
M  V30 11555 H 1118.65 -2.46112 -0.6558 0
M  V30 11556 H 1119.43 -3.34755 0.761195 0
M  V30 11557 N 1121.88 0.120221 -1.57141 0
M  V30 11558 C 1123.12 0.834128 -1.86606 0
M  V30 11559 C 1123.48 1.77109 -0.741383 0
M  V30 11560 O 1124.68 2.52647 -0.917769 0
M  V30 11561 C 1122.95 1.56536 -3.21296 0
M  V30 11562 S 1124.51 2.32101 -3.7239 0
M  V30 11563 H 1121.33 0.278419 -0.65422 0
M  V30 11564 H 1123.93 0.0925474 -1.95281 0
M  V30 11565 H 1122.64 0.868987 -4.01094 0
M  V30 11566 H 1122.17 2.34734 -3.15696 0
M  V30 11567 H 1124.18 3.57799 -3.43794 0
M  V30 11568 N 1123.36 1.52689 0.390367 0
M  V30 11569 C 1124.63 1.58246 1.14968 0
M  V30 11570 C 1125.01 0.374808 2.07746 0
M  V30 11571 O 1124.36 -0.636969 2.19442 0
M  V30 11572 C 1124.57 2.92059 1.91056 0
M  V30 11573 C 1125.92 3.45745 2.46466 0
M  V30 11574 O 1126.94 2.93924 2.01214 0
M  V30 11575 O 1125.8 4.3628 3.29122 0
M  V30 11576 H 1122.9 0.638189 0.52597 0
M  V30 11577 H 1125.44 1.65024 0.39563 0
M  V30 11578 H 1124.21 3.71399 1.23201 0
M  V30 11579 H 1123.84 2.8866 2.73425 0
M  V30 11580 N 1124.83 -0.648732 1.43629 0
M  V30 11581 C 1126.11 -1.4062 1.35961 0
M  V30 11582 C 1126.49 -2.11098 0.00961023 0
M  V30 11583 O 1125.84 -2.05107 -1.00714 0
M  V30 11584 C 1126.05 -2.38719 2.54586 0
M  V30 11585 C 1127.4 -3.02584 2.97873 0
M  V30 11586 O 1128.42 -2.49046 2.54665 0
M  V30 11587 O 1127.28 -3.99662 3.72736 0
M  V30 11588 H 1124.37 -0.628483 0.53753 0
M  V30 11589 H 1126.92 -0.675263 1.55687 0
M  V30 11590 H 1125.69 -1.85619 3.44472 0
M  V30 11591 H 1125.32 -3.19257 2.36983 0
M  V30 11592 N 1126.31 -1.30234 -0.887518 0
M  V30 11593 C 1127.24 -1.18969 -2.00919 0
M  V30 11594 C 1128.22 -0.080952 -1.69907 0
M  V30 11595 O 1129.41 -0.262546 -1.92417 0
M  V30 11596 C 1126.54 -0.878094 -3.36016 0
M  V30 11597 C 1125.49 -1.94449 -3.81279 0
M  V30 11598 C 1124.82 -1.48594 -5.13638 0
M  V30 11599 C 1126.12 -3.35519 -4.00281 0
M  V30 11600 H 1127.81 -2.12808 -2.10602 0
M  V30 11601 H 1125.36 -1.02454 -1.01189 0
M  V30 11602 H 1127.31 -0.785954 -4.14006 0
M  V30 11603 H 1126.04 0.0959779 -3.26459 0
M  V30 11604 H 1124.69 -2.02622 -3.05516 0
M  V30 11605 H 1124.34 -0.500204 -5.00507 0
M  V30 11606 H 1124.04 -2.19921 -5.44893 0
M  V30 11607 H 1125.57 -1.40754 -5.94156 0
M  V30 11608 H 1126.98 -3.30119 -4.68716 0
M  V30 11609 H 1125.38 -4.0491 -4.42909 0
M  V30 11610 H 1126.45 -3.77597 -3.04218 0
M  V30 11611 N 1127.79 1.09952 -1.12909 0
M  V30 11612 C 1128.72 2.16257 -0.759305 0
M  V30 11613 C 1129.74 1.61355 0.216427 0
M  V30 11614 O 1130.92 1.785 -0.00297224 0
M  V30 11615 C 1128.02 3.38741 -0.103908 0
M  V30 11616 C 1127.2 4.23072 -1.11037 0
M  V30 11617 C 1126.26 5.23991 -0.481667 0
M  V30 11618 O 1125.28 5.57665 -1.14011 0
M  V30 11619 N 1126.48 5.75652 0.748698 0
M  V30 11620 H 1129.25 2.48588 -1.67405 0
M  V30 11621 H 1126.81 1.25617 -1.02137 0
M  V30 11622 H 1128.8 4.03362 0.328799 0
M  V30 11623 H 1127.37 3.04344 0.713677 0
M  V30 11624 H 1126.59 3.5467 -1.72054 0
M  V30 11625 H 1127.88 4.76244 -1.79078 0
M  V30 11626 H 1127.28 5.505 1.30253 0
M  V30 11627 H 1125.84 6.42033 1.12415 0
M  V30 11628 N 1129.27 0.921757 1.27833 0
M  V30 11629 C 1130.52 0.55493 1.93916 0
M  V30 11630 C 1130.83 -0.907191 1.7329 0
M  V30 11631 O 1132.04 -1.38253 2.33663 0
M  V30 11632 C 1130.49 0.941644 3.47363 0
M  V30 11633 C 1130.1 2.42404 3.76755 0
M  V30 11634 C 1131.84 0.645785 4.19559 0
M  V30 11635 C 1129.75 2.75046 5.23549 0
M  V30 11636 H 1128.68 0.203818 0.72593 0
M  V30 11637 H 1131.33 1.12176 1.4522 0
M  V30 11638 H 1129.71 0.303519 3.94835 0
M  V30 11639 H 1130.89 3.10957 3.40062 0
M  V30 11640 H 1129.2 2.69118 3.17749 0
M  V30 11641 H 1131.8 0.866237 5.27637 0
M  V30 11642 H 1132.14 -0.41676 4.14209 0
M  V30 11643 H 1132.68 1.24274 3.7789 0
M  V30 11644 H 1129.42 3.80186 5.33984 0
M  V30 11645 H 1128.94 2.11138 5.6141 0
M  V30 11646 H 1130.61 2.62474 5.91368 0
M  V30 11647 N 1130.75 -1.41857 0.686609 0
M  V30 11648 C 1132.16 -1.84439 0.289662 0
M  V30 11649 C 1132.51 -1.57462 -1.17047 0
M  V30 11650 O 1131.63 -1.04046 -1.89745 0
M  V30 11651 C 1132.23 -3.34802 0.518948 0
M  V30 11652 C 1130.79 -3.75988 0.176007 0
M  V30 11653 C 1129.93 -2.65339 0.805632 0
M  V30 11654 H 1132.89 -1.31536 0.88792 0
M  V30 11655 H 1132.91 -3.79833 -0.225209 0
M  V30 11656 H 1132.42 -3.54405 1.58173 0
M  V30 11657 H 1130.52 -3.61989 -0.882865 0
M  V30 11658 H 1130.63 -4.75009 0.624772 0
M  V30 11659 H 1129 -2.53605 0.235966 0
M  V30 11660 H 1129.78 -2.87762 1.8721 0
M  V30 11661 N 1132.22 -0.430739 -1.51599 0
M  V30 11662 C 1133.17 0.398482 -2.29161 0
M  V30 11663 C 1134.17 1.02676 -1.34737 0
M  V30 11664 O 1135.37 0.96248 -1.52106 0
M  V30 11665 H 1131.75 0.14731 -0.737431 0
M  V30 11666 H 1133.72 -0.276619 -2.97115 0
M  V30 11667 C 1132.47 1.49094 -3.14112 0
M  V30 11668 H 1131.79 1.01685 -3.86652 0
M  V30 11669 H 1133.23 2.04453 -3.7145 0
M  V30 11670 C 1131.69 2.47049 -2.29059 0
M  V30 11671 O 1132.22 3.51435 -1.94567 0
M  V30 11672 N 1130.43 2.17778 -1.92409 0
M  V30 11673 H 1129.97 1.3292 -2.20658 0
M  V30 11674 H 1129.93 2.8356 -1.35798 0
M  V30 11675 N 1133.7 1.56767 -0.161869 0
M  V30 11676 C 1134.93 2.00964 0.492027 0
M  V30 11677 C 1135.35 1.04206 1.57437 0
M  V30 11678 O 1134.7 0.0413998 1.82453 0
M  V30 11679 C 1134.75 3.4502 1.07904 0
M  V30 11680 O 1134.47 4.38082 0.0399085 0
M  V30 11681 C 1135.98 4.04572 1.81209 0
M  V30 11682 H 1133.2 0.658911 0.126797 0
M  V30 11683 H 1135.74 2.0283 -0.260824 0
M  V30 11684 H 1133.89 3.43959 1.78243 0
M  V30 11685 H 1134.31 5.22372 0.471985 0
M  V30 11686 H 1135.78 5.07321 2.17554 0
M  V30 11687 H 1136.26 3.46126 2.70359 0
M  V30 11688 H 1136.87 4.09307 1.15534 0
M  V30 11689 N 1135.18 -0.111886 1.57202 0
M  V30 11690 C 1136.13 -1.15585 2.01849 0
M  V30 11691 C 1137.12 -1.42458 0.916621 0
M  V30 11692 O 1138.33 -1.42337 1.10182 0
M  V30 11693 H 1134.7 -0.389885 0.643035 0
M  V30 11694 H 1136.67 -0.752854 2.88747 0
M  V30 11695 C 1135.42 -2.47247 2.44467 0
M  V30 11696 H 1134.75 -2.27409 3.28824 0
M  V30 11697 H 1136.19 -3.18837 2.79497 0
M  V30 11698 C 1134.65 -3.10339 1.31115 0
M  V30 11699 O 1135.18 -3.96713 0.631029 0
M  V30 11700 N 1133.38 -2.70326 1.0664 0
M  V30 11701 H 1132.93 -2.00182 1.62126 0
M  V30 11702 H 1132.89 -3.12869 0.309944 0
M  V30 11703 N 1136.66 -1.52894 -0.382264 0
M  V30 11704 C 1137.9 -1.68515 -1.12829 0
M  V30 11705 C 1138.24 -0.427211 -1.89443 0
M  V30 11706 O 1137.51 0.57516 -1.85801 0
M  V30 11707 C 1137.8 -2.92449 -2.10108 0
M  V30 11708 C 1137.65 -4.2836 -1.37214 0
M  V30 11709 C 1138.97 -3.11944 -3.1045 0
M  V30 11710 H 1136.09 -0.613223 -0.408811 0
M  V30 11711 H 1138.73 -1.85503 -0.410921 0
M  V30 11712 H 1136.88 -2.78097 -2.71283 0
M  V30 11713 H 1138.55 -4.54493 -0.789516 0
M  V30 11714 H 1136.79 -4.28532 -0.673973 0
M  V30 11715 H 1137.46 -5.11178 -2.0833 0
M  V30 11716 H 1139.94 -3.25372 -2.59369 0
M  V30 11717 H 1138.82 -4.00125 -3.75754 0
M  V30 11718 H 1139.08 -2.26465 -3.79692 0
M  V30 11719 N 1138.14 0.641106 -1.43971 0
M  V30 11720 C 1139.09 1.74699 -1.46507 0
M  V30 11721 C 1140.07 1.57437 -0.332037 0
M  V30 11722 O 1141.26 1.67343 -0.576663 0
M  V30 11723 C 1138.39 3.13344 -1.40252 0
M  V30 11724 C 1137.48 3.3611 -2.58632 0
M  V30 11725 N 1137.87 3.29291 -3.83929 0
M  V30 11726 C 1136.17 3.66873 -2.53615 0
M  V30 11727 C 1136.87 3.52472 -4.62751 0
M  V30 11728 N 1135.84 3.74868 -3.93668 0
M  V30 11729 H 1139.65 1.67869 -2.41241 0
M  V30 11730 H 1137.16 0.843217 -1.38793 0
M  V30 11731 H 1139.16 3.92636 -1.40153 0
M  V30 11732 H 1137.82 3.21346 -0.46549 0
M  V30 11733 H 1138.83 3.08431 -4.16041 0
M  V30 11734 H 1135.51 3.81917 -1.68659 0
M  V30 11735 H 1136.9 3.52876 -5.71776 0
M  V30 11736 N 1139.62 1.30703 0.880598 0
M  V30 11737 C 1140.55 1.20033 2.00286 0
M  V30 11738 C 1141.53 0.0899614 1.69862 0
M  V30 11739 O 1142.71 0.272747 1.92275 0
M  V30 11740 C 1139.84 0.895902 3.35546 0
M  V30 11741 C 1138.8 1.96468 3.80242 0
M  V30 11742 C 1138.12 1.51316 5.12843 0
M  V30 11743 C 1139.42 3.37637 3.98496 0
M  V30 11744 H 1141.12 2.13922 2.0947 0
M  V30 11745 H 1138.66 1.02989 1.00644 0
M  V30 11746 H 1140.61 0.807899 4.13583 0
M  V30 11747 H 1139.34 -0.0786636 3.26505 0
M  V30 11748 H 1138 2.0424 3.04437 0
M  V30 11749 H 1137.65 0.52674 5.00234 0
M  V30 11750 H 1137.35 2.22807 5.43719 0
M  V30 11751 H 1138.87 1.43903 5.93401 0
M  V30 11752 H 1140.28 3.326 4.66959 0
M  V30 11753 H 1138.68 4.07253 4.40755 0
M  V30 11754 H 1139.75 3.79205 3.02211 0
M  V30 11755 N 1141.09 -1.09351 1.1349 0
M  V30 11756 C 1142.32 -1.85844 0.92069 0
M  V30 11757 C 1142.74 -1.80616 -0.525303 0
M  V30 11758 O 1142.1 -1.1842 -1.37282 0
M  V30 11759 C 1142.15 -3.31716 1.4141 0
M  V30 11760 O 1141.25 -4.08014 0.599838 0
M  V30 11761 H 1140.59 -0.576242 0.32991 0
M  V30 11762 H 1143.12 -1.38084 1.50976 0
M  V30 11763 H 1143.13 -3.82564 1.41805 0
M  V30 11764 H 1141.81 -3.34837 2.46692 0
M  V30 11765 H 1140.39 -3.66944 0.663816 0
M  V30 11766 N 1142.57 -0.928524 -1.27343 0
M  V30 11767 C 1143.52 -0.399267 -2.24477 0
M  V30 11768 C 1144.51 0.496927 -1.53034 0
M  V30 11769 O 1145.7 0.334237 -1.73816 0
M  V30 11770 C 1142.83 0.346059 -3.41551 0
M  V30 11771 C 1141.91 -0.566699 -4.20297 0
M  V30 11772 N 1142.3 -1.6869 -4.76841 0
M  V30 11773 C 1140.6 -0.369865 -4.44464 0
M  V30 11774 C 1141.3 -2.25466 -5.36228 0
M  V30 11775 N 1140.28 -1.54414 -5.21207 0
M  V30 11776 H 1144.08 -1.25456 -2.65778 0
M  V30 11777 H 1141.59 -0.782894 -1.42283 0
M  V30 11778 H 1143.59 0.742171 -4.10241 0
M  V30 11779 H 1142.25 1.19827 -3.01781 0
M  V30 11780 H 1143.26 -2.06926 -4.74765 0
M  V30 11781 H 1139.94 0.441619 -4.15158 0
M  V30 11782 H 1141.33 -3.19779 -5.90924 0
M  V30 11783 N 1144.05 1.41491 -0.694123 0
M  V30 11784 C 1145.33 1.95004 -0.152571 0
M  V30 11785 C 1145.71 1.63357 1.33707 0
M  V30 11786 O 1145.05 0.939815 2.08278 0
M  V30 11787 C 1145.26 3.46186 -0.44232 0
M  V30 11788 C 1146.61 4.22991 -0.369279 0
M  V30 11789 O 1147.64 3.54198 -0.377152 0
M  V30 11790 O 1146.5 5.45514 -0.328145 0
M  V30 11791 H 1143.59 0.826879 -0.0141253 0
M  V30 11792 H 1146.14 1.51216 -0.770183 0
M  V30 11793 H 1144.91 3.62497 -1.47348 0
M  V30 11794 H 1144.53 3.97064 0.206337 0
M  V30 11795 N 1145.53 0.438773 1.51369 0
M  V30 11796 C 1146.49 -0.36032 2.2635 0
M  V30 11797 C 1147.49 -0.948465 1.29849 0
M  V30 11798 O 1148.68 -0.822692 1.53549 0
M  V30 11799 C 1145.81 -1.50994 3.05636 0
M  V30 11800 H 1147.01 0.296826 2.98427 0
M  V30 11801 H 1144.56 0.191978 1.55117 0
M  V30 11802 H 1145.29 -2.2031 2.37979 0
M  V30 11803 H 1145.08 -1.09437 3.76518 0
M  V30 11804 H 1146.57 -2.07447 3.6243 0
M  V30 11805 N 1147.01 -1.56678 0.170181 0
M  V30 11806 C 1147.95 -2.17909 -0.760556 0
M  V30 11807 C 1148.92 -1.11875 -1.22773 0
M  V30 11808 O 1150.11 -1.40021 -1.2961 0
M  V30 11809 C 1147.25 -2.82305 -1.9849 0
M  V30 11810 C 1146.36 -4.02796 -1.5614 0
M  V30 11811 C 1145.5 -4.55121 -2.73932 0
M  V30 11812 C 1144.53 -5.68025 -2.28067 0
M  V30 11813 N 1143.67 -6.14865 -3.38947 0
M  V30 11814 H 1148.51 -2.97098 -0.231629 0
M  V30 11815 H 1146.05 -1.46742 -0.102602 0
M  V30 11816 H 1148.01 -3.17797 -2.70298 0
M  V30 11817 H 1146.64 -2.05721 -2.48755 0
M  V30 11818 H 1145.69 -3.73131 -0.740097 0
M  V30 11819 H 1147 -4.84526 -1.18472 0
M  V30 11820 H 1146.15 -4.92789 -3.53898 0
M  V30 11821 H 1144.89 -3.72445 -3.14858 0
M  V30 11822 H 1143.9 -5.2991 -1.46546 0
M  V30 11823 H 1145.12 -6.52501 -1.88199 0
M  V30 11824 H 1143.07 -5.35119 -3.79452 0
M  V30 11825 H 1142.99 -6.91582 -3.05369 0
M  V30 11826 H 1144.25 -6.57183 -4.19203 0
M  V30 11827 N 1148.48 0.103547 -1.57259 0
M  V30 11828 C 1149.71 0.82624 -1.90232 0
M  V30 11829 C 1150.13 1.71902 -0.763641 0
M  V30 11830 O 1149.49 1.79043 0.285181 0
M  V30 11831 C 1149.54 1.62265 -3.22029 0
M  V30 11832 O 1148.64 2.73091 -3.09023 0
M  V30 11833 H 1147.98 0.227528 -0.6238 0
M  V30 11834 H 1150.51 0.081307 -2.04438 0
M  V30 11835 H 1150.52 2.00865 -3.5513 0
M  V30 11836 H 1149.2 0.967383 -4.04493 0
M  V30 11837 H 1147.78 2.3758 -2.8742 0
M  V30 11838 N 1149.96 1.53094 0.37415 0
M  V30 11839 C 1150.92 1.78264 1.44065 0
M  V30 11840 C 1151.92 0.652892 1.46949 0
M  V30 11841 O 1153.11 0.921046 1.47859 0
M  V30 11842 C 1150.25 1.89693 2.83248 0
M  V30 11843 H 1151.44 2.73505 1.23025 0
M  V30 11844 H 1148.99 1.44041 0.60678 0
M  V30 11845 H 1149.73 0.964884 3.09613 0
M  V30 11846 H 1149.51 2.71855 2.82554 0
M  V30 11847 H 1151 2.10787 3.60498 0
M  V30 11848 N 1151.44 -0.633461 1.44309 0
M  V30 11849 C 1152.85 -1.21504 1.41752 0
M  V30 11850 C 1153.2 -1.95758 0.131667 0
M  V30 11851 O 1152.33 -2.02311 -0.768072 0
M  V30 11852 C 1152.92 -2.21005 2.56792 0
M  V30 11853 C 1151.48 -2.74596 2.57438 0
M  V30 11854 C 1150.63 -1.49555 2.33513 0
M  V30 11855 H 1153.58 -0.424277 1.52923 0
M  V30 11856 H 1153.6 -3.03563 2.29412 0
M  V30 11857 H 1153.11 -1.66934 3.50364 0
M  V30 11858 H 1151.21 -3.32676 1.67801 0
M  V30 11859 H 1151.33 -3.20794 3.55849 0
M  V30 11860 H 1149.69 -1.77605 1.82561 0
M  V30 11861 H 1150.47 -0.973899 3.29196 0
M  V30 11862 N 1152.92 -1.31168 -0.873655 0
M  V30 11863 C 1154.17 -1.20642 -1.6264 0
M  V30 11864 C 1154.49 0.236286 -1.93059 0
M  V30 11865 O 1153.75 1.18401 -1.55819 0
M  V30 11866 C 1154.05 -1.99204 -2.96736 0
M  V30 11867 C 1153.71 -3.48734 -2.85824 0
M  V30 11868 C 1152.38 -3.89507 -2.82555 0
M  V30 11869 C 1154.73 -4.43905 -2.73127 0
M  V30 11870 C 1152.06 -5.23724 -2.64442 0
M  V30 11871 C 1154.41 -5.78242 -2.56551 0
M  V30 11872 C 1153.07 -6.18241 -2.51663 0
M  V30 11873 H 1152.34 -0.44146 -0.595142 0
M  V30 11874 H 1154.99 -1.62394 -1.01492 0
M  V30 11875 H 1153.29 -1.50122 -3.61899 0
M  V30 11876 H 1154.99 -1.88443 -3.53963 0
M  V30 11877 H 1151.58 -3.1634 -2.89184 0
M  V30 11878 H 1155.76 -4.13338 -2.7471 0
M  V30 11879 H 1151.02 -5.53794 -2.59081 0
M  V30 11880 H 1155.19 -6.51616 -2.45702 0
M  V30 11881 H 1152.82 -7.22185 -2.37387 0
M  V30 11882 N 1154.4 1.08748 -1.14068 0
M  V30 11883 C 1155.33 2.17591 -0.84714 0
M  V30 11884 C 1156.31 1.68962 0.196415 0
M  V30 11885 O 1157.49 1.94125 0.0538415 0
M  V30 11886 C 1154.62 3.45823 -0.320005 0
M  V30 11887 C 1153.58 4.07824 -1.2986 0
M  V30 11888 C 1152.9 5.30965 -0.630925 0
M  V30 11889 C 1154.2 4.49512 -2.65963 0
M  V30 11890 H 1155.9 2.42404 -1.75729 0
M  V30 11891 H 1153.44 1.16502 -0.846356 0
M  V30 11892 H 1155.4 4.21276 -0.102271 0
M  V30 11893 H 1154.12 3.20553 0.625561 0
M  V30 11894 H 1152.78 3.34398 -1.50245 0
M  V30 11895 H 1152.43 5.01979 0.320337 0
M  V30 11896 H 1152.13 5.73402 -1.28388 0
M  V30 11897 H 1153.65 6.09136 -0.422635 0
M  V30 11898 H 1155.06 5.16159 -2.49506 0
M  V30 11899 H 1153.46 5.02857 -3.27498 0
M  V30 11900 H 1154.53 3.6157 -3.23102 0
M  V30 11901 N 1155.87 0.935264 1.26849 0
M  V30 11902 C 1157.12 0.578545 1.93642 0
M  V30 11903 C 1157.44 -0.884296 1.73796 0
M  V30 11904 O 1156.71 -1.62768 1.09011 0
M  V30 11905 H 1155.29 0.210976 0.716588 0
M  V30 11906 H 1157.96 1.1893 1.54407 0
M  V30 11907 H 1157.05 0.791268 3.01903 0
M  V30 11908 N 1157.35 -1.41121 0.701616 0
M  V30 11909 C 1158.29 -2.28198 -0.010533 0
M  V30 11910 C 1159.26 -1.42569 -0.78185 0
M  V30 11911 O 1160.45 -1.71993 -0.771408 0
M  V30 11912 C 1157.57 -3.22903 -1.02231 0
M  V30 11913 C 1156.62 -4.25115 -0.343454 0
M  V30 11914 S 1157.45 -5.27563 0.918553 0
M  V30 11915 C 1158.61 -6.25833 -0.0914763 0
M  V30 11916 H 1158.84 -2.88249 0.727995 0
M  V30 11917 H 1156.38 -1.46348 0.492112 0
M  V30 11918 H 1158.33 -3.77997 -1.60089 0
M  V30 11919 H 1156.99 -2.61936 -1.73345 0
M  V30 11920 H 1156.19 -4.91674 -1.10782 0
M  V30 11921 H 1155.79 -3.73648 0.162206 0
M  V30 11922 H 1158.08 -6.70908 -0.942826 0
M  V30 11923 H 1159.02 -7.06035 0.540351 0
M  V30 11924 H 1159.43 -5.62712 -0.448956 0
M  V30 11925 N 1158.83 -0.446794 -1.51134 0
M  V30 11926 C 1159.79 0.348311 -2.26538 0
M  V30 11927 C 1160.79 0.941566 -1.3035 0
M  V30 11928 O 1161.98 0.814537 -1.53984 0
M  V30 11929 C 1159.12 1.49371 -3.06433 0
M  V30 11930 H 1160.31 -0.312648 -2.98266 0
M  V30 11931 H 1157.86 -0.200201 -1.55013 0
M  V30 11932 H 1158.6 2.19045 -2.39144 0
M  V30 11933 H 1158.38 1.07439 -3.77093 0
M  V30 11934 H 1159.87 2.05522 -3.63525 0
M  V30 11935 N 1160.31 1.56586 -0.178487 0
M  V30 11936 C 1161.72 1.83633 0.337009 0
M  V30 11937 C 1162.07 1.09857 1.6256 0
M  V30 11938 O 1161.2 0.353933 2.13486 0
M  V30 11939 C 1161.79 3.33112 0.618225 0
M  V30 11940 C 1160.35 3.60629 1.07814 0
M  V30 11941 C 1159.5 2.7705 0.117825 0
M  V30 11942 H 1162.45 1.53508 -0.402612 0
M  V30 11943 H 1162.47 3.5098 1.46947 0
M  V30 11944 H 1161.98 3.8678 -0.319808 0
M  V30 11945 H 1160.08 3.12378 2.03103 0
M  V30 11946 H 1160.19 4.68921 0.982339 0
M  V30 11947 H 1158.56 2.47125 0.616563 0
M  V30 11948 H 1159.34 3.33501 -0.814356 0
M  V30 11949 N 1161.79 -0.095206 1.57312 0
M  V30 11950 C 1162.75 -1.09974 2.01093 0
M  V30 11951 C 1163.75 -1.32954 0.904424 0
M  V30 11952 O 1164.94 -1.29069 1.16991 0
M  V30 11953 C 1162.07 -2.4489 2.37153 0
M  V30 11954 H 1163.26 -0.722906 2.91057 0
M  V30 11955 H 1160.82 -0.340249 1.52552 0
M  V30 11956 H 1161.55 -2.8745 1.50143 0
M  V30 11957 H 1161.34 -2.29559 3.17876 0
M  V30 11958 H 1162.83 -3.17141 2.71683 0
M  V30 11959 N 1163.26 -1.53291 -0.366026 0
M  V30 11960 C 1164.51 -1.69702 -1.11036 0
M  V30 11961 C 1164.84 -0.44728 -1.88979 0
M  V30 11962 O 1164.12 0.55542 -1.86401 0
M  V30 11963 C 1164.4 -2.94661 -2.06995 0
M  V30 11964 C 1164.25 -4.29791 -1.32663 0
M  V30 11965 C 1165.57 -3.15219 -3.07123 0
M  V30 11966 H 1162.69 -0.617525 -0.402284 0
M  V30 11967 H 1165.33 -1.85929 -0.391223 0
M  V30 11968 H 1163.48 -2.80958 -2.68318 0
M  V30 11969 H 1165.16 -4.55305 -0.741266 0
M  V30 11970 H 1163.4 -4.29223 -0.628484 0
M  V30 11971 H 1164.07 -5.13359 -2.02896 0
M  V30 11972 H 1166.55 -3.28105 -2.55903 0
M  V30 11973 H 1165.42 -4.04088 -3.71489 0
M  V30 11974 H 1165.68 -2.30479 -3.77269 0
M  V30 11975 N 1164.74 0.6258 -1.44643 0
M  V30 11976 C 1165.67 1.75086 -1.47911 0
M  V30 11977 C 1166.69 1.58496 -0.37188 0
M  V30 11978 O 1167.88 1.66712 -0.637925 0
M  V30 11979 C 1164.98 3.12874 -1.30243 0
M  V30 11980 C 1164.15 3.55873 -2.54309 0
M  V30 11981 C 1163.21 4.72558 -2.31464 0
M  V30 11982 O 1162.23 4.80599 -3.04981 0
M  V30 11983 N 1163.44 5.64617 -1.34862 0
M  V30 11984 H 1166.2 1.72751 -2.44902 0
M  V30 11985 H 1163.76 0.810531 -1.4015 0
M  V30 11986 H 1165.75 3.88663 -1.12798 0
M  V30 11987 H 1164.32 3.0982 -0.415966 0
M  V30 11988 H 1163.54 2.70237 -2.86994 0
M  V30 11989 H 1164.83 3.81355 -3.36817 0
M  V30 11990 H 1164.23 5.60819 -0.741542 0
M  V30 11991 H 1162.79 6.40013 -1.23394 0
M  V30 11992 N 1166.22 1.31629 0.866686 0
M  V30 11993 C 1167.64 1.10358 1.15296 0
M  V30 11994 C 1167.84 -0.123807 2.01119 0
M  V30 11995 O 1166.89 -0.81219 2.39081 0
M  V30 11996 C 1168.21 2.37684 1.84193 0
M  V30 11997 C 1169.75 2.43326 1.9688 0
M  V30 11998 C 1170.23 3.70541 2.69191 0
M  V30 11999 N 1171.72 3.71454 2.76724 0
M  V30 12000 C 1172.45 4.66585 3.33295 0
M  V30 12001 N 1171.95 5.72075 3.90771 0
M  V30 12002 N 1173.74 4.541 3.31284 0
M  V30 12003 H 1165.89 2.10343 0.29487 0
M  V30 12004 H 1168.16 0.928096 0.193239 0
M  V30 12005 H 1167.86 3.27352 1.28582 0
M  V30 12006 H 1167.74 2.47731 2.84445 0
M  V30 12007 H 1170.12 1.54124 2.51654 0
M  V30 12008 H 1170.21 2.3724 0.956596 0
M  V30 12009 H 1169.85 4.60111 2.15083 0
M  V30 12010 H 1169.78 3.73894 3.70825 0
M  V30 12011 H 1172.27 2.952 2.35936 0
M  V30 12012 H 1172.58 6.40738 4.32058 0
M  V30 12013 H 1170.93 5.75844 3.89138 0
M  V30 12014 H 1174.12 3.70861 2.85622 0
M  V30 12015 H 1174.29 5.28416 3.75074 0
M  V30 12016 N 1167.7 -1.08142 1.14644 0
M  V30 12017 C 1168.92 -1.84857 0.940349 0
M  V30 12018 C 1169.35 -1.81163 -0.506117 0
M  V30 12019 O 1168.71 -1.19869 -1.36019 0
M  V30 12020 C 1168.76 -3.30198 1.4492 0
M  V30 12021 O 1167.86 -4.07355 0.64308 0
M  V30 12022 H 1167.2 -0.572711 0.336003 0
M  V30 12023 H 1169.73 -1.36475 1.52432 0
M  V30 12024 H 1169.74 -3.81039 1.45854 0
M  V30 12025 H 1168.42 -3.32202 2.50229 0
M  V30 12026 H 1166.99 -3.66219 0.702698 0
M  V30 12027 N 1169.18 -0.941978 -1.26351 0
M  V30 12028 C 1170.14 -0.456768 -2.24602 0
M  V30 12029 C 1171.14 0.432574 -1.54872 0
M  V30 12030 O 1172.33 0.23164 -1.72653 0
M  V30 12031 C 1169.46 0.341583 -3.39184 0
M  V30 12032 H 1170.66 -1.32503 -2.69041 0
M  V30 12033 H 1168.21 -0.724021 -1.38519 0
M  V30 12034 H 1168.94 1.22806 -3.00149 0
M  V30 12035 H 1168.73 -0.296268 -3.90979 0
M  V30 12036 H 1170.22 0.670955 -4.12175 0
M  V30 12037 N 1170.66 1.40747 -0.709091 0
M  V30 12038 C 1172.07 1.83955 -0.318968 0
M  V30 12039 C 1172.42 1.59304 1.14527 0
M  V30 12040 O 1171.54 1.07052 1.88066 0
M  V30 12041 C 1172.14 3.33934 -0.572147 0
M  V30 12042 C 1170.7 3.75661 -0.235802 0
M  V30 12043 C 1169.84 2.64024 -0.847743 0
M  V30 12044 H 1172.79 1.30107 -0.908734 0
M  V30 12045 H 1172.82 3.80143 0.164752 0
M  V30 12046 H 1172.33 3.51844 -1.63791 0
M  V30 12047 H 1170.43 3.63348 0.825164 0
M  V30 12048 H 1170.54 4.73955 -0.700263 0
M  V30 12049 H 1168.91 2.53197 -0.276283 0
M  V30 12050 H 1169.69 2.84748 -1.91765 0
M  V30 12051 N 1172.13 0.454803 1.50895 0
M  V30 12052 C 1173.1 -0.336293 2.26719 0
M  V30 12053 C 1174.1 -0.93464 1.30848 0
M  V30 12054 O 1175.29 -0.80636 1.54413 0
M  V30 12055 C 1172.42 -1.47744 3.07221 0
M  V30 12056 H 1173.61 0.328462 2.98096 0
M  V30 12057 H 1171.16 0.208419 1.54904 0
M  V30 12058 H 1171.9 -2.17773 2.40302 0
M  V30 12059 H 1171.68 -1.05438 3.77658 0
M  V30 12060 H 1173.17 -2.03592 3.6461 0
M  V30 12061 N 1173.61 -1.56489 0.186789 0
M  V30 12062 C 1174.54 -2.21705 -0.732739 0
M  V30 12063 C 1175.52 -1.17751 -1.22755 0
M  V30 12064 O 1176.71 -1.46231 -1.27789 0
M  V30 12065 C 1173.84 -2.86992 -1.95584 0
M  V30 12066 C 1172.79 -3.97118 -1.59628 0
M  V30 12067 C 1172.12 -4.49529 -2.89531 0
M  V30 12068 C 1173.42 -5.15941 -0.812518 0
M  V30 12069 H 1175.11 -2.98802 -0.189094 0
M  V30 12070 H 1172.66 -1.43722 -0.0895099 0
M  V30 12071 H 1174.61 -3.31295 -2.60426 0
M  V30 12072 H 1173.33 -2.07287 -2.52388 0
M  V30 12073 H 1171.99 -3.53494 -0.971475 0
M  V30 12074 H 1171.64 -3.66596 -3.44407 0
M  V30 12075 H 1171.34 -5.23832 -2.66221 0
M  V30 12076 H 1172.87 -4.96528 -3.55376 0
M  V30 12077 H 1174.28 -5.56841 -1.36386 0
M  V30 12078 H 1172.68 -5.96259 -0.677862 0
M  V30 12079 H 1173.75 -4.84535 0.188095 0
M  V30 12080 N 1175.09 0.086862 -1.5736 0
M  V30 12081 C 1176.5 0.640442 -1.75372 0
M  V30 12082 C 1176.85 1.78693 -0.81014 0
M  V30 12083 O 1175.98 2.16398 0.00940712 0
M  V30 12084 C 1176.57 1.16856 -3.1801 0
M  V30 12085 C 1175.13 1.66813 -3.37417 0
M  V30 12086 C 1174.28 0.58116 -2.71142 0
M  V30 12087 H 1177.23 -0.139249 -1.58088 0
M  V30 12088 H 1177.25 2.03772 -3.21337 0
M  V30 12089 H 1176.76 0.333909 -3.86661 0
M  V30 12090 H 1174.86 2.52652 -2.73858 0
M  V30 12091 H 1174.98 1.75545 -4.45781 0
M  V30 12092 H 1173.34 1.0226 -2.3327 0
M  V30 12093 H 1174.12 -0.243047 -3.42439 0
M  V30 12094 N 1176.57 1.53483 0.357892 0
M  V30 12095 C 1177.81 1.70289 1.10134 0
M  V30 12096 C 1178.15 0.457296 1.88739 0
M  V30 12097 O 1177.42 -0.545527 1.86693 0
M  V30 12098 C 1177.7 2.95755 2.05429 0
M  V30 12099 C 1177.56 4.30489 1.30382 0
M  V30 12100 C 1178.88 3.16844 3.05447 0
M  V30 12101 H 1176 0.61965 0.399003 0
M  V30 12102 H 1178.64 1.86133 0.381357 0
M  V30 12103 H 1176.79 2.82377 2.66825 0
M  V30 12104 H 1178.46 4.55692 0.71711 0
M  V30 12105 H 1176.7 4.2955 0.605712 0
M  V30 12106 H 1177.37 5.14427 2.00171 0
M  V30 12107 H 1179.85 3.29458 2.54159 0
M  V30 12108 H 1178.73 4.06053 3.69341 0
M  V30 12109 H 1178.99 2.32476 3.76041 0
M  V30 12110 N 1178.05 -0.61812 1.44973 0
M  V30 12111 C 1179.27 -1.40921 1.52171 0
M  V30 12112 C 1179.7 -1.87487 0.151755 0
M  V30 12113 O 1179.05 -1.59518 -0.861606 0
M  V30 12114 C 1179.1 -2.59689 2.50188 0
M  V30 12115 O 1178.21 -3.59967 2.0124 0
M  V30 12116 H 1177.55 -0.421138 0.51336 0
M  V30 12117 H 1180.08 -0.753258 1.90229 0
M  V30 12118 H 1180.09 -3.07069 2.6865 0
M  V30 12119 H 1178.76 -2.25144 3.4969 0
M  V30 12120 H 1177.34 -3.19308 1.92605 0
M  V30 12121 N 1179.52 -1.32087 -0.859693 0
M  V30 12122 C 1180.43 -1.22587 -2.00024 0
M  V30 12123 C 1181.45 -0.140477 -1.73432 0
M  V30 12124 O 1182.63 -0.360213 -1.98153 0
M  V30 12125 C 1179.69 -0.944195 -3.33595 0
M  V30 12126 C 1178.75 -2.11752 -3.73443 0
M  V30 12127 C 1177.98 -1.84919 -5.0064 0
M  V30 12128 O 1178.21 -0.789299 -5.64913 0
M  V30 12129 O 1177.14 -2.70885 -5.37499 0
M  V30 12130 H 1180.97 -2.18457 -2.10974 0
M  V30 12131 H 1178.55 -1.11927 -0.989577 0
M  V30 12132 H 1180.43 -0.803389 -4.13671 0
M  V30 12133 H 1179.11 -0.0156083 -3.23696 0
M  V30 12134 H 1178.02 -2.31378 -2.93965 0
M  V30 12135 H 1179.35 -3.02872 -3.87981 0
M  V30 12136 N 1181 1.07532 -1.15215 0
M  V30 12137 C 1182.28 1.76813 -0.83646 0
M  V30 12138 C 1182.66 2.00242 0.6683 0
M  V30 12139 O 1182.01 1.61941 1.61206 0
M  V30 12140 C 1182.22 3.0779 -1.64519 0
M  V30 12141 C 1183.56 3.82168 -1.85022 0
M  V30 12142 O 1184.59 3.17596 -1.61279 0
M  V30 12143 O 1183.45 4.98135 -2.24775 0
M  V30 12144 H 1180.54 0.767736 -0.307426 0
M  V30 12145 H 1183.09 1.13914 -1.25784 0
M  V30 12146 H 1181.86 2.86342 -2.6669 0
M  V30 12147 H 1181.48 3.78419 -1.22002 0
M  V30 12148 N 1182.48 0.948665 1.2585 0
M  V30 12149 C 1183.73 0.600236 1.934 0
M  V30 12150 C 1184.06 -0.86185 1.74363 0
M  V30 12151 O 1183.31 -1.63294 1.07858 0
M  V30 12152 C 1183.61 0.89784 3.45939 0
M  V30 12153 C 1183.28 2.345 3.85124 0
M  V30 12154 C 1181.94 2.74058 3.95532 0
M  V30 12155 C 1184.29 3.2851 4.04636 0
M  V30 12156 C 1181.62 4.06707 4.22855 0
M  V30 12157 C 1183.97 4.60764 4.3345 0
M  V30 12158 C 1182.63 5.00127 4.42074 0
M  V30 12159 H 1181.9 0.219642 0.707699 0
M  V30 12160 H 1184.55 1.19658 1.49513 0
M  V30 12161 H 1182.86 0.219037 3.91187 0
M  V30 12162 H 1184.55 0.606916 3.96381 0
M  V30 12163 H 1181.14 2.02819 3.77574 0
M  V30 12164 H 1185.33 2.99141 3.96015 0
M  V30 12165 H 1180.58 4.36856 4.27746 0
M  V30 12166 H 1184.76 5.33594 4.47493 0
M  V30 12167 H 1182.38 6.02939 4.63 0
M  V30 12168 N 1183.96 -1.40369 0.716545 0
M  V30 12169 C 1184.91 -2.3071 0.0645944 0
M  V30 12170 C 1185.88 -1.48239 -0.749294 0
M  V30 12171 O 1187.06 -1.76975 -0.713045 0
M  V30 12172 C 1184.2 -3.34456 -0.850478 0
M  V30 12173 C 1183.31 -4.31992 -0.0259594 0
M  V30 12174 C 1182.45 -5.22806 -0.940599 0
M  V30 12175 C 1181.49 -6.12001 -0.110228 0
M  V30 12176 N 1180.62 -6.9523 -0.979796 0
M  V30 12177 H 1185.46 -2.85896 0.840682 0
M  V30 12178 H 1183 -1.40789 0.426258 0
M  V30 12179 H 1184.96 -3.93177 -1.39528 0
M  V30 12180 H 1183.59 -2.8077 -1.59274 0
M  V30 12181 H 1182.64 -3.75045 0.636036 0
M  V30 12182 H 1183.95 -4.94971 0.616883 0
M  V30 12183 H 1183.11 -5.86463 -1.5539 0
M  V30 12184 H 1181.85 -4.60104 -1.61726 0
M  V30 12185 H 1180.85 -5.47373 0.516001 0
M  V30 12186 H 1182.08 -6.76763 0.562944 0
M  V30 12187 H 1180.02 -6.35115 -1.64209 0
M  V30 12188 H 1179.94 -7.54978 -0.393012 0
M  V30 12189 H 1181.21 -7.63335 -1.57924 0
M  V30 12190 N 1185.44 -0.462799 -1.50652 0
M  V30 12191 C 1186.66 0.0952726 -2.07181 0
M  V30 12192 C 1187.09 1.33479 -1.32533 0
M  V30 12193 O 1186.44 1.77473 -0.370564 0
M  V30 12194 C 1186.49 0.370592 -3.58691 0
M  V30 12195 O 1185.6 1.4526 -3.85971 0
M  V30 12196 H 1184.94 -0.00932702 -0.663934 0
M  V30 12197 H 1187.47 -0.651458 -1.93951 0
M  V30 12198 H 1187.48 0.613551 -4.0336 0
M  V30 12199 H 1186.15 -0.535219 -4.12442 0
M  V30 12200 H 1184.73 1.1976 -3.53146 0
M  V30 12201 N 1186.91 1.56388 -0.195085 0
M  V30 12202 C 1187.82 2.22698 0.737743 0
M  V30 12203 C 1188.84 1.22605 1.23466 0
M  V30 12204 O 1190.02 1.55342 1.28183 0
M  V30 12205 C 1187.08 2.87333 1.94011 0
M  V30 12206 C 1186.14 4.02696 1.48776 0
M  V30 12207 C 1185.38 4.64239 2.63282 0
M  V30 12208 O 1185.6 4.24706 3.80763 0
M  V30 12209 O 1184.53 5.53705 2.35996 0
M  V30 12210 H 1188.36 3.03021 0.203013 0
M  V30 12211 H 1185.94 1.49361 0.0342044 0
M  V30 12212 H 1187.83 3.28226 2.64284 0
M  V30 12213 H 1186.5 2.0999 2.46345 0
M  V30 12214 H 1185.41 3.66426 0.753839 0
M  V30 12215 H 1186.74 4.81703 1.01109 0
M  V30 12216 N 1188.39 -0.0785156 1.57404 0
M  V30 12217 C 1189.8 -0.631132 1.75709 0
M  V30 12218 C 1190.15 -1.78261 0.819605 0
M  V30 12219 O 1189.28 -2.164 0.00206912 0
M  V30 12220 C 1189.87 -1.15168 3.18625 0
M  V30 12221 C 1188.43 -1.65021 3.38297 0
M  V30 12222 C 1187.58 -0.566773 2.71446 0
M  V30 12223 H 1190.53 0.147631 1.58012 0
M  V30 12224 H 1190.55 -2.02065 3.22413 0
M  V30 12225 H 1190.06 -0.313399 3.86833 0
M  V30 12226 H 1188.17 -2.51196 2.75194 0
M  V30 12227 H 1188.28 -1.73179 4.46706 0
M  V30 12228 H 1186.64 -1.01021 2.33809 0
M  V30 12229 H 1187.43 0.261204 3.42305 0
M  V30 12230 N 1189.87 -1.5367 -0.349747 0
M  V30 12231 C 1191.12 -1.7087 -1.0923 0
M  V30 12232 C 1191.45 -0.467299 -1.88494 0
M  V30 12233 O 1190.72 0.535619 -1.8698 0
M  V30 12234 C 1191.01 -2.9684 -2.03858 0
M  V30 12235 C 1190.86 -4.31174 -1.28097 0
M  V30 12236 C 1192.18 -3.18459 -3.03763 0
M  V30 12237 H 1189.3 -0.621757 -0.395711 0
M  V30 12238 H 1191.94 -1.86333 -0.371481 0
M  V30 12239 H 1190.09 -2.83788 -2.65323 0
M  V30 12240 H 1191.76 -4.56066 -0.692933 0
M  V30 12241 H 1190.01 -4.29866 -0.582924 0
M  V30 12242 H 1190.68 -5.15482 -1.9744 0
M  V30 12243 H 1193.15 -3.30801 -2.52409 0
M  V30 12244 H 1192.03 -4.08006 -3.67182 0
M  V30 12245 H 1192.29 -2.34467 -3.74803 0
M  V30 12246 N 1191.35 0.610423 -1.45298 0
M  V30 12247 C 1192.57 1.40112 -1.52917 0
M  V30 12248 C 1193 1.87404 -0.161696 0
M  V30 12249 O 1192.36 1.59973 0.853135 0
M  V30 12250 C 1192.4 2.58359 -2.51561 0
M  V30 12251 O 1191.51 3.58895 -2.03146 0
M  V30 12252 H 1190.85 0.41841 -0.515586 0
M  V30 12253 H 1193.38 0.743159 -1.90626 0
M  V30 12254 H 1193.39 3.0564 -2.70275 0
M  V30 12255 H 1192.06 2.23286 -3.50879 0
M  V30 12256 H 1190.64 3.18282 -1.94296 0
M  V30 12257 N 1192.83 1.32541 0.852676 0
M  V30 12258 C 1194.24 1.20863 1.42299 0
M  V30 12259 C 1194.59 -0.178051 1.9539 0
M  V30 12260 O 1193.71 -1.07689 1.87702 0
M  V30 12261 C 1194.31 2.18811 2.58664 0
M  V30 12262 C 1192.87 2.11015 3.11689 0
M  V30 12263 C 1192.01 2.07067 1.84441 0
M  V30 12264 H 1194.97 1.44341 0.659657 0
M  V30 12265 H 1194.99 1.78779 3.35884 0
M  V30 12266 H 1194.5 3.19726 2.19993 0
M  V30 12267 H 1192.6 1.13354 3.54939 0
M  V30 12268 H 1192.71 3.00929 3.72799 0
M  V30 12269 H 1191.08 1.52335 2.04123 0
M  V30 12270 H 1191.86 3.09767 1.47984 0
M  V30 12271 N 1194.3 -1.0692 1.15784 0
M  V30 12272 C 1195.24 -2.14168 0.816375 0
M  V30 12273 C 1196.25 -1.61872 -0.17357 0
M  V30 12274 O 1197.44 -1.78429 0.0502973 0
M  V30 12275 C 1194.54 -3.38346 0.193682 0
M  V30 12276 C 1193.71 -4.19979 1.22215 0
M  V30 12277 C 1192.77 -5.2253 0.620424 0
M  V30 12278 O 1191.8 -5.54446 1.28757 0
M  V30 12279 N 1193 -5.77434 -0.595811 0
M  V30 12280 H 1195.76 -2.44062 1.73937 0
M  V30 12281 H 1193.32 -1.22865 1.05431 0
M  V30 12282 H 1195.32 -4.04092 -0.22174 0
M  V30 12283 H 1193.89 -3.06129 -0.632735 0
M  V30 12284 H 1193.11 -3.49984 1.81397 0
M  V30 12285 H 1194.39 -4.71329 1.91641 0
M  V30 12286 H 1193.79 -5.5376 -1.15611 0
M  V30 12287 H 1192.35 -6.44788 -0.953529 0
M  V30 12288 N 1195.78 -0.955326 -1.25345 0
M  V30 12289 C 1197.06 -0.527828 -1.88344 0
M  V30 12290 C 1197.44 0.994911 -1.86185 0
M  V30 12291 O 1196.79 1.86099 -1.32587 0
M  V30 12292 C 1197 -1.10525 -3.31037 0
M  V30 12293 C 1198.35 -1.18253 -4.07801 0
M  V30 12294 O 1199.37 -1.05685 -3.4016 0
M  V30 12295 O 1198.23 -1.37978 -5.28795 0
M  V30 12296 H 1195.32 -0.174206 -0.808444 0
M  V30 12297 H 1197.87 -1.0488 -1.3341 0
M  V30 12298 H 1196.64 -2.14847 -3.27042 0
M  V30 12299 H 1196.26 -0.567568 -3.93528 0
M  V30 12300 N 1197.26 1.39987 -0.723979 0
M  V30 12301 C 1198.51 2.00731 -0.267115 0
M  V30 12302 C 1198.84 1.57424 1.14228 0
M  V30 12303 O 1198.09 0.789205 1.79081 0
M  V30 12304 C 1198.39 3.56101 -0.304472 0
M  V30 12305 C 1198.06 4.1902 -1.66533 0
M  V30 12306 C 1196.72 4.3592 -2.03783 0
M  V30 12307 C 1199.07 4.54034 -2.55935 0
M  V30 12308 C 1196.4 4.85119 -3.29964 0
M  V30 12309 C 1198.75 5.04637 -3.81477 0
M  V30 12310 C 1197.41 5.19745 -4.18833 0
M  V30 12311 H 1196.68 0.734525 -0.0977442 0
M  V30 12312 H 1199.33 1.67476 -0.928659 0
M  V30 12313 H 1197.64 3.89314 0.440647 0
M  V30 12314 H 1199.33 4.00944 0.0669875 0
M  V30 12315 H 1195.92 4.0626 -1.36569 0
M  V30 12316 H 1200.11 4.40606 -2.2843 0
M  V30 12317 H 1195.36 4.95001 -3.58865 0
M  V30 12318 H 1199.54 5.30705 -4.50916 0
M  V30 12319 H 1197.16 5.5763 -5.16675 0
M  V30 12320 N 1198.74 0.470782 1.50404 0
M  V30 12321 C 1199.96 -0.084284 2.07229 0
M  V30 12322 C 1200.39 -1.32774 1.33239 0
M  V30 12323 O 1199.75 -1.77274 0.379971 0
M  V30 12324 C 1199.8 -0.351565 3.58882 0
M  V30 12325 O 1198.9 -1.43211 3.86736 0
M  V30 12326 H 1198.24 0.0128479 0.663876 0
M  V30 12327 H 1200.77 0.661735 1.93603 0
M  V30 12328 H 1200.78 -0.592151 4.0368 0
M  V30 12329 H 1199.46 0.557084 4.12152 0
M  V30 12330 H 1198.03 -1.17886 3.53776 0
M  V30 12331 N 1200.22 -1.56282 0.203376 0
M  V30 12332 C 1201.46 -1.97812 -0.433202 0
M  V30 12333 C 1201.79 -1.09052 -1.61053 0
M  V30 12334 O 1201.05 -0.131417 -1.95258 0
M  V30 12335 C 1201.35 -3.45148 -0.927759 0
M  V30 12336 C 1201.01 -4.50692 0.137083 0
M  V30 12337 C 1199.67 -4.79278 0.429652 0
M  V30 12338 C 1202.03 -5.14086 0.858174 0
M  V30 12339 C 1199.35 -5.68547 1.44815 0
M  V30 12340 C 1201.71 -6.04457 1.86588 0
M  V30 12341 C 1200.37 -6.31395 2.16556 0
M  V30 12342 H 1199.64 -0.723846 -0.15852 0
M  V30 12343 H 1202.29 -1.89102 0.302082 0
M  V30 12344 H 1200.59 -3.5097 -1.74147 0
M  V30 12345 H 1202.29 -3.74642 -1.42984 0
M  V30 12346 H 1198.88 -4.28481 -0.101111 0
M  V30 12347 H 1203.06 -4.92086 0.645376 0
M  V30 12348 H 1198.32 -5.87689 1.68615 0
M  V30 12349 H 1202.49 -6.52636 2.4298 0
M  V30 12350 H 1200.12 -7.00366 2.9562 0
M  V30 12351 N 1201.7 0.070167 -1.57444 0
M  V30 12352 C 1202.92 0.785703 -1.91941 0
M  V30 12353 C 1203.35 1.70243 -0.799932 0
M  V30 12354 O 1202.7 1.79608 0.247139 0
M  V30 12355 C 1202.75 1.55398 -3.25398 0
M  V30 12356 O 1201.86 2.66475 -3.14746 0
M  V30 12357 H 1201.2 0.214245 -0.628486 0
M  V30 12358 H 1203.73 0.0379243 -2.04565 0
M  V30 12359 H 1203.74 1.93287 -3.5931 0
M  V30 12360 H 1202.41 0.881366 -4.06454 0
M  V30 12361 H 1200.99 2.3143 -2.92394 0
M  V30 12362 N 1203.17 1.53854 0.341593 0
M  V30 12363 C 1204.12 1.81979 1.41959 0
M  V30 12364 C 1205.09 0.665616 1.5218 0
M  V30 12365 O 1206.28 0.910246 1.67688 0
M  V30 12366 C 1203.42 2.03681 2.78583 0
M  V30 12367 C 1202.53 3.31389 2.77137 0
M  V30 12368 C 1201.66 3.43148 4.05491 0
M  V30 12369 C 1200.7 4.64799 3.98282 0
M  V30 12370 N 1199.84 4.73581 5.18329 0
M  V30 12371 H 1204.68 2.73953 1.17275 0
M  V30 12372 H 1202.22 1.35689 0.568062 0
M  V30 12373 H 1204.17 2.14253 3.57983 0
M  V30 12374 H 1202.8 1.15017 3.01614 0
M  V30 12375 H 1201.86 3.29649 1.89832 0
M  V30 12376 H 1203.17 4.20885 2.67689 0
M  V30 12377 H 1202.32 3.53163 4.93316 0
M  V30 12378 H 1201.06 2.51712 4.17723 0
M  V30 12379 H 1200.07 4.54859 3.08842 0
M  V30 12380 H 1201.29 5.57601 3.87631 0
M  V30 12381 H 1199.24 3.85055 5.31102 0
M  V30 12382 H 1199.15 5.57016 5.11145 0
M  V30 12383 H 1200.42 4.87908 6.0792 0
M  V30 12384 N 1204.65 -0.602709 1.4562 0
M  V30 12385 C 1205.6 -1.73425 1.55005 0
M  V30 12386 C 1206.59 -1.64118 0.419713 0
M  V30 12387 O 1207.8 -1.69853 0.595815 0
M  V30 12388 H 1204.17 -0.573038 0.486962 0
M  V30 12389 H 1206.15 -1.62637 2.50184 0
M  V30 12390 C 1204.89 -3.11808 1.53853 0
M  V30 12391 H 1204.22 -3.19631 2.40158 0
M  V30 12392 H 1205.66 -3.90798 1.64477 0
M  V30 12393 C 1204.12 -3.35866 0.263765 0
M  V30 12394 O 1204.65 -3.96334 -0.654364 0
M  V30 12395 N 1202.85 -2.90171 0.157927 0
M  V30 12396 H 1202.4 -2.41144 0.905944 0
M  V30 12397 H 1202.36 -3.06641 -0.694175 0
M  V30 12398 N 1206.13 -1.32992 -0.845635 0
M  V30 12399 C 1207.38 -1.2382 -1.59728 0
M  V30 12400 C 1207.7 0.197724 -1.93995 0
M  V30 12401 O 1206.97 1.12477 -1.60392 0
M  V30 12402 H 1205.55 -0.455296 -0.592212 0
M  V30 12403 H 1208.21 -1.66627 -1.01101 0
M  V30 12404 H 1207.31 -1.82717 -2.53023 0
M  V30 12405 N 1207.61 1.06304 -1.1635 0
M  V30 12406 C 1208.54 2.15745 -0.893103 0
M  V30 12407 C 1209.52 1.69341 0.160531 0
M  V30 12408 O 1210.7 1.94196 0.0126526 0
M  V30 12409 C 1207.83 3.45066 -0.393287 0
M  V30 12410 C 1206.79 4.04978 -1.38482 0
M  V30 12411 C 1206.11 5.29507 -0.743409 0
M  V30 12412 C 1207.41 4.4377 -2.75438 0
M  V30 12413 H 1209.11 2.38622 -1.80831 0
M  V30 12414 H 1206.65 1.14681 -0.870878 0
M  V30 12415 H 1208.61 4.20964 -0.191607 0
M  V30 12416 H 1207.33 3.21808 0.557426 0
M  V30 12417 H 1205.99 3.31136 -1.57304 0
M  V30 12418 H 1205.64 5.02545 0.213787 0
M  V30 12419 H 1205.34 5.7055 -1.40521 0
M  V30 12420 H 1206.86 6.08102 -0.551746 0
M  V30 12421 H 1208.28 5.1075 -2.60398 0
M  V30 12422 H 1206.67 4.95797 -3.38091 0
M  V30 12423 H 1207.74 3.54636 -3.30699 0
M  V30 12424 N 1209.09 0.96196 1.24836 0
M  V30 12425 C 1210.02 0.506241 2.27946 0
M  V30 12426 C 1211 -0.451183 1.64007 0
M  V30 12427 O 1212.18 -0.348552 1.91046 0
M  V30 12428 C 1209.31 -0.209846 3.46665 0
M  V30 12429 C 1208.27 0.663035 4.22833 0
M  V30 12430 C 1207.59 -0.184216 5.34383 0
M  V30 12431 C 1208.89 1.94479 4.84742 0
M  V30 12432 H 1210.59 1.36805 2.66317 0
M  V30 12433 H 1208.13 0.65926 1.28023 0
M  V30 12434 H 1210.08 -0.539838 4.17928 0
M  V30 12435 H 1208.81 -1.10596 3.07305 0
M  V30 12436 H 1207.47 0.976216 3.53363 0
M  V30 12437 H 1207.12 -1.08031 4.91262 0
M  V30 12438 H 1206.82 0.39657 5.8626 0
M  V30 12439 H 1208.34 -0.509009 6.08475 0
M  V30 12440 H 1209.75 1.68074 5.48109 0
M  V30 12441 H 1208.15 2.47183 5.46828 0
M  V30 12442 H 1209.22 2.64332 4.06517 0
M  V30 12443 N 1210.56 -1.39601 0.731392 0
M  V30 12444 C 1211.79 -2.05411 0.286532 0
M  V30 12445 C 1212.21 -1.54777 -1.06892 0
M  V30 12446 O 1211.57 -0.689942 -1.67659 0
M  V30 12447 C 1211.62 -3.594 0.293914 0
M  V30 12448 O 1210.72 -4.06072 -0.719657 0
M  V30 12449 H 1210.06 -0.650949 0.131004 0
M  V30 12450 H 1212.59 -1.78703 0.996305 0
M  V30 12451 H 1212.6 -4.0777 0.137052 0
M  V30 12452 H 1211.28 -3.95617 1.28298 0
M  V30 12453 H 1209.86 -3.69125 -0.529226 0
M  V30 12454 N 1212.04 -0.478751 -1.50152 0
M  V30 12455 C 1213.46 -0.133356 -1.59042 0
M  V30 12456 C 1213.66 1.36069 -1.48618 0
M  V30 12457 O 1212.71 2.13468 -1.34862 0
M  V30 12458 C 1214.03 -0.690369 -2.92668 0
M  V30 12459 C 1215.58 -0.654481 -3.06081 0
M  V30 12460 C 1216.05 -1.18917 -4.42293 0
M  V30 12461 N 1217.54 -1.14891 -4.48725 0
M  V30 12462 C 1218.28 -1.53305 -5.52526 0
M  V30 12463 N 1217.77 -1.99205 -6.63543 0
M  V30 12464 N 1219.57 -1.4486 -5.43113 0
M  V30 12465 H 1211.72 -1.45037 -1.55171 0
M  V30 12466 H 1213.98 -0.600254 -0.733757 0
M  V30 12467 H 1213.69 -1.7373 -3.05795 0
M  V30 12468 H 1213.56 -0.138227 -3.76947 0
M  V30 12469 H 1215.95 0.383564 -2.92597 0
M  V30 12470 H 1216.03 -1.24352 -2.2354 0
M  V30 12471 H 1215.67 -2.22588 -4.56527 0
M  V30 12472 H 1215.6 -0.57628 -5.23437 0
M  V30 12473 H 1218.09 -0.812344 -3.69066 0
M  V30 12474 H 1218.41 -2.26645 -7.38818 0
M  V30 12475 H 1216.75 -2.03164 -6.64642 0
M  V30 12476 H 1219.94 -1.08836 -4.55272 0
M  V30 12477 H 1220.11 -1.75123 -6.23888 0
M  V30 12478 N 1213.52 1.56172 -0.211661 0
M  V30 12479 C 1214.45 2.22843 0.697375 0
M  V30 12480 C 1215.43 1.19689 1.20866 0
M  V30 12481 O 1216.62 1.48245 1.25447 0
M  V30 12482 C 1213.75 2.90067 1.90993 0
M  V30 12483 C 1212.7 3.99608 1.5329 0
M  V30 12484 C 1212.03 4.54078 2.82343 0
M  V30 12485 C 1213.33 5.17169 0.730333 0
M  V30 12486 H 1215.02 2.99065 0.141533 0
M  V30 12487 H 1212.57 1.43846 0.0666337 0
M  V30 12488 H 1214.52 3.35396 2.55123 0
M  V30 12489 H 1213.24 2.11276 2.49058 0
M  V30 12490 H 1211.9 3.54995 0.915115 0
M  V30 12491 H 1211.55 3.72029 3.38531 0
M  V30 12492 H 1211.25 5.28001 2.57853 0
M  V30 12493 H 1212.77 5.02119 3.47432 0
M  V30 12494 H 1214.19 5.5894 1.2751 0
M  V30 12495 H 1212.59 5.97262 0.582916 0
M  V30 12496 H 1213.66 4.84174 -0.265157 0
M  V30 12497 N 1215 -0.0618163 1.57479 0
M  V30 12498 C 1215.93 -1.07252 2.07411 0
M  V30 12499 C 1216.91 -1.39756 0.969649 0
M  V30 12500 O 1218.09 -1.4921 1.24298 0
M  V30 12501 C 1215.22 -2.38313 2.52635 0
M  V30 12502 C 1214.18 -2.20136 3.67048 0
M  V30 12503 C 1213.5 -3.56668 3.98361 0
M  V30 12504 C 1214.8 -1.61437 4.96725 0
M  V30 12505 H 1216.5 -0.656983 2.92103 0
M  V30 12506 H 1214.04 -0.314579 1.40522 0
M  V30 12507 H 1216 -3.09319 2.86181 0
M  V30 12508 H 1214.72 -2.81865 1.64984 0
M  V30 12509 H 1213.38 -1.51569 3.338 0
M  V30 12510 H 1213.03 -3.97809 3.07826 0
M  V30 12511 H 1212.73 -3.45342 4.75408 0
M  V30 12512 H 1214.25 -4.2909 4.34413 0
M  V30 12513 H 1215.67 -2.2232 5.28438 0
M  V30 12514 H 1214.06 -1.60779 5.78161 0
M  V30 12515 H 1215.13 -0.576795 4.81457 0
M  V30 12516 N 1216.48 -1.54033 -0.333429 0
M  V30 12517 C 1217.89 -1.44522 -0.677166 0
M  V30 12518 C 1218.09 -0.610122 -1.92041 0
M  V30 12519 O 1217.15 -0.105058 -2.52281 0
M  V30 12520 C 1218.46 -2.88129 -0.860369 0
M  V30 12521 C 1220.01 -2.97968 -0.958342 0
M  V30 12522 C 1220.48 -4.42703 -1.17379 0
M  V30 12523 N 1221.98 -4.46273 -1.24075 0
M  V30 12524 C 1222.71 -5.55407 -1.42515 0
M  V30 12525 N 1222.21 -6.74528 -1.58062 0
M  V30 12526 N 1224 -5.43037 -1.45144 0
M  V30 12527 H 1216.15 -2.06815 0.483858 0
M  V30 12528 H 1218.41 -0.935307 0.15461 0
M  V30 12529 H 1218.12 -3.51695 -0.0182085 0
M  V30 12530 H 1217.99 -3.33668 -1.75913 0
M  V30 12531 H 1220.38 -2.34535 -1.79102 0
M  V30 12532 H 1220.46 -2.55774 -0.0362643 0
M  V30 12533 H 1220.11 -5.0672 -0.346004 0
M  V30 12534 H 1220.04 -4.82498 -2.10959 0
M  V30 12535 H 1222.53 -3.60439 -1.13545 0
M  V30 12536 H 1222.84 -7.53462 -1.71797 0
M  V30 12537 H 1221.18 -6.77454 -1.55179 0
M  V30 12538 H 1224.38 -4.4893 -1.32588 0
M  V30 12539 H 1224.55 -6.28146 -1.59173 0
M  V30 12540 N 1217.95 0.594978 -1.45938 0
M  V30 12541 C 1218.89 1.71909 -1.51591 0
M  V30 12542 C 1219.9 1.57671 -0.405416 0
M  V30 12543 O 1221.09 1.65321 -0.673144 0
M  V30 12544 C 1218.19 3.10041 -1.3685 0
M  V30 12545 C 1217.36 3.50399 -2.61801 0
M  V30 12546 C 1216.42 4.67542 -2.41435 0
M  V30 12547 O 1215.45 4.74022 -3.15106 0
M  V30 12548 N 1216.65 5.6163 -1.46808 0
M  V30 12549 H 1219.41 1.67518 -2.48511 0
M  V30 12550 H 1216.97 0.78062 -1.41838 0
M  V30 12551 H 1218.97 3.86183 -1.21017 0
M  V30 12552 H 1217.54 3.08868 -0.481589 0
M  V30 12553 H 1216.76 2.64088 -2.92662 0
M  V30 12554 H 1218.04 3.74125 -3.44831 0
M  V30 12555 H 1217.44 5.5912 -0.860333 0
M  V30 12556 H 1216 6.37252 -1.36942 0
M  V30 12557 N 1219.43 1.33438 0.838571 0
M  V30 12558 C 1220.38 1.23698 1.96981 0
M  V30 12559 C 1221.37 0.138299 1.68835 0
M  V30 12560 O 1222.58 0.302278 1.77444 0
M  V30 12561 H 1218.96 0.383874 0.646641 0
M  V30 12562 H 1220.93 2.19337 2.02321 0
M  V30 12563 C 1219.68 0.993362 3.33208 0
M  V30 12564 H 1219 1.83104 3.55405 0
M  V30 12565 H 1220.44 0.965517 4.1286 0
M  V30 12566 C 1218.9 -0.303701 3.35528 0
M  V30 12567 O 1219.43 -1.3103 3.79729 0
M  V30 12568 N 1217.63 -0.331342 2.88705 0
M  V30 12569 H 1217.18 0.488351 2.52929 0
M  V30 12570 H 1217.14 -1.199 2.9064 0
M  V30 12571 N 1220.91 -1.05686 1.16912 0
M  V30 12572 C 1221.84 -2.1329 0.839044 0
M  V30 12573 C 1222.86 -1.62047 -0.156392 0
M  V30 12574 O 1224.04 -1.78366 0.0692192 0
M  V30 12575 C 1221.14 -3.38122 0.229558 0
M  V30 12576 C 1220.32 -4.18659 1.26662 0
M  V30 12577 C 1219.38 -5.21842 0.675811 0
M  V30 12578 O 1218.4 -5.53049 1.3463 0
M  V30 12579 N 1219.6 -5.78034 -0.534532 0
M  V30 12580 H 1222.37 -2.42203 1.76515 0
M  V30 12581 H 1219.93 -1.2174 1.06729 0
M  V30 12582 H 1221.92 -4.04305 -0.178868 0
M  V30 12583 H 1220.49 -3.06783 -0.60023 0
M  V30 12584 H 1219.71 -3.4804 1.85099 0
M  V30 12585 H 1221 -4.6927 1.9663 0
M  V30 12586 H 1220.4 -5.54955 -1.09731 0
M  V30 12587 H 1218.96 -6.45763 -0.885087 0
M  V30 12588 N 1222.39 -0.968567 -1.24324 0
M  V30 12589 C 1223.67 -0.547774 -1.87773 0
M  V30 12590 C 1224.05 0.975107 -1.87229 0
M  V30 12591 O 1223.39 1.84683 -1.34553 0
M  V30 12592 C 1223.6 -1.1403 -3.29846 0
M  V30 12593 C 1224.95 -1.22572 -4.06523 0
M  V30 12594 O 1225.98 -1.09287 -3.3902 0
M  V30 12595 O 1224.83 -1.43579 -5.27302 0
M  V30 12596 H 1221.93 -0.182771 -0.806551 0
M  V30 12597 H 1224.47 -1.06289 -1.3229 0
M  V30 12598 H 1223.25 -2.18303 -3.24745 0
M  V30 12599 H 1222.87 -0.609275 -3.92904 0
M  V30 12600 N 1223.87 1.39211 -0.738786 0
M  V30 12601 C 1225.09 2.05256 -0.297421 0
M  V30 12602 C 1225.52 1.55341 1.06069 0
M  V30 12603 O 1224.87 0.698823 1.67291 0
M  V30 12604 C 1224.92 3.59239 -0.312969 0
M  V30 12605 O 1224.03 4.06448 0.698112 0
M  V30 12606 H 1223.37 0.650245 -0.134454 0
M  V30 12607 H 1225.9 1.78173 -1.00577 0
M  V30 12608 H 1225.91 4.07691 -0.158675 0
M  V30 12609 H 1224.58 3.94931 -1.30394 0
M  V30 12610 H 1223.16 3.69401 0.509643 0
M  V30 12611 N 1225.34 0.486708 1.49896 0
M  V30 12612 C 1226.57 -0.0599944 2.06513 0
M  V30 12613 C 1226.98 -1.32662 1.34898 0
M  V30 12614 O 1226.33 -1.78915 0.416565 0
M  V30 12615 C 1226.39 -0.39838 3.57286 0
M  V30 12616 C 1226.05 0.768465 4.50493 0
M  V30 12617 C 1227.05 1.65495 4.92856 0
M  V30 12618 C 1224.73 0.96322 4.92978 0
M  V30 12619 C 1226.73 2.72046 5.76429 0
M  V30 12620 C 1224.41 2.03193 5.7633 0
M  V30 12621 C 1225.41 2.9089 6.17958 0
M  V30 12622 O 1225.1 3.95919 6.99645 0
M  V30 12623 H 1224.83 0.0107865 0.675914 0
M  V30 12624 H 1227.39 0.679087 1.93849 0
M  V30 12625 H 1225.62 -1.19086 3.67907 0
M  V30 12626 H 1227.31 -0.882003 3.96201 0
M  V30 12627 H 1228.07 1.51624 4.6069 0
M  V30 12628 H 1223.95 0.29004 4.60087 0
M  V30 12629 H 1227.49 3.40526 6.08841 0
M  V30 12630 H 1223.39 2.17064 6.07909 0
M  V30 12631 H 1224.16 3.93097 7.17925 0
M  V30 12632 N 1226.82 -1.56058 0.219941 0
M  V30 12633 C 1227.75 -2.2321 -0.685547 0
M  V30 12634 C 1228.73 -1.20328 -1.20229 0
M  V30 12635 O 1229.92 -1.48909 -1.24659 0
M  V30 12636 C 1227.05 -2.91076 -1.89452 0
M  V30 12637 C 1226 -4.00415 -1.51169 0
M  V30 12638 C 1225.33 -4.55569 -2.79931 0
M  V30 12639 C 1226.63 -5.17549 -0.702896 0
M  V30 12640 H 1228.32 -2.99136 -0.125671 0
M  V30 12641 H 1225.87 -1.43879 -0.0590043 0
M  V30 12642 H 1227.82 -3.36744 -2.53341 0
M  V30 12643 H 1226.55 -2.12594 -2.47934 0
M  V30 12644 H 1225.21 -3.55475 -0.896275 0
M  V30 12645 H 1224.85 -3.73819 -3.36553 0
M  V30 12646 H 1224.55 -5.29361 -2.55049 0
M  V30 12647 H 1226.08 -5.03955 -3.44764 0
M  V30 12648 H 1227.49 -5.59608 -1.24544 0
M  V30 12649 H 1225.89 -5.97563 -0.551234 0
M  V30 12650 H 1226.96 -4.84027 0.29083 0
M  V30 12651 N 1228.3 0.053464 -1.57509 0
M  V30 12652 C 1229.26 1.04604 -2.03938 0
M  V30 12653 C 1230.26 1.30509 -0.939357 0
M  V30 12654 O 1231.45 1.25922 -1.20371 0
M  V30 12655 C 1228.59 2.38516 -2.43563 0
M  V30 12656 H 1229.78 0.645484 -2.92871 0
M  V30 12657 H 1227.33 0.299683 -1.534 0
M  V30 12658 H 1228.07 2.83368 -1.57712 0
M  V30 12659 H 1227.85 2.2105 -3.23851 0
M  V30 12660 H 1229.34 3.09826 -2.79996 0
M  V30 12661 N 1229.78 1.54207 0.325255 0
M  V30 12662 C 1231.06 1.6298 1.08153 0
M  V30 12663 C 1231.44 0.462583 2.05969 0
M  V30 12664 O 1230.78 -0.543323 2.21947 0
M  V30 12665 C 1230.99 2.999 1.78497 0
M  V30 12666 C 1232.34 3.55888 2.3158 0
M  V30 12667 O 1233.37 3.02194 1.88566 0
M  V30 12668 O 1232.23 4.49847 3.10322 0
M  V30 12669 H 1229.32 0.659923 0.498429 0
M  V30 12670 H 1231.87 1.66553 0.325282 0
M  V30 12671 H 1230.64 3.7629 1.07338 0
M  V30 12672 H 1230.26 2.99997 2.60936 0
M  V30 12673 N 1231.26 -0.58723 1.46251 0
M  V30 12674 C 1232.53 -1.34727 1.41802 0
M  V30 12675 C 1232.91 -2.10867 0.0991354 0
M  V30 12676 O 1232.26 -2.09194 -0.919242 0
M  V30 12677 C 1232.47 -2.27706 2.64482 0
M  V30 12678 C 1233.82 -2.89678 3.10438 0
M  V30 12679 O 1234.84 -2.38021 2.64999 0
M  V30 12680 O 1233.7 -3.83493 3.89352 0
M  V30 12681 H 1230.8 -0.605119 0.563702 0
M  V30 12682 H 1233.34 -0.608623 1.5841 0
M  V30 12683 H 1232.12 -1.70842 3.52035 0
M  V30 12684 H 1231.74 -3.08918 2.50311 0
M  V30 12685 N 1232.74 -1.33881 -0.831482 0
M  V30 12686 C 1233.96 -1.28961 -1.62431 0
M  V30 12687 C 1234.39 0.135249 -1.87613 0
M  V30 12688 O 1233.74 1.09426 -1.44553 0
M  V30 12689 C 1233.79 -2.07767 -2.94729 0
M  V30 12690 O 1232.9 -1.44133 -3.86393 0
M  V30 12691 H 1232.24 -0.443313 -0.494337 0
M  V30 12692 H 1234.77 -1.76555 -1.0339 0
M  V30 12693 H 1234.78 -2.18806 -3.44366 0
M  V30 12694 H 1233.45 -3.11367 -2.75724 0
M  V30 12695 H 1232.03 -1.41784 -3.44894 0
M  V30 12696 N 1234.21 1.05064 -1.1747 0
M  V30 12697 C 1235.49 1.74999 -0.873776 0
M  V30 12698 C 1235.87 2.01615 0.625676 0
M  V30 12699 O 1235.22 1.65324 1.57734 0
M  V30 12700 C 1235.43 3.04231 -1.7101 0
M  V30 12701 C 1236.78 3.78157 -1.93087 0
M  V30 12702 O 1237.8 3.14104 -1.6798 0
M  V30 12703 O 1236.66 4.93255 -2.3529 0
M  V30 12704 H 1233.75 0.761042 -0.323641 0
M  V30 12705 H 1236.3 1.1122 -1.28172 0
M  V30 12706 H 1235.07 2.80621 -2.72704 0
M  V30 12707 H 1234.69 3.75746 -1.30002 0
M  V30 12708 N 1235.69 0.975146 1.23809 0
M  V30 12709 C 1237.11 0.682899 1.44252 0
M  V30 12710 C 1237.31 -0.752739 1.86912 0
M  V30 12711 O 1236.36 -1.52579 2.01186 0
M  V30 12712 C 1237.68 1.67335 2.49839 0
M  V30 12713 C 1239.22 1.6868 2.63659 0
M  V30 12714 C 1239.7 2.66542 3.72451 0
M  V30 12715 N 1241.19 2.65028 3.79887 0
M  V30 12716 C 1241.93 3.37421 4.63611 0
M  V30 12717 N 1241.42 4.19355 5.51465 0
M  V30 12718 N 1243.21 3.2621 4.57759 0
M  V30 12719 H 1235.37 1.9026 0.94418 0
M  V30 12720 H 1237.63 0.819543 0.476502 0
M  V30 12721 H 1237.33 2.69978 2.25399 0
M  V30 12722 H 1237.21 1.45201 3.48133 0
M  V30 12723 H 1239.6 0.667438 2.87453 0
M  V30 12724 H 1239.68 1.94878 1.65699 0
M  V30 12725 H 1239.32 3.68617 3.49405 0
M  V30 12726 H 1239.25 2.3762 4.69941 0
M  V30 12727 H 1241.74 2.05562 3.171 0
M  V30 12728 H 1242.05 4.71461 6.12327 0
M  V30 12729 H 1240.4 4.23447 5.51106 0
M  V30 12730 H 1243.59 2.61656 3.88142 0
M  V30 12731 H 1243.76 3.82889 5.22781 0
M  V30 12732 N 1237.17 -1.38817 0.746158 0
M  V30 12733 C 1238.39 -2.05096 0.308302 0
M  V30 12734 C 1238.82 -1.55902 -1.05244 0
M  V30 12735 O 1238.18 -0.707685 -1.66918 0
M  V30 12736 C 1238.23 -3.59068 0.332016 0
M  V30 12737 O 1237.33 -4.06813 -0.676547 0
M  V30 12738 H 1236.67 -0.649523 0.1379 0
M  V30 12739 H 1239.2 -1.77637 1.0152 0
M  V30 12740 H 1239.21 -4.07601 0.180293 0
M  V30 12741 H 1237.89 -3.94234 1.32487 0
M  V30 12742 H 1236.46 -3.69666 -0.490046 0
M  V30 12743 N 1238.65 -0.49465 -1.49636 0
M  V30 12744 C 1239.6 0.306278 -2.25933 0
M  V30 12745 C 1240.58 0.941082 -1.30508 0
M  V30 12746 O 1241.77 0.849732 -1.55269 0
M  V30 12747 C 1238.9 1.3739 -3.14609 0
M  V30 12748 C 1237.99 0.745657 -4.17493 0
M  V30 12749 N 1238.38 -0.147977 -5.05583 0
M  V30 12750 C 1236.68 1.00696 -4.34484 0
M  V30 12751 C 1237.38 -0.506949 -5.79487 0
M  V30 12752 N 1236.35 0.123603 -5.43459 0
M  V30 12753 H 1240.16 -0.381753 -2.9141 0
M  V30 12754 H 1237.67 -0.310311 -1.59408 0
M  V30 12755 H 1239.67 1.96108 -3.67896 0
M  V30 12756 H 1238.33 2.06368 -2.50684 0
M  V30 12757 H 1239.34 -0.518378 -5.15299 0
M  V30 12758 H 1236.02 1.68996 -3.81768 0
M  V30 12759 H 1237.41 -1.23766 -6.60403 0
M  V30 12760 N 1240.13 1.55939 -0.228214 0
M  V30 12761 C 1241.54 1.59094 0.12704 0
M  V30 12762 C 1241.74 1.24514 1.58425 0
M  V30 12763 O 1240.8 0.983544 2.32557 0
M  V30 12764 C 1242.11 2.99999 -0.205268 0
M  V30 12765 C 1243.66 3.1265 -0.148046 0
M  V30 12766 C 1244.13 4.55743 -0.454122 0
M  V30 12767 N 1245.62 4.61435 -0.403937 0
M  V30 12768 C 1246.36 5.70101 -0.614173 0
M  V30 12769 N 1245.86 6.87104 -0.88654 0
M  V30 12770 N 1247.65 5.5944 -0.546153 0
M  V30 12771 H 1239.8 1.7669 -1.17874 0
M  V30 12772 H 1242.06 0.821599 -0.472947 0
M  V30 12773 H 1241.77 3.29976 -1.21692 0
M  V30 12774 H 1241.64 3.74177 0.476573 0
M  V30 12775 H 1244.03 2.82465 0.854255 0
M  V30 12776 H 1244.11 2.40786 -0.863462 0
M  V30 12777 H 1243.75 4.86646 -1.45389 0
M  V30 12778 H 1243.68 5.25841 0.282561 0
M  V30 12779 H 1246.18 3.77363 -0.201388 0
M  V30 12780 H 1246.49 7.65839 -1.03488 0
M  V30 12781 H 1244.83 6.88833 -0.923808 0
M  V30 12782 H 1248.02 4.6691 -0.33355 0
M  V30 12783 H 1248.2 6.44061 -0.713402 0
M  V30 12784 N 1241.6 -0.0451101 1.57535 0
M  V30 12785 C 1242.55 -1.0692 2.06569 0
M  V30 12786 C 1243.55 -1.38443 0.976218 0
M  V30 12787 O 1244.75 -1.37536 1.1612 0
M  V30 12788 H 1241.13 -0.36226 0.658993 0
M  V30 12789 H 1243.1 -0.629709 2.9168 0
M  V30 12790 C 1241.85 -2.36656 2.54733 0
M  V30 12791 H 1241.17 -2.13257 3.38174 0
M  V30 12792 H 1242.61 -3.06696 2.92769 0
M  V30 12793 C 1241.07 -3.04499 1.4416 0
M  V30 12794 O 1241.6 -3.93679 0.798721 0
M  V30 12795 N 1239.81 -2.6556 1.18009 0
M  V30 12796 H 1239.35 -1.93126 1.7047 0
M  V30 12797 H 1239.31 -3.11272 0.442363 0
M  V30 12798 N 1243.08 -1.54377 -0.317073 0
M  V30 12799 C 1244.03 -1.84948 -1.41057 0
M  V30 12800 C 1245.02 -0.721887 -1.53249 0
M  V30 12801 O 1246.23 -0.905648 -1.55557 0
M  V30 12802 H 1242.61 -0.586353 -0.470844 0
M  V30 12803 H 1244.58 -2.7638 -1.12501 0
M  V30 12804 C 1243.33 -2.09932 -2.77171 0
M  V30 12805 H 1242.65 -2.96162 -2.68566 0
M  V30 12806 H 1244.09 -2.35272 -3.52737 0
M  V30 12807 C 1242.55 -0.892855 -3.24853 0
M  V30 12808 O 1243.08 -0.105336 -4.01562 0
M  V30 12809 N 1241.28 -0.702685 -2.81976 0
M  V30 12810 H 1240.83 -1.34474 -2.19715 0
M  V30 12811 H 1240.79 0.103024 -3.14231 0
M  V30 12812 N 1244.56 0.579466 -1.4656 0
M  V30 12813 C 1245.47 1.71609 -1.59961 0
M  V30 12814 C 1246.49 1.67162 -0.483002 0
M  V30 12815 O 1247.66 1.87012 -0.747561 0
M  V30 12816 C 1244.73 3.08114 -1.58954 0
M  V30 12817 C 1243.79 3.238 -2.81872 0
M  V30 12818 C 1243.02 4.53794 -2.80904 0
M  V30 12819 O 1243.24 5.37884 -1.89835 0
M  V30 12820 O 1242.18 4.72796 -3.72488 0
M  V30 12821 H 1246 1.6325 -2.56092 0
M  V30 12822 H 1243.59 0.746891 -1.2939 0
M  V30 12823 H 1245.47 3.8939 -1.611 0
M  V30 12824 H 1244.15 3.16903 -0.65984 0
M  V30 12825 H 1243.05 2.42006 -2.85279 0
M  V30 12826 H 1244.39 3.19904 -3.74062 0
M  V30 12827 N 1246.04 1.3432 0.824371 0
M  V30 12828 C 1246.97 1.2012 1.94027 0
M  V30 12829 C 1247.95 0.0931808 1.62333 0
M  V30 12830 O 1249.13 0.258069 1.86725 0
M  V30 12831 C 1246.26 0.845628 3.27974 0
M  V30 12832 C 1245.31 1.9632 3.7863 0
M  V30 12833 S 1246.14 3.57642 3.98563 0
M  V30 12834 C 1247.3 3.24124 5.35439 0
M  V30 12835 H 1247.53 2.14579 2.05775 0
M  V30 12836 H 1245.06 1.1933 0.979783 0
M  V30 12837 H 1247.02 0.647266 4.05365 0
M  V30 12838 H 1245.68 -0.0805948 3.13997 0
M  V30 12839 H 1244.87 1.66812 4.75594 0
M  V30 12840 H 1244.48 2.11897 3.08181 0
M  V30 12841 H 1246.77 2.75848 6.188 0
M  V30 12842 H 1247.71 4.20222 5.69929 0
M  V30 12843 H 1248.12 2.60343 5.00881 0
M  V30 12844 N 1247.52 -1.0444 1.18026 0
M  V30 12845 C 1248.48 -2.10532 0.906028 0
M  V30 12846 C 1249.48 -1.60443 -0.107022 0
M  V30 12847 O 1250.67 -1.73744 0.126001 0
M  V30 12848 C 1247.8 -3.39008 0.358625 0
M  V30 12849 H 1248.99 -2.36293 1.84677 0
M  V30 12850 H 1246.55 -1.20805 0.991763 0
M  V30 12851 H 1247.28 -3.18908 -0.588904 0
M  V30 12852 H 1247.07 -3.76678 1.08884 0
M  V30 12853 H 1248.56 -4.17189 0.185331 0
M  V30 12854 N 1248.99 -0.981699 -1.2329 0
M  V30 12855 C 1249.92 -0.542441 -2.27112 0
M  V30 12856 C 1250.91 0.425034 -1.64704 0
M  V30 12857 O 1252.09 0.318114 -1.91577 0
M  V30 12858 C 1249.22 0.154668 -3.46955 0
M  V30 12859 C 1248.17 -0.73022 -4.21725 0
M  V30 12860 C 1247.5 0.0991766 -5.34608 0
M  V30 12861 C 1248.8 -2.02166 -4.81587 0
M  V30 12862 H 1250.49 -1.41024 -2.64107 0
M  V30 12863 H 1248.04 -0.679544 -1.26957 0
M  V30 12864 H 1249.99 0.473281 -4.18734 0
M  V30 12865 H 1248.72 1.05693 -3.09025 0
M  V30 12866 H 1247.38 -1.03231 -3.51765 0
M  V30 12867 H 1247.02 1.00201 -4.92919 0
M  V30 12868 H 1246.72 -0.489788 -5.85555 0
M  V30 12869 H 1248.25 0.412141 -6.09207 0
M  V30 12870 H 1249.66 -1.76773 -5.45366 0
M  V30 12871 H 1248.06 -2.55851 -5.42826 0
M  V30 12872 H 1249.13 -2.70766 -4.02261 0
M  V30 12873 N 1250.47 1.3842 -0.753509 0
M  V30 12874 C 1251.4 2.33073 -0.141198 0
M  V30 12875 C 1252.38 1.54863 0.70367 0
M  V30 12876 O 1253.57 1.8318 0.644872 0
M  V30 12877 C 1250.7 3.39043 0.752802 0
M  V30 12878 C 1249.65 4.27999 0.0106692 0
M  V30 12879 C 1248.98 5.24824 1.02291 0
M  V30 12880 C 1250.28 5.09308 -1.15768 0
M  V30 12881 H 1251.97 2.84528 -0.93188 0
M  V30 12882 H 1249.52 1.36802 -0.449567 0
M  V30 12883 H 1251.47 4.04224 1.19083 0
M  V30 12884 H 1250.2 2.8607 1.57581 0
M  V30 12885 H 1248.85 3.64323 -0.407939 0
M  V30 12886 H 1248.5 4.68139 1.83998 0
M  V30 12887 H 1248.2 5.85196 0.53101 0
M  V30 12888 H 1249.73 5.92882 1.46026 0
M  V30 12889 H 1251.14 5.6773 -0.797203 0
M  V30 12890 H 1249.54 5.78914 -1.58044 0
M  V30 12891 H 1250.61 4.43051 -1.97062 0
M  V30 12892 N 1251.95 0.502579 1.49372 0
M  V30 12893 C 1252.86 -0.279532 2.32929 0
M  V30 12894 C 1253.88 -0.965806 1.44735 0
M  V30 12895 O 1255.05 -0.946839 1.77755 0
M  V30 12896 C 1252.12 -1.32913 3.20211 0
M  V30 12897 C 1251.18 -0.656121 4.24256 0
M  V30 12898 C 1250.41 -1.65571 5.07368 0
M  V30 12899 O 1250.63 -2.88571 4.92019 0
M  V30 12900 O 1249.57 -1.21016 5.89609 0
M  V30 12901 H 1253.39 0.404427 3.00995 0
M  V30 12902 H 1250.98 0.263888 1.47051 0
M  V30 12903 H 1252.86 -1.93635 3.74277 0
M  V30 12904 H 1251.54 -1.99598 2.54837 0
M  V30 12905 H 1250.44 -0.00911489 3.74099 0
M  V30 12906 H 1251.78 -0.0316802 4.9219 0
M  V30 12907 N 1253.43 -1.55816 0.23648 0
M  V30 12908 C 1254.65 -2.03534 -0.398575 0
M  V30 12909 C 1255.08 -1.11488 -1.51499 0
M  V30 12910 O 1254.44 -0.105848 -1.80991 0
M  V30 12911 C 1254.48 -3.49356 -0.893467 0
M  V30 12912 O 1253.59 -3.60446 -2.00381 0
M  V30 12913 H 1252.93 -0.658102 -0.0883021 0
M  V30 12914 H 1255.46 -2.01417 0.359488 0
M  V30 12915 H 1255.47 -3.89972 -1.19941 0
M  V30 12916 H 1254.14 -4.1583 -0.0764388 0
M  V30 12917 H 1252.72 -3.31723 -1.70336 0
M  V30 12918 N 1254.91 0.036755 -1.57557 0
M  V30 12919 C 1255.85 1.03975 -2.06053 0
M  V30 12920 C 1256.82 1.36384 -0.948089 0
M  V30 12921 O 1258.01 1.46853 -1.21815 0
M  V30 12922 C 1255.15 2.33796 -2.53837 0
M  V30 12923 C 1254.26 2.07614 -3.78841 0
M  V30 12924 C 1253.4 3.3125 -4.15267 0
M  V30 12925 C 1252.44 3.00587 -5.33211 0
M  V30 12926 N 1251.57 4.16653 -5.65106 0
M  V30 12927 H 1256.41 0.61924 -2.91495 0
M  V30 12928 H 1253.95 0.294151 -1.44129 0
M  V30 12929 H 1255.91 3.09639 -2.79606 0
M  V30 12930 H 1254.54 2.73584 -1.71323 0
M  V30 12931 H 1253.59 1.22302 -3.60203 0
M  V30 12932 H 1254.9 1.80989 -4.64806 0
M  V30 12933 H 1254.06 4.15466 -4.42123 0
M  V30 12934 H 1252.79 3.60981 -3.27939 0
M  V30 12935 H 1251.8 2.14772 -5.06115 0
M  V30 12936 H 1253.02 2.72142 -6.22186 0
M  V30 12937 H 1250.97 4.4635 -4.80737 0
M  V30 12938 H 1250.89 3.93425 -6.45564 0
M  V30 12939 H 1252.16 5.01764 -5.96534 0
M  V30 12940 N 1256.39 1.54543 0.308881 0
M  V30 12941 C 1257.33 1.85693 1.40074 0
M  V30 12942 C 1258.33 0.730004 1.52864 0
M  V30 12943 O 1259.53 0.913884 1.55075 0
M  V30 12944 H 1255.91 0.588842 0.467728 0
M  V30 12945 H 1257.88 2.76973 1.11034 0
M  V30 12946 C 1256.63 2.11399 2.76054 0
M  V30 12947 H 1255.95 2.97583 2.66992 0
M  V30 12948 H 1257.39 2.37139 3.51484 0
M  V30 12949 C 1255.85 0.91007 3.24375 0
M  V30 12950 O 1256.38 0.12663 4.015 0
M  V30 12951 N 1254.59 0.717629 2.816 0
M  V30 12952 H 1254.13 1.35637 2.18998 0
M  V30 12953 H 1254.09 -0.0863585 3.14281 0
M  V30 12954 N 1257.86 -0.571685 1.46866 0
M  V30 12955 C 1258.79 -1.68994 1.61131 0
M  V30 12956 C 1259.77 -1.63728 0.461222 0
M  V30 12957 O 1260.96 -1.81574 0.688813 0
M  V30 12958 C 1258.09 -3.07638 1.61172 0
M  V30 12959 C 1257.04 -3.27742 2.75262 0
M  V30 12960 C 1256.37 -4.67025 2.60368 0
M  V30 12961 C 1257.67 -3.14511 4.16989 0
M  V30 12962 H 1259.36 -1.57311 2.54742 0
M  V30 12963 H 1256.91 -0.755382 1.22597 0
M  V30 12964 H 1258.86 -3.857 1.69744 0
M  V30 12965 H 1257.59 -3.20245 0.641122 0
M  V30 12966 H 1256.25 -2.52083 2.66176 0
M  V30 12967 H 1255.89 -4.76413 1.61368 0
M  V30 12968 H 1255.59 -4.81428 3.36899 0
M  V30 12969 H 1257.12 -5.47242 2.70848 0
M  V30 12970 H 1258.53 -3.82407 4.27128 0
M  V30 12971 H 1256.93 -3.40431 4.94193 0
M  V30 12972 H 1258 -2.11443 4.36371 0
M  V30 12973 N 1259.34 -1.34755 -0.817236 0
M  V30 12974 C 1260.58 -1.28786 -1.58725 0
M  V30 12975 C 1260.95 0.138807 -1.91498 0
M  V30 12976 O 1262.15 0.322743 -2.66855 0
M  V30 12977 C 1260.42 -2.15907 -2.84814 0
M  V30 12978 S 1261.98 -2.27347 -3.75311 0
M  V30 12979 H 1258.79 -0.457844 -0.543967 0
M  V30 12980 H 1261.4 -1.70031 -0.96487 0
M  V30 12981 H 1260.1 -3.18559 -2.58744 0
M  V30 12982 H 1259.63 -1.7558 -3.52044 0
M  V30 12983 H 1261.65 -1.45044 -4.74528 0
M  V30 12984 N 1260.82 1.03812 -1.18578 0
M  V30 12985 C 1261.75 2.11436 -0.858502 0
M  V30 12986 C 1262.73 1.61594 0.180604 0
M  V30 12987 O 1263.91 1.88408 0.058995 0
M  V30 12988 C 1261.04 3.37514 -0.283154 0
M  V30 12989 C 1260.09 4.0621 -1.29985 0
M  V30 12990 S 1260.92 4.52936 -2.85673 0
M  V30 12991 C 1262.08 5.82245 -2.29656 0
M  V30 12992 H 1262.31 2.38871 -1.76997 0
M  V30 12993 H 1259.84 1.16617 -1.01192 0
M  V30 12994 H 1261.8 4.10478 0.0422898 0
M  V30 12995 H 1260.46 3.08189 0.60647 0
M  V30 12996 H 1259.65 4.96845 -0.84621 0
M  V30 12997 H 1259.26 3.39374 -1.57166 0
M  V30 12998 H 1261.55 6.56321 -1.68074 0
M  V30 12999 H 1262.49 6.32375 -3.18602 0
M  V30 13000 H 1262.9 5.37472 -1.72581 0
M  V30 13001 N 1262.3 0.988223 1.22768 0
M  V30 13002 C 1263.54 0.662441 1.91676 0
M  V30 13003 C 1263.88 -0.802931 1.76824 0
M  V30 13004 O 1263.15 -1.58011 1.13415 0
M  V30 13005 C 1263.43 1.06332 3.44043 0
M  V30 13006 C 1263.29 2.5869 3.67967 0
M  V30 13007 C 1264.61 0.613058 4.35809 0
M  V30 13008 H 1261.73 0.242132 0.69609 0
M  V30 13009 H 1264.37 1.23091 1.44736 0
M  V30 13010 H 1262.52 0.579623 3.84152 0
M  V30 13011 H 1264.19 3.14694 3.37291 0
M  V30 13012 H 1262.43 3.00971 3.12408 0
M  V30 13013 H 1263.1 2.8179 4.74656 0
M  V30 13014 H 1265.58 1.02846 4.0319 0
M  V30 13015 H 1264.46 0.921901 5.41103 0
M  V30 13016 H 1264.72 -0.48641 4.39416 0
M  V30 13017 N 1263.78 -1.38018 0.760839 0
M  V30 13018 C 1265.19 -1.82645 0.387022 0
M  V30 13019 C 1265.54 -1.63445 -1.08536 0
M  V30 13020 O 1264.66 -1.13958 -1.83963 0
M  V30 13021 C 1265.26 -3.3158 0.69569 0
M  V30 13022 C 1263.82 -3.74527 0.375063 0
M  V30 13023 C 1262.96 -2.60696 0.94515 0
M  V30 13024 H 1265.91 -1.26644 0.956396 0
M  V30 13025 H 1265.94 -3.80493 -0.0235511 0
M  V30 13026 H 1265.45 -3.45522 1.76737 0
M  V30 13027 H 1263.55 -3.6616 -0.689741 0
M  V30 13028 H 1263.66 -4.71029 0.875685 0
M  V30 13029 H 1262.03 -2.51997 0.370065 0
M  V30 13030 H 1262.81 -2.77434 2.02201 0
M  V30 13031 N 1265.25 -0.510493 -1.49103 0
M  V30 13032 C 1266.2 0.262848 -2.29298 0
M  V30 13033 C 1267.17 0.951714 -1.36131 0
M  V30 13034 O 1268.36 0.956534 -1.65091 0
M  V30 13035 C 1265.5 1.31565 -3.19037 0
M  V30 13036 C 1264.61 0.637598 -4.27269 0
M  V30 13037 C 1263.74 1.67165 -5.04212 0
M  V30 13038 C 1262.78 0.975992 -6.04269 0
M  V30 13039 N 1261.92 1.95468 -6.74342 0
M  V30 13040 H 1266.76 -0.427246 -2.94921 0
M  V30 13041 H 1264.3 -0.222538 -1.45407 0
M  V30 13042 H 1266.25 1.93813 -3.69449 0
M  V30 13043 H 1264.88 1.97438 -2.55379 0
M  V30 13044 H 1263.94 -0.0983863 -3.80273 0
M  V30 13045 H 1265.25 0.0904435 -4.98718 0
M  V30 13046 H 1264.4 2.36893 -5.5854 0
M  V30 13047 H 1263.14 2.25267 -4.32557 0
M  V30 13048 H 1262.15 0.264534 -5.49163 0
M  V30 13049 H 1263.37 0.40134 -6.77913 0
M  V30 13050 H 1261.32 2.52515 -6.05452 0
M  V30 13051 H 1261.23 1.45845 -7.41799 0
M  V30 13052 H 1262.5 2.64455 -7.33269 0
M  V30 13053 N 1266.73 1.55688 -0.24474 0
M  V30 13054 C 1267.68 2.21289 0.655723 0
M  V30 13055 C 1268.65 1.17606 1.17295 0
M  V30 13056 O 1269.83 1.46045 1.22782 0
M  V30 13057 C 1266.97 2.91453 1.84794 0
M  V30 13058 C 1266.09 4.09787 1.36744 0
M  V30 13059 C 1265.22 4.67672 2.51905 0
M  V30 13060 C 1264.26 5.78259 2.00706 0
M  V30 13061 N 1263.4 6.30336 3.09225 0
M  V30 13062 H 1268.24 2.97865 0.0896156 0
M  V30 13063 H 1265.77 1.47064 0.0324725 0
M  V30 13064 H 1267.73 3.30331 2.54828 0
M  V30 13065 H 1266.36 2.17355 2.38656 0
M  V30 13066 H 1265.41 3.76237 0.561228 0
M  V30 13067 H 1266.73 4.89627 0.952199 0
M  V30 13068 H 1265.88 5.09113 3.29984 0
M  V30 13069 H 1264.62 3.87044 2.9673 0
M  V30 13070 H 1263.62 5.36298 1.21097 0
M  V30 13071 H 1264.85 6.60737 1.56853 0
M  V30 13072 H 1262.8 5.52614 3.53489 0
M  V30 13073 H 1262.71 7.05364 2.72025 0
M  V30 13074 H 1263.98 6.76435 3.8737 0
M  V30 13075 N 1268.21 -0.0283989 1.57574 0
M  V30 13076 C 1269.63 -0.384054 1.5491 0
M  V30 13077 C 1269.83 -1.76564 0.970947 0
M  V30 13078 O 1268.88 -2.45455 0.592288 0
M  V30 13079 C 1270.19 -0.285297 2.99344 0
M  V30 13080 C 1271.74 -0.36233 3.10896 0
M  V30 13081 C 1272.22 -0.293014 4.57062 0
M  V30 13082 N 1273.71 -0.351788 4.61862 0
M  V30 13083 C 1274.44 -0.321054 5.725 0
M  V30 13084 N 1273.94 -0.242573 6.92375 0
M  V30 13085 N 1275.73 -0.370832 5.60875 0
M  V30 13086 H 1267.88 0.87573 1.93506 0
M  V30 13087 H 1270.15 0.33305 0.887571 0
M  V30 13088 H 1269.85 0.664146 3.45372 0
M  V30 13089 H 1269.73 -1.07869 3.61447 0
M  V30 13090 H 1272.11 -1.30221 2.64814 0
M  V30 13091 H 1272.19 0.460422 2.51622 0
M  V30 13092 H 1271.84 0.643197 5.03811 0
M  V30 13093 H 1271.77 -1.13388 5.14248 0
M  V30 13094 H 1274.26 -0.414929 3.75615 0
M  V30 13095 H 1274.57 -0.224239 7.72475 0
M  V30 13096 H 1272.92 -0.208612 6.94687 0
M  V30 13097 H 1276.11 -0.430141 4.6612 0
M  V30 13098 H 1276.28 -0.343412 6.47089 0
M  V30 13099 N 1269.69 -1.54705 -0.300681 0
M  V30 13100 C 1270.63 -1.85678 -1.37084 0
M  V30 13101 C 1271.6 -0.70573 -1.50362 0
M  V30 13102 O 1272.79 -0.954385 -1.65215 0
M  V30 13103 C 1269.93 -2.10995 -2.73084 0
M  V30 13104 C 1269.04 -3.38621 -2.68254 0
M  V30 13105 C 1268.18 -3.53779 -3.9625 0
M  V30 13106 C 1267.22 -4.75195 -3.85818 0
M  V30 13107 N 1266.35 -4.87157 -5.05591 0
M  V30 13108 H 1271.19 -2.76967 -1.09971 0
M  V30 13109 H 1268.73 -1.37147 -0.531887 0
M  V30 13110 H 1270.69 -2.23669 -3.52176 0
M  V30 13111 H 1269.32 -1.22973 -2.98458 0
M  V30 13112 H 1268.37 -3.34566 -1.81025 0
M  V30 13113 H 1269.68 -4.27834 -2.56436 0
M  V30 13114 H 1268.84 -3.66119 -4.83779 0
M  V30 13115 H 1267.58 -2.62699 -4.10902 0
M  V30 13116 H 1266.58 -4.62888 -2.96673 0
M  V30 13117 H 1267.81 -5.67683 -3.72711 0
M  V30 13118 H 1265.75 -3.99001 -5.20706 0
M  V30 13119 H 1265.67 -5.70372 -4.96197 0
M  V30 13120 H 1266.94 -5.03854 -5.9477 0
M  V30 13121 N 1271.17 0.563888 -1.47167 0
M  V30 13122 C 1272.1 1.68137 -1.62025 0
M  V30 13123 C 1273.08 1.63481 -0.469899 0
M  V30 13124 O 1274.26 1.81206 -0.698432 0
M  V30 13125 C 1271.39 3.06779 -1.62801 0
M  V30 13126 C 1270.35 3.26278 -2.76996 0
M  V30 13127 C 1269.67 4.65638 -2.62841 0
M  V30 13128 C 1270.97 3.12295 -4.18651 0
M  V30 13129 H 1272.67 1.55958 -2.55573 0
M  V30 13130 H 1270.21 0.74887 -1.22996 0
M  V30 13131 H 1272.17 3.84795 -1.71787 0
M  V30 13132 H 1270.89 3.19901 -0.658097 0
M  V30 13133 H 1269.55 2.50668 -2.67509 0
M  V30 13134 H 1269.2 4.75551 -1.63892 0
M  V30 13135 H 1268.9 4.79635 -3.39447 0
M  V30 13136 H 1270.42 5.45798 -2.73746 0
M  V30 13137 H 1271.83 3.80136 -4.2915 0
M  V30 13138 H 1270.23 3.37805 -4.95992 0
M  V30 13139 H 1271.3 2.09126 -4.37486 0
M  V30 13140 N 1272.64 1.35187 0.810078 0
M  V30 13141 C 1273.87 1.31181 1.59609 0
M  V30 13142 C 1274.28 -0.113556 1.88859 0
M  V30 13143 O 1273.63 -1.07491 1.48968 0
M  V30 13144 C 1273.69 2.04749 2.95496 0
M  V30 13145 C 1273.35 3.53952 2.89079 0
M  V30 13146 C 1274.35 4.48612 2.6276 0
M  V30 13147 C 1272.03 3.96551 3.08306 0
M  V30 13148 C 1274.03 5.83846 2.5574 0
M  V30 13149 C 1271.71 5.31881 3.00909 0
M  V30 13150 C 1272.71 6.2534 2.74661 0
M  V30 13151 O 1272.4 7.58188 2.6722 0
M  V30 13152 H 1272.13 0.452285 0.502408 0
M  V30 13153 H 1274.69 1.78571 1.01497 0
M  V30 13154 H 1272.92 1.51992 3.55577 0
M  V30 13155 H 1274.61 1.93866 3.5661 0
M  V30 13156 H 1275.37 4.1702 2.47628 0
M  V30 13157 H 1271.25 3.24194 3.27749 0
M  V30 13158 H 1274.79 6.56765 2.35172 0
M  V30 13159 H 1270.69 5.63088 3.15598 0
M  V30 13160 H 1271.46 7.68073 2.82853 0
M  V30 13161 N 1274.12 -1.03182 1.19127 0
M  V30 13162 C 1275.35 -1.80165 1.01726 0
M  V30 13163 C 1275.77 -1.83742 -0.434095 0
M  V30 13164 O 1275.12 -1.27932 -1.30152 0
M  V30 13165 C 1275.17 -3.25354 1.57566 0
M  V30 13166 O 1274.89 -3.22042 2.9702 0
M  V30 13167 C 1276.4 -4.18948 1.44906 0
M  V30 13168 H 1273.62 -0.567078 0.358698 0
M  V30 13169 H 1276.16 -1.29982 1.57877 0
M  V30 13170 H 1274.31 -3.72738 1.0557 0
M  V30 13171 H 1274.73 -4.13061 3.23235 0
M  V30 13172 H 1276.2 -5.18723 1.88762 0
M  V30 13173 H 1276.68 -4.37383 0.399125 0
M  V30 13174 H 1277.29 -3.77435 1.96018 0
M  V30 13175 N 1275.6 -0.99472 -1.22242 0
M  V30 13176 C 1276.51 -0.555502 -2.27928 0
M  V30 13177 C 1277.53 0.396584 -1.6942 0
M  V30 13178 O 1278.7 0.262965 -1.99676 0
M  V30 13179 C 1275.77 0.121121 -3.46488 0
M  V30 13180 C 1274.83 -0.874155 -4.20306 0
M  V30 13181 C 1274.06 -0.229726 -5.33205 0
M  V30 13182 O 1274.28 0.975935 -5.61989 0
M  V30 13183 O 1273.22 -0.935501 -5.94586 0
M  V30 13184 H 1277.04 -1.4348 -2.6767 0
M  V30 13185 H 1274.63 -0.763061 -1.28444 0
M  V30 13186 H 1276.51 0.500043 -4.18423 0
M  V30 13187 H 1275.19 0.974959 -3.08668 0
M  V30 13188 H 1274.09 -1.30404 -3.50636 0
M  V30 13189 H 1275.43 -1.69725 -4.62011 0
M  V30 13190 N 1277.08 1.37613 -0.768148 0
M  V30 13191 C 1278.49 1.82437 -0.396703 0
M  V30 13192 C 1278.84 1.64019 1.07668 0
M  V30 13193 O 1277.97 1.14932 1.83356 0
M  V30 13194 C 1278.56 3.31207 -0.713265 0
M  V30 13195 C 1277.12 3.74323 -0.39492 0
M  V30 13196 C 1276.27 2.60191 -0.958962 0
M  V30 13197 H 1279.22 1.26135 -0.963099 0
M  V30 13198 H 1279.24 3.805 0.00337228 0
M  V30 13199 H 1278.75 3.4458 -1.78567 0
M  V30 13200 H 1276.85 3.66521 0.670313 0
M  V30 13201 H 1276.96 4.70558 -0.900653 0
M  V30 13202 H 1275.33 2.51797 -0.383423 0
M  V30 13203 H 1276.11 2.76358 -2.03669 0
M  V30 13204 N 1278.56 0.518393 1.4883 0
M  V30 13205 C 1279.49 -0.239685 2.32267 0
M  V30 13206 C 1280.47 -0.94613 1.41359 0
M  V30 13207 O 1281.65 -0.934162 1.70256 0
M  V30 13208 C 1278.78 -1.29411 3.22289 0
M  V30 13209 C 1277.74 -0.706504 4.22129 0
M  V30 13210 C 1277.06 -1.86273 5.01205 0
M  V30 13211 C 1278.36 0.314079 5.21355 0
M  V30 13212 H 1280.06 0.4568 2.95895 0
M  V30 13213 H 1277.6 0.221126 1.42292 0
M  V30 13214 H 1279.56 -1.8323 3.7948 0
M  V30 13215 H 1278.28 -2.02001 2.56638 0
M  V30 13216 H 1276.94 -0.189924 3.66108 0
M  V30 13217 H 1276.59 -2.57674 4.31988 0
M  V30 13218 H 1276.29 -1.47554 5.68772 0
M  V30 13219 H 1277.81 -2.40492 5.61245 0
M  V30 13220 H 1279.22 -0.136604 5.73137 0
M  V30 13221 H 1277.62 0.618026 5.96909 0
M  V30 13222 H 1278.69 1.22394 4.69199 0
M  V30 13223 N 1280.03 -1.55556 0.252993 0
M  V30 13224 C 1280.94 -2.25283 -0.654581 0
M  V30 13225 C 1281.96 -1.27103 -1.18831 0
M  V30 13226 O 1283.14 -1.59993 -1.22329 0
M  V30 13227 C 1280.2 -2.94336 -1.83214 0
M  V30 13228 C 1279.26 -4.0794 -1.33728 0
M  V30 13229 C 1278.5 -4.73691 -2.45871 0
M  V30 13230 O 1278.72 -4.38545 -3.64738 0
M  V30 13231 O 1277.65 -5.62083 -2.15283 0
M  V30 13232 H 1281.48 -3.03565 -0.0904091 0
M  V30 13233 H 1279.06 -1.49385 0.0212535 0
M  V30 13234 H 1280.95 -3.37808 -2.5192 0
M  V30 13235 H 1279.62 -2.18989 -2.38381 0
M  V30 13236 H 1278.53 -3.68971 -0.617323 0
M  V30 13237 H 1279.86 -4.85124 -0.831617 0
M  V30 13238 N 1281.51 0.0200419 -1.57587 0
M  V30 13239 C 1282.46 1.0362 -2.08244 0
M  V30 13240 C 1283.45 1.36872 -0.998119 0
M  V30 13241 O 1284.66 1.35671 -1.18293 0
M  V30 13242 H 1281.04 0.351731 -0.664673 0
M  V30 13243 H 1283.01 0.583226 -2.92645 0
M  V30 13244 C 1281.76 2.32574 -2.58466 0
M  V30 13245 H 1281.08 2.0785 -3.41523 0
M  V30 13246 H 1282.52 3.02 -2.97611 0
M  V30 13247 C 1280.98 3.02167 -1.48986 0
M  V30 13248 O 1281.51 3.92359 -0.861251 0
M  V30 13249 N 1279.71 2.63649 -1.22219 0
M  V30 13250 H 1279.26 1.90389 -1.73521 0
M  V30 13251 H 1279.22 3.10529 -0.491828 0
M  V30 13252 N 1282.99 1.54862 0.292472 0
M  V30 13253 C 1284.4 1.65459 0.864891 0
M  V30 13254 C 1284.75 0.568808 1.87774 0
M  V30 13255 O 1283.88 -0.293107 2.14406 0
M  V30 13256 C 1284.47 2.99939 1.5755 0
M  V30 13257 C 1283.03 3.12628 2.09621 0
M  V30 13258 C 1282.18 2.61179 0.931713 0
M  V30 13259 H 1285.13 1.58549 0.0692679 0
M  V30 13260 H 1285.15 2.91839 2.44152 0
M  V30 13261 H 1284.66 3.78943 0.838088 0
M  V30 13262 H 1282.76 2.3836 2.86383 0
M  V30 13263 H 1282.88 4.18911 2.32488 0
M  V30 13264 H 1281.24 2.17846 1.31967 0
M  V30 13265 H 1282.02 3.42669 0.208121 0
M  V30 13266 N 1284.47 -0.556076 1.47464 0
M  V30 13267 C 1285.72 -1.3132 1.54147 0
M  V30 13268 C 1286.04 -1.93425 0.204221 0
M  V30 13269 O 1285.3 -1.78467 -0.803002 0
M  V30 13270 C 1285.6 -2.44298 2.6087 0
M  V30 13271 C 1285.26 -2.00016 4.04109 0
M  V30 13272 C 1283.93 -1.87656 4.43101 0
M  V30 13273 C 1286.28 -1.66228 4.93981 0
M  V30 13274 C 1283.61 -1.39805 5.698 0
M  V30 13275 C 1285.96 -1.19848 6.21144 0
M  V30 13276 C 1284.62 -1.06084 6.59016 0
M  V30 13277 H 1283.89 -0.480534 0.564064 0
M  V30 13278 H 1286.54 -0.623449 1.81067 0
M  V30 13279 H 1284.84 -3.18834 2.27711 0
M  V30 13280 H 1286.54 -3.02479 2.63263 0
M  V30 13281 H 1283.13 -2.1058 3.73302 0
M  V30 13282 H 1287.31 -1.7465 4.64555 0
M  V30 13283 H 1282.57 -1.27814 5.97891 0
M  V30 13284 H 1286.74 -0.927657 6.90194 0
M  V30 13285 H 1284.37 -0.687834 7.57082 0
M  V30 13286 N 1285.95 -1.35615 -0.802897 0
M  V30 13287 C 1286.89 -1.28839 -1.91492 0
M  V30 13288 C 1287.86 -0.159621 -1.65331 0
M  V30 13289 O 1289.05 -0.343931 -1.87675 0
M  V30 13290 C 1286.19 -1.06999 -3.28093 0
M  V30 13291 C 1285.3 -2.28831 -3.66416 0
M  V30 13292 C 1284.44 -2.00111 -4.92066 0
M  V30 13293 C 1283.48 -3.17977 -5.23027 0
M  V30 13294 N 1282.61 -2.89009 -6.39858 0
M  V30 13295 H 1287.45 -2.2393 -1.96619 0
M  V30 13296 H 1284.99 -1.1131 -0.961687 0
M  V30 13297 H 1286.95 -0.923673 -4.06847 0
M  V30 13298 H 1285.58 -0.155684 -3.22424 0
M  V30 13299 H 1284.63 -2.54314 -2.82893 0
M  V30 13300 H 1285.94 -3.1683 -3.85253 0
M  V30 13301 H 1285.1 -1.82331 -5.78654 0
M  V30 13302 H 1283.84 -1.09402 -4.75271 0
M  V30 13303 H 1282.84 -3.3633 -4.34928 0
M  V30 13304 H 1284.07 -4.09493 -5.41749 0
M  V30 13305 H 1282.01 -2.00898 -6.24481 0
M  V30 13306 H 1281.93 -3.70544 -6.58964 0
M  V30 13307 H 1283.2 -2.74779 -7.29463 0
M  V30 13308 N 1287.43 1.02549 -1.19673 0
M  V30 13309 C 1288.37 2.109 -0.937536 0
M  V30 13310 C 1289.34 1.65599 0.128923 0
M  V30 13311 O 1290.53 1.90795 -0.0139366 0
M  V30 13312 C 1287.67 3.4166 -0.48602 0
M  V30 13313 C 1286.78 4.0049 -1.61963 0
M  V30 13314 C 1285.92 5.19273 -1.11931 0
M  V30 13315 C 1284.95 5.70166 -2.22659 0
M  V30 13316 N 1284.09 6.80221 -1.73909 0
M  V30 13317 H 1288.93 2.32408 -1.86523 0
M  V30 13318 H 1286.47 1.13982 -0.929869 0
M  V30 13319 H 1288.43 4.16693 -0.205614 0
M  V30 13320 H 1287.06 3.20253 0.404678 0
M  V30 13321 H 1286.11 3.22638 -2.01516 0
M  V30 13322 H 1287.42 4.34273 -2.45374 0
M  V30 13323 H 1286.57 6.01478 -0.794336 0
M  V30 13324 H 1285.31 4.87033 -0.254972 0
M  V30 13325 H 1284.32 4.86572 -2.55983 0
M  V30 13326 H 1285.54 6.04444 -3.09554 0
M  V30 13327 H 1283.49 6.49826 -0.897889 0
M  V30 13328 H 1283.41 7.13149 -2.50907 0
M  V30 13329 H 1284.67 7.66011 -1.44386 0
M  V30 13330 N 1288.9 1.00119 1.21713 0
M  V30 13331 C 1289.84 0.503256 2.22582 0
M  V30 13332 C 1290.81 -0.440971 1.56506 0
M  V30 13333 O 1292 -0.364583 1.84941 0
M  V30 13334 C 1289.13 -0.269453 3.37626 0
M  V30 13335 C 1288.17 0.622002 4.2194 0
M  V30 13336 S 1289 2.08218 4.93361 0
M  V30 13337 C 1290.16 1.3192 6.1184 0
M  V30 13338 H 1290.39 1.35798 2.64474 0
M  V30 13339 H 1287.93 0.808819 1.3152 0
M  V30 13340 H 1289.88 -0.709213 4.04327 0
M  V30 13341 H 1288.55 -1.09955 2.94226 0
M  V30 13342 H 1287.74 0.0270176 5.03993 0
M  V30 13343 H 1287.34 0.998876 3.60414 0
M  V30 13344 H 1289.63 0.591116 6.74916 0
M  V30 13345 H 1290.58 2.1153 6.75767 0
M  V30 13346 H 1290.98 0.828844 5.58382 0
M  V30 13347 N 1290.38 -1.37203 0.775435 0
M  V30 13348 C 1291.33 -2.30228 0.162388 0
M  V30 13349 C 1292.3 -1.51284 -0.685747 0
M  V30 13350 O 1293.48 -1.7984 -0.637342 0
M  V30 13351 C 1290.62 -3.37762 -0.707858 0
M  V30 13352 C 1289.74 -4.31714 0.157287 0
M  V30 13353 C 1288.87 -5.26325 -0.718012 0
M  V30 13354 C 1287.91 -6.11918 0.149442 0
M  V30 13355 N 1287.05 -6.9876 -0.684043 0
M  V30 13356 H 1291.89 -2.82073 0.961184 0
M  V30 13357 H 1289.42 -1.38854 0.485587 0
M  V30 13358 H 1291.38 -3.98741 -1.22726 0
M  V30 13359 H 1290.01 -2.87273 -1.47222 0
M  V30 13360 H 1289.06 -3.7201 0.794533 0
M  V30 13361 H 1290.38 -4.91909 0.826262 0
M  V30 13362 H 1289.53 -5.92526 -1.30376 0
M  V30 13363 H 1288.27 -4.6655 -1.42066 0
M  V30 13364 H 1287.27 -5.44692 0.747697 0
M  V30 13365 H 1288.5 -6.73766 0.849476 0
M  V30 13366 H 1286.45 -6.41508 -1.37124 0
M  V30 13367 H 1286.36 -7.55965 -0.0724464 0
M  V30 13368 H 1287.63 -7.69346 -1.25407 0
M  V30 13369 N 1291.86 -0.526279 -1.48553 0
M  V30 13370 C 1292.81 0.251938 -2.31232 0
M  V30 13371 C 1293.8 0.938991 -1.40994 0
M  V30 13372 O 1295.01 0.863798 -1.57919 0
M  V30 13373 H 1291.38 0.100114 -0.745306 0
M  V30 13374 H 1293.35 -0.465013 -2.94754 0
M  V30 13375 C 1292.1 1.28816 -3.22958 0
M  V30 13376 H 1291.43 0.768899 -3.92337 0
M  V30 13377 H 1292.87 1.80417 -3.837 0
M  V30 13378 C 1291.32 2.31982 -2.44307 0
M  V30 13379 O 1291.85 3.3835 -2.16523 0
M  V30 13380 N 1290.06 2.051 -2.05869 0
M  V30 13381 H 1289.61 1.18618 -2.28665 0
M  V30 13382 H 1289.57 2.74349 -1.53557 0
M  V30 13383 N 1293.34 1.5542 -0.261239 0
M  V30 13384 C 1294.29 2.23382 0.648324 0
M  V30 13385 C 1295.28 1.22615 1.16884 0
M  V30 13386 O 1296.49 1.40587 1.12407 0
M  V30 13387 H 1292.86 0.716733 0.227592 0
M  V30 13388 H 1294.83 2.98354 0.0521289 0
M  V30 13389 C 1293.58 2.9579 1.82766 0
M  V30 13390 H 1292.9 3.73109 1.4363 0
M  V30 13391 H 1294.34 3.46686 2.441 0
M  V30 13392 C 1292.8 2.00472 2.70763 0
M  V30 13393 O 1293.33 1.54698 3.70717 0
M  V30 13394 N 1291.54 1.67267 2.37635 0
M  V30 13395 H 1291.09 2.04685 1.56402 0
M  V30 13396 H 1291.04 1.03759 2.96785 0
M  V30 13397 N 1294.82 -0.0116844 1.57596 0
M  V30 13398 C 1296.06 -0.698089 1.89234 0
M  V30 13399 C 1296.38 -1.75581 0.862016 0
M  V30 13400 O 1297.58 -2.49602 1.06822 0
M  V30 13401 C 1296.04 -1.29277 3.3588 0
M  V30 13402 C 1295.65 -0.27049 4.47183 0
M  V30 13403 C 1297.39 -1.95805 3.76644 0
M  V30 13404 C 1295.3 -0.874502 5.84899 0
M  V30 13405 H 1294.23 -0.264495 0.706087 0
M  V30 13406 H 1296.88 0.0469451 1.8344 0
M  V30 13407 H 1295.26 -2.08809 3.36474 0
M  V30 13408 H 1296.44 0.499381 4.58086 0
M  V30 13409 H 1294.75 0.293676 4.15363 0
M  V30 13410 H 1297.35 -2.41879 4.76863 0
M  V30 13411 H 1297.69 -2.78366 3.09545 0
M  V30 13412 H 1298.22 -1.23023 3.78299 0
M  V30 13413 H 1294.96 -0.0879263 6.55441 0
M  V30 13414 H 1294.48 -1.61381 5.77682 0
M  V30 13415 H 1296.16 -1.37665 6.32185 0
M  V30 13416 N 1296.29 -1.55015 -0.284256 0
M  V30 13417 C 1297.54 -1.7535 -1.01884 0
M  V30 13418 C 1297.87 -0.546825 -1.86342 0
M  V30 13419 O 1297.15 0.455832 -1.89083 0
M  V30 13420 C 1297.43 -3.05219 -1.91084 0
M  V30 13421 C 1297.28 -4.36219 -1.09694 0
M  V30 13422 C 1298.6 -3.31056 -2.89983 0
M  V30 13423 H 1295.72 -0.637981 -0.368984 0
M  V30 13424 H 1298.36 -1.87741 -0.292116 0
M  V30 13425 H 1296.51 -2.94786 -2.53048 0
M  V30 13426 H 1298.19 -4.58594 -0.498876 0
M  V30 13427 H 1296.43 -4.31951 -0.400078 0
M  V30 13428 H 1297.1 -5.23392 -1.75399 0
M  V30 13429 H 1299.58 -3.41209 -2.38151 0
M  V30 13430 H 1298.45 -4.23212 -3.49547 0
M  V30 13431 H 1298.71 -2.50153 -3.64521 0
M  V30 13432 N 1297.77 0.548248 -1.47757 0
M  V30 13433 C 1299.05 1.3092 -1.45325 0
M  V30 13434 C 1299.43 2.1053 -0.155008 0
M  V30 13435 O 1298.78 2.11558 0.863455 0
M  V30 13436 C 1298.99 2.20614 -2.70426 0
M  V30 13437 C 1300.33 2.81345 -3.18009 0
M  V30 13438 O 1301.36 2.30911 -2.71216 0
M  V30 13439 O 1300.22 3.73036 -3.99383 0
M  V30 13440 H 1297.31 0.58996 -0.579548 0
M  V30 13441 H 1299.86 0.56641 -1.59968 0
M  V30 13442 H 1298.63 1.61449 -3.56441 0
M  V30 13443 H 1298.25 3.02173 -2.58413 0
M  V30 13444 N 1299.25 1.36039 0.795694 0
M  V30 13445 C 1300.21 1.29709 1.88966 0
M  V30 13446 C 1301.21 0.206142 1.59473 0
M  V30 13447 O 1302.4 0.460534 1.68002 0
M  V30 13448 C 1299.53 1.00922 3.25619 0
M  V30 13449 H 1300.73 2.26993 1.95995 0
M  V30 13450 H 1298.28 1.2072 0.992791 0
M  V30 13451 H 1299.02 0.0407027 3.24274 0
M  V30 13452 H 1298.8 1.79863 3.48413 0
M  V30 13453 H 1300.29 0.990826 4.05675 0
M  V30 13454 N 1300.73 -1.01913 1.20215 0
M  V30 13455 C 1301.69 -2.08563 0.950481 0
M  V30 13456 C 1302.69 -1.60634 -0.0729659 0
M  V30 13457 O 1303.88 -1.73437 0.162826 0
M  V30 13458 C 1301.01 -3.38171 0.430453 0
M  V30 13459 H 1302.21 -2.32323 1.89647 0
M  V30 13460 H 1299.76 -1.18674 1.01716 0
M  V30 13461 H 1300.49 -3.20086 -0.521126 0
M  V30 13462 H 1300.28 -3.74284 1.1685 0
M  V30 13463 H 1301.77 -4.16702 0.273781 0
M  V30 13464 N 1302.21 -1.00763 -1.2118 0
M  V30 13465 C 1303.15 -0.563428 -2.25673 0
M  V30 13466 C 1304.15 0.393342 -1.6477 0
M  V30 13467 O 1305.35 0.264246 -1.7805 0
M  V30 13468 H 1301.73 -0.163862 -0.73393 0
M  V30 13469 H 1303.7 -1.45585 -2.60476 0
M  V30 13470 C 1302.45 0.0915599 -3.47579 0
M  V30 13471 H 1301.77 -0.635628 -3.94715 0
M  V30 13472 H 1303.21 0.36561 -4.22421 0
M  V30 13473 C 1301.67 1.33159 -3.09468 0
M  V30 13474 O 1302.2 2.42571 -3.20191 0
M  V30 13475 N 1300.41 1.21231 -2.64105 0
M  V30 13476 H 1299.95 0.322021 -2.55579 0
M  V30 13477 H 1299.91 2.04301 -2.38974 0
M  V30 13478 N 1303.68 1.3679 -0.7827 0
M  V30 13479 C 1304.63 2.32019 -0.164358 0
M  V30 13480 C 1305.63 1.55476 0.672571 0
M  V30 13481 O 1306.83 1.7079 0.568406 0
M  V30 13482 H 1303.21 0.751214 -0.0343697 0
M  V30 13483 H 1305.18 2.81741 -0.983077 0
M  V30 13484 C 1303.93 3.4075 0.691727 0
M  V30 13485 H 1303.25 3.99759 0.0570885 0
M  V30 13486 H 1304.69 4.09719 1.09117 0
M  V30 13487 C 1303.15 2.81753 1.84708 0
M  V30 13488 O 1303.68 2.73378 2.94325 0
M  V30 13489 N 1301.89 2.39138 1.6511 0
M  V30 13490 H 1301.43 2.46149 0.759487 0
M  V30 13491 H 1301.39 2.0001 2.42576 0
M  V30 13492 N 1305.16 0.53415 1.48272 0
M  V30 13493 C 1306.11 -0.246268 2.26666 0
M  V30 13494 C 1307.1 -0.906149 1.32958 0
M  V30 13495 O 1308.29 -0.808266 1.57468 0
M  V30 13496 C 1305.42 -1.29001 3.18141 0
M  V30 13497 C 1304.5 -0.634704 4.19324 0
M  V30 13498 N 1304.89 0.281972 5.05013 0
M  V30 13499 C 1303.19 -0.891412 4.37001 0
M  V30 13500 C 1303.89 0.660411 5.77939 0
M  V30 13501 N 1302.87 0.0205295 5.43596 0
M  V30 13502 H 1306.67 0.458881 2.90296 0
M  V30 13503 H 1304.19 0.352466 1.58529 0
M  V30 13504 H 1306.18 -1.86285 3.72966 0
M  V30 13505 H 1304.84 -1.99649 2.56067 0
M  V30 13506 H 1305.85 0.654819 5.13744 0
M  V30 13507 H 1302.53 -1.58815 3.86114 0
M  V30 13508 H 1303.92 1.41231 6.56889 0
M  V30 13509 N 1306.64 -1.55279 0.269478 0
M  V30 13510 C 1307.87 -2.04334 -0.355313 0
M  V30 13511 C 1308.29 -1.14677 -1.491 0
M  V30 13512 O 1307.65 -0.144215 -1.80726 0
M  V30 13513 C 1307.7 -3.51172 -0.819162 0
M  V30 13514 O 1306.8 -3.64615 -1.9269 0
M  V30 13515 H 1306.14 -0.659827 -0.0743229 0
M  V30 13516 H 1308.67 -2.00609 0.402131 0
M  V30 13517 H 1308.68 -3.92428 -1.11642 0
M  V30 13518 H 1307.36 -4.15898 0.0117821 0
M  V30 13519 H 1305.93 -3.35261 -1.63261 0
M  V30 13520 N 1308.12 0.00332656 -1.576 0
M  V30 13521 C 1309.08 0.980628 -2.07163 0
M  V30 13522 C 1310.08 1.27455 -0.980402 0
M  V30 13523 O 1311.27 1.22029 -1.24317 0
M  V30 13524 C 1308.4 2.30647 -2.51028 0
M  V30 13525 H 1309.6 0.551982 -2.94776 0
M  V30 13526 H 1307.15 0.250728 -1.54276 0
M  V30 13527 H 1307.88 2.78207 -1.66647 0
M  V30 13528 H 1307.67 2.10635 -3.30719 0
M  V30 13529 H 1309.16 3.00761 -2.89711 0
M  V30 13530 N 1309.6 1.55164 0.276031 0
M  V30 13531 C 1311.01 1.66367 0.847293 0
M  V30 13532 C 1311.36 0.588692 1.8716 0
M  V30 13533 O 1310.48 -0.27035 2.14705 0
M  V30 13534 C 1311.08 3.01593 1.5436 0
M  V30 13535 C 1309.64 3.14833 2.06293 0
M  V30 13536 C 1308.78 2.62152 0.903959 0
M  V30 13537 H 1311.74 1.58613 0.0524478 0
M  V30 13538 H 1311.76 2.94412 2.41043 0
M  V30 13539 H 1311.27 3.7981 0.797849 0
M  V30 13540 H 1309.37 2.41384 2.83839 0
M  V30 13541 H 1309.48 4.21353 2.28032 0
M  V30 13542 H 1307.85 2.19233 1.29649 0
M  V30 13543 H 1308.63 3.4287 0.171765 0
M  V30 13544 N 1311.07 -0.540404 1.48045 0
M  V30 13545 C 1311.98 -1.67308 1.64455 0
M  V30 13546 C 1313 -1.65823 0.527152 0
M  V30 13547 O 1314.18 -1.84964 0.796881 0
M  V30 13548 C 1311.24 -3.03792 1.67068 0
M  V30 13549 C 1310.3 -3.16213 2.90358 0
M  V30 13550 C 1309.54 -4.46187 2.92837 0
M  V30 13551 O 1309.76 -5.32662 2.04029 0
M  V30 13552 O 1308.69 -4.62754 3.84892 0
M  V30 13553 H 1312.52 -1.56403 2.6033 0
M  V30 13554 H 1310.1 -0.712323 1.31325 0
M  V30 13555 H 1311.99 -3.84982 1.71368 0
M  V30 13556 H 1310.66 -3.15043 0.74363 0
M  V30 13557 H 1309.57 -2.34357 2.91595 0
M  V30 13558 H 1310.9 -3.09874 3.82412 0
M  V30 13559 N 1312.55 -1.36459 -0.788468 0
M  V30 13560 C 1313.8 -1.30935 -1.54867 0
M  V30 13561 C 1314.13 0.110916 -1.93883 0
M  V30 13562 O 1313.41 1.06452 -1.62783 0
M  V30 13563 C 1313.69 -2.23294 -2.8251 0
M  V30 13564 C 1313.54 -3.74022 -2.49856 0
M  V30 13565 C 1314.86 -2.14407 -3.84341 0
M  V30 13566 H 1311.98 -0.476958 -0.561854 0
M  V30 13567 H 1314.62 -1.67018 -0.905805 0
M  V30 13568 H 1312.77 -1.92652 -3.37369 0
M  V30 13569 H 1314.44 -4.15187 -2.01041 0
M  V30 13570 H 1312.69 -3.93411 -1.82785 0
M  V30 13571 H 1313.36 -4.34057 -3.41026 0
M  V30 13572 H 1315.83 -2.41381 -3.38932 0
M  V30 13573 H 1314.71 -2.81199 -4.71401 0
M  V30 13574 H 1314.97 -1.13166 -4.27371 0
M  V30 13575 N 1314.03 1.01274 -1.20754 0
M  V30 13576 C 1314.96 2.11763 -0.983805 0
M  V30 13577 C 1315.94 1.69869 0.0885635 0
M  V30 13578 O 1317.13 1.94075 -0.0697239 0
M  V30 13579 C 1314.26 3.43087 -0.539287 0
M  V30 13580 C 1313.21 3.9874 -1.55534 0
M  V30 13581 C 1312.54 5.25877 -0.967322 0
M  V30 13582 C 1313.84 4.31688 -2.94012 0
M  V30 13583 H 1315.53 2.30737 -1.90789 0
M  V30 13584 H 1313.08 1.10884 -0.918734 0
M  V30 13585 H 1315.03 4.19773 -0.369979 0
M  V30 13586 H 1313.75 3.23883 0.420435 0
M  V30 13587 H 1312.41 3.24166 -1.71207 0
M  V30 13588 H 1312.06 5.03 0.000448307 0
M  V30 13589 H 1311.76 5.64077 -1.64594 0
M  V30 13590 H 1313.28 6.05215 -0.809167 0
M  V30 13591 H 1314.7 4.99246 -2.81827 0
M  V30 13592 H 1313.1 4.81011 -3.58815 0
M  V30 13593 H 1314.17 3.4029 -3.45442 0
M  V30 13594 N 1315.51 1.01404 1.20644 0
M  V30 13595 C 1316.74 0.719995 1.93648 0
M  V30 13596 C 1317.15 -0.722872 1.74846 0
M  V30 13597 O 1316.49 -1.50172 1.05802 0
M  V30 13598 C 1316.55 0.972637 3.46092 0
M  V30 13599 C 1316.22 2.40412 3.88653 0
M  V30 13600 C 1317.21 3.38481 3.94622 0
M  V30 13601 C 1314.9 2.74418 4.20714 0
M  V30 13602 C 1316.89 4.68619 4.32059 0
M  V30 13603 C 1314.58 4.04769 4.57826 0
M  V30 13604 C 1315.58 5.01681 4.63471 0
M  V30 13605 O 1315.27 6.297 4.99733 0
M  V30 13606 H 1315 0.263849 0.622382 0
M  V30 13607 H 1317.55 1.35741 1.54154 0
M  V30 13608 H 1315.78 0.278057 3.85699 0
M  V30 13609 H 1317.47 0.670572 4.00323 0
M  V30 13610 H 1318.24 3.13545 3.7002 0
M  V30 13611 H 1314.12 1.99675 4.15513 0
M  V30 13612 H 1317.66 5.4426 4.3638 0
M  V30 13613 H 1313.56 4.29486 4.81884 0
M  V30 13614 H 1314.32 6.3395 5.17735 0
M  V30 13615 N 1316.99 -1.36373 0.789944 0
M  V30 13616 C 1318.24 -1.98834 0.361866 0
M  V30 13617 C 1318.56 -1.63006 -1.07024 0
M  V30 13618 O 1317.83 -0.904312 -1.73779 0
M  V30 13619 H 1316.41 -0.735457 0.130812 0
M  V30 13620 H 1319.07 -1.66561 1.0121 0
M  V30 13621 H 1318.16 -3.08778 0.454122 0
M  V30 13622 N 1318.47 -0.542005 -1.47987 0
M  V30 13623 C 1319.69 -0.0146835 -2.07395 0
M  V30 13624 C 1320.12 1.26266 -1.39422 0
M  V30 13625 O 1319.47 1.75259 -0.464118 0
M  V30 13626 C 1319.52 0.179937 -3.60151 0
M  V30 13627 O 1318.63 1.24596 -3.93128 0
M  V30 13628 H 1317.97 -0.0445076 -0.662507 0
M  V30 13629 H 1320.5 -0.753352 -1.90226 0
M  V30 13630 H 1320.51 0.398876 -4.06046 0
M  V30 13631 H 1319.18 -0.753093 -4.09025 0
M  V30 13632 H 1317.76 1.00872 -3.58997 0
M  V30 13633 N 1319.94 1.55134 -0.277709 0
M  V30 13634 C 1320.87 2.256 0.602232 0
M  V30 13635 C 1321.85 1.24708 1.15681 0
M  V30 13636 O 1323.04 1.53433 1.19046 0
M  V30 13637 C 1320.17 2.97907 1.78519 0
M  V30 13638 C 1319.12 4.0575 1.36203 0
M  V30 13639 C 1318.45 4.65644 2.62829 0
M  V30 13640 C 1319.75 5.19801 0.510327 0
M  V30 13641 H 1321.44 2.99396 0.0145622 0
M  V30 13642 H 1318.99 1.43999 0.00556389 0
M  V30 13643 H 1320.94 3.45915 2.40668 0
M  V30 13644 H 1319.67 2.21649 2.39873 0
M  V30 13645 H 1318.33 3.58557 0.763726 0
M  V30 13646 H 1317.97 3.86053 3.22447 0
M  V30 13647 H 1317.67 5.38463 2.35227 0
M  V30 13648 H 1319.2 5.16403 3.25823 0
M  V30 13649 H 1320.61 5.63845 1.03689 0
M  V30 13650 H 1319.01 5.99197 0.329073 0
M  V30 13651 H 1320.08 4.82614 -0.470273 0
M  V30 13652 N 1321.42 0.00503138 1.57599 0
M  V30 13653 C 1322.35 -0.983586 2.11773 0
M  V30 13654 C 1323.33 -1.35518 1.02805 0
M  V30 13655 O 1324.52 -1.43804 1.30514 0
M  V30 13656 C 1321.65 -2.27383 2.62515 0
M  V30 13657 C 1320.6 -2.0437 3.76054 0
M  V30 13658 C 1319.93 -3.39451 4.1313 0
M  V30 13659 C 1321.23 -1.40223 5.03125 0
M  V30 13660 H 1322.92 -0.532501 2.94627 0
M  V30 13661 H 1320.47 -0.254696 1.4173 0
M  V30 13662 H 1322.42 -2.96903 2.99043 0
M  V30 13663 H 1321.14 -2.74614 1.7679 0
M  V30 13664 H 1319.8 -1.37275 3.39928 0
M  V30 13665 H 1319.45 -3.84395 3.24422 0
M  V30 13666 H 1319.15 -3.24868 4.89627 0
M  V30 13667 H 1320.68 -4.10279 4.52221 0
M  V30 13668 H 1322.09 -1.99708 5.37392 0
M  V30 13669 H 1320.49 -1.36112 5.8446 0
M  V30 13670 H 1321.56 -0.372073 4.8347 0
M  V30 13671 N 1322.9 -1.55308 -0.267798 0
M  V30 13672 C 1323.85 -1.89342 -1.35102 0
M  V30 13673 C 1324.84 -0.770277 -1.50874 0
M  V30 13674 O 1326.05 -0.954679 -1.52597 0
M  V30 13675 H 1322.42 -0.601036 -0.451952 0
M  V30 13676 H 1324.39 -2.7982 -1.03651 0
M  V30 13677 C 1323.14 -2.18644 -2.70352 0
M  V30 13678 H 1322.47 -3.04557 -2.59008 0
M  V30 13679 H 1323.91 -2.46374 -3.45073 0
M  V30 13680 C 1322.36 -0.995753 -3.21848 0
M  V30 13681 O 1322.89 -0.233037 -4.01023 0
M  V30 13682 N 1321.1 -0.792038 -2.79598 0
M  V30 13683 H 1320.65 -1.41396 -2.15325 0
M  V30 13684 H 1320.61 0.00300201 -3.144 0
M  V30 13685 N 1324.38 0.532545 -1.4833 0
M  V30 13686 C 1325.31 1.65325 -1.58746 0
M  V30 13687 C 1326.32 1.5581 -0.471925 0
M  V30 13688 O 1327.51 1.62317 -0.742656 0
M  V30 13689 C 1324.61 3.03957 -1.49877 0
M  V30 13690 C 1323.78 3.38979 -2.76427 0
M  V30 13691 C 1322.84 4.56881 -2.61048 0
M  V30 13692 O 1321.87 4.6023 -3.34928 0
M  V30 13693 N 1323.07 5.54898 -1.70496 0
M  V30 13694 H 1325.84 1.56827 -2.55393 0
M  V30 13695 H 1323.4 0.71976 -1.45021 0
M  V30 13696 H 1325.39 3.80702 -1.37288 0
M  V30 13697 H 1323.96 3.06548 -0.612158 0
M  V30 13698 H 1323.18 2.51438 -3.03599 0
M  V30 13699 H 1324.47 3.59163 -3.60388 0
M  V30 13700 H 1323.87 5.54968 -1.0967 0
M  V30 13701 H 1322.42 6.3087 -1.63847 0
M  V30 13702 N 1325.86 1.36875 0.78122 0
M  V30 13703 C 1326.77 1.3404 1.92537 0
M  V30 13704 C 1327.78 0.241354 1.72318 0
M  V30 13705 O 1328.96 0.475128 1.95715 0
M  V30 13706 C 1326.02 1.13708 3.27523 0
M  V30 13707 C 1325.08 2.33165 3.60462 0
M  V30 13708 C 1324.32 2.13793 4.89007 0
M  V30 13709 O 1324.54 1.11732 5.5935 0
M  V30 13710 O 1323.47 3.01762 5.20791 0
M  V30 13711 H 1327.3 2.30386 1.97879 0
M  V30 13712 H 1324.88 1.17506 0.922637 0
M  V30 13713 H 1326.77 1.0432 4.08283 0
M  V30 13714 H 1325.44 0.204306 3.23055 0
M  V30 13715 H 1324.35 2.48123 2.79974 0
M  V30 13716 H 1325.68 3.24977 3.69663 0
M  V30 13717 N 1327.33 -1.00632 1.21289 0
M  V30 13718 C 1328.24 -2.12829 0.986957 0
M  V30 13719 C 1329.26 -1.73895 -0.0605152 0
M  V30 13720 O 1330.44 -2.00985 0.129238 0
M  V30 13721 C 1327.5 -3.4226 0.553089 0
M  V30 13722 C 1326.56 -3.95376 1.67262 0
M  V30 13723 C 1325.79 -5.18629 1.25936 0
M  V30 13724 O 1326.02 -5.70246 0.132402 0
M  V30 13725 O 1324.95 -5.65157 2.07077 0
M  V30 13726 H 1328.78 -2.34765 1.92663 0
M  V30 13727 H 1326.36 -1.11208 0.997654 0
M  V30 13728 H 1328.24 -4.20177 0.320856 0
M  V30 13729 H 1326.92 -3.21716 -0.357881 0
M  V30 13730 H 1325.83 -3.18692 1.95924 0
M  V30 13731 H 1327.16 -4.20328 2.56097 0
M  V30 13732 N 1328.81 -1.02043 -1.20104 0
M  V30 13733 C 1329.74 -0.614421 -2.25271 0
M  V30 13734 C 1330.72 0.37242 -1.65973 0
M  V30 13735 O 1331.91 0.257005 -1.92492 0
M  V30 13736 C 1329.04 0.0442085 -3.47272 0
M  V30 13737 C 1327.99 -0.864019 -4.19188 0
M  V30 13738 C 1327.32 -0.0709551 -5.34653 0
M  V30 13739 C 1328.62 -2.17385 -4.74912 0
M  V30 13740 H 1330.31 -1.49355 -2.59487 0
M  V30 13741 H 1327.86 -0.719591 -1.24731 0
M  V30 13742 H 1329.81 0.339825 -4.20028 0
M  V30 13743 H 1328.53 0.958082 -3.12231 0
M  V30 13744 H 1327.19 -1.1437 -3.48303 0
M  V30 13745 H 1326.84 0.844688 -4.95857 0
M  V30 13746 H 1326.54 -0.67583 -5.83701 0
M  V30 13747 H 1328.07 0.218118 -6.1021 0
M  V30 13748 H 1329.48 -1.94034 -5.39466 0
M  V30 13749 H 1327.88 -2.72991 -5.34412 0
M  V30 13750 H 1328.95 -2.83427 -3.93443 0
M  V30 13751 N 1330.29 1.35952 -0.797165 0
M  V30 13752 C 1331.24 2.29941 -0.198995 0
M  V30 13753 C 1332.21 1.52355 0.661592 0
M  V30 13754 O 1333.39 1.80832 0.60865 0
M  V30 13755 C 1330.53 3.38846 0.654033 0
M  V30 13756 C 1329.65 4.31409 -0.225949 0
M  V30 13757 C 1328.78 5.27401 0.634188 0
M  V30 13758 C 1327.82 6.11602 -0.246773 0
M  V30 13759 N 1326.96 6.9976 0.57279 0
M  V30 13760 H 1331.8 2.80508 -1.00594 0
M  V30 13761 H 1329.33 1.38064 -0.507617 0
M  V30 13762 H 1331.29 4.00643 1.16367 0
M  V30 13763 H 1329.92 2.89578 1.42633 0
M  V30 13764 H 1328.97 3.70699 -0.853616 0
M  V30 13765 H 1330.29 4.90532 -0.904416 0
M  V30 13766 H 1329.44 5.94525 1.20933 0
M  V30 13767 H 1328.18 4.68751 1.34625 0
M  V30 13768 H 1327.18 5.43434 -0.834258 0
M  V30 13769 H 1328.41 6.72329 -0.956559 0
M  V30 13770 H 1326.35 6.43609 1.26901 0
M  V30 13771 H 1326.27 7.55985 -0.0478303 0
M  V30 13772 H 1327.54 7.71244 1.13151 0
M  V30 13773 N 1331.77 0.549846 1.47697 0
M  V30 13774 C 1333.02 0.0230503 2.02487 0
M  V30 13775 C 1333.34 -1.32382 1.42497 0
M  V30 13776 O 1332.6 -1.87293 0.567441 0
M  V30 13777 C 1332.9 -0.127268 3.57173 0
M  V30 13778 C 1332.56 1.14777 4.36047 0
M  V30 13779 C 1331.23 1.49716 4.57317 0
M  V30 13780 C 1333.58 1.99302 4.81589 0
M  V30 13781 C 1330.91 2.69042 5.21376 0
M  V30 13782 C 1333.26 3.17824 5.46965 0
M  V30 13783 C 1331.92 3.53086 5.66469 0
M  V30 13784 H 1331.19 0.00843471 0.740952 0
M  V30 13785 H 1333.84 0.719876 1.77454 0
M  V30 13786 H 1332.14 -0.907008 3.81157 0
M  V30 13787 H 1333.84 -0.550103 3.97209 0
M  V30 13788 H 1330.43 0.865703 4.19766 0
M  V30 13789 H 1334.61 1.73618 4.64942 0
M  V30 13790 H 1329.87 2.9654 5.34672 0
M  V30 13791 H 1334.04 3.83612 5.81218 0
M  V30 13792 H 1331.67 4.45643 6.15878 0
M  V30 13793 N 1333.25 -1.54984 0.285932 0
M  V30 13794 C 1334.47 -2.04699 -0.333621 0
M  V30 13795 C 1334.9 -1.16252 -1.47875 0
M  V30 13796 O 1334.25 -0.163376 -1.80562 0
M  V30 13797 C 1334.3 -3.52022 -0.78187 0
M  V30 13798 O 1333.41 -3.66639 -1.88812 0
M  V30 13799 H 1332.75 -0.660579 -0.0673203 0
M  V30 13800 H 1335.28 -2.00171 0.423386 0
M  V30 13801 H 1335.29 -3.93591 -1.07473 0
M  V30 13802 H 1333.96 -4.15862 0.055893 0
M  V30 13803 H 1332.54 -3.36974 -1.59696 0
M  V30 13804 N 1334.72 -0.0133892 -1.57594 0
M  V30 13805 C 1336.14 0.342848 -1.55874 0
M  V30 13806 C 1336.34 1.73928 -1.01742 0
M  V30 13807 O 1335.4 2.43798 -0.657158 0
M  V30 13808 C 1336.71 0.205831 -2.99995 0
M  V30 13809 C 1338.26 0.279774 -3.11747 0
M  V30 13810 C 1338.73 0.171729 -4.57678 0
M  V30 13811 N 1340.22 0.22921 -4.62633 0
M  V30 13812 C 1340.96 0.169153 -5.7315 0
M  V30 13813 N 1340.45 0.0589166 -6.92775 0
M  V30 13814 N 1342.25 0.221995 -5.61661 0
M  V30 13815 H 1334.4 -0.926727 -1.91117 0
M  V30 13816 H 1336.66 -0.356466 -0.878428 0
M  V30 13817 H 1336.37 -0.755482 -3.4349 0
M  V30 13818 H 1336.24 0.982476 -3.6418 0
M  V30 13819 H 1338.63 1.23154 -2.68174 0
M  V30 13820 H 1338.71 -0.526974 -2.50313 0
M  V30 13821 H 1338.35 -0.776547 -5.01928 0
M  V30 13822 H 1338.28 0.997138 -5.17073 0
M  V30 13823 H 1340.77 0.315196 -3.76583 0
M  V30 13824 H 1341.09 0.0193526 -7.72798 0
M  V30 13825 H 1339.43 0.0243543 -6.94996 0
M  V30 13826 H 1342.62 0.306406 -4.67096 0
M  V30 13827 H 1342.8 0.171727 -6.47772 0
M  V30 13828 N 1336.2 1.55448 0.259558 0
M  V30 13829 C 1337.15 1.90056 1.34096 0
M  V30 13830 C 1338.14 0.778267 1.50464 0
M  V30 13831 O 1339.35 0.962758 1.52089 0
M  V30 13832 H 1335.73 0.603424 0.448758 0
M  V30 13833 H 1337.7 2.80365 1.02166 0
M  V30 13834 C 1336.45 2.20074 2.69189 0
M  V30 13835 H 1335.77 3.05926 2.57389 0
M  V30 13836 H 1337.21 2.48201 3.43762 0
M  V30 13837 C 1335.67 1.01281 3.21316 0
M  V30 13838 O 1336.2 0.2543 4.00894 0
M  V30 13839 N 1334.4 0.806855 2.79174 0
M  V30 13840 H 1333.95 1.42536 2.14572 0
M  V30 13841 H 1333.91 0.0136714 3.14397 0
M  V30 13842 N 1337.68 -0.524672 1.4861 0
M  V30 13843 C 1338.96 -1.28592 1.47389 0
M  V30 13844 C 1339.34 -2.10257 0.188482 0
M  V30 13845 O 1338.69 -2.12905 -0.829689 0
M  V30 13846 C 1338.9 -2.16284 2.73902 0
M  V30 13847 C 1340.24 -2.7625 3.22445 0
M  V30 13848 O 1341.27 -2.26567 2.74856 0
M  V30 13849 O 1340.13 -3.66635 4.05267 0
M  V30 13850 H 1337.22 -0.580666 0.58886 0
M  V30 13851 H 1339.77 -0.540888 1.60849 0
M  V30 13852 H 1338.54 -1.55757 3.58964 0
M  V30 13853 H 1338.16 -2.98024 2.63188 0
M  V30 13854 N 1339.16 -1.37287 -0.77395 0
M  V30 13855 C 1340.09 -1.35569 -1.90114 0
M  V30 13856 C 1341.07 -0.224658 -1.6861 0
M  V30 13857 O 1342.25 -0.424676 -1.895 0
M  V30 13858 C 1339.38 -1.15971 -3.27365 0
M  V30 13859 C 1338.34 -2.26063 -3.63427 0
M  V30 13860 C 1337.66 -1.9159 -4.99197 0
M  V30 13861 C 1338.96 -3.68236 -3.70405 0
M  V30 13862 H 1340.66 -2.29891 -1.91808 0
M  V30 13863 H 1338.2 -1.10661 -0.92142 0
M  V30 13864 H 1340.16 -1.134 -4.05855 0
M  V30 13865 H 1338.88 -0.181043 -3.26098 0
M  V30 13866 H 1337.54 -2.27786 -2.87244 0
M  V30 13867 H 1337.19 -0.922586 -4.94467 0
M  V30 13868 H 1336.89 -2.65309 -5.24294 0
M  V30 13869 H 1338.41 -1.90602 -5.80089 0
M  V30 13870 H 1339.83 -3.68655 -4.39052 0
M  V30 13871 H 1338.22 -4.4099 -4.06999 0
M  V30 13872 H 1339.29 -4.02021 -2.71122 0
M  V30 13873 N 1340.64 0.999871 -1.21821 0
M  V30 13874 C 1341.55 2.12303 -0.99823 0
M  V30 13875 C 1342.56 1.73924 0.0512923 0
M  V30 13876 O 1343.74 2.00914 -0.139895 0
M  V30 13877 C 1340.8 3.41962 -0.571232 0
M  V30 13878 C 1339.86 3.94483 -1.69356 0
M  V30 13879 C 1339.1 5.17954 -1.28685 0
M  V30 13880 O 1339.32 5.70168 -0.162641 0
M  V30 13881 O 1338.25 5.64051 -2.10071 0
M  V30 13882 H 1342.08 2.3374 -1.93905 0
M  V30 13883 H 1339.67 1.10677 -1.00354 0
M  V30 13884 H 1341.55 4.20001 -0.343134 0
M  V30 13885 H 1340.22 3.21901 0.340814 0
M  V30 13886 H 1339.13 3.17648 -1.97612 0
M  V30 13887 H 1340.46 4.18964 -2.58322 0
M  V30 13888 N 1342.11 1.02678 1.19562 0
M  V30 13889 C 1343.36 0.722016 1.89191 0
M  V30 13890 C 1343.69 -0.749217 1.79491 0
M  V30 13891 O 1342.94 -1.56105 1.18025 0
M  V30 13892 C 1343.24 1.11603 3.39529 0
M  V30 13893 C 1342.91 2.58518 3.69431 0
M  V30 13894 C 1341.57 2.98658 3.77302 0
M  V30 13895 C 1343.92 3.53579 3.82925 0
M  V30 13896 C 1341.25 4.32776 3.96134 0
M  V30 13897 C 1343.6 4.87398 4.0327 0
M  V30 13898 C 1342.27 5.27229 4.09373 0
M  V30 13899 H 1341.54 0.264204 0.692298 0
M  V30 13900 H 1344.18 1.28924 1.41601 0
M  V30 13901 H 1342.49 0.467374 3.89002 0
M  V30 13902 H 1344.19 0.857771 3.91718 0
M  V30 13903 H 1340.78 2.26421 3.63911 0
M  V30 13904 H 1344.96 3.23721 3.76189 0
M  V30 13905 H 1340.22 4.63175 3.99098 0
M  V30 13906 H 1344.39 5.60973 4.12653 0
M  V30 13907 H 1342.02 6.31164 4.23718 0
M  V30 13908 N 1343.59 -1.35528 0.804364 0
M  V30 13909 C 1344.54 -2.29832 0.211186 0
M  V30 13910 C 1345.51 -1.52704 -0.653503 0
M  V30 13911 O 1346.69 -1.81152 -0.599052 0
M  V30 13912 C 1343.83 -3.39188 -0.636054 0
M  V30 13913 C 1342.95 -4.31283 0.248824 0
M  V30 13914 C 1342.08 -5.2773 -0.60621 0
M  V30 13915 C 1341.12 -6.11463 0.279205 0
M  V30 13916 N 1340.26 -7.00054 -0.535672 0
M  V30 13917 H 1345.1 -2.79971 1.0208 0
M  V30 13918 H 1342.64 -1.37793 0.514931 0
M  V30 13919 H 1344.59 -4.01254 -1.14241 0
M  V30 13920 H 1343.22 -2.90331 -1.41095 0
M  V30 13921 H 1342.28 -3.70241 0.873263 0
M  V30 13922 H 1343.59 -4.90046 0.930417 0
M  V30 13923 H 1342.74 -5.95158 -1.17778 0
M  V30 13924 H 1341.48 -4.69458 -1.32138 0
M  V30 13925 H 1340.49 -5.42984 0.863066 0
M  V30 13926 H 1341.71 -6.71813 0.9922 0
M  V30 13927 H 1339.66 -6.44273 -1.23486 0
M  V30 13928 H 1339.57 -7.55949 0.0879213 0
M  V30 13929 H 1340.84 -7.71833 -1.09059 0
M  V30 13930 N 1345.07 -0.557671 -1.47404 0
M  V30 13931 C 1346.3 -0.0386038 -2.06564 0
M  V30 13932 C 1346.71 1.26075 -1.41074 0
M  V30 13933 O 1346.05 1.76723 -0.501453 0
M  V30 13934 C 1346.11 0.22746 -3.5878 0
M  V30 13935 C 1345.78 -0.982526 -4.46313 0
M  V30 13936 C 1346.78 -1.88821 -4.84399 0
M  V30 13937 C 1344.46 -1.19733 -4.87821 0
M  V30 13938 C 1346.45 -2.99238 -5.62793 0
M  V30 13939 C 1344.14 -2.30459 -5.65979 0
M  V30 13940 C 1345.14 -3.20042 -6.03375 0
M  V30 13941 O 1344.83 -4.28849 -6.79959 0
M  V30 13942 H 1344.56 -0.0430229 -0.67463 0
M  V30 13943 H 1347.11 -0.770801 -1.90389 0
M  V30 13944 H 1345.34 1.01397 -3.73169 0
M  V30 13945 H 1347.03 0.691966 -3.99958 0
M  V30 13946 H 1347.8 -1.73431 -4.52931 0
M  V30 13947 H 1343.68 -0.509223 -4.58179 0
M  V30 13948 H 1347.22 -3.69187 -5.91901 0
M  V30 13949 H 1343.12 -2.45821 -5.9686 0
M  V30 13950 H 1343.89 -4.26903 -6.98353 0
M  V30 13951 N 1346.55 1.54831 -0.294147 0
M  V30 13952 C 1347.96 1.85627 0.199866 0
M  V30 13953 C 1348.31 1.21613 1.53964 0
M  V30 13954 O 1347.44 0.511317 2.10272 0
M  V30 13955 C 1348.03 3.3678 0.369428 0
M  V30 13956 C 1346.59 3.67633 0.807663 0
M  V30 13957 C 1345.74 2.7716 -0.0880078 0
M  V30 13958 H 1348.69 1.50099 -0.515371 0
M  V30 13959 H 1348.71 3.60913 1.20508 0
M  V30 13960 H 1348.22 3.83342 -0.605831 0
M  V30 13961 H 1346.32 3.26583 1.79372 0
M  V30 13962 H 1346.44 4.74916 0.631799 0
M  V30 13963 H 1344.8 2.51017 0.431553 0
M  V30 13964 H 1345.58 3.26542 -1.0595 0
M  V30 13965 N 1348.03 0.0217466 1.57585 0
M  V30 13966 C 1348.99 -0.947546 2.08696 0
M  V30 13967 C 1349.99 -1.25879 1.00055 0
M  V30 13968 O 1351.18 -1.20035 1.26242 0
M  V30 13969 C 1348.31 -2.26624 2.54665 0
M  V30 13970 H 1349.51 -0.505016 2.95617 0
M  V30 13971 H 1347.06 -0.226152 1.54655 0
M  V30 13972 H 1347.79 -2.75521 1.71052 0
M  V30 13973 H 1347.58 -2.05347 3.34028 0
M  V30 13974 H 1349.07 -2.96114 2.94459 0
M  V30 13975 N 1349.51 -1.55583 -0.251311 0
M  V30 13976 C 1350.75 -1.76859 -0.978031 0
M  V30 13977 C 1351.07 -0.584924 -1.86021 0
M  V30 13978 O 1350.34 0.399456 -1.91784 0
M  V30 13979 H 1348.92 -0.652252 -0.364111 0
M  V30 13980 H 1351.59 -1.93016 -0.270319 0
M  V30 13981 H 1350.68 -2.67828 -1.60233 0
M  V30 13982 N 1350.98 0.516783 -1.48886 0
M  V30 13983 C 1351.93 1.61653 -1.60786 0
M  V30 13984 C 1352.92 1.54056 -0.464271 0
M  V30 13985 O 1354.11 1.61853 -0.716412 0
M  V30 13986 C 1351.24 3.0033 -1.66304 0
M  V30 13987 C 1350.32 3.12982 -2.86187 0
M  V30 13988 N 1350.72 2.95568 -4.10455 0
M  V30 13989 C 1349.01 3.44059 -2.83795 0
M  V30 13990 C 1349.71 3.11986 -4.90958 0
M  V30 13991 N 1348.69 3.40156 -4.24022 0
M  V30 13992 H 1352.49 1.4682 -2.546 0
M  V30 13993 H 1350.01 0.722555 -1.4544 0
M  V30 13994 H 1352 3.79345 -1.72924 0
M  V30 13995 H 1350.66 3.16245 -0.736158 0
M  V30 13996 H 1351.67 2.72062 -4.40684 0
M  V30 13997 H 1348.35 3.66249 -2.0042 0
M  V30 13998 H 1349.74 3.03149 -5.99625 0
M  V30 13999 N 1352.46 1.37696 0.766659 0
M  V30 14000 C 1353.71 1.32922 1.52237 0
M  V30 14001 C 1354.03 -0.0842833 1.94818 0
M  V30 14002 O 1353.3 -1.02934 1.66677 0
M  V30 14003 H 1351.88 0.489049 0.564659 0
M  V30 14004 H 1354.54 1.72238 0.912142 0
M  V30 14005 H 1353.64 1.97158 2.4194 0
M  V30 14006 N 1353.94 -0.993397 1.22349 0
M  V30 14007 C 1355.16 -1.77373 1.07488 0
M  V30 14008 C 1355.59 -1.84418 -0.37034 0
M  V30 14009 O 1354.95 -1.29629 -1.26752 0
M  V30 14010 C 1355 -3.18538 1.69014 0
M  V30 14011 O 1354.1 -4.01463 0.943474 0
M  V30 14012 H 1353.44 -0.546209 0.37756 0
M  V30 14013 H 1355.97 -1.24792 1.62136 0
M  V30 14014 H 1355.98 -3.6917 1.73717 0
M  V30 14015 H 1354.66 -3.12725 2.74182 0
M  V30 14016 H 1353.23 -3.59998 0.972415 0
M  V30 14017 N 1355.42 -1.03311 -1.19015 0
M  V30 14018 C 1356.38 -0.622114 -2.20596 0
M  V30 14019 C 1357.38 0.316502 -1.57654 0
M  V30 14020 O 1358.57 0.102932 -1.73896 0
M  V30 14021 C 1355.7 0.0890432 -3.40784 0
M  V30 14022 H 1356.9 -1.52095 -2.58471 0
M  V30 14023 H 1354.45 -0.824777 -1.32767 0
M  V30 14024 H 1355.18 1.00203 -3.08431 0
M  V30 14025 H 1354.97 -0.58547 -3.87704 0
M  V30 14026 H 1356.46 0.363366 -4.16016 0
M  V30 14027 N 1356.9 1.35099 -0.81154 0
M  V30 14028 C 1358.12 2.03391 -0.405805 0
M  V30 14029 C 1358.55 1.60745 0.97686 0
M  V30 14030 O 1357.9 0.786518 1.63351 0
M  V30 14031 C 1357.95 3.57075 -0.502954 0
M  V30 14032 O 1357.06 4.09577 0.481681 0
M  V30 14033 H 1356.4 0.642203 -0.168733 0
M  V30 14034 H 1358.93 1.72591 -1.0988 0
M  V30 14035 H 1358.94 4.06277 -0.37456 0
M  V30 14036 H 1357.61 3.87463 -1.51145 0
M  V30 14037 H 1356.19 3.71583 0.313115 0
M  V30 14038 N 1358.37 0.56548 1.47106 0
M  V30 14039 C 1359.28 -0.180488 2.33905 0
M  V30 14040 C 1360.3 -0.90355 1.48701 0
M  V30 14041 O 1361.48 -0.870595 1.81611 0
M  V30 14042 C 1358.54 -1.19212 3.2556 0
M  V30 14043 C 1357.6 -0.475589 4.26658 0
M  V30 14044 C 1356.83 -1.43902 5.13934 0
M  V30 14045 O 1357.06 -2.67443 5.03816 0
M  V30 14046 O 1355.99 -0.958998 5.94211 0
M  V30 14047 H 1359.82 0.531726 2.99009 0
M  V30 14048 H 1357.4 0.32602 1.45799 0
M  V30 14049 H 1359.28 -1.77586 3.82153 0
M  V30 14050 H 1357.96 -1.8861 2.63074 0
M  V30 14051 H 1356.87 0.149561 3.73801 0
M  V30 14052 H 1358.2 0.177103 4.91881 0
M  V30 14053 N 1359.85 -1.54672 0.302354 0
M  V30 14054 C 1361.08 -2.05041 -0.311891 0
M  V30 14055 C 1361.5 -1.17814 -1.46634 0
M  V30 14056 O 1360.86 -0.182517 -1.80379 0
M  V30 14057 C 1360.91 -3.52831 -0.744489 0
M  V30 14058 O 1360.01 -3.68621 -1.84913 0
M  V30 14059 H 1359.35 -0.661255 -0.0603102 0
M  V30 14060 H 1361.88 -1.99711 0.444593 0
M  V30 14061 H 1361.89 -3.94708 -1.03293 0
M  V30 14062 H 1360.57 -4.1578 0.0999976 0
M  V30 14063 H 1359.15 -3.38649 -1.56113 0
M  V30 14064 N 1361.33 -0.0301034 -1.57571 0
M  V30 14065 C 1362.24 0.967086 -2.1374 0
M  V30 14066 C 1363.26 1.35636 -1.0899 0
M  V30 14067 O 1364.43 1.43758 -1.41052 0
M  V30 14068 C 1361.5 2.23058 -2.65417 0
M  V30 14069 C 1360.56 1.90163 -3.84885 0
M  V30 14070 C 1359.79 3.10488 -4.34088 0
M  V30 14071 O 1360.01 4.23179 -3.8246 0
M  V30 14072 O 1358.95 2.92729 -5.25921 0
M  V30 14073 H 1362.77 0.519486 -2.99224 0
M  V30 14074 H 1360.36 0.190559 -1.4818 0
M  V30 14075 H 1362.24 2.97229 -2.98719 0
M  V30 14076 H 1360.92 2.66997 -1.83015 0
M  V30 14077 H 1359.82 1.13373 -3.56507 0
M  V30 14078 H 1361.16 1.51039 -4.68453 0
M  V30 14079 N 1362.81 1.55714 0.243056 0
M  V30 14080 C 1363.76 1.87031 1.30397 0
M  V30 14081 C 1364.74 0.731497 1.43311 0
M  V30 14082 O 1365.93 0.9935 1.46487 0
M  V30 14083 C 1363.06 2.17185 2.65868 0
M  V30 14084 C 1362.15 3.37403 2.56944 0
M  V30 14085 N 1362.54 4.56575 2.17653 0
M  V30 14086 C 1360.84 3.4059 2.87949 0
M  V30 14087 C 1361.54 5.38715 2.19455 0
M  V30 14088 N 1360.52 4.77875 2.59108 0
M  V30 14089 H 1364.32 2.76697 0.990755 0
M  V30 14090 H 1361.83 1.55992 0.451675 0
M  V30 14091 H 1363.83 2.37787 3.42437 0
M  V30 14092 H 1362.49 1.28819 2.98053 0
M  V30 14093 H 1363.5 4.82129 1.89134 0
M  V30 14094 H 1360.18 2.62506 3.24648 0
M  V30 14095 H 1361.57 6.44066 1.91385 0
M  V30 14096 N 1364.29 -0.50888 1.49158 0
M  V30 14097 C 1365.7 -0.839353 1.35746 0
M  V30 14098 C 1365.9 -1.97797 0.38453 0
M  V30 14099 O 1364.96 -2.51809 -0.186651 0
M  V30 14100 C 1366.27 -1.18698 2.76281 0
M  V30 14101 C 1367.82 -1.29565 2.84924 0
M  V30 14102 C 1368.29 -1.67661 4.26209 0
M  V30 14103 N 1369.79 -1.74725 4.28982 0
M  V30 14104 C 1370.52 -2.05631 5.3526 0
M  V30 14105 N 1370.02 -2.34814 6.51793 0
M  V30 14106 N 1371.81 -2.06815 5.2267 0
M  V30 14107 H 1363.96 0.242065 2.11016 0
M  V30 14108 H 1366.22 0.0456901 0.946898 0
M  V30 14109 H 1365.93 -0.423769 3.49138 0
M  V30 14110 H 1365.8 -2.13227 3.11149 0
M  V30 14111 H 1368.19 -2.0496 2.1231 0
M  V30 14112 H 1368.27 -0.331059 2.53649 0
M  V30 14113 H 1367.92 -0.928198 4.99346 0
M  V30 14114 H 1367.85 -2.65207 4.54943 0
M  V30 14115 H 1370.34 -1.54364 3.44935 0
M  V30 14116 H 1370.65 -2.57562 7.28616 0
M  V30 14117 H 1368.99 -2.32288 6.55032 0
M  V30 14118 H 1372.19 -1.83487 4.30639 0
M  V30 14119 H 1372.36 -2.30568 6.05593 0
M  V30 14120 N 1365.76 -1.381 -0.759346 0
M  V30 14121 C 1366.99 -1.37389 -1.55367 0
M  V30 14122 C 1367.41 0.0356097 -1.88066 0
M  V30 14123 O 1366.77 1.0161 -1.5015 0
M  V30 14124 C 1366.82 -2.23098 -2.83302 0
M  V30 14125 O 1365.92 -1.64412 -3.7821 0
M  V30 14126 H 1365.27 -0.468894 -0.470143 0
M  V30 14127 H 1367.8 -1.81787 -0.938858 0
M  V30 14128 H 1367.81 -2.36753 -3.32283 0
M  V30 14129 H 1366.48 -3.25544 -2.58831 0
M  V30 14130 H 1365.06 -1.59867 -3.36893 0
M  V30 14131 N 1367.24 0.986894 -1.22875 0
M  V30 14132 C 1368.49 1.73071 -1.06856 0
M  V30 14133 C 1368.84 1.88376 0.39143 0
M  V30 14134 O 1368.14 1.42022 1.28609 0
M  V30 14135 C 1368.33 3.13283 -1.72012 0
M  V30 14136 C 1368.16 3.11652 -3.24196 0
M  V30 14137 C 1366.93 3.17207 -3.93329 0
M  V30 14138 C 1369.13 2.9533 -4.21052 0
M  V30 14139 N 1367.11 3.05393 -5.32549 0
M  V30 14140 C 1368.48 2.91609 -5.47142 0
M  V30 14141 C 1370.54 2.79766 -4.11868 0
M  V30 14142 C 1369.24 2.73917 -6.65103 0
M  V30 14143 C 1371.26 2.63437 -5.29486 0
M  V30 14144 C 1370.63 2.60408 -6.54498 0
M  V30 14145 H 1366.73 0.642696 -0.445495 0
M  V30 14146 H 1369.31 1.17158 -1.55506 0
M  V30 14147 H 1367.48 3.67427 -1.25904 0
M  V30 14148 H 1369.21 3.76261 -1.4903 0
M  V30 14149 H 1365.97 3.25129 -3.44366 0
M  V30 14150 H 1366.39 3.02779 -6.0552 0
M  V30 14151 H 1371.03 2.80903 -3.15996 0
M  V30 14152 H 1368.75 2.71526 -7.61117 0
M  V30 14153 H 1372.34 2.52367 -5.24216 0
M  V30 14154 H 1371.22 2.47928 -7.43977 0
M  V30 14155 N 1368.72 1.0394 1.18466 0
M  V30 14156 C 1369.68 0.633804 2.20262 0
M  V30 14157 C 1370.68 -0.308136 1.5782 0
M  V30 14158 O 1371.87 -0.0937087 1.73948 0
M  V30 14159 C 1369.01 -0.0709693 3.40826 0
M  V30 14160 H 1370.2 1.53463 2.57661 0
M  V30 14161 H 1367.75 0.831806 1.32328 0
M  V30 14162 H 1368.49 -0.985659 3.08958 0
M  V30 14163 H 1368.27 0.606023 3.87388 0
M  V30 14164 H 1369.76 -0.341298 4.16203 0
M  V30 14165 N 1370.2 -1.34667 0.818693 0
M  V30 14166 C 1371.61 -1.51436 0.503921 0
M  V30 14167 C 1371.81 -1.76468 -0.972691 0
M  V30 14168 O 1370.87 -1.81314 -1.75731 0
M  V30 14169 C 1372.18 -2.68198 1.35978 0
M  V30 14170 C 1373.73 -2.8208 1.35647 0
M  V30 14171 C 1374.21 -4.01881 2.19672 0
M  V30 14172 N 1375.7 -4.0908 2.17273 0
M  V30 14173 C 1376.43 -5.00925 2.79038 0
M  V30 14174 N 1375.93 -5.9802 3.49777 0
M  V30 14175 N 1377.72 -4.93764 2.68615 0
M  V30 14176 H 1369.87 -1.16677 1.77483 0
M  V30 14177 H 1372.14 -0.571873 0.756085 0
M  V30 14178 H 1371.84 -2.56317 2.4082 0
M  V30 14179 H 1371.72 -3.63105 1.0215 0
M  V30 14180 H 1374.1 -2.93405 0.315849 0
M  V30 14181 H 1374.18 -1.87994 1.7347 0
M  V30 14182 H 1373.83 -3.91316 3.23781 0
M  V30 14183 H 1373.76 -4.95171 1.79202 0
M  V30 14184 H 1376.25 -3.3958 1.65814 0
M  V30 14185 H 1376.56 -6.64722 3.94162 0
M  V30 14186 H 1374.91 -5.98157 3.53883 0
M  V30 14187 H 1378.1 -4.16868 2.12929 0
M  V30 14188 H 1378.27 -5.65147 3.17038 0
M  V30 14189 N 1371.68 -0.573274 -1.46804 0
M  V30 14190 C 1372.59 0.168081 -2.33997 0
M  V30 14191 C 1373.6 0.895652 -1.49178 0
M  V30 14192 O 1374.78 0.860951 -1.8207 0
M  V30 14193 C 1371.84 1.17483 -3.26188 0
M  V30 14194 C 1370.9 0.452956 -4.26904 0
M  V30 14195 C 1370.14 1.41175 -5.1469 0
M  V30 14196 O 1370.36 2.64767 -5.05227 0
M  V30 14197 O 1369.29 0.927472 -5.94711 0
M  V30 14198 H 1373.12 -0.547576 -2.98723 0
M  V30 14199 H 1370.71 -0.333747 -1.45624 0
M  V30 14200 H 1372.59 1.75557 -3.8309 0
M  V30 14201 H 1371.26 1.87213 -2.6407 0
M  V30 14202 H 1370.17 -0.169383 -3.73716 0
M  V30 14203 H 1371.5 -0.203186 -4.9178 0
M  V30 14204 N 1373.15 1.5451 -0.310553 0
M  V30 14205 C 1374.38 2.05204 0.301013 0
M  V30 14206 C 1374.8 1.1859 1.46007 0
M  V30 14207 O 1374.16 0.192081 1.8028 0
M  V30 14208 C 1374.21 3.53221 0.725767 0
M  V30 14209 O 1373.31 3.69596 1.82955 0
M  V30 14210 H 1372.66 0.661566 0.0568026 0
M  V30 14211 H 1375.19 1.99473 -0.455178 0
M  V30 14212 H 1375.2 3.9525 1.01198 0
M  V30 14213 H 1373.87 4.15721 -0.122046 0
M  V30 14214 H 1372.45 3.39472 1.54315 0
M  V30 14215 N 1374.63 0.0384594 1.57553 0
M  V30 14216 C 1375.58 -0.940256 2.10779 0
M  V30 14217 C 1376.55 -1.31705 1.01208 0
M  V30 14218 O 1377.74 -1.40874 1.28683 0
M  V30 14219 C 1374.88 -2.21419 2.64703 0
M  V30 14220 C 1373.99 -1.89302 3.88315 0
M  V30 14221 C 1373.12 -3.1106 4.30599 0
M  V30 14222 C 1372.16 -2.74805 5.46945 0
M  V30 14223 N 1371.3 -3.89217 5.84341 0
M  V30 14224 H 1376.14 -0.479458 2.94118 0
M  V30 14225 H 1373.68 -0.22505 1.45368 0
M  V30 14226 H 1375.63 -2.95946 2.94061 0
M  V30 14227 H 1374.26 -2.65099 1.84181 0
M  V30 14228 H 1373.32 -1.04977 3.65628 0
M  V30 14229 H 1374.63 -1.58607 4.72912 0
M  V30 14230 H 1373.78 -3.93898 4.61442 0
M  V30 14231 H 1372.52 -3.44924 3.44788 0
M  V30 14232 H 1371.53 -1.9038 5.15786 0
M  V30 14233 H 1372.75 -2.42147 6.34462 0
M  V30 14234 H 1370.7 -4.22905 5.01485 0
M  V30 14235 H 1370.61 -3.62177 6.63599 0
M  V30 14236 H 1371.88 -4.72732 6.19794 0
M  V30 14237 N 1376.11 -1.55841 -0.234795 0
M  V30 14238 C 1377.34 -1.82649 -0.982547 0
M  V30 14239 C 1377.76 -0.617097 -1.77689 0
M  V30 14240 O 1377.12 0.434022 -1.76028 0
M  V30 14241 C 1377.17 -3.07319 -1.88646 0
M  V30 14242 O 1376.27 -2.85084 -2.97995 0
M  V30 14243 H 1375.61 -0.60257 -0.278936 0
M  V30 14244 H 1378.14 -2.03041 -0.252117 0
M  V30 14245 H 1378.15 -3.37073 -2.29882 0
M  V30 14246 H 1376.83 -3.94978 -1.30251 0
M  V30 14247 H 1375.4 -2.66528 -2.60801 0
M  V30 14248 N 1377.59 0.500963 -1.49426 0
M  V30 14249 C 1378.84 1.25509 -1.58915 0
M  V30 14250 C 1379.16 1.92534 -0.275868 0
M  V30 14251 O 1378.42 1.81324 0.736212 0
M  V30 14252 C 1378.72 2.34448 -2.69757 0
M  V30 14253 C 1378.38 1.8488 -4.11254 0
M  V30 14254 C 1377.05 1.71081 -4.49761 0
M  V30 14255 C 1379.4 1.4778 -4.9981 0
M  V30 14256 C 1376.73 1.18561 -5.74596 0
M  V30 14257 C 1379.08 0.967118 -6.25164 0
M  V30 14258 C 1377.74 0.815523 -6.62499 0
M  V30 14259 H 1377.01 0.459268 -0.58151 0
M  V30 14260 H 1379.66 0.555817 -1.83256 0
M  V30 14261 H 1377.96 3.10163 -2.39387 0
M  V30 14262 H 1379.66 2.925 -2.74308 0
M  V30 14263 H 1376.25 1.9658 -3.8086 0
M  V30 14264 H 1380.44 1.57288 -4.70717 0
M  V30 14265 H 1375.69 1.05536 -6.02223 0
M  V30 14266 H 1379.87 0.670857 -6.93161 0
M  V30 14267 H 1377.49 0.406375 -7.59113 0
M  V30 14268 N 1379.07 1.38501 0.752011 0
M  V30 14269 C 1380.02 1.35975 1.88716 0
M  V30 14270 C 1381.01 0.245392 1.67613 0
M  V30 14271 O 1382.22 0.414514 1.75162 0
M  V30 14272 H 1378.59 0.424221 0.620919 0
M  V30 14273 H 1380.56 2.3176 1.87962 0
M  V30 14274 C 1379.31 1.20326 3.26216 0
M  V30 14275 H 1378.63 2.05336 3.43041 0
M  V30 14276 H 1380.07 1.22613 4.05884 0
M  V30 14277 C 1378.53 -0.0897029 3.36781 0
M  V30 14278 O 1379.06 -1.06615 3.87293 0
M  V30 14279 N 1377.27 -0.147065 2.90228 0
M  V30 14280 H 1376.82 0.648216 2.49311 0
M  V30 14281 H 1376.77 -1.01174 2.97676 0
M  V30 14282 N 1380.55 -0.980364 1.23396 0
M  V30 14283 C 1381.79 -1.72421 1.06765 0
M  V30 14284 C 1382.12 -1.90151 -0.394515 0
M  V30 14285 O 1381.4 -1.4538 -1.29209 0
M  V30 14286 C 1381.68 -3.12246 1.79372 0
M  V30 14287 C 1381.54 -3.02087 3.33262 0
M  V30 14288 C 1382.85 -4.11667 1.55624 0
M  V30 14289 H 1379.97 -0.625822 0.389251 0
M  V30 14290 H 1382.62 -1.14132 1.51901 0
M  V30 14291 H 1380.77 -3.62008 1.41004 0
M  V30 14292 H 1382.44 -2.59848 3.81152 0
M  V30 14293 H 1380.68 -2.38592 3.62293 0
M  V30 14294 H 1381.35 -4.01087 3.79254 0
M  V30 14295 H 1383.83 -3.70712 1.88975 0
M  V30 14296 H 1382.7 -5.07593 2.08902 0
M  V30 14297 H 1382.96 -4.39358 0.491601 0
M  V30 14298 N 1382.02 -1.04567 -1.17913 0
M  V30 14299 C 1382.95 -0.662066 -2.23917 0
M  V30 14300 C 1383.93 0.33713 -1.66726 0
M  V30 14301 O 1385.12 0.216116 -1.92994 0
M  V30 14302 C 1382.25 -0.029463 -3.47288 0
M  V30 14303 C 1381.2 -0.95274 -4.17261 0
M  V30 14304 C 1380.53 -0.184347 -5.34382 0
M  V30 14305 C 1381.83 -2.2741 -4.70194 0
M  V30 14306 H 1383.52 -1.54826 -2.5626 0
M  V30 14307 H 1381.07 -0.745886 -1.23177 0
M  V30 14308 H 1383.02 0.250654 -4.20654 0
M  V30 14309 H 1381.75 0.891638 -3.14193 0
M  V30 14310 H 1380.41 -1.21732 -3.45799 0
M  V30 14311 H 1380.05 0.73932 -4.97537 0
M  V30 14312 H 1379.75 -0.79949 -5.82136 0
M  V30 14313 H 1381.28 0.0886344 -6.10536 0
M  V30 14314 H 1382.69 -2.05433 -5.35229 0
M  V30 14315 H 1381.09 -2.84265 -5.28501 0
M  V30 14316 H 1382.16 -2.91708 -3.87342 0
M  V30 14317 N 1383.5 1.34231 -0.825823 0
M  V30 14318 C 1384.45 2.29467 -0.247724 0
M  V30 14319 C 1385.42 1.53724 0.629127 0
M  V30 14320 O 1386.6 1.82082 0.570156 0
M  V30 14321 C 1383.74 3.40157 0.582012 0
M  V30 14322 C 1382.86 4.30832 -0.317406 0
M  V30 14323 C 1381.99 5.28627 0.522176 0
M  V30 14324 C 1381.03 6.10941 -0.376448 0
M  V30 14325 N 1380.17 7.00817 0.424232 0
M  V30 14326 H 1385.01 2.78311 -1.06521 0
M  V30 14327 H 1382.54 1.36956 -0.536788 0
M  V30 14328 H 1384.5 4.03021 1.07843 0
M  V30 14329 H 1383.13 2.92539 1.36459 0
M  V30 14330 H 1382.18 3.68805 -0.932054 0
M  V30 14331 H 1383.5 4.88503 -1.00826 0
M  V30 14332 H 1382.65 5.96957 1.08295 0
M  V30 14333 H 1381.39 4.71501 1.24652 0
M  V30 14334 H 1380.39 5.41542 -0.94934 0
M  V30 14335 H 1381.62 6.70149 -1.09895 0
M  V30 14336 H 1379.57 6.46156 1.1322 0
M  V30 14337 H 1379.48 7.55713 -0.208175 0
M  V30 14338 H 1380.75 7.7347 0.967664 0
M  V30 14339 N 1384.98 0.581051 1.46498 0
M  V30 14340 C 1385.91 -0.19094 2.28403 0
M  V30 14341 C 1386.92 -0.857039 1.38415 0
M  V30 14342 O 1388.11 -0.726881 1.6303 0
M  V30 14343 C 1385.21 -1.28972 3.134 0
M  V30 14344 C 1384.39 -0.715867 4.31502 0
M  V30 14345 C 1383.45 -1.70215 4.97909 0
M  V30 14346 O 1382.47 -1.23885 5.55555 0
M  V30 14347 N 1383.67 -3.0362 4.94768 0
M  V30 14348 H 1386.44 0.511754 2.95298 0
M  V30 14349 H 1384 0.41871 1.56392 0
M  V30 14350 H 1385.99 -1.94877 3.5469 0
M  V30 14351 H 1384.56 -1.8953 2.4859 0
M  V30 14352 H 1383.78 0.120591 3.94016 0
M  V30 14353 H 1385.07 -0.312226 5.07841 0
M  V30 14354 H 1384.47 -3.43885 4.49177 0
M  V30 14355 H 1383.02 -3.65018 5.40005 0
M  V30 14356 N 1386.46 -1.54343 0.318742 0
M  V30 14357 C 1387.39 -2.27118 -0.542206 0
M  V30 14358 C 1388.37 -1.27731 -1.12334 0
M  V30 14359 O 1389.55 -1.56535 -1.14937 0
M  V30 14360 C 1386.68 -3.02535 -1.70558 0
M  V30 14361 C 1385.64 -4.09218 -1.25398 0
M  V30 14362 C 1384.96 -4.72449 -2.50391 0
M  V30 14363 C 1386.26 -5.20971 -0.372332 0
M  V30 14364 H 1387.96 -2.9933 0.0648226 0
M  V30 14365 H 1385.5 -1.43963 0.0326168 0
M  V30 14366 H 1387.46 -3.52174 -2.31412 0
M  V30 14367 H 1386.18 -2.27931 -2.33912 0
M  V30 14368 H 1384.84 -3.60455 -0.668392 0
M  V30 14369 H 1384.49 -3.94466 -3.12099 0
M  V30 14370 H 1384.19 -5.4451 -2.20868 0
M  V30 14371 H 1385.71 -5.2486 -3.12016 0
M  V30 14372 H 1387.13 -5.66396 -0.887029 0
M  V30 14373 H 1385.52 -5.99859 -0.17009 0
M  V30 14374 H 1386.59 -4.81198 0.598064 0
M  V30 14375 N 1387.94 -0.0468143 -1.5753 0
M  V30 14376 C 1388.87 0.927092 -2.14306 0
M  V30 14377 C 1389.85 1.32745 -1.06362 0
M  V30 14378 O 1391.03 1.40293 -1.34281 0
M  V30 14379 C 1388.16 2.20343 -2.68452 0
M  V30 14380 C 1387.12 1.94328 -3.81341 0
M  V30 14381 C 1386.44 3.28379 -4.21985 0
M  V30 14382 C 1387.74 1.26835 -5.06666 0
M  V30 14383 H 1389.44 0.454199 -2.95935 0
M  V30 14384 H 1386.98 0.217029 -1.42355 0
M  V30 14385 H 1388.93 2.8887 -3.0681 0
M  V30 14386 H 1387.66 2.6983 -1.84009 0
M  V30 14387 H 1386.32 1.28214 -3.43448 0
M  V30 14388 H 1385.97 3.75658 -3.34499 0
M  V30 14389 H 1385.67 3.11772 -4.98068 0
M  V30 14390 H 1387.19 3.98145 -4.6294 0
M  V30 14391 H 1388.6 1.85389 -5.42498 0
M  V30 14392 H 1387 1.20569 -5.87863 0
M  V30 14393 H 1388.07 0.243759 -4.84287 0
M  V30 14394 N 1389.41 1.55964 0.226527 0
M  V30 14395 C 1390.34 1.95028 1.284 0
M  V30 14396 C 1391.33 0.817833 1.49149 0
M  V30 14397 O 1392.51 1.07975 1.61416 0
M  V30 14398 C 1389.64 2.26266 2.63478 0
M  V30 14399 C 1388.59 3.41954 2.57393 0
M  V30 14400 C 1387.92 3.58786 3.96456 0
M  V30 14401 C 1389.22 4.77069 2.12608 0
M  V30 14402 H 1390.91 2.83608 0.959513 0
M  V30 14403 H 1388.46 1.36451 0.460125 0
M  V30 14404 H 1390.41 2.52186 3.3761 0
M  V30 14405 H 1389.14 1.34533 2.97604 0
M  V30 14406 H 1387.8 3.16076 1.85719 0
M  V30 14407 H 1387.44 2.64437 4.27881 0
M  V30 14408 H 1387.14 4.36595 3.93267 0
M  V30 14409 H 1388.67 3.87048 4.72256 0
M  V30 14410 H 1390.08 5.02226 2.76481 0
M  V30 14411 H 1388.48 5.58126 2.2049 0
M  V30 14412 H 1389.55 4.7276 1.07823 0
M  V30 14413 N 1390.89 -0.493031 1.4969 0
M  V30 14414 C 1392.12 -1.27517 1.63567 0
M  V30 14415 C 1392.54 -1.85526 0.310105 0
M  V30 14416 O 1391.9 -1.66246 -0.723314 0
M  V30 14417 C 1391.95 -2.37551 2.71296 0
M  V30 14418 O 1391.05 -3.41617 2.31023 0
M  V30 14419 H 1390.39 -0.376116 0.547205 0
M  V30 14420 H 1392.92 -0.589328 1.95929 0
M  V30 14421 H 1392.93 -2.83196 2.93708 0
M  V30 14422 H 1391.61 -1.94697 3.67513 0
M  V30 14423 H 1390.19 -3.01836 2.18974 0
M  V30 14424 N 1392.37 -1.38898 -0.744656 0
M  V30 14425 C 1393.28 -1.39098 -1.88915 0
M  V30 14426 C 1394.3 -0.286956 -1.71617 0
M  V30 14427 O 1395.47 -0.526852 -1.94387 0
M  V30 14428 C 1392.54 -1.22352 -3.24393 0
M  V30 14429 C 1391.6 -2.4264 -3.54153 0
M  V30 14430 C 1390.83 -2.26683 -4.83167 0
M  V30 14431 O 1391.05 -1.26523 -5.56191 0
M  V30 14432 O 1389.99 -3.15464 -5.12607 0
M  V30 14433 H 1393.81 -2.35551 -1.91701 0
M  V30 14434 H 1391.4 -1.19911 -0.891158 0
M  V30 14435 H 1393.28 -1.15109 -4.05374 0
M  V30 14436 H 1391.96 -0.289886 -3.22399 0
M  V30 14437 H 1390.86 -2.55459 -2.73298 0
M  V30 14438 H 1392.2 -3.34664 -3.60917 0
M  V30 14439 N 1393.85 0.973806 -1.23914 0
M  V30 14440 C 1394.8 2.08861 -1.02372 0
M  V30 14441 C 1395.79 1.69354 0.039415 0
M  V30 14442 O 1397 1.79635 -0.114637 0
M  V30 14443 H 1393.37 0.683313 -0.313986 0
M  V30 14444 H 1395.34 2.24195 -1.96924 0
M  V30 14445 C 1394.09 3.41784 -0.638661 0
M  V30 14446 H 1393.41 3.72639 -1.44846 0
M  V30 14447 H 1394.85 4.20706 -0.527487 0
M  V30 14448 C 1393.31 3.30497 0.65369 0
M  V30 14449 O 1393.84 3.63905 1.70107 0
M  V30 14450 N 1392.05 2.83642 0.632104 0
M  V30 14451 H 1391.6 2.56654 -0.220571 0
M  V30 14452 H 1391.55 2.76472 1.49701 0
M  V30 14453 N 1395.33 1.05191 1.17357 0
M  V30 14454 C 1396.57 0.771027 1.893 0
M  V30 14455 C 1396.93 -0.68931 1.792 0
M  V30 14456 O 1398.13 -1.0843 2.4596 0
M  V30 14457 C 1396.4 1.23822 3.35265 0
M  V30 14458 S 1397.96 1.0847 4.25182 0
M  V30 14459 H 1394.78 0.280008 0.653542 0
M  V30 14460 H 1397.38 1.34654 1.41734 0
M  V30 14461 H 1396.09 2.2962 3.40151 0
M  V30 14462 H 1395.62 0.656981 3.87875 0
M  V30 14463 H 1397.63 0.00886614 4.96199 0
M  V30 14464 N 1396.8 -1.33791 0.83293 0
M  V30 14465 C 1398.05 -1.98266 0.426412 0
M  V30 14466 C 1398.38 -1.65848 -1.01035 0
M  V30 14467 O 1397.66 -0.93528 -1.70537 0
M  V30 14468 C 1397.94 -3.54356 0.640586 0
M  V30 14469 C 1397.79 -3.96482 2.12419 0
M  V30 14470 C 1399.11 -4.40022 0.0829237 0
M  V30 14471 H 1396.23 -0.720213 0.156404 0
M  V30 14472 H 1398.87 -1.58527 1.04735 0
M  V30 14473 H 1397.02 -3.88338 0.11204 0
M  V30 14474 H 1398.7 -3.72786 2.71714 0
M  V30 14475 H 1396.94 -3.46429 2.61092 0
M  V30 14476 H 1397.61 -5.05179 2.22482 0
M  V30 14477 H 1400.09 -4.12651 0.534634 0
M  V30 14478 H 1398.96 -5.48272 0.262511 0
M  V30 14479 H 1399.22 -4.30341 -1.01287 0
M  V30 14480 N 1398.28 -0.588812 -1.46187 0
M  V30 14481 C 1399.7 -0.250962 -1.57615 0
M  V30 14482 C 1399.9 1.2467 -1.58302 0
M  V30 14483 O 1398.95 2.02876 -1.50325 0
M  V30 14484 C 1400.27 -0.905561 -2.8674 0
M  V30 14485 C 1401.82 -0.879721 -3.00383 0
M  V30 14486 C 1402.29 -1.51398 -4.32253 0
M  V30 14487 N 1403.78 -1.4786 -4.38967 0
M  V30 14488 C 1404.52 -1.93868 -5.39632 0
M  V30 14489 N 1404.01 -2.47876 -6.46938 0
M  V30 14490 N 1405.81 -1.84748 -5.30872 0
M  V30 14491 H 1397.96 -1.56148 -1.43985 0
M  V30 14492 H 1400.22 -0.653028 -0.68721 0
M  V30 14493 H 1399.93 -1.95935 -2.92066 0
M  V30 14494 H 1399.8 -0.417456 -3.74883 0
M  V30 14495 H 1402.19 0.165466 -2.94636 0
M  V30 14496 H 1402.27 -1.40591 -2.137 0
M  V30 14497 H 1401.91 -2.55839 -4.38758 0
M  V30 14498 H 1401.84 -0.962965 -5.17721 0
M  V30 14499 H 1404.33 -1.08387 -3.62023 0
M  V30 14500 H 1404.65 -2.80824 -7.1997 0
M  V30 14501 H 1402.99 -2.51905 -6.47741 0
M  V30 14502 H 1406.18 -1.42307 -4.45944 0
M  V30 14503 H 1406.35 -2.20919 -6.09179 0
M  V30 14504 N 1399.76 1.54172 -0.326923 0
M  V30 14505 C 1401.04 1.92812 0.329078 0
M  V30 14506 C 1401.42 1.25687 1.69605 0
M  V30 14507 O 1400.77 0.401779 2.2494 0
M  V30 14508 C 1400.98 3.46488 0.417949 0
M  V30 14509 C 1402.32 4.19174 0.67665 0
M  V30 14510 O 1403.35 3.52663 0.500735 0
M  V30 14511 O 1402.21 5.36968 1.01625 0
M  V30 14512 H 1399.3 0.805214 0.188573 0
M  V30 14513 H 1401.85 1.65462 -0.376884 0
M  V30 14514 H 1400.62 3.87528 -0.541986 0
M  V30 14515 H 1400.24 3.79954 1.17136 0
M  V30 14516 N 1401.24 0.0551678 1.57503 0
M  V30 14517 C 1402.17 -0.915714 2.14795 0
M  V30 14518 C 1403.15 -1.32179 1.07065 0
M  V30 14519 O 1404.33 -1.39579 1.35023 0
M  V30 14520 C 1401.46 -2.18916 2.69616 0
M  V30 14521 C 1400.42 -1.92303 3.82366 0
M  V30 14522 C 1399.74 -3.26136 4.23721 0
M  V30 14523 C 1401.04 -1.24146 5.07331 0
M  V30 14524 H 1402.74 -0.438499 2.96171 0
M  V30 14525 H 1400.28 -0.209477 1.42468 0
M  V30 14526 H 1402.24 -2.87239 3.08337 0
M  V30 14527 H 1400.96 -2.6885 1.85437 0
M  V30 14528 H 1399.62 -1.26391 3.44123 0
M  V30 14529 H 1399.27 -3.73879 3.36487 0
M  V30 14530 H 1398.97 -3.09126 4.99715 0
M  V30 14531 H 1400.49 -3.95684 4.65045 0
M  V30 14532 H 1401.91 -1.8251 5.43473 0
M  V30 14533 H 1400.3 -1.17449 5.88494 0
M  V30 14534 H 1401.37 -0.218073 4.84409 0
M  V30 14535 N 1402.72 -1.56081 -0.218252 0
M  V30 14536 C 1403.94 -1.83681 -0.963119 0
M  V30 14537 C 1404.37 -0.635909 -1.77025 0
M  V30 14538 O 1403.72 0.415327 -1.76479 0
M  V30 14539 C 1403.77 -3.09302 -1.85376 0
M  V30 14540 O 1402.88 -2.88228 -2.94955 0
M  V30 14541 H 1402.22 -0.605495 -0.272529 0
M  V30 14542 H 1404.75 -2.03297 -0.230567 0
M  V30 14543 H 1404.76 -3.39493 -2.26294 0
M  V30 14544 H 1403.43 -3.96337 -1.26054 0
M  V30 14545 H 1402.01 -2.69279 -2.57959 0
M  V30 14546 N 1404.2 0.485086 -1.49949 0
M  V30 14547 C 1405.61 1.06629 -1.53255 0
M  V30 14548 C 1405.96 1.9344 -0.327915 0
M  V30 14549 O 1405.08 2.09011 0.560669 0
M  V30 14550 C 1405.68 1.94053 -2.77721 0
M  V30 14551 C 1404.24 2.47307 -2.83754 0
M  V30 14552 C 1403.38 1.25307 -2.47373 0
M  V30 14553 H 1406.33 0.268297 -1.56416 0
M  V30 14554 H 1406.36 2.78946 -2.58784 0
M  V30 14555 H 1405.87 1.30843 -3.65379 0
M  V30 14556 H 1403.97 3.1411 -2.00414 0
M  V30 14557 H 1404.08 2.83371 -3.86313 0
M  V30 14558 H 1402.45 1.5834 -1.99501 0
M  V30 14559 H 1403.23 0.637815 -3.37323 0
M  V30 14560 N 1405.67 1.39291 0.737279 0
M  V30 14561 C 1406.62 1.34321 1.84233 0
M  V30 14562 C 1407.61 0.224489 1.59326 0
M  V30 14563 O 1408.8 0.461832 1.70869 0
M  V30 14564 C 1405.93 1.18676 3.22135 0
M  V30 14565 C 1405.01 2.35239 3.52878 0
M  V30 14566 N 1405.41 3.6071 3.54573 0
M  V30 14567 C 1403.7 2.28147 3.83229 0
M  V30 14568 C 1404.4 4.37778 3.83047 0
M  V30 14569 N 1403.38 3.67336 4.00706 0
M  V30 14570 H 1407.18 2.29299 1.83845 0
M  V30 14571 H 1404.7 1.32755 0.935413 0
M  V30 14572 H 1406.69 1.13199 4.01238 0
M  V30 14573 H 1405.35 0.246461 3.23763 0
M  V30 14574 H 1406.36 3.94164 3.3594 0
M  V30 14575 H 1403.04 1.42366 3.92477 0
M  V30 14576 H 1404.43 5.46525 3.90845 0
M  V30 14577 N 1407.15 -0.967221 1.24429 0
M  V30 14578 C 1408.57 -1.23594 1.00979 0
M  V30 14579 C 1408.77 -1.99529 -0.281112 0
M  V30 14580 O 1407.82 -2.31977 -0.997139 0
M  V30 14581 C 1409.14 -2.02261 2.22511 0
M  V30 14582 C 1410.68 -2.15352 2.2714 0
M  V30 14583 C 1411.16 -2.97414 3.48294 0
M  V30 14584 N 1412.65 -3.04996 3.48614 0
M  V30 14585 C 1413.39 -3.68851 4.39017 0
M  V30 14586 N 1412.88 -4.34421 5.39676 0
M  V30 14587 N 1414.67 -3.65868 4.26728 0
M  V30 14588 H 1406.83 -0.458881 2.07384 0
M  V30 14589 H 1409.09 -0.265411 0.910088 0
M  V30 14590 H 1408.79 -1.53852 3.16263 0
M  V30 14591 H 1408.67 -3.02993 2.24667 0
M  V30 14592 H 1411.06 -2.62964 1.33919 0
M  V30 14593 H 1411.14 -1.13966 2.2901 0
M  V30 14594 H 1410.78 -2.50495 4.41831 0
M  V30 14595 H 1410.71 -3.98998 3.43668 0
M  V30 14596 H 1413.2 -2.58354 2.75793 0
M  V30 14597 H 1413.51 -4.80965 6.04891 0
M  V30 14598 H 1411.86 -4.33089 5.43562 0
M  V30 14599 H 1415.05 -3.13819 3.47325 0
M  V30 14600 H 1415.22 -4.15349 4.97382 0
M  V30 14601 N 1408.63 -1.05812 -1.16797 0
M  V30 14602 C 1409.85 -0.792518 -1.91661 0
M  V30 14603 C 1410.28 0.646598 -1.76637 0
M  V30 14604 O 1409.64 1.44998 -1.08836 0
M  V30 14605 C 1409.69 -1.18585 -3.40544 0
M  V30 14606 O 1408.79 -0.321716 -4.11143 0
M  V30 14607 H 1408.13 -0.290066 -0.597292 0
M  V30 14608 H 1410.66 -1.41263 -1.48007 0
M  V30 14609 H 1410.67 -1.1553 -3.91301 0
M  V30 14610 H 1409.35 -2.23413 -3.50798 0
M  V30 14611 H 1407.92 -0.413403 -3.70601 0
M  V30 14612 N 1410.11 1.33347 -0.840014 0
M  V30 14613 C 1411.06 2.31113 -0.262617 0
M  V30 14614 C 1412.05 1.58189 0.606023 0
M  V30 14615 O 1413.26 1.73047 0.495457 0
M  V30 14616 H 1409.63 0.74908 -0.0662003 0
M  V30 14617 H 1411.6 2.77318 -1.10169 0
M  V30 14618 C 1410.35 3.43377 0.54658 0
M  V30 14619 H 1409.67 3.99642 -0.112514 0
M  V30 14620 H 1411.11 4.13978 0.91641 0
M  V30 14621 C 1409.57 2.89333 1.72592 0
M  V30 14622 O 1410.1 2.85615 2.82466 0
M  V30 14623 N 1408.31 2.45926 1.54819 0
M  V30 14624 H 1407.86 2.49149 0.654404 0
M  V30 14625 H 1407.81 2.10119 2.33875 0
M  V30 14626 N 1411.59 0.596556 1.45873 0
M  V30 14627 C 1412.81 0.0916466 2.07197 0
M  V30 14628 C 1413.24 -1.21004 1.44012 0
M  V30 14629 O 1412.59 -1.73415 0.528844 0
M  V30 14630 C 1412.64 -0.0461457 3.6057 0
M  V30 14631 O 1411.75 -1.09919 3.97481 0
M  V30 14632 H 1411.09 0.0690655 0.660398 0
M  V30 14633 H 1413.62 0.823434 1.87299 0
M  V30 14634 H 1413.63 -0.2479 4.07246 0
M  V30 14635 H 1412.3 0.904381 4.05948 0
M  V30 14636 H 1410.88 -0.874788 3.62494 0
M  V30 14637 N 1413.06 -1.53996 0.335095 0
M  V30 14638 C 1414.31 -2.01069 -0.264388 0
M  V30 14639 C 1414.64 -1.22271 -1.50876 0
M  V30 14640 O 1413.92 -0.30806 -1.92045 0
M  V30 14641 C 1414.2 -3.55283 -0.587 0
M  V30 14642 C 1414.05 -4.44799 0.668877 0
M  V30 14643 C 1415.37 -4.17238 -1.40003 0
M  V30 14644 H 1412.49 -0.730901 -0.0946202 0
M  V30 14645 H 1415.13 -1.84497 0.453958 0
M  V30 14646 H 1413.28 -3.69536 -1.19899 0
M  V30 14647 H 1414.96 -4.42398 1.30698 0
M  V30 14648 H 1413.2 -4.14005 1.29547 0
M  V30 14649 H 1413.87 -5.5056 0.398523 0
M  V30 14650 H 1416.35 -4.06631 -0.88262 0
M  V30 14651 H 1415.22 -5.2523 -1.59451 0
M  V30 14652 H 1415.48 -3.71309 -2.39962 0
M  V30 14653 N 1414.54 -0.0635198 -1.57472 0
M  V30 14654 C 1415.5 0.891881 -2.11135 0
M  V30 14655 C 1416.5 1.23182 -1.03358 0
M  V30 14656 O 1417.69 1.16646 -1.2938 0
M  V30 14657 C 1414.83 2.19792 -2.60584 0
M  V30 14658 H 1416.02 0.426461 -2.96852 0
M  V30 14659 H 1413.57 0.185069 -1.552 0
M  V30 14660 H 1414.31 2.70889 -1.78297 0
M  V30 14661 H 1414.09 1.96419 -3.39355 0
M  V30 14662 H 1415.58 2.88203 -3.02206 0
M  V30 14663 N 1416.02 1.56195 0.209972 0
M  V30 14664 C 1417.3 1.70553 0.957653 0
M  V30 14665 C 1417.68 0.614091 2.01971 0
M  V30 14666 O 1417.02 -0.377192 2.25365 0
M  V30 14667 C 1417.23 3.12314 1.55759 0
M  V30 14668 C 1418.58 3.72085 2.04543 0
M  V30 14669 O 1419.61 3.15349 1.65631 0
M  V30 14670 O 1418.47 4.71627 2.76099 0
M  V30 14671 H 1415.56 0.695077 0.448104 0
M  V30 14672 H 1418.11 1.68507 0.20084 0
M  V30 14673 H 1416.88 3.83215 0.791302 0
M  V30 14674 H 1416.5 3.18526 2.37964 0
M  V30 14675 N 1417.5 -0.477127 1.50204 0
M  V30 14676 C 1418.72 -1.25775 1.6491 0
M  V30 14677 C 1419.15 -1.85187 0.329765 0
M  V30 14678 O 1418.51 -1.67004 -0.705641 0
M  V30 14679 C 1418.55 -2.3466 2.73801 0
M  V30 14680 O 1417.66 -3.39147 2.34634 0
M  V30 14681 H 1417 -0.370291 0.551163 0
M  V30 14682 H 1419.53 -0.568514 1.96543 0
M  V30 14683 H 1419.54 -2.80065 2.96695 0
M  V30 14684 H 1418.21 -1.90788 3.69557 0
M  V30 14685 H 1416.79 -2.99496 2.22163 0
M  V30 14686 N 1418.98 -1.3968 -0.729882 0
M  V30 14687 C 1419.92 -1.38808 -1.84393 0
M  V30 14688 C 1420.89 -0.247035 -1.64253 0
M  V30 14689 O 1422.08 -0.44293 -1.85588 0
M  V30 14690 C 1419.22 -1.2424 -3.2196 0
M  V30 14691 C 1418.33 -2.47932 -3.53771 0
M  V30 14692 C 1417.47 -2.25913 -4.80767 0
M  V30 14693 C 1416.51 -3.45254 -5.05436 0
M  V30 14694 N 1415.64 -3.2252 -6.23638 0
M  V30 14695 H 1420.48 -2.34038 -1.84473 0
M  V30 14696 H 1418.02 -1.16252 -0.901332 0
M  V30 14697 H 1419.98 -1.13804 -4.01378 0
M  V30 14698 H 1418.61 -0.326375 -3.21146 0
M  V30 14699 H 1417.66 -2.68952 -2.69015 0
M  V30 14700 H 1418.97 -3.36806 -3.67917 0
M  V30 14701 H 1418.13 -2.12748 -5.68175 0
M  V30 14702 H 1416.86 -1.34441 -4.68804 0
M  V30 14703 H 1415.87 -3.58912 -4.16488 0
M  V30 14704 H 1417.09 -4.37634 -5.19282 0
M  V30 14705 H 1415.04 -2.33718 -6.12953 0
M  V30 14706 H 1414.96 -4.04954 -6.38395 0
M  V30 14707 H 1416.23 -3.1306 -7.13872 0
M  V30 14708 N 1420.45 0.960609 -1.2494 0
M  V30 14709 C 1421.4 2.05634 -1.04801 0
M  V30 14710 C 1422.37 1.66049 0.0409611 0
M  V30 14711 O 1423.56 1.90453 -0.115053 0
M  V30 14712 C 1420.7 3.38604 -0.666444 0
M  V30 14713 C 1419.81 3.91341 -1.82964 0
M  V30 14714 C 1418.94 5.1261 -1.39299 0
M  V30 14715 C 1417.98 5.57562 -2.52569 0
M  V30 14716 N 1417.12 6.70046 -2.09722 0
M  V30 14717 H 1421.96 2.22194 -1.9858 0
M  V30 14718 H 1419.5 1.08892 -0.988981 0
M  V30 14719 H 1421.46 4.15017 -0.426205 0
M  V30 14720 H 1420.09 3.21948 0.23435 0
M  V30 14721 H 1419.14 3.11502 -2.18335 0
M  V30 14722 H 1420.45 4.20656 -2.68049 0
M  V30 14723 H 1419.6 5.96421 -1.11205 0
M  V30 14724 H 1418.34 4.84997 -0.512779 0
M  V30 14725 H 1417.35 4.72319 -2.81415 0
M  V30 14726 H 1418.57 5.87186 -3.41159 0
M  V30 14727 H 1416.52 6.44153 -1.24109 0
M  V30 14728 H 1416.44 6.98846 -2.88357 0
M  V30 14729 H 1417.7 7.57281 -1.84787 0
M  V30 14730 N 1421.93 1.0643 1.16234 0
M  V30 14731 C 1422.88 0.676311 2.20669 0
M  V30 14732 C 1423.85 -0.327721 1.62835 0
M  V30 14733 O 1425.03 -0.216296 1.8957 0
M  V30 14734 C 1422.17 0.0703726 3.45028 0
M  V30 14735 C 1421.29 1.12475 4.17101 0
M  V30 14736 C 1420.42 0.484806 5.28983 0
M  V30 14737 C 1419.46 1.52262 5.9286 0
M  V30 14738 N 1418.6 0.905938 6.96231 0
M  V30 14739 H 1423.44 1.57129 2.53209 0
M  V30 14740 H 1420.98 0.7856 1.24365 0
M  V30 14741 H 1422.93 -0.298488 4.16131 0
M  V30 14742 H 1421.56 -0.788002 3.13034 0
M  V30 14743 H 1420.62 1.6113 3.44589 0
M  V30 14744 H 1421.93 1.91202 4.60698 0
M  V30 14745 H 1421.08 0.0630553 6.06667 0
M  V30 14746 H 1419.82 -0.334332 4.86553 0
M  V30 14747 H 1418.83 1.95425 5.13896 0
M  V30 14748 H 1420.05 2.34388 6.37369 0
M  V30 14749 H 1418 0.107536 6.55912 0
M  V30 14750 H 1417.91 1.63058 7.38206 0
M  V30 14751 H 1419.18 0.509378 7.77834 0
M  V30 14752 N 1423.41 -1.329 0.847073 0
M  V30 14753 C 1424.66 -1.9712 0.445872 0
M  V30 14754 C 1424.98 -1.67398 -1.00014 0
M  V30 14755 O 1424.25 -0.977204 -1.69787 0
M  V30 14756 H 1422.83 -0.729247 0.161887 0
M  V30 14757 H 1425.49 -1.62118 1.08184 0
M  V30 14758 H 1424.59 -3.06575 0.584676 0
M  V30 14759 N 1424.89 -0.604284 -1.45555 0
M  V30 14760 C 1425.84 0.137842 -2.27583 0
M  V30 14761 C 1426.82 0.841681 -1.3713 0
M  V30 14762 O 1428.01 0.732216 -1.61145 0
M  V30 14763 C 1425.14 1.13675 -3.23934 0
M  V30 14764 C 1424.23 0.433916 -4.21874 0
M  V30 14765 N 1424.62 -0.522599 -5.03093 0
M  V30 14766 C 1422.92 0.681898 -4.40756 0
M  V30 14767 C 1423.62 -0.935401 -5.7413 0
M  V30 14768 N 1422.6 -0.279863 -5.42879 0
M  V30 14769 H 1426.4 -0.596862 -2.87776 0
M  V30 14770 H 1423.91 -0.427701 -1.56667 0
M  V30 14771 H 1425.91 1.68278 -3.81429 0
M  V30 14772 H 1424.57 1.87204 -2.65301 0
M  V30 14773 H 1425.58 -0.899187 -5.10034 0
M  V30 14774 H 1422.26 1.40212 -3.93252 0
M  V30 14775 H 1423.65 -1.72412 -6.49403 0
M  V30 14776 N 1426.37 1.53816 -0.343257 0
M  V30 14777 C 1427.31 2.25011 0.513664 0
M  V30 14778 C 1428.28 1.24827 1.09578 0
M  V30 14779 O 1429.47 1.53558 1.13245 0
M  V30 14780 C 1426.61 3.02616 1.65885 0
M  V30 14781 C 1425.72 4.17653 1.10406 0
M  V30 14782 C 1424.86 4.82746 2.21653 0
M  V30 14783 C 1423.9 5.89853 1.63524 0
M  V30 14784 N 1423.03 6.48726 2.68512 0
M  V30 14785 H 1427.87 2.97832 -0.099997 0
M  V30 14786 H 1425.41 1.46973 -0.0611206 0
M  V30 14787 H 1427.37 3.45868 2.33304 0
M  V30 14788 H 1426 2.32092 2.2435 0
M  V30 14789 H 1425.05 3.79045 0.320819 0
M  V30 14790 H 1426.36 4.94691 0.638887 0
M  V30 14791 H 1425.52 5.29068 2.96938 0
M  V30 14792 H 1424.25 4.05131 2.71515 0
M  V30 14793 H 1423.26 5.42914 0.86745 0
M  V30 14794 H 1424.48 6.69375 1.14515 0
M  V30 14795 H 1422.43 5.73975 3.17629 0
M  V30 14796 H 1422.35 7.21236 2.26616 0
M  V30 14797 H 1423.62 6.99701 3.43567 0
M  V30 14798 N 1427.84 0.0718701 1.57436 0
M  V30 14799 C 1428.79 -0.913026 2.13931 0
M  V30 14800 C 1429.79 -1.3082 1.07622 0
M  V30 14801 O 1430.99 -1.28544 1.26002 0
M  V30 14802 H 1427.37 -0.31238 0.684049 0
M  V30 14803 H 1429.34 -0.411613 2.95547 0
M  V30 14804 C 1428.09 -2.17109 2.71586 0
M  V30 14805 H 1427.41 -1.87585 3.53061 0
M  V30 14806 H 1428.85 -2.84134 3.14712 0
M  V30 14807 C 1427.31 -2.92967 1.6635 0
M  V30 14808 O 1427.84 -3.8667 1.08854 0
M  V30 14809 N 1426.05 -2.56075 1.37383 0
M  V30 14810 H 1425.59 -1.79949 1.84326 0
M  V30 14811 H 1425.55 -3.07134 0.672039 0
M  V30 14812 N 1429.32 -1.56304 -0.201686 0
M  V30 14813 C 1430.27 -1.94901 -1.26949 0
M  V30 14814 C 1431.26 -0.833574 -1.47472 0
M  V30 14815 O 1432.47 -1.01854 -1.48411 0
M  V30 14816 H 1428.85 -0.619663 -0.426053 0
M  V30 14817 H 1430.82 -2.83964 -0.9169 0
M  V30 14818 C 1429.57 -2.29913 -2.60835 0
M  V30 14819 H 1428.89 -3.15268 -2.45858 0
M  V30 14820 H 1430.33 -2.60789 -3.34313 0
M  V30 14821 C 1428.79 -1.13136 -3.17335 0
M  V30 14822 O 1429.32 -0.402915 -3.99674 0
M  V30 14823 N 1427.52 -0.909912 -2.75987 0
M  V30 14824 H 1427.07 -1.50402 -2.09134 0
M  V30 14825 H 1427.03 -0.130348 -3.1413 0
M  V30 14826 N 1430.8 0.469154 -1.50455 0
M  V30 14827 C 1432.05 1.2229 -1.6178 0
M  V30 14828 C 1432.38 1.91577 -0.318073 0
M  V30 14829 O 1431.65 1.82205 0.68057 0
M  V30 14830 C 1431.94 2.26504 -2.79943 0
M  V30 14831 C 1431.79 1.61509 -4.19804 0
M  V30 14832 C 1433.11 3.27796 -2.93662 0
M  V30 14833 H 1430.23 0.443241 -0.588817 0
M  V30 14834 H 1432.87 0.516431 -1.82847 0
M  V30 14835 H 1431.02 2.86757 -2.62112 0
M  V30 14836 H 1432.69 1.04838 -4.49229 0
M  V30 14837 H 1430.94 0.918162 -4.23972 0
M  V30 14838 H 1431.61 2.37248 -4.98415 0
M  V30 14839 H 1434.08 2.77568 -3.09992 0
M  V30 14840 H 1432.96 3.98041 -3.77961 0
M  V30 14841 H 1433.22 3.92033 -2.04359 0
M  V30 14842 N 1432.28 1.40065 0.722464 0
M  V30 14843 C 1433.51 1.41271 1.51163 0
M  V30 14844 C 1433.92 0.0105425 1.88797 0
M  V30 14845 O 1433.28 -0.963867 1.5497 0
M  V30 14846 C 1433.33 2.29713 2.79131 0
M  V30 14847 O 1433.05 3.6447 2.43091 0
M  V30 14848 C 1434.55 2.39437 3.73075 0
M  V30 14849 H 1431.77 0.482086 0.466727 0
M  V30 14850 H 1434.32 1.84033 0.891736 0
M  V30 14851 H 1432.47 1.9033 3.37421 0
M  V30 14852 H 1432.88 4.11371 3.25383 0
M  V30 14853 H 1434.36 3.05543 4.59726 0
M  V30 14854 H 1434.84 1.41731 4.15703 0
M  V30 14855 H 1435.44 2.79342 3.20699 0
M  V30 14856 N 1433.76 -0.95397 1.25448 0
M  V30 14857 C 1434.71 -2.07206 1.05681 0
M  V30 14858 C 1435.7 -1.69395 -0.0124672 0
M  V30 14859 O 1436.91 -1.79429 0.143201 0
M  V30 14860 H 1433.28 -0.678231 0.324817 0
M  V30 14861 H 1435.25 -2.21034 2.00466 0
M  V30 14862 C 1434 -3.40725 0.692955 0
M  V30 14863 H 1433.32 -3.70287 1.50756 0
M  V30 14864 H 1434.76 -4.19814 0.594351 0
M  V30 14865 C 1433.22 -3.31495 -0.601028 0
M  V30 14866 O 1433.75 -3.66565 -1.64296 0
M  V30 14867 N 1431.96 -2.84612 -0.586899 0
M  V30 14868 H 1431.51 -2.56271 0.261375 0
M  V30 14869 H 1431.46 -2.78819 -1.45284 0
M  V30 14870 N 1435.24 -1.07045 -1.15668 0
M  V30 14871 C 1436.46 -0.812802 -1.9081 0
M  V30 14872 C 1436.89 0.627827 -1.77313 0
M  V30 14873 O 1436.24 1.43836 -1.10368 0
M  V30 14874 C 1436.29 -1.2219 -3.39267 0
M  V30 14875 O 1435.4 -0.365305 -4.10779 0
M  V30 14876 H 1434.74 -0.296385 -0.594182 0
M  V30 14877 H 1437.27 -1.42825 -1.465 0
M  V30 14878 H 1437.28 -1.19674 -3.90054 0
M  V30 14879 H 1435.95 -2.27121 -3.48409 0
M  V30 14880 H 1434.53 -0.452687 -3.70142 0
M  V30 14881 N 1436.71 1.32449 -0.85411 0
M  V30 14882 C 1437.66 2.2889 -0.296341 0
M  V30 14883 C 1438.63 1.55024 0.596378 0
M  V30 14884 O 1439.82 1.8325 0.531406 0
M  V30 14885 C 1436.96 3.41315 0.509729 0
M  V30 14886 C 1436.07 4.30062 -0.40872 0
M  V30 14887 C 1435.2 5.29616 0.409928 0
M  V30 14888 C 1434.24 6.10005 -0.505953 0
M  V30 14889 N 1433.38 7.01559 0.275483 0
M  V30 14890 H 1438.22 2.75989 -1.12401 0
M  V30 14891 H 1435.76 1.35787 -0.565717 0
M  V30 14892 H 1437.71 4.05218 0.992697 0
M  V30 14893 H 1436.34 2.95367 1.30223 0
M  V30 14894 H 1435.4 3.66745 -1.01007 0
M  V30 14895 H 1436.71 4.86255 -1.11165 0
M  V30 14896 H 1435.86 5.99119 0.956083 0
M  V30 14897 H 1434.6 4.74039 1.14623 0
M  V30 14898 H 1433.61 5.39406 -1.064 0
M  V30 14899 H 1434.83 6.67667 -1.24086 0
M  V30 14900 H 1432.78 6.48412 0.994887 0
M  V30 14901 H 1432.69 7.55102 -0.368426 0
M  V30 14902 H 1433.96 7.75349 0.803382 0
M  V30 14903 N 1438.19 0.611994 1.45232 0
M  V30 14904 C 1439.6 0.193464 1.85695 0
M  V30 14905 C 1439.95 -1.25069 1.5117 0
M  V30 14906 O 1439.08 -1.94894 0.940497 0
M  V30 14907 C 1439.67 0.344334 3.37046 0
M  V30 14908 C 1438.23 -0.0195378 3.76395 0
M  V30 14909 C 1437.38 0.666714 2.69166 0
M  V30 14910 H 1440.33 0.818395 1.35971 0
M  V30 14911 H 1440.35 -0.422209 3.7815 0
M  V30 14912 H 1439.86 1.3955 3.62143 0
M  V30 14913 H 1437.96 -1.06971 3.56915 0
M  V30 14914 H 1438.08 0.377184 4.77613 0
M  V30 14915 H 1436.44 0.103912 2.54488 0
M  V30 14916 H 1437.22 1.7201 2.97099 0
M  V30 14917 N 1439.67 -1.53632 0.351409 0
M  V30 14918 C 1440.58 -2.2899 -0.509985 0
M  V30 14919 C 1441.6 -1.34403 -1.10507 0
M  V30 14920 O 1442.77 -1.67448 -1.11906 0
M  V30 14921 C 1439.84 -3.05392 -1.64124 0
M  V30 14922 C 1438.9 -4.15619 -1.07514 0
M  V30 14923 C 1438.13 -4.88369 -2.15248 0
M  V30 14924 O 1438.35 -4.60854 -3.3611 0
M  V30 14925 O 1437.29 -5.74636 -1.79101 0
M  V30 14926 H 1441.11 -3.03526 0.10283 0
M  V30 14927 H 1438.7 -1.48947 0.116214 0
M  V30 14928 H 1440.58 -3.53146 -2.29926 0
M  V30 14929 H 1439.26 -2.33705 -2.23972 0
M  V30 14930 H 1438.16 -3.7215 -0.381421 0
M  V30 14931 H 1439.5 -4.8943 -0.521413 0
M  V30 14932 N 1441.15 -0.0802183 -1.57396 0
M  V30 14933 C 1442.39 0.586962 -1.93807 0
M  V30 14934 C 1442.72 1.69107 -0.960887 0
M  V30 14935 O 1441.98 1.95688 0.0220779 0
M  V30 14936 C 1442.28 1.19551 -3.36812 0
M  V30 14937 C 1441.94 0.216701 -4.50379 0
M  V30 14938 C 1440.6 -0.0525552 -4.81171 0
M  V30 14939 C 1442.96 -0.452467 -5.19232 0
M  V30 14940 C 1440.28 -0.997923 -5.78151 0
M  V30 14941 C 1442.64 -1.38621 -6.17225 0
M  V30 14942 C 1441.3 -1.66385 -6.4643 0
M  V30 14943 H 1440.57 0.214785 -0.709189 0
M  V30 14944 H 1443.22 -0.152888 -1.90889 0
M  V30 14945 H 1441.52 2.01129 -3.36236 0
M  V30 14946 H 1443.22 1.71918 -3.62278 0
M  V30 14947 H 1439.81 0.436747 -4.26369 0
M  V30 14948 H 1443.99 -0.257573 -4.95631 0
M  V30 14949 H 1439.25 -1.22019 -5.991 0
M  V30 14950 H 1443.42 -1.91063 -6.69677 0
M  V30 14951 H 1441.05 -2.39799 -7.21388 0
M  V30 14952 N 1442.63 1.56409 0.193394 0
M  V30 14953 C 1443.85 1.8519 0.933775 0
M  V30 14954 C 1444.28 0.663991 1.75991 0
M  V30 14955 O 1443.63 -0.387198 1.77117 0
M  V30 14956 C 1443.68 3.12212 1.80432 0
M  V30 14957 O 1442.79 2.92884 2.90332 0
M  V30 14958 H 1442.13 0.609754 0.262862 0
M  V30 14959 H 1444.66 2.03638 0.198195 0
M  V30 14960 H 1444.67 3.4305 2.20864 0
M  V30 14961 H 1443.34 3.98292 1.19733 0
M  V30 14962 H 1441.92 2.73349 2.53643 0
M  V30 14963 N 1444.1 -0.461169 1.50702 0
M  V30 14964 C 1445.35 -1.20934 1.61425 0
M  V30 14965 C 1445.67 -1.92884 0.32481 0
M  V30 14966 O 1446.87 -2.69712 0.311081 0
M  V30 14967 C 1445.33 -2.19797 2.84987 0
M  V30 14968 C 1444.94 -1.53604 4.20844 0
M  V30 14969 C 1446.68 -2.95194 3.05059 0
M  V30 14970 C 1444.59 -2.50811 5.35582 0
M  V30 14971 H 1443.52 -0.455088 0.601174 0
M  V30 14972 H 1446.17 -0.478771 1.77144 0
M  V30 14973 H 1444.55 -2.96187 2.62848 0
M  V30 14974 H 1445.72 -0.829345 4.53275 0
M  V30 14975 H 1444.04 -0.904504 4.06457 0
M  V30 14976 H 1446.64 -3.67965 3.87951 0
M  V30 14977 H 1446.98 -3.5516 2.1718 0
M  V30 14978 H 1447.51 -2.25915 3.27425 0
M  V30 14979 H 1444.25 -1.9557 6.25646 0
M  V30 14980 H 1443.77 -3.19604 5.07556 0
M  V30 14981 H 1445.45 -3.12437 5.66561 0
M  V30 14982 N 1445.58 -1.40446 -0.715026 0
M  V30 14983 C 1446.81 -1.42263 -1.50917 0
M  V30 14984 C 1447.23 -0.0242402 -1.88084 0
M  V30 14985 O 1446.59 0.967817 -1.53307 0
M  V30 14986 C 1446.64 -2.31998 -2.7606 0
M  V30 14987 O 1445.74 -1.76361 -3.72787 0
M  V30 14988 H 1445.08 -0.483614 -0.454988 0
M  V30 14989 H 1447.61 -1.84682 -0.880549 0
M  V30 14990 H 1447.62 -2.47204 -3.24583 0
M  V30 14991 H 1446.3 -3.33614 -2.48343 0
M  V30 14992 H 1444.87 -1.70504 -3.31636 0
M  V30 14993 N 1447.06 0.947303 -1.25952 0
M  V30 14994 C 1448.28 1.73261 -1.13997 0
M  V30 14995 C 1448.71 1.85666 0.301639 0
M  V30 14996 O 1448.07 1.34244 1.21854 0
M  V30 14997 C 1448.12 3.12046 -1.8072 0
M  V30 14998 O 1447.22 3.97684 -1.09182 0
M  V30 14999 H 1446.56 0.53182 -0.397572 0
M  V30 15000 H 1449.09 1.18689 -1.66656 0
M  V30 15001 H 1449.1 3.62468 -1.87299 0
M  V30 15002 H 1447.78 3.02334 -2.856 0
M  V30 15003 H 1446.35 3.56141 -1.10536 0
M  V30 15004 N 1448.54 1.07657 1.15099 0
M  V30 15005 C 1449.47 0.721201 2.22083 0
M  V30 15006 C 1450.45 -0.292808 1.67561 0
M  V30 15007 O 1451.63 -0.164872 1.93499 0
M  V30 15008 C 1448.76 0.12153 3.47087 0
M  V30 15009 C 1447.72 1.06303 4.14588 0
M  V30 15010 C 1447.04 0.325964 5.33706 0
M  V30 15011 C 1448.34 2.39796 4.63999 0
M  V30 15012 H 1450.04 1.61566 2.52065 0
M  V30 15013 H 1447.58 0.778282 1.21156 0
M  V30 15014 H 1449.54 -0.139037 4.21171 0
M  V30 15015 H 1448.26 -0.808022 3.16447 0
M  V30 15016 H 1446.92 1.30858 3.4245 0
M  V30 15017 H 1446.57 -0.607147 4.99322 0
M  V30 15018 H 1446.27 0.953552 5.79811 0
M  V30 15019 H 1447.79 0.0732695 6.10556 0
M  V30 15020 H 1449.21 2.19552 5.29594 0
M  V30 15021 H 1447.6 2.98178 5.20778 0
M  V30 15022 H 1448.67 3.01876 3.79472 0
M  V30 15023 N 1450.02 -1.31994 0.861122 0
M  V30 15024 C 1450.96 -2.30666 0.299352 0
M  V30 15025 C 1451.96 -1.59133 -0.580779 0
M  V30 15026 O 1453.16 -1.73813 -0.467864 0
M  V30 15027 H 1449.54 -0.747932 0.0781091 0
M  V30 15028 H 1451.51 -2.7553 1.14567 0
M  V30 15029 C 1450.26 -3.44203 -0.491883 0
M  V30 15030 H 1449.58 -3.99412 0.17608 0
M  V30 15031 H 1451.02 -4.15384 -0.850434 0
M  V30 15032 C 1449.48 -2.92042 -1.67967 0
M  V30 15033 O 1450.01 -2.90073 -2.77886 0
M  V30 15034 N 1448.22 -2.48358 -1.50887 0
M  V30 15035 H 1447.76 -2.50159 -0.614683 0
M  V30 15036 H 1447.72 -2.13813 -2.30503 0
M  V30 15037 N 1451.49 -0.619688 -1.44906 0
M  V30 15038 C 1452.74 -0.119397 -2.01747 0
M  V30 15039 C 1453.06 1.25904 -1.48907 0
M  V30 15040 O 1452.33 1.83417 -0.688104 0
M  V30 15041 H 1450.91 -0.0411482 -0.745866 0
M  V30 15042 H 1453.58 -0.803813 -1.77552 0
M  V30 15043 H 1452.67 -0.078368 -3.12002 0
M  V30 15044 N 1452.97 1.53444 -0.359552 0
M  V30 15045 C 1453.9 2.28475 0.4818 0
M  V30 15046 C 1454.88 1.30664 1.08908 0
M  V30 15047 O 1456.07 1.59527 1.10746 0
M  V30 15048 C 1453.2 3.06951 1.62477 0
M  V30 15049 C 1452.15 4.12399 1.14504 0
M  V30 15050 C 1451.48 4.78922 2.37777 0
M  V30 15051 C 1452.78 5.21775 0.234075 0
M  V30 15052 H 1454.47 2.99053 -0.144162 0
M  V30 15053 H 1452.02 1.43826 -0.0707746 0
M  V30 15054 H 1453.97 3.58186 2.21993 0
M  V30 15055 H 1452.7 2.34053 2.27787 0
M  V30 15056 H 1451.35 3.62101 0.572589 0
M  V30 15057 H 1451 4.02602 3.0153 0
M  V30 15058 H 1450.7 5.50175 2.06353 0
M  V30 15059 H 1452.23 5.32948 2.97991 0
M  V30 15060 H 1453.64 5.68549 0.736548 0
M  V30 15061 H 1452.04 6.00099 0.0109887 0
M  V30 15062 H 1453.11 4.79443 -0.725435 0
M  V30 15063 N 1454.45 0.0885642 1.57351 0
M  V30 15064 C 1455.38 -0.909155 2.09307 0
M  V30 15065 C 1456.36 -1.28051 1.00209 0
M  V30 15066 O 1457.55 -1.38689 1.27662 0
M  V30 15067 C 1454.67 -2.21232 2.56465 0
M  V30 15068 C 1453.72 -1.9913 3.7716 0
M  V30 15069 S 1454.55 -1.23528 5.21058 0
M  V30 15070 C 1455.71 -2.55089 5.7156 0
M  V30 15071 H 1455.94 -0.467121 2.93607 0
M  V30 15072 H 1453.47 -0.124581 1.53897 0
M  V30 15073 H 1455.43 -2.96121 2.84293 0
M  V30 15074 H 1454.09 -2.62557 1.72403 0
M  V30 15075 H 1453.29 -2.95614 4.08201 0
M  V30 15076 H 1452.89 -1.32372 3.49791 0
M  V30 15077 H 1455.18 -3.51098 5.79428 0
M  V30 15078 H 1456.12 -2.28634 6.70173 0
M  V30 15079 H 1456.53 -2.63062 4.99458 0
M  V30 15080 N 1455.93 -1.56509 -0.185096 0
M  V30 15081 C 1457.16 -1.85058 -0.918527 0
M  V30 15082 C 1457.57 -0.670181 -1.76933 0
M  V30 15083 O 1456.91 0.370215 -1.79931 0
M  V30 15084 C 1456.97 -3.07843 -1.85669 0
M  V30 15085 C 1456.64 -4.41319 -1.18686 0
M  V30 15086 C 1457.63 -5.16887 -0.558946 0
M  V30 15087 C 1455.32 -4.88056 -1.18773 0
M  V30 15088 C 1457.31 -6.37373 0.0591595 0
M  V30 15089 C 1455 -6.08475 -0.565791 0
M  V30 15090 C 1456 -6.82977 0.0565621 0
M  V30 15091 O 1455.68 -8.01114 0.668726 0
M  V30 15092 H 1455.42 -0.618423 -0.273001 0
M  V30 15093 H 1457.97 -2.04479 -0.194261 0
M  V30 15094 H 1456.2 -2.84332 -2.62092 0
M  V30 15095 H 1457.89 -3.22954 -2.45877 0
M  V30 15096 H 1458.66 -4.81867 -0.550347 0
M  V30 15097 H 1454.53 -4.30016 -1.66154 0
M  V30 15098 H 1458.08 -6.95464 0.545534 0
M  V30 15099 H 1453.98 -6.42961 -0.571927 0
M  V30 15100 H 1454.74 -8.16536 0.566616 0
M  V30 15101 N 1457.41 0.45317 -1.50944 0
M  V30 15102 C 1458.63 1.23136 -1.6689 0
M  V30 15103 C 1459.06 1.84639 -0.359185 0
M  V30 15104 O 1458.41 1.68106 0.678983 0
M  V30 15105 C 1458.46 2.30275 -2.77499 0
M  V30 15106 O 1457.57 3.35371 -2.39999 0
M  V30 15107 H 1456.91 0.361475 -0.556984 0
M  V30 15108 H 1459.44 0.537174 -1.97422 0
M  V30 15109 H 1459.45 2.75309 -3.01113 0
M  V30 15110 H 1458.12 1.84885 -3.72546 0
M  V30 15111 H 1456.7 2.95924 -2.26899 0
M  V30 15112 N 1458.88 1.40823 0.707568 0
M  V30 15113 C 1460.11 1.43061 1.50161 0
M  V30 15114 C 1460.53 0.0342144 1.88069 0
M  V30 15115 O 1459.89 -0.959674 1.53818 0
M  V30 15116 C 1459.94 2.33459 2.74826 0
M  V30 15117 O 1459.04 1.78336 3.71847 0
M  V30 15118 H 1458.39 0.48602 0.452417 0
M  V30 15119 H 1460.92 1.85147 0.870742 0
M  V30 15120 H 1460.93 2.48922 3.23267 0
M  V30 15121 H 1459.6 3.34927 2.46571 0
M  V30 15122 H 1458.18 1.7226 3.30728 0
M  V30 15123 N 1460.36 -0.94061 1.26453 0
M  V30 15124 C 1461.59 -1.72123 1.1481 0
M  V30 15125 C 1462.01 -1.86456 -0.296604 0
M  V30 15126 O 1461.36 -1.37234 -1.20304 0
M  V30 15127 C 1461.41 -3.1277 1.81266 0
M  V30 15128 O 1461.13 -2.99122 3.2009 0
M  V30 15129 C 1462.64 -4.07045 1.75584 0
M  V30 15130 H 1459.86 -0.538908 0.399774 0
M  V30 15131 H 1462.4 -1.17913 1.67083 0
M  V30 15132 H 1460.55 -3.6388 1.32928 0
M  V30 15133 H 1460.97 -3.87946 3.52984 0
M  V30 15134 H 1462.44 -5.03292 2.26719 0
M  V30 15135 H 1462.92 -4.33217 0.722466 0
M  V30 15136 H 1463.53 -3.61855 2.23475 0
M  V30 15137 N 1461.84 -1.08266 -1.14527 0
M  V30 15138 C 1462.77 -0.669233 -2.19212 0
M  V30 15139 C 1463.79 0.282962 -1.60322 0
M  V30 15140 O 1464.97 0.0708403 -1.78359 0
M  V30 15141 C 1462.07 0.0362509 -3.38881 0
M  V30 15142 C 1461.25 -0.934477 -4.27301 0
M  V30 15143 C 1460.31 -0.264584 -5.25534 0
M  V30 15144 O 1459.33 -0.908543 -5.61902 0
M  V30 15145 N 1460.53 0.98609 -5.72063 0
M  V30 15146 H 1463.3 -1.56982 -2.55297 0
M  V30 15147 H 1460.86 -0.968551 -1.29733 0
M  V30 15148 H 1462.85 0.495309 -4.01658 0
M  V30 15149 H 1461.42 0.838913 -3.01133 0
M  V30 15150 H 1460.64 -1.57241 -3.61481 0
M  V30 15151 H 1461.93 -1.59232 -4.83242 0
M  V30 15152 H 1461.33 1.52904 -5.44644 0
M  V30 15153 H 1459.89 1.38867 -6.36835 0
M  V30 15154 N 1463.32 1.31536 -0.86811 0
M  V30 15155 C 1464.73 1.78991 -0.530937 0
M  V30 15156 C 1465.08 1.71553 0.952046 0
M  V30 15157 O 1464.21 1.28216 1.74326 0
M  V30 15158 C 1464.8 3.25004 -0.956981 0
M  V30 15159 C 1463.36 3.70362 -0.671495 0
M  V30 15160 C 1462.51 2.52361 -1.14932 0
M  V30 15161 H 1465.46 1.18644 -1.05401 0
M  V30 15162 H 1465.48 3.79477 -0.278883 0
M  V30 15163 H 1464.99 3.30385 -2.03635 0
M  V30 15164 H 1463.09 3.70483 0.39659 0
M  V30 15165 H 1463.21 4.62581 -1.24722 0
M  V30 15166 H 1461.57 2.4826 -0.569144 0
M  V30 15167 H 1462.35 2.60489 -2.23608 0
M  V30 15168 N 1464.8 0.627364 1.44575 0
M  V30 15169 C 1466.02 0.135576 2.06956 0
M  V30 15170 C 1466.45 -1.17922 1.46547 0
M  V30 15171 O 1465.81 -1.72255 0.565509 0
M  V30 15172 C 1465.85 0.030347 3.60587 0
M  V30 15173 O 1464.96 -1.01464 3.99724 0
M  V30 15174 H 1464.3 0.083058 0.658785 0
M  V30 15175 H 1466.83 0.862977 1.8551 0
M  V30 15176 H 1466.84 -0.161461 4.0768 0
M  V30 15177 H 1465.51 0.990285 4.03938 0
M  V30 15178 H 1464.09 -0.797701 3.64268 0
M  V30 15179 N 1466.28 -1.53251 0.367684 0
M  V30 15180 C 1467.5 -2.0618 -0.224645 0
M  V30 15181 C 1467.93 -1.23927 -1.41505 0
M  V30 15182 O 1467.28 -0.258858 -1.79443 0
M  V30 15183 C 1467.33 -3.55671 -0.594171 0
M  V30 15184 O 1466.44 -3.76132 -1.69112 0
M  V30 15185 H 1465.78 -0.663218 -0.0322099 0
M  V30 15186 H 1468.31 -1.97646 0.528897 0
M  V30 15187 H 1468.32 -3.98734 -0.864589 0
M  V30 15188 H 1466.99 -4.14982 0.276254 0
M  V30 15189 H 1465.57 -3.44965 -1.41609 0
M  V30 15190 N 1467.75 -0.0969077 -1.57302 0
M  V30 15191 C 1468.99 0.569724 -1.963 0
M  V30 15192 C 1469.36 1.65238 -0.977779 0
M  V30 15193 O 1470.56 2.37634 -1.25632 0
M  V30 15194 C 1468.83 1.10889 -3.39762 0
M  V30 15195 S 1470.39 1.78714 -4.00758 0
M  V30 15196 H 1467.21 0.185855 -0.686279 0
M  V30 15197 H 1469.81 -0.176741 -1.94699 0
M  V30 15198 H 1468.51 0.309441 -4.09232 0
M  V30 15199 H 1468.04 1.89114 -3.44963 0
M  V30 15200 H 1470.06 3.07149 -3.8971 0
M  V30 15201 N 1469.23 1.56605 0.176793 0
M  V30 15202 C 1470.16 1.91079 1.24756 0
M  V30 15203 C 1471.14 0.772947 1.43053 0
M  V30 15204 O 1472.33 1.02573 1.58149 0
M  V30 15205 C 1469.45 2.15695 2.61139 0
M  V30 15206 C 1468.5 3.38387 2.59609 0
M  V30 15207 S 1469.33 4.92933 2.09231 0
M  V30 15208 C 1470.49 5.20637 3.47402 0
M  V30 15209 H 1470.72 2.81602 0.953291 0
M  V30 15210 H 1468.25 1.49622 0.381117 0
M  V30 15211 H 1470.21 2.30558 3.39637 0
M  V30 15212 H 1468.87 1.25889 2.87769 0
M  V30 15213 H 1468.07 3.52794 3.59934 0
M  V30 15214 H 1467.67 3.22611 1.89203 0
M  V30 15215 H 1469.96 5.12279 4.4337 0
M  V30 15216 H 1470.9 6.22292 3.37874 0
M  V30 15217 H 1471.31 4.4822 3.4316 0
M  V30 15218 N 1470.71 -0.445159 1.51182 0
M  V30 15219 C 1471.99 -1.20598 1.53998 0
M  V30 15220 C 1472.37 -2.08962 0.29967 0
M  V30 15221 O 1471.71 -2.17003 -0.715666 0
M  V30 15222 C 1471.92 -2.01461 2.84982 0
M  V30 15223 C 1473.27 -2.5877 3.36635 0
M  V30 15224 O 1474.3 -2.11679 2.86479 0
M  V30 15225 O 1473.16 -3.44637 4.24132 0
M  V30 15226 H 1470.25 -0.548635 0.618812 0
M  V30 15227 H 1472.8 -0.454865 1.6349 0
M  V30 15228 H 1471.57 -1.36511 3.66716 0
M  V30 15229 H 1471.19 -2.83654 2.78615 0
M  V30 15230 N 1472.19 -1.41197 -0.700089 0
M  V30 15231 C 1473.14 -1.42885 -1.83539 0
M  V30 15232 C 1474.13 -0.307431 -1.66587 0
M  V30 15233 O 1475.34 -0.479238 -1.73503 0
M  V30 15234 H 1471.71 -0.446973 -0.604747 0
M  V30 15235 H 1473.68 -2.38576 -1.79231 0
M  V30 15236 C 1472.43 -1.3235 -3.21526 0
M  V30 15237 H 1471.75 -2.17926 -3.35184 0
M  V30 15238 H 1473.19 -1.37592 -4.01054 0
M  V30 15239 C 1471.65 -0.0353528 -3.36881 0
M  V30 15240 O 1472.18 0.921676 -3.90983 0
M  V30 15241 N 1470.39 0.0392479 -2.90573 0
M  V30 15242 H 1469.94 -0.740299 -2.46733 0
M  V30 15243 H 1469.89 0.900559 -3.01226 0
M  V30 15244 N 1473.67 0.933891 -1.2695 0
M  V30 15245 C 1475.08 1.20873 -1.0422 0
M  V30 15246 C 1475.28 2.00205 0.228112 0
M  V30 15247 O 1474.34 2.34539 0.935284 0
M  V30 15248 C 1475.65 1.9629 -2.27795 0
M  V30 15249 C 1477.2 2.09254 -2.3277 0
M  V30 15250 C 1477.67 2.88075 -3.56057 0
M  V30 15251 N 1479.16 2.95646 -3.56578 0
M  V30 15252 C 1479.9 3.57082 -4.48642 0
M  V30 15253 N 1479.4 4.1996 -5.51004 0
M  V30 15254 N 1481.19 3.54425 -4.36279 0
M  V30 15255 H 1473.34 0.403735 -2.08528 0
M  V30 15256 H 1475.6 0.241189 -0.916805 0
M  V30 15257 H 1475.31 1.45412 -3.20231 0
M  V30 15258 H 1475.18 2.9693 -2.32621 0
M  V30 15259 H 1477.57 2.5932 -1.40844 0
M  V30 15260 H 1477.65 1.07854 -2.31951 0
M  V30 15261 H 1477.29 2.38693 -4.48317 0
M  V30 15262 H 1477.22 3.89746 -3.54126 0
M  V30 15263 H 1479.72 2.50951 -2.82545 0
M  V30 15264 H 1480.03 4.64758 -6.1743 0
M  V30 15265 H 1478.37 4.18525 -5.54853 0
M  V30 15266 H 1481.56 3.045 -3.55524 0
M  V30 15267 H 1481.74 4.02016 -5.0822 0
M  V30 15268 N 1475.14 1.08871 1.13951 0
M  V30 15269 C 1476.37 0.842913 1.88951 0
M  V30 15270 C 1476.79 -0.605348 1.78832 0
M  V30 15271 O 1476.14 -1.41631 1.15095 0
M  V30 15272 C 1476.19 1.26198 3.38757 0
M  V30 15273 O 1475.92 2.65344 3.48603 0
M  V30 15274 C 1477.42 1.04773 4.30741 0
M  V30 15275 H 1474.64 0.303651 0.598362 0
M  V30 15276 H 1477.18 1.44922 1.44284 0
M  V30 15277 H 1475.34 0.699682 3.81029 0
M  V30 15278 H 1475.75 2.82863 4.41688 0
M  V30 15279 H 1477.22 1.39029 5.34205 0
M  V30 15280 H 1477.7 -0.0149046 4.39197 0
M  V30 15281 H 1478.31 1.5957 3.9423 0
M  V30 15282 N 1476.62 -1.31073 0.875073 0
M  V30 15283 C 1477.87 -1.96518 0.488549 0
M  V30 15284 C 1478.2 -1.69144 -0.960243 0
M  V30 15285 O 1477.45 -0.983344 -1.69201 0
M  V30 15286 C 1477.75 -3.50511 0.698351 0
M  V30 15287 C 1477.42 -3.97915 2.12071 0
M  V30 15288 C 1476.08 -4.10571 2.50968 0
M  V30 15289 C 1478.43 -4.22777 3.0481 0
M  V30 15290 C 1475.76 -4.45442 3.81836 0
M  V30 15291 C 1478.11 -4.59114 4.35198 0
M  V30 15292 C 1476.77 -4.69977 4.74002 0
M  V30 15293 H 1476.04 -0.719111 0.178773 0
M  V30 15294 H 1478.69 -1.56117 1.10904 0
M  V30 15295 H 1477 -3.918 -0.00523937 0
M  V30 15296 H 1478.69 -3.99205 0.379031 0
M  V30 15297 H 1475.28 -3.88565 1.80874 0
M  V30 15298 H 1479.47 -4.12489 2.75983 0
M  V30 15299 H 1474.72 -4.52051 4.11655 0
M  V30 15300 H 1478.9 -4.77303 5.07105 0
M  V30 15301 H 1476.52 -4.96753 5.75448 0
M  V30 15302 N 1478.1 -0.635022 -1.4424 0
M  V30 15303 C 1479.33 -0.146549 -2.06882 0
M  V30 15304 C 1479.75 1.17143 -1.4717 0
M  V30 15305 O 1479.11 1.71952 -0.574636 0
M  V30 15306 C 1479.16 -0.0494694 -3.60566 0
M  V30 15307 O 1478.26 0.993423 -4.00256 0
M  V30 15308 H 1477.6 -0.0865505 -0.658335 0
M  V30 15309 H 1480.13 -0.872803 -1.85049 0
M  V30 15310 H 1480.14 0.139839 -4.0776 0
M  V30 15311 H 1478.82 -1.01169 -4.03407 0
M  V30 15312 H 1477.39 0.778372 -3.64686 0
M  V30 15313 N 1479.58 1.53054 -0.375806 0
M  V30 15314 C 1480.81 2.05521 0.210828 0
M  V30 15315 C 1481.22 1.24837 1.4217 0
M  V30 15316 O 1480.56 0.284634 1.81481 0
M  V30 15317 C 1480.62 3.53417 0.658548 0
M  V30 15318 C 1480.29 4.54906 -0.437025 0
M  V30 15319 C 1481.28 5.03638 -1.29016 0
M  V30 15320 C 1478.97 4.98701 -0.600194 0
M  V30 15321 C 1480.96 5.94777 -2.29171 0
M  V30 15322 C 1478.65 5.89644 -1.6051 0
M  V30 15323 C 1479.65 6.37573 -2.44929 0
M  V30 15324 O 1479.33 7.26721 -3.43703 0
M  V30 15325 H 1479.07 0.674893 0.0386627 0
M  V30 15326 H 1481.62 1.98296 -0.535534 0
M  V30 15327 H 1479.85 3.58215 1.45667 0
M  V30 15328 H 1481.54 3.88692 1.16933 0
M  V30 15329 H 1482.31 4.70543 -1.17534 0
M  V30 15330 H 1478.18 4.60976 0.0471346 0
M  V30 15331 H 1481.73 6.3211 -2.95099 0
M  V30 15332 H 1477.63 6.22153 -1.72035 0
M  V30 15333 H 1478.39 7.44746 -3.39553 0
M  V30 15334 N 1481.06 0.105248 1.57248 0
M  V30 15335 C 1482.47 -0.422304 1.81861 0
M  V30 15336 C 1482.82 -1.67508 1.02154 0
M  V30 15337 O 1481.94 -2.14905 0.253961 0
M  V30 15338 C 1482.54 -0.772943 3.29865 0
M  V30 15339 C 1481.1 -1.24519 3.55207 0
M  V30 15340 C 1480.24 -0.246936 2.76198 0
M  V30 15341 H 1483.2 0.330565 1.55219 0
M  V30 15342 H 1483.22 -1.6316 3.43743 0
M  V30 15343 H 1482.73 0.139033 3.87851 0
M  V30 15344 H 1480.83 -2.17453 3.02564 0
M  V30 15345 H 1480.94 -1.20001 4.63828 0
M  V30 15346 H 1479.31 -0.731171 2.43979 0
M  V30 15347 H 1480.09 0.657896 3.36937 0
M  V30 15348 N 1482.53 -1.56697 -0.168486 0
M  V30 15349 C 1483.78 -1.81794 -0.882907 0
M  V30 15350 C 1484.1 -0.682707 -1.82658 0
M  V30 15351 O 1483.37 0.297234 -1.93632 0
M  V30 15352 H 1481.95 -0.670636 -0.329024 0
M  V30 15353 H 1484.62 -1.94178 -0.167625 0
M  V30 15354 H 1483.71 -2.75945 -1.45811 0
M  V30 15355 N 1484.01 0.437135 -1.51416 0
M  V30 15356 C 1485.26 1.18831 -1.64338 0
M  V30 15357 C 1485.59 1.9086 -0.358638 0
M  V30 15358 O 1484.87 1.83607 0.641769 0
M  V30 15359 C 1485.15 2.20515 -2.84685 0
M  V30 15360 C 1485 1.52568 -4.23135 0
M  V30 15361 C 1486.32 3.21494 -3.00549 0
M  V30 15362 H 1483.44 0.430652 -0.598087 0
M  V30 15363 H 1486.08 0.47753 -1.83901 0
M  V30 15364 H 1484.23 2.81132 -2.68136 0
M  V30 15365 H 1485.9 0.952851 -4.51352 0
M  V30 15366 H 1484.15 0.828025 -4.25824 0
M  V30 15367 H 1484.82 2.26623 -5.03335 0
M  V30 15368 H 1487.29 2.7093 -3.1581 0
M  V30 15369 H 1486.17 3.89934 -3.86319 0
M  V30 15370 H 1486.43 3.8761 -2.12629 0
M  V30 15371 N 1485.49 1.41566 0.692592 0
M  V30 15372 C 1486.74 1.41292 1.4548 0
M  V30 15373 C 1487.07 0.0229093 1.94186 0
M  V30 15374 O 1486.34 -0.949849 1.6973 0
M  V30 15375 C 1486.63 2.42225 2.66457 0
M  V30 15376 C 1486.48 3.90345 2.23496 0
M  V30 15377 C 1487.8 2.40374 3.68658 0
M  V30 15378 H 1484.92 0.51453 0.527663 0
M  V30 15379 H 1487.56 1.72862 0.788598 0
M  V30 15380 H 1485.71 2.15435 3.23296 0
M  V30 15381 H 1487.38 4.2805 1.71962 0
M  V30 15382 H 1485.63 4.05068 1.55249 0
M  V30 15383 H 1486.3 4.56518 3.10314 0
M  V30 15384 H 1488.77 2.64156 3.21498 0
M  V30 15385 H 1487.65 3.13004 4.5091 0
M  V30 15386 H 1487.91 1.42338 4.1856 0
M  V30 15387 N 1486.97 -0.927146 1.27443 0
M  V30 15388 C 1487.92 -2.02783 1.10216 0
M  V30 15389 C 1488.89 -1.661 0.00307842 0
M  V30 15390 O 1490.07 -1.90081 0.165508 0
M  V30 15391 C 1487.21 -3.36718 0.755984 0
M  V30 15392 C 1486.32 -3.86353 1.93276 0
M  V30 15393 C 1485.46 -5.08737 1.52841 0
M  V30 15394 C 1484.5 -5.50669 2.67263 0
M  V30 15395 N 1483.63 -6.6425 2.27413 0
M  V30 15396 H 1488.47 -2.16851 2.04401 0
M  V30 15397 H 1486.01 -1.06232 1.0175 0
M  V30 15398 H 1487.97 -4.13741 0.53609 0
M  V30 15399 H 1486.6 -3.22456 -0.148909 0
M  V30 15400 H 1485.65 -3.05604 2.26518 0
M  V30 15401 H 1486.96 -4.13401 2.79108 0
M  V30 15402 H 1486.12 -5.93263 1.26979 0
M  V30 15403 H 1484.86 -4.83467 0.641187 0
M  V30 15404 H 1483.86 -4.64692 2.93839 0
M  V30 15405 H 1485.09 -5.77934 3.56607 0
M  V30 15406 H 1483.03 -6.40636 1.41143 0
M  V30 15407 H 1482.95 -6.90955 3.06784 0
M  V30 15408 H 1484.22 -7.52115 2.048 0
M  V30 15409 N 1488.45 -1.09474 -1.13372 0
M  V30 15410 C 1489.67 -0.852921 -1.88502 0
M  V30 15411 C 1490.09 0.595855 -1.79151 0
M  V30 15412 O 1489.45 1.41019 -1.15845 0
M  V30 15413 C 1489.5 -1.27993 -3.38083 0
M  V30 15414 O 1489.22 -2.67189 -3.47191 0
M  V30 15415 C 1490.72 -1.07056 -4.30179 0
M  V30 15416 H 1487.94 -0.30682 -0.596743 0
M  V30 15417 H 1490.48 -1.45685 -1.43513 0
M  V30 15418 H 1488.64 -0.719879 -3.80653 0
M  V30 15419 H 1489.05 -2.85202 -4.40182 0
M  V30 15420 H 1490.53 -1.4186 -5.3346 0
M  V30 15421 H 1491 -0.00838732 -4.39199 0
M  V30 15422 H 1491.61 -1.61659 -3.93378 0
M  V30 15423 N 1489.92 1.30607 -0.882012 0
M  V30 15424 C 1491.34 1.78418 -0.549892 0
M  V30 15425 C 1491.69 1.72553 0.933797 0
M  V30 15426 O 1490.81 1.30058 1.72956 0
M  V30 15427 C 1491.41 3.2397 -0.991398 0
M  V30 15428 C 1489.97 3.69629 -0.710739 0
M  V30 15429 C 1489.11 2.51127 -1.17602 0
M  V30 15430 H 1492.06 1.17519 -1.06653 0
M  V30 15431 H 1492.08 3.79159 -0.319115 0
M  V30 15432 H 1491.6 3.28207 -2.07128 0
M  V30 15433 H 1489.7 3.70883 0.357273 0
M  V30 15434 H 1489.81 4.61232 -1.29621 0
M  V30 15435 H 1488.17 2.47642 -0.595444 0
M  V30 15436 H 1488.96 2.58103 -2.26358 0
M  V30 15437 N 1491.4 0.642663 1.43901 0
M  V30 15438 C 1492.65 0.152003 2.0223 0
M  V30 15439 C 1492.98 -1.22711 1.50518 0
M  V30 15440 O 1492.26 -1.817 0.693937 0
M  V30 15441 C 1492.54 0.151278 3.59782 0
M  V30 15442 C 1492.39 1.56356 4.2175 0
M  V30 15443 C 1493.71 -0.518016 4.37041 0
M  V30 15444 H 1490.83 0.0567094 0.734815 0
M  V30 15445 H 1493.47 0.821337 1.7133 0
M  V30 15446 H 1491.62 -0.418679 3.86237 0
M  V30 15447 H 1493.29 2.18329 4.06362 0
M  V30 15448 H 1491.54 2.11401 3.78803 0
M  V30 15449 H 1492.21 1.51499 5.30803 0
M  V30 15450 H 1494.68 -0.0331947 4.16087 0
M  V30 15451 H 1493.56 -0.487754 5.46729 0
M  V30 15452 H 1493.82 -1.59036 4.12504 0
M  V30 15453 N 1492.88 -1.52852 0.383918 0
M  V30 15454 C 1494.11 -2.06406 -0.202764 0
M  V30 15455 C 1494.53 -1.25421 -1.40183 0
M  V30 15456 O 1493.89 -0.277876 -1.79158 0
M  V30 15457 C 1493.94 -3.56281 -0.556414 0
M  V30 15458 O 1493.04 -3.77904 -1.65113 0
M  V30 15459 H 1492.38 -0.663523 -0.0251737 0
M  V30 15460 H 1494.91 -1.97074 0.54983 0
M  V30 15461 H 1494.92 -3.99629 -0.822249 0
M  V30 15462 H 1493.6 -4.14665 0.320253 0
M  V30 15463 H 1492.17 -3.46448 -1.37943 0
M  V30 15464 N 1494.36 -0.113586 -1.5719 0
M  V30 15465 C 1495.77 0.412653 -1.82083 0
M  V30 15466 C 1496.12 1.66964 -1.03041 0
M  V30 15467 O 1495.25 2.14767 -0.265354 0
M  V30 15468 C 1495.84 0.755439 -3.3027 0
M  V30 15469 C 1494.4 1.22634 -3.55862 0
M  V30 15470 C 1493.55 0.232285 -2.76325 0
M  V30 15471 H 1496.5 -0.338792 -1.55042 0
M  V30 15472 H 1496.52 1.61335 -3.44603 0
M  V30 15473 H 1496.03 -0.1596 -3.87772 0
M  V30 15474 H 1494.13 2.15846 -3.03713 0
M  V30 15475 H 1494.25 1.1754 -4.64458 0
M  V30 15476 H 1492.61 0.718222 -2.44364 0
M  V30 15477 H 1493.39 -0.675756 -3.36583 0
M  V30 15478 N 1495.84 1.56784 0.160173 0
M  V30 15479 C 1497.07 1.86767 0.89026 0
M  V30 15480 C 1497.48 0.700276 1.75333 0
M  V30 15481 O 1496.84 -0.330342 1.79485 0
M  V30 15482 C 1496.89 3.15883 1.75784 0
M  V30 15483 O 1496.61 4.28124 0.929575 0
M  V30 15484 C 1498.11 3.5929 2.59664 0
M  V30 15485 H 1495.33 0.61938 0.258088 0
M  V30 15486 H 1497.87 2.03897 0.156919 0
M  V30 15487 H 1496.03 3.00546 2.4444 0
M  V30 15488 H 1496.44 5.01872 1.52397 0
M  V30 15489 H 1497.92 4.52506 3.16136 0
M  V30 15490 H 1498.39 2.83943 3.35072 0
M  V30 15491 H 1499 3.77277 1.96323 0
M  V30 15492 N 1497.32 -0.429099 1.51646 0
M  V30 15493 C 1498.56 -1.17784 1.64722 0
M  V30 15494 C 1498.89 -1.90998 0.367415 0
M  V30 15495 O 1498.15 -1.8463 -0.648862 0
M  V30 15496 C 1498.44 -2.2131 2.80636 0
M  V30 15497 C 1498.11 -1.65048 4.19607 0
M  V30 15498 C 1496.77 -1.49428 4.57411 0
M  V30 15499 C 1499.12 -1.23765 5.06292 0
M  V30 15500 C 1496.45 -0.910109 5.79598 0
M  V30 15501 C 1498.8 -0.667743 6.29066 0
M  V30 15502 C 1497.47 -0.498507 6.65636 0
M  V30 15503 H 1496.74 -0.431001 0.60276 0
M  V30 15504 H 1499.39 -0.46775 1.857 0
M  V30 15505 H 1497.69 -2.98388 2.53913 0
M  V30 15506 H 1499.39 -2.79079 2.87951 0
M  V30 15507 H 1495.98 -1.78185 3.89805 0
M  V30 15508 H 1500.16 -1.3465 4.77685 0
M  V30 15509 H 1495.42 -0.766825 6.06572 0
M  V30 15510 H 1499.59 -0.339377 6.95573 0
M  V30 15511 H 1497.22 -0.0437292 7.60187 0
M  V30 15512 N 1498.79 -1.41931 -0.685074 0
M  V30 15513 C 1500.2 -1.37279 -1.26536 0
M  V30 15514 C 1500.56 -0.0610089 -1.96105 0
M  V30 15515 O 1499.68 0.840508 -1.9941 0
M  V30 15516 C 1500.28 -2.48658 -2.30119 0
M  V30 15517 C 1498.83 -2.47371 -2.83698 0
M  V30 15518 C 1497.98 -2.2797 -1.57876 0
M  V30 15519 H 1500.93 -1.51294 -0.479132 0
M  V30 15520 H 1500.95 -2.18319 -3.11636 0
M  V30 15521 H 1500.47 -3.44118 -1.79456 0
M  V30 15522 H 1498.57 -1.55699 -3.3851 0
M  V30 15523 H 1498.68 -3.44052 -3.33414 0
M  V30 15524 H 1497.04 -1.7604 -1.84071 0
M  V30 15525 H 1497.83 -3.25471 -1.09194 0
M  V30 15526 N 1500.27 0.920374 -1.27933 0
M  V30 15527 C 1501.18 2.05525 -1.13123 0
M  V30 15528 C 1502.2 1.73899 -0.059421 0
M  V30 15529 O 1503.37 1.99617 -0.267386 0
M  V30 15530 C 1500.44 3.37637 -0.787551 0
M  V30 15531 C 1499.5 3.82914 -1.94101 0
M  V30 15532 C 1498.73 5.08721 -1.61364 0
M  V30 15533 O 1498.96 5.6798 -0.524918 0
M  V30 15534 O 1497.89 5.4955 -2.45517 0
M  V30 15535 H 1501.72 2.20935 -2.08378 0
M  V30 15536 H 1499.3 1.04071 -1.07189 0
M  V30 15537 H 1501.18 4.16968 -0.609544 0
M  V30 15538 H 1499.86 3.23417 0.135407 0
M  V30 15539 H 1498.76 3.04438 -2.17413 0
M  V30 15540 H 1500.1 4.01687 -2.84444 0
M  V30 15541 N 1501.75 1.10074 1.1279 0
M  V30 15542 C 1502.7 0.715508 2.16482 0
M  V30 15543 C 1503.68 -0.273462 1.58559 0
M  V30 15544 O 1504.88 -0.0827829 1.76806 0
M  V30 15545 C 1502 0.144874 3.42994 0
M  V30 15546 C 1501.09 1.16066 4.07909 0
M  V30 15547 N 1501.48 2.35008 4.47889 0
M  V30 15548 C 1499.78 1.00033 4.34637 0
M  V30 15549 C 1500.48 2.99678 4.98566 0
M  V30 15550 N 1499.46 2.2721 4.93839 0
M  V30 15551 H 1503.26 1.62098 2.45156 0
M  V30 15552 H 1500.77 0.97792 1.29655 0
M  V30 15553 H 1502.77 -0.149164 4.16633 0
M  V30 15554 H 1501.43 -0.755369 3.15791 0
M  V30 15555 H 1502.44 2.72557 4.40378 0
M  V30 15556 H 1499.12 0.155328 4.17211 0
M  V30 15557 H 1500.51 4.00831 5.39244 0
M  V30 15558 N 1503.23 -1.30138 0.888926 0
M  V30 15559 C 1504.16 -2.3047 0.374934 0
M  V30 15560 C 1505.14 -1.61156 -0.544322 0
M  V30 15561 O 1506.32 -1.88738 -0.457337 0
M  V30 15562 C 1503.45 -3.44896 -0.407935 0
M  V30 15563 C 1502.41 -4.25935 0.419916 0
M  V30 15564 C 1501.73 -5.32452 -0.489797 0
M  V30 15565 C 1503.03 -4.9508 1.66413 0
M  V30 15566 H 1504.73 -2.73711 1.21337 0
M  V30 15567 H 1502.27 -1.31586 0.584899 0
M  V30 15568 H 1504.23 -4.14153 -0.778177 0
M  V30 15569 H 1502.95 -3.0047 -1.28005 0
M  V30 15570 H 1501.61 -3.58372 0.772348 0
M  V30 15571 H 1501.26 -4.84273 -1.35974 0
M  V30 15572 H 1500.96 -5.87569 0.0603412 0
M  V30 15573 H 1502.48 -6.04563 -0.856468 0
M  V30 15574 H 1503.9 -5.56831 1.36425 0
M  V30 15575 H 1502.29 -5.6008 2.15477 0
M  V30 15576 H 1503.36 -4.20981 2.4063 0
M  V30 15577 N 1504.71 -0.650285 -1.43559 0
M  V30 15578 C 1505.95 -0.162164 -2.01448 0
M  V30 15579 C 1506.27 1.22717 -1.51544 0
M  V30 15580 O 1505.54 1.81917 -0.726855 0
M  V30 15581 H 1504.12 -0.0569599 -0.744825 0
M  V30 15582 H 1506.79 -0.841294 -1.75807 0
M  V30 15583 H 1505.88 -0.144531 -3.11765 0
M  V30 15584 N 1506.18 1.52647 -0.392018 0
M  V30 15585 C 1507.42 2.03524 0.189041 0
M  V30 15586 C 1507.79 1.27204 1.43816 0
M  V30 15587 O 1508.99 1.6822 2.09656 0
M  V30 15588 C 1507.26 3.54584 0.447779 0
M  V30 15589 S 1508.82 4.27283 0.998734 0
M  V30 15590 H 1505.64 0.709022 0.0530042 0
M  V30 15591 H 1508.24 1.87866 -0.540993 0
M  V30 15592 H 1506.94 4.07718 -0.468401 0
M  V30 15593 H 1506.47 3.74453 1.20616 0
M  V30 15594 H 1508.49 4.40671 2.28086 0
M  V30 15595 N 1507.66 0.121921 1.57128 0
M  V30 15596 C 1508.63 -0.812905 2.143 0
M  V30 15597 C 1509.63 -1.19261 1.07858 0
M  V30 15598 O 1510.82 -1.11764 1.33621 0
M  V30 15599 C 1507.95 -2.09969 2.68562 0
M  V30 15600 H 1509.14 -0.315992 2.98231 0
M  V30 15601 H 1506.69 -0.12734 1.5578 0
M  V30 15602 H 1507.43 -2.64085 1.88228 0
M  V30 15603 H 1507.21 -1.83688 3.46412 0
M  V30 15604 H 1508.7 -2.76788 3.12695 0
M  V30 15605 N 1509.14 -1.56867 -0.151857 0
M  V30 15606 C 1510.39 -1.82721 -0.863575 0
M  V30 15607 C 1510.71 -0.702042 -1.81924 0
M  V30 15608 O 1509.98 0.27668 -1.93936 0
M  V30 15609 H 1508.56 -0.674088 -0.321893 0
M  V30 15610 H 1511.22 -1.94345 -0.14702 0
M  V30 15611 H 1510.32 -2.77476 -1.42876 0
M  V30 15612 N 1510.62 0.421051 -1.51871 0
M  V30 15613 C 1511.84 1.19568 -1.69465 0
M  V30 15614 C 1512.27 1.83835 -0.398269 0
M  V30 15615 O 1511.63 1.69508 0.643172 0
M  V30 15616 C 1511.67 2.24337 -2.82321 0
M  V30 15617 O 1510.78 3.30205 -2.47059 0
M  V30 15618 H 1510.12 0.349579 -0.564527 0
M  V30 15619 H 1512.65 0.495177 -1.98517 0
M  V30 15620 H 1512.66 2.6886 -3.06885 0
M  V30 15621 H 1511.33 1.76941 -3.76384 0
M  V30 15622 H 1509.91 2.91045 -2.33125 0
M  V30 15623 N 1512.1 1.42293 0.677538 0
M  V30 15624 C 1513.51 1.25158 0.990334 0
M  V30 15625 C 1513.71 0.153803 2.00912 0
M  V30 15626 O 1512.77 -0.475868 2.47975 0
M  V30 15627 C 1514.08 2.60745 1.49775 0
M  V30 15628 C 1515.63 2.68077 1.61566 0
M  V30 15629 C 1516.1 4.04024 2.15705 0
M  V30 15630 N 1517.6 4.05964 2.23042 0
M  V30 15631 C 1518.33 5.07968 2.66 0
M  V30 15632 N 1517.83 6.20356 3.08432 0
M  V30 15633 N 1519.62 4.95325 2.65725 0
M  V30 15634 H 1511.77 2.124 0.00295822 0
M  V30 15635 H 1514.03 0.945848 0.06384 0
M  V30 15636 H 1513.74 3.41919 0.823672 0
M  V30 15637 H 1513.61 2.84476 2.47695 0
M  V30 15638 H 1516 1.87251 2.28082 0
M  V30 15639 H 1516.08 2.48137 0.621434 0
M  V30 15640 H 1515.73 4.85306 1.498 0
M  V30 15641 H 1515.66 4.21314 3.15914 0
M  V30 15642 H 1518.15 3.24827 1.93122 0
M  V30 15643 H 1518.46 6.94043 3.39889 0
M  V30 15644 H 1516.8 6.23865 3.06296 0
M  V30 15645 H 1520 4.06599 2.31936 0
M  V30 15646 H 1520.17 5.74954 2.98884 0
M  V30 15647 N 1513.57 -0.913576 1.28419 0
M  V30 15648 C 1514.99 -1.47782 1.14094 0
M  V30 15649 C 1515.34 -1.94347 -0.269004 0
M  V30 15650 O 1514.46 -1.82474 -1.16328 0
M  V30 15651 C 1515.06 -2.6859 2.06507 0
M  V30 15652 C 1513.62 -3.21193 1.96245 0
M  V30 15653 C 1512.76 -1.939 1.98238 0
M  V30 15654 H 1515.71 -0.726271 1.41106 0
M  V30 15655 H 1515.73 -3.43858 1.62916 0
M  V30 15656 H 1515.25 -2.34668 3.09116 0
M  V30 15657 H 1513.35 -3.5984 0.966737 0
M  V30 15658 H 1513.46 -3.8643 2.83211 0
M  V30 15659 H 1511.82 -2.11006 1.42648 0
M  V30 15660 H 1512.61 -1.62273 3.02527 0
M  V30 15661 N 1515.05 -1.1067 -1.12204 0
M  V30 15662 C 1515.96 -0.770221 -2.21596 0
M  V30 15663 C 1516.98 0.233297 -1.72429 0
M  V30 15664 O 1518.15 0.0714493 -2.01273 0
M  V30 15665 C 1515.22 -0.209682 -3.46065 0
M  V30 15666 C 1514.28 -1.27079 -4.1006 0
M  V30 15667 C 1513.51 -0.736899 -5.28588 0
M  V30 15668 O 1513.74 0.435838 -5.68732 0
M  V30 15669 O 1512.67 -1.49797 -5.82962 0
M  V30 15670 H 1516.5 -1.6834 -2.52776 0
M  V30 15671 H 1514.08 -0.882012 -1.20586 0
M  V30 15672 H 1515.96 0.0989516 -4.21284 0
M  V30 15673 H 1514.64 0.676316 -3.16556 0
M  V30 15674 H 1513.55 -1.63231 -3.3661 0
M  V30 15675 H 1514.88 -2.12989 -4.4373 0
M  V30 15676 N 1516.53 1.29665 -0.895815 0
M  V30 15677 C 1517.76 2.00399 -0.534333 0
M  V30 15678 C 1518.18 1.66632 0.872654 0
M  V30 15679 O 1517.54 0.888811 1.58018 0
M  V30 15680 C 1517.59 3.53154 -0.729023 0
M  V30 15681 O 1516.69 4.11812 0.22023 0
M  V30 15682 H 1516.03 0.630173 -0.209233 0
M  V30 15683 H 1518.56 1.65253 -1.20634 0
M  V30 15684 H 1518.57 4.03073 -0.632179 0
M  V30 15685 H 1517.25 3.77067 -1.75481 0
M  V30 15686 H 1515.82 3.72822 0.0761687 0
M  V30 15687 N 1518.01 0.657889 1.43212 0
M  V30 15688 C 1519.26 0.172845 2.0136 0
M  V30 15689 C 1519.58 -1.21911 1.52193 0
M  V30 15690 O 1518.85 -1.81529 0.736492 0
M  V30 15691 H 1517.43 0.0609091 0.744513 0
M  V30 15692 H 1520.09 0.850605 1.75359 0
M  V30 15693 H 1519.19 0.161062 3.11684 0
M  V30 15694 N 1519.49 -1.52437 0.400108 0
M  V30 15695 C 1520.42 -2.29672 -0.421054 0
M  V30 15696 C 1521.4 -1.33506 -1.05405 0
M  V30 15697 O 1522.58 -1.62408 -1.06477 0
M  V30 15698 C 1519.71 -3.1115 -1.54281 0
M  V30 15699 C 1518.67 -4.1529 -1.0353 0
M  V30 15700 C 1517.99 -4.85058 -2.24996 0
M  V30 15701 C 1519.29 -5.22212 -0.0956529 0
M  V30 15702 H 1520.99 -2.98565 0.2234 0
M  V30 15703 H 1518.53 -1.43588 0.108883 0
M  V30 15704 H 1520.49 -3.63945 -2.12419 0
M  V30 15705 H 1519.21 -2.4001 -2.21501 0
M  V30 15706 H 1517.87 -3.63492 -0.476383 0
M  V30 15707 H 1517.52 -4.10455 -2.9075 0
M  V30 15708 H 1517.22 -5.55452 -1.91694 0
M  V30 15709 H 1518.74 -5.40661 -2.83756 0
M  V30 15710 H 1520.15 -5.70302 -0.585548 0
M  V30 15711 H 1518.55 -5.99917 0.148121 0
M  V30 15712 H 1519.62 -4.77351 0.852296 0
M  V30 15713 N 1520.96 -0.130252 -1.57061 0
M  V30 15714 C 1521.89 0.812189 -2.18919 0
M  V30 15715 C 1522.88 1.2692 -1.13249 0
M  V30 15716 O 1524.06 1.32978 -1.41529 0
M  V30 15717 C 1521.19 2.05803 -2.79754 0
M  V30 15718 C 1520.14 1.73841 -3.91105 0
M  V30 15719 C 1519.47 3.05549 -4.38799 0
M  V30 15720 C 1520.77 0.997991 -5.12677 0
M  V30 15721 H 1522.46 0.296692 -2.97926 0
M  V30 15722 H 1520.01 0.141265 -1.43305 0
M  V30 15723 H 1521.96 2.72201 -3.21691 0
M  V30 15724 H 1520.69 2.59697 -1.98053 0
M  V30 15725 H 1519.35 1.09828 -3.49762 0
M  V30 15726 H 1518.99 3.57399 -3.53942 0
M  V30 15727 H 1518.69 2.84932 -5.13894 0
M  V30 15728 H 1520.22 3.73045 -4.83394 0
M  V30 15729 H 1521.63 1.56372 -5.51562 0
M  V30 15730 H 1520.03 0.892378 -5.93428 0
M  V30 15731 H 1521.1 -0.0132936 -4.84898 0
M  V30 15732 N 1522.44 1.56945 0.143535 0
M  V30 15733 C 1523.39 1.99479 1.19628 0
M  V30 15734 C 1524.39 0.887733 1.44276 0
M  V30 15735 O 1525.59 1.07292 1.44528 0
M  V30 15736 H 1521.97 0.635049 0.402761 0
M  V30 15737 H 1523.94 2.87171 0.810877 0
M  V30 15738 C 1522.69 2.39436 2.52123 0
M  V30 15739 H 1522.01 3.24176 2.33987 0
M  V30 15740 H 1523.45 2.73017 3.24404 0
M  V30 15741 C 1521.91 1.24836 3.12918 0
M  V30 15742 O 1522.44 0.550973 3.97903 0
M  V30 15743 N 1520.64 1.01172 2.7242 0
M  V30 15744 H 1520.19 1.5806 2.03408 0
M  V30 15745 H 1520.15 0.246846 3.13429 0
M  V30 15746 N 1523.92 -0.412991 1.52093 0
M  V30 15747 C 1525.17 -1.15801 1.65634 0
M  V30 15748 C 1525.49 -1.91127 0.386737 0
M  V30 15749 O 1524.76 -1.86541 -0.598262 0
M  V30 15750 H 1523.34 -0.430467 0.610498 0
M  V30 15751 H 1526 -0.471127 1.8912 0
M  V30 15752 H 1525.1 -1.87421 2.49559 0
M  V30 15753 N 1525.4 -1.4265 -0.669982 0
M  V30 15754 C 1526.64 -1.44866 -1.44199 0
M  V30 15755 C 1527 -0.0647049 -1.91891 0
M  V30 15756 O 1528.2 0.0384187 -2.68773 0
M  V30 15757 C 1526.48 -2.44846 -2.60356 0
M  V30 15758 S 1528.03 -2.65803 -3.49134 0
M  V30 15759 H 1524.85 -0.512859 -0.49244 0
M  V30 15760 H 1527.45 -1.7929 -0.779442 0
M  V30 15761 H 1526.16 -3.44161 -2.23565 0
M  V30 15762 H 1525.69 -2.11863 -3.31478 0
M  V30 15763 H 1527.7 -1.94466 -4.56506 0
M  V30 15764 N 1526.88 0.906753 -1.28902 0
M  V30 15765 C 1528.1 1.69547 -1.19452 0
M  V30 15766 C 1528.53 1.86531 0.242418 0
M  V30 15767 O 1527.89 1.38052 1.17521 0
M  V30 15768 C 1527.93 3.06139 -1.90556 0
M  V30 15769 O 1527.04 3.9401 -1.21779 0
M  V30 15770 H 1526.38 0.518902 -0.41429 0
M  V30 15771 H 1528.91 1.13327 -1.70347 0
M  V30 15772 H 1528.92 3.56326 -1.98736 0
M  V30 15773 H 1527.59 2.93094 -2.95074 0
M  V30 15774 H 1526.17 3.52444 -1.2181 0
M  V30 15775 N 1528.36 1.11264 1.11616 0
M  V30 15776 C 1529.29 0.713116 2.16772 0
M  V30 15777 C 1530.27 -0.289791 1.59997 0
M  V30 15778 O 1531.45 -0.186649 1.87574 0
M  V30 15779 C 1528.58 0.0535784 3.38658 0
M  V30 15780 C 1527.62 1.02134 4.14091 0
M  V30 15781 S 1528.46 2.54294 4.71269 0
M  V30 15782 C 1529.61 1.89636 5.96481 0
M  V30 15783 H 1529.85 1.60387 2.50326 0
M  V30 15784 H 1527.38 0.930494 1.23212 0
M  V30 15785 H 1529.34 -0.320604 4.09246 0
M  V30 15786 H 1528 -0.814107 3.03366 0
M  V30 15787 H 1527.19 0.50727 5.01441 0
M  V30 15788 H 1526.79 1.33785 3.49253 0
M  V30 15789 H 1529.08 1.23171 6.66209 0
M  V30 15790 H 1530.03 2.74977 6.52528 0
M  V30 15791 H 1530.44 1.35729 5.4794 0
M  V30 15792 N 1529.83 -1.29188 0.902679 0
M  V30 15793 C 1531.24 -1.77521 0.578207 0
M  V30 15794 C 1531.6 -1.74017 -0.906227 0
M  V30 15795 O 1530.72 -1.32793 -1.70865 0
M  V30 15796 C 1531.32 -3.22352 1.04281 0
M  V30 15797 C 1529.87 -3.68451 0.769454 0
M  V30 15798 C 1529.02 -2.49225 1.21583 0
M  V30 15799 H 1531.97 -1.15807 1.0851 0
M  V30 15800 H 1531.99 -3.78604 0.379396 0
M  V30 15801 H 1531.51 -3.2487 2.12323 0
M  V30 15802 H 1529.61 -3.71405 -0.298223 0
M  V30 15803 H 1529.72 -4.59112 1.36943 0
M  V30 15804 H 1528.08 -2.46663 0.634766 0
M  V30 15805 H 1528.87 -2.54469 2.30436 0
M  V30 15806 N 1531.31 -0.665475 -1.42861 0
M  V30 15807 C 1532.54 -0.190399 -2.06524 0
M  V30 15808 C 1532.96 1.13995 -1.49622 0
M  V30 15809 O 1532.32 1.70695 -0.610981 0
M  V30 15810 C 1532.37 -0.12594 -3.6038 0
M  V30 15811 O 1531.47 0.908299 -4.02273 0
M  V30 15812 H 1530.81 -0.100495 -0.656351 0
M  V30 15813 H 1533.34 -0.911858 -1.83156 0
M  V30 15814 H 1533.35 0.0533153 -4.07965 0
M  V30 15815 H 1532.03 -1.09703 -4.01171 0
M  V30 15816 H 1530.6 0.700841 -3.66255 0
M  V30 15817 N 1532.79 1.52222 -0.408187 0
M  V30 15818 C 1533.7 2.30725 0.424645 0
M  V30 15819 C 1534.72 1.38412 1.05442 0
M  V30 15820 O 1535.89 1.71486 1.05614 0
M  V30 15821 C 1532.96 3.11273 1.52677 0
M  V30 15822 C 1532.02 4.19323 0.920143 0
M  V30 15823 C 1531.25 4.96021 1.96974 0
M  V30 15824 O 1531.47 4.73011 3.18774 0
M  V30 15825 O 1530.41 5.80887 1.5765 0
M  V30 15826 H 1534.23 3.02935 -0.215411 0
M  V30 15827 H 1531.82 1.48413 -0.171414 0
M  V30 15828 H 1533.7 3.61436 2.16661 0
M  V30 15829 H 1532.38 2.41857 2.15144 0
M  V30 15830 H 1531.28 3.7331 0.243037 0
M  V30 15831 H 1532.62 4.91028 0.339405 0
M  V30 15832 N 1534.27 0.138579 1.5699 0
M  V30 15833 C 1535.21 -0.804305 2.16332 0
M  V30 15834 C 1536.18 -1.25002 1.09379 0
M  V30 15835 O 1537.37 -1.32405 1.37381 0
M  V30 15836 C 1534.51 -2.04137 2.78248 0
M  V30 15837 C 1533.62 -1.64223 3.99568 0
M  V30 15838 C 1532.76 -2.83046 4.49509 0
M  V30 15839 C 1531.8 -2.39465 5.63314 0
M  V30 15840 N 1530.93 -3.51267 6.07911 0
M  V30 15841 H 1535.77 -0.29144 2.96571 0
M  V30 15842 H 1533.31 -0.132146 1.46505 0
M  V30 15843 H 1535.27 -2.76646 3.12286 0
M  V30 15844 H 1533.9 -2.52849 2.00667 0
M  V30 15845 H 1532.95 -0.815123 3.71564 0
M  V30 15846 H 1534.26 -1.2821 4.82041 0
M  V30 15847 H 1533.42 -3.63755 4.85559 0
M  V30 15848 H 1532.16 -3.22298 3.66026 0
M  V30 15849 H 1531.16 -1.57193 5.2685 0
M  V30 15850 H 1532.39 -2.01307 6.48577 0
M  V30 15851 H 1530.33 -3.90156 5.27365 0
M  V30 15852 H 1530.25 -3.19241 6.85289 0
M  V30 15853 H 1531.52 -4.32358 6.48604 0
M  V30 15854 N 1535.75 -1.57019 -0.13521 0
M  V30 15855 C 1536.99 -1.83626 -0.844147 0
M  V30 15856 C 1537.31 -0.721298 -1.81169 0
M  V30 15857 O 1536.58 0.256095 -1.94219 0
M  V30 15858 H 1535.16 -0.677464 -0.314725 0
M  V30 15859 H 1537.83 -1.9449 -0.126399 0
M  V30 15860 H 1536.92 -2.78976 -1.39925 0
M  V30 15861 N 1537.22 0.404919 -1.52309 0
M  V30 15862 C 1538.64 0.983553 -1.58692 0
M  V30 15863 C 1538.99 1.9143 -0.429993 0
M  V30 15864 O 1538.11 2.11689 0.449088 0
M  V30 15865 C 1538.71 1.79059 -2.87617 0
M  V30 15866 C 1537.27 2.31918 -2.96464 0
M  V30 15867 C 1536.41 1.12018 -2.53667 0
M  V30 15868 H 1539.36 0.185007 -1.57618 0
M  V30 15869 H 1539.38 2.64836 -2.73207 0
M  V30 15870 H 1538.9 1.11291 -3.71801 0
M  V30 15871 H 1537 3.03044 -2.16783 0
M  V30 15872 H 1537.11 2.62495 -4.00791 0
M  V30 15873 H 1535.47 1.47542 -2.07614 0
M  V30 15874 H 1536.26 0.458111 -3.4023 0
M  V30 15875 N 1538.7 1.43003 0.662408 0
M  V30 15876 C 1539.95 1.43422 1.41821 0
M  V30 15877 C 1540.26 0.0586909 1.95512 0
M  V30 15878 O 1541.47 -0.0596978 2.71434 0
M  V30 15879 C 1539.93 2.52344 2.56613 0
M  V30 15880 C 1539.53 3.95961 2.09569 0
M  V30 15881 C 1541.28 2.61945 3.34044 0
M  V30 15882 C 1539.19 4.96367 3.21518 0
M  V30 15883 H 1538.12 0.533485 0.532832 0
M  V30 15884 H 1540.77 1.68958 0.715911 0
M  V30 15885 H 1539.15 2.19993 3.2927 0
M  V30 15886 H 1540.32 4.37728 1.43984 0
M  V30 15887 H 1538.64 3.90322 1.45044 0
M  V30 15888 H 1541.23 3.34137 4.17441 0
M  V30 15889 H 1541.58 1.66708 3.81463 0
M  V30 15890 H 1542.11 2.93552 2.68463 0
M  V30 15891 H 1538.85 5.93124 2.79077 0
M  V30 15892 H 1538.37 4.59221 3.85845 0
M  V30 15893 H 1540.05 5.18652 3.86793 0
M  V30 15894 N 1540.18 -0.899904 1.29381 0
M  V30 15895 C 1541.13 -2.004 1.14493 0
M  V30 15896 C 1542.1 -1.66056 0.0383099 0
M  V30 15897 O 1543.28 -1.89687 0.20579 0
M  V30 15898 C 1540.42 -3.35039 0.827237 0
M  V30 15899 C 1539.54 -3.82166 2.01427 0
M  V30 15900 C 1538.67 -5.0538 1.63598 0
M  V30 15901 C 1537.71 -5.44876 2.78884 0
M  V30 15902 N 1536.85 -6.59276 2.41452 0
M  V30 15903 H 1541.69 -2.12466 2.08955 0
M  V30 15904 H 1539.22 -1.0405 1.03981 0
M  V30 15905 H 1541.18 -4.12511 0.62373 0
M  V30 15906 H 1539.81 -3.227 -0.0804772 0
M  V30 15907 H 1538.86 -3.00731 2.32949 0
M  V30 15908 H 1540.18 -4.07387 2.87814 0
M  V30 15909 H 1539.33 -5.90436 1.39534 0
M  V30 15910 H 1538.07 -4.81998 0.743593 0
M  V30 15911 H 1537.07 -4.58355 3.0363 0
M  V30 15912 H 1538.3 -5.7024 3.68786 0
M  V30 15913 H 1536.24 -6.37498 1.54701 0
M  V30 15914 H 1536.16 -6.84293 3.21372 0
M  V30 15915 H 1537.43 -7.47602 2.20708 0
M  V30 15916 N 1541.66 -1.11854 -1.11024 0
M  V30 15917 C 1542.9 -0.88128 -1.83317 0
M  V30 15918 C 1543.26 0.586708 -1.83236 0
M  V30 15919 O 1542.55 1.42786 -1.27761 0
M  V30 15920 C 1542.75 -1.3823 -3.29586 0
M  V30 15921 C 1542.58 -2.89747 -3.43914 0
M  V30 15922 C 1541.35 -3.57917 -3.56684 0
M  V30 15923 C 1543.54 -3.8778 -3.37833 0
M  V30 15924 N 1541.53 -4.97608 -3.59526 0
M  V30 15925 C 1542.9 -5.13565 -3.47348 0
M  V30 15926 C 1544.95 -3.80278 -3.21393 0
M  V30 15927 C 1543.65 -6.32731 -3.42117 0
M  V30 15928 C 1545.68 -4.98959 -3.1748 0
M  V30 15929 C 1545.04 -6.236 -3.2757 0
M  V30 15930 H 1541.14 -0.375681 -0.685848 0
M  V30 15931 H 1543.73 -1.4237 -1.32811 0
M  V30 15932 H 1541.9 -0.86701 -3.78599 0
M  V30 15933 H 1543.63 -1.08774 -3.89808 0
M  V30 15934 H 1540.38 -3.08393 -3.59431 0
M  V30 15935 H 1540.81 -5.70451 -3.64575 0
M  V30 15936 H 1545.45 -2.84815 -3.12474 0
M  V30 15937 H 1543.17 -7.28467 -3.49802 0
M  V30 15938 H 1546.75 -4.94878 -3.05919 0
M  V30 15939 H 1545.63 -7.13894 -3.24537 0
M  V30 15940 N 1543.14 1.28707 -0.909517 0
M  V30 15941 C 1544.38 1.95443 -0.541281 0
M  V30 15942 C 1544.72 1.71457 0.911934 0
M  V30 15943 O 1543.99 1.03312 1.64794 0
M  V30 15944 C 1544.27 3.50019 -0.846097 0
M  V30 15945 C 1544.13 3.83423 -2.35173 0
M  V30 15946 C 1545.45 4.3879 -0.339328 0
M  V30 15947 H 1542.56 0.709869 -0.198128 0
M  V30 15948 H 1545.21 1.52151 -1.13799 0
M  V30 15949 H 1543.36 3.87025 -0.338262 0
M  V30 15950 H 1545.03 3.5631 -2.92986 0
M  V30 15951 H 1543.27 3.30618 -2.80846 0
M  V30 15952 H 1543.94 4.91348 -2.51557 0
M  V30 15953 H 1546.42 4.08832 -0.774312 0
M  V30 15954 H 1545.29 5.45809 -0.581722 0
M  V30 15955 H 1545.56 4.35514 0.760244 0
M  V30 15956 N 1544.61 0.673042 1.42506 0
M  V30 15957 C 1545.86 0.1918 2.00786 0
M  V30 15958 C 1546.18 -1.20814 1.53829 0
M  V30 15959 O 1547.38 -1.78566 2.04515 0
M  V30 15960 C 1545.84 0.292045 3.58713 0
M  V30 15961 C 1545.45 1.69593 4.14659 0
M  V30 15962 C 1547.19 -0.130575 4.24299 0
M  V30 15963 C 1545.1 1.74904 5.64945 0
M  V30 15964 H 1544.03 0.0679452 0.750932 0
M  V30 15965 H 1546.68 0.837968 1.63249 0
M  V30 15966 H 1545.06 -0.421985 3.93745 0
M  V30 15967 H 1546.23 2.4369 3.9109 0
M  V30 15968 H 1544.55 2.06625 3.61518 0
M  V30 15969 H 1547.15 -0.11102 5.34585 0
M  V30 15970 H 1547.49 -1.16552 3.99651 0
M  V30 15971 H 1548.02 0.532386 3.94221 0
M  V30 15972 H 1544.76 2.76374 5.94388 0
M  V30 15973 H 1544.28 1.0516 5.9051 0
M  V30 15974 H 1545.96 1.50168 6.29332 0
M  V30 15975 N 1546.09 -1.52004 0.416254 0
M  V30 15976 C 1547.32 -2.06307 -0.156491 0
M  V30 15977 C 1547.74 -1.28567 -1.3826 0
M  V30 15978 O 1547.09 -0.339447 -1.79315 0
M  V30 15979 C 1547.14 -3.58028 -0.499824 0
M  V30 15980 O 1546.86 -4.32828 0.677602 0
M  V30 15981 C 1548.37 -4.28773 -1.12553 0
M  V30 15982 H 1545.59 -0.670778 -0.0172483 0
M  V30 15983 H 1548.13 -1.95826 0.589262 0
M  V30 15984 H 1546.28 -3.68493 -1.19547 0
M  V30 15985 H 1546.7 -5.23053 0.389302 0
M  V30 15986 H 1548.17 -5.36085 -1.31592 0
M  V30 15987 H 1548.65 -3.85706 -2.10066 0
M  V30 15988 H 1549.26 -4.22696 -0.469881 0
M  V30 15989 N 1547.57 -0.146903 -1.56914 0
M  V30 15990 C 1548.85 0.549291 -1.87729 0
M  V30 15991 C 1549.23 1.82971 -1.05284 0
M  V30 15992 O 1548.58 2.28073 -0.139628 0
M  V30 15993 C 1548.79 0.814835 -3.39354 0
M  V30 15994 C 1550.13 1.15565 -4.0857 0
M  V30 15995 O 1551.16 0.904191 -3.44533 0
M  V30 15996 O 1550.02 1.62886 -5.21661 0
M  V30 15997 H 1547.11 0.280196 -0.778087 0
M  V30 15998 H 1549.66 -0.183507 -1.68705 0
M  V30 15999 H 1548.43 -0.0913527 -3.91193 0
M  V30 16000 H 1548.05 1.60182 -3.63906 0
M  V30 16001 N 1549.05 1.57088 0.126881 0
M  V30 16002 C 1550.01 1.98836 1.14003 0
M  V30 16003 C 1551.01 0.877454 1.34749 0
M  V30 16004 O 1552.2 1.14366 1.314 0
M  V30 16005 C 1549.33 2.32171 2.49618 0
M  V30 16006 H 1550.53 2.89541 0.7814 0
M  V30 16007 H 1548.08 1.51835 0.370915 0
M  V30 16008 H 1548.81 1.44321 2.90417 0
M  V30 16009 H 1548.6 3.13187 2.35916 0
M  V30 16010 H 1550.09 2.65238 3.2255 0
M  V30 16011 N 1550.53 -0.396836 1.52522 0
M  V30 16012 C 1551.44 -1.50871 1.79653 0
M  V30 16013 C 1552.45 -1.60043 0.682804 0
M  V30 16014 O 1553.63 -1.76527 0.96955 0
M  V30 16015 C 1550.69 -2.86485 1.95263 0
M  V30 16016 C 1549.75 -2.87099 3.19175 0
M  V30 16017 C 1548.99 -4.16244 3.34031 0
M  V30 16018 O 1549.21 -5.1079 2.5387 0
M  V30 16019 O 1548.14 -4.23962 4.27247 0
M  V30 16020 H 1551.97 -1.30878 2.74052 0
M  V30 16021 H 1549.56 -0.583908 1.37517 0
M  V30 16022 H 1551.44 -3.66895 2.07282 0
M  V30 16023 H 1550.11 -3.0652 1.04052 0
M  V30 16024 H 1549.02 -2.05497 3.12605 0
M  V30 16025 H 1550.35 -2.72014 4.10206 0
M  V30 16026 N 1552.01 -1.43353 -0.654814 0
M  V30 16027 C 1552.95 -1.48387 -1.76776 0
M  V30 16028 C 1553.92 -0.333755 -1.62712 0
M  V30 16029 O 1555.11 -0.540683 -1.82979 0
M  V30 16030 C 1552.25 -1.41132 -3.14922 0
M  V30 16031 C 1551.36 -2.66336 -3.40131 0
M  V30 16032 C 1550.5 -2.5108 -4.68116 0
M  V30 16033 C 1549.53 -3.71561 -4.86425 0
M  V30 16034 N 1548.67 -3.55125 -6.05666 0
M  V30 16035 H 1553.51 -2.43487 -1.71808 0
M  V30 16036 H 1551.05 -1.20866 -0.838442 0
M  V30 16037 H 1553.01 -1.3492 -3.94782 0
M  V30 16038 H 1551.64 -0.496149 -3.18964 0
M  V30 16039 H 1550.69 -2.82834 -2.5438 0
M  V30 16040 H 1552 -3.55835 -3.49546 0
M  V30 16041 H 1551.15 -2.42567 -5.56099 0
M  V30 16042 H 1549.89 -1.59103 -4.61018 0
M  V30 16043 H 1548.9 -3.80484 -3.96877 0
M  V30 16044 H 1550.12 -4.64545 -4.95353 0
M  V30 16045 H 1548.07 -2.65881 -5.99703 0
M  V30 16046 H 1547.99 -4.38224 -6.16032 0
M  V30 16047 H 1549.25 -3.5046 -6.96274 0
M  V30 16048 N 1553.48 0.89303 -1.29857 0
M  V30 16049 C 1554.43 2.01928 -1.15447 0
M  V30 16050 C 1555.43 1.69262 -0.0683677 0
M  V30 16051 O 1556.63 1.78542 -0.228646 0
M  V30 16052 H 1553.01 0.661961 -0.356807 0
M  V30 16053 H 1554.98 2.11218 -2.10784 0
M  V30 16054 C 1553.73 3.37031 -0.85473 0
M  V30 16055 H 1553.05 3.62673 -1.68251 0
M  V30 16056 H 1554.49 4.165 -0.793973 0
M  V30 16057 C 1552.95 3.33986 0.442183 0
M  V30 16058 O 1553.48 3.73986 1.4662 0
M  V30 16059 N 1551.68 2.87088 0.450438 0
M  V30 16060 H 1551.23 2.54732 -0.383347 0
M  V30 16061 H 1551.19 2.85433 1.31815 0
M  V30 16062 N 1554.96 1.12442 1.10429 0
M  V30 16063 C 1555.87 0.805377 2.20343 0
M  V30 16064 C 1556.89 -0.205836 1.72778 0
M  V30 16065 O 1558.06 -0.0394195 2.01361 0
M  V30 16066 C 1555.13 0.264711 3.45688 0
M  V30 16067 C 1554.19 1.33586 4.07987 0
M  V30 16068 C 1553.42 0.8209 5.27349 0
M  V30 16069 O 1553.65 -0.345303 5.69354 0
M  V30 16070 O 1552.58 1.59052 5.80505 0
M  V30 16071 H 1556.41 1.7234 2.50065 0
M  V30 16072 H 1553.99 0.901084 1.19167 0
M  V30 16073 H 1555.87 -0.0319164 4.21388 0
M  V30 16074 H 1554.55 -0.625869 3.17592 0
M  V30 16075 H 1553.45 1.68566 3.33971 0
M  V30 16076 H 1554.79 2.20021 4.40286 0
M  V30 16077 N 1556.44 -1.28223 0.91633 0
M  V30 16078 C 1557.67 -1.98697 0.56595 0
M  V30 16079 C 1558.08 -1.6864 -0.857734 0
M  V30 16080 O 1557.42 -0.937018 -1.58005 0
M  V30 16081 C 1557.48 -3.52653 0.698292 0
M  V30 16082 C 1557.15 -4.06306 2.092 0
M  V30 16083 C 1558.14 -4.19946 3.06499 0
M  V30 16084 C 1555.83 -4.40934 2.40587 0
M  V30 16085 C 1557.82 -4.67471 4.33301 0
M  V30 16086 C 1555.51 -4.88153 3.67628 0
M  V30 16087 C 1556.51 -5.01378 4.63798 0
M  V30 16088 O 1556.2 -5.47566 5.8858 0
M  V30 16089 H 1555.93 -0.641153 0.214239 0
M  V30 16090 H 1558.48 -1.64322 1.23237 0
M  V30 16091 H 1556.71 -3.86692 -0.0252036 0
M  V30 16092 H 1558.4 -4.04348 0.354638 0
M  V30 16093 H 1559.17 -3.93464 2.83569 0
M  V30 16094 H 1555.05 -4.29889 1.66482 0
M  V30 16095 H 1558.59 -4.77709 5.0837 0
M  V30 16096 H 1554.49 -5.14074 3.90382 0
M  V30 16097 H 1555.25 -5.65845 5.91406 0
M  V30 16098 N 1557.92 -0.68059 -1.42147 0
M  V30 16099 C 1558.83 -0.00595573 -2.34599 0
M  V30 16100 C 1559.84 0.782528 -1.55411 0
M  V30 16101 O 1561.02 0.723524 -1.87955 0
M  V30 16102 C 1558.08 0.92964 -3.34004 0
M  V30 16103 C 1557.15 0.135041 -4.29088 0
M  V30 16104 C 1556.38 1.02607 -5.23744 0
M  V30 16105 O 1556.6 2.26562 -5.23475 0
M  V30 16106 O 1555.54 0.483774 -5.99953 0
M  V30 16107 H 1559.36 -0.767652 -2.93838 0
M  V30 16108 H 1556.95 -0.440849 -1.42748 0
M  V30 16109 H 1558.83 1.46657 -3.95057 0
M  V30 16110 H 1557.5 1.67109 -2.7723 0
M  V30 16111 H 1556.41 -0.44613 -3.7143 0
M  V30 16112 H 1557.74 -0.567417 -4.88918 0
M  V30 16113 N 1559.4 1.51781 -0.424309 0
M  V30 16114 C 1560.34 2.27418 0.393668 0
M  V30 16115 C 1561.31 1.3046 1.02808 0
M  V30 16116 O 1562.5 1.59345 1.04946 0
M  V30 16117 C 1559.64 3.10983 1.49611 0
M  V30 16118 C 1558.75 4.22919 0.881123 0
M  V30 16119 C 1557.89 4.93816 1.95752 0
M  V30 16120 C 1556.92 5.97691 1.32028 0
M  V30 16121 N 1556.06 6.62047 2.33747 0
M  V30 16122 H 1560.9 2.96883 -0.257731 0
M  V30 16123 H 1558.44 1.46442 -0.138942 0
M  V30 16124 H 1560.4 3.57749 2.14642 0
M  V30 16125 H 1559.03 2.43658 2.11732 0
M  V30 16126 H 1558.08 3.80212 0.119445 0
M  V30 16127 H 1559.39 4.97383 0.375764 0
M  V30 16128 H 1558.54 5.44064 2.68476 0
M  V30 16129 H 1557.28 4.18954 2.49658 0
M  V30 16130 H 1556.29 5.46749 0.578444 0
M  V30 16131 H 1557.51 6.74504 0.788722 0
M  V30 16132 H 1555.46 5.90005 2.86757 0
M  V30 16133 H 1555.38 7.32234 1.88066 0
M  V30 16134 H 1556.64 7.16929 3.05995 0
M  V30 16135 N 1560.87 0.155222 1.56834 0
M  V30 16136 C 1562.15 -0.539327 1.88018 0
M  V30 16137 C 1562.53 -1.8241 1.06253 0
M  V30 16138 O 1561.88 -2.27996 0.151721 0
M  V30 16139 C 1562.09 -0.796826 3.39782 0
M  V30 16140 C 1563.44 -1.13397 4.09178 0
M  V30 16141 O 1564.46 -0.885907 3.45007 0
M  V30 16142 O 1563.32 -1.60117 5.22518 0
M  V30 16143 H 1560.41 -0.276066 0.779562 0
M  V30 16144 H 1562.96 0.192451 1.68605 0
M  V30 16145 H 1561.73 0.112097 3.91139 0
M  V30 16146 H 1561.35 -1.5825 3.6475 0
M  V30 16147 N 1562.35 -1.57153 -0.118549 0
M  V30 16148 C 1563.58 -1.89434 -0.844355 0
M  V30 16149 C 1564 -0.747203 -1.72622 0
M  V30 16150 O 1563.36 0.302252 -1.78763 0
M  V30 16151 C 1563.41 -3.20466 -1.65331 0
M  V30 16152 O 1562.51 -3.06403 -2.76027 0
M  V30 16153 H 1561.85 -0.621601 -0.23347 0
M  V30 16154 H 1564.38 -2.04351 -0.100811 0
M  V30 16155 H 1564.39 -3.53197 -2.04245 0
M  V30 16156 H 1563.07 -4.03551 -1.00594 0
M  V30 16157 H 1561.64 -2.85139 -2.40312 0
M  V30 16158 N 1563.83 0.388742 -1.5273 0
M  V30 16159 C 1565.24 0.966667 -1.59726 0
M  V30 16160 C 1565.59 1.90963 -0.450272 0
M  V30 16161 O 1564.72 2.12153 0.426611 0
M  V30 16162 C 1565.31 1.75998 -2.895 0
M  V30 16163 C 1563.87 2.28761 -2.98907 0
M  V30 16164 C 1563.02 1.09322 -2.54841 0
M  V30 16165 H 1565.97 0.16828 -1.57805 0
M  V30 16166 H 1565.99 2.61924 -2.76 0
M  V30 16167 H 1565.5 1.07342 -3.7296 0
M  V30 16168 H 1563.6 3.00728 -2.19985 0
M  V30 16169 H 1563.72 2.58229 -4.03552 0
M  V30 16170 H 1562.08 1.45332 -2.09167 0
M  V30 16171 H 1562.86 0.421999 -3.40696 0
M  V30 16172 N 1565.31 1.43698 0.647203 0
M  V30 16173 C 1566.72 1.27231 0.963563 0
M  V30 16174 C 1566.92 0.196385 2.00541 0
M  V30 16175 O 1565.98 -0.423162 2.48929 0
M  V30 16176 C 1567.29 2.63863 1.44211 0
M  V30 16177 C 1568.84 2.71444 1.55844 0
M  V30 16178 C 1569.32 4.08508 2.07087 0
M  V30 16179 N 1570.81 4.10603 2.14381 0
M  V30 16180 C 1571.54 5.13496 2.55166 0
M  V30 16181 N 1571.04 6.26759 2.95203 0
M  V30 16182 N 1572.83 5.0085 2.55158 0
M  V30 16183 H 1564.98 2.12358 -0.0420956 0
M  V30 16184 H 1567.24 0.946989 0.0437628 0
M  V30 16185 H 1566.95 3.43589 0.75096 0
M  V30 16186 H 1566.82 2.89666 2.41605 0
M  V30 16187 H 1569.21 1.92046 2.24058 0
M  V30 16188 H 1569.29 2.49399 0.56866 0
M  V30 16189 H 1568.94 4.88375 1.39472 0
M  V30 16190 H 1568.87 4.2792 3.06907 0
M  V30 16191 H 1571.36 3.2885 1.86188 0
M  V30 16192 H 1571.67 7.01096 3.25091 0
M  V30 16193 H 1570.02 6.30222 2.92993 0
M  V30 16194 H 1573.21 4.11428 2.2326 0
M  V30 16195 H 1573.38 5.81165 2.86621 0
M  V30 16196 N 1566.79 -0.886131 1.30328 0
M  V30 16197 C 1567.72 -2.00793 1.19183 0
M  V30 16198 C 1568.7 -1.69899 0.08276 0
M  V30 16199 O 1569.88 -1.92389 0.264593 0
M  V30 16200 C 1567.01 -3.35922 0.881669 0
M  V30 16201 C 1565.97 -3.81072 1.94855 0
M  V30 16202 C 1565.29 -5.1348 1.4914 0
M  V30 16203 C 1566.59 -3.99923 3.35944 0
M  V30 16204 H 1568.29 -2.10375 2.13032 0
M  V30 16205 H 1565.83 -1.0108 1.02561 0
M  V30 16206 H 1567.79 -4.13922 0.790359 0
M  V30 16207 H 1566.51 -3.26469 -0.0925037 0
M  V30 16208 H 1565.17 -3.053 2.02947 0
M  V30 16209 H 1564.82 -5.00453 0.50553 0
M  V30 16210 H 1564.52 -5.44659 2.205 0
M  V30 16211 H 1566.04 -5.94005 1.41386 0
M  V30 16212 H 1567.45 -4.68364 3.30617 0
M  V30 16213 H 1565.85 -4.42477 4.05381 0
M  V30 16214 H 1566.92 -3.03816 3.77921 0
M  V30 16215 N 1568.26 -1.13026 -1.09832 0
M  V30 16216 C 1569.49 -0.91246 -1.85693 0
M  V30 16217 C 1569.91 0.538558 -1.80956 0
M  V30 16218 O 1569.26 1.37262 -1.20273 0
M  V30 16219 C 1569.32 -1.38684 -3.3384 0
M  V30 16220 O 1569.04 -2.78099 -3.38515 0
M  V30 16221 C 1570.54 -1.20688 -4.26555 0
M  V30 16222 H 1567.76 -0.32565 -0.58668 0
M  V30 16223 H 1570.3 -1.50177 -1.38806 0
M  V30 16224 H 1568.46 -0.840617 -3.7817 0
M  V30 16225 H 1568.87 -2.99061 -4.30886 0
M  V30 16226 H 1570.34 -1.5876 -5.28677 0
M  V30 16227 H 1570.82 -0.148111 -4.3895 0
M  V30 16228 H 1571.43 -1.74092 -3.88036 0
M  V30 16229 N 1569.74 1.27735 -0.923117 0
M  V30 16230 C 1570.69 2.26997 -0.417254 0
M  V30 16231 C 1571.66 1.57968 0.513364 0
M  V30 16232 O 1572.84 1.8581 0.433521 0
M  V30 16233 C 1569.98 3.43537 0.328089 0
M  V30 16234 C 1569.1 4.27291 -0.636112 0
M  V30 16235 C 1568.23 5.31044 0.128614 0
M  V30 16236 C 1567.27 6.06466 -0.828592 0
M  V30 16237 N 1566.41 7.02033 -0.0967858 0
M  V30 16238 H 1571.25 2.69643 -1.26872 0
M  V30 16239 H 1568.79 1.32597 -0.6369 0
M  V30 16240 H 1570.74 4.0991 0.776504 0
M  V30 16241 H 1569.37 3.01855 1.14383 0
M  V30 16242 H 1568.43 3.60875 -1.20306 0
M  V30 16243 H 1569.74 4.79679 -1.36784 0
M  V30 16244 H 1568.89 6.03345 0.637159 0
M  V30 16245 H 1567.63 4.79448 0.893341 0
M  V30 16246 H 1566.64 5.33008 -1.34843 0
M  V30 16247 H 1567.86 6.60151 -1.59303 0
M  V30 16248 H 1565.81 6.52774 0.649779 0
M  V30 16249 H 1565.72 7.52087 -0.768171 0
M  V30 16250 H 1566.99 7.78517 0.391257 0
M  V30 16251 N 1571.22 0.688118 1.41784 0
M  V30 16252 C 1572.45 0.22475 2.05676 0
M  V30 16253 C 1572.86 -1.1232 1.51755 0
M  V30 16254 O 1572.22 -1.70041 0.662735 0
M  V30 16255 C 1572.27 0.165661 3.6112 0
M  V30 16256 O 1571.99 1.46035 4.13044 0
M  V30 16257 C 1573.49 -0.319599 4.42146 0
M  V30 16258 H 1570.71 0.106135 0.662553 0
M  V30 16259 H 1573.26 0.938605 1.81688 0
M  V30 16260 H 1571.41 -0.498968 3.84173 0
M  V30 16261 H 1571.83 1.34252 5.07027 0
M  V30 16262 H 1573.3 -0.30983 5.5113 0
M  V30 16263 H 1573.78 -1.3572 4.17704 0
M  V30 16264 H 1574.38 0.313764 4.24141 0
M  V30 16265 N 1572.7 -1.51554 0.432352 0
M  V30 16266 C 1573.65 -2.29204 -0.396044 0
M  V30 16267 C 1574.64 -1.34846 -1.02532 0
M  V30 16268 O 1575.85 -1.52209 -0.960861 0
M  V30 16269 H 1572.22 -0.737587 -0.146525 0
M  V30 16270 H 1574.19 -2.97085 0.279781 0
M  V30 16271 C 1572.94 -3.1427 -1.4876 0
M  V30 16272 H 1572.26 -3.8676 -1.01274 0
M  V30 16273 H 1573.7 -3.71667 -2.04058 0
M  V30 16274 C 1572.16 -2.29322 -2.46806 0
M  V30 16275 O 1572.69 -1.94941 -3.51228 0
M  V30 16276 N 1570.9 -1.92641 -2.17573 0
M  V30 16277 H 1570.45 -2.208 -1.32685 0
M  V30 16278 H 1570.4 -1.361 -2.83415 0
M  V30 16279 N 1574.18 -0.163538 -1.56749 0
M  V30 16280 C 1575.59 0.354516 -1.83303 0
M  V30 16281 C 1575.94 1.63601 -1.08301 0
M  V30 16282 O 1575.06 2.13814 -0.333546 0
M  V30 16283 C 1575.66 0.649983 -3.32507 0
M  V30 16284 C 1574.22 1.1125 -3.59584 0
M  V30 16285 C 1573.36 0.144257 -2.76925 0
M  V30 16286 H 1576.32 -0.387945 -1.53885 0
M  V30 16287 H 1576.34 1.5029 -3.49562 0
M  V30 16288 H 1575.85 -0.282886 -3.87068 0
M  V30 16289 H 1573.95 2.06074 -3.10426 0
M  V30 16290 H 1574.06 1.02704 -4.67962 0
M  V30 16291 H 1572.43 0.640116 -2.46525 0
M  V30 16292 H 1573.21 -0.782495 -3.34263 0
M  V30 16293 N 1575.65 1.57214 0.110213 0
M  V30 16294 C 1576.9 1.84498 0.815059 0
M  V30 16295 C 1577.22 0.750531 1.80628 0
M  V30 16296 O 1578.42 0.910042 2.55794 0
M  V30 16297 C 1576.88 3.27138 1.50028 0
M  V30 16298 C 1576.49 4.44616 0.549603 0
M  V30 16299 C 1578.23 3.63662 2.18975 0
M  V30 16300 C 1576.14 5.78285 1.23855 0
M  V30 16301 H 1575.07 0.688165 0.308132 0
M  V30 16302 H 1577.72 1.83374 0.0678595 0
M  V30 16303 H 1576.1 3.22758 2.29441 0
M  V30 16304 H 1577.27 4.60312 -0.211944 0
M  V30 16305 H 1575.59 4.16387 -0.0333571 0
M  V30 16306 H 1578.19 4.60804 2.71226 0
M  V30 16307 H 1578.53 2.91532 2.97178 0
M  V30 16308 H 1579.06 3.69865 1.46439 0
M  V30 16309 H 1575.8 6.53608 0.497629 0
M  V30 16310 H 1575.32 5.66459 1.9719 0
M  V30 16311 H 1577 6.22338 1.76929 0
M  V30 16312 N 1577.13 -0.380637 1.52934 0
M  V30 16313 C 1578.06 -1.47174 1.81279 0
M  V30 16314 C 1579.04 -1.56549 0.665319 0
M  V30 16315 O 1580.23 -1.71362 0.913722 0
M  V30 16316 C 1577.36 -2.84691 1.98918 0
M  V30 16317 C 1576.31 -2.90151 3.14637 0
M  V30 16318 C 1575.64 -4.30198 3.17544 0
M  V30 16319 C 1576.94 -2.59037 4.53539 0
M  V30 16320 H 1578.63 -1.23703 2.7265 0
M  V30 16321 H 1576.18 -0.593654 1.31194 0
M  V30 16322 H 1578.13 -3.61034 2.1733 0
M  V30 16323 H 1576.86 -3.09517 1.04244 0
M  V30 16324 H 1575.51 -2.16257 2.96021 0
M  V30 16325 H 1575.16 -4.52076 2.20536 0
M  V30 16326 H 1574.86 -4.3477 3.95284 0
M  V30 16327 H 1576.39 -5.08435 3.38121 0
M  V30 16328 H 1577.8 -3.25096 4.72214 0
M  V30 16329 H 1576.2 -2.74946 5.33408 0
M  V30 16330 H 1577.27 -1.54342 4.59681 0
M  V30 16331 N 1578.61 -1.44039 -0.639573 0
M  V30 16332 C 1579.84 -1.49626 -1.42462 0
M  V30 16333 C 1580.25 -0.117078 -1.88837 0
M  V30 16334 O 1579.59 0.885666 -1.6094 0
M  V30 16335 C 1579.65 -2.39182 -2.68388 0
M  V30 16336 C 1579.32 -3.86496 -2.43865 0
M  V30 16337 C 1580.31 -4.7725 -2.06224 0
M  V30 16338 C 1578 -4.31117 -2.57766 0
M  V30 16339 C 1579.99 -6.10625 -1.82801 0
M  V30 16340 C 1577.68 -5.64541 -2.33958 0
M  V30 16341 C 1578.68 -6.54113 -1.96533 0
M  V30 16342 O 1578.37 -7.85068 -1.72983 0
M  V30 16343 H 1578.1 -0.510054 -0.443645 0
M  V30 16344 H 1580.65 -1.89593 -0.790162 0
M  V30 16345 H 1578.88 -1.94127 -3.34442 0
M  V30 16346 H 1580.57 -2.35816 -3.30372 0
M  V30 16347 H 1581.34 -4.44051 -1.95048 0
M  V30 16348 H 1577.22 -3.61663 -2.85868 0
M  V30 16349 H 1580.76 -6.80499 -1.53514 0
M  V30 16350 H 1576.66 -5.97304 -2.44741 0
M  V30 16351 H 1577.43 -7.96782 -1.87298 0
M  V30 16352 N 1580.09 0.879207 -1.30796 0
M  V30 16353 C 1581.32 1.66208 -1.22713 0
M  V30 16354 C 1581.73 1.88014 0.211506 0
M  V30 16355 O 1581.07 1.43183 1.15084 0
M  V30 16356 C 1581.13 3.05733 -1.89123 0
M  V30 16357 C 1580.8 3.07075 -3.38458 0
M  V30 16358 C 1581.79 2.85709 -4.34358 0
M  V30 16359 C 1579.48 3.28489 -3.8 0
M  V30 16360 C 1581.47 2.85722 -5.69773 0
M  V30 16361 C 1579.16 3.28131 -5.15532 0
M  V30 16362 C 1580.16 3.06773 -6.10229 0
M  V30 16363 O 1579.84 3.06243 -7.43283 0
M  V30 16364 H 1579.58 0.525224 -0.425577 0
M  V30 16365 H 1582.13 1.10636 -1.73057 0
M  V30 16366 H 1580.36 3.62993 -1.33316 0
M  V30 16367 H 1582.05 3.66199 -1.7508 0
M  V30 16368 H 1582.82 2.68956 -4.03593 0
M  V30 16369 H 1578.69 3.44147 -3.06731 0
M  V30 16370 H 1582.24 2.6897 -6.43662 0
M  V30 16371 H 1578.14 3.44422 -5.45934 0
M  V30 16372 H 1578.9 3.22369 -7.52343 0
M  V30 16373 N 1581.57 1.13606 1.09231 0
M  V30 16374 C 1582.5 0.758936 2.1521 0
M  V30 16375 C 1583.48 -0.255788 1.60575 0
M  V30 16376 O 1584.66 -0.14682 1.87927 0
M  V30 16377 C 1581.79 0.125401 3.38468 0
M  V30 16378 C 1580.84 1.10894 4.11831 0
M  V30 16379 S 1581.67 2.64233 4.65769 0
M  V30 16380 C 1582.82 2.02246 5.92324 0
M  V30 16381 H 1583.06 1.65661 2.46868 0
M  V30 16382 H 1580.59 0.956419 1.2121 0
M  V30 16383 H 1582.55 -0.233725 4.09834 0
M  V30 16384 H 1581.21 -0.749575 3.05025 0
M  V30 16385 H 1580.4 0.613519 5.00252 0
M  V30 16386 H 1580 1.41163 3.46336 0
M  V30 16387 H 1582.3 1.37275 6.63447 0
M  V30 16388 H 1583.24 2.88756 6.46549 0
M  V30 16389 H 1583.65 1.47321 5.44937 0
M  V30 16390 N 1583.05 -1.27244 0.929878 0
M  V30 16391 C 1583.98 -2.29161 0.448066 0
M  V30 16392 C 1584.96 -1.62806 -0.492776 0
M  V30 16393 O 1586.14 -1.90098 -0.39706 0
M  V30 16394 C 1583.27 -3.46019 -0.298002 0
M  V30 16395 C 1582.23 -4.24384 0.555211 0
M  V30 16396 C 1581.55 -5.33741 -0.320153 0
M  V30 16397 C 1582.85 -4.89535 1.8208 0
M  V30 16398 H 1584.55 -2.69712 1.29983 0
M  V30 16399 H 1582.09 -1.29659 0.626466 0
M  V30 16400 H 1584.04 -4.16419 -0.646024 0
M  V30 16401 H 1582.77 -3.0439 -1.18381 0
M  V30 16402 H 1581.43 -3.55733 0.885971 0
M  V30 16403 H 1581.08 -4.88354 -1.20498 0
M  V30 16404 H 1580.78 -5.8708 0.247241 0
M  V30 16405 H 1582.3 -6.06982 -0.663697 0
M  V30 16406 H 1583.71 -5.52209 1.54071 0
M  V30 16407 H 1582.11 -5.52941 2.33186 0
M  V30 16408 H 1583.18 -4.13113 2.53901 0
M  V30 16409 N 1584.52 -0.695628 -1.41417 0
M  V30 16410 C 1585.46 0.00883515 -2.29198 0
M  V30 16411 C 1586.47 0.744337 -1.44788 0
M  V30 16412 O 1587.66 0.59503 -1.6829 0
M  V30 16413 C 1584.76 1.0366 -3.22657 0
M  V30 16414 C 1583.93 0.37071 -4.35826 0
M  V30 16415 C 1582.99 1.3011 -5.09861 0
M  V30 16416 O 1582.02 0.793461 -5.63642 0
M  V30 16417 N 1583.22 2.63343 -5.1733 0
M  V30 16418 H 1585.98 -0.744795 -2.90298 0
M  V30 16419 H 1583.54 -0.541663 -1.5257 0
M  V30 16420 H 1585.54 1.66075 -3.69054 0
M  V30 16421 H 1584.11 1.69177 -2.62865 0
M  V30 16422 H 1583.33 -0.433315 -3.91811 0
M  V30 16423 H 1584.61 -0.0923178 -5.08716 0
M  V30 16424 H 1584.01 3.07103 -4.75083 0
M  V30 16425 H 1582.57 3.20952 -5.67303 0
M  V30 16426 N 1586 1.51322 -0.440383 0
M  V30 16427 C 1586.95 2.27823 0.369526 0
M  V30 16428 C 1587.92 1.31543 1.01418 0
M  V30 16429 O 1589.1 1.60449 1.03251 0
M  V30 16430 C 1586.24 3.12553 1.46304 0
M  V30 16431 C 1585.36 4.23829 0.836217 0
M  V30 16432 C 1584.49 4.95865 1.90504 0
M  V30 16433 C 1583.53 5.99058 1.25681 0
M  V30 16434 N 1582.67 6.64489 2.26712 0
M  V30 16435 H 1587.51 2.96593 -0.289205 0
M  V30 16436 H 1585.04 1.46287 -0.154466 0
M  V30 16437 H 1587 3.60006 2.10836 0
M  V30 16438 H 1585.63 2.4589 2.09136 0
M  V30 16439 H 1584.68 3.80318 0.0791116 0
M  V30 16440 H 1586 4.97753 0.322989 0
M  V30 16441 H 1585.15 5.46881 2.6269 0
M  V30 16442 H 1583.89 4.21578 2.452 0
M  V30 16443 H 1582.89 5.47331 0.520422 0
M  V30 16444 H 1584.12 6.75303 0.717138 0
M  V30 16445 H 1582.07 5.93014 2.80483 0
M  V30 16446 H 1581.98 7.34188 1.80289 0
M  V30 16447 H 1583.25 7.20134 2.98373 0
M  V30 16448 N 1587.48 0.171848 1.5666 0
M  V30 16449 C 1588.73 -0.472034 1.9651 0
M  V30 16450 C 1589.05 -1.63743 1.05893 0
M  V30 16451 O 1588.32 -1.95498 0.125396 0
M  V30 16452 H 1586.9 -0.177377 0.725635 0
M  V30 16453 H 1589.56 0.253155 1.93249 0
M  V30 16454 H 1588.66 -0.831693 3.00814 0
M  V30 16455 N 1588.96 -1.5727 -0.101874 0
M  V30 16456 C 1590.21 -1.85375 -0.805007 0
M  V30 16457 C 1590.53 -0.759564 -1.79599 0
M  V30 16458 O 1589.8 0.21484 -1.94718 0
M  V30 16459 H 1588.38 -0.683987 -0.300284 0
M  V30 16460 H 1591.04 -1.94714 -0.0851166 0
M  V30 16461 H 1590.13 -2.81881 -1.33976 0
M  V30 16462 N 1590.44 0.372521 -1.53134 0
M  V30 16463 C 1591.38 1.47633 -1.79742 0
M  V30 16464 C 1592.38 1.55752 -0.66617 0
M  V30 16465 O 1593.58 1.58721 -0.848979 0
M  V30 16466 H 1589.96 0.491677 -0.568997 0
M  V30 16467 H 1591.93 1.22392 -2.72145 0
M  V30 16468 C 1590.68 2.84559 -1.99803 0
M  V30 16469 H 1590 2.79069 -2.86288 0
M  V30 16470 H 1591.44 3.60989 -2.22402 0
M  V30 16471 C 1589.9 3.27861 -0.775162 0
M  V30 16472 O 1590.43 4.01681 0.0394991 0
M  V30 16473 N 1588.64 2.84326 -0.600573 0
M  V30 16474 H 1588.18 2.2442 -1.26466 0
M  V30 16475 H 1588.14 3.13655 0.216241 0
M  V30 16476 N 1591.91 1.44376 0.631925 0
M  V30 16477 C 1593.14 1.5082 1.42366 0
M  V30 16478 C 1593.56 0.133858 1.87623 0
M  V30 16479 O 1592.92 -0.876789 1.58689 0
M  V30 16480 C 1592.97 2.47698 2.62065 0
M  V30 16481 O 1592.07 1.97796 3.61871 0
M  V30 16482 H 1591.41 0.509318 0.426018 0
M  V30 16483 H 1593.94 1.89502 0.771376 0
M  V30 16484 H 1593.95 2.65708 3.09618 0
M  V30 16485 H 1592.63 3.47526 2.2847 0
M  V30 16486 H 1591.21 1.89549 3.21131 0
M  V30 16487 N 1593.39 -0.872258 1.31261 0
M  V30 16488 C 1594.64 -1.62752 1.20994 0
M  V30 16489 C 1594.97 -1.9281 -0.231942 0
M  V30 16490 O 1594.25 -1.55808 -1.16423 0
M  V30 16491 C 1594.53 -2.95921 2.0519 0
M  V30 16492 C 1594.38 -2.72756 3.57665 0
M  V30 16493 C 1595.7 -3.96996 1.89953 0
M  V30 16494 H 1592.82 -0.590581 0.440889 0
M  V30 16495 H 1595.46 -1.00848 1.61027 0
M  V30 16496 H 1593.61 -3.48756 1.71177 0
M  V30 16497 H 1595.28 -2.26611 4.01803 0
M  V30 16498 H 1593.53 -2.07029 3.81211 0
M  V30 16499 H 1594.2 -3.67502 4.11882 0
M  V30 16500 H 1596.67 -3.53363 2.19713 0
M  V30 16501 H 1595.55 -4.88063 2.51169 0
M  V30 16502 H 1595.81 -4.33611 0.862191 0
M  V30 16503 N 1594.87 -1.14184 -1.08627 0
M  V30 16504 C 1596.1 -0.932104 -1.84714 0
M  V30 16505 C 1596.51 0.519335 -1.81517 0
M  V30 16506 O 1595.87 1.35978 -1.21722 0
M  V30 16507 C 1595.92 -1.42217 -3.3235 0
M  V30 16508 O 1595.64 -2.81674 -3.35547 0
M  V30 16509 C 1597.14 -1.25205 -4.25251 0
M  V30 16510 H 1594.36 -0.331854 -0.583193 0
M  V30 16511 H 1596.91 -1.51641 -1.37205 0
M  V30 16512 H 1595.06 -0.880679 -3.77257 0
M  V30 16513 H 1595.48 -3.03615 -4.2769 0
M  V30 16514 H 1596.95 -1.64358 -5.26963 0
M  V30 16515 H 1597.43 -0.194659 -4.38768 0
M  V30 16516 H 1598.03 -1.78198 -3.86168 0
M  V30 16517 N 1596.35 1.26749 -0.936613 0
M  V30 16518 C 1597.57 1.98597 -0.597817 0
M  V30 16519 C 1598 1.69324 0.8192 0
M  V30 16520 O 1597.36 0.938634 1.55111 0
M  V30 16521 C 1597.4 3.50656 -0.841007 0
M  V30 16522 O 1596.51 4.12304 0.0891038 0
M  V30 16523 H 1595.85 0.623197 -0.229176 0
M  V30 16524 H 1598.38 1.61332 -1.2583 0
M  V30 16525 H 1598.39 4.00857 -0.760093 0
M  V30 16526 H 1597.06 3.71293 -1.87388 0
M  V30 16527 H 1595.64 3.72876 -0.0424804 0
M  V30 16528 N 1597.83 0.703118 1.41046 0
M  V30 16529 C 1599.24 0.375417 1.55122 0
M  V30 16530 C 1599.44 -1.11696 1.67709 0
M  V30 16531 O 1598.5 -1.90289 1.65971 0
M  V30 16532 C 1599.81 1.13056 2.78638 0
M  V30 16533 C 1601.36 1.11564 2.92442 0
M  V30 16534 C 1601.83 1.85268 4.18855 0
M  V30 16535 N 1603.33 1.82275 4.25829 0
M  V30 16536 C 1604.06 2.36137 5.2252 0
M  V30 16537 N 1603.56 2.98502 6.25195 0
M  V30 16538 N 1605.35 2.26349 5.14512 0
M  V30 16539 H 1597.5 1.67096 1.31121 0
M  V30 16540 H 1599.76 0.705573 0.633144 0
M  V30 16541 H 1599.47 2.18524 2.75572 0
M  V30 16542 H 1599.34 0.714037 3.7038 0
M  V30 16543 H 1601.73 0.0691901 2.95019 0
M  V30 16544 H 1601.81 1.57128 2.01853 0
M  V30 16545 H 1601.46 2.89896 4.1704 0
M  V30 16546 H 1601.39 1.37133 5.08431 0
M  V30 16547 H 1603.88 1.36812 3.52265 0
M  V30 16548 H 1604.19 3.37149 6.95378 0
M  V30 16549 H 1602.53 3.02582 6.25675 0
M  V30 16550 H 1605.73 1.77294 4.33226 0
M  V30 16551 H 1605.9 2.68629 5.89697 0
M  V30 16552 N 1599.3 -1.51086 0.448402 0
M  V30 16553 C 1600.21 -2.3177 -0.363323 0
M  V30 16554 C 1601.23 -1.41159 -1.01736 0
M  V30 16555 O 1602.41 -1.74226 -1.01031 0
M  V30 16556 C 1599.47 -3.15211 -1.4437 0
M  V30 16557 C 1598.53 -4.21615 -0.808643 0
M  V30 16558 C 1597.77 -5.01069 -1.83754 0
M  V30 16559 O 1597.99 -4.81296 -3.06121 0
M  V30 16560 O 1596.92 -5.84863 -1.42193 0
M  V30 16561 H 1600.75 -3.02257 0.295653 0
M  V30 16562 H 1598.33 -1.47907 0.210703 0
M  V30 16563 H 1600.22 -3.67053 -2.07002 0
M  V30 16564 H 1598.89 -2.47476 -2.08656 0
M  V30 16565 H 1597.8 -3.73823 -0.143975 0
M  V30 16566 H 1599.13 -4.91756 -0.209098 0
M  V30 16567 N 1600.78 -0.180154 -1.56567 0
M  V30 16568 C 1602.01 0.46854 -2.01525 0
M  V30 16569 C 1602.43 1.56211 -1.06036 0
M  V30 16570 O 1601.78 1.82392 -0.06269 0
M  V30 16571 C 1601.83 1.0387 -3.46256 0
M  V30 16572 O 1601.55 -0.0112203 -4.38099 0
M  V30 16573 C 1603.06 1.76475 -4.06659 0
M  V30 16574 H 1600.28 0.119098 -0.660346 0
M  V30 16575 H 1602.82 -0.284477 -2.02512 0
M  V30 16576 H 1600.97 1.74217 -3.46016 0
M  V30 16577 H 1601.39 0.41099 -5.22887 0
M  V30 16578 H 1602.86 2.11618 -5.09825 0
M  V30 16579 H 1603.34 2.66301 -3.49257 0
M  V30 16580 H 1603.95 1.10749 -4.10627 0
M  V30 16581 N 1602.26 1.57322 0.0935319 0
M  V30 16582 C 1603.19 1.98861 1.13961 0
M  V30 16583 C 1604.21 0.891385 1.36228 0
M  V30 16584 O 1605.39 1.16949 1.34853 0
M  V30 16585 C 1602.49 2.29369 2.49485 0
M  V30 16586 C 1601.67 3.6066 2.47473 0
M  V30 16587 C 1600.73 3.79087 3.64937 0
M  V30 16588 O 1599.75 4.50923 3.47357 0
M  V30 16589 N 1600.95 3.19784 4.84478 0
M  V30 16590 H 1603.72 2.89208 0.786048 0
M  V30 16591 H 1601.28 1.59416 0.282491 0
M  V30 16592 H 1603.27 2.38889 3.26671 0
M  V30 16593 H 1601.84 1.45021 2.76925 0
M  V30 16594 H 1601.06 3.62095 1.55823 0
M  V30 16595 H 1602.35 4.46908 2.43209 0
M  V30 16596 H 1601.75 2.61436 5.01665 0
M  V30 16597 H 1600.31 3.34786 5.59251 0
M  V30 16598 N 1603.74 -0.364395 1.53329 0
M  V30 16599 C 1605.02 -1.12265 1.60174 0
M  V30 16600 C 1605.4 -2.0708 0.410015 0
M  V30 16601 O 1604.74 -2.20492 -0.599631 0
M  V30 16602 C 1604.95 -1.86071 2.9526 0
M  V30 16603 C 1606.3 -2.40562 3.49879 0
M  V30 16604 O 1607.33 -1.96196 2.97297 0
M  V30 16605 O 1606.18 -3.2167 4.41804 0
M  V30 16606 H 1603.28 -0.515062 0.647024 0
M  V30 16607 H 1605.82 -0.367563 1.65672 0
M  V30 16608 H 1604.6 -1.1688 3.73436 0
M  V30 16609 H 1604.22 -2.68486 2.93259 0
M  V30 16610 N 1605.22 -1.44709 -0.62426 0
M  V30 16611 C 1606.16 -1.52104 -1.73589 0
M  V30 16612 C 1607.13 -0.368193 -1.61968 0
M  V30 16613 O 1608.32 -0.579374 -1.81791 0
M  V30 16614 C 1605.46 -1.4778 -3.11857 0
M  V30 16615 C 1604.57 -2.73491 -3.34405 0
M  V30 16616 C 1603.71 -2.60953 -4.62685 0
M  V30 16617 C 1602.75 -3.81795 -4.78434 0
M  V30 16618 N 1601.88 -3.67892 -5.97997 0
M  V30 16619 H 1606.72 -2.47077 -1.66604 0
M  V30 16620 H 1604.26 -1.22617 -0.812616 0
M  V30 16621 H 1606.22 -1.43263 -3.91831 0
M  V30 16622 H 1604.85 -0.563694 -3.1784 0
M  V30 16623 H 1603.9 -2.88166 -2.48324 0
M  V30 16624 H 1605.21 -3.6317 -3.4192 0
M  V30 16625 H 1604.37 -2.54308 -5.50829 0
M  V30 16626 H 1603.1 -1.68846 -4.57539 0
M  V30 16627 H 1602.11 -3.88817 -3.88717 0
M  V30 16628 H 1603.33 -4.74947 -4.85388 0
M  V30 16629 H 1601.28 -2.78541 -5.93928 0
M  V30 16630 H 1601.2 -4.51193 -6.06598 0
M  V30 16631 H 1602.47 -3.6515 -6.88684 0
M  V30 16632 N 1606.69 0.865285 -1.31722 0
M  V30 16633 C 1607.97 1.60146 -1.12306 0
M  V30 16634 C 1608.35 2.08653 0.320508 0
M  V30 16635 O 1607.7 1.86841 1.31539 0
M  V30 16636 C 1607.91 2.75583 -2.14138 0
M  V30 16637 C 1609.26 3.45429 -2.46909 0
M  V30 16638 O 1610.28 2.85795 -2.12602 0
M  V30 16639 O 1609.14 4.53017 -3.05676 0
M  V30 16640 H 1606.23 0.704786 -0.432673 0
M  V30 16641 H 1608.78 0.910339 -1.43216 0
M  V30 16642 H 1607.55 2.37187 -3.1122 0
M  V30 16643 H 1607.18 3.52378 -1.84161 0
M  V30 16644 N 1608.17 1.14759 1.0802 0
M  V30 16645 C 1609.42 0.912823 1.79862 0
M  V30 16646 C 1609.73 -0.561873 1.87356 0
M  V30 16647 O 1610.94 -0.914015 2.55652 0
M  V30 16648 C 1609.4 1.58369 3.23183 0
M  V30 16649 C 1609 3.09493 3.23911 0
M  V30 16650 C 1610.75 1.43021 3.99682 0
M  V30 16651 C 1608.66 3.69398 4.61843 0
M  V30 16652 H 1607.59 0.337868 0.674063 0
M  V30 16653 H 1610.24 1.37695 1.21294 0
M  V30 16654 H 1608.62 1.04724 3.81902 0
M  V30 16655 H 1609.79 3.69838 2.74876 0
M  V30 16656 H 1608.11 3.24524 2.60908 0
M  V30 16657 H 1610.7 1.85174 5.01612 0
M  V30 16658 H 1611.05 0.376814 4.14591 0
M  V30 16659 H 1611.58 1.93724 3.47442 0
M  V30 16660 H 1608.32 4.74607 4.52138 0
M  V30 16661 H 1607.84 3.13835 5.11144 0
M  V30 16662 H 1609.52 3.69923 5.30816 0
M  V30 16663 N 1609.65 -1.26251 0.943322 0
M  V30 16664 C 1610.9 -1.94274 0.602439 0
M  V30 16665 C 1611.25 -1.7263 -0.849506 0
M  V30 16666 O 1610.54 -1.054 -1.60004 0
M  V30 16667 C 1610.74 -3.46316 0.883167 0
M  V30 16668 C 1610.57 -3.82745 2.36085 0
M  V30 16669 C 1609.34 -4.05391 3.01639 0
M  V30 16670 C 1611.54 -3.91131 3.33947 0
M  V30 16671 N 1609.52 -4.28722 4.39398 0
M  V30 16672 C 1610.89 -4.19019 4.56971 0
M  V30 16673 C 1612.94 -3.73767 3.28942 0
M  V30 16674 C 1611.65 -4.3135 5.75613 0
M  V30 16675 C 1613.67 -3.8733 4.46911 0
M  V30 16676 C 1613.03 -4.1562 5.68717 0
M  V30 16677 H 1609.13 -0.733594 0.270859 0
M  V30 16678 H 1611.72 -1.52284 1.21317 0
M  V30 16679 H 1609.89 -3.87228 0.301466 0
M  V30 16680 H 1611.62 -4.01558 0.503336 0
M  V30 16681 H 1608.38 -4.00833 2.5225 0
M  V30 16682 H 1608.8 -4.44416 5.10709 0
M  V30 16683 H 1613.44 -3.50922 2.35825 0
M  V30 16684 H 1611.16 -4.53015 6.69181 0
M  V30 16685 H 1614.75 -3.75296 4.44572 0
M  V30 16686 H 1613.63 -4.25883 6.58478 0
M  V30 16687 N 1611.13 -0.710588 -1.40671 0
M  V30 16688 C 1612.55 -0.383638 -1.54921 0
M  V30 16689 C 1612.75 1.10805 -1.68299 0
M  V30 16690 O 1611.8 1.89406 -1.66978 0
M  V30 16691 C 1613.11 -1.14532 -2.78034 0
M  V30 16692 C 1614.66 -1.13113 -2.91847 0
M  V30 16693 C 1615.14 -1.87487 -4.17867 0
M  V30 16694 N 1616.63 -1.8453 -4.24856 0
M  V30 16695 C 1617.36 -2.38904 -5.2126 0
M  V30 16696 N 1616.86 -3.01813 -6.23603 0
M  V30 16697 N 1618.65 -2.29075 -5.13304 0
M  V30 16698 H 1610.8 -1.67789 -1.30233 0
M  V30 16699 H 1613.07 -0.70892 -0.629393 0
M  V30 16700 H 1612.77 -2.19983 -2.74409 0
M  V30 16701 H 1612.65 -0.733669 -3.69996 0
M  V30 16702 H 1615.03 -0.0848347 -2.94978 0
M  V30 16703 H 1615.11 -1.58196 -2.01017 0
M  V30 16704 H 1614.76 -2.92104 -4.15497 0
M  V30 16705 H 1614.69 -1.39827 -5.07697 0
M  V30 16706 H 1617.18 -1.38679 -3.51535 0
M  V30 16707 H 1617.49 -3.40832 -6.9358 0
M  V30 16708 H 1615.84 -3.05896 -6.24062 0
M  V30 16709 H 1619.03 -1.79589 -4.32279 0
M  V30 16710 H 1619.2 -2.71752 -5.88264 0
M  V30 16711 N 1612.61 1.50847 -0.456408 0
M  V30 16712 C 1613.52 2.31959 0.351027 0
M  V30 16713 C 1614.53 1.41697 1.00986 0
M  V30 16714 O 1615.71 1.7476 1.00105 0
M  V30 16715 C 1612.77 3.15973 1.42696 0
M  V30 16716 C 1611.84 4.22038 0.786272 0
M  V30 16717 C 1611.07 5.02036 1.81094 0
M  V30 16718 O 1611.29 4.82913 3.03564 0
M  V30 16719 O 1610.23 5.85609 1.3909 0
M  V30 16720 H 1614.05 3.02096 -0.311678 0
M  V30 16721 H 1611.64 1.47793 -0.218544 0
M  V30 16722 H 1613.52 3.68146 2.05053 0
M  V30 16723 H 1612.19 2.48579 2.0734 0
M  V30 16724 H 1611.1 3.73894 0.124148 0
M  V30 16725 H 1612.43 4.9186 0.183016 0
M  V30 16726 N 1614.09 0.188454 1.56469 0
M  V30 16727 C 1615.05 -0.721282 2.17555 0
M  V30 16728 C 1616.05 -1.14579 1.1282 0
M  V30 16729 O 1617.24 -1.05996 1.38241 0
M  V30 16730 C 1614.37 -1.9839 2.77226 0
M  V30 16731 H 1615.56 -0.189218 2.99302 0
M  V30 16732 H 1613.12 -0.0611533 1.5618 0
M  V30 16733 H 1613.85 -2.55864 1.99259 0
M  V30 16734 H 1613.64 -1.68831 3.53891 0
M  V30 16735 H 1615.13 -2.63277 3.24153 0
M  V30 16736 N 1615.56 -1.5737 -0.0851874 0
M  V30 16737 C 1616.79 -1.91183 -0.803983 0
M  V30 16738 C 1617.21 -0.78365 -1.70999 0
M  V30 16739 O 1616.57 0.264266 -1.79364 0
M  V30 16740 C 1616.62 -3.239 -1.58496 0
M  V30 16741 O 1615.72 -3.12189 -2.69466 0
M  V30 16742 H 1615.06 -0.626413 -0.220233 0
M  V30 16743 H 1617.59 -2.04519 -0.0574426 0
M  V30 16744 H 1617.6 -3.5745 -1.96707 0
M  V30 16745 H 1616.28 -4.05594 -0.920111 0
M  V30 16746 H 1614.86 -2.90173 -2.3421 0
M  V30 16747 N 1617.04 0.356258 -1.53521 0
M  V30 16748 C 1618.27 1.12273 -1.74383 0
M  V30 16749 C 1618.69 1.81981 -0.475881 0
M  V30 16750 O 1618.05 1.72083 0.570699 0
M  V30 16751 C 1618.1 2.12161 -2.91582 0
M  V30 16752 O 1617.2 3.1943 -2.60842 0
M  V30 16753 H 1616.54 0.325321 -0.578845 0
M  V30 16754 H 1619.07 0.410533 -2.00439 0
M  V30 16755 H 1619.08 2.55602 -3.18012 0
M  V30 16756 H 1617.76 1.60818 -3.8355 0
M  V30 16757 H 1616.33 2.80895 -2.4526 0
M  V30 16758 N 1618.52 1.45038 0.616577 0
M  V30 16759 C 1619.48 1.52647 1.70973 0
M  V30 16760 C 1620.48 0.406902 1.55567 0
M  V30 16761 O 1621.67 0.670062 1.60797 0
M  V30 16762 C 1618.8 1.41438 3.10174 0
M  V30 16763 H 1620 2.50036 1.65596 0
M  V30 16764 H 1617.55 1.32346 0.831524 0
M  V30 16765 H 1618.29 0.451991 3.21135 0
M  V30 16766 H 1618.07 2.22634 3.22764 0
M  V30 16767 H 1619.56 1.49776 3.89817 0
M  V30 16768 N 1620 -0.858287 1.32179 0
M  V30 16769 C 1620.91 -1.99894 1.228 0
M  V30 16770 C 1621.92 -1.73417 0.142323 0
M  V30 16771 O 1623.1 -1.98114 0.362321 0
M  V30 16772 C 1620.16 -3.33495 0.947745 0
M  V30 16773 C 1619.23 -3.73217 2.12149 0
M  V30 16774 C 1618.46 -5.00443 1.85452 0
M  V30 16775 O 1618.68 -5.64828 0.79531 0
M  V30 16776 O 1617.62 -5.3721 2.71457 0
M  V30 16777 H 1621.44 -2.10742 2.18682 0
M  V30 16778 H 1619.03 -0.988385 1.12033 0
M  V30 16779 H 1620.91 -4.13585 0.807791 0
M  V30 16780 H 1619.58 -3.23694 0.019053 0
M  V30 16781 H 1618.49 -2.93718 2.3169 0
M  V30 16782 H 1619.82 -3.87659 3.03285 0
M  V30 16783 N 1621.48 -1.1533 -1.07409 0
M  V30 16784 C 1622.7 -0.952101 -1.84255 0
M  V30 16785 C 1623.13 0.494571 -1.81482 0
M  V30 16786 O 1622.48 1.35253 -1.20733 0
M  V30 16787 C 1622.53 -1.47019 -3.29268 0
M  V30 16788 O 1621.64 -0.669005 -4.06937 0
M  V30 16789 H 1620.98 -0.339643 -0.57056 0
M  V30 16790 H 1623.51 -1.53298 -1.35502 0
M  V30 16791 H 1623.52 -1.48278 -3.80102 0
M  V30 16792 H 1622.19 -2.5234 -3.30602 0
M  V30 16793 H 1620.77 -0.726003 -3.65764 0
M  V30 16794 N 1622.95 1.25748 -0.950004 0
M  V30 16795 C 1624.2 1.93622 -0.603186 0
M  V30 16796 C 1624.53 1.74271 0.856925 0
M  V30 16797 O 1623.81 1.08502 1.61423 0
M  V30 16798 C 1624.09 3.4715 -0.957024 0
M  V30 16799 C 1623.94 3.75747 -2.47253 0
M  V30 16800 C 1625.26 4.37488 -0.478754 0
M  V30 16801 H 1622.38 0.703206 -0.220612 0
M  V30 16802 H 1625.02 1.48453 -1.18582 0
M  V30 16803 H 1623.17 3.85753 -0.46122 0
M  V30 16804 H 1624.85 3.46808 -3.04174 0
M  V30 16805 H 1623.09 3.21516 -2.91222 0
M  V30 16806 H 1623.76 4.83097 -2.67061 0
M  V30 16807 H 1626.24 4.06162 -0.903987 0
M  V30 16808 H 1625.11 5.43682 -0.755073 0
M  V30 16809 H 1625.37 4.37712 0.621303 0
M  V30 16810 N 1624.43 0.718038 1.40292 0
M  V30 16811 C 1625.66 0.266918 2.05675 0
M  V30 16812 C 1626.08 -1.08364 1.53749 0
M  V30 16813 O 1625.44 -1.6831 0.673912 0
M  V30 16814 C 1625.49 0.259606 3.59664 0
M  V30 16815 O 1624.59 -0.758372 4.05367 0
M  V30 16816 H 1623.93 0.124786 0.652169 0
M  V30 16817 H 1626.46 0.979207 1.79646 0
M  V30 16818 H 1626.47 0.098135 4.07882 0
M  V30 16819 H 1625.15 1.24517 3.96823 0
M  V30 16820 H 1623.72 -0.564425 3.68604 0
M  V30 16821 N 1625.91 -1.50602 0.464402 0
M  V30 16822 C 1626.84 -2.26203 -0.36943 0
M  V30 16823 C 1627.86 -1.31269 -0.962924 0
M  V30 16824 O 1629.04 -1.56829 -0.852465 0
M  V30 16825 C 1626.14 -3.02323 -1.53147 0
M  V30 16826 C 1625.32 -4.24561 -1.05198 0
M  V30 16827 C 1624.38 -4.83031 -2.08729 0
M  V30 16828 O 1623.4 -5.44131 -1.67062 0
M  V30 16829 N 1624.6 -4.6944 -3.41477 0
M  V30 16830 H 1627.37 -2.98402 0.278652 0
M  V30 16831 H 1624.93 -1.59193 0.294803 0
M  V30 16832 H 1626.92 -3.38319 -2.22086 0
M  V30 16833 H 1625.49 -2.32965 -2.08438 0
M  V30 16834 H 1624.71 -3.93748 -0.188705 0
M  V30 16835 H 1626 -5.0383 -0.709434 0
M  V30 16836 H 1625.4 -4.20832 -3.78044 0
M  V30 16837 H 1623.96 -5.09724 -4.06233 0
M  V30 16838 N 1627.39 -0.19675 -1.56367 0
M  V30 16839 C 1628.63 0.442238 -1.97919 0
M  V30 16840 C 1628.97 1.61156 -1.08362 0
M  V30 16841 O 1628.24 1.94024 -0.135969 0
M  V30 16842 C 1628.53 0.90078 -3.48652 0
M  V30 16843 C 1628.38 -0.270471 -4.48986 0
M  V30 16844 C 1629.7 1.7657 -4.03126 0
M  V30 16845 H 1626.82 0.159276 -0.719583 0
M  V30 16846 H 1629.46 -0.288004 -1.87805 0
M  V30 16847 H 1627.61 1.52302 -3.57402 0
M  V30 16848 H 1629.28 -0.908176 -4.52272 0
M  V30 16849 H 1627.52 -0.921973 -4.23889 0
M  V30 16850 H 1628.19 0.0929101 -5.51922 0
M  V30 16851 H 1630.67 1.24091 -3.97166 0
M  V30 16852 H 1629.55 2.0555 -5.0896 0
M  V30 16853 H 1629.81 2.72047 -3.48486 0
M  V30 16854 N 1628.87 1.57413 0.0768405 0
M  V30 16855 C 1630.09 1.91224 0.790007 0
M  V30 16856 C 1630.51 0.792232 1.71374 0
M  V30 16857 O 1629.87 -0.234736 1.80984 0
M  V30 16858 C 1629.92 3.24757 1.58793 0
M  V30 16859 O 1629.64 4.3245 0.701329 0
M  V30 16860 C 1631.14 3.72549 2.40254 0
M  V30 16861 H 1628.36 0.63219 0.224893 0
M  V30 16862 H 1630.9 2.04442 0.0486173 0
M  V30 16863 H 1629.06 3.13081 2.28165 0
M  V30 16864 H 1629.47 5.09245 1.2558 0
M  V30 16865 H 1630.95 4.68628 2.91705 0
M  V30 16866 H 1631.42 3.01305 3.1955 0
M  V30 16867 H 1632.03 3.87153 1.76048 0
M  V30 16868 N 1630.34 -0.348112 1.53707 0
M  V30 16869 C 1631.31 -1.41018 1.80683 0
M  V30 16870 C 1632.31 -1.4582 0.67774 0
M  V30 16871 O 1633.5 -1.46275 0.94601 0
M  V30 16872 C 1630.63 -2.79988 1.94473 0
M  V30 16873 H 1631.82 -1.18365 2.75554 0
M  V30 16874 H 1629.38 -0.582244 1.4505 0
M  V30 16875 H 1630.11 -3.07931 1.0173 0
M  V30 16876 H 1629.9 -2.77899 2.76612 0
M  V30 16877 H 1631.39 -3.56868 2.16876 0
M  V30 16878 N 1631.82 -1.45363 -0.608876 0
M  V30 16879 C 1632.77 -1.53936 -1.71966 0
M  V30 16880 C 1633.74 -0.385352 -1.61568 0
M  V30 16881 O 1634.92 -0.598622 -1.81166 0
M  V30 16882 C 1632.06 -1.51079 -3.10272 0
M  V30 16883 C 1631.18 -2.77022 -3.31486 0
M  V30 16884 C 1630.31 -2.65846 -4.59891 0
M  V30 16885 C 1629.35 -3.86848 -4.74357 0
M  V30 16886 N 1628.49 -3.74214 -5.94061 0
M  V30 16887 H 1633.33 -2.4883 -1.63974 0
M  V30 16888 H 1630.87 -1.23472 -0.799565 0
M  V30 16889 H 1632.82 -1.47411 -3.90289 0
M  V30 16890 H 1631.45 -0.597374 -3.17224 0
M  V30 16891 H 1630.51 -2.90783 -2.45253 0
M  V30 16892 H 1631.82 -3.66776 -3.38049 0
M  V30 16893 H 1630.97 -2.60136 -5.48101 0
M  V30 16894 H 1629.71 -1.73689 -4.55723 0
M  V30 16895 H 1628.72 -3.92918 -3.84572 0
M  V30 16896 H 1629.94 -4.80069 -4.80324 0
M  V30 16897 H 1627.89 -2.84825 -5.9094 0
M  V30 16898 H 1627.8 -4.57601 -6.01779 0
M  V30 16899 H 1629.07 -3.72434 -6.84772 0
M  V30 16900 N 1633.3 0.851265 -1.32632 0
M  V30 16901 C 1634.21 1.99239 -1.23858 0
M  V30 16902 C 1635.23 1.73339 -0.151517 0
M  V30 16903 O 1636.4 1.97919 -0.372822 0
M  V30 16904 C 1633.47 3.32987 -0.965417 0
M  V30 16905 C 1632.53 3.72087 -2.14126 0
M  V30 16906 C 1631.76 4.99453 -1.88103 0
M  V30 16907 O 1631.98 5.64399 -0.825253 0
M  V30 16908 O 1630.92 5.35763 -2.74302 0
M  V30 16909 H 1634.74 2.09579 -2.19796 0
M  V30 16910 H 1632.33 0.98243 -1.12555 0
M  V30 16911 H 1634.21 4.13151 -0.829713 0
M  V30 16912 H 1632.89 3.2368 -0.036219 0
M  V30 16913 H 1631.79 2.92485 -2.33245 0
M  V30 16914 H 1633.13 3.86045 -3.05336 0
M  V30 16915 N 1634.78 1.15898 1.06796 0
M  V30 16916 C 1635.69 0.87507 2.17669 0
M  V30 16917 C 1636.7 -0.150763 1.73346 0
M  V30 16918 O 1637.88 0.0246621 2.01385 0
M  V30 16919 C 1634.95 0.374555 3.44671 0
M  V30 16920 C 1634.01 1.46498 4.0353 0
M  V30 16921 C 1633.24 0.988256 5.2447 0
M  V30 16922 O 1633.46 -0.163992 5.70164 0
M  V30 16923 O 1632.4 1.7744 5.75151 0
M  V30 16924 H 1636.22 1.80208 2.44456 0
M  V30 16925 H 1633.81 0.93854 1.1624 0
M  V30 16926 H 1635.69 0.102161 4.21276 0
M  V30 16927 H 1634.36 -0.524513 3.19422 0
M  V30 16928 H 1633.27 1.79105 3.28439 0
M  V30 16929 H 1634.6 2.33917 4.33063 0
M  V30 16930 N 1636.26 -1.25243 0.956659 0
M  V30 16931 C 1637.19 -2.28159 0.496574 0
M  V30 16932 C 1638.17 -1.63814 -0.458132 0
M  V30 16933 O 1639.35 -1.90897 -0.356648 0
M  V30 16934 C 1636.48 -3.46573 -0.22454 0
M  V30 16935 C 1635.44 -4.2311 0.645104 0
M  V30 16936 C 1634.76 -5.343 -0.206867 0
M  V30 16937 C 1636.06 -4.85562 1.92422 0
M  V30 16938 H 1637.76 -2.66895 1.35675 0
M  V30 16939 H 1635.3 -1.28301 0.653827 0
M  V30 16940 H 1637.26 -4.17695 -0.55755 0
M  V30 16941 H 1635.98 -3.06833 -1.11898 0
M  V30 16942 H 1634.64 -3.53774 0.961228 0
M  V30 16943 H 1634.29 -4.908 -1.10112 0
M  V30 16944 H 1633.99 -5.86423 0.371714 0
M  V30 16945 H 1635.51 -6.08253 -0.534798 0
M  V30 16946 H 1636.92 -5.48817 1.65749 0
M  V30 16947 H 1635.32 -5.47871 2.44862 0
M  V30 16948 H 1636.39 -4.07634 2.62607 0
M  V30 16949 N 1637.73 -0.725468 -1.3991 0
M  V30 16950 C 1638.66 -0.094211 -2.3331 0
M  V30 16951 C 1639.65 0.734728 -1.53414 0
M  V30 16952 O 1640.83 0.681647 -1.81844 0
M  V30 16953 C 1637.96 0.820958 -3.37457 0
M  V30 16954 C 1636.91 0.0968983 -4.2789 0
M  V30 16955 C 1636.24 1.12845 -5.22657 0
M  V30 16956 C 1637.54 -1.05483 -5.11537 0
M  V30 16957 H 1639.23 -0.874365 -2.86348 0
M  V30 16958 H 1636.78 -0.421913 -1.3768 0
M  V30 16959 H 1638.73 1.27203 -4.01743 0
M  V30 16960 H 1637.46 1.63312 -2.82837 0
M  V30 16961 H 1636.12 -0.334454 -3.65071 0
M  V30 16962 H 1635.76 1.93392 -4.64337 0
M  V30 16963 H 1635.46 0.648805 -5.84007 0
M  V30 16964 H 1636.99 1.57942 -5.89819 0
M  V30 16965 H 1638.4 -0.682657 -5.69221 0
M  V30 16966 H 1636.8 -1.46349 -5.81981 0
M  V30 16967 H 1637.87 -1.88095 -4.46932 0
M  V30 16968 N 1639.21 1.50354 -0.472382 0
M  V30 16969 C 1640.62 1.86692 -0.0175768 0
M  V30 16970 C 1640.97 1.38708 1.3876 0
M  V30 16971 O 1640.1 0.752614 2.02891 0
M  V30 16972 C 1640.69 3.38791 -0.0251205 0
M  V30 16973 C 1639.25 3.74535 0.37422 0
M  V30 16974 C 1638.4 2.74252 -0.410045 0
M  V30 16975 H 1641.35 1.43079 -0.686593 0
M  V30 16976 H 1641.37 3.72487 0.776754 0
M  V30 16977 H 1640.88 3.73684 -1.04795 0
M  V30 16978 H 1638.99 3.45243 1.40135 0
M  V30 16979 H 1639.1 4.79042 0.0746666 0
M  V30 16980 H 1637.46 2.54334 0.136417 0
M  V30 16981 H 1638.25 3.11989 -1.43241 0
M  V30 16982 N 1640.69 0.205039 1.56261 0
M  V30 16983 C 1641.92 -0.43642 2.02245 0
M  V30 16984 C 1642.33 -1.54504 1.08508 0
M  V30 16985 O 1641.69 -1.82269 0.0916991 0
M  V30 16986 C 1641.74 -0.983483 3.47865 0
M  V30 16987 O 1641.46 0.0809166 4.38025 0
M  V30 16988 C 1642.96 -1.69983 4.09415 0
M  V30 16989 H 1640.18 -0.108577 0.662157 0
M  V30 16990 H 1642.73 0.316659 2.02033 0
M  V30 16991 H 1640.88 -1.6869 3.48744 0
M  V30 16992 H 1641.3 -0.327751 5.23475 0
M  V30 16993 H 1642.77 -2.03481 5.13127 0
M  V30 16994 H 1643.25 -2.60711 3.5345 0
M  V30 16995 H 1643.85 -1.04202 4.12337 0
M  V30 16996 N 1642.17 -1.57451 -0.0684915 0
M  V30 16997 C 1643.13 -2.0293 -1.06545 0
M  V30 16998 C 1644.13 -0.926861 -1.314 0
M  V30 16999 O 1645.32 -1.19164 -1.27065 0
M  V30 17000 C 1642.45 -2.41276 -2.4083 0
M  V30 17001 H 1643.65 -2.92242 -0.673401 0
M  V30 17002 H 1641.2 -1.53107 -0.314307 0
M  V30 17003 H 1641.94 -1.55 -2.8486 0
M  V30 17004 H 1641.72 -3.21727 -2.2413 0
M  V30 17005 H 1643.21 -2.77026 -3.12484 0
M  V30 17006 N 1643.65 0.339955 -1.5389 0
M  V30 17007 C 1644.56 1.441 -1.85128 0
M  V30 17008 C 1645.57 1.57399 -0.741733 0
M  V30 17009 O 1646.75 1.72807 -1.0344 0
M  V30 17010 C 1643.81 2.7904 -2.05761 0
M  V30 17011 C 1642.88 2.75055 -3.29611 0
M  V30 17012 C 1642.11 4.0356 -3.4925 0
M  V30 17013 O 1642.33 5.01015 -2.72653 0
M  V30 17014 O 1641.27 4.07813 -4.42687 0
M  V30 17015 H 1645.09 1.20616 -2.78721 0
M  V30 17016 H 1642.68 0.532468 -1.39589 0
M  V30 17017 H 1644.56 3.5895 -2.20756 0
M  V30 17018 H 1643.23 3.02447 -1.15357 0
M  V30 17019 H 1642.14 1.93753 -3.20016 0
M  V30 17020 H 1643.47 2.56602 -4.20019 0
M  V30 17021 N 1645.13 1.45684 0.601159 0
M  V30 17022 C 1646.35 1.53574 1.38646 0
M  V30 17023 C 1646.77 0.170511 1.88028 0
M  V30 17024 O 1646.13 -0.829061 1.62582 0
M  V30 17025 C 1646.18 2.52543 2.58658 0
M  V30 17026 O 1645.9 3.83761 2.11327 0
M  V30 17027 C 1647.4 2.70194 3.5144 0
M  V30 17028 H 1644.62 0.519907 0.424191 0
M  V30 17029 H 1647.16 1.90929 0.732559 0
M  V30 17030 H 1645.32 2.18242 3.20077 0
M  V30 17031 H 1645.73 4.37467 2.89349 0
M  V30 17032 H 1647.21 3.43405 4.32177 0
M  V30 17033 H 1647.68 1.76452 4.02196 0
M  V30 17034 H 1648.29 3.05517 2.95871 0
M  V30 17035 N 1646.6 -0.84422 1.33082 0
M  V30 17036 C 1647.55 -1.95363 1.2289 0
M  V30 17037 C 1648.52 -1.65744 0.108705 0
M  V30 17038 O 1649.71 -1.88643 0.286057 0
M  V30 17039 C 1646.85 -3.31228 0.968594 0
M  V30 17040 C 1645.96 -3.73279 2.17455 0
M  V30 17041 C 1645.09 -4.97987 1.84885 0
M  V30 17042 C 1644.13 -5.32558 3.01743 0
M  V30 17043 N 1643.27 -6.48442 2.69197 0
M  V30 17044 H 1648.11 -2.03412 2.17778 0
M  V30 17045 H 1645.65 -0.995461 1.083 0
M  V30 17046 H 1647.6 -4.09494 0.798129 0
M  V30 17047 H 1646.23 -3.22751 0.0564631 0
M  V30 17048 H 1645.29 -2.9058 2.45494 0
M  V30 17049 H 1646.6 -3.94814 3.04834 0
M  V30 17050 H 1645.75 -5.83987 1.64451 0
M  V30 17051 H 1644.49 -4.7841 0.947356 0
M  V30 17052 H 1643.5 -4.45064 3.22797 0
M  V30 17053 H 1644.72 -5.54085 3.9264 0
M  V30 17054 H 1642.67 -6.30363 1.816 0
M  V30 17055 H 1642.58 -6.70046 3.50106 0
M  V30 17056 H 1643.85 -7.37568 2.52217 0
M  V30 17057 N 1648.08 -1.16463 -1.0618 0
M  V30 17058 C 1649.04 -0.874674 -2.11854 0
M  V30 17059 C 1650.04 0.130829 -1.60267 0
M  V30 17060 O 1651.23 -0.100195 -1.73912 0
M  V30 17061 C 1648.37 -0.30826 -3.39503 0
M  V30 17062 H 1649.56 -1.81149 -2.39009 0
M  V30 17063 H 1647.11 -0.973721 -1.22264 0
M  V30 17064 H 1647.85 0.636181 -3.17999 0
M  V30 17065 H 1647.63 -1.03281 -3.78253 0
M  V30 17066 H 1649.12 -0.123378 -4.17418 0
M  V30 17067 N 1649.56 1.24734 -0.963288 0
M  V30 17068 C 1650.78 1.97285 -0.639808 0
M  V30 17069 C 1651.21 1.71024 0.783099 0
M  V30 17070 O 1650.57 0.971324 1.53085 0
M  V30 17071 C 1650.62 3.48793 -0.915197 0
M  V30 17072 O 1649.72 4.124 0.00162805 0
M  V30 17073 H 1649.06 0.618196 -0.242343 0
M  V30 17074 H 1651.59 1.58627 -1.29224 0
M  V30 17075 H 1651.6 3.99155 -0.84495 0
M  V30 17076 H 1650.28 3.67235 -1.95221 0
M  V30 17077 H 1648.85 3.72702 -0.121563 0
M  V30 17078 N 1651.04 0.732878 1.39523 0
M  V30 17079 C 1652.28 0.279891 2.00556 0
M  V30 17080 C 1652.61 -1.13223 1.58148 0
M  V30 17081 O 1651.87 -1.78575 0.800591 0
M  V30 17082 C 1652.17 0.32714 3.559 0
M  V30 17083 C 1651.83 1.69198 4.17951 0
M  V30 17084 C 1650.49 2.06555 4.34613 0
M  V30 17085 C 1652.85 2.58821 4.52395 0
M  V30 17086 C 1650.17 3.33047 4.83008 0
M  V30 17087 C 1652.53 3.84682 5.02197 0
M  V30 17088 C 1651.19 4.22134 5.17068 0
M  V30 17089 H 1650.46 0.102419 0.733888 0
M  V30 17090 H 1653.11 0.939304 1.66881 0
M  V30 17091 H 1651.41 -0.415849 3.89587 0
M  V30 17092 H 1653.11 -0.0414564 4.00979 0
M  V30 17093 H 1649.7 1.39153 4.05382 0
M  V30 17094 H 1653.88 2.31231 4.39142 0
M  V30 17095 H 1649.14 3.6201 4.92706 0
M  V30 17096 H 1653.31 4.54286 5.27823 0
M  V30 17097 H 1650.94 5.20215 5.54329 0
M  V30 17098 N 1652.52 -1.50101 0.480349 0
M  V30 17099 C 1653.76 -2.02374 -0.0714315 0
M  V30 17100 C 1654.09 -1.36166 -1.38885 0
M  V30 17101 O 1653.35 -0.479455 -1.89736 0
M  V30 17102 C 1653.64 -3.56191 -0.293745 0
M  V30 17103 C 1653.31 -4.40927 0.943111 0
M  V30 17104 C 1651.97 -4.63803 1.2822 0
M  V30 17105 C 1654.32 -4.90362 1.7662 0
M  V30 17106 C 1651.65 -5.33359 2.44428 0
M  V30 17107 C 1654 -5.61195 2.91963 0
M  V30 17108 C 1652.67 -5.82323 3.26276 0
M  V30 17109 H 1651.94 -0.740539 -0.0261386 0
M  V30 17110 H 1654.59 -1.80619 0.636313 0
M  V30 17111 H 1652.89 -3.76511 -1.08382 0
M  V30 17112 H 1654.59 -3.9421 -0.734796 0
M  V30 17113 H 1651.18 -4.23347 0.668947 0
M  V30 17114 H 1655.36 -4.72534 1.5174 0
M  V30 17115 H 1650.62 -5.47923 2.71275 0
M  V30 17116 H 1654.79 -5.9848 3.56082 0
M  V30 17117 H 1652.42 -6.35996 4.16428 0
M  V30 17118 N 1653.99 -0.213323 -1.5615 0
M  V30 17119 C 1654.94 0.716708 -2.21283 0
M  V30 17120 C 1655.94 1.20599 -1.18963 0
M  V30 17121 O 1657.14 1.16677 -1.37064 0
M  V30 17122 H 1653.52 0.249524 -0.709395 0
M  V30 17123 H 1655.49 0.14385 -2.98053 0
M  V30 17124 C 1654.24 1.91775 -2.9003 0
M  V30 17125 H 1653.56 1.55036 -3.68516 0
M  V30 17126 H 1655 2.54646 -3.39016 0
M  V30 17127 C 1653.46 2.768 -1.92051 0
M  V30 17128 O 1653.99 3.75299 -1.43225 0
M  V30 17129 N 1652.19 2.42666 -1.5988 0
M  V30 17130 H 1651.74 1.62622 -1.99779 0
M  V30 17131 H 1651.7 2.99836 -0.945833 0
M  V30 17132 N 1655.47 1.57485 0.0601405 0
M  V30 17133 C 1656.4 2.07525 1.07031 0
M  V30 17134 C 1657.38 0.971136 1.39653 0
M  V30 17135 O 1658.57 1.24456 1.49078 0
M  V30 17136 C 1655.7 2.52888 2.38044 0
M  V30 17137 C 1654.65 3.67282 2.19745 0
M  V30 17138 C 1653.98 3.98741 3.56244 0
M  V30 17139 C 1655.28 4.96896 1.60908 0
M  V30 17140 H 1656.97 2.92173 0.653875 0
M  V30 17141 H 1654.52 1.40555 0.313083 0
M  V30 17142 H 1656.47 2.8651 3.09014 0
M  V30 17143 H 1655.2 1.65284 2.81689 0
M  V30 17144 H 1653.85 3.33961 1.51213 0
M  V30 17145 H 1653.5 3.08249 3.97481 0
M  V30 17146 H 1653.2 4.75775 3.44836 0
M  V30 17147 H 1654.73 4.34869 4.28627 0
M  V30 17148 H 1656.14 5.28674 2.21758 0
M  V30 17149 H 1654.54 5.78332 1.60164 0
M  V30 17150 H 1655.61 4.81518 0.571671 0
M  V30 17151 N 1656.95 -0.331789 1.54068 0
M  V30 17152 C 1658.37 -0.675628 1.44594 0
M  V30 17153 C 1658.57 -1.91976 0.612166 0
M  V30 17154 O 1657.62 -2.5227 0.107742 0
M  V30 17155 C 1658.94 -0.857303 2.8822 0
M  V30 17156 C 1660.48 -0.955171 2.9807 0
M  V30 17157 C 1660.96 -1.16908 4.42828 0
M  V30 17158 N 1662.45 -1.23601 4.46405 0
M  V30 17159 C 1663.18 -1.41924 5.55558 0
M  V30 17160 N 1662.68 -1.57345 6.74696 0
M  V30 17161 N 1664.47 -1.44566 5.43191 0
M  V30 17162 H 1656.62 0.486058 2.06764 0
M  V30 17163 H 1658.89 0.155605 0.935142 0
M  V30 17164 H 1658.59 -0.0144659 3.51697 0
M  V30 17165 H 1658.47 -1.75558 3.33855 0
M  V30 17166 H 1660.85 -1.78852 2.34725 0
M  V30 17167 H 1660.94 -0.0335425 2.55778 0
M  V30 17168 H 1660.58 -0.340612 5.06757 0
M  V30 17169 H 1660.51 -2.10445 4.82722 0
M  V30 17170 H 1663 -1.13161 3.60559 0
M  V30 17171 H 1663.31 -1.70995 7.53645 0
M  V30 17172 H 1661.66 -1.54458 6.77619 0
M  V30 17173 H 1664.85 -1.3211 4.49071 0
M  V30 17174 H 1665.02 -1.58505 6.28315 0
M  V30 17175 N 1658.43 -1.46001 -0.593424 0
M  V30 17176 C 1659.65 -1.54541 -1.38318 0
M  V30 17177 C 1660.08 -0.183555 -1.87202 0
M  V30 17178 O 1659.44 0.834407 -1.60958 0
M  V30 17179 C 1659.48 -2.54559 -2.55405 0
M  V30 17180 O 1658.59 -2.07321 -3.56499 0
M  V30 17181 H 1657.93 -0.520434 -0.412364 0
M  V30 17182 H 1660.46 -1.9148 -0.720862 0
M  V30 17183 H 1660.47 -2.73823 -3.02465 0
M  V30 17184 H 1659.14 -3.53461 -2.19176 0
M  V30 17185 H 1657.72 -1.97997 -3.15993 0
M  V30 17186 N 1659.91 0.83715 -1.33527 0
M  V30 17187 C 1661.32 1.40878 -1.22516 0
M  V30 17188 C 1661.67 1.95585 0.155236 0
M  V30 17189 O 1660.79 1.88946 1.05491 0
M  V30 17190 C 1661.39 2.56093 -2.21815 0
M  V30 17191 C 1659.95 3.09205 -2.14638 0
M  V30 17192 C 1659.09 1.82012 -2.09205 0
M  V30 17193 H 1662.05 0.642766 -1.45101 0
M  V30 17194 H 1662.07 3.33775 -1.82687 0
M  V30 17195 H 1661.58 2.16246 -3.22272 0
M  V30 17196 H 1659.68 3.53592 -1.17489 0
M  V30 17197 H 1659.79 3.69261 -3.05259 0
M  V30 17198 H 1658.16 2.02331 -1.54707 0
M  V30 17199 H 1658.94 1.44359 -3.11473 0
M  V30 17200 N 1661.38 1.17024 1.05561 0
M  V30 17201 C 1662.61 0.979328 1.81914 0
M  V30 17202 C 1663.02 -0.475688 1.83122 0
M  V30 17203 O 1662.37 -1.34205 1.25438 0
M  V30 17204 C 1662.43 1.4391 3.29439 0
M  V30 17205 C 1662.09 2.9155 3.5192 0
M  V30 17206 C 1663.09 3.89509 3.44353 0
M  V30 17207 C 1660.77 3.2964 3.79003 0
M  V30 17208 C 1662.77 5.23557 3.63548 0
M  V30 17209 C 1660.45 4.63855 3.97846 0
M  V30 17210 C 1661.45 5.60623 3.90117 0
M  V30 17211 O 1661.14 6.92411 4.08439 0
M  V30 17212 H 1660.87 0.34689 0.58021 0
M  V30 17213 H 1663.43 1.55641 1.34034 0
M  V30 17214 H 1661.66 0.805555 3.78216 0
M  V30 17215 H 1663.35 1.21445 3.87306 0
M  V30 17216 H 1664.11 3.61428 3.23412 0
M  V30 17217 H 1659.99 2.54891 3.84124 0
M  V30 17218 H 1663.53 5.99074 3.5743 0
M  V30 17219 H 1659.43 4.91644 4.18278 0
M  V30 17220 H 1660.2 6.99095 4.25685 0
M  V30 17221 N 1662.86 -1.24221 0.969889 0
M  V30 17222 C 1663.81 -2.27299 0.493765 0
M  V30 17223 C 1664.8 -1.63483 -0.443824 0
M  V30 17224 O 1666.01 -1.77153 -0.318873 0
M  V30 17225 H 1662.39 -0.738622 0.141216 0
M  V30 17226 H 1664.36 -2.6483 1.37506 0
M  V30 17227 C 1663.11 -3.47134 -0.198399 0
M  V30 17228 H 1662.43 -3.96483 0.51395 0
M  V30 17229 H 1663.87 -4.21097 -0.495334 0
M  V30 17230 C 1662.33 -3.05227 -1.42612 0
M  V30 17231 O 1662.86 -3.1258 -2.52302 0
M  V30 17232 N 1661.06 -2.60252 -1.29295 0
M  V30 17233 H 1660.61 -2.54468 -0.400461 0
M  V30 17234 H 1660.57 -2.32579 -2.11553 0
M  V30 17235 N 1664.34 -0.740267 -1.39132 0
M  V30 17236 C 1665.57 -0.299605 -2.05225 0
M  V30 17237 C 1665.99 1.05904 -1.55454 0
M  V30 17238 O 1665.35 1.67216 -0.700603 0
M  V30 17239 C 1665.4 -0.316792 -3.59206 0
M  V30 17240 O 1664.5 0.693786 -4.06522 0
M  V30 17241 H 1663.84 -0.135146 -0.650101 0
M  V30 17242 H 1666.37 -1.00766 -1.78065 0
M  V30 17243 H 1666.38 -0.163013 -4.07674 0
M  V30 17244 H 1665.06 -1.30814 -3.94792 0
M  V30 17245 H 1663.63 0.505712 -3.69455 0
M  V30 17246 N 1665.82 1.49844 -0.488302 0
M  V30 17247 C 1666.77 2.25802 0.315853 0
M  V30 17248 C 1667.75 1.30108 0.946606 0
M  V30 17249 O 1668.94 1.54908 0.856306 0
M  V30 17250 C 1666.07 3.14024 1.38723 0
M  V30 17251 C 1665.16 4.17174 0.763348 0
M  V30 17252 N 1665.55 5.05642 -0.126544 0
M  V30 17253 C 1663.85 4.34053 1.02537 0
M  V30 17254 C 1664.55 5.79696 -0.482379 0
M  V30 17255 N 1663.53 5.43402 0.146639 0
M  V30 17256 H 1667.33 2.91569 -0.369397 0
M  V30 17257 H 1664.84 1.59538 -0.30355 0
M  V30 17258 H 1666.84 3.67061 1.97666 0
M  V30 17259 H 1665.5 2.49807 2.07429 0
M  V30 17260 H 1666.51 5.15514 -0.49653 0
M  V30 17261 H 1663.19 3.81048 1.70613 0
M  V30 17262 H 1664.58 6.60921 -1.20965 0
M  V30 17263 N 1667.3 0.221601 1.56034 0
M  V30 17264 C 1668.23 -0.728495 2.1626 0
M  V30 17265 C 1669.21 -1.19097 1.107 0
M  V30 17266 O 1670.39 -1.27371 1.38957 0
M  V30 17267 C 1667.52 -1.987 2.74292 0
M  V30 17268 C 1666.56 -1.66449 3.92679 0
M  V30 17269 S 1667.4 -0.78924 5.29652 0
M  V30 17270 C 1668.55 -2.05731 5.91122 0
M  V30 17271 H 1668.79 -0.216607 2.9651 0
M  V30 17272 H 1666.32 0.0062956 1.54399 0
M  V30 17273 H 1668.28 -2.70962 3.08366 0
M  V30 17274 H 1666.94 -2.47001 1.94034 0
M  V30 17275 H 1666.13 -2.59955 4.31786 0
M  V30 17276 H 1665.73 -1.0225 3.59751 0
M  V30 17277 H 1668.03 -3.00728 6.07099 0
M  V30 17278 H 1668.97 -1.71014 6.87139 0
M  V30 17279 H 1669.38 -2.19786 5.19956 0
M  V30 17280 N 1668.77 -1.57515 -0.0517878 0
M  V30 17281 C 1670.02 -1.87843 -0.745624 0
M  V30 17282 C 1670.34 -0.816318 -1.77091 0
M  V30 17283 O 1669.61 0.152784 -1.95303 0
M  V30 17284 H 1668.19 -0.693194 -0.278372 0
M  V30 17285 H 1670.86 -1.94886 -0.0231267 0
M  V30 17286 H 1669.95 -2.86001 -1.2494 0
M  V30 17287 N 1670.25 0.323614 -1.54242 0
M  V30 17288 C 1671.2 1.4184 -1.84348 0
M  V30 17289 C 1672.2 1.53553 -0.715384 0
M  V30 17290 O 1673.4 1.5594 -0.899045 0
M  V30 17291 H 1669.78 0.473326 -0.584352 0
M  V30 17292 H 1671.75 1.13672 -2.75901 0
M  V30 17293 C 1670.5 2.78059 -2.08755 0
M  V30 17294 H 1669.82 2.69819 -2.95021 0
M  V30 17295 H 1671.26 3.53731 -2.33774 0
M  V30 17296 C 1669.72 3.25229 -0.879076 0
M  V30 17297 O 1670.25 4.01603 -0.0883125 0
M  V30 17298 N 1668.45 2.82272 -0.690726 0
M  V30 17299 H 1668 2.20283 -1.33542 0
M  V30 17300 H 1667.96 3.14185 0.116344 0
M  V30 17301 N 1671.73 1.46313 0.585673 0
M  V30 17302 C 1672.68 1.57018 1.71604 0
M  V30 17303 C 1673.67 0.438838 1.63617 0
M  V30 17304 O 1674.88 0.615597 1.69146 0
M  V30 17305 H 1671.25 0.493616 0.567316 0
M  V30 17306 H 1673.23 2.52065 1.59706 0
M  V30 17307 C 1671.97 1.57482 3.09992 0
M  V30 17308 H 1671.3 2.43872 3.16806 0
M  V30 17309 H 1672.74 1.69027 3.88852 0
M  V30 17310 C 1671.2 0.302944 3.35535 0
M  V30 17311 O 1671.73 -0.608066 3.97071 0
M  V30 17312 N 1669.93 0.191781 2.89966 0
M  V30 17313 H 1669.48 0.934025 2.4007 0
M  V30 17314 H 1669.44 -0.658341 3.0743 0
M  V30 17315 N 1673.21 -0.830057 1.33969 0
M  V30 17316 C 1674.17 -1.92206 1.24858 0
M  V30 17317 C 1675.17 -1.59946 0.16549 0
M  V30 17318 O 1676.36 -1.6912 0.417629 0
M  V30 17319 C 1673.49 -3.28082 0.926029 0
M  V30 17320 H 1674.69 -2.01708 2.21932 0
M  V30 17321 H 1672.24 -1.02319 1.18154 0
M  V30 17322 H 1672.98 -3.24273 -0.0418364 0
M  V30 17323 H 1672.76 -3.52878 1.70938 0
M  V30 17324 H 1674.25 -4.08065 0.887263 0
M  V30 17325 N 1674.69 -1.17582 -1.04939 0
M  V30 17326 C 1675.91 -0.99097 -1.82194 0
M  V30 17327 C 1676.34 0.455965 -1.8249 0
M  V30 17328 O 1675.7 1.32661 -1.23575 0
M  V30 17329 C 1675.74 -1.53971 -3.26076 0
M  V30 17330 O 1674.85 -0.755172 -4.05427 0
M  V30 17331 H 1674.19 -0.351669 -0.563227 0
M  V30 17332 H 1676.72 -1.56138 -1.3222 0
M  V30 17333 H 1676.73 -1.56307 -3.76872 0
M  V30 17334 H 1675.4 -2.59295 -3.25175 0
M  V30 17335 H 1673.98 -0.803423 -3.64142 0
M  V30 17336 N 1676.17 1.23705 -0.976463 0
M  V30 17337 C 1677.58 1.44179 -0.684434 0
M  V30 17338 C 1677.78 1.86992 0.75075 0
M  V30 17339 O 1676.84 2.01349 1.52365 0
M  V30 17340 C 1678.15 2.49661 -1.676 0
M  V30 17341 C 1679.7 2.63479 -1.68961 0
M  V30 17342 C 1680.17 3.72167 -2.66938 0
M  V30 17343 N 1681.66 3.79605 -2.65433 0
M  V30 17344 C 1682.4 4.63251 -3.37914 0
M  V30 17345 N 1681.9 5.51018 -4.19941 0
M  V30 17346 N 1683.69 4.57412 -3.26697 0
M  V30 17347 H 1675.84 0.942155 -1.90361 0
M  V30 17348 H 1678.1 0.475629 -0.820049 0
M  V30 17349 H 1677.81 2.25111 -2.70218 0
M  V30 17350 H 1677.68 3.47978 -1.45571 0
M  V30 17351 H 1680.07 2.87382 -0.670497 0
M  V30 17352 H 1680.15 1.65491 -1.95055 0
M  V30 17353 H 1679.79 3.49013 -3.68988 0
M  V30 17354 H 1679.72 4.69688 -2.3812 0
M  V30 17355 H 1682.22 3.16882 -2.05899 0
M  V30 17356 H 1682.53 6.11825 -4.72113 0
M  V30 17357 H 1680.87 5.50655 -4.24033 0
M  V30 17358 H 1684.06 3.87863 -2.62069 0
M  V30 17359 H 1684.24 5.22373 -3.83446 0
M  V30 17360 N 1677.64 0.747635 1.38738 0
M  V30 17361 C 1679.05 0.369576 1.83006 0
M  V30 17362 C 1679.41 -1.10091 1.62402 0
M  V30 17363 O 1678.53 -1.85042 1.12198 0
M  V30 17364 C 1679.13 0.664018 3.32229 0
M  V30 17365 C 1677.68 0.339308 3.74868 0
M  V30 17366 C 1676.83 0.920231 2.61586 0
M  V30 17367 H 1679.78 0.944268 1.27551 0
M  V30 17368 H 1679.8 -0.0598575 3.80453 0
M  V30 17369 H 1679.32 1.73432 3.47193 0
M  V30 17370 H 1677.42 -0.724649 3.65485 0
M  V30 17371 H 1677.53 0.830699 4.71843 0
M  V30 17372 H 1675.89 0.346002 2.52339 0
M  V30 17373 H 1676.68 1.99544 2.79351 0
M  V30 17374 N 1679.12 -1.49583 0.496242 0
M  V30 17375 C 1680.07 -2.25966 -0.303873 0
M  V30 17376 C 1681.06 -1.30609 -0.939693 0
M  V30 17377 O 1682.25 -1.5536 -0.848079 0
M  V30 17378 C 1679.38 -3.14755 -1.37055 0
M  V30 17379 C 1678.46 -4.17573 -0.741214 0
M  V30 17380 N 1678.85 -5.05567 0.153357 0
M  V30 17381 C 1677.15 -4.34591 -1.00234 0
M  V30 17382 C 1677.85 -5.79432 0.513115 0
M  V30 17383 N 1676.83 -5.43472 -0.117819 0
M  V30 17384 H 1680.63 -2.91369 0.384854 0
M  V30 17385 H 1678.14 -1.59375 0.312007 0
M  V30 17386 H 1680.14 -3.68104 -1.95717 0
M  V30 17387 H 1678.8 -2.50903 -2.06101 0
M  V30 17388 H 1679.81 -5.15244 0.523862 0
M  V30 17389 H 1676.49 -3.81947 -1.6859 0
M  V30 17390 H 1677.88 -6.60271 1.24468 0
M  V30 17391 N 1680.6 -0.229873 -1.55915 0
M  V30 17392 C 1681.82 0.4072 -2.03363 0
M  V30 17393 C 1682.25 1.5197 -1.10845 0
M  V30 17394 O 1681.61 1.81034 -0.098175 0
M  V30 17395 C 1681.66 0.908268 -3.48974 0
M  V30 17396 O 1680.76 2.01907 -3.59593 0
M  V30 17397 H 1680.1 0.091091 -0.657722 0
M  V30 17398 H 1682.63 -0.350947 -2.01568 0
M  V30 17399 H 1682.64 1.21593 -3.8946 0
M  V30 17400 H 1681.32 0.0940655 -4.15794 0
M  V30 17401 H 1679.89 1.71741 -3.30998 0
M  V30 17402 N 1682.08 1.5754 0.0434337 0
M  V30 17403 C 1683.04 2.046 1.03303 0
M  V30 17404 C 1684.04 0.947648 1.29909 0
M  V30 17405 O 1685.23 1.21171 1.25153 0
M  V30 17406 C 1682.36 2.45077 2.36961 0
M  V30 17407 H 1683.56 2.93276 0.626822 0
M  V30 17408 H 1681.11 1.53588 0.289909 0
M  V30 17409 H 1681.84 1.59513 2.82358 0
M  V30 17410 H 1681.63 3.25252 2.18983 0
M  V30 17411 H 1683.12 2.81963 3.08037 0
M  V30 17412 N 1683.56 -0.31543 1.54411 0
M  V30 17413 C 1684.5 -1.4086 1.85098 0
M  V30 17414 C 1685.5 -1.53172 0.723518 0
M  V30 17415 O 1686.7 -1.55461 0.907303 0
M  V30 17416 H 1683.08 -0.47022 0.586853 0
M  V30 17417 H 1685.05 -1.12207 2.765 0
M  V30 17418 C 1683.8 -2.76948 2.10227 0
M  V30 17419 H 1683.12 -2.68251 2.96448 0
M  V30 17420 H 1684.56 -3.52486 2.35647 0
M  V30 17421 C 1683.02 -3.24758 0.896312 0
M  V30 17422 O 1683.55 -4.0155 0.109609 0
M  V30 17423 N 1681.76 -2.81901 0.705685 0
M  V30 17424 H 1681.3 -2.19571 1.34708 0
M  V30 17425 H 1681.26 -3.14242 -0.0996804 0
M  V30 17426 N 1685.03 -1.46622 -0.577906 0
M  V30 17427 C 1686.28 -1.5188 -1.3333 0
M  V30 17428 C 1686.6 -0.173993 -1.94222 0
M  V30 17429 O 1685.87 0.799972 -1.78822 0
M  V30 17430 H 1684.45 -0.559401 -0.495055 0
M  V30 17431 H 1687.12 -1.82785 -0.676449 0
M  V30 17432 H 1686.21 -2.27411 -2.13754 0
M  V30 17433 N 1686.51 0.822941 -1.34408 0
M  V30 17434 C 1687.42 1.96567 -1.28056 0
M  V30 17435 C 1688.44 1.72979 -0.188251 0
M  V30 17436 O 1689.61 1.97084 -0.41472 0
M  V30 17437 C 1686.68 3.30865 -1.03583 0
M  V30 17438 C 1685.74 3.67461 -2.2197 0
M  V30 17439 C 1684.97 4.9535 -1.98655 0
M  V30 17440 O 1685.2 5.62521 -0.944785 0
M  V30 17441 O 1684.13 5.29824 -2.85605 0
M  V30 17442 H 1687.96 2.0487 -2.24192 0
M  V30 17443 H 1685.54 0.958334 -1.14614 0
M  V30 17444 H 1687.42 4.11298 -0.917162 0
M  V30 17445 H 1686.1 3.2353 -0.104868 0
M  V30 17446 H 1685.01 2.87472 -2.39396 0
M  V30 17447 H 1686.34 3.79481 -3.13456 0
M  V30 17448 N 1687.99 1.18137 1.04314 0
M  V30 17449 C 1689.24 0.976648 1.77734 0
M  V30 17450 C 1689.57 -0.492756 1.87844 0
M  V30 17451 O 1688.84 -1.36586 1.38472 0
M  V30 17452 C 1689.13 1.62911 3.21142 0
M  V30 17453 C 1688.98 3.1712 3.1899 0
M  V30 17454 C 1690.3 1.34029 4.19195 0
M  V30 17455 H 1687.42 0.356217 0.645197 0
M  V30 17456 H 1690.06 1.45767 1.21868 0
M  V30 17457 H 1688.21 1.22009 3.68844 0
M  V30 17458 H 1689.88 3.67139 2.79296 0
M  V30 17459 H 1688.13 3.4941 2.57089 0
M  V30 17460 H 1688.8 3.57907 4.20245 0
M  V30 17461 H 1691.27 1.69463 3.80028 0
M  V30 17462 H 1690.15 1.82253 5.1776 0
M  V30 17463 H 1690.41 0.262712 4.41319 0
M  V30 17464 N 1689.47 -1.23186 0.98301 0
M  V30 17465 C 1690.7 -1.95418 0.670479 0
M  V30 17466 C 1691.11 -1.7295 -0.767135 0
M  V30 17467 O 1690.45 -1.01946 -1.52816 0
M  V30 17468 C 1690.51 -3.48456 0.884244 0
M  V30 17469 C 1690.18 -3.94645 2.30443 0
M  V30 17470 C 1691.17 -4.03108 3.28328 0
M  V30 17471 C 1688.86 -4.27561 2.63622 0
M  V30 17472 C 1690.85 -4.43845 4.57471 0
M  V30 17473 C 1688.54 -4.67979 3.92987 0
M  V30 17474 C 1689.54 -4.76088 4.89723 0
M  V30 17475 O 1689.22 -5.15597 6.16778 0
M  V30 17476 H 1688.96 -0.628896 0.247924 0
M  V30 17477 H 1691.51 -1.57559 1.31774 0
M  V30 17478 H 1689.74 -3.86282 0.179809 0
M  V30 17479 H 1691.43 -4.01899 0.568475 0
M  V30 17480 H 1692.2 -3.77879 3.04027 0
M  V30 17481 H 1688.07 -4.2046 1.89036 0
M  V30 17482 H 1691.62 -4.5009 5.32978 0
M  V30 17483 H 1687.52 -4.92658 4.17083 0
M  V30 17484 H 1688.28 -5.33701 6.20569 0
M  V30 17485 N 1690.95 -0.754982 -1.38339 0
M  V30 17486 C 1692.19 -0.311146 -1.9969 0
M  V30 17487 C 1692.52 1.11138 -1.60229 0
M  V30 17488 O 1691.79 1.76024 -0.859794 0
M  V30 17489 H 1690.37 -0.112052 -0.738548 0
M  V30 17490 H 1693.03 -0.969386 -1.69083 0
M  V30 17491 H 1692.12 -0.375392 -3.09834 0
M  V30 17492 N 1692.42 1.49318 -0.504168 0
M  V30 17493 C 1693.35 2.32027 0.261837 0
M  V30 17494 C 1694.34 1.4045 0.959575 0
M  V30 17495 O 1695.52 1.69357 0.950365 0
M  V30 17496 C 1692.65 3.21039 1.3248 0
M  V30 17497 C 1691.6 4.21435 0.746752 0
M  V30 17498 C 1690.93 4.99405 1.91047 0
M  V30 17499 C 1692.23 5.21631 -0.264315 0
M  V30 17500 H 1693.92 2.96317 -0.428544 0
M  V30 17501 H 1691.47 1.42497 -0.207539 0
M  V30 17502 H 1693.42 3.77714 1.86843 0
M  V30 17503 H 1692.15 2.54699 2.04441 0
M  V30 17504 H 1690.81 3.6591 0.22485 0
M  V30 17505 H 1690.45 4.29509 2.61784 0
M  V30 17506 H 1690.15 5.67338 1.52975 0
M  V30 17507 H 1691.68 5.58924 2.45837 0
M  V30 17508 H 1693.09 5.72981 0.191288 0
M  V30 17509 H 1691.49 5.97472 -0.561039 0
M  V30 17510 H 1692.56 4.70346 -1.17911 0
M  V30 17511 N 1693.9 0.238138 1.5579 0
M  V30 17512 C 1694.83 -0.659451 2.23994 0
M  V30 17513 C 1695.81 -1.18817 1.21723 0
M  V30 17514 O 1697 -1.22913 1.50353 0
M  V30 17515 C 1694.13 -1.86043 2.93267 0
M  V30 17516 C 1693.08 -1.46485 4.02152 0
M  V30 17517 C 1692.41 -2.74595 4.58805 0
M  V30 17518 C 1693.71 -0.642448 5.18334 0
M  V30 17519 H 1695.4 -0.0907522 2.99262 0
M  V30 17520 H 1692.95 -0.042209 1.43938 0
M  V30 17521 H 1694.9 -2.49393 3.39678 0
M  V30 17522 H 1693.63 -2.45436 2.15473 0
M  V30 17523 H 1692.28 -0.854729 3.56497 0
M  V30 17524 H 1691.93 -3.32168 3.77721 0
M  V30 17525 H 1691.63 -2.48854 5.32302 0
M  V30 17526 H 1693.16 -3.38859 5.07944 0
M  V30 17527 H 1694.57 -1.18005 5.61024 0
M  V30 17528 H 1692.97 -0.481458 5.98166 0
M  V30 17529 H 1694.04 0.347298 4.83655 0
M  V30 17530 N 1695.38 -1.57561 -0.0350783 0
M  V30 17531 C 1696.63 -1.88623 -0.725659 0
M  V30 17532 C 1696.95 -0.835055 -1.76215 0
M  V30 17533 O 1696.22 0.13206 -1.95454 0
M  V30 17534 H 1694.8 -0.696108 -0.271004 0
M  V30 17535 H 1697.46 -1.949 -0.00245508 0
M  V30 17536 H 1696.56 -2.8731 -1.21899 0
M  V30 17537 N 1696.86 0.307236 -1.54576 0
M  V30 17538 C 1698.08 1.06668 -1.77867 0
M  V30 17539 C 1698.51 1.80375 -0.533536 0
M  V30 17540 O 1697.87 1.73812 0.515663 0
M  V30 17541 C 1697.91 2.02777 -2.98184 0
M  V30 17542 O 1697.02 3.10969 -2.70872 0
M  V30 17543 H 1696.36 0.306741 -0.588902 0
M  V30 17544 H 1698.89 0.346557 -2.01644 0
M  V30 17545 H 1698.9 2.45355 -3.25983 0
M  V30 17546 H 1697.57 1.48534 -3.88472 0
M  V30 17547 H 1696.15 2.7295 -2.54072 0
M  V30 17548 N 1698.34 1.46926 0.570122 0
M  V30 17549 C 1699.58 1.53113 1.32982 0
M  V30 17550 C 1699.92 0.187401 1.93294 0
M  V30 17551 O 1699.19 -0.802585 1.77169 0
M  V30 17552 C 1699.47 2.63936 2.44969 0
M  V30 17553 C 1699.33 4.07882 1.8961 0
M  V30 17554 C 1700.65 2.70753 3.46959 0
M  V30 17555 H 1697.76 0.557398 0.482158 0
M  V30 17556 H 1700.41 1.78923 0.639259 0
M  V30 17557 H 1698.56 2.42059 3.03874 0
M  V30 17558 H 1700.23 4.41084 1.35066 0
M  V30 17559 H 1698.47 4.16768 1.20361 0
M  V30 17560 H 1699.14 4.81175 2.70508 0
M  V30 17561 H 1701.62 2.90452 2.97954 0
M  V30 17562 H 1700.49 3.50093 4.2276 0
M  V30 17563 H 1700.76 1.77299 4.04991 0
M  V30 17564 N 1699.82 -0.815801 1.34842 0
M  V30 17565 C 1700.75 -1.94193 1.29659 0
M  V30 17566 C 1701.73 -1.69221 0.172703 0
M  V30 17567 O 1702.91 -1.90716 0.366203 0
M  V30 17568 C 1700.04 -3.30777 1.0585 0
M  V30 17569 C 1699 -3.70207 2.1478 0
M  V30 17570 C 1698.32 -5.04852 1.76149 0
M  V30 17571 C 1699.62 -3.81553 3.56671 0
M  V30 17572 H 1701.32 -1.98787 2.23884 0
M  V30 17573 H 1698.86 -0.955013 1.07775 0
M  V30 17574 H 1700.81 -4.0915 1.00866 0
M  V30 17575 H 1699.54 -3.265 0.0806804 0
M  V30 17576 H 1698.2 -2.94113 2.18845 0
M  V30 17577 H 1697.85 -4.9707 0.770099 0
M  V30 17578 H 1697.55 -5.32205 2.49062 0
M  V30 17579 H 1699.07 -5.85676 1.72674 0
M  V30 17580 H 1700.48 -4.50181 3.54979 0
M  V30 17581 H 1698.88 -4.20367 4.28266 0
M  V30 17582 H 1699.95 -2.83356 3.93494 0
M  V30 17583 N 1701.29 -1.18689 -1.03686 0
M  V30 17584 C 1702.52 -1.00961 -1.80595 0
M  V30 17585 C 1702.94 0.44188 -1.83556 0
M  V30 17586 O 1702.29 1.30693 -1.27379 0
M  V30 17587 C 1702.34 -1.56185 -3.26019 0
M  V30 17588 O 1702.07 -2.95652 -3.23298 0
M  V30 17589 C 1703.57 -1.43129 -4.19558 0
M  V30 17590 H 1700.79 -0.356291 -0.568593 0
M  V30 17591 H 1703.33 -1.57324 -1.3065 0
M  V30 17592 H 1701.49 -1.03989 -3.73182 0
M  V30 17593 H 1701.9 -3.21481 -4.14427 0
M  V30 17594 H 1703.37 -1.86561 -5.19518 0
M  V30 17595 H 1703.85 -0.380581 -4.37548 0
M  V30 17596 H 1704.46 -1.94416 -3.78262 0
M  V30 17597 N 1702.77 1.22662 -0.989529 0
M  V30 17598 C 1704.02 1.90632 -0.65897 0
M  V30 17599 C 1704.33 1.77942 0.812165 0
M  V30 17600 O 1705.54 2.40796 1.25417 0
M  V30 17601 C 1704 3.41763 -1.12809 0
M  V30 17602 C 1703.6 3.63097 -2.62421 0
M  V30 17603 C 1705.35 4.15454 -0.871698 0
M  V30 17604 C 1703.25 5.07911 -3.02953 0
M  V30 17605 H 1702.18 0.713847 -0.242772 0
M  V30 17606 H 1704.84 1.38942 -1.19864 0
M  V30 17607 H 1703.22 3.92616 -0.516564 0
M  V30 17608 H 1704.39 3.22751 -3.2889 0
M  V30 17609 H 1702.71 3.02733 -2.85905 0
M  V30 17610 H 1705.3 5.22181 -1.15027 0
M  V30 17611 H 1705.65 4.15856 0.192186 0
M  V30 17612 H 1706.18 3.70618 -1.44525 0
M  V30 17613 H 1702.92 5.12646 -4.08503 0
M  V30 17614 H 1702.44 5.49172 -2.41185 0
M  V30 17615 H 1704.12 5.76311 -2.94066 0
M  V30 17616 N 1704.25 0.762308 1.37937 0
M  V30 17617 C 1705.2 0.140412 2.30372 0
M  V30 17618 C 1706.17 -0.700152 1.50622 0
M  V30 17619 O 1707.35 -0.654474 1.79224 0
M  V30 17620 C 1704.49 -0.740056 3.37071 0
M  V30 17621 C 1703.6 0.116084 4.31844 0
M  V30 17622 C 1702.74 -0.768203 5.25616 0
M  V30 17623 C 1701.78 0.0910442 6.12032 0
M  V30 17624 N 1700.92 -0.75069 6.98075 0
M  V30 17625 H 1705.76 0.934224 2.82977 0
M  V30 17626 H 1703.29 0.472316 1.39311 0
M  V30 17627 H 1705.25 -1.26525 3.97551 0
M  V30 17628 H 1703.88 -1.49956 2.85855 0
M  V30 17629 H 1702.93 0.758999 3.72751 0
M  V30 17630 H 1704.24 0.779285 4.92675 0
M  V30 17631 H 1703.4 -1.36024 5.91255 0
M  V30 17632 H 1702.14 -1.46511 4.65173 0
M  V30 17633 H 1701.14 0.695687 5.45381 0
M  V30 17634 H 1702.37 0.785145 6.74546 0
M  V30 17635 H 1700.31 -1.43239 6.40171 0
M  V30 17636 H 1700.23 -0.144579 7.55862 0
M  V30 17637 H 1701.5 -1.32742 7.68114 0
M  V30 17638 N 1705.73 -1.49049 0.51208 0
M  V30 17639 C 1706.67 -2.29326 -0.260408 0
M  V30 17640 C 1707.64 -1.36232 -0.950265 0
M  V30 17641 O 1708.83 -1.65193 -0.954777 0
M  V30 17642 C 1705.97 -3.19177 -1.31225 0
M  V30 17643 C 1705.08 -4.27336 -0.63305 0
M  V30 17644 C 1704.22 -5.04389 -1.66628 0
M  V30 17645 C 1703.26 -6.04372 -0.969561 0
M  V30 17646 N 1702.39 -6.74549 -1.94751 0
M  V30 17647 H 1707.23 -2.94876 0.430384 0
M  V30 17648 H 1704.77 -1.45383 0.224086 0
M  V30 17649 H 1706.73 -3.69655 -1.9342 0
M  V30 17650 H 1705.36 -2.55588 -1.97166 0
M  V30 17651 H 1704.41 -3.80262 0.102433 0
M  V30 17652 H 1705.72 -4.98727 -0.0851363 0
M  V30 17653 H 1704.88 -5.58791 -2.36299 0
M  V30 17654 H 1703.62 -4.32797 -2.24807 0
M  V30 17655 H 1702.62 -5.49191 -0.25869 0
M  V30 17656 H 1703.85 -6.77955 -0.394125 0
M  V30 17657 H 1701.79 -6.0572 -2.5187 0
M  V30 17658 H 1701.71 -7.41954 -1.45055 0
M  V30 17659 H 1702.98 -7.3355 -2.63675 0
M  V30 17660 N 1707.21 -0.246397 -1.55662 0
M  V30 17661 C 1708.12 0.664125 -2.25003 0
M  V30 17662 C 1709.13 1.19368 -1.26598 0
M  V30 17663 O 1710.31 1.23006 -1.59473 0
M  V30 17664 C 1707.37 1.8446 -2.93557 0
M  V30 17665 C 1706.43 1.35456 -4.0737 0
M  V30 17666 C 1705.67 2.47877 -4.72645 0
M  V30 17667 O 1705.89 3.66594 -4.36995 0
M  V30 17668 O 1704.82 2.17663 -5.61165 0
M  V30 17669 H 1708.65 0.103277 -3.03524 0
M  V30 17670 H 1706.23 -0.0149207 -1.49393 0
M  V30 17671 H 1708.12 2.53349 -3.36737 0
M  V30 17672 H 1706.79 2.39308 -2.17976 0
M  V30 17673 H 1705.7 0.632958 -3.68706 0
M  V30 17674 H 1707.03 0.852175 -4.84767 0
M  V30 17675 N 1708.68 1.57577 0.026722 0
M  V30 17676 C 1709.91 1.94035 0.732473 0
M  V30 17677 C 1710.33 0.846575 1.67972 0
M  V30 17678 O 1709.69 -0.197514 1.80221 0
M  V30 17679 C 1709.74 3.2956 1.46365 0
M  V30 17680 O 1708.84 3.21975 2.57694 0
M  V30 17681 H 1708.18 0.634155 0.196832 0
M  V30 17682 H 1710.71 2.04592 -0.018503 0
M  V30 17683 H 1710.72 3.64504 1.83305 0
M  V30 17684 H 1709.4 4.0873 0.768943 0
M  V30 17685 H 1707.98 2.98665 2.23279 0
M  V30 17686 N 1710.16 -0.299034 1.54737 0
M  V30 17687 C 1711.07 -1.39141 1.88884 0
M  V30 17688 C 1712.09 -1.55377 0.783203 0
M  V30 17689 O 1713.26 -1.70003 1.07985 0
M  V30 17690 C 1710.33 -2.73487 2.13087 0
M  V30 17691 C 1709.39 -2.66219 3.36788 0
M  V30 17692 C 1708.62 -3.94158 3.59827 0
M  V30 17693 O 1708.85 -4.9361 2.85841 0
M  V30 17694 O 1707.78 -3.95933 4.53344 0
M  V30 17695 H 1711.61 -1.13184 2.81821 0
M  V30 17696 H 1709.19 -0.495271 1.40952 0
M  V30 17697 H 1711.07 -3.5297 2.30195 0
M  V30 17698 H 1709.75 -2.99283 1.23335 0
M  V30 17699 H 1708.65 -1.85201 3.25041 0
M  V30 17700 H 1709.99 -2.45376 4.26675 0
M  V30 17701 O 1711.68 -1.5525 -0.444923 0
M  V30 17702 H 1712.37 -1.59527 -1.09867 0
M  V30 END ATOM
M  V30 BEGIN BOND
M  V30 END BOND
M  V30 END CTAB
M  END
$$$$
