drugbank_target|O76074 cGMP-specific 3',5'-cyclic phosphodiesterase (DB00203; DB00277; DB00820; DB00862; DB00975; DB01972; DB03597; DB05415; DB06237; DB06246; DB06267; DB07954; DB08729; DB12010)
 OpenBabel12092119263D

  0  0  0     0  0            999 V3000
M  V30 BEGIN CTAB
M  V30 COUNTS 13955 14087 0 0 0
M  V30 BEGIN ATOM
M  V30 1 H -0.908 1.98254 -0.117106 0
M  V30 2 N 0 1.576 0 0
M  V30 3 C 0.933 2.03868 1.02534 0
M  V30 4 C 1.911 0.928543 1.3348 0
M  V30 5 O 3.095 1.19667 1.45644 0
M  V30 6 C 0.222 2.43627 2.35294 0
M  V30 7 C -0.732 3.65373 2.2001 0
M  V30 8 S 0.101 5.13292 1.52614 0
M  V30 9 C 1.257 5.56322 2.86805 0
M  V30 10 H 1.49 2.90518 0.631377 0
M  V30 11 H -0.977 1.52953 0.210867 0
M  V30 12 H 0.981 2.67203 3.11629 0
M  V30 13 H -0.358 1.57376 2.7183 0
M  V30 14 H -1.165 3.90944 3.18086 0
M  V30 15 H -1.563 3.418 1.51819 0
M  V30 16 H 0.729 5.58782 3.83104 0
M  V30 17 H 1.672 6.56266 2.65933 0
M  V30 18 H 2.08 4.83886 2.90714 0
M  V30 19 N 1.4781 -0.272755 1.55222 0
M  V30 20 C 2.3881 -1.35918 1.91216 0
M  V30 21 C 3.4041 -1.54026 0.809436 0
M  V30 22 O 4.5801 -1.68148 1.10852 0
M  V30 23 C 1.6451 -2.69834 2.17693 0
M  V30 24 C 0.7061 -2.6047 3.41253 0
M  V30 25 C -0.0609 -3.88 3.66458 0
M  V30 26 O 0.1621 -4.88693 2.94169 0
M  V30 27 O -0.9039 -3.88189 4.59992 0
M  V30 28 H 2.9221 -1.0839 2.83699 0
M  V30 29 H 0.5071 -0.471301 1.41771 0
M  V30 30 H 2.3891 -3.49017 2.36147 0
M  V30 31 H 1.0641 -2.97148 1.28392 0
M  V30 32 H -0.0289 -1.79663 3.28134 0
M  V30 33 H 1.3041 -2.38106 4.30774 0
M  V30 34 N 2.9562 -1.48159 -0.537278 0
M  V30 35 C 4.3722 -1.34118 -0.865129 0
M  V30 36 C 4.5722 -0.346678 -1.98495 0
M  V30 37 O 3.6282 0.234715 -2.51407 0
M  V30 38 C 4.9412 -2.73963 -1.23954 0
M  V30 39 C 6.4892 -2.82397 -1.34984 0
M  V30 40 C 6.9642 -4.22928 -1.75772 0
M  V30 41 N 8.4552 -4.25566 -1.82887 0
M  V30 42 C 9.1902 -5.31235 -2.15817 0
M  V30 43 N 8.6862 -6.47189 -2.47222 0
M  V30 44 N 10.4792 -5.18624 -2.16761 0
M  V30 45 H 2.6302 -2.1144 0.201715 0
M  V30 46 H 4.8932 -0.947598 0.0275949 0
M  V30 47 H 4.5992 -3.48264 -0.490381 0
M  V30 48 H 4.4732 -3.0702 -2.19132 0
M  V30 49 H 6.8602 -2.08356 -2.08978 0
M  V30 50 H 6.9412 -2.5297 -0.379448 0
M  V30 51 H 6.5852 -4.97482 -1.02341 0
M  V30 52 H 6.5152 -4.49794 -2.73848 0
M  V30 53 H 9.0062 -3.41924 -1.60924 0
M  V30 54 H 9.3192 -7.23564 -2.71433 0
M  V30 55 H 7.6642 -6.50476 -2.44757 0
M  V30 56 H 10.8552 -4.27056 -1.91679 0
M  V30 57 H 11.0282 -6.01078 -2.42093 0
M  V30 58 N 4.4343 0.785586 -1.36625 0
M  V30 59 C 5.3973 1.87999 -1.31107 0
M  V30 60 C 6.3973 1.59316 -0.217959 0
M  V30 61 O 7.5873 1.67656 -0.472977 0
M  V30 62 C 4.7193 3.24861 -1.03334 0
M  V30 63 H 5.9123 1.94307 -2.2844 0
M  V30 64 H 3.4653 0.983813 -1.21453 0
M  V30 65 H 4.2003 3.24235 -0.0647432 0
M  V30 66 H 3.9853 3.4707 -1.82441 0
M  V30 67 H 5.4753 4.04929 -1.02088 0
M  V30 68 N 5.9124 1.20967 1.01018 0
M  V30 69 C 7.1604 1.02172 1.74371 0
M  V30 70 C 7.4814 -0.446414 1.89821 0
M  V30 71 O 6.7514 -1.32234 1.44537 0
M  V30 72 H 5.3314 0.375066 0.646014 0
M  V30 73 H 7.9934 1.52187 1.21758 0
M  V30 74 H 7.0894 1.48538 2.74487 0
M  V30 75 N 7.3905 -1.2043 1.01659 0
M  V30 76 C 8.8015 -1.71517 0.737482 0
M  V30 77 C 9.1525 -1.81547 -0.743973 0
M  V30 78 O 8.2775 -1.47803 -1.58061 0
M  V30 79 C 8.8725 -3.11515 1.33206 0
M  V30 80 C 7.4315 -3.59912 1.10183 0
M  V30 81 C 6.5785 -2.37116 1.43776 0
M  V30 82 H 9.5295 -1.05444 1.18606 0
M  V30 83 H 9.5505 -3.73575 0.722636 0
M  V30 84 H 9.0625 -3.04182 2.41028 0
M  V30 85 H 7.1635 -3.72577 0.0412756 0
M  V30 86 H 7.2765 -4.44731 1.78188 0
M  V30 87 H 5.6405 -2.39857 0.856778 0
M  V30 88 H 6.4235 -2.32424 2.52654 0
M  V30 89 N 8.8686 -0.792821 -1.36206 0
M  V30 90 C 10.0936 -0.377701 -2.03932 0
M  V30 91 C 10.5186 0.998947 -1.59382 0
M  V30 92 O 9.8766 1.64421 -0.763903 0
M  V30 93 C 9.9246 -0.453635 -3.57735 0
M  V30 94 O 9.0286 0.538151 -4.08874 0
M  V30 95 H 8.3696 -0.159855 -0.644471 0
M  V30 96 H 10.8996 -1.07488 -1.7409 0
M  V30 97 H 10.9096 -0.318464 -4.06755 0
M  V30 98 H 9.5846 -1.45784 -3.89512 0
M  V30 99 H 8.1616 0.364359 -3.71116 0
M  V30 100 N 10.3467 1.47872 -0.545128 0
M  V30 101 C 11.5937 2.02493 -0.0165858 0
M  V30 102 C 11.9217 1.42073 1.32836 0
M  V30 103 O 11.1767 0.561459 1.87473 0
M  V30 104 C 11.4757 3.57131 0.13867 0
M  V30 105 C 11.1417 4.36411 -1.13384 0
M  V30 106 C 9.8037 4.57792 -1.48256 0
M  V30 107 C 12.1557 4.82223 -1.97764 0
M  V30 108 C 9.4837 5.22233 -2.67376 0
M  V30 109 C 11.8357 5.47977 -3.16076 0
M  V30 110 C 10.4997 5.67593 -3.51275 0
M  V30 111 H 9.7697 0.740975 -0.00606918 0
M  V30 112 H 12.4167 1.77683 -0.714207 0
M  V30 113 H 10.7217 3.80865 0.919172 0
M  V30 114 H 12.4187 3.97031 0.562782 0
M  V30 115 H 9.0087 4.2004 -0.852297 0
M  V30 116 H 13.1927 4.65493 -1.72132 0
M  V30 117 H 8.4487 5.35616 -2.94831 0
M  V30 118 H 12.6227 5.8244 -3.81755 0
M  V30 119 H 10.2497 6.17298 -4.43675 0
M  V30 120 N 11.8248 0.280983 1.55075 0
M  V30 121 C 13.0728 -0.333455 1.9933 0
M  V30 122 C 13.3938 -1.55937 1.17085 0
M  V30 123 O 12.6638 -1.94143 0.261805 0
M  V30 124 H 11.2438 -0.126197 0.736263 0
M  V30 125 H 13.9058 0.387678 1.91005 0
M  V30 126 H 13.0018 -0.619292 3.05894 0
M  V30 127 N 13.3029 -1.57598 0.00835791 0
M  V30 128 C 14.2349 -2.05811 -1.00868 0
M  V30 129 C 15.2479 -0.977579 -1.30182 0
M  V30 130 O 16.4369 -1.25421 -1.27011 0
M  V30 131 C 13.5369 -2.45016 -2.34137 0
M  V30 132 C 12.7099 -3.75903 -2.23643 0
M  V30 133 C 11.7689 -4.01884 -3.3967 0
M  V30 134 O 10.7949 -4.72433 -3.17483 0
M  V30 135 N 11.9969 -3.50432 -4.62793 0
M  V30 136 H 14.7619 -2.93684 -0.597458 0
M  V30 137 H 12.3229 -1.60909 -0.178852 0
M  V30 138 H 14.3149 -2.59506 -3.10546 0
M  V30 139 H 12.8849 -1.62618 -2.66972 0
M  V30 140 H 12.1049 -3.7141 -1.32091 0
M  V30 141 H 13.3929 -4.61695 -2.13812 0
M  V30 142 H 12.7909 -2.93317 -4.83716 0
M  V30 143 H 11.3479 -3.70236 -5.3644 0
M  V30 144 N 14.781 0.264519 -1.55364 0
M  V30 145 C 15.713 1.34965 -1.85248 0
M  V30 146 C 16.726 1.45136 -0.737525 0
M  V30 147 O 17.915 1.46801 -1.01547 0
M  V30 148 C 15.015 2.73008 -2.00797 0
M  V30 149 C 14.188 2.85324 -3.31525 0
M  V30 150 C 13.247 4.04097 -3.37034 0
M  V30 151 O 12.273 3.94455 -4.10358 0
M  V30 152 N 13.475 5.16458 -2.65049 0
M  V30 153 H 16.24 1.09672 -2.78913 0
M  V30 154 H 13.801 0.454635 -1.55386 0
M  V30 155 H 15.793 3.50772 -2.01844 0
M  V30 156 H 14.363 2.91087 -1.1396 0
M  V30 157 H 13.583 1.94377 -3.42945 0
M  V30 158 H 14.871 2.9049 -4.17724 0
M  V30 159 H 14.269 5.27181 -2.05175 0
M  V30 160 H 12.826 5.92422 -2.71809 0
M  V30 161 N 16.2591 1.48442 0.529413 0
M  V30 162 C 17.6751 1.34575 0.858004 0
M  V30 163 C 17.8751 0.3572 1.98309 0
M  V30 164 O 16.9311 -0.221379 2.51528 0
M  V30 165 C 18.2441 2.74617 1.22499 0
M  V30 166 C 19.7921 2.83109 1.33484 0
M  V30 167 C 20.2671 4.23854 1.73526 0
M  V30 168 N 21.7581 4.2653 1.80628 0
M  V30 169 C 22.4931 5.32372 2.12997 0
M  V30 170 N 21.9891 6.48491 2.43786 0
M  V30 171 N 23.7821 5.19766 2.14008 0
M  V30 172 H 15.9331 2.1133 -0.212925 0
M  V30 173 H 18.1961 0.947439 -0.0326199 0
M  V30 174 H 17.9021 3.4852 0.471905 0
M  V30 175 H 17.7761 3.08177 2.17501 0
M  V30 176 H 20.1631 2.09462 2.0787 0
M  V30 177 H 20.2441 2.53168 0.366027 0
M  V30 178 H 19.8881 4.98018 0.997013 0
M  V30 179 H 19.8181 4.5124 2.71459 0
M  V30 180 H 22.3091 3.42772 1.59108 0
M  V30 181 H 22.6221 7.24993 2.67592 0
M  V30 182 H 20.9671 6.51765 2.41304 0
M  V30 183 H 24.1581 4.28066 1.89412 0
M  V30 184 H 24.3311 6.02354 2.38902 0
M  V30 185 N 17.7372 -0.778329 1.37039 0
M  V30 186 C 18.6692 -1.90034 1.2814 0
M  V30 187 C 19.6822 -1.61585 0.198558 0
M  V30 188 O 20.8712 -1.72625 0.454175 0
M  V30 189 C 17.9712 -3.25108 0.956968 0
M  V30 190 C 17.1442 -3.81253 2.14394 0
M  V30 191 C 16.2032 -4.94789 1.79082 0
M  V30 192 O 15.2292 -5.10721 2.51301 0
M  V30 193 N 16.4312 -5.75878 0.731043 0
M  V30 194 H 19.1962 -1.98186 2.24816 0
M  V30 195 H 16.7572 -0.957129 1.30578 0
M  V30 196 H 18.7492 -3.9857 0.701701 0
M  V30 197 H 17.3192 -3.125 0.0789812 0
M  V30 198 H 16.5392 -2.99647 2.56135 0
M  V30 199 H 17.8272 -4.15495 2.93668 0
M  V30 200 H 17.2252 -5.65547 0.131618 0
M  V30 201 H 15.7822 -6.49596 0.535622 0
M  V30 202 N 19.2153 -1.21501 -1.00376 0
M  V30 203 C 20.1473 -0.933174 -2.09343 0
M  V30 204 C 21.1603 0.0840896 -1.62583 0
M  V30 205 O 22.3493 -0.148563 -1.77881 0
M  V30 206 C 19.4493 -0.379869 -3.36764 0
M  V30 207 C 18.6223 -1.45176 -4.12605 0
M  V30 208 C 17.6813 -0.907476 -5.18316 0
M  V30 209 O 16.7073 -1.5912 -5.46507 0
M  V30 210 N 17.9093 0.276649 -5.7984 0
M  V30 211 H 20.6743 -1.87124 -2.34104 0
M  V30 212 H 18.2353 -1.12043 -1.16867 0
M  V30 213 H 20.2273 -0.00131488 -4.047 0
M  V30 214 H 18.7973 0.463048 -3.09151 0
M  V30 215 H 18.0173 -2.00411 -3.39454 0
M  V30 216 H 19.3053 -2.17328 -4.6005 0
M  V30 217 H 18.7033 0.849147 -5.59291 0
M  V30 218 H 17.2603 0.596702 -6.49063 0
M  V30 219 N 20.6934 1.19889 -1.02296 0
M  V30 220 C 21.6254 2.22334 -0.556787 0
M  V30 221 C 22.6384 1.58674 0.364199 0
M  V30 222 O 23.8274 1.77768 0.161533 0
M  V30 223 C 20.9274 3.38257 0.208694 0
M  V30 224 C 20.1004 4.31504 -0.71577 0
M  V30 225 C 19.1594 5.262 0.00325597 0
M  V30 226 O 18.1854 5.65798 -0.621357 0
M  V30 227 N 19.3874 5.66303 1.27599 0
M  V30 228 H 22.1524 2.62957 -1.43784 0
M  V30 229 H 19.7134 1.34495 -0.901261 0
M  V30 230 H 21.7054 3.98616 0.699111 0
M  V30 231 H 20.2754 2.96472 0.991102 0
M  V30 232 H 19.4954 3.69016 -1.38638 0
M  V30 233 H 20.7834 4.9072 -1.34428 0
M  V30 234 H 20.1814 5.36155 1.80429 0
M  V30 235 H 18.7384 6.28942 1.71102 0
M  V30 236 N 22.1715 0.800033 1.35784 0
M  V30 237 C 23.1035 0.163596 2.28615 0
M  V30 238 C 24.1165 -0.633317 1.49976 0
M  V30 239 O 25.3055 -0.466754 1.72289 0
M  V30 240 C 22.4055 -0.790958 3.29541 0
M  V30 241 C 21.5785 -0.0418255 4.3738 0
M  V30 242 C 20.6375 -0.91389 5.18203 0
M  V30 243 O 19.6635 -0.367234 5.68014 0
M  V30 244 N 20.8655 -2.23682 5.35674 0
M  V30 245 H 23.6305 0.96105 2.83873 0
M  V30 246 H 21.1915 0.654894 1.48063 0
M  V30 247 H 23.1835 -1.37844 3.80501 0
M  V30 248 H 21.7535 -1.48925 2.74846 0
M  V30 249 H 20.9735 0.726813 3.87442 0
M  V30 250 H 22.2615 0.474719 5.06581 0
M  V30 251 H 21.6595 -2.70497 4.96838 0
M  V30 252 H 20.2165 -2.77369 5.89839 0
M  V30 253 N 23.6496 -1.47581 0.552962 0
M  V30 254 C 25.0606 -1.86324 0.118463 0
M  V30 255 C 25.4116 -1.46006 -1.3106 0
M  V30 256 O 24.5366 -0.861182 -1.98526 0
M  V30 257 C 25.1316 -3.3816 0.20821 0
M  V30 258 C 23.6906 -3.7601 -0.171226 0
M  V30 259 C 22.8376 -2.71634 0.557686 0
M  V30 260 H 25.7886 -1.39159 0.762928 0
M  V30 261 H 25.8096 -3.76141 -0.574278 0
M  V30 262 H 25.3216 -3.67473 1.24841 0
M  V30 263 H 23.4226 -3.52313 -1.21269 0
M  V30 264 H 23.5356 -4.78745 0.184379 0
M  V30 265 H 21.8996 -2.547 0.00125792 0
M  V30 266 H 22.6826 -3.0379 1.59896 0
M  V30 267 N 25.1277 -0.289203 -1.54924 0
M  V30 268 C 26.0597 0.625583 -2.20497 0
M  V30 269 C 27.0727 1.10667 -1.19402 0
M  V30 270 O 28.2617 1.02615 -1.46056 0
M  V30 271 C 25.3617 1.86702 -2.82835 0
M  V30 272 C 24.5347 1.5304 -4.09753 0
M  V30 273 C 23.5937 2.62576 -4.56005 0
M  V30 274 O 22.6197 2.28167 -5.21468 0
M  V30 275 N 23.8217 3.92901 -4.27328 0
M  V30 276 H 26.5867 0.0642801 -2.99631 0
M  V30 277 H 24.1477 -0.110896 -1.6152 0
M  V30 278 H 26.1397 2.59304 -3.10715 0
M  V30 279 H 24.7097 2.33702 -2.07611 0
M  V30 280 H 23.9297 0.637564 -3.8901 0
M  V30 281 H 25.2177 1.28072 -4.92418 0
M  V30 282 H 24.6157 4.23671 -3.74859 0
M  V30 283 H 23.1727 4.61837 -4.59946 0
M  V30 284 N 26.6058 1.57591 -0.0167156 0
M  V30 285 C 27.5378 2.06343 0.997753 0
M  V30 286 C 28.5508 0.984469 1.29661 0
M  V30 287 O 29.7398 1.26093 1.26344 0
M  V30 288 C 26.8398 2.46255 2.32834 0
M  V30 289 C 26.0128 3.77083 2.21646 0
M  V30 290 C 25.0718 4.0368 3.37534 0
M  V30 291 O 24.0978 4.7411 3.14973 0
M  V30 292 N 25.2998 3.52881 4.60929 0
M  V30 293 H 28.0648 2.93997 0.581875 0
M  V30 294 H 25.6258 1.61002 0.170316 0
M  V30 295 H 27.6178 2.61149 3.09166 0
M  V30 296 H 26.1878 1.64032 2.66106 0
M  V30 297 H 25.4078 3.72106 1.30119 0
M  V30 298 H 26.6958 4.62822 2.11361 0
M  V30 299 H 26.0938 2.95878 4.82154 0
M  V30 300 H 24.6508 3.73076 5.34469 0
M  V30 301 N 28.0839 -0.256276 1.55502 0
M  V30 302 C 29.0159 -1.33981 1.85962 0
M  V30 303 C 30.0289 -1.44743 0.745212 0
M  V30 304 O 31.2179 -1.4626 1.02324 0
M  V30 305 C 28.3179 -2.7194 2.02242 0
M  V30 306 C 27.4909 -2.83562 3.33033 0
M  V30 307 C 26.5499 -4.02304 3.39172 0
M  V30 308 O 25.5759 -3.92273 4.12444 0
M  V30 309 N 26.7779 -5.15045 2.67784 0
M  V30 310 H 29.5429 -1.08191 2.7949 0
M  V30 311 H 27.1039 -0.446388 1.55624 0
M  V30 312 H 29.0959 -3.49697 2.03701 0
M  V30 313 H 27.6659 -2.90479 1.15502 0
M  V30 314 H 26.8859 -1.92555 3.43971 0
M  V30 315 H 28.1739 -2.88271 4.19258 0
M  V30 316 H 27.5719 -5.26085 2.07968 0
M  V30 317 H 26.1289 -5.90972 2.74947 0
M  V30 318 N 29.562 -1.4872 -0.521534 0
M  V30 319 C 30.509 -1.63871 -1.62527 0
M  V30 320 C 31.479 -0.480559 -1.58996 0
M  V30 321 O 32.664 -0.705085 -1.77294 0
M  V30 322 C 29.804 -1.69227 -3.00759 0
M  V30 323 C 28.917 -2.96207 -3.14461 0
M  V30 324 C 28.052 -2.92671 -4.43303 0
M  V30 325 C 27.091 -4.14318 -4.50563 0
M  V30 326 N 26.228 -4.0881 -5.70805 0
M  V30 327 H 31.068 -2.58123 -1.48918 0
M  V30 328 H 28.605 -1.28 -0.724878 0
M  V30 329 H 30.563 -1.70314 -3.80853 0
M  V30 330 H 29.193 -0.784586 -3.1312 0
M  V30 331 H 28.245 -3.04826 -2.27564 0
M  V30 332 H 29.557 -3.86192 -3.15686 0
M  V30 333 H 28.711 -2.92206 -5.31696 0
M  V30 334 H 27.45 -2.00429 -4.44612 0
M  V30 335 H 26.455 -4.15049 -3.60575 0
M  V30 336 H 27.68 -5.07729 -4.50986 0
M  V30 337 H 25.626 -3.19394 -5.72995 0
M  V30 338 H 25.543 -4.92509 -5.7356 0
M  V30 339 H 26.811 -4.12418 -6.61462 0
M  V30 340 N 31.0401 0.771051 -1.3745 0
M  V30 341 C 31.9721 1.89352 -1.29146 0
M  V30 342 C 32.9851 1.61477 -0.207124 0
M  V30 343 O 34.1741 1.72382 -0.463324 0
M  V30 344 C 31.2741 3.24596 -0.974195 0
M  V30 345 C 30.4471 3.80111 -2.16413 0
M  V30 346 C 29.5061 4.93832 -1.81703 0
M  V30 347 O 28.5321 5.09382 -2.54006 0
M  V30 348 N 29.7341 5.75483 -0.761573 0
M  V30 349 H 32.4991 1.96991 -2.25864 0
M  V30 350 H 30.0601 0.950191 -1.31084 0
M  V30 351 H 32.0521 3.98193 -0.722828 0
M  V30 352 H 30.6221 3.12454 -0.0955527 0
M  V30 353 H 29.8421 2.98284 -2.57721 0
M  V30 354 H 31.1301 4.13932 -2.95867 0
M  V30 355 H 30.5281 5.65469 -0.161609 0
M  V30 356 H 29.0851 6.49302 -0.570064 0
M  V30 357 N 32.5182 1.22032 0.997298 0
M  V30 358 C 33.4502 0.944263 2.08845 0
M  V30 359 C 34.4632 -0.0754663 1.62625 0
M  V30 360 O 35.6522 0.157994 1.77799 0
M  V30 361 C 32.7522 0.397723 3.36558 0
M  V30 362 C 31.9252 1.47362 4.11829 0
M  V30 363 C 30.9842 0.934951 5.17827 0
M  V30 364 O 30.0102 1.62016 5.45655 0
M  V30 365 N 31.2122 -0.245895 5.79979 0
M  V30 366 H 33.9772 1.88363 2.33109 0
M  V30 367 H 31.5382 1.12661 1.16272 0
M  V30 368 H 33.5302 0.0227771 4.04694 0
M  V30 369 H 32.1002 -0.446646 3.09393 0
M  V30 370 H 31.3202 2.02208 3.38386 0
M  V30 371 H 32.6082 2.19764 4.58891 0
M  V30 372 H 32.0062 -0.819475 5.59733 0
M  V30 373 H 30.5632 -0.562272 6.4937 0
M  V30 374 N 33.9963 -1.19345 1.0293 0
M  V30 375 C 34.9283 -2.22036 0.56857 0
M  V30 376 C 35.9413 -1.58865 -0.355779 0
M  V30 377 O 37.1303 -1.77851 -0.152103 0
M  V30 378 C 34.2303 -3.38363 -0.190752 0
M  V30 379 C 33.4033 -4.31118 0.738643 0
M  V30 380 C 32.4623 -5.26194 0.0246497 0
M  V30 381 O 31.4883 -5.65461 0.651354 0
M  V30 382 N 32.6903 -5.66971 -1.24594 0
M  V30 383 H 35.4553 -2.6219 1.45177 0
M  V30 384 H 33.0163 -1.34015 0.908381 0
M  V30 385 H 35.0083 -3.98981 -0.677961 0
M  V30 386 H 33.5783 -2.96994 -0.975366 0
M  V30 387 H 32.7983 -3.68276 1.40593 0
M  V30 388 H 34.0863 -4.90001 1.37029 0
M  V30 389 H 33.4843 -5.37104 -1.77583 0
M  V30 390 H 32.0413 -6.2984 -1.67764 0
M  V30 391 N 35.4744 -0.807222 -1.35358 0
M  V30 392 C 36.8904 -0.491038 -1.51858 0
M  V30 393 C 37.0904 0.987648 -1.75635 0
M  V30 394 O 36.1464 1.77265 -1.79815 0
M  V30 395 C 37.4594 -1.33695 -2.69344 0
M  V30 396 C 39.0074 -1.33246 -2.83222 0
M  V30 397 C 39.4824 -2.1625 -4.03733 0
M  V30 398 N 40.9734 -2.1379 -4.10911 0
M  V30 399 C 41.7084 -2.74772 -5.03277 0
M  V30 400 N 41.2044 -3.44684 -6.0097 0
M  V30 401 N 42.9974 -2.6441 -4.96028 0
M  V30 402 H 35.1484 -1.76485 -1.18181 0
M  V30 403 H 37.4114 -0.751199 -0.578276 0
M  V30 404 H 37.1174 -2.38634 -2.58354 0
M  V30 405 H 36.9914 -0.990618 -3.6396 0
M  V30 406 H 39.3784 -0.290911 -2.93663 0
M  V30 407 H 39.4594 -1.71866 -1.89461 0
M  V30 408 H 39.1034 -3.20445 -3.94052 0
M  V30 409 H 39.0334 -1.74989 -4.96675 0
M  V30 410 H 41.5244 -1.62923 -3.40976 0
M  V30 411 H 41.8374 -3.88501 -6.68047 0
M  V30 412 H 40.1824 -3.48788 -6.01142 0
M  V30 413 H 43.3734 -2.0938 -4.18662 0
M  V30 414 H 43.5464 -3.12225 -5.6782 0
M  V30 415 N 36.9525 1.47285 -0.560781 0
M  V30 416 C 38.2295 1.9558 0.0277798 0
M  V30 417 C 38.6095 1.5034 1.48192 0
M  V30 418 O 37.9575 0.743882 2.16052 0
M  V30 419 C 38.1675 3.48789 -0.121418 0
M  V30 420 C 39.5155 4.24594 0.0220912 0
M  V30 421 O 40.5395 3.56166 -0.0491439 0
M  V30 422 O 39.3985 5.46217 0.175958 0
M  V30 423 H 36.4925 0.824663 0.0621342 0
M  V30 424 H 39.0385 1.5767 -0.627556 0
M  V30 425 H 37.8105 3.74533 -1.13316 0
M  V30 426 H 37.4335 3.93473 0.571366 0
M  V30 427 N 38.4306 0.297415 1.54768 0
M  V30 428 C 39.3626 -0.613881 2.20826 0
M  V30 429 C 40.3756 -1.10032 1.19987 0
M  V30 430 O 41.5646 -1.01839 1.46598 0
M  V30 431 C 38.6646 -1.852 2.83821 0
M  V30 432 C 37.8376 -1.50865 4.10559 0
M  V30 433 C 36.8966 -2.60154 4.57391 0
M  V30 434 O 35.9226 -2.25398 5.2267 0
M  V30 435 N 37.1246 -3.90629 4.29406 0
M  V30 436 H 39.8896 -0.048389 2.99661 0
M  V30 437 H 37.4506 0.11946 1.61459 0
M  V30 438 H 39.4426 -2.57652 3.12086 0
M  V30 439 H 38.0126 -2.32597 2.08847 0
M  V30 440 H 37.2326 -0.616925 3.89343 0
M  V30 441 H 38.5206 -1.25458 4.9309 0
M  V30 442 H 37.9186 -4.21677 3.77101 0
M  V30 443 H 36.4756 -4.59391 4.62388 0
M  V30 444 N 39.9087 -1.5758 0.0250728 0
M  V30 445 C 41.1857 -1.82917 -0.692873 0
M  V30 446 C 41.5657 -0.908137 -1.90568 0
M  V30 447 O 40.9137 0.0372298 -2.2847 0
M  V30 448 C 41.1237 -3.32034 -1.07492 0
M  V30 449 C 42.4717 -3.98406 -1.46826 0
M  V30 450 O 43.4957 -3.36505 -1.16801 0
M  V30 451 O 42.3547 -5.07497 -2.02754 0
M  V30 452 H 39.4487 -0.754079 -0.33955 0
M  V30 453 H 41.9947 -1.69619 0.0524456 0
M  V30 454 H 40.7667 -3.90728 -0.211552 0
M  V30 455 H 40.3897 -3.50424 -1.87854 0
M  V30 456 N 41.3868 0.248026 -1.55636 0
M  V30 457 C 42.6118 0.998028 -1.81808 0
M  V30 458 C 43.0368 1.78207 -0.601979 0
M  V30 459 O 42.3948 1.75653 0.448961 0
M  V30 460 C 42.4428 1.9125 -3.05705 0
M  V30 461 O 41.5468 3.00406 -2.82542 0
M  V30 462 H 40.8878 0.284045 -0.600179 0
M  V30 463 H 43.4178 0.269357 -2.02819 0
M  V30 464 H 43.4278 2.32737 -3.35108 0
M  V30 465 H 42.1028 1.33602 -3.93857 0
M  V30 466 H 40.6798 2.63056 -2.64303 0
M  V30 467 N 42.8649 1.48995 0.513639 0
M  V30 468 C 44.1109 1.58076 1.27042 0
M  V30 469 C 44.4439 0.261026 1.92438 0
M  V30 470 O 43.7189 -0.734393 1.80103 0
M  V30 471 C 44.0019 2.73091 2.34719 0
M  V30 472 C 43.8549 4.14821 1.73907 0
M  V30 473 C 45.1739 2.83796 3.36375 0
M  V30 474 H 42.2929 0.575391 0.460536 0
M  V30 475 H 44.9349 1.81232 0.570516 0
M  V30 476 H 43.0849 2.53479 2.94416 0
M  V30 477 H 44.7569 4.45917 1.18135 0
M  V30 478 H 42.9999 4.21058 1.0437 0
M  V30 479 H 43.6709 4.91147 2.51949 0
M  V30 480 H 46.1469 3.01611 2.86653 0
M  V30 481 H 45.0229 3.65971 4.09093 0
M  V30 482 H 45.2839 1.92624 3.9793 0
M  V30 483 N 44.343 -0.763751 1.37857 0
M  V30 484 C 45.253 -1.90817 1.36478 0
M  V30 485 C 46.269 -1.71997 0.263248 0
M  V30 486 O 47.445 -1.95095 0.499979 0
M  V30 487 C 44.51 -3.2605 1.17864 0
M  V30 488 C 43.571 -3.57467 2.3773 0
M  V30 489 C 42.804 -4.86249 2.19995 0
M  V30 490 O 43.027 -5.57884 1.18836 0
M  V30 491 O 41.961 -5.16911 3.08361 0
M  V30 492 H 45.787 -1.94933 2.32884 0
M  V30 493 H 43.372 -0.907619 1.1867 0
M  V30 494 H 45.254 -4.06924 1.09504 0
M  V30 495 H 43.929 -3.22769 0.245372 0
M  V30 496 H 42.836 -2.76796 2.51664 0
M  V30 497 H 44.169 -3.655 3.29652 0
M  V30 498 N 45.8211 -1.22559 -0.990812 0
M  V30 499 C 46.7841 -0.998863 -2.0629 0
M  V30 500 C 47.7841 0.0354834 -1.60761 0
M  V30 501 O 48.9741 -0.203231 -1.7301 0
M  V30 502 C 46.1061 -0.509203 -3.37076 0
M  V30 503 H 47.2991 -1.95014 -2.27837 0
M  V30 504 H 44.8521 -1.04456 -1.16269 0
M  V30 505 H 45.5871 0.446335 -3.21214 0
M  V30 506 H 45.3721 -1.25547 -3.71457 0
M  V30 507 H 46.8621 -0.370888 -4.1595 0
M  V30 508 N 47.2992 1.18797 -1.03562 0
M  V30 509 C 48.5452 1.89192 -0.746867 0
M  V30 510 C 48.9002 1.78531 0.717245 0
M  V30 511 O 48.1932 1.17137 1.51622 0
M  V30 512 C 48.3872 3.38692 -1.14117 0
M  V30 513 C 48.2162 3.63902 -2.64207 0
M  V30 514 C 46.9862 3.81553 -3.31279 0
M  V30 515 C 49.1842 3.64903 -3.62423 0
M  V30 516 N 47.1662 3.94455 -4.70402 0
M  V30 517 C 48.5372 3.83458 -4.87196 0
M  V30 518 C 50.5922 3.47965 -3.56125 0
M  V30 519 C 49.2952 3.86829 -6.06429 0
M  V30 520 C 51.3212 3.52616 -4.7478 0
M  V30 521 C 50.6832 3.71663 -5.9837 0
M  V30 522 H 46.7822 0.711141 -0.325273 0
M  V30 523 H 49.3662 1.42727 -1.32428 0
M  V30 524 H 47.5372 3.83864 -0.591889 0
M  V30 525 H 49.2692 3.96634 -0.803966 0
M  V30 526 H 46.0242 3.80723 -2.81686 0
M  V30 527 H 46.4482 4.0474 -5.42692 0
M  V30 528 H 51.0902 3.32189 -2.61553 0
M  V30 529 H 48.8082 4.01395 -7.01362 0
M  V30 530 H 52.3942 3.40791 -4.71543 0
M  V30 531 H 51.2742 3.75145 -6.88648 0
M  V30 532 N 48.7773 0.814389 1.34928 0
M  V30 533 C 49.7073 0.244827 2.32213 0
M  V30 534 C 50.6883 -0.634024 1.57842 0
M  V30 535 O 51.8733 -0.562676 1.8587 0
M  V30 536 C 49.0033 -0.601106 3.42058 0
M  V30 537 C 47.9573 0.179896 4.27622 0
M  V30 538 C 47.2833 -0.788237 5.28858 0
M  V30 539 C 48.5833 1.38329 5.03649 0
M  V30 540 H 50.2773 1.05763 2.80097 0
M  V30 541 H 47.8233 0.510029 1.34665 0
M  V30 542 H 49.7763 -1.00968 4.09125 0
M  V30 543 H 48.5003 -1.44688 2.92802 0
M  V30 544 H 47.1593 0.569739 3.62146 0
M  V30 545 H 46.8073 -1.62973 4.75866 0
M  V30 546 H 46.5073 -0.269942 5.8698 0
M  V30 547 H 48.0313 -1.19485 5.98795 0
M  V30 548 H 49.4453 1.04918 5.63618 0
M  V30 549 H 47.8423 1.83662 5.71304 0
M  V30 550 H 48.9123 2.16592 4.33839 0
M  V30 551 N 50.2554 -1.46986 0.568584 0
M  V30 552 C 51.5324 -1.95592 -0.0174074 0
M  V30 553 C 51.9124 -1.51124 -1.47393 0
M  V30 554 O 51.2604 -0.755329 -2.15655 0
M  V30 555 C 51.4704 -3.48719 0.139913 0
M  V30 556 C 52.8184 -4.246 0.000426376 0
M  V30 557 O 53.8424 -3.56135 0.0680316 0
M  V30 558 O 52.7014 -5.46302 -0.146988 0
M  V30 559 H 49.7954 -0.82498 -0.0577599 0
M  V30 560 H 52.3414 -1.57335 0.635909 0
M  V30 561 H 51.1134 -3.73927 1.15301 0
M  V30 562 H 50.7364 -3.93771 -0.550491 0
M  V30 563 N 51.7335 -0.305618 -1.54608 0
M  V30 564 C 53.0105 0.355652 -1.92339 0
M  V30 565 C 53.3905 1.71324 -1.23335 0
M  V30 566 O 52.7385 2.25473 -0.370702 0
M  V30 567 C 52.9485 0.46572 -3.45879 0
M  V30 568 C 54.2965 0.734426 -4.182 0
M  V30 569 O 55.3205 0.54935 -3.51938 0
M  V30 570 O 54.1795 1.09024 -5.35515 0
M  V30 571 H 51.2735 0.199666 -0.802535 0
M  V30 572 H 53.8195 -0.354017 -1.65966 0
M  V30 573 H 52.5915 -0.488461 -3.88239 0
M  V30 574 H 52.2145 1.22367 -3.78301 0
M  V30 575 N 53.2116 1.57565 -0.0334293 0
M  V30 576 C 54.1616 2.06978 0.956237 0
M  V30 577 C 55.1456 0.971193 1.28283 0
M  V30 578 O 56.3376 1.23471 1.26822 0
M  V30 579 C 53.4666 2.60393 2.23719 0
M  V30 580 C 52.5526 3.7719 1.93877 0
M  V30 581 N 52.9436 4.87639 1.34321 0
M  V30 582 C 51.2416 3.85758 2.23845 0
M  V30 583 C 51.9426 5.68825 1.21709 0
M  V30 584 N 50.9186 5.1587 1.71404 0
M  V30 585 H 54.7206 2.89773 0.490815 0
M  V30 586 H 52.2346 1.61492 0.171478 0
M  V30 587 H 54.2316 2.94088 2.95496 0
M  V30 588 H 52.8916 1.79031 2.70884 0
M  V30 589 H 53.9026 5.07803 1.01767 0
M  V30 590 H 50.5796 3.1531 2.73653 0
M  V30 591 H 51.9696 6.67631 0.75621 0
M  V30 592 N 54.6897 -0.239769 1.55765 0
M  V30 593 C 55.9357 -0.963942 1.79108 0
M  V30 594 C 56.2907 -1.82689 0.60352 0
M  V30 595 O 55.5837 -1.87313 -0.403033 0
M  V30 596 C 55.7777 -1.852 3.05672 0
M  V30 597 C 55.6067 -1.07651 4.36625 0
M  V30 598 C 54.3767 -0.778738 4.99263 0
M  V30 599 C 56.5747 -0.45062 5.12322 0
M  V30 600 N 54.5567 0.0200708 6.13897 0
M  V30 601 C 55.9277 0.212429 6.19636 0
M  V30 602 C 57.9827 -0.361806 4.96584 0
M  V30 603 C 56.6857 0.955772 7.12922 0
M  V30 604 C 58.7117 0.368023 5.90254 0
M  V30 605 C 58.0737 1.01968 6.96981 0
M  V30 606 H 54.1727 -0.333601 0.707272 0
M  V30 607 H 56.7567 -0.236425 1.93259 0
M  V30 608 H 54.9277 -2.55149 2.92837 0
M  V30 609 H 56.6597 -2.51228 3.1728 0
M  V30 610 H 53.4147 -1.09229 4.60832 0
M  V30 611 H 53.8387 0.407777 6.75771 0
M  V30 612 H 58.4807 -0.851286 4.14141 0
M  V30 613 H 56.1987 1.45683 7.9486 0
M  V30 614 H 59.7847 0.437504 5.80153 0
M  V30 615 H 58.6647 1.5754 7.68213 0
M  V30 616 N 56.1678 -1.49265 -0.50573 0
M  V30 617 C 57.4448 -1.49012 -1.26707 0
M  V30 618 C 57.8248 -0.215205 -2.1 0
M  V30 619 O 57.1728 0.802547 -2.13943 0
M  V30 620 C 57.3828 -2.7663 -2.12783 0
M  V30 621 C 58.7308 -3.25932 -2.72127 0
M  V30 622 O 59.7548 -2.77715 -2.23054 0
M  V30 623 O 58.6138 -4.09897 -3.61451 0
M  V30 624 H 55.7078 -0.596197 -0.57313 0
M  V30 625 H 58.2538 -1.61524 -0.52039 0
M  V30 626 H 57.0258 -3.60916 -1.5118 0
M  V30 627 H 56.6488 -2.66956 -2.94653 0
M  V30 628 N 57.6459 0.756429 -1.3826 0
M  V30 629 C 58.8929 1.51547 -1.34312 0
M  V30 630 C 59.2209 1.94382 0.0677144 0
M  V30 631 O 58.4759 1.65514 1.04421 0
M  V30 632 C 58.7749 2.78313 -2.24224 0
M  V30 633 C 58.4409 2.54455 -3.72241 0
M  V30 634 C 57.1029 2.47657 -4.12576 0
M  V30 635 C 59.4549 2.3354 -4.65949 0
M  V30 636 C 56.7829 2.17956 -5.44713 0
M  V30 637 C 59.1349 2.05359 -5.9834 0
M  V30 638 C 57.7989 1.97016 -6.37762 0
M  V30 639 H 57.0689 0.55455 -0.491482 0
M  V30 640 H 59.7159 0.870039 -1.70595 0
M  V30 641 H 58.0209 3.47492 -1.80987 0
M  V30 642 H 59.7179 3.36259 -2.18474 0
M  V30 643 H 56.3079 2.60616 -3.40261 0
M  V30 644 H 60.4919 2.37772 -4.35635 0
M  V30 645 H 55.7479 2.10003 -5.74203 0
M  V30 646 H 59.9219 1.88179 -6.70494 0
M  V30 647 H 57.5489 1.73766 -7.40074 0
M  V30 648 N 59.124 1.23083 0.984299 0
M  V30 649 C 60.352 1.08714 1.76037 0
M  V30 650 C 60.767 -0.361691 1.85303 0
M  V30 651 O 60.124 -1.25034 1.32939 0
M  V30 652 C 60.175 1.70206 3.18923 0
M  V30 653 O 59.896 3.09423 3.10144 0
M  V30 654 C 61.397 1.61227 4.12941 0
M  V30 655 H 58.617 0.380664 0.552572 0
M  V30 656 H 61.161 1.62853 1.23689 0
M  V30 657 H 59.316 1.20109 3.6831 0
M  V30 658 H 59.73 3.39188 4.00065 0
M  V30 659 H 61.204 2.08962 5.10919 0
M  V30 660 H 61.681 0.570375 4.35481 0
M  V30 661 H 62.287 2.10671 3.69456 0
M  V30 662 N 60.6021 -1.18246 1.0419 0
M  V30 663 C 61.8491 -1.88257 0.746017 0
M  V30 664 C 62.1771 -1.80429 -0.726331 0
M  V30 665 O 61.4321 -1.2 -1.54591 0
M  V30 666 C 61.7311 -3.38082 1.15911 0
M  V30 667 C 61.3971 -3.66114 2.63195 0
M  V30 668 C 60.0591 -3.73474 3.03432 0
M  V30 669 C 62.4111 -3.78398 3.5842 0
M  V30 670 C 59.7391 -3.90599 4.37778 0
M  V30 671 C 62.0911 -3.97039 4.92487 0
M  V30 672 C 60.7551 -4.02635 5.32392 0
M  V30 673 H 60.0251 -0.688883 0.272987 0
M  V30 674 H 62.6721 -1.3995 1.30715 0
M  V30 675 H 60.9771 -3.88377 0.516806 0
M  V30 676 H 62.6741 -3.90596 0.907516 0
M  V30 677 H 59.2641 -3.61003 2.3103 0
M  V30 678 H 63.4481 -3.72042 3.28479 0
M  V30 679 H 58.7041 -3.93175 4.68213 0
M  V30 680 H 62.8781 -4.05486 5.66175 0
M  V30 681 H 60.5051 -4.15657 6.36501 0
M  V30 682 N 62.0802 -0.821533 -1.34494 0
M  V30 683 C 63.3052 -0.420873 -2.03085 0
M  V30 684 C 63.7302 0.964915 -1.61465 0
M  V30 685 O 63.0882 1.62763 -0.798607 0
M  V30 686 C 63.1362 -0.529414 -3.56693 0
M  V30 687 O 62.2402 0.451302 -4.09923 0
M  V30 688 H 61.5812 -0.173489 -0.640935 0
M  V30 689 H 64.1112 -1.11157 -1.71771 0
M  V30 690 H 64.1212 -0.404671 -4.05988 0
M  V30 691 H 62.7962 -1.54014 -3.86332 0
M  V30 692 H 61.3732 0.285558 -3.71805 0
M  V30 693 N 63.5583 1.46682 -0.576371 0
M  V30 694 C 64.7883 2.06498 -0.0648694 0
M  V30 695 C 65.1963 1.42665 1.24271 0
M  V30 696 O 64.5393 0.523886 1.76071 0
M  V30 697 C 64.6013 3.5904 0.181816 0
M  V30 698 C 64.2653 4.45028 -1.0392 0
M  V30 699 C 65.2623 4.81959 -1.94966 0
M  V30 700 C 62.9473 4.86259 -1.25927 0
M  V30 701 C 64.9413 5.58942 -3.06371 0
M  V30 702 C 62.6283 5.63002 -2.37638 0
M  V30 703 C 63.6263 5.99257 -3.2769 0
M  V30 704 O 63.3143 6.7445 -4.37461 0
M  V30 705 H 63.0463 0.674028 -0.0515987 0
M  V30 706 H 65.6003 1.89393 -0.794951 0
M  V30 707 H 63.8303 3.74429 0.966436 0
M  V30 708 H 65.5193 4.00806 0.641047 0
M  V30 709 H 66.2853 4.50689 -1.79177 0
M  V30 710 H 62.1643 4.57494 -0.567448 0
M  V30 711 H 65.7083 5.87158 -3.76684 0
M  V30 712 H 61.6053 5.93686 -2.53392 0
M  V30 713 H 62.3733 6.92867 -4.35749 0
M  V30 714 N 65.0364 0.313813 1.54444 0
M  V30 715 C 66.2834 -0.291675 2.00388 0
M  V30 716 C 66.6114 -1.52904 1.2021 0
M  V30 717 O 65.8664 -1.93833 0.269707 0
M  V30 718 C 66.1654 -0.680386 3.50864 0
M  V30 719 C 65.8314 0.456699 4.48581 0
M  V30 720 C 64.4934 0.768824 4.75018 0
M  V30 721 C 66.8454 1.22098 5.06697 0
M  V30 722 C 64.1734 1.84812 5.56831 0
M  V30 723 C 66.5254 2.29029 5.89685 0
M  V30 724 C 65.1894 2.60834 6.14428 0
M  V30 725 H 64.4594 -0.106732 0.733273 0
M  V30 726 H 67.1064 0.43557 1.86481 0
M  V30 727 H 65.4114 -1.48791 3.62448 0
M  V30 728 H 67.1084 -1.16026 3.83847 0
M  V30 729 H 63.6984 0.203337 4.28117 0
M  V30 730 H 67.8824 0.993096 4.86263 0
M  V30 731 H 63.1384 2.09912 5.74236 0
M  V30 732 H 67.3124 2.887 6.33739 0
M  V30 733 H 64.9394 3.44596 6.77612 0
M  V30 734 N 66.5145 -1.57545 0.0417849 0
M  V30 735 C 67.7605 -1.92601 -0.635021 0
M  V30 736 C 68.0935 -0.919627 -1.71045 0
M  V30 737 O 67.3685 0.0557892 -1.9442 0
M  V30 738 C 67.6515 -3.38085 -1.23979 0
M  V30 739 C 67.5045 -4.49467 -0.173057 0
M  V30 740 C 68.8235 -3.83776 -2.15416 0
M  V30 741 H 65.9425 -0.700397 -0.229374 0
M  V30 742 H 68.5845 -1.89728 0.101633 0
M  V30 743 H 66.7345 -3.40664 -1.86762 0
M  V30 744 H 68.4065 -4.59018 0.458312 0
M  V30 745 H 66.6495 -4.30909 0.499996 0
M  V30 746 H 67.3205 -5.48323 -0.636054 0
M  V30 747 H 69.7965 -3.83013 -1.62605 0
M  V30 748 H 68.6725 -4.8624 -2.54679 0
M  V30 749 H 68.9335 -3.19998 -3.05047 0
M  V30 750 N 67.9926 0.231505 -1.5589 0
M  V30 751 C 69.4086 0.580748 -1.48659 0
M  V30 752 C 69.6086 1.87617 -0.73498 0
M  V30 753 O 68.6646 2.51046 -0.270586 0
M  V30 754 C 69.9776 0.669202 -2.93159 0
M  V30 755 C 71.5256 0.760499 -3.03621 0
M  V30 756 C 72.0006 0.880383 -4.49459 0
M  V30 757 N 73.4916 0.944861 -4.53461 0
M  V30 758 C 74.2266 1.05716 -5.63571 0
M  V30 759 N 73.7226 1.13403 -6.83456 0
M  V30 760 N 75.5156 1.09152 -5.514 0
M  V30 761 H 67.6666 -0.618695 -2.03189 0
M  V30 762 H 69.9296 -0.215728 -0.923128 0
M  V30 763 H 69.6356 -0.212904 -3.51055 0
M  V30 764 H 69.5096 1.5361 -3.44505 0
M  V30 765 H 71.8966 1.63305 -2.45796 0
M  V30 766 H 71.9776 -0.131864 -2.5546 0
M  V30 767 H 71.6216 0.0123284 -5.07899 0
M  V30 768 H 71.5516 1.78802 -4.95316 0
M  V30 769 H 74.0426 0.896176 -3.6712 0
M  V30 770 H 74.3556 1.21921 -7.63122 0
M  V30 771 H 72.7006 1.10333 -6.86186 0
M  V30 772 H 75.8916 1.02805 -4.56671 0
M  V30 773 H 76.0646 1.17558 -6.37247 0
M  V30 774 N 69.4707 1.49531 0.497807 0
M  V30 775 C 70.4177 1.66436 1.59899 0
M  V30 776 C 71.3877 0.505793 1.58212 0
M  V30 777 O 72.5727 0.733202 1.7615 0
M  V30 778 C 69.7127 1.7399 2.98029 0
M  V30 779 C 68.8257 3.01172 3.09708 0
M  V30 780 C 67.9607 2.99686 4.38591 0
M  V30 781 C 66.9997 4.21434 4.43914 0
M  V30 782 N 66.1367 4.1784 5.64229 0
M  V30 783 H 70.9767 2.60459 1.44793 0
M  V30 784 H 68.5137 1.29137 0.704423 0
M  V30 785 H 70.4717 1.76352 3.78095 0
M  V30 786 H 69.1017 0.834301 3.11832 0
M  V30 787 H 68.1537 3.08408 2.22685 0
M  V30 788 H 69.4657 3.91165 3.09502 0
M  V30 789 H 68.6197 3.00628 5.2698 0
M  V30 790 H 67.3587 2.07477 4.41367 0
M  V30 791 H 66.3637 4.20733 3.53926 0
M  V30 792 H 67.5887 5.14839 4.42851 0
M  V30 793 H 65.5347 3.28469 5.67841 0
M  V30 794 H 65.4517 5.01571 5.65652 0
M  V30 795 H 66.7197 4.22889 6.54817 0
M  V30 796 N 70.9488 -0.749086 1.3866 0
M  V30 797 C 71.9118 -1.84457 1.36045 0
M  V30 798 C 72.9118 -1.58682 0.260122 0
M  V30 799 O 74.1018 -1.66343 0.517261 0
M  V30 800 C 71.2338 -3.22008 1.11911 0
M  V30 801 H 72.4268 -1.88182 2.33512 0
M  V30 802 H 69.9798 -0.951266 1.24019 0
M  V30 803 H 70.7148 -3.2395 0.150686 0
M  V30 804 H 70.4998 -3.42111 1.91579 0
M  V30 805 H 71.9898 -4.0208 1.12788 0
M  V30 806 N 72.4269 -1.23603 -0.977757 0
M  V30 807 C 73.6549 -1.09646 -1.75458 0
M  V30 808 C 74.0699 0.351859 -1.85492 0
M  V30 809 O 73.4269 1.24327 -1.336 0
M  V30 810 C 73.4779 -1.71895 -3.18016 0
M  V30 811 O 73.1989 -3.11063 -3.08498 0
M  V30 812 C 74.6999 -1.63415 -4.12081 0
M  V30 813 H 71.9199 -0.38359 -0.550545 0
M  V30 814 H 74.4639 -1.63507 -1.22824 0
M  V30 815 H 72.6189 -1.22061 -3.67668 0
M  V30 816 H 73.0329 -3.41305 -3.9826 0
M  V30 817 H 74.5069 -2.11669 -5.09804 0
M  V30 818 H 74.9839 -0.593462 -4.35172 0
M  V30 819 H 75.5899 -2.12628 -3.68334 0
M  V30 820 N 73.905 1.17692 -1.04816 0
M  V30 821 C 75.321 1.39863 -0.768794 0
M  V30 822 C 75.521 1.91118 0.638451 0
M  V30 823 O 74.577 2.10036 1.40146 0
M  V30 824 C 75.89 2.39274 -1.82122 0
M  V30 825 C 77.438 2.52987 -1.843 0
M  V30 826 C 77.913 3.55669 -2.88555 0
M  V30 827 N 79.404 3.63183 -2.87493 0
M  V30 828 C 80.139 4.42381 -3.64811 0
M  V30 829 N 79.635 5.25125 -4.51903 0
M  V30 830 N 81.428 4.37217 -3.53267 0
M  V30 831 H 73.579 0.82752 -1.95617 0
M  V30 832 H 75.842 0.426123 -0.846831 0
M  V30 833 H 75.548 2.08678 -2.83102 0
M  V30 834 H 75.422 3.38725 -1.65967 0
M  V30 835 H 77.809 2.82896 -0.839869 0
M  V30 836 H 77.89 1.53623 -2.04532 0
M  V30 837 H 77.534 3.26499 -3.89051 0
M  V30 838 H 77.464 4.54728 -2.65575 0
M  V30 839 H 79.955 3.04103 -2.24343 0
M  V30 840 H 80.268 5.82728 -5.07591 0
M  V30 841 H 78.613 5.24519 -4.55966 0
M  V30 842 H 81.804 3.71626 -2.84625 0
M  V30 843 H 81.977 4.98696 -4.13771 0
M  V30 844 N 75.3831 0.828654 1.34056 0
M  V30 845 C 76.2931 0.256725 2.33191 0
M  V30 846 C 77.3091 -0.611898 1.62886 0
M  V30 847 O 78.4851 -0.51844 1.94613 0
M  V30 848 C 75.5501 -0.567238 3.42028 0
M  V30 849 C 74.6111 0.324458 4.28072 0
M  V30 850 C 73.8441 -0.460274 5.31712 0
M  V30 851 O 74.0671 -1.693 5.44696 0
M  V30 852 O 73.0011 0.160391 6.01686 0
M  V30 853 H 76.8271 1.07739 2.83947 0
M  V30 854 H 74.4121 0.59093 1.37217 0
M  V30 855 H 76.2941 -1.03582 4.08471 0
M  V30 856 H 74.9691 -1.36513 2.93506 0
M  V30 857 H 73.8761 0.840659 3.64532 0
M  V30 858 H 75.2091 1.08685 4.8005 0
M  V30 859 N 76.8612 -1.46375 0.584142 0
M  V30 860 C 77.7942 -2.27351 -0.196676 0
M  V30 861 C 78.7722 -1.35715 -0.895561 0
M  V30 862 O 79.9562 -1.65126 -0.90916 0
M  V30 863 C 77.0832 -3.13486 -1.28235 0
M  V30 864 C 76.1292 -4.20896 -0.689145 0
M  V30 865 S 76.9622 -5.33299 0.48507 0
M  V30 866 C 78.1182 -6.23 -0.601767 0
M  V30 867 H 78.3512 -2.93228 0.490395 0
M  V30 868 H 75.8842 -1.49875 0.371071 0
M  V30 869 H 77.8422 -3.63676 -1.90395 0
M  V30 870 H 76.5032 -2.4692 -1.94138 0
M  V30 871 H 75.6962 -4.80997 -1.50527 0
M  V30 872 H 75.2982 -3.73726 -0.143181 0
M  V30 873 H 77.5902 -6.60979 -1.48705 0
M  V30 874 H 78.5332 -7.0809 -0.0374799 0
M  V30 875 H 78.9412 -5.57173 -0.906557 0
M  V30 876 N 78.3393 -0.321999 -1.54275 0
M  V30 877 C 79.5853 0.281461 -2.00837 0
M  V30 878 C 79.9183 1.51909 -1.20985 0
M  V30 879 O 79.1933 1.923 -0.291733 0
M  V30 880 C 79.4763 0.617162 -3.54772 0
M  V30 881 C 79.3293 -0.631064 -4.45351 0
M  V30 882 C 80.6483 1.43542 -4.16033 0
M  V30 883 H 77.7673 0.100826 -0.730071 0
M  V30 884 H 80.4093 -0.438268 -1.84876 0
M  V30 885 H 78.5593 1.23034 -3.68504 0
M  V30 886 H 80.2313 -1.26934 -4.43492 0
M  V30 887 H 78.4743 -1.26025 -4.15091 0
M  V30 888 H 79.1453 -0.351735 -5.50878 0
M  V30 889 H 81.6213 0.917134 -4.05867 0
M  V30 890 H 80.4973 1.63907 -5.23856 0
M  V30 891 H 80.7583 2.43108 -3.69257 0
M  V30 892 N 79.8174 1.5752 -0.0501392 0
M  V30 893 C 80.7654 2.12651 0.942459 0
M  V30 894 C 81.7594 1.05807 1.32292 0
M  V30 895 O 82.9654 1.24217 1.3027 0
M  V30 896 H 79.3404 0.679673 0.321789 0
M  V30 897 H 81.3114 2.94951 0.452356 0
M  V30 898 C 80.0604 2.68565 2.20836 0
M  V30 899 H 79.3834 3.50439 1.92439 0
M  V30 900 H 80.8234 3.10761 2.8845 0
M  V30 901 C 79.2824 1.62291 2.95234 0
M  V30 902 O 79.8124 1.03508 3.88135 0
M  V30 903 N 78.0184 1.33836 2.57946 0
M  V30 904 H 77.5654 1.81826 1.82475 0
M  V30 905 H 77.5234 0.629595 3.08032 0
M  V30 906 N 81.2955 -0.223234 1.56011 0
M  V30 907 C 82.2585 -1.26014 1.9145 0
M  V30 908 C 83.2585 -1.3989 0.792937 0
M  V30 909 O 84.4485 -1.38184 1.0607 0
M  V30 910 C 81.5805 -2.63422 2.16383 0
M  V30 911 H 82.7735 -0.95796 2.84189 0
M  V30 912 H 80.3265 -0.463576 1.49267 0
M  V30 913 H 81.0615 -2.98741 1.2619 0
M  V30 914 H 80.8465 -2.54728 2.98088 0
M  V30 915 H 82.3365 -3.38249 2.44903 0
M  V30 916 N 82.7736 -1.49793 -0.48987 0
M  V30 917 C 84.0196 -1.61049 -1.24236 0
M  V30 918 C 84.3746 -0.298412 -1.90072 0
M  V30 919 O 83.6676 0.702262 -1.78266 0
M  V30 920 C 83.8616 -2.71488 -2.32441 0
M  V30 921 C 83.6906 -4.13308 -1.77218 0
M  V30 922 C 82.4606 -4.79955 -1.58023 0
M  V30 923 C 84.6586 -4.98176 -1.27772 0
M  V30 924 N 82.6406 -6.06052 -0.978465 0
M  V30 925 C 84.0116 -6.14843 -0.798 0
M  V30 926 C 86.0666 -4.84091 -1.16449 0
M  V30 927 C 84.7696 -7.18975 -0.216245 0
M  V30 928 C 86.7956 -5.88382 -0.596698 0
M  V30 929 C 86.1576 -7.04285 -0.127262 0
M  V30 930 H 82.2566 -0.643611 -0.444172 0
M  V30 931 H 84.8406 -1.86842 -0.54754 0
M  V30 932 H 83.0116 -2.47449 -2.99372 0
M  V30 933 H 84.7436 -2.72205 -2.99477 0
M  V30 934 H 81.4986 -4.36936 -1.82712 0
M  V30 935 H 81.9226 -6.73407 -0.696534 0
M  V30 936 H 86.5646 -3.94786 -1.5134 0
M  V30 937 H 84.2826 -8.0797 0.144903 0
M  V30 938 H 87.8686 -5.79545 -0.511716 0
M  V30 939 H 86.7486 -7.83606 0.30523 0
M  V30 940 N 84.2517 0.741722 -1.39055 0
M  V30 941 C 85.4987 1.50114 -1.35912 0
M  V30 942 C 85.8267 1.94443 0.0470937 0
M  V30 943 O 85.0817 1.66612 1.02659 0
M  V30 944 C 85.3807 2.7592 -2.27163 0
M  V30 945 C 85.0467 2.50493 -3.74919 0
M  V30 946 C 83.7087 2.43267 -4.1518 0
M  V30 947 C 86.0607 2.28585 -4.684 0
M  V30 948 C 83.3887 2.12166 -5.46994 0
M  V30 949 C 85.7407 1.99002 -6.00484 0
M  V30 950 C 84.4047 1.90241 -6.39816 0
M  V30 951 H 83.6747 0.549306 -0.497336 0
M  V30 952 H 86.3217 0.851896 -1.71508 0
M  V30 953 H 84.6267 3.45553 -1.84663 0
M  V30 954 H 86.3237 3.33923 -2.22028 0
M  V30 955 H 82.9137 2.56992 -3.43006 0
M  V30 956 H 87.0977 2.33139 -4.38132 0
M  V30 957 H 82.3537 2.03901 -5.76398 0
M  V30 958 H 86.5277 1.81057 -6.72452 0
M  V30 959 H 84.1547 1.65907 -7.41875 0
M  V30 960 N 85.7298 1.2412 0.971189 0
M  V30 961 C 86.6928 1.03156 2.04674 0
M  V30 962 C 87.6928 -0.00990322 1.60797 0
M  V30 963 O 88.8828 0.230729 1.72665 0
M  V30 964 C 86.0148 0.562765 3.36223 0
M  V30 965 H 87.2078 1.98614 2.24705 0
M  V30 966 H 84.7608 1.06293 1.14593 0
M  V30 967 H 85.4958 -0.395176 3.21883 0
M  V30 968 H 85.2808 1.31441 3.69413 0
M  V30 969 H 86.7708 0.437015 4.15307 0
M  V30 970 N 87.2079 -1.17134 1.05439 0
M  V30 971 C 88.1179 -2.24878 0.668365 0
M  V30 972 C 89.1339 -1.71186 -0.311687 0
M  V30 973 O 90.3099 -2.00738 -0.163161 0
M  V30 974 C 87.3749 -3.46662 0.051648 0
M  V30 975 C 86.4359 -4.15429 1.08246 0
M  V30 976 C 85.6689 -5.31399 0.495082 0
M  V30 977 O 85.8919 -5.66153 -0.694743 0
M  V30 978 O 84.8259 -5.89187 1.23056 0
M  V30 979 H 88.6519 -2.60189 1.56637 0
M  V30 980 H 86.2369 -1.24482 0.826104 0
M  V30 981 H 88.1189 -4.20394 -0.290966 0
M  V30 982 H 86.7939 -3.13142 -0.819971 0
M  V30 983 H 85.7009 -3.43704 1.47711 0
M  V30 984 H 87.0339 -4.52982 1.92532 0
M  V30 985 N 88.686 -0.835752 -1.33615 0
M  V30 986 C 90.102 -0.523139 -1.50783 0
M  V30 987 C 90.302 0.950171 -1.77691 0
M  V30 988 O 89.358 1.73411 -1.83534 0
M  V30 989 C 90.671 -1.39378 -2.66448 0
M  V30 990 C 92.219 -1.39223 -2.80332 0
M  V30 991 C 92.694 -2.24765 -3.99055 0
M  V30 992 N 94.185 -2.22458 -4.06284 0
M  V30 993 C 94.92 -2.85386 -4.97336 0
M  V30 994 N 94.416 -3.57354 -5.93523 0
M  V30 995 N 96.209 -2.74872 -4.90308 0
M  V30 996 H 88.36 -1.78952 -1.14411 0
M  V30 997 H 90.623 -0.763297 -0.562212 0
M  V30 998 H 90.329 -2.44061 -2.53234 0
M  V30 999 H 90.203 -1.0676 -3.61776 0
M  V30 1000 H 92.59 -0.353136 -2.92979 0
M  V30 1001 H 92.671 -1.75846 -1.85773 0
M  V30 1002 H 92.315 -3.28732 -3.87167 0
M  V30 1003 H 92.245 -1.85485 -4.92852 0
M  V30 1004 H 94.736 -1.70119 -3.37443 0
M  V30 1005 H 95.049 -4.02584 -6.59656 0
M  V30 1006 H 93.394 -3.61461 -5.93608 0
M  V30 1007 H 96.585 -2.18213 -4.14126 0
M  V30 1008 H 96.758 -3.24199 -5.61069 0
M  V30 1009 N 90.1641 1.46063 -0.591896 0
M  V30 1010 C 91.4101 2.02638 -0.0811191 0
M  V30 1011 C 91.7431 1.4613 1.27905 0
M  V30 1012 O 91.0181 0.629908 1.84017 0
M  V30 1013 C 91.3011 3.60091 -0.0252436 0
M  V30 1014 C 91.1541 4.26965 -1.41496 0
M  V30 1015 C 92.4731 4.3496 0.670685 0
M  V30 1016 H 89.5921 0.73635 -0.0309524 0
M  V30 1017 H 92.2341 1.741 -0.760859 0
M  V30 1018 H 90.3841 3.84535 0.553624 0
M  V30 1019 H 92.0561 4.13756 -2.0397 0
M  V30 1020 H 90.2991 3.85971 -1.98011 0
M  V30 1021 H 90.9701 5.35781 -1.32825 0
M  V30 1022 H 93.4461 4.15716 0.178825 0
M  V30 1023 H 92.3221 5.44686 0.678837 0
M  V30 1024 H 92.5831 4.06685 1.73379 0
M  V30 1025 N 91.6422 0.330177 1.54103 0
M  V30 1026 C 92.5922 -0.548456 2.21305 0
M  V30 1027 C 93.5762 -1.07651 1.19583 0
M  V30 1028 O 94.7682 -1.01243 1.45186 0
M  V30 1029 C 91.8972 -1.70559 2.97934 0
M  V30 1030 C 90.9832 -1.19212 4.07 0
M  V30 1031 N 91.3742 -0.398831 5.04225 0
M  V30 1032 C 89.6722 -1.47024 4.2107 0
M  V30 1033 C 90.3732 -0.121761 5.81573 0
M  V30 1034 N 89.3492 -0.709722 5.38947 0
M  V30 1035 H 93.1512 0.0648483 2.93828 0
M  V30 1036 H 90.6652 0.136363 1.61826 0
M  V30 1037 H 92.6622 -2.34688 3.44568 0
M  V30 1038 H 91.3222 -2.32231 2.26934 0
M  V30 1039 H 92.3332 -0.0410869 5.17884 0
M  V30 1040 H 89.0102 -2.09232 3.61287 0
M  V30 1041 H 90.4002 0.517298 6.69906 0
M  V30 1042 N 93.1203 -1.57491 0.0584922 0
M  V30 1043 C 94.3483 -1.97296 -0.623037 0
M  V30 1044 C 94.7633 -0.936338 -1.63946 0
M  V30 1045 O 94.1203 0.0785981 -1.82331 0
M  V30 1046 C 94.1713 -3.37183 -1.30345 0
M  V30 1047 O 93.8923 -4.36872 -0.32773 0
M  V30 1048 C 95.3933 -3.91788 -2.07406 0
M  V30 1049 H 92.6133 -0.649153 -0.169826 0
M  V30 1050 H 95.1573 -2.04106 0.12696 0
M  V30 1051 H 93.3123 -3.31502 -2.00463 0
M  V30 1052 H 93.7263 -5.18141 -0.814269 0
M  V30 1053 H 95.2003 -4.91926 -2.50425 0
M  V30 1054 H 95.6773 -3.27609 -2.92521 0
M  V30 1055 H 96.2833 -4.00829 -1.42184 0
M  V30 1056 N 94.5984 0.214957 -1.56127 0
M  V30 1057 C 95.8474 0.936451 -1.78643 0
M  V30 1058 C 96.1604 1.85237 -0.628229 0
M  V30 1059 O 97.3664 2.613 -0.737186 0
M  V30 1060 C 95.8224 1.7154 -3.16389 0
M  V30 1061 C 95.4304 0.845299 -4.39953 0
M  V30 1062 C 97.1744 2.42772 -3.48227 0
M  V30 1063 C 95.0814 1.62198 -5.68723 0
M  V30 1064 H 94.0114 0.353401 -0.666051 0
M  V30 1065 H 96.6624 0.190169 -1.82512 0
M  V30 1066 H 95.0444 2.50484 -3.06715 0
M  V30 1067 H 96.2184 0.0959353 -4.607 0
M  V30 1068 H 94.5334 0.244789 -4.1568 0
M  V30 1069 H 97.1304 3.01394 -4.41663 0
M  V30 1070 H 97.4734 3.15984 -2.71035 0
M  V30 1071 H 98.0064 1.70813 -3.5926 0
M  V30 1072 H 94.7454 0.933011 -6.48826 0
M  V30 1073 H 94.2654 2.34579 -5.52026 0
M  V30 1074 H 95.9444 2.18095 -6.09133 0
M  V30 1075 N 96.0765 1.50051 0.48192 0
M  V30 1076 C 97.4875 1.5348 1.06305 0
M  V30 1077 C 97.8385 0.331997 1.93371 0
M  V30 1078 O 96.9635 -0.556256 2.09129 0
M  V30 1079 C 97.5585 2.7813 1.93466 0
M  V30 1080 C 96.1175 2.84275 2.46707 0
M  V30 1081 C 95.2645 2.47637 1.24785 0
M  V30 1082 H 98.2155 1.56472 0.264995 0
M  V30 1083 H 98.2365 2.59372 2.78399 0
M  V30 1084 H 97.7485 3.65654 1.30072 0
M  V30 1085 H 95.8495 2.01077 3.13686 0
M  V30 1086 H 95.9625 3.8691 2.82555 0
M  V30 1087 H 94.3265 1.99835 1.57918 0
M  V30 1088 H 95.1095 3.37457 0.630694 0
M  V30 1089 N 97.5546 -0.734337 1.39446 0
M  V30 1090 C 98.8006 -1.49613 1.36908 0
M  V30 1091 C 99.1336 -1.94169 -0.0347829 0
M  V30 1092 O 98.4086 -1.66833 -0.999847 0
M  V30 1093 C 98.6916 -2.73534 2.34203 0
M  V30 1094 C 98.5446 -2.34993 3.83534 0
M  V30 1095 C 99.8636 -3.75635 2.29317 0
M  V30 1096 H 96.9826 -0.542714 0.498629 0
M  V30 1097 H 99.6246 -0.839597 1.70443 0
M  V30 1098 H 97.7746 -3.29553 2.05736 0
M  V30 1099 H 99.4466 -1.84601 4.22753 0
M  V30 1100 H 97.6896 -1.67213 4.00278 0
M  V30 1101 H 98.3606 -3.23738 4.47099 0
M  V30 1102 H 100.837 -3.29203 2.54489 0
M  V30 1103 H 99.7126 -4.60008 2.99472 0
M  V30 1104 H 99.9736 -4.22603 1.29842 0
M  V30 1105 N 99.0327 -1.24633 -0.964593 0
M  V30 1106 C 100.273 -1.09981 -1.72289 0
M  V30 1107 C 100.637 0.354792 -1.88693 0
M  V30 1108 O 101.838 0.62289 -2.61483 0
M  V30 1109 C 100.109 -1.82262 -3.07434 0
M  V30 1110 S 101.668 -1.83379 -3.98645 0
M  V30 1111 H 98.4857 -0.393292 -0.59232 0
M  V30 1112 H 101.088 -1.58009 -1.15123 0
M  V30 1113 H 99.7917 -2.87206 -2.93157 0
M  V30 1114 H 99.3227 -1.3458 -3.69664 0
M  V30 1115 H 101.338 -0.903691 -4.87901 0
M  V30 1116 N 100.511 1.16574 -1.06058 0
M  V30 1117 C 101.458 2.20883 -0.669263 0
M  V30 1118 C 102.428 1.62729 0.332918 0
M  V30 1119 O 103.613 1.895 0.222346 0
M  V30 1120 C 100.753 3.45049 -0.0593572 0
M  V30 1121 C 99.8658 4.17458 -1.11143 0
M  V30 1122 C 99.0008 5.29135 -0.467916 0
M  V30 1123 C 98.0398 5.93343 -1.50369 0
M  V30 1124 N 97.1768 6.96516 -0.883706 0
M  V30 1125 H 102.017 2.53709 -1.5632 0
M  V30 1126 H 99.5538 1.24616 -0.781625 0
M  V30 1127 H 101.512 4.16033 0.311771 0
M  V30 1128 H 100.142 3.12781 0.797992 0
M  V30 1129 H 99.1938 3.45101 -1.60029 0
M  V30 1130 H 100.506 4.61307 -1.89731 0
M  V30 1131 H 99.6598 6.06684 -0.0436871 0
M  V30 1132 H 98.3988 4.86443 0.349864 0
M  V30 1133 H 97.4038 5.14517 -1.93784 0
M  V30 1134 H 98.6288 6.38114 -2.32352 0
M  V30 1135 H 96.5748 6.55943 -0.086595 0
M  V30 1136 H 96.4918 7.38723 -1.607 0
M  V30 1137 H 97.7598 7.77993 -0.484543 0
M  V30 1138 N 101.989 0.842826 1.3317 0
M  V30 1139 C 102.899 0.281444 2.32906 0
M  V30 1140 C 103.915 -0.594587 1.63526 0
M  V30 1141 O 105.091 -0.49777 1.95152 0
M  V30 1142 C 102.156 -0.530929 3.42611 0
M  V30 1143 C 101.217 0.369843 4.27704 0
M  V30 1144 C 100.45 -0.403853 5.3217 0
M  V30 1145 O 100.673 -1.63513 5.46461 0
M  V30 1146 O 99.6069 0.224199 6.01482 0
M  V30 1147 H 103.433 1.10744 2.82789 0
M  V30 1148 H 101.018 0.60545 1.36582 0
M  V30 1149 H 102.9 -0.992437 4.09547 0
M  V30 1150 H 101.575 -1.33392 2.94938 0
M  V30 1151 H 100.482 0.879275 3.6362 0
M  V30 1152 H 101.815 1.13771 4.78871 0
M  V30 1153 N 103.467 -1.45747 0.599634 0
M  V30 1154 C 104.715 -2.01893 0.0915472 0
M  V30 1155 C 105.036 -1.47155 -1.27946 0
M  V30 1156 O 104.306 -0.66273 -1.84349 0
M  V30 1157 H 102.886 -0.746363 0.0308524 0
M  V30 1158 H 105.548 -1.78645 0.779237 0
M  V30 1159 H 104.644 -3.1208 0.0353086 0
M  V30 1160 N 104.945 -0.338344 -1.53925 0
M  V30 1161 C 106.194 0.260732 -2.00008 0
M  V30 1162 C 106.507 1.52073 -1.23017 0
M  V30 1163 O 107.713 2.19672 -1.5955 0
M  V30 1164 C 106.169 0.51515 -3.56194 0
M  V30 1165 C 105.777 -0.728645 -4.42035 0
M  V30 1166 C 107.521 1.07337 -4.10706 0
M  V30 1167 C 105.428 -0.445315 -5.89721 0
M  V30 1168 H 104.358 0.101205 -0.747177 0
M  V30 1169 H 107.009 -0.452866 -1.77824 0
M  V30 1170 H 105.391 1.28932 -3.74423 0
M  V30 1171 H 106.565 -1.50352 -4.35581 0
M  V30 1172 H 104.88 -1.20813 -3.98489 0
M  V30 1173 H 107.477 1.30022 -5.18651 0
M  V30 1174 H 107.82 2.0273 -3.63602 0
M  V30 1175 H 108.353 0.360034 -3.96167 0
M  V30 1176 H 105.092 -1.36883 -6.41049 0
M  V30 1177 H 104.612 0.291569 -5.99091 0
M  V30 1178 H 106.291 -0.0606218 -6.46972 0
M  V30 1179 N 106.423 1.57458 -0.0668435 0
M  V30 1180 C 107.839 1.56947 0.289772 0
M  V30 1181 C 108.039 1.07584 1.70376 0
M  V30 1182 O 107.095 0.739486 2.41429 0
M  V30 1183 C 108.408 3.0052 0.103943 0
M  V30 1184 C 109.956 3.12517 0.173857 0
M  V30 1185 C 110.431 4.57997 0.0163682 0
M  V30 1186 N 111.922 4.63144 0.0721352 0
M  V30 1187 C 112.657 5.73394 -0.0253794 0
M  V30 1188 N 112.153 6.92576 -0.176133 0
M  V30 1189 N 113.946 5.62091 0.0313305 0
M  V30 1190 H 106.097 1.87863 -0.991027 0
M  V30 1191 H 108.36 0.86583 -0.38606 0
M  V30 1192 H 108.066 3.40729 -0.871572 0
M  V30 1193 H 107.94 3.67304 0.858366 0
M  V30 1194 H 110.327 2.72197 1.13985 0
M  V30 1195 H 110.408 2.48381 -0.611586 0
M  V30 1196 H 110.052 4.99005 -0.946374 0
M  V30 1197 H 109.982 5.20158 0.821153 0
M  V30 1198 H 112.473 3.77436 0.187263 0
M  V30 1199 H 112.786 7.72418 -0.242821 0
M  V30 1200 H 111.131 6.94678 -0.211429 0
M  V30 1201 H 114.322 4.67867 0.147773 0
M  V30 1202 H 114.495 6.47982 -0.048121 0
M  V30 1203 N 107.901 -0.206675 1.56239 0
M  V30 1204 C 109.149 -0.927007 1.79586 0
M  V30 1205 C 109.47 -1.8427 0.637929 0
M  V30 1206 O 108.74 -1.92849 -0.344398 0
M  V30 1207 H 107.32 -0.345292 0.662407 0
M  V30 1208 H 109.982 -0.21496 1.93711 0
M  V30 1209 H 109.078 -1.52501 2.72305 0
M  V30 1210 N 109.379 -1.50304 -0.473955 0
M  V30 1211 C 110.329 -1.65347 -1.56985 0
M  V30 1212 C 111.313 -0.508176 -1.52664 0
M  V30 1213 O 112.505 -0.762446 -1.59737 0
M  V30 1214 C 109.634 -1.74832 -2.95447 0
M  V30 1215 C 108.72 -2.95028 -3.04662 0
M  V30 1216 N 109.111 -4.18747 -2.83698 0
M  V30 1217 C 107.409 -2.93527 -3.35795 0
M  V30 1218 C 108.11 -4.99687 -2.97805 0
M  V30 1219 N 107.086 -4.33585 -3.2788 0
M  V30 1220 H 110.888 -2.58698 -1.39472 0
M  V30 1221 H 108.402 -1.47449 -0.680629 0
M  V30 1222 H 110.399 -1.83712 -3.7424 0
M  V30 1223 H 109.059 -0.826376 -3.14008 0
M  V30 1224 H 110.07 -4.48291 -2.59337 0
M  V30 1225 H 106.747 -2.10821 -3.60362 0
M  V30 1226 H 108.137 -6.08057 -2.85861 0
M  V30 1227 N 110.857 0.726932 -1.39834 0
M  V30 1228 C 112.085 1.51613 -1.40787 0
M  V30 1229 C 112.5 1.88799 -0.00451505 0
M  V30 1230 O 111.857 1.54662 0.968809 0
M  V30 1231 C 111.908 2.79863 -2.28821 0
M  V30 1232 O 111.629 2.44253 -3.63692 0
M  V30 1233 C 113.13 3.73837 -2.38245 0
M  V30 1234 H 110.35 0.468264 -0.480593 0
M  V30 1235 H 112.894 0.897607 -1.83748 0
M  V30 1236 H 111.049 3.38027 -1.89252 0
M  V30 1237 H 111.463 3.26695 -4.1033 0
M  V30 1238 H 112.937 4.60699 -3.04073 0
M  V30 1239 H 113.414 4.16153 -1.40403 0
M  V30 1240 H 114.02 3.21589 -2.78317 0
M  V30 1241 N 112.336 1.25143 0.95797 0
M  V30 1242 C 113.246 1.06968 2.08794 0
M  V30 1243 C 114.262 0.00773911 1.73998 0
M  V30 1244 O 115.438 0.207972 2.00323 0
M  V30 1245 C 112.503 0.68691 3.39827 0
M  V30 1246 C 111.564 1.82641 3.88511 0
M  V30 1247 C 110.797 1.46181 5.1329 0
M  V30 1248 O 111.02 0.355971 5.69288 0
M  V30 1249 O 109.954 2.29085 5.566 0
M  V30 1250 H 113.78 2.01723 2.27027 0
M  V30 1251 H 111.365 1.04051 1.07209 0
M  V30 1252 H 113.247 0.485417 4.18595 0
M  V30 1253 H 111.922 -0.231417 3.22872 0
M  V30 1254 H 110.829 2.08274 3.10762 0
M  V30 1255 H 112.162 2.72386 4.09959 0
M  V30 1256 N 113.814 -1.1601 1.06675 0
M  V30 1257 C 115.039 -1.91068 0.806706 0
M  V30 1258 C 115.464 -1.77112 -0.633485 0
M  V30 1259 O 114.822 -1.09908 -1.44187 0
M  V30 1260 C 114.87 -3.39655 1.21106 0
M  V30 1261 O 113.974 -4.10893 0.352189 0
M  V30 1262 H 113.315 -0.595125 0.294486 0
M  V30 1263 H 115.845 -1.46955 1.42356 0
M  V30 1264 H 115.855 -3.90434 1.18428 0
M  V30 1265 H 114.53 -3.49132 2.26008 0
M  V30 1266 H 113.107 -3.70285 0.440868 0
M  V30 1267 N 115.292 -0.849877 -1.32721 0
M  V30 1268 C 116.532 -0.457146 -1.99222 0
M  V30 1269 C 116.896 0.968038 -1.6581 0
M  V30 1270 O 118.097 1.46507 -2.25364 0
M  V30 1271 C 116.368 -0.683966 -3.50794 0
M  V30 1272 S 117.927 -0.388095 -4.3708 0
M  V30 1273 H 114.745 -0.171464 -0.690015 0
M  V30 1274 H 117.347 -1.10155 -1.61512 0
M  V30 1275 H 116.051 -1.72038 -3.726 0
M  V30 1276 H 115.582 -0.0258086 -3.93392 0
M  V30 1277 H 117.597 0.787791 -4.89906 0
M  V30 1278 N 116.77 1.45427 -0.607355 0
M  V30 1279 C 117.995 2.07124 -0.107006 0
M  V30 1280 C 118.42 1.44906 1.19933 0
M  V30 1281 O 117.778 0.541687 1.73019 0
M  V30 1282 C 117.826 3.60595 0.0194119 0
M  V30 1283 O 116.93 3.98285 1.0697 0
M  V30 1284 H 116.271 0.659868 -0.0739597 0
M  V30 1285 H 118.801 1.86683 -0.837297 0
M  V30 1286 H 118.811 4.07419 0.2177 0
M  V30 1287 H 117.486 4.05266 -0.934453 0
M  V30 1288 H 116.063 3.63133 0.847889 0
M  V30 1289 N 118.248 0.346503 1.53744 0
M  V30 1290 C 119.488 -0.249413 2.02873 0
M  V30 1291 C 119.852 -1.47532 1.22876 0
M  V30 1292 O 121.053 -2.1456 1.61918 0
M  V30 1293 C 119.324 -0.552909 3.53097 0
M  V30 1294 S 120.883 -1.12521 4.24128 0
M  V30 1295 H 117.701 -0.074042 0.707134 0
M  V30 1296 H 120.303 0.48495 1.8939 0
M  V30 1297 H 119.007 0.347083 4.0893 0
M  V30 1298 H 118.538 -1.31686 3.70705 0
M  V30 1299 H 120.553 -2.41075 4.33702 0
M  V30 1300 N 119.726 -1.57421 0.075193 0
M  V30 1301 C 121.137 -1.81021 -0.456964 0
M  V30 1302 C 121.488 -0.98936 -1.69429 0
M  V30 1303 O 120.613 -0.212865 -2.15351 0
M  V30 1304 C 121.208 -3.28329 -0.83581 0
M  V30 1305 C 119.767 -3.52764 -1.31281 0
M  V30 1306 C 118.914 -2.75676 -0.299648 0
M  V30 1307 H 121.865 -1.55822 0.300856 0
M  V30 1308 H 121.886 -3.40564 -1.69696 0
M  V30 1309 H 121.398 -3.88046 0.0649238 0
M  V30 1310 H 119.499 -2.98355 -2.23193 0
M  V30 1311 H 119.612 -4.61451 -1.28839 0
M  V30 1312 H 117.976 -2.42538 -0.777641 0
M  V30 1313 H 118.759 -3.38132 0.593417 0
M  V30 1314 N 121.204 0.198386 -1.56346 0
M  V30 1315 C 122.134 1.24865 -1.9731 0
M  V30 1316 C 123.115 1.47651 -0.844576 0
M  V30 1317 O 124.3 1.59444 -1.10866 0
M  V30 1318 C 121.43 2.59358 -2.30977 0
M  V30 1319 C 120.384 2.5119 -3.46537 0
M  V30 1320 C 119.71 3.89926 -3.65871 0
M  V30 1321 C 121.01 2.03977 -4.80823 0
M  V30 1322 H 122.704 0.908252 -2.85291 0
M  V30 1323 H 120.25 0.435462 -1.37258 0
M  V30 1324 H 122.203 3.33011 -2.58228 0
M  V30 1325 H 120.927 2.95132 -1.39874 0
M  V30 1326 H 119.586 1.79993 -3.19371 0
M  V30 1327 H 119.234 4.23046 -2.72105 0
M  V30 1328 H 118.934 3.85336 -4.4361 0
M  V30 1329 H 120.458 4.65205 -3.95495 0
M  V30 1330 H 121.872 2.67386 -5.07127 0
M  V30 1331 H 120.269 2.10397 -5.62008 0
M  V30 1332 H 121.339 0.992861 -4.74626 0
M  V30 1333 N 122.682 1.50554 0.465978 0
M  V30 1334 C 123.614 1.65949 1.58093 0
M  V30 1335 C 124.627 0.540827 1.53554 0
M  V30 1336 O 125.816 0.814187 1.5885 0
M  V30 1337 C 122.916 1.63261 2.96983 0
M  V30 1338 C 122.089 2.91245 3.26336 0
M  V30 1339 C 121.148 2.8113 4.44806 0
M  V30 1340 O 120.174 3.55086 4.44862 0
M  V30 1341 N 121.376 1.95032 5.46756 0
M  V30 1342 H 124.141 2.62122 1.45301 0
M  V30 1343 H 121.702 1.48082 0.65448 0
M  V30 1344 H 123.694 1.54101 3.74212 0
M  V30 1345 H 122.264 0.748032 3.03518 0
M  V30 1346 H 121.484 3.14493 2.37672 0
M  V30 1347 H 122.772 3.76022 3.42761 0
M  V30 1348 H 122.17 1.3427 5.49534 0
M  V30 1349 H 120.727 1.91772 6.2295 0
M  V30 1350 N 124.16 -0.719506 1.40217 0
M  V30 1351 C 125.092 -1.84428 1.36084 0
M  V30 1352 C 126.105 -1.60597 0.266913 0
M  V30 1353 O 127.294 -1.70544 0.526983 0
M  V30 1354 C 124.394 -3.20757 1.094 0
M  V30 1355 C 123.567 -3.71817 2.30372 0
M  V30 1356 C 122.626 -4.86748 1.99907 0
M  V30 1357 O 121.652 -4.99603 2.72737 0
M  V30 1358 N 122.854 -5.7226 0.974635 0
M  V30 1359 H 125.619 -1.88473 2.33019 0
M  V30 1360 H 123.18 -0.900885 1.3452 0
M  V30 1361 H 125.172 -3.95235 0.870116 0
M  V30 1362 H 123.742 -3.11884 0.211452 0
M  V30 1363 H 122.962 -2.88514 2.68614 0
M  V30 1364 H 124.25 -4.02666 3.11026 0
M  V30 1365 H 123.648 -5.6448 0.371368 0
M  V30 1366 H 122.205 -6.46739 0.810656 0
M  V30 1367 N 125.638 -1.25649 -0.95132 0
M  V30 1368 C 126.863 -1.13443 -1.73624 0
M  V30 1369 C 127.288 0.307565 -1.85568 0
M  V30 1370 O 126.646 1.22282 -1.33854 0
M  V30 1371 C 126.694 -1.79723 -3.12621 0
M  V30 1372 O 125.798 -1.07912 -3.98031 0
M  V30 1373 H 125.139 -0.395872 -0.533086 0
M  V30 1374 H 127.669 -1.66276 -1.1922 0
M  V30 1375 H 127.679 -1.86141 -3.63064 0
M  V30 1376 H 126.354 -2.84633 -3.03244 0
M  V30 1377 H 124.931 -1.09398 -3.56492 0
M  V30 1378 N 127.117 1.15442 -1.07289 0
M  V30 1379 C 128.528 1.67803 -0.818475 0
M  V30 1380 C 128.879 1.8489 0.656507 0
M  V30 1381 O 128.004 1.55176 1.50829 0
M  V30 1382 C 128.599 3.04805 -1.47917 0
M  V30 1383 C 127.158 3.54245 -1.27229 0
M  V30 1384 C 126.305 2.29986 -1.54925 0
M  V30 1385 H 129.256 0.996646 -1.23502 0
M  V30 1386 H 129.277 3.69702 -0.90005 0
M  V30 1387 H 128.789 2.92336 -2.55267 0
M  V30 1388 H 126.89 3.71956 -0.21899 0
M  V30 1389 H 127.003 4.35723 -1.99203 0
M  V30 1390 H 125.367 2.35496 -0.970242 0
M  V30 1391 H 126.15 2.20105 -2.63455 0
M  V30 1392 N 128.595 0.856903 1.32268 0
M  V30 1393 C 130.011 0.547061 1.49931 0
M  V30 1394 C 130.211 -0.921781 1.7918 0
M  V30 1395 O 129.267 -1.70469 1.8627 0
M  V30 1396 C 130.58 1.43599 2.64196 0
M  V30 1397 C 132.128 1.43665 2.78081 0
M  V30 1398 C 132.603 2.31085 3.95428 0
M  V30 1399 N 134.094 2.28893 4.02694 0
M  V30 1400 C 134.829 2.93262 4.92732 0
M  V30 1401 N 134.325 3.66751 5.87763 0
M  V30 1402 N 136.118 2.82638 4.85873 0
M  V30 1403 H 128.269 1.8075 1.11549 0
M  V30 1404 H 130.532 0.772144 0.549997 0
M  V30 1405 H 130.238 2.48058 2.49319 0
M  V30 1406 H 130.112 1.12502 3.60032 0
M  V30 1407 H 132.499 0.399701 2.92381 0
M  V30 1408 H 132.58 1.7878 1.82952 0
M  V30 1409 H 132.224 3.34849 3.81888 0
M  V30 1410 H 132.154 1.93302 4.89839 0
M  V30 1411 H 134.645 1.75466 3.34694 0
M  V30 1412 H 134.958 4.13027 6.53168 0
M  V30 1413 H 133.303 3.70859 5.87783 0
M  V30 1414 H 136.494 2.24774 4.10602 0
M  V30 1415 H 136.667 3.33084 5.55841 0
M  V30 1416 N 130.073 -1.45103 0.615059 0
M  V30 1417 C 131.036 -2.29025 -0.0895485 0
M  V30 1418 C 132.036 -1.40174 -0.787906 0
M  V30 1419 O 133.226 -1.62217 -0.634933 0
M  V30 1420 C 130.358 -3.21376 -1.13711 0
M  V30 1421 H 131.551 -2.92807 0.648382 0
M  V30 1422 H 129.104 -1.51749 0.374444 0
M  V30 1423 H 129.839 -2.6241 -1.90556 0
M  V30 1424 H 129.624 -3.86834 -0.640475 0
M  V30 1425 H 131.114 -3.84459 -1.63036 0
M  V30 1426 N 131.551 -0.354651 -1.53558 0
M  V30 1427 C 132.828 0.294281 -1.93374 0
M  V30 1428 C 133.208 1.67313 -1.28723 0
M  V30 1429 O 132.556 2.24179 -0.442247 0
M  V30 1430 C 132.766 0.355445 -3.47185 0
M  V30 1431 C 134.114 0.601007 -4.20325 0
M  V30 1432 O 135.138 0.437106 -3.53508 0
M  V30 1433 O 133.997 0.919322 -5.38712 0
M  V30 1434 H 131.091 0.174033 -0.808481 0
M  V30 1435 H 133.637 -0.406638 -1.64756 0
M  V30 1436 H 132.409 -0.611729 -3.86489 0
M  V30 1437 H 132.032 1.1027 -3.82003 0
M  V30 1438 N 133.029 1.57378 -0.0835403 0
M  V30 1439 C 133.977 2.14602 0.89714 0
M  V30 1440 C 134.971 1.08589 1.30018 0
M  V30 1441 O 136.177 1.26952 1.27606 0
M  V30 1442 H 132.552 0.686346 0.3073 0
M  V30 1443 H 134.523 2.95845 0.38969 0
M  V30 1444 C 133.272 2.73188 2.15089 0
M  V30 1445 H 132.595 3.54442 1.84962 0
M  V30 1446 H 134.035 3.1681 2.81793 0
M  V30 1447 C 132.494 1.68517 2.91725 0
M  V30 1448 O 133.024 1.11718 3.85852 0
M  V30 1449 N 131.23 1.39277 2.55049 0
M  V30 1450 H 130.777 1.85655 1.78577 0
M  V30 1451 H 130.735 0.694791 3.06627 0
M  V30 1452 N 134.507 -0.190092 1.56449 0
M  V30 1453 C 135.732 -0.929864 1.85387 0
M  V30 1454 C 136.157 -1.7585 0.667704 0
M  V30 1455 O 135.515 -1.77198 -0.383459 0
M  V30 1456 C 135.563 -1.79773 3.12593 0
M  V30 1457 O 134.667 -2.89713 2.93496 0
M  V30 1458 H 134.008 -0.261574 0.610307 0
M  V30 1459 H 136.538 -0.193896 2.03679 0
M  V30 1460 H 136.548 -2.20139 3.43515 0
M  V30 1461 H 135.223 -1.18892 3.98544 0
M  V30 1462 H 133.8 -2.53065 2.73884 0
M  V30 1463 N 135.985 -1.50799 -0.457987 0
M  V30 1464 C 136.948 -1.7005 -1.53674 0
M  V30 1465 C 137.948 -0.570881 -1.50325 0
M  V30 1466 O 139.138 -0.838126 -1.52712 0
M  V30 1467 C 136.27 -1.73788 -2.93276 0
M  V30 1468 H 137.463 -2.66306 -1.37917 0
M  V30 1469 H 135.016 -1.40477 -0.685271 0
M  V30 1470 H 135.751 -0.792717 -3.14462 0
M  V30 1471 H 135.536 -2.55864 -2.97113 0
M  V30 1472 H 137.026 -1.90591 -3.71571 0
M  V30 1473 N 137.463 0.71206 -1.40597 0
M  V30 1474 C 138.874 1.29135 -1.34837 0
M  V30 1475 C 139.225 1.96186 -0.0235395 0
M  V30 1476 O 138.35 1.97768 0.878444 0
M  V30 1477 C 138.945 2.34827 -2.44217 0
M  V30 1478 C 137.504 2.88371 -2.41907 0
M  V30 1479 C 136.651 1.62202 -2.24913 0
M  V30 1480 H 139.602 0.507944 -1.50352 0
M  V30 1481 H 139.623 3.15749 -2.12327 0
M  V30 1482 H 139.135 1.85996 -3.40627 0
M  V30 1483 H 137.236 3.41422 -1.49204 0
M  V30 1484 H 137.349 3.39925 -3.37621 0
M  V30 1485 H 135.713 1.874 -1.72492 0
M  V30 1486 H 136.496 1.15391 -3.23326 0
M  V30 1487 N 138.941 1.26152 0.944643 0
M  V30 1488 C 140.189 1.11271 1.6871 0
M  V30 1489 C 140.51 -0.345166 1.91921 0
M  V30 1490 O 139.78 -1.24387 1.51343 0
M  V30 1491 H 138.36 0.408783 0.625224 0
M  V30 1492 H 141.022 1.58427 1.1352 0
M  V30 1493 H 140.118 1.62879 2.66227 0
M  V30 1494 N 140.419 -1.14872 1.07899 0
M  V30 1495 C 141.647 -1.89661 0.82683 0
M  V30 1496 C 142.062 -1.78312 -0.620519 0
M  V30 1497 O 141.419 -1.13888 -1.42604 0
M  V30 1498 C 141.47 -3.39817 1.23316 0
M  V30 1499 O 141.191 -3.50845 2.62372 0
M  V30 1500 C 142.692 -4.31615 1.0111 0
M  V30 1501 H 139.912 -0.60092 0.298557 0
M  V30 1502 H 142.456 -1.4551 1.43691 0
M  V30 1503 H 140.611 -3.8161 0.667286 0
M  V30 1504 H 141.025 -4.44076 2.79101 0
M  V30 1505 H 142.499 -5.35367 1.34486 0
M  V30 1506 H 142.976 -4.39169 -0.0522168 0
M  V30 1507 H 143.582 -3.95572 1.56215 0
M  V30 1508 N 141.898 -0.863906 -1.31812 0
M  V30 1509 C 143.309 -0.52522 -1.7916 0
M  V30 1510 C 143.66 0.957518 -1.71248 0
M  V30 1511 O 142.785 1.74734 -1.27659 0
M  V30 1512 C 143.38 -0.9466 -3.25307 0
M  V30 1513 C 141.939 -0.659668 -3.70574 0
M  V30 1514 C 141.086 -1.14126 -2.52726 0
M  V30 1515 H 144.037 -1.05022 -1.1898 0
M  V30 1516 H 144.058 -0.266766 -3.79564 0
M  V30 1517 H 143.57 -2.02579 -3.31034 0
M  V30 1518 H 141.671 0.408416 -3.70355 0
M  V30 1519 H 141.784 -1.23245 -4.62977 0
M  V30 1520 H 140.148 -0.561216 -2.4844 0
M  V30 1521 H 140.931 -2.22775 -2.61201 0
M  V30 1522 N 143.376 1.44774 -0.622745 0
M  V30 1523 C 144.604 2.06487 -0.130722 0
M  V30 1524 C 145.019 1.46476 1.19123 0
M  V30 1525 O 144.376 0.584502 1.72887 0
M  V30 1526 C 144.427 3.615 -0.000807207 0
M  V30 1527 O 144.148 4.19274 -1.27048 0
M  V30 1528 C 145.649 4.40229 0.520898 0
M  V30 1529 H 142.869 0.666704 -0.0758106 0
M  V30 1530 H 145.413 1.85779 -0.854774 0
M  V30 1531 H 143.568 3.81498 0.673643 0
M  V30 1532 H 143.982 5.12622 -1.1099 0
M  V30 1533 H 145.456 5.49144 0.560838 0
M  V30 1534 H 145.933 4.1108 1.54627 0
M  V30 1535 H 146.539 4.25131 -0.120018 0
M  V30 1536 N 144.854 0.36279 1.53368 0
M  V30 1537 C 146.27 0.0116182 1.59596 0
M  V30 1538 C 146.47 -1.47012 1.37803 0
M  V30 1539 O 145.526 -2.23136 1.18181 0
M  V30 1540 C 146.839 0.465052 2.97082 0
M  V30 1541 C 148.387 0.419033 3.10182 0
M  V30 1542 C 148.862 0.848235 4.50077 0
M  V30 1543 N 150.353 0.803183 4.56183 0
M  V30 1544 C 151.088 1.107 5.62613 0
M  V30 1545 N 150.584 1.47996 6.76808 0
M  V30 1546 N 152.377 1.02998 5.52583 0
M  V30 1547 H 144.528 1.32775 1.65785 0
M  V30 1548 H 146.791 0.542518 0.777417 0
M  V30 1549 H 146.497 1.49892 3.18159 0
M  V30 1550 H 146.371 -0.149786 3.76902 0
M  V30 1551 H 148.758 -0.605696 2.88817 0
M  V30 1552 H 148.839 1.06933 2.32377 0
M  V30 1553 H 148.483 1.87107 4.7218 0
M  V30 1554 H 148.413 0.175218 5.26308 0
M  V30 1555 H 150.904 0.52838 3.74188 0
M  V30 1556 H 151.217 1.69613 7.53957 0
M  V30 1557 H 149.562 1.51859 6.78206 0
M  V30 1558 H 152.753 0.737817 4.62249 0
M  V30 1559 H 152.926 1.2701 6.35431 0
M  V30 1560 N 146.332 -1.57332 0.0918853 0
M  V30 1561 C 147.279 -2.13847 -0.868211 0
M  V30 1562 C 148.249 -1.05618 -1.28196 0
M  V30 1563 O 149.434 -1.33387 -1.36427 0
M  V30 1564 C 146.574 -2.72062 -2.12312 0
M  V30 1565 C 145.687 -3.94514 -1.7602 0
M  V30 1566 C 144.822 -4.40903 -2.96273 0
M  V30 1567 C 143.861 -5.55953 -2.56092 0
M  V30 1568 N 142.998 -5.97209 -3.69169 0
M  V30 1569 H 147.838 -2.95575 -0.379406 0
M  V30 1570 H 145.375 -1.46048 -0.175606 0
M  V30 1571 H 147.333 -3.03931 -2.858 0
M  V30 1572 H 145.963 -1.93068 -2.58698 0
M  V30 1573 H 145.015 -3.68979 -0.925135 0
M  V30 1574 H 146.327 -4.7802 -1.42472 0
M  V30 1575 H 145.481 -4.74539 -3.78018 0
M  V30 1576 H 144.22 -3.56291 -3.33029 0
M  V30 1577 H 143.225 -5.21948 -1.72773 0
M  V30 1578 H 144.45 -6.42311 -2.20484 0
M  V30 1579 H 142.396 -5.15543 -4.05649 0
M  V30 1580 H 142.313 -6.75504 -3.39456 0
M  V30 1581 H 143.581 -6.35475 -4.51434 0
M  V30 1582 N 147.81 0.181792 -1.56548 0
M  V30 1583 C 149.059 0.898348 -1.8059 0
M  V30 1584 C 149.372 1.83862 -0.667379 0
M  V30 1585 O 150.578 2.59678 -0.792446 0
M  V30 1586 C 149.034 1.64791 -3.19956 0
M  V30 1587 C 148.642 0.751789 -4.41647 0
M  V30 1588 C 150.386 2.35331 -3.53298 0
M  V30 1589 C 148.293 1.50098 -5.72035 0
M  V30 1590 H 147.223 0.339194 -0.673397 0
M  V30 1591 H 149.874 0.151413 -1.82874 0
M  V30 1592 H 148.256 2.43921 -3.11959 0
M  V30 1593 H 149.43 -0.0018076 -4.608 0
M  V30 1594 H 147.745 0.156562 -4.16106 0
M  V30 1595 H 150.342 2.91958 -4.47956 0
M  V30 1596 H 150.685 3.10164 -2.77676 0
M  V30 1597 H 151.218 1.63154 -3.62803 0
M  V30 1598 H 147.957 0.795175 -6.50659 0
M  V30 1599 H 147.477 2.22817 -5.56878 0
M  V30 1600 H 149.156 2.05125 -6.13622 0
M  V30 1601 N 149.288 1.51039 0.449983 0
M  V30 1602 C 150.513 1.6715 1.22783 0
M  V30 1603 C 150.938 0.363081 1.84563 0
M  V30 1604 O 150.296 -0.675433 1.68249 0
M  V30 1605 C 150.344 2.77985 2.29689 0
M  V30 1606 O 149.448 2.40707 3.34864 0
M  V30 1607 H 148.789 0.557746 0.360299 0
M  V30 1608 H 151.319 1.97535 0.533005 0
M  V30 1609 H 151.329 3.01693 2.74673 0
M  V30 1610 H 150.004 3.72935 1.84098 0
M  V30 1611 H 148.581 2.27523 2.95445 0
M  V30 1612 N 150.766 -0.704594 1.40972 0
M  V30 1613 C 151.729 -1.80035 1.41845 0
M  V30 1614 C 152.729 -1.57774 0.310474 0
M  V30 1615 O 153.919 -1.64613 0.56992 0
M  V30 1616 C 151.051 -3.18284 1.22098 0
M  V30 1617 H 152.244 -1.80658 2.3938 0
M  V30 1618 H 149.797 -0.911329 1.26982 0
M  V30 1619 H 150.532 -3.23306 0.253672 0
M  V30 1620 H 150.317 -3.35843 2.02366 0
M  V30 1621 H 151.807 -3.98289 1.25522 0
M  V30 1622 N 152.244 -1.26651 -0.937939 0
M  V30 1623 C 153.469 -1.15279 -1.72411 0
M  V30 1624 C 153.894 0.287866 -1.85884 0
M  V30 1625 O 153.252 1.20855 -1.35143 0
M  V30 1626 C 153.3 -1.83028 -3.10698 0
M  V30 1627 O 152.404 -1.12128 -3.96864 0
M  V30 1628 H 151.745 -0.401504 -0.528858 0
M  V30 1629 H 154.275 -1.67531 -1.1745 0
M  V30 1630 H 154.285 -1.89981 -3.6107 0
M  V30 1631 H 152.96 -2.87833 -3.00208 0
M  V30 1632 H 151.537 -1.13173 -3.55312 0
M  V30 1633 N 153.722 1.14298 -1.08507 0
M  V30 1634 C 154.632 2.23027 -0.727753 0
M  V30 1635 C 155.648 1.71952 0.26619 0
M  V30 1636 O 156.824 2.011 0.109882 0
M  V30 1637 C 153.889 3.46403 -0.143541 0
M  V30 1638 C 152.95 4.12413 -1.19223 0
M  V30 1639 C 152.183 5.29899 -0.635798 0
M  V30 1640 O 152.406 5.67796 0.544393 0
M  V30 1641 O 151.34 5.85717 -1.38634 0
M  V30 1642 H 155.166 2.55945 -1.63481 0
M  V30 1643 H 152.751 1.22248 -0.858817 0
M  V30 1644 H 154.633 4.21018 0.179404 0
M  V30 1645 H 153.308 3.15206 0.736659 0
M  V30 1646 H 152.215 3.39667 -1.56772 0
M  V30 1647 H 153.548 4.47718 -2.04474 0
M  V30 1648 N 155.201 0.870884 1.31352 0
M  V30 1649 C 156.448 0.482273 1.96673 0
M  V30 1650 C 156.776 -0.965638 1.68836 0
M  V30 1651 O 156.031 -1.69514 0.977937 0
M  V30 1652 C 156.33 0.687157 3.50732 0
M  V30 1653 C 155.996 2.108 3.9859 0
M  V30 1654 C 154.658 2.49656 4.1137 0
M  V30 1655 C 157.01 3.03459 4.23748 0
M  V30 1656 C 154.338 3.80412 4.46659 0
M  V30 1657 C 156.69 4.3373 4.60501 0
M  V30 1658 C 155.354 4.725 4.71487 0
M  V30 1659 H 154.624 0.176476 0.719679 0
M  V30 1660 H 157.271 1.10405 1.56471 0
M  V30 1661 H 155.576 -0.0177476 3.91796 0
M  V30 1662 H 157.273 0.366284 3.99324 0
M  V30 1663 H 153.863 1.79633 3.8914 0
M  V30 1664 H 158.047 2.74665 4.13368 0
M  V30 1665 H 153.303 4.1021 4.53362 0
M  V30 1666 H 157.477 5.05578 4.78919 0
M  V30 1667 H 155.104 5.73859 4.98588 0
M  V30 1668 N 156.679 -1.44442 0.630414 0
M  V30 1669 C 157.956 -1.9549 0.0655657 0
M  V30 1670 C 158.336 -1.5724 -1.40851 0
M  V30 1671 O 157.684 -0.846116 -2.12257 0
M  V30 1672 C 157.894 -3.47812 0.287691 0
M  V30 1673 C 159.242 -4.24216 0.180513 0
M  V30 1674 O 160.266 -3.55526 0.219019 0
M  V30 1675 O 159.125 -5.46434 0.0848493 0
M  V30 1676 H 156.219 -0.826688 -0.0227177 0
M  V30 1677 H 158.765 -1.54496 0.702068 0
M  V30 1678 H 157.537 -3.687 1.31056 0
M  V30 1679 H 157.16 -3.95751 -0.382984 0
M  V30 1680 N 158.157 -0.370918 -1.53173 0
M  V30 1681 C 159.573 -0.0200818 -1.59587 0
M  V30 1682 C 159.773 1.46279 -1.38581 0
M  V30 1683 O 158.829 2.22506 -1.19363 0
M  V30 1684 C 160.142 -0.4808 -2.96831 0
M  V30 1685 C 161.69 -0.435477 -3.09956 0
M  V30 1686 C 162.165 -0.872092 -4.4962 0
M  V30 1687 N 163.656 -0.827364 -4.55751 0
M  V30 1688 C 164.391 -1.13683 -5.62018 0
M  V30 1689 N 163.887 -1.51584 -6.76014 0
M  V30 1690 N 165.68 -1.05927 -5.52029 0
M  V30 1691 H 157.831 -1.33652 -1.65079 0
M  V30 1692 H 160.094 -0.546634 -0.774529 0
M  V30 1693 H 159.8 -1.51577 -3.1736 0
M  V30 1694 H 159.674 0.129796 -3.76977 0
M  V30 1695 H 162.061 0.590371 -2.89134 0
M  V30 1696 H 162.142 -1.08164 -2.31806 0
M  V30 1697 H 161.786 -1.89608 -4.71181 0
M  V30 1698 H 161.716 -0.203127 -5.26208 0
M  V30 1699 H 164.207 -0.548216 -3.73902 0
M  V30 1700 H 164.52 -1.73609 -7.53047 0
M  V30 1701 H 162.865 -1.55454 -6.77391 0
M  V30 1702 H 166.056 -0.762321 -4.61851 0
M  V30 1703 H 166.229 -1.30378 -6.34749 0
M  V30 1704 N 159.635 1.57281 -0.100228 0
M  V30 1705 C 161.046 1.81725 0.428107 0
M  V30 1706 C 161.397 1.01619 1.67833 0
M  V30 1707 O 160.522 0.247098 2.14985 0
M  V30 1708 C 161.117 3.29617 0.78347 0
M  V30 1709 C 159.676 3.54808 1.25653 0
M  V30 1710 C 158.823 2.76118 0.255752 0
M  V30 1711 H 161.774 1.55324 -0.325608 0
M  V30 1712 H 161.795 3.4322 1.64256 0
M  V30 1713 H 161.307 3.87893 -0.12665 0
M  V30 1714 H 159.408 3.01868 2.18418 0
M  V30 1715 H 159.521 4.63443 1.21482 0
M  V30 1716 H 157.885 2.43745 0.738956 0
M  V30 1717 H 158.668 3.37145 -0.647136 0
M  V30 1718 N 161.113 -0.173488 1.56642 0
M  V30 1719 C 162.043 -1.2171 1.99271 0
M  V30 1720 C 163.024 -1.46289 0.867959 0
M  V30 1721 O 164.209 -1.5766 1.13388 0
M  V30 1722 C 161.339 -2.55651 2.35074 0
M  V30 1723 C 160.293 -2.45645 3.50489 0
M  V30 1724 C 159.619 -3.84056 3.72028 0
M  V30 1725 C 160.919 -1.96302 4.84007 0
M  V30 1726 H 162.613 -0.86275 2.867 0
M  V30 1727 H 160.159 -0.413571 1.37933 0
M  V30 1728 H 162.112 -3.2886 2.63494 0
M  V30 1729 H 160.836 -2.92869 1.44552 0
M  V30 1730 H 159.495 -1.7489 3.22194 0
M  V30 1731 H 159.143 -4.18664 2.788 0
M  V30 1732 H 158.843 -3.7823 4.49684 0
M  V30 1733 H 160.367 -4.58854 4.02846 0
M  V30 1734 H 161.781 -2.59284 5.11317 0
M  V30 1735 H 160.178 -2.01429 5.65284 0
M  V30 1736 H 161.248 -0.917226 4.76146 0
M  V30 1737 N 162.591 -1.51276 -0.441967 0
M  V30 1738 C 164.007 -1.39349 -0.778083 0
M  V30 1739 C 164.207 -0.472212 -1.95889 0
M  V30 1740 O 163.263 0.0743551 -2.5239 0
M  V30 1741 C 164.576 -2.81292 -1.0628 0
M  V30 1742 C 166.124 -2.9041 -1.16751 0
M  V30 1743 C 166.599 -4.33251 -1.48519 0
M  V30 1744 N 168.09 -4.36336 -1.55453 0
M  V30 1745 C 168.825 -5.43885 -1.81596 0
M  V30 1746 N 168.321 -6.61601 -2.05562 0
M  V30 1747 N 170.114 -5.3136 -1.8334 0
M  V30 1748 H 162.265 -2.09729 0.335774 0
M  V30 1749 H 164.528 -0.943925 0.0878028 0
M  V30 1750 H 164.234 -3.50678 -0.267905 0
M  V30 1751 H 164.108 -3.20334 -1.99163 0
M  V30 1752 H 166.495 -2.21225 -1.95304 0
M  V30 1753 H 166.576 -2.54871 -0.217801 0
M  V30 1754 H 166.22 -5.02984 -0.704958 0
M  V30 1755 H 166.15 -4.66299 -2.44689 0
M  V30 1756 H 168.641 -3.51466 -1.38853 0
M  V30 1757 H 168.954 -7.39361 -2.24867 0
M  V30 1758 H 167.299 -6.64725 -2.02894 0
M  V30 1759 H 170.49 -4.38382 -1.64132 0
M  V30 1760 H 170.663 -6.15258 -2.03377 0
M  V30 1761 N 164.069 0.697108 -1.41344 0
M  V30 1762 C 165.48 1.27697 -1.36199 0
M  V30 1763 C 165.831 1.9615 -0.0443463 0
M  V30 1764 O 164.956 1.98689 0.857419 0
M  V30 1765 C 165.551 2.32223 -2.46694 0
M  V30 1766 C 164.11 2.8579 -2.44952 0
M  V30 1767 C 163.257 1.59807 -2.26621 0
M  V30 1768 H 166.208 0.491968 -1.50882 0
M  V30 1769 H 166.229 3.1348 -2.15664 0
M  V30 1770 H 165.741 1.82373 -3.42581 0
M  V30 1771 H 163.842 3.3982 -1.52817 0
M  V30 1772 H 163.955 3.36325 -3.41207 0
M  V30 1773 H 162.319 1.8556 -1.7447 0
M  V30 1774 H 163.102 1.11956 -3.24532 0
M  V30 1775 N 165.547 1.27147 0.931209 0
M  V30 1776 C 166.796 1.12664 1.67302 0
M  V30 1777 C 167.109 -0.327718 1.92835 0
M  V30 1778 O 168.315 -0.593392 2.64936 0
M  V30 1779 C 166.771 1.9683 3.01307 0
M  V30 1780 C 166.379 3.46901 2.83485 0
M  V30 1781 C 168.123 1.90985 3.79111 0
M  V30 1782 C 166.03 4.23279 4.13024 0
M  V30 1783 H 164.96 0.41803 0.627509 0
M  V30 1784 H 167.611 1.51539 1.03481 0
M  V30 1785 H 165.993 1.50797 3.66164 0
M  V30 1786 H 167.167 4.00773 2.27415 0
M  V30 1787 H 165.482 3.54088 2.19113 0
M  V30 1788 H 168.079 2.45328 4.75098 0
M  V30 1789 H 168.422 0.882718 4.06834 0
M  V30 1790 H 168.955 2.34895 3.21044 0
M  V30 1791 H 165.694 5.26503 3.90481 0
M  V30 1792 H 165.214 3.74186 4.6877 0
M  V30 1793 H 166.893 4.32265 4.81411 0
M  V30 1794 N 167.025 -1.13721 1.09112 0
M  V30 1795 C 168.271 -1.85198 0.826414 0
M  V30 1796 C 168.604 -1.83129 -0.646319 0
M  V30 1797 O 167.879 -1.2671 -1.47563 0
M  V30 1798 C 168.162 -3.33507 1.35812 0
M  V30 1799 C 168.015 -3.44108 2.89672 0
M  V30 1800 C 169.334 -4.28838 0.989256 0
M  V30 1801 H 166.453 -0.67243 0.301675 0
M  V30 1802 H 169.095 -1.33499 1.35197 0
M  V30 1803 H 167.245 -3.77666 0.911082 0
M  V30 1804 H 168.917 -3.08684 3.428 0
M  V30 1805 H 167.16 -2.85087 3.26967 0
M  V30 1806 H 167.831 -4.48388 3.21951 0
M  V30 1807 H 170.307 -3.92734 1.37475 0
M  V30 1808 H 169.183 -5.31051 1.38838 0
M  V30 1809 H 169.444 -4.4198 -0.102924 0
M  V30 1810 N 168.503 -0.877838 -1.30888 0
M  V30 1811 C 169.749 -0.493426 -1.96706 0
M  V30 1812 C 170.082 0.953504 -1.6918 0
M  V30 1813 O 169.357 1.67266 -0.992594 0
M  V30 1814 C 169.64 -0.760429 -3.51979 0
M  V30 1815 C 169.493 -2.25747 -3.89048 0
M  V30 1816 C 170.812 -0.232148 -4.39487 0
M  V30 1817 H 167.931 -0.180746 -0.714493 0
M  V30 1818 H 170.573 -1.10052 -1.54882 0
M  V30 1819 H 168.723 -0.243715 -3.87735 0
M  V30 1820 H 170.395 -2.84204 -3.63354 0
M  V30 1821 H 168.638 -2.72694 -3.37373 0
M  V30 1822 H 169.309 -2.39491 -4.97341 0
M  V30 1823 H 171.785 -0.674314 -4.106 0
M  V30 1824 H 170.661 -0.448355 -5.47066 0
M  V30 1825 H 170.922 0.866297 -4.33529 0
M  V30 1826 N 169.982 1.44106 -0.638065 0
M  V30 1827 C 170.929 2.30715 0.062701 0
M  V30 1828 C 171.899 1.43882 0.829883 0
M  V30 1829 O 173.084 1.72775 0.809532 0
M  V30 1830 C 170.224 3.29258 1.03358 0
M  V30 1831 C 169.337 4.31192 0.26409 0
M  V30 1832 C 168.472 5.16825 1.22741 0
M  V30 1833 C 167.511 6.10462 0.447475 0
M  V30 1834 N 166.648 6.8877 1.36161 0
M  V30 1835 H 171.488 2.90096 -0.681781 0
M  V30 1836 H 169.025 1.42925 -0.347988 0
M  V30 1837 H 170.983 3.84886 1.60992 0
M  V30 1838 H 169.613 2.71562 1.74511 0
M  V30 1839 H 168.665 3.77981 -0.428295 0
M  V30 1840 H 169.977 4.97619 -0.343052 0
M  V30 1841 H 169.131 5.77004 1.87487 0
M  V30 1842 H 167.87 4.50488 1.86847 0
M  V30 1843 H 166.875 5.49386 -0.213433 0
M  V30 1844 H 168.1 6.78837 -0.188968 0
M  V30 1845 H 166.046 6.25096 1.98975 0
M  V30 1846 H 165.963 7.51663 0.808656 0
M  V30 1847 H 167.231 7.53467 1.99769 0
M  V30 1848 N 171.46 0.379036 1.52974 0
M  V30 1849 C 172.737 -0.263479 1.93817 0
M  V30 1850 C 173.117 -1.65244 1.31368 0
M  V30 1851 O 172.465 -2.23448 0.477856 0
M  V30 1852 C 172.675 -0.300166 3.47707 0
M  V30 1853 C 174.023 -0.534061 4.21228 0
M  V30 1854 O 175.047 -0.38081 3.54159 0
M  V30 1855 O 173.906 -0.833501 5.40106 0
M  V30 1856 H 171 -0.161149 0.811147 0
M  V30 1857 H 173.546 0.432798 1.64088 0
M  V30 1858 H 172.318 0.673138 3.85467 0
M  V30 1859 H 171.941 -1.04179 3.83709 0
M  V30 1860 N 172.938 -1.57226 0.108567 0
M  V30 1861 C 174.163 -1.99604 -0.563303 0
M  V30 1862 C 174.588 -0.987563 -1.6009 0
M  V30 1863 O 173.946 0.0421687 -1.81251 0
M  V30 1864 C 173.994 -3.40902 -1.17552 0
M  V30 1865 O 173.098 -3.42896 -2.2912 0
M  V30 1866 H 172.439 -0.648704 -0.1417 0
M  V30 1867 H 174.969 -2.03679 0.193961 0
M  V30 1868 H 174.979 -3.78886 -1.51357 0
M  V30 1869 H 173.654 -4.1382 -0.415445 0
M  V30 1870 H 172.231 -3.1672 -1.96832 0
M  V30 1871 N 174.416 0.165178 -1.56732 0
M  V30 1872 C 175.326 1.22423 -2.00125 0
M  V30 1873 C 176.342 1.48084 -0.913619 0
M  V30 1874 O 177.518 1.60112 -1.22172 0
M  V30 1875 C 174.583 2.54197 -2.35764 0
M  V30 1876 C 173.644 2.36343 -3.58386 0
M  V30 1877 C 172.877 3.61834 -3.92316 0
M  V30 1878 O 173.1 4.67267 -3.27135 0
M  V30 1879 O 172.034 3.55579 -4.85641 0
M  V30 1880 H 175.86 0.885886 -2.90492 0
M  V30 1881 H 173.445 0.372518 -1.44681 0
M  V30 1882 H 175.327 3.3192 -2.59629 0
M  V30 1883 H 174.002 2.87598 -1.48557 0
M  V30 1884 H 172.909 1.56632 -3.39731 0
M  V30 1885 H 174.242 2.07865 -4.46154 0
M  V30 1886 N 175.894 1.51508 0.433938 0
M  V30 1887 C 177.142 1.6402 1.18075 0
M  V30 1888 C 177.463 0.360328 1.91642 0
M  V30 1889 O 176.733 -0.623945 1.85698 0
M  V30 1890 H 175.313 0.6045 0.43885 0
M  V30 1891 H 177.975 1.88452 0.497178 0
M  V30 1892 H 177.071 2.46949 1.90847 0
M  V30 1893 N 177.372 -0.689602 1.41712 0
M  V30 1894 C 178.6 -1.47827 1.44758 0
M  V30 1895 C 179.015 -1.88721 0.0545703 0
M  V30 1896 O 178.372 -1.57176 -0.927463 0
M  V30 1897 C 178.423 -2.73698 2.3616 0
M  V30 1898 O 178.144 -2.34524 3.7004 0
M  V30 1899 C 179.645 -3.67389 2.48072 0
M  V30 1900 H 176.865 -0.455357 0.49284 0
M  V30 1901 H 179.409 -0.848574 1.86063 0
M  V30 1902 H 177.564 -3.32891 1.98148 0
M  V30 1903 H 177.978 -3.15701 4.18847 0
M  V30 1904 H 179.452 -4.52475 3.16181 0
M  V30 1905 H 179.929 -4.12284 1.51388 0
M  V30 1906 H 180.535 -3.14097 2.86746 0
M  V30 1907 N 178.85 -1.27639 -0.924453 0
M  V30 1908 C 180.096 -1.14336 -1.67497 0
M  V30 1909 C 180.429 0.309465 -1.91718 0
M  V30 1910 O 179.704 1.22608 -1.50989 0
M  V30 1911 C 179.987 -1.93096 -3.0395 0
M  V30 1912 C 179.84 -3.46381 -2.8695 0
M  V30 1913 C 181.159 -1.73798 -4.0433 0
M  V30 1914 H 178.278 -0.416728 -0.607871 0
M  V30 1915 H 180.92 -1.56832 -1.07256 0
M  V30 1916 H 179.07 -1.56982 -3.55372 0
M  V30 1917 H 180.742 -3.92343 -2.42621 0
M  V30 1918 H 178.985 -3.72557 -2.22225 0
M  V30 1919 H 179.656 -3.96735 -3.83804 0
M  V30 1920 H 182.132 -2.05293 -3.61931 0
M  V30 1921 H 181.008 -2.31294 -4.97789 0
M  V30 1922 H 181.269 -0.686725 -4.36734 0
M  V30 1923 N 180.328 1.1314 -1.09713 0
M  V30 1924 C 181.553 1.88862 -0.857081 0
M  V30 1925 C 181.978 1.78729 0.586304 0
M  V30 1926 O 181.336 1.13692 1.41222 0
M  V30 1927 C 181.384 3.36325 -1.30069 0
M  V30 1928 O 180.488 4.09815 -0.461007 0
M  V30 1929 H 179.829 0.587108 -0.310162 0
M  V30 1930 H 182.359 1.43129 -1.46203 0
M  V30 1931 H 182.369 3.87157 -1.28738 0
M  V30 1932 H 181.044 3.43017 -2.35185 0
M  V30 1933 H 179.621 3.68986 -0.538888 0
M  V30 1934 N 181.806 0.884767 1.30421 0
M  V30 1935 C 183.053 0.503105 1.96151 0
M  V30 1936 C 183.381 -0.947676 1.69851 0
M  V30 1937 O 182.636 -1.68467 0.995861 0
M  V30 1938 C 182.935 0.724318 3.49983 0
M  V30 1939 C 182.601 2.15015 3.96332 0
M  V30 1940 C 181.263 2.54005 4.08699 0
M  V30 1941 C 183.615 3.07936 4.20505 0
M  V30 1942 C 180.943 3.85128 4.42599 0
M  V30 1943 C 183.295 4.3859 4.55874 0
M  V30 1944 C 181.959 4.77474 4.66449 0
M  V30 1945 H 181.229 0.184099 0.717766 0
M  V30 1946 H 183.876 1.12058 1.55291 0
M  V30 1947 H 182.181 0.0238086 3.91793 0
M  V30 1948 H 183.878 0.408617 3.98913 0
M  V30 1949 H 180.468 1.8375 3.87213 0
M  V30 1950 H 184.652 2.79033 4.10431 0
M  V30 1951 H 179.908 4.14996 4.48986 0
M  V30 1952 H 184.082 5.10629 4.7353 0
M  V30 1953 H 181.709 5.79115 4.92473 0
M  V30 1954 N 183.284 -1.43765 0.645699 0
M  V30 1955 C 184.214 -2.33471 -0.0370477 0
M  V30 1956 C 185.195 -1.49042 -0.819779 0
M  V30 1957 O 186.38 -1.77726 -0.782758 0
M  V30 1958 C 183.51 -3.32311 -1.0093 0
M  V30 1959 C 182.464 -4.2667 -0.337201 0
M  V30 1960 C 181.79 -5.1549 -1.42037 0
M  V30 1961 C 183.09 -5.16657 0.765706 0
M  V30 1962 H 184.784 -2.90809 0.712069 0
M  V30 1963 H 182.33 -1.39834 0.343876 0
M  V30 1964 H 184.283 -3.9396 -1.49578 0
M  V30 1965 H 183.007 -2.73213 -1.78948 0
M  V30 1966 H 181.666 -3.66374 0.128771 0
M  V30 1967 H 181.314 -4.52735 -2.1918 0
M  V30 1968 H 181.014 -5.79438 -0.975966 0
M  V30 1969 H 182.538 -5.80012 -1.90838 0
M  V30 1970 H 183.952 -5.72158 0.361702 0
M  V30 1971 H 182.349 -5.89286 1.13413 0
M  V30 1972 H 183.419 -4.56796 1.62683 0
M  V30 1973 N 184.763 -0.387143 -1.52771 0
M  V30 1974 C 185.988 0.198407 -2.06449 0
M  V30 1975 C 186.413 1.39918 -1.25716 0
M  V30 1976 O 185.771 1.79099 -0.281657 0
M  V30 1977 C 185.819 0.548893 -3.56398 0
M  V30 1978 O 184.923 1.64315 -3.78252 0
M  V30 1979 H 184.264 0.0237731 -0.663574 0
M  V30 1980 H 186.794 -0.553989 -1.96957 0
M  V30 1981 H 186.804 0.813812 -3.99801 0
M  V30 1982 H 185.479 -0.329005 -4.14597 0
M  V30 1983 H 184.056 1.37211 -3.46738 0
M  V30 1984 N 186.241 1.57166 -0.116904 0
M  V30 1985 C 187.518 1.86645 0.585049 0
M  V30 1986 C 187.898 1.0177 1.84949 0
M  V30 1987 O 187.246 0.0960379 2.28298 0
M  V30 1988 C 187.456 3.37736 0.879507 0
M  V30 1989 C 188.804 4.06289 1.23348 0
M  V30 1990 O 189.828 3.42743 0.969836 0
M  V30 1991 O 188.687 5.18455 1.7282 0
M  V30 1992 H 185.781 0.772593 0.295007 0
M  V30 1993 H 188.327 1.69025 -0.151249 0
M  V30 1994 H 187.099 3.91296 -0.0166136 0
M  V30 1995 H 186.722 3.6078 1.67103 0
M  V30 1996 N 187.719 -0.156864 1.56817 0
M  V30 1997 C 188.944 -0.890331 1.87318 0
M  V30 1998 C 189.369 -1.74394 0.704855 0
M  V30 1999 O 188.727 -1.77972 -0.345786 0
M  V30 2000 C 188.775 -1.73102 3.16336 0
M  V30 2001 O 187.879 -2.83422 2.99576 0
M  V30 2002 H 187.22 -0.24857 0.615718 0
M  V30 2003 H 189.75 -0.150649 2.04045 0
M  V30 2004 H 189.76 -2.12803 3.48107 0
M  V30 2005 H 188.435 -1.10412 4.00976 0
M  V30 2006 H 187.012 -2.47199 2.7919 0
M  V30 2007 N 189.197 -1.51736 -0.425897 0
M  V30 2008 C 190.107 -1.76738 -1.54275 0
M  V30 2009 C 191.123 -0.65211 -1.61318 0
M  V30 2010 O 192.299 -0.935654 -1.78346 0
M  V30 2011 C 189.364 -1.89755 -2.90162 0
M  V30 2012 C 188.425 -3.13633 -2.93143 0
M  V30 2013 C 187.658 -3.2602 -4.22548 0
M  V30 2014 O 187.881 -2.44067 -5.15546 0
M  V30 2015 O 186.815 -4.19071 -4.32046 0
M  V30 2016 H 190.641 -2.71502 -1.36089 0
M  V30 2017 H 188.226 -1.36376 -0.610069 0
M  V30 2018 H 190.108 -2.00236 -3.70788 0
M  V30 2019 H 188.783 -0.981785 -3.08452 0
M  V30 2020 H 187.69 -3.08622 -2.11431 0
M  V30 2021 H 189.023 -4.04936 -2.798 0
M  V30 2022 N 190.675 0.682077 -1.42076 0
M  V30 2023 C 191.622 1.79578 -1.44984 0
M  V30 2024 C 192.592 1.6332 -0.302614 0
M  V30 2025 O 193.777 1.83978 -0.505633 0
M  V30 2026 C 190.917 3.1756 -1.35091 0
M  V30 2027 C 190.03 3.45156 -2.59791 0
M  V30 2028 C 189.165 4.72826 -2.42093 0
M  V30 2029 C 188.204 4.93433 -3.62202 0
M  V30 2030 N 187.341 6.12338 -3.43491 0
M  V30 2031 H 192.181 1.76427 -2.40161 0
M  V30 2032 H 189.718 0.861376 -1.19242 0
M  V30 2033 H 191.676 3.97287 -1.27354 0
M  V30 2034 H 190.306 3.19854 -0.435133 0
M  V30 2035 H 189.358 2.59736 -2.77923 0
M  V30 2036 H 190.67 3.5628 -3.49094 0
M  V30 2037 H 189.824 5.60631 -2.319 0
M  V30 2038 H 188.563 4.63973 -1.50268 0
M  V30 2039 H 187.568 4.04073 -3.72834 0
M  V30 2040 H 188.793 5.04136 -4.54998 0
M  V30 2041 H 186.739 6.04672 -2.54377 0
M  V30 2042 H 186.656 6.2429 -4.26377 0
M  V30 2043 H 187.924 7.02841 -3.37097 0
M  V30 2044 N 192.153 1.28127 0.917671 0
M  V30 2045 C 193.1 1.11717 2.0196 0
M  V30 2046 C 194.07 0.0153929 1.66093 0
M  V30 2047 O 195.255 0.179596 1.89953 0
M  V30 2048 C 192.395 0.780927 3.36148 0
M  V30 2049 C 191.508 1.96135 3.84909 0
M  V30 2050 C 190.643 1.56609 5.0759 0
M  V30 2051 C 189.682 2.71339 5.48673 0
M  V30 2052 N 188.819 2.32332 6.62545 0
M  V30 2053 H 193.659 2.06003 2.15329 0
M  V30 2054 H 191.196 1.02535 1.05475 0
M  V30 2055 H 193.154 0.56675 4.13333 0
M  V30 2056 H 191.784 -0.124998 3.22558 0
M  V30 2057 H 190.836 2.28777 3.03916 0
M  V30 2058 H 192.148 2.82165 4.1132 0
M  V30 2059 H 191.302 1.31374 5.92305 0
M  V30 2060 H 190.041 0.677014 4.82978 0
M  V30 2061 H 189.046 2.97276 4.62501 0
M  V30 2062 H 190.271 3.60882 5.75274 0
M  V30 2063 H 188.217 1.45889 6.39572 0
M  V30 2064 H 188.134 3.11899 6.88662 0
M  V30 2065 H 189.402 2.10371 7.50576 0
M  V30 2066 N 193.631 -1.12557 1.10312 0
M  V30 2067 C 194.541 -2.21841 0.763142 0
M  V30 2068 C 195.557 -1.72354 -0.238801 0
M  V30 2069 O 196.733 -2.01249 -0.0778746 0
M  V30 2070 C 193.798 -3.46131 0.198632 0
M  V30 2071 C 192.859 -4.10464 1.25769 0
M  V30 2072 C 192.092 -5.28821 0.72002 0
M  V30 2073 O 192.315 -5.6859 -0.453993 0
M  V30 2074 O 191.249 -5.83437 1.47935 0
M  V30 2075 H 195.075 -2.53312 1.67532 0
M  V30 2076 H 192.66 -1.20867 0.878157 0
M  V30 2077 H 194.542 -4.2125 -0.112401 0
M  V30 2078 H 193.217 -3.16338 -0.686419 0
M  V30 2079 H 192.124 -3.3713 1.62156 0
M  V30 2080 H 193.457 -4.44408 2.11571 0
M  V30 2081 N 195.109 -0.891671 -1.2995 0
M  V30 2082 C 196.041 -0.320695 -2.26945 0
M  V30 2083 C 197.054 0.528497 -1.53983 0
M  V30 2084 O 198.243 0.346959 -1.75096 0
M  V30 2085 C 195.343 0.562066 -3.34207 0
M  V30 2086 C 194.516 -0.259576 -4.36629 0
M  V30 2087 C 193.575 0.554739 -5.23268 0
M  V30 2088 O 192.601 -0.0249311 -5.69195 0
M  V30 2089 N 193.803 1.8625 -5.4981 0
M  V30 2090 H 196.568 -1.15432 -2.76578 0
M  V30 2091 H 194.129 -0.755336 -1.432 0
M  V30 2092 H 196.121 1.11304 -3.89093 0
M  V30 2093 H 194.691 1.29637 -2.84452 0
M  V30 2094 H 193.911 -0.991986 -3.81514 0
M  V30 2095 H 195.199 -0.822564 -5.02107 0
M  V30 2096 H 194.597 2.35628 -5.14292 0
M  V30 2097 H 193.154 2.36078 -6.07545 0
M  V30 2098 N 196.587 1.43421 -0.653314 0
M  V30 2099 C 197.52 2.2803 0.0879804 0
M  V30 2100 C 198.498 1.39833 0.82979 0
M  V30 2101 O 199.682 1.69275 0.829341 0
M  V30 2102 C 196.809 3.19247 1.13132 0
M  V30 2103 C 195.855 4.23704 0.487546 0
M  V30 2104 S 196.688 5.30377 -0.738961 0
M  V30 2105 C 197.844 6.25162 0.30384 0
M  V30 2106 H 198.077 2.90554 -0.629739 0
M  V30 2107 H 195.61 1.47934 -0.442156 0
M  V30 2108 H 197.568 3.72346 1.72827 0
M  V30 2109 H 196.229 2.55901 1.82136 0
M  V30 2110 H 195.422 4.87631 1.27407 0
M  V30 2111 H 195.024 3.73983 -0.0352915 0
M  V30 2112 H 197.316 6.67321 1.17 0
M  V30 2113 H 198.259 7.07463 -0.300402 0
M  V30 2114 H 198.667 5.60864 0.63969 0
M  V30 2115 N 198.065 0.39524 1.52563 0
M  V30 2116 C 199.476 -0.0774719 1.86539 0
M  V30 2117 C 199.827 -1.45641 1.31466 0
M  V30 2118 O 198.952 -2.06459 0.648367 0
M  V30 2119 C 199.547 -0.147356 3.38479 0
M  V30 2120 C 198.106 -0.564373 3.72145 0
M  V30 2121 C 197.253 0.269919 2.75983 0
M  V30 2122 H 200.204 0.612876 1.46388 0
M  V30 2123 H 200.225 -0.965343 3.68051 0
M  V30 2124 H 199.737 0.856387 3.78534 0
M  V30 2125 H 197.838 -1.57527 3.37663 0
M  V30 2126 H 197.951 -0.318402 4.78041 0
M  V30 2127 H 196.315 -0.265696 2.5331 0
M  V30 2128 H 197.098 1.27175 3.18875 0
M  V30 2129 N 199.544 -1.57102 0.125237 0
M  V30 2130 C 200.474 -2.18659 -0.819174 0
M  V30 2131 C 201.455 -1.12843 -1.27281 0
M  V30 2132 O 202.64 -1.41104 -1.33429 0
M  V30 2133 C 199.77 -2.79096 -2.06695 0
M  V30 2134 C 198.724 -3.90548 -1.75088 0
M  V30 2135 C 198.05 -4.37821 -3.06948 0
M  V30 2136 C 199.35 -5.12356 -1.01435 0
M  V30 2137 H 201.044 -2.9783 -0.306202 0
M  V30 2138 H 198.59 -1.4326 -0.145839 0
M  V30 2139 H 200.543 -3.2082 -2.73226 0
M  V30 2140 H 199.267 -1.97223 -2.60328 0
M  V30 2141 H 197.926 -3.49409 -1.10944 0
M  V30 2142 H 197.574 -3.52799 -3.58527 0
M  V30 2143 H 197.274 -5.12982 -2.86571 0
M  V30 2144 H 198.798 -4.822 -3.74587 0
M  V30 2145 H 200.212 -5.5106 -1.58132 0
M  V30 2146 H 198.609 -5.9314 -0.911319 0
M  V30 2147 H 199.679 -4.849 -0.00218681 0
M  V30 2148 N 201.022 0.148545 -1.56898 0
M  V30 2149 C 202.25 0.876389 -1.87422 0
M  V30 2150 C 202.665 1.74809 -0.713256 0
M  V30 2151 O 202.022 1.79725 0.317025 0
M  V30 2152 C 202.073 1.73438 -3.17178 0
M  V30 2153 O 201.794 0.897809 -4.28802 0
M  V30 2154 C 203.295 2.56993 -3.61205 0
M  V30 2155 H 200.515 0.253489 -0.621277 0
M  V30 2156 H 203.059 0.141798 -2.04008 0
M  V30 2157 H 201.214 2.42205 -3.0235 0
M  V30 2158 H 201.628 1.48672 -5.02988 0
M  V30 2159 H 203.102 3.12773 -4.54838 0
M  V30 2160 H 203.579 3.32958 -2.86419 0
M  V30 2161 H 204.185 1.9352 -3.78722 0
M  V30 2162 N 202.5 1.5196 0.417844 0
M  V30 2163 C 203.911 1.57851 0.997 0
M  V30 2164 C 204.262 0.413714 1.91789 0
M  V30 2165 O 203.387 -0.467057 2.113 0
M  V30 2166 C 203.982 2.86085 1.81496 0
M  V30 2167 C 202.541 2.94483 2.34428 0
M  V30 2168 C 201.688 2.52707 1.14169 0
M  V30 2169 H 204.639 1.57455 0.198392 0
M  V30 2170 H 204.66 2.70947 2.67148 0
M  V30 2171 H 204.172 3.70842 1.14446 0
M  V30 2172 H 202.273 2.142 3.04875 0
M  V30 2173 H 202.386 3.98546 2.65891 0
M  V30 2174 H 200.75 2.06353 1.49301 0
M  V30 2175 H 201.533 3.39828 0.486999 0
M  V30 2176 N 203.978 -0.674533 1.42435 0
M  V30 2177 C 205.389 -1.25514 1.38214 0
M  V30 2178 C 205.74 -1.96055 0.0755464 0
M  V30 2179 O 204.865 -2.00028 -0.8257 0
M  V30 2180 C 205.46 -2.28269 2.50357 0
M  V30 2181 C 204.019 -2.81856 2.49467 0
M  V30 2182 C 203.166 -1.56182 2.29134 0
M  V30 2183 H 206.117 -0.467902 1.51646 0
M  V30 2184 H 206.138 -3.10009 2.20624 0
M  V30 2185 H 205.65 -1.769 3.45439 0
M  V30 2186 H 203.751 -3.37346 1.58204 0
M  V30 2187 H 203.864 -3.30854 3.46515 0
M  V30 2188 H 202.228 -1.82761 1.774 0
M  V30 2189 H 203.011 -1.06778 3.26272 0
M  V30 2190 N 205.456 -1.28612 -0.910864 0
M  V30 2191 C 206.872 -1.06381 -1.18976 0
M  V30 2192 C 207.072 0.191998 -2.00583 0
M  V30 2193 O 206.128 0.892869 -2.36187 0
M  V30 2194 C 207.441 -2.31295 -1.92154 0
M  V30 2195 C 208.989 -2.36503 -2.05025 0
M  V30 2196 C 209.464 -3.61191 -2.81612 0
M  V30 2197 N 210.955 -3.61847 -2.89172 0
M  V30 2198 C 211.69 -4.55004 -3.4894 0
M  V30 2199 N 211.186 -5.58482 -4.09963 0
M  V30 2200 N 212.979 -4.42594 -3.46506 0
M  V30 2201 H 205.13 -2.09221 -0.366094 0
M  V30 2202 H 207.393 -0.921003 -0.224629 0
M  V30 2203 H 207.099 -3.228 -1.39618 0
M  V30 2204 H 206.973 -2.37934 -2.9269 0
M  V30 2205 H 209.36 -1.45494 -2.5674 0
M  V30 2206 H 209.441 -2.33857 -1.03657 0
M  V30 2207 H 209.085 -4.52545 -2.30576 0
M  V30 2208 H 209.015 -3.61092 -3.83302 0
M  V30 2209 H 211.506 -2.87022 -2.45819 0
M  V30 2210 H 211.819 -6.25704 -4.53557 0
M  V30 2211 H 210.164 -5.62305 -4.08459 0
M  V30 2212 H 213.355 -3.60953 -2.98045 0
M  V30 2213 H 213.528 -5.15381 -3.92793 0
M  V30 2214 N 206.934 1.1197 -1.10907 0
M  V30 2215 C 208.181 1.83588 -0.854507 0
M  V30 2216 C 208.509 1.84357 0.6199 0
M  V30 2217 O 207.764 1.28809 1.47332 0
M  V30 2218 C 208.063 3.30749 -1.35425 0
M  V30 2219 C 207.729 3.50146 -2.84093 0
M  V30 2220 C 206.391 3.55148 -3.2469 0
M  V30 2221 C 208.743 3.56857 -3.79872 0
M  V30 2222 C 206.071 3.6441 -4.59806 0
M  V30 2223 C 208.423 3.6765 -5.14797 0
M  V30 2224 C 207.087 3.7091 -5.54961 0
M  V30 2225 H 206.357 0.671795 -0.312686 0
M  V30 2226 H 209.004 1.32091 -1.38652 0
M  V30 2227 H 207.309 3.84703 -0.742361 0
M  V30 2228 H 209.006 3.8464 -1.1337 0
M  V30 2229 H 205.596 3.46919 -2.51685 0
M  V30 2230 H 209.78 3.52258 -3.49611 0
M  V30 2231 H 205.036 3.65208 -4.9034 0
M  V30 2232 H 209.21 3.71786 -5.88853 0
M  V30 2233 H 206.837 3.7784 -6.59652 0
M  V30 2234 N 208.412 0.89855 1.29475 0
M  V30 2235 C 209.689 0.443416 1.90508 0
M  V30 2236 C 210.069 -1.07685 1.81569 0
M  V30 2237 O 209.417 -1.9182 1.24166 0
M  V30 2238 C 209.627 0.956708 3.35631 0
M  V30 2239 C 210.975 0.999728 4.12663 0
M  V30 2240 O 211.999 0.904299 3.4453 0
M  V30 2241 O 210.858 1.14289 5.34416 0
M  V30 2242 H 207.952 0.138025 0.815401 0
M  V30 2243 H 210.498 0.98834 1.37949 0
M  V30 2244 H 209.27 2.00067 3.36287 0
M  V30 2245 H 208.893 0.391728 3.95666 0
M  V30 2246 N 209.89 -1.43072 0.660911 0
M  V30 2247 C 210.84 -2.27948 -0.04847 0
M  V30 2248 C 211.824 -1.40325 -0.787246 0
M  V30 2249 O 213.016 -1.63893 -0.668446 0
M  V30 2250 C 210.145 -3.28143 -1.00881 0
M  V30 2251 C 209.231 -4.23252 -0.268108 0
M  V30 2252 N 209.622 -5.00656 0.719528 0
M  V30 2253 C 207.92 -4.43092 -0.508493 0
M  V30 2254 C 208.621 -5.70019 1.15988 0
M  V30 2255 N 207.597 -5.41364 0.492584 0
M  V30 2256 H 211.399 -2.85213 0.709279 0
M  V30 2257 H 208.913 -1.54869 0.488822 0
M  V30 2258 H 210.91 -3.87736 -1.53188 0
M  V30 2259 H 209.57 -2.7244 -1.76654 0
M  V30 2260 H 210.581 -5.06115 1.09855 0
M  V30 2261 H 207.258 -3.98449 -1.24679 0
M  V30 2262 H 208.648 -6.4214 1.97751 0
M  V30 2263 N 211.368 -0.403325 -1.52352 0
M  V30 2264 C 212.645 0.232611 -1.94212 0
M  V30 2265 C 213.025 1.63133 -1.33981 0
M  V30 2266 O 212.373 2.22659 -0.513344 0
M  V30 2267 C 212.583 0.244811 -3.4814 0
M  V30 2268 C 213.931 0.46698 -4.22024 0
M  V30 2269 O 214.955 0.324419 -3.5472 0
M  V30 2270 O 213.814 0.74747 -5.41364 0
M  V30 2271 H 210.908 0.148223 -0.813609 0
M  V30 2272 H 213.454 -0.458848 -1.63379 0
M  V30 2273 H 212.226 -0.734378 -3.84347 0
M  V30 2274 H 211.849 0.980611 -3.85318 0
M  V30 2275 N 212.846 1.57033 -0.133567 0
M  V30 2276 C 213.756 2.19632 0.824564 0
M  V30 2277 C 214.772 1.17666 1.28182 0
M  V30 2278 O 215.948 1.50193 1.3418 0
M  V30 2279 C 213.013 2.79499 2.05137 0
M  V30 2280 C 212.074 3.96548 1.64464 0
M  V30 2281 C 211.307 4.5355 2.81297 0
M  V30 2282 O 211.53 4.09438 3.97136 0
M  V30 2283 O 210.464 5.44018 2.57542 0
M  V30 2284 H 214.29 3.01991 0.321766 0
M  V30 2285 H 211.875 1.49112 0.0927889 0
M  V30 2286 H 213.757 3.17602 2.7696 0
M  V30 2287 H 212.432 2.00162 2.54395 0
M  V30 2288 H 211.339 3.63186 0.897048 0
M  V30 2289 H 212.672 4.77364 1.19934 0
M  V30 2290 N 214.325 -0.140222 1.56975 0
M  V30 2291 C 215.573 -0.850005 1.83356 0
M  V30 2292 C 215.894 -1.81399 0.71551 0
M  V30 2293 O 215.164 -1.94136 -0.262294 0
M  V30 2294 H 213.744 -0.316886 0.676456 0
M  V30 2295 H 216.406 -0.132608 1.94448 0
M  V30 2296 H 215.502 -1.40814 2.78528 0
M  V30 2297 N 215.803 -1.52179 -0.40978 0
M  V30 2298 C 217.08 -1.56769 -1.16974 0
M  V30 2299 C 217.46 -0.348322 -2.08206 0
M  V30 2300 O 216.808 0.664862 -2.18613 0
M  V30 2301 C 217.018 -2.89603 -1.9476 0
M  V30 2302 C 218.366 -3.42579 -2.50849 0
M  V30 2303 O 219.39 -2.91338 -2.04941 0
M  V30 2304 O 218.249 -4.32054 -3.34652 0
M  V30 2305 H 215.343 -0.631439 -0.534054 0
M  V30 2306 H 217.889 -1.64507 -0.416613 0
M  V30 2307 H 216.661 -3.698 -1.27921 0
M  V30 2308 H 216.284 -2.85155 -2.77079 0
M  V30 2309 N 217.281 0.66697 -1.42791 0
M  V30 2310 C 218.213 1.7925 -1.42836 0
M  V30 2311 C 219.226 1.59496 -0.326333 0
M  V30 2312 O 220.415 1.6847 -0.589916 0
M  V30 2313 C 217.515 3.16476 -1.21229 0
M  V30 2314 C 216.688 3.63011 -2.44013 0
M  V30 2315 C 215.747 4.78993 -2.17834 0
M  V30 2316 O 214.773 4.89137 -2.91091 0
M  V30 2317 N 215.975 5.68248 -1.18635 0
M  V30 2318 H 218.74 1.79695 -2.39854 0
M  V30 2319 H 216.301 0.850338 -1.37771 0
M  V30 2320 H 218.293 3.91734 -1.01621 0
M  V30 2321 H 216.863 3.10884 -0.32706 0
M  V30 2322 H 216.083 2.78346 -2.79137 0
M  V30 2323 H 217.371 3.90845 -3.25757 0
M  V30 2324 H 216.769 5.62712 -0.580615 0
M  V30 2325 H 215.326 6.43285 -1.05013 0
M  V30 2326 N 218.759 1.29093 0.90403 0
M  V30 2327 C 219.999 1.18076 1.66845 0
M  V30 2328 C 220.363 -0.26436 1.90171 0
M  V30 2329 O 221.564 -0.497423 2.64157 0
M  V30 2330 C 219.835 1.96722 2.98388 0
M  V30 2331 S 221.394 2.0219 3.89441 0
M  V30 2332 H 218.212 0.421104 0.572881 0
M  V30 2333 H 220.814 1.63322 1.07453 0
M  V30 2334 H 219.518 3.00866 2.7912 0
M  V30 2335 H 219.049 1.52064 3.62823 0
M  V30 2336 H 221.064 1.13545 4.83034 0
M  V30 2337 N 220.237 -1.11381 1.11499 0
M  V30 2338 C 221.462 -1.87475 0.887019 0
M  V30 2339 C 221.887 -1.79639 -0.557796 0
M  V30 2340 O 221.245 -1.15924 -1.39396 0
M  V30 2341 C 221.293 -3.34213 1.35403 0
M  V30 2342 O 220.397 -4.0903 0.526146 0
M  V30 2343 H 219.738 -0.582099 0.319463 0
M  V30 2344 H 222.268 -1.40785 1.48461 0
M  V30 2345 H 222.278 -3.8506 1.34881 0
M  V30 2346 H 220.953 -3.39232 2.40612 0
M  V30 2347 H 219.53 -3.68082 0.597522 0
M  V30 2348 N 221.715 -0.905404 -1.28997 0
M  V30 2349 C 223.131 -0.60233 -1.47798 0
M  V30 2350 C 223.331 0.854645 -1.82478 0
M  V30 2351 O 222.387 1.63439 -1.92468 0
M  V30 2352 C 223.7 -1.53306 -2.58685 0
M  V30 2353 C 225.248 -1.53887 -2.72558 0
M  V30 2354 C 225.723 -2.45602 -3.86579 0
M  V30 2355 N 227.214 -2.43681 -3.93921 0
M  V30 2356 C 227.949 -3.11347 -4.81509 0
M  V30 2357 N 227.445 -3.88313 -5.73746 0
M  V30 2358 N 229.238 -3.00476 -4.75048 0
M  V30 2359 H 221.389 -1.84765 -1.04764 0
M  V30 2360 H 223.652 -0.792025 -0.520961 0
M  V30 2361 H 223.358 -2.57141 -2.39941 0
M  V30 2362 H 223.232 -1.25787 -3.55609 0
M  V30 2363 H 225.619 -0.507941 -2.90696 0
M  V30 2364 H 225.7 -1.85447 -1.76191 0
M  V30 2365 H 225.344 -3.48792 -3.69197 0
M  V30 2366 H 225.274 -2.11349 -4.82327 0
M  V30 2367 H 227.765 -1.87767 -3.27951 0
M  V30 2368 H 228.078 -4.36985 -6.37389 0
M  V30 2369 H 226.423 -3.92419 -5.73614 0
M  V30 2370 H 229.614 -2.39858 -4.01977 0
M  V30 2371 H 229.787 -3.53485 -5.43095 0
M  V30 2372 N 223.193 1.4272 -0.668489 0
M  V30 2373 C 224.123 2.335 -0.000100175 0
M  V30 2374 C 225.104 1.50328 0.795964 0
M  V30 2375 O 226.289 1.78949 0.754385 0
M  V30 2376 C 223.419 3.33874 0.956302 0
M  V30 2377 C 222.373 4.27152 0.269278 0
M  V30 2378 C 221.699 5.17684 1.33818 0
M  V30 2379 C 222.999 5.15373 -0.847805 0
M  V30 2380 H 224.693 2.89639 -0.758244 0
M  V30 2381 H 222.239 1.39269 -0.366079 0
M  V30 2382 H 224.192 3.9629 1.43292 0
M  V30 2383 H 222.916 2.76025 1.74579 0
M  V30 2384 H 221.575 3.66123 -0.187042 0
M  V30 2385 H 221.223 4.56165 2.1195 0
M  V30 2386 H 220.923 5.80918 0.883659 0
M  V30 2387 H 222.447 5.82974 1.81586 0
M  V30 2388 H 223.861 5.7151 -0.452681 0
M  V30 2389 H 222.258 5.87407 -1.22773 0
M  V30 2390 H 223.328 4.5415 -1.69929 0
M  V30 2391 N 224.671 0.411399 1.52136 0
M  V30 2392 C 225.601 -0.404015 2.29978 0
M  V30 2393 C 226.582 -1.04412 1.34284 0
M  V30 2394 O 227.767 -1.0527 1.63192 0
M  V30 2395 C 224.897 -1.5197 3.12286 0
M  V30 2396 C 223.851 -1.00448 4.16046 0
M  V30 2397 C 223.177 -2.21393 4.86712 0
M  V30 2398 C 224.477 -0.0569336 5.22269 0
M  V30 2399 H 226.171 0.245529 2.98392 0
M  V30 2400 H 223.717 0.119525 1.43503 0
M  V30 2401 H 225.67 -2.09715 3.6551 0
M  V30 2402 H 224.394 -2.19716 2.41646 0
M  V30 2403 H 223.053 -0.449421 3.63835 0
M  V30 2404 H 222.701 -2.87699 4.12599 0
M  V30 2405 H 222.401 -1.87571 5.56858 0
M  V30 2406 H 223.925 -2.7974 5.4275 0
M  V30 2407 H 225.339 -0.54325 5.7072 0
M  V30 2408 H 223.736 0.192594 5.99791 0
M  V30 2409 H 224.806 0.887663 4.76706 0
M  V30 2410 N 226.149 -1.5696 0.141893 0
M  V30 2411 C 227.059 -2.20066 -0.812905 0
M  V30 2412 C 228.075 -1.18344 -1.27557 0
M  V30 2413 O 229.251 -1.50902 -1.33381 0
M  V30 2414 C 226.316 -2.80583 -2.03652 0
M  V30 2415 C 225.377 -3.97414 -1.62359 0
M  V30 2416 C 224.61 -4.55036 -2.78887 0
M  V30 2417 O 224.833 -4.11538 -3.94959 0
M  V30 2418 O 223.767 -5.45376 -2.54653 0
M  V30 2419 H 227.593 -3.02157 -0.305746 0
M  V30 2420 H 225.178 -1.49159 -0.0848799 0
M  V30 2421 H 227.06 -3.19067 -2.75272 0
M  V30 2422 H 225.735 -2.01508 -2.5333 0
M  V30 2423 H 224.642 -3.63656 -0.877775 0
M  V30 2424 H 225.975 -4.77994 -1.17401 0
M  V30 2425 N 227.627 0.131896 -1.57047 0
M  V30 2426 C 228.557 1.16384 -2.02428 0
M  V30 2427 C 229.538 1.43936 -0.90644 0
M  V30 2428 O 230.723 1.54599 -1.17528 0
M  V30 2429 C 227.853 2.49328 -2.4177 0
M  V30 2430 C 226.807 2.36266 -3.56879 0
M  V30 2431 C 226.133 3.74057 -3.8208 0
M  V30 2432 C 227.433 1.834 -4.89042 0
M  V30 2433 H 229.127 0.786433 -2.88887 0
M  V30 2434 H 226.673 0.376855 -1.38981 0
M  V30 2435 H 228.626 3.21759 -2.7212 0
M  V30 2436 H 227.35 2.88934 -1.52266 0
M  V30 2437 H 226.009 1.66286 -3.26718 0
M  V30 2438 H 225.657 4.11125 -2.89803 0
M  V30 2439 H 225.357 3.66174 -4.59554 0
M  V30 2440 H 226.881 4.48012 -4.1487 0
M  V30 2441 H 228.295 2.45636 -5.18011 0
M  V30 2442 H 226.692 1.8637 -5.70426 0
M  V30 2443 H 227.762 0.790662 -4.7841 0
M  V30 2444 N 229.106 1.52395 0.401703 0
M  V30 2445 C 230.352 1.67065 1.14966 0
M  V30 2446 C 230.685 0.403052 1.89971 0
M  V30 2447 O 229.96 -0.598774 1.85054 0
M  V30 2448 C 230.243 2.8975 2.13815 0
M  V30 2449 C 230.096 4.26578 1.42658 0
M  V30 2450 C 231.415 3.07965 3.14397 0
M  V30 2451 H 228.534 0.607968 0.416587 0
M  V30 2452 H 231.176 1.84965 0.434511 0
M  V30 2453 H 229.326 2.74619 2.74803 0
M  V30 2454 H 230.998 4.53451 0.847329 0
M  V30 2455 H 229.241 4.27639 0.72849 0
M  V30 2456 H 229.912 5.08483 2.14823 0
M  V30 2457 H 232.388 3.22043 2.63491 0
M  V30 2458 H 231.264 3.95308 3.80819 0
M  V30 2459 H 231.525 2.21611 3.82545 0
M  V30 2460 N 230.584 -0.659388 1.43143 0
M  V30 2461 C 231.531 -1.77249 1.47822 0
M  V30 2462 C 232.501 -1.62818 0.328558 0
M  V30 2463 O 233.686 -1.83151 0.534838 0
M  V30 2464 C 230.826 -3.15371 1.40126 0
M  V30 2465 C 229.939 -3.4098 2.65249 0
M  V30 2466 C 229.074 -4.68915 2.49584 0
M  V30 2467 C 228.113 -4.87608 3.70006 0
M  V30 2468 N 227.25 -6.06796 3.53189 0
M  V30 2469 H 232.09 -1.72584 2.42938 0
M  V30 2470 H 229.627 -0.842297 1.20598 0
M  V30 2471 H 231.585 -3.9521 1.33659 0
M  V30 2472 H 230.215 -3.19121 0.485964 0
M  V30 2473 H 229.267 -2.55282 2.8202 0
M  V30 2474 H 230.579 -3.50681 3.54717 0
M  V30 2475 H 229.733 -5.56871 2.4079 0
M  V30 2476 H 228.472 -4.61524 1.5763 0
M  V30 2477 H 227.477 -3.9809 3.79215 0
M  V30 2478 H 228.702 -4.96834 4.62961 0
M  V30 2479 H 226.648 -6.00549 2.63965 0
M  V30 2480 H 226.565 -6.17428 4.36255 0
M  V30 2481 H 227.833 -6.9739 3.48236 0
M  V30 2482 N 232.062 -1.29571 -0.897171 0
M  V30 2483 C 233.339 -1.08365 -1.62839 0
M  V30 2484 C 233.719 0.371331 -2.07808 0
M  V30 2485 O 233.067 1.3606 -1.83576 0
M  V30 2486 C 233.277 -2.0735 -2.80726 0
M  V30 2487 C 234.625 -2.38406 -3.51351 0
M  V30 2488 O 235.649 -2.05564 -2.90898 0
M  V30 2489 O 234.508 -2.9453 -4.60341 0
M  V30 2490 H 231.602 -0.415345 -0.715134 0
M  V30 2491 H 234.148 -1.40952 -0.945018 0
M  V30 2492 H 232.92 -3.05339 -2.44711 0
M  V30 2493 H 232.543 -1.75507 -3.56767 0
M  V30 2494 N 233.54 1.10788 -1.12088 0
M  V30 2495 C 234.789 1.82036 -0.868659 0
M  V30 2496 C 235.102 1.85929 0.607426 0
M  V30 2497 O 236.308 2.53346 0.97613 0
M  V30 2498 C 234.764 3.26951 -1.50435 0
M  V30 2499 C 234.372 3.31367 -3.01496 0
M  V30 2500 C 236.116 4.03053 -1.33225 0
M  V30 2501 C 234.023 4.7072 -3.58017 0
M  V30 2502 H 232.953 0.682108 -0.321318 0
M  V30 2503 H 235.604 1.24618 -1.34694 0
M  V30 2504 H 233.986 3.84343 -0.953735 0
M  V30 2505 H 235.16 2.83819 -3.6302 0
M  V30 2506 H 233.475 2.6875 -3.18061 0
M  V30 2507 H 236.072 5.05981 -1.72878 0
M  V30 2508 H 236.415 4.15387 -0.275529 0
M  V30 2509 H 236.948 3.52066 -1.85188 0
M  V30 2510 H 233.687 4.63585 -4.63432 0
M  V30 2511 H 233.207 5.1865 -3.01268 0
M  V30 2512 H 234.886 5.39685 -3.56859 0
M  V30 2513 N 235.018 0.912232 1.28515 0
M  V30 2514 C 236.243 0.559774 1.99703 0
M  V30 2515 C 236.668 -0.851393 1.67729 0
M  V30 2516 O 236.026 -1.56875 0.908834 0
M  V30 2517 C 236.074 0.773874 3.52198 0
M  V30 2518 O 235.178 -0.167842 4.12058 0
M  V30 2519 H 234.519 0.21723 0.627461 0
M  V30 2520 H 237.049 1.22725 1.63706 0
M  V30 2521 H 237.059 0.683386 4.02236 0
M  V30 2522 H 235.734 1.80261 3.74805 0
M  V30 2523 H 234.311 -0.0287509 3.72889 0
M  V30 2524 N 236.496 -1.42363 0.676048 0
M  V30 2525 C 237.721 -2.06377 0.205705 0
M  V30 2526 C 238.146 -1.50463 -1.12883 0
M  V30 2527 O 237.504 -0.623619 -1.70237 0
M  V30 2528 C 237.552 -3.60277 0.152655 0
M  V30 2529 O 236.656 -4.02935 -0.87845 0
M  V30 2530 H 235.997 -0.655588 0.105359 0
M  V30 2531 H 238.527 -1.82475 0.925412 0
M  V30 2532 H 238.537 -4.07993 -0.0230675 0
M  V30 2533 H 237.212 -4.00346 1.12675 0
M  V30 2534 H 235.789 -3.66764 -0.673668 0
M  V30 2535 N 237.974 -0.419461 -1.51915 0
M  V30 2536 C 238.924 0.418496 -2.24126 0
M  V30 2537 C 239.908 1.00495 -1.25656 0
M  V30 2538 O 241.1 0.926058 -1.50842 0
M  V30 2539 C 238.229 1.52899 -3.07371 0
M  V30 2540 C 237.315 0.952797 -4.13258 0
M  V30 2541 N 237.706 0.104175 -5.05693 0
M  V30 2542 C 236.004 1.22224 -4.28926 0
M  V30 2543 C 236.705 -0.21752 -5.81293 0
M  V30 2544 N 235.681 0.394293 -5.42168 0
M  V30 2545 H 239.483 -0.236048 -2.92951 0
M  V30 2546 H 236.997 -0.230481 -1.60756 0
M  V30 2547 H 238.994 2.14199 -3.57665 0
M  V30 2548 H 237.654 2.18605 -2.40088 0
M  V30 2549 H 238.665 -0.260924 -5.17242 0
M  V30 2550 H 235.342 1.87812 -3.72871 0
M  V30 2551 H 236.732 -0.906992 -6.6575 0
M  V30 2552 N 239.452 1.56882 -0.150215 0
M  V30 2553 C 240.382 2.19935 0.784284 0
M  V30 2554 C 241.363 1.14854 1.25469 0
M  V30 2555 O 242.548 1.43209 1.31168 0
M  V30 2556 C 239.678 2.82349 2.02229 0
M  V30 2557 C 238.632 3.93285 1.68853 0
M  V30 2558 C 237.958 4.42649 2.99944 0
M  V30 2559 C 239.258 5.13904 0.932714 0
M  V30 2560 H 240.952 2.9828 0.258781 0
M  V30 2561 H 238.498 1.43473 0.123029 0
M  V30 2562 H 240.451 3.25126 2.68088 0
M  V30 2563 H 239.175 2.0134 2.57157 0
M  V30 2564 H 237.834 3.5113 1.05371 0
M  V30 2565 H 237.482 3.58458 3.52869 0
M  V30 2566 H 237.182 5.17476 2.78374 0
M  V30 2567 H 238.706 4.88099 3.66868 0
M  V30 2568 H 240.12 5.53506 1.49345 0
M  V30 2569 H 238.517 5.94515 0.81684 0
M  V30 2570 H 239.587 4.84842 -0.0749568 0
M  V30 2571 N 240.93 -0.123565 1.57115 0
M  V30 2572 C 242.207 -0.862196 1.75572 0
M  V30 2573 C 242.587 -1.98279 0.724475 0
M  V30 2574 O 241.935 -2.27102 -0.252407 0
M  V30 2575 C 242.145 -1.38309 3.20424 0
M  V30 2576 C 243.493 -1.83724 3.82793 0
M  V30 2577 O 244.517 -1.47999 3.23998 0
M  V30 2578 O 243.376 -2.49685 4.86127 0
M  V30 2579 H 240.47 -0.409113 0.718718 0
M  V30 2580 H 243.016 -0.107661 1.69358 0
M  V30 2581 H 241.788 -0.578889 3.86994 0
M  V30 2582 H 241.411 -2.20046 3.31158 0
M  V30 2583 N 242.408 -1.52605 -0.393616 0
M  V30 2584 C 243.654 -1.67672 -1.14079 0
M  V30 2585 C 243.987 -0.413121 -1.89755 0
M  V30 2586 O 243.262 0.588952 -1.85369 0
M  V30 2587 C 243.545 -2.9088 -2.12276 0
M  V30 2588 C 243.398 -4.27329 -1.40394 0
M  V30 2589 C 244.717 -3.09628 -3.12759 0
M  V30 2590 H 241.836 -0.610168 -0.413356 0
M  V30 2591 H 244.478 -1.85193 -0.424696 0
M  V30 2592 H 242.628 -2.76073 -2.73342 0
M  V30 2593 H 244.3 -4.53894 -0.82327 0
M  V30 2594 H 242.543 -4.2802 -0.705801 0
M  V30 2595 H 243.214 -5.09615 -2.12123 0
M  V30 2596 H 245.69 -3.23436 -2.61779 0
M  V30 2597 H 244.566 -3.97322 -3.78717 0
M  V30 2598 H 244.827 -2.23637 -3.81365 0
M  V30 2599 N 243.887 0.651787 -1.4349 0
M  V30 2600 C 245.115 1.43937 -1.48626 0
M  V30 2601 C 245.53 1.8851 -0.104587 0
M  V30 2602 O 244.887 1.5958 0.885464 0
M  V30 2603 C 244.938 2.6734 -2.43334 0
M  V30 2604 O 244.659 2.24631 -3.76128 0
M  V30 2605 C 246.16 3.60683 -2.57726 0
M  V30 2606 H 243.38 0.44213 -0.504739 0
M  V30 2607 H 245.924 0.798944 -1.88248 0
M  V30 2608 H 244.079 3.2752 -2.06904 0
M  V30 2609 H 244.493 3.04485 -4.2707 0
M  V30 2610 H 245.967 4.43933 -3.28067 0
M  V30 2611 H 246.444 4.08126 -1.62265 0
M  V30 2612 H 247.05 3.06384 -2.94973 0
M  V30 2613 N 245.365 1.30045 0.890287 0
M  V30 2614 C 246.328 1.15963 1.977 0
M  V30 2615 C 247.328 0.0923777 1.60534 0
M  V30 2616 O 248.518 0.340071 1.70848 0
M  V30 2617 C 245.65 0.775451 3.31963 0
M  V30 2618 H 246.843 2.12502 2.11619 0
M  V30 2619 H 244.396 1.13366 1.07601 0
M  V30 2620 H 245.131 -0.189671 3.23745 0
M  V30 2621 H 244.916 1.54668 3.60306 0
M  V30 2622 H 246.406 0.700251 4.11687 0
M  V30 2623 N 246.843 -1.10192 1.12674 0
M  V30 2624 C 247.773 -2.18652 0.819362 0
M  V30 2625 C 248.754 -1.68698 -0.217915 0
M  V30 2626 O 249.939 -1.94041 -0.0785581 0
M  V30 2627 C 247.069 -3.46202 0.27594 0
M  V30 2628 C 246.023 -4.09444 1.24656 0
M  V30 2629 C 245.349 -5.31725 0.563258 0
M  V30 2630 C 246.649 -4.52863 2.60217 0
M  V30 2631 H 248.343 -2.44622 1.72628 0
M  V30 2632 H 245.889 -1.17571 0.831451 0
M  V30 2633 H 247.842 -4.21372 0.0486149 0
M  V30 2634 H 246.566 -3.1973 -0.666331 0
M  V30 2635 H 245.225 -3.36284 1.45974 0
M  V30 2636 H 244.873 -5.0153 -0.384235 0
M  V30 2637 H 244.573 -5.74991 1.21075 0
M  V30 2638 H 246.097 -6.09624 0.34503 0
M  V30 2639 H 247.511 -5.19294 2.42913 0
M  V30 2640 H 245.908 -5.06986 3.21068 0
M  V30 2641 H 246.978 -3.65656 3.18471 0
M  V30 2642 N 248.321 -0.919034 -1.28029 0
M  V30 2643 C 249.561 -0.562107 -1.96519 0
M  V30 2644 C 249.925 0.878784 -1.70708 0
M  V30 2645 O 251.126 1.34355 -2.32813 0
M  V30 2646 C 249.397 -0.868953 -3.46676 0
M  V30 2647 S 250.956 -0.619237 -4.34409 0
M  V30 2648 H 247.774 -0.2078 -0.679956 0
M  V30 2649 H 250.376 -1.18562 -1.55446 0
M  V30 2650 H 249.08 -1.91547 -3.62957 0
M  V30 2651 H 248.611 -0.234301 -3.92702 0
M  V30 2652 H 250.626 0.526995 -4.93394 0
M  V30 2653 N 249.799 1.42003 -0.683588 0
M  V30 2654 C 250.749 2.27997 0.0121992 0
M  V30 2655 C 251.733 1.4156 0.764822 0
M  V30 2656 O 252.925 1.64935 0.642287 0
M  V30 2657 C 250.054 3.29706 0.956482 0
M  V30 2658 C 249.14 4.23625 0.200739 0
M  V30 2659 N 249.531 4.99448 -0.799087 0
M  V30 2660 C 247.829 4.43845 0.437937 0
M  V30 2661 C 248.53 5.68102 -1.25041 0
M  V30 2662 N 247.506 5.40511 -0.578648 0
M  V30 2663 H 251.308 2.84048 -0.754564 0
M  V30 2664 H 248.822 1.54071 -0.513398 0
M  V30 2665 H 250.819 3.90124 1.47 0
M  V30 2666 H 249.479 2.75216 1.72297 0
M  V30 2667 H 250.49 5.04303 -1.17893 0
M  V30 2668 H 247.167 4.00382 1.18325 0
M  V30 2669 H 248.557 6.38913 -2.07942 0
M  V30 2670 N 251.277 0.427512 1.51691 0
M  V30 2671 C 252.224 -0.388867 2.275 0
M  V30 2672 C 253.194 -1.02532 1.30677 0
M  V30 2673 O 254.379 -1.0461 1.59566 0
M  V30 2674 C 251.519 -1.48954 3.11298 0
M  V30 2675 C 250.632 -0.872194 4.23104 0
M  V30 2676 C 249.767 -1.94709 4.94228 0
M  V30 2677 C 248.806 -1.30766 5.97969 0
M  V30 2678 N 247.943 -2.32349 6.62539 0
M  V30 2679 H 252.783 0.263997 2.96828 0
M  V30 2680 H 250.32 0.142033 1.46413 0
M  V30 2681 H 252.278 -2.13887 3.58201 0
M  V30 2682 H 250.908 -2.11217 2.44105 0
M  V30 2683 H 249.96 -0.111419 3.80237 0
M  V30 2684 H 251.272 -0.365264 4.97461 0
M  V30 2685 H 250.426 -2.67327 5.44629 0
M  V30 2686 H 249.165 -2.48773 4.1948 0
M  V30 2687 H 248.17 -0.566902 5.4687 0
M  V30 2688 H 249.395 -0.774483 6.74669 0
M  V30 2689 H 247.341 -2.85511 5.90609 0
M  V30 2690 H 247.258 -1.8652 7.3263 0
M  V30 2691 H 248.526 -3.04481 7.17574 0
M  V30 2692 N 252.755 -1.56801 0.158532 0
M  V30 2693 C 254.004 -1.95665 -0.489702 0
M  V30 2694 C 254.317 -1.04654 -1.65248 0
M  V30 2695 O 255.523 -1.33146 -2.3661 0
M  V30 2696 C 253.979 -3.47874 -0.922582 0
M  V30 2697 C 253.587 -4.47489 0.213893 0
M  V30 2698 C 255.331 -3.95583 -1.53996 0
M  V30 2699 C 253.238 -5.90921 -0.237903 0
M  V30 2700 H 252.168 -0.730516 -0.186716 0
M  V30 2701 H 254.819 -1.81861 0.244722 0
M  V30 2702 H 253.201 -3.57051 -1.71261 0
M  V30 2703 H 254.375 -4.50017 0.991036 0
M  V30 2704 H 252.69 -4.09764 0.740407 0
M  V30 2705 H 255.287 -5.0019 -1.8898 0
M  V30 2706 H 255.63 -3.37789 -2.43319 0
M  V30 2707 H 256.163 -3.8937 -0.814611 0
M  V30 2708 H 252.902 -6.52559 0.620236 0
M  V30 2709 H 252.422 -5.91729 -0.980676 0
M  V30 2710 H 254.101 -6.43352 -0.686067 0
M  V30 2711 N 254.233 0.115231 -1.57178 0
M  V30 2712 C 255.48 0.822351 -1.8505 0
M  V30 2713 C 255.808 1.79701 -0.744168 0
M  V30 2714 O 255.063 1.93909 0.26414 0
M  V30 2715 C 255.362 1.60324 -3.19423 0
M  V30 2716 C 255.028 0.772536 -4.44233 0
M  V30 2717 C 253.69 0.543468 -4.78121 0
M  V30 2718 C 256.042 0.193746 -5.2084 0
M  V30 2719 C 253.37 -0.274583 -5.86057 0
M  V30 2720 C 255.722 -0.611517 -6.29637 0
M  V30 2721 C 254.386 -0.850867 -6.62055 0
M  V30 2722 H 253.656 0.30092 -0.677147 0
M  V30 2723 H 256.303 0.0845802 -1.91313 0
M  V30 2724 H 254.608 2.41203 -3.08753 0
M  V30 2725 H 256.305 2.1544 -3.38211 0
M  V30 2726 H 252.895 0.96117 -4.17683 0
M  V30 2727 H 257.079 0.357926 -4.95008 0
M  V30 2728 H 252.335 -0.469206 -6.09597 0
M  V30 2729 H 256.509 -1.06697 -6.88178 0
M  V30 2730 H 254.136 -1.48657 -7.45523 0
M  V30 2731 N 255.711 1.52812 0.385517 0
M  V30 2732 C 256.641 1.80808 1.47752 0
M  V30 2733 C 257.622 0.660318 1.5676 0
M  V30 2734 O 258.807 0.908246 1.71652 0
M  V30 2735 C 255.937 1.98008 2.85324 0
M  V30 2736 C 254.891 3.13709 2.91154 0
M  V30 2737 C 254.217 3.16169 4.31209 0
M  V30 2738 C 255.517 4.52709 2.60483 0
M  V30 2739 H 257.211 2.72253 1.24573 0
M  V30 2740 H 254.757 1.31003 0.597839 0
M  V30 2741 H 256.71 2.16176 3.61726 0
M  V30 2742 H 255.434 1.03255 3.09848 0
M  V30 2743 H 254.093 2.95329 2.17201 0
M  V30 2744 H 253.741 2.19092 4.52778 0
M  V30 2745 H 253.441 3.93894 4.36029 0
M  V30 2746 H 254.965 3.36496 5.09512 0
M  V30 2747 H 256.379 4.71173 3.26602 0
M  V30 2748 H 254.776 5.32528 2.76648 0
M  V30 2749 H 255.846 4.59186 1.55809 0
M  V30 2750 N 257.189 -0.644168 1.43834 0
M  V30 2751 C 258.139 -1.7501 1.46135 0
M  V30 2752 C 259.123 -1.57507 0.328685 0
M  V30 2753 O 260.315 -1.67465 0.5731 0
M  V30 2754 C 257.444 -3.13641 1.39585 0
M  V30 2755 C 256.53 -3.3666 2.57916 0
M  V30 2756 N 256.921 -3.30107 3.83227 0
M  V30 2757 C 255.219 -3.67411 2.52834 0
M  V30 2758 C 255.92 -3.53456 4.61999 0
M  V30 2759 N 254.896 -3.75705 3.9287 0
M  V30 2760 H 258.698 -1.68382 2.40883 0
M  V30 2761 H 256.212 -0.846169 1.38614 0
M  V30 2762 H 258.209 -3.92933 1.39317 0
M  V30 2763 H 256.869 -3.21444 0.45865 0
M  V30 2764 H 257.88 -3.09316 4.15384 0
M  V30 2765 H 254.557 -3.82275 1.67845 0
M  V30 2766 H 255.947 -3.54093 5.71024 0
M  V30 2767 N 258.668 -1.30515 -0.883378 0
M  V30 2768 C 259.917 -1.18795 -1.63005 0
M  V30 2769 C 260.23 0.255923 -1.93919 0
M  V30 2770 O 261.436 0.494654 -2.66956 0
M  V30 2771 C 259.892 -2.07878 -2.93794 0
M  V30 2772 C 259.5 -3.57184 -2.70414 0
M  V30 2773 C 261.244 -2.04924 -3.71761 0
M  V30 2774 C 259.151 -4.38317 -3.97029 0
M  V30 2775 H 258.081 -0.441031 -0.611562 0
M  V30 2776 H 260.732 -1.55275 -0.977854 0
M  V30 2777 H 259.114 -1.64283 -3.60315 0
M  V30 2778 H 260.288 -4.08937 -2.12384 0
M  V30 2779 H 258.603 -3.61976 -2.0582 0
M  V30 2780 H 261.2 -2.62792 -4.65665 0
M  V30 2781 H 261.543 -1.0331 -4.03277 0
M  V30 2782 H 262.076 -2.46649 -3.12104 0
M  V30 2783 H 258.815 -5.40632 -3.70671 0
M  V30 2784 H 258.335 -3.91326 -4.54559 0
M  V30 2785 H 260.014 -4.49834 -4.65036 0
M  V30 2786 N 260.146 1.09593 -1.13257 0
M  V30 2787 C 261.096 2.14345 -0.777179 0
M  V30 2788 C 262.08 1.59277 0.227966 0
M  V30 2789 O 263.272 1.76971 0.0321413 0
M  V30 2790 C 260.401 3.42439 -0.242991 0
M  V30 2791 C 259.487 4.04419 -1.27694 0
M  V30 2792 N 259.878 4.40979 -2.47732 0
M  V30 2793 C 258.176 4.31596 -1.12432 0
M  V30 2794 C 258.877 4.89784 -3.13826 0
M  V30 2795 N 257.853 4.87133 -2.41252 0
M  V30 2796 H 261.655 2.40415 -1.69049 0
M  V30 2797 H 259.169 1.26803 -1.01463 0
M  V30 2798 H 261.166 4.16889 0.0298496 0
M  V30 2799 H 259.826 3.17824 0.66467 0
M  V30 2800 H 260.837 4.32396 -2.85051 0
M  V30 2801 H 257.514 4.16595 -0.274684 0
M  V30 2802 H 258.904 5.2755 -4.16102 0
M  V30 2803 N 261.624 0.925811 1.2754 0
M  V30 2804 C 262.872 0.564138 1.94067 0
M  V30 2805 C 263.193 -0.897188 1.73134 0
M  V30 2806 O 262.463 -1.63573 1.07799 0
M  V30 2807 H 261.043 0.205645 0.718136 0
M  V30 2808 H 263.705 1.1778 1.55287 0
M  V30 2809 H 262.801 0.76881 3.02483 0
M  V30 2810 N 263.102 -1.41638 0.69111 0
M  V30 2811 C 264.032 -2.3347 0.037248 0
M  V30 2812 C 265.013 -1.51575 -0.771947 0
M  V30 2813 O 266.198 -1.80126 -0.72582 0
M  V30 2814 C 263.328 -3.35354 -0.903064 0
M  V30 2815 C 262.282 -4.27526 -0.201288 0
M  V30 2816 C 261.608 -5.19747 -1.25565 0
M  V30 2817 C 262.908 -5.13959 0.929689 0
M  V30 2818 H 264.602 -2.88397 0.804227 0
M  V30 2819 H 262.148 -1.38669 0.388189 0
M  V30 2820 H 264.101 -3.98519 -1.36969 0
M  V30 2821 H 262.825 -2.78767 -1.70166 0
M  V30 2822 H 261.484 -3.65779 0.245265 0
M  V30 2823 H 261.132 -4.59479 -2.04666 0
M  V30 2824 H 260.832 -5.8225 -0.791128 0
M  V30 2825 H 262.356 -5.85789 -1.72288 0
M  V30 2826 H 263.77 -5.70718 0.543546 0
M  V30 2827 H 262.167 -5.85379 1.32103 0
M  V30 2828 H 263.237 -4.51389 1.77133 0
M  V30 2829 N 264.58 -0.43555 -1.51462 0
M  V30 2830 C 265.829 0.133007 -2.01261 0
M  V30 2831 C 266.142 1.43942 -1.32439 0
M  V30 2832 O 267.348 2.09081 -1.73198 0
M  V30 2833 C 265.804 0.287581 -3.58749 0
M  V30 2834 C 265.412 -1.00829 -4.36506 0
M  V30 2835 C 267.156 0.810004 -4.167 0
M  V30 2836 C 265.063 -0.819454 -5.85695 0
M  V30 2837 H 263.993 0.0534822 -0.752101 0
M  V30 2838 H 266.644 -0.565038 -1.74584 0
M  V30 2839 H 265.026 1.04859 -3.81865 0
M  V30 2840 H 266.2 -1.77749 -4.25138 0
M  V30 2841 H 264.515 -1.45911 -3.89999 0
M  V30 2842 H 267.112 0.967743 -5.2587 0
M  V30 2843 H 267.455 1.79196 -3.75758 0
M  V30 2844 H 267.988 0.107357 -3.97655 0
M  V30 2845 H 264.727 -1.77374 -6.31046 0
M  V30 2846 H 264.247 -0.0900208 -5.99732 0
M  V30 2847 H 265.926 -0.471949 -6.45276 0
M  V30 2848 N 266.058 1.56714 -0.166846 0
M  V30 2849 C 267.283 2.01557 0.488833 0
M  V30 2850 C 267.708 1.0463 1.56314 0
M  V30 2851 O 267.066 0.0251304 1.81283 0
M  V30 2852 C 267.114 3.4503 1.04818 0
M  V30 2853 O 266.218 3.51163 2.16236 0
M  V30 2854 H 265.559 0.653516 0.117526 0
M  V30 2855 H 268.089 2.02818 -0.269421 0
M  V30 2856 H 268.099 3.84243 1.37191 0
M  V30 2857 H 266.774 4.15077 0.261572 0
M  V30 2858 H 265.351 3.23807 1.84942 0
M  V30 2859 N 267.536 -0.106894 1.57237 0
M  V30 2860 C 268.499 -1.11466 2.0027 0
M  V30 2861 C 269.499 -1.33623 0.894519 0
M  V30 2862 O 270.689 -1.29935 1.16028 0
M  V30 2863 C 267.821 -2.46646 2.35327 0
M  V30 2864 H 269.014 -0.744516 2.90512 0
M  V30 2865 H 266.567 -0.351576 1.52295 0
M  V30 2866 H 267.302 -2.88558 1.48003 0
M  V30 2867 H 267.087 -2.31915 3.16161 0
M  V30 2868 H 268.577 -3.19151 2.69318 0
M  V30 2869 N 269.014 -1.53014 -0.377408 0
M  V30 2870 C 270.291 -1.59215 -1.13622 0
M  V30 2871 C 270.671 -0.392407 -2.07421 0
M  V30 2872 O 270.019 0.618342 -2.19975 0
M  V30 2873 C 270.229 -2.93669 -1.88573 0
M  V30 2874 C 271.577 -3.47822 -2.43526 0
M  V30 2875 O 272.601 -2.9562 -1.98715 0
M  V30 2876 O 271.46 -4.39055 -3.25412 0
M  V30 2877 H 268.554 -0.642625 -0.52054 0
M  V30 2878 H 271.1 -1.65353 -0.381625 0
M  V30 2879 H 269.872 -3.7243 -1.20048 0
M  V30 2880 H 269.495 -2.90968 -2.70968 0
M  V30 2881 N 270.492 0.636531 -1.44174 0
M  V30 2882 C 271.908 0.954104 -1.27941 0
M  V30 2883 C 272.108 2.0039 -0.211248 0
M  V30 2884 O 271.164 2.49236 0.404695 0
M  V30 2885 C 272.477 1.4225 -2.64925 0
M  V30 2886 C 274.025 1.53827 -2.72592 0
M  V30 2887 C 274.5 2.04053 -4.10032 0
M  V30 2888 N 275.991 2.11331 -4.12182 0
M  V30 2889 C 276.726 2.51352 -5.15374 0
M  V30 2890 N 276.222 2.90549 -6.2893 0
M  V30 2891 N 278.015 2.51438 -5.02728 0
M  V30 2892 H 270.166 -0.0578386 -2.12321 0
M  V30 2893 H 272.429 0.0367406 -0.947288 0
M  V30 2894 H 272.135 0.725466 -3.44136 0
M  V30 2895 H 272.009 2.39451 -2.9145 0
M  V30 2896 H 274.396 2.22628 -1.93702 0
M  V30 2897 H 274.477 0.550154 -2.49814 0
M  V30 2898 H 274.121 1.35848 -4.89395 0
M  V30 2899 H 274.051 3.03726 -4.30184 0
M  V30 2900 H 276.542 1.83745 -3.30222 0
M  V30 2901 H 276.855 3.19884 -7.03487 0
M  V30 2902 H 275.2 2.88313 -6.32377 0
M  V30 2903 H 278.391 2.20203 -4.13072 0
M  V30 2904 H 278.564 2.82304 -5.83274 0
M  V30 2905 N 271.97 1.30982 0.876444 0
M  V30 2906 C 273.2 1.23063 1.65949 0
M  V30 2907 C 273.608 -0.207537 1.88058 0
M  V30 2908 O 272.951 -1.14781 1.43426 0
M  V30 2909 C 273.013 1.89768 3.05333 0
M  V30 2910 C 272.677 3.39106 3.0636 0
M  V30 2911 C 273.674 4.3496 2.84791 0
M  V30 2912 C 271.359 3.80693 3.27686 0
M  V30 2913 C 273.353 5.70375 2.84519 0
M  V30 2914 C 271.04 5.16223 3.27043 0
M  V30 2915 C 272.038 6.10875 3.05485 0
M  V30 2916 O 271.726 7.43928 3.04674 0
M  V30 2917 H 271.458 0.426685 0.524324 0
M  V30 2918 H 274.012 1.7329 1.10271 0
M  V30 2919 H 272.242 1.34082 3.6271 0
M  V30 2920 H 273.931 1.75853 3.65829 0
M  V30 2921 H 274.697 4.0416 2.68103 0
M  V30 2922 H 270.576 3.07457 3.43499 0
M  V30 2923 H 274.12 6.44228 2.67611 0
M  V30 2924 H 270.017 5.4666 3.43269 0
M  V30 2925 H 270.785 7.53022 3.2078 0
M  V30 2926 N 273.449 -1.08991 1.13837 0
M  V30 2927 C 274.674 -1.85551 0.926585 0
M  V30 2928 C 275.099 -1.80782 -0.519566 0
M  V30 2929 O 274.457 -1.18855 -1.36906 0
M  V30 2930 C 274.505 -3.31266 1.42462 0
M  V30 2931 O 273.609 -4.07822 0.612789 0
M  V30 2932 H 272.95 -0.575192 0.331738 0
M  V30 2933 H 275.48 -1.37604 1.51414 0
M  V30 2934 H 275.49 -3.82112 1.43019 0
M  V30 2935 H 274.165 -3.34052 2.47754 0
M  V30 2936 H 272.742 -3.66731 0.675463 0
M  V30 2937 N 274.927 -0.932562 -1.27047 0
M  V30 2938 C 275.857 -0.452902 -2.29066 0
M  V30 2939 C 276.838 0.489338 -1.62909 0
M  V30 2940 O 278.023 0.393046 -1.90181 0
M  V30 2941 C 275.153 0.290698 -3.46081 0
M  V30 2942 C 274.107 -0.564168 -4.24265 0
M  V30 2943 C 273.433 0.308886 -5.33807 0
M  V30 2944 C 274.733 -1.83112 -4.89149 0
M  V30 2945 H 276.427 -1.30552 -2.69437 0
M  V30 2946 H 273.973 -0.629201 -1.29526 0
M  V30 2947 H 275.926 0.637233 -4.16554 0
M  V30 2948 H 274.65 1.17738 -3.0464 0
M  V30 2949 H 273.309 -0.893477 -3.55545 0
M  V30 2950 H 272.957 1.19467 -4.88607 0
M  V30 2951 H 272.657 -0.259633 -5.87026 0
M  V30 2952 H 274.181 0.650884 -6.07121 0
M  V30 2953 H 275.595 -1.55236 -5.51883 0
M  V30 2954 H 273.992 -2.34353 -5.52448 0
M  V30 2955 H 275.062 -2.54772 -4.12576 0
M  V30 2956 N 276.405 1.4127 -0.698611 0
M  V30 2957 C 277.652 2.0118 -0.230865 0
M  V30 2958 C 277.98 1.55338 1.17049 0
M  V30 2959 O 277.235 0.756775 1.80475 0
M  V30 2960 C 277.534 3.56592 -0.240192 0
M  V30 2961 C 277.2 4.21955 -1.58948 0
M  V30 2962 C 275.862 4.39524 -1.95887 0
M  V30 2963 C 278.214 4.58576 -2.47704 0
M  V30 2964 C 275.542 4.90992 -3.2116 0
M  V30 2965 C 277.894 5.11435 -3.72313 0
M  V30 2966 C 276.558 5.27215 -4.0939 0
M  V30 2967 H 275.828 0.736169 -0.0844796 0
M  V30 2968 H 278.475 1.69124 -0.8983 0
M  V30 2969 H 276.78 3.88456 0.510797 0
M  V30 2970 H 278.477 4.00758 0.139296 0
M  V30 2971 H 275.067 4.08657 -1.29219 0
M  V30 2972 H 279.251 4.44654 -2.20445 0
M  V30 2973 H 274.507 5.01393 -3.49878 0
M  V30 2974 H 278.681 5.38752 -4.4127 0
M  V30 2975 H 276.308 5.66859 -5.06533 0
M  V30 2976 N 277.883 0.443576 1.51229 0
M  V30 2977 C 278.813 -0.355142 2.30783 0
M  V30 2978 C 279.794 -1.0154 1.36468 0
M  V30 2979 O 280.979 -1.01785 1.65389 0
M  V30 2980 C 278.109 -1.45312 3.15439 0
M  V30 2981 C 277.063 -0.916002 4.18083 0
M  V30 2982 C 276.389 -2.1102 4.91299 0
M  V30 2983 C 277.689 0.0538602 5.22272 0
M  V30 2984 H 279.383 0.308767 2.97804 0
M  V30 2985 H 276.929 0.149937 1.43217 0
M  V30 2986 H 278.882 -2.01914 3.69876 0
M  V30 2987 H 277.606 -2.14541 2.46252 0
M  V30 2988 H 276.265 -0.372145 3.64706 0
M  V30 2989 H 275.913 -2.78882 4.18609 0
M  V30 2990 H 275.613 -1.75717 5.60712 0
M  V30 2991 H 277.137 -2.68164 5.48562 0
M  V30 2992 H 278.551 -0.422069 5.71744 0
M  V30 2993 H 276.948 0.319776 5.99247 0
M  V30 2994 H 278.018 0.98858 4.74716 0
M  V30 2995 N 279.361 -1.56624 0.175154 0
M  V30 2996 C 280.607 -1.9729 -0.469506 0
M  V30 2997 C 280.94 -1.06128 -1.62636 0
M  V30 2998 O 280.215 -0.109183 -1.94193 0
M  V30 2999 C 280.498 -3.47375 -0.948804 0
M  V30 3000 C 280.351 -4.49317 0.208491 0
M  V30 3001 C 281.67 -4.00652 -1.82116 0
M  V30 3002 H 278.789 -0.717317 -0.16919 0
M  V30 3003 H 281.431 -1.88184 0.262062 0
M  V30 3004 H 279.581 -3.55267 -1.57219 0
M  V30 3005 H 281.253 -4.53482 0.845682 0
M  V30 3006 H 279.496 -4.25121 0.863395 0
M  V30 3007 H 280.167 -5.51741 -0.169059 0
M  V30 3008 H 282.643 -3.95416 -1.2956 0
M  V30 3009 H 281.519 -5.06075 -2.12554 0
M  V30 3010 H 281.78 -3.44699 -2.7683 0
M  V30 3011 N 280.839 0.0985539 -1.57292 0
M  V30 3012 C 282.079 0.808332 -1.87737 0
M  V30 3013 C 282.443 1.7607 -0.76572 0
M  V30 3014 O 283.644 2.51358 -0.952499 0
M  V30 3015 C 281.915 1.52093 -3.23423 0
M  V30 3016 S 283.474 2.26947 -3.75554 0
M  V30 3017 H 280.292 0.269377 -0.657995 0
M  V30 3018 H 282.894 0.0656269 -1.9539 0
M  V30 3019 H 281.598 0.81363 -4.02254 0
M  V30 3020 H 281.129 2.30361 -3.189 0
M  V30 3021 H 283.144 3.53027 -3.48692 0
M  V30 3022 N 282.317 1.53212 0.369288 0
M  V30 3023 C 283.227 1.82342 1.47609 0
M  V30 3024 C 284.243 0.711532 1.58787 0
M  V30 3025 O 285.419 1.0012 1.74751 0
M  V30 3026 C 282.484 2.00393 2.8292 0
M  V30 3027 C 281.545 3.24297 2.81301 0
M  V30 3028 C 280.778 3.41478 4.10157 0
M  V30 3029 O 281.001 2.63033 5.06132 0
M  V30 3030 O 279.935 4.34817 4.16194 0
M  V30 3031 H 283.761 2.76366 1.25918 0
M  V30 3032 H 281.346 1.38547 0.559034 0
M  V30 3033 H 283.228 2.13859 3.63101 0
M  V30 3034 H 281.903 1.09559 3.04596 0
M  V30 3035 H 280.81 3.16257 1.99831 0
M  V30 3036 H 282.143 4.15041 2.64578 0
M  V30 3037 N 283.795 -0.628877 1.44509 0
M  V30 3038 C 285.072 -1.38733 1.37886 0
M  V30 3039 C 285.452 -2.11065 0.0387008 0
M  V30 3040 O 284.8 -2.06476 -0.97878 0
M  V30 3041 C 285.01 -2.35188 2.57852 0
M  V30 3042 C 286.358 -2.9845 3.02014 0
M  V30 3043 O 287.382 -2.45513 2.58073 0
M  V30 3044 O 286.241 -3.94487 3.78209 0
M  V30 3045 H 283.335 -0.621015 0.54614 0
M  V30 3046 H 285.881 -0.653744 1.56602 0
M  V30 3047 H 284.653 -1.80855 3.46998 0
M  V30 3048 H 284.276 -3.1596 2.4136 0
M  V30 3049 N 285.273 -1.31445 -0.869486 0
M  V30 3050 C 286.498 -1.24256 -1.66058 0
M  V30 3051 C 286.923 0.188928 -1.87149 0
M  V30 3052 O 286.281 1.13522 -1.4136 0
M  V30 3053 C 286.329 -1.9924 -3.00559 0
M  V30 3054 O 285.433 -1.33007 -3.90362 0
M  V30 3055 H 284.774 -0.428973 -0.506831 0
M  V30 3056 H 287.304 -1.73521 -1.08404 0
M  V30 3057 H 287.314 -2.08854 -3.50491 0
M  V30 3058 H 285.989 -3.03342 -2.84528 0
M  V30 3059 H 284.566 -1.31848 -3.48813 0
M  V30 3060 N 286.751 1.08385 -1.14413 0
M  V30 3061 C 287.976 1.85057 -0.936413 0
M  V30 3062 C 288.401 1.81055 0.509971 0
M  V30 3063 O 287.759 1.1958 1.36273 0
M  V30 3064 C 287.807 3.30505 -1.44217 0
M  V30 3065 O 286.911 4.07491 -0.634409 0
M  V30 3066 H 286.252 0.573425 -0.334784 0
M  V30 3067 H 288.782 1.36799 -1.52142 0
M  V30 3068 H 288.792 3.81348 -1.45043 0
M  V30 3069 H 287.467 3.32734 -2.49522 0
M  V30 3070 H 286.044 3.66368 -0.694902 0
M  V30 3071 N 288.23 0.939286 1.26551 0
M  V30 3072 C 289.178 0.43815 2.28436 0
M  V30 3073 C 290.172 -0.483587 1.62351 0
M  V30 3074 O 291.378 -0.362009 1.76322 0
M  V30 3075 H 287.753 0.123149 0.741848 0
M  V30 3076 H 289.724 1.31002 2.68106 0
M  V30 3077 C 288.473 -0.283052 3.46546 0
M  V30 3078 H 287.796 0.417043 3.97619 0
M  V30 3079 H 289.236 -0.597948 4.19763 0
M  V30 3080 C 287.695 -1.50018 3.01656 0
M  V30 3081 O 288.225 -2.59855 3.0633 0
M  V30 3082 N 286.431 -1.35608 2.57019 0
M  V30 3083 H 285.978 -0.46244 2.53415 0
M  V30 3084 H 285.936 -2.17165 2.27347 0
M  V30 3085 N 289.708 -1.40897 0.706093 0
M  V30 3086 C 290.985 -1.94868 0.169099 0
M  V30 3087 C 291.365 -1.64485 -1.32318 0
M  V30 3088 O 290.713 -0.95744 -2.07474 0
M  V30 3089 C 290.923 -3.45798 0.471654 0
M  V30 3090 C 292.271 -4.22663 0.405127 0
M  V30 3091 O 293.295 -3.53865 0.407168 0
M  V30 3092 O 292.154 -5.45216 0.374383 0
M  V30 3093 H 289.248 -0.82673 0.0211352 0
M  V30 3094 H 291.794 -1.50558 0.782976 0
M  V30 3095 H 290.566 -3.61235 1.50416 0
M  V30 3096 H 290.189 -3.97225 -0.172666 0
M  V30 3097 N 291.186 -0.45159 -1.50991 0
M  V30 3098 C 292.133 0.352625 -2.2809 0
M  V30 3099 C 293.103 1.0044 -1.32291 0
M  V30 3100 O 294.288 1.02058 -1.6121 0
M  V30 3101 C 291.428 1.43983 -3.13629 0
M  V30 3102 C 290.541 0.804772 -4.24438 0
M  V30 3103 C 289.676 1.86822 -4.97263 0
M  V30 3104 C 288.715 1.21236 -5.99973 0
M  V30 3105 N 287.852 2.2178 -6.66152 0
M  V30 3106 H 292.692 -0.311186 -2.96371 0
M  V30 3107 H 290.229 -0.165308 -1.46168 0
M  V30 3108 H 292.187 2.08161 -3.61559 0
M  V30 3109 H 290.817 2.07307 -2.47434 0
M  V30 3110 H 289.869 0.0509129 -3.80366 0
M  V30 3111 H 291.181 0.286076 -4.97979 0
M  V30 3112 H 290.335 2.58628 -5.48813 0
M  V30 3113 H 289.074 2.42068 -4.23385 0
M  V30 3114 H 288.079 0.479828 -5.47702 0
M  V30 3115 H 289.304 0.667051 -6.75816 0
M  V30 3116 H 287.25 2.76079 -5.95077 0
M  V30 3117 H 287.167 1.74841 -7.35504 0
M  V30 3118 H 288.435 2.93026 -7.22327 0
M  V30 3119 N 292.664 1.56529 -0.183458 0
M  V30 3120 C 293.911 1.97244 0.458357 0
M  V30 3121 C 294.239 1.06992 1.62428 0
M  V30 3122 O 293.494 0.106542 1.9541 0
M  V30 3123 C 293.793 3.43939 0.971637 0
M  V30 3124 C 293.459 4.5083 -0.0796784 0
M  V30 3125 C 292.121 4.79786 -0.368584 0
M  V30 3126 C 294.473 5.15138 -0.792638 0
M  V30 3127 C 291.801 5.70345 -1.37563 0
M  V30 3128 C 294.153 6.06784 -1.78875 0
M  V30 3129 C 292.817 6.34102 -2.08497 0
M  V30 3130 H 292.087 0.721768 0.167725 0
M  V30 3131 H 294.734 1.89472 -0.277976 0
M  V30 3132 H 293.039 3.48724 1.78602 0
M  V30 3133 H 294.736 3.72791 1.47744 0
M  V30 3134 H 291.326 4.28317 0.155668 0
M  V30 3135 H 295.51 4.92868 -0.582659 0
M  V30 3136 H 290.766 5.89789 -1.61118 0
M  V30 3137 H 294.94 6.55677 -2.3465 0
M  V30 3138 H 292.567 7.04074 -2.86678 0
M  V30 3139 N 294.142 -0.090211 1.57342 0
M  V30 3140 C 295.072 -1.10976 2.05443 0
M  V30 3141 C 296.053 -1.41482 0.944284 0
M  V30 3142 O 297.238 -1.51428 1.21586 0
M  V30 3143 C 294.368 -2.42831 2.48295 0
M  V30 3144 C 293.322 -2.26721 3.63018 0
M  V30 3145 C 292.648 -3.63796 3.91863 0
M  V30 3146 C 293.948 -1.7037 4.93732 0
M  V30 3147 H 295.642 -0.709564 2.9087 0
M  V30 3148 H 293.188 -0.339874 1.39932 0
M  V30 3149 H 295.141 -3.14431 2.80555 0
M  V30 3150 H 293.865 -2.84795 1.59873 0
M  V30 3151 H 292.524 -1.57565 3.31012 0
M  V30 3152 H 292.172 -4.03297 3.00601 0
M  V30 3153 H 291.872 -3.53861 4.69101 0
M  V30 3154 H 293.396 -4.36855 4.26603 0
M  V30 3155 H 294.81 -2.31816 5.24342 0
M  V30 3156 H 293.207 -1.71181 5.75167 0
M  V30 3157 H 294.277 -0.663542 4.80339 0
M  V30 3158 N 295.62 -1.53406 -0.361157 0
M  V30 3159 C 296.869 -1.69022 -1.10066 0
M  V30 3160 C 297.182 -0.450838 -1.90333 0
M  V30 3161 O 298.388 -0.487617 -2.67085 0
M  V30 3162 C 296.844 -2.98812 -2.00598 0
M  V30 3163 C 296.452 -4.30027 -1.25621 0
M  V30 3164 C 298.196 -3.23795 -2.74513 0
M  V30 3165 C 296.103 -5.50903 -2.1508 0
M  V30 3166 H 295.033 -0.629776 -0.414606 0
M  V30 3167 H 297.684 -1.79907 -0.361348 0
M  V30 3168 H 296.066 -2.8174 -2.78278 0
M  V30 3169 H 297.24 -4.57745 -0.529739 0
M  V30 3170 H 295.555 -4.11522 -0.635496 0
M  V30 3171 H 298.152 -4.11289 -3.41681 0
M  V30 3172 H 298.495 -2.40045 -3.40123 0
M  V30 3173 H 299.028 -3.41561 -2.03914 0
M  V30 3174 H 295.767 -6.37143 -1.54041 0
M  V30 3175 H 295.287 -5.27459 -2.85565 0
M  V30 3176 H 296.966 -5.85865 -2.74538 0
M  V30 3177 N 297.098 0.621204 -1.44841 0
M  V30 3178 C 298.323 1.41244 -1.51871 0
M  V30 3179 C 298.748 1.87519 -0.147764 0
M  V30 3180 O 298.106 1.59334 0.865 0
M  V30 3181 C 298.154 2.60221 -2.49634 0
M  V30 3182 O 297.258 3.60395 -2.00473 0
M  V30 3183 H 296.599 0.42223 -0.512463 0
M  V30 3184 H 299.129 0.757305 -1.90069 0
M  V30 3185 H 299.139 3.0764 -2.67996 0
M  V30 3186 H 297.814 2.25887 -3.4921 0
M  V30 3187 H 296.391 3.19717 -1.91925 0
M  V30 3188 N 298.576 1.31904 0.862503 0
M  V30 3189 C 299.992 1.10724 1.14945 0
M  V30 3190 C 300.192 -0.117421 2.01158 0
M  V30 3191 O 299.248 -0.804595 2.39338 0
M  V30 3192 C 300.561 2.38267 1.83437 0
M  V30 3193 C 302.109 2.43949 1.96106 0
M  V30 3194 C 302.584 3.71394 2.68013 0
M  V30 3195 N 304.075 3.72331 2.75543 0
M  V30 3196 C 304.81 4.67641 3.31812 0
M  V30 3197 N 304.306 5.73313 3.88953 0
M  V30 3198 N 306.099 4.5515 3.29841 0
M  V30 3199 H 298.25 2.10436 0.288191 0
M  V30 3200 H 300.513 0.928705 0.190292 0
M  V30 3201 H 300.219 3.27759 1.27542 0
M  V30 3202 H 300.093 2.48633 2.83657 0
M  V30 3203 H 302.48 1.54922 2.51164 0
M  V30 3204 H 302.561 2.37543 0.949059 0
M  V30 3205 H 302.205 4.60791 2.13621 0
M  V30 3206 H 302.135 3.75069 3.69636 0
M  V30 3207 H 304.626 2.95947 2.34997 0
M  V30 3208 H 304.939 6.42107 4.30022 0
M  V30 3209 H 303.284 5.77077 3.87308 0
M  V30 3210 H 306.475 3.71766 2.84443 0
M  V30 3211 H 306.648 5.29604 3.73394 0
M  V30 3212 N 300.054 -1.07777 1.14986 0
M  V30 3213 C 300.984 -2.16865 0.865557 0
M  V30 3214 C 301.965 -1.69123 -0.182083 0
M  V30 3215 O 303.15 -1.94164 -0.0373815 0
M  V30 3216 C 300.28 -3.45539 0.349313 0
M  V30 3217 C 299.234 -4.06708 1.33313 0
M  V30 3218 C 298.56 -5.30411 0.675918 0
M  V30 3219 C 299.86 -4.47241 2.69764 0
M  V30 3220 H 301.554 -2.40905 1.77778 0
M  V30 3221 H 299.1 -1.15781 0.856203 0
M  V30 3222 H 301.053 -4.21174 0.137983 0
M  V30 3223 H 299.777 -3.21072 -0.598362 0
M  V30 3224 H 298.436 -3.33112 1.53075 0
M  V30 3225 H 298.084 -5.02232 -0.277767 0
M  V30 3226 H 297.784 -5.72293 1.33244 0
M  V30 3227 H 299.308 -6.08755 0.474262 0
M  V30 3228 H 300.722 -5.14025 2.53873 0
M  V30 3229 H 299.119 -5.00062 3.3175 0
M  V30 3230 H 300.189 -3.58818 3.26156 0
M  V30 3231 N 301.532 -0.945985 -1.26051 0
M  V30 3232 C 302.779 -0.596118 -1.93527 0
M  V30 3233 C 303.107 0.865559 -1.74179 0
M  V30 3234 O 302.362 1.63524 -1.0751 0
M  V30 3235 C 302.661 -0.890475 -3.46129 0
M  V30 3236 C 302.327 -2.3368 -3.85622 0
M  V30 3237 C 300.989 -2.73216 -3.96114 0
M  V30 3238 C 303.341 -3.27648 -4.05334 0
M  V30 3239 C 300.669 -4.05806 -4.2372 0
M  V30 3240 C 303.021 -4.59841 -4.3443 0
M  V30 3241 C 301.685 -4.99185 -4.43137 0
M  V30 3242 H 300.955 -0.218135 -0.708165 0
M  V30 3243 H 303.602 -1.1934 -1.49768 0
M  V30 3244 H 301.907 -0.210711 -3.91233 0
M  V30 3245 H 303.604 -0.598478 -3.96509 0
M  V30 3246 H 300.194 -2.02015 -3.78005 0
M  V30 3247 H 304.378 -2.98298 -3.96651 0
M  V30 3248 H 299.634 -4.35945 -4.28675 0
M  V30 3249 H 303.808 -5.32641 -4.48628 0
M  V30 3250 H 301.435 -6.01952 -4.64282 0
M  V30 3251 N 303.011 1.40521 -0.713556 0
M  V30 3252 C 304.288 1.94775 -0.17943 0
M  V30 3253 C 304.668 1.65184 1.31444 0
M  V30 3254 O 304.016 0.968429 2.06963 0
M  V30 3255 C 304.226 3.45543 -0.489986 0
M  V30 3256 C 305.574 4.22442 -0.427536 0
M  V30 3257 O 306.598 3.53644 -0.425929 0
M  V30 3258 O 305.457 5.4501 -0.403292 0
M  V30 3259 H 302.551 0.826606 -0.0255192 0
M  V30 3260 H 305.097 1.5014 -0.790949 0
M  V30 3261 H 303.869 3.60432 -1.5233 0
M  V30 3262 H 303.492 3.97311 0.151598 0
M  V30 3263 N 304.489 0.459591 1.5075 0
M  V30 3264 C 305.735 -0.0994966 2.02556 0
M  V30 3265 C 306.068 -1.40399 1.3417 0
M  V30 3266 O 305.343 -1.88892 0.463683 0
M  V30 3267 C 305.626 -0.295242 3.58888 0
M  V30 3268 C 305.479 1.02947 4.37861 0
M  V30 3269 C 306.798 -1.05502 4.27267 0
M  V30 3270 H 303.917 -0.034686 0.736183 0
M  V30 3271 H 306.559 0.602938 1.8018 0
M  V30 3272 H 304.709 -0.893563 3.78084 0
M  V30 3273 H 306.381 1.66348 4.30263 0
M  V30 3274 H 304.624 1.62885 4.02058 0
M  V30 3275 H 305.295 0.846281 5.45474 0
M  V30 3276 H 307.771 -0.547993 4.12476 0
M  V30 3277 H 306.647 -1.16077 5.36486 0
M  V30 3278 H 306.908 -2.08875 3.89645 0
M  V30 3279 N 305.967 -1.56429 0.191757 0
M  V30 3280 C 306.93 -2.17707 -0.716688 0
M  V30 3281 C 307.93 -1.13061 -1.14341 0
M  V30 3282 O 309.12 -1.38464 -1.05704 0
M  V30 3283 C 306.252 -2.77644 -1.97804 0
M  V30 3284 H 307.445 -2.99342 -0.1829 0
M  V30 3285 H 304.998 -1.56193 -0.0578566 0
M  V30 3286 H 305.733 -1.99799 -2.55443 0
M  V30 3287 H 305.518 -3.54246 -1.68083 0
M  V30 3288 H 307.008 -3.24708 -2.62592 0
M  V30 3289 N 307.445 0.0818655 -1.57387 0
M  V30 3290 C 308.355 1.11642 -2.06333 0
M  V30 3291 C 309.371 1.43033 -0.99083 0
M  V30 3292 O 310.547 1.53411 -1.30488 0
M  V30 3293 C 307.612 2.41342 -2.48907 0
M  V30 3294 C 306.673 2.17014 -3.7041 0
M  V30 3295 C 305.906 3.4053 -4.10944 0
M  V30 3296 O 306.129 4.4927 -3.51444 0
M  V30 3297 O 305.063 3.29336 -5.03807 0
M  V30 3298 H 308.889 0.730657 -2.9478 0
M  V30 3299 H 306.474 0.295301 -1.46452 0
M  V30 3300 H 308.356 3.17691 -2.76858 0
M  V30 3301 H 307.031 2.79319 -1.63593 0
M  V30 3302 H 305.938 1.38403 -3.47556 0
M  V30 3303 H 307.271 1.83923 -4.56545 0
M  V30 3304 N 308.923 1.53595 0.353017 0
M  V30 3305 C 310.171 1.70049 1.09215 0
M  V30 3306 C 310.492 0.461406 1.89463 0
M  V30 3307 O 309.762 -0.524633 1.88744 0
M  V30 3308 H 308.342 0.626912 0.40619 0
M  V30 3309 H 311.004 1.90822 0.396585 0
M  V30 3310 H 310.1 2.56718 1.77488 0
M  V30 3311 N 310.401 -0.613514 1.45168 0
M  V30 3312 C 311.626 -1.40437 1.52618 0
M  V30 3313 C 312.051 -1.87438 0.157707 0
M  V30 3314 O 311.409 -1.59791 -0.856537 0
M  V30 3315 C 311.457 -2.58894 2.51011 0
M  V30 3316 O 310.561 -3.59326 2.02382 0
M  V30 3317 H 309.902 -0.419506 0.514695 0
M  V30 3318 H 312.432 -0.747215 1.90467 0
M  V30 3319 H 312.442 -3.06214 2.69624 0
M  V30 3320 H 311.117 -2.24032 3.50403 0
M  V30 3321 H 309.694 -3.18695 1.93618 0
M  V30 3322 N 311.879 -1.3236 -0.855495 0
M  V30 3323 C 313.107 -1.2587 -1.64208 0
M  V30 3324 C 313.522 0.173457 -1.88002 0
M  V30 3325 O 312.879 1.11027 -1.44842 0
M  V30 3326 C 312.93 -2.01424 -3.00184 0
M  V30 3327 O 312.651 -3.39051 -2.77445 0
M  V30 3328 C 314.152 -2.01948 -3.94629 0
M  V30 3329 H 311.372 -0.434318 -0.511477 0
M  V30 3330 H 313.916 -1.74469 -1.0668 0
M  V30 3331 H 312.071 -1.56549 -3.5436 0
M  V30 3332 H 312.485 -3.77711 -3.63916 0
M  V30 3333 H 313.959 -2.59297 -4.87308 0
M  V30 3334 H 314.436 -1.00554 -4.27534 0
M  V30 3335 H 315.042 -2.46767 -3.4639 0
M  V30 3336 N 313.357 1.07166 -1.15556 0
M  V30 3337 C 314.287 2.16403 -0.877046 0
M  V30 3338 C 315.268 1.69217 0.173111 0
M  V30 3339 O 316.453 1.94181 0.027084 0
M  V30 3340 C 313.583 3.45349 -0.367632 0
M  V30 3341 C 312.537 4.05995 -1.35468 0
M  V30 3342 C 311.863 5.30045 -0.704038 0
M  V30 3343 C 313.163 4.45804 -2.72132 0
M  V30 3344 H 314.857 2.39959 -1.79053 0
M  V30 3345 H 312.403 1.15325 -0.862331 0
M  V30 3346 H 314.356 4.21095 -0.160317 0
M  V30 3347 H 313.08 3.21385 0.581326 0
M  V30 3348 H 311.739 3.32296 -1.54839 0
M  V30 3349 H 311.387 5.02373 0.251128 0
M  V30 3350 H 311.087 5.71579 -1.36277 0
M  V30 3351 H 312.611 6.08495 -0.50654 0
M  V30 3352 H 314.025 5.12671 -2.56595 0
M  V30 3353 H 312.422 4.98296 -3.34397 0
M  V30 3354 H 313.492 3.57083 -3.28054 0
M  V30 3355 N 314.835 0.952656 1.25548 0
M  V30 3356 C 315.745 0.47782 2.29682 0
M  V30 3357 C 316.761 -0.453859 1.67977 0
M  V30 3358 O 317.937 -0.330587 1.98668 0
M  V30 3359 C 315.002 -0.238655 3.45878 0
M  V30 3360 C 314.063 0.730994 4.23031 0
M  V30 3361 C 313.296 0.0486165 5.33678 0
M  V30 3362 O 313.519 -1.16612 5.58353 0
M  V30 3363 O 312.453 0.733152 5.97418 0
M  V30 3364 H 316.279 1.34312 2.72386 0
M  V30 3365 H 313.864 0.719026 1.30959 0
M  V30 3366 H 315.746 -0.641774 4.16484 0
M  V30 3367 H 314.421 -1.07916 3.05181 0
M  V30 3368 H 313.328 1.18428 3.5486 0
M  V30 3369 H 314.661 1.53946 4.67506 0
M  V30 3370 N 316.313 -1.40141 0.720998 0
M  V30 3371 C 317.223 -2.34486 0.0731031 0
M  V30 3372 C 318.239 -1.57587 -0.737723 0
M  V30 3373 O 319.415 -1.89949 -0.669429 0
M  V30 3374 C 316.48 -3.36528 -0.833656 0
M  V30 3375 C 315.541 -4.29298 -0.0121673 0
M  V30 3376 C 314.774 -5.26466 -0.875742 0
M  V30 3377 O 314.997 -5.29745 -2.11485 0
M  V30 3378 O 313.931 -6.01092 -0.31185 0
M  V30 3379 H 317.757 -2.9152 0.851444 0
M  V30 3380 H 315.342 -1.41427 0.481527 0
M  V30 3381 H 317.224 -3.99093 -1.35289 0
M  V30 3382 H 315.899 -2.81899 -1.59105 0
M  V30 3383 H 314.806 -3.70001 0.552262 0
M  V30 3384 H 316.139 -4.87094 0.707129 0
M  V30 3385 N 317.792 -0.46758 -1.50504 0
M  V30 3386 C 319.038 0.0887532 -2.02606 0
M  V30 3387 C 319.371 1.39686 -1.34913 0
M  V30 3388 O 318.646 1.88644 -0.473694 0
M  V30 3389 C 318.929 0.276206 -3.59039 0
M  V30 3390 C 318.782 -1.05267 -4.37309 0
M  V30 3391 C 320.101 1.03235 -4.27821 0
M  V30 3392 H 317.22 0.0307814 -0.736357 0
M  V30 3393 H 319.862 -0.612485 -1.79857 0
M  V30 3394 H 318.012 0.8735 -3.78553 0
M  V30 3395 H 319.684 -1.68628 -4.29374 0
M  V30 3396 H 317.927 -1.65015 -4.01189 0
M  V30 3397 H 318.598 -0.875197 -5.45018 0
M  V30 3398 H 321.074 0.526111 -4.12761 0
M  V30 3399 H 319.95 1.1323 -5.37094 0
M  V30 3400 H 320.211 2.06806 -3.90748 0
M  V30 3401 N 319.27 1.56325 -0.20005 0
M  V30 3402 C 320.495 2.02548 0.44597 0
M  V30 3403 C 320.92 1.07922 1.5406 0
M  V30 3404 O 320.278 0.0635775 1.81188 0
M  V30 3405 C 320.326 3.47175 0.974761 0
M  V30 3406 O 319.43 3.55671 2.08739 0
M  V30 3407 H 318.771 0.655862 0.103638 0
M  V30 3408 H 321.301 2.02201 -0.312381 0
M  V30 3409 H 321.311 3.87067 1.2901 0
M  V30 3410 H 319.986 4.15538 0.17347 0
M  V30 3411 H 318.563 3.27657 1.78032 0
M  V30 3412 N 320.748 -0.0735177 1.57428 0
M  V30 3413 C 321.696 -1.10628 2.04607 0
M  V30 3414 C 322.69 -1.40181 0.951088 0
M  V30 3415 O 323.896 -1.39608 1.1362 0
M  V30 3416 H 320.271 -0.374088 0.652351 0
M  V30 3417 H 322.242 -0.682218 2.90497 0
M  V30 3418 C 320.991 -2.41212 2.50423 0
M  V30 3419 H 320.314 -2.19322 3.34272 0
M  V30 3420 H 321.754 -3.11927 2.87189 0
M  V30 3421 C 320.213 -3.0705 1.38644 0
M  V30 3422 O 320.743 -3.95056 0.727582 0
M  V30 3423 N 318.949 -2.67645 1.132 0
M  V30 3424 H 318.496 -1.96169 1.66959 0
M  V30 3425 H 318.454 -3.1202 0.386147 0
M  V30 3426 N 322.226 -1.5378 -0.344866 0
M  V30 3427 C 323.174 -1.82373 -1.4437 0
M  V30 3428 C 324.168 -0.694128 -1.54526 0
M  V30 3429 O 325.374 -0.877442 -1.57165 0
M  V30 3430 H 321.749 -0.577765 -0.481344 0
M  V30 3431 H 323.72 -2.74306 -1.17468 0
M  V30 3432 C 322.469 -2.04898 -2.80913 0
M  V30 3433 H 321.792 -2.9127 -2.73865 0
M  V30 3434 H 323.232 -2.28871 -3.56923 0
M  V30 3435 C 321.691 -0.834116 -3.26411 0
M  V30 3436 O 322.221 -0.0328885 -4.01687 0
M  V30 3437 N 320.427 -0.65171 -2.83198 0
M  V30 3438 H 319.974 -1.30489 -2.22104 0
M  V30 3439 H 319.932 0.159686 -3.13994 0
M  V30 3440 N 323.704 0.605807 -1.45491 0
M  V30 3441 C 324.944 1.37606 -1.51142 0
M  V30 3442 C 325.308 1.91413 -0.150075 0
M  V30 3443 O 326.509 2.68677 -0.0812828 0
M  V30 3444 C 324.78 2.49197 -2.56195 0
M  V30 3445 S 326.339 3.36953 -2.81083 0
M  V30 3446 H 323.157 0.469118 -0.534275 0
M  V30 3447 H 325.759 0.698845 -1.82583 0
M  V30 3448 H 324.463 2.0802 -3.53773 0
M  V30 3449 H 323.994 3.21717 -2.26411 0
M  V30 3450 H 326.009 4.47395 -2.14598 0
M  V30 3451 N 325.182 1.32811 0.848464 0
M  V30 3452 C 326.431 1.23075 1.59798 0
M  V30 3453 C 326.744 -0.204419 1.94529 0
M  V30 3454 O 327.95 -0.423701 2.68173 0
M  V30 3455 C 326.406 2.15594 2.88179 0
M  V30 3456 C 326.014 3.64228 2.60849 0
M  V30 3457 C 327.758 2.14709 3.66197 0
M  V30 3458 C 325.665 4.48689 3.85269 0
M  V30 3459 H 324.595 0.457091 0.599653 0
M  V30 3460 H 327.246 1.57813 0.936342 0
M  V30 3461 H 325.628 1.73778 3.55833 0
M  V30 3462 H 326.802 4.14424 2.01467 0
M  V30 3463 H 325.117 3.67306 1.96151 0
M  V30 3464 H 327.714 2.75046 4.58534 0
M  V30 3465 H 328.057 1.13966 4.00397 0
M  V30 3466 H 328.59 2.54837 3.05455 0
M  V30 3467 H 325.329 5.5027 3.56207 0
M  V30 3468 H 324.849 4.03241 4.44024 0
M  V30 3469 H 326.528 4.62006 4.52946 0
M  V30 3470 N 326.66 -1.06551 1.16123 0
M  V30 3471 C 328.076 -1.3142 0.905585 0
M  V30 3472 C 328.276 -1.96571 -0.442964 0
M  V30 3473 O 327.332 -2.23068 -1.18308 0
M  V30 3474 C 328.645 -2.19741 2.05267 0
M  V30 3475 C 330.193 -2.33165 2.08813 0
M  V30 3476 C 330.668 -3.24838 3.22868 0
M  V30 3477 N 332.159 -3.32421 3.22568 0
M  V30 3478 C 332.894 -4.0344 4.0746 0
M  V30 3479 N 332.39 -4.77003 5.02434 0
M  V30 3480 N 334.183 -3.99464 3.95456 0
M  V30 3481 H 326.334 -0.626548 2.02949 0
M  V30 3482 H 328.597 -0.338777 0.8854 0
M  V30 3483 H 328.303 -1.79142 3.02657 0
M  V30 3484 H 328.177 -3.20313 1.99198 0
M  V30 3485 H 330.564 -2.73013 1.12018 0
M  V30 3486 H 330.645 -1.3227 2.18948 0
M  V30 3487 H 330.289 -2.85708 4.19921 0
M  V30 3488 H 330.219 -4.25707 3.0997 0
M  V30 3489 H 332.71 -2.79994 2.53795 0
M  V30 3490 H 333.023 -5.28712 5.63634 0
M  V30 3491 H 331.368 -4.75992 5.06415 0
M  V30 3492 H 334.559 -3.4111 3.20564 0
M  V30 3493 H 334.732 -4.54544 4.61837 0
M  V30 3494 N 328.138 -0.959301 -1.25041 0
M  V30 3495 C 329.068 -0.501388 -2.28053 0
M  V30 3496 C 330.049 0.454673 -1.63911 0
M  V30 3497 O 331.234 0.352618 -1.90972 0
M  V30 3498 C 328.364 0.217224 -3.4662 0
M  V30 3499 C 327.318 -0.654034 -4.22973 0
M  V30 3500 C 326.644 0.195589 -5.34342 0
M  V30 3501 C 327.944 -1.93447 -4.85155 0
M  V30 3502 H 329.638 -1.36238 -2.66608 0
M  V30 3503 H 327.184 -0.656534 -1.28163 0
M  V30 3504 H 329.137 0.548732 -4.17812 0
M  V30 3505 H 327.861 1.1125 -3.07068 0
M  V30 3506 H 326.52 -0.968693 -3.5357 0
M  V30 3507 H 326.168 1.09076 -4.91031 0
M  V30 3508 H 325.868 -0.384091 -5.86343 0
M  V30 3509 H 327.392 0.521958 -6.08365 0
M  V30 3510 H 328.806 -1.66908 -5.48466 0
M  V30 3511 H 327.203 -2.46018 -5.47353 0
M  V30 3512 H 328.273 -2.63466 -4.07079 0
M  V30 3513 N 329.616 1.39756 -0.72842 0
M  V30 3514 C 330.526 2.34444 -0.0855374 0
M  V30 3515 C 331.542 1.57976 0.729356 0
M  V30 3516 O 332.718 1.90301 0.659346 0
M  V30 3517 C 329.783 3.36965 0.815798 0
M  V30 3518 C 328.844 4.29299 -0.0105996 0
M  V30 3519 C 328.077 5.26923 0.84781 0
M  V30 3520 O 328.3 5.30859 2.08673 0
M  V30 3521 O 327.234 6.01249 0.279969 0
M  V30 3522 H 331.06 2.91065 -0.866892 0
M  V30 3523 H 328.645 1.4117 -0.48902 0
M  V30 3524 H 330.527 3.99804 1.33171 0
M  V30 3525 H 329.202 2.82739 1.57608 0
M  V30 3526 H 328.109 3.69703 -0.571877 0
M  V30 3527 H 329.442 4.86712 -0.73295 0
M  V30 3528 N 331.094 0.475555 1.50254 0
M  V30 3529 C 332.34 -0.0701075 2.03279 0
M  V30 3530 C 332.695 -1.37007 1.35081 0
M  V30 3531 O 331.988 -1.8577 0.469052 0
M  V30 3532 C 332.182 -0.305114 3.56095 0
M  V30 3533 C 332.011 0.970515 4.39103 0
M  V30 3534 C 330.781 1.51509 4.82051 0
M  V30 3535 C 332.979 1.8671 4.79212 0
M  V30 3536 N 330.961 2.73928 5.49397 0
M  V30 3537 C 332.332 2.93715 5.46014 0
M  V30 3538 C 334.387 1.87695 4.61167 0
M  V30 3539 C 333.09 4.01699 5.96683 0
M  V30 3540 C 335.116 2.94637 5.12779 0
M  V30 3541 C 334.478 4.00361 5.79561 0
M  V30 3542 H 330.577 0.014486 0.781866 0
M  V30 3543 H 333.161 0.644755 1.83714 0
M  V30 3544 H 331.332 -0.989019 3.75597 0
M  V30 3545 H 333.064 -0.845516 3.95769 0
M  V30 3546 H 329.819 1.06367 4.61501 0
M  V30 3547 H 330.243 3.36109 5.87673 0
M  V30 3548 H 334.885 1.07273 4.08965 0
M  V30 3549 H 332.603 4.82934 6.4792 0
M  V30 3550 H 336.189 2.96388 5.00645 0
M  V30 3551 H 335.069 4.81751 6.18778 0
M  V30 3552 N 332.573 -1.56217 0.208337 0
M  V30 3553 C 333.521 -2.21053 -0.723769 0
M  V30 3554 C 334.515 -1.18578 -1.20978 0
M  V30 3555 O 335.721 -1.36691 -1.17114 0
M  V30 3556 H 332.096 -0.708595 -0.251788 0
M  V30 3557 H 334.067 -2.98006 -0.153365 0
M  V30 3558 C 332.816 -2.89417 -1.927 0
M  V30 3559 H 332.139 -3.68019 -1.56212 0
M  V30 3560 H 333.579 -3.38201 -2.55727 0
M  V30 3561 C 332.038 -1.91166 -2.77411 0
M  V30 3562 O 332.568 -1.42026 -3.75754 0
M  V30 3563 N 330.774 -1.59105 -2.43175 0
M  V30 3564 H 330.321 -1.99259 -1.63259 0
M  V30 3565 H 330.279 -0.936255 -3.00136 0
M  V30 3566 N 334.051 0.0651679 -1.57465 0
M  V30 3567 C 334.998 1.07675 -2.04144 0
M  V30 3568 C 335.968 1.38071 -0.923335 0
M  V30 3569 O 337.153 1.49026 -1.19146 0
M  V30 3570 C 334.293 2.38337 -2.49579 0
M  V30 3571 C 333.406 2.14413 -3.75035 0
M  V30 3572 C 332.541 3.38686 -4.09225 0
M  V30 3573 C 331.58 3.10156 -5.27702 0
M  V30 3574 N 330.717 4.26778 -5.57499 0
M  V30 3575 H 335.557 0.671716 -2.90331 0
M  V30 3576 H 333.094 0.3201 -1.43575 0
M  V30 3577 H 335.052 3.14632 -2.73975 0
M  V30 3578 H 333.682 2.7663 -1.6636 0
M  V30 3579 H 332.734 1.2878 -3.57939 0
M  V30 3580 H 334.046 1.89344 -4.61466 0
M  V30 3581 H 333.2 4.23373 -4.34558 0
M  V30 3582 H 331.939 3.66837 -3.21374 0
M  V30 3583 H 330.944 2.23866 -5.02159 0
M  V30 3584 H 332.169 2.8332 -6.17176 0
M  V30 3585 H 330.115 4.54948 -4.72608 0
M  V30 3586 H 330.032 4.05005 -6.38362 0
M  V30 3587 H 331.3 5.12443 -5.87386 0
M  V30 3588 N 335.529 1.53961 0.336706 0
M  V30 3589 C 336.777 1.71197 1.07405 0
M  V30 3590 C 337.098 0.481475 1.88962 0
M  V30 3591 O 336.368 -0.504585 1.8929 0
M  V30 3592 H 334.948 0.631185 0.399517 0
M  V30 3593 H 337.61 1.91232 0.376323 0
M  V30 3594 H 336.706 2.58587 1.74755 0
M  V30 3595 N 337.007 -0.598083 1.45811 0
M  V30 3596 C 338.256 -1.35295 1.49594 0
M  V30 3597 C 338.569 -1.95057 0.145679 0
M  V30 3598 O 339.775 -2.71431 0.0612099 0
M  V30 3599 C 338.231 -2.45124 2.63519 0
M  V30 3600 C 337.839 -1.91732 4.04899 0
M  V30 3601 C 339.583 -3.2205 2.76558 0
M  V30 3602 C 337.49 -2.991 5.1019 0
M  V30 3603 H 336.42 -0.508552 0.556679 0
M  V30 3604 H 339.071 -0.639977 1.71978 0
M  V30 3605 H 337.453 -3.19149 2.34435 0
M  V30 3606 H 338.627 -1.24352 4.43704 0
M  V30 3607 H 336.942 -1.27522 3.96393 0
M  V30 3608 H 339.539 -4.0215 3.52391 0
M  V30 3609 H 339.882 -3.73663 1.83526 0
M  V30 3610 H 340.415 -2.55127 3.05213 0
M  V30 3611 H 337.154 -2.52393 6.04961 0
M  V30 3612 H 336.674 -3.65017 4.75944 0
M  V30 3613 H 338.353 -3.63318 5.35359 0
M  V30 3614 N 338.485 -1.33259 -0.841409 0
M  V30 3615 C 339.731 -1.24757 -1.59886 0
M  V30 3616 C 340.064 0.186913 -1.93298 0
M  V30 3617 O 339.339 1.12757 -1.5848 0
M  V30 3618 C 339.622 -2.12036 -2.91055 0
M  V30 3619 C 339.475 -3.63929 -2.6434 0
M  V30 3620 C 340.794 -1.9916 -3.92458 0
M  V30 3621 H 337.913 -0.454542 -0.580138 0
M  V30 3622 H 340.555 -1.63335 -0.970647 0
M  V30 3623 H 338.705 -1.79265 -3.44669 0
M  V30 3624 H 340.377 -4.06978 -2.17178 0
M  V30 3625 H 338.62 -3.85935 -1.98082 0
M  V30 3626 H 339.291 -4.20341 -3.57796 0
M  V30 3627 H 341.767 -2.27895 -3.48143 0
M  V30 3628 H 340.643 -2.62484 -4.82072 0
M  V30 3629 H 340.904 -0.963082 -4.31482 0
M  V30 3630 N 339.963 1.05934 -1.16686 0
M  V30 3631 C 341.211 1.78447 -0.948744 0
M  V30 3632 C 341.532 1.87813 0.524523 0
M  V30 3633 O 340.802 1.38945 1.38098 0
M  V30 3634 H 339.382 0.660971 -0.348033 0
M  V30 3635 H 342.044 1.27947 -1.47022 0
M  V30 3636 H 341.14 2.80394 -1.37061 0
M  V30 3637 N 341.441 0.965919 1.2453 0
M  V30 3638 C 342.391 0.465731 2.23193 0
M  V30 3639 C 343.375 -0.451277 1.54442 0
M  V30 3640 O 344.567 -0.282489 1.74731 0
M  V30 3641 C 341.696 -0.244511 3.42428 0
M  V30 3642 C 340.782 0.691222 4.18429 0
M  V30 3643 N 341.173 1.82771 4.71623 0
M  V30 3644 C 339.471 0.501649 4.4317 0
M  V30 3645 C 340.172 2.41285 5.29298 0
M  V30 3646 N 339.148 1.69819 5.16394 0
M  V30 3647 H 342.95 1.33291 2.61937 0
M  V30 3648 H 340.464 0.824789 1.39896 0
M  V30 3649 H 342.461 -0.620056 4.12263 0
M  V30 3650 H 341.121 -1.10815 3.05205 0
M  V30 3651 H 342.132 2.20929 4.68413 0
M  V30 3652 H 338.809 -0.318177 4.16286 0
M  V30 3653 H 340.199 3.37181 5.8117 0
M  V30 3654 N 342.919 -1.39368 0.735821 0
M  V30 3655 C 344.165 -2.00794 0.284544 0
M  V30 3656 C 344.498 -1.58255 -1.12557 0
M  V30 3657 O 343.773 -0.811819 -1.76748 0
M  V30 3658 C 344.056 -3.58011 0.387337 0
M  V30 3659 C 343.909 -4.10566 1.83728 0
M  V30 3660 C 345.228 -4.395 -0.22975 0
M  V30 3661 H 342.347 -0.729501 0.104866 0
M  V30 3662 H 344.989 -1.65564 0.93213 0
M  V30 3663 H 343.139 -3.88154 -0.164006 0
M  V30 3664 H 344.811 -3.91139 2.44556 0
M  V30 3665 H 343.054 -3.64095 2.35833 0
M  V30 3666 H 343.725 -5.19702 1.86047 0
M  V30 3667 H 346.201 -4.15406 0.240257 0
M  V30 3668 H 345.077 -5.48752 -0.127485 0
M  V30 3669 H 345.338 -4.22062 -1.3159 0
M  V30 3670 N 344.397 -0.483516 -1.5 0
M  V30 3671 C 345.36 0.292965 -2.2732 0
M  V30 3672 C 346.36 0.909499 -1.32608 0
M  V30 3673 O 347.55 0.776745 -1.55924 0
M  V30 3674 C 344.682 1.41854 -3.09984 0
M  V30 3675 H 345.875 -0.385289 -2.97415 0
M  V30 3676 H 343.428 -0.237942 -1.54478 0
M  V30 3677 H 344.163 2.13148 -2.44414 0
M  V30 3678 H 343.948 0.982114 -3.79601 0
M  V30 3679 H 345.438 1.96597 -3.68429 0
M  V30 3680 N 345.875 1.56104 -0.216619 0
M  V30 3681 C 346.838 2.18819 0.681962 0
M  V30 3682 C 347.838 1.14866 1.12528 0
M  V30 3683 O 349.028 1.40128 1.03488 0
M  V30 3684 C 346.16 2.80756 1.93362 0
M  V30 3685 H 347.353 2.99595 0.135254 0
M  V30 3686 H 344.906 1.56265 0.0330003 0
M  V30 3687 H 345.641 2.03837 2.52232 0
M  V30 3688 H 345.426 3.56876 1.62426 0
M  V30 3689 H 346.916 3.28844 2.57393 0
M  V30 3690 N 347.353 -0.0568162 1.57498 0
M  V30 3691 C 348.283 -1.06593 2.0775 0
M  V30 3692 C 349.264 -1.39448 0.974082 0
M  V30 3693 O 350.449 -1.48815 1.24771 0
M  V30 3694 C 347.579 -2.37509 2.5339 0
M  V30 3695 C 346.533 -2.1897 3.67745 0
M  V30 3696 C 345.859 -3.55402 3.99492 0
M  V30 3697 C 347.159 -1.59859 4.97235 0
M  V30 3698 H 348.853 -0.647706 2.9231 0
M  V30 3699 H 346.399 -0.310116 1.40621 0
M  V30 3700 H 348.352 -3.08409 2.87162 0
M  V30 3701 H 347.076 -2.8134 1.65878 0
M  V30 3702 H 345.735 -1.50508 3.3428 0
M  V30 3703 H 345.383 -3.9683 3.09088 0
M  V30 3704 H 345.083 -3.43831 4.76502 0
M  V30 3705 H 346.607 -4.27708 4.35773 0
M  V30 3706 H 348.021 -2.20642 5.29141 0
M  V30 3707 H 346.418 -1.58942 5.78669 0
M  V30 3708 H 347.488 -0.561506 4.81638 0
M  V30 3709 N 348.832 -1.54138 -0.328536 0
M  V30 3710 C 350.08 -1.71765 -1.06496 0
M  V30 3711 C 350.401 -0.49149 -1.88704 0
M  V30 3712 O 349.671 0.494539 -1.89555 0
M  V30 3713 H 348.251 -0.633295 -0.396164 0
M  V30 3714 H 350.913 -1.91429 -0.366176 0
M  V30 3715 H 350.009 -2.5951 -1.73381 0
M  V30 3716 N 350.31 0.590341 -1.46126 0
M  V30 3717 C 351.22 1.72793 -1.58681 0
M  V30 3718 C 352.236 1.67516 -0.470566 0
M  V30 3719 O 353.412 1.87562 -0.733642 0
M  V30 3720 C 350.477 3.09287 -1.5666 0
M  V30 3721 C 349.538 3.25886 -2.79458 0
M  V30 3722 C 348.771 4.55869 -2.77524 0
M  V30 3723 O 348.994 5.3928 -1.85832 0
M  V30 3724 O 347.928 4.75552 -3.68964 0
M  V30 3725 H 351.754 1.65149 -2.54872 0
M  V30 3726 H 349.339 0.756486 -1.28832 0
M  V30 3727 H 351.221 3.90577 -1.58202 0
M  V30 3728 H 349.896 3.17385 -0.636271 0
M  V30 3729 H 348.803 2.44119 -2.83472 0
M  V30 3730 H 350.136 3.22675 -3.71674 0
M  V30 3731 N 351.788 1.33704 0.83433 0
M  V30 3732 C 353.199 1.22813 1.4062 0
M  V30 3733 C 353.55 -0.151107 1.95617 0
M  V30 3734 O 352.675 -1.05092 1.89168 0
M  V30 3735 C 353.27 2.22355 2.55624 0
M  V30 3736 C 351.829 2.1529 3.08751 0
M  V30 3737 C 350.976 2.09589 1.8157 0
M  V30 3738 H 353.927 1.45236 0.639702 0
M  V30 3739 H 353.948 1.83391 3.33389 0
M  V30 3740 H 353.46 3.22728 2.15566 0
M  V30 3741 H 351.561 1.18235 3.53343 0
M  V30 3742 H 351.674 3.06038 3.68616 0
M  V30 3743 H 350.038 1.55134 2.02004 0
M  V30 3744 H 350.821 3.11777 1.43701 0
M  V30 3745 N 353.266 -1.05314 1.17247 0
M  V30 3746 C 354.196 -2.1498 0.911362 0
M  V30 3747 C 355.177 -1.69471 -0.146169 0
M  V30 3748 O 356.362 -1.942 0.003812 0
M  V30 3749 C 353.492 -3.4472 0.422528 0
M  V30 3750 C 352.446 -4.03789 1.4191 0
M  V30 3751 C 351.772 -5.28858 0.788274 0
M  V30 3752 C 353.072 -4.41418 2.7919 0
M  V30 3753 H 354.766 -2.3708 1.82848 0
M  V30 3754 H 352.312 -1.13938 0.880569 0
M  V30 3755 H 354.265 -4.20787 0.227289 0
M  V30 3756 H 352.989 -3.22269 -0.530123 0
M  V30 3757 H 351.648 -3.2979 1.60106 0
M  V30 3758 H 351.296 -5.02709 -0.171173 0
M  V30 3759 H 350.996 -5.69338 1.45353 0
M  V30 3760 H 352.52 -6.07612 0.603282 0
M  V30 3761 H 353.934 -5.08524 2.64719 0
M  V30 3762 H 352.331 -4.92913 3.42282 0
M  V30 3763 H 353.401 -3.51819 3.33693 0
M  V30 3764 N 354.744 -0.972509 -1.24016 0
M  V30 3765 C 355.692 -0.498562 -2.27194 0
M  V30 3766 C 356.686 0.440372 -1.63576 0
M  V30 3767 O 357.892 0.315133 -1.7722 0
M  V30 3768 H 354.267 -0.142775 -0.738322 0
M  V30 3769 H 356.238 -1.38065 -2.64539 0
M  V30 3770 C 354.987 0.191072 -3.47175 0
M  V30 3771 H 354.31 -0.522318 -3.96373 0
M  V30 3772 H 355.75 0.486445 -4.212 0
M  V30 3773 C 354.209 1.41967 -3.05527 0
M  V30 3774 O 354.739 2.51642 -3.13112 0
M  V30 3775 N 352.945 1.28746 -2.60524 0
M  V30 3776 H 352.492 0.395089 -2.54552 0
M  V30 3777 H 352.45 2.11061 -2.33025 0
M  V30 3778 N 356.222 1.38976 -0.743202 0
M  V30 3779 C 357.471 1.99581 -0.291592 0
M  V30 3780 C 357.784 1.59656 1.13001 0
M  V30 3781 O 358.99 2.13157 1.68156 0
M  V30 3782 C 357.446 3.56813 -0.470391 0
M  V30 3783 C 357.054 4.05695 -1.90041 0
M  V30 3784 C 358.798 4.24423 -0.0809709 0
M  V30 3785 C 356.705 5.5553 -2.02832 0
M  V30 3786 H 355.635 0.746615 -0.105272 0
M  V30 3787 H 358.286 1.58872 -0.918258 0
M  V30 3788 H 356.668 3.95359 0.225299 0
M  V30 3789 H 357.842 3.78464 -2.62872 0
M  V30 3790 H 356.157 3.50775 -2.24379 0
M  V30 3791 H 358.754 5.34474 -0.155445 0
M  V30 3792 H 359.097 4.04962 0.96497 0
M  V30 3793 H 359.63 3.9108 -0.728124 0
M  V30 3794 H 356.369 5.79881 -3.05643 0
M  V30 3795 H 355.889 5.84537 -1.34448 0
M  V30 3796 H 357.568 6.21069 -1.81335 0
M  V30 3797 N 357.7 0.491464 1.49741 0
M  V30 3798 C 358.647 -0.292027 2.28945 0
M  V30 3799 C 359.617 -0.968973 1.34908 0
M  V30 3800 O 360.802 -0.97748 1.6386 0
M  V30 3801 C 357.942 -1.35617 3.17336 0
M  V30 3802 C 357.055 -0.691957 4.26422 0
M  V30 3803 C 356.19 -1.73572 5.02042 0
M  V30 3804 C 355.229 -1.05286 6.02977 0
M  V30 3805 N 354.366 -2.0404 6.71798 0
M  V30 3806 H 359.206 0.389654 2.95442 0
M  V30 3807 H 356.743 0.204003 1.45679 0
M  V30 3808 H 358.701 -1.98502 3.66951 0
M  V30 3809 H 357.331 -2.00674 2.52844 0
M  V30 3810 H 356.383 0.0499523 3.80367 0
M  V30 3811 H 357.695 -0.153946 4.98562 0
M  V30 3812 H 356.849 -2.43987 5.55478 0
M  V30 3813 H 355.588 -2.30757 4.29654 0
M  V30 3814 H 354.593 -0.334446 5.48782 0
M  V30 3815 H 355.818 -0.487636 6.77347 0
M  V30 3816 H 353.764 -2.60205 6.02187 0
M  V30 3817 H 353.681 -1.55279 7.39881 0
M  V30 3818 H 354.949 -2.73772 7.29842 0
M  V30 3819 N 359.178 -1.55987 0.224894 0
M  V30 3820 C 360.455 -1.90232 -0.455083 0
M  V30 3821 C 360.835 -1.14269 -1.77499 0
M  V30 3822 O 360.183 -0.253079 -2.27094 0
M  V30 3823 C 360.393 -3.42993 -0.644758 0
M  V30 3824 C 361.741 -4.13821 -0.950669 0
M  V30 3825 O 362.765 -3.4861 -0.731423 0
M  V30 3826 O 361.624 -5.29128 -1.36695 0
M  V30 3827 H 358.718 -0.79108 -0.241084 0
M  V30 3828 H 361.264 -1.67581 0.267327 0
M  V30 3829 H 360.036 -3.90252 0.28613 0
M  V30 3830 H 359.659 -3.71434 -1.41853 0
M  V30 3831 N 360.656 0.0484629 -1.57525 0
M  V30 3832 C 361.619 1.03956 -2.04269 0
M  V30 3833 C 362.619 1.30211 -0.943496 0
M  V30 3834 O 363.809 1.25539 -1.20771 0
M  V30 3835 C 360.941 2.37742 -2.44319 0
M  V30 3836 H 362.134 0.636182 -2.93075 0
M  V30 3837 H 359.687 0.294811 -1.53494 0
M  V30 3838 H 360.422 2.82866 -1.5861 0
M  V30 3839 H 360.207 2.20021 -3.24551 0
M  V30 3840 H 361.697 3.08936 -2.80978 0
M  V30 3841 N 362.134 1.5431 0.320358 0
M  V30 3842 C 363.364 1.7638 1.07582 0
M  V30 3843 C 363.772 0.513944 1.82086 0
M  V30 3844 O 363.115 -0.525123 1.76035 0
M  V30 3845 C 363.177 2.9055 2.1171 0
M  V30 3846 C 362.841 4.2934 1.56575 0
M  V30 3847 C 363.838 5.10077 1.00586 0
M  V30 3848 C 361.523 4.75893 1.60722 0
M  V30 3849 C 363.517 6.35477 0.494756 0
M  V30 3850 C 361.204 6.0126 1.09224 0
M  V30 3851 C 362.202 6.80886 0.53696 0
M  V30 3852 O 361.89 8.03894 0.0297371 0
M  V30 3853 H 361.622 0.592369 0.325692 0
M  V30 3854 H 364.176 2.02019 0.37116 0
M  V30 3855 H 362.406 2.60489 2.85801 0
M  V30 3856 H 364.095 3.00373 2.73003 0
M  V30 3857 H 364.861 4.75265 0.966869 0
M  V30 3858 H 360.74 4.13957 2.02882 0
M  V30 3859 H 364.284 6.97574 0.0606842 0
M  V30 3860 H 360.181 6.35562 1.12831 0
M  V30 3861 H 360.949 8.18372 0.14486 0
M  V30 3862 N 363.613 -0.582584 1.46437 0
M  V30 3863 C 364.523 -1.71949 1.59595 0
M  V30 3864 C 365.539 -1.67264 0.479443 0
M  V30 3865 O 366.715 -1.87171 0.743579 0
M  V30 3866 C 363.78 -3.08452 1.58298 0
M  V30 3867 C 362.841 -3.244 2.81182 0
M  V30 3868 C 362.074 -4.54391 2.79937 0
M  V30 3869 O 362.297 -5.38287 1.8869 0
M  V30 3870 O 361.231 -4.73588 3.71481 0
M  V30 3871 H 365.057 -1.63795 2.55744 0
M  V30 3872 H 362.642 -0.749643 1.29231 0
M  V30 3873 H 364.524 -3.89732 1.60271 0
M  V30 3874 H 363.199 -3.17043 0.653094 0
M  V30 3875 H 362.106 -2.42613 2.84763 0
M  V30 3876 H 363.439 -3.20699 3.7338 0
M  V30 3877 N 365.091 -1.34144 -0.827227 0
M  V30 3878 C 366.368 -1.16844 -1.56865 0
M  V30 3879 C 366.748 0.260654 -2.09485 0
M  V30 3880 O 366.096 1.26138 -1.9053 0
M  V30 3881 C 366.306 -2.21939 -2.6934 0
M  V30 3882 C 367.654 -2.56695 -3.3822 0
M  V30 3883 O 368.678 -2.20695 -2.79593 0
M  V30 3884 O 367.537 -3.18518 -4.44082 0
M  V30 3885 H 364.631 -0.452669 -0.692112 0
M  V30 3886 H 367.177 -1.45763 -0.868973 0
M  V30 3887 H 365.949 -3.17882 -2.28182 0
M  V30 3888 H 365.572 -1.94172 -3.46962 0
M  V30 3889 N 366.569 1.04691 -1.17803 0
M  V30 3890 C 367.98 1.59238 -0.974689 0
M  V30 3891 C 368.331 1.90306 0.477292 0
M  V30 3892 O 367.456 1.68846 1.35352 0
M  V30 3893 C 368.051 2.89318 -1.76296 0
M  V30 3894 C 366.61 3.40506 -1.60414 0
M  V30 3895 C 365.757 2.14172 -1.76141 0
M  V30 3896 H 368.708 0.874395 -1.32439 0
M  V30 3897 H 368.729 3.5944 -1.24833 0
M  V30 3898 H 368.241 2.66675 -2.81968 0
M  V30 3899 H 366.342 3.68175 -0.572519 0
M  V30 3900 H 366.455 4.14753 -2.39827 0
M  V30 3901 H 364.819 2.25176 -1.19028 0
M  V30 3902 H 365.602 1.93992 -2.83235 0
M  V30 3903 N 368.047 0.979072 1.23499 0
M  V30 3904 C 369.463 0.687475 1.44034 0
M  V30 3905 C 369.663 -0.746801 1.8715 0
M  V30 3906 O 368.719 -1.51939 2.0167 0
M  V30 3907 C 370.032 1.68127 2.49307 0
M  V30 3908 C 371.58 1.69516 2.63122 0
M  V30 3909 C 372.055 2.67723 3.71603 0
M  V30 3910 N 373.546 2.66233 3.79044 0
M  V30 3911 C 374.281 3.38891 4.62537 0
M  V30 3912 N 373.777 4.21103 5.50131 0
M  V30 3913 N 375.57 3.27661 4.56721 0
M  V30 3914 H 367.721 1.90559 0.938135 0
M  V30 3915 H 369.984 0.821051 0.473897 0
M  V30 3916 H 369.69 2.70693 2.2454 0
M  V30 3917 H 369.564 1.46306 3.4767 0
M  V30 3918 H 371.951 0.676561 2.8724 0
M  V30 3919 H 372.032 1.95404 1.65079 0
M  V30 3920 H 371.676 3.69724 3.48233 0
M  V30 3921 H 371.606 2.39111 4.69184 0
M  V30 3922 H 374.097 2.06568 3.16446 0
M  V30 3923 H 374.41 4.73403 6.10827 0
M  V30 3924 H 372.755 4.25195 5.49759 0
M  V30 3925 H 375.946 2.62887 3.87309 0
M  V30 3926 H 376.119 3.84547 5.21562 0
M  V30 3927 N 369.525 -1.3858 0.750561 0
M  V30 3928 C 370.772 -2.00184 0.305373 0
M  V30 3929 C 371.1 -1.59575 -1.11203 0
M  V30 3930 O 370.355 -0.823236 -1.77542 0
M  V30 3931 C 370.654 -3.55455 0.372373 0
M  V30 3932 C 370.32 -4.15765 1.745 0
M  V30 3933 C 368.982 -4.31951 2.12065 0
M  V30 3934 C 371.334 -4.49067 2.64553 0
M  V30 3935 C 368.662 -4.78734 3.39162 0
M  V30 3936 C 371.014 -4.97265 3.91038 0
M  V30 3937 C 369.678 -5.11658 4.28676 0
M  V30 3938 H 368.948 -0.732526 0.111744 0
M  V30 3939 H 371.595 -1.65673 0.960451 0
M  V30 3940 H 369.9 -3.90084 -0.366272 0
M  V30 3941 H 371.597 -4.00999 0.00953918 0
M  V30 3942 H 368.187 -4.03579 1.44297 0
M  V30 3943 H 372.371 -4.36166 2.36796 0
M  V30 3944 H 367.627 -4.88062 3.68246 0
M  V30 3945 H 371.801 -5.22003 4.60962 0
M  V30 3946 H 369.428 -5.47668 5.27222 0
M  V30 3947 N 371.003 -0.499398 -1.49478 0
M  V30 3948 C 371.951 0.293604 -2.3074 0
M  V30 3949 C 372.945 0.96427 -1.39277 0
M  V30 3950 O 374.151 0.892141 -1.56336 0
M  V30 3951 H 370.526 0.113541 -0.743379 0
M  V30 3952 H 372.497 -0.411772 -2.95545 0
M  V30 3953 C 371.246 1.3462 -3.20582 0
M  V30 3954 H 370.569 0.83954 -3.90886 0
M  V30 3955 H 372.009 1.87308 -3.80384 0
M  V30 3956 C 370.468 2.36351 -2.40083 0
M  V30 3957 O 370.998 3.422 -2.10385 0
M  V30 3958 N 369.204 2.0878 -2.02137 0
M  V30 3959 H 368.751 1.22723 -2.26488 0
M  V30 3960 H 368.709 2.77075 -1.48583 0
M  V30 3961 N 372.481 1.55866 -0.233164 0
M  V30 3962 C 373.444 2.1953 0.658715 0
M  V30 3963 C 374.444 1.16053 1.11303 0
M  V30 3964 O 375.634 1.41218 1.01996 0
M  V30 3965 C 372.766 2.82791 1.90373 0
M  V30 3966 H 373.959 2.99721 0.10347 0
M  V30 3967 H 371.512 1.56291 0.0164245 0
M  V30 3968 H 372.247 2.06501 2.50056 0
M  V30 3969 H 372.032 3.58578 1.58632 0
M  V30 3970 H 373.522 3.31556 2.53891 0
M  V30 3971 N 373.959 -0.0401083 1.57549 0
M  V30 3972 C 374.869 -1.06133 2.0922 0
M  V30 3973 C 375.885 -1.40356 1.0284 0
M  V30 3974 O 377.061 -1.49897 1.34509 0
M  V30 3975 C 374.126 -2.34658 2.55218 0
M  V30 3976 C 373.187 -2.07117 3.76033 0
M  V30 3977 C 372.42 -3.29514 4.19829 0
M  V30 3978 O 372.643 -4.39794 3.63232 0
M  V30 3979 O 371.577 -3.15863 5.12362 0
M  V30 3980 H 375.403 -0.652244 2.96613 0
M  V30 3981 H 372.988 -0.256368 1.47184 0
M  V30 3982 H 374.87 -3.10239 2.85184 0
M  V30 3983 H 373.545 -2.74883 1.70941 0
M  V30 3984 H 372.452 -1.29139 3.51104 0
M  V30 3985 H 373.785 -1.71754 4.61261 0
M  V30 3986 N 375.437 -1.54477 -0.31217 0
M  V30 3987 C 376.683 -1.73483 -1.0503 0
M  V30 3988 C 377.016 -0.513125 -1.87298 0
M  V30 3989 O 376.291 0.489864 -1.8823 0
M  V30 3990 C 376.574 -3.01723 -1.96558 0
M  V30 3991 C 376.427 -4.3417 -1.17545 0
M  V30 3992 C 377.746 -3.25772 -2.95907 0
M  V30 3993 H 374.865 -0.631222 -0.380432 0
M  V30 3994 H 377.507 -1.87184 -0.325932 0
M  V30 3995 H 375.657 -2.90174 -2.58324 0
M  V30 3996 H 377.329 -4.5762 -0.581513 0
M  V30 3997 H 375.572 -4.31159 -0.477925 0
M  V30 3998 H 376.243 -5.20143 -1.84811 0
M  V30 3999 H 378.719 -3.36857 -2.44267 0
M  V30 4000 H 377.595 -4.16838 -3.57123 0
M  V30 4001 H 377.856 -2.43537 -3.68974 0
M  V30 4002 N 376.915 0.57481 -1.46744 0
M  V30 4003 C 378.192 1.3352 -1.4294 0
M  V30 4004 C 378.572 2.10775 -0.117009 0
M  V30 4005 O 377.92 2.09966 0.901474 0
M  V30 4006 C 378.13 2.25456 -2.66403 0
M  V30 4007 C 379.478 2.87035 -3.12883 0
M  V30 4008 O 380.502 2.35766 -2.67007 0
M  V30 4009 O 379.361 3.80179 -3.92589 0
M  V30 4010 H 376.455 0.600318 -0.568812 0
M  V30 4011 H 379.001 0.595171 -1.58921 0
M  V30 4012 H 377.773 1.67851 -3.53471 0
M  V30 4013 H 377.396 3.06785 -2.52921 0
M  V30 4014 N 378.394 1.34581 0.820102 0
M  V30 4015 C 379.326 1.22236 1.93884 0
M  V30 4016 C 380.339 0.148776 1.62119 0
M  V30 4017 O 381.528 0.400877 1.7394 0
M  V30 4018 C 378.628 0.856542 3.27897 0
M  V30 4019 C 377.801 2.02569 3.87666 0
M  V30 4020 C 376.86 1.63782 5.00062 0
M  V30 4021 O 375.886 2.35477 5.18208 0
M  V30 4022 N 377.088 0.553611 5.77854 0
M  V30 4023 H 379.853 2.18615 2.05006 0
M  V30 4024 H 377.414 1.27573 0.99683 0
M  V30 4025 H 379.406 0.578806 4.0054 0
M  V30 4026 H 377.976 -0.0171518 3.12595 0
M  V30 4027 H 377.196 2.468 3.07382 0
M  V30 4028 H 378.484 2.80752 4.24329 0
M  V30 4029 H 377.882 -0.0423528 5.65684 0
M  V30 4030 H 376.439 0.335614 6.50935 0
M  V30 4031 N 379.872 -1.04064 1.18357 0
M  V30 4032 C 381.121 -1.76662 0.973313 0
M  V30 4033 C 381.434 -1.89154 -0.497991 0
M  V30 4034 O 382.64 -2.58606 -0.826762 0
M  V30 4035 C 381.096 -3.17624 1.69242 0
M  V30 4036 C 380.704 -3.13225 3.20303 0
M  V30 4037 C 382.448 -3.946 1.56497 0
M  V30 4038 C 380.355 -4.49046 3.84853 0
M  V30 4039 H 379.285 -0.662214 0.36054 0
M  V30 4040 H 381.936 -1.16553 1.41731 0
M  V30 4041 H 380.318 -3.78129 1.1762 0
M  V30 4042 H 381.492 -2.62172 3.78949 0
M  V30 4043 H 379.807 -2.49749 3.33189 0
M  V30 4044 H 382.404 -4.95042 2.02084 0
M  V30 4045 H 382.747 -4.13074 0.517243 0
M  V30 4046 H 383.28 -3.4067 2.05399 0
M  V30 4047 H 380.019 -4.35777 4.89672 0
M  V30 4048 H 379.539 -5.00203 3.30994 0
M  V30 4049 H 381.218 -5.17961 3.87718 0
M  V30 4050 N 381.35 -0.985608 -1.22978 0
M  V30 4051 C 382.578 -0.675582 -1.95559 0
M  V30 4052 C 382.993 0.758413 -1.72897 0
M  V30 4053 O 382.35 1.51094 -1.02357 0
M  V30 4054 C 382.401 -0.96293 -3.48439 0
M  V30 4055 O 382.122 -2.34057 -3.70336 0
M  V30 4056 C 383.623 -0.669585 -4.38214 0
M  V30 4057 H 380.843 -0.250523 -0.622478 0
M  V30 4058 H 383.387 -1.3184 -1.56328 0
M  V30 4059 H 381.542 -0.366033 -3.85667 0
M  V30 4060 H 381.956 -2.43424 -4.64591 0
M  V30 4061 H 383.43 -0.920967 -5.44263 0
M  V30 4062 H 383.907 0.396383 -4.37408 0
M  V30 4063 H 384.513 -1.2472 -4.06602 0
M  V30 4064 N 382.828 1.3818 -0.7579 0
M  V30 4065 C 384.076 1.99624 -0.315361 0
M  V30 4066 C 384.397 1.60464 1.10799 0
M  V30 4067 O 383.667 0.863507 1.75842 0
M  V30 4068 H 382.247 0.73831 -0.113611 0
M  V30 4069 H 384.909 1.68878 -0.972952 0
M  V30 4070 H 384.005 3.09754 -0.381931 0
M  V30 4071 N 384.306 0.507319 1.49211 0
M  V30 4072 C 385.536 -0.0315292 2.06576 0
M  V30 4073 C 385.944 -1.30791 1.36713 0
M  V30 4074 O 385.287 -1.78324 0.441181 0
M  V30 4075 C 385.349 -0.349104 3.57801 0
M  V30 4076 C 385.013 0.830475 4.49391 0
M  V30 4077 C 386.01 1.72271 4.90529 0
M  V30 4078 C 383.695 1.03107 4.91604 0
M  V30 4079 C 385.689 2.79964 5.72625 0
M  V30 4080 C 383.376 2.11116 5.73475 0
M  V30 4081 C 384.374 2.99379 6.1389 0
M  V30 4082 O 384.062 4.05523 6.94123 0
M  V30 4083 H 383.794 0.0201002 0.675701 0
M  V30 4084 H 386.348 0.705737 1.92895 0
M  V30 4085 H 384.578 -1.14005 3.69513 0
M  V30 4086 H 386.267 -0.827319 3.97379 0
M  V30 4087 H 387.033 1.57958 4.58557 0
M  V30 4088 H 382.912 0.353417 4.59643 0
M  V30 4089 H 386.456 3.48884 6.04091 0
M  V30 4090 H 382.353 2.25421 6.0486 0
M  V30 4091 H 383.121 4.02953 7.1244 0
M  V30 4092 N 385.784 -1.5574 0.241426 0
M  V30 4093 C 386.731 -2.21149 -0.660432 0
M  V30 4094 C 387.701 -1.17356 -1.17545 0
M  V30 4095 O 388.886 -1.45784 -1.23093 0
M  V30 4096 C 386.026 -2.91059 -1.85414 0
M  V30 4097 C 385.139 -4.09495 -1.37616 0
M  V30 4098 C 384.274 -4.67135 -2.529 0
M  V30 4099 C 383.313 -5.77831 -2.01936 0
M  V30 4100 N 382.45 -6.29677 -3.10566 0
M  V30 4101 H 387.29 -2.97845 -0.095955 0
M  V30 4102 H 384.827 -1.47057 -0.0356024 0
M  V30 4103 H 386.785 -3.29788 -2.5553 0
M  V30 4104 H 385.415 -2.16846 -2.39118 0
M  V30 4105 H 384.467 -3.76117 -0.569235 0
M  V30 4106 H 385.779 -4.89423 -0.962618 0
M  V30 4107 H 384.933 -5.08409 -3.31067 0
M  V30 4108 H 383.672 -3.86411 -2.97553 0
M  V30 4109 H 382.677 -5.36039 -1.22238 0
M  V30 4110 H 383.902 -6.60402 -1.58259 0
M  V30 4111 H 381.848 -5.5186 -3.54664 0
M  V30 4112 H 381.765 -7.04783 -2.73526 0
M  V30 4113 H 383.033 -6.75609 -3.88809 0
M  V30 4114 N 387.262 0.0317525 -1.57568 0
M  V30 4115 C 388.49 0.734949 -1.93407 0
M  V30 4116 C 388.905 1.69036 -0.84096 0
M  V30 4117 O 388.262 1.81582 0.182836 0
M  V30 4118 C 388.313 1.49432 -3.29169 0
M  V30 4119 O 388.034 0.577261 -4.3428 0
M  V30 4120 C 389.535 2.29492 -3.79273 0
M  V30 4121 H 386.755 0.206706 -0.638368 0
M  V30 4122 H 389.299 -0.00992046 -2.04498 0
M  V30 4123 H 387.454 2.1911 -3.19483 0
M  V30 4124 H 387.868 1.10952 -5.1263 0
M  V30 4125 H 389.342 2.78172 -4.76785 0
M  V30 4126 H 389.819 3.10794 -3.10328 0
M  V30 4127 H 390.425 1.64894 -3.92033 0
M  V30 4128 N 388.74 1.54641 0.303973 0
M  V30 4129 C 389.672 1.81754 1.39636 0
M  V30 4130 C 390.685 0.70035 1.46966 0
M  V30 4131 O 391.874 0.97778 1.49338 0
M  V30 4132 C 388.974 1.93785 2.7803 0
M  V30 4133 C 388.147 3.24156 2.93669 0
M  V30 4134 C 387.206 3.26641 4.12544 0
M  V30 4135 O 386.232 4.00187 4.04771 0
M  V30 4136 N 387.434 2.5182 5.23036 0
M  V30 4137 H 390.199 2.76031 1.16734 0
M  V30 4138 H 387.76 1.54178 0.494033 0
M  V30 4139 H 389.752 1.92852 3.55795 0
M  V30 4140 H 388.322 1.06515 2.93893 0
M  V30 4141 H 387.542 3.37887 2.03042 0
M  V30 4142 H 388.83 4.10195 3.01027 0
M  V30 4143 H 388.228 1.91692 5.32232 0
M  V30 4144 H 386.785 2.56644 5.99147 0
M  V30 4145 N 390.218 -0.567019 1.47046 0
M  V30 4146 C 391.443 -1.3551 1.57009 0
M  V30 4147 C 391.868 -1.86841 0.217259 0
M  V30 4148 O 391.226 -1.62435 -0.805268 0
M  V30 4149 C 391.274 -2.50777 2.5912 0
M  V30 4150 O 390.378 -3.52706 2.13711 0
M  V30 4151 H 389.719 -0.402919 0.52778 0
M  V30 4152 H 392.249 -0.686241 1.92748 0
M  V30 4153 H 392.259 -2.97481 2.79229 0
M  V30 4154 H 390.934 -2.12771 3.57353 0
M  V30 4155 H 389.511 -3.12374 2.03659 0
M  V30 4156 N 391.696 -1.35014 -0.812953 0
M  V30 4157 C 392.945 -1.27269 -1.56479 0
M  V30 4158 C 393.258 0.152771 -1.95002 0
M  V30 4159 O 394.464 0.352451 -2.69203 0
M  V30 4160 C 392.92 -2.23159 -2.82362 0
M  V30 4161 C 392.528 -3.71016 -2.511 0
M  V30 4162 C 394.272 -2.24342 -3.60376 0
M  V30 4163 C 392.179 -4.58746 -3.73237 0
M  V30 4164 H 391.109 -0.472829 -0.587324 0
M  V30 4165 H 393.76 -1.6024 -0.894171 0
M  V30 4166 H 392.142 -1.83151 -3.51101 0
M  V30 4167 H 393.316 -4.1962 -1.90409 0
M  V30 4168 H 391.631 -3.72378 -1.86343 0
M  V30 4169 H 394.228 -2.87107 -4.51081 0
M  V30 4170 H 394.571 -1.24542 -3.97234 0
M  V30 4171 H 395.104 -2.62846 -2.98591 0
M  V30 4172 H 391.843 -5.59521 -3.41492 0
M  V30 4173 H 391.363 -4.14871 -4.33176 0
M  V30 4174 H 393.042 -4.73852 -4.40537 0
M  V30 4175 N 393.175 1.03435 -1.18907 0
M  V30 4176 C 394.105 2.13503 -0.945448 0
M  V30 4177 C 395.086 1.69682 0.119189 0
M  V30 4178 O 396.271 1.94169 -0.034707 0
M  V30 4179 C 393.401 3.44004 -0.477316 0
M  V30 4180 C 392.355 4.0148 -1.48316 0
M  V30 4181 C 391.681 5.27537 -0.872311 0
M  V30 4182 C 392.981 4.36921 -2.86177 0
M  V30 4183 H 394.675 2.34141 -1.86597 0
M  V30 4184 H 392.221 1.12523 -0.898584 0
M  V30 4185 H 394.174 4.20372 -0.294204 0
M  V30 4186 H 392.898 3.23072 0.478786 0
M  V30 4187 H 391.557 3.27201 -1.65332 0
M  V30 4188 H 391.205 5.02917 0.0911752 0
M  V30 4189 H 390.905 5.66954 -1.54393 0
M  V30 4190 H 392.429 6.06576 -0.699871 0
M  V30 4191 H 393.843 5.04248 -2.72776 0
M  V30 4192 H 392.24 4.87405 -3.50081 0
M  V30 4193 H 393.31 3.46466 -3.39248 0
M  V30 4194 N 394.653 0.992116 1.22453 0
M  V30 4195 C 395.893 0.675727 1.92907 0
M  V30 4196 C 396.257 -0.777762 1.75542 0
M  V30 4197 O 397.458 -1.20553 2.40251 0
M  V30 4198 C 395.729 1.0696 3.4102 0
M  V30 4199 S 397.288 0.871456 4.30059 0
M  V30 4200 H 394.106 0.247089 0.666684 0
M  V30 4201 H 396.708 1.27423 1.48269 0
M  V30 4202 H 395.412 2.12383 3.51172 0
M  V30 4203 H 394.943 0.462858 3.90668 0
M  V30 4204 H 396.958 -0.238436 4.95627 0
M  V30 4205 N 396.131 -1.37776 0.765217 0
M  V30 4206 C 397.064 -2.28008 0.0935025 0
M  V30 4207 C 398.042 -1.45985 -0.716047 0
M  V30 4208 O 399.226 -1.75331 -0.692203 0
M  V30 4209 C 396.353 -3.27228 -0.874052 0
M  V30 4210 C 395.399 -4.26239 -0.149307 0
M  V30 4211 S 396.232 -5.22827 1.15809 0
M  V30 4212 C 397.388 -6.256 0.193906 0
M  V30 4213 H 397.621 -2.84631 0.858637 0
M  V30 4214 H 395.154 -1.43952 0.558313 0
M  V30 4215 H 397.112 -3.84902 -1.42691 0
M  V30 4216 H 395.773 -2.69565 -1.61225 0
M  V30 4217 H 394.966 -4.96213 -0.88254 0
M  V30 4218 H 394.568 -3.7252 0.332366 0
M  V30 4219 H 396.86 -6.74508 -0.636011 0
M  V30 4220 H 397.803 -7.02838 0.861638 0
M  V30 4221 H 398.211 -5.64173 -0.191975 0
M  V30 4222 N 397.609 -0.515225 -1.4894 0
M  V30 4223 C 399.02 -0.0710067 -1.86565 0
M  V30 4224 C 399.371 1.34733 -1.42623 0
M  V30 4225 O 398.496 2.00653 -0.810379 0
M  V30 4226 C 399.091 -0.122083 -3.3858 0
M  V30 4227 C 397.65 0.266863 -3.75453 0
M  V30 4228 C 396.797 -0.488376 -2.72966 0
M  V30 4229 H 399.748 -0.727266 -1.41055 0
M  V30 4230 H 399.769 0.669818 -3.74558 0
M  V30 4231 H 399.281 -1.15448 -3.70531 0
M  V30 4232 H 397.382 1.30196 -3.49113 0
M  V30 4233 H 397.495 -0.0624811 -4.79059 0
M  V30 4234 H 395.859 0.0635622 -2.54621 0
M  V30 4235 H 396.642 -1.52113 -3.07761 0
M  V30 4236 N 399.087 1.5561 -0.249682 0
M  V30 4237 C 400.336 1.98187 0.37479 0
M  V30 4238 C 400.649 1.14111 1.58865 0
M  V30 4239 O 401.855 1.46714 2.28445 0
M  V30 4240 C 400.311 3.52661 0.718192 0
M  V30 4241 C 399.919 4.45481 -0.474428 0
M  V30 4242 C 401.663 4.03888 1.3067 0
M  V30 4243 C 399.57 5.91303 -0.107026 0
M  V30 4244 H 398.5 0.740159 0.143808 0
M  V30 4245 H 401.151 1.80125 -0.350336 0
M  V30 4246 H 399.533 3.66429 1.50152 0
M  V30 4247 H 400.707 4.43473 -1.25172 0
M  V30 4248 H 399.022 4.04751 -0.978052 0
M  V30 4249 H 401.619 5.10358 1.59496 0
M  V30 4250 H 401.962 3.51401 2.23211 0
M  V30 4251 H 402.495 3.93457 0.586211 0
M  V30 4252 H 399.234 6.47833 -0.999642 0
M  V30 4253 H 398.754 5.9644 0.634013 0
M  V30 4254 H 400.433 6.46258 0.309807 0
M  V30 4255 N 400.565 -0.0233959 1.57583 0
M  V30 4256 C 401.512 -1.02224 2.06927 0
M  V30 4257 C 402.482 -1.35575 0.959617 0
M  V30 4258 O 403.667 -1.45815 1.23055 0
M  V30 4259 C 400.807 -2.31636 2.5581 0
M  V30 4260 C 399.92 -2.04394 3.80588 0
M  V30 4261 C 399.055 -3.27717 4.18061 0
M  V30 4262 C 398.094 -2.96056 5.3574 0
M  V30 4263 N 397.231 -4.11847 5.68618 0
M  V30 4264 H 402.071 -0.594504 2.9201 0
M  V30 4265 H 399.608 -0.281921 1.44373 0
M  V30 4266 H 401.566 -3.07258 2.82221 0
M  V30 4267 H 400.196 -2.72122 1.73636 0
M  V30 4268 H 399.248 -1.19244 3.61227 0
M  V30 4269 H 400.56 -1.77042 4.66323 0
M  V30 4270 H 399.714 -4.11702 4.4563 0
M  V30 4271 H 398.453 -3.58188 3.30988 0
M  V30 4272 H 397.458 -2.10474 5.07918 0
M  V30 4273 H 398.683 -2.66857 6.24471 0
M  V30 4274 H 396.629 -4.42258 4.84504 0
M  V30 4275 H 396.546 -3.87938 6.48876 0
M  V30 4276 H 397.814 -4.96689 6.00766 0
M  V30 4277 N 402.043 -1.548 -0.295768 0
M  V30 4278 C 402.991 -1.86874 -1.38495 0
M  V30 4279 C 403.985 -0.742938 -1.52239 0
M  V30 4280 O 405.191 -0.926999 -1.54294 0
M  V30 4281 H 401.566 -0.592786 -0.462719 0
M  V30 4282 H 403.537 -2.77904 -1.08682 0
M  V30 4283 C 402.286 -2.13732 -2.74252 0
M  V30 4284 H 401.609 -2.99835 -2.64459 0
M  V30 4285 H 403.049 -2.4011 -3.49461 0
M  V30 4286 C 401.508 -0.937539 -3.23592 0
M  V30 4287 O 402.038 -0.160665 -4.01379 0
M  V30 4288 N 400.244 -0.741478 -2.80981 0
M  V30 4289 H 399.791 -1.37489 -2.1784 0
M  V30 4290 H 399.749 0.0597103 -3.14343 0
M  V30 4291 N 403.521 0.559213 -1.47345 0
M  V30 4292 C 404.471 1.66192 -1.5609 0
M  V30 4293 C 405.455 1.55323 -0.419957 0
M  V30 4294 O 406.647 1.63839 -0.669762 0
M  V30 4295 C 403.776 3.0497 -1.57634 0
M  V30 4296 C 402.862 3.2105 -2.77106 0
M  V30 4297 N 403.253 3.07203 -4.01821 0
M  V30 4298 C 401.551 3.52046 -2.73825 0
M  V30 4299 C 402.252 3.25919 -4.81821 0
M  V30 4300 N 401.228 3.52161 -4.14106 0
M  V30 4301 H 405.03 1.54052 -2.5029 0
M  V30 4302 H 402.544 0.763914 -1.43311 0
M  V30 4303 H 404.541 3.84142 -1.61989 0
M  V30 4304 H 403.201 3.18224 -0.645281 0
M  V30 4305 H 404.212 2.84572 -4.32711 0
M  V30 4306 H 400.889 3.71839 -1.89848 0
M  V30 4307 H 402.279 3.20198 -5.90697 0
M  V30 4308 N 404.999 1.35443 0.805782 0
M  V30 4309 C 406.415 1.15499 1.10146 0
M  V30 4310 C 406.615 -0.0319975 2.01475 0
M  V30 4311 O 405.671 -0.70236 2.42535 0
M  V30 4312 C 406.984 2.45833 1.73166 0
M  V30 4313 C 408.532 2.52047 1.85583 0
M  V30 4314 C 409.007 3.82427 2.52019 0
M  V30 4315 N 410.498 3.83682 2.59504 0
M  V30 4316 C 411.233 4.81294 3.11679 0
M  V30 4317 N 410.729 5.89294 3.64287 0
M  V30 4318 N 412.522 4.6873 3.1024 0
M  V30 4319 H 404.673 2.11469 0.198678 0
M  V30 4320 H 406.936 0.93594 0.150731 0
M  V30 4321 H 406.642 3.32874 1.13526 0
M  V30 4322 H 406.516 2.6044 2.72857 0
M  V30 4323 H 408.903 1.65435 2.44367 0
M  V30 4324 H 408.984 2.41354 0.847455 0
M  V30 4325 H 408.628 4.69437 1.93885 0
M  V30 4326 H 408.558 3.90409 3.53395 0
M  V30 4327 H 411.049 3.05648 2.22234 0
M  V30 4328 H 411.362 6.59768 4.02401 0
M  V30 4329 H 409.707 5.92985 3.62483 0
M  V30 4330 H 412.898 3.83496 2.68419 0
M  V30 4331 H 413.071 5.44965 3.50596 0
M  V30 4332 N 406.477 -1.02803 1.19454 0
M  V30 4333 C 407.387 -2.14575 0.948408 0
M  V30 4334 C 408.403 -1.73757 -0.091871 0
M  V30 4335 O 409.579 -2.01185 0.0929654 0
M  V30 4336 C 406.644 -3.43202 0.491265 0
M  V30 4337 C 405.705 -3.98328 1.60103 0
M  V30 4338 C 404.938 -5.20816 1.16561 0
M  V30 4339 O 405.161 -5.70392 0.0295238 0
M  V30 4340 O 404.095 -5.68801 1.96849 0
M  V30 4341 H 407.921 -2.38202 1.88397 0
M  V30 4342 H 405.506 -1.12989 0.977433 0
M  V30 4343 H 407.388 -4.20687 0.245015 0
M  V30 4344 H 406.063 -3.21018 -0.415851 0
M  V30 4345 H 404.97 -3.22174 1.90144 0
M  V30 4346 H 406.303 -4.24879 2.48473 0
M  V30 4347 N 407.956 -0.998596 -1.21925 0
M  V30 4348 C 408.866 -0.562736 -2.27751 0
M  V30 4349 C 409.882 0.391203 -1.69545 0
M  V30 4350 O 411.058 0.256625 -1.99758 0
M  V30 4351 C 408.123 0.11012 -3.46525 0
M  V30 4352 C 407.184 -0.887495 -4.20026 0
M  V30 4353 C 406.417 -0.246654 -5.3313 0
M  V30 4354 O 406.64 0.958088 -5.62296 0
M  V30 4355 O 405.574 -0.954374 -5.94286 0
M  V30 4356 H 409.4 -1.44329 -2.67213 0
M  V30 4357 H 406.985 -0.767135 -1.28201 0
M  V30 4358 H 408.867 0.486756 -4.18579 0
M  V30 4359 H 407.542 0.965154 -3.08976 0
M  V30 4360 H 406.449 -1.31517 -3.5022 0
M  V30 4361 H 407.782 -1.71191 -4.6147 0
M  V30 4362 N 409.434 1.37368 -0.772513 0
M  V30 4363 C 410.68 1.99969 -0.337681 0
M  V30 4364 C 411.013 1.61184 1.08321 0
M  V30 4365 O 410.288 0.858395 1.74533 0
M  V30 4366 C 410.571 3.56858 -0.482121 0
M  V30 4367 C 410.424 4.0555 -1.94549 0
M  V30 4368 C 411.743 4.39955 0.113143 0
M  V30 4369 H 408.862 0.726464 -0.124171 0
M  V30 4370 H 411.504 1.63034 -0.975699 0
M  V30 4371 H 409.654 3.88452 0.0610361 0
M  V30 4372 H 411.326 3.84518 -2.54841 0
M  V30 4373 H 409.569 3.57715 -2.45403 0
M  V30 4374 H 410.24 5.14587 -1.9976 0
M  V30 4375 H 412.716 4.14623 -0.35031 0
M  V30 4376 H 411.592 5.48897 -0.0180514 0
M  V30 4377 H 411.853 4.25403 1.20354 0
M  V30 4378 N 410.912 0.523116 1.48665 0
M  V30 4379 C 412.158 -0.0134963 2.02796 0
M  V30 4380 C 412.491 -1.34582 1.40004 0
M  V30 4381 O 411.766 -1.86756 0.543381 0
M  V30 4382 C 412.049 -0.14276 3.59817 0
M  V30 4383 C 411.902 1.21425 4.331 0
M  V30 4384 C 413.221 -0.872856 4.31357 0
M  V30 4385 H 410.34 -0.00343074 0.736992 0
M  V30 4386 H 412.982 0.678816 1.7746 0
M  V30 4387 H 411.132 -0.732401 3.81534 0
M  V30 4388 H 412.804 1.84447 4.2282 0
M  V30 4389 H 411.047 1.79791 3.94788 0
M  V30 4390 H 411.718 1.07687 5.41394 0
M  V30 4391 H 414.194 -0.372555 4.14429 0
M  V30 4392 H 413.07 -0.932185 5.40927 0
M  V30 4393 H 413.331 -1.92161 3.98154 0
M  V30 4394 N 412.39 -1.55475 0.257931 0
M  V30 4395 C 413.638 -1.98813 -0.363009 0
M  V30 4396 C 413.959 -1.14757 -1.57657 0
M  V30 4397 O 413.229 -0.232956 -1.9451 0
M  V30 4398 H 411.809 -0.734308 -0.137113 0
M  V30 4399 H 414.471 -1.9156 0.359281 0
M  V30 4400 H 413.567 -3.04941 -0.664634 0
M  V30 4401 N 413.868 0.0150385 -1.57593 0
M  V30 4402 C 415.114 0.704043 -1.90187 0
M  V30 4403 C 415.447 1.74249 -0.857366 0
M  V30 4404 O 414.722 1.94092 0.125843 0
M  V30 4405 C 415.005 1.36087 -3.33395 0
M  V30 4406 C 414.858 0.334981 -4.48551 0
M  V30 4407 C 416.177 2.29112 -3.7576 0
M  V30 4408 H 413.296 0.254475 -0.691673 0
M  V30 4409 H 415.938 -0.0331678 -1.89971 0
M  V30 4410 H 414.088 1.98922 -3.3371 0
M  V30 4411 H 415.76 -0.292534 -4.60372 0
M  V30 4412 H 414.003 -0.344325 -4.32431 0
M  V30 4413 H 414.674 0.833316 -5.45674 0
M  V30 4414 H 417.15 1.76308 -3.76902 0
M  V30 4415 H 416.026 2.72043 -4.76743 0
M  V30 4416 H 416.287 3.16385 -3.08793 0
M  V30 4417 N 415.346 1.54954 0.287554 0
M  V30 4418 C 416.309 1.86076 1.33823 0
M  V30 4419 C 417.309 0.734414 1.43049 0
M  V30 4420 O 418.499 1.00266 1.42452 0
M  V30 4421 C 415.631 2.05305 2.72144 0
M  V30 4422 H 416.824 2.79984 1.07465 0
M  V30 4423 H 414.377 1.47223 0.524902 0
M  V30 4424 H 415.112 1.1373 3.03704 0
M  V30 4425 H 414.897 2.873 2.66836 0
M  V30 4426 H 416.387 2.30706 3.48087 0
M  V30 4427 N 416.824 -0.551391 1.4764 0
M  V30 4428 C 417.756 -1.67333 1.56628 0
M  V30 4429 C 418.769 -1.56398 0.452045 0
M  V30 4430 O 419.958 -1.6325 0.721926 0
M  V30 4431 C 417.058 -3.05841 1.45994 0
M  V30 4432 C 416.231 -3.42472 2.72088 0
M  V30 4433 C 415.29 -4.60168 2.55209 0
M  V30 4434 O 414.316 -4.64458 3.2904 0
M  V30 4435 N 415.518 -5.57024 1.63416 0
M  V30 4436 H 418.283 -1.60066 2.53375 0
M  V30 4437 H 415.844 -0.738169 1.44093 0
M  V30 4438 H 417.836 -3.8242 1.32428 0
M  V30 4439 H 416.406 -3.07302 0.573071 0
M  V30 4440 H 415.626 -2.55284 3.00373 0
M  V30 4441 H 416.914 -3.63723 3.55785 0
M  V30 4442 H 416.312 -5.56319 1.02594 0
M  V30 4443 H 414.869 -6.32906 1.558 0
M  V30 4444 N 418.302 -1.35869 -0.798587 0
M  V30 4445 C 419.265 -1.29307 -1.89242 0
M  V30 4446 C 420.265 -0.202747 -1.59517 0
M  V30 4447 O 421.455 -0.456957 -1.681 0
M  V30 4448 C 418.587 -1.00229 -3.25833 0
M  V30 4449 H 419.78 -2.26576 -1.96478 0
M  V30 4450 H 417.333 -1.20509 -0.995358 0
M  V30 4451 H 418.068 -0.033801 -3.24282 0
M  V30 4452 H 417.853 -1.79121 -3.48795 0
M  V30 4453 H 419.343 -0.98219 -4.05885 0
M  V30 4454 N 419.78 1.02168 -1.19998 0
M  V30 4455 C 421.029 1.75091 -1.0013 0
M  V30 4456 C 421.342 1.89923 0.467835 0
M  V30 4457 O 422.548 2.59888 0.785515 0
M  V30 4458 C 421.004 3.14892 -1.74273 0
M  V30 4459 C 420.612 3.0809 -3.25245 0
M  V30 4460 C 422.356 3.9206 -1.62755 0
M  V30 4461 C 420.263 4.42867 -3.91948 0
M  V30 4462 H 419.193 0.656394 -0.37103 0
M  V30 4463 H 421.844 1.14284 -1.43567 0
M  V30 4464 H 420.226 3.7621 -1.2362 0
M  V30 4465 H 421.4 2.5611 -3.83072 0
M  V30 4466 H 419.715 2.44416 -3.3712 0
M  V30 4467 H 422.312 4.91764 -2.09934 0
M  V30 4468 H 422.655 4.12199 -0.582894 0
M  V30 4469 H 423.188 3.37359 -2.10793 0
M  V30 4470 H 419.927 4.27931 -4.96543 0
M  V30 4471 H 419.447 4.94874 -3.3891 0
M  V30 4472 H 421.126 5.11728 -3.95909 0
M  V30 4473 N 421.258 1.00505 1.21394 0
M  V30 4474 C 422.206 0.558623 2.25792 0
M  V30 4475 C 423.2 -0.396848 1.64686 0
M  V30 4476 O 424.406 -0.268035 1.77993 0
M  V30 4477 H 420.781 0.1623 0.734277 0
M  V30 4478 H 422.752 1.4503 2.60785 0
M  V30 4479 C 421.501 -0.0989574 3.47559 0
M  V30 4480 H 420.824 0.627225 3.94849 0
M  V30 4481 H 422.264 -0.3746 4.22342 0
M  V30 4482 C 420.723 -1.33817 3.09184 0
M  V30 4483 O 421.253 -2.43252 3.19674 0
M  V30 4484 N 419.459 -1.21793 2.63846 0
M  V30 4485 H 419.006 -0.32746 2.5551 0
M  V30 4486 H 418.964 -2.04809 2.38539 0
M  V30 4487 N 422.737 -1.36956 0.779787 0
M  V30 4488 C 423.684 -2.30175 0.169697 0
M  V30 4489 C 424.654 -1.51501 -0.68094 0
M  V30 4490 O 425.839 -1.80042 -0.631629 0
M  V30 4491 C 422.979 -3.37985 -0.697131 0
M  V30 4492 C 422.092 -4.31661 0.170992 0
M  V30 4493 C 421.227 -5.2655 -0.701298 0
M  V30 4494 C 420.266 -6.11867 0.168869 0
M  V30 4495 N 419.403 -6.98973 -0.661855 0
M  V30 4496 H 424.243 -2.81767 0.970135 0
M  V30 4497 H 421.78 -1.38699 0.489994 0
M  V30 4498 H 423.738 -3.99128 -1.2146 0
M  V30 4499 H 422.368 -2.87739 -1.46309 0
M  V30 4500 H 421.42 -3.71756 0.80634 0
M  V30 4501 H 422.732 -4.91644 0.841875 0
M  V30 4502 H 421.886 -5.92937 -1.28494 0
M  V30 4503 H 420.625 -4.66998 -1.40584 0
M  V30 4504 H 419.63 -5.44452 0.764986 0
M  V30 4505 H 420.855 -6.73493 0.870863 0
M  V30 4506 H 418.801 -6.41941 -1.35086 0
M  V30 4507 H 418.718 -7.55984 -0.0484447 0
M  V30 4508 H 419.986 -7.6974 -1.22963 0
M  V30 4509 N 424.215 -0.530993 -1.48385 0
M  V30 4510 C 425.162 0.231223 -2.29639 0
M  V30 4511 C 426.132 0.932864 -1.37429 0
M  V30 4512 O 427.317 0.933692 -1.66394 0
M  V30 4513 C 424.457 1.27155 -3.2082 0
M  V30 4514 C 423.57 0.578655 -4.28107 0
M  V30 4515 C 422.705 1.602 -5.06467 0
M  V30 4516 C 421.744 0.892625 -6.05556 0
M  V30 4517 N 420.881 1.86157 -6.76971 0
M  V30 4518 H 425.721 -0.467848 -2.94305 0
M  V30 4519 H 423.258 -0.242556 -1.45086 0
M  V30 4520 H 425.216 1.88703 -3.72085 0
M  V30 4521 H 423.846 1.939 -2.58075 0
M  V30 4522 H 422.898 -0.150782 -3.80101 0
M  V30 4523 H 424.21 0.0217065 -4.98795 0
M  V30 4524 H 423.364 2.29173 -5.61751 0
M  V30 4525 H 422.103 2.19285 -4.35621 0
M  V30 4526 H 421.108 0.188829 -5.49476 0
M  V30 4527 H 422.333 0.307878 -6.78402 0
M  V30 4528 H 420.279 2.44147 -6.08875 0
M  V30 4529 H 420.196 1.35608 -7.43738 0
M  V30 4530 H 421.464 2.54325 -7.36844 0
M  V30 4531 N 425.693 1.55336 -0.266172 0
M  V30 4532 C 426.918 2.04258 0.359661 0
M  V30 4533 C 427.343 1.14359 1.49344 0
M  V30 4534 O 426.701 0.140369 1.80756 0
M  V30 4535 C 426.749 3.50997 0.826635 0
M  V30 4536 O 425.853 3.64204 1.93466 0
M  V30 4537 H 425.194 0.659668 0.075727 0
M  V30 4538 H 427.724 2.00694 -0.39786 0
M  V30 4539 H 427.734 3.9219 1.12477 0
M  V30 4540 H 426.409 4.159 -0.00293032 0
M  V30 4541 H 424.986 3.34913 1.63974 0
M  V30 4542 N 427.171 -0.0066808 1.57599 0
M  V30 4543 C 428.419 -0.691552 1.899 0
M  V30 4544 C 428.74 -1.74682 0.866672 0
M  V30 4545 O 428.01 -1.95661 -0.0968189 0
M  V30 4546 H 426.59 -0.258416 0.700878 0
M  V30 4547 H 429.252 0.0326655 1.94873 0
M  V30 4548 H 428.348 -1.16702 2.8946 0
M  V30 4549 N 428.649 -1.55105 -0.279332 0
M  V30 4550 C 429.597 -1.88333 -1.36505 0
M  V30 4551 C 430.591 -0.759043 -1.51443 0
M  V30 4552 O 431.797 -0.943312 -1.53302 0
M  V30 4553 H 428.172 -0.59766 -0.456406 0
M  V30 4554 H 430.143 -2.79041 -1.05728 0
M  V30 4555 C 428.892 -2.16628 -2.7197 0
M  V30 4556 H 428.215 -3.02624 -2.61264 0
M  V30 4557 H 429.655 -2.43803 -3.46895 0
M  V30 4558 C 428.114 -0.971807 -3.22579 0
M  V30 4559 O 428.644 -0.203228 -4.01186 0
M  V30 4560 N 426.85 -0.771238 -2.80179 0
M  V30 4561 H 426.397 -1.39792 -2.1637 0
M  V30 4562 H 426.355 0.0263667 -3.14389 0
M  V30 4563 N 430.127 0.543554 -1.4793 0
M  V30 4564 C 431.375 1.29752 -1.54948 0
M  V30 4565 C 431.696 1.93764 -0.219242 0
M  V30 4566 O 430.966 1.80639 0.75805 0
M  V30 4567 H 429.546 0.481874 -0.570795 0
M  V30 4568 H 432.208 0.633636 -1.84312 0
M  V30 4569 H 431.304 2.08392 -2.32334 0
M  V30 4570 N 431.605 1.3629 0.791371 0
M  V30 4571 C 432.853 1.30154 1.5461 0
M  V30 4572 C 433.174 -0.119409 1.94634 0
M  V30 4573 O 432.444 -1.05924 1.64794 0
M  V30 4574 H 431.024 0.478784 0.573389 0
M  V30 4575 H 433.686 1.70565 0.94306 0
M  V30 4576 H 432.782 1.92762 2.45457 0
M  V30 4577 N 433.083 -1.0153 1.20538 0
M  V30 4578 C 434.311 -1.78746 1.04199 0
M  V30 4579 C 434.726 -1.84323 -0.408733 0
M  V30 4580 O 434.083 -1.29714 -1.28377 0
M  V30 4581 C 434.134 -3.23152 1.62035 0
M  V30 4582 O 433.855 -3.17918 3.0143 0
M  V30 4583 C 435.356 -4.16911 1.50666 0
M  V30 4584 H 432.576 -0.56208 0.366479 0
M  V30 4585 H 435.12 -1.27794 1.59653 0
M  V30 4586 H 433.275 -3.71248 1.10697 0
M  V30 4587 H 433.689 -4.08567 3.28897 0
M  V30 4588 H 435.163 -5.16072 1.95892 0
M  V30 4589 H 435.64 -4.36791 0.459363 0
M  V30 4590 H 436.246 -3.74698 2.01201 0
M  V30 4591 N 434.561 -1.01147 -1.20859 0
M  V30 4592 C 435.808 -0.697865 -1.90095 0
M  V30 4593 C 436.136 0.772014 -1.78522 0
M  V30 4594 O 435.391 1.57595 -1.16027 0
M  V30 4595 C 435.69 -1.0727 -3.40922 0
M  V30 4596 C 435.356 -2.53792 -3.72693 0
M  V30 4597 C 434.018 -2.93829 -3.81075 0
M  V30 4598 C 436.37 -3.48674 -3.87397 0
M  V30 4599 C 433.698 -4.27696 -4.01613 0
M  V30 4600 C 436.05 -4.82223 -4.09444 0
M  V30 4601 C 434.714 -5.21973 -4.16054 0
M  V30 4602 H 433.984 -0.255367 -0.695607 0
M  V30 4603 H 436.631 -1.27111 -1.43231 0
M  V30 4604 H 434.936 -0.417799 -3.89566 0
M  V30 4605 H 436.633 -0.807818 -3.92779 0
M  V30 4606 H 433.223 -2.21768 -3.66765 0
M  V30 4607 H 437.407 -3.18904 -3.80281 0
M  V30 4608 H 432.663 -4.58055 -4.04964 0
M  V30 4609 H 436.837 -5.55672 -4.19763 0
M  V30 4610 H 434.464 -6.25717 -4.31721 0
M  V30 4611 N 436.039 1.36541 -0.78704 0
M  V30 4612 C 437.267 2.03561 -0.370199 0
M  V30 4613 C 437.682 1.59347 1.01263 0
M  V30 4614 O 437.039 0.781781 1.64907 0
M  V30 4615 C 437.09 3.59033 -0.421614 0
M  V30 4616 O 436.811 4.01634 -1.7499 0
M  V30 4617 C 438.312 4.433 0.00489763 0
M  V30 4618 H 435.532 0.653346 -0.152904 0
M  V30 4619 H 438.076 1.74566 -1.06522 0
M  V30 4620 H 436.231 3.86746 0.224971 0
M  V30 4621 H 436.645 4.96217 -1.69909 0
M  V30 4622 H 438.119 5.51939 -0.0822184 0
M  V30 4623 H 438.596 4.26285 1.05723 0
M  V30 4624 H 439.202 4.20843 -0.614085 0
M  V30 4625 N 437.518 0.538854 1.48102 0
M  V30 4626 C 438.428 -0.222648 2.33541 0
M  V30 4627 C 439.444 -0.930225 1.47047 0
M  V30 4628 O 440.62 -0.903211 1.80011 0
M  V30 4629 C 437.685 -1.25064 3.23357 0
M  V30 4630 C 436.746 -0.552469 4.2573 0
M  V30 4631 C 435.979 -1.53149 5.11254 0
M  V30 4632 O 436.202 -2.76487 4.9891 0
M  V30 4633 O 435.136 -1.06602 5.92385 0
M  V30 4634 H 438.962 0.477707 2.99919 0
M  V30 4635 H 436.547 0.299669 1.46364 0
M  V30 4636 H 438.429 -1.8445 3.78888 0
M  V30 4637 H 437.104 -1.93325 2.59629 0
M  V30 4638 H 436.011 0.082114 3.7401 0
M  V30 4639 H 437.344 0.0883526 4.92121 0
M  V30 4640 N 438.996 -1.55193 0.274407 0
M  V30 4641 C 439.943 -2.225 -0.613374 0
M  V30 4642 C 440.913 -1.19823 -1.15029 0
M  V30 4643 O 442.098 -1.48362 -1.19973 0
M  V30 4644 C 439.238 -2.94927 -1.79199 0
M  V30 4645 C 438.351 -4.12322 -1.28899 0
M  V30 4646 C 437.486 -4.72394 -2.42934 0
M  V30 4647 C 436.525 -5.81984 -1.89634 0
M  V30 4648 N 435.662 -6.36123 -2.9714 0
M  V30 4649 H 440.502 -2.97982 -0.032756 0
M  V30 4650 H 438.039 -1.47099 -0.00440146 0
M  V30 4651 H 439.997 -3.35134 -2.48478 0
M  V30 4652 H 438.627 -2.2187 -2.34465 0
M  V30 4653 H 437.679 -3.7724 -0.489327 0
M  V30 4654 H 438.991 -4.91355 -0.858587 0
M  V30 4655 H 438.145 -5.15317 -3.20208 0
M  V30 4656 H 436.884 -3.92636 -2.8929 0
M  V30 4657 H 435.889 -5.38511 -1.1084 0
M  V30 4658 H 437.114 -6.6361 -1.44215 0
M  V30 4659 H 435.06 -5.59259 -3.42878 0
M  V30 4660 H 434.977 -7.10427 -2.58515 0
M  V30 4661 H 436.245 -6.83704 -3.74391 0
M  V30 4662 N 440.474 -0.00167713 -1.576 0
M  V30 4663 C 441.751 0.719951 -1.81868 0
M  V30 4664 C 442.131 1.91895 -0.879747 0
M  V30 4665 O 441.479 2.28389 0.0711423 0
M  V30 4666 C 441.689 1.12409 -3.30402 0
M  V30 4667 C 443.037 1.52724 -3.96182 0
M  V30 4668 O 444.061 1.21784 -3.34734 0
M  V30 4669 O 442.92 2.10265 -5.04431 0
M  V30 4670 H 440.014 0.350707 -0.748955 0
M  V30 4671 H 442.56 -0.0272597 -1.69678 0
M  V30 4672 H 441.332 0.269532 -3.90371 0
M  V30 4673 H 440.955 1.93035 -3.47596 0
M  V30 4674 N 441.952 1.55251 0.271103 0
M  V30 4675 C 442.862 1.9136 1.35714 0
M  V30 4676 C 443.878 0.811075 1.5394 0
M  V30 4677 O 445.054 1.11031 1.6803 0
M  V30 4678 C 442.119 2.1798 2.69603 0
M  V30 4679 C 441.18 3.4153 2.60107 0
M  V30 4680 C 440.413 3.66871 3.8761 0
M  V30 4681 O 440.636 2.94689 4.8838 0
M  V30 4682 O 439.57 4.60405 3.87699 0
M  V30 4683 H 443.396 2.83815 1.08088 0
M  V30 4684 H 440.981 1.41821 0.469792 0
M  V30 4685 H 442.863 2.36518 3.48765 0
M  V30 4686 H 441.538 1.28708 2.97012 0
M  V30 4687 H 440.445 3.28325 1.79314 0
M  V30 4688 H 441.778 4.31027 2.37647 0
M  V30 4689 N 443.43 -0.535701 1.48216 0
M  V30 4690 C 444.377 -1.64083 1.62312 0
M  V30 4691 C 445.347 -1.59448 0.465365 0
M  V30 4692 O 446.532 -1.77959 0.688135 0
M  V30 4693 C 443.672 -3.0236 1.66349 0
M  V30 4694 C 442.785 -3.17273 2.93193 0
M  V30 4695 C 441.92 -4.46075 2.88427 0
M  V30 4696 C 440.959 -4.54496 4.1 0
M  V30 4697 N 440.096 -5.7468 4.03345 0
M  V30 4698 H 444.936 -1.51374 2.5669 0
M  V30 4699 H 442.473 -0.737059 1.27302 0
M  V30 4700 H 444.431 -3.82461 1.66672 0
M  V30 4701 H 443.061 -3.13854 0.754672 0
M  V30 4702 H 442.113 -2.30462 3.02641 0
M  V30 4703 H 443.425 -3.19357 3.83162 0
M  V30 4704 H 442.579 -5.3446 2.87119 0
M  V30 4705 H 441.318 -4.46504 1.96177 0
M  V30 4706 H 440.323 -3.64519 4.11589 0
M  V30 4707 H 441.548 -4.5581 5.03402 0
M  V30 4708 H 439.494 -5.76017 3.13912 0
M  V30 4709 H 439.411 -5.78234 4.87013 0
M  V30 4710 H 440.679 -6.65367 4.06087 0
M  V30 4711 N 444.908 -1.36708 -0.784132 0
M  V30 4712 C 446.185 -1.21776 -1.53069 0
M  V30 4713 C 446.565 0.193876 -2.10208 0
M  V30 4714 O 445.913 1.20012 -1.94446 0
M  V30 4715 C 446.123 -2.30395 -2.62143 0
M  V30 4716 C 447.471 -2.67325 -3.29882 0
M  V30 4717 O 448.495 -2.29478 -2.7243 0
M  V30 4718 O 447.354 -3.32485 -4.33724 0
M  V30 4719 H 444.448 -0.474459 -0.677361 0
M  V30 4720 H 446.994 -1.48454 -0.82216 0
M  V30 4721 H 445.766 -3.2498 -2.17953 0
M  V30 4722 H 445.389 -2.05112 -3.40609 0
M  V30 4723 N 446.386 1.0089 -1.21074 0
M  V30 4724 C 447.633 1.74607 -1.0256 0
M  V30 4725 C 447.961 1.89426 0.44136 0
M  V30 4726 O 447.216 1.42266 1.34384 0
M  V30 4727 C 447.515 3.16335 -1.66334 0
M  V30 4728 C 447.181 3.21474 -3.16173 0
M  V30 4729 C 445.843 3.22583 -3.57062 0
M  V30 4730 C 448.195 3.19025 -4.12156 0
M  V30 4731 C 445.523 3.18925 -4.92446 0
M  V30 4732 C 447.875 3.16909 -5.47496 0
M  V30 4733 C 446.539 3.16326 -5.87787 0
M  V30 4734 H 445.809 0.638933 -0.375294 0
M  V30 4735 H 448.456 1.18274 -1.50611 0
M  V30 4736 H 446.761 3.75876 -1.10566 0
M  V30 4737 H 448.458 3.72083 -1.49516 0
M  V30 4738 H 445.048 3.2135 -2.83605 0
M  V30 4739 H 449.232 3.17332 -3.81595 0
M  V30 4740 H 444.488 3.16809 -5.22917 0
M  V30 4741 H 448.662 3.13968 -6.21609 0
M  V30 4742 H 446.289 3.13246 -6.92662 0
M  V30 4743 N 447.864 1.01787 1.20321 0
M  V30 4744 C 448.827 0.593972 2.2137 0
M  V30 4745 C 449.827 -0.336553 1.57239 0
M  V30 4746 O 451.017 -0.125069 1.7375 0
M  V30 4747 C 448.149 -0.132433 3.40643 0
M  V30 4748 H 449.342 1.48791 2.60387 0
M  V30 4749 H 446.895 0.807803 1.33807 0
M  V30 4750 H 447.63 -1.04123 3.0713 0
M  V30 4751 H 447.415 0.53605 3.88418 0
M  V30 4752 H 448.905 -0.416314 4.1552 0
M  V30 4753 N 449.342 -1.36122 0.79427 0
M  V30 4754 C 450.305 -2.28309 0.201889 0
M  V30 4755 C 451.305 -1.49041 -0.603603 0
M  V30 4756 O 452.495 -1.68964 -0.423888 0
M  V30 4757 C 449.627 -3.3321 -0.719978 0
M  V30 4758 H 450.82 -2.82208 1.01481 0
M  V30 4759 H 448.373 -1.45768 0.564037 0
M  V30 4760 H 449.108 -2.84475 -1.55706 0
M  V30 4761 H 448.893 -3.91835 -0.144266 0
M  V30 4762 H 450.383 -4.02044 -1.12916 0
M  V30 4763 N 450.82 -0.546701 -1.47814 0
M  V30 4764 C 452.05 -0.0232519 -2.06587 0
M  V30 4765 C 452.458 1.2712 -1.40133 0
M  V30 4766 O 451.801 1.77091 -0.488305 0
M  V30 4767 C 451.863 0.254117 -3.58601 0
M  V30 4768 C 451.527 -0.949331 -4.47031 0
M  V30 4769 C 452.524 -1.85216 -4.85789 0
M  V30 4770 C 450.209 -1.16104 -4.88697 0
M  V30 4771 C 452.203 -2.95047 -5.65001 0
M  V30 4772 C 449.89 -2.26247 -5.67676 0
M  V30 4773 C 450.888 -3.1555 -6.05737 0
M  V30 4774 O 450.576 -4.23784 -6.83127 0
M  V30 4775 H 450.308 -0.0380082 -0.674931 0
M  V30 4776 H 452.862 -0.756631 -1.90956 0
M  V30 4777 H 451.092 1.04168 -3.72406 0
M  V30 4778 H 452.781 0.72167 -3.99433 0
M  V30 4779 H 453.547 -1.70061 -4.54207 0
M  V30 4780 H 449.426 -0.475159 -4.58545 0
M  V30 4781 H 452.97 -3.64778 -5.94628 0
M  V30 4782 H 448.867 -2.41379 -5.98671 0
M  V30 4783 H 449.635 -4.21701 -7.01506 0
M  V30 4784 N 452.299 1.55045 -0.282633 0
M  V30 4785 C 453.229 2.2579 0.595066 0
M  V30 4786 C 454.21 1.25074 1.15284 0
M  V30 4787 O 455.395 1.5381 1.18559 0
M  V30 4788 C 452.525 2.98472 1.77572 0
M  V30 4789 C 451.479 4.0618 1.34914 0
M  V30 4790 C 450.805 4.66477 2.6135 0
M  V30 4791 C 452.105 5.1996 0.493821 0
M  V30 4792 H 453.799 2.994 0.00505653 0
M  V30 4793 H 451.345 1.44 0.000992001 0
M  V30 4794 H 453.298 3.46677 2.39568 0
M  V30 4795 H 452.022 2.2241 2.39168 0
M  V30 4796 H 450.681 3.58797 0.752338 0
M  V30 4797 H 450.329 3.87074 3.2122 0
M  V30 4798 H 450.029 5.39207 2.33516 0
M  V30 4799 H 451.553 5.17435 3.24181 0
M  V30 4800 H 452.967 5.64172 1.01898 0
M  V30 4801 H 451.364 5.99299 0.310047 0
M  V30 4802 H 452.434 4.82462 -0.485593 0
M  V30 4803 N 453.777 0.010035 1.57597 0
M  V30 4804 C 454.74 -0.963029 2.07986 0
M  V30 4805 C 455.74 -1.26619 0.991173 0
M  V30 4806 O 456.93 -1.2097 1.25347 0
M  V30 4807 C 454.062 -2.2851 2.52974 0
M  V30 4808 H 455.255 -0.526971 2.95234 0
M  V30 4809 H 452.808 -0.237639 1.54483 0
M  V30 4810 H 453.543 -2.76784 1.69 0
M  V30 4811 H 453.328 -2.07824 3.32493 0
M  V30 4812 H 454.818 -2.98294 2.9225 0
M  V30 4813 N 455.255 -1.55392 -0.262866 0
M  V30 4814 C 456.502 -1.76476 -0.993109 0
M  V30 4815 C 456.83 -0.571479 -1.85915 0
M  V30 4816 O 456.085 0.445733 -1.90556 0
M  V30 4817 C 456.384 -3.02889 -1.89718 0
M  V30 4818 C 456.05 -4.34974 -1.18781 0
M  V30 4819 C 454.712 -4.7087 -0.991699 0
M  V30 4820 C 457.064 -5.16695 -0.683798 0
M  V30 4821 C 454.392 -5.86036 -0.279024 0
M  V30 4822 C 456.744 -6.32598 0.0153327 0
M  V30 4823 C 455.408 -6.67127 0.223062 0
M  V30 4824 H 454.678 -0.64577 -0.363404 0
M  V30 4825 H 457.325 -1.89664 -0.264525 0
M  V30 4826 H 455.63 -2.84644 -2.6923 0
M  V30 4827 H 457.327 -3.16399 -2.46359 0
M  V30 4828 H 453.917 -4.06765 -1.35058 0
M  V30 4829 H 458.101 -4.8943 -0.8229 0
M  V30 4830 H 453.357 -6.11306 -0.107456 0
M  V30 4831 H 457.531 -6.95171 0.413584 0
M  V30 4832 H 455.158 -7.56216 0.777265 0
M  V30 4833 N 456.733 0.527833 -1.48498 0
M  V30 4834 C 457.973 1.29401 -1.58224 0
M  V30 4835 C 458.337 1.90348 -0.251327 0
M  V30 4836 O 459.538 2.67868 -0.223588 0
M  V30 4837 C 457.809 2.35266 -2.69044 0
M  V30 4838 S 459.368 3.2158 -2.98549 0
M  V30 4839 H 456.186 0.440138 -0.558391 0
M  V30 4840 H 458.788 0.601079 -1.8603 0
M  V30 4841 H 457.492 1.88975 -3.64303 0
M  V30 4842 H 457.023 3.09263 -2.43146 0
M  V30 4843 H 459.038 4.35391 -2.38011 0
M  V30 4844 N 458.211 1.37122 0.776871 0
M  V30 4845 C 459.459 1.31787 1.53221 0
M  V30 4846 C 459.78 -0.0987589 1.9475 0
M  V30 4847 O 459.05 -1.0417 1.65908 0
M  V30 4848 H 457.63 0.484839 0.568278 0
M  V30 4849 H 460.292 1.71556 0.924917 0
M  V30 4850 H 459.388 1.95355 2.43398 0
M  V30 4851 N 459.689 -1.00246 1.21608 0
M  V30 4852 C 460.938 -1.73476 1.02902 0
M  V30 4853 C 461.251 -1.90643 -0.437561 0
M  V30 4854 O 462.457 -2.61105 -0.74407 0
M  V30 4855 C 460.913 -3.12079 1.79261 0
M  V30 4856 C 460.521 -3.02877 3.30106 0
M  V30 4857 C 462.265 -3.89421 1.68972 0
M  V30 4858 C 460.172 -4.36575 3.98944 0
M  V30 4859 H 459.102 -0.650408 0.381425 0
M  V30 4860 H 461.753 -1.11985 1.45367 0
M  V30 4861 H 460.135 -3.74196 1.2959 0
M  V30 4862 H 461.309 -2.49983 3.87098 0
M  V30 4863 H 459.624 -2.39022 3.40965 0
M  V30 4864 H 462.221 -4.88362 2.17731 0
M  V30 4865 H 462.564 -4.1122 0.648397 0
M  V30 4866 H 463.097 -3.33963 2.16133 0
M  V30 4867 H 459.836 -4.19978 5.03288 0
M  V30 4868 H 459.356 -4.8942 3.4674 0
M  V30 4869 H 461.035 -5.05364 4.04 0
M  V30 4870 N 461.167 -1.02423 -1.1978 0
M  V30 4871 C 462.413 -0.719051 -1.89625 0
M  V30 4872 C 462.746 0.750083 -1.7913 0
M  V30 4873 O 462.021 1.54574 -1.18056 0
M  V30 4874 C 462.304 -1.16499 -3.40735 0
M  V30 4875 C 462.157 -2.695 -3.60125 0
M  V30 4876 C 463.476 -0.742166 -4.33797 0
M  V30 4877 H 460.595 -0.26269 -0.688595 0
M  V30 4878 H 463.237 -1.27333 -1.41018 0
M  V30 4879 H 461.387 -0.69341 -3.82262 0
M  V30 4880 H 463.059 -3.24569 -3.278 0
M  V30 4881 H 461.302 -3.10113 -3.03336 0
M  V30 4882 H 461.973 -2.95757 -4.66081 0
M  V30 4883 H 464.449 -1.1477 -3.99959 0
M  V30 4884 H 463.325 -1.08213 -5.38127 0
M  V30 4885 H 463.586 0.355747 -4.40666 0
M  V30 4886 N 462.645 1.35699 -0.801477 0
M  V30 4887 C 463.575 2.32436 -0.222658 0
M  V30 4888 C 464.556 1.5723 0.649057 0
M  V30 4889 O 465.741 1.85324 0.580387 0
M  V30 4890 C 462.871 3.41469 0.633719 0
M  V30 4891 C 461.825 4.27774 -0.139083 0
M  V30 4892 C 461.151 5.28082 0.838666 0
M  V30 4893 C 462.451 5.04946 -1.33517 0
M  V30 4894 H 464.145 2.81094 -1.03086 0
M  V30 4895 H 461.691 1.35146 -0.497155 0
M  V30 4896 H 463.644 4.08143 1.04868 0
M  V30 4897 H 462.368 2.91408 1.47475 0
M  V30 4898 H 461.027 3.62673 -0.535156 0
M  V30 4899 H 460.675 4.7429 1.67506 0
M  V30 4900 H 460.375 5.86695 0.32594 0
M  V30 4901 H 461.899 5.97628 1.25194 0
M  V30 4902 H 463.313 5.64593 -0.995349 0
M  V30 4903 H 461.71 5.7303 -1.78202 0
M  V30 4904 H 462.78 4.35886 -2.12442 0
M  V30 4905 N 464.123 0.554532 1.47522 0
M  V30 4906 C 465.073 -0.215008 2.26984 0
M  V30 4907 C 466.057 -0.88774 1.34194 0
M  V30 4908 O 467.249 -0.786489 1.58567 0
M  V30 4909 C 464.378 -1.24604 3.19889 0
M  V30 4910 C 463.464 -0.576857 4.20159 0
M  V30 4911 N 463.855 0.351541 5.04577 0
M  V30 4912 C 462.153 -0.831104 4.38188 0
M  V30 4913 C 462.854 0.739995 5.76974 0
M  V30 4914 N 461.83 0.0954407 5.43516 0
M  V30 4915 H 465.632 0.498843 2.89636 0
M  V30 4916 H 463.146 0.374279 1.58028 0
M  V30 4917 H 465.143 -1.81128 3.75498 0
M  V30 4918 H 463.803 -1.96101 2.58794 0
M  V30 4919 H 464.814 0.725556 5.12792 0
M  V30 4920 H 461.491 -1.53479 3.88266 0
M  V30 4921 H 462.881 1.50271 6.5488 0
M  V30 4922 N 465.601 -1.54893 0.290851 0
M  V30 4923 C 466.549 -2.24579 -0.605576 0
M  V30 4924 C 467.543 -1.24824 -1.14522 0
M  V30 4925 O 468.749 -1.42706 -1.09704 0
M  V30 4926 H 465.124 -0.720946 -0.213872 0
M  V30 4927 H 467.095 -2.984 0.0048173 0
M  V30 4928 C 465.844 -2.99224 -1.77088 0
M  V30 4929 H 465.167 -3.75782 -1.36484 0
M  V30 4930 H 466.607 -3.51281 -2.3744 0
M  V30 4931 C 465.066 -2.05602 -2.66888 0
M  V30 4932 O 465.596 -1.61745 -3.67698 0
M  V30 4933 N 463.802 -1.71771 -2.34399 0
M  V30 4934 H 463.349 -2.07633 -1.52468 0
M  V30 4935 H 463.307 -1.09403 -2.94751 0
M  V30 4936 N 467.08 -0.0183926 -1.57589 0
M  V30 4937 C 468.043 0.951986 -2.08494 0
M  V30 4938 C 469.043 1.26092 -0.997874 0
M  V30 4939 O 470.233 1.20304 -1.25987 0
M  V30 4940 C 467.365 2.27165 -2.54182 0
M  V30 4941 H 468.558 0.511307 -2.95509 0
M  V30 4942 H 466.111 0.229444 -1.54607 0
M  V30 4943 H 466.846 2.75884 -1.70465 0
M  V30 4944 H 466.631 2.06057 -3.33591 0
M  V30 4945 H 468.121 2.9674 -2.93828 0
M  V30 4946 N 468.558 1.5553 0.254621 0
M  V30 4947 C 469.49 1.86104 1.33783 0
M  V30 4948 C 470.503 0.746752 1.44663 0
M  V30 4949 O 471.692 1.0248 1.46151 0
M  V30 4950 C 468.792 2.02532 2.71724 0
M  V30 4951 C 467.965 3.33335 2.83208 0
M  V30 4952 C 467.024 3.396 4.01943 0
M  V30 4953 O 466.05 4.12862 3.91834 0
M  V30 4954 N 467.252 2.68332 5.1476 0
M  V30 4955 H 470.017 2.79605 1.07893 0
M  V30 4956 H 467.578 1.55672 0.444732 0
M  V30 4957 H 469.57 2.04074 3.4948 0
M  V30 4958 H 468.14 1.15811 2.90356 0
M  V30 4959 H 467.36 3.44176 1.92189 0
M  V30 4960 H 468.648 4.19565 2.87824 0
M  V30 4961 H 468.046 2.08528 5.25864 0
M  V30 4962 H 466.603 2.75575 5.90679 0
M  V30 4963 N 470.036 -0.519951 1.48776 0
M  V30 4964 C 470.966 -1.63253 1.66945 0
M  V30 4965 C 471.947 -1.62014 0.518224 0
M  V30 4966 O 473.132 -1.79053 0.751919 0
M  V30 4967 C 470.262 -3.0181 1.71836 0
M  V30 4968 C 469.216 -3.17911 2.8656 0
M  V30 4969 C 468.542 -4.5763 2.76548 0
M  V30 4970 C 469.842 -2.99729 4.27738 0
M  V30 4971 H 471.536 -1.48302 2.6009 0
M  V30 4972 H 469.082 -0.712026 1.25165 0
M  V30 4973 H 471.035 -3.79525 1.83135 0
M  V30 4974 H 469.759 -3.17806 0.752775 0
M  V30 4975 H 468.418 -2.42616 2.74833 0
M  V30 4976 H 468.066 -4.70476 1.77937 0
M  V30 4977 H 467.766 -4.69346 3.53536 0
M  V30 4978 H 469.29 -5.37431 2.89828 0
M  V30 4979 H 470.704 -3.67228 4.40246 0
M  V30 4980 H 469.101 -3.22932 5.05801 0
M  V30 4981 H 470.171 -1.96047 4.43502 0
M  V30 4982 N 471.514 -1.37532 -0.769588 0
M  V30 4983 C 472.744 -1.35861 -1.55645 0
M  V30 4984 C 473.152 0.0574398 -1.89113 0
M  V30 4985 O 472.495 1.03021 -1.52093 0
M  V30 4986 C 472.557 -2.13431 -2.89288 0
M  V30 4987 C 472.221 -3.62378 -2.78444 0
M  V30 4988 C 473.218 -4.56215 -2.49326 0
M  V30 4989 C 470.903 -4.05529 -2.96398 0
M  V30 4990 C 472.897 -5.91181 -2.38294 0
M  V30 4991 C 470.584 -5.40579 -2.84987 0
M  V30 4992 C 471.582 -6.33218 -2.55975 0
M  V30 4993 O 471.27 -7.65787 -2.44594 0
M  V30 4994 H 471.002 -0.467001 -0.48876 0
M  V30 4995 H 473.556 -1.81505 -0.961515 0
M  V30 4996 H 471.786 -1.62481 -3.50909 0
M  V30 4997 H 473.475 -2.04368 -3.50697 0
M  V30 4998 H 474.241 -4.24187 -2.35139 0
M  V30 4999 H 470.12 -3.33781 -3.1798 0
M  V30 5000 H 473.664 -6.63457 -2.15571 0
M  V30 5001 H 469.561 -5.72209 -2.98743 0
M  V30 5002 H 470.329 -7.76132 -2.59927 0
M  V30 5003 N 472.992 0.995999 -1.22138 0
M  V30 5004 C 473.902 2.11985 -1.00496 0
M  V30 5005 C 474.918 1.7394 0.0457701 0
M  V30 5006 O 476.094 2.00868 -0.146273 0
M  V30 5007 C 473.159 3.41779 -0.582086 0
M  V30 5008 C 472.22 3.93943 -1.70608 0
M  V30 5009 C 471.453 5.17542 -1.30328 0
M  V30 5010 O 471.676 5.70114 -0.180743 0
M  V30 5011 O 470.61 5.63382 -2.11861 0
M  V30 5012 H 474.436 2.33123 -1.94647 0
M  V30 5013 H 472.021 1.10358 -1.00705 0
M  V30 5014 H 473.903 4.1989 -0.356467 0
M  V30 5015 H 472.578 3.22007 0.330592 0
M  V30 5016 H 471.485 3.17019 -1.98619 0
M  V30 5017 H 472.818 4.18141 -2.59651 0
M  V30 5018 N 474.47 1.03057 1.19235 0
M  V30 5019 C 475.698 0.747697 1.92917 0
M  V30 5020 C 476.113 -0.69372 1.75593 0
M  V30 5021 O 475.47 -1.47191 1.07894 0
M  V30 5022 C 475.521 1.09159 3.44625 0
M  V30 5023 O 475.242 2.47641 3.61394 0
M  V30 5024 C 476.743 0.831763 4.35427 0
M  V30 5025 H 473.963 0.273453 0.612751 0
M  V30 5026 H 476.507 1.37552 1.51327 0
M  V30 5027 H 474.662 0.508919 3.84043 0
M  V30 5028 H 475.076 2.60499 4.55237 0
M  V30 5029 H 476.55 1.12233 5.4047 0
M  V30 5030 H 477.027 -0.233769 4.38577 0
M  V30 5031 H 477.633 1.39725 4.01693 0
M  V30 5032 N 475.948 -1.35272 0.808662 0
M  V30 5033 C 477.173 -2.03477 0.401475 0
M  V30 5034 C 477.598 -1.60537 -0.980279 0
M  V30 5035 O 476.956 -0.78304 -1.63518 0
M  V30 5036 C 477.004 -3.57181 0.495354 0
M  V30 5037 O 476.108 -4.09474 -0.490397 0
M  V30 5038 H 475.449 -0.642561 0.167366 0
M  V30 5039 H 477.979 -1.72824 1.09512 0
M  V30 5040 H 477.989 -4.06356 0.365912 0
M  V30 5041 H 476.664 -3.87784 1.5032 0
M  V30 5042 H 475.241 -3.71516 -0.321023 0
M  V30 5043 N 477.426 -0.562348 -1.47226 0
M  V30 5044 C 478.356 0.170627 -2.32876 0
M  V30 5045 C 479.337 0.903748 -1.44106 0
M  V30 5046 O 480.522 0.883206 -1.72954 0
M  V30 5047 C 477.652 1.19786 -3.25989 0
M  V30 5048 C 476.606 0.580875 -4.2404 0
M  V30 5049 C 475.932 1.71311 -5.06514 0
M  V30 5050 C 477.232 -0.468714 -5.20193 0
M  V30 5051 H 478.926 -0.544441 -2.94408 0
M  V30 5052 H 476.472 -0.263271 -1.41573 0
M  V30 5053 H 478.425 1.71884 -3.84752 0
M  V30 5054 H 477.149 1.94294 -2.62521 0
M  V30 5055 H 475.808 0.0811538 -3.6651 0
M  V30 5056 H 475.456 2.44736 -4.39447 0
M  V30 5057 H 475.156 1.30604 -5.72902 0
M  V30 5058 H 476.68 2.23725 -5.68137 0
M  V30 5059 H 478.094 -0.0336028 -5.7329 0
M  V30 5060 H 476.491 -0.794957 -5.94811 0
M  V30 5061 H 477.561 -1.36269 -4.65359 0
M  V30 5062 N 478.904 1.54736 -0.299062 0
M  V30 5063 C 479.834 2.26409 0.571085 0
M  V30 5064 C 480.815 1.2629 1.13951 0
M  V30 5065 O 482 1.55059 1.16921 0
M  V30 5066 C 479.13 3.00338 1.74396 0
M  V30 5067 C 478.084 4.07588 1.30599 0
M  V30 5068 C 477.41 4.69222 2.56387 0
M  V30 5069 C 478.71 5.20455 0.438645 0
M  V30 5070 H 480.404 2.99388 -0.0266991 0
M  V30 5071 H 477.95 1.43993 -0.0142812 0
M  V30 5072 H 479.903 3.49198 2.35878 0
M  V30 5073 H 478.627 2.24934 2.36796 0
M  V30 5074 H 477.286 3.59575 0.71424 0
M  V30 5075 H 476.934 3.9046 3.17097 0
M  V30 5076 H 476.634 5.41653 2.27784 0
M  V30 5077 H 478.158 5.20844 3.18675 0
M  V30 5078 H 479.572 5.65221 0.959085 0
M  V30 5079 H 477.969 5.99594 0.246466 0
M  V30 5080 H 479.039 4.8192 -0.536738 0
M  V30 5081 N 480.382 0.0267497 1.57577 0
M  V30 5082 C 481.292 -0.971633 2.13533 0
M  V30 5083 C 482.308 -1.35868 1.08701 0
M  V30 5084 O 483.484 -1.44058 1.40746 0
M  V30 5085 C 480.549 -2.23622 2.64941 0
M  V30 5086 C 479.61 -1.90982 3.8448 0
M  V30 5087 C 478.843 -3.11411 4.33427 0
M  V30 5088 O 479.066 -4.23992 3.81558 0
M  V30 5089 O 478 -2.93848 5.25297 0
M  V30 5090 H 481.826 -0.525853 2.99113 0
M  V30 5091 H 479.411 -0.193712 1.48139 0
M  V30 5092 H 481.293 -2.97864 2.98086 0
M  V30 5093 H 479.968 -2.67386 1.82446 0
M  V30 5094 H 478.875 -1.14132 3.56265 0
M  V30 5095 H 480.208 -1.52036 4.6813 0
M  V30 5096 N 481.861 -1.55662 -0.24637 0
M  V30 5097 C 482.809 -1.91186 -1.3248 0
M  V30 5098 C 483.803 -0.790996 -1.49799 0
M  V30 5099 O 485.009 -0.975617 -1.51267 0
M  V30 5100 H 481.384 -0.607207 -0.443626 0
M  V30 5101 H 483.355 -2.81221 -0.997853 0
M  V30 5102 C 482.104 -2.22349 -2.67313 0
M  V30 5103 H 481.427 -3.08097 -2.54786 0
M  V30 5104 H 482.867 -2.51107 -3.41645 0
M  V30 5105 C 481.326 -1.04001 -3.20446 0
M  V30 5106 O 481.856 -0.28828 -4.00664 0
M  V30 5107 N 480.062 -0.830494 -2.7848 0
M  V30 5108 H 479.609 -1.4435 -2.13356 0
M  V30 5109 H 479.567 -0.0403258 -3.14374 0
M  V30 5110 N 483.339 0.512053 -1.4905 0
M  V30 5111 C 484.286 1.6148 -1.64902 0
M  V30 5112 C 485.256 1.58687 -0.490673 0
M  V30 5113 O 486.441 1.76842 -0.71636 0
M  V30 5114 C 483.581 2.99676 -1.71139 0
M  V30 5115 C 482.694 3.12568 -2.98203 0
M  V30 5116 C 481.829 4.4143 -2.95487 0
M  V30 5117 C 480.868 4.47916 -4.17179 0
M  V30 5118 N 480.005 5.68191 -4.12437 0
M  V30 5119 H 484.845 1.47271 -2.59066 0
M  V30 5120 H 482.382 0.716713 -1.28459 0
M  V30 5121 H 484.34 3.79761 -1.72736 0
M  V30 5122 H 482.97 3.12614 -0.804508 0
M  V30 5123 H 482.022 2.25618 -3.06269 0
M  V30 5124 H 483.334 3.1322 -3.88194 0
M  V30 5125 H 482.488 5.29825 -2.95585 0
M  V30 5126 H 481.227 4.43326 -2.03256 0
M  V30 5127 H 480.232 3.57925 -4.17337 0
M  V30 5128 H 481.457 4.47744 -5.1059 0
M  V30 5129 H 479.403 5.7095 -3.23036 0
M  V30 5130 H 479.32 5.70413 -4.96151 0
M  V30 5131 H 480.588 6.58823 -4.16621 0
M  V30 5132 N 484.817 1.37938 0.762283 0
M  V30 5133 C 486.233 1.18945 1.06415 0
M  V30 5134 C 486.433 0.0321163 2.01474 0
M  V30 5135 O 485.489 -0.624844 2.44647 0
M  V30 5136 C 486.802 2.51218 1.65258 0
M  V30 5137 C 488.35 2.57824 1.7747 0
M  V30 5138 C 488.825 3.90251 2.39725 0
M  V30 5139 N 490.316 3.91744 2.47166 0
M  V30 5140 C 491.051 4.90966 2.96209 0
M  V30 5141 N 490.547 6.00585 3.45354 0
M  V30 5142 N 492.34 4.78363 2.9517 0
M  V30 5143 H 484.491 2.11994 0.131301 0
M  V30 5144 H 486.754 0.940262 0.120879 0
M  V30 5145 H 486.46 3.36317 1.02878 0
M  V30 5146 H 486.334 2.68989 2.64433 0
M  V30 5147 H 488.721 1.73126 2.3898 0
M  V30 5148 H 488.802 2.43928 0.770241 0
M  V30 5149 H 488.446 4.75368 1.78852 0
M  V30 5150 H 488.376 4.01454 3.40796 0
M  V30 5151 H 490.867 3.12563 2.12397 0
M  V30 5152 H 491.18 6.72236 3.81207 0
M  V30 5153 H 489.525 6.04217 3.43434 0
M  V30 5154 H 492.716 3.91841 2.56082 0
M  V30 5155 H 492.889 5.55843 3.33081 0
M  V30 5156 N 486.295 -0.989507 1.22664 0
M  V30 5157 C 487.243 -2.10148 0.997035 0
M  V30 5158 C 488.237 -1.6929 -0.0609783 0
M  V30 5159 O 489.443 -1.79766 0.0917523 0
M  V30 5160 H 485.818 -0.687256 0.305259 0
M  V30 5161 H 487.789 -2.26685 1.94053 0
M  V30 5162 C 486.538 -3.4257 0.595085 0
M  V30 5163 H 485.861 -3.74453 1.40089 0
M  V30 5164 H 487.301 -4.21344 0.473869 0
M  V30 5165 C 485.76 -3.29638 -0.695725 0
M  V30 5166 O 486.29 -3.61709 -1.74727 0
M  V30 5167 N 484.496 -2.82814 -0.668173 0
M  V30 5168 H 484.043 -2.56914 0.18787 0
M  V30 5169 H 484.001 -2.74544 -1.5321 0
M  V30 5170 N 487.773 -1.03688 -1.18687 0
M  V30 5171 C 488.705 -0.582696 -2.21669 0
M  V30 5172 C 489.718 0.345656 -1.59088 0
M  V30 5173 O 490.907 0.140776 -1.77944 0
M  V30 5174 C 488.007 0.169204 -3.38477 0
M  V30 5175 C 487.18 -0.766079 -4.30639 0
M  V30 5176 C 486.239 -0.0581541 -5.26168 0
M  V30 5177 O 485.265 -0.687346 -5.65035 0
M  V30 5178 N 486.467 1.20981 -5.67753 0
M  V30 5179 H 489.232 -1.46843 -2.61261 0
M  V30 5180 H 486.793 -0.916896 -1.33434 0
M  V30 5181 H 488.785 0.652543 -3.99405 0
M  V30 5182 H 487.355 0.956435 -2.97609 0
M  V30 5183 H 486.575 -1.42935 -3.67373 0
M  V30 5184 H 487.863 -1.40146 -4.89118 0
M  V30 5185 H 487.261 1.74159 -5.38224 0
M  V30 5186 H 485.818 1.6375 -6.30896 0
M  V30 5187 N 489.251 1.34841 -0.815825 0
M  V30 5188 C 490.497 1.98793 -0.401129 0
M  V30 5189 C 490.83 1.64548 1.03139 0
M  V30 5190 O 490.105 0.913487 1.71714 0
M  V30 5191 C 490.388 3.55143 -0.595409 0
M  V30 5192 C 490.241 3.99155 -2.07352 0
M  V30 5193 C 491.56 4.40092 -0.0268823 0
M  V30 5194 H 488.679 0.722146 -0.14722 0
M  V30 5195 H 491.321 1.59847 -1.02707 0
M  V30 5196 H 489.471 3.8845 -0.0625779 0
M  V30 5197 H 491.143 3.76216 -2.66945 0
M  V30 5198 H 489.386 3.49726 -2.56659 0
M  V30 5199 H 490.057 5.07971 -2.1603 0
M  V30 5200 H 492.533 4.13298 -0.482042 0
M  V30 5201 H 491.409 5.48562 -0.19267 0
M  V30 5202 H 491.67 4.29016 1.06759 0
M  V30 5203 N 490.729 0.570148 1.46925 0
M  V30 5204 C 491.659 -0.158274 2.32963 0
M  V30 5205 C 492.64 -0.896093 1.44583 0
M  V30 5206 O 493.825 -0.874022 1.7342 0
M  V30 5207 C 490.955 -1.18055 3.26619 0
M  V30 5208 C 489.909 -0.558379 4.24342 0
M  V30 5209 C 489.235 -1.68623 5.07415 0
M  V30 5210 C 490.535 0.496295 5.19937 0
M  V30 5211 H 492.229 0.560046 2.94115 0
M  V30 5212 H 489.775 0.270775 1.41431 0
M  V30 5213 H 491.728 -1.69841 3.85658 0
M  V30 5214 H 490.452 -1.92899 2.63548 0
M  V30 5215 H 489.111 -0.0617157 3.66548 0
M  V30 5216 H 488.759 -2.42402 4.40738 0
M  V30 5217 H 488.459 -1.27564 5.73586 0
M  V30 5218 H 489.983 -2.20709 5.69315 0
M  V30 5219 H 491.397 0.0640052 5.73264 0
M  V30 5220 H 489.794 0.82649 5.94381 0
M  V30 5221 H 490.864 1.38735 4.6463 0
M  V30 5222 N 492.207 -1.54576 0.307264 0
M  V30 5223 C 493.137 -2.26708 -0.55907 0
M  V30 5224 C 494.118 -1.26893 -1.1328 0
M  V30 5225 O 495.303 -1.55677 -1.16097 0
M  V30 5226 C 492.433 -3.01259 -1.72801 0
M  V30 5227 C 491.387 -4.08275 -1.28435 0
M  V30 5228 C 490.713 -4.70575 -2.53895 0
M  V30 5229 C 492.013 -5.2068 -0.411038 0
M  V30 5230 H 493.707 -2.9937 0.042576 0
M  V30 5231 H 491.253 -1.43983 0.0219173 0
M  V30 5232 H 493.206 -3.50444 -2.34023 0
M  V30 5233 H 491.93 -2.26187 -2.356 0
M  V30 5234 H 490.589 -3.59949 -0.695161 0
M  V30 5235 H 490.237 -3.92136 -3.15021 0
M  V30 5236 H 489.937 -5.42854 -2.24908 0
M  V30 5237 H 491.461 -5.22527 -3.15908 0
M  V30 5238 H 492.875 -5.65721 -0.929097 0
M  V30 5239 H 491.272 -5.99716 -0.214664 0
M  V30 5240 H 492.342 -4.81629 0.562287 0
M  V30 5241 N 493.685 -0.035106 -1.57561 0
M  V30 5242 C 494.962 0.681212 -1.83354 0
M  V30 5243 C 495.342 1.89986 -0.920252 0
M  V30 5244 O 494.69 2.28489 0.0226815 0
M  V30 5245 C 494.9 1.05376 -3.32712 0
M  V30 5246 C 496.248 1.44286 -3.99333 0
M  V30 5247 O 497.272 1.14656 -3.37242 0
M  V30 5248 O 496.131 1.99518 -5.08778 0
M  V30 5249 H 493.225 0.334741 -0.756226 0
M  V30 5250 H 495.771 -0.0632448 -1.69582 0
M  V30 5251 H 494.543 0.186668 -3.90854 0
M  V30 5252 H 494.166 1.85619 -3.51613 0
M  V30 5253 N 495.163 1.55791 0.238111 0
M  V30 5254 C 496.093 1.94068 1.29846 0
M  V30 5255 C 497.074 0.806726 1.49753 0
M  V30 5256 O 498.259 1.06772 1.62214 0
M  V30 5257 C 495.389 2.24302 2.65153 0
M  V30 5258 C 494.343 3.40032 2.59927 0
M  V30 5259 C 493.669 3.55829 3.99111 0
M  V30 5260 C 494.969 4.75476 2.16148 0
M  V30 5261 H 496.663 2.82887 0.980563 0
M  V30 5262 H 494.209 1.36105 0.470253 0
M  V30 5263 H 496.162 2.4967 3.39475 0
M  V30 5264 H 494.886 1.32318 2.98596 0
M  V30 5265 H 493.545 3.14687 1.88063 0
M  V30 5266 H 493.193 2.6125 4.29834 0
M  V30 5267 H 492.893 4.3366 3.96501 0
M  V30 5268 H 494.417 3.83528 4.7512 0
M  V30 5269 H 495.831 5.00158 2.80205 0
M  V30 5270 H 494.228 5.56472 2.24631 0
M  V30 5271 H 495.298 4.71946 1.11333 0
M  V30 5272 N 496.642 -0.504142 1.49319 0
M  V30 5273 C 497.605 -1.5883 1.65244 0
M  V30 5274 C 498.605 -1.52009 0.524386 0
M  V30 5275 O 499.795 -1.55218 0.79077 0
M  V30 5276 C 496.927 -2.98481 1.64687 0
M  V30 5277 H 498.12 -1.4604 2.61939 0
M  V30 5278 H 495.673 -0.728144 1.38303 0
M  V30 5279 H 496.408 -3.16751 0.695644 0
M  V30 5280 H 496.193 -3.0484 2.46607 0
M  V30 5281 H 497.683 -3.77256 1.79075 0
M  V30 5282 N 498.12 -1.38341 -0.754957 0
M  V30 5283 C 499.345 -1.37882 -1.5493 0
M  V30 5284 C 499.77 0.0296385 -1.88077 0
M  V30 5285 O 499.128 1.01133 -1.50472 0
M  V30 5286 C 499.176 -2.23996 -2.82592 0
M  V30 5287 O 498.28 -1.65612 -3.77686 0
M  V30 5288 H 497.621 -0.470384 -0.468652 0
M  V30 5289 H 500.151 -1.82084 -0.933082 0
M  V30 5290 H 500.161 -2.37806 -3.3153 0
M  V30 5291 H 498.836 -3.26365 -2.57796 0
M  V30 5292 H 497.413 -1.60936 -3.36384 0
M  V30 5293 N 499.598 0.982988 -1.23187 0
M  V30 5294 C 500.528 2.09301 -1.03515 0
M  V30 5295 C 501.509 1.70035 0.0471136 0
M  V30 5296 O 502.694 1.93847 -0.117029 0
M  V30 5297 C 499.824 3.4167 -0.622791 0
M  V30 5298 C 498.778 3.94828 -1.65211 0
M  V30 5299 C 498.104 5.23362 -1.09527 0
M  V30 5300 C 499.404 4.2439 -3.04451 0
M  V30 5301 H 501.098 2.26016 -1.96359 0
M  V30 5302 H 498.644 1.08611 -0.945501 0
M  V30 5303 H 500.597 4.18746 -0.472233 0
M  V30 5304 H 499.321 3.24811 0.341329 0
M  V30 5305 H 497.98 3.19895 -1.79061 0
M  V30 5306 H 497.628 5.02852 -0.122211 0
M  V30 5307 H 497.328 5.59895 -1.783 0
M  V30 5308 H 498.852 6.03062 -0.956511 0
M  V30 5309 H 500.266 4.92225 -2.93917 0
M  V30 5310 H 498.663 4.72118 -3.70438 0
M  V30 5311 H 499.733 3.31765 -3.53638 0
M  V30 5312 N 501.076 1.04316 1.18135 0
M  V30 5313 C 502.325 0.74319 1.87509 0
M  V30 5314 C 502.638 -0.732136 1.81381 0
M  V30 5315 O 503.844 -1.14572 2.46141 0
M  V30 5316 C 502.3 1.27913 3.36402 0
M  V30 5317 C 501.908 2.78326 3.51053 0
M  V30 5318 C 503.652 1.0558 4.11161 0
M  V30 5319 C 501.559 3.25266 4.93919 0
M  V30 5320 H 500.489 0.274313 0.702331 0
M  V30 5321 H 503.14 1.25931 1.33467 0
M  V30 5322 H 501.522 0.690853 3.89927 0
M  V30 5323 H 502.696 3.42933 3.07788 0
M  V30 5324 H 501.011 2.991 2.89704 0
M  V30 5325 H 503.608 1.38161 5.16542 0
M  V30 5326 H 503.951 -0.00684729 4.16299 0
M  V30 5327 H 504.484 1.60882 3.63816 0
M  V30 5328 H 501.223 4.30922 4.9395 0
M  V30 5329 H 500.743 2.65396 5.3789 0
M  V30 5330 H 502.422 3.19433 5.62647 0
M  V30 5331 N 502.554 -1.34406 0.822964 0
M  V30 5332 C 503.801 -1.98284 0.411057 0
M  V30 5333 C 504.129 -1.65245 -1.02588 0
M  V30 5334 O 503.384 -0.91619 -1.72929 0
M  V30 5335 C 503.683 -3.52981 0.560268 0
M  V30 5336 C 503.349 -4.05931 1.96293 0
M  V30 5337 C 502.011 -4.20103 2.34664 0
M  V30 5338 C 504.363 -4.34412 2.87985 0
M  V30 5339 C 501.691 -4.60082 3.64062 0
M  V30 5340 C 504.043 -4.75838 4.16847 0
M  V30 5341 C 502.707 -4.88215 4.55195 0
M  V30 5342 H 501.977 -0.725573 0.150416 0
M  V30 5343 H 504.624 -1.60349 1.04692 0
M  V30 5344 H 502.929 -3.91477 -0.158982 0
M  V30 5345 H 504.626 -4.00385 0.222087 0
M  V30 5346 H 501.216 -3.95363 1.65487 0
M  V30 5347 H 505.4 -4.23001 2.59584 0
M  V30 5348 H 500.656 -4.67856 3.93599 0
M  V30 5349 H 504.83 -4.96834 4.87984 0
M  V30 5350 H 502.457 -5.18952 5.55512 0
M  V30 5351 N 504.032 -0.577932 -1.46621 0
M  V30 5352 C 504.942 0.160651 -2.34049 0
M  V30 5353 C 505.958 0.890911 -1.49462 0
M  V30 5354 O 507.134 0.855166 -1.82343 0
M  V30 5355 C 504.199 1.16447 -3.26559 0
M  V30 5356 C 503.26 0.4394 -4.27045 0
M  V30 5357 C 502.493 1.3954 -5.15135 0
M  V30 5358 O 502.716 2.63162 -5.06065 0
M  V30 5359 O 501.65 0.908585 -5.95003 0
M  V30 5360 H 505.476 -0.557057 -2.98547 0
M  V30 5361 H 503.061 -0.338369 -1.45518 0
M  V30 5362 H 504.943 1.7434 -3.83645 0
M  V30 5363 H 503.618 1.86373 -2.64663 0
M  V30 5364 H 502.525 -0.181247 -3.73661 0
M  V30 5365 H 503.858 -0.218799 -4.91713 0
M  V30 5366 N 505.51 1.54411 -0.315457 0
M  V30 5367 C 506.42 2.27737 0.56329 0
M  V30 5368 C 507.436 1.31787 1.13614 0
M  V30 5369 O 508.612 1.64791 1.15784 0
M  V30 5370 C 505.677 3.01478 1.71207 0
M  V30 5371 C 504.738 4.12997 1.17185 0
M  V30 5372 C 503.971 4.83212 2.26588 0
M  V30 5373 O 504.194 4.52884 3.46775 0
M  V30 5374 O 503.128 5.70299 1.92463 0
M  V30 5375 H 506.954 3.03683 -0.0319614 0
M  V30 5376 H 504.539 1.49178 -0.0814188 0
M  V30 5377 H 506.421 3.47683 2.38106 0
M  V30 5378 H 505.096 2.28414 2.29366 0
M  V30 5379 H 504.003 3.71159 0.468174 0
M  V30 5380 H 505.336 4.8808 0.635501 0
M  V30 5381 N 506.988 0.0434614 1.5754 0
M  V30 5382 C 507.92 -0.962586 2.08007 0
M  V30 5383 C 508.933 -1.27972 1.00634 0
M  V30 5384 O 510.122 -1.24186 1.28219 0
M  V30 5385 C 507.222 -2.28621 2.50171 0
M  V30 5386 C 506.395 -2.15214 3.80791 0
M  V30 5387 C 505.454 -3.30633 4.09351 0
M  V30 5388 O 504.48 -3.0688 4.79388 0
M  V30 5389 N 505.682 -4.54873 3.60654 0
M  V30 5390 H 508.447 -0.531891 2.94942 0
M  V30 5391 H 506.008 -0.142965 1.61268 0
M  V30 5392 H 508 -3.04689 2.66359 0
M  V30 5393 H 506.57 -2.63283 1.68525 0
M  V30 5394 H 505.79 -1.23785 3.74261 0
M  V30 5395 H 507.078 -2.03475 4.66343 0
M  V30 5396 H 506.476 -4.77063 3.04019 0
M  V30 5397 H 505.033 -5.2806 3.82094 0
M  V30 5398 N 508.466 -1.55915 -0.229846 0
M  V30 5399 C 509.398 -1.88209 -1.30805 0
M  V30 5400 C 510.411 -0.769672 -1.43457 0
M  V30 5401 O 511.6 -1.04792 -1.44502 0
M  V30 5402 C 508.7 -2.06829 -2.68468 0
M  V30 5403 C 507.873 -3.37798 -2.77869 0
M  V30 5404 C 506.932 -3.45952 -3.96489 0
M  V30 5405 O 505.958 -4.19043 -3.85216 0
M  V30 5406 N 507.16 -2.76488 -5.10426 0
M  V30 5407 H 509.925 -2.81286 -1.03431 0
M  V30 5408 H 507.486 -1.5636 -0.41991 0
M  V30 5409 H 509.478 -2.09608 -3.46189 0
M  V30 5410 H 508.048 -1.20416 -2.88477 0
M  V30 5411 H 507.268 -3.4719 -1.86689 0
M  V30 5412 H 508.556 -4.24091 -2.81113 0
M  V30 5413 H 507.954 -2.16868 -5.2248 0
M  V30 5414 H 506.511 -2.84938 -5.8622 0
M  V30 5415 N 509.944 0.496216 -1.49584 0
M  V30 5416 C 511.169 1.27865 -1.63295 0
M  V30 5417 C 511.594 1.85592 -0.306156 0
M  V30 5418 O 510.952 1.66092 0.726851 0
M  V30 5419 C 511 2.38128 -2.7079 0
M  V30 5420 O 510.104 3.42108 -2.30296 0
M  V30 5421 H 509.445 0.377279 -0.546403 0
M  V30 5422 H 511.975 0.593497 -1.95803 0
M  V30 5423 H 511.985 2.8382 -2.93104 0
M  V30 5424 H 510.66 1.95479 -3.67098 0
M  V30 5425 H 509.237 3.02301 -2.18331 0
M  V30 5426 N 511.423 1.38739 0.74761 0
M  V30 5427 C 512.353 1.39173 1.87492 0
M  V30 5428 C 513.334 0.256794 1.6815 0
M  V30 5429 O 514.519 0.460762 1.88655 0
M  V30 5430 C 511.649 1.22197 3.25093 0
M  V30 5431 C 510.603 2.32957 3.59047 0
M  V30 5432 C 509.929 2.01082 4.95449 0
M  V30 5433 C 511.229 3.75237 3.6331 0
M  V30 5434 H 512.923 2.3351 1.87386 0
M  V30 5435 H 510.469 1.12399 0.900134 0
M  V30 5436 H 512.422 1.21124 4.03617 0
M  V30 5437 H 511.146 0.243241 3.25693 0
M  V30 5438 H 509.805 2.33226 2.82845 0
M  V30 5439 H 509.453 1.01678 4.92616 0
M  V30 5440 H 509.153 2.75267 5.19136 0
M  V30 5441 H 510.677 2.01638 5.76346 0
M  V30 5442 H 512.091 3.76966 4.31937 0
M  V30 5443 H 510.488 4.48677 3.98509 0
M  V30 5444 H 511.558 4.07122 2.634 0
M  V30 5445 N 512.901 -0.976442 1.23707 0
M  V30 5446 C 513.811 -2.10359 1.03856 0
M  V30 5447 C 514.827 -1.73991 -0.0180919 0
M  V30 5448 O 516.003 -2.0061 0.178211 0
M  V30 5449 C 513.068 -3.40809 0.636387 0
M  V30 5450 C 512.129 -3.91179 1.76854 0
M  V30 5451 C 511.362 -5.15404 1.38546 0
M  V30 5452 O 511.585 -5.69754 0.27142 0
M  V30 5453 O 510.519 -5.5994 2.20797 0
M  V30 5454 H 514.345 -2.29997 1.98331 0
M  V30 5455 H 511.93 -1.08742 1.02448 0
M  V30 5456 H 513.812 -4.19269 0.423223 0
M  V30 5457 H 512.487 -3.22493 -0.279322 0
M  V30 5458 H 511.394 -3.13819 2.03638 0
M  V30 5459 H 512.727 -4.13958 2.6627 0
M  V30 5460 N 514.379 -1.04941 -1.1758 0
M  V30 5461 C 515.625 -0.759112 -1.88057 0
M  V30 5462 C 515.958 0.711918 -1.8068 0
M  V30 5463 O 515.233 1.52035 -1.21308 0
M  V30 5464 C 515.516 -1.237 -3.38187 0
M  V30 5465 C 515.369 -2.77078 -3.54327 0
M  V30 5466 C 516.688 -0.834014 -4.32125 0
M  V30 5467 H 513.807 -0.277237 -0.682868 0
M  V30 5468 H 516.449 -1.30296 -1.38286 0
M  V30 5469 H 514.599 -0.774337 -3.80705 0
M  V30 5470 H 516.271 -3.31449 -3.20842 0
M  V30 5471 H 514.514 -3.16477 -2.96689 0
M  V30 5472 H 515.185 -3.05577 -4.59703 0
M  V30 5473 H 517.661 -1.23228 -3.97434 0
M  V30 5474 H 516.537 -1.19603 -5.35711 0
M  V30 5475 H 516.798 0.262195 -4.41322 0
M  V30 5476 N 515.857 1.33968 -0.830081 0
M  V30 5477 C 517.106 1.97323 -0.417928 0
M  V30 5478 C 517.419 1.6652 1.02618 0
M  V30 5479 O 518.625 2.2342 1.54259 0
M  V30 5480 C 517.081 3.53099 -0.696359 0
M  V30 5481 C 516.689 3.92788 -2.15457 0
M  V30 5482 C 518.433 4.23049 -0.350724 0
M  V30 5483 C 516.34 5.41506 -2.37751 0
M  V30 5484 H 515.27 0.738409 -0.152541 0
M  V30 5485 H 517.921 1.52711 -1.01744 0
M  V30 5486 H 516.303 3.95991 -0.0265904 0
M  V30 5487 H 517.477 3.6098 -2.86408 0
M  V30 5488 H 515.792 3.35795 -2.46232 0
M  V30 5489 H 518.389 5.32403 -0.495036 0
M  V30 5490 H 518.732 4.10279 0.705476 0
M  V30 5491 H 519.265 3.85657 -0.975362 0
M  V30 5492 H 516.004 5.5927 -3.41903 0
M  V30 5493 H 515.524 5.74804 -1.7135 0
M  V30 5494 H 517.203 6.0828 -2.20465 0
M  V30 5495 N 517.335 0.585699 1.46312 0
M  V30 5496 C 518.265 -0.133556 2.33118 0
M  V30 5497 C 519.246 -0.880707 1.45525 0
M  V30 5498 O 520.431 -0.855579 1.74337 0
M  V30 5499 C 517.561 -1.14585 3.27853 0
M  V30 5500 C 516.515 -0.513341 4.2491 0
M  V30 5501 C 515.841 -1.63231 5.09175 0
M  V30 5502 C 517.141 0.551413 5.19381 0
M  V30 5503 H 518.835 0.59121 2.93505 0
M  V30 5504 H 516.381 0.285761 1.41136 0
M  V30 5505 H 518.334 -1.65741 3.87438 0
M  V30 5506 H 517.058 -1.90093 2.65579 0
M  V30 5507 H 515.717 -0.0228349 3.66593 0
M  V30 5508 H 515.365 -2.37713 4.43285 0
M  V30 5509 H 515.065 -1.21473 5.74907 0
M  V30 5510 H 516.589 -2.14658 5.71624 0
M  V30 5511 H 518.003 0.124804 5.73164 0
M  V30 5512 H 516.4 0.889486 5.93471 0
M  V30 5513 H 517.47 1.43655 4.63132 0
M  V30 5514 N 518.813 -1.54241 0.323641 0
M  V30 5515 C 519.76 -2.24339 -0.542277 0
M  V30 5516 C 520.73 -1.23421 -1.11159 0
M  V30 5517 O 521.915 -1.52104 -1.15192 0
M  V30 5518 C 519.055 -3.00479 -1.69725 0
M  V30 5519 C 518.168 -4.16214 -1.15716 0
M  V30 5520 C 517.303 -4.79884 -2.27783 0
M  V30 5521 C 516.342 -5.87722 -1.71023 0
M  V30 5522 N 515.479 -6.45254 -2.76752 0
M  V30 5523 H 520.319 -2.97935 0.0620613 0
M  V30 5524 H 517.856 -1.47039 0.0423993 0
M  V30 5525 H 519.814 -3.42869 -2.3769 0
M  V30 5526 H 518.444 -2.29217 -2.27288 0
M  V30 5527 H 517.496 -3.78605 -0.369063 0
M  V30 5528 H 518.808 -4.93838 -0.701832 0
M  V30 5529 H 517.962 -5.25243 -3.03651 0
M  V30 5530 H 516.701 -4.01641 -2.76652 0
M  V30 5531 H 515.706 -5.41765 -0.936518 0
M  V30 5532 H 516.931 -6.67863 -1.2303 0
M  V30 5533 H 514.877 -5.69884 -3.24912 0
M  V30 5534 H 514.794 -7.18292 -2.35782 0
M  V30 5535 H 516.062 -6.95269 -3.5245 0
M  V30 5536 N 520.291 -0.0518155 -1.57515 0
M  V30 5537 C 521.238 0.922352 -2.11569 0
M  V30 5538 C 522.208 1.30842 -1.02321 0
M  V30 5539 O 523.393 1.39778 -1.29872 0
M  V30 5540 C 520.533 2.19167 -2.6657 0
M  V30 5541 C 519.646 1.86003 -3.89906 0
M  V30 5542 C 518.781 3.07398 -4.33221 0
M  V30 5543 C 517.82 2.70158 -5.49255 0
M  V30 5544 N 516.957 3.84248 -5.8762 0
M  V30 5545 H 521.797 0.454506 -2.94514 0
M  V30 5546 H 519.334 0.212718 -1.45554 0
M  V30 5547 H 521.292 2.93443 -2.96559 0
M  V30 5548 H 519.922 2.63528 -1.86421 0
M  V30 5549 H 518.974 1.01874 -3.66505 0
M  V30 5550 H 520.286 1.54592 -4.74239 0
M  V30 5551 H 519.44 3.89972 -4.64765 0
M  V30 5552 H 518.179 3.41988 -3.477 0
M  V30 5553 H 517.184 1.86001 -5.17382 0
M  V30 5554 H 518.409 2.36759 -6.36492 0
M  V30 5555 H 516.355 4.18638 -5.05053 0
M  V30 5556 H 516.272 3.56538 -6.66646 0
M  V30 5557 H 517.54 4.6746 -6.2378 0
M  V30 5558 N 521.769 1.56035 0.221574 0
M  V30 5559 C 523.018 1.78245 0.944016 0
M  V30 5560 C 523.331 0.620371 1.85501 0
M  V30 5561 O 524.537 0.726103 2.6161 0
M  V30 5562 C 522.993 3.15659 1.7288 0
M  V30 5563 C 522.601 4.39591 0.863942 0
M  V30 5564 C 524.345 3.47195 2.44246 0
M  V30 5565 C 522.252 5.6803 1.64607 0
M  V30 5566 H 521.182 0.664547 0.356222 0
M  V30 5567 H 523.833 1.8243 0.197904 0
M  V30 5568 H 522.215 3.0565 2.51781 0
M  V30 5569 H 523.389 4.60655 0.115464 0
M  V30 5570 H 521.704 4.15572 0.262407 0
M  V30 5571 H 524.301 4.40381 3.03263 0
M  V30 5572 H 524.644 2.69693 3.1713 0
M  V30 5573 H 525.177 3.58533 1.72334 0
M  V30 5574 H 521.916 6.48425 0.960507 0
M  V30 5575 H 521.436 5.51027 2.36917 0
M  V30 5576 H 523.115 6.08203 2.20675 0
M  V30 5577 N 523.247 -0.488276 1.49845 0
M  V30 5578 C 524.21 -1.57069 1.66919 0
M  V30 5579 C 525.21 -1.51445 0.540479 0
M  V30 5580 O 526.4 -1.5437 0.807188 0
M  V30 5581 C 523.532 -2.96718 1.67844 0
M  V30 5582 H 524.725 -1.43254 2.63474 0
M  V30 5583 H 522.278 -0.713435 1.39068 0
M  V30 5584 H 523.013 -3.15996 0.7292 0
M  V30 5585 H 522.798 -3.02208 2.49826 0
M  V30 5586 H 524.288 -3.75335 1.83066 0
M  V30 5587 N 524.725 -1.39134 -0.740242 0
M  V30 5588 C 525.688 -1.37217 -1.83587 0
M  V30 5589 C 526.688 -0.270221 -1.58513 0
M  V30 5590 O 527.878 -0.527843 -1.6601 0
M  V30 5591 C 525.01 -1.13959 -3.21288 0
M  V30 5592 H 526.203 -2.34705 -1.86691 0
M  V30 5593 H 523.756 -1.24622 -0.94335 0
M  V30 5594 H 524.491 -0.17131 -3.23847 0
M  V30 5595 H 524.276 -1.93754 -3.40884 0
M  V30 5596 H 525.766 -1.15346 -4.01354 0
M  V30 5597 N 526.204 0.969867 -1.24223 0
M  V30 5598 C 527.432 1.74756 -1.10761 0
M  V30 5599 C 527.847 1.85713 0.340041 0
M  V30 5600 O 527.204 1.34389 1.23474 0
M  V30 5601 C 527.255 3.16915 -1.73917 0
M  V30 5602 O 526.976 3.06511 -3.13021 0
M  V30 5603 C 528.477 4.11032 -1.66036 0
M  V30 5604 H 525.697 0.548092 -0.387087 0
M  V30 5605 H 528.241 1.2178 -1.64286 0
M  V30 5606 H 526.396 3.66884 -1.244 0
M  V30 5607 H 526.81 3.96079 -3.43834 0
M  V30 5608 H 528.284 5.08446 -2.14911 0
M  V30 5609 H 528.761 4.34785 -0.621159 0
M  V30 5610 H 529.367 3.66972 -2.14969 0
M  V30 5611 N 527.682 1.05563 1.17022 0
M  V30 5612 C 528.931 0.763036 1.8671 0
M  V30 5613 C 529.244 -0.712857 1.82147 0
M  V30 5614 O 530.45 -1.11955 2.47343 0
M  V30 5615 C 528.906 1.31474 3.35026 0
M  V30 5616 C 528.514 2.82034 3.48081 0
M  V30 5617 C 530.258 1.09935 4.10018 0
M  V30 5618 C 528.165 3.30486 4.90442 0
M  V30 5619 H 527.095 0.281747 0.699382 0
M  V30 5620 H 529.746 1.2734 1.32124 0
M  V30 5621 H 528.128 0.732171 3.89173 0
M  V30 5622 H 529.302 3.46178 3.04133 0
M  V30 5623 H 527.617 3.02156 2.86515 0
M  V30 5624 H 530.214 1.43632 5.15048 0
M  V30 5625 H 530.557 0.0373072 4.16283 0
M  V30 5626 H 531.09 1.64732 3.62089 0
M  V30 5627 H 527.829 4.36137 4.89352 0
M  V30 5628 H 527.349 2.71086 5.35044 0
M  V30 5629 H 529.028 3.25382 5.59227 0
M  V30 5630 N 529.16 -1.33526 0.837174 0
M  V30 5631 C 530.409 -1.97098 0.428387 0
M  V30 5632 C 530.722 -1.67062 -1.01734 0
M  V30 5633 O 531.928 -2.24235 -1.53072 0
M  V30 5634 C 530.384 -3.52725 0.715075 0
M  V30 5635 C 529.992 -3.9164 2.17537 0
M  V30 5636 C 531.736 -4.22857 0.373154 0
M  V30 5637 C 529.643 -5.40237 2.40619 0
M  V30 5638 H 528.573 -0.737589 0.156455 0
M  V30 5639 H 531.224 -1.52169 1.02552 0
M  V30 5640 H 529.606 -3.95971 0.0475904 0
M  V30 5641 H 530.78 -3.59456 2.88319 0
M  V30 5642 H 529.095 -3.34485 2.4801 0
M  V30 5643 H 531.692 -5.32133 0.523264 0
M  V30 5644 H 532.035 -4.10647 -0.683708 0
M  V30 5645 H 532.568 -3.85135 0.995801 0
M  V30 5646 H 529.307 -5.57449 3.44864 0
M  V30 5647 H 528.827 -5.73887 1.74396 0
M  V30 5648 H 530.506 -6.07102 2.23688 0
M  V30 5649 N 530.638 -0.59345 -1.46 0
M  V30 5650 C 531.863 -0.0872365 -2.07216 0
M  V30 5651 C 532.288 1.2131 -1.43755 0
M  V30 5652 O 531.646 1.73528 -0.525152 0
M  V30 5653 C 531.694 0.0538197 -3.6056 0
M  V30 5654 O 530.798 1.10765 -3.97247 0
M  V30 5655 H 530.139 -0.0676598 -0.660544 0
M  V30 5656 H 532.669 -0.819445 -1.87473 0
M  V30 5657 H 532.679 0.256567 -4.07193 0
M  V30 5658 H 531.354 -0.895739 -4.0614 0
M  V30 5659 H 529.931 0.882501 -3.62307 0
M  V30 5660 N 532.116 1.54067 -0.331816 0
M  V30 5661 C 533.363 2.00715 0.268269 0
M  V30 5662 C 533.691 1.21986 1.51491 0
M  V30 5663 O 532.946 0.292309 1.93505 0
M  V30 5664 C 533.245 3.51634 0.639392 0
M  V30 5665 C 532.911 4.48018 -0.509019 0
M  V30 5666 C 531.573 4.74089 -0.824209 0
M  V30 5667 C 533.925 5.05237 -1.28003 0
M  V30 5668 C 531.253 5.54637 -1.91298 0
M  V30 5669 C 533.605 5.86972 -2.35895 0
M  V30 5670 C 532.269 6.11342 -2.67987 0
M  V30 5671 H 531.539 0.734469 0.0981667 0
M  V30 5672 H 534.186 1.8596 -0.457304 0
M  V30 5673 H 532.491 3.6416 1.44551 0
M  V30 5674 H 534.188 3.85175 1.11539 0
M  V30 5675 H 530.778 4.27851 -0.253287 0
M  V30 5676 H 534.962 4.8507 -1.04978 0
M  V30 5677 H 530.218 5.71747 -2.16599 0
M  V30 5678 H 534.392 6.30327 -2.96076 0
M  V30 5679 H 532.019 6.73544 -3.5248 0
M  V30 5680 N 533.594 0.0601682 1.57485 0
M  V30 5681 C 534.527 -0.94676 2.07634 0
M  V30 5682 C 535.505 -1.29837 0.978826 0
M  V30 5683 O 536.689 -1.40969 1.2514 0
M  V30 5684 C 533.816 -2.25822 2.52433 0
M  V30 5685 C 532.862 -2.05901 3.73507 0
M  V30 5686 S 533.695 -1.32907 5.18745 0
M  V30 5687 C 534.851 -2.65356 5.66866 0
M  V30 5688 H 535.084 -0.520003 2.92717 0
M  V30 5689 H 532.617 -0.152319 1.53647 0
M  V30 5690 H 534.575 -3.01201 2.78905 0
M  V30 5691 H 533.236 -2.65624 1.67639 0
M  V30 5692 H 532.429 -3.02929 4.02803 0
M  V30 5693 H 532.031 -1.38659 3.47347 0
M  V30 5694 H 534.323 -3.61492 5.73001 0
M  V30 5695 H 535.266 -2.40685 6.6594 0
M  V30 5696 H 535.674 -2.72028 4.94632 0
M  V30 5697 N 535.072 -1.5615 -0.213296 0
M  V30 5698 C 536.004 -1.89586 -1.28802 0
M  V30 5699 C 537.017 -0.784844 -1.42633 0
M  V30 5700 O 538.206 -1.06319 -1.43383 0
M  V30 5701 C 535.306 -2.09665 -2.66259 0
M  V30 5702 C 534.479 -3.40726 -2.7427 0
M  V30 5703 C 533.538 -3.50137 -3.92798 0
M  V30 5704 O 532.564 -4.23105 -3.8075 0
M  V30 5705 N 533.766 -2.81886 -5.07465 0
M  V30 5706 H 536.531 -2.82368 -1.00442 0
M  V30 5707 H 534.092 -1.56796 -0.403302 0
M  V30 5708 H 536.084 -2.13268 -3.43946 0
M  V30 5709 H 534.654 -1.23469 -2.87183 0
M  V30 5710 H 533.874 -3.4915 -1.82997 0
M  V30 5711 H 535.162 -4.27048 -2.76599 0
M  V30 5712 H 534.56 -2.22397 -5.2015 0
M  V30 5713 H 533.117 -2.91139 -5.83165 0
M  V30 5714 N 536.55 0.480323 -1.50102 0
M  V30 5715 C 537.796 1.23489 -1.60867 0
M  V30 5716 C 538.129 1.91809 -0.303827 0
M  V30 5717 O 537.404 1.81694 0.694092 0
M  V30 5718 C 537.687 2.28578 -2.78252 0
M  V30 5719 C 537.54 1.64624 -4.18592 0
M  V30 5720 C 538.859 3.2997 -2.91218 0
M  V30 5721 H 535.978 0.447605 -0.585507 0
M  V30 5722 H 538.62 0.530005 -1.82458 0
M  V30 5723 H 536.77 2.88697 -2.59974 0
M  V30 5724 H 538.442 1.08173 -4.48438 0
M  V30 5725 H 536.685 0.949645 -4.23278 0
M  V30 5726 H 537.356 2.40946 -4.96638 0
M  V30 5727 H 539.832 2.79864 -3.07921 0
M  V30 5728 H 538.708 4.00839 -3.74993 0
M  V30 5729 H 538.969 3.93541 -2.0144 0
M  V30 5730 N 538.028 1.39524 0.732853 0
M  V30 5731 C 538.96 1.34318 1.85718 0
M  V30 5732 C 539.973 0.251576 1.60844 0
M  V30 5733 O 541.162 0.510685 1.71039 0
M  V30 5734 C 538.262 1.06334 3.21786 0
M  V30 5735 C 537.435 2.26813 3.73998 0
M  V30 5736 C 536.494 1.95253 4.88634 0
M  V30 5737 O 535.52 2.67957 5.02183 0
M  V30 5738 N 536.722 0.919984 5.73164 0
M  V30 5739 H 539.487 2.3121 1.90688 0
M  V30 5740 H 537.048 1.33654 0.91368 0
M  V30 5741 H 539.04 0.832363 3.96048 0
M  V30 5742 H 537.61 0.181682 3.12072 0
M  V30 5743 H 536.83 2.65849 2.91064 0
M  V30 5744 H 538.118 3.0717 4.05616 0
M  V30 5745 H 537.516 0.317487 5.64808 0
M  V30 5746 H 536.073 0.748905 6.47483 0
M  V30 5747 N 539.506 -0.963266 1.24736 0
M  V30 5748 C 540.453 -2.05857 1.04363 0
M  V30 5749 C 541.423 -1.6604 -0.0444951 0
M  V30 5750 O 542.608 -1.90477 0.110999 0
M  V30 5751 C 539.748 -3.38745 0.659235 0
M  V30 5752 C 538.861 -3.9173 1.82131 0
M  V30 5753 C 537.996 -5.12906 1.38208 0
M  V30 5754 C 537.035 -5.58098 2.51382 0
M  V30 5755 N 536.172 -6.7049 2.08295 0
M  V30 5756 H 541.012 -2.22616 1.98107 0
M  V30 5757 H 538.549 -1.09103 0.986661 0
M  V30 5758 H 540.507 -4.15107 0.417371 0
M  V30 5759 H 539.137 -3.21898 -0.241201 0
M  V30 5760 H 538.189 -3.11966 2.17672 0
M  V30 5761 H 539.501 -4.21225 2.67153 0
M  V30 5762 H 538.655 -5.96657 1.09935 0
M  V30 5763 H 537.394 -4.85105 0.502456 0
M  V30 5764 H 536.399 -4.72917 2.80409 0
M  V30 5765 H 537.624 -5.87911 3.39909 0
M  V30 5766 H 535.57 -6.44416 1.22737 0
M  V30 5767 H 535.487 -6.99458 2.86869 0
M  V30 5768 H 536.755 -7.57672 1.83175 0
M  V30 5769 N 540.985 -1.06182 -1.16461 0
M  V30 5770 C 542.225 -0.787048 -1.8864 0
M  V30 5771 C 542.589 0.674093 -1.79778 0
M  V30 5772 O 543.79 1.06341 -2.46871 0
M  V30 5773 C 542.061 -1.2666 -3.34203 0
M  V30 5774 S 543.62 -1.12071 -4.24247 0
M  V30 5775 H 540.438 -0.285539 -0.651144 0
M  V30 5776 H 543.04 -1.35851 -1.40587 0
M  V30 5777 H 541.744 -2.32496 -3.38192 0
M  V30 5778 H 541.275 -0.689841 -3.87304 0
M  V30 5779 H 543.29 -0.0509341 -4.96174 0
M  V30 5780 N 542.463 1.3308 -0.844243 0
M  V30 5781 C 543.691 2.01808 -0.456203 0
M  V30 5782 C 544.106 1.63498 0.944131 0
M  V30 5783 O 543.463 0.85102 1.61443 0
M  V30 5784 C 543.514 3.56922 -0.573513 0
M  V30 5785 O 543.235 3.93851 -1.91868 0
M  V30 5786 C 544.736 4.42922 -0.183125 0
M  V30 5787 H 541.956 0.646273 -0.180477 0
M  V30 5788 H 544.5 1.69891 -1.1383 0
M  V30 5789 H 542.655 3.87352 0.0607367 0
M  V30 5790 H 543.069 4.88564 -1.90802 0
M  V30 5791 H 544.543 5.51093 -0.316241 0
M  V30 5792 H 545.02 4.30386 0.875477 0
M  V30 5793 H 545.626 4.1786 -0.792027 0
M  V30 5794 N 543.941 0.601185 1.45683 0
M  V30 5795 C 545.19 0.0914953 2.01492 0
M  V30 5796 C 545.503 -1.28331 1.47616 0
M  V30 5797 O 546.709 -1.88537 1.95362 0
M  V30 5798 C 545.165 0.11291 3.59723 0
M  V30 5799 C 544.773 1.48717 4.22596 0
M  V30 5800 C 546.517 -0.341871 4.23121 0
M  V30 5801 C 544.424 1.46531 5.7296 0
M  V30 5802 H 543.354 0.0304365 0.753385 0
M  V30 5803 H 546.005 0.755568 1.67223 0
M  V30 5804 H 544.387 -0.617692 3.91153 0
M  V30 5805 H 545.561 2.23897 4.02749 0
M  V30 5806 H 543.876 1.88351 3.71366 0
M  V30 5807 H 546.473 -0.377304 5.33367 0
M  V30 5808 H 546.816 -1.36325 3.93346 0
M  V30 5809 H 547.349 0.335256 3.96385 0
M  V30 5810 H 544.088 2.46408 6.07423 0
M  V30 5811 H 543.608 0.755997 5.95017 0
M  V30 5812 H 545.287 1.18618 6.36034 0
M  V30 5813 N 545.419 -1.53889 0.339982 0
M  V30 5814 C 546.666 -2.00855 -0.257621 0
M  V30 5815 C 546.994 -1.22788 -1.50842 0
M  V30 5816 O 546.249 -0.302567 -1.93347 0
M  V30 5817 C 546.548 -3.51968 -0.620735 0
M  V30 5818 C 546.214 -4.47741 0.532771 0
M  V30 5819 C 544.876 -4.73645 0.849339 0
M  V30 5820 C 547.228 -5.04551 1.3068 0
M  V30 5821 C 544.556 -5.53614 1.94237 0
M  V30 5822 C 546.908 -5.85713 2.39005 0
M  V30 5823 C 545.572 -6.09912 2.71225 0
M  V30 5824 H 544.842 -0.734979 -0.0942703 0
M  V30 5825 H 547.489 -1.85714 0.467159 0
M  V30 5826 H 545.794 -3.64921 -1.42618 0
M  V30 5827 H 547.491 -3.85762 -1.09495 0
M  V30 5828 H 544.081 -4.27711 0.275973 0
M  V30 5829 H 548.265 -4.84507 1.07549 0
M  V30 5830 H 543.521 -5.7059 2.19628 0
M  V30 5831 H 547.695 -6.28748 2.99415 0
M  V30 5832 H 545.322 -6.71665 3.56047 0
M  V30 5833 N 546.897 -0.0685191 -1.57451 0
M  V30 5834 C 548.146 0.600898 -1.92541 0
M  V30 5835 C 548.459 1.70967 -0.950239 0
M  V30 5836 O 549.665 2.43844 -1.19384 0
M  V30 5837 C 548.121 1.12019 -3.42023 0
M  V30 5838 C 547.729 0.0426028 -4.4798 0
M  V30 5839 C 549.473 1.76386 -3.86119 0
M  V30 5840 C 547.38 0.575759 -5.88591 0
M  V30 5841 H 546.31 0.228225 -0.71863 0
M  V30 5842 H 548.961 -0.140223 -1.82963 0
M  V30 5843 H 547.343 1.91418 -3.46663 0
M  V30 5844 H 548.517 -0.73182 -4.54952 0
M  V30 5845 H 546.832 -0.504642 -4.13331 0
M  V30 5846 H 549.429 2.17302 -4.88553 0
M  V30 5847 H 549.772 2.62255 -3.23308 0
M  V30 5848 H 550.305 1.03615 -3.84069 0
M  V30 5849 H 547.044 -0.245691 -6.55039 0
M  V30 5850 H 546.564 1.31778 -5.85145 0
M  V30 5851 H 548.243 1.0532 -6.3837 0
M  V30 5852 N 548.375 1.56261 0.205012 0
M  V30 5853 C 549.621 1.80306 0.9283 0
M  V30 5854 C 549.954 0.640932 1.83319 0
M  V30 5855 O 549.229 -0.359032 1.91158 0
M  V30 5856 C 549.512 3.14547 1.75306 0
M  V30 5857 C 549.365 4.41236 0.873562 0
M  V30 5858 C 550.684 3.45382 2.72762 0
M  V30 5859 H 547.803 0.655929 0.336044 0
M  V30 5860 H 550.445 1.88984 0.196211 0
M  V30 5861 H 548.595 3.0728 2.37721 0
M  V30 5862 H 550.267 4.60539 0.264887 0
M  V30 5863 H 548.51 4.33427 0.179773 0
M  V30 5864 H 549.181 5.31639 1.48541 0
M  V30 5865 H 551.657 3.52884 2.20481 0
M  V30 5866 H 550.533 4.40449 3.2756 0
M  V30 5867 H 550.794 2.68377 3.51321 0
M  V30 5868 N 549.853 -0.472356 1.50355 0
M  V30 5869 C 551.13 -1.23356 1.51798 0
M  V30 5870 C 551.51 -2.09469 0.26193 0
M  V30 5871 O 550.858 -2.15677 -0.754691 0
M  V30 5872 C 551.068 -2.06568 2.81302 0
M  V30 5873 C 552.416 -2.648 3.31913 0
M  V30 5874 O 553.44 -2.16812 2.82614 0
M  V30 5875 O 552.299 -3.52231 4.17846 0
M  V30 5876 H 549.393 -0.559707 0.608816 0
M  V30 5877 H 551.939 -0.48428 1.62643 0
M  V30 5878 H 550.711 -1.43103 3.64194 0
M  V30 5879 H 550.334 -2.88633 2.73454 0
M  V30 5880 N 551.331 -1.39911 -0.725443 0
M  V30 5881 C 552.241 -1.41688 -1.8698 0
M  V30 5882 C 553.257 -0.310579 -1.71206 0
M  V30 5883 O 554.433 -0.55359 -1.93642 0
M  V30 5884 C 551.498 -1.26811 -3.22676 0
M  V30 5885 C 550.559 -2.47497 -3.50776 0
M  V30 5886 C 549.792 -2.3332 -4.79997 0
M  V30 5887 O 550.015 -1.34175 -5.54394 0
M  V30 5888 O 548.949 -3.22498 -5.08211 0
M  V30 5889 H 552.775 -2.38171 -1.88436 0
M  V30 5890 H 550.36 -1.21128 -0.874548 0
M  V30 5891 H 552.242 -1.20684 -4.03749 0
M  V30 5892 H 550.917 -0.334289 -3.21969 0
M  V30 5893 H 549.824 -2.59201 -2.69751 0
M  V30 5894 H 551.157 -3.39606 -3.5627 0
M  V30 5895 N 552.809 0.956637 -1.25245 0
M  V30 5896 C 554.086 1.67716 -1.00651 0
M  V30 5897 C 554.466 2.0585 0.467866 0
M  V30 5898 O 553.814 1.77029 1.44475 0
M  V30 5899 C 554.024 2.90093 -1.94028 0
M  V30 5900 C 555.372 3.6209 -2.21756 0
M  V30 5901 O 556.396 3.00171 -1.9177 0
M  V30 5902 O 555.255 4.7358 -2.72735 0
M  V30 5903 H 552.349 0.733731 -0.381533 0
M  V30 5904 H 554.895 1.00974 -1.3639 0
M  V30 5905 H 553.667 2.58689 -2.93591 0
M  V30 5906 H 553.29 3.64566 -1.58674 0
M  V30 5907 N 554.287 1.06798 1.15896 0
M  V30 5908 C 555.527 0.797041 1.8822 0
M  V30 5909 C 555.891 -0.664549 1.80133 0
M  V30 5910 O 557.092 -1.0503 2.47431 0
M  V30 5911 C 555.363 1.28431 3.33527 0
M  V30 5912 S 556.922 1.14319 4.23647 0
M  V30 5913 H 553.74 0.288988 0.649621 0
M  V30 5914 H 556.342 1.36594 1.39865 0
M  V30 5915 H 555.046 2.34286 3.36954 0
M  V30 5916 H 554.577 0.710371 3.86933 0
M  V30 5917 H 556.592 0.0772467 4.9614 0
M  V30 5918 N 555.766 -1.3263 0.851289 0
M  V30 5919 C 556.991 -2.02097 0.466006 0
M  V30 5920 C 557.416 -1.63574 -0.928709 0
M  V30 5921 O 556.774 -0.834665 -1.60944 0
M  V30 5922 C 556.822 -3.55425 0.608737 0
M  V30 5923 O 555.926 -4.10827 -0.359878 0
M  V30 5924 H 555.267 -0.636911 0.187724 0
M  V30 5925 H 557.797 -1.69253 1.14955 0
M  V30 5926 H 557.807 -4.04986 0.495006 0
M  V30 5927 H 556.482 -3.82806 1.62581 0
M  V30 5928 H 555.059 -3.72349 -0.202666 0
M  V30 5929 N 557.244 -0.608902 -1.45362 0
M  V30 5930 C 558.521 -0.0365378 -1.95566 0
M  V30 5931 C 558.901 1.43169 -1.55131 0
M  V30 5932 O 558.249 2.1349 -0.814513 0
M  V30 5933 C 558.459 -0.236026 -3.48201 0
M  V30 5934 C 559.807 -0.117518 -4.24437 0
M  V30 5935 O 560.831 -0.166217 -3.55812 0
M  V30 5936 O 559.69 -0.00372127 -5.465 0
M  V30 5937 H 556.784 0.0349874 -0.82626 0
M  V30 5938 H 559.33 -0.679055 -1.55521 0
M  V30 5939 H 558.102 -1.25569 -3.70605 0
M  V30 5940 H 557.725 0.441691 -3.95139 0
M  V30 5941 N 558.722 1.53707 -0.348139 0
M  V30 5942 C 559.947 2.05877 0.250883 0
M  V30 5943 C 560.372 1.22115 1.43072 0
M  V30 5944 O 559.73 0.235986 1.79758 0
M  V30 5945 C 559.778 3.54886 0.639416 0
M  V30 5946 O 558.882 3.73948 1.73888 0
M  V30 5947 H 558.223 0.662754 0.040653 0
M  V30 5948 H 560.753 1.98303 -0.503685 0
M  V30 5949 H 560.763 3.97601 0.915295 0
M  V30 5950 H 559.438 4.153 -0.223386 0
M  V30 5951 H 558.015 3.43134 1.45991 0
M  V30 5952 N 560.2 0.0768682 1.57412 0
M  V30 5953 C 561.447 -0.591085 1.93681 0
M  V30 5954 C 561.775 -1.69311 0.957286 0
M  V30 5955 O 561.03 -1.95682 -0.0262428 0
M  V30 5956 C 561.329 -1.20268 3.36557 0
M  V30 5957 C 560.995 -0.226286 4.50332 0
M  V30 5958 C 559.657 0.0423142 4.81181 0
M  V30 5959 C 562.009 0.441415 5.19327 0
M  V30 5960 C 559.337 0.985616 5.78362 0
M  V30 5961 C 561.689 1.37307 6.17519 0
M  V30 5962 C 560.353 1.65009 6.46783 0
M  V30 5963 H 559.623 -0.216293 0.70873 0
M  V30 5964 H 562.27 0.148824 1.90921 0
M  V30 5965 H 560.575 -2.01844 3.35807 0
M  V30 5966 H 562.272 -1.72688 3.61911 0
M  V30 5967 H 558.862 -0.445821 4.26275 0
M  V30 5968 H 563.046 0.247023 4.95685 0
M  V30 5969 H 558.302 1.20743 5.99359 0
M  V30 5970 H 562.476 1.89637 6.70083 0
M  V30 5971 H 560.103 2.38263 7.21897 0
M  V30 5972 N 561.678 -1.56367 -0.196722 0
M  V30 5973 C 562.903 -1.84991 -0.937714 0
M  V30 5974 C 563.328 -0.660244 -1.76132 0
M  V30 5975 O 562.686 0.390967 -1.77034 0
M  V30 5976 C 562.734 -3.11828 -1.81096 0
M  V30 5977 O 561.838 -2.92266 -2.90955 0
M  V30 5978 H 561.179 -0.609193 -0.264159 0
M  V30 5979 H 563.709 -2.03595 -0.202529 0
M  V30 5980 H 563.719 -3.42579 -2.21594 0
M  V30 5981 H 562.394 -3.98037 -1.2058 0
M  V30 5982 H 560.971 -2.72809 -2.54224 0
M  V30 5983 N 563.156 0.464375 -1.50603 0
M  V30 5984 C 564.381 1.24372 -1.65971 0
M  V30 5985 C 564.806 1.84901 -0.345453 0
M  V30 5986 O 564.164 1.67596 0.691457 0
M  V30 5987 C 564.212 2.32331 -2.7578 0
M  V30 5988 O 563.316 3.37146 -2.375 0
M  V30 5989 H 562.657 0.365604 -0.554283 0
M  V30 5990 H 565.187 0.55183 -1.97018 0
M  V30 5991 H 565.197 2.77539 -2.99059 0
M  V30 5992 H 563.872 1.87648 -3.71162 0
M  V30 5993 H 562.449 2.97602 -2.24694 0
M  V30 5994 N 564.634 1.40294 0.718013 0
M  V30 5995 C 565.88 1.38645 1.48005 0
M  V30 5996 C 566.213 -0.0121202 1.94196 0
M  V30 5997 O 565.488 -0.980309 1.67989 0
M  V30 5998 C 565.771 2.37379 2.70782 0
M  V30 5999 C 565.624 3.8625 2.30501 0
M  V30 6000 C 566.943 2.33685 3.72933 0
M  V30 6001 H 564.062 0.504928 0.536858 0
M  V30 6002 H 566.704 1.71411 0.819649 0
M  V30 6003 H 564.854 2.09568 3.27129 0
M  V30 6004 H 566.526 4.24879 1.79655 0
M  V30 6005 H 564.769 4.02202 1.6253 0
M  V30 6006 H 565.44 4.50847 3.18498 0
M  V30 6007 H 567.916 2.58314 3.2621 0
M  V30 6008 H 566.792 3.0482 4.56482 0
M  V30 6009 H 567.053 1.34765 4.21059 0
M  V30 6010 N 566.112 -0.949982 1.2575 0
M  V30 6011 C 567.359 -1.69515 1.10774 0
M  V30 6012 C 567.687 -1.91316 -0.350479 0
M  V30 6013 O 566.942 -1.48515 -1.27443 0
M  V30 6014 C 567.241 -3.08039 1.81237 0
M  V30 6015 C 566.907 -3.06023 3.31151 0
M  V30 6016 C 565.569 -3.0518 3.72047 0
M  V30 6017 C 567.921 -2.98998 4.26907 0
M  V30 6018 C 565.249 -2.95067 5.07102 0
M  V30 6019 C 567.601 -2.90426 5.61992 0
M  V30 6020 C 566.265 -2.87922 6.0221 0
M  V30 6021 H 565.535 -0.6203 0.405351 0
M  V30 6022 H 568.182 -1.10953 1.56082 0
M  V30 6023 H 566.487 -3.70172 1.28373 0
M  V30 6024 H 568.184 -3.64526 1.67098 0
M  V30 6025 H 564.774 -3.07453 2.98614 0
M  V30 6026 H 568.958 -2.98764 3.963 0
M  V30 6027 H 564.214 -2.915 5.37436 0
M  V30 6028 H 568.388 -2.83952 6.35881 0
M  V30 6029 H 566.015 -2.79841 7.06819 0
M  V30 6030 N 567.59 -1.07411 -1.15328 0
M  V30 6031 C 568.54 -0.664788 -2.18093 0
M  V30 6032 C 569.524 0.310395 -1.57878 0
M  V30 6033 O 570.716 0.124026 -1.76565 0
M  V30 6034 C 567.845 -0.0647822 -3.43239 0
M  V30 6035 C 566.931 -1.06514 -4.10506 0
M  V30 6036 N 567.322 -2.24491 -4.53252 0
M  V30 6037 C 565.62 -0.898613 -4.36853 0
M  V30 6038 C 566.321 -2.8796 -5.05424 0
M  V30 6039 N 565.297 -2.15622 -4.99007 0
M  V30 6040 H 569.099 -1.56333 -2.48872 0
M  V30 6041 H 566.613 -0.947393 -1.31902 0
M  V30 6042 H 568.61 0.246363 -4.16171 0
M  V30 6043 H 567.27 0.828866 -3.13943 0
M  V30 6044 H 568.281 -2.62205 -4.46619 0
M  V30 6045 H 564.958 -0.0579118 -4.1746 0
M  V30 6046 H 566.348 -3.88137 -5.48452 0
M  V30 6047 N 569.068 1.32177 -0.85831 0
M  V30 6048 C 570.001 2.26823 -0.25035 0
M  V30 6049 C 570.979 1.50571 0.61378 0
M  V30 6050 O 572.163 1.79682 0.569777 0
M  V30 6051 C 569.29 3.32472 0.646556 0
M  V30 6052 C 568.336 4.26255 -0.144675 0
M  V30 6053 S 569.169 5.13608 -1.5155 0
M  V30 6054 C 570.325 6.22778 -0.624408 0
M  V30 6055 H 570.558 2.7804 -1.05267 0
M  V30 6056 H 568.091 1.39764 -0.656152 0
M  V30 6057 H 570.049 3.93817 1.15837 0
M  V30 6058 H 568.71 2.80031 1.42272 0
M  V30 6059 H 567.903 5.01114 0.538613 0
M  V30 6060 H 567.505 3.69346 -0.588198 0
M  V30 6061 H 569.797 6.77287 0.169846 0
M  V30 6062 H 570.74 6.95233 -1.34376 0
M  V30 6063 H 571.148 5.64156 -0.197128 0
M  V30 6064 N 570.547 0.616602 1.45037 0
M  V30 6065 C 571.457 -0.0985401 2.34393 0
M  V30 6066 C 572.473 -0.850971 1.51771 0
M  V30 6067 O 573.649 -0.806521 1.84546 0
M  V30 6068 C 570.714 -1.07748 3.29532 0
M  V30 6069 C 569.775 -0.326022 4.2806 0
M  V30 6070 C 569.008 -1.25833 5.18654 0
M  V30 6071 O 569.231 -2.49652 5.12864 0
M  V30 6072 O 568.165 -0.750512 5.97203 0
M  V30 6073 H 571.991 0.636016 2.96966 0
M  V30 6074 H 569.576 0.376832 1.44569 0
M  V30 6075 H 571.458 -1.64107 3.88133 0
M  V30 6076 H 570.133 -1.79291 2.69512 0
M  V30 6077 H 569.04 0.280253 3.73049 0
M  V30 6078 H 570.373 0.349091 4.9096 0
M  V30 6079 N 572.025 -1.5352 0.356285 0
M  V30 6080 C 573.265 -2.03027 -0.23649 0
M  V30 6081 C 573.629 -1.23813 -1.46746 0
M  V30 6082 O 574.83 -1.63281 -2.13525 0
M  V30 6083 C 573.101 -3.53442 -0.530415 0
M  V30 6084 S 574.66 -4.24836 -1.09819 0
M  V30 6085 H 571.478 -0.707591 -0.0695378 0
M  V30 6086 H 574.08 -1.89077 0.496999 0
M  V30 6087 H 572.784 -4.087 0.373114 0
M  V30 6088 H 572.315 -3.71536 -1.29323 0
M  V30 6089 H 574.33 -4.35228 -2.38309 0
M  V30 6090 N 573.503 -0.0852151 -1.57369 0
M  V30 6091 C 574.413 0.891712 -2.16992 0
M  V30 6092 C 575.429 1.3174 -1.13669 0
M  V30 6093 O 576.605 1.38735 -1.45995 0
M  V30 6094 C 573.67 2.13635 -2.73059 0
M  V30 6095 C 572.731 1.7658 -3.91303 0
M  V30 6096 C 571.964 2.95111 -4.44686 0
M  V30 6097 O 572.187 4.09539 -3.97032 0
M  V30 6098 O 571.121 2.74149 -5.35841 0
M  V30 6099 H 574.947 0.414477 -3.00858 0
M  V30 6100 H 572.532 0.138598 -1.48756 0
M  V30 6101 H 574.414 2.86595 -3.08935 0
M  V30 6102 H 573.089 2.6043 -1.92244 0
M  V30 6103 H 571.996 1.00831 -3.60255 0
M  V30 6104 H 573.329 1.34557 -4.7345 0
M  V30 6105 N 574.981 1.5647 0.188427 0
M  V30 6106 C 575.891 1.98285 1.2538 0
M  V30 6107 C 576.907 0.891535 1.49424 0
M  V30 6108 O 578.083 1.19782 1.61908 0
M  V30 6109 C 575.148 2.31965 2.57669 0
M  V30 6110 C 574.209 3.54838 2.41638 0
M  V30 6111 C 573.442 3.86901 3.67618 0
M  V30 6112 O 573.665 3.20163 4.72072 0
M  V30 6113 O 572.599 4.80309 3.62749 0
M  V30 6114 H 576.425 2.89145 0.928912 0
M  V30 6115 H 574.01 1.44112 0.393955 0
M  V30 6116 H 575.892 2.54673 3.35737 0
M  V30 6117 H 574.567 1.44271 2.89771 0
M  V30 6118 H 573.474 3.37369 1.61658 0
M  V30 6119 H 574.807 4.43019 2.14465 0
M  V30 6120 N 576.459 -0.456382 1.50847 0
M  V30 6121 C 577.389 -1.56025 1.73719 0
M  V30 6122 C 578.37 -1.5967 0.586473 0
M  V30 6123 O 579.555 -1.75702 0.827185 0
M  V30 6124 C 576.685 -2.94251 1.84483 0
M  V30 6125 C 575.639 -3.05471 2.99786 0
M  V30 6126 C 574.965 -4.45489 2.95709 0
M  V30 6127 C 576.265 -2.81318 4.40065 0
M  V30 6128 H 577.959 -1.37138 2.66146 0
M  V30 6129 H 575.505 -0.658299 1.28072 0
M  V30 6130 H 577.458 -3.71417 1.99067 0
M  V30 6131 H 576.182 -3.14328 0.886891 0
M  V30 6132 H 574.841 -2.30741 2.84876 0
M  V30 6133 H 574.489 -4.62505 1.97732 0
M  V30 6134 H 574.189 -4.53929 3.73125 0
M  V30 6135 H 575.713 -5.24655 3.12362 0
M  V30 6136 H 577.127 -3.48226 4.55425 0
M  V30 6137 H 575.524 -3.01188 5.19043 0
M  V30 6138 H 576.594 -1.7706 4.51418 0
M  V30 6139 N 577.937 -1.40673 -0.710563 0
M  V30 6140 C 578.847 -1.43663 -1.85467 0
M  V30 6141 C 579.863 -0.328721 -1.70867 0
M  V30 6142 O 581.039 -0.574098 -1.93044 0
M  V30 6143 C 578.104 -1.30226 -3.21313 0
M  V30 6144 C 577.165 -2.51204 -3.48131 0
M  V30 6145 C 576.398 -2.38398 -4.77495 0
M  V30 6146 O 576.621 -1.40048 -5.5294 0
M  V30 6147 O 575.555 -3.2787 -5.04762 0
M  V30 6148 H 579.381 -2.40156 -1.859 0
M  V30 6149 H 576.966 -1.22049 -0.861652 0
M  V30 6150 H 578.848 -1.2496 -4.02446 0
M  V30 6151 H 577.523 -0.368419 -3.21597 0
M  V30 6152 H 576.43 -2.62048 -2.66987 0
M  V30 6153 H 577.763 -3.43366 -3.52648 0
M  V30 6154 N 579.415 0.9433 -1.26252 0
M  V30 6155 C 580.362 2.0417 -1.07625 0
M  V30 6156 C 581.332 1.6609 0.0180738 0
M  V30 6157 O 582.517 1.90276 -0.141289 0
M  V30 6158 C 579.657 3.37653 -0.713043 0
M  V30 6159 C 578.77 3.88783 -1.8834 0
M  V30 6160 C 577.905 5.10642 -1.4635 0
M  V30 6161 C 576.944 5.54028 -2.60229 0
M  V30 6162 N 576.081 6.67092 -2.18936 0
M  V30 6163 H 580.921 2.19436 -2.01623 0
M  V30 6164 H 578.458 1.07519 -1.00389 0
M  V30 6165 H 580.416 4.14391 -0.483358 0
M  V30 6166 H 579.046 3.22241 0.18996 0
M  V30 6167 H 578.098 3.08464 -2.22608 0
M  V30 6168 H 579.41 4.16922 -2.73821 0
M  V30 6169 H 578.564 5.94832 -1.19414 0
M  V30 6170 H 577.303 4.84244 -0.579568 0
M  V30 6171 H 576.308 4.68396 -2.87898 0
M  V30 6172 H 577.533 5.82429 -3.49219 0
M  V30 6173 H 575.479 6.42381 -1.32974 0
M  V30 6174 H 575.396 6.94806 -2.97961 0
M  V30 6175 H 576.664 7.54662 -1.95206 0
M  V30 6176 N 580.893 1.08022 1.14757 0
M  V30 6177 C 582.118 0.82895 1.90114 0
M  V30 6178 C 582.543 -0.612772 1.77839 0
M  V30 6179 O 581.901 -1.42895 1.11583 0
M  V30 6180 C 581.949 1.25062 3.38219 0
M  V30 6181 O 581.053 0.400119 4.10454 0
M  V30 6182 H 580.394 0.301412 0.591648 0
M  V30 6183 H 582.924 1.44062 1.45284 0
M  V30 6184 H 582.934 1.22977 3.89025 0
M  V30 6185 H 581.609 2.30067 3.46471 0
M  V30 6186 H 580.186 0.484052 3.69745 0
M  V30 6187 N 582.371 -1.3172 0.865308 0
M  V30 6188 C 583.596 -2.01591 0.487415 0
M  V30 6189 C 584.021 -1.6455 -0.911307 0
M  V30 6190 O 583.379 -0.851689 -1.6005 0
M  V30 6191 C 583.427 -3.54759 0.646401 0
M  V30 6192 O 582.531 -4.11185 -0.316284 0
M  V30 6193 H 581.872 -0.634884 0.194468 0
M  V30 6194 H 584.402 -1.68024 1.16744 0
M  V30 6195 H 584.412 -4.04438 0.537932 0
M  V30 6196 H 583.087 -3.8106 1.66632 0
M  V30 6197 H 581.664 -3.72543 -0.163162 0
M  V30 6198 N 583.85 -0.624285 -1.44708 0
M  V30 6199 C 585.127 -0.0572781 -1.95516 0
M  V30 6200 C 585.507 1.41516 -1.56641 0
M  V30 6201 O 584.855 2.12614 -0.837111 0
M  V30 6202 C 585.065 -0.272944 -3.47931 0
M  V30 6203 C 586.413 -0.162529 -4.24289 0
M  V30 6204 O 587.437 -0.203946 -3.55616 0
M  V30 6205 O 586.296 -0.0616847 -5.46465 0
M  V30 6206 H 583.389 0.0262219 -0.826584 0
M  V30 6207 H 585.936 -0.695512 -1.54793 0
M  V30 6208 H 584.707 -1.29492 -3.69253 0
M  V30 6209 H 584.331 0.399756 -3.95585 0
M  V30 6210 N 585.328 1.53329 -0.364422 0
M  V30 6211 C 586.556 2.05657 0.226424 0
M  V30 6212 C 586.971 1.23801 1.42544 0
M  V30 6213 O 586.328 0.27839 1.80364 0
M  V30 6214 C 586.379 3.56125 0.621056 0
M  V30 6215 O 586.1 4.34879 -0.530304 0
M  V30 6216 C 587.601 4.24706 1.27041 0
M  V30 6217 H 584.821 0.669806 0.0400056 0
M  V30 6218 H 587.365 1.97714 -0.522456 0
M  V30 6219 H 585.52 3.64223 1.31985 0
M  V30 6220 H 585.934 5.24073 -0.211546 0
M  V30 6221 H 587.408 5.3131 1.49711 0
M  V30 6222 H 587.885 3.78354 2.23036 0
M  V30 6223 H 588.491 4.20858 0.613079 0
M  V30 6224 N 586.806 0.0935595 1.57322 0
M  V30 6225 C 587.736 -0.863062 2.16964 0
M  V30 6226 C 588.717 -1.29528 1.10256 0
M  V30 6227 O 589.902 -1.36245 1.38387 0
M  V30 6228 C 587.032 -2.12276 2.74875 0
M  V30 6229 C 585.986 -1.82921 3.86942 0
M  V30 6230 C 585.312 -3.15707 4.31548 0
M  V30 6231 C 586.612 -1.11737 5.10208 0
M  V30 6232 H 588.306 -0.366145 2.97153 0
M  V30 6233 H 585.852 -0.174673 1.42937 0
M  V30 6234 H 587.805 -2.79634 3.1525 0
M  V30 6235 H 586.529 -2.64248 1.91938 0
M  V30 6236 H 585.188 -1.17961 3.47103 0
M  V30 6237 H 584.836 -3.65563 3.45504 0
M  V30 6238 H 584.536 -2.96849 5.07104 0
M  V30 6239 H 586.06 -3.84226 4.74555 0
M  V30 6240 H 587.474 -1.69203 5.47762 0
M  V30 6241 H 585.871 -1.03064 5.91183 0
M  V30 6242 H 586.941 -0.0998818 4.84797 0
M  V30 6243 N 588.284 -1.56567 -0.180126 0
M  V30 6244 C 589.512 -1.85618 -0.913972 0
M  V30 6245 C 589.927 -0.677892 -1.7621 0
M  V30 6246 O 589.284 0.353171 -1.7905 0
M  V30 6247 C 589.335 -3.13619 -1.79793 0
M  V30 6248 O 589.056 -4.26906 -0.98402 0
M  V30 6249 C 590.557 -3.55954 -2.64219 0
M  V30 6250 H 587.777 -0.616043 -0.265954 0
M  V30 6251 H 590.321 -2.03681 -0.182872 0
M  V30 6252 H 588.476 -2.97409 -2.48247 0
M  V30 6253 H 588.89 -4.9989 -1.58776 0
M  V30 6254 H 590.364 -4.48444 -3.21873 0
M  V30 6255 H 590.841 -2.79653 -3.38661 0
M  V30 6256 H 591.447 -3.74746 -2.01111 0
M  V30 6257 N 589.762 0.448376 -1.51087 0
M  V30 6258 C 591.178 0.783984 -1.39017 0
M  V30 6259 C 591.378 1.96087 -0.463904 0
M  V30 6260 O 590.434 2.52357 0.0850534 0
M  V30 6261 C 591.747 1.07471 -2.80839 0
M  V30 6262 C 593.295 1.17981 -2.89913 0
M  V30 6263 C 593.77 1.50354 -4.32617 0
M  V30 6264 N 595.261 1.57301 -4.35673 0
M  V30 6265 C 595.996 1.839 -5.4311 0
M  V30 6266 N 595.492 2.08365 -6.60724 0
M  V30 6267 N 597.285 1.8559 -5.30578 0
M  V30 6268 H 589.436 -0.326881 -2.0987 0
M  V30 6269 H 591.699 -0.0838006 -0.944289 0
M  V30 6270 H 591.405 0.282768 -3.50561 0
M  V30 6271 H 591.279 2.00519 -3.19487 0
M  V30 6272 H 593.666 1.9624 -2.20395 0
M  V30 6273 H 593.747 0.228603 -2.54776 0
M  V30 6274 H 593.391 0.726273 -5.0268 0
M  V30 6275 H 593.321 2.46663 -4.65258 0
M  V30 6276 H 595.812 1.40342 -3.50874 0
M  V30 6277 H 596.125 2.27999 -7.38401 0
M  V30 6278 H 594.47 2.0571 -6.63859 0
M  V30 6279 H 597.661 1.65989 -4.37682 0
M  V30 6280 H 597.834 2.05983 -6.1439 0
M  V30 6281 N 591.24 1.41047 0.703093 0
M  V30 6282 C 592.15 1.44645 1.84703 0
M  V30 6283 C 593.166 0.337778 1.7069 0
M  V30 6284 O 594.342 0.584327 1.92737 0
M  V30 6285 C 591.407 1.31928 3.20618 0
M  V30 6286 C 590.468 2.53047 3.46794 0
M  V30 6287 C 589.701 2.40927 4.76224 0
M  V30 6288 O 589.924 1.42978 5.5219 0
M  V30 6289 O 588.858 3.30543 5.03016 0
M  V30 6290 H 592.684 2.41139 1.84624 0
M  V30 6291 H 590.269 1.22504 0.855167 0
M  V30 6292 H 592.151 1.27092 4.01778 0
M  V30 6293 H 590.826 0.385469 3.21397 0
M  V30 6294 H 589.733 2.6346 2.65593 0
M  V30 6295 H 591.066 3.45231 3.50822 0
M  V30 6296 N 592.718 -0.936591 1.26751 0
M  V30 6297 C 593.668 -2.0219 1.05371 0
M  V30 6298 C 594.652 -1.60893 -0.0154112 0
M  V30 6299 O 595.844 -1.75843 0.202085 0
M  V30 6300 C 592.973 -3.36222 0.693541 0
M  V30 6301 C 592.059 -3.8399 1.80035 0
M  V30 6302 N 592.45 -4.0436 3.03852 0
M  V30 6303 C 590.748 -4.12945 1.685 0
M  V30 6304 C 591.449 -4.44 3.75818 0
M  V30 6305 N 590.425 -4.50966 3.03531 0
M  V30 6306 H 594.227 -2.15958 1.99347 0
M  V30 6307 H 591.741 -1.12277 1.17335 0
M  V30 6308 H 593.738 -4.13625 0.521513 0
M  V30 6309 H 592.398 -3.23821 -0.238693 0
M  V30 6310 H 593.409 -3.9092 3.39709 0
M  V30 6311 H 590.086 -4.09308 0.822986 0
M  V30 6312 H 591.476 -4.67914 4.82189 0
M  V30 6313 N 594.196 -1.08629 -1.14182 0
M  V30 6314 C 595.473 -0.73002 -1.81466 0
M  V30 6315 C 595.853 0.785996 -1.95922 0
M  V30 6316 O 595.201 1.70535 -1.52086 0
M  V30 6317 C 595.411 -1.45957 -3.17014 0
M  V30 6318 C 596.759 -1.62008 -3.92477 0
M  V30 6319 O 597.783 -1.42141 -3.26611 0
M  V30 6320 O 596.642 -1.94806 -5.106 0
M  V30 6321 H 593.736 -0.261307 -0.784632 0
M  V30 6322 H 596.282 -1.188 -1.2118 0
M  V30 6323 H 595.054 -2.49221 -3.01669 0
M  V30 6324 H 594.677 -0.993222 -3.84995 0
M  V30 6325 N 595.674 1.31259 -0.872281 0
M  V30 6326 C 596.637 2.26744 -0.334656 0
M  V30 6327 C 597.637 1.52307 0.515681 0
M  V30 6328 O 598.827 1.71148 0.324656 0
M  V30 6329 C 595.959 3.36841 0.524482 0
M  V30 6330 H 597.152 2.75812 -1.17762 0
M  V30 6331 H 594.705 1.42232 -0.648064 0
M  V30 6332 H 595.44 2.93069 1.38855 0
M  V30 6333 H 595.225 3.92009 -0.0844299 0
M  V30 6334 H 596.715 4.07944 0.892838 0
M  V30 6335 N 597.152 0.631951 1.44375 0
M  V30 6336 C 598.1 -0.0846693 2.32446 0
M  V30 6337 C 599.094 -0.834957 1.47393 0
M  V30 6338 O 600.3 -0.747764 1.63733 0
M  V30 6339 H 596.675 -0.0461508 0.750583 0
M  V30 6340 H 598.646 0.67619 2.90638 0
M  V30 6341 C 597.395 -1.05211 3.314 0
M  V30 6342 H 596.718 -0.484203 3.96857 0
M  V30 6343 H 598.158 -1.523 3.95703 0
M  V30 6344 C 596.617 -2.13776 2.60387 0
M  V30 6345 O 597.147 -3.21869 2.4034 0
M  V30 6346 N 595.353 -1.89733 2.20113 0
M  V30 6347 H 594.9 -1.01833 2.36618 0
M  V30 6348 H 594.858 -2.62572 1.72926 0
M  V30 6349 N 598.631 -1.53133 0.372548 0
M  V30 6350 C 599.578 -2.25951 -0.470631 0
M  V30 6351 C 600.548 -1.26895 -1.07176 0
M  V30 6352 O 601.733 -1.55691 -1.10294 0
M  V30 6353 C 598.873 -3.05726 -1.6008 0
M  V30 6354 C 597.986 -4.19684 -1.02416 0
M  V30 6355 C 597.121 -4.86888 -2.124 0
M  V30 6356 C 596.16 -5.92866 -1.52238 0
M  V30 6357 N 595.297 -6.53732 -2.56084 0
M  V30 6358 H 600.137 -2.97587 0.156816 0
M  V30 6359 H 597.674 -1.4683 0.0891571 0
M  V30 6360 H 599.632 -3.50258 -2.26661 0
M  V30 6361 H 598.262 -2.36331 -2.1988 0
M  V30 6362 H 597.314 -3.79588 -0.248426 0
M  V30 6363 H 598.626 -4.95821 -0.544366 0
M  V30 6364 H 597.78 -5.34638 -2.86787 0
M  V30 6365 H 596.519 -4.10239 -2.63734 0
M  V30 6366 H 595.524 -5.4447 -0.763685 0
M  V30 6367 H 596.749 -6.71439 -1.0172 0
M  V30 6368 H 594.695 -5.79932 -3.06618 0
M  V30 6369 H 594.612 -7.25429 -2.12811 0
M  V30 6370 H 595.88 -7.0613 -3.30152 0
M  V30 6371 N 600.109 -0.101901 -1.5727 0
M  V30 6372 C 601.358 0.559922 -1.93772 0
M  V30 6373 C 601.671 1.68913 -0.98629 0
M  V30 6374 O 602.877 2.41256 -1.24529 0
M  V30 6375 C 601.333 1.04739 -3.44322 0
M  V30 6376 C 600.941 -0.05243 -4.47969 0
M  V30 6377 C 602.685 1.68157 -3.89774 0
M  V30 6378 C 600.592 0.450781 -5.8968 0
M  V30 6379 H 599.522 0.212931 -0.723309 0
M  V30 6380 H 602.173 -0.179001 -1.82625 0
M  V30 6381 H 600.555 1.84021 -3.50645 0
M  V30 6382 H 601.729 -0.828157 -4.53297 0
M  V30 6383 H 600.044 -0.592202 -4.12167 0
M  V30 6384 H 602.641 2.0689 -4.93052 0
M  V30 6385 H 602.984 2.55338 -3.28798 0
M  V30 6386 H 603.517 0.954453 -3.8618 0
M  V30 6387 H 600.256 -0.38458 -6.54371 0
M  V30 6388 H 599.776 1.19336 -5.87809 0
M  V30 6389 H 601.455 0.917555 -6.40461 0
M  V30 6390 N 601.587 1.56661 0.17182 0
M  V30 6391 C 602.535 1.97289 1.23207 0
M  V30 6392 C 603.529 0.861566 1.45854 0
M  V30 6393 O 604.735 1.04668 1.4644 0
M  V30 6394 H 601.11 0.627681 0.41415 0
M  V30 6395 H 603.081 2.85662 0.862542 0
M  V30 6396 C 601.83 2.34849 2.564 0
M  V30 6397 H 601.153 3.19903 2.39797 0
M  V30 6398 H 602.593 2.67121 3.29276 0
M  V30 6399 C 601.052 1.19172 3.15119 0
M  V30 6400 O 601.582 0.479113 3.98833 0
M  V30 6401 N 599.788 0.962415 2.74201 0
M  V30 6402 H 599.335 1.54365 2.06226 0
M  V30 6403 H 599.293 0.190272 3.13824 0
M  V30 6404 N 603.065 -0.440357 1.51323 0
M  V30 6405 C 604.295 -1.21079 1.67402 0
M  V30 6406 C 604.703 -1.85555 0.369599 0
M  V30 6407 O 604.046 -1.71375 -0.661525 0
M  V30 6408 C 604.108 -2.33839 2.73056 0
M  V30 6409 C 603.772 -1.89755 4.15743 0
M  V30 6410 C 604.769 -1.40268 5.0062 0
M  V30 6411 C 602.454 -1.97539 4.61826 0
M  V30 6412 C 604.448 -0.991474 6.29642 0
M  V30 6413 C 602.135 -1.56029 5.90845 0
M  V30 6414 C 603.133 -1.06915 6.7458 0
M  V30 6415 O 602.821 -0.659933 8.01187 0
M  V30 6416 H 602.553 -0.371133 0.56501 0
M  V30 6417 H 605.107 -0.528409 1.98487 0
M  V30 6418 H 603.337 -3.05345 2.37279 0
M  V30 6419 H 605.026 -2.95713 2.78044 0
M  V30 6420 H 605.792 -1.33652 4.66221 0
M  V30 6421 H 601.671 -2.34713 3.96776 0
M  V30 6422 H 605.215 -0.607425 6.9495 0
M  V30 6423 H 601.112 -1.62315 6.24759 0
M  V30 6424 H 601.88 -0.786052 8.14717 0
M  V30 6425 N 604.543 -1.41418 -0.695603 0
M  V30 6426 C 605.476 -1.3768 -1.81988 0
M  V30 6427 C 606.454 -0.244061 -1.60758 0
M  V30 6428 O 607.638 -0.430965 -1.83507 0
M  V30 6429 C 604.765 -1.1476 -3.18666 0
M  V30 6430 C 603.811 -2.30752 -3.58686 0
M  V30 6431 S 604.644 -3.9323 -3.63498 0
M  V30 6432 C 605.8 -3.72613 -5.02902 0
M  V30 6433 H 606.033 -2.32822 -1.84882 0
M  V30 6434 H 603.566 -1.27942 -0.86431 0
M  V30 6435 H 605.524 -1.02223 -3.97569 0
M  V30 6436 H 604.185 -0.212385 -3.13381 0
M  V30 6437 H 603.378 -2.10409 -4.57978 0
M  V30 6438 H 602.98 -2.39696 -2.87092 0
M  V30 6439 H 605.272 -3.32317 -5.904 0
M  V30 6440 H 606.215 -4.71507 -5.28286 0
M  V30 6441 H 606.623 -3.0589 -4.74438 0
M  V30 6442 N 606.021 0.929856 -1.27246 0
M  V30 6443 C 607.251 1.70895 -1.16096 0
M  V30 6444 C 607.659 1.87039 0.285122 0
M  V30 6445 O 607.002 1.38557 1.20614 0
M  V30 6446 C 607.064 3.12919 -1.7698 0
M  V30 6447 C 606.728 3.2012 -3.26148 0
M  V30 6448 C 607.725 3.02533 -4.22812 0
M  V30 6449 C 605.41 3.43148 -3.66817 0
M  V30 6450 C 607.404 3.07861 -5.58122 0
M  V30 6451 C 605.091 3.48109 -5.02258 0
M  V30 6452 C 606.089 3.30483 -5.97721 0
M  V30 6453 O 605.777 3.35175 -7.30694 0
M  V30 6454 H 605.509 0.54152 -0.404639 0
M  V30 6455 H 608.063 1.17342 -1.68582 0
M  V30 6456 H 606.293 3.67945 -1.18969 0
M  V30 6457 H 607.982 3.72787 -1.60576 0
M  V30 6458 H 608.748 2.84586 -3.92728 0
M  V30 6459 H 604.627 3.55918 -2.9299 0
M  V30 6460 H 608.171 2.94021 -6.32612 0
M  V30 6461 H 604.068 3.65579 -5.31998 0
M  V30 6462 H 604.836 3.51644 -7.39114 0
M  V30 6463 N 607.499 1.09233 1.13605 0
M  V30 6464 C 608.462 0.733553 2.17144 0
M  V30 6465 C 609.462 -0.235873 1.59061 0
M  V30 6466 O 610.652 -0.0143167 1.74194 0
M  V30 6467 C 607.784 0.084471 3.40795 0
M  V30 6468 H 608.977 1.65049 2.50397 0
M  V30 6469 H 606.53 0.891264 1.28399 0
M  V30 6470 H 607.265 -0.843795 3.1313 0
M  V30 6471 H 607.05 0.781985 3.84223 0
M  V30 6472 H 608.54 -0.151216 4.17326 0
M  V30 6473 N 608.977 -1.30795 0.87923 0
M  V30 6474 C 609.909 -2.27241 0.299025 0
M  V30 6475 C 610.922 -1.53472 -0.543166 0
M  V30 6476 O 612.111 -1.74756 -0.363651 0
M  V30 6477 C 609.211 -3.33655 -0.593931 0
M  V30 6478 C 608.384 -4.36857 0.2179 0
M  V30 6479 C 607.443 -5.22715 -0.604646 0
M  V30 6480 O 606.469 -5.69192 -0.0293838 0
M  V30 6481 N 607.671 -5.48008 -1.91488 0
M  V30 6482 H 610.436 -2.77667 1.12788 0
M  V30 6483 H 607.997 -1.43914 0.741637 0
M  V30 6484 H 609.989 -3.88013 -1.15012 0
M  V30 6485 H 608.559 -2.83202 -1.32346 0
M  V30 6486 H 607.779 -3.82444 0.955536 0
M  V30 6487 H 609.067 -5.02869 0.774614 0
M  V30 6488 H 608.465 -5.1202 -2.40525 0
M  V30 6489 H 607.022 -6.05264 -2.41864 0
M  V30 6490 N 610.455 -0.639598 -1.44038 0
M  V30 6491 C 611.685 -0.154586 -2.06021 0
M  V30 6492 C 612.093 1.17951 -1.47933 0
M  V30 6493 O 611.436 1.73627 -0.59994 0
M  V30 6494 C 611.498 0.0255459 -3.59491 0
M  V30 6495 C 611.162 -1.2317 -4.40089 0
M  V30 6496 C 612.159 -2.15735 -4.73027 0
M  V30 6497 C 609.844 -1.46949 -4.80324 0
M  V30 6498 C 611.838 -3.30382 -5.45093 0
M  V30 6499 C 609.525 -2.61891 -5.52138 0
M  V30 6500 C 610.523 -3.53433 -5.84443 0
M  V30 6501 O 610.211 -4.6637 -6.54793 0
M  V30 6502 H 609.943 -0.0808543 -0.671147 0
M  V30 6503 H 612.497 -0.876541 -1.85758 0
M  V30 6504 H 610.727 0.802733 -3.78276 0
M  V30 6505 H 612.416 0.466184 -4.03214 0
M  V30 6506 H 613.182 -1.98602 -4.42473 0
M  V30 6507 H 609.061 -0.765815 -4.54595 0
M  V30 6508 H 612.605 -4.01856 -5.70226 0
M  V30 6509 H 608.502 -2.78964 -5.82108 0
M  V30 6510 H 609.27 -4.6546 -6.73267 0
M  V30 6511 N 611.933 1.52934 -0.380664 0
M  V30 6512 C 613.179 2.01765 0.20458 0
M  V30 6513 C 613.512 1.26696 1.47179 0
M  V30 6514 O 612.787 0.364936 1.91046 0
M  V30 6515 C 613.07 3.56869 0.481269 0
M  V30 6516 C 612.923 4.42617 -0.800629 0
M  V30 6517 C 614.242 4.2121 1.27554 0
M  V30 6518 H 611.361 0.733388 0.0728803 0
M  V30 6519 H 614.003 1.83068 -0.50853 0
M  V30 6520 H 612.153 3.72932 1.08875 0
M  V30 6521 H 613.825 4.38323 -1.43773 0
M  V30 6522 H 612.068 4.09977 -1.4178 0
M  V30 6523 H 612.739 5.49134 -0.561791 0
M  V30 6524 H 615.215 4.09072 0.761514 0
M  V30 6525 H 614.091 5.29732 1.43788 0
M  V30 6526 H 614.352 3.78269 2.28833 0
M  V30 6527 N 613.412 0.11024 1.57214 0
M  V30 6528 C 614.359 -0.843195 2.14846 0
M  V30 6529 C 615.329 -1.26954 1.07107 0
M  V30 6530 O 616.514 -1.34861 1.34971 0
M  V30 6531 C 613.654 -2.09123 2.74521 0
M  V30 6532 C 612.767 -1.71404 3.96541 0
M  V30 6533 C 611.902 -2.91107 4.44331 0
M  V30 6534 C 610.941 -2.49586 5.58903 0
M  V30 6535 N 610.078 -3.62175 6.01477 0
M  V30 6536 H 614.918 -0.344886 2.95998 0
M  V30 6537 H 612.455 -0.15855 1.46243 0
M  V30 6538 H 614.413 -2.82234 3.07246 0
M  V30 6539 H 613.043 -2.56427 1.96074 0
M  V30 6540 H 612.095 -0.88201 3.70033 0
M  V30 6541 H 613.407 -1.36884 4.7965 0
M  V30 6542 H 612.561 -3.72454 4.78919 0
M  V30 6543 H 611.3 -3.28848 3.60153 0
M  V30 6544 H 610.305 -1.6667 5.23929 0
M  V30 6545 H 611.53 -2.12973 6.4484 0
M  V30 6546 H 609.476 -3.99605 5.20242 0
M  V30 6547 H 609.393 -3.3155 6.79419 0
M  V30 6548 H 610.661 -4.43987 6.407 0
M  V30 6549 N 614.89 -1.56749 -0.16351 0
M  V30 6550 C 615.838 -1.97939 -1.22159 0
M  V30 6551 C 616.832 -0.869288 -1.45395 0
M  V30 6552 O 618.038 -1.05443 -1.45883 0
M  V30 6553 H 614.413 -0.629869 -0.410815 0
M  V30 6554 H 616.384 -2.86115 -0.847381 0
M  V30 6555 C 615.133 -2.36206 -2.55151 0
M  V30 6556 H 614.456 -3.2117 -2.38097 0
M  V30 6557 H 615.896 -2.68863 -3.27854 0
M  V30 6558 C 614.355 -1.20841 -3.14482 0
M  V30 6559 O 614.885 -0.500258 -3.98573 0
M  V30 6560 N 613.091 -0.976943 -2.73686 0
M  V30 6561 H 612.638 -1.55457 -2.05404 0
M  V30 6562 H 612.596 -0.206912 -3.13718 0
M  V30 6563 N 616.368 0.432326 -1.51554 0
M  V30 6564 C 617.596 1.20364 -1.68286 0
M  V30 6565 C 618.011 1.84888 -0.38233 0
M  V30 6566 O 617.368 1.70924 0.639627 0
M  V30 6567 C 617.419 2.28398 -2.80208 0
M  V30 6568 O 617.14 1.66512 -4.05223 0
M  V30 6569 C 618.641 3.18584 -3.08251 0
M  V30 6570 H 615.861 0.36259 -0.564596 0
M  V30 6571 H 618.405 0.511647 -1.97996 0
M  V30 6572 H 616.56 2.93305 -2.53083 0
M  V30 6573 H 616.974 2.37951 -4.67418 0
M  V30 6574 H 618.448 3.90511 -3.90135 0
M  V30 6575 H 618.925 3.79628 -2.2086 0
M  V30 6576 H 619.531 2.59372 -3.37055 0
M  V30 6577 N 617.846 1.41785 0.688094 0
M  V30 6578 C 618.779 1.38643 1.81255 0
M  V30 6579 C 619.757 0.252583 1.60626 0
M  V30 6580 O 620.941 0.440691 1.83276 0
M  V30 6581 C 618.068 1.16449 3.18053 0
M  V30 6582 C 617.114 2.32651 3.57457 0
M  V30 6583 S 617.947 3.95152 3.61407 0
M  V30 6584 C 619.103 3.75275 5.00919 0
M  V30 6585 H 619.336 2.33799 1.83644 0
M  V30 6586 H 616.869 1.28398 0.857513 0
M  V30 6587 H 618.827 1.0433 3.97021 0
M  V30 6588 H 617.488 0.229002 3.13264 0
M  V30 6589 H 616.681 2.12835 4.56856 0
M  V30 6590 H 616.283 2.41215 2.85817 0
M  V30 6591 H 618.575 3.35443 5.88629 0
M  V30 6592 H 619.518 4.74302 5.25778 0
M  V30 6593 H 619.926 3.08401 4.7281 0
M  V30 6594 N 619.324 -0.923095 1.27737 0
M  V30 6595 C 620.234 -2.05765 1.12685 0
M  V30 6596 C 621.25 -1.73911 0.0557197 0
M  V30 6597 O 622.426 -1.99674 0.263137 0
M  V30 6598 C 619.491 -3.37804 0.780363 0
M  V30 6599 C 618.552 -3.83326 1.93286 0
M  V30 6600 C 617.785 -5.09064 1.60281 0
M  V30 6601 O 618.008 -5.6809 0.512828 0
M  V30 6602 O 616.942 -5.50071 2.44347 0
M  V30 6603 H 620.768 -2.21378 2.07907 0
M  V30 6604 H 618.353 -1.04299 1.06968 0
M  V30 6605 H 620.235 -4.17097 0.600668 0
M  V30 6606 H 618.91 -3.23387 -0.142291 0
M  V30 6607 H 617.817 -3.049 2.16764 0
M  V30 6608 H 619.15 -4.02292 2.83588 0
M  V30 6609 N 620.802 -1.09834 -1.13024 0
M  V30 6610 C 622.213 -0.855651 -1.65938 0
M  V30 6611 C 622.564 0.615159 -1.86307 0
M  V30 6612 O 621.689 1.47335 -1.58497 0
M  V30 6613 C 622.284 -1.5467 -3.01434 0
M  V30 6614 C 620.843 -1.35088 -3.51323 0
M  V30 6615 C 619.99 -1.6001 -2.26478 0
M  V30 6616 H 622.941 -1.25691 -0.968889 0
M  V30 6617 H 622.962 -0.982179 -3.67605 0
M  V30 6618 H 622.474 -2.61715 -2.86578 0
M  V30 6619 H 620.575 -0.30179 -3.71376 0
M  V30 6620 H 620.688 -2.0886 -4.31178 0
M  V30 6621 H 619.052 -1.02246 -2.33276 0
M  V30 6622 H 619.835 -2.68293 -2.14182 0
M  V30 6623 N 622.28 1.30327 -0.886154 0
M  V30 6624 C 623.21 2.30549 -0.370028 0
M  V30 6625 C 624.191 1.61039 0.547751 0
M  V30 6626 O 625.376 1.8864 0.461353 0
M  V30 6627 C 622.506 3.44808 0.415275 0
M  V30 6628 C 621.46 4.26024 -0.41085 0
M  V30 6629 C 620.786 5.32347 0.501128 0
M  V30 6630 C 622.086 4.95433 -1.65359 0
M  V30 6631 H 623.78 2.73969 -1.20754 0
M  V30 6632 H 621.326 1.3171 -0.582097 0
M  V30 6633 H 623.279 4.13986 0.78699 0
M  V30 6634 H 622.003 3.00197 1.28644 0
M  V30 6635 H 620.662 3.58535 -0.764719 0
M  V30 6636 H 620.31 4.83982 1.37004 0
M  V30 6637 H 620.01 5.87581 -0.0478356 0
M  V30 6638 H 621.534 6.0438 0.869333 0
M  V30 6639 H 622.948 5.5712 -1.35239 0
M  V30 6640 H 621.345 5.60537 -2.14284 0
M  V30 6641 H 622.415 4.21493 -2.39733 0
M  V30 6642 N 623.758 0.647228 1.43697 0
M  V30 6643 C 624.706 -0.0600105 2.32523 0
M  V30 6644 C 625.7 -0.819277 1.48271 0
M  V30 6645 O 626.906 -0.730356 1.64517 0
M  V30 6646 H 623.281 -0.0381872 0.75103 0
M  V30 6647 H 625.252 0.706978 2.89904 0
M  V30 6648 C 624.001 -1.0169 3.32497 0
M  V30 6649 H 623.324 -0.442083 3.97348 0
M  V30 6650 H 624.764 -1.48095 3.97296 0
M  V30 6651 C 623.223 -2.11002 2.6264 0
M  V30 6652 O 623.753 -3.19302 2.4374 0
M  V30 6653 N 621.959 -1.87388 2.22113 0
M  V30 6654 H 621.506 -0.993174 2.37684 0
M  V30 6655 H 621.464 -2.60723 1.75701 0
M  V30 6656 N 625.236 -1.5273 0.388769 0
M  V30 6657 C 626.485 -2.00757 -0.194833 0
M  V30 6658 C 626.798 -1.27951 -1.47946 0
M  V30 6659 O 628.004 -1.66686 -2.14308 0
M  V30 6660 C 626.46 -3.57695 -0.397762 0
M  V30 6661 C 626.068 -4.394 0.873583 0
M  V30 6662 C 627.812 -4.14012 -0.937759 0
M  V30 6663 C 625.719 -5.87938 0.638962 0
M  V30 6664 H 624.649 -0.750101 -0.0765845 0
M  V30 6665 H 627.3 -1.76239 0.511086 0
M  V30 6666 H 625.682 -3.7846 -1.16552 0
M  V30 6667 H 626.856 -4.30403 1.64591 0
M  V30 6668 H 625.171 -3.94301 1.33849 0
M  V30 6669 H 627.768 -5.22645 -1.12899 0
M  V30 6670 H 628.111 -3.7007 -1.90666 0
M  V30 6671 H 628.644 -3.97137 -0.229588 0
M  V30 6672 H 625.383 -6.36202 1.57885 0
M  V30 6673 H 624.903 -5.99726 -0.094443 0
M  V30 6674 H 626.582 -6.46423 0.273299 0
M  V30 6675 N 626.714 -0.118576 -1.57153 0
M  V30 6676 C 628.125 0.40687 -1.82213 0
M  V30 6677 C 628.476 1.66636 -1.03571 0
M  V30 6678 O 627.601 2.14682 -0.272171 0
M  V30 6679 C 628.196 0.744949 -3.30509 0
M  V30 6680 C 626.755 1.21503 -3.5625 0
M  V30 6681 C 625.902 0.223511 -2.76398 0
M  V30 6682 H 628.853 -0.343712 -1.54933 0
M  V30 6683 H 628.874 1.6024 -3.45114 0
M  V30 6684 H 628.386 -0.171911 -3.87719 0
M  V30 6685 H 626.487 2.1488 -3.04396 0
M  V30 6686 H 626.6 1.16065 -4.64829 0
M  V30 6687 H 624.964 0.71046 -2.44591 0
M  V30 6688 H 625.747 -0.686439 -3.36367 0
M  V30 6689 N 628.193 1.56834 0.155195 0
M  V30 6690 C 629.47 1.73799 0.897395 0
M  V30 6691 C 629.85 0.684379 1.99698 0
M  V30 6692 O 629.198 -0.298111 2.26547 0
M  V30 6693 C 629.408 3.17572 1.44737 0
M  V30 6694 C 630.756 3.79014 1.91399 0
M  V30 6695 O 631.78 3.20951 1.54496 0
M  V30 6696 O 630.639 4.80998 2.59429 0
M  V30 6697 H 627.733 0.710329 0.423511 0
M  V30 6698 H 630.279 1.69107 0.141761 0
M  V30 6699 H 629.051 3.85749 0.656741 0
M  V30 6700 H 628.674 3.26657 2.26674 0
M  V30 6701 N 629.671 -0.424282 1.51781 0
M  V30 6702 C 630.917 -1.17434 1.6534 0
M  V30 6703 C 631.25 -1.90549 0.374806 0
M  V30 6704 O 630.525 -1.84145 -0.626179 0
M  V30 6705 C 630.808 -2.18093 2.86544 0
M  V30 6706 C 630.661 -1.48975 4.24413 0
M  V30 6707 C 631.98 -3.18934 3.03264 0
M  V30 6708 H 629.099 -0.425566 0.601716 0
M  V30 6709 H 631.741 -0.461921 1.84299 0
M  V30 6710 H 629.891 -2.78849 2.7051 0
M  V30 6711 H 631.563 -0.914551 4.52143 0
M  V30 6712 H 629.806 -0.791893 4.26511 0
M  V30 6713 H 630.477 -2.22347 5.05238 0
M  V30 6714 H 632.953 -2.68243 3.18096 0
M  V30 6715 H 631.829 -3.86645 3.89611 0
M  V30 6716 H 632.09 -3.85793 2.15908 0
M  V30 6717 N 631.149 -1.42148 -0.680565 0
M  V30 6718 C 632.374 -1.45901 -1.47403 0
M  V30 6719 C 632.799 -0.0700985 -1.87969 0
M  V30 6720 O 632.157 0.930145 -1.55621 0
M  V30 6721 C 632.205 -2.38661 -2.70321 0
M  V30 6722 O 631.309 -1.85399 -3.68376 0
M  V30 6723 H 630.65 -0.494565 -0.443059 0
M  V30 6724 H 633.18 -1.86774 -0.835251 0
M  V30 6725 H 633.19 -2.55046 -3.18458 0
M  V30 6726 H 631.865 -3.39571 -2.40134 0
M  V30 6727 H 630.442 -1.78541 -3.2738 0
M  V30 6728 N 632.627 0.916307 -1.28225 0
M  V30 6729 C 633.574 2.01841 -1.11932 0
M  V30 6730 C 634.544 1.66091 -0.0171604 0
M  V30 6731 O 635.729 1.89934 -0.181617 0
M  V30 6732 C 632.869 3.36065 -0.784504 0
M  V30 6733 C 631.982 3.847 -1.96544 0
M  V30 6734 C 631.117 5.07423 -1.57149 0
M  V30 6735 C 630.156 5.48384 -2.71922 0
M  V30 6736 N 629.293 6.62298 -2.33037 0
M  V30 6737 H 634.133 2.1511 -2.06232 0
M  V30 6738 H 631.67 1.05366 -1.02647 0
M  V30 6739 H 633.628 4.13272 -0.571148 0
M  V30 6740 H 632.258 3.22571 0.121565 0
M  V30 6741 H 631.31 3.03673 -2.291 0
M  V30 6742 H 632.622 4.1102 -2.82603 0
M  V30 6743 H 631.776 5.92165 -1.32004 0
M  V30 6744 H 630.515 4.82906 -0.682153 0
M  V30 6745 H 629.52 4.62184 -2.97768 0
M  V30 6746 H 630.745 5.7489 -3.61494 0
M  V30 6747 H 628.691 6.39416 -1.4657 0
M  V30 6748 H 628.608 6.8833 -3.12631 0
M  V30 6749 H 629.876 7.50352 -2.11169 0
M  V30 6750 N 634.105 1.10431 1.1244 0
M  V30 6751 C 635.382 0.758797 1.80282 0
M  V30 6752 C 635.762 -0.754727 1.97147 0
M  V30 6753 O 635.11 -1.68094 1.54779 0
M  V30 6754 C 635.32 1.50982 3.14651 0
M  V30 6755 C 636.668 1.68232 3.8985 0
M  V30 6756 O 637.692 1.47319 3.24308 0
M  V30 6757 O 636.551 2.02905 5.07437 0
M  V30 6758 H 633.645 0.273756 0.780376 0
M  V30 6759 H 636.191 1.20713 1.19275 0
M  V30 6760 H 634.963 2.53989 2.97666 0
M  V30 6761 H 634.586 1.05435 3.83366 0
M  V30 6762 N 635.583 -1.29855 0.893053 0
M  V30 6763 C 636.53 -2.27909 0.364161 0
M  V30 6764 C 637.5 -1.56726 -0.550093 0
M  V30 6765 O 638.685 -1.84747 -0.47677 0
M  V30 6766 C 635.825 -3.42678 -0.408178 0
M  V30 6767 C 634.938 -4.28659 0.536212 0
M  V30 6768 C 634.073 -5.30599 -0.252521 0
M  V30 6769 C 633.112 -6.08234 0.686822 0
M  V30 6770 N 632.249 -7.02068 -0.0670902 0
M  V30 6771 H 637.089 -2.72531 1.20544 0
M  V30 6772 H 634.626 -1.34047 0.605779 0
M  V30 6773 H 636.584 -4.07986 -0.871962 0
M  V30 6774 H 635.214 -2.99103 -1.21397 0
M  V30 6775 H 634.266 -3.63584 1.1185 0
M  V30 6776 H 635.578 -4.8274 1.25552 0
M  V30 6777 H 634.732 -6.01694 -0.777801 0
M  V30 6778 H 633.471 -4.77233 -1.005 0
M  V30 6779 H 632.476 -5.3601 1.22366 0
M  V30 6780 H 633.701 -6.63689 1.43852 0
M  V30 6781 H 631.647 -6.5108 -0.801955 0
M  V30 6782 H 631.564 -7.53675 0.59243 0
M  V30 6783 H 632.832 -7.77392 -0.572851 0
M  V30 6784 N 637.061 -0.65484 -1.43351 0
M  V30 6785 C 638.477 -0.32255 -1.56307 0
M  V30 6786 C 638.677 1.17324 -1.63821 0
M  V30 6787 O 637.733 1.95813 -1.59417 0
M  V30 6788 C 639.046 -1.03533 -2.82314 0
M  V30 6789 C 640.594 -1.01574 -2.9606 0
M  V30 6790 C 641.069 -1.70945 -4.24902 0
M  V30 6791 N 642.56 -1.67716 -4.3177 0
M  V30 6792 C 643.295 -2.18265 -5.30234 0
M  V30 6793 N 642.791 -2.7711 -6.34966 0
M  V30 6794 N 644.584 -2.08756 -5.21898 0
M  V30 6795 H 636.735 -1.62549 -1.36717 0
M  V30 6796 H 638.998 -0.683676 -0.656727 0
M  V30 6797 H 638.704 -2.09045 -2.8283 0
M  V30 6798 H 638.578 -0.587913 -3.7259 0
M  V30 6799 H 640.965 0.0309834 -2.95084 0
M  V30 6800 H 641.046 -1.50186 -2.07069 0
M  V30 6801 H 640.69 -2.75574 -4.26639 0
M  V30 6802 H 640.62 -1.19797 -5.12793 0
M  V30 6803 H 643.111 -1.24777 -3.56706 0
M  V30 6804 H 643.424 -3.13353 -7.06421 0
M  V30 6805 H 641.769 -2.81171 -6.35585 0
M  V30 6806 H 644.96 -1.62488 -4.38994 0
M  V30 6807 H 645.133 -2.48459 -5.98475 0
M  V30 6808 N 638.539 1.52521 -0.396863 0
M  V30 6809 C 639.786 2.01672 0.182898 0
M  V30 6810 C 640.114 1.28302 1.46181 0
M  V30 6811 O 639.369 0.374118 1.92091 0
M  V30 6812 C 639.668 3.5403 0.489677 0
M  V30 6813 C 639.334 4.45456 -0.698581 0
M  V30 6814 C 637.996 4.70166 -1.02454 0
M  V30 6815 C 640.348 4.99354 -1.49316 0
M  V30 6816 C 637.676 5.46024 -2.1465 0
M  V30 6817 C 640.028 5.76439 -2.60579 0
M  V30 6818 C 638.692 5.99426 -2.93675 0
M  V30 6819 H 637.962 0.737971 0.066927 0
M  V30 6820 H 640.609 1.83853 -0.535764 0
M  V30 6821 H 638.914 3.69963 1.28976 0
M  V30 6822 H 640.611 3.8956 0.951018 0
M  V30 6823 H 637.201 4.26392 -0.434525 0
M  V30 6824 H 641.385 4.80182 -1.25457 0
M  V30 6825 H 636.641 5.62046 -2.40654 0
M  V30 6826 H 640.815 6.17202 -3.22544 0
M  V30 6827 H 638.442 6.57988 -3.80731 0
M  V30 6828 N 640.017 0.126909 1.57088 0
M  V30 6829 C 641.428 -0.397201 1.82426 0
M  V30 6830 C 641.779 -1.66084 1.04453 0
M  V30 6831 O 640.904 -2.14534 0.283552 0
M  V30 6832 C 641.499 -0.727411 3.30899 0
M  V30 6833 C 640.058 -1.19612 3.56889 0
M  V30 6834 C 639.205 -0.20885 2.76512 0
M  V30 6835 H 642.156 0.351924 1.54749 0
M  V30 6836 H 642.177 -1.58407 3.45959 0
M  V30 6837 H 641.689 0.19247 3.87622 0
M  V30 6838 H 639.79 -2.13263 3.05532 0
M  V30 6839 H 639.903 -1.13598 4.65438 0
M  V30 6840 H 638.267 -0.697479 2.44964 0
M  V30 6841 H 639.05 0.704267 3.35998 0
M  V30 6842 N 641.495 -1.56914 -0.146875 0
M  V30 6843 C 642.741 -1.84515 -0.855914 0
M  V30 6844 C 643.096 -0.710909 -1.78784 0
M  V30 6845 O 642.389 0.291123 -1.89375 0
M  V30 6846 C 642.583 -3.16128 -1.66727 0
M  V30 6847 C 642.412 -4.42246 -0.815405 0
M  V30 6848 C 641.182 -5.03006 -0.480976 0
M  V30 6849 C 643.38 -5.14094 -0.145684 0
M  V30 6850 N 641.362 -6.12695 0.384476 0
M  V30 6851 C 642.733 -6.17282 0.579902 0
M  V30 6852 C 644.788 -4.97856 -0.0663705 0
M  V30 6853 C 643.491 -7.0599 1.37731 0
M  V30 6854 C 645.517 -5.87028 0.71778 0
M  V30 6855 C 644.879 -6.89698 1.43165 0
M  V30 6856 H 640.978 -0.725829 -0.291026 0
M  V30 6857 H 643.562 -1.94322 -0.121279 0
M  V30 6858 H 641.733 -3.07468 -2.37315 0
M  V30 6859 H 643.465 -3.31635 -2.31949 0
M  V30 6860 H 640.22 -4.66504 -0.816789 0
M  V30 6861 H 640.644 -6.72158 0.80823 0
M  V30 6862 H 645.286 -4.18465 -0.603929 0
M  V30 6863 H 643.004 -7.84809 1.92613 0
M  V30 6864 H 646.59 -5.76532 0.781141 0
M  V30 6865 H 645.47 -7.57505 2.02868 0
M  V30 6866 N 642.974 0.416227 -1.52004 0
M  V30 6867 C 644.202 1.18573 -1.69553 0
M  V30 6868 C 644.617 1.84472 -0.401919 0
M  V30 6869 O 643.974 1.71593 0.621463 0
M  V30 6870 C 644.025 2.25413 -2.82615 0
M  V30 6871 O 643.746 1.62205 -4.06966 0
M  V30 6872 C 645.247 3.15297 -3.11613 0
M  V30 6873 H 642.467 0.356582 -0.56841 0
M  V30 6874 H 645.011 0.490618 -1.98528 0
M  V30 6875 H 643.166 2.90604 -2.56179 0
M  V30 6876 H 643.58 2.3298 -4.69916 0
M  V30 6877 H 645.054 3.86351 -3.94255 0
M  V30 6878 H 645.531 3.77264 -2.24874 0
M  V30 6879 H 646.137 2.55783 -3.39787 0
M  V30 6880 N 644.452 1.42507 0.673017 0
M  V30 6881 C 645.68 1.46473 1.46128 0
M  V30 6882 C 646.095 0.0765912 1.88645 0
M  V30 6883 O 645.452 -0.909057 1.58248 0
M  V30 6884 C 645.503 2.39339 2.70923 0
M  V30 6885 O 645.224 3.72752 2.3019 0
M  V30 6886 C 646.725 2.52343 3.64469 0
M  V30 6887 H 643.945 0.49812 0.449575 0
M  V30 6888 H 646.489 1.87041 0.826802 0
M  V30 6889 H 644.644 2.02019 3.30556 0
M  V30 6890 H 645.058 4.22503 3.10791 0
M  V30 6891 H 646.532 3.2144 4.48754 0
M  V30 6892 H 647.009 1.56189 4.1049 0
M  V30 6893 H 647.615 2.90392 3.10729 0
M  V30 6894 N 645.93 -0.909495 1.28709 0
M  V30 6895 C 646.84 -2.04558 1.14861 0
M  V30 6896 C 647.856 -1.73842 0.0741621 0
M  V30 6897 O 649.032 -1.99383 0.2843 0
M  V30 6898 C 646.097 -3.36957 0.816148 0
M  V30 6899 C 645.158 -3.81255 1.97341 0
M  V30 6900 C 644.391 -5.07335 1.65671 0
M  V30 6901 O 644.614 -5.67514 0.573053 0
M  V30 6902 O 643.548 -5.47449 2.50167 0
M  V30 6903 H 647.374 -2.19161 2.10243 0
M  V30 6904 H 644.959 -1.03159 1.08068 0
M  V30 6905 H 646.841 -4.16436 0.644873 0
M  V30 6906 H 645.516 -3.2352 -0.107983 0
M  V30 6907 H 644.423 -3.02584 2.19986 0
M  V30 6908 H 645.756 -3.99261 2.87839 0
M  V30 6909 N 647.408 -1.11026 -1.11852 0
M  V30 6910 C 648.356 -0.759643 -2.19846 0
M  V30 6911 C 649.35 0.246964 -1.6759 0
M  V30 6912 O 650.556 0.106693 -1.79684 0
M  V30 6913 H 646.931 -0.22775 -0.716683 0
M  V30 6914 H 648.902 -1.6792 -2.46669 0
M  V30 6915 C 647.651 -0.214364 -3.47039 0
M  V30 6916 H 646.974 -0.980175 -3.87599 0
M  V30 6917 H 648.414 -0.00717047 -4.23999 0
M  V30 6918 C 646.873 1.05436 -3.19976 0
M  V30 6919 O 647.403 2.13483 -3.40276 0
M  V30 6920 N 645.609 0.975436 -2.7374 0
M  V30 6921 H 645.156 0.0960853 -2.57421 0
M  V30 6922 H 645.114 1.82501 -2.5601 0
M  V30 6923 N 648.886 1.2938 -0.899927 0
M  V30 6924 C 650.114 1.99691 -0.541386 0
M  V30 6925 C 650.529 1.67355 0.873936 0
M  V30 6926 O 649.886 0.918728 1.57688 0
M  V30 6927 C 649.937 3.54168 -0.72438 0
M  V30 6928 O 649.658 3.85359 -2.08399 0
M  V30 6929 C 651.159 4.41746 -0.370819 0
M  V30 6930 H 648.379 0.638037 -0.207726 0
M  V30 6931 H 650.923 1.6491 -1.20934 0
M  V30 6932 H 649.078 3.87261 -0.103607 0
M  V30 6933 H 649.492 4.80032 -2.11352 0
M  V30 6934 H 650.966 5.49256 -0.549693 0
M  V30 6935 H 651.443 4.33712 0.692148 0
M  V30 6936 H 652.049 4.14125 -0.968543 0
M  V30 6937 N 650.364 0.662433 1.43002 0
M  V30 6938 C 651.612 0.179237 2.01304 0
M  V30 6939 C 651.933 -1.21428 1.52579 0
M  V30 6940 O 651.203 -1.81294 0.742252 0
M  V30 6941 H 649.783 0.0632725 0.744316 0
M  V30 6942 H 652.445 0.856169 1.75088 0
M  V30 6943 H 651.541 0.170957 3.11631 0
M  V30 6944 N 651.842 -1.52309 0.404946 0
M  V30 6945 C 652.79 -2.28452 -0.437321 0
M  V30 6946 C 653.784 -1.32975 -1.04948 0
M  V30 6947 O 654.99 -1.50451 -0.988159 0
M  V30 6948 H 651.365 -0.734824 -0.159805 0
M  V30 6949 H 653.336 -2.97542 0.22615 0
M  V30 6950 C 652.085 -3.11536 -1.54404 0
M  V30 6951 H 651.408 -3.84871 -1.08233 0
M  V30 6952 H 652.848 -3.67926 -2.10729 0
M  V30 6953 C 651.307 -2.24833 -2.50902 0
M  V30 6954 O 651.837 -1.88574 -3.54687 0
M  V30 6955 N 650.043 -1.88685 -2.21012 0
M  V30 6956 H 649.59 -2.18371 -1.36646 0
M  V30 6957 H 649.548 -1.30966 -2.85824 0
M  V30 6958 N 653.32 -0.135238 -1.57019 0
M  V30 6959 C 654.566 0.519563 -1.96032 0
M  V30 6960 C 654.899 1.65284 -1.01955 0
M  V30 6961 O 654.174 1.94408 -0.059727 0
M  V30 6962 C 654.457 1.0369 -3.44848 0
M  V30 6963 C 654.31 -0.0940754 -4.49702 0
M  V30 6964 C 655.629 1.92254 -3.95887 0
M  V30 6965 H 652.748 0.18739 -0.712779 0
M  V30 6966 H 655.39 -0.214086 -1.8879 0
M  V30 6967 H 653.54 1.66209 -3.5115 0
M  V30 6968 H 655.212 -0.73 -4.55487 0
M  V30 6969 H 653.455 -0.754924 -4.27181 0
M  V30 6970 H 654.126 0.309419 -5.51132 0
M  V30 6971 H 656.602 1.39581 -3.9199 0
M  V30 6972 H 655.478 2.25364 -5.00502 0
M  V30 6973 H 655.739 2.85513 -3.37543 0
M  V30 6974 N 654.798 1.5699 0.138552 0
M  V30 6975 C 655.746 1.99858 1.18994 0
M  V30 6976 C 656.74 0.89231 1.43994 0
M  V30 6977 O 657.946 1.0775 1.44187 0
M  V30 6978 H 654.321 0.636325 0.400743 0
M  V30 6979 H 656.292 2.87427 0.801755 0
M  V30 6980 C 655.041 2.40235 2.51361 0
M  V30 6981 H 654.364 3.24917 2.32957 0
M  V30 6982 H 655.804 2.74045 3.23535 0
M  V30 6983 C 654.263 1.25829 3.1252 0
M  V30 6984 O 654.793 0.563604 3.97727 0
M  V30 6985 N 652.999 1.02036 2.72097 0
M  V30 6986 H 652.546 1.58705 2.02905 0
M  V30 6987 H 652.504 0.256796 3.1335 0
M  V30 6988 N 656.276 -0.40816 1.52223 0
M  V30 6989 C 657.208 -1.51642 1.71864 0
M  V30 6990 C 658.221 -1.51378 0.599056 0
M  V30 6991 O 659.41 -1.55626 0.874239 0
M  V30 6992 C 656.51 -2.90534 1.74481 0
M  V30 6993 C 655.683 -3.14979 3.03491 0
M  V30 6994 C 654.742 -4.33749 2.97907 0
M  V30 6995 O 653.768 -4.30982 3.71811 0
M  V30 6996 N 654.97 -5.38912 2.15764 0
M  V30 6997 H 657.735 -1.35188 2.67478 0
M  V30 6998 H 655.296 -0.597468 1.50472 0
M  V30 6999 H 657.288 -3.68056 1.68275 0
M  V30 7000 H 655.858 -3.00441 0.863363 0
M  V30 7001 H 655.078 -2.25492 3.23337 0
M  V30 7002 H 656.366 -3.28156 3.88833 0
M  V30 7003 H 655.764 -5.44008 1.55152 0
M  V30 7004 H 654.321 -6.15174 2.15415 0
M  V30 7005 N 657.755 -1.42862 -0.66545 0
M  V30 7006 C 658.687 -1.43026 -1.79098 0
M  V30 7007 C 659.7 -0.32803 -1.59461 0
M  V30 7008 O 660.889 -0.591709 -1.68407 0
M  V30 7009 C 657.989 -1.21566 -3.16346 0
M  V30 7010 C 657.162 -2.44399 -3.62751 0
M  V30 7011 C 656.221 -2.18344 -4.78761 0
M  V30 7012 O 655.247 -2.91611 -4.88827 0
M  V30 7013 N 656.449 -1.1924 -5.68122 0
M  V30 7014 H 659.214 -2.40045 -1.79439 0
M  V30 7015 H 656.775 -1.37861 -0.848872 0
M  V30 7016 H 658.767 -1.02037 -3.91625 0
M  V30 7017 H 657.337 -0.330368 -3.10849 0
M  V30 7018 H 656.557 -2.79433 -2.78048 0
M  V30 7019 H 657.845 -3.26173 -3.90498 0
M  V30 7020 H 657.243 -0.586603 -5.6265 0
M  V30 7021 H 655.8 -1.05698 -6.43173 0
M  V30 7022 N 659.233 0.902656 -1.29189 0
M  V30 7023 C 660.473 1.6672 -1.18254 0
M  V30 7024 C 660.837 1.90199 0.262336 0
M  V30 7025 O 662.038 2.6421 0.494612 0
M  V30 7026 C 660.309 2.98178 -1.9704 0
M  V30 7027 S 661.868 3.89226 -2.02605 0
M  V30 7028 H 658.686 0.572432 -0.421714 0
M  V30 7029 H 661.288 1.07279 -1.63436 0
M  V30 7030 H 659.992 2.788 -3.01163 0
M  V30 7031 H 659.523 3.62661 -1.5245 0
M  V30 7032 H 661.538 4.82913 -1.14059 0
M  V30 7033 N 660.711 1.11618 1.11262 0
M  V30 7034 C 661.96 0.860934 1.82403 0
M  V30 7035 C 662.273 -0.615303 1.8567 0
M  V30 7036 O 663.479 -0.986861 2.52929 0
M  V30 7037 C 661.935 1.49048 3.27586 0
M  V30 7038 C 661.543 3.00089 3.32642 0
M  V30 7039 C 663.287 1.31515 4.03614 0
M  V30 7040 C 661.194 3.56019 4.72234 0
M  V30 7041 H 660.124 0.318423 0.683464 0
M  V30 7042 H 662.775 1.34165 1.25188 0
M  V30 7043 H 661.157 0.937434 3.84744 0
M  V30 7044 H 662.331 3.61813 2.85356 0
M  V30 7045 H 660.646 3.16919 2.70096 0
M  V30 7046 H 663.243 1.70732 5.0671 0
M  V30 7047 H 663.586 0.257917 4.155 0
M  V30 7048 H 664.119 1.83694 3.52848 0
M  V30 7049 H 660.858 4.61463 4.65545 0
M  V30 7050 H 660.378 2.99066 5.19923 0
M  V30 7051 H 662.057 3.54568 5.41193 0
M  V30 7052 N 662.189 -1.289 0.906776 0
M  V30 7053 C 663.605 -1.47733 0.603902 0
M  V30 7054 C 663.805 -1.82568 -0.852702 0
M  V30 7055 O 662.861 -1.92642 -1.63234 0
M  V30 7056 C 664.174 -2.58522 1.53581 0
M  V30 7057 C 665.722 -2.72394 1.54177 0
M  V30 7058 C 666.197 -3.86318 2.46013 0
M  V30 7059 N 667.688 -3.93661 2.441 0
M  V30 7060 C 668.423 -4.81177 3.11859 0
M  V30 7061 N 667.919 -5.73333 3.88923 0
M  V30 7062 N 669.712 -4.74728 3.00981 0
M  V30 7063 H 661.863 -1.04567 1.84877 0
M  V30 7064 H 664.126 -0.520118 0.792579 0
M  V30 7065 H 663.832 -2.39667 2.57396 0
M  V30 7066 H 663.706 -3.55475 1.26165 0
M  V30 7067 H 666.093 -2.90641 0.511034 0
M  V30 7068 H 666.174 -1.75993 1.85634 0
M  V30 7069 H 665.818 -3.68826 3.49185 0
M  V30 7070 H 665.748 -4.82102 2.11862 0
M  V30 7071 H 668.239 -3.27751 1.88115 0
M  V30 7072 H 668.552 -6.36923 4.37663 0
M  V30 7073 H 666.897 -5.73196 3.93029 0
M  V30 7074 H 670.088 -4.01722 2.40286 0
M  V30 7075 H 670.261 -5.42719 3.54062 0
M  V30 7076 N 663.667 -0.670007 -1.42649 0
M  V30 7077 C 664.892 -0.196955 -2.06463 0
M  V30 7078 C 665.317 1.1352 -1.49983 0
M  V30 7079 O 664.675 1.705 -0.616397 0
M  V30 7080 C 664.723 -0.137381 -3.60338 0
M  V30 7081 O 663.827 0.895523 -4.02559 0
M  V30 7082 H 663.168 -0.102579 -0.656029 0
M  V30 7083 H 665.698 -0.917669 -1.82866 0
M  V30 7084 H 665.708 0.0403625 -4.0798 0
M  V30 7085 H 664.383 -1.10977 -4.0082 0
M  V30 7086 H 662.96 0.689209 -3.66476 0
M  V30 7087 N 665.145 1.52092 -0.413018 0
M  V30 7088 C 666.075 2.30021 0.401567 0
M  V30 7089 C 667.056 1.34395 1.04269 0
M  V30 7090 O 668.241 1.63304 1.05097 0
M  V30 7091 C 665.371 3.12447 1.51638 0
M  V30 7092 C 664.325 4.16153 1.00005 0
M  V30 7093 C 663.651 4.86948 2.20875 0
M  V30 7094 C 664.951 5.22275 0.0513757 0
M  V30 7095 H 666.645 2.98365 -0.248704 0
M  V30 7096 H 664.191 1.4349 -0.121052 0
M  V30 7097 H 666.144 3.65733 2.09326 0
M  V30 7098 H 664.868 2.41879 2.19458 0
M  V30 7099 H 663.527 3.63882 0.445549 0
M  V30 7100 H 663.175 4.12905 2.8726 0
M  V30 7101 H 662.875 5.57057 1.86978 0
M  V30 7102 H 664.399 5.43048 2.79162 0
M  V30 7103 H 665.813 5.70778 0.537176 0
M  V30 7104 H 664.21 5.9977 -0.198977 0
M  V30 7105 H 665.28 4.76611 -0.892736 0
M  V30 7106 N 666.623 0.143563 1.56945 0
M  V30 7107 C 667.553 -0.7936 2.196 0
M  V30 7108 C 668.534 -1.25955 1.14321 0
M  V30 7109 O 669.719 -1.31773 1.42651 0
M  V30 7110 C 666.849 -2.03424 2.81489 0
M  V30 7111 C 665.803 -1.70519 3.92565 0
M  V30 7112 C 665.129 -3.01817 4.41373 0
M  V30 7113 C 666.429 -0.95449 5.13504 0
M  V30 7114 H 668.123 -0.271423 2.98167 0
M  V30 7115 H 665.669 -0.12911 1.4342 0
M  V30 7116 H 667.622 -2.69463 3.23987 0
M  V30 7117 H 666.346 -2.58008 2.00248 0
M  V30 7118 H 665.005 -1.06859 3.5068 0
M  V30 7119 H 664.653 -3.54386 3.56959 0
M  V30 7120 H 664.353 -2.80565 5.16292 0
M  V30 7121 H 665.877 -3.68934 4.86539 0
M  V30 7122 H 667.291 -1.5169 5.52868 0
M  V30 7123 H 665.688 -0.842035 5.94163 0
M  V30 7124 H 666.758 0.0544033 4.84869 0
M  V30 7125 N 668.101 -1.57061 -0.130224 0
M  V30 7126 C 669.341 -1.86071 -0.845993 0
M  V30 7127 C 669.705 -0.73009 -1.77577 0
M  V30 7128 O 670.906 -0.901663 -2.53226 0
M  V30 7129 C 669.177 -3.20293 -1.58579 0
M  V30 7130 S 670.736 -3.70905 -2.34467 0
M  V30 7131 H 667.554 -0.652434 -0.282579 0
M  V30 7132 H 670.156 -1.95218 -0.10498 0
M  V30 7133 H 668.86 -4.00533 -0.894509 0
M  V30 7134 H 668.391 -3.14195 -2.36739 0
M  V30 7135 H 670.406 -3.41509 -3.59981 0
M  V30 7136 N 669.579 0.400081 -1.52437 0
M  V30 7137 C 670.807 1.16768 -1.70801 0
M  V30 7138 C 671.222 1.84036 -0.421462 0
M  V30 7139 O 670.579 1.72242 0.603228 0
M  V30 7140 C 670.63 2.22403 -2.8499 0
M  V30 7141 O 670.351 1.57879 -4.08663 0
M  V30 7142 C 671.852 3.11974 -3.1494 0
M  V30 7143 H 669.072 0.350533 -0.57216 0
M  V30 7144 H 671.616 0.469534 -1.99037 0
M  V30 7145 H 669.771 2.87871 -2.59247 0
M  V30 7146 H 670.185 2.27982 -4.7236 0
M  V30 7147 H 671.659 3.82148 -3.9833 0
M  V30 7148 H 672.136 3.74858 -2.28863 0
M  V30 7149 H 672.742 2.52165 -3.42481 0
M  V30 7150 N 671.057 1.43213 0.657864 0
M  V30 7151 C 672.468 1.39669 1.23893 0
M  V30 7152 C 672.819 0.0984217 1.95953 0
M  V30 7153 O 671.944 -0.8023 2.00978 0
M  V30 7154 C 672.539 2.53004 2.25332 0
M  V30 7155 C 671.098 2.5274 2.78926 0
M  V30 7156 C 670.245 2.30941 1.53497 0
M  V30 7157 H 673.196 1.52181 0.450172 0
M  V30 7158 H 673.217 2.24226 3.07413 0
M  V30 7159 H 672.729 3.4748 1.72856 0
M  V30 7160 H 670.83 1.6213 3.35477 0
M  V30 7161 H 670.943 3.50352 3.26787 0
M  V30 7162 H 669.307 1.7952 1.80678 0
M  V30 7163 H 670.09 3.27496 1.02963 0
M  V30 7164 N 672.536 -0.895792 1.29666 0
M  V30 7165 C 673.785 -1.64131 1.17234 0
M  V30 7166 C 674.098 -1.93665 -0.274416 0
M  V30 7167 O 675.304 -2.66472 -0.520105 0
M  V30 7168 C 673.76 -2.95764 2.05065 0
M  V30 7169 C 673.368 -2.7381 3.54587 0
M  V30 7170 C 675.112 -3.737 2.01367 0
M  V30 7171 C 673.019 -4.01194 4.34508 0
M  V30 7172 H 671.949 -0.615742 0.435175 0
M  V30 7173 H 674.6 -0.992626 1.54335 0
M  V30 7174 H 672.982 -3.61867 1.60837 0
M  V30 7175 H 674.156 -2.16277 4.06892 0
M  V30 7176 H 672.471 -2.09265 3.59996 0
M  V30 7177 H 675.068 -4.68152 2.58337 0
M  V30 7178 H 675.411 -4.04245 0.994575 0
M  V30 7179 H 675.944 -3.14444 2.43659 0
M  V30 7180 H 672.683 -3.75813 5.37071 0
M  V30 7181 H 672.203 -4.58272 3.86971 0
M  V30 7182 H 673.882 -4.69307 4.45376 0
M  V30 7183 N 674.014 -1.12206 -1.10668 0
M  V30 7184 C 674.961 -0.787716 -2.16942 0
M  V30 7185 C 675.931 0.244442 -1.64291 0
M  V30 7186 O 677.116 0.119558 -1.90425 0
M  V30 7187 C 674.256 -0.24584 -3.44223 0
M  V30 7188 C 673.369 -1.33552 -4.10838 0
M  V30 7189 C 672.504 -0.753337 -5.25831 0
M  V30 7190 C 671.543 -1.82231 -5.84344 0
M  V30 7191 N 670.68 -1.25902 -6.90719 0
M  V30 7192 H 675.52 -1.69809 -2.44885 0
M  V30 7193 H 673.057 -0.847862 -1.20207 0
M  V30 7194 H 675.015 0.0863639 -4.17111 0
M  V30 7195 H 673.645 0.627702 -3.16638 0
M  V30 7196 H 672.697 -1.78454 -3.35944 0
M  V30 7197 H 674.009 -2.14396 -4.50373 0
M  V30 7198 H 673.163 -0.37166 -6.05561 0
M  V30 7199 H 671.902 0.0863297 -4.87624 0
M  V30 7200 H 670.907 -2.2132 -5.03287 0
M  V30 7201 H 672.132 -2.66515 -6.24617 0
M  V30 7202 H 670.078 -0.44114 -6.54515 0
M  V30 7203 H 669.995 -2.00408 -7.28953 0
M  V30 7204 H 671.263 -0.904498 -7.74235 0
M  V30 7205 N 675.492 1.28418 -0.913599 0
M  V30 7206 C 676.44 2.29272 -0.392037 0
M  V30 7207 C 677.434 1.61344 0.516198 0
M  V30 7208 O 678.64 1.75557 0.39746 0
M  V30 7209 H 675.015 0.744178 -0.108178 0
M  V30 7210 H 676.986 2.70691 -1.25574 0
M  V30 7211 C 675.735 3.45905 0.352815 0
M  V30 7212 H 675.058 3.98378 -0.336848 0
M  V30 7213 H 676.498 4.18473 0.682398 0
M  V30 7214 C 674.957 2.98572 1.56065 0
M  V30 7215 O 675.487 3.01033 2.65974 0
M  V30 7216 N 673.693 2.54235 1.40759 0
M  V30 7217 H 673.24 2.52432 0.513403 0
M  V30 7218 H 673.198 2.22925 2.21702 0
M  V30 7219 N 676.97 0.677563 1.42291 0
M  V30 7220 C 678.218 0.200578 2.01102 0
M  V30 7221 C 678.539 -1.19803 1.53858 0
M  V30 7222 O 677.809 -1.80496 0.761439 0
M  V30 7223 H 676.389 0.0711634 0.743603 0
M  V30 7224 H 679.051 0.874691 1.7417 0
M  V30 7225 H 678.147 0.204 3.11433 0
M  V30 7226 N 678.448 -1.51871 0.421078 0
M  V30 7227 C 679.395 -2.27334 -0.398508 0
M  V30 7228 C 680.365 -1.30241 -1.03085 0
M  V30 7229 O 681.55 -1.59121 -1.05285 0
M  V30 7230 C 678.69 -3.10664 -1.50272 0
M  V30 7231 C 677.803 -4.2273 -0.890122 0
M  V30 7232 C 676.938 -4.93399 -1.96803 0
M  V30 7233 C 675.977 -5.97409 -1.333 0
M  V30 7234 N 675.114 -6.61548 -2.35156 0
M  V30 7235 H 679.954 -2.96938 0.251411 0
M  V30 7236 H 677.491 -1.46472 0.135825 0
M  V30 7237 H 679.449 -3.57292 -2.15403 0
M  V30 7238 H 678.079 -2.43207 -2.1225 0
M  V30 7239 H 677.131 -3.80186 -0.127537 0
M  V30 7240 H 678.443 -4.97302 -0.386349 0
M  V30 7241 H 677.597 -5.43491 -2.69633 0
M  V30 7242 H 676.336 -4.18421 -2.50549 0
M  V30 7243 H 675.341 -5.46624 -0.59008 0
M  V30 7244 H 676.566 -6.74335 -0.803076 0
M  V30 7245 H 674.512 -5.89394 -2.88012 0
M  V30 7246 H 674.429 -7.31832 -1.89624 0
M  V30 7247 H 675.697 -7.16276 -3.0752 0
M  V30 7248 N 679.926 -0.151884 -1.56866 0
M  V30 7249 C 680.873 0.785936 -2.17006 0
M  V30 7250 C 681.843 1.2407 -1.10435 0
M  V30 7251 O 683.028 1.31235 -1.38499 0
M  V30 7252 C 680.168 2.01771 -2.79969 0
M  V30 7253 C 679.281 1.6083 -4.00946 0
M  V30 7254 C 678.416 2.79224 -4.51893 0
M  V30 7255 C 677.455 2.3468 -5.65324 0
M  V30 7256 N 676.592 3.461 -6.10867 0
M  V30 7257 H 681.432 0.266286 -2.96808 0
M  V30 7258 H 678.969 0.11972 -1.46612 0
M  V30 7259 H 680.927 2.73989 -3.14621 0
M  V30 7260 H 679.557 2.51139 -2.02803 0
M  V30 7261 H 678.609 0.783592 -3.72242 0
M  V30 7262 H 679.921 1.24119 -4.83111 0
M  V30 7263 H 679.075 3.59625 -4.88625 0
M  V30 7264 H 677.814 3.19183 -3.68746 0
M  V30 7265 H 676.819 1.52721 -5.28163 0
M  V30 7266 H 678.044 1.95801 -6.5026 0
M  V30 7267 H 675.99 3.85671 -5.30654 0
M  V30 7268 H 675.907 3.1342 -6.87971 0
M  V30 7269 H 677.175 4.26844 -6.52246 0
M  V30 7270 N 681.404 1.57128 0.121893 0
M  V30 7271 C 682.352 2.01109 1.16868 0
M  V30 7272 C 683.346 0.907532 1.43039 0
M  V30 7273 O 684.552 1.09274 1.43036 0
M  V30 7274 H 680.927 0.640539 0.393971 0
M  V30 7275 H 682.898 2.88261 0.771224 0
M  V30 7276 C 681.647 2.42887 2.48799 0
M  V30 7277 H 680.97 3.2737 2.29498 0
M  V30 7278 H 682.41 2.77461 3.20611 0
M  V30 7279 C 680.869 1.29137 3.11168 0
M  V30 7280 O 681.399 0.605756 3.97106 0
M  V30 7281 N 679.605 1.04916 2.71 0
M  V30 7282 H 679.152 1.60848 2.01211 0
M  V30 7283 H 679.11 0.290016 3.1306 0
M  V30 7284 N 682.882 -0.391992 1.52647 0
M  V30 7285 C 683.829 -1.47866 1.77213 0
M  V30 7286 C 684.799 -1.54286 0.615223 0
M  V30 7287 O 685.984 -1.7059 0.854622 0
M  V30 7288 C 683.124 -2.85129 1.94411 0
M  V30 7289 C 682.237 -2.87883 3.22098 0
M  V30 7290 C 681.372 -4.16553 3.29631 0
M  V30 7291 C 680.411 -4.13348 4.51453 0
M  V30 7292 N 679.548 -5.33619 4.56284 0
M  V30 7293 H 684.388 -1.26219 2.6995 0
M  V30 7294 H 681.925 -0.612367 1.33748 0
M  V30 7295 H 683.883 -3.64833 2.02367 0
M  V30 7296 H 682.513 -3.05232 1.05038 0
M  V30 7297 H 681.565 -2.00567 3.23229 0
M  V30 7298 H 682.877 -2.81382 4.11856 0
M  V30 7299 H 682.031 -5.0466 3.36753 0
M  V30 7300 H 680.77 -4.25773 2.37842 0
M  V30 7301 H 679.775 -3.23629 4.44459 0
M  V30 7302 H 681 -4.05754 5.44555 0
M  V30 7303 H 678.946 -5.43474 3.67385 0
M  V30 7304 H 678.863 -5.29182 5.3991 0
M  V30 7305 H 680.131 -6.23632 4.67657 0
M  V30 7306 N 684.36 -1.4356 -0.65026 0
M  V30 7307 C 685.606 -1.45549 -1.41221 0
M  V30 7308 C 685.939 -0.0805472 -1.94033 0
M  V30 7309 O 685.214 0.899043 -1.72475 0
M  V30 7310 C 685.497 -2.50028 -2.59148 0
M  V30 7311 C 685.35 -3.96808 -2.1181 0
M  V30 7312 C 686.669 -2.51212 -3.61359 0
M  V30 7313 H 683.788 -0.529967 -0.512156 0
M  V30 7314 H 686.43 -1.75127 -0.736933 0
M  V30 7315 H 684.58 -2.24937 -3.16758 0
M  V30 7316 H 686.252 -4.32966 -1.59178 0
M  V30 7317 H 684.495 -4.09498 -1.43156 0
M  V30 7318 H 685.166 -4.6553 -2.96625 0
M  V30 7319 H 687.642 -2.73583 -3.13515 0
M  V30 7320 H 686.518 -3.26252 -4.41419 0
M  V30 7321 H 686.779 -1.54701 -4.1415 0
M  V30 7322 N 685.838 0.888903 -1.30139 0
M  V30 7323 C 687.087 1.63507 -1.18103 0
M  V30 7324 C 687.4 1.93808 0.264141 0
M  V30 7325 O 688.606 2.66744 0.505966 0
M  V30 7326 C 687.062 2.94673 -2.0663 0
M  V30 7327 C 686.67 2.71926 -3.56034 0
M  V30 7328 C 688.414 3.72626 -2.03346 0
M  V30 7329 C 686.321 3.98884 -4.3663 0
M  V30 7330 H 685.251 0.613426 -0.438435 0
M  V30 7331 H 687.902 0.984427 -1.54859 0
M  V30 7332 H 686.284 3.61009 -1.62754 0
M  V30 7333 H 687.458 2.14116 -4.08033 0
M  V30 7334 H 685.773 2.07353 -3.61101 0
M  V30 7335 H 688.37 4.66775 -2.60816 0
M  V30 7336 H 688.713 4.03712 -1.016 0
M  V30 7337 H 689.246 3.13147 -2.45324 0
M  V30 7338 H 685.985 3.72959 -5.39056 0
M  V30 7339 H 685.505 4.56214 -3.89396 0
M  V30 7340 H 687.184 4.66938 -4.47859 0
M  V30 7341 N 687.317 1.12792 1.10072 0
M  V30 7342 C 688.565 0.883796 1.81751 0
M  V30 7343 C 688.886 -0.591891 1.858 0
M  V30 7344 O 688.156 -1.43017 1.33876 0
M  V30 7345 H 686.736 0.323978 0.673088 0
M  V30 7346 H 689.398 1.42314 1.33164 0
M  V30 7347 H 688.494 1.26863 2.85153 0
M  V30 7348 N 688.795 -1.27931 0.920396 0
M  V30 7349 C 690.041 -1.94977 0.557832 0
M  V30 7350 C 690.374 -1.72224 -0.897365 0
M  V30 7351 O 689.649 -1.04705 -1.63912 0
M  V30 7352 C 689.932 -3.49289 0.875741 0
M  V30 7353 C 689.785 -3.81416 2.38416 0
M  V30 7354 C 691.104 -4.38486 0.376517 0
M  V30 7355 H 688.223 -0.708164 0.20414 0
M  V30 7356 H 690.865 -1.5118 1.15085 0
M  V30 7357 H 689.015 -3.86724 0.371062 0
M  V30 7358 H 690.687 -3.53813 2.95997 0
M  V30 7359 H 688.93 -3.28225 2.83639 0
M  V30 7360 H 689.601 -4.89198 2.55713 0
M  V30 7361 H 692.077 -4.08161 0.808945 0
M  V30 7362 H 690.953 -5.45296 0.627976 0
M  V30 7363 H 691.214 -4.36143 -0.723293 0
M  V30 7364 N 690.273 -0.685099 -1.4193 0
M  V30 7365 C 691.513 -0.215676 -2.03259 0
M  V30 7366 C 691.877 1.15934 -1.53047 0
M  V30 7367 O 693.078 1.72401 -2.06231 0
M  V30 7368 C 691.349 -0.259649 -3.56456 0
M  V30 7369 S 692.908 0.137262 -4.38585 0
M  V30 7370 H 689.726 -0.0877362 -0.705566 0
M  V30 7371 H 692.328 -0.900547 -1.73523 0
M  V30 7372 H 691.032 -1.26256 -3.90497 0
M  V30 7373 H 690.563 0.444716 -3.90878 0
M  V30 7374 H 692.578 1.36787 -4.76973 0
M  V30 7375 N 691.751 1.51645 -0.429126 0
M  V30 7376 C 692.683 2.25279 0.422124 0
M  V30 7377 C 693.696 1.28986 0.993299 0
M  V30 7378 O 694.885 1.54797 0.888836 0
M  V30 7379 C 691.985 2.98666 1.60162 0
M  V30 7380 C 691.158 4.2199 1.15078 0
M  V30 7381 C 690.217 4.78028 2.19946 0
M  V30 7382 O 689.243 5.40084 1.79716 0
M  V30 7383 N 690.445 4.61342 3.5234 0
M  V30 7384 H 693.21 2.98971 -0.208931 0
M  V30 7385 H 690.771 1.59838 -0.257568 0
M  V30 7386 H 692.763 3.33044 2.29922 0
M  V30 7387 H 691.333 2.28036 2.13818 0
M  V30 7388 H 690.553 3.932 0.280552 0
M  V30 7389 H 691.841 5.02037 0.826831 0
M  V30 7390 H 691.239 4.11894 3.87763 0
M  V30 7391 H 689.796 5.00104 4.18019 0
M  V30 7392 N 693.229 0.160201 1.56784 0
M  V30 7393 C 694.159 -0.770264 2.2043 0
M  V30 7394 C 695.14 -1.24736 1.15651 0
M  V30 7395 O 696.325 -1.30253 1.44041 0
M  V30 7396 C 693.455 -2.00427 2.83631 0
M  V30 7397 C 692.409 -1.66345 3.94352 0
M  V30 7398 C 691.735 -2.97119 4.4455 0
M  V30 7399 C 693.035 -0.899972 5.14488 0
M  V30 7400 H 694.729 -0.239783 2.98438 0
M  V30 7401 H 692.275 -0.113891 1.43549 0
M  V30 7402 H 694.228 -2.66012 3.26827 0
M  V30 7403 H 692.952 -2.5587 2.02973 0
M  V30 7404 H 691.611 -1.03133 3.51794 0
M  V30 7405 H 691.259 -3.5058 3.60698 0
M  V30 7406 H 690.959 -2.75073 5.19238 0
M  V30 7407 H 692.483 -3.63753 4.90425 0
M  V30 7408 H 693.897 -1.45818 5.54446 0
M  V30 7409 H 692.294 -0.778968 5.95023 0
M  V30 7410 H 693.364 0.105827 4.84785 0
M  V30 7411 N 694.707 -1.5719 -0.113559 0
M  V30 7412 C 695.953 -1.85412 -0.821597 0
M  V30 7413 C 696.286 -0.746722 -1.7927 0
M  V30 7414 O 695.561 0.246971 -1.92926 0
M  V30 7415 C 695.844 -3.24233 -1.56669 0
M  V30 7416 C 695.697 -4.45578 -0.614823 0
M  V30 7417 C 697.016 -3.60697 -2.52161 0
M  V30 7418 H 694.135 -0.674406 -0.29723 0
M  V30 7419 H 696.777 -1.89807 -0.085694 0
M  V30 7420 H 694.927 -3.20617 -2.19401 0
M  V30 7421 H 696.599 -4.613 0.00407137 0
M  V30 7422 H 694.842 -4.33738 0.0732332 0
M  V30 7423 H 695.513 -5.39395 -1.17292 0
M  V30 7424 H 697.989 -3.65139 -1.99532 0
M  V30 7425 H 696.865 -4.58798 -3.01323 0
M  V30 7426 H 697.126 -2.88403 -3.35076 0
M  V30 7427 N 696.185 0.383891 -1.52853 0
M  V30 7428 C 697.133 1.48965 -1.7864 0
M  V30 7429 C 698.127 1.56242 -0.654577 0
M  V30 7430 O 699.333 1.59347 -0.83716 0
M  V30 7431 H 695.708 0.495892 -0.565328 0
M  V30 7432 H 697.679 1.24411 -2.71228 0
M  V30 7433 C 696.428 2.86036 -1.97683 0
M  V30 7434 H 695.751 2.81188 -2.84206 0
M  V30 7435 H 697.191 3.62632 -2.19713 0
M  V30 7436 C 695.65 3.28428 -0.750776 0
M  V30 7437 O 696.18 4.0164 0.0693491 0
M  V30 7438 N 694.386 2.84765 -0.579427 0
M  V30 7439 H 693.933 2.25353 -1.24795 0
M  V30 7440 H 693.891 3.13486 0.239544 0
M  V30 7441 N 697.663 1.43903 0.642637 0
M  V30 7442 C 698.61 1.49881 1.75512 0
M  V30 7443 C 699.58 0.347538 1.62423 0
M  V30 7444 O 700.765 0.556177 1.82514 0
M  V30 7445 C 697.905 1.43797 3.13714 0
M  V30 7446 C 697.018 2.6921 3.37861 0
M  V30 7447 C 696.153 2.5504 4.6597 0
M  V30 7448 C 695.192 3.75671 4.83257 0
M  V30 7449 N 694.329 3.60247 6.02633 0
M  V30 7450 H 699.169 2.44935 1.69737 0
M  V30 7451 H 696.706 1.21572 0.828165 0
M  V30 7452 H 698.664 1.38262 3.93624 0
M  V30 7453 H 697.294 0.523173 3.18532 0
M  V30 7454 H 696.346 2.8498 2.51973 0
M  V30 7455 H 697.658 3.58786 3.46517 0
M  V30 7456 H 696.812 2.47273 5.54023 0
M  V30 7457 H 695.551 1.63006 4.59653 0
M  V30 7458 H 694.556 3.83836 3.93637 0
M  V30 7459 H 695.781 4.68728 4.91397 0
M  V30 7460 H 693.727 2.70955 5.97427 0
M  V30 7461 H 693.644 4.43431 6.12295 0
M  V30 7462 H 694.912 3.56351 6.93278 0
M  V30 7463 N 699.141 -0.881989 1.30609 0
M  V30 7464 C 700.074 -1.99066 1.11571 0
M  V30 7465 C 701.052 -1.62584 0.022516 0
M  V30 7466 O 702.236 -1.87671 0.176644 0
M  V30 7467 C 699.363 -3.3134 0.702237 0
M  V30 7468 C 698.409 -3.86807 1.79673 0
M  V30 7469 S 699.242 -4.13735 3.39976 0
M  V30 7470 C 700.398 -5.49024 3.00538 0
M  V30 7471 H 700.631 -2.1491 2.05429 0
M  V30 7472 H 698.164 -1.03074 1.14957 0
M  V30 7473 H 700.122 -4.07796 0.470415 0
M  V30 7474 H 698.783 -3.13349 -0.217034 0
M  V30 7475 H 697.976 -4.82397 1.45977 0
M  V30 7476 H 697.578 -3.17102 1.98298 0
M  V30 7477 H 699.87 -6.30208 2.48684 0
M  V30 7478 H 700.813 -5.8766 3.95046 0
M  V30 7479 H 701.221 -5.11726 2.3832 0
M  V30 7480 N 700.619 -1.13374 -1.09472 0
M  V30 7481 C 701.529 -0.824029 -2.19652 0
M  V30 7482 C 702.545 0.19118 -1.72947 0
M  V30 7483 O 703.721 0.0223464 -2.01388 0
M  V30 7484 C 700.786 -0.294009 -3.45451 0
M  V30 7485 C 699.847 -1.3704 -4.0684 0
M  V30 7486 C 699.08 -0.86558 -5.26634 0
M  V30 7487 O 699.303 0.29702 -5.69626 0
M  V30 7488 O 698.237 -1.63968 -5.79136 0
M  V30 7489 H 702.063 -1.74454 -2.48595 0
M  V30 7490 H 699.648 -0.911155 -1.18399 0
M  V30 7491 H 701.53 -0.00381039 -4.214 0
M  V30 7492 H 700.205 0.598921 -3.18111 0
M  V30 7493 H 699.112 -1.71391 -3.3253 0
M  V30 7494 H 700.445 -2.23746 -4.38405 0
M  V30 7495 N 702.098 1.27442 -0.927168 0
M  V30 7496 C 703.008 2.30599 -0.431448 0
M  V30 7497 C 704.024 1.67028 0.48761 0
M  V30 7498 O 705.2 1.97962 0.370546 0
M  V30 7499 C 702.265 3.45327 0.308292 0
M  V30 7500 C 701.326 4.24418 -0.645615 0
M  V30 7501 C 700.559 5.33667 0.0589164 0
M  V30 7502 O 700.782 5.5589 1.27838 0
M  V30 7503 O 699.716 5.98774 -0.612638 0
M  V30 7504 H 703.542 2.75036 -1.28797 0
M  V30 7505 H 701.127 1.32382 -0.692495 0
M  V30 7506 H 703.009 4.15107 0.725555 0
M  V30 7507 H 701.684 3.02945 1.14043 0
M  V30 7508 H 700.591 3.57174 -1.11255 0
M  V30 7509 H 701.924 4.70512 -1.44496 0
M  V30 7510 N 703.576 0.692616 1.41565 0
M  V30 7511 C 704.524 0.0139952 2.32596 0
M  V30 7512 C 705.518 -0.771691 1.50802 0
M  V30 7513 O 706.724 -0.677646 1.66757 0
M  V30 7514 H 703.099 -0.0142745 0.751865 0
M  V30 7515 H 705.07 0.798851 2.87508 0
M  V30 7516 C 703.819 -0.910602 3.35564 0
M  V30 7517 H 703.142 -0.315446 3.98554 0
M  V30 7518 H 704.582 -1.3538 4.01806 0
M  V30 7519 C 703.041 -2.02539 2.6922 0
M  V30 7520 O 703.571 -3.11386 2.53775 0
M  V30 7521 N 701.777 -1.80227 2.27962 0
M  V30 7522 H 701.324 -0.917054 2.40724 0
M  V30 7523 H 701.282 -2.55001 1.83907 0
M  V30 7524 N 705.054 -1.51416 0.437162 0
M  V30 7525 C 706.282 -2.06503 -0.128045 0
M  V30 7526 C 706.697 -1.30461 -1.36475 0
M  V30 7527 O 706.054 -0.364127 -1.78831 0
M  V30 7528 C 706.105 -3.58683 -0.450437 0
M  V30 7529 O 705.826 -4.31853 0.737186 0
M  V30 7530 C 707.327 -4.30284 -1.06633 0
M  V30 7531 H 704.547 -0.670952 -0.00800269 0
M  V30 7532 H 707.091 -1.94996 0.616193 0
M  V30 7533 H 705.246 -3.70106 -1.14457 0
M  V30 7534 H 705.66 -5.22467 0.461347 0
M  V30 7535 H 707.134 -5.37848 -1.24191 0
M  V30 7536 H 707.611 -3.88564 -2.0473 0
M  V30 7537 H 708.217 -4.23304 -0.411585 0
M  V30 7538 N 706.532 -0.168513 -1.56696 0
M  V30 7539 C 707.78 0.476216 -1.96409 0
M  V30 7540 C 708.101 1.63968 -1.05544 0
M  V30 7541 O 707.371 1.95525 -0.121235 0
M  V30 7542 H 705.951 0.178921 -0.725256 0
M  V30 7543 H 708.613 -0.249042 -1.93302 0
M  V30 7544 H 707.709 0.838094 -3.00637 0
M  V30 7545 N 708.01 1.57248 0.105221 0
M  V30 7546 C 708.957 2.01338 1.12835 0
M  V30 7547 C 709.927 0.887897 1.40377 0
M  V30 7548 O 711.112 1.15315 1.5201 0
M  V30 7549 C 708.252 2.43432 2.44611 0
M  V30 7550 C 707.365 3.69457 2.23888 0
M  V30 7551 C 706.5 4.00473 3.48991 0
M  V30 7552 C 705.539 5.19638 3.23485 0
M  V30 7553 N 704.676 5.46457 4.40828 0
M  V30 7554 H 709.516 2.88527 0.745386 0
M  V30 7555 H 707.053 1.42714 0.356535 0
M  V30 7556 H 709.011 2.65879 3.21503 0
M  V30 7557 H 707.641 1.59266 2.80774 0
M  V30 7558 H 706.693 3.54545 1.37847 0
M  V30 7559 H 708.005 4.56497 2.01026 0
M  V30 7560 H 707.159 4.23642 4.34295 0
M  V30 7561 H 705.898 3.11935 3.74897 0
M  V30 7562 H 704.903 4.96299 2.36574 0
M  V30 7563 H 706.128 6.09766 2.98935 0
M  V30 7564 H 704.074 4.60876 4.66829 0
M  V30 7565 H 703.991 6.27849 4.2112 0
M  V30 7566 H 705.259 5.74155 5.27225 0
M  V30 7567 N 709.488 -0.375779 1.53054 0
M  V30 7568 C 710.734 -1.12114 1.68992 0
M  V30 7569 C 711.067 -1.8926 0.435238 0
M  V30 7570 O 710.342 -1.86044 -0.567278 0
M  V30 7571 C 710.625 -2.08867 2.93337 0
M  V30 7572 C 710.478 -1.35397 4.28938 0
M  V30 7573 C 711.797 -3.09124 3.13257 0
M  V30 7574 H 708.916 -0.406207 0.614951 0
M  V30 7575 H 711.558 -0.403054 1.85676 0
M  V30 7576 H 709.708 -2.70102 2.79244 0
M  V30 7577 H 711.38 -0.770242 4.54824 0
M  V30 7578 H 709.623 -0.655801 4.28814 0
M  V30 7579 H 710.294 -2.06161 5.12056 0
M  V30 7580 H 712.77 -2.57987 3.26469 0
M  V30 7581 H 711.646 -3.74054 4.01715 0
M  V30 7582 H 711.907 -3.78729 2.28072 0
M  V30 7583 N 710.966 -1.44241 -0.634997 0
M  V30 7584 C 711.913 -1.5081 -1.74714 0
M  V30 7585 C 712.883 -0.356147 -1.62237 0
M  V30 7586 O 714.068 -0.565848 -1.82216 0
M  V30 7587 C 711.208 -1.45458 -3.12947 0
M  V30 7588 C 710.321 -2.70998 -3.36428 0
M  V30 7589 C 709.456 -2.57507 -4.64611 0
M  V30 7590 C 708.495 -3.78229 -4.81258 0
M  V30 7591 N 707.632 -3.63438 -6.00714 0
M  V30 7592 H 712.472 -2.45832 -1.68436 0
M  V30 7593 H 710.009 -1.2201 -0.821706 0
M  V30 7594 H 711.967 -1.40347 -3.92885 0
M  V30 7595 H 710.597 -0.540058 -3.1825 0
M  V30 7596 H 709.649 -2.86312 -2.50458 0
M  V30 7597 H 710.961 -3.60619 -3.44609 0
M  V30 7598 H 710.115 -2.50207 -5.52703 0
M  V30 7599 H 708.854 -1.65441 -4.58782 0
M  V30 7600 H 707.859 -3.85918 -3.91596 0
M  V30 7601 H 709.084 -4.71327 -4.88904 0
M  V30 7602 H 707.03 -2.7412 -5.95982 0
M  V30 7603 H 706.947 -4.46672 -6.09934 0
M  V30 7604 H 708.215 -3.60022 -6.91378 0
M  V30 7605 N 712.444 0.87505 -1.31075 0
M  V30 7606 C 713.855 1.4433 -1.18431 0
M  V30 7607 C 714.206 1.9506 0.211189 0
M  V30 7608 O 713.331 1.85847 1.10859 0
M  V30 7609 C 713.926 2.62341 -2.14389 0
M  V30 7610 C 712.485 3.15225 -2.05694 0
M  V30 7611 C 711.632 1.87929 -2.03907 0
M  V30 7612 H 714.583 0.684061 -1.432 0
M  V30 7613 H 714.604 3.3887 -1.73053 0
M  V30 7614 H 714.116 2.25388 -3.15946 0
M  V30 7615 H 712.217 3.56812 -1.07314 0
M  V30 7616 H 712.33 3.77853 -2.94558 0
M  V30 7617 H 710.694 2.06679 -1.48849 0
M  V30 7618 H 711.477 1.53221 -3.07211 0
M  V30 7619 N 713.922 1.13953 1.08869 0
M  V30 7620 C 715.169 0.90481 1.81161 0
M  V30 7621 C 715.497 -0.568824 1.85996 0
M  V30 7622 O 714.752 -1.43723 1.32823 0
M  V30 7623 C 715.051 1.44495 3.26888 0
M  V30 7624 C 714.717 2.93641 3.42178 0
M  V30 7625 C 713.379 3.34361 3.46059 0
M  V30 7626 C 715.731 3.89568 3.46246 0
M  V30 7627 C 713.059 4.69681 3.51592 0
M  V30 7628 C 715.411 5.2474 3.53314 0
M  V30 7629 C 714.075 5.64979 3.55465 0
M  V30 7630 H 713.345 0.331094 0.662916 0
M  V30 7631 H 715.992 1.42242 1.28217 0
M  V30 7632 H 714.297 0.848169 3.82509 0
M  V30 7633 H 715.994 1.23934 3.81368 0
M  V30 7634 H 712.584 2.61156 3.39846 0
M  V30 7635 H 716.768 3.59192 3.42483 0
M  V30 7636 H 712.024 5.00224 3.51547 0
M  V30 7637 H 716.198 5.98882 3.55406 0
M  V30 7638 H 713.825 6.69821 3.59505 0
M  V30 7639 N 715.4 -1.26948 0.933913 0
M  V30 7640 C 716.348 -2.2862 0.428463 0
M  V30 7641 C 717.342 -1.62144 -0.490464 0
M  V30 7642 O 718.548 -1.76167 -0.36948 0
M  V30 7643 H 714.923 -0.742363 0.120003 0
M  V30 7644 H 716.894 -2.68659 1.29865 0
M  V30 7645 C 715.643 -3.46423 -0.29774 0
M  V30 7646 H 714.966 -3.97792 0.400183 0
M  V30 7647 H 716.406 -4.19505 -0.615736 0
M  V30 7648 C 714.865 -3.01017 -1.51295 0
M  V30 7649 O 715.395 -3.05226 -2.61151 0
M  V30 7650 N 713.601 -2.56442 -1.36696 0
M  V30 7651 H 713.148 -2.53217 -0.473178 0
M  V30 7652 H 713.106 -2.26424 -2.18127 0
M  V30 7653 N 716.879 -0.700114 -1.41195 0
M  V30 7654 C 718.295 -0.372114 -1.55201 0
M  V30 7655 C 718.495 1.12053 -1.6747 0
M  V30 7656 O 717.551 1.90642 -1.65566 0
M  V30 7657 C 718.864 -1.12462 -2.78878 0
M  V30 7658 C 720.412 -1.10941 -2.92679 0
M  V30 7659 C 720.887 -1.84376 -4.19249 0
M  V30 7660 N 722.378 -1.81368 -4.26216 0
M  V30 7661 C 723.113 -2.35024 -5.23021 0
M  V30 7662 N 722.609 -2.9717 -6.25829 0
M  V30 7663 N 724.402 -2.25254 -5.14992 0
M  V30 7664 H 716.553 -1.66816 -1.31477 0
M  V30 7665 H 718.816 -0.704223 -0.634644 0
M  V30 7666 H 718.522 -2.17937 -2.76037 0
M  V30 7667 H 718.396 -0.706152 -3.70531 0
M  V30 7668 H 720.783 -0.062911 -2.95033 0
M  V30 7669 H 720.864 -1.56698 -2.02187 0
M  V30 7670 H 720.508 -2.89008 -4.17656 0
M  V30 7671 H 720.438 -1.3605 -5.08722 0
M  V30 7672 H 722.929 -1.36062 -3.52556 0
M  V30 7673 H 723.242 -3.35668 -6.96094 0
M  V30 7674 H 721.587 -3.01249 -6.26318 0
M  V30 7675 H 724.778 -1.76372 -4.33602 0
M  V30 7676 H 724.951 -2.67373 -5.90268 0
M  V30 7677 N 718.357 1.51182 -0.445186 0
M  V30 7678 C 719.305 2.29531 0.376597 0
M  V30 7679 C 720.299 1.35711 1.01385 0
M  V30 7680 O 721.505 1.53018 0.947922 0
M  V30 7681 H 717.88 0.738803 0.140267 0
M  V30 7682 H 719.851 2.96838 -0.304958 0
M  V30 7683 C 718.6 3.1552 1.4609 0
M  V30 7684 H 717.923 3.87605 0.979912 0
M  V30 7685 H 719.363 3.73384 2.009 0
M  V30 7686 C 717.822 2.31406 2.44852 0
M  V30 7687 O 718.352 1.97912 3.49562 0
M  V30 7688 N 716.558 1.94478 2.15932 0
M  V30 7689 H 716.105 2.21917 1.30808 0
M  V30 7690 H 716.063 1.38498 2.82251 0
M  V30 7691 N 719.835 0.176821 1.56605 0
M  V30 7692 C 721.112 -0.513365 1.88743 0
M  V30 7693 C 721.492 -1.80929 1.08757 0
M  V30 7694 O 720.84 -2.27765 0.183127 0
M  V30 7695 C 721.05 -0.749925 3.40848 0
M  V30 7696 C 722.398 -1.07747 4.10701 0
M  V30 7697 O 723.422 -0.838277 3.46196 0
M  V30 7698 O 722.281 -1.52901 5.24675 0
M  V30 7699 H 719.375 -0.265296 0.783292 0
M  V30 7700 H 721.921 0.215669 1.68324 0
M  V30 7701 H 720.693 0.16599 3.90948 0
M  V30 7702 H 720.316 -1.53208 3.66897 0
M  V30 7703 N 721.313 -1.57302 -0.09688 0
M  V30 7704 C 722.223 -2.05258 -1.13606 0
M  V30 7705 C 723.239 -0.977137 -1.43972 0
M  V30 7706 O 724.415 -1.29018 -1.54649 0
M  V30 7707 C 721.48 -2.46593 -2.43706 0
M  V30 7708 C 720.541 -3.68322 -2.20538 0
M  V30 7709 C 719.774 -4.07676 -3.44435 0
M  V30 7710 O 719.997 -3.47141 -4.52603 0
M  V30 7711 O 718.931 -5.00641 -3.34129 0
M  V30 7712 H 722.757 -2.94069 -0.758752 0
M  V30 7713 H 720.342 -1.46164 -0.309263 0
M  V30 7714 H 722.224 -2.73814 -3.20318 0
M  V30 7715 H 720.899 -1.6092 -2.80867 0
M  V30 7716 H 719.806 -3.4622 -1.41713 0
M  V30 7717 H 721.139 -4.54769 -1.88271 0
M  V30 7718 N 722.791 0.367657 -1.53252 0
M  V30 7719 C 723.723 1.47032 -1.75824 0
M  V30 7720 C 724.736 1.49736 -0.63898 0
M  V30 7721 O 725.925 1.53253 -0.915193 0
M  V30 7722 C 723.025 2.85805 -1.82122 0
M  V30 7723 C 722.198 3.06822 -3.11736 0
M  V30 7724 C 721.257 4.25698 -3.09302 0
M  V30 7725 O 720.283 4.20972 -3.83107 0
M  V30 7726 N 721.485 5.33002 -2.29977 0
M  V30 7727 H 724.25 1.28048 -2.70968 0
M  V30 7728 H 721.811 0.557363 -1.52004 0
M  V30 7729 H 723.803 3.63465 -1.77975 0
M  V30 7730 H 722.373 2.98046 -0.942716 0
M  V30 7731 H 721.593 2.1684 -3.29202 0
M  V30 7732 H 722.881 3.17731 -3.97397 0
M  V30 7733 H 722.279 5.39703 -1.69521 0
M  V30 7734 H 720.836 6.09247 -2.3165 0
M  V30 7735 N 724.269 1.44576 0.627338 0
M  V30 7736 C 725.516 1.47558 1.38682 0
M  V30 7737 C 725.844 0.109636 1.94191 0
M  V30 7738 O 725.099 -0.889092 1.74338 0
M  V30 7739 C 725.398 2.48644 2.56731 0
M  V30 7740 C 725.064 3.93873 2.19489 0
M  V30 7741 C 723.726 4.33421 2.09045 0
M  V30 7742 C 726.078 4.85286 1.90124 0
M  V30 7743 C 723.406 5.62303 1.6743 0
M  V30 7744 C 725.758 6.14559 1.50001 0
M  V30 7745 C 724.422 6.53058 1.38101 0
M  V30 7746 H 723.692 0.539955 0.507474 0
M  V30 7747 H 726.339 1.77811 0.711021 0
M  V30 7748 H 724.644 2.11889 3.29561 0
M  V30 7749 H 726.341 2.48197 3.14959 0
M  V30 7750 H 722.931 3.62587 2.28537 0
M  V30 7751 H 727.115 4.55483 1.971 0
M  V30 7752 H 722.371 5.90945 1.56823 0
M  V30 7753 H 726.545 6.84848 1.26319 0
M  V30 7754 H 724.172 7.52826 1.05628 0
M  V30 7755 N 725.747 -0.868086 1.31537 0
M  V30 7756 C 726.677 -1.99131 1.21939 0
M  V30 7757 C 727.658 -1.69768 0.106166 0
M  V30 7758 O 728.843 -1.92006 0.291081 0
M  V30 7759 C 725.973 -3.34676 0.927879 0
M  V30 7760 C 724.927 -3.7835 2.00088 0
M  V30 7761 C 724.253 -5.11375 1.56203 0
M  V30 7762 C 725.553 -3.95256 3.41424 0
M  V30 7763 H 727.247 -2.07419 2.15911 0
M  V30 7764 H 724.793 -0.996569 1.03945 0
M  V30 7765 H 726.746 -4.12793 0.847327 0
M  V30 7766 H 725.47 -3.26565 -0.0475042 0
M  V30 7767 H 724.129 -3.02474 2.07135 0
M  V30 7768 H 723.777 -4.99709 0.57445 0
M  V30 7769 H 723.477 -5.41568 2.27985 0
M  V30 7770 H 725.001 -5.92001 1.49558 0
M  V30 7771 H 726.415 -4.63764 3.3704 0
M  V30 7772 H 724.812 -4.36849 4.1144 0
M  V30 7773 H 725.882 -2.98579 3.82072 0
M  V30 7774 N 727.225 -1.14528 -1.08264 0
M  V30 7775 C 728.135 -0.84728 -2.18765 0
M  V30 7776 C 729.151 0.172826 -1.7314 0
M  V30 7777 O 730.327 0.000985336 -2.014 0
M  V30 7778 C 727.392 -0.330633 -3.4512 0
M  V30 7779 C 726.453 -1.41348 -4.05363 0
M  V30 7780 C 725.686 -0.921387 -5.25686 0
M  V30 7781 O 725.909 0.236587 -5.69909 0
M  V30 7782 O 724.843 -1.70101 -5.77364 0
M  V30 7783 H 728.669 -1.7708 -2.46731 0
M  V30 7784 H 726.254 -0.923661 -1.17426 0
M  V30 7785 H 728.136 -0.0485053 -4.21372 0
M  V30 7786 H 726.811 0.565147 -3.18728 0
M  V30 7787 H 725.718 -1.74908 -3.30693 0
M  V30 7788 H 727.051 -2.28383 -4.36007 0
M  V30 7789 N 728.703 1.26451 -0.940633 0
M  V30 7790 C 729.666 2.24651 -0.454378 0
M  V30 7791 C 730.666 1.54826 0.434222 0
M  V30 7792 O 731.856 1.72628 0.233477 0
M  V30 7793 C 728.988 3.39148 0.345192 0
M  V30 7794 H 730.181 2.69182 -1.32217 0
M  V30 7795 H 727.734 1.38596 -0.722547 0
M  V30 7796 H 728.469 3.00018 1.23125 0
M  V30 7797 H 728.254 3.9101 -0.292107 0
M  V30 7798 H 729.744 4.12103 0.675341 0
M  V30 7799 N 730.181 0.707592 1.40822 0
M  V30 7800 C 731.428 0.243671 2.01029 0
M  V30 7801 C 731.756 -1.16057 1.5608 0
M  V30 7802 O 731.011 -1.7999 0.768251 0
M  V30 7803 C 731.31 0.262892 3.56432 0
M  V30 7804 C 730.976 1.61632 4.20935 0
M  V30 7805 C 729.638 1.98682 4.38268 0
M  V30 7806 C 731.99 2.50619 4.5699 0
M  V30 7807 C 729.318 3.2428 4.88937 0
M  V30 7808 C 731.67 3.75562 5.09054 0
M  V30 7809 C 730.334 4.12739 5.24598 0
M  V30 7810 H 729.604 0.0891654 0.735616 0
M  V30 7811 H 732.251 0.909051 1.68548 0
M  V30 7812 H 730.556 -0.486052 3.88773 0
M  V30 7813 H 732.253 -0.113775 4.00839 0
M  V30 7814 H 728.843 1.31818 4.07826 0
M  V30 7815 H 733.027 2.23272 4.43242 0
M  V30 7816 H 728.283 3.53064 4.99155 0
M  V30 7817 H 732.457 4.44692 5.35931 0
M  V30 7818 H 730.084 5.10132 5.63622 0
M  V30 7819 N 731.66 -1.50943 0.453197 0
M  V30 7820 C 732.906 -2.02512 -0.108082 0
M  V30 7821 C 733.239 -1.33574 -1.40967 0
M  V30 7822 O 732.514 -0.455671 -1.89087 0
M  V30 7823 C 732.797 -3.58759 -0.310453 0
M  V30 7824 C 732.65 -4.38293 1.0109 0
M  V30 7825 C 733.969 -4.26816 -1.07313 0
M  V30 7826 H 731.088 -0.73603 -0.0378064 0
M  V30 7827 H 733.73 -1.80433 0.595295 0
M  V30 7828 H 731.88 -3.77702 -0.909582 0
M  V30 7829 H 733.552 -4.30964 1.64523 0
M  V30 7830 H 731.795 -4.02745 1.61179 0
M  V30 7831 H 732.466 -5.45828 0.82315 0
M  V30 7832 H 734.942 -4.1224 -0.565473 0
M  V30 7833 H 733.818 -5.35989 -1.1835 0
M  V30 7834 H 734.079 -3.88757 -2.10525 0
M  V30 7835 N 733.138 -0.185124 -1.56509 0
M  V30 7836 C 734.387 0.456421 -1.96468 0
M  V30 7837 C 734.7 1.63448 -1.07444 0
M  V30 7838 O 735.906 2.34316 -1.37143 0
M  V30 7839 C 734.362 0.863404 -3.4939 0
M  V30 7840 C 733.97 -0.289815 -4.47062 0
M  V30 7841 C 735.714 1.47259 -3.98139 0
M  V30 7842 C 733.621 0.137571 -5.9124 0
M  V30 7843 H 732.551 0.17429 -0.733579 0
M  V30 7844 H 735.202 -0.275554 -1.81419 0
M  V30 7845 H 733.584 1.65176 -3.59907 0
M  V30 7846 H 734.758 -1.06728 -4.4827 0
M  V30 7847 H 733.073 -0.809851 -4.08449 0
M  V30 7848 H 735.67 1.80463 -5.03326 0
M  V30 7849 H 736.013 2.3755 -3.41871 0
M  V30 7850 H 736.546 0.748405 -3.90696 0
M  V30 7851 H 733.285 -0.730907 -6.51412 0
M  V30 7852 H 732.805 0.8801 -5.93308 0
M  V30 7853 H 734.484 0.576771 -6.44424 0
M  V30 7854 N 734.616 1.57351 0.0885366 0
M  V30 7855 C 735.863 1.86419 0.790824 0
M  V30 7856 C 736.191 0.774561 1.78412 0
M  V30 7857 O 735.446 -0.23119 1.9433 0
M  V30 7858 C 735.745 3.22098 1.5488 0
M  V30 7859 C 735.411 4.4548 0.697025 0
M  V30 7860 C 734.073 4.78975 0.462237 0
M  V30 7861 C 736.425 5.21094 0.105315 0
M  V30 7862 C 733.753 5.85507 -0.374016 0
M  V30 7863 C 736.105 6.28509 -0.718298 0
M  V30 7864 C 734.769 6.60515 -0.963116 0
M  V30 7865 H 734.039 0.682157 0.289383 0
M  V30 7866 H 736.686 1.91429 0.0520961 0
M  V30 7867 H 734.991 3.12803 2.35927 0
M  V30 7868 H 736.688 3.41819 2.09669 0
M  V30 7869 H 733.278 4.19255 0.890137 0
M  V30 7870 H 737.462 4.95544 0.273856 0
M  V30 7871 H 732.718 6.08713 -0.572606 0
M  V30 7872 H 736.892 6.86268 -1.18362 0
M  V30 7873 H 734.519 7.42893 -1.6129 0
M  V30 7874 N 736.094 -0.359525 1.53444 0
M  V30 7875 C 737.334 -1.11014 1.71625 0
M  V30 7876 C 737.698 -1.86376 0.46132 0
M  V30 7877 O 738.899 -2.63724 0.519908 0
M  V30 7878 C 737.17 -2.03907 2.93524 0
M  V30 7879 S 738.729 -2.86408 3.3244 0
M  V30 7880 H 735.547 -0.375352 0.603847 0
M  V30 7881 H 738.149 -0.390604 1.91558 0
M  V30 7882 H 736.853 -1.47316 3.83048 0
M  V30 7883 H 736.384 -2.80324 2.76011 0
M  V30 7884 H 738.399 -4.06241 2.84926 0
M  V30 7885 N 737.572 -1.44907 -0.619662 0
M  V30 7886 C 738.82 -1.47999 -1.37625 0
M  V30 7887 C 739.141 -0.118295 -1.94641 0
M  V30 7888 O 738.411 0.85086 -1.76457 0
M  V30 7889 H 736.991 -0.544993 -0.510873 0
M  V30 7890 H 739.653 -1.80772 -0.728522 0
M  V30 7891 H 738.749 -2.21196 -2.20179 0
M  V30 7892 N 739.05 0.861098 -1.31996 0
M  V30 7893 C 739.98 1.98482 -1.22993 0
M  V30 7894 C 740.961 1.6971 -0.115168 0
M  V30 7895 O 742.146 1.91849 -0.30126 0
M  V30 7896 C 739.276 3.34179 -0.945615 0
M  V30 7897 C 738.23 3.77284 -2.02091 0
M  V30 7898 C 737.556 5.1054 -1.58912 0
M  V30 7899 C 738.856 3.93439 -3.43515 0
M  V30 7900 H 740.55 2.06271 -2.17008 0
M  V30 7901 H 738.096 0.991043 -1.04472 0
M  V30 7902 H 740.049 4.12338 -0.869206 0
M  V30 7903 H 738.773 3.26586 0.0301849 0
M  V30 7904 H 737.432 3.01371 -2.08737 0
M  V30 7905 H 737.08 4.99397 -0.600942 0
M  V30 7906 H 736.78 5.40352 -2.30854 0
M  V30 7907 H 738.304 5.91199 -1.52696 0
M  V30 7908 H 739.718 4.6197 -3.39495 0
M  V30 7909 H 738.115 4.34661 -4.13751 0
M  V30 7910 H 739.185 2.96548 -3.8365 0
M  V30 7911 N 740.528 1.15101 1.07655 0
M  V30 7912 C 741.776 0.922149 1.79836 0
M  V30 7913 C 742.097 -0.552346 1.87014 0
M  V30 7914 O 741.367 -1.40145 1.3688 0
M  V30 7915 H 739.947 0.338182 0.666064 0
M  V30 7916 H 742.609 1.45107 1.30115 0
M  V30 7917 H 741.705 1.32883 2.82398 0
M  V30 7918 N 742.006 -1.2595 0.947325 0
M  V30 7919 C 743.255 -1.92759 0.593887 0
M  V30 7920 C 743.568 -1.75083 -0.872093 0
M  V30 7921 O 744.774 -2.36401 -1.33518 0
M  V30 7922 C 743.23 -3.45395 1.01144 0
M  V30 7923 C 742.838 -3.71795 2.49946 0
M  V30 7924 C 744.582 -4.18173 0.730185 0
M  V30 7925 C 742.489 -5.17901 2.85539 0
M  V30 7926 H 741.419 -0.721676 0.218403 0
M  V30 7927 H 744.07 -1.4293 1.15079 0
M  V30 7928 H 742.452 -3.94143 0.383007 0
M  V30 7929 H 743.626 -3.33728 3.17746 0
M  V30 7930 H 741.941 -3.12263 2.75465 0
M  V30 7931 H 744.538 -5.25784 0.972367 0
M  V30 7932 H 744.881 -4.14964 -0.333223 0
M  V30 7933 H 745.414 -3.75309 1.31862 0
M  V30 7934 H 742.153 -5.26216 3.90867 0
M  V30 7935 H 741.673 -5.57042 2.22406 0
M  V30 7936 H 743.352 -5.8596 2.74336 0
M  V30 7937 N 743.484 -0.715051 -1.40445 0
M  V30 7938 C 744.416 -0.0227516 -2.29189 0
M  V30 7939 C 745.429 0.724313 -1.458 0
M  V30 7940 O 746.618 0.571781 -1.69094 0
M  V30 7941 C 743.718 0.992038 -3.24055 0
M  V30 7942 C 742.891 0.310613 -4.36296 0
M  V30 7943 C 741.95 1.23071 -5.11605 0
M  V30 7944 O 740.976 0.71571 -5.64682 0
M  V30 7945 N 742.178 2.56188 -5.2091 0
M  V30 7946 H 744.943 -0.78473 -2.89244 0
M  V30 7947 H 742.504 -0.562637 -1.51809 0
M  V30 7948 H 744.496 1.60973 -3.71308 0
M  V30 7949 H 743.066 1.65538 -2.65171 0
M  V30 7950 H 742.286 -0.487269 -3.91177 0
M  V30 7951 H 743.574 -0.162415 -5.08541 0
M  V30 7952 H 742.972 3.00527 -4.7927 0
M  V30 7953 H 741.529 3.13103 -5.71673 0
M  V30 7954 N 744.962 1.50701 -0.461195 0
M  V30 7955 C 745.91 2.29918 0.352231 0
M  V30 7956 C 746.904 1.36778 0.999403 0
M  V30 7957 O 748.11 1.54015 0.931639 0
M  V30 7958 H 744.485 0.740249 0.132423 0
M  V30 7959 H 746.456 2.96497 -0.336424 0
M  V30 7960 C 745.205 3.17052 1.42736 0
M  V30 7961 H 744.528 3.88623 0.938747 0
M  V30 7962 H 745.968 3.75493 1.96928 0
M  V30 7963 C 744.427 2.3399 2.42384 0
M  V30 7964 O 744.957 2.01608 3.47444 0
M  V30 7965 N 743.163 1.96758 2.13857 0
M  V30 7966 H 742.71 2.23292 1.28447 0
M  V30 7967 H 742.668 1.41484 2.80766 0
M  V30 7968 N 746.441 0.193421 1.56409 0
M  V30 7969 C 747.669 -0.451438 2.01915 0
M  V30 7970 C 748.084 -1.55306 1.07357 0
M  V30 7971 O 747.441 -1.82333 0.0781512 0
M  V30 7972 C 747.492 -1.00931 3.47124 0
M  V30 7973 O 747.213 0.0483623 4.38073 0
M  V30 7974 C 748.714 -1.73021 4.0814 0
M  V30 7975 H 745.934 -0.113495 0.661332 0
M  V30 7976 H 748.478 0.301636 2.02263 0
M  V30 7977 H 746.633 -1.71277 3.47481 0
M  V30 7978 H 747.047 -0.366644 5.23217 0
M  V30 7979 H 748.521 -2.07289 5.11601 0
M  V30 7980 H 748.998 -2.6333 3.51502 0
M  V30 7981 H 749.604 -1.07264 4.11551 0
M  V30 7982 N 747.919 -1.57396 -0.0801906 0
M  V30 7983 C 748.851 -1.9982 -1.12271 0
M  V30 7984 C 749.864 -0.902902 -1.35468 0
M  V30 7985 O 751.053 -1.18088 -1.33856 0
M  V30 7986 C 748.153 -2.31476 -2.47532 0
M  V30 7987 C 747.326 -3.62745 -2.44407 0
M  V30 7988 C 746.385 -3.82168 -3.6171 0
M  V30 7989 O 745.411 -4.53852 -3.43522 0
M  V30 7990 N 746.613 -3.2388 -4.81749 0
M  V30 7991 H 749.378 -2.89864 -0.761501 0
M  V30 7992 H 746.939 -1.5965 -0.268965 0
M  V30 7993 H 748.931 -2.4165 -3.24634 0
M  V30 7994 H 747.501 -1.47364 -2.75686 0
M  V30 7995 H 746.721 -3.63403 -1.52747 0
M  V30 7996 H 748.009 -4.48954 -2.39412 0
M  V30 7997 H 747.407 -2.6568 -4.9943 0
M  V30 7998 H 745.964 -3.39515 -5.56392 0
M  V30 7999 N 749.397 0.351382 -1.53633 0
M  V30 8000 C 750.33 1.45407 -1.75875 0
M  V30 8001 C 751.308 1.50822 -0.607566 0
M  V30 8002 O 752.492 1.68658 -0.841818 0
M  V30 8003 C 749.619 2.8369 -1.85034 0
M  V30 8004 C 748.665 2.95935 -3.07123 0
M  V30 8005 S 749.498 2.63215 -4.66345 0
M  V30 8006 C 750.654 4.03622 -4.78373 0
M  V30 8007 H 750.887 1.26322 -2.69128 0
M  V30 8008 H 748.42 0.546581 -1.44402 0
M  V30 8009 H 750.378 3.6336 -1.90996 0
M  V30 8010 H 749.039 3.00076 -0.928074 0
M  V30 8011 H 748.232 3.97243 -3.10183 0
M  V30 8012 H 747.834 2.24205 -2.99346 0
M  V30 8013 H 750.126 4.98046 -4.593 0
M  V30 8014 H 751.069 4.05559 -5.80454 0
M  V30 8015 H 751.477 3.91282 -4.06889 0
M  V30 8016 N 750.875 1.45233 0.611969 0
M  V30 8017 C 752.105 1.52318 1.39581 0
M  V30 8018 C 752.513 0.153093 1.8858 0
M  V30 8019 O 751.856 -0.854792 1.62601 0
M  V30 8020 C 751.918 2.4426 2.63775 0
M  V30 8021 C 751.582 3.91079 2.36445 0
M  V30 8022 C 752.579 4.81099 1.97079 0
M  V30 8023 C 750.264 4.35958 2.49492 0
M  V30 8024 C 752.258 6.14002 1.71115 0
M  V30 8025 C 749.945 5.68903 2.23142 0
M  V30 8026 C 750.943 6.57744 1.84015 0
M  V30 8027 O 750.631 7.88226 1.5797 0
M  V30 8028 H 750.363 0.518428 0.43383 0
M  V30 8029 H 752.917 1.91067 0.753837 0
M  V30 8030 H 751.147 2.00474 3.30677 0
M  V30 8031 H 752.836 2.42077 3.25812 0
M  V30 8032 H 753.602 4.47692 1.86539 0
M  V30 8033 H 749.481 3.67053 2.78914 0
M  V30 8034 H 753.025 6.83305 1.405 0
M  V30 8035 H 748.922 6.01866 2.33297 0
M  V30 8036 H 749.69 8.00211 1.72058 0
M  V30 8037 N 752.353 -0.854086 1.3245 0
M  V30 8038 C 753.263 -1.99503 1.23434 0
M  V30 8039 C 754.279 -1.73371 0.147828 0
M  V30 8040 O 755.455 -1.97998 0.368609 0
M  V30 8041 C 752.52 -3.33192 0.958328 0
M  V30 8042 C 751.581 -3.72542 2.13333 0
M  V30 8043 C 750.814 -4.99852 1.8704 0
M  V30 8044 O 751.037 -5.64573 0.813239 0
M  V30 8045 O 749.971 -5.36345 2.73161 0
M  V30 8046 H 753.797 -2.10046 2.1935 0
M  V30 8047 H 751.382 -0.984823 1.12346 0
M  V30 8048 H 753.264 -4.13327 0.820918 0
M  V30 8049 H 751.939 -3.23687 0.0293299 0
M  V30 8050 H 750.846 -2.92981 2.32622 0
M  V30 8051 H 752.179 -3.86694 3.04514 0
M  V30 8052 N 753.831 -1.1567 -1.07043 0
M  V30 8053 C 754.794 -0.858906 -2.12498 0
M  V30 8054 C 755.794 0.142735 -1.60165 0
M  V30 8055 O 756.984 -0.0872678 -1.73981 0
M  V30 8056 C 754.116 -0.283021 -3.39723 0
M  V30 8057 H 755.309 -1.79368 -2.40348 0
M  V30 8058 H 752.862 -0.964608 -1.22984 0
M  V30 8059 H 753.597 0.659796 -3.17517 0
M  V30 8060 H 753.382 -1.00467 -3.7901 0
M  V30 8061 H 754.872 -0.0923543 -4.17498 0
M  V30 8062 N 755.309 1.25446 -0.953992 0
M  V30 8063 C 756.555 1.9343 -0.60933 0
M  V30 8064 C 756.888 1.74542 0.851388 0
M  V30 8065 O 756.163 1.09014 1.61078 0
M  V30 8066 C 756.446 3.46844 -0.968041 0
M  V30 8067 C 756.299 3.74961 -2.48444 0
M  V30 8068 C 757.618 4.37334 -0.492641 0
M  V30 8069 H 754.737 0.702502 -0.222844 0
M  V30 8070 H 757.379 1.48076 -1.19053 0
M  V30 8071 H 755.529 3.85604 -0.473465 0
M  V30 8072 H 757.201 3.45841 -3.05273 0
M  V30 8073 H 755.444 3.20589 -2.92241 0
M  V30 8074 H 756.115 4.82246 -2.68594 0
M  V30 8075 H 758.591 4.05873 -0.916878 0
M  V30 8076 H 757.467 5.43439 -0.772331 0
M  V30 8077 H 757.728 4.37908 0.607403 0
M  V30 8078 N 756.787 0.722489 1.40064 0
M  V30 8079 C 757.697 0.0755984 2.34478 0
M  V30 8080 C 758.713 -0.736046 1.57665 0
M  V30 8081 O 759.889 -0.667407 1.9002 0
M  V30 8082 C 756.954 -0.830075 3.36616 0
M  V30 8083 C 756.015 -0.00759884 4.29299 0
M  V30 8084 C 755.248 -0.870139 5.26559 0
M  V30 8085 O 755.471 -2.10921 5.2997 0
M  V30 8086 O 754.405 -0.305454 6.01124 0
M  V30 8087 H 758.231 0.854545 2.9143 0
M  V30 8088 H 755.816 0.483032 1.41376 0
M  V30 8089 H 757.698 -1.34864 3.99236 0
M  V30 8090 H 756.373 -1.58805 2.82069 0
M  V30 8091 H 755.28 0.556199 3.69942 0
M  V30 8092 H 756.613 0.712312 4.87018 0
M  V30 8093 N 758.265 -1.50454 0.469181 0
M  V30 8094 C 759.681 -1.59124 0.123226 0
M  V30 8095 C 759.881 -1.47749 -1.37013 0
M  V30 8096 O 758.937 -1.335 -2.14322 0
M  V30 8097 C 760.25 -2.93101 0.67172 0
M  V30 8098 C 761.798 -3.06491 0.634978 0
M  V30 8099 C 762.273 -4.43041 1.16098 0
M  V30 8100 N 763.764 -4.49448 1.12031 0
M  V30 8101 C 764.499 -5.53491 1.49784 0
M  V30 8102 N 763.995 -6.64798 1.94976 0
M  V30 8103 N 765.788 -5.44025 1.41399 0
M  V30 8104 H 757.939 -1.56091 1.44046 0
M  V30 8105 H 760.202 -0.737564 0.59557 0
M  V30 8106 H 759.908 -3.06895 1.7178 0
M  V30 8107 H 759.782 -3.77027 0.114222 0
M  V30 8108 H 762.169 -2.92346 -0.402187 0
M  V30 8109 H 762.25 -2.24328 1.22926 0
M  V30 8110 H 761.894 -4.57935 2.19677 0
M  V30 8111 H 761.824 -5.23794 0.542939 0
M  V30 8112 H 764.315 -3.69575 0.788828 0
M  V30 8113 H 764.628 -7.40246 2.21936 0
M  V30 8114 H 762.973 -6.65923 1.98927 0
M  V30 8115 H 766.164 -4.55955 1.05935 0
M  V30 8116 H 766.337 -6.2499 1.71147 0
M  V30 8117 N 759.743 -0.201713 -1.56304 0
M  V30 8118 C 760.706 0.702811 -2.18159 0
M  V30 8119 C 761.706 1.13619 -1.13787 0
M  V30 8120 O 762.896 1.0482 -1.39134 0
M  V30 8121 C 760.028 1.96032 -2.78898 0
M  V30 8122 H 761.221 0.163836 -2.99452 0
M  V30 8123 H 758.774 0.04791 -1.56227 0
M  V30 8124 H 759.509 2.54165 -2.01421 0
M  V30 8125 H 759.294 1.65824 -3.55309 0
M  V30 8126 H 760.784 2.60519 -3.26373 0
M  V30 8127 N 761.222 1.57436 0.0718424 0
M  V30 8128 C 762.155 1.98982 1.11721 0
M  V30 8129 C 763.133 0.866731 1.37574 0
M  V30 8130 O 764.317 1.12903 1.50948 0
M  V30 8131 C 761.444 2.32648 2.46155 0
M  V30 8132 C 760.49 3.54964 2.36437 0
M  V30 8133 S 761.323 5.05802 1.75854 0
M  V30 8134 C 762.479 5.42669 3.11867 0
M  V30 8135 H 762.712 2.87338 0.763154 0
M  V30 8136 H 760.245 1.51833 0.280372 0
M  V30 8137 H 762.203 2.52719 3.23486 0
M  V30 8138 H 760.864 1.44821 2.78722 0
M  V30 8139 H 760.057 3.76038 3.35577 0
M  V30 8140 H 759.659 3.34524 1.67242 0
M  V30 8141 H 761.951 5.40737 4.08178 0
M  V30 8142 H 762.894 6.43461 2.95573 0
M  V30 8143 H 763.302 4.70131 3.1247 0
M  V30 8144 N 762.7 -0.34323 1.53817 0
M  V30 8145 C 763.663 -1.40444 1.8113 0
M  V30 8146 C 764.663 -1.45604 0.682366 0
M  V30 8147 O 765.853 -1.45974 0.950649 0
M  V30 8148 C 762.985 -2.79369 1.95361 0
M  V30 8149 H 764.178 -1.17489 2.75928 0
M  V30 8150 H 761.731 -0.577636 1.45234 0
M  V30 8151 H 762.466 -3.07607 1.02707 0
M  V30 8152 H 762.251 -2.7702 2.77493 0
M  V30 8153 H 763.741 -3.56178 2.18008 0
M  V30 8154 N 764.178 -1.45556 -0.604258 0
M  V30 8155 C 765.125 -1.54482 -1.71476 0
M  V30 8156 C 766.095 -0.390479 -1.61445 0
M  V30 8157 O 767.28 -0.604371 -1.80975 0
M  V30 8158 C 764.42 -1.52064 -3.09791 0
M  V30 8159 C 763.533 -2.78073 -3.30604 0
M  V30 8160 C 762.668 -2.67304 -4.59044 0
M  V30 8161 C 761.707 -3.88352 -4.73127 0
M  V30 8162 N 760.844 -3.76098 -5.9287 0
M  V30 8163 H 765.684 -2.49349 -1.63184 0
M  V30 8164 H 763.221 -1.23725 -0.795641 0
M  V30 8165 H 765.179 -1.48649 -3.89819 0
M  V30 8166 H 763.809 -0.607442 -3.17033 0
M  V30 8167 H 762.861 -2.91561 -2.44329 0
M  V30 8168 H 764.173 -3.67847 -3.36883 0
M  V30 8169 H 763.327 -2.61875 -5.47272 0
M  V30 8170 H 762.066 -1.75135 -4.55169 0
M  V30 8171 H 761.071 -3.94137 -3.83322 0
M  V30 8172 H 762.296 -4.81591 -4.78797 0
M  V30 8173 H 760.242 -2.867 -5.90033 0
M  V30 8174 H 760.159 -4.59509 -6.00323 0
M  V30 8175 H 761.427 -3.74607 -6.83586 0
M  V30 8176 N 765.656 0.84705 -1.32902 0
M  V30 8177 C 766.588 1.96308 -1.18304 0
M  V30 8178 C 767.601 1.62386 -0.116082 0
M  V30 8179 O 768.79 1.74713 -0.365751 0
M  V30 8180 C 765.89 3.29556 -0.790305 0
M  V30 8181 C 765.063 3.91668 -1.94717 0
M  V30 8182 C 764.122 5.0326 -1.53674 0
M  V30 8183 O 763.148 5.22847 -2.24989 0
M  V30 8184 N 764.35 5.78852 -0.437075 0
M  V30 8185 H 767.115 2.09369 -2.14441 0
M  V30 8186 H 764.676 1.02233 -1.25539 0
M  V30 8187 H 766.668 4.01624 -0.49799 0
M  V30 8188 H 765.238 3.12497 0.0801286 0
M  V30 8189 H 764.458 3.12292 -2.40557 0
M  V30 8190 H 765.746 4.299 -2.72146 0
M  V30 8191 H 765.144 5.65484 0.156316 0
M  V30 8192 H 763.701 6.51479 -0.204399 0
M  V30 8193 N 767.134 1.16236 1.06428 0
M  V30 8194 C 768.067 0.81119 2.13295 0
M  V30 8195 C 769.045 -0.216555 1.61151 0
M  V30 8196 O 770.229 -0.100949 1.88229 0
M  V30 8197 C 767.356 0.207901 3.38061 0
M  V30 8198 C 766.402 1.20904 4.09004 0
M  V30 8199 S 767.235 2.75513 4.59187 0
M  V30 8200 C 768.391 2.1663 5.87216 0
M  V30 8201 H 768.624 1.71632 2.42755 0
M  V30 8202 H 766.157 0.985693 1.18842 0
M  V30 8203 H 768.115 -0.133715 4.10282 0
M  V30 8204 H 766.776 -0.67497 3.06762 0
M  V30 8205 H 765.969 0.735326 4.98607 0
M  V30 8206 H 765.571 1.49567 3.42791 0
M  V30 8207 H 767.863 1.53413 6.59902 0
M  V30 8208 H 768.806 3.04437 6.39315 0
M  V30 8209 H 769.214 1.60565 5.41183 0
M  V30 8210 N 768.612 -1.24939 0.960631 0
M  V30 8211 C 769.858 -1.93104 0.61958 0
M  V30 8212 C 770.191 -1.74991 -0.84212 0
M  V30 8213 O 769.466 -1.09867 -1.60498 0
M  V30 8214 C 769.749 -3.46326 0.986422 0
M  V30 8215 C 769.602 -3.73638 2.50429 0
M  V30 8216 C 770.921 -4.37067 0.515827 0
M  V30 8217 H 768.04 -0.701311 0.226566 0
M  V30 8218 H 770.682 -1.47442 1.19836 0
M  V30 8219 H 768.832 -3.85348 0.493907 0
M  V30 8220 H 770.504 -3.44217 3.07103 0
M  V30 8221 H 768.747 -3.19035 2.93937 0
M  V30 8222 H 769.418 -4.80815 2.71147 0
M  V30 8223 H 771.894 -4.05381 0.938389 0
M  V30 8224 H 770.77 -5.43022 0.80114 0
M  V30 8225 H 771.031 -4.38224 -0.584171 0
M  V30 8226 N 770.09 -0.729906 -1.39679 0
M  V30 8227 C 771.318 -0.285709 -2.04918 0
M  V30 8228 C 771.733 1.07765 -1.55023 0
M  V30 8229 O 771.09 1.67999 -0.712923 0
M  V30 8230 C 771.141 -0.272793 -3.60469 0
M  V30 8231 O 770.862 -1.58233 -4.08527 0
M  V30 8232 C 772.363 0.188199 -4.429 0
M  V30 8233 H 769.583 -0.125758 -0.65911 0
M  V30 8234 H 772.127 -0.992129 -1.78821 0
M  V30 8235 H 770.282 0.384699 -3.85485 0
M  V30 8236 H 770.696 -1.49245 -5.02818 0
M  V30 8237 H 772.17 0.14608 -5.51807 0
M  V30 8238 H 772.647 1.2326 -4.21549 0
M  V30 8239 H 773.253 -0.439541 -4.23023 0
M  V30 8240 N 771.568 1.50203 -0.477153 0
M  V30 8241 C 772.498 2.31517 0.303646 0
M  V30 8242 C 773.479 1.38696 0.984753 0
M  V30 8243 O 774.664 1.67615 0.980758 0
M  V30 8244 C 771.794 3.18598 1.38249 0
M  V30 8245 C 770.748 4.2002 0.822645 0
M  V30 8246 C 770.074 4.95878 2.00024 0
M  V30 8247 C 771.374 5.22023 -0.170185 0
M  V30 8248 H 773.068 2.97042 -0.375027 0
M  V30 8249 H 770.614 1.42848 -0.181802 0
M  V30 8250 H 772.567 3.74282 1.93625 0
M  V30 8251 H 771.291 2.5097 2.09002 0
M  V30 8252 H 769.95 3.65445 0.290813 0
M  V30 8253 H 769.598 4.24717 2.69489 0
M  V30 8254 H 769.298 5.64487 1.63183 0
M  V30 8255 H 770.822 5.54399 2.55878 0
M  V30 8256 H 772.236 5.72543 0.294606 0
M  V30 8257 H 770.633 5.98386 -0.453181 0
M  V30 8258 H 771.703 4.72396 -1.09408 0
M  V30 8259 N 773.046 0.209999 1.56195 0
M  V30 8260 C 773.956 -0.716459 2.23392 0
M  V30 8261 C 774.972 -1.22291 1.23778 0
M  V30 8262 O 776.148 -1.26694 1.56558 0
M  V30 8263 C 773.213 -1.91261 2.89172 0
M  V30 8264 C 772.274 -1.44927 4.04097 0
M  V30 8265 C 771.507 -2.5884 4.66731 0
M  V30 8266 O 771.73 -3.76693 4.2832 0
M  V30 8267 O 770.664 -2.30701 5.55932 0
M  V30 8268 H 774.49 -0.174089 3.03201 0
M  V30 8269 H 772.075 -0.0199505 1.49387 0
M  V30 8270 H 773.957 -2.6114 3.30733 0
M  V30 8271 H 772.632 -2.4433 2.12331 0
M  V30 8272 H 771.539 -0.718839 3.67129 0
M  V30 8273 H 772.872 -0.965084 4.82646 0
M  V30 8274 N 774.524 -1.57472 -0.0634922 0
M  V30 8275 C 775.77 -1.87932 -0.762194 0
M  V30 8276 C 776.103 -0.803377 -1.76804 0
M  V30 8277 O 775.378 0.185468 -1.93614 0
M  V30 8278 C 775.661 -3.29053 -1.46275 0
M  V30 8279 C 775.514 -4.47309 -0.472755 0
M  V30 8280 C 776.833 -3.68537 -2.40558 0
M  V30 8281 H 773.952 -0.683521 -0.275624 0
M  V30 8282 H 776.594 -1.89983 -0.0252651 0
M  V30 8283 H 774.744 -3.27435 -2.0909 0
M  V30 8284 H 776.416 -4.61053 0.150828 0
M  V30 8285 H 774.659 -4.33286 0.211187 0
M  V30 8286 H 775.33 -5.42853 -1.00072 0
M  V30 8287 H 777.806 -3.71302 -1.87814 0
M  V30 8288 H 776.682 -4.68152 -2.86574 0
M  V30 8289 H 776.943 -2.98917 -3.25731 0
M  V30 8290 N 776.003 0.335068 -1.53997 0
M  V30 8291 C 776.933 1.41727 -1.85568 0
M  V30 8292 C 777.914 1.54505 -0.7115 0
M  V30 8293 O 779.099 1.68573 -0.964191 0
M  V30 8294 C 776.229 2.7866 -2.07282 0
M  V30 8295 C 775.183 2.80682 -3.23112 0
M  V30 8296 C 774.509 4.20581 -3.30175 0
M  V30 8297 C 775.809 2.45458 -4.61029 0
M  V30 8298 H 777.503 1.15555 -2.76202 0
M  V30 8299 H 775.049 0.554445 -1.32898 0
M  V30 8300 H 777.002 3.54423 -2.27952 0
M  V30 8301 H 775.726 3.06286 -1.13387 0
M  V30 8302 H 774.385 2.07373 -3.02311 0
M  V30 8303 H 774.033 4.4533 -2.33859 0
M  V30 8304 H 773.733 4.22843 -4.08016 0
M  V30 8305 H 775.257 4.98174 -3.53066 0
M  V30 8306 H 776.671 3.10934 -4.81656 0
M  V30 8307 H 775.068 2.5899 -5.41336 0
M  V30 8308 H 776.138 1.40628 -4.6406 0
M  V30 8309 N 777.481 1.45874 0.596531 0
M  V30 8310 C 778.706 1.54247 1.38646 0
M  V30 8311 C 779.131 0.179571 1.87241 0
M  V30 8312 O 778.489 -0.837831 1.6078 0
M  V30 8313 C 778.537 2.54015 2.55946 0
M  V30 8314 O 777.641 2.06561 3.5694 0
M  V30 8315 H 776.982 0.519555 0.413471 0
M  V30 8316 H 779.512 1.91327 0.724936 0
M  V30 8317 H 779.522 2.73179 3.03047 0
M  V30 8318 H 778.197 3.52994 2.19928 0
M  V30 8319 H 776.774 1.97324 3.16414 0
M  V30 8320 N 778.959 -0.83999 1.33349 0
M  V30 8321 C 780.189 -1.62492 1.27593 0
M  V30 8322 C 780.597 -1.88559 -0.155597 0
M  V30 8323 O 779.94 -1.46537 -1.10782 0
M  V30 8324 C 780.002 -2.99984 1.98116 0
M  V30 8325 C 779.666 -2.96892 3.47425 0
M  V30 8326 C 780.663 -2.72688 4.42648 0
M  V30 8327 C 778.348 -3.17063 3.89585 0
M  V30 8328 C 780.342 -2.68681 5.78004 0
M  V30 8329 C 778.029 -3.12682 5.25046 0
M  V30 8330 C 779.027 -2.88522 6.19067 0
M  V30 8331 O 778.715 -2.84042 7.52047 0
M  V30 8332 H 778.447 -0.512358 0.440982 0
M  V30 8333 H 781.001 -1.0545 1.76265 0
M  V30 8334 H 779.231 -3.58875 1.44034 0
M  V30 8335 H 780.92 -3.6084 1.85875 0
M  V30 8336 H 781.686 -2.56856 4.114 0
M  V30 8337 H 777.565 -3.34889 3.16813 0
M  V30 8338 H 781.109 -2.49743 6.51363 0
M  V30 8339 H 777.006 -3.28063 5.55918 0
M  V30 8340 H 777.774 -2.99892 7.61582 0
M  V30 8341 N 780.437 -1.16799 -1.0581 0
M  V30 8342 C 781.387 -0.847231 -2.11674 0
M  V30 8343 C 782.371 0.175476 -1.5994 0
M  V30 8344 O 783.563 -0.0260602 -1.76981 0
M  V30 8345 C 780.692 -0.355446 -3.41455 0
M  V30 8346 C 779.778 -1.40922 -4.00002 0
M  V30 8347 N 780.169 -2.62096 -4.32596 0
M  V30 8348 C 778.467 -1.26562 -4.27666 0
M  V30 8349 C 779.168 -3.29759 -4.79201 0
M  V30 8350 N 778.144 -2.57138 -4.78938 0
M  V30 8351 H 781.946 -1.76862 -2.34727 0
M  V30 8352 H 779.46 -1.05577 -1.23399 0
M  V30 8353 H 781.457 -0.107231 -4.16762 0
M  V30 8354 H 780.117 0.559817 -3.19838 0
M  V30 8355 H 781.128 -2.99113 -4.22791 0
M  V30 8356 H 777.805 -0.411503 -4.15467 0
M  V30 8357 H 779.195 -4.33222 -5.13584 0
M  V30 8358 N 781.915 1.24427 -0.967243 0
M  V30 8359 C 782.878 2.23637 -0.501927 0
M  V30 8360 C 783.878 1.55712 0.401283 0
M  V30 8361 O 785.068 1.73085 0.196808 0
M  V30 8362 C 782.2 3.39804 0.273176 0
M  V30 8363 H 783.393 2.66317 -1.37897 0
M  V30 8364 H 780.946 1.37033 -0.751783 0
M  V30 8365 H 781.681 3.02562 1.16733 0
M  V30 8366 H 781.466 3.90303 -0.37498 0
M  V30 8367 H 782.956 4.13443 0.587776 0
M  V30 8368 N 783.393 0.737304 1.3929 0
M  V30 8369 C 784.618 0.295237 2.05288 0
M  V30 8370 C 785.043 -1.06235 1.55228 0
M  V30 8371 O 784.401 -1.67365 0.697043 0
M  V30 8372 C 784.449 0.309146 3.59272 0
M  V30 8373 O 783.553 -0.702437 4.06374 0
M  V30 8374 H 782.894 0.133762 0.650387 0
M  V30 8375 H 785.424 1.00387 1.78279 0
M  V30 8376 H 785.434 0.154336 4.07708 0
M  V30 8377 H 784.109 1.29974 3.95069 0
M  V30 8378 H 782.686 -0.513574 3.69346 0
M  V30 8379 N 784.871 -1.49948 0.485112 0
M  V30 8380 C 785.834 -2.27351 -0.290546 0
M  V30 8381 C 786.834 -1.32704 -0.908087 0
M  V30 8382 O 788.024 -1.56007 -0.775085 0
M  V30 8383 C 785.156 -3.10135 -1.41524 0
M  V30 8384 H 786.349 -2.97374 0.388454 0
M  V30 8385 H 783.902 -1.54453 0.239586 0
M  V30 8386 H 784.637 -2.44641 -2.12888 0
M  V30 8387 H 784.422 -3.79705 -0.978074 0
M  V30 8388 H 785.912 -3.68638 -1.96204 0
M  V30 8389 N 786.349 -0.21828 -1.56081 0
M  V30 8390 C 787.312 0.679633 -2.18892 0
M  V30 8391 C 788.312 1.12405 -1.14986 0
M  V30 8392 O 789.502 1.03339 -1.40238 0
M  V30 8393 C 786.634 1.93063 -2.80962 0
M  V30 8394 H 787.827 0.132066 -2.99609 0
M  V30 8395 H 785.38 0.0313374 -1.56269 0
M  V30 8396 H 786.115 2.52015 -2.04106 0
M  V30 8397 H 785.9 1.62046 -3.57048 0
M  V30 8398 H 787.39 2.57043 -3.29118 0
M  V30 8399 N 787.827 1.57504 0.0551401 0
M  V30 8400 C 788.737 2.08198 1.08124 0
M  V30 8401 C 789.753 1.01496 1.41331 0
M  V30 8402 O 790.929 1.33073 1.51174 0
M  V30 8403 C 787.994 2.52968 2.37083 0
M  V30 8404 C 787.055 3.7404 2.10696 0
M  V30 8405 C 786.288 4.16665 3.33505 0
M  V30 8406 O 786.511 3.59019 4.4324 0
M  V30 8407 O 785.445 5.09324 3.20737 0
M  V30 8408 H 789.271 2.95977 0.680518 0
M  V30 8409 H 786.856 1.46933 0.270401 0
M  V30 8410 H 788.738 2.82211 3.12946 0
M  V30 8411 H 787.413 1.6831 2.76502 0
M  V30 8412 H 786.32 3.49855 1.32484 0
M  V30 8413 H 787.653 4.59601 1.76148 0
M  V30 8414 N 789.305 -0.326896 1.54172 0
M  V30 8415 C 790.215 -1.42525 1.86343 0
M  V30 8416 C 791.231 -1.56764 0.75505 0
M  V30 8417 O 792.407 -1.71924 1.04901 0
M  V30 8418 C 789.472 -2.77286 2.08119 0
M  V30 8419 C 788.533 -2.7225 3.31931 0
M  V30 8420 C 787.766 -4.00584 3.52659 0
M  V30 8421 O 787.989 -4.98686 2.76891 0
M  V30 8422 O 786.923 -4.04045 4.46129 0
M  V30 8423 H 790.749 -1.18249 2.79734 0
M  V30 8424 H 788.334 -0.520614 1.40036 0
M  V30 8425 H 790.216 -3.57065 2.23791 0
M  V30 8426 H 788.891 -3.01459 1.17917 0
M  V30 8427 H 787.798 -1.91033 3.21647 0
M  V30 8428 H 789.131 -2.53032 4.2218 0
M  V30 8429 N 790.784 -1.46188 -0.588786 0
M  V30 8430 C 791.694 -1.58865 -1.72624 0
M  V30 8431 C 792.71 -0.472348 -1.67466 0
M  V30 8432 O 793.886 -0.735638 -1.87484 0
M  V30 8433 C 790.951 -1.56989 -3.0912 0
M  V30 8434 C 790.012 -2.79804 -3.25589 0
M  V30 8435 C 789.245 -2.78009 -4.55573 0
M  V30 8436 O 789.468 -1.86406 -5.39082 0
M  V30 8437 O 788.402 -3.6947 -4.75159 0
M  V30 8438 H 792.228 -2.55047 -1.64878 0
M  V30 8439 H 789.813 -1.28912 -0.755115 0
M  V30 8440 H 791.695 -1.58618 -3.90408 0
M  V30 8441 H 790.37 -0.639648 -3.17317 0
M  V30 8442 H 789.277 -2.83732 -2.43818 0
M  V30 8443 H 790.61 -3.72017 -3.22279 0
M  V30 8444 N 792.262 0.832906 -1.33792 0
M  V30 8445 C 793.49 1.62048 -1.28639 0
M  V30 8446 C 793.905 1.88269 0.141522 0
M  V30 8447 O 793.262 1.46706 1.08553 0
M  V30 8448 C 793.313 2.96722 -2.0649 0
M  V30 8449 O 793.034 2.7165 -3.43712 0
M  V30 8450 C 794.535 3.91144 -2.08617 0
M  V30 8451 H 791.755 0.504032 -0.442937 0
M  V30 8452 H 794.299 1.03704 -1.76255 0
M  V30 8453 H 792.454 3.51652 -1.62541 0
M  V30 8454 H 792.868 3.57453 -3.83833 0
M  V30 8455 H 794.342 4.82837 -2.67531 0
M  V30 8456 H 794.819 4.25766 -1.07796 0
M  V30 8457 H 795.425 3.42152 -2.52611 0
M  V30 8458 N 793.74 1.17359 1.05189 0
M  V30 8459 C 795.156 0.920861 1.30355 0
M  V30 8460 C 795.356 -0.419993 1.97074 0
M  V30 8461 O 794.412 -1.15696 2.24434 0
M  V30 8462 C 795.725 2.07818 2.1733 0
M  V30 8463 C 797.273 2.1152 2.30712 0
M  V30 8464 C 797.748 3.26637 3.21048 0
M  V30 8465 N 799.239 3.26426 3.28634 0
M  V30 8466 C 799.974 4.12141 3.98657 0
M  V30 8467 N 799.47 5.07966 4.71107 0
M  V30 8468 N 801.263 4.00091 3.94821 0
M  V30 8469 H 793.414 2.03666 0.602821 0
M  V30 8470 H 795.677 0.889294 0.328421 0
M  V30 8471 H 795.383 3.04727 1.75597 0
M  V30 8472 H 795.257 2.02922 3.17966 0
M  V30 8473 H 797.644 1.15196 2.71687 0
M  V30 8474 H 797.725 2.20477 1.29706 0
M  V30 8475 H 797.369 4.23227 2.80788 0
M  V30 8476 H 797.299 3.14917 4.2206 0
M  V30 8477 H 799.79 2.57045 2.77013 0
M  V30 8478 H 800.103 5.69766 5.22099 0
M  V30 8479 H 798.448 5.11936 4.7005 0
M  V30 8480 H 801.639 3.24523 3.37346 0
M  V30 8481 H 801.812 4.6711 4.49123 0
M  V30 8482 N 795.218 -1.23913 0.973828 0
M  V30 8483 C 796.128 -2.28838 0.516735 0
M  V30 8484 C 797.144 -1.68723 -0.425282 0
M  V30 8485 O 798.32 -1.99201 -0.296819 0
M  V30 8486 C 795.385 -3.46233 -0.179914 0
M  V30 8487 C 794.446 -4.21729 0.80269 0
M  V30 8488 C 793.679 -5.33518 0.139191 0
M  V30 8489 O 793.902 -5.60252 -1.07118 0
M  V30 8490 O 792.836 -5.96088 0.834447 0
M  V30 8491 H 796.662 -2.70067 1.38916 0
M  V30 8492 H 794.247 -1.2972 0.74115 0
M  V30 8493 H 796.129 -4.17514 -0.570991 0
M  V30 8494 H 794.804 -3.06969 -1.02721 0
M  V30 8495 H 793.711 -3.52799 1.24434 0
M  V30 8496 H 795.044 -4.64825 1.61859 0
M  V30 8497 N 796.696 -0.74468 -1.38897 0
M  V30 8498 C 797.626 -0.126355 -2.33158 0
M  V30 8499 C 798.607 0.713517 -1.54412 0
M  V30 8500 O 799.792 0.656523 -1.82766 0
M  V30 8501 C 796.922 0.774375 -3.38557 0
M  V30 8502 C 795.876 0.0379214 -4.27983 0
M  V30 8503 C 795.202 1.05631 -5.24162 0
M  V30 8504 C 796.502 -1.12523 -5.10035 0
M  V30 8505 H 798.196 -0.913744 -2.85116 0
M  V30 8506 H 795.742 -0.440847 -1.37086 0
M  V30 8507 H 797.695 1.21655 -4.03458 0
M  V30 8508 H 796.419 1.59399 -2.85061 0
M  V30 8509 H 795.078 -0.384733 -3.64576 0
M  V30 8510 H 794.726 1.86975 -4.66958 0
M  V30 8511 H 794.426 0.568261 -5.84846 0
M  V30 8512 H 795.95 1.49799 -5.9194 0
M  V30 8513 H 797.364 -0.761037 -5.68226 0
M  V30 8514 H 795.761 -1.54355 -5.79909 0
M  V30 8515 H 796.831 -1.94237 -4.44297 0
M  V30 8516 N 798.174 1.49689 -0.493057 0
M  V30 8517 C 799.106 2.26867 0.326195 0
M  V30 8518 C 800.119 1.33083 0.937697 0
M  V30 8519 O 801.308 1.58427 0.822382 0
M  V30 8520 C 798.408 3.0519 1.4735 0
M  V30 8521 C 797.581 4.26491 0.970767 0
M  V30 8522 C 796.64 4.86926 1.99473 0
M  V30 8523 O 795.666 5.47221 1.56647 0
M  V30 8524 N 796.868 4.75871 3.32456 0
M  V30 8525 H 799.633 2.97816 -0.335547 0
M  V30 8526 H 797.194 1.58602 -0.325129 0
M  V30 8527 H 799.186 3.42496 2.15589 0
M  V30 8528 H 797.756 2.369 2.03954 0
M  V30 8529 H 796.976 3.94036 0.113529 0
M  V30 8530 H 798.264 5.05092 0.613156 0
M  V30 8531 H 797.662 4.2797 3.69944 0
M  V30 8532 H 796.219 5.17383 3.96431 0
M  V30 8533 N 799.652 0.226554 1.55963 0
M  V30 8534 C 800.877 -0.411527 2.03276 0
M  V30 8535 C 801.302 -1.52206 1.10521 0
M  V30 8536 O 800.66 -1.81054 0.0943217 0
M  V30 8537 C 800.708 -0.915694 3.4878 0
M  V30 8538 O 799.812 -2.02672 3.59163 0
M  V30 8539 H 799.153 -0.0924907 0.657527 0
M  V30 8540 H 801.683 0.346656 2.01642 0
M  V30 8541 H 801.693 -1.22421 3.892 0
M  V30 8542 H 800.368 -0.102915 4.15773 0
M  V30 8543 H 798.945 -1.72445 3.30632 0
M  V30 8544 N 801.13 -1.57531 -0.0467866 0
M  V30 8545 C 802.06 -2.08425 -1.05268 0
M  V30 8546 C 803.041 -0.982941 -1.38825 0
M  V30 8547 O 804.226 -1.25716 -1.48018 0
M  V30 8548 C 801.356 -2.54897 -2.35891 0
M  V30 8549 C 800.31 -3.69132 -2.16623 0
M  V30 8550 C 799.636 -4.01747 -3.52851 0
M  V30 8551 C 800.936 -4.98243 -1.56689 0
M  V30 8552 H 802.63 -2.92716 -0.62908 0
M  V30 8553 H 800.176 -1.40816 -0.301156 0
M  V30 8554 H 802.129 -2.8912 -3.06574 0
M  V30 8555 H 800.853 -1.67666 -2.80278 0
M  V30 8556 H 799.512 -3.35231 -1.48377 0
M  V30 8557 H 799.16 -3.11608 -3.94853 0
M  V30 8558 H 798.86 -4.78681 -3.4079 0
M  V30 8559 H 800.384 -4.38487 -4.24925 0
M  V30 8560 H 801.798 -5.30535 -2.17268 0
M  V30 8561 H 800.195 -5.79669 -1.55255 0
M  V30 8562 H 801.265 -4.81986 -0.530827 0
M  V30 8563 N 802.608 0.318715 -1.54344 0
M  V30 8564 C 803.571 1.37545 -1.83342 0
M  V30 8565 C 804.571 1.445 -0.705444 0
M  V30 8566 O 805.761 1.44443 -0.973752 0
M  V30 8567 C 802.893 2.76225 -1.99781 0
M  V30 8568 H 804.086 1.13084 -2.77762 0
M  V30 8569 H 801.639 0.554457 -1.46135 0
M  V30 8570 H 802.374 3.05934 -1.07588 0
M  V30 8571 H 802.159 2.7257 -2.81865 0
M  V30 8572 H 803.649 3.52664 -2.23647 0
M  V30 8573 N 804.086 1.46499 0.581025 0
M  V30 8574 C 805.049 1.5677 1.672 0
M  V30 8575 C 806.049 0.444716 1.54528 0
M  V30 8576 O 807.239 0.709074 1.59116 0
M  V30 8577 C 804.371 1.4896 3.06633 0
M  V30 8578 H 805.564 2.54 1.5945 0
M  V30 8579 H 803.117 1.34334 0.799003 0
M  V30 8580 H 803.852 0.530168 3.19937 0
M  V30 8581 H 803.637 2.30439 3.17239 0
M  V30 8582 H 805.127 1.59237 3.86048 0
M  V30 8583 N 805.565 -0.825799 1.34232 0
M  V30 8584 C 806.528 -1.91808 1.25468 0
M  V30 8585 C 807.528 -1.59893 0.170567 0
M  V30 8586 O 808.718 -1.68986 0.422996 0
M  V30 8587 C 805.85 -3.27786 0.93644 0
M  V30 8588 H 807.043 -2.01003 2.22571 0
M  V30 8589 H 804.596 -1.01944 1.18479 0
M  V30 8590 H 805.331 -3.24285 -0.0315408 0
M  V30 8591 H 805.116 -3.52333 1.72057 0
M  V30 8592 H 806.606 -4.07782 0.900214 0
M  V30 8593 N 807.043 -1.17915 -1.04565 0
M  V30 8594 C 808.289 -0.972863 -1.77942 0
M  V30 8595 C 808.622 0.496753 -1.87739 0
M  V30 8596 O 807.897 1.3688 -1.38181 0
M  V30 8597 C 808.18 -1.62227 -3.21488 0
M  V30 8598 C 808.033 -3.16441 -3.19664 0
M  V30 8599 C 809.352 -1.33137 -4.19479 0
M  V30 8600 H 806.471 -0.354843 -0.645953 0
M  V30 8601 H 809.113 -1.45508 -1.22178 0
M  V30 8602 H 807.263 -1.21224 -3.69103 0
M  V30 8603 H 808.935 -3.66544 -2.80077 0
M  V30 8604 H 807.178 -3.48863 -2.57832 0
M  V30 8605 H 807.849 -3.57012 -4.21006 0
M  V30 8606 H 810.325 -1.68654 -3.80388 0
M  V30 8607 H 809.201 -1.81151 -5.18146 0
M  V30 8608 H 809.462 -0.253319 -4.41374 0
M  V30 8609 N 808.521 1.23394 -0.980386 0
M  V30 8610 C 809.767 1.92094 -0.650223 0
M  V30 8611 C 810.1 1.76309 0.814173 0
M  V30 8612 O 809.375 1.12406 1.5873 0
M  V30 8613 C 809.658 3.44713 -1.04139 0
M  V30 8614 C 809.511 3.69606 -2.56342 0
M  V30 8615 C 810.83 4.36191 -0.585296 0
M  V30 8616 H 807.949 0.697618 -0.237695 0
M  V30 8617 H 810.591 1.45517 -1.22167 0
M  V30 8618 H 808.741 3.84513 -0.55515 0
M  V30 8619 H 810.413 3.39288 -3.1254 0
M  V30 8620 H 808.656 3.14318 -2.98976 0
M  V30 8621 H 809.327 4.76441 -2.78762 0
M  V30 8622 H 811.803 4.03836 -1.00276 0
M  V30 8623 H 810.679 5.41679 -0.887428 0
M  V30 8624 H 810.94 4.39097 0.51438 0
M  V30 8625 N 809.999 0.752036 1.385 0
M  V30 8626 C 811.41 0.375385 1.82887 0
M  V30 8627 C 811.761 -1.09575 1.62751 0
M  V30 8628 O 810.886 -1.84685 1.12785 0
M  V30 8629 C 811.481 0.674563 3.32017 0
M  V30 8630 C 810.04 0.351208 3.74758 0
M  V30 8631 C 809.187 0.928531 2.61292 0
M  V30 8632 H 812.138 0.948313 1.27251 0
M  V30 8633 H 812.159 -0.0477781 3.8047 0
M  V30 8634 H 811.671 1.74533 3.46641 0
M  V30 8635 H 809.772 -0.713042 3.65714 0
M  V30 8636 H 809.885 0.845675 4.71577 0
M  V30 8637 H 808.249 0.354012 2.52228 0
M  V30 8638 H 809.032 2.0043 2.78716 0
M  V30 8639 N 811.477 -1.49425 0.500989 0
M  V30 8640 C 812.702 -2.07356 -0.0425154 0
M  V30 8641 C 813.127 -1.35887 -1.30063 0
M  V30 8642 O 812.485 -0.41561 -1.76472 0
M  V30 8643 C 812.533 -3.59518 -0.279188 0
M  V30 8644 O 811.637 -3.89542 -1.3539 0
M  V30 8645 H 810.978 -0.663482 0.0262207 0
M  V30 8646 H 813.508 -1.92231 0.700607 0
M  V30 8647 H 813.518 -4.04791 -0.5107 0
M  V30 8648 H 812.193 -4.10946 0.640009 0
M  V30 8649 H 810.77 -3.56079 -1.10734 0
M  V30 8650 N 812.955 -0.234822 -1.55841 0
M  V30 8651 C 813.918 0.656378 -2.196 0
M  V30 8652 C 814.918 1.11179 -1.16171 0
M  V30 8653 O 816.108 1.01845 -1.41326 0
M  V30 8654 C 813.24 1.90072 -2.82993 0
M  V30 8655 H 814.433 0.100281 -2.99732 0
M  V30 8656 H 811.986 0.0147613 -1.56293 0
M  V30 8657 H 812.721 2.49836 -2.06767 0
M  V30 8658 H 812.506 1.5825 -3.58747 0
M  V30 8659 H 813.996 2.53538 -3.31826 0
M  V30 8660 N 814.433 1.57553 0.0384317 0
M  V30 8661 C 815.365 2.02726 1.06934 0
M  V30 8662 C 816.378 0.938502 1.33026 0
M  V30 8663 O 817.567 1.21595 1.30678 0
M  V30 8664 C 814.667 2.37958 2.41308 0
M  V30 8665 C 813.84 3.69098 2.34703 0
M  V30 8666 C 812.899 3.91623 3.51451 0
M  V30 8667 O 811.925 4.628 3.31368 0
M  V30 8668 N 813.127 3.36538 4.72993 0
M  V30 8669 H 815.892 2.91781 0.684381 0
M  V30 8670 H 813.453 1.60307 0.226542 0
M  V30 8671 H 815.445 2.50172 3.18113 0
M  V30 8672 H 814.015 1.54621 2.71682 0
M  V30 8673 H 813.235 3.67325 1.43059 0
M  V30 8674 H 814.523 4.55144 2.27424 0
M  V30 8675 H 813.921 2.78828 4.92211 0
M  V30 8676 H 812.478 3.54148 5.47195 0
M  V30 8677 N 815.911 -0.310526 1.54511 0
M  V30 8678 C 817.139 -1.06611 1.77318 0
M  V30 8679 C 817.554 -1.81265 0.528043 0
M  V30 8680 O 816.911 -1.75466 -0.50178 0
M  V30 8681 C 816.962 -2.05409 2.97472 0
M  V30 8682 O 816.683 -1.33785 4.17173 0
M  V30 8683 C 818.184 -2.93082 3.32593 0
M  V30 8684 H 815.404 -0.316578 0.591624 0
M  V30 8685 H 817.948 -0.352691 2.01436 0
M  V30 8686 H 816.103 -2.72266 2.7559 0
M  V30 8687 H 816.517 -2.00055 4.84849 0
M  V30 8688 H 817.991 -3.58274 4.19933 0
M  V30 8689 H 818.468 -3.60877 2.50329 0
M  V30 8690 H 819.074 -2.31768 3.566 0
M  V30 8691 N 817.389 -1.46805 -0.573248 0
M  V30 8692 C 818.319 -1.60951 -1.69165 0
M  V30 8693 C 819.3 -0.45948 -1.63777 0
M  V30 8694 O 820.485 -0.68688 -1.81647 0
M  V30 8695 C 817.615 -1.60844 -3.07809 0
M  V30 8696 C 816.569 -2.74913 -3.28035 0
M  V30 8697 C 815.895 -2.59871 -4.67302 0
M  V30 8698 C 817.195 -4.16654 -3.14955 0
M  V30 8699 H 818.889 -2.54574 -1.57582 0
M  V30 8700 H 816.435 -1.22516 -0.756686 0
M  V30 8701 H 818.388 -1.69334 -3.85881 0
M  V30 8702 H 817.112 -0.637714 -3.20314 0
M  V30 8703 H 815.771 -2.65908 -2.52366 0
M  V30 8704 H 815.419 -1.60861 -4.76585 0
M  V30 8705 H 815.119 -3.36386 -4.81786 0
M  V30 8706 H 816.643 -2.70265 -5.4753 0
M  V30 8707 H 818.057 -4.26721 -3.82861 0
M  V30 8708 H 816.454 -4.93831 -3.40956 0
M  V30 8709 H 817.524 -4.36146 -2.11908 0
M  V30 8710 N 818.867 0.818669 -1.34668 0
M  V30 8711 C 819.814 1.92983 -1.26595 0
M  V30 8712 C 820.784 1.65506 -0.140315 0
M  V30 8713 O 821.969 1.88063 -0.322005 0
M  V30 8714 C 819.109 3.2932 -1.03163 0
M  V30 8715 C 818.222 3.69061 -2.24539 0
M  V30 8716 C 817.357 4.94368 -1.94355 0
M  V30 8717 C 816.396 5.26702 -3.11851 0
M  V30 8718 N 815.533 6.43187 -2.81522 0
M  V30 8719 H 820.373 1.99219 -2.2162 0
M  V30 8720 H 817.91 0.974612 -1.1018 0
M  V30 8721 H 819.868 4.07897 -0.87613 0
M  V30 8722 H 818.498 3.22584 -0.118045 0
M  V30 8723 H 817.55 2.85842 -2.50995 0
M  V30 8724 H 818.862 3.88924 -3.12313 0
M  V30 8725 H 818.016 5.80742 -1.75566 0
M  V30 8726 H 816.755 4.76515 -1.03848 0
M  V30 8727 H 815.76 4.38823 -3.31231 0
M  V30 8728 H 816.985 5.46492 -4.03142 0
M  V30 8729 H 814.931 6.26783 -1.93596 0
M  V30 8730 H 814.848 6.63243 -3.62829 0
M  V30 8731 H 816.116 7.32621 -2.66247 0
M  V30 8732 N 820.346 1.18468 1.03938 0
M  V30 8733 C 821.595 0.975193 1.76558 0
M  V30 8734 C 821.908 -0.495978 1.89207 0
M  V30 8735 O 823.114 -0.824009 2.58694 0
M  V30 8736 C 821.57 1.69579 3.17444 0
M  V30 8737 C 821.178 3.20636 3.12884 0
M  V30 8738 C 822.922 1.56917 3.94433 0
M  V30 8739 C 820.829 3.8533 4.48636 0
M  V30 8740 H 819.759 0.361244 0.66183 0
M  V30 8741 H 822.41 1.41854 1.16403 0
M  V30 8742 H 820.792 1.18022 3.78004 0
M  V30 8743 H 821.966 3.79228 2.61768 0
M  V30 8744 H 820.281 3.33454 2.49394 0
M  V30 8745 H 822.878 2.02611 4.94826 0
M  V30 8746 H 823.221 0.521638 4.13019 0
M  V30 8747 H 823.754 2.05762 3.40451 0
M  V30 8748 H 820.493 4.90136 4.35255 0
M  V30 8749 H 820.013 3.31526 4.99851 0
M  V30 8750 H 821.692 3.88269 5.17549 0
M  V30 8751 N 821.824 -1.22873 0.986916 0
M  V30 8752 C 823.052 -1.95487 0.677663 0
M  V30 8753 C 823.467 -1.72978 -0.756572 0
M  V30 8754 O 822.824 -1.02517 -1.50985 0
M  V30 8755 C 822.875 -3.48337 0.966638 0
M  V30 8756 O 822.596 -3.70087 2.34451 0
M  V30 8757 C 824.097 -4.38142 0.674248 0
M  V30 8758 H 821.317 -0.622211 0.251185 0
M  V30 8759 H 823.861 -1.56187 1.32007 0
M  V30 8760 H 822.016 -3.85628 0.370137 0
M  V30 8761 H 822.43 -4.64332 2.43918 0
M  V30 8762 H 823.904 -5.44165 0.926759 0
M  V30 8763 H 824.381 -4.3745 -0.391728 0
M  V30 8764 H 824.987 -4.06469 1.25152 0
M  V30 8765 N 823.302 -0.75937 -1.38099 0
M  V30 8766 C 824.579 -0.243371 -1.9408 0
M  V30 8767 C 824.959 1.25942 -1.69416 0
M  V30 8768 O 824.307 2.03667 -1.03595 0
M  V30 8769 C 824.517 -0.603328 -3.43745 0
M  V30 8770 C 825.865 -0.566195 -4.20808 0
M  V30 8771 O 826.889 -0.541969 -3.52053 0
M  V30 8772 O 825.748 -0.582261 -5.43389 0
M  V30 8773 H 822.842 -0.0526825 -0.82532 0
M  V30 8774 H 825.388 -0.839884 -1.47459 0
M  V30 8775 H 824.16 -1.64098 -3.55229 0
M  V30 8776 H 823.783 0.0208887 -3.97595 0
M  V30 8777 N 824.78 1.49157 -0.508906 0
M  V30 8778 C 826.027 2.02473 0.0327983 0
M  V30 8779 C 826.355 1.38792 1.36261 0
M  V30 8780 O 825.61 0.515576 1.88786 0
M  V30 8781 C 825.909 3.56687 0.225717 0
M  V30 8782 C 825.575 4.39046 -1.02708 0
M  V30 8783 C 824.237 4.61271 -1.37048 0
M  V30 8784 C 826.589 4.86902 -1.85946 0
M  V30 8785 C 823.917 5.28598 -2.54562 0
M  V30 8786 C 826.269 5.55521 -3.0262 0
M  V30 8787 C 824.933 5.7599 -3.3733 0
M  V30 8788 H 824.203 0.740903 0.0120017 0
M  V30 8789 H 826.85 1.79372 -0.670665 0
M  V30 8790 H 825.155 3.78511 1.01177 0
M  V30 8791 H 826.852 3.95541 0.659433 0
M  V30 8792 H 823.442 4.21994 -0.749615 0
M  V30 8793 H 827.626 4.69553 -1.6073 0
M  V30 8794 H 822.882 5.42646 -2.81682 0
M  V30 8795 H 827.056 5.91576 -3.67438 0
M  V30 8796 H 824.683 6.27934 -4.2849 0
M  V30 8797 N 826.258 0.243083 1.55714 0
M  V30 8798 C 827.483 -0.389944 2.03701 0
M  V30 8799 C 827.908 -1.51025 1.12129 0
M  V30 8800 O 827.266 -1.80944 0.11352 0
M  V30 8801 C 827.314 -0.878649 3.49731 0
M  V30 8802 O 826.418 -1.98851 3.61292 0
M  V30 8803 H 825.759 -0.0855115 0.658471 0
M  V30 8804 H 828.289 0.368023 2.01263 0
M  V30 8805 H 828.299 -1.18287 3.90477 0
M  V30 8806 H 826.974 -0.0588107 4.15858 0
M  V30 8807 H 825.551 -1.68928 3.32442 0
M  V30 8808 N 827.736 -1.57571 -0.0300757 0
M  V30 8809 C 828.983 -1.89226 -0.721091 0
M  V30 8810 C 829.311 -0.840244 -1.75414 0
M  V30 8811 O 828.566 0.158906 -1.95054 0
M  V30 8812 C 828.865 -3.27624 -1.42818 0
M  V30 8813 C 828.531 -4.4776 -0.531208 0
M  V30 8814 C 827.193 -4.8036 -0.28415 0
M  V30 8815 C 829.545 -5.21125 0.0881582 0
M  V30 8816 C 826.873 -5.83715 0.591065 0
M  V30 8817 C 829.225 -6.2541 0.95107 0
M  V30 8818 C 827.889 -6.56486 1.2076 0
M  V30 8819 H 827.159 -0.692428 -0.263866 0
M  V30 8820 H 829.806 -1.91491 0.0189874 0
M  V30 8821 H 828.111 -3.21343 -2.24155 0
M  V30 8822 H 829.808 -3.49365 -1.96838 0
M  V30 8823 H 826.398 -4.2227 -0.73392 0
M  V30 8824 H 830.582 -4.96219 -0.0897496 0
M  V30 8825 H 825.838 -6.06168 0.798132 0
M  V30 8826 H 830.012 -6.81402 1.43751 0
M  V30 8827 H 827.639 -7.36395 1.88751 0
M  V30 8828 N 829.214 0.302327 -1.54673 0
M  V30 8829 C 830.439 1.06103 -1.78205 0
M  V30 8830 C 830.864 1.80204 -0.53926 0
M  V30 8831 O 830.222 1.73975 0.510142 0
M  V30 8832 C 830.27 2.01829 -2.98827 0
M  V30 8833 O 829.374 3.10108 -2.71858 0
M  V30 8834 H 828.715 0.30487 -0.589873 0
M  V30 8835 H 831.245 0.340153 -2.01753 0
M  V30 8836 H 831.255 2.44319 -3.2676 0
M  V30 8837 H 829.93 1.473 -3.88942 0
M  V30 8838 H 828.507 2.72142 -2.54937 0
M  V30 8839 N 830.692 1.47107 0.565454 0
M  V30 8840 C 831.969 1.43787 1.32607 0
M  V30 8841 C 832.349 0.130428 2.10697 0
M  V30 8842 O 831.697 -0.888086 2.10536 0
M  V30 8843 C 831.907 2.67833 2.23755 0
M  V30 8844 C 833.255 3.14704 2.85037 0
M  V30 8845 O 834.279 2.68503 2.34061 0
M  V30 8846 O 833.138 3.95002 3.77671 0
M  V30 8847 H 830.232 0.572623 0.596684 0
M  V30 8848 H 832.778 1.59296 0.58504 0
M  V30 8849 H 831.55 3.54532 1.65597 0
M  V30 8850 H 831.173 2.54869 3.05168 0
M  V30 8851 N 832.17 -0.811516 1.35101 0
M  V30 8852 C 833.417 -1.56835 1.28098 0
M  V30 8853 C 833.745 -1.93951 -0.14597 0
M  V30 8854 O 833 -1.61173 -1.11004 0
M  V30 8855 C 833.299 -2.87121 2.1283 0
M  V30 8856 C 832.965 -2.69245 3.61688 0
M  V30 8857 C 831.627 -2.64078 4.02264 0
M  V30 8858 C 833.979 -2.52122 4.56162 0
M  V30 8859 C 831.307 -2.39724 5.3549 0
M  V30 8860 C 833.659 -2.29298 5.89581 0
M  V30 8861 C 832.323 -2.2255 6.29307 0
M  V30 8862 H 831.593 -0.5739 0.468742 0
M  V30 8863 H 834.24 -0.93806 1.66951 0
M  V30 8864 H 832.545 -3.54502 1.66841 0
M  V30 8865 H 834.242 -3.44788 2.0475 0
M  V30 8866 H 830.832 -2.74112 3.29485 0
M  V30 8867 H 835.016 -2.5513 4.25702 0
M  V30 8868 H 830.272 -2.32965 5.65276 0
M  V30 8869 H 834.446 -2.15038 6.62368 0
M  V30 8870 H 832.073 -2.0344 7.32473 0
M  V30 8871 N 833.648 -1.19017 -1.03309 0
M  V30 8872 C 834.558 -0.939303 -2.14975 0
M  V30 8873 C 835.574 0.0992359 -1.73717 0
M  V30 8874 O 836.75 -0.0844362 -2.01223 0
M  V30 8875 C 833.815 -0.476712 -3.43407 0
M  V30 8876 C 832.876 -1.58413 -3.99003 0
M  V30 8877 C 832.109 -1.14352 -5.21305 0
M  V30 8878 O 832.332 -0.00534408 -5.704 0
M  V30 8879 O 831.266 -1.94436 -5.6963 0
M  V30 8880 H 835.092 -1.87386 -2.38998 0
M  V30 8881 H 832.677 -0.972635 -1.13403 0
M  V30 8882 H 834.559 -0.22718 -4.20787 0
M  V30 8883 H 833.234 0.429455 -3.20839 0
M  V30 8884 H 832.141 -1.88777 -3.22977 0
M  V30 8885 H 833.474 -2.4667 -4.25928 0
M  V30 8886 N 835.127 1.22348 -0.993418 0
M  V30 8887 C 836.057 2.26584 -0.564088 0
M  V30 8888 C 837.038 1.65102 0.409298 0
M  V30 8889 O 838.223 1.91872 0.299819 0
M  V30 8890 C 835.353 3.47087 0.121554 0
M  V30 8891 C 834.307 4.21009 -0.770429 0
M  V30 8892 C 833.633 5.34678 0.0481586 0
M  V30 8893 C 834.933 4.79636 -2.06752 0
M  V30 8894 H 836.627 2.62749 -1.43538 0
M  V30 8895 H 834.173 1.26303 -0.691628 0
M  V30 8896 H 836.126 4.19166 0.433303 0
M  V30 8897 H 834.85 3.1002 1.0274 0
M  V30 8898 H 833.509 3.50764 -1.06583 0
M  V30 8899 H 833.157 4.93852 0.954933 0
M  V30 8900 H 832.857 5.85061 -0.545641 0
M  V30 8901 H 834.381 6.09573 0.353991 0
M  V30 8902 H 835.795 5.43654 -1.81969 0
M  V30 8903 H 834.192 5.4036 -2.61019 0
M  V30 8904 H 835.262 3.99659 -2.74592 0
M  V30 8905 N 836.605 0.766683 1.37694 0
M  V30 8906 C 837.83 0.338715 2.04615 0
M  V30 8907 C 838.255 -1.02918 1.57447 0
M  V30 8908 O 837.613 -1.65849 0.732386 0
M  V30 8909 C 837.661 0.385284 3.58536 0
M  V30 8910 O 836.765 -0.616081 4.07772 0
M  V30 8911 H 836.106 0.147527 0.647404 0
M  V30 8912 H 838.636 1.04146 1.7611 0
M  V30 8913 H 838.646 0.240782 4.07289 0
M  V30 8914 H 837.321 1.38325 3.92223 0
M  V30 8915 H 835.898 -0.435115 3.70353 0
M  V30 8916 N 838.083 -1.48885 0.516809 0
M  V30 8917 C 839.36 -1.95412 -0.0858293 0
M  V30 8918 C 839.74 -1.45875 -1.5259 0
M  V30 8919 O 839.088 -0.679415 -2.18166 0
M  V30 8920 C 839.298 -3.48995 0.0178194 0
M  V30 8921 C 840.646 -4.24342 -0.14813 0
M  V30 8922 O 841.67 -3.56155 -0.0566125 0
M  V30 8923 O 840.529 -5.45454 -0.338035 0
M  V30 8924 H 837.623 -0.822455 -0.0865884 0
M  V30 8925 H 840.169 -1.59464 0.580472 0
M  V30 8926 H 838.941 -3.77732 1.02147 0
M  V30 8927 H 838.564 -3.91604 -0.687924 0
M  V30 8928 N 839.561 -0.251338 -1.55583 0
M  V30 8929 C 840.491 0.640437 -2.24545 0
M  V30 8930 C 841.472 1.17781 -1.22726 0
M  V30 8931 O 842.657 1.21633 -1.5139 0
M  V30 8932 C 839.787 1.8355 -2.94834 0
M  V30 8933 C 838.741 1.4307 -4.03379 0
M  V30 8934 C 838.067 2.70695 -4.61116 0
M  V30 8935 C 839.367 0.59848 -5.1886 0
M  V30 8936 H 841.061 0.0653772 -2.99329 0
M  V30 8937 H 838.607 0.0300042 -1.43969 0
M  V30 8938 H 840.56 2.46505 -3.4178 0
M  V30 8939 H 839.284 2.43601 -2.17546 0
M  V30 8940 H 837.943 0.824474 -3.57209 0
M  V30 8941 H 837.591 3.28954 -3.80524 0
M  V30 8942 H 837.291 2.44332 -5.34393 0
M  V30 8943 H 838.815 3.34541 -5.10798 0
M  V30 8944 H 840.229 1.13244 -5.62004 0
M  V30 8945 H 838.626 0.430728 -5.98552 0
M  V30 8946 H 839.696 -0.38829 -4.83343 0
M  V30 8947 N 841.039 1.57585 0.0217189 0
M  V30 8948 C 841.949 2.10444 1.03684 0
M  V30 8949 C 842.965 1.04472 1.39146 0
M  V30 8950 O 844.141 1.36249 1.48317 0
M  V30 8951 C 841.206 2.5794 2.31664 0
M  V30 8952 C 840.267 3.78425 2.02714 0
M  V30 8953 C 839.5 4.23646 3.24592 0
M  V30 8954 O 839.723 3.6834 4.35525 0
M  V30 8955 O 838.657 5.16013 3.09862 0
M  V30 8956 H 842.483 2.97354 0.617584 0
M  V30 8957 H 840.068 1.47473 0.239174 0
M  V30 8958 H 841.95 2.88785 3.06889 0
M  V30 8959 H 840.625 1.74138 2.7287 0
M  V30 8960 H 839.532 3.52587 1.25033 0
M  V30 8961 H 840.865 4.63234 1.66359 0
M  V30 8962 N 842.517 -0.29412 1.54831 0
M  V30 8963 C 843.745 -1.04724 1.78439 0
M  V30 8964 C 844.16 -1.80695 0.547239 0
M  V30 8965 O 843.517 -1.75989 -0.483141 0
M  V30 8966 C 843.568 -2.02242 2.99634 0
M  V30 8967 O 843.289 -1.29352 4.18568 0
M  V30 8968 C 844.79 -2.89537 3.35683 0
M  V30 8969 H 842.01 -0.310285 0.594949 0
M  V30 8970 H 844.554 -0.331306 2.01798 0
M  V30 8971 H 842.709 -2.69328 2.78462 0
M  V30 8972 H 843.123 -1.94901 4.86943 0
M  V30 8973 H 844.597 -3.538 4.23709 0
M  V30 8974 H 845.074 -3.58201 2.54143 0
M  V30 8975 H 845.68 -2.27973 3.59038 0
M  V30 8976 N 843.995 -1.47404 -0.557645 0
M  V30 8977 C 844.958 -1.59411 -1.64684 0
M  V30 8978 C 845.958 -0.469244 -1.53801 0
M  V30 8979 O 847.148 -0.734298 -1.57967 0
M  V30 8980 C 844.28 -1.5382 -3.04224 0
M  V30 8981 H 845.473 -2.56504 -1.55389 0
M  V30 8982 H 843.026 -1.35588 -0.777531 0
M  V30 8983 H 843.761 -0.581 -3.19053 0
M  V30 8984 H 843.546 -2.35456 -3.13533 0
M  V30 8985 H 845.036 -1.65358 -3.83466 0
M  V30 8986 N 845.473 0.80434 -1.35529 0
M  V30 8987 C 846.403 1.93086 -1.31301 0
M  V30 8988 C 847.384 1.69068 -0.187044 0
M  V30 8989 O 848.569 1.90399 -0.382359 0
M  V30 8990 C 845.699 3.29867 -1.0865 0
M  V30 8991 C 844.653 3.68373 -2.17911 0
M  V30 8992 C 843.979 5.0334 -1.80423 0
M  V30 8993 C 845.279 3.78516 -3.59893 0
M  V30 8994 H 846.973 1.96882 -2.25561 0
M  V30 8995 H 844.519 0.945841 -1.08581 0
M  V30 8996 H 846.472 4.08281 -1.04331 0
M  V30 8997 H 845.196 3.2642 -0.108359 0
M  V30 8998 H 843.855 2.92247 -2.21331 0
M  V30 8999 H 843.503 4.96399 -0.812213 0
M  V30 9000 H 843.203 5.30074 -2.53565 0
M  V30 9001 H 844.727 5.84191 -1.77633 0
M  V30 9002 H 846.141 4.47155 -3.58783 0
M  V30 9003 H 844.538 4.16721 -4.31814 0
M  V30 9004 H 845.608 2.8001 -3.95882 0
M  V30 9005 N 846.951 1.19563 1.02676 0
M  V30 9006 C 848.191 1.01072 1.77662 0
M  V30 9007 C 848.555 -0.450344 1.86644 0
M  V30 9008 O 849.756 -0.755132 2.57975 0
M  V30 9009 C 848.027 1.66383 3.16309 0
M  V30 9010 S 849.586 1.62858 4.07459 0
M  V30 9011 H 846.404 0.362644 0.611564 0
M  V30 9012 H 849.006 1.51947 1.23014 0
M  V30 9013 H 847.71 2.71917 3.07391 0
M  V30 9014 H 847.241 1.15596 3.76033 0
M  V30 9015 H 849.256 0.654265 4.91868 0
M  V30 9016 N 848.429 -1.21819 0.999893 0
M  V30 9017 C 849.657 -1.94758 0.698359 0
M  V30 9018 C 850.072 -1.73771 -0.738183 0
M  V30 9019 O 849.429 -1.04113 -1.49889 0
M  V30 9020 C 849.48 -3.47292 1.00353 0
M  V30 9021 O 849.201 -3.67579 2.38363 0
M  V30 9022 C 850.702 -4.37403 0.72068 0
M  V30 9023 H 847.922 -0.619512 0.257771 0
M  V30 9024 H 850.466 -1.54778 1.33656 0
M  V30 9025 H 848.621 -3.85213 0.411018 0
M  V30 9026 H 849.035 -4.61719 2.48829 0
M  V30 9027 H 850.509 -5.43151 0.984422 0
M  V30 9028 H 850.986 -4.3784 -0.345309 0
M  V30 9029 H 851.592 -4.05119 1.29456 0
M  V30 9030 N 849.908 -0.773975 -1.37286 0
M  V30 9031 C 851.157 -0.335977 -1.98882 0
M  V30 9032 C 851.47 1.09416 -1.62134 0
M  V30 9033 O 852.676 1.63366 -2.1685 0
M  V30 9034 C 851.132 -0.549756 -3.55676 0
M  V30 9035 C 850.74 -1.9903 -4.01361 0
M  V30 9036 C 852.484 -0.175493 -4.24137 0
M  V30 9037 C 850.391 -2.15156 -5.50874 0
M  V30 9038 H 849.321 -0.121877 -0.744085 0
M  V30 9039 H 851.972 -0.953419 -1.56787 0
M  V30 9040 H 850.354 0.137175 -3.95762 0
M  V30 9041 H 851.528 -2.71237 -3.72515 0
M  V30 9042 H 849.843 -2.32137 -3.4569 0
M  V30 9043 H 852.44 -0.274463 -5.33995 0
M  V30 9044 H 852.783 0.874524 -4.07011 0
M  V30 9045 H 853.316 -0.815058 -3.89361 0
M  V30 9046 H 850.055 -3.18485 -5.72929 0
M  V30 9047 H 849.575 -1.47435 -5.81397 0
M  V30 9048 H 851.254 -1.95124 -6.16876 0
M  V30 9049 N 851.386 1.48609 -0.524698 0
M  V30 9050 C 852.802 1.58557 -0.182199 0
M  V30 9051 C 853.002 1.52732 1.31435 0
M  V30 9052 O 852.058 1.41362 2.0922 0
M  V30 9053 C 853.371 2.90406 -0.78004 0
M  V30 9054 C 854.919 3.03924 -0.748293 0
M  V30 9055 C 855.394 4.38427 -1.32462 0
M  V30 9056 N 856.885 4.4498 -1.28635 0
M  V30 9057 C 857.62 5.47551 -1.70223 0
M  V30 9058 N 857.116 6.57103 -2.19515 0
M  V30 9059 N 858.909 5.38402 -1.61493 0
M  V30 9060 H 851.06 1.50638 -1.4974 0
M  V30 9061 H 853.323 0.714952 -0.622533 0
M  V30 9062 H 853.029 3.00308 -1.83052 0
M  V30 9063 H 852.903 3.76343 -0.254075 0
M  V30 9064 H 855.29 2.93638 0.293407 0
M  V30 9065 H 855.371 2.19611 -1.31167 0
M  V30 9066 H 855.015 4.49466 -2.36522 0
M  V30 9067 H 854.945 5.21418 -0.736967 0
M  V30 9068 H 857.436 3.66393 -0.92545 0
M  V30 9069 H 857.749 7.31499 -2.49257 0
M  V30 9070 H 856.094 6.58081 -2.23506 0
M  V30 9071 H 859.285 4.5171 -1.22785 0
M  V30 9072 H 859.458 6.18208 -1.94225 0
M  V30 9073 N 852.864 0.259585 1.55447 0
M  V30 9074 C 853.797 -0.675542 2.17972 0
M  V30 9075 C 854.775 -1.16362 1.13572 0
M  V30 9076 O 855.959 -1.23944 1.42021 0
M  V30 9077 C 853.086 -1.91952 2.79056 0
M  V30 9078 C 852.132 -1.56824 3.96621 0
M  V30 9079 S 852.965 -0.659846 5.31419 0
M  V30 9080 C 854.121 -1.91255 5.95963 0
M  V30 9081 H 854.354 -0.144236 2.9695 0
M  V30 9082 H 851.887 0.0439448 1.54337 0
M  V30 9083 H 853.845 -2.63362 3.14882 0
M  V30 9084 H 852.506 -2.42196 2 0
M  V30 9085 H 851.699 -2.49348 4.37997 0
M  V30 9086 H 851.301 -0.934472 3.62138 0
M  V30 9087 H 853.593 -2.85834 6.14252 0
M  V30 9088 H 854.536 -1.54207 6.91105 0
M  V30 9089 H 854.944 -2.07042 5.25161 0
M  V30 9090 N 854.342 -1.57594 -0.0133615 0
M  V30 9091 C 855.589 -1.8998 -0.70098 0
M  V30 9092 C 855.917 -0.858802 -1.74513 0
M  V30 9093 O 855.172 0.138209 -1.95211 0
M  V30 9094 C 855.471 -3.29121 -1.39336 0
M  V30 9095 C 855.137 -4.48298 -0.483687 0
M  V30 9096 C 853.799 -4.80635 -0.233186 0
M  V30 9097 C 856.151 -5.21003 0.143426 0
M  V30 9098 C 853.479 -5.83055 0.652943 0
M  V30 9099 C 855.831 -6.24366 1.01735 0
M  V30 9100 C 854.495 -6.55168 1.27716 0
M  V30 9101 H 853.765 -0.695187 -0.256507 0
M  V30 9102 H 856.412 -1.9146 0.0392965 0
M  V30 9103 H 854.717 -3.23703 -2.20735 0
M  V30 9104 H 856.414 -3.51433 -1.93121 0
M  V30 9105 H 853.004 -4.23024 -0.689092 0
M  V30 9106 H 857.188 -4.96286 -0.0371139 0
M  V30 9107 H 852.444 -6.05288 0.862379 0
M  V30 9108 H 856.618 -6.79839 1.5097 0
M  V30 9109 H 854.245 -7.34351 1.9655 0
M  V30 9110 N 855.82 0.285905 -1.54985 0
M  V30 9111 C 857.048 1.03776 -1.78992 0
M  V30 9112 C 857.463 1.80402 -0.556814 0
M  V30 9113 O 856.82 1.76242 0.473801 0
M  V30 9114 C 856.871 2.0065 -3.00702 0
M  V30 9115 O 856.592 1.27131 -4.19249 0
M  V30 9116 C 858.093 2.87753 -3.37214 0
M  V30 9117 H 855.313 0.307126 -0.596586 0
M  V30 9118 H 857.857 0.3206 -2.01971 0
M  V30 9119 H 856.012 2.67847 -2.79887 0
M  V30 9120 H 856.426 1.92316 -4.8797 0
M  V30 9121 H 857.9 3.51548 -4.2558 0
M  V30 9122 H 858.377 3.56848 -2.56039 0
M  V30 9123 H 858.983 2.26065 -3.60242 0
M  V30 9124 N 857.298 1.47698 0.54982 0
M  V30 9125 C 858.575 1.45185 1.31075 0
M  V30 9126 C 858.955 0.152768 2.10547 0
M  V30 9127 O 858.303 -0.865706 2.11466 0
M  V30 9128 C 858.513 2.70192 2.20902 0
M  V30 9129 C 859.861 3.1771 2.81683 0
M  V30 9130 O 860.885 2.70971 2.312 0
M  V30 9131 O 859.744 3.98986 3.7346 0
M  V30 9132 H 856.838 0.57892 0.590577 0
M  V30 9133 H 859.384 1.59908 0.568112 0
M  V30 9134 H 858.156 3.56269 1.61828 0
M  V30 9135 H 857.779 2.58091 3.02448 0
M  V30 9136 N 858.776 -0.797141 1.35954 0
M  V30 9137 C 859.706 -1.92387 1.32323 0
M  V30 9138 C 860.687 -1.68967 0.196007 0
M  V30 9139 O 861.872 -1.90193 0.39245 0
M  V30 9140 C 859.002 -3.29286 1.10398 0
M  V30 9141 C 857.956 -3.67212 2.19862 0
M  V30 9142 C 857.282 -5.02377 1.8309 0
M  V30 9143 C 858.582 -3.76602 3.61896 0
M  V30 9144 H 860.276 -1.95683 2.26602 0
M  V30 9145 H 857.822 -0.94007 1.09081 0
M  V30 9146 H 859.775 -4.07721 1.06495 0
M  V30 9147 H 858.499 -3.26358 0.125668 0
M  V30 9148 H 857.158 -2.91069 2.22878 0
M  V30 9149 H 856.806 -4.95961 0.838527 0
M  V30 9150 H 856.506 -5.28722 2.56372 0
M  V30 9151 H 858.03 -5.8324 1.80729 0
M  V30 9152 H 859.444 -4.45246 3.6115 0
M  V30 9153 H 857.841 -4.14425 4.34018 0
M  V30 9154 H 858.911 -2.77906 3.97361 0
M  V30 9155 N 860.254 -1.20106 -1.0204 0
M  V30 9156 C 861.202 -0.943231 -2.12617 0
M  V30 9157 C 862.196 0.104042 -1.6908 0
M  V30 9158 O 863.402 -0.0459732 -1.79941 0
M  V30 9159 H 859.777 -0.28767 -0.694802 0
M  V30 9160 H 861.748 -1.88221 -2.3155 0
M  V30 9161 C 860.497 -0.50771 -3.43973 0
M  V30 9162 H 859.82 -1.30514 -3.77897 0
M  V30 9163 H 861.26 -0.366486 -4.22413 0
M  V30 9164 C 859.719 0.77939 -3.27761 0
M  V30 9165 O 860.249 1.83876 -3.57145 0
M  V30 9166 N 858.455 0.739931 -2.81022 0
M  V30 9167 H 858.002 -0.122426 -2.57309 0
M  V30 9168 H 857.96 1.60147 -2.70556 0
M  V30 9169 N 861.732 1.21287 -1.00634 0
M  V30 9170 C 862.662 2.25973 -0.588089 0
M  V30 9171 C 863.643 1.65527 0.391764 0
M  V30 9172 O 864.828 1.92179 0.279452 0
M  V30 9173 C 861.958 3.47197 0.0847336 0
M  V30 9174 C 860.912 4.20168 -0.815039 0
M  V30 9175 C 860.238 5.34699 -0.00855393 0
M  V30 9176 C 861.538 4.77416 -2.11828 0
M  V30 9177 H 863.232 2.61212 -1.46317 0
M  V30 9178 H 860.778 1.25563 -0.704985 0
M  V30 9179 H 862.731 4.19602 0.388821 0
M  V30 9180 H 861.455 3.11092 0.994456 0
M  V30 9181 H 860.114 3.49614 -1.10297 0
M  V30 9182 H 859.762 4.94837 0.902499 0
M  V30 9183 H 859.462 5.84449 -0.607664 0
M  V30 9184 H 860.986 6.09914 0.289317 0
M  V30 9185 H 862.4 5.41694 -1.87725 0
M  V30 9186 H 860.797 5.37561 -2.66736 0
M  V30 9187 H 861.867 3.96724 -2.78816 0
M  V30 9188 N 863.21 0.781244 1.36873 0
M  V30 9189 C 864.456 0.350407 1.9975 0
M  V30 9190 C 864.789 -1.07293 1.6187 0
M  V30 9191 O 864.064 -1.73983 0.869491 0
M  V30 9192 C 864.347 0.504834 3.56544 0
M  V30 9193 C 864.2 1.97127 4.04303 0
M  V30 9194 C 865.519 -0.0851272 4.40018 0
M  V30 9195 H 862.638 0.128794 0.725659 0
M  V30 9196 H 865.28 0.98606 1.6241 0
M  V30 9197 H 863.43 -0.0363006 3.88483 0
M  V30 9198 H 865.102 2.57284 3.82887 0
M  V30 9199 H 863.345 2.47676 3.56145 0
M  V30 9200 H 864.016 2.03033 5.13305 0
M  V30 9201 H 866.492 0.376704 4.14391 0
M  V30 9202 H 865.368 0.0530015 5.48874 0
M  V30 9203 H 865.629 -1.17642 4.2616 0
M  V30 9204 N 864.689 -1.48329 0.532571 0
M  V30 9205 C 865.621 -2.27652 -0.265931 0
M  V30 9206 C 866.634 -1.35522 -0.902083 0
M  V30 9207 O 867.823 -1.60552 -0.780088 0
M  V30 9208 C 864.923 -3.0899 -1.39207 0
M  V30 9209 C 864.096 -4.28915 -0.857349 0
M  V30 9210 C 863.155 -4.92044 -1.86493 0
M  V30 9211 O 862.181 -5.51181 -1.42084 0
M  V30 9212 N 863.383 -4.84518 -3.19723 0
M  V30 9213 H 866.148 -2.96821 0.414389 0
M  V30 9214 H 863.709 -1.57684 0.367066 0
M  V30 9215 H 865.701 -3.48091 -2.06433 0
M  V30 9216 H 864.271 -2.42224 -1.97601 0
M  V30 9217 H 863.491 -3.94199 -0.00901765 0
M  V30 9218 H 864.779 -5.0654 -0.479025 0
M  V30 9219 H 864.177 -4.37628 -3.58467 0
M  V30 9220 H 862.734 -5.27712 -3.82575 0
M  V30 9221 N 866.167 -0.267825 -1.55308 0
M  V30 9222 C 867.115 0.638848 -2.23655 0
M  V30 9223 C 868.109 1.16363 -1.2311 0
M  V30 9224 O 869.315 1.1181 -1.41062 0
M  V30 9225 H 865.69 0.224551 -0.717691 0
M  V30 9226 H 867.661 0.0394809 -2.98374 0
M  V30 9227 C 866.41 1.8151 -2.96562 0
M  V30 9228 H 865.733 1.42048 -3.73715 0
M  V30 9229 H 867.173 2.42629 -3.47717 0
M  V30 9230 C 865.632 2.69911 -2.01618 0
M  V30 9231 O 866.162 3.70058 -1.56268 0
M  V30 9232 N 864.368 2.36924 -1.68272 0
M  V30 9233 H 863.915 1.55533 -2.05347 0
M  V30 9234 H 863.873 2.96343 -1.05016 0
M  V30 9235 N 867.645 1.57599 0.00500368 0
M  V30 9236 C 868.892 1.90349 0.690895 0
M  V30 9237 C 869.22 0.868045 1.74055 0
M  V30 9238 O 868.475 -0.127855 1.95282 0
M  V30 9239 C 868.774 3.29855 1.37588 0
M  V30 9240 C 868.44 4.48548 0.459906 0
M  V30 9241 C 867.102 4.80752 0.207693 0
M  V30 9242 C 869.454 5.20919 -0.171054 0
M  V30 9243 C 866.782 5.82701 -0.683855 0
M  V30 9244 C 869.134 6.23818 -1.05045 0
M  V30 9245 C 867.798 6.54481 -1.31189 0
M  V30 9246 H 867.068 0.696538 0.252816 0
M  V30 9247 H 869.715 1.91436 -0.0494495 0
M  V30 9248 H 868.02 3.24869 2.19015 0
M  V30 9249 H 869.717 3.52452 1.91255 0
M  V30 9250 H 866.307 4.23384 0.666648 0
M  V30 9251 H 870.491 4.96299 0.0107942 0
M  V30 9252 H 865.747 6.04822 -0.894467 0
M  V30 9253 H 869.921 6.79029 -1.54574 0
M  V30 9254 H 867.548 7.33299 -2.00442 0
M  V30 9255 N 869.123 -0.277682 1.55134 0
M  V30 9256 C 870.055 -1.36531 1.84098 0
M  V30 9257 C 871.068 -1.45756 0.725194 0
M  V30 9258 O 872.257 -1.47656 1.00299 0
M  V30 9259 C 869.357 -2.74701 1.98476 0
M  V30 9260 C 868.53 -2.88125 3.29094 0
M  V30 9261 C 867.589 -4.0694 3.33596 0
M  V30 9262 O 866.615 -3.9792 4.06999 0
M  V30 9263 N 867.817 -5.18687 2.60661 0
M  V30 9264 H 870.582 -1.12032 2.77973 0
M  V30 9265 H 868.143 -0.467793 1.54995 0
M  V30 9266 H 870.135 -3.52471 1.98863 0
M  V30 9267 H 868.705 -2.92043 1.11488 0
M  V30 9268 H 867.925 -1.97277 3.41285 0
M  V30 9269 H 869.213 -2.94021 4.15246 0
M  V30 9270 H 868.611 -5.28901 2.00699 0
M  V30 9271 H 867.168 -5.94705 2.66776 0
M  V30 9272 N 870.601 -1.47988 -0.541979 0
M  V30 9273 C 871.534 -1.56172 -1.66389 0
M  V30 9274 C 872.512 -0.412879 -1.57271 0
M  V30 9275 O 873.696 -0.622816 -1.77914 0
M  V30 9276 C 870.823 -1.47851 -3.04726 0
M  V30 9277 C 869.869 -2.67428 -3.32242 0
M  V30 9278 S 870.702 -4.29502 -3.19825 0
M  V30 9279 C 871.858 -4.2376 -4.60628 0
M  V30 9280 H 872.091 -2.51086 -1.59195 0
M  V30 9281 H 869.624 -1.36373 -0.724005 0
M  V30 9282 H 871.582 -1.43738 -3.84512 0
M  V30 9283 H 870.243 -0.542958 -3.09372 0
M  V30 9284 H 869.436 -2.57711 -4.33129 0
M  V30 9285 H 869.038 -2.68743 -2.60103 0
M  V30 9286 H 871.33 -3.92953 -5.51901 0
M  V30 9287 H 872.273 -5.24786 -4.75401 0
M  V30 9288 H 872.681 -3.54398 -4.39389 0
M  V30 9289 N 872.079 0.78992 -1.36375 0
M  V30 9290 C 873.026 1.90254 -1.3066 0
M  V30 9291 C 873.996 1.65171 -0.17539 0
M  V30 9292 O 875.181 1.87338 -0.361824 0
M  V30 9293 C 872.321 3.27057 -1.10125 0
M  V30 9294 C 871.434 3.64215 -2.32317 0
M  V30 9295 C 870.569 4.90134 -2.04798 0
M  V30 9296 C 869.608 5.19969 -3.22953 0
M  V30 9297 N 868.745 6.37071 -2.95102 0
M  V30 9298 H 873.585 1.94474 -2.25796 0
M  V30 9299 H 871.122 0.951022 -1.12223 0
M  V30 9300 H 873.08 4.05947 -0.962453 0
M  V30 9301 H 871.71 3.22261 -0.186444 0
M  V30 9302 H 870.762 2.80454 -2.57002 0
M  V30 9303 H 872.074 3.82212 -3.20492 0
M  V30 9304 H 871.228 5.76888 -1.87845 0
M  V30 9305 H 869.967 4.74205 -1.13932 0
M  V30 9306 H 868.972 4.31699 -3.40465 0
M  V30 9307 H 870.197 5.37817 -4.14644 0
M  V30 9308 H 868.143 6.22535 -2.06848 0
M  V30 9309 H 868.06 6.55398 -3.76815 0
M  V30 9310 H 869.328 7.26808 -2.81727 0
M  V30 9311 N 873.557 1.20646 1.01402 0
M  V30 9312 C 874.507 0.925209 2.08384 0
M  V30 9313 C 875.491 -0.115994 1.60481 0
M  V30 9314 O 876.683 0.0917276 1.76762 0
M  V30 9315 C 873.812 0.48193 3.399 0
M  V30 9316 C 872.898 1.5567 3.94497 0
M  V30 9317 N 873.289 2.77971 4.2257 0
M  V30 9318 C 871.587 1.42347 4.22674 0
M  V30 9319 C 872.288 3.47317 4.66632 0
M  V30 9320 N 871.264 2.74736 4.69064 0
M  V30 9321 H 875.066 1.85452 2.28002 0
M  V30 9322 H 872.58 1.10084 1.19395 0
M  V30 9323 H 874.577 0.261835 4.16077 0
M  V30 9324 H 873.237 -0.440725 3.21695 0
M  V30 9325 H 874.248 3.14598 4.11398 0
M  V30 9326 H 870.925 0.565417 4.13654 0
M  V30 9327 H 872.315 4.51985 4.97151 0
M  V30 9328 N 875.035 -1.20752 1.01276 0
M  V30 9329 C 875.945 -2.27079 0.589277 0
M  V30 9330 C 876.961 -1.6999 -0.371389 0
M  V30 9331 O 878.137 -2.00044 -0.233294 0
M  V30 9332 C 875.202 -3.4663 -0.0696715 0
M  V30 9333 C 874.263 -4.18962 0.936454 0
M  V30 9334 C 873.496 -5.32806 0.308856 0
M  V30 9335 O 873.719 -5.63376 -0.8924 0
M  V30 9336 O 872.653 -5.93131 1.02367 0
M  V30 9337 H 876.479 -2.6551 1.47438 0
M  V30 9338 H 874.064 -1.27297 0.782045 0
M  V30 9339 H 875.946 -4.19119 -0.437873 0
M  V30 9340 H 874.621 -3.10082 -0.929029 0
M  V30 9341 H 873.528 -3.48661 1.35595 0
M  V30 9342 H 874.861 -4.59441 1.76565 0
M  V30 9343 N 876.513 -0.788492 -1.36457 0
M  V30 9344 C 877.759 -0.360995 -1.99561 0
M  V30 9345 C 878.092 1.06433 -1.62437 0
M  V30 9346 O 877.367 1.7352 -0.878705 0
M  V30 9347 C 877.65 -0.523735 -3.56271 0
M  V30 9348 C 877.503 -1.99268 -4.03252 0
M  V30 9349 C 878.822 0.0617908 -4.40057 0
M  V30 9350 H 875.941 -0.13264 -0.724966 0
M  V30 9351 H 878.583 -0.994659 -1.61884 0
M  V30 9352 H 876.733 0.0156979 -3.88497 0
M  V30 9353 H 878.405 -2.59311 -3.81518 0
M  V30 9354 H 876.648 -2.49561 -3.54826 0
M  V30 9355 H 877.319 -2.05752 -5.12221 0
M  V30 9356 H 879.795 -0.398674 -4.14186 0
M  V30 9357 H 878.671 -0.0821089 -5.48839 0
M  V30 9358 H 878.932 1.15381 -4.26778 0
M  V30 9359 N 877.991 1.48044 -0.54043 0
M  V30 9360 C 878.921 2.32597 0.205178 0
M  V30 9361 C 879.902 1.42748 0.925041 0
M  V30 9362 O 881.087 1.71624 0.908784 0
M  V30 9363 C 878.217 3.24175 1.24612 0
M  V30 9364 C 877.171 4.23131 0.64376 0
M  V30 9365 C 876.497 5.03915 1.78812 0
M  V30 9366 C 877.797 5.20831 -0.39144 0
M  V30 9367 H 879.491 2.95184 -0.500676 0
M  V30 9368 H 877.037 1.41948 -0.242225 0
M  V30 9369 H 878.99 3.82158 1.77576 0
M  V30 9370 H 877.714 2.59608 1.98169 0
M  V30 9371 H 876.373 3.66349 0.135554 0
M  V30 9372 H 876.021 4.35765 2.51232 0
M  V30 9373 H 875.721 5.709 1.39094 0
M  V30 9374 H 877.245 5.64753 2.32134 0
M  V30 9375 H 878.659 5.73277 0.0515064 0
M  V30 9376 H 877.056 5.95926 -0.706569 0
M  V30 9377 H 878.126 4.6733 -1.29345 0
M  V30 9378 N 879.47 0.276058 1.55163 0
M  V30 9379 C 880.71 -0.341634 2.01525 0
M  V30 9380 C 881.074 -1.52979 1.16023 0
M  V30 9381 O 882.275 -2.21718 1.51968 0
M  V30 9382 C 880.546 -0.713294 3.5021 0
M  V30 9383 S 882.105 -1.31739 4.18558 0
M  V30 9384 H 878.923 -0.1062 0.703024 0
M  V30 9385 H 881.525 0.398112 1.91404 0
M  V30 9386 H 880.229 0.160311 4.10087 0
M  V30 9387 H 879.76 -1.48448 3.64317 0
M  V30 9388 H 881.775 -2.60595 4.22261 0
M  V30 9389 N 880.948 -1.576 0.00335426 0
M  V30 9390 C 882.364 -1.55653 -0.352766 0
M  V30 9391 C 882.564 -1.00632 -1.74572 0
M  V30 9392 O 881.62 -0.641621 -2.44212 0
M  V30 9393 C 882.933 -2.99858 -0.224929 0
M  V30 9394 C 884.481 -3.11563 -0.299619 0
M  V30 9395 C 884.956 -4.57559 -0.200868 0
M  V30 9396 N 886.447 -4.62477 -0.258663 0
M  V30 9397 C 887.182 -5.73031 -0.205644 0
M  V30 9398 N 886.678 -6.92723 -0.103027 0
M  V30 9399 N 888.471 -5.61509 -0.257754 0
M  V30 9400 H 880.622 -1.91703 0.914539 0
M  V30 9401 H 882.885 -0.88068 0.350865 0
M  V30 9402 H 882.591 -3.43964 0.733595 0
M  V30 9403 H 882.465 -3.63547 -1.00564 0
M  V30 9404 H 884.852 -2.67384 -1.24859 0
M  V30 9405 H 884.933 -2.50644 0.511025 0
M  V30 9406 H 884.577 -5.02413 0.744572 0
M  V30 9407 H 884.507 -5.16428 -1.03004 0
M  V30 9408 H 886.998 -3.76375 -0.339168 0
M  V30 9409 H 887.311 -7.7277 -0.0685593 0
M  V30 9410 H 885.656 -6.94966 -0.0686069 0
M  V30 9411 H 888.847 -4.66892 -0.336142 0
M  V30 9412 H 889.02 -6.4765 -0.21297 0
M  V30 9413 N 882.426 0.269451 -1.5528 0
M  V30 9414 C 883.672 0.997946 -1.77236 0
M  V30 9415 C 884.027 1.83808 -0.568546 0
M  V30 9416 O 883.32 1.8651 0.438706 0
M  V30 9417 C 883.514 1.91 -3.02082 0
M  V30 9418 C 883.343 1.15963 -4.34491 0
M  V30 9419 C 882.113 0.873873 -4.97686 0
M  V30 9420 C 884.311 0.548307 -5.11369 0
M  V30 9421 N 882.293 0.0970863 -6.13823 0
M  V30 9422 C 883.664 -0.0941413 -6.19929 0
M  V30 9423 C 885.719 0.456507 -4.95803 0
M  V30 9424 C 884.422 -0.819547 -7.14616 0
M  V30 9425 C 886.448 -0.255315 -5.90849 0
M  V30 9426 C 885.81 -0.886488 -6.988 0
M  V30 9427 H 881.909 0.347038 -0.700777 0
M  V30 9428 H 884.493 0.273262 -1.92773 0
M  V30 9429 H 882.664 2.60691 -2.87915 0
M  V30 9430 H 884.396 2.57237 -3.12428 0
M  V30 9431 H 881.151 1.18003 -4.58663 0
M  V30 9432 H 881.575 -0.278741 -6.76426 0
M  V30 9433 H 886.217 0.930164 -4.12441 0
M  V30 9434 H 883.935 -1.30488 -7.97495 0
M  V30 9435 H 887.521 -0.32671 -5.80882 0
M  V30 9436 H 886.401 -1.42851 -7.71079 0
M  V30 9437 N 883.904 1.48273 0.534124 0
M  V30 9438 C 885.153 1.55334 1.28663 0
M  V30 9439 C 885.466 0.230345 1.94239 0
M  V30 9440 O 886.672 0.179161 2.70908 0
M  V30 9441 C 885.128 2.73927 2.33435 0
M  V30 9442 C 884.736 4.12852 1.73947 0
M  V30 9443 C 886.48 2.90298 3.09722 0
M  V30 9444 C 884.387 5.22711 2.76636 0
M  V30 9445 H 883.317 0.578262 0.483869 0
M  V30 9446 H 885.968 1.74598 0.564602 0
M  V30 9447 H 884.35 2.48089 3.08655 0
M  V30 9448 H 885.524 4.48691 1.04944 0
M  V30 9449 H 883.839 4.01562 1.10167 0
M  V30 9450 H 886.436 3.69542 3.86449 0
M  V30 9451 H 886.779 1.99598 3.6533 0
M  V30 9452 H 887.312 3.16017 2.41616 0
M  V30 9453 H 884.051 6.15362 2.25852 0
M  V30 9454 H 883.571 4.91364 3.43979 0
M  V30 9455 H 885.25 5.50648 3.39699 0
M  V30 9456 N 885.382 -0.782676 1.36792 0
M  V30 9457 C 886.312 -1.90973 1.34356 0
M  V30 9458 C 887.293 -1.6875 0.213917 0
M  V30 9459 O 888.478 -1.89766 0.412601 0
M  V30 9460 C 885.608 -3.28097 1.13884 0
M  V30 9461 C 884.562 -3.6486 2.23744 0
M  V30 9462 C 883.888 -5.00406 1.88408 0
M  V30 9463 C 885.188 -3.72742 3.6587 0
M  V30 9464 H 886.882 -1.93268 2.28665 0
M  V30 9465 H 884.428 -0.928447 1.10072 0
M  V30 9466 H 886.381 -4.06569 1.10813 0
M  V30 9467 H 885.105 -3.26206 0.160275 0
M  V30 9468 H 883.764 -2.88689 2.25952 0
M  V30 9469 H 883.412 -4.95044 0.891083 0
M  V30 9470 H 883.112 -5.25973 2.61966 0
M  V30 9471 H 884.636 -5.81291 1.86905 0
M  V30 9472 H 886.05 -4.4139 3.65852 0
M  V30 9473 H 884.447 -4.09798 4.38389 0
M  V30 9474 H 885.517 -2.73676 4.00287 0
M  V30 9475 N 886.86 -1.21182 -1.00761 0
M  V30 9476 C 888.085 -1.05411 -1.78615 0
M  V30 9477 C 888.51 0.391837 -1.83973 0
M  V30 9478 O 887.868 1.28256 -1.28141 0
M  V30 9479 C 887.916 -1.65285 -3.20489 0
M  V30 9480 O 887.02 -0.896558 -4.02536 0
M  V30 9481 H 886.361 -0.37116 -0.550578 0
M  V30 9482 H 888.891 -1.60669 -1.26676 0
M  V30 9483 H 888.901 -1.69397 -3.71172 0
M  V30 9484 H 887.576 -2.70514 -3.15904 0
M  V30 9485 H 886.153 -0.930335 -3.61108 0
M  V30 9486 N 888.338 1.20213 -1.01915 0
M  V30 9487 C 889.584 1.89928 -0.711007 0
M  V30 9488 C 889.917 1.7881 0.75767 0
M  V30 9489 O 889.192 1.17399 1.55073 0
M  V30 9490 C 889.475 3.41225 -1.15053 0
M  V30 9491 C 889.328 3.61264 -2.67971 0
M  V30 9492 C 890.647 4.34108 -0.72377 0
M  V30 9493 H 887.766 0.689702 -0.259768 0
M  V30 9494 H 890.408 1.41557 -1.26734 0
M  V30 9495 H 888.558 3.82552 -0.677199 0
M  V30 9496 H 890.23 3.29173 -3.23176 0
M  V30 9497 H 888.473 3.04647 -3.08824 0
M  V30 9498 H 889.144 4.67331 -2.93779 0
M  V30 9499 H 891.62 4.00442 -1.13073 0
M  V30 9500 H 890.496 5.38581 -1.05931 0
M  V30 9501 H 890.757 4.40512 0.374424 0
M  V30 9502 N 889.816 0.795718 1.36037 0
M  V30 9503 C 890.763 0.196548 2.29962 0
M  V30 9504 C 891.733 -0.663213 1.52285 0
M  V30 9505 O 892.918 -0.610574 1.80767 0
M  V30 9506 C 890.058 -0.657639 3.38776 0
M  V30 9507 C 889.171 0.221358 4.31433 0
M  V30 9508 C 888.306 -0.6398 5.27333 0
M  V30 9509 C 887.345 0.240265 6.11628 0
M  V30 9510 N 886.482 -0.580237 6.99698 0
M  V30 9511 H 891.322 1.00295 2.80615 0
M  V30 9512 H 888.859 0.506147 1.38118 0
M  V30 9513 H 890.817 -1.16793 4.00519 0
M  V30 9514 H 889.447 -1.42941 2.89426 0
M  V30 9515 H 888.499 0.84967 3.70789 0
M  V30 9516 H 889.811 0.899195 4.90628 0
M  V30 9517 H 888.965 -1.21566 5.94396 0
M  V30 9518 H 887.704 -1.35124 4.68607 0
M  V30 9519 H 886.709 0.828474 5.43522 0
M  V30 9520 H 887.934 0.949403 6.72431 0
M  V30 9521 H 885.88 -1.27585 6.43473 0
M  V30 9522 H 885.797 0.0397853 7.5599 0
M  V30 9523 H 887.065 -1.13972 7.71123 0
M  V30 9524 N 891.294 -1.47756 0.548274 0
M  V30 9525 C 892.241 -2.29893 -0.204408 0
M  V30 9526 C 893.211 -1.38509 -0.916761 0
M  V30 9527 O 894.396 -1.67472 -0.91421 0
M  V30 9528 C 891.536 -3.22282 -1.23403 0
M  V30 9529 C 890.649 -4.28753 -0.528654 0
M  V30 9530 C 889.784 -5.08303 -1.54279 0
M  V30 9531 C 888.823 -6.06557 -0.821893 0
M  V30 9532 N 887.96 -6.79098 -1.78243 0
M  V30 9533 H 892.8 -2.93739 0.502163 0
M  V30 9534 H 890.337 -1.44793 0.259471 0
M  V30 9535 H 892.295 -3.74262 -1.84348 0
M  V30 9536 H 890.925 -2.6032 -1.90875 0
M  V30 9537 H 889.977 -3.79899 0.195132 0
M  V30 9538 H 891.289 -4.98787 0.0365066 0
M  V30 9539 H 890.443 -5.64388 -2.22602 0
M  V30 9540 H 889.182 -4.3815 -2.14186 0
M  V30 9541 H 888.187 -5.49659 -0.12469 0
M  V30 9542 H 889.412 -6.78715 -0.228685 0
M  V30 9543 H 887.358 -6.11682 -2.37025 0
M  V30 9544 H 887.275 -7.4527 -1.26919 0
M  V30 9545 H 888.543 -7.39762 -2.45709 0
M  V30 9546 N 892.772 -0.284283 -1.55015 0
M  V30 9547 C 893.72 0.615091 -2.2432 0
M  V30 9548 C 894.714 1.15051 -1.24337 0
M  V30 9549 O 895.92 1.10308 -1.4224 0
M  V30 9550 H 892.295 0.216927 -0.720033 0
M  V30 9551 H 894.266 0.00783216 -2.98399 0
M  V30 9552 C 893.015 1.78355 -2.98471 0
M  V30 9553 H 892.338 1.38076 -3.752 0
M  V30 9554 H 893.778 2.38927 -3.50271 0
M  V30 9555 C 892.237 2.67757 -2.04469 0
M  V30 9556 O 892.767 3.6838 -1.60185 0
M  V30 9557 N 890.973 2.35125 -1.70776 0
M  V30 9558 H 890.52 1.53346 -2.06985 0
M  V30 9559 H 890.478 2.95212 -1.08153 0
M  V30 9560 N 894.251 1.57596 -0.0117121 0
M  V30 9561 C 895.481 1.95077 0.680346 0
M  V30 9562 C 895.889 0.885793 1.67184 0
M  V30 9563 O 895.232 -0.142723 1.83145 0
M  V30 9564 C 895.294 3.28611 1.45791 0
M  V30 9565 C 894.958 4.52682 0.626706 0
M  V30 9566 C 895.955 5.19821 -0.0906223 0
M  V30 9567 C 893.64 4.99064 0.569229 0
M  V30 9568 C 895.634 6.31649 -0.854289 0
M  V30 9569 C 893.321 6.10779 -0.198155 0
M  V30 9570 C 894.319 6.76929 -0.908636 0
M  V30 9571 O 894.007 7.86501 -1.66348 0
M  V30 9572 H 893.739 0.647663 0.193672 0
M  V30 9573 H 896.293 2.05305 -0.0624969 0
M  V30 9574 H 894.523 3.14824 2.2455 0
M  V30 9575 H 896.212 3.51119 2.03642 0
M  V30 9576 H 896.978 4.84968 -0.0554421 0
M  V30 9577 H 892.857 4.47393 1.11178 0
M  V30 9578 H 896.401 6.83215 -1.40937 0
M  V30 9579 H 892.298 6.45072 -0.235114 0
M  V30 9580 H 893.066 8.03078 -1.58141 0
M  V30 9581 N 895.729 -0.261212 1.5542 0
M  V30 9582 C 897.145 -0.609012 1.47524 0
M  V30 9583 C 897.345 -1.88986 0.699042 0
M  V30 9584 O 896.401 -2.51517 0.222628 0
M  V30 9585 C 897.714 -0.725025 2.91828 0
M  V30 9586 C 899.262 -0.818302 3.02114 0
M  V30 9587 C 899.737 -0.965996 4.47697 0
M  V30 9588 N 901.228 -1.03123 4.51575 0
M  V30 9589 C 901.963 -1.16451 5.6145 0
M  V30 9590 N 901.459 -1.26425 6.81167 0
M  V30 9591 N 903.252 -1.19655 5.49217 0
M  V30 9592 H 895.403 0.579807 2.04333 0
M  V30 9593 H 897.666 0.198072 0.927077 0
M  V30 9594 H 897.372 0.145871 3.51397 0
M  V30 9595 H 897.246 -1.60156 3.41511 0
M  V30 9596 H 899.633 -1.67966 2.42634 0
M  V30 9597 H 899.714 0.0830895 2.55665 0
M  V30 9598 H 899.358 -0.109251 5.07782 0
M  V30 9599 H 899.288 -1.88221 4.91813 0
M  V30 9600 H 901.779 -0.966072 3.65343 0
M  V30 9601 H 902.092 -1.36462 7.60656 0
M  V30 9602 H 900.437 -1.23408 6.83956 0
M  V30 9603 H 903.628 -1.11501 4.54626 0
M  V30 9604 H 903.801 -1.29698 6.34888 0
M  V30 9605 N 897.207 -1.48554 -0.526253 0
M  V30 9606 C 898.154 -1.63354 -1.63046 0
M  V30 9607 C 899.124 -0.475509 -1.59148 0
M  V30 9608 O 900.309 -0.699453 -1.77517 0
M  V30 9609 C 897.449 -1.68271 -3.01295 0
M  V30 9610 C 896.562 -2.95207 -3.15399 0
M  V30 9611 C 895.697 -2.91262 -4.4423 0
M  V30 9612 C 894.736 -4.12886 -4.51876 0
M  V30 9613 N 893.873 -4.06996 -5.721 0
M  V30 9614 H 898.713 -2.57649 -1.49737 0
M  V30 9615 H 896.25 -1.27769 -0.728938 0
M  V30 9616 H 898.208 -1.69104 -3.81392 0
M  V30 9617 H 896.838 -0.774641 -3.13367 0
M  V30 9618 H 895.89 -3.04102 -2.2853 0
M  V30 9619 H 897.202 -3.85187 -3.1691 0
M  V30 9620 H 896.356 -2.90516 -5.32621 0
M  V30 9621 H 895.095 -1.99016 -4.45246 0
M  V30 9622 H 894.1 -4.13902 -3.61891 0
M  V30 9623 H 895.325 -5.06294 -4.52596 0
M  V30 9624 H 893.271 -3.17573 -5.74006 0
M  V30 9625 H 893.188 -4.90685 -5.75121 0
M  V30 9626 H 894.456 -4.10315 -6.62768 0
M  V30 9627 N 898.685 0.775411 -1.37205 0
M  V30 9628 C 899.633 1.90996 -1.32752 0
M  V30 9629 C 900.627 1.68006 -0.216907 0
M  V30 9630 O 901.833 1.7584 -0.384723 0
M  V30 9631 H 898.208 0.62803 -0.413621 0
M  V30 9632 H 900.179 1.91869 -2.28536 0
M  V30 9633 C 898.928 3.28211 -1.14772 0
M  V30 9634 H 898.251 3.46477 -1.99484 0
M  V30 9635 H 899.691 4.07907 -1.15706 0
M  V30 9636 C 898.15 3.3658 0.146852 0
M  V30 9637 O 898.68 3.85428 1.13173 0
M  V30 9638 N 896.886 2.89936 0.196305 0
M  V30 9639 H 896.433 2.50375 -0.605807 0
M  V30 9640 H 896.391 2.95916 1.06212 0
M  V30 9641 N 900.163 1.21714 1.00117 0
M  V30 9642 C 901.409 1.03823 1.74208 0
M  V30 9643 C 901.742 -0.426733 1.89454 0
M  V30 9644 O 901.017 -1.31658 1.43166 0
M  V30 9645 C 901.3 1.74047 3.15246 0
M  V30 9646 C 901.153 3.28087 3.077 0
M  V30 9647 C 902.472 1.48614 4.14249 0
M  V30 9648 H 899.591 0.378573 0.632338 0
M  V30 9649 H 902.233 1.49942 1.16694 0
M  V30 9650 H 900.383 1.3484 3.64349 0
M  V30 9651 H 902.055 3.76686 2.6628 0
M  V30 9652 H 900.298 3.58191 2.44707 0
M  V30 9653 H 900.969 3.72392 4.07466 0
M  V30 9654 H 903.445 1.82656 3.73866 0
M  V30 9655 H 902.321 2.00257 5.11066 0
M  V30 9656 H 902.582 0.416957 4.40129 0
M  V30 9657 N 901.641 -1.19671 1.02551 0
M  V30 9658 C 902.604 -2.20987 0.608055 0
M  V30 9659 C 903.604 -1.5745 -0.326534 0
M  V30 9660 O 904.794 -1.73827 -0.114003 0
M  V30 9661 C 901.926 -3.4072 -0.11074 0
M  V30 9662 H 903.119 -2.59434 1.50446 0
M  V30 9663 H 900.672 -1.3329 0.816307 0
M  V30 9664 H 901.407 -3.07787 -1.02165 0
M  V30 9665 H 901.192 -3.88069 0.560772 0
M  V30 9666 H 902.682 -4.15776 -0.389848 0
M  V30 9667 N 903.119 -0.802921 -1.35613 0
M  V30 9668 C 904.349 -0.393359 -2.02821 0
M  V30 9669 C 904.757 0.999282 -1.60658 0
M  V30 9670 O 904.1 1.65463 -0.797977 0
M  V30 9671 C 904.162 -0.393102 -3.57344 0
M  V30 9672 C 903.826 -1.73563 -4.22759 0
M  V30 9673 C 904.823 -2.69333 -4.44698 0
M  V30 9674 C 902.508 -2.01863 -4.59953 0
M  V30 9675 C 904.502 -3.91589 -5.02928 0
M  V30 9676 C 902.189 -3.24383 -5.17898 0
M  V30 9677 C 903.187 -4.19064 -5.39328 0
M  V30 9678 O 902.875 -5.39422 -5.96053 0
M  V30 9679 H 902.607 -0.158431 -0.657172 0
M  V30 9680 H 905.161 -1.08682 -1.74291 0
M  V30 9681 H 903.391 0.356934 -3.85049 0
M  V30 9682 H 905.08 -0.00635596 -4.059 0
M  V30 9683 H 905.846 -2.48759 -4.16346 0
M  V30 9684 H 901.725 -1.28979 -4.42589 0
M  V30 9685 H 905.269 -4.65502 -5.1957 0
M  V30 9686 H 901.166 -3.44829 -5.45677 0
M  V30 9687 H 901.934 -5.40669 -6.14507 0
M  V30 9688 N 904.597 1.47463 -0.556102 0
M  V30 9689 C 905.547 2.27007 0.212592 0
M  V30 9690 C 906.531 1.34288 0.886312 0
M  V30 9691 O 907.723 1.5865 0.784801 0
M  V30 9692 C 904.852 3.20021 1.24263 0
M  V30 9693 C 903.938 4.2022 0.572385 0
M  V30 9694 N 904.329 5.04539 -0.35691 0
M  V30 9695 C 902.627 4.38276 0.826441 0
M  V30 9696 C 903.328 5.76895 -0.746134 0
M  V30 9697 N 902.304 5.43506 -0.101225 0
M  V30 9698 H 906.106 2.89582 -0.501925 0
M  V30 9699 H 903.62 1.57988 -0.375961 0
M  V30 9700 H 905.617 3.7569 1.80728 0
M  V30 9701 H 904.277 2.59003 1.95826 0
M  V30 9702 H 905.288 5.12715 -0.731012 0
M  V30 9703 H 901.965 3.88429 1.53066 0
M  V30 9704 H 903.355 6.5472 -1.50967 0
M  V30 9705 N 906.075 0.2925 1.54862 0
M  V30 9706 C 907.023 -0.603186 2.24643 0
M  V30 9707 C 908.017 -1.1439 1.24946 0
M  V30 9708 O 909.223 -1.09552 1.42823 0
M  V30 9709 H 905.598 -0.213105 0.721173 0
M  V30 9710 H 907.569 0.00799278 2.98399 0
M  V30 9711 C 906.318 -1.76769 2.99413 0
M  V30 9712 H 905.641 -1.36084 3.75927 0
M  V30 9713 H 907.081 -2.37066 3.51533 0
M  V30 9714 C 905.54 -2.66669 2.05886 0
M  V30 9715 O 906.07 -3.67525 1.62136 0
M  V30 9716 N 904.276 -2.34216 1.7202 0
M  V30 9717 H 903.823 -1.52246 2.07795 0
M  V30 9718 H 903.781 -2.94635 1.09717 0
M  V30 9719 N 907.553 -1.57587 0.0200696 0
M  V30 9720 C 908.799 -1.92539 -0.655764 0
M  V30 9721 C 909.154 -0.896187 -1.70253 0
M  V30 9722 O 908.447 0.0890022 -1.91393 0
M  V30 9723 C 908.641 -3.32002 -1.32323 0
M  V30 9724 C 908.47 -4.48393 -0.342632 0
M  V30 9725 C 907.24 -5.05271 0.0542423 0
M  V30 9726 C 909.438 -5.12747 0.399388 0
M  V30 9727 N 907.42 -6.05181 1.03095 0
M  V30 9728 C 908.791 -6.07674 1.23014 0
M  V30 9729 C 910.846 -4.95761 0.461065 0
M  V30 9730 C 909.549 -6.87442 2.11698 0
M  V30 9731 C 911.575 -5.7613 1.33521 0
M  V30 9732 C 910.937 -6.70666 2.15376 0
M  V30 9733 H 907.036 -0.75256 -0.212549 0
M  V30 9734 H 909.62 -1.94514 0.0851247 0
M  V30 9735 H 907.791 -3.30863 -2.0343 0
M  V30 9736 H 909.523 -3.54327 -1.95537 0
M  V30 9737 H 906.278 -4.72529 -0.318327 0
M  V30 9738 H 906.702 -6.59824 1.51528 0
M  V30 9739 H 911.344 -4.22506 -0.15752 0
M  V30 9740 H 909.062 -7.60008 2.74616 0
M  V30 9741 H 912.648 -5.65023 1.38711 0
M  V30 9742 H 911.528 -7.31772 2.81922 0
M  V30 9743 N 909.032 0.252966 -1.55557 0
M  V30 9744 C 910.448 0.60118 -1.47844 0
M  V30 9745 C 910.648 1.88612 -0.709055 0
M  V30 9746 O 909.704 2.51395 -0.235964 0
M  V30 9747 C 911.017 0.709539 -2.92209 0
M  V30 9748 C 912.565 0.802269 -3.02544 0
M  V30 9749 C 913.04 0.94224 -4.48203 0
M  V30 9750 N 914.531 1.00726 -4.52116 0
M  V30 9751 C 915.266 1.13472 -5.6206 0
M  V30 9752 N 914.762 1.22811 -6.81828 0
M  V30 9753 N 916.555 1.1674 -5.49844 0
M  V30 9754 H 908.706 -0.590635 -2.04023 0
M  V30 9755 H 910.969 -0.202986 -0.926013 0
M  V30 9756 H 910.675 -0.164505 -3.51315 0
M  V30 9757 H 910.549 1.58343 -3.42356 0
M  V30 9758 H 912.936 1.66677 -2.43522 0
M  V30 9759 H 913.017 -0.0966469 -2.55617 0
M  V30 9760 H 912.661 0.0823209 -5.07833 0
M  V30 9761 H 912.591 1.85611 -4.92805 0
M  V30 9762 H 915.082 0.946684 -3.6585 0
M  V30 9763 H 915.395 1.32426 -7.61369 0
M  V30 9764 H 913.74 1.19779 -6.84601 0
M  V30 9765 H 916.931 1.09089 -4.55211 0
M  V30 9766 H 917.104 1.26329 -6.35567 0
M  V30 9767 N 910.51 1.48831 0.518367 0
M  V30 9768 C 911.46 1.60614 1.61824 0
M  V30 9769 C 912.444 0.462631 1.54106 0
M  V30 9770 O 913.636 0.714689 1.6193 0
M  V30 9771 C 910.765 1.65984 3.00507 0
M  V30 9772 C 909.851 2.85854 3.13286 0
M  V30 9773 N 910.242 4.1014 2.96005 0
M  V30 9774 C 908.54 2.83429 3.4436 0
M  V30 9775 C 909.241 4.90626 3.12508 0
M  V30 9776 N 908.217 4.2366 3.40607 0
M  V30 9777 H 912.019 2.54443 1.47091 0
M  V30 9778 H 909.533 1.45363 0.724102 0
M  V30 9779 H 911.53 1.72521 3.79529 0
M  V30 9780 H 910.19 0.732792 3.16323 0
M  V30 9781 H 911.201 4.40395 2.72531 0
M  V30 9782 H 907.878 2.0003 3.66462 0
M  V30 9783 H 909.268 5.99302 3.03786 0
M  V30 9784 N 911.988 -0.768124 1.37614 0
M  V30 9785 C 912.951 -1.86314 1.3349 0
M  V30 9786 C 913.951 -1.59025 0.23823 0
M  V30 9787 O 915.141 -1.6704 0.494288 0
M  V30 9788 C 912.273 -3.23519 1.07462 0
M  V30 9789 H 913.466 -1.91382 2.30896 0
M  V30 9790 H 911.019 -0.968267 1.22696 0
M  V30 9791 H 911.754 -3.24127 0.106028 0
M  V30 9792 H 911.539 -3.44719 1.86846 0
M  V30 9793 H 913.029 -4.03597 1.07236 0
M  V30 9794 N 913.466 -1.22244 -0.994698 0
M  V30 9795 C 914.713 -1.04591 -1.73398 0
M  V30 9796 C 915.041 0.419223 -1.89928 0
M  V30 9797 O 914.296 1.32714 -1.43824 0
M  V30 9798 C 914.595 -1.70014 -3.14372 0
M  V30 9799 C 914.261 -3.19903 -3.17762 0
M  V30 9800 C 912.923 -3.60803 -3.18394 0
M  V30 9801 C 915.275 -4.15851 -3.14194 0
M  V30 9802 C 912.603 -4.96135 -3.13157 0
M  V30 9803 C 914.955 -5.51157 -3.10498 0
M  V30 9804 C 913.619 -5.91439 -3.09445 0
M  V30 9805 H 912.889 -0.382725 -0.63451 0
M  V30 9806 H 915.536 -1.51981 -1.16508 0
M  V30 9807 H 913.841 -1.14945 -3.7456 0
M  V30 9808 H 915.538 -1.53848 -3.70313 0
M  V30 9809 H 912.128 -2.87336 -3.18019 0
M  V30 9810 H 916.312 -3.85272 -3.12857 0
M  V30 9811 H 911.568 -5.26578 -3.10685 0
M  V30 9812 H 915.742 -6.2523 -3.06692 0
M  V30 9813 H 913.369 -6.96271 -3.05141 0
M  V30 9814 N 914.944 1.19125 -1.03184 0
M  V30 9815 C 915.892 2.24492 -0.608781 0
M  V30 9816 C 916.886 1.65529 0.360065 0
M  V30 9817 O 918.092 1.78546 0.22832 0
M  V30 9818 H 914.467 0.73048 -0.178616 0
M  V30 9819 H 916.438 2.5749 -1.50803 0
M  V30 9820 C 915.187 3.47693 0.0215126 0
M  V30 9821 H 914.51 3.93354 -0.715024 0
M  V30 9822 H 915.95 4.23072 0.280429 0
M  V30 9823 C 914.409 3.12088 1.26896 0
M  V30 9824 O 914.939 3.25013 2.36071 0
M  V30 9825 N 913.145 2.66494 1.15886 0
M  V30 9826 H 912.692 2.56176 0.270463 0
M  V30 9827 H 912.65 2.43042 1.99444 0
M  V30 9828 N 916.422 0.810101 1.35185 0
M  V30 9829 C 917.65 0.404696 2.02903 0
M  V30 9830 C 918.065 -0.985434 1.61042 0
M  V30 9831 O 917.422 -1.63557 0.809658 0
M  V30 9832 C 917.473 0.482493 3.58266 0
M  V30 9833 O 917.194 1.81782 3.98606 0
M  V30 9834 C 918.695 0.070345 4.43244 0
M  V30 9835 H 915.915 0.163972 0.650657 0
M  V30 9836 H 918.459 1.0947 1.72733 0
M  V30 9837 H 916.614 -0.159296 3.87072 0
M  V30 9838 H 917.028 1.78306 4.93262 0
M  V30 9839 H 918.502 0.175888 5.5172 0
M  V30 9840 H 918.979 -0.984724 4.28018 0
M  V30 9841 H 919.585 0.685427 4.1974 0
M  V30 9842 N 917.9 -1.47166 0.563914 0
M  V30 9843 C 918.863 -2.28571 -0.169624 0
M  V30 9844 C 919.863 -1.37331 -0.836467 0
M  V30 9845 O 921.053 -1.59896 -0.6913 0
M  V30 9846 C 918.185 -3.17201 -1.24886 0
M  V30 9847 H 919.378 -2.94896 0.545539 0
M  V30 9848 H 916.931 -1.52966 0.321121 0
M  V30 9849 H 917.666 -2.55582 -1.99621 0
M  V30 9850 H 917.451 -3.84356 -0.775426 0
M  V30 9851 H 918.941 -3.7852 -1.76388 0
M  V30 9852 N 919.378 -0.300708 -1.54705 0
M  V30 9853 C 920.31 0.609179 -2.20956 0
M  V30 9854 C 921.323 1.09776 -1.20221 0
M  V30 9855 O 922.512 1.01527 -1.46815 0
M  V30 9856 C 919.612 1.84595 -2.84214 0
M  V30 9857 C 918.785 1.49991 -4.10879 0
M  V30 9858 C 917.844 2.5918 -4.57943 0
M  V30 9859 O 916.87 2.24285 -5.23149 0
M  V30 9860 N 918.072 3.89714 -4.30236 0
M  V30 9861 H 920.837 0.0420111 -2.99671 0
M  V30 9862 H 918.398 -0.122896 -1.61433 0
M  V30 9863 H 920.39 2.56988 -3.12633 0
M  V30 9864 H 918.96 2.32152 -2.09342 0
M  V30 9865 H 918.18 0.608637 -3.89473 0
M  V30 9866 H 919.468 1.24409 -4.93356 0
M  V30 9867 H 918.866 4.20874 -3.77997 0
M  V30 9868 H 917.423 4.58406 -4.63365 0
M  V30 9869 N 920.856 1.57574 -0.0284266 0
M  V30 9870 C 922.096 1.93637 0.65453 0
M  V30 9871 C 922.46 0.905015 1.69332 0
M  V30 9872 O 923.661 1.15181 2.42872 0
M  V30 9873 C 921.932 3.3462 1.25555 0
M  V30 9874 S 923.491 3.92609 1.95968 0
M  V30 9875 H 920.309 0.67755 0.215516 0
M  V30 9876 H 922.911 1.95284 -0.0919257 0
M  V30 9877 H 921.615 4.07499 0.487069 0
M  V30 9878 H 921.146 3.36415 2.03933 0
M  V30 9879 H 923.161 3.75988 3.23802 0
M  V30 9880 N 922.334 -0.244713 1.55689 0
M  V30 9881 C 923.267 -1.32946 1.85474 0
M  V30 9882 C 924.245 -1.46279 0.710021 0
M  V30 9883 O 925.429 -1.62459 0.956004 0
M  V30 9884 C 922.556 -2.7027 2.04137 0
M  V30 9885 C 921.602 -2.74075 3.2678 0
M  V30 9886 S 922.435 -2.30465 4.8337 0
M  V30 9887 C 923.591 -3.69709 5.05041 0
M  V30 9888 H 923.824 -1.07482 2.77191 0
M  V30 9889 H 921.357 -0.445807 1.47824 0
M  V30 9890 H 923.315 -3.4934 2.15574 0
M  V30 9891 H 921.976 -2.9297 1.13259 0
M  V30 9892 H 921.169 -3.74932 3.36812 0
M  V30 9893 H 920.771 -2.03051 3.1408 0
M  V30 9894 H 923.063 -4.65222 4.92518 0
M  V30 9895 H 924.006 -3.6461 6.07014 0
M  V30 9896 H 924.414 -3.62323 4.32877 0
M  V30 9897 N 923.813 -1.49104 -0.510467 0
M  V30 9898 C 925.06 -1.58112 -1.26518 0
M  V30 9899 C 925.388 -0.263603 -1.92705 0
M  V30 9900 O 924.643 0.747743 -1.80852 0
M  V30 9901 C 924.942 -2.68259 -2.36161 0
M  V30 9902 C 924.608 -4.10069 -1.87495 0
M  V30 9903 C 923.27 -4.48662 -1.73942 0
M  V30 9904 C 925.622 -4.98859 -1.5096 0
M  V30 9905 C 922.95 -5.73829 -1.22217 0
M  V30 9906 C 925.302 -6.24535 -1.00691 0
M  V30 9907 C 923.966 -6.61967 -0.857691 0
M  V30 9908 H 923.236 -0.578574 -0.462962 0
M  V30 9909 H 925.883 -1.82899 -0.567475 0
M  V30 9910 H 924.188 -2.37407 -3.11681 0
M  V30 9911 H 925.885 -2.7244 -2.9424 0
M  V30 9912 H 922.475 -3.79601 -1.99001 0
M  V30 9913 H 926.659 -4.69706 -1.60282 0
M  V30 9914 H 921.915 -6.01539 -1.09368 0
M  V30 9915 H 926.089 -6.9272 -0.71498 0
M  V30 9916 H 923.716 -7.58839 -0.454702 0
M  V30 9917 N 925.291 0.760815 -1.38019 0
M  V30 9918 C 926.254 1.85604 -1.34476 0
M  V30 9919 C 927.254 1.58897 -0.24666 0
M  V30 9920 O 928.444 1.66776 -0.50314 0
M  V30 9921 C 925.576 3.22945 -1.09176 0
M  V30 9922 H 926.769 1.90155 -2.31908 0
M  V30 9923 H 924.322 0.961746 -1.23208 0
M  V30 9924 H 925.057 3.24066 -0.123216 0
M  V30 9925 H 924.842 3.43723 -1.88672 0
M  V30 9926 H 926.332 4.03022 -1.09375 0
M  V30 9927 N 926.769 1.22769 0.988202 0
M  V30 9928 C 927.732 1.00325 2.06076 0
M  V30 9929 C 928.732 -0.0320618 1.60768 0
M  V30 9930 O 929.922 0.206912 1.72967 0
M  V30 9931 C 927.054 0.516376 3.36966 0
M  V30 9932 H 928.247 1.95499 2.27421 0
M  V30 9933 H 925.8 1.04704 1.16047 0
M  V30 9934 H 926.535 -0.439498 3.21308 0
M  V30 9935 H 926.32 1.26337 3.71189 0
M  V30 9936 H 927.81 0.37974 4.1587 0
M  V30 9937 N 928.247 -1.18576 1.03814 0
M  V30 9938 C 929.177 -2.24334 0.647795 0
M  V30 9939 C 930.158 -1.66508 -0.34774 0
M  V30 9940 O 931.343 -1.92852 -0.228401 0
M  V30 9941 C 928.473 -3.47299 0.00734922 0
M  V30 9942 C 927.427 -4.17859 0.926152 0
M  V30 9943 C 926.753 -5.34489 0.150317 0
M  V30 9944 C 928.053 -4.71632 2.24411 0
M  V30 9945 H 929.747 -2.57241 1.53191 0
M  V30 9946 H 927.293 -1.23649 0.738028 0
M  V30 9947 H 929.246 -4.20486 -0.277434 0
M  V30 9948 H 927.97 -3.13619 -0.911626 0
M  V30 9949 H 926.629 -3.46567 1.19528 0
M  V30 9950 H 926.277 -4.97056 -0.770985 0
M  V30 9951 H 925.977 -5.82633 0.762407 0
M  V30 9952 H 927.501 -6.10467 -0.127508 0
M  V30 9953 H 928.915 -5.36526 2.02021 0
M  V30 9954 H 927.312 -5.303 2.80894 0
M  V30 9955 H 928.382 -3.89192 2.89236 0
M  V30 9956 N 929.725 -0.817259 -1.34754 0
M  V30 9957 C 930.672 -0.233108 -2.2962 0
M  V30 9958 C 931.642 0.638902 -1.53321 0
M  V30 9959 O 932.827 0.581739 -1.81715 0
M  V30 9960 C 929.967 0.603659 -3.39779 0
M  V30 9961 C 929.08 -0.289967 -4.31026 0
M  V30 9962 C 928.215 0.555825 -5.28284 0
M  V30 9963 C 927.254 -0.337539 -6.11169 0
M  V30 9964 N 926.391 0.468847 -7.00533 0
M  V30 9965 H 931.231 -1.04747 -2.78984 0
M  V30 9966 H 928.768 -0.528056 -1.37295 0
M  V30 9967 H 930.726 1.10407 -4.02326 0
M  V30 9968 H 929.356 1.38319 -2.91664 0
M  V30 9969 H 928.408 -0.908552 -3.69391 0
M  V30 9970 H 929.72 -0.977136 -4.89135 0
M  V30 9971 H 928.874 1.12094 -5.96255 0
M  V30 9972 H 927.613 1.27652 -4.70698 0
M  V30 9973 H 926.618 -0.914839 -5.42135 0
M  V30 9974 H 927.843 -1.05626 -6.70835 0
M  V30 9975 H 925.789 1.17332 -6.45422 0
M  V30 9976 H 925.706 -0.160052 -7.55831 0
M  V30 9977 H 926.974 1.01689 -7.72839 0
M  V30 9978 N 931.203 1.46865 -0.571711 0
M  V30 9979 C 932.166 2.28658 0.157499 0
M  V30 9980 C 933.166 1.37773 0.829172 0
M  V30 9981 O 934.356 1.6026 0.682811 0
M  V30 9982 C 931.488 3.17859 1.23202 0
M  V30 9983 H 932.681 2.94603 -0.561171 0
M  V30 9984 H 930.234 1.52793 -0.329229 0
M  V30 9985 H 930.969 2.56637 1.98262 0
M  V30 9986 H 930.754 3.84762 0.755031 0
M  V30 9987 H 932.244 3.7945 1.74378 0
M  V30 9988 N 932.681 0.308908 1.54543 0
M  V30 9989 C 933.929 -0.297447 1.99899 0
M  V30 9990 C 934.25 -1.53799 1.19878 0
M  V30 9991 O 933.52 -1.93639 0.29678 0
M  V30 9992 H 932.1 -0.112897 0.738419 0
M  V30 9993 H 934.762 0.422067 1.90275 0
M  V30 9994 H 933.858 -0.564016 3.06961 0
M  V30 9995 N 934.159 -1.57557 0.0367827 0
M  V30 9996 C 935.106 -2.10679 -0.942499 0
M  V30 9997 C 936.076 -1.01068 -1.31812 0
M  V30 9998 O 937.261 -1.28533 -1.41011 0
M  V30 9999 C 934.401 -2.64467 -2.21701 0
M  V30 10000 C 933.514 -3.88114 -1.89715 0
M  V30 10001 C 932.649 -4.30268 -3.11518 0
M  V30 10002 C 931.688 -5.46652 -2.75387 0
M  V30 10003 N 930.825 -5.83927 -3.89838 0
M  V30 10004 H 935.665 -2.94066 -0.482588 0
M  V30 10005 H 933.202 -1.45344 -0.226597 0
M  V30 10006 H 935.16 -2.93745 -2.96259 0
M  V30 10007 H 933.79 -1.83898 -2.65295 0
M  V30 10008 H 932.842 -3.65516 -1.05366 0
M  V30 10009 H 934.154 -4.72743 -1.5911 0
M  V30 10010 H 933.308 -4.61023 -3.94389 0
M  V30 10011 H 932.047 -3.44421 -3.4529 0
M  V30 10012 H 931.052 -5.15583 -1.90929 0
M  V30 10013 H 932.277 -6.34204 -2.42822 0
M  V30 10014 H 930.223 -5.01035 -4.23438 0
M  V30 10015 H 930.14 -6.63214 -3.62883 0
M  V30 10016 H 931.408 -6.19291 -4.73391 0
M  V30 10017 N 935.637 0.236453 -1.55816 0
M  V30 10018 C 936.886 0.960981 -1.77336 0
M  V30 10019 C 937.199 1.86085 -0.602641 0
M  V30 10020 O 938.405 2.62291 -0.701106 0
M  V30 10021 C 936.861 1.75884 -3.13995 0
M  V30 10022 C 936.469 0.905849 -4.38746 0
M  V30 10023 C 938.213 2.47548 -3.44848 0
M  V30 10024 C 936.12 1.7002 -5.66434 0
M  V30 10025 H 935.05 0.362547 -0.661117 0
M  V30 10026 H 937.701 0.215303 -1.82233 0
M  V30 10027 H 936.083 2.54687 -3.03234 0
M  V30 10028 H 937.257 0.159415 -4.60524 0
M  V30 10029 H 935.572 0.30205 -4.15303 0
M  V30 10030 H 938.169 3.07452 -4.37467 0
M  V30 10031 H 938.512 3.19689 -2.66655 0
M  V30 10032 H 939.045 1.75747 -3.56872 0
M  V30 10033 H 935.784 1.02234 -6.47479 0
M  V30 10034 H 935.304 2.42164 -5.48741 0
M  V30 10035 H 936.983 2.26469 -6.0607 0
M  V30 10036 N 937.115 1.49373 0.502552 0
M  V30 10037 C 938.047 1.62045 1.62093 0
M  V30 10038 C 939.06 0.503221 1.54827 0
M  V30 10039 O 940.249 0.775208 1.60788 0
M  V30 10040 C 937.349 1.55971 3.00876 0
M  V30 10041 C 936.522 2.832 3.33341 0
M  V30 10042 C 935.581 2.702 4.51529 0
M  V30 10043 O 934.607 3.44132 4.53389 0
M  V30 10044 N 935.809 1.81642 5.5135 0
M  V30 10045 H 938.574 2.58501 1.51649 0
M  V30 10046 H 936.135 1.46442 0.690396 0
M  V30 10047 H 938.127 1.4493 3.77859 0
M  V30 10048 H 936.697 0.673795 3.05252 0
M  V30 10049 H 935.917 3.08604 2.4527 0
M  V30 10050 H 937.205 3.67551 3.51829 0
M  V30 10051 H 936.603 1.20829 5.52645 0
M  V30 10052 H 935.16 1.76524 6.27441 0
M  V30 10053 N 938.594 -0.753485 1.38421 0
M  V30 10054 C 939.542 -1.8886 1.35774 0
M  V30 10055 C 940.536 -1.67639 0.243608 0
M  V30 10056 O 941.742 -1.75206 0.412649 0
M  V30 10057 H 938.117 -0.62137 0.42356 0
M  V30 10058 H 940.088 -1.88209 2.3156 0
M  V30 10059 C 938.837 -3.26344 1.19979 0
M  V30 10060 H 938.16 -3.43259 2.04971 0
M  V30 10061 H 939.6 -4.06015 1.22181 0
M  V30 10062 C 938.059 -3.36771 -0.0932867 0
M  V30 10063 O 938.589 -3.8718 -1.07027 0
M  V30 10064 N 936.795 -2.90212 -0.150154 0
M  V30 10065 H 936.342 -2.4938 0.645562 0
M  V30 10066 H 936.3 -2.97569 -1.0149 0
M  V30 10067 N 940.072 -1.23292 -0.981677 0
M  V30 10068 C 941.019 -1.01296 -2.07383 0
M  V30 10069 C 941.989 0.069139 -1.65956 0
M  V30 10070 O 943.174 -0.0827108 -1.90621 0
M  V30 10071 C 940.314 -0.608876 -3.39686 0
M  V30 10072 C 939.427 -1.76296 -3.9439 0
M  V30 10073 C 938.562 -1.30578 -5.14901 0
M  V30 10074 C 937.601 -2.4307 -5.61768 0
M  V30 10075 N 936.738 -1.98319 -6.73509 0
M  V30 10076 H 941.578 -1.9478 -2.25532 0
M  V30 10077 H 939.115 -0.970356 -1.10555 0
M  V30 10078 H 941.073 -0.355702 -4.15681 0
M  V30 10079 H 939.703 0.288961 -3.21504 0
M  V30 10080 H 938.755 -2.13017 -3.15163 0
M  V30 10081 H 940.067 -2.60871 -4.25145 0
M  V30 10082 H 939.221 -1.01066 -5.98223 0
M  V30 10083 H 937.96 -0.430386 -4.85797 0
M  V30 10084 H 936.965 -2.73358 -4.77028 0
M  V30 10085 H 938.19 -3.31144 -5.92892 0
M  V30 10086 H 936.136 -1.13157 -6.46167 0
M  V30 10087 H 936.053 -2.76454 -7.0364 0
M  V30 10088 H 937.321 -1.71907 -7.60308 0
M  V30 10089 N 941.55 1.18024 -1.04442 0
M  V30 10090 C 942.48 2.23988 -0.659683 0
M  V30 10091 C 943.461 1.6669 0.338904 0
M  V30 10092 O 944.646 1.92971 0.21817 0
M  V30 10093 C 941.776 3.4729 -0.0257672 0
M  V30 10094 C 940.73 4.17362 -0.948299 0
M  V30 10095 C 940.056 5.34401 -0.17866 0
M  V30 10096 C 941.356 4.70435 -2.26909 0
M  V30 10097 H 943.05 2.56425 -1.54553 0
M  V30 10098 H 940.596 1.23256 -0.744575 0
M  V30 10099 H 942.549 4.20627 0.255131 0
M  V30 10100 H 941.273 3.14098 0.894981 0
M  V30 10101 H 939.932 3.45928 -1.21364 0
M  V30 10102 H 939.58 4.97458 0.744614 0
M  V30 10103 H 939.28 5.8222 -0.793294 0
M  V30 10104 H 940.804 6.10526 0.0951315 0
M  V30 10105 H 942.218 5.35447 -2.04864 0
M  V30 10106 H 940.615 5.28803 -2.83703 0
M  V30 10107 H 941.685 3.87653 -2.91296 0
M  V30 10108 N 943.028 0.824394 1.34319 0
M  V30 10109 C 944.256 0.426194 2.02463 0
M  V30 10110 C 944.671 -0.968298 1.62078 0
M  V30 10111 O 944.028 -1.62689 0.82696 0
M  V30 10112 C 944.079 0.520465 3.57734 0
M  V30 10113 O 943.8 1.86 3.96656 0
M  V30 10114 C 945.301 0.117353 4.43145 0
M  V30 10115 H 942.521 0.170864 0.648881 0
M  V30 10116 H 945.065 1.11296 1.71562 0
M  V30 10117 H 943.22 -0.118233 3.8722 0
M  V30 10118 H 943.634 1.83528 4.91343 0
M  V30 10119 H 945.108 0.234395 5.51502 0
M  V30 10120 H 945.585 -0.939271 4.29039 0
M  V30 10121 H 946.191 0.729908 4.1899 0
M  V30 10122 N 944.506 -1.46559 0.579492 0
M  V30 10123 C 945.783 -1.956 -0.00287136 0
M  V30 10124 C 946.163 -1.52215 -1.46266 0
M  V30 10125 O 945.511 -0.771335 -2.15088 0
M  V30 10126 C 945.721 -3.48606 0.165824 0
M  V30 10127 C 947.069 -4.24588 0.0319807 0
M  V30 10128 O 948.093 -3.56075 0.094496 0
M  V30 10129 O 946.952 -5.46396 -0.106386 0
M  V30 10130 H 944.046 -0.825387 -0.0516274 0
M  V30 10131 H 946.592 -1.56858 0.647584 0
M  V30 10132 H 945.364 -3.7306 1.18076 0
M  V30 10133 H 944.987 -3.94169 -0.521212 0
M  V30 10134 N 945.984 -0.3171 -1.54377 0
M  V30 10135 C 946.914 0.544623 -2.2706 0
M  V30 10136 C 947.895 1.12469 -1.27611 0
M  V30 10137 O 949.08 1.15103 -1.56413 0
M  V30 10138 C 946.21 1.70879 -3.02353 0
M  V30 10139 C 945.164 1.25833 -4.09084 0
M  V30 10140 C 944.49 2.50894 -4.72182 0
M  V30 10141 C 945.79 0.377876 -5.20931 0
M  V30 10142 H 947.484 -0.0616372 -2.99337 0
M  V30 10143 H 945.03 -0.0310848 -1.43966 0
M  V30 10144 H 946.983 2.31787 -3.51927 0
M  V30 10145 H 945.707 2.34155 -2.27682 0
M  V30 10146 H 944.366 0.672228 -3.60384 0
M  V30 10147 H 944.014 3.12518 -3.94134 0
M  V30 10148 H 943.714 2.21447 -5.44275 0
M  V30 10149 H 945.238 3.12575 -5.24528 0
M  V30 10150 H 946.652 0.893056 -5.66302 0
M  V30 10151 H 945.049 0.176474 -5.9984 0
M  V30 10152 H 946.119 -0.592943 -4.81261 0
M  V30 10153 N 947.462 1.57535 -0.0451378 0
M  V30 10154 C 948.372 2.14653 0.946646 0
M  V30 10155 C 949.388 1.10279 1.3459 0
M  V30 10156 O 950.564 1.42417 1.42405 0
M  V30 10157 C 947.629 2.67533 2.20515 0
M  V30 10158 C 946.69 3.86682 1.86481 0
M  V30 10159 C 945.923 4.37031 3.06332 0
M  V30 10160 O 946.146 3.86481 4.1951 0
M  V30 10161 O 945.08 5.28691 2.87697 0
M  V30 10162 H 948.906 2.99706 0.49091 0
M  V30 10163 H 946.491 1.48355 0.17641 0
M  V30 10164 H 948.373 3.01542 2.94365 0
M  V30 10165 H 947.048 1.85554 2.65238 0
M  V30 10166 H 945.955 3.57573 1.09966 0
M  V30 10167 H 947.288 4.69873 1.46562 0
M  V30 10168 N 948.94 -0.228186 1.55939 0
M  V30 10169 C 950.189 -0.951563 1.77843 0
M  V30 10170 C 950.502 -1.85763 0.612501 0
M  V30 10171 O 951.708 -2.61916 0.715006 0
M  V30 10172 C 950.164 -1.74216 3.14923 0
M  V30 10173 C 949.772 -0.882569 4.39221 0
M  V30 10174 C 951.516 -2.45715 3.46156 0
M  V30 10175 C 949.423 -1.67014 5.67327 0
M  V30 10176 H 948.353 -0.359035 0.663031 0
M  V30 10177 H 951.004 -0.205636 1.82344 0
M  V30 10178 H 949.386 -2.53075 3.0458 0
M  V30 10179 H 950.56 -0.13499 4.60602 0
M  V30 10180 H 948.875 -0.280022 4.15457 0
M  V30 10181 H 951.472 -3.05127 4.39092 0
M  V30 10182 H 951.815 -3.1827 2.68346 0
M  V30 10183 H 952.348 -1.73852 3.57799 0
M  V30 10184 H 949.087 -0.987985 6.48012 0
M  V30 10185 H 948.607 -2.3925 5.50018 0
M  V30 10186 H 950.286 -2.23252 6.07262 0
M  V30 10187 N 950.418 -1.49637 -0.494624 0
M  V30 10188 C 951.348 -1.69692 -1.60396 0
M  V30 10189 C 952.329 -0.545648 -1.61111 0
M  V30 10190 O 953.514 -0.782202 -1.77751 0
M  V30 10191 C 950.644 -1.76934 -2.9885 0
M  V30 10192 C 949.598 -2.91915 -3.13001 0
M  V30 10193 C 948.924 -2.84276 -4.5287 0
M  V30 10194 C 950.224 -4.32764 -2.92426 0
M  V30 10195 H 951.918 -2.6257 -1.43866 0
M  V30 10196 H 949.464 -1.26355 -0.690679 0
M  V30 10197 H 951.417 -1.8955 -3.76362 0
M  V30 10198 H 950.141 -0.806609 -3.16483 0
M  V30 10199 H 948.8 -2.78911 -2.37916 0
M  V30 10200 H 948.448 -1.85897 -4.67388 0
M  V30 10201 H 948.148 -3.61452 -4.63278 0
M  V30 10202 H 949.672 -2.98909 -5.32434 0
M  V30 10203 H 951.086 -4.46415 -3.59703 0
M  V30 10204 H 949.483 -5.1121 -3.143 0
M  V30 10205 H 950.553 -4.46765 -1.88491 0
M  V30 10206 N 951.896 0.746133 -1.38819 0
M  V30 10207 C 952.859 1.84167 -1.36437 0
M  V30 10208 C 953.859 1.58626 -0.263499 0
M  V30 10209 O 955.049 1.66233 -0.520801 0
M  V30 10210 C 952.181 3.21769 -1.12596 0
M  V30 10211 H 953.374 1.87684 -2.33912 0
M  V30 10212 H 950.927 0.948625 -1.24221 0
M  V30 10213 H 951.662 3.23917 -0.15758 0
M  V30 10214 H 951.447 3.41702 -1.92307 0
M  V30 10215 H 952.937 4.0184 -1.13643 0
M  V30 10216 N 953.375 1.23811 0.975125 0
M  V30 10217 C 954.305 1.04846 2.08638 0
M  V30 10218 C 955.286 -0.0362859 1.70061 0
M  V30 10219 O 956.471 0.12937 1.93769 0
M  V30 10220 C 953.601 0.644534 3.41267 0
M  V30 10221 C 952.555 1.67722 3.93768 0
M  V30 10222 C 951.881 1.12857 5.22654 0
M  V30 10223 C 953.181 3.07147 4.22443 0
M  V30 10224 H 954.875 1.97795 2.24761 0
M  V30 10225 H 952.421 0.952397 1.08006 0
M  V30 10226 H 954.374 0.498887 4.18436 0
M  V30 10227 H 953.098 -0.320641 3.25022 0
M  V30 10228 H 951.757 1.81095 3.18748 0
M  V30 10229 H 951.405 0.154227 5.02764 0
M  V30 10230 H 951.105 1.81862 5.58749 0
M  V30 10231 H 952.629 0.994891 6.0244 0
M  V30 10232 H 954.043 2.97045 4.90344 0
M  V30 10233 H 952.44 3.73437 4.6975 0
M  V30 10234 H 953.51 3.55743 3.29507 0
M  V30 10235 N 954.853 -1.17469 1.05066 0
M  V30 10236 C 955.783 -2.23635 0.671552 0
M  V30 10237 C 956.764 -1.66867 -0.33006 0
M  V30 10238 O 957.949 -1.93084 -0.207933 0
M  V30 10239 C 955.079 -3.47272 0.0441845 0
M  V30 10240 C 954.033 -4.16854 0.97042 0
M  V30 10241 C 953.359 -5.34299 0.206998 0
M  V30 10242 C 954.659 -4.69225 2.29401 0
M  V30 10243 H 956.353 -2.55602 1.55911 0
M  V30 10244 H 953.899 -1.2286 0.751101 0
M  V30 10245 H 955.852 -4.20756 -0.23282 0
M  V30 10246 H 954.576 -3.14568 -0.878311 0
M  V30 10247 H 953.235 -3.4528 1.23197 0
M  V30 10248 H 952.883 -4.97846 -0.718222 0
M  V30 10249 H 952.583 -5.81792 0.82416 0
M  V30 10250 H 954.107 -6.10568 -0.0627525 0
M  V30 10251 H 955.521 -5.34353 2.077 0
M  V30 10252 H 953.918 -5.27291 2.86503 0
M  V30 10253 H 954.988 -3.86102 2.93348 0
M  V30 10254 N 956.331 -0.831506 -1.3388 0
M  V30 10255 C 957.58 -0.420028 -1.97278 0
M  V30 10256 C 957.893 1.02441 -1.66629 0
M  V30 10257 O 959.099 1.54021 -2.23584 0
M  V30 10258 C 957.555 -0.700116 -3.53025 0
M  V30 10259 C 957.163 -2.15874 -3.92559 0
M  V30 10260 C 958.907 -0.355226 -4.23011 0
M  V30 10261 C 956.814 -2.38327 -5.41252 0
M  V30 10262 H 955.744 -0.153326 -0.738246 0
M  V30 10263 H 958.395 -1.01906 -1.52602 0
M  V30 10264 H 956.777 -0.0308044 -3.95988 0
M  V30 10265 H 957.951 -2.86792 -3.60675 0
M  V30 10266 H 956.266 -2.4659 -3.35533 0
M  V30 10267 H 958.863 -0.500701 -5.32351 0
M  V30 10268 H 959.206 0.70111 -4.10354 0
M  V30 10269 H 959.739 -0.979466 -3.85553 0
M  V30 10270 H 956.478 -3.42498 -5.58906 0
M  V30 10271 H 955.998 -1.71962 -5.74621 0
M  V30 10272 H 957.677 -2.21113 -6.08045 0
M  V30 10273 N 957.809 1.4625 -0.587256 0
M  V30 10274 C 958.772 2.28812 0.133238 0
M  V30 10275 C 959.772 1.38645 0.814513 0
M  V30 10276 O 960.962 1.60975 0.665774 0
M  V30 10277 C 958.094 3.19147 1.19824 0
M  V30 10278 H 959.287 2.93991 -0.592386 0
M  V30 10279 H 956.84 1.52435 -0.345416 0
M  V30 10280 H 957.575 2.58725 1.95529 0
M  V30 10281 H 957.36 3.85541 0.71418 0
M  V30 10282 H 958.85 3.81278 1.70344 0
M  V30 10283 N 959.287 0.325282 1.54207 0
M  V30 10284 C 960.25 -0.527228 2.23054 0
M  V30 10285 C 961.25 -1.04217 1.22456 0
M  V30 10286 O 962.44 -0.934325 1.47024 0
M  V30 10287 C 959.572 -1.7325 2.93594 0
M  V30 10288 H 960.765 0.0746423 2.99807 0
M  V30 10289 H 958.318 0.0763872 1.56113 0
M  V30 10290 H 959.053 -2.37356 2.20981 0
M  V30 10291 H 958.838 -1.37065 3.67363 0
M  V30 10292 H 960.328 -2.3376 3.46043 0
M  V30 10293 N 960.765 -1.57509 0.0534917 0
M  V30 10294 C 961.695 -2.14698 -0.917999 0
M  V30 10295 C 962.676 -1.06924 -1.32292 0
M  V30 10296 O 963.861 -1.34875 -1.39723 0
M  V30 10297 C 960.991 -2.69383 -2.19203 0
M  V30 10298 C 959.945 -3.82161 -1.9271 0
M  V30 10299 C 959.271 -4.23373 -3.26587 0
M  V30 10300 C 960.571 -5.07199 -1.24686 0
M  V30 10301 H 962.265 -2.96125 -0.44165 0
M  V30 10302 H 959.811 -1.42446 -0.210993 0
M  V30 10303 H 961.764 -3.08031 -2.87567 0
M  V30 10304 H 960.488 -1.85151 -2.69048 0
M  V30 10305 H 959.147 -3.43989 -1.26757 0
M  V30 10306 H 958.795 -3.36089 -3.74237 0
M  V30 10307 H 958.495 -4.99385 -3.09658 0
M  V30 10308 H 960.019 -4.64623 -3.96178 0
M  V30 10309 H 961.433 -5.43279 -1.83088 0
M  V30 10310 H 959.83 -5.88369 -1.18076 0
M  V30 10311 H 960.9 -4.84386 -0.223227 0
M  V30 10312 N 962.243 0.219913 -1.56058 0
M  V30 10313 C 963.468 0.965073 -1.83579 0
M  V30 10314 C 963.893 1.77092 -0.634024 0
M  V30 10315 O 963.251 1.76434 0.417205 0
M  V30 10316 C 963.299 1.85705 -3.09105 0
M  V30 10317 O 962.403 2.95261 -2.87914 0
M  V30 10318 H 961.744 0.273173 -0.605204 0
M  V30 10319 H 964.274 0.23273 -2.03272 0
M  V30 10320 H 964.284 2.26655 -3.39252 0
M  V30 10321 H 962.959 1.26476 -3.96203 0
M  V30 10322 H 961.536 2.58246 -2.69005 0
M  V30 10323 N 963.721 1.49897 0.486681 0
M  V30 10324 C 964.671 1.6401 1.58381 0
M  V30 10325 C 965.655 0.495215 1.5309 0
M  V30 10326 O 966.847 0.748876 1.60377 0
M  V30 10327 C 963.976 1.72321 2.96918 0
M  V30 10328 C 963.062 2.92435 3.07152 0
M  V30 10329 N 963.453 4.16326 2.87238 0
M  V30 10330 C 961.751 2.90669 3.38271 0
M  V30 10331 C 962.452 4.97144 3.02031 0
M  V30 10332 N 961.428 4.3079 3.31544 0
M  V30 10333 H 965.23 2.57506 1.41661 0
M  V30 10334 H 962.744 1.46867 0.693106 0
M  V30 10335 H 964.741 1.80532 3.75784 0
M  V30 10336 H 963.401 0.799724 3.14697 0
M  V30 10337 H 964.412 4.46076 2.63128 0
M  V30 10338 H 961.089 2.07758 3.62137 0
M  V30 10339 H 962.479 6.05611 2.91006 0
M  V30 10340 N 965.199 -0.738761 1.39212 0
M  V30 10341 C 966.476 -1.48982 1.26742 0
M  V30 10342 C 966.856 -2.10732 -0.12466 0
M  V30 10343 O 966.204 -1.98287 -1.13554 0
M  V30 10344 C 966.414 -2.54427 2.38889 0
M  V30 10345 C 967.762 -3.20915 2.78027 0
M  V30 10346 O 968.786 -2.64738 2.38311 0
M  V30 10347 O 967.645 -4.22558 3.46565 0
M  V30 10348 H 964.739 -0.661395 0.496473 0
M  V30 10349 H 967.285 -0.772907 1.51077 0
M  V30 10350 H 966.057 -2.07151 3.3197 0
M  V30 10351 H 965.68 -3.33682 2.162 0
M  V30 10352 N 966.677 -1.24326 -0.968545 0
M  V30 10353 C 967.607 -1.05951 -2.08079 0
M  V30 10354 C 968.588 0.0272666 -1.70078 0
M  V30 10355 O 969.773 -0.139644 -1.93697 0
M  V30 10356 C 966.903 -0.662623 -3.4092 0
M  V30 10357 C 965.857 -1.69807 -3.92873 0
M  V30 10358 C 965.183 -1.15628 -5.22048 0
M  V30 10359 C 966.483 -3.09383 -4.20808 0
M  V30 10360 H 968.177 -1.98984 -2.23709 0
M  V30 10361 H 965.723 -0.958112 -1.075 0
M  V30 10362 H 967.676 -0.521071 -4.18166 0
M  V30 10363 H 966.4 0.303399 -3.25188 0
M  V30 10364 H 965.059 -1.82783 -3.17783 0
M  V30 10365 H 964.707 -0.180888 -5.02675 0
M  V30 10366 H 964.407 -1.84822 -5.57776 0
M  V30 10367 H 965.931 -1.02683 -6.01904 0
M  V30 10368 H 967.345 -2.99642 -4.88761 0
M  V30 10369 H 965.742 -3.75923 -4.67763 0
M  V30 10370 H 966.812 -3.57486 -3.27616 0
M  V30 10371 N 968.156 1.1691 -1.05688 0
M  V30 10372 C 969.433 1.83266 -0.683601 0
M  V30 10373 C 969.813 1.93858 0.835602 0
M  V30 10374 O 969.161 1.47696 1.7435 0
M  V30 10375 C 969.371 3.20625 -1.37842 0
M  V30 10376 C 970.719 3.96473 -1.51967 0
M  V30 10377 O 971.743 3.30122 -1.33783 0
M  V30 10378 O 970.602 5.15393 -1.81749 0
M  V30 10379 H 967.696 0.791028 -0.241254 0
M  V30 10380 H 970.242 1.24165 -1.15677 0
M  V30 10381 H 969.014 3.07914 -2.41463 0
M  V30 10382 H 968.637 3.87398 -0.894921 0
M  V30 10383 N 969.634 0.838594 1.33437 0
M  V30 10384 C 970.584 0.243681 2.26694 0
M  V30 10385 C 971.568 -0.601168 1.49247 0
M  V30 10386 O 972.76 -0.453181 1.711 0
M  V30 10387 C 969.889 -0.580525 3.38356 0
M  V30 10388 C 968.975 0.275819 4.23202 0
M  V30 10389 N 969.366 1.3544 4.87329 0
M  V30 10390 C 967.664 0.0628047 4.45956 0
M  V30 10391 C 968.365 1.87991 5.50486 0
M  V30 10392 N 967.341 1.18143 5.30607 0
M  V30 10393 H 971.143 1.06849 2.73789 0
M  V30 10394 H 968.657 0.683019 1.47338 0
M  V30 10395 H 970.654 -1.02301 4.04153 0
M  V30 10396 H 969.314 -1.40331 2.92809 0
M  V30 10397 H 970.325 1.73729 4.87892 0
M  V30 10398 H 967.002 -0.726563 4.11129 0
M  V30 10399 H 968.392 2.78312 6.11549 0
M  V30 10400 N 971.112 -1.45937 0.595003 0
M  V30 10401 C 972.528 -1.57507 0.257641 0
M  V30 10402 C 972.728 -1.58829 -1.23998 0
M  V30 10403 O 971.784 -1.51183 -2.02237 0
M  V30 10404 C 973.097 -2.86354 0.917708 0
M  V30 10405 C 974.645 -3.00007 0.892446 0
M  V30 10406 C 975.12 -4.31607 1.53229 0
M  V30 10407 N 976.611 -4.38336 1.49719 0
M  V30 10408 C 977.346 -5.38805 1.96154 0
M  V30 10409 N 976.842 -6.45882 2.50617 0
M  V30 10410 N 978.635 -5.30084 1.86997 0
M  V30 10411 H 970.786 -1.43322 1.56756 0
M  V30 10412 H 973.049 -0.684436 0.655936 0
M  V30 10413 H 972.755 -2.91233 1.97171 0
M  V30 10414 H 972.629 -3.74703 0.433344 0
M  V30 10415 H 975.016 -2.94703 -0.152975 0
M  V30 10416 H 975.097 -2.13103 1.41495 0
M  V30 10417 H 974.741 -4.3767 2.57697 0
M  V30 10418 H 974.671 -5.17308 0.984903 0
M  V30 10419 H 977.162 -3.6156 1.09921 0
M  V30 10420 H 977.475 -7.18774 2.83874 0
M  V30 10421 H 975.82 -6.46668 2.54649 0
M  V30 10422 H 979.011 -4.45337 1.44196 0
M  V30 10423 H 979.184 -6.08237 2.23499 0
M  V30 10424 N 972.59 -0.333456 -1.54032 0
M  V30 10425 C 973.838 0.265608 -2.00347 0
M  V30 10426 C 974.159 1.51873 -1.2231 0
M  V30 10427 O 973.429 1.93142 -0.327549 0
M  V30 10428 H 972.009 0.101135 -0.740122 0
M  V30 10429 H 974.671 -0.452285 -1.8958 0
M  V30 10430 H 973.767 0.51511 -3.0782 0
M  V30 10431 N 974.068 1.57479 -0.061844 0
M  V30 10432 C 975.314 1.93395 0.610443 0
M  V30 10433 C 975.647 0.941334 1.6986 0
M  V30 10434 O 974.922 -0.0310262 1.94475 0
M  V30 10435 C 975.205 3.39636 1.19664 0
M  V30 10436 C 975.058 4.49651 0.115805 0
M  V30 10437 C 976.377 3.86488 2.10512 0
M  V30 10438 H 973.496 0.703262 0.220436 0
M  V30 10439 H 976.138 1.89583 -0.125785 0
M  V30 10440 H 974.288 3.43015 1.82409 0
M  V30 10441 H 975.96 4.58397 -0.516728 0
M  V30 10442 H 974.203 4.30237 -0.55483 0
M  V30 10443 H 974.874 5.49089 0.566176 0
M  V30 10444 H 977.35 3.85052 1.57715 0
M  V30 10445 H 976.226 4.89444 2.48466 0
M  V30 10446 H 976.487 3.23856 3.00948 0
M  V30 10447 N 975.546 -0.211634 1.56173 0
M  V30 10448 C 976.494 -1.28188 1.94089 0
M  V30 10449 C 977.488 -1.47999 0.824167 0
M  V30 10450 O 978.694 -1.49056 1.00907 0
M  V30 10451 H 975.069 -0.42999 0.616938 0
M  V30 10452 H 977.04 -0.934962 2.83374 0
M  V30 10453 C 975.789 -2.62294 2.28248 0
M  V30 10454 H 975.112 -2.4786 3.13696 0
M  V30 10455 H 976.552 -3.35967 2.58655 0
M  V30 10456 C 975.011 -3.18049 1.11113 0
M  V30 10457 O 975.541 -3.99923 0.377458 0
M  V30 10458 N 973.747 -2.76561 0.892321 0
M  V30 10459 H 973.294 -2.10088 1.49067 0
M  V30 10460 H 973.252 -3.14206 0.110344 0
M  V30 10461 N 977.024 -1.50153 -0.478725 0
M  V30 10462 C 977.972 -1.68975 -1.59844 0
M  V30 10463 C 978.966 -0.555591 -1.6003 0
M  V30 10464 O 980.172 -0.735875 -1.64271 0
M  V30 10465 H 976.547 -0.533211 -0.530274 0
M  V30 10466 H 978.518 -2.62917 -1.41128 0
M  V30 10467 C 977.267 -1.79409 -2.97838 0
M  V30 10468 H 976.59 -2.66066 -2.98411 0
M  V30 10469 H 978.03 -1.96606 -3.75662 0
M  V30 10470 C 976.489 -0.543927 -3.3248 0
M  V30 10471 O 977.019 0.320376 -4.0042 0
M  V30 10472 N 975.225 -0.400217 -2.87831 0
M  V30 10473 H 974.772 -1.10458 -2.32716 0
M  V30 10474 H 974.73 0.435111 -3.11375 0
M  V30 10475 N 978.502 0.731368 -1.39602 0
M  V30 10476 C 979.727 1.52567 -1.40492 0
M  V30 10477 C 980.152 1.881 -0.00228828 0
M  V30 10478 O 979.51 1.52167 0.985643 0
M  V30 10479 C 979.558 2.78749 -2.2876 0
M  V30 10480 O 978.662 3.7482 -1.71999 0
M  V30 10481 H 978.003 0.460601 -0.478271 0
M  V30 10482 H 980.533 0.902042 -1.83642 0
M  V30 10483 H 980.543 3.27446 -2.43399 0
M  V30 10484 H 979.218 2.5222 -3.30693 0
M  V30 10485 H 977.795 3.33604 -1.66622 0
M  V30 10486 N 979.98 1.24838 0.961938 0
M  V30 10487 C 981.21 1.11709 1.73795 0
M  V30 10488 C 981.618 -0.33263 1.86253 0
M  V30 10489 O 980.961 -1.24101 1.35443 0
M  V30 10490 C 981.023 1.68959 3.17322 0
M  V30 10491 C 980.687 3.17895 3.28316 0
M  V30 10492 C 981.684 4.14975 3.13196 0
M  V30 10493 C 979.369 3.57966 3.52372 0
M  V30 10494 C 981.363 5.50107 3.21965 0
M  V30 10495 C 979.05 4.93237 3.60778 0
M  V30 10496 C 980.048 5.89116 3.45588 0
M  V30 10497 O 979.736 7.21927 3.53662 0
M  V30 10498 H 979.468 0.390726 0.551642 0
M  V30 10499 H 982.022 1.65541 1.21594 0
M  V30 10500 H 980.252 1.09567 3.70853 0
M  V30 10501 H 981.941 1.51036 3.76753 0
M  V30 10502 H 982.707 3.85359 2.94489 0
M  V30 10503 H 978.586 2.83837 3.63259 0
M  V30 10504 H 982.13 6.24924 3.10025 0
M  V30 10505 H 978.027 5.22522 3.79 0
M  V30 10506 H 978.795 7.29925 3.7034 0
M  V30 10507 N 981.458 -1.16348 1.06306 0
M  V30 10508 C 982.707 -1.8622 0.774909 0
M  V30 10509 C 983.02 -1.82598 -0.701245 0
M  V30 10510 O 984.226 -2.48051 -1.10377 0
M  V30 10511 C 982.682 -3.34182 1.33604 0
M  V30 10512 C 982.29 -3.46279 2.84245 0
M  V30 10513 C 984.034 -4.09309 1.12544 0
M  V30 10514 C 981.941 -4.88327 3.33602 0
M  V30 10515 H 980.871 -0.697574 0.286194 0
M  V30 10516 H 983.522 -1.31311 1.28179 0
M  V30 10517 H 981.904 -3.88698 0.756937 0
M  V30 10518 H 983.078 -3.01923 3.48108 0
M  V30 10519 H 981.393 -2.84585 3.03974 0
M  V30 10520 H 983.99 -5.14123 1.46909 0
M  V30 10521 H 984.333 -4.16251 0.0638129 0
M  V30 10522 H 984.866 -3.61032 1.67034 0
M  V30 10523 H 981.605 -4.86565 4.39244 0
M  V30 10524 H 981.125 -5.33307 2.74487 0
M  V30 10525 H 982.804 -5.57144 3.28937 0
M  V30 10526 N 982.937 -0.845659 -1.3299 0
M  V30 10527 C 983.869 -0.241097 -2.27928 0
M  V30 10528 C 984.882 0.582048 -1.5204 0
M  V30 10529 O 986.071 0.408008 -1.73774 0
M  V30 10530 C 983.171 0.678652 -3.32035 0
M  V30 10531 C 982.344 -0.106652 -4.3727 0
M  V30 10532 C 981.403 0.737478 -5.21006 0
M  V30 10533 O 980.429 0.174231 -5.68933 0
M  V30 10534 N 981.631 2.05372 -5.42957 0
M  V30 10535 H 984.396 -1.05685 -2.80448 0
M  V30 10536 H 981.957 -0.704771 -1.45755 0
M  V30 10537 H 983.949 1.24849 -3.84961 0
M  V30 10538 H 982.519 1.3951 -2.79742 0
M  V30 10539 H 981.739 -0.857897 -3.84752 0
M  V30 10540 H 983.027 -0.646386 -5.04677 0
M  V30 10541 H 982.425 2.53478 -5.05733 0
M  V30 10542 H 980.982 2.5719 -5.98913 0
M  V30 10543 N 984.415 1.45619 -0.602734 0
M  V30 10544 C 985.831 1.57368 -0.26599 0
M  V30 10545 C 986.031 1.59485 1.23154 0
M  V30 10546 O 985.087 1.52254 2.01432 0
M  V30 10547 C 986.4 2.85863 -0.932881 0
M  V30 10548 C 987.948 2.9953 -0.908344 0
M  V30 10549 C 988.423 4.30789 -1.55515 0
M  V30 10550 N 989.914 4.37536 -1.52042 0
M  V30 10551 C 990.649 5.37758 -1.99008 0
M  V30 10552 N 990.145 6.44544 -2.54038 0
M  V30 10553 N 991.938 5.29085 -1.89805 0
M  V30 10554 H 984.089 1.42489 -1.57514 0
M  V30 10555 H 986.352 0.680948 -0.659556 0
M  V30 10556 H 986.058 2.90183 -1.98713 0
M  V30 10557 H 985.932 3.74467 -0.453209 0
M  V30 10558 H 988.319 2.9478 0.137344 0
M  V30 10559 H 988.4 2.12349 -1.42623 0
M  V30 10560 H 988.044 4.36297 -2.60014 0
M  V30 10561 H 987.974 5.16778 -1.01232 0
M  V30 10562 H 990.465 3.60972 -1.11837 0
M  V30 10563 H 990.778 7.17258 -2.87682 0
M  V30 10564 H 989.123 6.45308 -2.58075 0
M  V30 10565 H 992.314 4.44566 -1.46556 0
M  V30 10566 H 992.487 6.07043 -2.26722 0
M  V30 10567 N 985.893 0.34162 1.53853 0
M  V30 10568 C 987.118 -0.259608 2.05769 0
M  V30 10569 C 987.543 -1.43588 1.21507 0
M  V30 10570 O 986.901 -1.79856 0.228364 0
M  V30 10571 C 986.949 -0.654455 3.54611 0
M  V30 10572 O 986.053 -1.75472 3.73207 0
M  V30 10573 H 985.394 -0.0434621 0.662576 0
M  V30 10574 H 987.924 0.495274 1.98515 0
M  V30 10575 H 987.934 -0.932142 3.97209 0
M  V30 10576 H 986.609 0.205779 4.15391 0
M  V30 10577 H 985.186 -1.47444 3.42512 0
M  V30 10578 N 987.371 -1.57444 0.0701946 0
M  V30 10579 C 988.281 -2.16132 -0.912377 0
M  V30 10580 C 989.297 -1.12406 -1.32819 0
M  V30 10581 O 990.473 -1.44665 -1.40121 0
M  V30 10582 C 987.538 -2.71008 -2.16231 0
M  V30 10583 C 986.599 -3.896 -1.80306 0
M  V30 10584 C 985.832 -4.4185 -2.9934 0
M  V30 10585 O 986.055 -3.93106 -4.13309 0
M  V30 10586 O 984.989 -5.33201 -2.7925 0
M  V30 10587 H 988.815 -3.00449 -0.443167 0
M  V30 10588 H 986.4 -1.48617 -0.152786 0
M  V30 10589 H 988.282 -3.06186 -2.8953 0
M  V30 10590 H 986.957 -1.8975 -2.62253 0
M  V30 10591 H 985.864 -3.59277 -1.04264 0
M  V30 10592 H 987.197 -4.72145 -1.39068 0
M  V30 10593 N 988.849 0.203349 -1.56283 0
M  V30 10594 C 989.799 1.25595 -1.90289 0
M  V30 10595 C 990.783 1.41403 -0.767732 0
M  V30 10596 O 991.975 1.43912 -1.03046 0
M  V30 10597 C 989.104 2.60255 -2.23881 0
M  V30 10598 C 988.19 2.48274 -3.43833 0
M  V30 10599 N 988.581 2.05963 -4.61966 0
M  V30 10600 C 986.879 2.79188 -3.47808 0
M  V30 10601 C 987.58 2.05674 -5.44126 0
M  V30 10602 N 986.556 2.46862 -4.84314 0
M  V30 10603 H 990.358 0.920016 -2.79129 0
M  V30 10604 H 987.872 0.411829 -1.57091 0
M  V30 10605 H 989.869 3.36274 -2.46425 0
M  V30 10606 H 988.529 2.94678 -1.36363 0
M  V30 10607 H 989.54 1.76803 -4.86787 0
M  V30 10608 H 986.217 3.17863 -2.70684 0
M  V30 10609 H 987.607 1.74932 -6.48728 0
M  V30 10610 N 990.327 1.50405 0.470755 0
M  V30 10611 C 991.738 1.54266 1.05162 0
M  V30 10612 C 992.089 0.346359 1.93119 0
M  V30 10613 O 991.214 -0.540699 2.09536 0
M  V30 10614 C 991.809 2.7956 1.91394 0
M  V30 10615 C 990.368 2.86101 2.44588 0
M  V30 10616 C 989.515 2.48557 1.22941 0
M  V30 10617 H 992.466 1.56665 0.253359 0
M  V30 10618 H 992.487 2.61434 2.76464 0
M  V30 10619 H 991.999 3.66611 1.27351 0
M  V30 10620 H 990.1 2.03403 3.12183 0
M  V30 10621 H 990.213 3.88999 2.79672 0
M  V30 10622 H 988.577 2.01003 1.56429 0
M  V30 10623 H 989.36 3.37916 0.605598 0
M  V30 10624 N 991.805 -0.723954 1.39988 0
M  V30 10625 C 992.735 -1.85103 1.42335 0
M  V30 10626 C 993.716 -1.6769 0.285297 0
M  V30 10627 O 994.901 -1.87846 0.492716 0
M  V30 10628 C 992.031 -3.22972 1.27697 0
M  V30 10629 C 990.985 -3.55041 2.39018 0
M  V30 10630 C 990.311 -4.91965 2.09462 0
M  V30 10631 C 991.611 -3.56889 3.8135 0
M  V30 10632 H 993.305 -1.83396 2.36656 0
M  V30 10633 H 990.851 -0.880926 1.13911 0
M  V30 10634 H 992.804 -4.01503 1.27958 0
M  V30 10635 H 991.528 -3.25233 0.298487 0
M  V30 10636 H 990.187 -2.78845 2.37993 0
M  V30 10637 H 989.835 -4.90819 1.10025 0
M  V30 10638 H 989.535 -5.14389 2.84038 0
M  V30 10639 H 991.059 -5.7284 2.11391 0
M  V30 10640 H 992.473 -4.25476 3.84243 0
M  V30 10641 H 990.87 -3.90836 4.55376 0
M  V30 10642 H 991.94 -2.56452 4.11534 0
M  V30 10643 N 993.283 -1.25346 -0.955304 0
M  V30 10644 C 994.246 -1.05754 -2.03344 0
M  V30 10645 C 995.246 -0.0105743 -1.60797 0
M  V30 10646 O 996.436 -0.252699 -1.72357 0
M  V30 10647 C 993.568 -0.605536 -3.35479 0
M  V30 10648 H 994.761 -2.01459 -2.22158 0
M  V30 10649 H 992.314 -1.07744 -1.1323 0
M  V30 10650 H 993.049 0.354154 -3.2236 0
M  V30 10651 H 992.834 -1.36134 -3.67709 0
M  V30 10652 H 994.324 -0.489867 -4.14717 0
M  V30 10653 N 994.761 1.15782 -1.06922 0
M  V30 10654 C 995.693 2.19978 -0.643604 0
M  V30 10655 C 996.706 1.59981 0.301653 0
M  V30 10656 O 997.895 1.78265 0.0916508 0
M  V30 10657 C 994.995 3.38815 0.0757973 0
M  V30 10658 C 994.168 4.28363 -0.884545 0
M  V30 10659 C 993.227 5.25807 -0.203233 0
M  V30 10660 O 992.253 5.62924 -0.842904 0
M  V30 10661 N 993.455 5.70874 1.05279 0
M  V30 10662 H 996.22 2.57112 -1.53992 0
M  V30 10663 H 993.781 1.30855 -0.953344 0
M  V30 10664 H 995.773 4.01052 0.542151 0
M  V30 10665 H 994.343 3.00133 0.874 0
M  V30 10666 H 993.563 3.63292 -1.53012 0
M  V30 10667 H 994.851 4.85067 -1.53581 0
M  V30 10668 H 994.249 5.42822 1.5925 0
M  V30 10669 H 992.806 6.35171 1.46289 0
M  V30 10670 N 996.239 0.8527 1.3254 0
M  V30 10671 C 997.169 0.311234 2.31416 0
M  V30 10672 C 998.15 -0.588557 1.59593 0
M  V30 10673 O 999.335 -0.509211 1.87405 0
M  V30 10674 C 996.465 -0.502892 3.4364 0
M  V30 10675 C 995.419 0.302296 4.26931 0
M  V30 10676 C 994.745 -0.636445 5.30899 0
M  V30 10677 C 996.045 1.52697 4.99481 0
M  V30 10678 H 997.739 1.13742 2.76953 0
M  V30 10679 H 995.285 0.548389 1.33149 0
M  V30 10680 H 997.238 -0.892092 4.11849 0
M  V30 10681 H 995.962 -1.36242 2.96826 0
M  V30 10682 H 994.621 0.673226 3.60365 0
M  V30 10683 H 994.269 -1.49277 4.80339 0
M  V30 10684 H 993.969 -0.101716 5.87512 0
M  V30 10685 H 995.493 -1.02286 6.01972 0
M  V30 10686 H 996.907 1.21017 5.60382 0
M  V30 10687 H 995.304 1.9995 5.65809 0
M  V30 10688 H 996.374 2.28929 4.27457 0
M  V30 10689 N 997.718 -1.45297 0.610449 0
M  V30 10690 C 998.948 -2.0629 0.113047 0
M  V30 10691 C 999.356 -1.45527 -1.20907 0
M  V30 10692 O 998.699 -0.564837 -1.74801 0
M  V30 10693 C 998.761 -3.59366 -0.0979692 0
M  V30 10694 C 998.425 -4.42481 1.14279 0
M  V30 10695 C 999.422 -4.77277 2.06161 0
M  V30 10696 C 997.107 -4.83187 1.37241 0
M  V30 10697 C 999.101 -5.51639 3.19333 0
M  V30 10698 C 996.788 -5.57303 2.50713 0
M  V30 10699 C 997.786 -5.91445 3.41587 0
M  V30 10700 O 997.474 -6.64056 4.53083 0
M  V30 10701 H 997.206 -0.67264 0.0673159 0
M  V30 10702 H 999.76 -1.87486 0.838937 0
M  V30 10703 H 997.99 -3.76582 -0.878783 0
M  V30 10704 H 999.679 -4.02193 -0.547327 0
M  V30 10705 H 1000.44 -4.46384 1.89647 0
M  V30 10706 H 996.324 -4.56045 0.67407 0
M  V30 10707 H 999.868 -5.78207 3.90286 0
M  V30 10708 H 995.765 -5.8761 2.67179 0
M  V30 10709 H 996.533 -6.82509 4.51801 0
M  V30 10710 N 999.196 -0.349774 -1.5367 0
M  V30 10711 C 1000.44 0.245095 -2.02925 0
M  V30 10712 C 1000.8 1.4727 -1.23189 0
M  V30 10713 O 1002 2.14215 -1.62374 0
M  V30 10714 C 1000.27 0.545392 -3.53214 0
M  V30 10715 S 1001.83 1.11619 -4.24366 0
M  V30 10716 H 998.649 0.0725368 -0.70729 0
M  V30 10717 H 1001.25 -0.488979 -1.89286 0
M  V30 10718 H 999.955 -0.355786 -4.08855 0
M  V30 10719 H 999.486 1.30897 -3.70985 0
M  V30 10720 H 1001.5 2.40151 -4.34214 0
M  V30 10721 N 1000.67 1.57404 -0.0785433 0
M  V30 10722 C 1001.62 2.09632 0.896565 0
M  V30 10723 C 1002.61 1.00754 1.25449 0
M  V30 10724 O 1003.8 1.27053 1.23234 0
M  V30 10725 C 1000.93 2.66694 2.16169 0
M  V30 10726 C 1000.01 3.82588 1.82994 0
M  V30 10727 N 1000.41 4.91286 1.203 0
M  V30 10728 C 998.704 3.92011 2.12704 0
M  V30 10729 C 999.405 5.72077 1.05367 0
M  V30 10730 N 998.381 5.20567 1.56559 0
M  V30 10731 H 1002.18 2.9106 0.407621 0
M  V30 10732 H 999.697 1.61917 0.125155 0
M  V30 10733 H 1001.69 3.0243 2.86952 0
M  V30 10734 H 1000.35 1.86716 2.65645 0
M  V30 10735 H 1001.36 5.10509 0.871817 0
M  V30 10736 H 998.042 3.23018 2.6451 0
M  V30 10737 H 999.432 6.69523 0.564685 0
M  V30 10738 N 1002.15 -0.195058 1.56388 0
M  V30 10739 C 1003.38 -0.935745 1.85091 0
M  V30 10740 C 1003.8 -1.76061 0.662118 0
M  V30 10741 O 1003.16 -1.77076 -0.389083 0
M  V30 10742 C 1003.21 -1.80764 3.1202 0
M  V30 10743 O 1002.31 -2.90643 2.92575 0
M  V30 10744 H 1001.65 -0.26351 0.609474 0
M  V30 10745 H 1004.18 -0.200362 2.03617 0
M  V30 10746 H 1004.19 -2.21229 3.42815 0
M  V30 10747 H 1002.87 -1.20157 3.98165 0
M  V30 10748 H 1001.44 -2.53934 2.73079 0
M  V30 10749 N 1003.63 -1.50653 -0.462772 0
M  V30 10750 C 1004.88 -1.61296 -1.21105 0
M  V30 10751 C 1005.19 -0.322757 -1.92919 0
M  V30 10752 O 1006.4 -0.308211 -2.69745 0
M  V30 10753 C 1004.85 -2.84752 -2.201 0
M  V30 10754 C 1004.46 -4.20681 -1.54051 0
M  V30 10755 C 1006.21 -3.04744 -2.95518 0
M  V30 10756 C 1004.11 -5.35314 -2.51381 0
M  V30 10757 H 1003.04 -0.60069 -0.455728 0
M  V30 10758 H 1005.69 -1.77093 -0.480656 0
M  V30 10759 H 1004.08 -2.62532 -2.96467 0
M  V30 10760 H 1005.25 -4.53187 -0.834168 0
M  V30 10761 H 1003.56 -4.06361 -0.908828 0
M  V30 10762 H 1006.16 -3.87559 -3.68378 0
M  V30 10763 H 1006.5 -2.16802 -3.55391 0
M  V30 10764 H 1007.04 -3.27185 -2.26263 0
M  V30 10765 H 1003.78 -6.25437 -1.96235 0
M  V30 10766 H 1003.3 -5.07216 -3.20144 0
M  V30 10767 H 1004.98 -5.66229 -3.1304 0
M  V30 10768 N 1005.11 0.71652 -1.4037 0
M  V30 10769 C 1006.04 1.84012 -1.34963 0
M  V30 10770 C 1007.02 1.61102 -0.22017 0
M  V30 10771 O 1008.2 1.84127 -0.403676 0
M  V30 10772 C 1005.33 3.20334 -1.10017 0
M  V30 10773 C 1004.38 3.62072 -2.25402 0
M  V30 10774 S 1005.21 3.69295 -3.8779 0
M  V30 10775 C 1006.37 5.08378 -3.65107 0
M  V30 10776 H 1006.6 1.88318 -2.30052 0
M  V30 10777 H 1004.13 0.883208 -1.26644 0
M  V30 10778 H 1006.09 3.99042 -0.963097 0
M  V30 10779 H 1004.75 3.13662 -0.16584 0
M  V30 10780 H 1003.94 4.61051 -2.03587 0
M  V30 10781 H 1003.55 2.90619 -2.35408 0
M  V30 10782 H 1005.84 5.95268 -3.23516 0
M  V30 10783 H 1006.78 5.35228 -4.63613 0
M  V30 10784 H 1007.19 4.78927 -2.98813 0
M  V30 10785 N 1006.59 1.25851 0.948643 0
M  V30 10786 C 1007.5 1.08516 2.07994 0
M  V30 10787 C 1008.51 0.0206696 1.73988 0
M  V30 10788 O 1009.69 0.222854 2.00163 0
M  V30 10789 C 1006.75 0.712145 3.39307 0
M  V30 10790 C 1005.81 1.85523 3.87143 0
M  V30 10791 C 1005.05 1.49992 5.1219 0
M  V30 10792 O 1005.27 0.398268 5.69008 0
M  V30 10793 O 1004.2 2.33215 5.54882 0
M  V30 10794 H 1008.03 2.03405 2.25522 0
M  V30 10795 H 1005.62 1.04844 1.06433 0
M  V30 10796 H 1007.5 0.516512 4.18223 0
M  V30 10797 H 1006.17 -0.207416 3.23035 0
M  V30 10798 H 1005.08 2.10578 3.09205 0
M  V30 10799 H 1006.41 2.75425 4.07924 0
M  V30 10800 N 1008.06 -1.15214 1.07534 0
M  V30 10801 C 1009.01 -2.18022 0.667108 0
M  V30 10802 C 1010 -1.57911 -0.308714 0
M  V30 10803 O 1011.19 -1.76578 -0.122147 0
M  V30 10804 C 1008.32 -3.43232 0.0684348 0
M  V30 10805 C 1007.41 -4.10393 1.06951 0
M  V30 10806 N 1007.8 -4.53013 2.24973 0
M  V30 10807 C 1006.09 -4.36758 0.903262 0
M  V30 10808 C 1006.8 -5.05118 2.88498 0
M  V30 10809 N 1005.77 -4.98777 2.16153 0
M  V30 10810 H 1009.57 -2.48706 1.56597 0
M  V30 10811 H 1007.09 -1.31801 0.948796 0
M  V30 10812 H 1009.08 -4.16197 -0.241934 0
M  V30 10813 H 1007.74 -3.14031 -0.825525 0
M  V30 10814 H 1008.76 -4.4634 2.6268 0
M  V30 10815 H 1005.43 -4.17453 0.0623543 0
M  V30 10816 H 1006.82 -5.48039 3.8872 0
M  V30 10817 N 1009.54 -0.859717 -1.32086 0
M  V30 10818 C 1010.49 -0.279715 -2.26278 0
M  V30 10819 C 1011.48 0.577348 -1.50185 0
M  V30 10820 O 1012.67 0.425903 -1.71799 0
M  V30 10821 C 1009.8 0.526622 -3.39237 0
M  V30 10822 C 1008.88 -0.343112 -4.2271 0
M  V30 10823 N 1009.27 -1.43176 -4.85113 0
M  V30 10824 C 1007.57 -0.133744 -4.45799 0
M  V30 10825 C 1008.27 -1.96725 -5.47425 0
M  V30 10826 N 1007.25 -1.26569 -5.2866 0
M  V30 10827 H 1011.05 -1.11191 -2.72055 0
M  V30 10828 H 1008.57 -0.706372 -1.46233 0
M  V30 10829 H 1010.56 0.958587 -4.0573 0
M  V30 10830 H 1009.22 1.35655 -2.95005 0
M  V30 10831 H 1010.23 -1.81469 -4.85066 0
M  V30 10832 H 1006.91 0.661064 -4.12233 0
M  V30 10833 H 1008.3 -2.88006 -6.07044 0
M  V30 10834 N 1011.02 1.44971 -0.618145 0
M  V30 10835 C 1011.97 2.27704 0.116119 0
M  V30 10836 C 1012.95 1.37927 0.828558 0
M  V30 10837 O 1014.15 1.61836 0.716806 0
M  V30 10838 C 1011.28 3.25004 1.10578 0
M  V30 10839 C 1010.36 4.22269 0.39364 0
M  V30 10840 N 1010.75 5.02571 -0.570581 0
M  V30 10841 C 1009.05 4.41387 0.639809 0
M  V30 10842 C 1009.75 5.73211 -0.990144 0
M  V30 10843 N 1008.73 5.42587 -0.331653 0
M  V30 10844 H 1012.53 2.87193 -0.624295 0
M  V30 10845 H 1010.04 1.56252 -0.442631 0
M  V30 10846 H 1012.04 3.83017 1.64631 0
M  V30 10847 H 1010.7 2.67075 1.84664 0
M  V30 10848 H 1011.71 5.09153 -0.947814 0
M  V30 10849 H 1008.39 3.94572 1.36453 0
M  V30 10850 H 1009.78 6.47728 -1.78601 0
M  V30 10851 N 1012.5 0.357919 1.53482 0
M  V30 10852 C 1013.75 -0.234163 2.01142 0
M  V30 10853 C 1014.07 -1.49399 1.2454 0
M  V30 10854 O 1013.33 -1.92981 0.325111 0
M  V30 10855 C 1013.63 -0.579617 3.52669 0
M  V30 10856 C 1013.29 0.584988 4.47089 0
M  V30 10857 C 1011.96 0.904558 4.72622 0
M  V30 10858 C 1014.31 1.3656 5.02992 0
M  V30 10859 C 1011.64 2.00685 5.5131 0
M  V30 10860 C 1013.99 2.45824 5.82884 0
M  V30 10861 C 1012.65 2.78325 6.06706 0
M  V30 10862 H 1011.92 -0.0856863 0.736029 0
M  V30 10863 H 1014.57 0.488801 1.85157 0
M  V30 10864 H 1012.87 -1.38349 3.66561 0
M  V30 10865 H 1014.57 -1.04985 3.87013 0
M  V30 10866 H 1011.16 0.32587 4.27359 0
M  V30 10867 H 1015.34 1.13196 4.83219 0
M  V30 10868 H 1010.6 2.26272 5.67988 0
M  V30 10869 H 1014.77 3.06732 6.25211 0
M  V30 10870 H 1012.4 3.63862 6.67464 0
M  V30 10871 N 1013.98 -1.5736 0.0868897 0
M  V30 10872 C 1015.25 -1.85495 -0.620561 0
M  V30 10873 C 1015.63 -0.982218 -1.86857 0
M  V30 10874 O 1014.98 -0.0524529 -2.2844 0
M  V30 10875 C 1015.19 -3.35996 -0.943798 0
M  V30 10876 C 1016.54 -4.03861 -1.31079 0
M  V30 10877 O 1017.56 -3.4083 -1.03507 0
M  V30 10878 O 1016.42 -5.15062 -1.82683 0
M  V30 10879 H 1013.52 -0.766822 -0.309697 0
M  V30 10880 H 1016.06 -1.69282 0.118966 0
M  V30 10881 H 1014.83 -3.91257 -0.0580628 0
M  V30 10882 H 1014.46 -3.57525 -1.73958 0
M  V30 10883 N 1015.45 0.186762 -1.56489 0
M  V30 10884 C 1016.39 1.25565 -1.91745 0
M  V30 10885 C 1017.4 1.4128 -0.80894 0
M  V30 10886 O 1018.59 1.41558 -1.08737 0
M  V30 10887 C 1015.69 2.62662 -2.14154 0
M  V30 10888 C 1014.86 2.68448 -3.45333 0
M  V30 10889 C 1013.92 3.86798 -3.56754 0
M  V30 10890 O 1012.95 3.73514 -4.29507 0
M  V30 10891 N 1014.15 5.02607 -2.90459 0
M  V30 10892 H 1016.91 0.956351 -2.84032 0
M  V30 10893 H 1014.47 0.376631 -1.57458 0
M  V30 10894 H 1016.47 3.40277 -2.19075 0
M  V30 10895 H 1015.04 2.85046 -1.28326 0
M  V30 10896 H 1014.26 1.77044 -3.52206 0
M  V30 10897 H 1015.54 2.69311 -4.31682 0
M  V30 10898 H 1014.94 5.163 -2.31194 0
M  V30 10899 H 1013.5 5.78139 -3.00996 0
M  V30 10900 N 1016.93 1.50896 0.454776 0
M  V30 10901 C 1018.17 1.64347 1.21529 0
M  V30 10902 C 1018.54 0.343869 1.88896 0
M  V30 10903 O 1019.74 0.353973 2.66459 0
M  V30 10904 C 1018.01 2.80199 2.21864 0
M  V30 10905 S 1019.57 3.13879 3.06636 0
M  V30 10906 H 1016.39 0.579193 0.412379 0
M  V30 10907 H 1018.99 1.88741 0.509629 0
M  V30 10908 H 1017.69 3.73086 1.70982 0
M  V30 10909 H 1017.22 2.57941 2.97036 0
M  V30 10910 H 1019.24 2.58964 4.23264 0
M  V30 10911 N 1018.41 -0.709066 1.40748 0
M  V30 10912 C 1019.34 -1.83583 1.4429 0
M  V30 10913 C 1020.32 -1.67378 0.303067 0
M  V30 10914 O 1021.51 -1.87312 0.512612 0
M  V30 10915 C 1018.64 -3.21599 1.31116 0
M  V30 10916 C 1017.59 -3.52486 2.4277 0
M  V30 10917 C 1016.92 -4.89716 2.14668 0
M  V30 10918 C 1018.22 -3.52824 3.85113 0
M  V30 10919 H 1019.91 -1.80876 2.38588 0
M  V30 10920 H 1017.46 -0.868795 1.14839 0
M  V30 10921 H 1019.41 -4.00123 1.32209 0
M  V30 10922 H 1018.13 -3.24898 0.332965 0
M  V30 10923 H 1016.79 -2.76305 2.40937 0
M  V30 10924 H 1016.44 -4.89625 1.15224 0
M  V30 10925 H 1016.14 -5.11347 2.89478 0
M  V30 10926 H 1017.66 -5.70566 2.17455 0
M  V30 10927 H 1019.08 -4.21377 3.88734 0
M  V30 10928 H 1017.48 -3.85984 4.59496 0
M  V30 10929 H 1018.55 -2.52073 4.14231 0
M  V30 10930 N 1019.89 -1.26353 -0.941956 0
M  V30 10931 C 1020.82 -1.02163 -2.04054 0
M  V30 10932 C 1021.8 0.0533514 -1.62512 0
M  V30 10933 O 1022.98 -0.0889063 -1.8829 0
M  V30 10934 C 1020.11 -0.546908 -3.34255 0
M  V30 10935 C 1019.16 -1.61433 -3.94768 0
M  V30 10936 S 1019.99 -3.20306 -4.29144 0
M  V30 10937 C 1021.15 -2.746 -5.62446 0
M  V30 10938 H 1021.38 -1.9518 -2.24259 0
M  V30 10939 H 1018.91 -1.10024 -1.08324 0
M  V30 10940 H 1020.87 -0.279673 -4.09546 0
M  V30 10941 H 1019.53 0.36297 -3.11996 0
M  V30 10942 H 1018.72 -1.23315 -4.88681 0
M  V30 10943 H 1018.33 -1.8329 -3.26007 0
M  V30 10944 H 1020.62 -2.19015 -6.41123 0
M  V30 10945 H 1021.56 -3.67202 -6.05449 0
M  V30 10946 H 1021.97 -2.1419 -5.22286 0
M  V30 10947 N 1021.37 1.14642 -1.08144 0
M  V30 10948 C 1022.62 1.84964 -0.804437 0
M  V30 10949 C 1022.93 1.8369 0.672106 0
M  V30 10950 O 1024.14 2.49775 1.06417 0
M  V30 10951 C 1022.59 3.32015 -1.38904 0
M  V30 10952 C 1022.2 3.41713 -2.89718 0
M  V30 10953 C 1023.94 4.07467 -1.19041 0
M  V30 10954 C 1021.85 4.82958 -3.41329 0
M  V30 10955 H 1020.78 0.692932 -0.297256 0
M  V30 10956 H 1023.43 1.29255 -1.30251 0
M  V30 10957 H 1021.81 3.87445 -0.818679 0
M  V30 10958 H 1022.99 2.96347 -3.52867 0
M  V30 10959 H 1021.3 2.79713 -3.08463 0
M  V30 10960 H 1023.9 5.1172 -1.55069 0
M  V30 10961 H 1024.24 4.16097 -0.130027 0
M  V30 10962 H 1024.78 3.58329 -1.72757 0
M  V30 10963 H 1021.51 4.79515 -4.46929 0
M  V30 10964 H 1021.03 5.28873 -2.82937 0
M  V30 10965 H 1022.71 5.51841 -3.37759 0
M  V30 10966 N 1022.85 0.866709 1.31628 0
M  V30 10967 C 1023.78 0.335762 2.31073 0
M  V30 10968 C 1024.76 -0.571597 1.60209 0
M  V30 10969 O 1025.94 -0.489306 1.87935 0
M  V30 10970 C 1023.07 -0.466416 3.44154 0
M  V30 10971 C 1022.03 0.347561 4.26586 0
M  V30 10972 C 1021.35 -0.5801 5.31544 0
M  V30 10973 C 1022.65 1.57986 4.97833 0
M  V30 10974 H 1024.35 1.16673 2.75731 0
M  V30 10975 H 1021.89 0.56248 1.3256 0
M  V30 10976 H 1023.84 -0.84836 4.12772 0
M  V30 10977 H 1022.57 -1.33086 2.98254 0
M  V30 10978 H 1021.23 0.71141 3.59631 0
M  V30 10979 H 1020.88 -1.44174 4.81895 0
M  V30 10980 H 1020.58 -0.0393965 5.87587 0
M  V30 10981 H 1022.1 -0.958958 6.03023 0
M  V30 10982 H 1023.51 1.26954 5.59067 0
M  V30 10983 H 1021.91 2.05939 5.63657 0
M  V30 10984 H 1022.98 2.3345 4.25005 0
M  V30 10985 N 1024.32 -1.44642 0.625825 0
M  V30 10986 C 1025.27 -2.32408 -0.0945221 0
M  V30 10987 C 1026.27 -1.47038 -0.841198 0
M  V30 10988 O 1027.47 -1.63415 -0.754698 0
M  V30 10989 H 1023.85 -0.75038 -0.0493321 0
M  V30 10990 H 1025.82 -2.90922 0.663863 0
M  V30 10991 C 1024.57 -3.30951 -1.06615 0
M  V30 10992 H 1023.89 -3.96648 -0.501021 0
M  V30 10993 H 1025.33 -3.95054 -1.53976 0
M  V30 10994 C 1023.79 -2.59479 -2.14877 0
M  V30 10995 O 1024.32 -2.38974 -3.22885 0
M  V30 10996 N 1022.52 -2.19307 -1.90665 0
M  V30 10997 H 1022.07 -2.36184 -1.02835 0
M  V30 10998 H 1022.03 -1.71811 -2.63303 0
M  V30 10999 N 1025.8 -0.366053 -1.5329 0
M  V30 11000 C 1027.03 0.226839 -2.06156 0
M  V30 11001 C 1027.45 1.41637 -1.23776 0
M  V30 11002 O 1026.81 1.7947 -0.256948 0
M  V30 11003 C 1026.86 0.597956 -3.55608 0
M  V30 11004 O 1025.96 1.69512 -3.75951 0
M  V30 11005 H 1025.3 0.0329156 -0.663184 0
M  V30 11006 H 1027.83 -0.526793 -1.97702 0
M  V30 11007 H 1027.84 0.868831 -3.98642 0
M  V30 11008 H 1026.52 -0.271838 -4.15011 0
M  V30 11009 H 1025.09 1.41976 -3.44815 0
M  V30 11010 N 1027.28 1.57312 -0.0952337 0
M  V30 11011 C 1028.69 1.81589 0.433875 0
M  V30 11012 C 1029.04 1.01086 1.68155 0
M  V30 11013 O 1028.17 0.240272 2.15062 0
M  V30 11014 C 1028.76 3.29366 0.793931 0
M  V30 11015 C 1027.32 3.54407 1.26778 0
M  V30 11016 C 1026.47 2.76035 0.264518 0
M  V30 11017 H 1029.42 1.55426 -0.320675 0
M  V30 11018 H 1029.44 3.42697 1.65345 0
M  V30 11019 H 1028.95 3.87932 -0.114334 0
M  V30 11020 H 1027.05 3.01173 2.19376 0
M  V30 11021 H 1027.17 4.63055 1.22952 0
M  V30 11022 H 1025.53 2.43509 0.746691 0
M  V30 11023 H 1026.31 3.37349 -0.636429 0
M  V30 11024 N 1028.76 -0.17846 1.56586 0
M  V30 11025 C 1030.01 -0.894464 1.81228 0
M  V30 11026 C 1030.33 -1.83089 0.671062 0
M  V30 11027 O 1029.6 -1.93439 -0.309557 0
M  V30 11028 H 1028.18 -0.333288 0.668527 0
M  V30 11029 H 1030.84 -0.179986 1.94067 0
M  V30 11030 H 1029.93 -1.47565 2.75011 0
M  V30 11031 N 1030.24 -1.51135 -0.446768 0
M  V30 11032 C 1031.18 -1.72328 -1.56224 0
M  V30 11033 C 1032.18 -0.589411 -1.58815 0
M  V30 11034 O 1033.38 -0.770554 -1.62673 0
M  V30 11035 H 1029.76 -0.544339 -0.518844 0
M  V30 11036 H 1031.73 -2.65851 -1.3552 0
M  V30 11037 C 1030.48 -1.85686 -2.93966 0
M  V30 11038 H 1029.8 -2.72336 -2.927 0
M  V30 11039 H 1031.24 -2.0453 -3.71407 0
M  V30 11040 C 1029.7 -0.614328 -3.31252 0
M  V30 11041 O 1030.23 0.235369 -4.0101 0
M  V30 11042 N 1028.44 -0.461181 -2.86917 0
M  V30 11043 H 1027.98 -1.15369 -2.30321 0
M  V30 11044 H 1027.94 0.368966 -3.12227 0
M  V30 11045 N 1031.71 0.701592 -1.41122 0
M  V30 11046 C 1032.65 1.8268 -1.38422 0
M  V30 11047 C 1033.66 1.60244 -0.287342 0
M  V30 11048 O 1034.85 1.69859 -0.548658 0
M  V30 11049 C 1031.95 3.19338 -1.13475 0
M  V30 11050 C 1031.12 3.68853 -2.35088 0
M  V30 11051 C 1030.18 4.84163 -2.06089 0
M  V30 11052 O 1029.21 4.9609 -2.79077 0
M  V30 11053 N 1030.41 5.70972 -1.04743 0
M  V30 11054 H 1033.17 1.8549 -2.35401 0
M  V30 11055 H 1030.73 0.883682 -1.35656 0
M  V30 11056 H 1032.73 3.94095 -0.920377 0
M  V30 11057 H 1031.3 3.11589 -0.251152 0
M  V30 11058 H 1030.52 2.8507 -2.72266 0
M  V30 11059 H 1031.8 3.98673 -3.16129 0
M  V30 11060 H 1031.2 5.63961 -0.443221 0
M  V30 11061 H 1029.76 6.45654 -0.892949 0
M  V30 11062 N 1033.19 1.2685 0.935242 0
M  V30 11063 C 1034.44 1.12132 1.67658 0
M  V30 11064 C 1034.75 -0.333839 1.9273 0
M  V30 11065 O 1035.96 -0.601801 2.64746 0
M  V30 11066 C 1034.42 1.95873 3.0193 0
M  V30 11067 C 1034.02 3.46 2.84584 0
M  V30 11068 C 1035.77 1.89781 3.79715 0
M  V30 11069 C 1033.67 4.21966 4.14365 0
M  V30 11070 H 1032.6 0.416035 0.628833 0
M  V30 11071 H 1035.26 1.51209 1.03962 0
M  V30 11072 H 1033.64 1.49633 3.66641 0
M  V30 11073 H 1034.81 4.00049 2.28687 0
M  V30 11074 H 1033.13 3.53391 2.20236 0
M  V30 11075 H 1035.72 2.43819 4.75875 0
M  V30 11076 H 1036.07 0.869797 4.07112 0
M  V30 11077 H 1036.6 2.33875 3.21788 0
M  V30 11078 H 1033.34 5.2526 3.9215 0
M  V30 11079 H 1032.86 3.72696 4.69955 0
M  V30 11080 H 1034.54 4.30734 4.82781 0
M  V30 11081 N 1034.67 -1.14067 1.0875 0
M  V30 11082 C 1035.6 -2.21385 0.74236 0
M  V30 11083 C 1036.58 -1.67833 -0.276805 0
M  V30 11084 O 1037.77 -1.93647 -0.1464 0
M  V30 11085 C 1034.9 -3.46956 0.154644 0
M  V30 11086 C 1033.85 -4.13555 1.10255 0
M  V30 11087 C 1033.18 -5.3337 0.376877 0
M  V30 11088 C 1034.48 -4.6169 2.44213 0
M  V30 11089 H 1036.17 -2.50512 1.63964 0
M  V30 11090 H 1033.72 -1.20408 0.789807 0
M  V30 11091 H 1035.67 -4.21284 -0.0988419 0
M  V30 11092 H 1034.39 -3.17203 -0.777789 0
M  V30 11093 H 1033.05 -3.41186 1.34119 0
M  V30 11094 H 1032.7 -4.99879 -0.559472 0
M  V30 11095 H 1032.4 -5.78875 1.00884 0
M  V30 11096 H 1033.92 -6.10458 0.131527 0
M  V30 11097 H 1035.34 -5.27475 2.24595 0
M  V30 11098 H 1033.74 -5.17909 3.03134 0
M  V30 11099 H 1034.81 -3.76574 3.05483 0
M  V30 11100 N 1036.15 -0.873678 -1.31166 0
M  V30 11101 C 1037.37 -0.500242 -2.01277 0
M  V30 11102 C 1037.8 0.900811 -1.65127 0
M  V30 11103 O 1037.16 1.59504 -0.861862 0
M  V30 11104 C 1037.2 -0.668976 -3.5434 0
M  V30 11105 O 1036.31 0.290096 -4.11378 0
M  V30 11106 H 1035.65 -0.198507 -0.633633 0
M  V30 11107 H 1038.18 -1.17811 -1.67277 0
M  V30 11108 H 1038.19 -0.563673 -4.04088 0
M  V30 11109 H 1036.86 -1.69055 -3.79991 0
M  V30 11110 H 1035.44 0.139437 -3.72639 0
M  V30 11111 N 1037.63 1.44308 -0.633487 0
M  V30 11112 C 1038.87 2.01624 -0.138643 0
M  V30 11113 C 1039.2 1.50101 1.24477 0
M  V30 11114 O 1038.47 0.705575 1.82752 0
M  V30 11115 H 1037.05 0.745439 -0.0482636 0
M  V30 11116 H 1039.71 1.76777 -0.820719 0
M  V30 11117 H 1038.8 3.11913 -0.108136 0
M  V30 11118 N 1039.1 0.374177 1.53094 0
M  V30 11119 C 1040.03 -0.459976 2.28925 0
M  V30 11120 C 1041.02 -1.07656 1.31698 0
M  V30 11121 O 1042.2 -1.09219 1.60577 0
M  V30 11122 C 1039.33 -1.5954 3.08487 0
M  V30 11123 C 1038.28 -1.10563 4.13473 0
M  V30 11124 C 1037.61 -2.33196 4.81169 0
M  V30 11125 C 1038.91 -0.184275 5.21975 0
M  V30 11126 H 1040.6 0.172692 2.98902 0
M  V30 11127 H 1038.15 0.0844956 1.43752 0
M  V30 11128 H 1040.1 -2.18565 3.60288 0
M  V30 11129 H 1038.83 -2.25543 2.36216 0
M  V30 11130 H 1037.49 -0.53801 3.62631 0
M  V30 11131 H 1037.13 -2.97675 4.05461 0
M  V30 11132 H 1036.83 -2.01094 5.52119 0
M  V30 11133 H 1038.36 -2.92892 5.35767 0
M  V30 11134 H 1039.77 -0.682262 5.69226 0
M  V30 11135 H 1038.17 0.0462746 6.00082 0
M  V30 11136 H 1039.24 0.771152 4.78729 0
M  V30 11137 N 1040.58 -1.57259 0.103575 0
M  V30 11138 C 1041.81 -1.99424 -0.569638 0
M  V30 11139 C 1042.23 -0.982475 -1.60403 0
M  V30 11140 O 1041.59 0.0479231 -1.81237 0
M  V30 11141 C 1041.64 -3.40527 -1.18633 0
M  V30 11142 O 1040.74 -3.42167 -2.30208 0
M  V30 11143 H 1040.08 -0.648251 -0.143759 0
M  V30 11144 H 1042.61 -2.03739 0.187493 0
M  V30 11145 H 1042.62 -3.78404 -1.5256 0
M  V30 11146 H 1041.3 -4.13686 -0.428582 0
M  V30 11147 H 1039.88 -3.16093 -1.97837 0
M  V30 11148 N 1042.06 0.170153 -1.56679 0
M  V30 11149 C 1043.31 0.884902 -1.81252 0
M  V30 11150 C 1043.62 1.83361 -0.681024 0
M  V30 11151 O 1044.83 2.59082 -0.811722 0
M  V30 11152 C 1043.28 1.62408 -3.21172 0
M  V30 11153 C 1042.89 0.718947 -4.42194 0
M  V30 11154 C 1044.64 2.32699 -3.55037 0
M  V30 11155 C 1042.54 1.45843 -5.73135 0
M  V30 11156 H 1041.47 0.33418 -0.675899 0
M  V30 11157 H 1044.12 0.137818 -1.82982 0
M  V30 11158 H 1042.51 2.41596 -3.13763 0
M  V30 11159 H 1043.68 -0.0360521 -4.60786 0
M  V30 11160 H 1042 0.125634 -4.1621 0
M  V30 11161 H 1044.59 2.88621 -4.50114 0
M  V30 11162 H 1044.94 3.08092 -2.79974 0
M  V30 11163 H 1045.47 1.60453 -3.64005 0
M  V30 11164 H 1042.21 0.746799 -6.51232 0
M  V30 11165 H 1041.73 2.18672 -5.58518 0
M  V30 11166 H 1043.41 2.0056 -6.1513 0
M  V30 11167 N 1043.54 1.5137 0.438746 0
M  V30 11168 C 1044.45 1.75424 1.55768 0
M  V30 11169 C 1045.46 0.638409 1.61865 0
M  V30 11170 O 1046.64 0.9205 1.79133 0
M  V30 11171 C 1043.71 1.87288 2.9176 0
M  V30 11172 C 1042.77 3.11137 2.95791 0
M  V30 11173 C 1042 3.22425 4.25297 0
M  V30 11174 O 1042.22 2.39688 5.17596 0
M  V30 11175 O 1041.16 4.15393 4.35583 0
M  V30 11176 H 1044.98 2.70339 1.38386 0
M  V30 11177 H 1042.57 1.35854 0.621609 0
M  V30 11178 H 1044.45 1.97085 3.72472 0
M  V30 11179 H 1043.12 0.955599 3.09273 0
M  V30 11180 H 1042.03 3.06819 2.1404 0
M  V30 11181 H 1043.36 4.02549 2.83223 0
M  V30 11182 N 1045.02 -0.694098 1.41492 0
M  V30 11183 C 1045.93 -1.83778 1.45818 0
M  V30 11184 C 1046.94 -1.70471 0.348639 0
M  V30 11185 O 1048.12 -1.92361 0.596588 0
M  V30 11186 C 1045.18 -3.19771 1.33967 0
M  V30 11187 C 1044.24 -3.45175 2.5525 0
M  V30 11188 C 1043.48 -4.74681 2.43955 0
M  V30 11189 O 1043.7 -5.51268 1.46491 0
M  V30 11190 O 1042.63 -5.00901 3.33739 0
M  V30 11191 H 1046.46 -1.83084 2.42309 0
M  V30 11192 H 1044.05 -0.847349 1.23046 0
M  V30 11193 H 1045.93 -4.00961 1.29648 0
M  V30 11194 H 1044.6 -3.21145 0.405926 0
M  V30 11195 H 1043.51 -2.6391 2.65146 0
M  V30 11196 H 1044.84 -3.48617 3.47458 0
M  V30 11197 N 1046.49 -1.27344 -0.928501 0
M  V30 11198 C 1047.72 -1.16278 -1.70772 0
M  V30 11199 C 1048.13 0.283131 -1.8707 0
M  V30 11200 O 1047.48 1.20466 -1.38685 0
M  V30 11201 C 1047.54 -1.77313 -3.1273 0
M  V30 11202 C 1047.2 -3.26488 -3.19773 0
M  V30 11203 C 1048.2 -4.23133 -3.02083 0
M  V30 11204 C 1045.88 -3.67182 -3.42757 0
M  V30 11205 C 1047.88 -5.5845 -3.07267 0
M  V30 11206 C 1045.56 -5.02629 -3.47574 0
M  V30 11207 C 1046.56 -5.98072 -3.29847 0
M  V30 11208 O 1046.25 -7.3105 -3.34397 0
M  V30 11209 H 1045.98 -0.405215 -0.541089 0
M  V30 11210 H 1048.54 -1.68707 -1.17163 0
M  V30 11211 H 1046.77 -1.19361 -3.67818 0
M  V30 11212 H 1048.46 -1.60972 -3.72616 0
M  V30 11213 H 1049.22 -3.93031 -2.84168 0
M  V30 11214 H 1045.1 -2.93369 -3.55606 0
M  V30 11215 H 1048.64 -6.32924 -2.93348 0
M  V30 11216 H 1044.54 -5.32387 -3.65013 0
M  V30 11217 H 1045.31 -7.39488 -3.50857 0
M  V30 11218 N 1047.97 1.13488 -1.09353 0
M  V30 11219 C 1048.92 2.18876 -0.732251 0
M  V30 11220 C 1049.89 1.63616 0.286175 0
M  V30 11221 O 1051.07 1.90059 0.167981 0
M  V30 11222 C 1048.21 3.44737 -0.158157 0
M  V30 11223 C 1047.33 4.14104 -1.23053 0
M  V30 11224 C 1046.46 5.27578 -0.619272 0
M  V30 11225 C 1045.5 5.88793 -1.67301 0
M  V30 11226 N 1044.64 6.937 -1.08283 0
M  V30 11227 H 1049.48 2.49128 -1.63522 0
M  V30 11228 H 1047.02 1.22326 -0.816995 0
M  V30 11229 H 1048.97 4.16756 0.192488 0
M  V30 11230 H 1047.6 3.14938 0.708082 0
M  V30 11231 H 1046.66 3.40376 -1.69847 0
M  V30 11232 H 1047.97 4.55683 -2.02865 0
M  V30 11233 H 1047.12 6.0631 -0.217428 0
M  V30 11234 H 1045.86 4.87246 0.210399 0
M  V30 11235 H 1044.87 5.08756 -2.0844 0
M  V30 11236 H 1046.09 6.31197 -2.50533 0
M  V30 11237 H 1044.04 6.55426 -0.274426 0
M  V30 11238 H 1043.95 7.33817 -1.81792 0
M  V30 11239 H 1045.22 7.76286 -0.707167 0
M  V30 11240 N 1049.45 0.880621 1.30701 0
M  V30 11241 C 1050.68 0.511682 2.00473 0
M  V30 11242 C 1051.09 -0.898684 1.6604 0
M  V30 11243 O 1050.45 -1.59035 0.895218 0
M  V30 11244 C 1050.5 0.671723 3.55204 0
M  V30 11245 O 1050.22 2.02656 3.8841 0
M  V30 11246 C 1051.72 0.3052 4.42248 0
M  V30 11247 H 1048.94 0.198231 0.64105 0
M  V30 11248 H 1051.49 1.18472 1.66687 0
M  V30 11249 H 1049.64 0.0461066 3.87373 0
M  V30 11250 H 1050.06 2.04202 4.83117 0
M  V30 11251 H 1051.53 0.468095 5.50012 0
M  V30 11252 H 1052.01 -0.756456 4.32637 0
M  V30 11253 H 1052.61 0.906959 4.15517 0
M  V30 11254 N 1050.93 -1.4397 0.641131 0
M  V30 11255 C 1052.16 -2.06303 0.157006 0
M  V30 11256 C 1052.57 -1.47981 -1.17248 0
M  V30 11257 O 1051.93 -0.606471 -1.72128 0
M  V30 11258 C 1051.98 -3.6147 0.0468425 0
M  V30 11259 O 1051.7 -4.17622 1.32376 0
M  V30 11260 C 1053.2 -4.40857 -0.464795 0
M  V30 11261 H 1050.42 -0.665684 0.0842946 0
M  V30 11262 H 1052.97 -1.84675 0.878363 0
M  V30 11263 H 1051.12 -3.82325 -0.625006 0
M  V30 11264 H 1051.54 -5.11167 1.17509 0
M  V30 11265 H 1053.01 -5.49813 -0.490862 0
M  V30 11266 H 1053.49 -4.13016 -1.4938 0
M  V30 11267 H 1054.09 -4.24943 0.174146 0
M  V30 11268 N 1052.41 -0.382291 -1.52893 0
M  V30 11269 C 1053.34 0.447829 -2.29165 0
M  V30 11270 C 1054.32 1.06956 -1.32267 0
M  V30 11271 O 1055.5 1.08365 -1.61154 0
M  V30 11272 C 1052.63 1.57902 -3.09329 0
M  V30 11273 C 1051.59 1.08369 -4.14053 0
M  V30 11274 C 1050.91 2.30641 -4.82399 0
M  V30 11275 C 1052.21 0.156591 -5.22065 0
M  V30 11276 H 1053.91 -0.188541 -2.98806 0
M  V30 11277 H 1051.45 -0.0921179 -1.43705 0
M  V30 11278 H 1053.41 2.16652 -3.61442 0
M  V30 11279 H 1052.13 2.24287 -2.37409 0
M  V30 11280 H 1050.79 0.518772 -3.62911 0
M  V30 11281 H 1050.44 2.9552 -4.07034 0
M  V30 11282 H 1050.14 1.98163 -5.53177 0
M  V30 11283 H 1051.66 2.90047 -5.37313 0
M  V30 11284 H 1053.08 0.652065 -5.6958 0
M  V30 11285 H 1051.47 -0.0780978 -6.00049 0
M  V30 11286 H 1052.54 -0.796529 -4.78313 0
M  V30 11287 N 1053.89 1.57202 -0.111913 0
M  V30 11288 C 1054.83 2.14936 0.840908 0
M  V30 11289 C 1055.8 1.07242 1.2684 0
M  V30 11290 O 1056.99 1.35114 1.34718 0
M  V30 11291 C 1054.13 2.74743 2.0883 0
M  V30 11292 C 1053.24 3.96723 1.70982 0
M  V30 11293 C 1052.38 4.4464 2.90634 0
M  V30 11294 C 1051.41 5.59169 2.48992 0
M  V30 11295 N 1050.55 6.01862 3.61534 0
M  V30 11296 H 1055.39 2.96034 0.341735 0
M  V30 11297 H 1052.93 1.4626 0.156993 0
M  V30 11298 H 1054.89 3.07546 2.81907 0
M  V30 11299 H 1053.52 1.96346 2.56218 0
M  V30 11300 H 1052.57 3.70127 0.878072 0
M  V30 11301 H 1053.88 4.79795 1.36373 0
M  V30 11302 H 1053.03 4.79315 3.71944 0
M  V30 11303 H 1051.77 3.60503 3.28464 0
M  V30 11304 H 1050.78 5.24106 1.66113 0
M  V30 11305 H 1052 6.45067 2.12287 0
M  V30 11306 H 1049.95 5.20667 3.99051 0
M  V30 11307 H 1049.87 6.79772 3.30827 0
M  V30 11308 H 1051.13 6.41172 4.43305 0
M  V30 11309 N 1055.36 -0.161842 1.56767 0
M  V30 11310 C 1056.61 -0.875278 1.81719 0
M  V30 11311 C 1056.93 -1.82998 0.690739 0
M  V30 11312 O 1058.13 -2.58648 0.82545 0
M  V30 11313 C 1056.59 -1.60703 3.22029 0
M  V30 11314 C 1056.2 -0.695486 4.42569 0
M  V30 11315 C 1057.94 -2.30813 3.56266 0
M  V30 11316 C 1055.85 -1.42801 5.73901 0
M  V30 11317 H 1054.78 -0.330591 0.677662 0
M  V30 11318 H 1057.43 -0.128112 1.83052 0
M  V30 11319 H 1055.81 -2.39929 3.1504 0
M  V30 11320 H 1056.98 0.0604882 4.6076 0
M  V30 11321 H 1055.3 -0.10356 4.16271 0
M  V30 11322 H 1057.9 -2.86229 4.51638 0
M  V30 11323 H 1058.24 -3.06603 2.81604 0
M  V30 11324 H 1058.77 -1.5852 3.64851 0
M  V30 11325 H 1055.51 -0.712253 6.51619 0
M  V30 11326 H 1055.03 -2.15707 5.5967 0
M  V30 11327 H 1056.71 -1.97295 6.16185 0
M  V30 11328 N 1056.84 -1.516 -0.430713 0
M  V30 11329 C 1058.09 -1.63829 -1.17657 0
M  V30 11330 C 1058.4 -0.363605 -1.92191 0
M  V30 11331 O 1059.61 -0.365358 -2.6903 0
M  V30 11332 C 1058.07 -2.89357 -2.14011 0
M  V30 11333 C 1057.67 -4.23854 -1.45094 0
M  V30 11334 C 1059.42 -3.10944 -2.88988 0
M  V30 11335 C 1057.32 -5.40526 -2.3997 0
M  V30 11336 H 1056.25 -0.610221 -0.442884 0
M  V30 11337 H 1058.91 -1.78073 -0.442984 0
M  V30 11338 H 1057.29 -2.68762 -2.90832 0
M  V30 11339 H 1058.46 -4.54854 -0.737853 0
M  V30 11340 H 1056.78 -4.08197 -0.822429 0
M  V30 11341 H 1059.37 -3.95286 -3.60074 0
M  V30 11342 H 1059.72 -2.24291 -3.50712 0
M  V30 11343 H 1060.25 -3.3191 -2.19272 0
M  V30 11344 H 1056.99 -6.29459 -1.82925 0
M  V30 11345 H 1056.51 -5.13893 -3.09313 0
M  V30 11346 H 1058.19 -5.72741 -3.00959 0
M  V30 11347 N 1058.32 0.686584 -1.41858 0
M  V30 11348 C 1059.27 1.80038 -1.44413 0
M  V30 11349 C 1060.24 1.63415 -0.297427 0
M  V30 11350 O 1061.42 1.84138 -0.499789 0
M  V30 11351 C 1058.56 3.17988 -1.34082 0
M  V30 11352 C 1057.67 3.45979 -2.58693 0
M  V30 11353 C 1056.81 4.73592 -2.4059 0
M  V30 11354 C 1055.85 4.94581 -3.60633 0
M  V30 11355 N 1054.99 6.13426 -3.41545 0
M  V30 11356 H 1059.83 1.77189 -2.396 0
M  V30 11357 H 1057.36 0.865158 -1.18968 0
M  V30 11358 H 1059.32 3.97689 -1.26092 0
M  V30 11359 H 1057.95 3.1999 -0.424975 0
M  V30 11360 H 1057 2.60617 -2.77097 0
M  V30 11361 H 1058.31 3.57386 -3.47961 0
M  V30 11362 H 1057.47 5.61364 -2.30119 0
M  V30 11363 H 1056.21 4.64448 -1.48794 0
M  V30 11364 H 1055.21 4.05254 -3.71549 0
M  V30 11365 H 1056.44 5.05578 -4.53395 0
M  V30 11366 H 1054.38 6.05477 -2.52456 0
M  V30 11367 H 1054.3 6.25641 -4.24393 0
M  V30 11368 H 1055.57 7.03908 -3.34864 0
M  V30 11369 N 1059.8 1.27835 0.921735 0
M  V30 11370 C 1060.73 1.06874 2.02758 0
M  V30 11371 C 1061.74 0.0229418 1.62784 0
M  V30 11372 O 1062.93 0.265145 1.7652 0
M  V30 11373 C 1060.03 0.60037 3.3354 0
M  V30 11374 C 1059.2 1.71979 4.02172 0
M  V30 11375 C 1058.26 1.24615 5.11231 0
M  V30 11376 O 1057.29 1.94692 5.34868 0
M  V30 11377 N 1058.49 0.105021 5.80405 0
M  V30 11378 H 1061.26 2.02105 2.213 0
M  V30 11379 H 1058.82 1.19481 1.09251 0
M  V30 11380 H 1060.81 0.267281 4.03816 0
M  V30 11381 H 1059.38 -0.258872 3.11526 0
M  V30 11382 H 1058.6 2.22287 3.25549 0
M  V30 11383 H 1059.89 2.47092 4.44773 0
M  V30 11384 H 1059.29 -0.479745 5.63662 0
M  V30 11385 H 1057.84 -0.168846 6.51581 0
M  V30 11386 N 1061.28 -1.12907 1.09954 0
M  V30 11387 C 1062.24 -2.16673 0.747364 0
M  V30 11388 C 1063.24 -1.59208 -0.225741 0
M  V30 11389 O 1064.43 -1.742 -0.00322482 0
M  V30 11390 C 1061.56 -3.40735 0.106169 0
M  V30 11391 H 1062.75 -2.49341 1.6664 0
M  V30 11392 H 1060.31 -1.27828 0.899421 0
M  V30 11393 H 1061.04 -3.13661 -0.82384 0
M  V30 11394 H 1060.83 -3.83717 0.806434 0
M  V30 11395 H 1062.32 -4.17414 -0.12464 0
M  V30 11396 N 1062.75 -0.88754 -1.30232 0
M  V30 11397 C 1064 -0.503322 -1.95319 0
M  V30 11398 C 1064.32 0.952817 -1.70824 0
M  V30 11399 O 1065.52 1.444 -2.29915 0
M  V30 11400 C 1063.98 -0.849216 -3.49738 0
M  V30 11401 C 1063.59 -2.3233 -3.83049 0
M  V30 11402 C 1065.33 -0.53432 -4.21124 0
M  V30 11403 C 1063.24 -2.61069 -5.30657 0
M  V30 11404 H 1062.17 -0.1845 -0.731078 0
M  V30 11405 H 1064.82 -1.08287 -1.48143 0
M  V30 11406 H 1063.2 -0.198729 -3.95501 0
M  V30 11407 H 1064.37 -3.01832 -3.48187 0
M  V30 11408 H 1062.69 -2.60599 -3.24773 0
M  V30 11409 H 1065.29 -0.726039 -5.29748 0
M  V30 11410 H 1065.63 0.526434 -4.12958 0
M  V30 11411 H 1066.16 -1.14211 -3.81052 0
M  V30 11412 H 1062.9 -3.65895 -5.43876 0
M  V30 11413 H 1062.42 -1.96179 -5.6681 0
M  V30 11414 H 1064.1 -2.46703 -5.98119 0
M  V30 11415 N 1064.23 1.43628 -0.648757 0
M  V30 11416 C 1065.16 2.33478 0.0320785 0
M  V30 11417 C 1066.14 1.49217 0.816605 0
M  V30 11418 O 1067.33 1.77892 0.778974 0
M  V30 11419 C 1064.46 3.32525 1.00222 0
M  V30 11420 C 1063.41 4.2674 0.328119 0
M  V30 11421 C 1062.74 5.15791 1.4094 0
M  V30 11422 C 1064.04 5.16493 -0.776701 0
M  V30 11423 H 1065.73 2.90657 -0.718257 0
M  V30 11424 H 1063.28 1.3976 -0.346852 0
M  V30 11425 H 1065.23 3.94277 1.4874 0
M  V30 11426 H 1063.96 2.73593 1.78366 0
M  V30 11427 H 1062.61 3.66346 -0.136569 0
M  V30 11428 H 1062.26 4.53201 2.18216 0
M  V30 11429 H 1061.96 5.79645 0.963631 0
M  V30 11430 H 1063.49 5.80416 1.89603 0
M  V30 11431 H 1064.9 5.7208 -0.373878 0
M  V30 11432 H 1063.3 5.89043 -1.14667 0
M  V30 11433 H 1064.37 4.56448 -1.63654 0
M  V30 11434 N 1065.71 0.390394 1.52688 0
M  V30 11435 C 1066.67 -0.432149 2.25089 0
M  V30 11436 C 1067.67 -0.989296 1.26766 0
M  V30 11437 O 1068.86 -0.871126 1.50854 0
M  V30 11438 C 1066 -1.60642 3.00678 0
M  V30 11439 H 1067.19 0.201734 2.99221 0
M  V30 11440 H 1064.74 0.142531 1.55649 0
M  V30 11441 H 1065.48 -2.2777 2.3085 0
M  V30 11442 H 1065.26 -1.21361 3.72846 0
M  V30 11443 H 1066.75 -2.18873 3.55647 0
M  V30 11444 N 1067.19 -1.57141 0.120249 0
M  V30 11445 C 1068.42 -1.99589 -0.545136 0
M  V30 11446 C 1068.83 -0.999951 -1.60145 0
M  V30 11447 O 1068.19 0.00698897 -1.82499 0
M  V30 11448 C 1068.24 -3.42038 -1.17014 0
M  V30 11449 O 1067.96 -4.37822 -0.156044 0
M  V30 11450 C 1069.46 -3.99625 -1.91872 0
M  V30 11451 H 1066.68 -0.655318 -0.144222 0
M  V30 11452 H 1069.23 -2.0345 0.206955 0
M  V30 11453 H 1067.38 -3.39113 -1.873 0
M  V30 11454 H 1067.79 -5.20937 -0.610317 0
M  V30 11455 H 1069.27 -5.01374 -2.30928 0
M  V30 11456 H 1069.75 -3.38836 -2.7944 0
M  V30 11457 H 1070.35 -4.061 -1.26345 0
M  V30 11458 N 1068.67 0.153526 -1.5685 0
M  V30 11459 C 1069.94 0.895545 -1.73895 0
M  V30 11460 C 1070.32 1.99625 -0.686504 0
M  V30 11461 O 1069.67 2.26579 0.2957 0
M  V30 11462 C 1069.88 1.44399 -3.17726 0
M  V30 11463 C 1071.23 1.90996 -3.79217 0
M  V30 11464 O 1072.25 1.54155 -3.21115 0
M  V30 11465 O 1071.11 2.58917 -4.81274 0
M  V30 11466 H 1068.21 0.422755 -0.710779 0
M  V30 11467 H 1070.75 0.139961 -1.69122 0
M  V30 11468 H 1069.52 0.652635 -3.85819 0
M  V30 11469 H 1069.15 2.26326 -3.26898 0
M  V30 11470 N 1070.14 1.51827 0.422667 0
M  V30 11471 C 1071.07 1.77152 1.52117 0
M  V30 11472 C 1072.06 0.621895 1.58324 0
M  V30 11473 O 1073.24 0.866118 1.73816 0
M  V30 11474 C 1070.37 1.90991 2.90068 0
M  V30 11475 C 1069.32 3.06516 2.98717 0
M  V30 11476 C 1068.65 3.05559 4.38791 0
M  V30 11477 C 1069.95 4.46223 2.71445 0
M  V30 11478 H 1071.64 2.69135 1.31175 0
M  V30 11479 H 1069.19 1.29507 0.629607 0
M  V30 11480 H 1071.14 2.07291 3.6689 0
M  V30 11481 H 1069.87 0.956688 3.12274 0
M  V30 11482 H 1068.53 2.89945 2.24338 0
M  V30 11483 H 1068.17 2.07985 4.57986 0
M  V30 11484 H 1067.87 3.83144 4.45505 0
M  V30 11485 H 1069.4 3.23971 5.17566 0
M  V30 11486 H 1070.81 4.63069 3.37994 0
M  V30 11487 H 1069.21 5.25623 2.89552 0
M  V30 11488 H 1070.28 4.5525 1.6696 0
M  V30 11489 N 1071.62 -0.679052 1.4222 0
M  V30 11490 C 1072.59 -1.77448 1.45069 0
M  V30 11491 C 1073.59 -1.57189 0.338882 0
M  V30 11492 O 1074.78 -1.63559 0.599519 0
M  V30 11493 C 1071.91 -3.1603 1.27819 0
M  V30 11494 H 1073.1 -1.7631 2.426 0
M  V30 11495 H 1070.65 -0.888277 1.28605 0
M  V30 11496 H 1071.39 -3.22796 0.311946 0
M  V30 11497 H 1071.17 -3.32138 2.08391 0
M  V30 11498 H 1072.66 -3.9596 1.32686 0
M  V30 11499 N 1073.1 -1.28322 -0.914942 0
M  V30 11500 C 1074.03 -1.14681 -2.03398 0
M  V30 11501 C 1075.01 -0.0448939 -1.70041 0
M  V30 11502 O 1076.2 -0.221672 -1.92931 0
M  V30 11503 C 1073.33 -0.806623 -3.37803 0
M  V30 11504 C 1072.28 -1.86318 -3.85318 0
M  V30 11505 C 1071.61 -1.37665 -5.16674 0
M  V30 11506 C 1072.91 -3.26953 -4.07307 0
M  V30 11507 H 1074.6 -2.08293 -2.15068 0
M  V30 11508 H 1072.15 -1.00284 -1.03339 0
M  V30 11509 H 1074.1 -0.69796 -4.1558 0
M  V30 11510 H 1072.82 0.165203 -3.26182 0
M  V30 11511 H 1071.48 -1.96096 -3.09745 0
M  V30 11512 H 1071.13 -0.393927 -5.01455 0
M  V30 11513 H 1070.83 -2.08313 -5.49435 0
M  V30 11514 H 1072.35 -1.28119 -5.97007 0
M  V30 11515 H 1073.77 -3.20102 -4.75613 0
M  V30 11516 H 1072.17 -3.95424 -4.51398 0
M  V30 11517 H 1073.24 -3.71059 -3.12159 0
M  V30 11518 N 1074.58 1.12322 -1.10551 0
M  V30 11519 C 1075.81 1.87407 -0.869607 0
M  V30 11520 C 1076.22 1.79976 0.58356 0
M  V30 11521 O 1075.56 1.1725 1.41415 0
M  V30 11522 C 1075.62 3.37401 -1.24099 0
M  V30 11523 C 1075.29 3.68607 -2.70144 0
M  V30 11524 C 1076.28 3.66869 -3.68379 0
M  V30 11525 C 1073.97 3.97903 -3.06559 0
M  V30 11526 C 1075.96 3.93987 -5.01052 0
M  V30 11527 C 1073.65 4.24681 -4.39419 0
M  V30 11528 C 1074.65 4.2271 -5.36475 0
M  V30 11529 O 1074.33 4.48823 -6.66943 0
M  V30 11530 H 1074.07 0.59978 -0.311834 0
M  V30 11531 H 1076.62 1.43037 -1.4741 0
M  V30 11532 H 1074.85 3.82332 -0.579606 0
M  V30 11533 H 1076.54 3.93833 -0.982378 0
M  V30 11534 H 1077.31 3.44297 -3.41591 0
M  V30 11535 H 1073.18 3.98578 -2.31638 0
M  V30 11536 H 1076.73 3.92364 -5.76798 0
M  V30 11537 H 1072.63 4.46727 -4.65945 0
M  V30 11538 H 1073.39 4.66436 -6.72592 0
M  V30 11539 N 1076.06 0.894434 1.2976 0
M  V30 11540 C 1077.31 0.513673 1.95049 0
M  V30 11541 C 1077.62 -0.943744 1.71327 0
M  V30 11542 O 1078.82 -1.43179 2.30678 0
M  V30 11543 C 1077.28 0.867751 3.49282 0
M  V30 11544 C 1076.89 2.34358 3.81812 0
M  V30 11545 C 1078.63 0.556645 4.20835 0
M  V30 11546 C 1076.54 2.63879 5.29265 0
M  V30 11547 H 1075.47 0.188375 0.73009 0
M  V30 11548 H 1078.12 1.09071 1.47566 0
M  V30 11549 H 1076.5 0.2197 3.9539 0
M  V30 11550 H 1077.68 3.03674 3.46581 0
M  V30 11551 H 1075.99 2.62318 3.23386 0
M  V30 11552 H 1078.59 0.754123 5.29355 0
M  V30 11553 H 1078.93 -0.504526 4.13231 0
M  V30 11554 H 1079.46 1.1623 3.80441 0
M  V30 11555 H 1076.2 3.68774 5.41928 0
M  V30 11556 H 1075.72 1.99182 5.65762 0
M  V30 11557 H 1077.4 2.49871 5.96803 0
M  V30 11558 N 1077.53 -1.43282 0.656365 0
M  V30 11559 C 1078.48 -2.30776 -0.0333155 0
M  V30 11560 C 1079.45 -1.44928 -0.811493 0
M  V30 11561 O 1080.64 -1.73792 -0.787465 0
M  V30 11562 C 1077.78 -3.30548 -0.991566 0
M  V30 11563 C 1076.89 -4.31493 -0.209159 0
M  V30 11564 C 1076.02 -5.18346 -1.16149 0
M  V30 11565 C 1075.06 -6.10983 -0.369699 0
M  V30 11566 N 1074.2 -6.90449 -1.27378 0
M  V30 11567 H 1079.04 -2.89204 0.718668 0
M  V30 11568 H 1076.58 -1.4247 0.366161 0
M  V30 11569 H 1078.54 -3.86905 -1.56078 0
M  V30 11570 H 1077.17 -2.73762 -1.71039 0
M  V30 11571 H 1076.22 -3.77405 0.476394 0
M  V30 11572 H 1077.53 -4.97142 0.406394 0
M  V30 11573 H 1076.68 -5.79345 -1.80124 0
M  V30 11574 H 1075.42 -4.52831 -1.81095 0
M  V30 11575 H 1074.43 -5.49069 0.283377 0
M  V30 11576 H 1075.65 -6.78541 0.275399 0
M  V30 11577 H 1073.6 -6.27579 -1.90999 0
M  V30 11578 H 1073.52 -7.52631 -0.71287 0
M  V30 11579 H 1074.78 -7.5595 -1.90158 0
M  V30 11580 N 1079.01 -0.398486 -1.52479 0
M  V30 11581 C 1080.43 -0.0488635 -1.59525 0
M  V30 11582 C 1080.63 1.43756 -1.41197 0
M  V30 11583 O 1079.69 2.20317 -1.23357 0
M  V30 11584 C 1081 -0.534262 -2.95916 0
M  V30 11585 C 1082.55 -0.491314 -3.0912 0
M  V30 11586 C 1083.02 -0.953049 -4.47974 0
M  V30 11587 N 1084.51 -0.909434 -4.54184 0
M  V30 11588 C 1085.25 -1.23801 -5.59876 0
M  V30 11589 N 1084.74 -1.63752 -6.73169 0
M  V30 11590 N 1086.54 -1.15867 -5.50028 0
M  V30 11591 H 1078.69 -1.36608 -1.62641 0
M  V30 11592 H 1080.95 -0.560515 -0.764544 0
M  V30 11593 H 1080.66 -1.57277 -3.14574 0
M  V30 11594 H 1080.53 0.0617787 -3.77149 0
M  V30 11595 H 1082.92 0.538123 -2.90152 0
M  V30 11596 H 1083 -1.12327 -2.29818 0
M  V30 11597 H 1082.64 -1.98076 -4.67684 0
M  V30 11598 H 1082.57 -0.298007 -5.25756 0
M  V30 11599 H 1085.06 -0.615569 -3.72853 0
M  V30 11600 H 1085.38 -1.87163 -7.49793 0
M  V30 11601 H 1083.72 -1.67647 -6.74477 0
M  V30 11602 H 1086.91 -0.845502 -4.60401 0
M  V30 11603 H 1087.09 -1.41805 -6.32294 0
M  V30 11604 N 1080.49 1.57075 -0.12858 0
M  V30 11605 C 1081.91 1.57964 0.227961 0
M  V30 11606 C 1082.11 1.14186 1.66023 0
M  V30 11607 O 1081.16 0.833655 2.38341 0
M  V30 11608 C 1082.48 3.00697 -0.0140648 0
M  V30 11609 C 1084.02 3.12958 0.0510876 0
M  V30 11610 C 1084.5 4.57709 -0.163368 0
M  V30 11611 N 1085.99 4.6307 -0.109663 0
M  V30 11612 C 1086.73 5.72853 -0.250366 0
M  V30 11613 N 1086.22 6.91351 -0.447772 0
M  V30 11614 N 1088.01 5.61781 -0.189265 0
M  V30 11615 H 1080.17 1.83829 -1.06398 0
M  V30 11616 H 1082.43 0.850014 -0.419739 0
M  V30 11617 H 1082.13 3.37047 -1.00461 0
M  V30 11618 H 1082.01 3.70389 0.713571 0
M  V30 11619 H 1084.4 2.7646 1.03216 0
M  V30 11620 H 1084.48 2.4579 -0.708583 0
M  V30 11621 H 1084.12 4.94907 -1.14146 0
M  V30 11622 H 1084.05 5.2298 0.616405 0
M  V30 11623 H 1086.54 3.7788 0.0390086 0
M  V30 11624 H 1086.85 7.70871 -0.54574 0
M  V30 11625 H 1085.2 6.93314 -0.483866 0
M  V30 11626 H 1088.39 4.68086 -0.0359374 0
M  V30 11627 H 1088.56 6.47294 -0.302359 0
M  V30 11628 N 1081.97 -0.145205 1.5693 0
M  V30 11629 C 1083.22 -0.855822 1.83085 0
M  V30 11630 C 1083.54 -1.81625 0.709747 0
M  V30 11631 O 1082.81 -1.94052 -0.268456 0
M  V30 11632 H 1081.39 -0.319032 0.675446 0
M  V30 11633 H 1084.05 -0.138781 1.94405 0
M  V30 11634 H 1083.15 -1.41698 2.78079 0
M  V30 11635 N 1083.45 -1.52049 -0.414609 0
M  V30 11636 C 1084.36 -1.7788 -1.52958 0
M  V30 11637 C 1085.37 -0.66408 -1.60829 0
M  V30 11638 O 1086.55 -0.948882 -1.77646 0
M  V30 11639 C 1083.61 -1.91906 -2.88744 0
M  V30 11640 C 1082.68 -3.15803 -2.90804 0
M  V30 11641 C 1081.91 -3.29151 -4.20114 0
M  V30 11642 O 1082.13 -2.47892 -5.13718 0
M  V30 11643 O 1081.07 -4.2227 -4.28919 0
M  V30 11644 H 1084.89 -2.72506 -1.34067 0
M  V30 11645 H 1082.48 -1.36826 -0.599918 0
M  V30 11646 H 1084.36 -2.02986 -3.6929 0
M  V30 11647 H 1083.03 -1.00468 -3.07714 0
M  V30 11648 H 1081.94 -3.10185 -2.09131 0
M  V30 11649 H 1083.27 -4.07004 -2.76783 0
M  V30 11650 N 1084.93 0.6715 -1.42579 0
M  V30 11651 C 1086.17 1.43154 -1.43224 0
M  V30 11652 C 1086.5 1.94436 -0.0498695 0
M  V30 11653 O 1085.76 1.71521 0.942282 0
M  V30 11654 C 1086.05 2.64256 -2.40632 0
M  V30 11655 C 1085.72 2.31497 -3.86937 0
M  V30 11656 C 1084.38 2.22274 -4.26788 0
M  V30 11657 C 1086.73 2.04957 -4.7921 0
M  V30 11658 C 1084.06 1.84642 -5.56888 0
M  V30 11659 C 1086.41 1.68828 -6.09656 0
M  V30 11660 C 1085.08 1.58118 -6.48502 0
M  V30 11661 H 1084.35 0.523838 -0.524094 0
M  V30 11662 H 1087 0.765363 -1.7554 0
M  V30 11663 H 1085.3 3.35921 -2.01654 0
M  V30 11664 H 1087 3.22443 -2.38394 0
M  V30 11665 H 1083.59 2.39578 -3.55387 0
M  V30 11666 H 1087.77 2.11014 -4.49207 0
M  V30 11667 H 1083.03 1.74921 -5.85843 0
M  V30 11668 H 1087.2 1.47319 -6.8064 0
M  V30 11669 H 1084.83 1.28728 -7.49222 0
M  V30 11670 N 1086.4 1.28806 0.908124 0
M  V30 11671 C 1087.65 1.16287 1.65781 0
M  V30 11672 C 1087.98 -0.287389 1.92365 0
M  V30 11673 O 1087.23 -1.22491 1.52625 0
M  V30 11674 C 1087.53 1.91267 3.01914 0
M  V30 11675 C 1087.2 3.41033 2.9497 0
M  V30 11676 C 1085.86 3.81879 2.92783 0
M  V30 11677 C 1088.21 4.36507 2.848 0
M  V30 11678 C 1085.54 5.16529 2.78235 0
M  V30 11679 C 1087.89 5.71237 2.71792 0
M  V30 11680 C 1086.56 6.11351 2.67967 0
M  V30 11681 H 1085.83 0.425526 0.606637 0
M  V30 11682 H 1088.47 1.59646 1.05762 0
M  V30 11683 H 1086.78 1.40474 3.65752 0
M  V30 11684 H 1088.48 1.78992 3.58835 0
M  V30 11685 H 1085.07 3.08561 2.97469 0
M  V30 11686 H 1089.25 4.05909 2.85573 0
M  V30 11687 H 1084.51 5.4673 2.73672 0
M  V30 11688 H 1088.68 6.44872 2.62892 0
M  V30 11689 H 1086.31 7.15637 2.56451 0
M  V30 11690 N 1087.88 -1.11734 1.11145 0
M  V30 11691 C 1088.79 -2.21267 0.779607 0
M  V30 11692 C 1089.81 -1.72526 -0.225986 0
M  V30 11693 O 1090.98 -2.01302 -0.0629166 0
M  V30 11694 C 1088.05 -3.45973 0.22435 0
M  V30 11695 C 1087.11 -4.09518 1.28816 0
M  V30 11696 C 1086.34 -5.28271 0.7593 0
M  V30 11697 O 1086.57 -5.68912 -0.411725 0
M  V30 11698 O 1085.5 -5.82322 1.52266 0
M  V30 11699 H 1089.33 -2.5206 1.6941 0
M  V30 11700 H 1086.91 -1.20211 0.887115 0
M  V30 11701 H 1088.79 -4.21322 -0.0810921 0
M  V30 11702 H 1087.47 -3.1684 -0.662891 0
M  V30 11703 H 1086.37 -3.35915 1.64657 0
M  V30 11704 H 1087.71 -4.42824 2.14868 0
M  V30 11705 N 1089.36 -0.901303 -1.29284 0
M  V30 11706 C 1090.29 -0.396909 -2.30102 0
M  V30 11707 C 1091.27 0.528919 -1.61668 0
M  V30 11708 O 1092.46 0.439306 -1.89166 0
M  V30 11709 C 1089.59 0.375006 -3.45269 0
M  V30 11710 C 1088.54 -0.46054 -4.25515 0
M  V30 11711 C 1087.87 0.438967 -5.32895 0
M  V30 11712 C 1089.17 -1.7113 -4.93469 0
M  V30 11713 H 1090.86 -1.23943 -2.72541 0
M  V30 11714 H 1088.41 -0.597428 -1.31022 0
M  V30 11715 H 1090.36 0.738622 -4.14876 0
M  V30 11716 H 1089.08 1.25132 -3.01678 0
M  V30 11717 H 1087.74 -0.80651 -3.57618 0
M  V30 11718 H 1087.39 1.31346 -4.85548 0
M  V30 11719 H 1087.09 -0.116406 -5.87485 0
M  V30 11720 H 1088.61 0.79874 -6.05353 0
M  V30 11721 H 1090.03 -1.41732 -5.55504 0
M  V30 11722 H 1088.42 -2.20811 -5.57999 0
M  V30 11723 H 1089.49 -2.44636 -4.18666 0
M  V30 11724 N 1090.84 1.42931 -0.663954 0
M  V30 11725 C 1092.09 2.00904 -0.179011 0
M  V30 11726 C 1092.4 1.53056 1.21791 0
M  V30 11727 O 1093.61 2.03374 1.79865 0
M  V30 11728 C 1092.06 3.58892 -0.269198 0
M  V30 11729 C 1091.67 4.15731 -1.66949 0
M  V30 11730 C 1093.41 4.24207 0.157589 0
M  V30 11731 C 1091.32 5.66047 -1.71303 0
M  V30 11732 H 1090.25 0.75135 -0.0631623 0
M  V30 11733 H 1092.9 1.6378 -0.827556 0
M  V30 11734 H 1091.28 3.93469 0.447048 0
M  V30 11735 H 1092.46 3.92634 -2.41195 0
M  V30 11736 H 1090.77 3.62826 -2.04318 0
M  V30 11737 H 1093.37 5.34503 0.145057 0
M  V30 11738 H 1093.71 3.98901 1.19095 0
M  V30 11739 H 1094.25 3.94552 -0.507274 0
M  V30 11740 H 1090.98 5.96136 -2.72584 0
M  V30 11741 H 1090.5 5.91167 -1.01398 0
M  V30 11742 H 1092.18 6.30275 -1.46158 0
M  V30 11743 N 1092.32 0.406567 1.52266 0
M  V30 11744 C 1093.73 0.0573228 1.59497 0
M  V30 11745 C 1093.93 -1.43005 1.41957 0
M  V30 11746 O 1092.99 -2.19659 1.24523 0
M  V30 11747 C 1094.3 0.549947 2.95628 0
M  V30 11748 C 1095.85 0.5077 3.08855 0
M  V30 11749 C 1096.32 0.976792 4.47463 0
M  V30 11750 N 1097.81 0.933508 4.53696 0
M  V30 11751 C 1098.55 1.26769 5.59211 0
M  V30 11752 N 1098.05 1.6732 6.72292 0
M  V30 11753 N 1099.84 1.18782 5.49406 0
M  V30 11754 H 1091.99 1.37468 1.61914 0
M  V30 11755 H 1094.25 0.564562 0.76156 0
M  V30 11756 H 1093.96 1.58943 3.13736 0
M  V30 11757 H 1093.83 -0.0417767 3.77177 0
M  V30 11758 H 1096.22 -0.522728 2.90433 0
M  V30 11759 H 1096.3 1.13545 2.29219 0
M  V30 11760 H 1095.94 2.00554 4.66627 0
M  V30 11761 H 1095.87 0.325885 5.25591 0
M  V30 11762 H 1098.37 0.635333 3.72521 0
M  V30 11763 H 1098.68 1.91137 7.4879 0
M  V30 11764 H 1097.02 1.71221 6.73579 0
M  V30 11765 H 1100.21 0.869906 4.59946 0
M  V30 11766 H 1100.39 1.45157 6.31533 0
M  V30 11767 N 1093.79 -1.57004 0.136909 0
M  V30 11768 C 1094.74 -2.16246 -0.806607 0
M  V30 11769 C 1095.71 -1.09246 -1.25118 0
M  V30 11770 O 1096.9 -1.3724 -1.32551 0
M  V30 11771 C 1094.04 -2.78031 -2.04433 0
M  V30 11772 C 1093.15 -3.99393 -1.64649 0
M  V30 11773 C 1092.28 -4.49208 -2.83524 0
M  V30 11774 C 1091.32 -5.63059 -2.40064 0
M  V30 11775 N 1090.46 -6.07537 -3.51913 0
M  V30 11776 H 1095.3 -2.9654 -0.294596 0
M  V30 11777 H 1092.84 -1.46491 -0.133705 0
M  V30 11778 H 1094.8 -3.11992 -2.76978 0
M  V30 11779 H 1093.43 -2.00398 -2.53062 0
M  V30 11780 H 1092.48 -3.71477 -0.819077 0
M  V30 11781 H 1093.79 -4.81904 -1.28723 0
M  V30 11782 H 1092.94 -4.85171 -3.64271 0
M  V30 11783 H 1091.68 -3.65683 -3.22688 0
M  V30 11784 H 1090.69 -5.26682 -1.57754 0
M  V30 11785 H 1091.91 -6.48362 -2.01997 0
M  V30 11786 H 1089.86 -5.2695 -3.90717 0
M  V30 11787 H 1089.78 -6.84949 -3.1997 0
M  V30 11788 H 1091.04 -6.48143 -4.33048 0
M  V30 11789 N 1095.27 0.136881 -1.57004 0
M  V30 11790 C 1096.22 1.18782 -1.99984 0
M  V30 11791 C 1097.21 1.43899 -0.893841 0
M  V30 11792 O 1098.42 1.44072 -1.07904 0
M  V30 11793 H 1094.8 0.400065 -0.636751 0
M  V30 11794 H 1096.77 0.798696 -2.87512 0
M  V30 11795 C 1095.52 2.51105 -2.40502 0
M  V30 11796 H 1094.84 2.32611 -3.25165 0
M  V30 11797 H 1096.28 3.23244 -2.74389 0
M  V30 11798 C 1094.74 3.12386 -1.26161 0
M  V30 11799 O 1095.27 3.97666 -0.567836 0
M  V30 11800 N 1093.47 2.71989 -1.02326 0
M  V30 11801 H 1093.02 2.02736 -1.58921 0
M  V30 11802 H 1092.98 3.13322 -0.26013 0
M  V30 11803 N 1096.75 1.52266 0.40654 0
M  V30 11804 C 1097.68 1.72025 1.51459 0
M  V30 11805 C 1098.7 0.600667 1.51314 0
M  V30 11806 O 1099.88 0.875894 1.55532 0
M  V30 11807 C 1096.98 1.7479 2.90348 0
M  V30 11808 C 1096.16 3.03826 3.14656 0
M  V30 11809 C 1095.22 2.98369 4.33431 0
M  V30 11810 O 1094.24 3.7227 4.30586 0
M  V30 11811 N 1095.44 2.16338 5.38682 0
M  V30 11812 H 1098.21 2.67622 1.34903 0
M  V30 11813 H 1095.77 1.50536 0.595867 0
M  V30 11814 H 1097.76 1.68667 3.67877 0
M  V30 11815 H 1096.33 0.86656 3.00349 0
M  V30 11816 H 1095.55 3.23577 2.25148 0
M  V30 11817 H 1096.84 3.89182 3.27742 0
M  V30 11818 H 1096.24 1.55731 5.43842 0
M  V30 11819 H 1094.8 2.1607 6.14945 0
M  V30 11820 N 1098.23 -0.663929 1.42933 0
M  V30 11821 C 1099.48 -1.42393 1.43981 0
M  V30 11822 C 1099.8 -1.94407 0.0601802 0
M  V30 11823 O 1099.06 -1.72019 -0.933172 0
M  V30 11824 C 1099.36 -2.62976 2.4203 0
M  V30 11825 C 1099.02 -2.29441 3.88159 0
M  V30 11826 C 1097.69 -2.20007 4.27961 0
M  V30 11827 C 1100.04 -2.02413 4.8029 0
M  V30 11828 C 1097.37 -1.81686 5.57859 0
M  V30 11829 C 1099.72 -1.65592 6.10542 0
M  V30 11830 C 1098.38 -1.54676 6.49332 0
M  V30 11831 H 1097.65 -0.521051 0.526865 0
M  V30 11832 H 1100.3 -0.756042 1.75944 0
M  V30 11833 H 1098.6 -3.34847 2.03433 0
M  V30 11834 H 1100.3 -3.21174 2.40101 0
M  V30 11835 H 1096.89 -2.3769 3.56653 0
M  V30 11836 H 1101.07 -2.08628 4.5032 0
M  V30 11837 H 1096.33 -1.71812 5.86763 0
M  V30 11838 H 1100.5 -1.43707 6.81411 0
M  V30 11839 H 1098.13 -1.24752 7.49894 0
M  V30 11840 N 1099.71 -1.29285 -0.901281 0
M  V30 11841 C 1100.65 -1.14159 -2.02659 0
M  V30 11842 C 1101.65 -0.0575887 -1.69302 0
M  V30 11843 O 1102.85 -0.217273 -1.78684 0
M  V30 11844 H 1099.23 -0.352584 -0.66422 0
M  V30 11845 H 1101.2 -2.09434 -2.12555 0
M  V30 11846 C 1099.95 -0.833253 -3.37568 0
M  V30 11847 H 1099.27 -1.65939 -3.63737 0
M  V30 11848 H 1100.71 -0.767436 -4.16997 0
M  V30 11849 C 1099.17 0.46344 -3.33697 0
M  V30 11850 O 1099.7 1.48998 -3.73045 0
M  V30 11851 N 1097.91 0.468709 -2.86795 0
M  V30 11852 H 1097.45 -0.36712 -2.54971 0
M  V30 11853 H 1097.41 1.3363 -2.84588 0
M  V30 11854 N 1101.18 1.11143 -1.11736 0
M  V30 11855 C 1102.11 2.19339 -0.800795 0
M  V30 11856 C 1103.1 1.68508 0.23221 0
M  V30 11857 O 1104.28 1.93967 0.0950063 0
M  V30 11858 C 1101.41 3.46424 -0.246579 0
M  V30 11859 C 1100.36 4.10487 -1.21181 0
M  V30 11860 C 1099.69 5.32183 -0.518158 0
M  V30 11861 C 1100.99 4.55052 -2.56368 0
M  V30 11862 H 1102.68 2.46077 -1.70548 0
M  V30 11863 H 1100.23 1.18271 -0.821454 0
M  V30 11864 H 1102.18 4.21398 -0.0128889 0
M  V30 11865 H 1100.91 3.19154 0.693415 0
M  V30 11866 H 1099.57 3.3751 -1.43118 0
M  V30 11867 H 1099.21 5.01187 0.426742 0
M  V30 11868 H 1098.91 5.75997 -1.16196 0
M  V30 11869 H 1100.44 6.09895 -0.293333 0
M  V30 11870 H 1101.85 5.21335 -2.38501 0
M  V30 11871 H 1100.25 5.0969 -3.16758 0
M  V30 11872 H 1101.32 3.68343 -3.1536 0
M  V30 11873 N 1102.66 0.908147 1.28804 0
M  V30 11874 C 1103.57 0.397167 2.31214 0
M  V30 11875 C 1104.59 -0.512352 1.66286 0
M  V30 11876 O 1105.76 -0.399893 1.9739 0
M  V30 11877 C 1102.83 -0.359522 3.44831 0
M  V30 11878 C 1101.89 0.582539 4.25329 0
M  V30 11879 C 1101.12 -0.138133 5.33521 0
M  V30 11880 O 1101.35 -1.36076 5.53931 0
M  V30 11881 O 1100.28 0.523682 5.99618 0
M  V30 11882 H 1104.11 1.247 2.76918 0
M  V30 11883 H 1101.69 0.672766 1.33395 0
M  V30 11884 H 1103.57 -0.787098 4.13984 0
M  V30 11885 H 1102.25 -1.18528 3.01219 0
M  V30 11886 H 1101.16 1.0594 3.58786 0
M  V30 11887 H 1102.49 1.37495 4.72605 0
M  V30 11888 N 1104.14 -1.42577 0.671525 0
M  V30 11889 C 1105.42 -1.95222 0.121529 0
M  V30 11890 C 1105.8 -1.61209 -1.36289 0
M  V30 11891 O 1105.15 -0.906561 -2.09747 0
M  V30 11892 C 1105.36 -3.46846 0.387189 0
M  V30 11893 C 1106.7 -4.23525 0.301938 0
M  V30 11894 O 1107.73 -3.54753 0.320755 0
M  V30 11895 O 1106.59 -5.45967 0.241317 0
M  V30 11896 H 1103.68 -0.826999 0.000968615 0
M  V30 11897 H 1106.23 -1.52422 0.746029 0
M  V30 11898 H 1105 -3.64795 1.41563 0
M  V30 11899 H 1104.62 -3.96686 -0.26948 0
M  V30 11900 N 1105.62 -0.414636 -1.52048 0
M  V30 11901 C 1107.03 0.0537107 -1.86623 0
M  V30 11902 C 1107.38 1.43955 -1.3331 0
M  V30 11903 O 1106.51 2.05616 -0.674606 0
M  V30 11904 C 1107.1 0.104241 -3.3864 0
M  V30 11905 C 1105.66 0.516936 -3.72833 0
M  V30 11906 C 1104.81 -0.305042 -2.75617 0
M  V30 11907 H 1107.76 -0.631469 -1.45596 0
M  V30 11908 H 1107.78 0.918395 -3.6925 0
M  V30 11909 H 1107.29 -0.904523 -3.77412 0
M  V30 11910 H 1105.39 1.53214 -3.39641 0
M  V30 11911 H 1105.5 0.2575 -4.78408 0
M  V30 11912 H 1103.87 0.233416 -2.53628 0
M  V30 11913 H 1104.65 -1.31226 -3.1723 0
M  V30 11914 N 1107.1 1.56929 -0.145233 0
M  V30 11915 C 1108.05 2.13246 0.806846 0
M  V30 11916 C 1109.03 1.05984 1.21063 0
M  V30 11917 O 1110.22 1.32165 1.17734 0
M  V30 11918 C 1107.35 2.75622 2.04663 0
M  V30 11919 C 1106.44 3.90006 1.66603 0
M  V30 11920 N 1106.83 4.95946 0.993545 0
M  V30 11921 C 1105.13 4.0068 1.95886 0
M  V30 11922 C 1105.83 5.76032 0.810087 0
M  V30 11923 N 1104.8 5.26739 1.34339 0
M  V30 11924 H 1108.61 2.92527 0.283806 0
M  V30 11925 H 1106.12 1.62302 0.0563676 0
M  V30 11926 H 1108.12 3.14329 2.73867 0
M  V30 11927 H 1106.78 1.97815 2.57487 0
M  V30 11928 H 1107.79 5.13748 0.654508 0
M  V30 11929 H 1104.46 3.33946 2.50572 0
M  V30 11930 H 1105.85 6.71315 0.280209 0
M  V30 11931 N 1108.58 -0.128553 1.57075 0
M  V30 11932 C 1109.51 -1.18362 1.96273 0
M  V30 11933 C 1110.52 -1.3818 0.860818 0
M  V30 11934 O 1111.71 -1.37424 1.13916 0
M  V30 11935 C 1108.81 -2.54533 2.23755 0
M  V30 11936 C 1107.98 -2.55446 3.55058 0
M  V30 11937 C 1107.04 -3.73291 3.70864 0
M  V30 11938 O 1106.07 -3.57315 4.43074 0
M  V30 11939 N 1107.27 -4.91481 3.08912 0
M  V30 11940 H 1110.03 -0.850276 2.87385 0
M  V30 11941 H 1107.6 -0.317931 1.58748 0
M  V30 11942 H 1109.59 -3.31912 2.31553 0
M  V30 11943 H 1108.16 -2.80087 1.38816 0
M  V30 11944 H 1107.38 -1.6385 3.58534 0
M  V30 11945 H 1108.67 -2.53104 4.4138 0
M  V30 11946 H 1108.06 -5.07364 2.50196 0
M  V30 11947 H 1106.62 -5.6657 3.22245 0
M  V30 11948 N 1110.05 -1.5248 -0.398459 0
M  V30 11949 C 1111 -1.76585 -1.48615 0
M  V30 11950 C 1111.97 -0.608677 -1.54546 0
M  V30 11951 O 1113.16 -0.847383 -1.7095 0
M  V30 11952 C 1110.3 -1.93201 -2.8595 0
M  V30 11953 C 1109.41 -3.20875 -2.89246 0
M  V30 11954 C 1108.54 -3.27862 -4.17947 0
M  V30 11955 C 1107.58 -4.49697 -4.15258 0
M  V30 11956 N 1106.72 -4.54017 -5.35549 0
M  V30 11957 H 1111.56 -2.69412 -1.27362 0
M  V30 11958 H 1109.1 -1.33487 -0.618031 0
M  V30 11959 H 1111.05 -2.00819 -3.65688 0
M  V30 11960 H 1109.68 -1.03743 -3.05675 0
M  V30 11961 H 1108.74 -3.22376 -2.01935 0
M  V30 11962 H 1110.05 -4.1066 -2.83125 0
M  V30 11963 H 1109.2 -3.34611 -5.06083 0
M  V30 11964 H 1107.94 -2.36035 -4.26777 0
M  V30 11965 H 1106.95 -4.43083 -3.25511 0
M  V30 11966 H 1108.17 -5.42831 -4.08059 0
M  V30 11967 H 1106.12 -3.65078 -5.45027 0
M  V30 11968 H 1106.03 -5.37661 -5.31466 0
M  V30 11969 H 1107.3 -4.65009 -6.25609 0
M  V30 11970 N 1111.53 0.65634 -1.43283 0
M  V30 11971 C 1112.44 1.79847 -1.50639 0
M  V30 11972 C 1113.46 1.69487 -0.393714 0
M  V30 11973 O 1114.63 1.90712 -0.647379 0
M  V30 11974 C 1111.7 3.16107 -1.42398 0
M  V30 11975 C 1110.76 3.38287 -2.64312 0
M  V30 11976 C 1109.99 4.68046 -2.56454 0
M  V30 11977 O 1110.22 5.4719 -1.61056 0
M  V30 11978 O 1109.15 4.91877 -3.46902 0
M  V30 11979 H 1112.98 1.76596 -2.47078 0
M  V30 11980 H 1110.56 0.814428 -1.25249 0
M  V30 11981 H 1112.44 3.97382 -1.40233 0
M  V30 11982 H 1111.12 3.19956 -0.490929 0
M  V30 11983 H 1110.02 2.56788 -2.72049 0
M  V30 11984 H 1111.36 3.39282 -3.56579 0
M  V30 11985 N 1113.01 1.29761 0.894412 0
M  V30 11986 C 1113.94 1.17902 2.01547 0
M  V30 11987 C 1114.92 0.0719402 1.69948 0
M  V30 11988 O 1116.11 0.252338 1.92554 0
M  V30 11989 C 1113.24 0.860262 3.36477 0
M  V30 11990 C 1112.19 1.92424 3.82305 0
M  V30 11991 C 1111.52 1.45868 5.14419 0
M  V30 11992 C 1112.82 3.33391 4.02054 0
M  V30 11993 H 1114.51 2.11688 2.11727 0
M  V30 11994 H 1112.06 1.01916 1.01731 0
M  V30 11995 H 1114.01 0.763987 4.14417 0
M  V30 11996 H 1112.73 -0.113289 3.26403 0
M  V30 11997 H 1111.39 2.00999 3.06586 0
M  V30 11998 H 1111.04 0.473654 5.00765 0
M  V30 11999 H 1110.74 2.17028 5.46052 0
M  V30 12000 H 1112.26 1.37601 5.94894 0
M  V30 12001 H 1113.68 3.27628 4.7046 0
M  V30 12002 H 1112.07 4.02555 4.4505 0
M  V30 12003 H 1113.14 3.75978 3.06216 0
M  V30 12004 N 1114.49 -1.10549 1.12324 0
M  V30 12005 C 1115.73 -1.82485 0.877817 0
M  V30 12006 C 1116.06 -1.85131 -0.596373 0
M  V30 12007 O 1115.32 -1.30675 -1.45679 0
M  V30 12008 C 1115.62 -3.28997 1.39626 0
M  V30 12009 C 1115.28 -3.465 2.88529 0
M  V30 12010 C 1113.94 -3.50984 3.29186 0
M  V30 12011 C 1116.3 -3.51991 3.84385 0
M  V30 12012 C 1113.62 -3.58525 4.6441 0
M  V30 12013 C 1115.98 -3.61065 5.19437 0
M  V30 12014 C 1114.64 -3.63813 5.5964 0
M  V30 12015 H 1113.91 -0.667758 0.321216 0
M  V30 12016 H 1116.56 -1.30314 1.40323 0
M  V30 12017 H 1114.86 -3.83726 0.791291 0
M  V30 12018 H 1116.56 -3.83165 1.18259 0
M  V30 12019 H 1113.15 -3.43686 2.56082 0
M  V30 12020 H 1117.33 -3.47777 3.54069 0
M  V30 12021 H 1112.59 -3.58934 4.94951 0
M  V30 12022 H 1116.76 -3.64257 5.9354 0
M  V30 12023 H 1114.39 -3.69409 6.6441 0
M  V30 12024 N 1115.97 -0.914965 -1.28321 0
M  V30 12025 C 1116.9 -0.421292 -2.29668 0
M  V30 12026 C 1117.88 0.511743 -1.6222 0
M  V30 12027 O 1119.06 0.419218 -1.89621 0
M  V30 12028 C 1116.19 0.338364 -3.45648 0
M  V30 12029 C 1115.15 -0.505646 -4.25003 0
M  V30 12030 C 1114.47 0.382421 -5.33331 0
M  V30 12031 C 1115.77 -1.76354 -4.91626 0
M  V30 12032 H 1117.47 -1.26826 -2.71211 0
M  V30 12033 H 1115.01 -0.611291 -1.30381 0
M  V30 12034 H 1116.96 0.694578 -4.15636 0
M  V30 12035 H 1115.69 1.21925 -3.02988 0
M  V30 12036 H 1114.35 -0.844395 -3.56743 0
M  V30 12037 H 1114 1.26189 -4.86914 0
M  V30 12038 H 1113.7 -0.17871 -5.87328 0
M  V30 12039 H 1115.22 0.73449 -6.06166 0
M  V30 12040 H 1116.63 -1.47616 -5.5397 0
M  V30 12041 H 1115.03 -2.26717 -5.55625 0
M  V30 12042 H 1116.1 -2.49063 -4.16048 0
M  V30 12043 N 1117.44 1.42219 -0.679077 0
M  V30 12044 C 1118.41 2.29197 -0.0125475 0
M  V30 12045 C 1119.41 1.43544 0.724691 0
M  V30 12046 O 1120.6 1.64884 0.562052 0
M  V30 12047 C 1117.73 3.26122 0.992846 0
M  V30 12048 H 1118.92 2.89629 -0.778154 0
M  V30 12049 H 1116.47 1.4993 -0.44166 0
M  V30 12050 H 1117.21 2.70637 1.78679 0
M  V30 12051 H 1116.99 3.89302 0.467544 0
M  V30 12052 H 1118.48 3.91339 1.45751 0
M  V30 12053 N 1118.92 0.422693 1.51826 0
M  V30 12054 C 1119.85 -0.440987 2.23899 0
M  V30 12055 C 1120.83 -1.03685 1.25252 0
M  V30 12056 O 1122.02 -1.08212 1.54345 0
M  V30 12057 C 1119.14 -1.61331 2.97809 0
M  V30 12058 C 1118.19 -1.13954 4.10995 0
M  V30 12059 S 1119.02 -0.0935426 5.35418 0
M  V30 12060 C 1120.18 -1.27087 6.12862 0
M  V30 12061 H 1120.41 0.170945 2.96808 0
M  V30 12062 H 1117.94 0.20709 1.53005 0
M  V30 12063 H 1119.9 -2.28546 3.40994 0
M  V30 12064 H 1118.56 -2.19662 2.24516 0
M  V30 12065 H 1117.76 -2.01578 4.61933 0
M  V30 12066 H 1117.36 -0.545838 3.69995 0
M  V30 12067 H 1119.65 -2.19199 6.4106 0
M  V30 12068 H 1120.59 -0.801752 7.03546 0
M  V30 12069 H 1121 -1.50281 5.44129 0
M  V30 12070 N 1120.4 -1.5685 0.153553 0
M  V30 12071 C 1121.33 -2.20101 -0.779601 0
M  V30 12072 C 1122.31 -1.15121 -1.25225 0
M  V30 12073 O 1123.5 -1.43487 -1.30862 0
M  V30 12074 C 1120.63 -2.82778 -2.01628 0
M  V30 12075 C 1119.58 -3.93643 -1.68015 0
M  V30 12076 C 1118.91 -4.43286 -2.99001 0
M  V30 12077 C 1120.21 -5.14102 -0.921774 0
M  V30 12078 H 1121.9 -2.98334 -0.252432 0
M  V30 12079 H 1119.45 -1.43499 -0.119975 0
M  V30 12080 H 1121.4 -3.25696 -2.67395 0
M  V30 12081 H 1120.12 -2.01887 -2.56728 0
M  V30 12082 H 1118.78 -3.51354 -1.04624 0
M  V30 12083 H 1118.43 -3.59208 -3.52106 0
M  V30 12084 H 1118.13 -5.18068 -2.77272 0
M  V30 12085 H 1119.65 -4.88878 -3.65828 0
M  V30 12086 H 1121.07 -5.53823 -1.48167 0
M  V30 12087 H 1119.46 -5.94687 -0.804185 0
M  V30 12088 H 1120.53 -4.84825 0.0852757 0
M  V30 12089 N 1121.88 0.120221 -1.57141 0
M  V30 12090 C 1122.81 1.17787 -1.95452 0
M  V30 12091 C 1123.79 1.40174 -0.824016 0
M  V30 12092 O 1124.97 1.54348 -1.08208 0
M  V30 12093 C 1122.1 2.53193 -2.24969 0
M  V30 12094 C 1121.15 2.47241 -3.47526 0
M  V30 12095 S 1121.98 1.91325 -5.00155 0
M  V30 12096 C 1123.13 3.28406 -5.32823 0
M  V30 12097 H 1123.37 0.851152 -2.84856 0
M  V30 12098 H 1120.9 0.326929 -1.50899 0
M  V30 12099 H 1122.86 3.31104 -2.42652 0
M  V30 12100 H 1121.52 2.83043 -1.36181 0
M  V30 12101 H 1120.71 3.46981 -3.65541 0
M  V30 12102 H 1120.31 1.7745 -3.29223 0
M  V30 12103 H 1122.61 4.24613 -5.2793 0
M  V30 12104 H 1123.55 3.1522 -6.34068 0
M  V30 12105 H 1123.96 3.26779 -4.603 0
M  V30 12106 N 1123.36 1.52689 0.390367 0
M  V30 12107 C 1124.58 1.71541 1.15678 0
M  V30 12108 C 1125 0.433171 1.83764 0
M  V30 12109 O 1124.36 -0.592248 1.72623 0
M  V30 12110 C 1124.41 2.864 2.20584 0
M  V30 12111 O 1124.13 4.0966 1.55274 0
M  V30 12112 C 1125.63 3.1692 3.09962 0
M  V30 12113 H 1122.85 0.574381 0.346883 0
M  V30 12114 H 1125.39 1.99332 0.456851 0
M  V30 12115 H 1123.55 2.61075 2.86214 0
M  V30 12116 H 1123.96 4.73802 2.2497 0
M  V30 12117 H 1125.44 4.00755 3.79604 0
M  V30 12118 H 1125.91 2.31245 3.73393 0
M  V30 12119 H 1126.52 3.4408 2.49979 0
M  V30 12120 N 1124.83 -0.648732 1.43629 0
M  V30 12121 C 1125.8 -1.74331 1.488 0
M  V30 12122 C 1126.8 -1.56434 0.372147 0
M  V30 12123 O 1127.99 -1.6225 0.634078 0
M  V30 12124 C 1125.12 -3.13248 1.34494 0
M  V30 12125 H 1126.31 -1.71125 2.46285 0
M  V30 12126 H 1123.87 -0.860798 1.30461 0
M  V30 12127 H 1124.6 -3.22062 0.380345 0
M  V30 12128 H 1124.39 -3.27643 2.15389 0
M  V30 12129 H 1125.88 -3.93056 1.41055 0
M  V30 12130 N 1126.31 -1.30234 -0.887518 0
M  V30 12131 C 1127.55 -1.20191 -1.65328 0
M  V30 12132 C 1127.92 0.240121 -1.90493 0
M  V30 12133 O 1129.12 0.463744 -2.64769 0
M  V30 12134 C 1127.39 -2.00506 -2.95858 0
M  V30 12135 S 1128.95 -2.07133 -3.86835 0
M  V30 12136 H 1125.77 -0.428366 -0.567472 0
M  V30 12137 H 1128.37 -1.64677 -1.05364 0
M  V30 12138 H 1127.07 -3.04396 -2.75266 0
M  V30 12139 H 1126.6 -1.56672 -3.60857 0
M  V30 12140 H 1128.62 -1.19687 -4.81549 0
M  V30 12141 N 1127.79 1.09952 -1.12909 0
M  V30 12142 C 1129.07 1.78547 -0.798767 0
M  V30 12143 C 1129.45 1.9878 0.710624 0
M  V30 12144 O 1128.8 1.58485 1.64604 0
M  V30 12145 C 1129.01 3.1121 -1.57953 0
M  V30 12146 C 1130.35 3.86006 -1.76874 0
M  V30 12147 O 1131.38 3.20946 -1.54506 0
M  V30 12148 O 1130.24 5.02791 -2.14158 0
M  V30 12149 H 1127.33 0.774084 -0.291072 0
M  V30 12150 H 1129.88 1.16557 -1.2334 0
M  V30 12151 H 1128.65 2.91935 -2.60557 0
M  V30 12152 H 1128.27 3.80922 -1.13948 0
M  V30 12153 N 1129.27 0.921757 1.27833 0
M  V30 12154 C 1130.2 0.433466 2.29441 0
M  V30 12155 C 1131.18 -0.503133 1.62489 0
M  V30 12156 O 1132.36 -0.409156 1.89841 0
M  V30 12157 C 1129.49 -0.320029 3.45822 0
M  V30 12158 C 1128.45 0.528178 4.24728 0
M  V30 12159 C 1127.77 -0.354132 5.33526 0
M  V30 12160 C 1129.07 1.78959 4.90684 0
M  V30 12161 H 1130.77 1.28263 2.70535 0
M  V30 12162 H 1128.31 0.618197 1.30055 0
M  V30 12163 H 1130.27 -0.672526 4.15999 0
M  V30 12164 H 1128.99 -1.20317 3.0363 0
M  V30 12165 H 1127.65 0.863302 3.5629 0
M  V30 12166 H 1127.3 -1.23605 4.87576 0
M  V30 12167 H 1127 0.209855 5.87225 0
M  V30 12168 H 1128.52 -0.702333 6.06547 0
M  V30 12169 H 1129.94 1.50552 5.53179 0
M  V30 12170 H 1128.33 2.29661 5.54415 0
M  V30 12171 H 1129.4 2.51265 4.14721 0
M  V30 12172 N 1130.75 -1.41857 0.686609 0
M  V30 12173 C 1131.97 -2.06219 0.221037 0
M  V30 12174 C 1132.4 -1.51298 -1.11762 0
M  V30 12175 O 1131.75 -0.636253 -1.69769 0
M  V30 12176 C 1131.8 -3.60153 0.179425 0
M  V30 12177 O 1130.91 -4.03577 -0.848481 0
M  V30 12178 H 1130.25 -0.654787 0.110228 0
M  V30 12179 H 1132.78 -1.81783 0.938948 0
M  V30 12180 H 1132.79 -4.07999 0.00725332 0
M  V30 12181 H 1131.46 -3.99498 1.15647 0
M  V30 12182 H 1130.04 -3.67255 -0.646393 0
M  V30 12183 N 1132.22 -0.430739 -1.51599 0
M  V30 12184 C 1133.19 0.372319 -2.26156 0
M  V30 12185 C 1134.19 0.955338 -1.29344 0
M  V30 12186 O 1135.38 0.830823 -1.53111 0
M  V30 12187 C 1132.51 1.52613 -3.04831 0
M  V30 12188 H 1133.7 -0.280996 -2.98581 0
M  V30 12189 H 1131.26 -0.183749 -1.55216 0
M  V30 12190 H 1131.99 2.21569 -2.36807 0
M  V30 12191 H 1131.78 1.11433 -3.75932 0
M  V30 12192 H 1133.27 2.09366 -3.61325 0
M  V30 12193 N 1133.7 1.56767 -0.161869 0
M  V30 12194 C 1134.95 1.95769 0.485536 0
M  V30 12195 C 1135.26 1.05006 1.65025 0
M  V30 12196 O 1136.47 1.33649 2.36326 0
M  V30 12197 C 1134.93 3.4807 0.915176 0
M  V30 12198 C 1134.53 4.47443 -0.223416 0
M  V30 12199 C 1136.28 3.95909 1.53153 0
M  V30 12200 C 1134.19 5.90971 0.225325 0
M  V30 12201 H 1133.12 0.730911 0.185161 0
M  V30 12202 H 1135.77 1.81808 -0.248592 0
M  V30 12203 H 1134.15 3.57415 1.705 0
M  V30 12204 H 1135.32 4.49805 -1.00061 0
M  V30 12205 H 1133.64 4.09606 -0.749127 0
M  V30 12206 H 1136.23 5.00592 1.87915 0
M  V30 12207 H 1136.58 3.38307 2.42599 0
M  V30 12208 H 1137.11 3.89542 0.806322 0
M  V30 12209 H 1133.85 6.52426 -0.634124 0
M  V30 12210 H 1133.37 5.91936 0.96808 0
M  V30 12211 H 1135.05 6.43497 0.672373 0
M  V30 12212 N 1135.18 -0.111886 1.57202 0
M  V30 12213 C 1136.41 -0.832407 1.89416 0
M  V30 12214 C 1136.82 -1.73096 0.753861 0
M  V30 12215 O 1136.18 -1.80416 -0.274992 0
M  V30 12216 C 1136.23 -1.65988 3.21139 0
M  V30 12217 O 1135.95 -0.797485 4.3078 0
M  V30 12218 C 1137.45 -2.48493 3.67105 0
M  V30 12219 H 1134.67 -0.238919 0.627024 0
M  V30 12220 H 1137.22 -0.0941456 2.04283 0
M  V30 12221 H 1135.37 -2.35082 3.07921 0
M  V30 12222 H 1135.79 -1.36892 5.06321 0
M  V30 12223 H 1137.26 -3.02072 4.62014 0
M  V30 12224 H 1137.74 -3.26182 2.94112 0
M  V30 12225 H 1138.34 -1.84628 3.83135 0
M  V30 12226 N 1136.66 -1.52894 -0.382264 0
M  V30 12227 C 1137.61 -1.78151 -1.46734 0
M  V30 12228 C 1138.58 -0.625034 -1.53891 0
M  V30 12229 O 1139.76 -0.865467 -1.70042 0
M  V30 12230 C 1136.9 -1.96223 -2.83885 0
M  V30 12231 C 1136.01 -3.23925 -2.85826 0
M  V30 12232 C 1135.15 -3.32277 -4.14446 0
M  V30 12233 C 1134.19 -4.54076 -4.10465 0
M  V30 12234 N 1133.32 -4.59672 -5.30703 0
M  V30 12235 H 1138.16 -2.70748 -1.24497 0
M  V30 12236 H 1135.7 -1.34135 -0.603838 0
M  V30 12237 H 1137.66 -2.04686 -3.63537 0
M  V30 12238 H 1136.29 -1.0698 -3.04557 0
M  V30 12239 H 1135.34 -3.245 -1.98505 0
M  V30 12240 H 1136.65 -4.1364 -2.78754 0
M  V30 12241 H 1135.81 -3.3996 -5.02506 0
M  V30 12242 H 1134.55 -2.40548 -4.2425 0
M  V30 12243 H 1133.55 -4.46511 -3.20793 0
M  V30 12244 H 1134.78 -5.47128 -4.02278 0
M  V30 12245 H 1132.72 -3.70838 -5.41124 0
M  V30 12246 H 1132.64 -5.43268 -5.25734 0
M  V30 12247 H 1133.91 -4.71618 -6.20642 0
M  V30 12248 N 1138.14 0.641106 -1.43971 0
M  V30 12249 C 1139.55 1.22254 -1.41106 0
M  V30 12250 C 1139.9 1.95825 -0.121284 0
M  V30 12251 O 1139.02 2.01901 0.77879 0
M  V30 12252 C 1139.62 2.22364 -2.55617 0
M  V30 12253 C 1138.18 2.75957 -2.55978 0
M  V30 12254 C 1137.33 1.50792 -2.32717 0
M  V30 12255 H 1140.28 0.432381 -1.52696 0
M  V30 12256 H 1140.3 3.04775 -2.27799 0
M  V30 12257 H 1139.81 1.68789 -3.49474 0
M  V30 12258 H 1137.91 3.33562 -1.66034 0
M  V30 12259 H 1138.02 3.22676 -3.54142 0
M  V30 12260 H 1136.39 1.7857 -1.81617 0
M  V30 12261 H 1137.17 0.991343 -3.28675 0
M  V30 12262 N 1139.62 1.30703 0.880598 0
M  V30 12263 C 1140.86 1.20965 1.63521 0
M  V30 12264 C 1141.22 -0.232404 1.90991 0
M  V30 12265 O 1140.51 -1.16272 1.52287 0
M  V30 12266 C 1140.7 1.97628 2.97789 0
M  V30 12267 C 1140.53 3.49141 2.83427 0
M  V30 12268 C 1139.3 4.18496 2.83177 0
M  V30 12269 C 1141.5 4.44291 2.59056 0
M  V30 12270 N 1139.48 5.56239 2.59752 0
M  V30 12271 C 1140.85 5.69627 2.44795 0
M  V30 12272 C 1142.91 4.33837 2.44316 0
M  V30 12273 C 1141.61 6.85694 2.17293 0
M  V30 12274 C 1143.64 5.49675 2.182 0
M  V30 12275 C 1143 6.73995 2.04719 0
M  V30 12276 H 1139.1 0.497719 0.603158 0
M  V30 12277 H 1141.68 1.64765 1.03733 0
M  V30 12278 H 1139.85 1.56212 3.55601 0
M  V30 12279 H 1141.59 1.79996 3.62468 0
M  V30 12280 H 1138.34 3.70368 2.95168 0
M  V30 12281 H 1138.76 6.28735 2.5104 0
M  V30 12282 H 1143.41 3.38396 2.53471 0
M  V30 12283 H 1141.12 7.81171 2.06875 0
M  V30 12284 H 1144.71 5.43497 2.0761 0
M  V30 12285 H 1143.59 7.62116 1.84794 0
M  V30 12286 N 1141.09 -1.09351 1.1349 0
M  V30 12287 C 1142.5 -1.63035 0.909746 0
M  V30 12288 C 1142.86 -1.88229 -0.553573 0
M  V30 12289 O 1141.98 -1.63256 -1.42044 0
M  V30 12290 C 1142.58 -2.96186 1.64497 0
M  V30 12291 C 1141.13 -3.46692 1.46566 0
M  V30 12292 C 1140.28 -2.21095 1.67369 0
M  V30 12293 H 1143.23 -0.92704 1.28809 0
M  V30 12294 H 1143.25 -3.64177 1.10251 0
M  V30 12295 H 1142.77 -2.77818 2.70996 0
M  V30 12296 H 1140.87 -3.70183 0.423728 0
M  V30 12297 H 1140.98 -4.24078 2.22923 0
M  V30 12298 H 1139.34 -2.29789 1.0986 0
M  V30 12299 H 1140.13 -2.05245 2.7519 0
M  V30 12300 N 1142.57 -0.928524 -1.27343 0
M  V30 12301 C 1143.82 -0.565207 -1.93619 0
M  V30 12302 C 1144.13 0.897988 -1.73769 0
M  V30 12303 O 1145.34 1.37012 -2.34393 0
M  V30 12304 C 1143.8 -0.960052 -3.46859 0
M  V30 12305 C 1143.4 -2.44399 -3.75464 0
M  V30 12306 C 1145.15 -0.668026 -4.19211 0
M  V30 12307 C 1143.05 -2.77819 -5.22083 0
M  V30 12308 H 1141.98 -0.207665 -0.724839 0
M  V30 12309 H 1144.64 -1.12945 -1.44623 0
M  V30 12310 H 1143.02 -0.324454 -3.94669 0
M  V30 12311 H 1144.19 -3.12756 -3.38408 0
M  V30 12312 H 1142.51 -2.70799 -3.16317 0
M  V30 12313 H 1145.1 -0.894207 -5.2717 0
M  V30 12314 H 1145.45 0.394788 -4.14424 0
M  V30 12315 H 1145.98 -1.26276 -3.77226 0
M  V30 12316 H 1142.72 -3.83013 -5.3196 0
M  V30 12317 H 1142.24 -2.14112 -5.60282 0
M  V30 12318 H 1143.92 -2.65607 -5.89968 0
M  V30 12319 N 1144.05 1.41491 -0.694123 0
M  V30 12320 C 1144.98 2.29197 0.0112742 0
M  V30 12321 C 1145.99 1.44708 0.745877 0
M  V30 12322 O 1147.18 1.68227 0.596821 0
M  V30 12323 C 1144.28 3.22547 1.04004 0
M  V30 12324 C 1143.46 4.35787 0.375347 0
M  V30 12325 C 1142.52 5.09722 1.30652 0
M  V30 12326 O 1141.54 5.63558 0.799459 0
M  V30 12327 N 1142.74 5.1705 2.63893 0
M  V30 12328 H 1145.51 2.90377 -0.741705 0
M  V30 12329 H 1143.07 1.52628 -0.540039 0
M  V30 12330 H 1145.06 3.68878 1.66468 0
M  V30 12331 H 1143.63 2.62685 1.69456 0
M  V30 12332 H 1142.85 3.91857 -0.429145 0
M  V30 12333 H 1144.14 5.08726 -0.0869041 0
M  V30 12334 H 1143.54 4.74756 3.07609 0
M  V30 12335 H 1142.09 5.66962 3.21555 0
M  V30 12336 N 1145.53 0.438773 1.51369 0
M  V30 12337 C 1146.46 -0.407771 2.25543 0
M  V30 12338 C 1147.47 -0.985065 1.29616 0
M  V30 12339 O 1148.66 -0.878961 1.55359 0
M  V30 12340 C 1145.76 -1.58257 2.9968 0
M  V30 12341 C 1144.93 -1.12389 4.22714 0
M  V30 12342 C 1143.99 -2.16897 4.79418 0
M  V30 12343 O 1143.02 -1.76273 5.41218 0
M  V30 12344 N 1144.22 -3.49396 4.63576 0
M  V30 12345 H 1146.99 0.227963 2.98832 0
M  V30 12346 H 1144.55 0.267741 1.59671 0
M  V30 12347 H 1146.54 -2.27796 3.34501 0
M  V30 12348 H 1145.11 -2.12362 2.29393 0
M  V30 12349 H 1144.33 -0.255509 3.93371 0
M  V30 12350 H 1145.62 -0.794848 5.02553 0
M  V30 12351 H 1145.02 -3.85132 4.14355 0
M  V30 12352 H 1143.57 -4.14826 5.02755 0
M  V30 12353 N 1147.01 -1.56678 0.170181 0
M  V30 12354 C 1148.42 -1.58512 -0.185999 0
M  V30 12355 C 1148.62 -1.18548 -1.62937 0
M  V30 12356 O 1147.68 -0.896554 -2.36047 0
M  V30 12357 C 1148.99 -3.00554 0.0937842 0
M  V30 12358 C 1150.54 -3.12984 0.0319057 0
M  V30 12359 C 1151.01 -4.57115 0.284664 0
M  V30 12360 N 1152.5 -4.62617 0.2324 0
M  V30 12361 C 1153.24 -5.71988 0.40216 0
M  V30 12362 N 1152.74 -6.89921 0.630915 0
M  V30 12363 N 1154.53 -5.61082 0.338144 0
M  V30 12364 H 1146.68 -1.80944 1.11235 0
M  V30 12365 H 1148.94 -0.838586 0.442128 0
M  V30 12366 H 1148.65 -3.34265 1.09362 0
M  V30 12367 H 1148.52 -3.72151 -0.615118 0
M  V30 12368 H 1150.91 -2.791 -0.958502 0
M  V30 12369 H 1150.99 -2.43825 0.773501 0
M  V30 12370 H 1150.63 -4.91707 1.27227 0
M  V30 12371 H 1150.56 -5.2443 -0.477529 0
M  V30 12372 H 1153.06 -3.7785 0.0611933 0
M  V30 12373 H 1153.37 -7.69153 0.749931 0
M  V30 12374 H 1151.71 -6.91787 0.667516 0
M  V30 12375 H 1154.9 -4.67826 0.16003 0
M  V30 12376 H 1155.08 -6.46265 0.473872 0
M  V30 12377 N 1148.48 0.103547 -1.57259 0
M  V30 12378 C 1149.73 0.807231 -1.84842 0
M  V30 12379 C 1150.05 1.80308 -0.758181 0
M  V30 12380 O 1151.25 2.55406 -0.920877 0
M  V30 12381 C 1149.71 1.4864 -3.27771 0
M  V30 12382 C 1149.32 0.53075 -4.44845 0
M  V30 12383 C 1151.06 2.17431 -3.64587 0
M  V30 12384 C 1148.97 1.21403 -5.78805 0
M  V30 12385 H 1147.9 0.305212 -0.689465 0
M  V30 12386 H 1150.55 0.0600855 -1.83402 0
M  V30 12387 H 1148.93 2.28071 -3.23728 0
M  V30 12388 H 1150.1 -0.231455 -4.60218 0
M  V30 12389 H 1148.42 -0.0510078 -4.16369 0
M  V30 12390 H 1151.02 2.6927 -4.6195 0
M  V30 12391 H 1151.36 2.9594 -2.92789 0
M  V30 12392 H 1151.89 1.4487 -3.70483 0
M  V30 12393 H 1148.63 0.469918 -6.53813 0
M  V30 12394 H 1148.15 1.94787 -5.6729 0
M  V30 12395 H 1149.83 1.74289 -6.23083 0
M  V30 12396 N 1149.96 1.53094 0.37415 0
M  V30 12397 C 1150.92 1.78264 1.44065 0
M  V30 12398 C 1151.92 0.652892 1.46949 0
M  V30 12399 O 1153.11 0.921046 1.47859 0
M  V30 12400 C 1150.25 1.89693 2.83248 0
M  V30 12401 H 1151.44 2.73505 1.23025 0
M  V30 12402 H 1148.99 1.44041 0.60678 0
M  V30 12403 H 1149.73 0.964884 3.09613 0
M  V30 12404 H 1149.51 2.71855 2.82554 0
M  V30 12405 H 1151 2.10787 3.60498 0
M  V30 12406 N 1151.44 -0.633461 1.44309 0
M  V30 12407 C 1152.35 -1.77428 1.53481 0
M  V30 12408 C 1153.37 -1.68839 0.420628 0
M  V30 12409 O 1154.54 -1.89658 0.677638 0
M  V30 12410 C 1151.61 -3.13801 1.47409 0
M  V30 12411 C 1150.67 -3.34039 2.6966 0
M  V30 12412 C 1149.9 -4.63907 2.63868 0
M  V30 12413 O 1150.12 -5.44559 1.69741 0
M  V30 12414 O 1149.06 -4.86295 3.54684 0
M  V30 12415 H 1152.88 -1.72642 2.49857 0
M  V30 12416 H 1150.47 -0.794399 1.26529 0
M  V30 12417 H 1152.35 -3.95101 1.46537 0
M  V30 12418 H 1151.03 -3.19134 0.541769 0
M  V30 12419 H 1149.93 -2.52427 2.761 0
M  V30 12420 H 1151.27 -3.33566 3.61931 0
M  V30 12421 N 1152.92 -1.31168 -0.873655 0
M  V30 12422 C 1153.85 -1.21094 -1.99646 0
M  V30 12423 C 1154.83 -0.0989684 -1.69812 0
M  V30 12424 O 1156.01 -0.282939 -1.92128 0
M  V30 12425 C 1153.14 -0.913684 -3.35066 0
M  V30 12426 C 1152.1 -1.98482 -3.79195 0
M  V30 12427 C 1151.42 -1.54033 -5.12033 0
M  V30 12428 C 1152.72 -3.39745 -3.96699 0
M  V30 12429 H 1154.42 -2.1503 -2.08333 0
M  V30 12430 H 1151.96 -1.03521 -1.00097 0
M  V30 12431 H 1153.92 -0.829821 -4.13149 0
M  V30 12432 H 1152.64 0.0613471 -3.26542 0
M  V30 12433 H 1151.3 -2.05851 -3.03349 0
M  V30 12434 H 1150.95 -0.553261 -4.99948 0
M  V30 12435 H 1150.65 -2.25688 -5.4253 0
M  V30 12436 H 1152.17 -1.47047 -5.92629 0
M  V30 12437 H 1153.59 -3.35071 -4.65188 0
M  V30 12438 H 1151.98 -4.09585 -4.38589 0
M  V30 12439 H 1153.05 -3.80802 -3.00196 0
M  V30 12440 N 1154.4 1.08748 -1.14068 0
M  V30 12441 C 1155.64 1.81333 -0.908081 0
M  V30 12442 C 1155.98 1.85826 0.564112 0
M  V30 12443 O 1155.25 1.33157 1.41773 0
M  V30 12444 C 1155.53 3.27127 -1.50531 0
M  V30 12445 C 1155.39 3.30865 -3.04711 0
M  V30 12446 C 1156.71 4.24006 -1.17928 0
M  V30 12447 H 1153.82 0.658326 -0.331325 0
M  V30 12448 H 1156.47 1.27345 -1.41008 0
M  V30 12449 H 1154.62 3.73233 -1.07839 0
M  V30 12450 H 1156.29 2.93109 -3.56209 0
M  V30 12451 H 1154.53 2.70241 -3.39341 0
M  V30 12452 H 1155.2 4.33603 -3.41603 0
M  V30 12453 H 1157.68 3.86221 -1.54831 0
M  V30 12454 H 1156.55 5.2434 -1.62353 0
M  V30 12455 H 1156.82 4.42 -0.0940349 0
M  V30 12456 N 1155.87 0.935264 1.26849 0
M  V30 12457 C 1156.84 0.44485 2.24842 0
M  V30 12458 C 1157.84 -0.440781 1.54641 0
M  V30 12459 O 1159.03 -0.240793 1.72528 0
M  V30 12460 C 1156.16 -0.359566 3.38998 0
M  V30 12461 H 1157.35 1.31074 2.6974 0
M  V30 12462 H 1154.91 0.716665 1.38901 0
M  V30 12463 H 1155.64 -1.24396 2.99493 0
M  V30 12464 H 1155.43 0.275529 3.91131 0
M  V30 12465 H 1156.92 -0.692804 4.11813 0
M  V30 12466 N 1157.35 -1.41121 0.701616 0
M  V30 12467 C 1158.58 -2.05452 0.244365 0
M  V30 12468 C 1159 -1.5282 -1.10866 0
M  V30 12469 O 1158.35 -0.67893 -1.69401 0
M  V30 12470 C 1158.4 -3.60946 0.200112 0
M  V30 12471 O 1158.12 -4.11632 1.4997 0
M  V30 12472 C 1159.63 -4.42431 -0.277394 0
M  V30 12473 H 1156.85 -0.66151 0.112453 0
M  V30 12474 H 1159.39 -1.80784 0.9559 0
M  V30 12475 H 1157.54 -3.84632 -0.462287 0
M  V30 12476 H 1157.96 -5.05723 1.39084 0
M  V30 12477 H 1159.43 -5.514 -0.257225 0
M  V30 12478 H 1159.91 -4.1898 -1.31728 0
M  V30 12479 H 1160.52 -4.23822 0.354223 0
M  V30 12480 N 1158.83 -0.446794 -1.51134 0
M  V30 12481 C 1159.74 0.36579 -2.31731 0
M  V30 12482 C 1160.76 1.01886 -1.41051 0
M  V30 12483 O 1161.93 1.01216 -1.74119 0
M  V30 12484 C 1159 1.44705 -3.15058 0
M  V30 12485 C 1158.06 0.813129 -4.21529 0
M  V30 12486 C 1157.29 1.84287 -5.00873 0
M  V30 12487 O 1157.51 3.06633 -4.8097 0
M  V30 12488 O 1156.45 1.42816 -5.84711 0
M  V30 12489 H 1160.27 -0.292436 -3.02289 0
M  V30 12490 H 1157.86 -0.209129 -1.47929 0
M  V30 12491 H 1159.74 2.07393 -3.66833 0
M  V30 12492 H 1158.42 2.08919 -2.47254 0
M  V30 12493 H 1157.32 0.147953 -3.73807 0
M  V30 12494 H 1158.66 0.214331 -4.91733 0
M  V30 12495 N 1160.31 1.56586 -0.178487 0
M  V30 12496 C 1161.56 1.97098 0.464617 0
M  V30 12497 C 1161.88 1.06476 1.62767 0
M  V30 12498 O 1161.14 0.100337 1.95443 0
M  V30 12499 C 1161.44 3.43629 0.982552 0
M  V30 12500 C 1161.1 4.50853 -0.0653645 0
M  V30 12501 C 1159.77 4.79901 -0.353349 0
M  V30 12502 C 1162.12 5.15387 -0.776279 0
M  V30 12503 C 1159.45 5.70779 -1.35751 0
M  V30 12504 C 1161.8 6.07349 -1.76948 0
M  V30 12505 C 1160.46 6.34761 -2.06483 0
M  V30 12506 H 1159.73 0.721232 0.170016 0
M  V30 12507 H 1162.38 1.89559 -0.271959 0
M  V30 12508 H 1160.68 3.48155 1.79709 0
M  V30 12509 H 1162.38 3.7232 1.48926 0
M  V30 12510 H 1158.97 4.28266 0.169266 0
M  V30 12511 H 1163.15 4.9305 -0.567008 0
M  V30 12512 H 1158.41 5.90298 -1.59244 0
M  V30 12513 H 1162.58 6.56419 -2.32567 0
M  V30 12514 H 1160.21 7.0498 -2.84441 0
M  V30 12515 N 1161.79 -0.095206 1.57312 0
M  V30 12516 C 1163.03 -0.798719 1.86083 0
M  V30 12517 C 1163.36 -1.78739 0.766991 0
M  V30 12518 O 1162.62 -1.9423 -0.239425 0
M  V30 12519 C 1162.92 -1.56244 3.21438 0
M  V30 12520 C 1162.58 -0.715903 4.4518 0
M  V30 12521 C 1161.24 -0.482537 4.78774 0
M  V30 12522 C 1163.6 -0.127404 5.21044 0
M  V30 12523 C 1160.92 0.349193 5.8566 0
M  V30 12524 C 1163.28 0.691649 6.28808 0
M  V30 12525 C 1161.94 0.935107 6.60918 0
M  V30 12526 H 1161.21 -0.292272 0.680924 0
M  V30 12527 H 1163.86 -0.0602105 1.91405 0
M  V30 12528 H 1162.16 -2.37251 3.118 0
M  V30 12529 H 1163.86 -2.11116 3.40927 0
M  V30 12530 H 1160.45 -0.907902 4.18874 0
M  V30 12531 H 1164.63 -0.29486 4.95423 0
M  V30 12532 H 1159.89 0.546797 6.0895 0
M  V30 12533 H 1164.06 1.15452 6.86763 0
M  V30 12534 H 1161.69 1.58139 7.4357 0
M  V30 12535 N 1163.26 -1.53291 -0.366026 0
M  V30 12536 C 1164.54 -1.60055 -1.12436 0
M  V30 12537 C 1164.92 -0.407811 -2.07123 0
M  V30 12538 O 1164.27 0.601977 -2.20428 0
M  V30 12539 C 1164.48 -2.95062 -1.86385 0
M  V30 12540 C 1165.83 -3.49623 -2.40934 0
M  V30 12541 O 1166.85 -2.97088 -1.96512 0
M  V30 12542 O 1165.71 -4.41461 -3.2214 0
M  V30 12543 H 1162.8 -0.646476 -0.51575 0
M  V30 12544 H 1165.35 -1.65632 -0.369326 0
M  V30 12545 H 1164.12 -3.73312 -1.17277 0
M  V30 12546 H 1163.75 -2.92973 -2.68798 0
M  V30 12547 N 1164.74 0.6258 -1.44643 0
M  V30 12548 C 1165.67 1.75086 -1.47911 0
M  V30 12549 C 1166.69 1.58496 -0.37188 0
M  V30 12550 O 1167.88 1.66712 -0.637925 0
M  V30 12551 C 1164.98 3.12874 -1.30243 0
M  V30 12552 C 1164.15 3.55873 -2.54309 0
M  V30 12553 C 1163.21 4.72558 -2.31464 0
M  V30 12554 O 1162.23 4.80599 -3.04981 0
M  V30 12555 N 1163.44 5.64617 -1.34862 0
M  V30 12556 H 1166.2 1.72751 -2.44902 0
M  V30 12557 H 1163.76 0.810531 -1.4015 0
M  V30 12558 H 1165.75 3.88663 -1.12798 0
M  V30 12559 H 1164.32 3.0982 -0.415966 0
M  V30 12560 H 1163.54 2.70237 -2.86994 0
M  V30 12561 H 1164.83 3.81355 -3.36817 0
M  V30 12562 H 1164.23 5.60819 -0.741542 0
M  V30 12563 H 1162.79 6.40013 -1.23394 0
M  V30 12564 N 1166.22 1.31629 0.866686 0
M  V30 12565 C 1167.47 1.21263 1.61678 0
M  V30 12566 C 1167.79 -0.228562 1.93656 0
M  V30 12567 O 1167.06 -1.15014 1.58583 0
M  V30 12568 H 1165.64 0.445817 0.59938 0
M  V30 12569 H 1168.3 1.64998 1.03739 0
M  V30 12570 H 1167.4 1.78669 2.55898 0
M  V30 12571 N 1167.7 -1.08142 1.14644 0
M  V30 12572 C 1168.98 -1.77254 0.827071 0
M  V30 12573 C 1169.36 -1.99885 -0.67891 0
M  V30 12574 O 1168.7 -1.61084 -1.62062 0
M  V30 12575 C 1168.91 -3.08658 1.62884 0
M  V30 12576 C 1170.26 -3.83143 1.82993 0
M  V30 12577 O 1171.29 -3.18447 1.59593 0
M  V30 12578 O 1170.15 -4.9932 2.2213 0
M  V30 12579 H 1167.24 -0.769356 0.30335 0
M  V30 12580 H 1169.79 -1.1458 1.25178 0
M  V30 12581 H 1168.56 -2.87753 2.65168 0
M  V30 12582 H 1168.18 -3.79061 1.19994 0
M  V30 12583 N 1169.18 -0.941978 -1.26351 0
M  V30 12584 C 1170.59 -0.644413 -1.46012 0
M  V30 12585 C 1170.79 0.802031 -1.84851 0
M  V30 12586 O 1169.85 1.57859 -1.9707 0
M  V30 12587 C 1171.16 -1.60652 -2.54188 0
M  V30 12588 C 1172.71 -1.6163 -2.68038 0
M  V30 12589 C 1173.19 -2.56573 -3.79387 0
M  V30 12590 N 1174.68 -2.54863 -3.8678 0
M  V30 12591 C 1175.41 -3.2501 -4.72394 0
M  V30 12592 N 1174.91 -4.04586 -5.6239 0
M  V30 12593 N 1176.7 -3.13958 -4.66247 0
M  V30 12594 H 1168.85 -1.8769 -0.994293 0
M  V30 12595 H 1171.11 -0.806621 -0.498063 0
M  V30 12596 H 1170.82 -2.63907 -2.32478 0
M  V30 12597 H 1170.69 -1.3592 -3.5186 0
M  V30 12598 H 1173.08 -0.59099 -2.89122 0
M  V30 12599 H 1173.16 -1.90417 -1.70807 0
M  V30 12600 H 1172.81 -3.59223 -3.59056 0
M  V30 12601 H 1172.74 -2.25077 -4.76076 0
M  V30 12602 H 1175.23 -1.97082 -3.22439 0
M  V30 12603 H 1175.54 -4.55061 -6.24612 0
M  V30 12604 H 1173.89 -4.08687 -5.62139 0
M  V30 12605 H 1177.08 -2.51273 -3.94943 0
M  V30 12606 H 1177.25 -3.68894 -5.32749 0
M  V30 12607 N 1170.66 1.40747 -0.709091 0
M  V30 12608 C 1171.57 2.3454 -0.0532205 0
M  V30 12609 C 1172.58 1.56956 0.751057 0
M  V30 12610 O 1173.76 1.89375 0.685509 0
M  V30 12611 C 1170.82 3.35809 0.862157 0
M  V30 12612 C 1169.88 4.29273 0.0485632 0
M  V30 12613 C 1169.12 5.25705 0.920345 0
M  V30 12614 O 1169.34 5.27933 2.15969 0
M  V30 12615 O 1168.27 6.00806 0.3628 0
M  V30 12616 H 1172.1 2.92232 -0.826698 0
M  V30 12617 H 1169.68 1.4183 -0.469519 0
M  V30 12618 H 1171.57 3.97931 1.38668 0
M  V30 12619 H 1170.24 2.8054 1.61489 0
M  V30 12620 H 1169.15 3.70456 -0.520873 0
M  V30 12621 H 1170.48 4.87676 -0.665807 0
M  V30 12622 N 1172.13 0.454803 1.50895 0
M  V30 12623 C 1173.55 0.108037 1.59234 0
M  V30 12624 C 1173.75 -1.38416 1.46435 0
M  V30 12625 O 1172.81 -2.15586 1.31449 0
M  V30 12626 C 1174.12 0.643721 2.93729 0
M  V30 12627 C 1175.67 0.605703 3.07083 0
M  V30 12628 C 1176.14 1.11865 4.44128 0
M  V30 12629 N 1177.63 1.07738 4.50496 0
M  V30 12630 C 1178.37 1.44495 5.54895 0
M  V30 12631 N 1177.86 1.88624 6.66628 0
M  V30 12632 N 1179.66 1.36201 5.45349 0
M  V30 12633 H 1171.81 1.4255 1.57459 0
M  V30 12634 H 1174.07 0.588504 0.743214 0
M  V30 12635 H 1173.78 1.68844 3.0852 0
M  V30 12636 H 1173.65 0.0782404 3.77119 0
M  V30 12637 H 1176.04 -0.430065 2.91949 0
M  V30 12638 H 1176.12 1.2078 2.2549 0
M  V30 12639 H 1175.76 2.15297 4.6001 0
M  V30 12640 H 1175.69 0.492933 5.24288 0
M  V30 12641 H 1178.18 0.753526 3.70311 0
M  V30 12642 H 1178.5 2.14863 7.4233 0
M  V30 12643 H 1176.84 1.92564 6.6779 0
M  V30 12644 H 1180.03 1.01579 4.56946 0
M  V30 12645 H 1180.21 1.65175 6.26595 0
M  V30 12646 N 1173.61 -1.56489 0.186789 0
M  V30 12647 C 1174.56 -2.18703 -0.737402 0
M  V30 12648 C 1175.53 -1.13171 -1.21579 0
M  V30 12649 O 1176.71 -1.41388 -1.28118 0
M  V30 12650 C 1173.85 -2.84394 -1.95484 0
M  V30 12651 C 1172.97 -4.04429 -1.51859 0
M  V30 12652 C 1172.1 -4.58001 -2.69089 0
M  V30 12653 C 1171.14 -5.70412 -2.22029 0
M  V30 12654 N 1170.28 -6.18425 -3.32407 0
M  V30 12655 H 1175.12 -2.97327 -0.200105 0
M  V30 12656 H 1172.65 -1.46842 -0.087032 0
M  V30 12657 H 1174.61 -3.20646 -2.66912 0
M  V30 12658 H 1173.24 -2.08347 -2.46559 0
M  V30 12659 H 1172.29 -3.73895 -0.70048 0
M  V30 12660 H 1173.61 -4.85756 -1.13327 0
M  V30 12661 H 1172.76 -4.96515 -3.48652 0
M  V30 12662 H 1171.5 -3.75764 -3.1089 0
M  V30 12663 H 1170.5 -5.31434 -1.40918 0
M  V30 12664 H 1171.73 -6.54461 -1.81268 0
M  V30 12665 H 1169.68 -5.39113 -3.73755 0
M  V30 12666 H 1169.59 -6.94782 -2.98017 0
M  V30 12667 H 1170.86 -6.61592 -4.12209 0
M  V30 12668 N 1175.09 0.086862 -1.5736 0
M  V30 12669 C 1176 1.12297 -2.05977 0
M  V30 12670 C 1177.02 1.43347 -0.986284 0
M  V30 12671 O 1178.19 1.53825 -1.3 0
M  V30 12672 C 1175.26 2.42131 -2.4814 0
M  V30 12673 C 1174.32 2.18189 -3.69719 0
M  V30 12674 C 1173.55 3.41833 -4.09861 0
M  V30 12675 O 1173.77 4.50383 -3.50016 0
M  V30 12676 O 1172.71 3.30934 -5.02759 0
M  V30 12677 H 1176.53 0.740012 -2.94546 0
M  V30 12678 H 1174.12 0.29995 -1.46358 0
M  V30 12679 H 1176 3.18568 -2.75848 0
M  V30 12680 H 1174.68 2.79837 -1.62705 0
M  V30 12681 H 1173.58 1.39506 -3.47115 0
M  V30 12682 H 1174.92 1.85372 -4.55959 0
M  V30 12683 N 1176.57 1.53483 0.357892 0
M  V30 12684 C 1177.5 1.83444 1.44466 0
M  V30 12685 C 1178.48 0.688486 1.55544 0
M  V30 12686 O 1179.66 0.93906 1.69986 0
M  V30 12687 C 1176.79 2.03122 2.81707 0
M  V30 12688 C 1175.75 3.1891 2.85448 0
M  V30 12689 C 1175.07 3.23895 4.25436 0
M  V30 12690 C 1176.37 4.57334 2.52275 0
M  V30 12691 H 1178.07 2.74456 1.19642 0
M  V30 12692 H 1175.61 1.3206 0.574112 0
M  V30 12693 H 1177.57 2.22666 3.57768 0
M  V30 12694 H 1176.29 1.08827 3.07935 0
M  V30 12695 H 1174.95 2.99199 2.11838 0
M  V30 12696 H 1174.6 2.27223 4.48753 0
M  V30 12697 H 1174.3 4.01694 4.28854 0
M  V30 12698 H 1175.82 3.45632 5.0336 0
M  V30 12699 H 1177.24 4.76988 3.1805 0
M  V30 12700 H 1175.63 5.37431 2.66998 0
M  V30 12701 H 1176.7 4.61921 1.47501 0
M  V30 12702 N 1178.05 -0.61812 1.44973 0
M  V30 12703 C 1178.99 -1.75059 1.53157 0
M  V30 12704 C 1179.99 -1.64554 0.402282 0
M  V30 12705 O 1181.19 -1.70475 0.577767 0
M  V30 12706 H 1177.57 -0.57817 0.480856 0
M  V30 12707 H 1179.54 -1.65281 2.48445 0
M  V30 12708 C 1178.29 -3.13423 1.50538 0
M  V30 12709 H 1177.61 -3.2216 2.36755 0
M  V30 12710 H 1179.05 -3.92521 1.60323 0
M  V30 12711 C 1177.51 -3.36127 0.228127 0
M  V30 12712 O 1178.04 -3.95618 -0.696364 0
M  V30 12713 N 1176.25 -2.90322 0.127142 0
M  V30 12714 H 1175.79 -2.42091 0.880317 0
M  V30 12715 H 1175.75 -3.05887 -0.726659 0
M  V30 12716 N 1179.52 -1.32087 -0.859693 0
M  V30 12717 C 1180.77 -1.21716 -1.60836 0
M  V30 12718 C 1181.09 0.220904 -1.94349 0
M  V30 12719 O 1182.29 0.446422 -2.67805 0
M  V30 12720 C 1180.75 -2.13143 -2.89997 0
M  V30 12721 C 1180.36 -3.62003 -2.63928 0
M  V30 12722 C 1182.1 -2.11596 -3.68004 0
M  V30 12723 C 1180.01 -4.45407 -3.89059 0
M  V30 12724 H 1178.94 -0.45199 -0.603507 0
M  V30 12725 H 1181.59 -1.57013 -0.949687 0
M  V30 12726 H 1179.97 -1.70755 -3.57294 0
M  V30 12727 H 1181.14 -4.12701 -2.04974 0
M  V30 12728 H 1179.46 -3.6563 -1.99258 0
M  V30 12729 H 1182.06 -2.71149 -4.6085 0
M  V30 12730 H 1182.4 -1.10568 -4.01348 0
M  V30 12731 H 1182.93 -2.52238 -3.07605 0
M  V30 12732 H 1179.67 -5.4723 -3.60859 0
M  V30 12733 H 1179.19 -3.99462 -4.47427 0
M  V30 12734 H 1180.87 -4.58149 -4.56846 0
M  V30 12735 N 1181 1.07532 -1.15215 0
M  V30 12736 C 1181.91 2.18222 -0.861192 0
M  V30 12737 C 1182.93 1.73246 0.161798 0
M  V30 12738 O 1184.1 2.01397 -0.0118386 0
M  V30 12739 C 1181.17 3.44902 -0.352601 0
M  V30 12740 C 1180.23 4.04455 -1.43926 0
M  V30 12741 C 1179.46 5.25089 -0.954841 0
M  V30 12742 O 1179.69 5.70048 0.200294 0
M  V30 12743 O 1178.62 5.76269 -1.73774 0
M  V30 12744 H 1182.45 2.45599 -1.78648 0
M  V30 12745 H 1180.03 1.16835 -0.93112 0
M  V30 12746 H 1181.91 4.21333 -0.0753347 0
M  V30 12747 H 1180.59 3.19082 0.544841 0
M  V30 12748 H 1179.49 3.29573 -1.7701 0
M  V30 12749 H 1180.83 4.34544 -2.31155 0
M  V30 12750 N 1182.48 0.948665 1.2585 0
M  V30 12751 C 1183.89 0.641829 1.75321 0
M  V30 12752 C 1184.24 -0.842903 1.77171 0
M  V30 12753 O 1183.37 -1.65967 1.38867 0
M  V30 12754 C 1183.96 1.15835 3.18383 0
M  V30 12755 C 1182.52 0.901784 3.65438 0
M  V30 12756 C 1181.67 1.30489 2.44679 0
M  V30 12757 H 1184.62 1.12614 1.1182 0
M  V30 12758 H 1184.64 0.515639 3.7699 0
M  V30 12759 H 1184.15 2.23897 3.17004 0
M  V30 12760 H 1182.25 -0.164135 3.72238 0
M  V30 12761 H 1182.37 1.53405 4.53876 0
M  V30 12762 H 1180.73 0.723278 2.44215 0
M  V30 12763 H 1181.51 2.3946 2.45996 0
M  V30 12764 N 1183.96 -1.40369 0.716545 0
M  V30 12765 C 1185.19 -2.05181 0.266143 0
M  V30 12766 C 1185.6 -1.53988 -1.09239 0
M  V30 12767 O 1184.96 -0.696859 -1.68672 0
M  V30 12768 C 1185.01 -3.60713 0.238384 0
M  V30 12769 O 1184.73 -4.10018 1.54328 0
M  V30 12770 C 1186.23 -4.42701 -0.230453 0
M  V30 12771 H 1183.45 -0.66028 0.119463 0
M  V30 12772 H 1186 -1.7976 0.97502 0
M  V30 12773 H 1184.15 -3.85101 -0.421466 0
M  V30 12774 H 1184.56 -5.0422 1.4444 0
M  V30 12775 H 1186.04 -5.51642 -0.198728 0
M  V30 12776 H 1186.52 -4.20354 -1.27276 0
M  V30 12777 H 1187.12 -4.23423 0.399155 0
M  V30 12778 N 1185.44 -0.462799 -1.50652 0
M  V30 12779 C 1186.71 0.156221 -1.94975 0
M  V30 12780 C 1187.09 1.5775 -1.40279 0
M  V30 12781 O 1186.44 2.20473 -0.600323 0
M  V30 12782 C 1186.65 0.108008 -3.48833 0
M  V30 12783 C 1188 0.301013 -4.23532 0
M  V30 12784 O 1189.02 0.184973 -3.55719 0
M  V30 12785 O 1187.88 0.534457 -5.4388 0
M  V30 12786 H 1184.98 0.116182 -0.818798 0
M  V30 12787 H 1187.52 -0.522607 -1.61453 0
M  V30 12788 H 1186.29 -0.884634 -3.81169 0
M  V30 12789 H 1185.92 0.828653 -3.88869 0
M  V30 12790 N 1186.91 1.56388 -0.195085 0
M  V30 12791 C 1187.84 2.22091 0.720971 0
M  V30 12792 C 1188.83 1.184 1.22128 0
M  V30 12793 O 1190.01 1.46907 1.27012 0
M  V30 12794 C 1187.14 2.88025 1.94059 0
M  V30 12795 C 1186.09 3.97959 1.5752 0
M  V30 12796 C 1185.42 4.51058 2.87143 0
M  V30 12797 C 1186.72 5.16365 0.785145 0
M  V30 12798 H 1188.41 2.98898 0.173245 0
M  V30 12799 H 1185.96 1.43767 0.0818868 0
M  V30 12800 H 1187.91 3.32671 2.58666 0
M  V30 12801 H 1186.64 2.08623 2.51285 0
M  V30 12802 H 1185.3 3.54004 0.952715 0
M  V30 12803 H 1184.94 3.68418 3.42458 0
M  V30 12804 H 1184.64 5.25237 2.63439 0
M  V30 12805 H 1186.17 4.98406 3.52738 0
M  V30 12806 H 1187.58 5.57556 1.33431 0
M  V30 12807 H 1185.98 5.9661 0.646231 0
M  V30 12808 H 1187.05 4.84428 -0.213789 0
M  V30 12809 N 1188.39 -0.0785156 1.57404 0
M  V30 12810 C 1189.33 -1.12563 1.98506 0
M  V30 12811 C 1190.3 -1.3794 0.860891 0
M  V30 12812 O 1191.49 -1.51425 1.12262 0
M  V30 12813 C 1188.61 -2.47139 2.31603 0
M  V30 12814 C 1187.66 -2.3794 3.53959 0
M  V30 12815 S 1188.49 -1.77997 5.05052 0
M  V30 12816 C 1189.65 -3.14164 5.41342 0
M  V30 12817 H 1189.88 -0.775328 2.87012 0
M  V30 12818 H 1187.42 -0.286806 1.51713 0
M  V30 12819 H 1189.37 -3.24554 2.51346 0
M  V30 12820 H 1188.03 -2.79333 1.43638 0
M  V30 12821 H 1187.23 -3.37168 3.74612 0
M  V30 12822 H 1186.83 -1.68659 3.33812 0
M  V30 12823 H 1189.12 -4.10467 5.39002 0
M  V30 12824 H 1190.06 -2.98298 6.42202 0
M  V30 12825 H 1190.47 -3.1446 4.68802 0
M  V30 12826 N 1189.87 -1.5367 -0.349747 0
M  V30 12827 C 1190.82 -1.81914 -1.44948 0
M  V30 12828 C 1191.81 -0.689218 -1.54745 0
M  V30 12829 O 1193.02 -0.872448 -1.57443 0
M  V30 12830 H 1189.39 -0.576234 -0.483176 0
M  V30 12831 H 1191.36 -2.73932 -1.18338 0
M  V30 12832 C 1190.11 -2.04005 -2.81562 0
M  V30 12833 H 1189.44 -2.90399 -2.74788 0
M  V30 12834 H 1190.88 -2.27737 -3.57648 0
M  V30 12835 C 1189.34 -0.823748 -3.26674 0
M  V30 12836 O 1189.87 -0.0201351 -4.01695 0
M  V30 12837 N 1188.07 -0.642716 -2.83403 0
M  V30 12838 H 1187.62 -1.29783 -2.22517 0
M  V30 12839 H 1187.58 0.169654 -3.13942 0
M  V30 12840 N 1191.35 0.610423 -1.45298 0
M  V30 12841 C 1192.76 0.930872 -1.29642 0
M  V30 12842 C 1192.96 1.99976 -0.247358 0
M  V30 12843 O 1192.02 2.49925 0.359674 0
M  V30 12844 C 1193.33 1.37449 -2.67448 0
M  V30 12845 C 1194.88 1.48885 -2.75322 0
M  V30 12846 C 1195.36 1.96624 -4.13646 0
M  V30 12847 N 1196.85 2.03862 -4.15926 0
M  V30 12848 C 1197.58 2.42015 -5.19823 0
M  V30 12849 N 1197.08 2.79157 -6.34069 0
M  V30 12850 N 1198.87 2.42329 -5.07181 0
M  V30 12851 H 1191.02 -0.0961259 -2.12182 0
M  V30 12852 H 1193.29 0.0196483 -0.947796 0
M  V30 12853 H 1192.99 0.663276 -3.45389 0
M  V30 12854 H 1192.87 2.34155 -2.95721 0
M  V30 12855 H 1195.25 2.19098 -1.97686 0
M  V30 12856 H 1195.33 0.505006 -2.50765 0
M  V30 12857 H 1194.98 1.26998 -4.91766 0
M  V30 12858 H 1194.91 2.95917 -4.35592 0
M  V30 12859 H 1197.4 1.77759 -3.33482 0
M  V30 12860 H 1197.71 3.07143 -7.09142 0
M  V30 12861 H 1196.06 2.7686 -6.37474 0
M  V30 12862 H 1199.25 2.12717 -4.16976 0
M  V30 12863 H 1199.42 2.71738 -5.88271 0
M  V30 12864 N 1192.83 1.32541 0.852676 0
M  V30 12865 C 1193.74 1.23646 1.99371 0
M  V30 12866 C 1194.75 0.149673 1.73355 0
M  V30 12867 O 1195.93 0.370716 1.97959 0
M  V30 12868 C 1192.99 0.961873 3.3309 0
M  V30 12869 C 1192.05 2.1373 3.72315 0
M  V30 12870 C 1191.29 1.87572 4.99652 0
M  V30 12871 O 1191.51 0.819247 5.64486 0
M  V30 12872 O 1190.44 2.73732 5.36054 0
M  V30 12873 H 1194.27 2.19573 2.09813 0
M  V30 12874 H 1191.86 1.12451 0.983627 0
M  V30 12875 H 1193.74 0.825316 4.13239 0
M  V30 12876 H 1192.41 0.0327745 3.23683 0
M  V30 12877 H 1191.32 2.32933 2.92733 0
M  V30 12878 H 1192.65 3.04925 3.86369 0
M  V30 12879 N 1194.3 -1.0692 1.15784 0
M  V30 12880 C 1195.25 -2.14235 0.858616 0
M  V30 12881 C 1196.22 -1.65006 -0.190295 0
M  V30 12882 O 1197.41 -1.90715 -0.0568853 0
M  V30 12883 C 1194.55 -3.43229 0.35888 0
M  V30 12884 C 1193.66 -4.06225 1.46987 0
M  V30 12885 C 1192.79 -5.2307 0.925812 0
M  V30 12886 C 1191.83 -5.78037 2.01345 0
M  V30 12887 N 1190.97 -6.86206 1.48544 0
M  V30 12888 H 1195.81 -2.3917 1.77769 0
M  V30 12889 H 1193.35 -1.17354 0.886925 0
M  V30 12890 H 1195.31 -4.17169 0.0508198 0
M  V30 12891 H 1193.94 -3.18531 -0.523259 0
M  V30 12892 H 1192.99 -3.29895 1.89403 0
M  V30 12893 H 1194.3 -4.43081 2.29088 0
M  V30 12894 H 1193.45 -6.04011 0.570555 0
M  V30 12895 H 1192.19 -4.87644 0.0740371 0
M  V30 12896 H 1191.2 -4.95738 2.37748 0
M  V30 12897 H 1192.42 -6.15517 2.86907 0
M  V30 12898 H 1190.37 -6.52711 0.656092 0
M  V30 12899 H 1190.29 -7.2197 2.24266 0
M  V30 12900 H 1191.55 -7.70842 1.15856 0
M  V30 12901 N 1195.78 -0.955326 -1.25345 0
M  V30 12902 C 1196.73 -0.474888 -2.25862 0
M  V30 12903 C 1197.7 0.472996 -1.59223 0
M  V30 12904 O 1198.88 0.386094 -1.86853 0
M  V30 12905 C 1196.02 0.240554 -3.44261 0
M  V30 12906 C 1195.14 -0.74465 -4.25534 0
M  V30 12907 C 1194.27 -0.00657513 -5.312 0
M  V30 12908 C 1193.31 -0.982666 -6.04161 0
M  V30 12909 N 1192.45 -0.275418 -7.0156 0
M  V30 12910 H 1197.29 -1.33693 -2.66327 0
M  V30 12911 H 1194.83 -0.670439 -1.30933 0
M  V30 12912 H 1196.78 0.671933 -4.11753 0
M  V30 12913 H 1195.41 1.06664 -3.04668 0
M  V30 12914 H 1194.47 -1.29451 -3.57696 0
M  V30 12915 H 1195.78 -1.48948 -4.76042 0
M  V30 12916 H 1194.93 0.483404 -6.04771 0
M  V30 12917 H 1193.67 0.771035 -4.81567 0
M  V30 12918 H 1192.68 -1.48364 -5.29404 0
M  V30 12919 H 1193.9 -1.76052 -6.55883 0
M  V30 12920 H 1191.85 0.483441 -6.54216 0
M  V30 12921 H 1191.76 -0.959324 -7.49889 0
M  V30 12922 H 1193.03 0.193002 -7.79261 0
M  V30 12923 N 1197.26 1.39987 -0.723979 0
M  V30 12924 C 1198.21 2.32507 -0.0658033 0
M  V30 12925 C 1199.2 1.52484 0.737908 0
M  V30 12926 O 1200.41 1.68225 0.640332 0
M  V30 12927 H 1196.78 0.751996 -0.00247717 0
M  V30 12928 H 1198.76 2.85657 -0.862696 0
M  V30 12929 C 1197.5 3.37509 0.835628 0
M  V30 12930 H 1196.83 3.99157 0.226589 0
M  V30 12931 H 1198.27 4.04722 1.26396 0
M  V30 12932 C 1196.73 2.73665 1.96492 0
M  V30 12933 O 1197.26 2.60649 3.05655 0
M  V30 12934 N 1195.46 2.3192 1.75104 0
M  V30 12935 H 1195.01 2.42707 0.863204 0
M  V30 12936 H 1194.97 1.89542 2.50841 0
M  V30 12937 N 1198.74 0.470782 1.50404 0
M  V30 12938 C 1199.69 -0.32355 2.28521 0
M  V30 12939 C 1200.66 -0.987472 1.3356 0
M  V30 12940 O 1201.84 -0.999969 1.62497 0
M  V30 12941 C 1198.98 -1.39977 3.15437 0
M  V30 12942 C 1198.09 -0.750656 4.25428 0
M  V30 12943 C 1197.23 -1.80474 4.99602 0
M  V30 12944 C 1196.27 -1.13586 6.01469 0
M  V30 12945 N 1195.41 -2.13279 6.68922 0
M  V30 12946 H 1200.25 0.348902 2.9595 0
M  V30 12947 H 1197.78 0.183908 1.45946 0
M  V30 12948 H 1199.74 -2.0354 3.6418 0
M  V30 12949 H 1198.37 -2.04139 2.50054 0
M  V30 12950 H 1197.42 -0.00247092 3.804 0
M  V30 12951 H 1198.73 -0.222638 4.98303 0
M  V30 12952 H 1197.89 -2.51619 5.52062 0
M  V30 12953 H 1196.63 -2.36657 4.26433 0
M  V30 12954 H 1195.63 -0.410042 5.48269 0
M  V30 12955 H 1196.86 -0.580935 6.76611 0
M  V30 12956 H 1194.8 -2.68479 5.98544 0
M  V30 12957 H 1194.72 -1.65461 7.37671 0
M  V30 12958 H 1195.99 -2.83804 7.26 0
M  V30 12959 N 1200.22 -1.56282 0.203376 0
M  V30 12960 C 1201.47 -1.96987 -0.433461 0
M  V30 12961 C 1201.78 -1.09344 -1.62183 0
M  V30 12962 O 1202.99 -1.39868 -2.327 0
M  V30 12963 C 1201.44 -3.50374 -0.82257 0
M  V30 12964 C 1201.05 -4.46693 0.341969 0
M  V30 12965 C 1202.79 -3.99831 -1.42603 0
M  V30 12966 C 1200.7 -5.9136 -0.0685608 0
M  V30 12967 H 1199.63 -0.735564 -0.165717 0
M  V30 12968 H 1202.28 -1.81085 0.296708 0
M  V30 12969 H 1200.66 -3.6181 -1.60964 0
M  V30 12970 H 1201.84 -4.46994 1.11952 0
M  V30 12971 H 1200.15 -4.07476 0.857463 0
M  V30 12972 H 1202.75 -5.05398 -1.74577 0
M  V30 12973 H 1203.09 -3.4462 -2.33544 0
M  V30 12974 H 1203.63 -3.91543 -0.702758 0
M  V30 12975 H 1200.36 -6.50515 0.80688 0
M  V30 12976 H 1199.88 -5.94295 -0.810798 0
M  V30 12977 H 1201.56 -6.45053 -0.501525 0
M  V30 12978 N 1201.7 0.070167 -1.57444 0
M  V30 12979 C 1203.11 0.621805 -1.76041 0
M  V30 12980 C 1203.46 1.77824 -0.829047 0
M  V30 12981 O 1202.58 2.16396 -0.0135453 0
M  V30 12982 C 1203.18 1.13476 -3.19231 0
M  V30 12983 C 1201.74 1.63225 -3.39167 0
M  V30 12984 C 1200.88 0.552369 -2.71743 0
M  V30 12985 H 1203.83 -0.156009 -1.57931 0
M  V30 12986 H 1203.86 2.00352 -3.2348 0
M  V30 12987 H 1203.37 0.29288 -3.86993 0
M  V30 12988 H 1201.47 2.49733 -2.76522 0
M  V30 12989 H 1201.58 1.70807 -4.47618 0
M  V30 12990 H 1199.95 0.997797 -2.34342 0
M  V30 12991 H 1200.73 -0.279354 -3.42162 0
M  V30 12992 N 1203.17 1.53854 0.341593 0
M  V30 12993 C 1204.4 1.75447 1.10604 0
M  V30 12994 C 1204.82 0.493225 1.81518 0
M  V30 12995 O 1204.18 -0.554253 1.7262 0
M  V30 12996 C 1204.23 2.93593 2.09369 0
M  V30 12997 O 1203.33 2.63878 3.16926 0
M  V30 12998 H 1202.67 0.581923 0.319783 0
M  V30 12999 H 1205.2 2.00822 0.391388 0
M  V30 13000 H 1205.21 3.20437 2.52556 0
M  V30 13001 H 1203.89 3.85067 1.57151 0
M  V30 13002 H 1202.47 2.47929 2.78542 0
M  V30 13003 N 1204.65 -0.602709 1.4562 0
M  V30 13004 C 1205.58 -1.72705 1.49159 0
M  V30 13005 C 1206.56 -1.58843 0.347494 0
M  V30 13006 O 1207.75 -1.80337 0.548716 0
M  V30 13007 C 1204.87 -3.10579 1.35125 0
M  V30 13008 C 1203.92 -3.43016 2.53461 0
M  V30 13009 S 1204.75 -3.37311 4.1591 0
M  V30 13010 C 1205.91 -4.77757 4.0435 0
M  V30 13011 H 1206.14 -1.69441 2.44289 0
M  V30 13012 H 1203.67 -0.779776 1.33262 0
M  V30 13013 H 1205.63 -3.90127 1.27715 0
M  V30 13014 H 1204.29 -3.11352 0.414568 0
M  V30 13015 H 1203.49 -4.43415 2.39581 0
M  V30 13016 H 1203.09 -2.70993 2.57757 0
M  V30 13017 H 1205.38 -5.67677 3.69796 0
M  V30 13018 H 1206.32 -4.96694 5.04679 0
M  V30 13019 H 1206.73 -4.53667 3.35926 0
M  V30 13020 N 1206.13 -1.32992 -0.845635 0
M  V30 13021 C 1207.06 -1.18513 -1.96182 0
M  V30 13022 C 1208.07 -0.11781 -1.62373 0
M  V30 13023 O 1209.26 -0.36761 -1.74674 0
M  V30 13024 C 1206.36 -0.793812 -3.29472 0
M  V30 13025 C 1205.54 -1.95134 -3.91461 0
M  V30 13026 C 1204.6 -1.54209 -5.03096 0
M  V30 13027 O 1203.62 -2.25545 -5.22607 0
M  V30 13028 N 1204.82 -0.443235 -5.78805 0
M  V30 13029 H 1207.59 -2.14663 -2.09141 0
M  V30 13030 H 1205.15 -1.25648 -1.02099 0
M  V30 13031 H 1207.14 -0.502263 -4.01571 0
M  V30 13032 H 1205.71 0.0768031 -3.12506 0
M  V30 13033 H 1204.93 -2.40889 -3.12035 0
M  V30 13034 H 1206.22 -2.72604 -4.2961 0
M  V30 13035 H 1205.62 0.150298 -5.655 0
M  V30 13036 H 1204.17 -0.211331 -6.51457 0
M  V30 13037 N 1207.61 1.06304 -1.1635 0
M  V30 13038 C 1208.85 1.79366 -0.94634 0
M  V30 13039 C 1209.19 1.86981 0.524569 0
M  V30 13040 O 1208.46 1.36134 1.38917 0
M  V30 13041 C 1208.74 3.23861 -1.57436 0
M  V30 13042 C 1208.6 3.24327 -3.1166 0
M  V30 13043 C 1209.92 4.21409 -1.26895 0
M  V30 13044 H 1207.04 0.65115 -0.345215 0
M  V30 13045 H 1209.68 1.24325 -1.43678 0
M  V30 13046 H 1207.83 3.70862 -1.15731 0
M  V30 13047 H 1209.5 2.85488 -3.62346 0
M  V30 13048 H 1207.74 2.62983 -3.44997 0
M  V30 13049 H 1208.41 4.2626 -3.50723 0
M  V30 13050 H 1210.89 3.8285 -1.62989 0
M  V30 13051 H 1209.77 5.20778 -1.73439 0
M  V30 13052 H 1210.03 4.41701 -0.187768 0
M  V30 13053 N 1209.09 0.96196 1.24836 0
M  V30 13054 C 1210.33 0.619489 1.92371 0
M  V30 13055 C 1210.65 -0.847233 1.75633 0
M  V30 13056 O 1209.92 -1.60419 1.12439 0
M  V30 13057 H 1208.5 0.226129 0.711951 0
M  V30 13058 H 1211.17 1.22179 1.5185 0
M  V30 13059 H 1210.26 0.855128 3.00157 0
M  V30 13060 N 1210.56 -1.39601 0.731392 0
M  V30 13061 C 1211.81 -2.00586 0.277756 0
M  V30 13062 C 1212.14 -1.58027 -1.13391 0
M  V30 13063 O 1211.39 -0.798691 -1.7866 0
M  V30 13064 C 1211.69 -3.55934 0.323352 0
M  V30 13065 C 1211.36 -4.18131 1.68753 0
M  V30 13066 C 1210.02 -4.34833 2.06092 0
M  V30 13067 C 1212.37 -4.5267 2.58339 0
M  V30 13068 C 1209.7 -4.83362 3.32532 0
M  V30 13069 C 1212.05 -5.02607 3.84148 0
M  V30 13070 C 1210.72 -5.17517 4.21584 0
M  V30 13071 H 1209.99 -0.733996 0.101638 0
M  V30 13072 H 1212.63 -1.66981 0.937528 0
M  V30 13073 H 1210.94 -3.89542 -0.419995 0
M  V30 13074 H 1212.64 -4.00974 -0.0457235 0
M  V30 13075 H 1209.23 -4.0553 1.38722 0
M  V30 13076 H 1213.41 -4.39388 2.30763 0
M  V30 13077 H 1208.67 -4.93091 3.61485 0
M  V30 13078 H 1212.84 -5.28306 4.53724 0
M  V30 13079 H 1210.47 -5.54882 5.19625 0
M  V30 13080 N 1212.04 -0.478751 -1.50152 0
M  V30 13081 C 1213.29 0.07531 -2.01559 0
M  V30 13082 C 1213.6 1.40089 -1.36508 0
M  V30 13083 O 1214.81 2.04035 -1.79115 0
M  V30 13084 C 1213.27 0.184714 -3.59426 0
M  V30 13085 C 1212.87 -1.13289 -4.33439 0
M  V30 13086 C 1214.62 0.690326 -4.18849 0
M  V30 13087 C 1212.53 -0.986866 -5.83108 0
M  V30 13088 H 1211.46 0.0319196 -0.753324 0
M  V30 13089 H 1214.11 -0.614809 -1.72894 0
M  V30 13090 H 1212.49 0.938788 -3.84711 0
M  V30 13091 H 1213.66 -1.89852 -4.19872 0
M  V30 13092 H 1211.98 -1.57021 -3.8566 0
M  V30 13093 H 1214.57 0.816733 -5.28426 0
M  V30 13094 H 1214.92 1.68361 -3.80737 0
M  V30 13095 H 1215.45 -0.00657846 -3.97799 0
M  V30 13096 H 1212.19 -1.95375 -6.25707 0
M  V30 13097 H 1211.71 -0.261752 -5.99229 0
M  V30 13098 H 1213.39 -0.656567 -6.4366 0
M  V30 13099 N 1213.52 1.56172 -0.211661 0
M  V30 13100 C 1214.8 1.8984 0.471195 0
M  V30 13101 C 1215.18 1.1276 1.78461 0
M  V30 13102 O 1214.53 0.233817 2.27301 0
M  V30 13103 C 1214.74 3.42434 0.673814 0
M  V30 13104 C 1216.08 4.13 0.985719 0
M  V30 13105 O 1217.11 3.47977 0.760953 0
M  V30 13106 O 1215.97 5.2795 1.41176 0
M  V30 13107 H 1213.06 0.789008 0.247782 0
M  V30 13108 H 1215.61 1.67802 -0.25311 0
M  V30 13109 H 1214.38 3.90481 -0.253034 0
M  V30 13110 H 1214 3.70218 1.44997 0
M  V30 13111 N 1215 -0.0618163 1.57479 0
M  V30 13112 C 1215.96 -1.05684 2.0338 0
M  V30 13113 C 1216.96 -1.31006 0.932423 0
M  V30 13114 O 1218.15 -1.26559 1.19702 0
M  V30 13115 C 1215.28 -2.39805 2.42294 0
M  V30 13116 H 1216.48 -0.661006 2.92525 0
M  V30 13117 H 1214.03 -0.307814 1.53239 0
M  V30 13118 H 1214.76 -2.84201 1.56207 0
M  V30 13119 H 1214.55 -2.22764 3.22674 0
M  V30 13120 H 1216.04 -3.11307 2.78349 0
M  V30 13121 N 1216.48 -1.54033 -0.333429 0
M  V30 13122 C 1217.73 -1.70979 -1.07 0
M  V30 13123 C 1218.04 -0.485095 -1.89489 0
M  V30 13124 O 1219.24 -0.535712 -2.66162 0
M  V30 13125 C 1217.7 -3.02382 -1.95175 0
M  V30 13126 C 1217.31 -4.32223 -1.17844 0
M  V30 13127 C 1219.05 -3.28693 -2.68628 0
M  V30 13128 C 1216.96 -5.54693 -2.05109 0
M  V30 13129 H 1215.89 -0.637152 -0.403179 0
M  V30 13130 H 1218.54 -1.80529 -0.328839 0
M  V30 13131 H 1216.92 -2.86714 -2.73151 0
M  V30 13132 H 1218.1 -4.58626 -0.447089 0
M  V30 13133 H 1216.41 -4.12601 -0.561166 0
M  V30 13134 H 1219.01 -4.17385 -3.34207 0
M  V30 13135 H 1219.35 -2.46141 -3.35738 0
M  V30 13136 H 1219.88 -3.45183 -1.9772 0
M  V30 13137 H 1216.62 -6.39818 -1.42523 0
M  V30 13138 H 1216.14 -5.32524 -2.76005 0
M  V30 13139 H 1217.82 -5.90722 -2.63926 0
M  V30 13140 N 1217.95 0.594978 -1.45938 0
M  V30 13141 C 1219.19 1.36479 -1.52161 0
M  V30 13142 C 1219.56 1.91296 -0.164295 0
M  V30 13143 O 1220.76 2.68609 -0.101247 0
M  V30 13144 C 1219.03 2.47286 -2.5804 0
M  V30 13145 S 1220.59 3.34855 -2.8358 0
M  V30 13146 H 1217.41 0.465134 -0.537746 0
M  V30 13147 H 1220.01 0.685257 -1.83097 0
M  V30 13148 H 1218.71 2.05386 -3.5531 0
M  V30 13149 H 1218.24 3.20025 -2.28795 0
M  V30 13150 H 1220.26 4.45788 -2.17916 0
M  V30 13151 N 1219.43 1.33438 0.838571 0
M  V30 13152 C 1220.36 1.26344 1.96365 0
M  V30 13153 C 1221.34 0.143956 1.6949 0
M  V30 13154 O 1222.53 0.333779 1.9131 0
M  V30 13155 C 1219.66 1.0022 3.32526 0
M  V30 13156 C 1218.61 2.08466 3.73799 0
M  V30 13157 C 1217.94 1.67555 5.07769 0
M  V30 13158 C 1219.24 3.50144 3.87552 0
M  V30 13159 H 1220.93 2.20478 2.02558 0
M  V30 13160 H 1218.48 1.06139 0.973168 0
M  V30 13161 H 1220.43 0.939068 4.10803 0
M  V30 13162 H 1219.16 0.0252514 3.2659 0
M  V30 13163 H 1217.81 2.13822 2.97785 0
M  V30 13164 H 1217.46 0.685619 4.98305 0
M  V30 13165 H 1217.16 2.39993 5.36356 0
M  V30 13166 H 1218.69 1.62708 5.88522 0
M  V30 13167 H 1220.1 3.47287 4.56141 0
M  V30 13168 H 1218.5 4.21069 4.27575 0
M  V30 13169 H 1219.57 3.88628 2.89994 0
M  V30 13170 N 1220.91 -1.05686 1.16912 0
M  V30 13171 C 1221.84 -2.1329 0.839044 0
M  V30 13172 C 1222.86 -1.62047 -0.156392 0
M  V30 13173 O 1224.04 -1.78366 0.0692192 0
M  V30 13174 C 1221.14 -3.38122 0.229558 0
M  V30 13175 C 1220.32 -4.18659 1.26662 0
M  V30 13176 C 1219.38 -5.21842 0.675811 0
M  V30 13177 O 1218.4 -5.53049 1.3463 0
M  V30 13178 N 1219.6 -5.78034 -0.534532 0
M  V30 13179 H 1222.37 -2.42203 1.76515 0
M  V30 13180 H 1219.93 -1.2174 1.06729 0
M  V30 13181 H 1221.92 -4.04305 -0.178868 0
M  V30 13182 H 1220.49 -3.06783 -0.60023 0
M  V30 13183 H 1219.71 -3.4804 1.85099 0
M  V30 13184 H 1221 -4.6927 1.9663 0
M  V30 13185 H 1220.4 -5.54955 -1.09731 0
M  V30 13186 H 1218.96 -6.45763 -0.885087 0
M  V30 13187 N 1222.39 -0.968567 -1.24324 0
M  V30 13188 C 1223.32 -0.518323 -2.27674 0
M  V30 13189 C 1224.3 0.442479 -1.64244 0
M  V30 13190 O 1225.48 0.338416 -1.91229 0
M  V30 13191 C 1222.61 0.191459 -3.46772 0
M  V30 13192 C 1221.57 -0.685449 -4.22476 0
M  V30 13193 C 1220.89 0.155873 -5.34473 0
M  V30 13194 C 1222.19 -1.97047 -4.83704 0
M  V30 13195 H 1223.89 -1.38215 -2.65588 0
M  V30 13196 H 1221.43 -0.66604 -1.27671 0
M  V30 13197 H 1223.39 0.517667 -4.18208 0
M  V30 13198 H 1222.11 1.08965 -3.07887 0
M  V30 13199 H 1220.77 -0.994942 -3.52841 0
M  V30 13200 H 1220.42 1.05424 -4.91828 0
M  V30 13201 H 1220.12 -0.427655 -5.86042 0
M  V30 13202 H 1221.64 0.476733 -6.08736 0
M  V30 13203 H 1223.06 -1.70979 -5.4721 0
M  V30 13204 H 1221.45 -2.50079 -5.45509 0
M  V30 13205 H 1222.52 -2.66484 -4.0511 0
M  V30 13206 N 1223.87 1.39211 -0.738786 0
M  V30 13207 C 1225.1 2.04435 -0.298318 0
M  V30 13208 C 1225.5 1.55822 1.07314 0
M  V30 13209 O 1224.85 0.719922 1.69005 0
M  V30 13210 C 1224.91 3.58789 -0.225979 0
M  V30 13211 C 1224.57 4.30395 -1.53653 0
M  V30 13212 C 1225.57 4.56777 -2.48295 0
M  V30 13213 C 1223.26 4.68869 -1.80187 0
M  V30 13214 C 1225.25 5.20648 -3.67702 0
M  V30 13215 C 1222.94 5.32467 -2.99871 0
M  V30 13216 C 1223.93 5.58289 -3.93449 0
M  V30 13217 O 1223.62 6.20567 -5.1103 0
M  V30 13218 H 1223.35 0.663848 -0.127603 0
M  V30 13219 H 1225.91 1.79171 -1.00433 0
M  V30 13220 H 1224.14 3.82965 0.536164 0
M  V30 13221 H 1225.83 4.05487 0.182996 0
M  V30 13222 H 1226.59 4.27497 -2.29066 0
M  V30 13223 H 1222.47 4.48124 -1.08193 0
M  V30 13224 H 1226.02 5.4072 -4.40759 0
M  V30 13225 H 1221.91 5.61169 -3.18998 0
M  V30 13226 H 1222.68 6.39059 -5.11415 0
M  V30 13227 N 1225.34 0.486708 1.49896 0
M  V30 13228 C 1226.25 -0.304222 2.32619 0
M  V30 13229 C 1227.27 -0.981103 1.43702 0
M  V30 13230 O 1228.45 -0.965639 1.76741 0
M  V30 13231 C 1225.51 -1.36301 3.18783 0
M  V30 13232 C 1224.57 -0.701082 4.23537 0
M  V30 13233 C 1223.81 -1.70943 5.05583 0
M  V30 13234 O 1224.03 -2.93773 4.88931 0
M  V30 13235 O 1222.96 -1.27263 5.88292 0
M  V30 13236 H 1226.79 0.37248 3.01407 0
M  V30 13237 H 1224.37 0.248277 1.47323 0
M  V30 13238 H 1226.26 -1.97594 3.72202 0
M  V30 13239 H 1224.93 -2.0229 2.52706 0
M  V30 13240 H 1223.84 -0.0487926 3.74068 0
M  V30 13241 H 1225.17 -0.0838817 4.92129 0
M  V30 13242 N 1226.82 -1.56058 0.219941 0
M  V30 13243 C 1227.79 -2.18964 -0.677303 0
M  V30 13244 C 1228.79 -1.15105 -1.12283 0
M  V30 13245 O 1229.98 -1.40348 -1.03189 0
M  V30 13246 C 1227.11 -2.81167 -1.92764 0
M  V30 13247 H 1228.3 -2.99623 -0.128877 0
M  V30 13248 H 1225.85 -1.56272 -0.0296744 0
M  V30 13249 H 1226.59 -2.04374 -2.51797 0
M  V30 13250 H 1226.37 -3.5722 -1.61666 0
M  V30 13251 H 1227.86 -3.29391 -2.56693 0
M  V30 13252 N 1228.3 0.053464 -1.57509 0
M  V30 13253 C 1229.23 1.06151 -2.07977 0
M  V30 13254 C 1230.21 1.3924 -0.977047 0
M  V30 13255 O 1231.4 1.48549 -1.25087 0
M  V30 13256 C 1228.53 2.36969 -2.53895 0
M  V30 13257 C 1227.48 2.18186 -3.6821 0
M  V30 13258 C 1226.81 3.54551 -4.00247 0
M  V30 13259 C 1228.11 1.588 -4.97574 0
M  V30 13260 H 1229.8 0.641483 -2.92447 0
M  V30 13261 H 1227.35 0.307122 -1.40687 0
M  V30 13262 H 1229.3 3.07797 -2.87817 0
M  V30 13263 H 1228.02 2.80986 -1.66476 0
M  V30 13264 H 1226.68 1.49796 -3.34599 0
M  V30 13265 H 1226.33 3.96171 -3.09932 0
M  V30 13266 H 1226.03 3.42816 -4.77232 0
M  V30 13267 H 1227.56 4.2678 -4.36682 0
M  V30 13268 H 1228.97 2.19515 -5.29609 0
M  V30 13269 H 1227.37 1.57711 -5.79006 0
M  V30 13270 H 1228.44 0.551254 -4.81756 0
M  V30 13271 N 1229.78 1.54207 0.325255 0
M  V30 13272 C 1231.01 1.76293 1.08298 0
M  V30 13273 C 1231.42 0.510722 1.81761 0
M  V30 13274 O 1230.78 -0.5185 1.7498 0
M  V30 13275 C 1230.83 2.95498 2.08238 0
M  V30 13276 O 1230.55 4.15877 1.37759 0
M  V30 13277 C 1232.05 3.29781 2.96242 0
M  V30 13278 H 1229.27 0.588576 0.322209 0
M  V30 13279 H 1231.82 2.0109 0.371896 0
M  V30 13280 H 1229.97 2.72979 2.74884 0
M  V30 13281 H 1230.39 4.82918 2.04672 0
M  V30 13282 H 1231.86 4.16495 3.62265 0
M  V30 13283 H 1232.34 2.46874 3.63249 0
M  V30 13284 H 1232.94 3.54372 2.3516 0
M  V30 13285 N 1231.26 -0.58723 1.46251 0
M  V30 13286 C 1232.21 -1.69141 1.5289 0
M  V30 13287 C 1233.19 -1.56096 0.39024 0
M  V30 13288 O 1234.38 -1.65087 0.638373 0
M  V30 13289 C 1231.51 -3.07922 1.51785 0
M  V30 13290 C 1230.6 -3.2628 2.70928 0
M  V30 13291 N 1230.99 -3.14815 3.95885 0
M  V30 13292 C 1229.29 -3.57207 2.67056 0
M  V30 13293 C 1229.99 -3.35055 4.75514 0
M  V30 13294 N 1228.96 -3.59999 4.0731 0
M  V30 13295 H 1232.77 -1.588 2.47305 0
M  V30 13296 H 1230.28 -0.791124 1.41827 0
M  V30 13297 H 1232.28 -3.87164 1.54628 0
M  V30 13298 H 1230.94 -3.19397 0.584435 0
M  V30 13299 H 1231.95 -2.92778 4.27202 0
M  V30 13300 H 1228.63 -3.75394 1.82717 0
M  V30 13301 H 1230.02 -3.31412 5.84479 0
M  V30 13302 N 1232.74 -1.33881 -0.831482 0
M  V30 13303 C 1233.98 -1.25942 -1.58955 0
M  V30 13304 C 1234.31 0.172542 -1.93432 0
M  V30 13305 O 1233.59 1.11577 -1.59314 0
M  V30 13306 C 1233.87 -2.14193 -2.89471 0
M  V30 13307 C 1233.73 -3.65883 -2.61628 0
M  V30 13308 C 1235.04 -2.02071 -3.90967 0
M  V30 13309 H 1232.16 -0.458841 -0.576744 0
M  V30 13310 H 1234.81 -1.64052 -0.958482 0
M  V30 13311 H 1232.96 -1.81821 -3.43327 0
M  V30 13312 H 1234.63 -4.08581 -2.14148 0
M  V30 13313 H 1232.87 -3.87397 -1.95208 0
M  V30 13314 H 1233.54 -4.22988 -3.54662 0
M  V30 13315 H 1236.02 -2.30476 -3.46439 0
M  V30 13316 H 1234.89 -2.66059 -4.80108 0
M  V30 13317 H 1235.15 -0.995121 -4.30755 0
M  V30 13318 N 1234.21 1.05064 -1.1747 0
M  V30 13319 C 1235.44 1.82299 -0.98903 0
M  V30 13320 C 1235.86 1.82441 0.457907 0
M  V30 13321 O 1235.22 1.23433 1.32793 0
M  V30 13322 C 1235.27 3.26239 -1.53624 0
M  V30 13323 O 1234.37 4.05507 -0.750857 0
M  V30 13324 H 1233.71 0.563601 -0.35107 0
M  V30 13325 H 1236.24 1.32386 -1.55997 0
M  V30 13326 H 1236.25 3.77038 -1.55906 0
M  V30 13327 H 1234.93 3.25451 -2.58949 0
M  V30 13328 H 1233.51 3.64227 -0.799548 0
M  V30 13329 N 1235.69 0.975146 1.23809 0
M  V30 13330 C 1236.6 0.51917 2.28783 0
M  V30 13331 C 1237.62 -0.423487 1.68768 0
M  V30 13332 O 1238.79 -0.294699 1.99232 0
M  V30 13333 C 1235.86 -0.176229 3.46252 0
M  V30 13334 C 1234.92 0.807177 4.21643 0
M  V30 13335 C 1234.15 0.144869 5.33503 0
M  V30 13336 O 1234.38 -1.06522 5.60365 0
M  V30 13337 O 1233.31 0.84079 5.95999 0
M  V30 13338 H 1237.14 1.39204 2.69919 0
M  V30 13339 H 1234.72 0.74253 1.29641 0
M  V30 13340 H 1236.6 -0.566547 4.17574 0
M  V30 13341 H 1235.28 -1.02394 3.07078 0
M  V30 13342 H 1234.18 1.2481 3.52666 0
M  V30 13343 H 1235.52 1.62354 4.64653 0
M  V30 13344 N 1237.17 -1.38817 0.746158 0
M  V30 13345 C 1238.45 -1.94303 0.224841 0
M  V30 13346 C 1238.83 -1.68207 -1.27552 0
M  V30 13347 O 1238.17 -1.01647 -2.04646 0
M  V30 13348 C 1238.38 -3.44306 0.5705 0
M  V30 13349 C 1239.73 -4.21329 0.526015 0
M  V30 13350 O 1240.76 -3.52554 0.508351 0
M  V30 13351 O 1239.62 -5.4392 0.530383 0
M  V30 13352 H 1236.71 -0.825785 0.0448047 0
M  V30 13353 H 1239.26 -1.48253 0.825775 0
M  V30 13354 H 1238.03 -3.56779 1.60701 0
M  V30 13355 H 1237.65 -3.97556 -0.0588271 0
M  V30 13356 N 1238.65 -0.49465 -1.49636 0
M  V30 13357 C 1239.89 0.0505629 -2.04337 0
M  V30 13358 C 1240.25 1.34858 -1.36665 0
M  V30 13359 O 1241.45 1.97763 -1.82052 0
M  V30 13360 C 1239.72 0.206247 -3.56804 0
M  V30 13361 S 1241.28 0.706624 -4.33073 0
M  V30 13362 H 1238.1 0.00479193 -0.710984 0
M  V30 13363 H 1240.7 -0.667169 -1.83764 0
M  V30 13364 H 1239.41 -0.743862 -4.03602 0
M  V30 13365 H 1238.94 0.949406 -3.81772 0
M  V30 13366 H 1240.95 1.97672 -4.55127 0
M  V30 13367 N 1240.13 1.55939 -0.228214 0
M  V30 13368 C 1241.37 1.98476 0.401677 0
M  V30 13369 C 1241.7 1.116 1.59297 0
M  V30 13370 O 1240.96 0.162465 1.95024 0
M  V30 13371 C 1241.25 3.46581 0.872732 0
M  V30 13372 C 1240.92 4.50416 -0.208767 0
M  V30 13373 C 1239.58 4.78534 -0.505847 0
M  V30 13374 C 1241.93 5.12656 -0.939852 0
M  V30 13375 C 1239.26 5.66171 -1.53841 0
M  V30 13376 C 1241.61 6.01412 -1.9618 0
M  V30 13377 C 1240.28 6.2787 -2.26573 0
M  V30 13378 H 1239.55 0.726276 0.146984 0
M  V30 13379 H 1242.2 1.88598 -0.332128 0
M  V30 13380 H 1240.5 3.53696 1.68541 0
M  V30 13381 H 1242.2 3.76869 1.37006 0
M  V30 13382 H 1238.79 4.28587 0.0329308 0
M  V30 13383 H 1242.97 4.90997 -0.723581 0
M  V30 13384 H 1238.23 5.84933 -1.77944 0
M  V30 13385 H 1242.4 6.48688 -2.53332 0
M  V30 13386 H 1240.03 6.95574 -3.06725 0
M  V30 13387 N 1241.6 -0.0451101 1.57535 0
M  V30 13388 C 1243.02 -0.59372 1.77008 0
M  V30 13389 C 1243.37 -1.76482 0.857233 0
M  V30 13390 O 1242.49 -2.16347 0.0479703 0
M  V30 13391 C 1243.09 -1.08383 3.20996 0
M  V30 13392 C 1241.65 -1.57808 3.41721 0
M  V30 13393 C 1240.79 -0.509067 2.72587 0
M  V30 13394 H 1243.74 0.181114 1.57663 0
M  V30 13395 H 1243.76 -1.95181 3.26626 0
M  V30 13396 H 1243.28 -0.231276 3.8741 0
M  V30 13397 H 1241.38 -2.45302 2.8046 0
M  V30 13398 H 1241.49 -1.63664 4.50279 0
M  V30 13399 H 1239.85 -0.960389 2.359 0
M  V30 13400 H 1240.64 0.333753 3.41674 0
M  V30 13401 N 1243.08 -1.54377 -0.317073 0
M  V30 13402 C 1244.01 -1.8721 -1.39552 0
M  V30 13403 C 1244.99 -0.729483 -1.53664 0
M  V30 13404 O 1246.18 -0.983799 -1.67437 0
M  V30 13405 C 1243.31 -2.1052 -2.76222 0
M  V30 13406 C 1242.26 -3.26366 -2.76892 0
M  V30 13407 C 1241.59 -3.35061 -4.16699 0
M  V30 13408 C 1242.89 -4.63862 -2.40061 0
M  V30 13409 H 1244.58 -2.77532 -1.12323 0
M  V30 13410 H 1242.13 -1.33536 -0.538897 0
M  V30 13411 H 1244.08 -2.32073 -3.51739 0
M  V30 13412 H 1242.81 -1.16953 -3.04942 0
M  V30 13413 H 1241.46 -3.0471 -2.03831 0
M  V30 13414 H 1241.11 -2.39041 -4.4257 0
M  V30 13415 H 1240.81 -4.12923 -4.18053 0
M  V30 13416 H 1242.34 -3.58856 -4.94019 0
M  V30 13417 H 1243.75 -4.85252 -3.05292 0
M  V30 13418 H 1242.15 -5.44321 -2.52655 0
M  V30 13419 H 1243.22 -4.6567 -1.35202 0
M  V30 13420 N 1244.56 0.579466 -1.4656 0
M  V30 13421 C 1245.49 1.69846 -1.60233 0
M  V30 13422 C 1246.47 1.6397 -0.452533 0
M  V30 13423 O 1247.66 1.81936 -0.679174 0
M  V30 13424 C 1244.79 3.08488 -1.59538 0
M  V30 13425 C 1243.74 3.29197 -2.7352 0
M  V30 13426 C 1243.07 4.684 -2.57887 0
M  V30 13427 C 1244.37 3.16718 -4.15315 0
M  V30 13428 H 1246.06 1.5866 -2.53904 0
M  V30 13429 H 1243.61 0.761873 -1.22194 0
M  V30 13430 H 1245.56 3.86595 -1.67696 0
M  V30 13431 H 1244.28 3.20581 -0.62413 0
M  V30 13432 H 1242.94 2.53491 -2.64836 0
M  V30 13433 H 1242.59 4.77262 -1.58839 0
M  V30 13434 H 1242.29 4.83208 -3.34341 0
M  V30 13435 H 1243.81 5.48671 -2.67942 0
M  V30 13436 H 1245.23 3.84666 -4.25094 0
M  V30 13437 H 1243.63 3.43047 -4.92381 0
M  V30 13438 H 1244.7 2.13755 -4.35244 0
M  V30 13439 N 1246.04 1.3432 0.824371 0
M  V30 13440 C 1247.32 1.17178 1.56616 0
M  V30 13441 C 1247.7 -0.256195 2.0954 0
M  V30 13442 O 1247.04 -1.25732 1.90798 0
M  V30 13443 C 1247.25 2.22511 2.68867 0
M  V30 13444 C 1248.6 2.57414 3.37673 0
M  V30 13445 O 1249.63 2.2129 2.79122 0
M  V30 13446 O 1248.48 3.19462 4.43403 0
M  V30 13447 H 1245.58 0.454141 0.691147 0
M  V30 13448 H 1248.12 1.45948 0.865869 0
M  V30 13449 H 1246.9 3.18366 2.27505 0
M  V30 13450 H 1246.52 1.9491 3.46548 0
M  V30 13451 N 1247.52 -1.0444 1.18026 0
M  V30 13452 C 1248.76 -1.77224 0.971391 0
M  V30 13453 C 1249.09 -1.88466 -0.500564 0
M  V30 13454 O 1248.36 -1.40692 -1.36317 0
M  V30 13455 H 1246.94 -0.656485 0.356422 0
M  V30 13456 H 1249.6 -1.26064 1.4864 0
M  V30 13457 H 1248.69 -2.78626 1.4062 0
M  V30 13458 N 1248.99 -0.981699 -1.2329 0
M  V30 13459 C 1250.23 -0.659348 -1.93473 0
M  V30 13460 C 1250.6 0.792616 -1.74876 0
M  V30 13461 O 1251.8 1.22586 -2.3922 0
M  V30 13462 C 1250.07 -1.04065 -3.41914 0
M  V30 13463 S 1251.63 -0.834964 -4.30783 0
M  V30 13464 H 1248.45 -0.241428 -0.668755 0
M  V30 13465 H 1251.05 -1.26161 -1.49344 0
M  V30 13466 H 1249.75 -2.09398 -3.5296 0
M  V30 13467 H 1249.28 -0.429721 -3.91046 0
M  V30 13468 H 1251.3 0.280447 -4.95407 0
M  V30 13469 N 1250.47 1.3842 -0.753509 0
M  V30 13470 C 1251.89 1.53668 -0.431095 0
M  V30 13471 C 1252.09 1.71626 1.05578 0
M  V30 13472 O 1251.14 1.72723 1.84182 0
M  V30 13473 C 1252.46 2.74381 -1.23027 0
M  V30 13474 C 1254.01 2.8823 -1.22034 0
M  V30 13475 C 1254.48 4.11904 -2.00248 0
M  V30 13476 N 1255.97 4.18981 -1.97508 0
M  V30 13477 C 1256.71 5.13667 -2.5482 0
M  V30 13478 N 1256.2 6.14027 -3.20846 0
M  V30 13479 N 1258 5.06017 -2.44751 0
M  V30 13480 H 1250.15 1.25012 -1.71714 0
M  V30 13481 H 1252.41 0.607296 -0.727939 0
M  V30 13482 H 1252.12 2.67515 -2.28317 0
M  V30 13483 H 1251.99 3.67565 -0.847098 0
M  V30 13484 H 1254.38 2.94578 -0.175502 0
M  V30 13485 H 1254.46 1.96057 -1.64303 0
M  V30 13486 H 1254.1 4.06318 -3.04742 0
M  V30 13487 H 1254.03 5.03157 -1.55373 0
M  V30 13488 H 1256.52 3.47104 -1.49423 0
M  V30 13489 H 1256.84 6.82771 -3.61999 0
M  V30 13490 H 1255.18 6.1436 -3.24941 0
M  V30 13491 H 1258.37 4.26552 -1.92797 0
M  V30 13492 H 1258.54 5.7963 -2.89713 0
M  V30 13493 N 1251.95 0.502579 1.49372 0
M  V30 13494 C 1252.9 -0.275004 2.29156 0
M  V30 13495 C 1253.87 -0.95892 1.35624 0
M  V30 13496 O 1255.05 -0.965276 1.64581 0
M  V30 13497 C 1252.19 -1.33255 3.18335 0
M  V30 13498 C 1251.31 -0.660248 4.26925 0
M  V30 13499 C 1250.44 -1.69837 5.03318 0
M  V30 13500 C 1249.48 -1.00802 6.03743 0
M  V30 13501 N 1248.62 -1.99042 6.73295 0
M  V30 13502 H 1253.46 0.411599 2.95144 0
M  V30 13503 H 1250.99 0.214824 1.45523 0
M  V30 13504 H 1252.95 -1.95769 3.68416 0
M  V30 13505 H 1251.58 -1.98789 2.54328 0
M  V30 13506 H 1250.63 0.0782181 3.8032 0
M  V30 13507 H 1251.95 -0.11689 4.98663 0
M  V30 13508 H 1251.1 -2.39852 5.57275 0
M  V30 13509 H 1249.84 -2.27558 4.31357 0
M  V30 13510 H 1248.84 -0.293654 5.49015 0
M  V30 13511 H 1250.07 -0.437285 6.77691 0
M  V30 13512 H 1248.01 -2.55722 6.04104 0
M  V30 13513 H 1247.93 -1.49776 7.41015 0
M  V30 13514 H 1249.2 -2.6834 7.31856 0
M  V30 13515 N 1253.43 -1.55816 0.23648 0
M  V30 13516 C 1254.38 -2.22322 -0.68378 0
M  V30 13517 C 1255.37 -1.2074 -1.1882 0
M  V30 13518 O 1256.58 -1.38781 -1.14629 0
M  V30 13519 H 1252.95 -0.713021 -0.238966 0
M  V30 13520 H 1254.92 -2.98234 -0.0995879 0
M  V30 13521 C 1253.67 -2.92845 -1.87449 0
M  V30 13522 H 1252.99 -3.70777 -1.49548 0
M  V30 13523 H 1254.43 -3.42758 -2.49585 0
M  V30 13524 C 1252.89 -1.96139 -2.73918 0
M  V30 13525 O 1253.42 -1.48781 -3.73132 0
M  V30 13526 N 1251.63 -1.63465 -2.40266 0
M  V30 13527 H 1251.18 -2.02171 -1.59639 0
M  V30 13528 H 1251.13 -0.990239 -2.98398 0
M  V30 13529 N 1254.91 0.036755 -1.57557 0
M  V30 13530 C 1256.32 0.392264 -1.54704 0
M  V30 13531 C 1256.52 1.77076 -0.96157 0
M  V30 13532 O 1255.58 2.45766 -0.579263 0
M  V30 13533 C 1256.89 0.301168 -2.99188 0
M  V30 13534 C 1258.44 0.378813 -3.10699 0
M  V30 13535 C 1258.91 0.317249 -4.569 0
M  V30 13536 N 1260.41 0.376277 -4.61669 0
M  V30 13537 C 1261.14 0.351411 -5.72322 0
M  V30 13538 N 1260.64 0.279288 -6.92237 0
M  V30 13539 N 1262.43 0.400571 -5.60671 0
M  V30 13540 H 1254.58 -0.865455 -1.93968 0
M  V30 13541 H 1256.84 -0.328339 -0.889324 0
M  V30 13542 H 1256.55 -0.64582 -3.4572 0
M  V30 13543 H 1256.42 1.09784 -3.6087 0
M  V30 13544 H 1258.81 1.31623 -2.6412 0
M  V30 13545 H 1258.89 -0.447072 -2.51863 0
M  V30 13546 H 1258.54 -0.616469 -5.04145 0
M  V30 13547 H 1258.47 1.16114 -5.13639 0
M  V30 13548 H 1260.96 0.434843 -3.7539 0
M  V30 13549 H 1261.27 0.265202 -7.72345 0
M  V30 13550 H 1259.61 0.24545 -6.94566 0
M  V30 13551 H 1262.81 0.454854 -4.65885 0
M  V30 13552 H 1262.98 0.377724 -6.46898 0
M  V30 13553 N 1256.39 1.54543 0.308881 0
M  V30 13554 C 1257.32 1.81309 1.40212 0
M  V30 13555 C 1258.33 0.69568 1.47187 0
M  V30 13556 O 1259.52 0.973034 1.49647 0
M  V30 13557 C 1256.62 1.92901 2.78644 0
M  V30 13558 C 1255.79 3.23222 2.94697 0
M  V30 13559 C 1254.85 3.25329 4.13579 0
M  V30 13560 O 1253.88 3.989 4.06039 0
M  V30 13561 N 1255.08 2.50158 5.23833 0
M  V30 13562 H 1257.84 2.75659 1.1761 0
M  V30 13563 H 1255.41 1.54021 0.498925 0
M  V30 13564 H 1257.4 1.91721 3.56406 0
M  V30 13565 H 1255.97 1.05582 2.9423 0
M  V30 13566 H 1255.19 3.37241 2.04113 0
M  V30 13567 H 1256.48 4.09238 3.02328 0
M  V30 13568 H 1255.87 1.90002 5.32838 0
M  V30 13569 H 1254.43 2.5474 5.99959 0
M  V30 13570 N 1257.86 -0.571685 1.46866 0
M  V30 13571 C 1258.81 -1.67992 1.58263 0
M  V30 13572 C 1259.78 -1.60535 0.426345 0
M  V30 13573 O 1260.97 -1.79584 0.644534 0
M  V30 13574 C 1258.11 -3.06327 1.58927 0
M  V30 13575 C 1257.22 -3.24328 2.85369 0
M  V30 13576 C 1256.35 -4.52976 2.77464 0
M  V30 13577 C 1255.39 -4.64359 3.98795 0
M  V30 13578 N 1254.53 -5.84345 3.89211 0
M  V30 13579 H 1259.37 -1.57589 2.52922 0
M  V30 13580 H 1256.91 -0.767883 1.25467 0
M  V30 13581 H 1258.86 -3.86411 1.57296 0
M  V30 13582 H 1257.49 -3.15601 0.677912 0
M  V30 13583 H 1256.55 -2.37774 2.96931 0
M  V30 13584 H 1257.86 -3.28605 3.7526 0
M  V30 13585 H 1257.01 -5.41303 2.74001 0
M  V30 13586 H 1255.75 -4.51155 1.85231 0
M  V30 13587 H 1254.76 -3.74448 4.02578 0
M  V30 13588 H 1255.98 -4.6795 4.92137 0
M  V30 13589 H 1253.93 -5.835 2.99772 0
M  V30 13590 H 1253.84 -5.89938 4.72768 0
M  V30 13591 H 1255.11 -6.75072 3.89741 0
M  V30 13592 N 1259.34 -1.34755 -0.817236 0
M  V30 13593 C 1260.59 -1.28629 -1.57563 0
M  V30 13594 C 1260.94 0.141015 -1.91883 0
M  V30 13595 O 1260.24 1.08874 -1.57661 0
M  V30 13596 C 1260.43 -2.11611 -2.8802 0
M  V30 13597 C 1260.26 -3.62266 -2.66446 0
M  V30 13598 C 1259.03 -4.3153 -2.62887 0
M  V30 13599 C 1261.23 -4.56145 -2.37564 0
M  V30 13600 N 1259.21 -5.67999 -2.32918 0
M  V30 13601 C 1260.58 -5.80658 -2.17339 0
M  V30 13602 C 1262.63 -4.44999 -2.23339 0
M  V30 13603 C 1261.34 -6.9528 -1.8433 0
M  V30 13604 C 1263.36 -5.5946 -1.91726 0
M  V30 13605 C 1262.73 -6.82995 -1.72329 0
M  V30 13606 H 1258.82 -0.52593 -0.578724 0
M  V30 13607 H 1261.41 -1.69527 -0.957533 0
M  V30 13608 H 1259.58 -1.73 -3.47743 0
M  V30 13609 H 1261.31 -1.97085 -3.53468 0
M  V30 13610 H 1258.07 -3.84029 -2.77162 0
M  V30 13611 H 1258.49 -6.39996 -2.20757 0
M  V30 13612 H 1263.13 -3.50104 -2.37037 0
M  V30 13613 H 1260.85 -7.90152 -1.69369 0
M  V30 13614 H 1264.44 -5.52784 -1.81443 0
M  V30 13615 H 1263.32 -7.70065 -1.48222 0
M  V30 13616 N 1260.82 1.03812 -1.18578 0
M  V30 13617 C 1261.75 2.11928 -0.872871 0
M  V30 13618 C 1262.76 1.62275 0.130592 0
M  V30 13619 O 1263.95 1.78233 -0.0975869 0
M  V30 13620 C 1261.05 3.37714 -0.283321 0
M  V30 13621 C 1260.23 4.16591 -1.33307 0
M  V30 13622 C 1259.29 5.20701 -0.758746 0
M  V30 13623 O 1258.31 5.50837 -1.43412 0
M  V30 13624 N 1259.51 5.78811 0.442505 0
M  V30 13625 H 1262.28 2.39364 -1.80346 0
M  V30 13626 H 1259.84 1.20027 -1.08652 0
M  V30 13627 H 1261.83 4.04538 0.114524 0
M  V30 13628 H 1260.4 3.07699 0.551347 0
M  V30 13629 H 1259.62 3.45051 -1.90613 0
M  V30 13630 H 1260.91 4.66082 -2.04071 0
M  V30 13631 H 1260.31 5.56631 1.00889 0
M  V30 13632 H 1258.86 6.47089 0.78224 0
M  V30 13633 N 1262.3 0.988223 1.22768 0
M  V30 13634 C 1263.26 0.539813 2.22752 0
M  V30 13635 C 1264.26 -0.374796 1.56371 0
M  V30 13636 O 1265.45 -0.167402 1.73394 0
M  V30 13637 C 1262.58 -0.215461 3.40218 0
M  V30 13638 H 1263.78 1.42397 2.63938 0
M  V30 13639 H 1261.33 0.774933 1.35737 0
M  V30 13640 H 1262.06 -1.11581 3.045 0
M  V30 13641 H 1261.85 0.441173 3.8961 0
M  V30 13642 H 1263.34 -0.517517 4.14381 0
M  V30 13643 N 1263.78 -1.38018 0.760839 0
M  V30 13644 C 1264.71 -2.32995 0.153557 0
M  V30 13645 C 1265.69 -1.55234 -0.695448 0
M  V30 13646 O 1266.87 -1.8352 -0.635148 0
M  V30 13647 C 1264 -3.39437 -0.734811 0
M  V30 13648 C 1262.96 -4.27998 0.0120287 0
M  V30 13649 C 1262.28 -5.25359 -0.995067 0
M  V30 13650 C 1263.58 -5.08687 1.18468 0
M  V30 13651 H 1265.28 -2.8403 0.946956 0
M  V30 13652 H 1262.82 -1.36562 0.456816 0
M  V30 13653 H 1264.77 -4.0485 -1.16938 0
M  V30 13654 H 1263.5 -2.86901 -1.56061 0
M  V30 13655 H 1262.16 -3.64102 0.427254 0
M  V30 13656 H 1261.81 -4.69108 -1.81512 0
M  V30 13657 H 1261.51 -5.85469 -0.499969 0
M  V30 13658 H 1263.03 -5.93648 -1.4288 0
M  V30 13659 H 1264.44 -5.67299 0.8273 0
M  V30 13660 H 1262.84 -5.78068 1.61112 0
M  V30 13661 H 1263.91 -4.42 1.99409 0
M  V30 13662 N 1265.25 -0.510493 -1.49103 0
M  V30 13663 C 1266.22 0.251915 -2.27811 0
M  V30 13664 C 1267.22 0.885432 -1.34226 0
M  V30 13665 O 1268.41 0.748494 -1.573 0
M  V30 13666 C 1265.54 1.3624 -3.12492 0
M  V30 13667 H 1266.73 -0.438872 -2.96671 0
M  V30 13668 H 1264.28 -0.265767 -1.54024 0
M  V30 13669 H 1265.02 2.08705 -2.48219 0
M  V30 13670 H 1264.8 0.913485 -3.81311 0
M  V30 13671 H 1266.29 1.89919 -3.71915 0
M  V30 13672 N 1266.73 1.55688 -0.24474 0
M  V30 13673 C 1267.64 2.24933 0.666519 0
M  V30 13674 C 1268.66 1.26471 1.19503 0
M  V30 13675 O 1269.83 1.59342 1.23176 0
M  V30 13676 C 1266.9 2.9336 1.84772 0
M  V30 13677 C 1265.96 4.07225 1.35889 0
M  V30 13678 C 1265.19 4.72381 2.48379 0
M  V30 13679 O 1265.42 4.36605 3.67059 0
M  V30 13680 O 1264.35 5.60933 2.18261 0
M  V30 13681 H 1268.18 3.03513 0.106507 0
M  V30 13682 H 1265.76 1.49394 -0.0133309 0
M  V30 13683 H 1267.64 3.36468 2.53708 0
M  V30 13684 H 1266.32 2.17721 2.39539 0
M  V30 13685 H 1265.22 3.68639 0.636881 0
M  V30 13686 H 1266.56 4.84676 0.857333 0
M  V30 13687 N 1268.21 -0.0283989 1.57574 0
M  V30 13688 C 1269.14 -1.05641 2.03403 0
M  V30 13689 C 1270.15 -1.32426 0.946953 0
M  V30 13690 O 1271.34 -1.29902 1.22425 0
M  V30 13691 C 1268.44 -2.39788 2.39489 0
M  V30 13692 C 1267.62 -2.32348 3.70585 0
M  V30 13693 C 1266.68 -3.4895 3.93853 0
M  V30 13694 O 1265.7 -3.28414 4.64901 0
M  V30 13695 N 1266.9 -4.7084 3.39543 0
M  V30 13696 H 1269.67 -0.665788 2.92211 0
M  V30 13697 H 1267.23 -0.21633 1.60448 0
M  V30 13698 H 1269.22 -3.16514 2.52193 0
M  V30 13699 H 1267.79 -2.70692 1.56348 0
M  V30 13700 H 1267.01 -1.40717 3.68229 0
M  V30 13701 H 1268.3 -2.24521 4.56582 0
M  V30 13702 H 1267.7 -4.90425 2.81956 0
M  V30 13703 H 1266.25 -5.44929 3.57625 0
M  V30 13704 N 1269.69 -1.54705 -0.300681 0
M  V30 13705 C 1270.62 -1.8205 -1.39249 0
M  V30 13706 C 1271.63 -0.703476 -1.46816 0
M  V30 13707 O 1272.82 -0.980957 -1.49129 0
M  V30 13708 C 1269.92 -1.94376 -2.77617 0
M  V30 13709 C 1269.09 -3.2478 -2.92979 0
M  V30 13710 C 1268.15 -3.27518 -4.11848 0
M  V30 13711 O 1267.18 -4.01047 -4.03918 0
M  V30 13712 N 1268.38 -2.52932 -5.22499 0
M  V30 13713 H 1271.15 -2.76279 -1.16146 0
M  V30 13714 H 1268.71 -1.54283 -0.49075 0
M  V30 13715 H 1270.7 -1.93609 -3.55384 0
M  V30 13716 H 1269.27 -1.07141 -2.93666 0
M  V30 13717 H 1268.49 -3.38319 -2.02322 0
M  V30 13718 H 1269.78 -4.10835 -3.00153 0
M  V30 13719 H 1269.18 -1.92825 -5.31822 0
M  V30 13720 H 1267.73 -2.57919 -5.98599 0
M  V30 13721 N 1271.17 0.563888 -1.47167 0
M  V30 13722 C 1272.08 1.69903 -1.61772 0
M  V30 13723 C 1273.09 1.6664 -0.500705 0
M  V30 13724 O 1274.27 1.86209 -0.767354 0
M  V30 13725 C 1271.33 3.06411 -1.62213 0
M  V30 13726 C 1270.39 3.20793 -2.8529 0
M  V30 13727 C 1269.63 4.50789 -2.85701 0
M  V30 13728 O 1269.85 5.3584 -1.95529 0
M  V30 13729 O 1268.78 4.68819 -3.77481 0
M  V30 13730 H 1272.61 1.60525 -2.57809 0
M  V30 13731 H 1270.2 0.733125 -1.30175 0
M  V30 13732 H 1272.08 3.87659 -1.65221 0
M  V30 13733 H 1270.75 3.16186 -0.693415 0
M  V30 13734 H 1269.66 2.38967 -2.87829 0
M  V30 13735 H 1270.99 3.15918 -3.77434 0
M  V30 13736 N 1272.64 1.35187 0.810078 0
M  V30 13737 C 1273.59 1.27822 1.92173 0
M  V30 13738 C 1274.56 0.150851 1.65414 0
M  V30 13739 O 1275.75 0.333973 1.87854 0
M  V30 13740 C 1272.89 1.05258 3.28656 0
M  V30 13741 C 1272 2.26884 3.67624 0
M  V30 13742 C 1271.13 1.97499 4.9312 0
M  V30 13743 C 1270.17 3.15198 5.24706 0
M  V30 13744 N 1269.31 2.85612 6.41381 0
M  V30 13745 H 1274.15 2.22884 1.97804 0
M  V30 13746 H 1271.69 1.10799 0.967577 0
M  V30 13747 H 1273.65 0.902084 4.07331 0
M  V30 13748 H 1272.28 0.138583 3.22502 0
M  V30 13749 H 1271.33 2.5281 2.84238 0
M  V30 13750 H 1272.64 3.14783 3.86928 0
M  V30 13751 H 1271.79 1.7926 5.79613 0
M  V30 13752 H 1270.53 1.0688 4.75844 0
M  V30 13753 H 1269.54 3.34019 4.36705 0
M  V30 13754 H 1270.76 4.06614 5.43913 0
M  V30 13755 H 1268.71 1.97583 6.25537 0
M  V30 13756 H 1268.63 3.67044 6.60919 0
M  V30 13757 H 1269.89 2.70906 7.3091 0
M  V30 13758 N 1274.12 -1.03182 1.19127 0
M  V30 13759 C 1275.06 -2.10977 0.869702 0
M  V30 13760 C 1276.03 -1.61687 -0.172032 0
M  V30 13761 O 1277.22 -1.88436 -0.0490025 0
M  V30 13762 C 1274.34 -3.37359 0.301049 0
M  V30 13763 C 1273.39 -4.05515 1.32137 0
M  V30 13764 S 1274.22 -4.51415 2.88071 0
M  V30 13765 C 1275.38 -5.81018 2.32741 0
M  V30 13766 H 1275.61 -2.37929 1.78261 0
M  V30 13767 H 1273.15 -1.16079 1.01809 0
M  V30 13768 H 1275.1 -4.10495 -0.0205205 0
M  V30 13769 H 1273.76 -3.08507 -0.590118 0
M  V30 13770 H 1272.96 -4.9639 0.872547 0
M  V30 13771 H 1272.56 -3.38536 1.58963 0
M  V30 13772 H 1274.85 -6.5542 1.71552 0
M  V30 13773 H 1275.79 -6.30677 3.21951 0
M  V30 13774 H 1276.2 -5.36549 1.75429 0
M  V30 13775 N 1275.6 -0.99472 -1.22242 0
M  V30 13776 C 1276.53 -0.566499 -2.26524 0
M  V30 13777 C 1277.51 0.407541 -1.65146 0
M  V30 13778 O 1278.7 0.297777 -1.91903 0
M  V30 13779 C 1275.83 0.11786 -3.471 0
M  V30 13780 C 1274.78 -0.774908 -4.20927 0
M  V30 13781 C 1274.11 0.0424687 -5.34683 0
M  V30 13782 C 1275.41 -2.07263 -4.79416 0
M  V30 13783 H 1277.1 -1.43818 -2.62596 0
M  V30 13784 H 1274.65 -0.692971 -1.2623 0
M  V30 13785 H 1276.6 0.428842 -4.19212 0
M  V30 13786 H 1275.32 1.0241 -3.10129 0
M  V30 13787 H 1273.98 -1.06956 -3.50651 0
M  V30 13788 H 1273.63 0.949677 -4.93954 0
M  V30 13789 H 1273.33 -0.551867 -5.85003 0
M  V30 13790 H 1274.85 0.347504 -6.0961 0
M  V30 13791 H 1276.27 -1.82548 -5.4346 0
M  V30 13792 H 1274.67 -2.61594 -5.40082 0
M  V30 13793 H 1275.74 -2.75017 -3.99366 0
M  V30 13794 N 1277.08 1.37613 -0.768148 0
M  V30 13795 C 1278.33 1.99023 -0.327543 0
M  V30 13796 C 1278.64 1.61669 1.10103 0
M  V30 13797 O 1279.85 2.16155 1.64284 0
M  V30 13798 C 1278.3 3.55906 -0.534674 0
M  V30 13799 C 1277.91 4.02201 -1.97327 0
M  V30 13800 C 1279.65 4.24208 -0.157512 0
M  V30 13801 C 1277.56 5.51781 -2.12819 0
M  V30 13802 H 1276.49 0.744595 -0.118722 0
M  V30 13803 H 1279.14 1.5719 -0.946764 0
M  V30 13804 H 1277.52 3.95701 0.153951 0
M  V30 13805 H 1278.7 3.73661 -2.69655 0
M  V30 13806 H 1277.01 3.46671 -2.30669 0
M  V30 13807 H 1279.61 5.34107 -0.251824 0
M  V30 13808 H 1279.95 4.06636 0.89177 0
M  V30 13809 H 1280.49 3.89703 -0.798546 0
M  V30 13810 H 1277.23 5.74274 -3.16053 0
M  V30 13811 H 1276.75 5.82017 -1.4497 0
M  V30 13812 H 1278.42 6.17697 -1.92508 0
M  V30 13813 N 1278.56 0.518393 1.4883 0
M  V30 13814 C 1279.5 -0.264197 2.31095 0
M  V30 13815 C 1280.5 -0.946455 1.40494 0
M  V30 13816 O 1281.7 -0.872161 1.57459 0
M  V30 13817 H 1278.08 -0.104065 0.744765 0
M  V30 13818 H 1280.05 0.449375 2.94997 0
M  V30 13819 C 1278.8 -1.30527 3.2227 0
M  V30 13820 H 1278.12 -0.789695 3.91923 0
M  V30 13821 H 1279.56 -1.82449 3.82738 0
M  V30 13822 C 1278.02 -2.33274 2.43073 0
M  V30 13823 O 1278.55 -3.39493 2.14726 0
M  V30 13824 N 1276.76 -2.06189 2.04779 0
M  V30 13825 H 1276.3 -1.19829 2.28033 0
M  V30 13826 H 1276.26 -2.7516 1.521 0
M  V30 13827 N 1280.03 -1.55556 0.252993 0
M  V30 13828 C 1281.28 -1.98697 -0.369319 0
M  V30 13829 C 1281.6 -1.14256 -1.58021 0
M  V30 13830 O 1280.87 -0.226779 -1.94583 0
M  V30 13831 H 1279.45 -0.733869 -0.139444 0
M  V30 13832 H 1282.12 -1.91673 0.353197 0
M  V30 13833 H 1281.21 -3.04728 -0.674312 0
M  V30 13834 N 1281.51 0.0200419 -1.57587 0
M  V30 13835 C 1282.42 1.0346 -2.10555 0
M  V30 13836 C 1283.44 1.39035 -1.0462 0
M  V30 13837 O 1284.61 1.48172 -1.36407 0
M  V30 13838 C 1281.68 2.31389 -2.58186 0
M  V30 13839 C 1280.74 2.02311 -3.7864 0
M  V30 13840 C 1279.97 3.24141 -4.23991 0
M  V30 13841 O 1280.2 4.35132 -3.68803 0
M  V30 13842 O 1279.13 3.09312 -5.16342 0
M  V30 13843 H 1282.96 0.614419 -2.9742 0
M  V30 13844 H 1280.54 0.237604 -1.47498 0
M  V30 13845 H 1282.42 3.06582 -2.89112 0
M  V30 13846 H 1281.1 2.72684 -1.74428 0
M  V30 13847 H 1280.01 1.24658 -3.5272 0
M  V30 13848 H 1281.34 1.65866 -4.6341 0
M  V30 13849 N 1282.99 1.54862 0.292472 0
M  V30 13850 C 1284.22 1.78877 1.04966 0
M  V30 13851 C 1284.64 0.550724 1.79857 0
M  V30 13852 O 1284 -0.499054 1.74296 0
M  V30 13853 C 1284.05 3.00106 1.99922 0
M  V30 13854 O 1283.15 2.73827 3.0837 0
M  V30 13855 H 1282.49 0.591802 0.301108 0
M  V30 13856 H 1285.02 2.01965 0.3273 0
M  V30 13857 H 1285.03 3.28309 2.42233 0
M  V30 13858 H 1283.71 3.89872 1.44821 0
M  V30 13859 H 1282.28 2.56665 2.70513 0
M  V30 13860 N 1284.47 -0.556076 1.47464 0
M  V30 13861 C 1285.72 -1.31061 1.53842 0
M  V30 13862 C 1286.04 -1.93943 0.202806 0
M  V30 13863 O 1285.31 -1.7999 -0.773338 0
M  V30 13864 H 1283.89 -0.486696 0.566689 0
M  V30 13865 H 1286.55 -0.64924 1.83769 0
M  V30 13866 H 1285.65 -2.10354 2.30559 0
M  V30 13867 N 1285.95 -1.35615 -0.802897 0
M  V30 13868 C 1286.88 -1.24695 -1.92312 0
M  V30 13869 C 1287.89 -0.169409 -1.61916 0
M  V30 13870 O 1289.08 -0.422995 -1.73416 0
M  V30 13871 C 1286.18 -0.898229 -3.2678 0
M  V30 13872 C 1285.35 -2.07489 -3.85054 0
M  V30 13873 C 1284.41 -1.70137 -4.97936 0
M  V30 13874 O 1283.44 -2.42057 -5.15167 0
M  V30 13875 N 1284.64 -0.627153 -5.77102 0
M  V30 13876 H 1287.41 -2.21208 -2.02205 0
M  V30 13877 H 1284.97 -1.28832 -0.980503 0
M  V30 13878 H 1286.96 -0.629766 -3.9977 0
M  V30 13879 H 1285.53 -0.0226571 -3.12592 0
M  V30 13880 H 1284.75 -2.50694 -3.04214 0
M  V30 13881 H 1286.04 -2.86133 -4.2072 0
M  V30 13882 H 1285.44 -0.0296879 -5.65692 0
M  V30 13883 H 1283.99 -0.41848 -6.50455 0
M  V30 13884 N 1287.43 1.02549 -1.19673 0
M  V30 13885 C 1288.39 2.09064 -0.939407 0
M  V30 13886 C 1289.39 1.60593 0.0814837 0
M  V30 13887 O 1290.58 1.73521 -0.153626 0
M  V30 13888 C 1287.71 3.38395 -0.412513 0
M  V30 13889 H 1288.9 2.33325 -1.88413 0
M  V30 13890 H 1286.46 1.19211 -1.01086 0
M  V30 13891 H 1287.19 3.19805 0.538094 0
M  V30 13892 H 1286.98 3.74898 -1.14863 0
M  V30 13893 H 1288.47 4.16841 -0.251678 0
M  V30 13894 N 1288.9 1.00119 1.21713 0
M  V30 13895 C 1289.85 0.558388 2.23943 0
M  V30 13896 C 1290.82 -0.413576 1.60869 0
M  V30 13897 O 1292.01 -0.316478 1.88157 0
M  V30 13898 C 1289.15 -0.112618 3.44916 0
M  V30 13899 C 1288.26 0.902071 4.22477 0
M  V30 13900 C 1287.39 0.203722 5.30809 0
M  V30 13901 C 1286.43 1.20622 6.00097 0
M  V30 13902 N 1285.57 0.535607 7.00054 0
M  V30 13903 H 1290.41 1.43486 2.61182 0
M  V30 13904 H 1287.95 0.718572 1.28355 0
M  V30 13905 H 1289.9 -0.51865 4.13964 0
M  V30 13906 H 1288.53 -0.952827 3.08417 0
M  V30 13907 H 1287.59 1.42637 3.52645 0
M  V30 13908 H 1288.9 1.66513 4.70186 0
M  V30 13909 H 1288.05 -0.258614 6.06149 0
M  V30 13910 H 1286.79 -0.591773 4.84096 0
M  V30 13911 H 1285.8 1.6791 5.23532 0
M  V30 13912 H 1287.02 2.00273 6.48897 0
M  V30 13913 H 1284.97 -0.2403 6.5556 0
M  V30 13914 H 1284.88 1.23698 7.45812 0
M  V30 13915 H 1286.15 0.0963489 7.7944 0
M  V30 13916 N 1290.38 -1.37203 0.775435 0
M  V30 13917 C 1291.8 -1.52962 0.455488 0
M  V30 13918 C 1292 -1.73284 -1.02834 0
M  V30 13919 O 1291.05 -1.75631 -1.81411 0
M  V30 13920 C 1292.37 -2.72389 1.27377 0
M  V30 13921 C 1293.91 -2.86252 1.26604 0
M  V30 13922 C 1294.39 -4.08666 2.06775 0
M  V30 13923 N 1295.88 -4.15786 2.04148 0
M  V30 13924 C 1296.62 -5.09548 2.6296 0
M  V30 13925 N 1296.11 -6.08845 3.30574 0
M  V30 13926 N 1297.9 -5.02059 2.5277 0
M  V30 13927 H 1290.06 -1.22265 1.73681 0
M  V30 13928 H 1292.32 -0.595638 0.737509 0
M  V30 13929 H 1292.02 -2.63849 2.32544 0
M  V30 13930 H 1291.9 -3.66171 0.905467 0
M  V30 13931 H 1294.29 -2.94261 0.222345 0
M  V30 13932 H 1294.37 -1.93418 1.67401 0
M  V30 13933 H 1294.01 -4.01419 3.11168 0
M  V30 13934 H 1293.94 -5.00621 1.63358 0
M  V30 13935 H 1296.43 -3.44683 1.54926 0
M  V30 13936 H 1296.74 -6.76926 3.72815 0
M  V30 13937 H 1295.09 -6.09113 3.34674 0
M  V30 13938 H 1298.28 -4.23431 1.99559 0
M  V30 13939 H 1298.45 -5.74947 2.98898 0
M  V30 13940 N 1291.86 -0.526279 -1.48553 0
M  V30 13941 C 1292.81 0.251938 -2.31232 0
M  V30 13942 C 1293.8 0.938991 -1.40994 0
M  V30 13943 O 1295.01 0.863798 -1.57919 0
M  V30 13944 H 1291.38 0.100114 -0.745306 0
M  V30 13945 H 1293.35 -0.465013 -2.94754 0
M  V30 13946 C 1292.1 1.28816 -3.22958 0
M  V30 13947 H 1291.43 0.768899 -3.92337 0
M  V30 13948 H 1292.87 1.80417 -3.837 0
M  V30 13949 C 1291.32 2.31982 -2.44307 0
M  V30 13950 O 1291.85 3.3835 -2.16523 0
M  V30 13951 N 1290.06 2.051 -2.05869 0
M  V30 13952 H 1289.61 1.18618 -2.28665 0
M  V30 13953 H 1289.57 2.74349 -1.53557 0
M  V30 13954 O 1293.38 1.56388 -0.403108 0
M  V30 13955 H 1294.07 1.93202 0.138823 0
M  V30 END ATOM
M  V30 BEGIN BOND
M  V30 END BOND
M  V30 END CTAB
M  END
$$$$
