drugbank_target|P16234 Platelet-derived growth factor receptor alpha (DB00102; DB00619; DB01268; DB05146; DB06043; DB06589; DB06595; DB08896; DB08901; DB09078; DB09079; DB10772; DB12010; DB12147; DB12742; DB14840)
 OpenBabel12092119413D

  0  0  0     0  0            999 V3000
M  V30 BEGIN CTAB
M  V30 COUNTS 17178 17358 0 0 0
M  V30 BEGIN ATOM
M  V30 1 H -0.908 1.98254 -0.117106 0
M  V30 2 N 0 1.576 0 0
M  V30 3 C 0.933 2.03868 1.02534 0
M  V30 4 C 1.911 0.928543 1.3348 0
M  V30 5 O 3.095 1.19667 1.45644 0
M  V30 6 C 0.222 2.43627 2.35294 0
M  V30 7 C -0.732 3.65373 2.2001 0
M  V30 8 S 0.101 5.13292 1.52614 0
M  V30 9 C 1.257 5.56322 2.86805 0
M  V30 10 H 1.49 2.90518 0.631377 0
M  V30 11 H -0.977 1.52953 0.210867 0
M  V30 12 H 0.981 2.67203 3.11629 0
M  V30 13 H -0.358 1.57376 2.7183 0
M  V30 14 H -1.165 3.90944 3.18086 0
M  V30 15 H -1.563 3.418 1.51819 0
M  V30 16 H 0.729 5.58782 3.83104 0
M  V30 17 H 1.672 6.56266 2.65933 0
M  V30 18 H 2.08 4.83886 2.90714 0
M  V30 19 N 1.4781 -0.272755 1.55222 0
M  V30 20 C 2.7261 -1.00234 1.75492 0
M  V30 21 C 3.0471 -1.8681 0.5592 0
M  V30 22 O 2.3171 -1.91215 -0.425882 0
M  V30 23 H 0.8971 -0.373076 0.647166 0
M  V30 24 H 3.5591 -0.296926 1.92625 0
M  V30 25 H 2.6551 -1.63913 2.65592 0
M  V30 26 N 2.9562 -1.48159 -0.537278 0
M  V30 27 C 4.1842 -1.59454 -1.31841 0
M  V30 28 C 4.5992 -0.252065 -1.8711 0
M  V30 29 O 3.9562 0.757621 -1.66031 0
M  V30 30 C 4.0072 -2.63546 -2.47439 0
M  V30 31 O 3.7282 -3.92583 -1.94449 0
M  V30 32 C 5.2292 -2.85212 -3.39366 0
M  V30 33 H 2.4492 -0.53785 -0.401196 0
M  V30 34 H 4.9932 -1.93932 -0.648891 0
M  V30 35 H 3.1482 -2.31946 -3.1029 0
M  V30 36 H 3.5622 -4.49629 -2.70063 0
M  V30 37 H 5.0362 -3.61863 -4.16844 0
M  V30 38 H 5.5132 -1.93765 -3.94147 0
M  V30 39 H 6.1192 -3.18086 -2.82314 0
M  V30 40 N 4.4343 0.785586 -1.36625 0
M  V30 41 C 5.6593 1.57963 -1.34397 0
M  V30 42 C 6.0843 1.87964 0.071526 0
M  V30 43 O 5.4423 1.48182 1.0446 0
M  V30 44 C 5.4903 2.87511 -2.17646 0
M  V30 45 O 4.5943 3.81281 -1.57158 0
M  V30 46 H 3.9353 0.479014 -0.459828 0
M  V30 47 H 6.4653 0.973411 -1.79961 0
M  V30 48 H 6.4753 3.36745 -2.30362 0
M  V30 49 H 5.1503 2.65002 -3.20541 0
M  V30 50 H 3.7273 3.39885 -1.53403 0
M  V30 51 N 5.9124 1.20967 1.01018 0
M  V30 52 C 6.8624 0.93182 2.08089 0
M  V30 53 C 7.8464 -0.110898 1.60517 0
M  V30 54 O 9.0384 0.0973392 1.76732 0
M  V30 55 C 6.1674 0.492719 3.39746 0
M  V30 56 C 5.2534 1.56922 3.94 0
M  V30 57 N 5.6444 2.79312 4.21686 0
M  V30 58 C 3.9424 1.43688 4.2222 0
M  V30 59 C 4.6434 3.48797 4.65527 0
M  V30 60 N 3.6194 2.76224 4.68189 0
M  V30 61 H 7.4214 1.86175 2.27412 0
M  V30 62 H 4.9354 1.10463 1.19045 0
M  V30 63 H 6.9324 0.275044 4.15992 0
M  V30 64 H 5.5924 -0.430509 3.21833 0
M  V30 65 H 6.6034 3.15903 4.10397 0
M  V30 66 H 3.2804 0.578548 4.13472 0
M  V30 67 H 4.6704 4.53561 4.95714 0
M  V30 68 N 7.3905 -1.2043 1.01659 0
M  V30 69 C 8.8015 -1.71517 0.737482 0
M  V30 70 C 9.1525 -1.81547 -0.743973 0
M  V30 71 O 8.2775 -1.47803 -1.58061 0
M  V30 72 C 8.8725 -3.11515 1.33206 0
M  V30 73 C 7.4315 -3.59912 1.10183 0
M  V30 74 C 6.5785 -2.37116 1.43776 0
M  V30 75 H 9.5295 -1.05444 1.18606 0
M  V30 76 H 9.5505 -3.73575 0.722636 0
M  V30 77 H 9.0625 -3.04182 2.41028 0
M  V30 78 H 7.1635 -3.72577 0.0412756 0
M  V30 79 H 7.2765 -4.44731 1.78188 0
M  V30 80 H 5.6405 -2.39857 0.856778 0
M  V30 81 H 6.4235 -2.32424 2.52654 0
M  V30 82 N 8.8686 -0.792821 -1.36206 0
M  V30 83 C 9.8316 -0.199459 -2.2833 0
M  V30 84 C 10.8316 0.605189 -1.48977 0
M  V30 85 O 12.0216 0.425685 -1.68919 0
M  V30 86 C 9.1536 0.723523 -3.33134 0
M  V30 87 H 10.3466 -1.01181 -2.82316 0
M  V30 88 H 7.8996 -0.562485 -1.45828 0
M  V30 89 H 8.6346 1.56008 -2.84309 0
M  V30 90 H 8.4196 0.148436 -3.91819 0
M  V30 91 H 9.9096 1.13344 -4.01924 0
M  V30 92 N 10.3467 1.47872 -0.545128 0
M  V30 93 C 11.5937 2.02493 -0.0165858 0
M  V30 94 C 11.9217 1.42073 1.32836 0
M  V30 95 O 11.1767 0.561459 1.87473 0
M  V30 96 C 11.4757 3.57131 0.13867 0
M  V30 97 C 11.1417 4.36411 -1.13384 0
M  V30 98 C 9.8037 4.57792 -1.48256 0
M  V30 99 C 12.1557 4.82223 -1.97764 0
M  V30 100 C 9.4837 5.22233 -2.67376 0
M  V30 101 C 11.8357 5.47977 -3.16076 0
M  V30 102 C 10.4997 5.67593 -3.51275 0
M  V30 103 H 9.7697 0.740975 -0.00606918 0
M  V30 104 H 12.4167 1.77683 -0.714207 0
M  V30 105 H 10.7217 3.80865 0.919172 0
M  V30 106 H 12.4187 3.97031 0.562782 0
M  V30 107 H 9.0087 4.2004 -0.852297 0
M  V30 108 H 13.1927 4.65493 -1.72132 0
M  V30 109 H 8.4487 5.35616 -2.94831 0
M  V30 110 H 12.6227 5.8244 -3.81755 0
M  V30 111 H 10.2497 6.17298 -4.43675 0
M  V30 112 N 11.8248 0.280983 1.55075 0
M  V30 113 C 12.7548 -0.597469 2.25727 0
M  V30 114 C 13.7358 -1.15417 1.24952 0
M  V30 115 O 14.9208 -1.18722 1.53684 0
M  V30 116 C 12.0508 -1.7789 2.98283 0
M  V30 117 C 11.0048 -1.35347 4.06036 0
M  V30 118 C 10.3308 -2.61846 4.66198 0
M  V30 119 C 11.6308 -0.499354 5.19907 0
M  V30 120 H 13.3248 -0.00824265 2.99399 0
M  V30 121 H 10.8708 -0.0025244 1.44 0
M  V30 122 H 12.8238 -2.39937 3.46422 0
M  V30 123 H 11.5478 -2.39405 2.22155 0
M  V30 124 H 10.2068 -0.756156 3.58717 0
M  V30 125 H 9.8548 -3.21632 3.86732 0
M  V30 126 H 9.5548 -2.3409 5.38958 0
M  V30 127 H 11.0788 -3.24732 5.1709 0
M  V30 128 H 12.4928 -1.02498 5.64063 0
M  V30 129 H 10.8898 -0.316424 5.99265 0
M  V30 130 H 11.9598 0.480459 4.82514 0
M  V30 131 N 13.3029 -1.57598 0.00835791 0
M  V30 132 C 14.5489 -1.91211 -0.675732 0
M  V30 133 C 14.8819 -0.883139 -1.72958 0
M  V30 134 O 14.1569 0.097016 -1.94258 0
M  V30 135 C 14.4399 -3.35379 -1.31123 0
M  V30 136 C 14.2929 -4.48999 -0.268356 0
M  V30 137 C 15.6119 -3.7912 -2.23508 0
M  V30 138 H 12.7309 -0.695374 -0.244179 0
M  V30 139 H 15.3729 -1.89901 0.0613655 0
M  V30 140 H 13.5229 -3.36626 -1.93946 0
M  V30 141 H 15.1949 -4.59887 0.360844 0
M  V30 142 H 13.4379 -4.31873 0.408482 0
M  V30 143 H 14.1089 -5.46851 -0.752218 0
M  V30 144 H 16.5849 -3.79477 -1.70693 0
M  V30 145 H 15.4609 -4.80729 -2.64936 0
M  V30 146 H 15.7219 -3.13455 -3.11766 0
M  V30 147 N 14.781 0.264519 -1.55364 0
M  V30 148 C 15.711 1.33121 -1.91836 0
M  V30 149 C 16.692 1.51101 -0.781192 0
M  V30 150 O 17.877 1.64003 -1.04003 0
M  V30 151 C 15.007 2.68921 -2.19769 0
M  V30 152 C 13.961 2.65661 -3.35571 0
M  V30 153 C 13.287 4.05093 -3.49004 0
M  V30 154 C 14.587 2.24187 -4.71739 0
M  V30 155 H 16.281 1.02844 -2.81182 0
M  V30 156 H 13.827 0.493286 -1.35287 0
M  V30 157 H 15.78 3.43663 -2.43872 0
M  V30 158 H 14.504 3.00799 -1.27231 0
M  V30 159 H 13.163 1.93377 -3.1145 0
M  V30 160 H 12.811 4.34206 -2.53917 0
M  V30 161 H 12.511 4.03804 -4.26868 0
M  V30 162 H 14.035 4.81561 -3.75408 0
M  V30 163 H 15.449 2.88654 -4.9533 0
M  V30 164 H 13.846 2.34044 -5.52579 0
M  V30 165 H 14.916 1.19327 -4.69988 0
M  V30 166 N 16.2591 1.48442 0.529413 0
M  V30 167 C 17.5071 1.56179 1.28267 0
M  V30 168 C 17.8281 0.237721 1.93546 0
M  V30 169 O 17.0981 -0.740779 1.81354 0
M  V30 170 H 15.6781 0.575367 0.476405 0
M  V30 171 H 18.3401 1.84909 0.61602 0
M  V30 172 H 17.4361 2.34312 2.06165 0
M  V30 173 N 17.7372 -0.778329 1.37039 0
M  V30 174 C 18.9772 -1.54973 1.33276 0
M  V30 175 C 19.3412 -1.91816 -0.0839376 0
M  V30 176 O 20.5422 -2.6767 -0.246228 0
M  V30 177 C 18.8132 -2.78517 2.23971 0
M  V30 178 S 20.3722 -3.6865 2.37997 0
M  V30 179 H 17.1902 -0.530639 0.473226 0
M  V30 180 H 19.7922 -0.915806 1.72723 0
M  V30 181 H 18.4962 -2.4952 3.25835 0
M  V30 182 H 18.0272 -3.46875 1.85584 0
M  V30 183 H 20.0422 -4.70182 1.58567 0
M  V30 184 N 19.2153 -1.21501 -1.00376 0
M  V30 185 C 20.1453 -0.999478 -2.11028 0
M  V30 186 C 21.1263 0.0759671 -1.6993 0
M  V30 187 O 22.3113 -0.0841106 -1.94018 0
M  V30 188 C 19.4413 -0.564709 -3.42678 0
M  V30 189 C 18.3953 -1.58486 -3.97576 0
M  V30 190 C 17.7213 -1.00628 -5.25146 0
M  V30 191 C 19.0213 -2.97204 -4.29496 0
M  V30 192 H 20.7153 -1.92495 -2.29317 0
M  V30 193 H 18.2613 -0.92693 -1.102 0
M  V30 194 H 20.2143 -0.401091 -4.19487 0
M  V30 195 H 18.9383 0.396411 -3.24185 0
M  V30 196 H 17.5973 -1.73606 -3.22888 0
M  V30 197 H 17.2453 -0.0368439 -5.02987 0
M  V30 198 H 16.9453 -1.68771 -5.62841 0
M  V30 199 H 18.4693 -0.854015 -6.04598 0
M  V30 200 H 19.8833 -2.8552 -4.97143 0
M  V30 201 H 18.2803 -3.62372 -4.78338 0
M  V30 202 H 19.3503 -3.47956 -3.3772 0
M  V30 203 N 20.6934 1.19889 -1.02296 0
M  V30 204 C 21.6234 2.25141 -0.619174 0
M  V30 205 C 22.6044 1.66051 0.368915 0
M  V30 206 O 23.7894 1.92546 0.252941 0
M  V30 207 C 20.9194 3.4728 0.0368783 0
M  V30 208 C 19.8734 4.19005 -0.872865 0
M  V30 209 C 19.1994 5.34637 -0.0822402 0
M  V30 210 C 20.4994 4.74452 -2.18387 0
M  V30 211 H 22.1934 2.59171 -1.49903 0
M  V30 212 H 19.7394 1.24579 -0.722222 0
M  V30 213 H 21.6924 4.20098 0.330958 0
M  V30 214 H 20.4164 3.12433 0.95149 0
M  V30 215 H 19.0754 3.48061 -1.15105 0
M  V30 216 H 18.7234 4.96034 0.83422 0
M  V30 217 H 18.4234 5.83557 -0.688149 0
M  V30 218 H 19.9474 6.10255 0.205238 0
M  V30 219 H 21.3614 5.39055 -1.95172 0
M  V30 220 H 19.7584 5.33834 -2.74119 0
M  V30 221 H 20.8284 3.92844 -2.84257 0
M  V30 222 N 22.1715 0.800033 1.35784 0
M  V30 223 C 23.3995 0.389606 2.03199 0
M  V30 224 C 23.8145 -0.997375 1.60306 0
M  V30 225 O 23.1715 -1.64154 0.797481 0
M  V30 226 C 23.2225 0.455855 3.58614 0
M  V30 227 O 22.9435 1.78815 3.99946 0
M  V30 228 C 24.4445 0.0374032 4.43284 0
M  V30 229 H 21.6645 0.159132 0.651857 0
M  V30 230 H 24.2085 1.08183 1.73541 0
M  V30 231 H 22.3635 -0.188057 3.86943 0
M  V30 232 H 22.7775 1.74636 4.94573 0
M  V30 233 H 24.2515 0.134882 5.51835 0
M  V30 234 H 24.7285 -1.01651 4.27275 0
M  V30 235 H 25.3345 0.654215 4.20238 0
M  V30 236 N 23.6496 -1.47581 0.552962 0
M  V30 237 C 24.8976 -2.02082 0.0272703 0
M  V30 238 C 25.2186 -1.4301 -1.32563 0
M  V30 239 O 24.4886 -0.603745 -1.86365 0
M  V30 240 H 23.0686 -0.746966 0.00709182 0
M  V30 241 H 25.7306 -1.81033 0.722008 0
M  V30 242 H 24.8266 -3.12034 -0.0639951 0
M  V30 243 N 25.1277 -0.289203 -1.54924 0
M  V30 244 C 26.0577 0.58549 -2.2604 0
M  V30 245 C 27.0387 1.14753 -1.25562 0
M  V30 246 O 28.2237 1.17906 -1.54311 0
M  V30 247 C 25.3537 1.76305 -2.99222 0
M  V30 248 C 24.3077 1.33191 -4.06748 0
M  V30 249 C 23.6337 2.5937 -4.6758 0
M  V30 250 C 24.9337 0.471775 -5.20165 0
M  V30 251 H 26.6277 -0.00763532 -2.99399 0
M  V30 252 H 24.1737 -0.00511229 -1.43999 0
M  V30 253 H 26.1267 2.38097 -3.47689 0
M  V30 254 H 24.8507 2.38223 -2.23422 0
M  V30 255 H 23.5097 0.737121 -3.59113 0
M  V30 256 H 23.1577 3.19576 -3.88433 0
M  V30 257 H 22.8577 2.31228 -5.40192 0
M  V30 258 H 24.3817 3.21985 -5.18804 0
M  V30 259 H 25.7957 0.995056 -5.64599 0
M  V30 260 H 24.1927 0.284639 -5.99425 0
M  V30 261 H 25.2627 -0.506041 -4.82252 0
M  V30 262 N 26.6058 1.57591 -0.0167156 0
M  V30 263 C 27.8308 1.9598 0.67872 0
M  V30 264 C 28.2558 0.892546 1.65575 0
M  V30 265 O 27.6138 -0.147772 1.80697 0
M  V30 266 C 27.6618 3.33468 1.37227 0
M  V30 267 O 26.7658 3.28954 2.48722 0
M  V30 268 H 26.1068 0.639339 0.17928 0
M  V30 269 H 28.6368 2.04463 -0.0748802 0
M  V30 270 H 28.6468 3.69417 1.7319 0
M  V30 271 H 27.3218 4.10694 0.656007 0
M  V30 272 H 25.8988 3.04705 2.14963 0
M  V30 273 N 28.0839 -0.256276 1.55502 0
M  V30 274 C 29.0139 -1.32102 1.92539 0
M  V30 275 C 29.9949 -1.50684 0.789194 0
M  V30 276 O 31.1799 -1.63449 1.04872 0
M  V30 277 C 28.3099 -2.67752 2.21192 0
M  V30 278 C 27.2639 -2.63878 3.36975 0
M  V30 279 C 26.5899 -4.03236 3.51147 0
M  V30 280 C 27.8899 -2.21682 4.72921 0
M  V30 281 H 29.5839 -1.01351 2.81724 0
M  V30 282 H 27.1299 -0.486105 1.35547 0
M  V30 283 H 29.0829 -3.42365 2.45691 0
M  V30 284 H 27.8069 -3.0012 1.28824 0
M  V30 285 H 26.4659 -1.91722 3.12471 0
M  V30 286 H 26.1139 -4.32854 2.56216 0
M  V30 287 H 25.8139 -4.01535 4.29003 0
M  V30 288 H 27.3379 -4.79563 3.77957 0
M  V30 289 H 28.7519 -2.86023 4.96854 0
M  V30 290 H 27.1489 -2.3111 5.53812 0
M  V30 291 H 28.2189 -1.16833 4.70615 0
M  V30 292 N 29.562 -1.4872 -0.521534 0
M  V30 293 C 30.811 -1.56419 -1.27341 0
M  V30 294 C 31.124 -0.246805 -1.94037 0
M  V30 295 O 32.33 -0.202122 -2.70747 0
M  V30 296 C 30.786 -2.75896 -2.31105 0
M  V30 297 C 30.394 -4.14311 -1.70441 0
M  V30 298 C 32.138 -2.92913 -3.07249 0
M  V30 299 C 30.045 -5.25038 -2.72194 0
M  V30 300 H 28.975 -0.582344 -0.478949 0
M  V30 301 H 31.626 -1.75071 -0.549779 0
M  V30 302 H 30.008 -2.50697 -3.06541 0
M  V30 303 H 31.182 -4.49564 -1.01136 0
M  V30 304 H 29.497 -4.02482 -1.06759 0
M  V30 305 H 32.094 -3.72805 -3.83302 0
M  V30 306 H 32.437 -2.02689 -3.63625 0
M  V30 307 H 32.97 -3.18054 -2.38928 0
M  V30 308 H 29.709 -6.17255 -2.20627 0
M  V30 309 H 29.229 -4.94263 -3.39801 0
M  V30 310 H 30.908 -5.53508 -3.35019 0
M  V30 311 N 31.0401 0.771051 -1.3745 0
M  V30 312 C 31.9701 1.89827 -1.3597 0
M  V30 313 C 32.9511 1.68562 -0.228216 0
M  V30 314 O 34.1361 1.8941 -0.428675 0
M  V30 315 C 31.2661 3.2712 -1.16662 0
M  V30 316 C 30.2201 3.6295 -2.2683 0
M  V30 317 C 29.5461 4.98791 -1.92644 0
M  V30 318 C 30.8461 3.69627 -3.69017 0
M  V30 319 H 32.5401 1.91323 -2.30295 0
M  V30 320 H 30.0861 0.919082 -1.10855 0
M  V30 321 H 32.0391 4.05615 -1.14256 0
M  V30 322 H 30.7631 3.26059 -0.187926 0
M  V30 323 H 29.4221 2.86763 -2.28392 0
M  V30 324 H 29.0701 4.94271 -0.933021 0
M  V30 325 H 28.7701 5.23733 -2.66416 0
M  V30 326 H 30.2941 5.79685 -1.91826 0
M  V30 327 H 31.7081 4.38273 -3.69581 0
M  V30 328 H 30.1051 4.06067 -4.41848 0
M  V30 329 H 31.1751 2.70273 -4.02592 0
M  V30 330 N 32.5182 1.22032 0.997298 0
M  V30 331 C 33.7582 1.05375 1.75144 0
M  V30 332 C 34.1222 -0.404696 1.87686 0
M  V30 333 O 35.3232 -0.691998 2.5974 0
M  V30 334 C 33.5942 1.74046 3.12158 0
M  V30 335 S 35.1532 1.72745 4.03366 0
M  V30 336 H 31.9712 0.377449 0.602539 0
M  V30 337 H 34.5732 1.54902 1.19272 0
M  V30 338 H 33.2772 2.79332 3.00669 0
M  V30 339 H 32.8082 1.24731 3.73103 0
M  V30 340 H 34.8232 0.774015 4.90126 0
M  V30 341 N 33.9963 -1.19345 1.0293 0
M  V30 342 C 34.9283 -2.22036 0.56857 0
M  V30 343 C 35.9413 -1.58865 -0.355779 0
M  V30 344 O 37.1303 -1.77851 -0.152103 0
M  V30 345 C 34.2303 -3.38363 -0.190752 0
M  V30 346 C 33.4033 -4.31118 0.738643 0
M  V30 347 C 32.4623 -5.26194 0.0246497 0
M  V30 348 O 31.4883 -5.65461 0.651354 0
M  V30 349 N 32.6903 -5.66971 -1.24594 0
M  V30 350 H 35.4553 -2.6219 1.45177 0
M  V30 351 H 33.0163 -1.34015 0.908381 0
M  V30 352 H 35.0083 -3.98981 -0.677961 0
M  V30 353 H 33.5783 -2.96994 -0.975366 0
M  V30 354 H 32.7983 -3.68276 1.40593 0
M  V30 355 H 34.0863 -4.90001 1.37029 0
M  V30 356 H 33.4843 -5.37104 -1.77583 0
M  V30 357 H 32.0413 -6.2984 -1.67764 0
M  V30 358 N 35.4744 -0.807222 -1.35358 0
M  V30 359 C 36.4044 -0.232509 -2.3234 0
M  V30 360 C 37.3854 0.642386 -1.57504 0
M  V30 361 O 38.5704 0.572526 -1.85569 0
M  V30 362 C 35.7004 0.619238 -3.41735 0
M  V30 363 C 34.6544 -0.157215 -4.27711 0
M  V30 364 C 33.9804 0.816273 -5.28433 0
M  V30 365 C 35.2804 -1.35656 -5.04376 0
M  V30 366 H 36.9744 -1.04276 -2.80654 0
M  V30 367 H 34.5204 -0.50288 -1.34934 0
M  V30 368 H 36.4734 1.03137 -4.08584 0
M  V30 369 H 35.1974 1.46239 -2.92031 0
M  V30 370 H 33.8564 -0.550525 -3.62443 0
M  V30 371 H 33.5044 1.65494 -4.74996 0
M  V30 372 H 33.2044 0.301067 -5.86828 0
M  V30 373 H 34.7284 1.22659 -5.98153 0
M  V30 374 H 36.1424 -1.01927 -5.64166 0
M  V30 375 H 34.5394 -1.8063 -5.7227 0
M  V30 376 H 35.6094 -2.14288 -4.34981 0
M  V30 377 N 36.9525 1.47285 -0.560781 0
M  V30 378 C 38.1775 2.07359 -0.0410566 0
M  V30 379 C 38.6025 1.41017 1.24483 0
M  V30 380 O 37.9605 0.486368 1.74654 0
M  V30 381 C 38.0085 3.6035 0.134123 0
M  V30 382 O 37.1125 3.94681 1.19587 0
M  V30 383 H 36.4535 0.661887 -0.0529291 0
M  V30 384 H 38.9835 1.89252 -0.777482 0
M  V30 385 H 38.9935 4.0652 0.347207 0
M  V30 386 H 37.6685 4.08034 -0.805047 0
M  V30 387 H 36.2455 3.60251 0.962987 0
M  V30 388 N 38.4306 0.297415 1.54768 0
M  V30 389 C 39.3606 -0.573494 2.26348 0
M  V30 390 C 40.3416 -1.14085 1.26169 0
M  V30 391 O 41.5266 -1.17086 1.54934 0
M  V30 392 C 38.6566 -1.74716 3.00153 0
M  V30 393 C 37.6106 -1.31032 4.07449 0
M  V30 394 C 36.9366 -2.56887 4.68949 0
M  V30 395 C 38.2366 -0.444183 5.20408 0
M  V30 396 H 39.9306 0.0235131 2.99391 0
M  V30 397 H 37.4766 0.0127488 1.43994 0
M  V30 398 H 39.4296 -2.3625 3.48947 0
M  V30 399 H 38.1536 -2.37035 2.24682 0
M  V30 400 H 36.8126 -0.718066 3.59499 0
M  V30 401 H 36.4606 -3.17512 3.90122 0
M  V30 402 H 36.1606 -2.2836 5.41411 0
M  V30 403 H 37.6846 -3.19229 5.20505 0
M  V30 404 H 39.0986 -0.9651 5.65118 0
M  V30 405 H 37.4956 -0.252846 5.99567 0
M  V30 406 H 38.5656 0.531609 4.81977 0
M  V30 407 N 39.9087 -1.5758 0.0250728 0
M  V30 408 C 41.3197 -1.79476 -0.514323 0
M  V30 409 C 41.6707 -0.934956 -1.72491 0
M  V30 410 O 40.7957 -0.144245 -2.15919 0
M  V30 411 C 41.3907 -3.25503 -0.939842 0
M  V30 412 C 39.9497 -3.48408 -1.42438 0
M  V30 413 C 39.0967 -2.74583 -0.387201 0
M  V30 414 H 42.0477 -1.567 0.25113 0
M  V30 415 H 42.0687 -3.34992 -1.80445 0
M  V30 416 H 41.5807 -3.88056 -0.0585628 0
M  V30 417 H 39.6817 -2.91103 -2.32572 0
M  V30 418 H 39.7947 -4.57119 -1.43455 0
M  V30 419 H 38.1587 -2.39942 -0.854409 0
M  V30 420 H 38.9417 -3.39849 0.485543 0
M  V30 421 N 41.3868 0.248026 -1.55636 0
M  V30 422 C 42.6118 0.998028 -1.81808 0
M  V30 423 C 43.0368 1.78207 -0.601979 0
M  V30 424 O 42.3948 1.75653 0.448961 0
M  V30 425 C 42.4428 1.9125 -3.05705 0
M  V30 426 O 41.5468 3.00406 -2.82542 0
M  V30 427 H 40.8878 0.284045 -0.600179 0
M  V30 428 H 43.4178 0.269357 -2.02819 0
M  V30 429 H 43.4278 2.32737 -3.35108 0
M  V30 430 H 42.1028 1.33602 -3.93857 0
M  V30 431 H 40.6798 2.63056 -2.64303 0
M  V30 432 N 42.8649 1.48995 0.513639 0
M  V30 433 C 44.1139 1.57093 1.2651 0
M  V30 434 C 44.4269 0.257091 1.93903 0
M  V30 435 O 45.6329 0.216478 2.70636 0
M  V30 436 C 44.0889 2.77118 2.29638 0
M  V30 437 C 43.6969 4.15209 1.68241 0
M  V30 438 C 45.4409 2.94538 3.05692 0
M  V30 439 C 43.3479 5.26474 2.69406 0
M  V30 440 H 42.2779 0.584876 0.475854 0
M  V30 441 H 44.9289 1.7536 0.540487 0
M  V30 442 H 43.3109 2.52319 3.05207 0
M  V30 443 H 44.4849 4.50094 0.987505 0
M  V30 444 H 42.7999 4.03042 1.04623 0
M  V30 445 H 45.3969 3.74832 3.8132 0
M  V30 446 H 45.7399 2.04614 3.62545 0
M  V30 447 H 46.2729 3.19316 2.37238 0
M  V30 448 H 43.0119 6.18417 2.17351 0
M  V30 449 H 42.5319 4.96058 3.37175 0
M  V30 450 H 44.2109 5.55277 3.32078 0
M  V30 451 N 44.343 -0.763751 1.37857 0
M  V30 452 C 45.273 -1.89103 1.36975 0
M  V30 453 C 46.254 -1.68439 0.237152 0
M  V30 454 O 47.439 -1.8918 0.438713 0
M  V30 455 C 44.569 -3.26496 1.18395 0
M  V30 456 C 43.523 -3.61741 2.28751 0
M  V30 457 C 42.849 -4.97762 1.95286 0
M  V30 458 C 44.149 -3.67665 3.70972 0
M  V30 459 H 45.843 -1.90099 2.31307 0
M  V30 460 H 43.389 -0.91319 1.11341 0
M  V30 461 H 45.342 -4.05003 1.16406 0
M  V30 462 H 44.066 -3.25955 0.205215 0
M  V30 463 H 42.725 -2.85547 2.29909 0
M  V30 464 H 42.373 -4.93769 0.959221 0
M  V30 465 H 42.073 -5.22313 2.69189 0
M  V30 466 H 43.597 -5.7866 1.94898 0
M  V30 467 H 45.011 -4.36307 3.719 0
M  V30 468 H 43.408 -4.03718 4.43995 0
M  V30 469 H 44.478 -2.68134 4.0402 0
M  V30 470 N 45.8211 -1.22559 -0.990812 0
M  V30 471 C 47.2321 -1.04791 -1.54518 0
M  V30 472 C 47.5831 0.387998 -1.92325 0
M  V30 473 O 46.7081 1.27328 -1.74976 0
M  V30 474 C 47.3031 -1.896 -2.80779 0
M  V30 475 C 45.8621 -1.76124 -3.32652 0
M  V30 476 C 45.0091 -1.8594 -2.05722 0
M  V30 477 H 47.9601 -1.36374 -0.811662 0
M  V30 478 H 47.9811 -1.41464 -3.53225 0
M  V30 479 H 47.4931 -2.94101 -2.53231 0
M  V30 480 H 45.5941 -0.743643 -3.65104 0
M  V30 481 H 45.7071 -2.58913 -4.03114 0
M  V30 482 H 44.0711 -1.29403 -2.19379 0
M  V30 483 H 44.8541 -2.91976 -1.80568 0
M  V30 484 N 47.2992 1.18797 -1.03562 0
M  V30 485 C 48.2472 2.24297 -0.615905 0
M  V30 486 C 49.2412 1.65643 0.354808 0
M  V30 487 O 50.4472 1.78618 0.22265 0
M  V30 488 H 46.8222 0.729909 -0.180934 0
M  V30 489 H 48.7932 2.5701 -1.5162 0
M  V30 490 C 47.5422 3.47698 0.0104735 0
M  V30 491 H 46.8652 3.93125 -0.727509 0
M  V30 492 H 48.3052 4.23159 0.266995 0
M  V30 493 C 46.7642 3.12489 1.25905 0
M  V30 494 O 47.2942 3.25761 2.35038 0
M  V30 495 N 45.5002 2.6686 1.15039 0
M  V30 496 H 45.0472 2.56261 0.262328 0
M  V30 497 H 45.0052 2.43674 1.98672 0
M  V30 498 N 48.7773 0.814389 1.34928 0
M  V30 499 C 49.6873 0.231978 2.3345 0
M  V30 500 C 50.7033 -0.629139 1.62228 0
M  V30 501 O 51.8793 -0.539052 1.94052 0
M  V30 502 C 48.9443 -0.603482 3.41407 0
M  V30 503 C 48.0053 0.279037 4.28392 0
M  V30 504 C 47.2383 -0.516643 5.31193 0
M  V30 505 O 47.4613 -1.75068 5.4287 0
M  V30 506 O 46.3953 0.0965652 6.01823 0
M  V30 507 H 50.2213 1.04721 2.85074 0
M  V30 508 H 47.8063 0.576343 1.37836 0
M  V30 509 H 49.6883 -1.07908 4.0735 0
M  V30 510 H 48.3633 -1.39618 2.92042 0
M  V30 511 H 47.2703 0.801948 3.65403 0
M  V30 512 H 48.6033 1.03588 4.81176 0
M  V30 513 N 50.2554 -1.46986 0.568584 0
M  V30 514 C 51.2034 -2.31858 -0.185649 0
M  V30 515 C 52.1974 -1.43624 -0.898249 0
M  V30 516 O 53.4034 -1.60327 -0.818242 0
M  V30 517 H 49.7784 -0.747866 -0.0787399 0
M  V30 518 H 51.7494 -2.93303 0.549191 0
M  V30 519 C 50.4984 -3.26513 -1.19519 0
M  V30 520 H 49.8214 -3.94377 -0.656285 0
M  V30 521 H 51.2614 -3.88707 -1.6936 0
M  V30 522 C 49.7204 -2.50847 -2.24894 0
M  V30 523 O 50.2504 -2.26119 -3.32014 0
M  V30 524 N 48.4564 -2.11656 -1.99124 0
M  V30 525 H 48.0034 -2.31966 -1.12024 0
M  V30 526 H 47.9614 -1.61347 -2.69842 0
M  V30 527 N 51.7335 -0.305618 -1.54608 0
M  V30 528 C 52.6435 0.57778 -2.27374 0
M  V30 529 C 53.6595 1.14451 -1.31061 0
M  V30 530 O 54.8355 1.16831 -1.6405 0
M  V30 531 C 51.9005 1.73123 -3.00382 0
M  V30 532 C 50.9615 1.19812 -4.12242 0
M  V30 533 C 50.1945 2.2966 -4.81759 0
M  V30 534 O 50.4175 3.49651 -4.50666 0
M  V30 535 O 49.3515 1.96091 -5.69062 0
M  V30 536 H 53.1775 -0.012624 -3.03697 0
M  V30 537 H 50.7625 -0.0719184 -1.49227 0
M  V30 538 H 52.6445 2.40315 -3.4616 0
M  V30 539 H 51.3195 2.30815 -2.26949 0
M  V30 540 H 50.2265 0.491798 -3.70853 0
M  V30 541 H 51.5595 0.666566 -4.87666 0
M  V30 542 N 53.2116 1.57565 -0.0334293 0
M  V30 543 C 54.1586 2.10478 0.946981 0
M  V30 544 C 55.1286 1.00787 1.32027 0
M  V30 545 O 56.3136 1.28232 1.41284 0
M  V30 546 C 53.4536 2.63994 2.22263 0
M  V30 547 C 52.5666 3.87709 1.90541 0
M  V30 548 C 51.7016 4.29604 3.12433 0
M  V30 549 C 50.7406 5.46065 2.76549 0
M  V30 550 N 49.8776 5.83096 3.9108 0
M  V30 551 H 54.7176 2.93963 0.488846 0
M  V30 552 H 52.2546 1.45296 0.22969 0
M  V30 553 H 54.2126 2.93114 2.96884 0
M  V30 554 H 52.8426 1.83333 2.65685 0
M  V30 555 H 51.8946 3.65291 1.06144 0
M  V30 556 H 53.2066 4.72403 1.60116 0
M  V30 557 H 52.3606 4.60182 3.9537 0
M  V30 558 H 51.0996 3.43685 3.46023 0
M  V30 559 H 50.1046 5.15176 1.92026 0
M  V30 560 H 51.3296 6.33685 2.44171 0
M  V30 561 H 49.2756 5.00132 4.24504 0
M  V30 562 H 49.1926 6.6244 3.64293 0
M  V30 563 H 50.4606 6.18282 4.74708 0
M  V30 564 N 54.6897 -0.239769 1.55765 0
M  V30 565 C 55.9357 -0.968234 1.78194 0
M  V30 566 C 56.2687 -1.84701 0.599938 0
M  V30 567 O 55.5437 -1.9031 -0.401524 0
M  V30 568 C 55.8267 -1.8227 3.10564 0
M  V30 569 C 55.6797 -0.971633 4.3918 0
M  V30 570 C 56.9987 -2.80388 3.39221 0
M  V30 571 H 54.1177 -0.350572 0.648281 0
M  V30 572 H 56.7597 -0.238259 1.885 0
M  V30 573 H 54.9097 -2.44507 3.01908 0
M  V30 574 H 56.5817 -0.367408 4.59835 0
M  V30 575 H 54.8247 -0.276276 4.32919 0
M  V30 576 H 55.4957 -1.60346 5.28198 0
M  V30 577 H 57.9717 -2.28287 3.47885 0
M  V30 578 H 56.8477 -3.3729 4.33044 0
M  V30 579 H 57.1087 -3.57212 2.60484 0
M  V30 580 N 56.1678 -1.49265 -0.50573 0
M  V30 581 C 57.4138 -1.58748 -1.26202 0
M  V30 582 C 57.7468 -0.271227 -1.92297 0
M  V30 583 O 57.0218 0.724831 -1.80489 0
M  V30 584 C 57.3048 -2.74332 -2.33268 0
M  V30 585 C 57.1578 -4.15737 -1.71705 0
M  V30 586 C 58.4768 -2.85576 -3.34865 0
M  V30 587 H 55.5958 -0.577826 -0.457478 0
M  V30 588 H 58.2378 -1.81532 -0.560897 0
M  V30 589 H 56.3878 -2.55036 -2.93068 0
M  V30 590 H 58.0598 -4.46537 -1.15769 0
M  V30 591 H 56.3028 -4.21605 -1.02135 0
M  V30 592 H 56.9738 -4.92477 -2.49341 0
M  V30 593 H 59.4498 -3.03127 -2.8505 0
M  V30 594 H 58.3258 -3.68135 -4.07146 0
M  V30 595 H 58.5868 -1.94732 -3.96903 0
M  V30 596 N 57.6459 0.756429 -1.3826 0
M  V30 597 C 58.5779 1.87971 -1.31147 0
M  V30 598 C 59.5909 1.61248 -0.224239 0
M  V30 599 O 60.7799 1.71881 -0.481581 0
M  V30 600 C 57.8799 3.23545 -1.00857 0
M  V30 601 C 57.0529 3.77794 -2.20432 0
M  V30 602 C 56.1119 4.91877 -1.86931 0
M  V30 603 O 55.1379 5.06659 -2.59395 0
M  V30 604 N 56.3399 5.74643 -0.822568 0
M  V30 605 H 59.1049 1.94585 -2.2794 0
M  V30 606 H 56.6659 0.936234 -1.32084 0
M  V30 607 H 58.6579 3.97403 -0.765021 0
M  V30 608 H 57.2279 3.12335 -0.128687 0
M  V30 609 H 56.4479 2.95534 -2.6087 0
M  V30 610 H 57.7359 4.10771 -3.00241 0
M  V30 611 H 57.1339 5.65266 -0.221575 0
M  V30 612 H 55.6909 6.48661 -0.638899 0
M  V30 613 N 59.124 1.23083 0.984299 0
M  V30 614 C 60.054 1.03292 2.09411 0
M  V30 615 C 61.035 -0.048923 1.7003 0
M  V30 616 O 62.22 0.114967 1.93859 0
M  V30 617 C 59.35 0.619155 3.41736 0
M  V30 618 C 58.304 1.64791 3.95004 0
M  V30 619 C 57.63 1.0897 5.23478 0
M  V30 620 C 58.93 3.03999 4.24714 0
M  V30 621 H 60.624 1.96119 2.26225 0
M  V30 622 H 58.17 0.944344 1.08711 0
M  V30 623 H 60.123 0.467777 4.18796 0
M  V30 624 H 58.847 -0.344786 3.24775 0
M  V30 625 H 57.506 1.78721 3.20085 0
M  V30 626 H 57.154 0.11686 5.02864 0
M  V30 627 H 56.854 1.77704 5.60085 0
M  V30 628 H 58.378 0.950093 6.03163 0
M  V30 629 H 59.792 2.93393 4.92538 0
M  V30 630 H 58.189 3.69936 4.72512 0
M  V30 631 H 59.259 3.53285 3.32142 0
M  V30 632 N 60.6021 -1.18246 1.0419 0
M  V30 633 C 61.5501 -2.23968 0.627792 0
M  V30 634 C 62.5441 -1.65828 -0.346019 0
M  V30 635 O 63.7501 -1.78733 -0.213175 0
M  V30 636 H 60.1251 -0.728939 0.184802 0
M  V30 637 H 62.0961 -2.56202 1.52981 0
M  V30 638 C 60.8451 -3.47699 0.00796591 0
M  V30 639 H 60.1681 -3.92734 0.748347 0
M  V30 640 H 61.6081 -4.23294 -0.24455 0
M  V30 641 C 60.0671 -3.13153 -1.24246 0
M  V30 642 O 60.5971 -3.27003 -2.33307 0
M  V30 643 N 58.8031 -2.67467 -1.13622 0
M  V30 644 H 58.3501 -2.56396 -0.248734 0
M  V30 645 H 58.3081 -2.44724 -1.97377 0
M  V30 646 N 62.0802 -0.821533 -1.34494 0
M  V30 647 C 63.3052 -0.420873 -2.03085 0
M  V30 648 C 63.7302 0.964915 -1.61465 0
M  V30 649 O 63.0882 1.62763 -0.798607 0
M  V30 650 C 63.1362 -0.529414 -3.56693 0
M  V30 651 O 62.2402 0.451302 -4.09923 0
M  V30 652 H 61.5812 -0.173489 -0.640935 0
M  V30 653 H 64.1112 -1.11157 -1.71771 0
M  V30 654 H 64.1212 -0.404671 -4.05988 0
M  V30 655 H 62.7962 -1.54014 -3.86332 0
M  V30 656 H 61.3732 0.285558 -3.71805 0
M  V30 657 N 63.5583 1.46682 -0.576371 0
M  V30 658 C 64.7833 2.07304 -0.0630475 0
M  V30 659 C 65.2083 1.42329 1.2298 0
M  V30 660 O 64.5663 0.504865 1.74129 0
M  V30 661 C 64.6143 3.60472 0.095895 0
M  V30 662 O 63.7183 3.95927 1.15394 0
M  V30 663 H 63.0593 0.661288 -0.0599463 0
M  V30 664 H 65.5893 1.88417 -0.797511 0
M  V30 665 H 65.5993 4.06865 0.304071 0
M  V30 666 H 64.2743 4.07157 -0.84828 0
M  V30 667 H 62.8513 3.61252 0.924724 0
M  V30 668 N 65.0364 0.313813 1.54444 0
M  V30 669 C 66.2834 -0.291675 2.00388 0
M  V30 670 C 66.6114 -1.52904 1.2021 0
M  V30 671 O 65.8664 -1.93833 0.269707 0
M  V30 672 C 66.1654 -0.680386 3.50864 0
M  V30 673 C 65.8314 0.456699 4.48581 0
M  V30 674 C 64.4934 0.768824 4.75018 0
M  V30 675 C 66.8454 1.22098 5.06697 0
M  V30 676 C 64.1734 1.84812 5.56831 0
M  V30 677 C 66.5254 2.29029 5.89685 0
M  V30 678 C 65.1894 2.60834 6.14428 0
M  V30 679 H 64.4594 -0.106732 0.733273 0
M  V30 680 H 67.1064 0.43557 1.86481 0
M  V30 681 H 65.4114 -1.48791 3.62448 0
M  V30 682 H 67.1084 -1.16026 3.83847 0
M  V30 683 H 63.6984 0.203337 4.28117 0
M  V30 684 H 67.8824 0.993096 4.86263 0
M  V30 685 H 63.1384 2.09912 5.74236 0
M  V30 686 H 67.3124 2.887 6.33739 0
M  V30 687 H 64.9394 3.44596 6.77612 0
M  V30 688 N 66.5145 -1.57545 0.0417849 0
M  V30 689 C 67.7395 -1.97035 -0.647455 0
M  V30 690 C 68.1645 -0.918775 -1.64135 0
M  V30 691 O 67.5225 0.119006 -1.80909 0
M  V30 692 C 67.5705 -3.35609 -1.31905 0
M  V30 693 O 66.6745 -3.3287 -2.43457 0
M  V30 694 H 66.0155 -0.64211 -0.169086 0
M  V30 695 H 68.5455 -2.04318 0.107399 0
M  V30 696 H 68.5555 -3.72126 -1.67291 0
M  V30 697 H 67.2305 -4.11685 -0.590586 0
M  V30 698 H 65.8075 -3.08087 -2.10088 0
M  V30 699 N 67.9926 0.231505 -1.5589 0
M  V30 700 C 68.9226 1.29022 -1.94617 0
M  V30 701 C 69.9036 1.4941 -0.813067 0
M  V30 702 O 71.0886 1.6176 -1.07459 0
M  V30 703 C 68.2186 2.64199 -2.25424 0
M  V30 704 C 67.1726 2.58484 -3.41131 0
M  V30 705 C 66.4986 3.97599 -3.57518 0
M  V30 706 C 67.7986 2.1413 -4.76388 0
M  V30 707 H 69.4926 0.968563 -2.83301 0
M  V30 708 H 67.0386 0.464479 -1.36303 0
M  V30 709 H 68.9916 3.38413 -2.51107 0
M  V30 710 H 67.7156 2.98032 -1.33583 0
M  V30 711 H 66.3746 1.86727 -3.15481 0
M  V30 712 H 66.0226 4.28723 -2.6307 0
M  V30 713 H 65.7226 3.94659 -4.35337 0
M  V30 714 H 67.2466 4.7349 -3.85538 0
M  V30 715 H 68.6606 2.78083 -5.01341 0
M  V30 716 H 67.0576 2.2227 -5.57419 0
M  V30 717 H 68.1276 1.09331 -4.72414 0
M  V30 718 N 69.4707 1.49531 0.497807 0
M  V30 719 C 70.8867 1.36365 0.829266 0
M  V30 720 C 71.0867 0.399184 1.97506 0
M  V30 721 O 70.1427 -0.167977 2.51941 0
M  V30 722 C 71.4557 2.77153 1.16647 0
M  V30 723 C 73.0037 2.85877 1.27449 0
M  V30 724 C 73.4787 4.2744 1.64497 0
M  V30 725 N 74.9697 4.30265 1.7154 0
M  V30 726 C 75.7047 5.3677 2.01656 0
M  V30 727 N 75.2007 6.53516 2.29976 0
M  V30 728 N 76.9937 5.24189 2.02934 0
M  V30 729 H 69.1447 2.10831 -0.257703 0
M  V30 730 H 71.4077 0.946534 -0.0527091 0
M  V30 731 H 71.1137 3.49442 0.397872 0
M  V30 732 H 70.9877 3.12722 2.10915 0
M  V30 733 H 73.3747 2.13824 2.0338 0
M  V30 734 H 73.4557 2.53887 0.312244 0
M  V30 735 H 73.0997 5.00021 0.891151 0
M  V30 736 H 73.0297 4.56896 2.61827 0
M  V30 737 H 75.5207 3.4607 1.51802 0
M  V30 738 H 75.8337 7.30506 2.52153 0
M  V30 739 H 74.1787 6.56737 2.27425 0
M  V30 740 H 77.3697 4.31988 1.80289 0
M  V30 741 H 77.5427 6.07286 2.26071 0
M  V30 742 N 70.9488 -0.749086 1.3866 0
M  V30 743 C 72.1888 -1.52112 1.36534 0
M  V30 744 C 72.5528 -1.91951 -0.0432316 0
M  V30 745 O 73.7538 -2.68132 -0.189396 0
M  V30 746 C 72.0248 -2.73704 2.29828 0
M  V30 747 S 73.5838 -3.63519 2.45763 0
M  V30 748 H 70.4018 -0.520482 0.484375 0
M  V30 749 H 73.0038 -0.878963 1.74627 0
M  V30 750 H 71.7078 -2.42552 3.31054 0
M  V30 751 H 71.2388 -3.4286 1.929 0
M  V30 752 H 73.2538 -4.66712 1.68505 0
M  V30 753 N 72.4269 -1.23603 -0.977757 0
M  V30 754 C 73.6739 -1.06971 -1.71941 0
M  V30 755 C 74.0019 0.393009 -1.90488 0
M  V30 756 O 73.2569 1.30719 -1.4564 0
M  V30 757 C 73.5559 -1.7433 -3.11999 0
M  V30 758 C 73.2219 -3.24252 -3.13323 0
M  V30 759 C 71.8839 -3.65156 -3.13392 0
M  V30 760 C 74.2359 -4.20141 -3.08433 0
M  V30 761 C 71.5639 -5.00403 -3.0629 0
M  V30 762 C 73.9159 -5.55384 -3.02873 0
M  V30 763 C 72.5799 -5.95647 -3.01265 0
M  V30 764 H 71.8499 -0.391433 -0.629175 0
M  V30 765 H 74.4969 -1.53572 -1.14403 0
M  V30 766 H 72.8019 -1.20096 -3.7294 0
M  V30 767 H 74.4989 -1.58936 -3.68158 0
M  V30 768 H 71.0889 -2.91692 -3.14029 0
M  V30 769 H 75.2729 -3.89547 -3.07517 0
M  V30 770 H 70.5289 -5.3081 -3.03399 0
M  V30 771 H 74.7029 -6.29398 -2.98046 0
M  V30 772 H 72.3299 -7.0041 -2.95516 0
M  V30 773 N 73.905 1.17692 -1.04816 0
M  V30 774 C 75.153 1.87488 -0.754497 0
M  V30 775 C 75.474 1.81205 0.720407 0
M  V30 776 O 74.744 1.23544 1.52032 0
M  V30 777 H 73.324 0.694101 -0.276102 0
M  V30 778 H 75.986 1.42793 -1.32651 0
M  V30 779 H 75.082 2.93328 -1.06606 0
M  V30 780 N 75.3831 0.828654 1.34056 0
M  V30 781 C 76.2931 0.256725 2.33191 0
M  V30 782 C 77.3091 -0.611898 1.62886 0
M  V30 783 O 78.4851 -0.51844 1.94613 0
M  V30 784 C 75.5501 -0.567238 3.42028 0
M  V30 785 C 74.6111 0.324458 4.28072 0
M  V30 786 C 73.8441 -0.460274 5.31712 0
M  V30 787 O 74.0671 -1.693 5.44696 0
M  V30 788 O 73.0011 0.160391 6.01686 0
M  V30 789 H 76.8271 1.07739 2.83947 0
M  V30 790 H 74.4121 0.59093 1.37217 0
M  V30 791 H 76.2941 -1.03582 4.08471 0
M  V30 792 H 74.9691 -1.36513 2.93506 0
M  V30 793 H 73.8761 0.840659 3.64532 0
M  V30 794 H 75.2091 1.08685 4.8005 0
M  V30 795 N 76.8612 -1.46375 0.584142 0
M  V30 796 C 78.0862 -2.07268 0.0740405 0
M  V30 797 C 78.5112 -1.42979 -1.22223 0
M  V30 798 O 77.8692 -0.514092 -1.73859 0
M  V30 799 C 77.9172 -3.60518 -0.0767769 0
M  V30 800 O 77.0212 -3.96533 -1.13292 0
M  V30 801 H 76.3622 -0.660961 0.0634524 0
M  V30 802 H 78.8922 -1.87991 0.807492 0
M  V30 803 H 78.9022 -4.07021 -0.282489 0
M  V30 804 H 77.5772 -4.06702 0.86986 0
M  V30 805 H 76.1542 -3.61738 -0.905553 0
M  V30 806 N 78.3393 -0.321999 -1.54275 0
M  V30 807 C 79.2493 0.553631 -2.27974 0
M  V30 808 C 80.2653 1.13054 -1.32268 0
M  V30 809 O 81.4413 1.15084 -1.6528 0
M  V30 810 C 78.5063 1.69927 -3.02201 0
M  V30 811 C 77.5673 1.15433 -4.1349 0
M  V30 812 C 76.8003 2.24537 -4.84168 0
M  V30 813 O 77.0233 3.44852 -4.5435 0
M  V30 814 O 75.9573 1.90044 -5.7111 0
M  V30 815 H 79.7833 -0.0448345 -3.03667 0
M  V30 816 H 77.3683 -0.0877418 -1.49142 0
M  V30 817 H 79.2503 2.3663 -3.48689 0
M  V30 818 H 77.9253 2.28395 -2.29385 0
M  V30 819 H 76.8323 0.452436 -3.71354 0
M  V30 820 H 78.1653 0.614805 -4.88345 0
M  V30 821 N 79.8174 1.5752 -0.0501392 0
M  V30 822 C 81.0634 1.92936 0.624798 0
M  V30 823 C 81.3964 0.928685 1.70555 0
M  V30 824 O 80.6714 -0.0454779 1.94447 0
M  V30 825 C 80.9544 3.38737 1.22185 0
M  V30 826 C 80.8074 4.49552 0.149218 0
M  V30 827 C 82.1264 3.84913 2.13378 0
M  V30 828 H 79.2454 0.701604 0.225657 0
M  V30 829 H 81.8874 1.89671 -0.111693 0
M  V30 830 H 80.0374 3.4165 1.84953 0
M  V30 831 H 81.7094 4.58768 -0.482648 0
M  V30 832 H 79.9524 4.30638 -0.522841 0
M  V30 833 H 80.6234 5.48653 0.606966 0
M  V30 834 H 83.0994 3.8387 1.60572 0
M  V30 835 H 81.9754 4.87584 2.52097 0
M  V30 836 H 82.2364 3.21611 3.03346 0
M  V30 837 N 81.2955 -0.223234 1.56011 0
M  V30 838 C 82.5205 -0.968978 1.83373 0
M  V30 839 C 82.9455 -1.77227 0.630254 0
M  V30 840 O 82.3035 -1.76345 -0.420959 0
M  V30 841 C 82.3515 -1.86363 3.08709 0
M  V30 842 O 81.4555 -2.95873 2.87285 0
M  V30 843 H 80.7965 -0.274461 0.604622 0
M  V30 844 H 83.3265 -0.237056 2.03222 0
M  V30 845 H 83.3365 -2.27376 3.38768 0
M  V30 846 H 82.0115 -1.27319 3.95933 0
M  V30 847 H 80.5885 -2.58818 2.68454 0
M  V30 848 N 82.7736 -1.49793 -0.48987 0
M  V30 849 C 84.0196 -1.61049 -1.24236 0
M  V30 850 C 84.3746 -0.298412 -1.90072 0
M  V30 851 O 83.6676 0.702262 -1.78266 0
M  V30 852 C 83.8616 -2.71488 -2.32441 0
M  V30 853 C 83.6906 -4.13308 -1.77218 0
M  V30 854 C 82.4606 -4.79955 -1.58023 0
M  V30 855 C 84.6586 -4.98176 -1.27772 0
M  V30 856 N 82.6406 -6.06052 -0.978465 0
M  V30 857 C 84.0116 -6.14843 -0.798 0
M  V30 858 C 86.0666 -4.84091 -1.16449 0
M  V30 859 C 84.7696 -7.18975 -0.216245 0
M  V30 860 C 86.7956 -5.88382 -0.596698 0
M  V30 861 C 86.1576 -7.04285 -0.127262 0
M  V30 862 H 82.2566 -0.643611 -0.444172 0
M  V30 863 H 84.8406 -1.86842 -0.54754 0
M  V30 864 H 83.0116 -2.47449 -2.99372 0
M  V30 865 H 84.7436 -2.72205 -2.99477 0
M  V30 866 H 81.4986 -4.36936 -1.82712 0
M  V30 867 H 81.9226 -6.73407 -0.696534 0
M  V30 868 H 86.5646 -3.94786 -1.5134 0
M  V30 869 H 84.2826 -8.0797 0.144903 0
M  V30 870 H 87.8686 -5.79545 -0.511716 0
M  V30 871 H 86.7486 -7.83606 0.30523 0
M  V30 872 N 84.2517 0.741722 -1.39055 0
M  V30 873 C 85.1837 1.8657 -1.33133 0
M  V30 874 C 86.1967 1.61001 -0.241329 0
M  V30 875 O 87.3857 1.7136 -0.499784 0
M  V30 876 C 84.4857 3.22457 -1.04283 0
M  V30 877 C 83.6587 3.75435 -2.24427 0
M  V30 878 C 82.7177 4.89867 -1.92138 0
M  V30 879 O 81.7437 5.03879 -2.64754 0
M  V30 880 N 82.9457 5.73738 -0.88347 0
M  V30 881 H 85.7107 1.92156 -2.29991 0
M  V30 882 H 83.2717 0.922172 -1.3307 0
M  V30 883 H 85.2637 3.9657 -0.807128 0
M  V30 884 H 83.8337 3.12181 -0.161807 0
M  V30 885 H 83.0537 2.92751 -2.6399 0
M  V30 886 H 84.3417 4.07563 -3.04581 0
M  V30 887 H 83.7397 5.64999 -0.281517 0
M  V30 888 H 82.2967 6.47947 -0.707662 0
M  V30 889 N 85.7298 1.2412 0.971189 0
M  V30 890 C 86.9598 1.10415 1.7462 0
M  V30 891 C 87.3678 -0.346462 1.86001 0
M  V30 892 O 86.7108 -1.25104 1.34517 0
M  V30 893 C 86.7728 1.66596 3.18568 0
M  V30 894 C 86.4368 3.15446 3.3067 0
M  V30 895 C 87.4338 4.12636 3.16271 0
M  V30 896 C 85.1188 3.55337 3.55022 0
M  V30 897 C 87.1128 5.47699 3.26044 0
M  V30 898 C 84.7998 4.90542 3.64434 0
M  V30 899 C 85.7978 5.86532 3.49956 0
M  V30 900 O 85.4858 7.19279 3.59017 0
M  V30 901 H 85.2178 0.386616 0.55453 0
M  V30 902 H 87.7718 1.64633 1.22821 0
M  V30 903 H 86.0018 1.06808 3.71657 0
M  V30 904 H 87.6908 1.48232 3.77865 0
M  V30 905 H 88.4568 3.8316 2.97344 0
M  V30 906 H 84.3358 2.8113 3.65359 0
M  V30 907 H 87.8798 6.22603 3.14661 0
M  V30 908 H 83.7768 5.19691 3.82873 0
M  V30 909 H 84.5448 7.27153 3.75754 0
M  V30 910 N 87.2079 -1.17134 1.05439 0
M  V30 911 C 88.6189 -1.69084 0.791676 0
M  V30 912 C 88.9699 -1.83822 -0.685839 0
M  V30 913 O 88.0949 -1.52757 -1.53278 0
M  V30 914 C 88.6899 -3.07119 1.4305 0
M  V30 915 C 87.2489 -3.56225 1.21577 0
M  V30 916 C 86.3959 -2.32421 1.51247 0
M  V30 917 H 89.3469 -1.01617 1.219 0
M  V30 918 H 89.3679 -3.71087 0.84112 0
M  V30 919 H 88.8799 -2.9636 2.50584 0
M  V30 920 H 86.9809 -3.72257 0.159787 0
M  V30 921 H 87.0939 -4.38837 1.92246 0
M  V30 922 H 85.4579 -2.3701 0.932653 0
M  V30 923 H 86.2409 -2.24268 2.5992 0
M  V30 924 N 88.686 -0.835752 -1.33615 0
M  V30 925 C 89.619 -0.211815 -2.27215 0
M  V30 926 C 90.597 0.639249 -1.49507 0
M  V30 927 O 91.781 0.600193 -1.78689 0
M  V30 928 C 88.908 0.702893 -3.31326 0
M  V30 929 C 87.954 -0.0723049 -4.26439 0
M  V30 930 S 88.787 -1.42811 -5.16106 0
M  V30 931 C 89.943 -0.518613 -6.23748 0
M  V30 932 H 90.176 -1.00533 -2.79786 0
M  V30 933 H 87.709 -0.632336 -1.40858 0
M  V30 934 H 89.667 1.22505 -3.91794 0
M  V30 935 H 88.328 1.47004 -2.77576 0
M  V30 936 H 87.521 0.62359 -5.00127 0
M  V30 937 H 87.123 -0.525424 -3.70291 0
M  V30 938 H 89.415 0.284778 -6.76901 0
M  V30 939 H 90.358 -1.22556 -6.97413 0
M  V30 940 H 90.766 -0.101344 -5.64409 0
M  V30 941 N 90.1641 1.46063 -0.591896 0
M  V30 942 C 91.3891 2.07226 -0.0850314 0
M  V30 943 C 91.8141 1.43625 1.21463 0
M  V30 944 O 91.1721 0.523305 1.73583 0
M  V30 945 C 91.2201 3.60554 0.0576567 0
M  V30 946 O 90.3241 3.97128 1.11188 0
M  V30 947 H 89.6651 0.660615 -0.0669568 0
M  V30 948 H 92.1951 1.8756 -0.81745 0
M  V30 949 H 92.2051 4.07165 0.2609 0
M  V30 950 H 90.8801 4.06235 -0.891416 0
M  V30 951 H 89.4571 3.62213 0.886356 0
M  V30 952 N 91.6422 0.330177 1.54103 0
M  V30 953 C 92.5522 -0.541534 2.28264 0
M  V30 954 C 93.5682 -1.12351 1.32866 0
M  V30 955 O 94.7442 -1.14206 1.65888 0
M  V30 956 C 91.8092 -1.68322 3.03098 0
M  V30 957 C 90.8702 -1.13238 4.14096 0
M  V30 958 C 90.1032 -2.21966 4.85352 0
M  V30 959 O 90.3262 -3.42437 4.56172 0
M  V30 960 O 89.2602 -1.87013 5.7211 0
M  V30 961 H 93.0862 0.060938 3.03639 0
M  V30 962 H 90.6712 0.09565 1.49093 0
M  V30 963 H 92.5532 -2.34777 3.49939 0
M  V30 964 H 91.2282 -2.27176 2.30593 0
M  V30 965 H 90.1352 -0.432736 3.71589 0
M  V30 966 H 91.4682 -0.588898 4.88664 0
M  V30 967 N 93.1203 -1.57491 0.0584922 0
M  V30 968 C 94.0303 -2.15448 -0.928414 0
M  V30 969 C 95.0463 -1.11416 -1.3365 0
M  V30 970 O 96.2223 -1.4362 -1.41193 0
M  V30 971 C 93.2873 -2.69393 -2.18239 0
M  V30 972 C 92.3483 -3.88249 -1.83196 0
M  V30 973 C 91.5813 -4.39613 -3.02616 0
M  V30 974 O 91.8043 -3.90023 -4.16219 0
M  V30 975 O 90.7383 -5.31111 -2.83204 0
M  V30 976 H 94.5643 -3.00112 -0.465483 0
M  V30 977 H 92.1493 -1.48499 -0.163826 0
M  V30 978 H 94.0313 -3.04026 -2.91798 0
M  V30 979 H 92.7063 -1.87796 -2.63656 0
M  V30 980 H 91.6133 -3.58492 -1.06931 0
M  V30 981 H 92.9463 -4.71098 -1.42573 0
M  V30 982 N 94.5984 0.214957 -1.56127 0
M  V30 983 C 95.5084 1.28727 -1.96129 0
M  V30 984 C 96.5244 1.50916 -0.866044 0
M  V30 985 O 97.7004 1.63918 -1.17016 0
M  V30 986 C 94.7654 2.61569 -2.27558 0
M  V30 987 C 93.8264 2.47625 -3.50685 0
M  V30 988 C 93.0594 3.74132 -3.80606 0
M  V30 989 O 93.2824 4.77438 -3.12104 0
M  V30 990 O 92.2164 3.70849 -4.74083 0
M  V30 991 H 96.0424 0.977855 -2.87527 0
M  V30 992 H 93.6274 0.418358 -1.43423 0
M  V30 993 H 95.5094 3.40012 -2.48938 0
M  V30 994 H 94.1844 2.92178 -1.39332 0
M  V30 995 H 93.0914 1.67361 -3.34576 0
M  V30 996 H 94.4244 2.21954 -4.39315 0
M  V30 997 N 96.0765 1.50051 0.48192 0
M  V30 998 C 97.3015 1.64508 1.26301 0
M  V30 999 C 97.7265 0.323851 1.85291 0
M  V30 1000 O 97.0845 -0.710969 1.66778 0
M  V30 1001 C 97.1325 2.7305 2.35533 0
M  V30 1002 O 96.2365 2.3355 3.39895 0
M  V30 1003 H 95.5775 0.549978 0.372048 0
M  V30 1004 H 98.1075 1.9636 0.574786 0
M  V30 1005 H 98.1175 2.95799 2.8101 0
M  V30 1006 H 96.7925 3.68946 1.91967 0
M  V30 1007 H 95.3695 2.21205 3.00204 0
M  V30 1008 N 97.5546 -0.734337 1.39446 0
M  V30 1009 C 98.7796 -1.52866 1.40167 0
M  V30 1010 C 99.2046 -1.881 -0.00171513 0
M  V30 1011 O 98.5626 -1.51957 -0.988879 0
M  V30 1012 C 98.6106 -2.79235 2.28167 0
M  V30 1013 O 97.7146 -3.75185 1.71201 0
M  V30 1014 H 97.0556 -0.461618 0.477289 0
M  V30 1015 H 99.5856 -0.905949 1.8345 0
M  V30 1016 H 99.5956 -3.27963 2.42702 0
M  V30 1017 H 98.2706 -2.52923 3.30156 0
M  V30 1018 H 96.8476 -3.33958 1.65912 0
M  V30 1019 N 99.0327 -1.24633 -0.964593 0
M  V30 1020 C 100.31 -0.995809 -1.68354 0
M  V30 1021 C 100.69 0.480964 -2.05548 0
M  V30 1022 O 100.038 1.45599 -1.76105 0
M  V30 1023 C 100.248 -1.92177 -2.91323 0
M  V30 1024 C 101.596 -2.19446 -3.63495 0
M  V30 1025 O 102.62 -1.89855 -3.01386 0
M  V30 1026 O 101.479 -2.69714 -4.75307 0
M  V30 1027 H 98.5727 -0.376854 -0.736146 0
M  V30 1028 H 101.119 -1.35745 -1.0184 0
M  V30 1029 H 99.8907 -2.91938 -2.60553 0
M  V30 1030 H 99.5137 -1.56349 -3.65569 0
M  V30 1031 N 100.511 1.16574 -1.06058 0
M  V30 1032 C 101.757 1.87324 -0.777022 0
M  V30 1033 C 102.09 1.81351 0.694645 0
M  V30 1034 O 101.365 1.22753 1.50871 0
M  V30 1035 C 101.648 3.36991 -1.26922 0
M  V30 1036 C 101.501 3.51667 -2.80447 0
M  V30 1037 C 102.82 4.3131 -0.87521 0
M  V30 1038 H 99.9388 0.680191 -0.28374 0
M  V30 1039 H 102.581 1.37036 -1.3161 0
M  V30 1040 H 100.731 3.79949 -0.81063 0
M  V30 1041 H 102.403 3.17664 -3.34495 0
M  V30 1042 H 100.646 2.93656 -3.19294 0
M  V30 1043 H 101.317 4.56766 -3.0995 0
M  V30 1044 H 103.793 3.9624 -1.27014 0
M  V30 1045 H 102.669 5.34545 -1.2471 0
M  V30 1046 H 102.93 4.41552 0.220071 0
M  V30 1047 N 101.989 0.842826 1.3317 0
M  V30 1048 C 102.899 0.281444 2.32906 0
M  V30 1049 C 103.915 -0.594587 1.63526 0
M  V30 1050 O 105.091 -0.49777 1.95152 0
M  V30 1051 C 102.156 -0.530929 3.42611 0
M  V30 1052 C 101.217 0.369843 4.27704 0
M  V30 1053 C 100.45 -0.403853 5.3217 0
M  V30 1054 O 100.673 -1.63513 5.46461 0
M  V30 1055 O 99.6069 0.224199 6.01482 0
M  V30 1056 H 103.433 1.10744 2.82789 0
M  V30 1057 H 101.018 0.60545 1.36582 0
M  V30 1058 H 102.9 -0.992437 4.09547 0
M  V30 1059 H 101.575 -1.33392 2.94938 0
M  V30 1060 H 100.482 0.879275 3.6362 0
M  V30 1061 H 101.815 1.13771 4.78871 0
M  V30 1062 N 103.467 -1.45747 0.599634 0
M  V30 1063 C 104.716 -2.01502 0.0893511 0
M  V30 1064 C 105.029 -1.4748 -1.28488 0
M  V30 1065 O 106.235 -1.95161 -1.88745 0
M  V30 1066 C 104.691 -3.59735 0.109082 0
M  V30 1067 C 104.299 -4.22754 1.48267 0
M  V30 1068 C 106.043 -4.23085 -0.346374 0
M  V30 1069 C 103.95 -5.73115 1.45921 0
M  V30 1070 H 102.88 -0.753417 0.0296347 0
M  V30 1071 H 105.531 -1.67303 0.753788 0
M  V30 1072 H 103.913 -3.91087 -0.621854 0
M  V30 1073 H 105.087 -4.02987 2.23468 0
M  V30 1074 H 103.402 -3.71567 1.87955 0
M  V30 1075 H 105.999 -5.33327 -0.38298 0
M  V30 1076 H 106.342 -3.93201 -1.36743 0
M  V30 1077 H 106.875 -3.9642 0.331038 0
M  V30 1078 H 103.614 -6.07685 2.45762 0
M  V30 1079 H 103.134 -5.95097 0.749665 0
M  V30 1080 H 104.813 -6.3616 1.17941 0
M  V30 1081 N 104.945 -0.338344 -1.53925 0
M  V30 1082 C 106.361 0.0137736 -1.59594 0
M  V30 1083 C 106.561 1.49186 -1.35447 0
M  V30 1084 O 105.617 2.24987 -1.14616 0
M  V30 1085 C 106.93 -0.41773 -2.97784 0
M  V30 1086 C 108.478 -0.369633 -3.1081 0
M  V30 1087 C 108.953 -0.776524 -4.51369 0
M  V30 1088 N 110.444 -0.730506 -4.57403 0
M  V30 1089 C 111.179 -1.01736 -5.64303 0
M  V30 1090 N 110.675 -1.3721 -6.79077 0
M  V30 1091 N 112.468 -0.941942 -5.54151 0
M  V30 1092 H 104.619 -1.3012 -1.67876 0
M  V30 1093 H 106.882 -0.530082 -0.78595 0
M  V30 1094 H 106.588 -1.44811 -3.20504 0
M  V30 1095 H 106.462 0.209729 -3.76616 0
M  V30 1096 H 108.849 0.651568 -2.87817 0
M  V30 1097 H 108.93 -1.03223 -2.34049 0
M  V30 1098 H 108.574 -1.79571 -4.75096 0
M  V30 1099 H 108.504 -0.0914649 -5.26521 0
M  V30 1100 H 110.995 -0.468783 -3.74981 0
M  V30 1101 H 111.308 -1.57597 -7.5656 0
M  V30 1102 H 109.653 -1.4105 -6.80536 0
M  V30 1103 H 112.844 -0.664184 -4.63364 0
M  V30 1104 H 113.017 -1.16884 -6.37371 0
M  V30 1105 N 106.423 1.57458 -0.0668435 0
M  V30 1106 C 107.371 2.13639 0.919851 0
M  V30 1107 C 108.365 1.07204 1.31163 0
M  V30 1108 O 109.571 1.25591 1.28945 0
M  V30 1109 H 105.946 0.683048 0.314562 0
M  V30 1110 H 107.917 2.95415 0.421047 0
M  V30 1111 C 106.666 2.70892 2.17975 0
M  V30 1112 H 105.989 3.5246 1.88711 0
M  V30 1113 H 107.429 3.13803 2.85138 0
M  V30 1114 C 105.888 1.65414 2.93496 0
M  V30 1115 O 106.418 1.07619 3.87015 0
M  V30 1116 N 104.624 1.36564 2.56512 0
M  V30 1117 H 104.171 1.83751 1.80536 0
M  V30 1118 H 104.129 0.66223 3.07347 0
M  V30 1119 N 107.901 -0.206675 1.56239 0
M  V30 1120 C 108.811 -1.27686 1.96808 0
M  V30 1121 C 109.827 -1.50455 0.874035 0
M  V30 1122 O 111.003 -1.63295 1.17884 0
M  V30 1123 C 108.068 -2.60358 2.28942 0
M  V30 1124 C 107.129 -2.45762 3.51994 0
M  V30 1125 C 106.362 -3.72108 3.82585 0
M  V30 1126 O 106.585 -4.75776 3.14631 0
M  V30 1127 O 105.519 -3.6833 4.76043 0
M  V30 1128 H 109.345 -0.962593 2.88041 0
M  V30 1129 H 106.93 -0.410746 1.43643 0
M  V30 1130 H 108.812 -3.38687 2.50737 0
M  V30 1131 H 107.487 -2.91435 1.4088 0
M  V30 1132 H 106.394 -1.65584 3.35459 0
M  V30 1133 H 107.727 -2.19621 4.40486 0
M  V30 1134 N 109.379 -1.50304 -0.473955 0
M  V30 1135 C 110.289 -1.7174 -1.5982 0
M  V30 1136 C 111.305 -0.600457 -1.63311 0
M  V30 1137 O 112.481 -0.878441 -1.81233 0
M  V30 1138 C 109.546 -1.80427 -2.96052 0
M  V30 1139 C 108.607 -3.04148 -3.02972 0
M  V30 1140 C 107.84 -3.12411 -4.32706 0
M  V30 1141 O 108.063 -2.27542 -5.23049 0
M  V30 1142 O 106.997 -4.05113 -4.45159 0
M  V30 1143 H 110.823 -2.67035 -1.44657 0
M  V30 1144 H 108.408 -1.34366 -0.653148 0
M  V30 1145 H 110.29 -1.88338 -3.7697 0
M  V30 1146 H 108.965 -0.883156 -3.11419 0
M  V30 1147 H 107.872 -3.0174 -2.21142 0
M  V30 1148 H 109.205 -3.95829 -2.92541 0
M  V30 1149 N 110.857 0.726932 -1.39834 0
M  V30 1150 C 111.805 1.86235 -1.39353 0
M  V30 1151 C 112.799 1.67144 -0.275555 0
M  V30 1152 O 114.005 1.74387 -0.44601 0
M  V30 1153 H 110.38 0.613174 -0.43534 0
M  V30 1154 H 112.351 1.83756 -2.35109 0
M  V30 1155 C 111.1 3.23995 -1.26185 0
M  V30 1156 H 110.423 3.39285 -2.11484 0
M  V30 1157 H 111.863 4.03609 -1.29907 0
M  V30 1158 C 110.322 3.36888 0.0290018 0
M  V30 1159 O 110.852 3.89152 0.99619 0
M  V30 1160 N 109.058 2.90446 0.0947437 0
M  V30 1161 H 108.605 2.48102 -0.693035 0
M  V30 1162 H 108.563 2.99451 0.957932 0
M  V30 1163 N 112.336 1.25143 0.95797 0
M  V30 1164 C 113.284 1.05019 2.07542 0
M  V30 1165 C 114.278 -0.0178751 1.69391 0
M  V30 1166 O 115.484 0.137472 1.79474 0
M  V30 1167 H 111.859 0.32265 0.679265 0
M  V30 1168 H 113.83 1.99759 2.21673 0
M  V30 1169 C 112.579 0.682074 3.40944 0
M  V30 1170 H 111.902 1.49573 3.70767 0
M  V30 1171 H 113.342 0.580945 4.20001 0
M  V30 1172 C 111.801 -0.611608 3.31302 0
M  V30 1173 O 112.331 -1.65465 3.66038 0
M  V30 1174 N 110.537 -0.595982 2.84423 0
M  V30 1175 H 110.084 0.253192 2.56353 0
M  V30 1176 H 110.042 -1.46173 2.78354 0
M  V30 1177 N 113.814 -1.1601 1.06675 0
M  V30 1178 C 115.039 -1.91068 0.806706 0
M  V30 1179 C 115.464 -1.77112 -0.633485 0
M  V30 1180 O 114.822 -1.09908 -1.44187 0
M  V30 1181 C 114.87 -3.39655 1.21106 0
M  V30 1182 O 113.974 -4.10893 0.352189 0
M  V30 1183 H 113.315 -0.595125 0.294486 0
M  V30 1184 H 115.845 -1.46955 1.42356 0
M  V30 1185 H 115.855 -3.90434 1.18428 0
M  V30 1186 H 114.53 -3.49132 2.26008 0
M  V30 1187 H 113.107 -3.70285 0.440868 0
M  V30 1188 N 115.292 -0.849877 -1.32721 0
M  V30 1189 C 116.54 -0.450032 -1.97026 0
M  V30 1190 C 116.861 0.996604 -1.67609 0
M  V30 1191 O 116.131 1.6958 -0.980786 0
M  V30 1192 H 114.711 -0.163426 -0.728904 0
M  V30 1193 H 117.373 -1.08526 -1.6189 0
M  V30 1194 H 116.469 -0.591146 -3.0645 0
M  V30 1195 N 116.77 1.45427 -0.607355 0
M  V30 1196 C 117.7 2.3329 0.0989352 0
M  V30 1197 C 118.681 1.46816 0.859007 0
M  V30 1198 O 119.866 1.75588 0.829604 0
M  V30 1199 C 116.996 3.29518 1.09705 0
M  V30 1200 C 115.95 4.25626 0.450206 0
M  V30 1201 C 115.276 5.11542 1.55655 0
M  V30 1202 C 116.576 5.18505 -0.628455 0
M  V30 1203 H 118.27 2.92595 -0.634716 0
M  V30 1204 H 115.816 1.40696 -0.306681 0
M  V30 1205 H 117.769 3.89855 1.59971 0
M  V30 1206 H 116.493 2.68372 1.86129 0
M  V30 1207 H 115.152 3.66586 -0.0315886 0
M  V30 1208 H 114.8 4.46765 2.31107 0
M  V30 1209 H 114.5 5.76647 1.12925 0
M  V30 1210 H 116.024 5.74748 2.06148 0
M  V30 1211 H 117.438 5.72916 -0.209877 0
M  V30 1212 H 115.835 5.92085 -0.977489 0
M  V30 1213 H 116.905 4.60948 -1.50514 0
M  V30 1214 N 118.248 0.346503 1.53744 0
M  V30 1215 C 119.495 -0.249104 2.00962 0
M  V30 1216 C 119.823 -1.5032 1.23426 0
M  V30 1217 O 119.078 -1.93217 0.310761 0
M  V30 1218 C 119.377 -0.605809 3.52228 0
M  V30 1219 C 119.043 0.551747 4.47512 0
M  V30 1220 C 117.705 0.86941 4.73281 0
M  V30 1221 C 120.057 1.32818 5.03993 0
M  V30 1222 C 117.385 1.96582 5.52786 0
M  V30 1223 C 119.737 2.41486 5.84694 0
M  V30 1224 C 118.401 2.73808 6.08757 0
M  V30 1225 H 117.671 -0.0911538 0.735372 0
M  V30 1226 H 120.318 0.475027 1.85515 0
M  V30 1227 H 118.623 -1.4107 3.65522 0
M  V30 1228 H 120.32 -1.07858 3.86222 0
M  V30 1229 H 116.91 0.294102 4.2759 0
M  V30 1230 H 121.094 1.09602 4.84047 0
M  V30 1231 H 116.35 2.22045 5.69654 0
M  V30 1232 H 120.524 3.02078 6.27473 0
M  V30 1233 H 118.151 3.58892 6.7015 0
M  V30 1234 N 119.726 -1.57421 0.075193 0
M  V30 1235 C 120.972 -1.93905 -0.594025 0
M  V30 1236 C 121.305 -0.955701 -1.69056 0
M  V30 1237 O 120.58 0.0145373 -1.94495 0
M  V30 1238 C 120.863 -3.40638 -1.1678 0
M  V30 1239 C 120.716 -4.49733 -0.0776792 0
M  V30 1240 C 122.035 -3.88259 -2.07228 0
M  V30 1241 H 119.154 -0.705105 -0.214466 0
M  V30 1242 H 121.796 -1.8947 0.141854 0
M  V30 1243 H 119.946 -3.44549 -1.79494 0
M  V30 1244 H 121.618 -4.57942 0.555573 0
M  V30 1245 H 119.861 -4.29751 0.591286 0
M  V30 1246 H 120.532 -5.49549 -0.519603 0
M  V30 1247 H 123.008 -3.86376 -1.54445 0
M  V30 1248 H 121.884 -4.91533 -2.44308 0
M  V30 1249 H 122.145 -3.26396 -2.98191 0
M  V30 1250 N 121.204 0.198386 -1.56346 0
M  V30 1251 C 122.432 0.935572 -1.84539 0
M  V30 1252 C 122.847 1.76989 -0.657281 0
M  V30 1253 O 122.204 1.78626 0.374043 0
M  V30 1254 C 122.255 1.8344 -3.11499 0
M  V30 1255 O 121.976 1.03377 -4.25728 0
M  V30 1256 C 123.477 2.68355 -3.52846 0
M  V30 1257 H 120.697 0.273126 -0.612897 0
M  V30 1258 H 123.241 0.20663 -2.03453 0
M  V30 1259 H 121.396 2.51701 -2.94492 0
M  V30 1260 H 121.81 1.64599 -4.98003 0
M  V30 1261 H 123.284 3.27085 -4.44657 0
M  V30 1262 H 123.761 3.41901 -2.75681 0
M  V30 1263 H 124.367 2.05471 -3.72373 0
M  V30 1264 N 122.682 1.50554 0.465978 0
M  V30 1265 C 123.928 1.62038 1.21949 0
M  V30 1266 C 124.261 0.322116 1.9151 0
M  V30 1267 O 123.536 -0.676723 1.82348 0
M  V30 1268 C 123.819 2.80421 2.25912 0
M  V30 1269 C 123.672 4.20144 1.60622 0
M  V30 1270 C 124.991 2.94354 3.27176 0
M  V30 1271 H 122.11 0.589752 0.441998 0
M  V30 1272 H 124.752 1.82956 0.51257 0
M  V30 1273 H 122.902 2.62717 2.86203 0
M  V30 1274 H 124.574 4.49449 1.03889 0
M  V30 1275 H 122.817 4.24165 0.909211 0
M  V30 1276 H 123.488 4.98914 2.36196 0
M  V30 1277 H 125.964 3.10578 2.76913 0
M  V30 1278 H 124.84 3.788 3.97242 0
M  V30 1279 H 125.101 2.05186 3.916 0
M  V30 1280 N 124.16 -0.719506 1.40217 0
M  V30 1281 C 125.09 -1.8465 1.42922 0
M  V30 1282 C 126.071 -1.67599 0.29062 0
M  V30 1283 O 127.256 -1.87688 0.498677 0
M  V30 1284 C 124.386 -3.22565 1.28722 0
M  V30 1285 C 123.34 -3.54281 2.40144 0
M  V30 1286 C 122.666 -4.91298 2.11023 0
M  V30 1287 C 123.966 -3.55676 3.82481 0
M  V30 1288 H 125.66 -1.82644 2.37237 0
M  V30 1289 H 123.206 -0.877305 1.1419 0
M  V30 1290 H 125.159 -4.01095 1.29232 0
M  V30 1291 H 123.883 -3.25137 0.308811 0
M  V30 1292 H 122.542 -2.78088 2.38877 0
M  V30 1293 H 122.19 -4.90468 1.11582 0
M  V30 1294 H 121.89 -5.13485 2.8567 0
M  V30 1295 H 123.414 -5.72166 2.13209 0
M  V30 1296 H 124.828 -4.24254 3.85592 0
M  V30 1297 H 123.225 -3.89388 4.56614 0
M  V30 1298 H 124.295 -2.55144 4.12346 0
M  V30 1299 N 125.638 -1.25649 -0.95132 0
M  V30 1300 C 126.548 -1.08073 -2.08224 0
M  V30 1301 C 127.564 -0.0169666 -1.73992 0
M  V30 1302 O 128.74 -0.218593 -2.0021 0
M  V30 1303 C 125.805 -0.704922 -3.39458 0
M  V30 1304 C 124.866 -1.84699 -3.87537 0
M  V30 1305 C 124.099 -1.48902 -5.12508 0
M  V30 1306 O 124.322 -0.386156 -5.69091 0
M  V30 1307 O 123.256 -2.32033 -5.55378 0
M  V30 1308 H 127.082 -2.02924 -2.25954 0
M  V30 1309 H 124.667 -1.04618 -1.06656 0
M  V30 1310 H 126.549 -0.507609 -4.18332 0
M  V30 1311 H 125.224 0.214291 -3.2299 0
M  V30 1312 H 124.131 -2.09919 -3.09653 0
M  V30 1313 H 125.464 -2.74557 -4.08509 0
M  V30 1314 N 127.117 1.15442 -1.07289 0
M  V30 1315 C 128.363 1.86489 -0.796846 0
M  V30 1316 C 128.696 1.82078 0.675371 0
M  V30 1317 O 127.971 1.24346 1.4956 0
M  V30 1318 C 128.254 3.35626 -1.30489 0
M  V30 1319 C 128.107 3.48673 -2.84161 0
M  V30 1320 C 129.426 4.30357 -0.920907 0
M  V30 1321 H 126.545 0.677144 -0.290939 0
M  V30 1322 H 129.187 1.35633 -1.33056 0
M  V30 1323 H 127.337 3.79068 -0.850883 0
M  V30 1324 H 129.009 3.14099 -3.37846 0
M  V30 1325 H 127.252 2.90253 -3.22391 0
M  V30 1326 H 127.923 4.53453 -3.14777 0
M  V30 1327 H 130.399 3.94871 -1.3121 0
M  V30 1328 H 129.275 5.33193 -1.30372 0
M  V30 1329 H 129.536 4.4176 0.173226 0
M  V30 1330 N 128.595 0.856903 1.32268 0
M  V30 1331 C 129.82 0.474569 2.01897 0
M  V30 1332 C 130.245 -0.921766 1.63967 0
M  V30 1333 O 129.603 -1.60589 0.84148 0
M  V30 1334 C 129.651 0.623799 3.55164 0
M  V30 1335 O 128.755 -0.342459 4.10976 0
M  V30 1336 H 128.096 0.190422 0.63611 0
M  V30 1337 H 130.626 1.15672 1.68764 0
M  V30 1338 H 130.636 0.512169 4.04773 0
M  V30 1339 H 129.311 1.64202 3.82113 0
M  V30 1340 H 127.888 -0.18688 3.72431 0
M  V30 1341 N 130.073 -1.45103 0.615059 0
M  V30 1342 C 131.298 -2.07064 0.117988 0
M  V30 1343 C 131.723 -1.4554 -1.19163 0
M  V30 1344 O 131.081 -0.550855 -1.72729 0
M  V30 1345 C 131.129 -3.606 -0.000288387 0
M  V30 1346 O 130.233 -3.98847 -1.04856 0
M  V30 1347 H 129.574 -0.659467 0.0774581 0
M  V30 1348 H 132.104 -1.86236 0.847186 0
M  V30 1349 H 132.114 -4.07529 -0.196091 0
M  V30 1350 H 130.789 -4.04765 0.955932 0
M  V30 1351 H 129.366 -3.63577 -0.828619 0
M  V30 1352 N 131.551 -0.354651 -1.53558 0
M  V30 1353 C 132.514 0.484566 -2.24019 0
M  V30 1354 C 133.514 1.01861 -1.24422 0
M  V30 1355 O 134.704 0.906097 -1.4878 0
M  V30 1356 C 131.836 1.67615 -2.96847 0
M  V30 1357 H 133.029 -0.131843 -2.9961 0
M  V30 1358 H 130.582 -0.106165 -1.55939 0
M  V30 1359 H 131.317 2.33095 -2.25471 0
M  V30 1360 H 131.102 1.30029 -3.69912 0
M  V30 1361 H 132.592 2.27114 -3.50441 0
M  V30 1362 N 133.029 1.57378 -0.0835403 0
M  V30 1363 C 134.254 1.98682 0.594987 0
M  V30 1364 C 134.679 0.961969 1.61641 0
M  V30 1365 O 134.037 -0.0709989 1.81161 0
M  V30 1366 C 134.085 3.38988 1.2296 0
M  V30 1367 O 133.189 3.39208 2.34546 0
M  V30 1368 H 132.53 0.646368 0.152002 0
M  V30 1369 H 135.06 2.03961 -0.161533 0
M  V30 1370 H 135.07 3.76431 1.57366 0
M  V30 1371 H 133.745 4.13107 0.481228 0
M  V30 1372 H 132.322 3.13548 2.01846 0
M  V30 1373 N 134.507 -0.190092 1.56449 0
M  V30 1374 C 135.47 -1.21925 1.9408 0
M  V30 1375 C 136.47 -1.38176 0.822431 0
M  V30 1376 O 137.66 -1.35903 1.08977 0
M  V30 1377 C 134.792 -2.58773 2.21922 0
M  V30 1378 H 135.985 -0.897464 2.86157 0
M  V30 1379 H 133.538 -0.43181 1.50217 0
M  V30 1380 H 134.273 -2.95998 1.32499 0
M  V30 1381 H 134.058 -2.48348 3.03424 0
M  V30 1382 H 135.548 -3.32978 2.52022 0
M  V30 1383 N 135.985 -1.50799 -0.457987 0
M  V30 1384 C 136.948 -1.7005 -1.53674 0
M  V30 1385 C 137.948 -0.570881 -1.50325 0
M  V30 1386 O 139.138 -0.838126 -1.52712 0
M  V30 1387 C 136.27 -1.73788 -2.93276 0
M  V30 1388 H 137.463 -2.66306 -1.37917 0
M  V30 1389 H 135.016 -1.40477 -0.685271 0
M  V30 1390 H 135.751 -0.792717 -3.14462 0
M  V30 1391 H 135.536 -2.55864 -2.97113 0
M  V30 1392 H 137.026 -1.90591 -3.71571 0
M  V30 1393 N 137.463 0.71206 -1.40597 0
M  V30 1394 C 138.413 1.81783 -1.37619 0
M  V30 1395 C 139.397 1.58896 -0.253162 0
M  V30 1396 O 140.589 1.70009 -0.492547 0
M  V30 1397 C 137.718 3.19944 -1.24462 0
M  V30 1398 C 136.804 3.48582 -2.4156 0
M  V30 1399 N 137.195 3.48016 -3.67041 0
M  V30 1400 C 135.493 3.79056 -2.35016 0
M  V30 1401 C 136.194 3.75096 -4.44609 0
M  V30 1402 N 135.17 3.94022 -3.74497 0
M  V30 1403 H 138.972 1.79683 -2.32575 0
M  V30 1404 H 136.486 0.91134 -1.34419 0
M  V30 1405 H 138.483 3.99133 -1.20411 0
M  V30 1406 H 137.143 3.23267 -0.304762 0
M  V30 1407 H 138.154 3.28782 -4.00153 0
M  V30 1408 H 134.831 3.89848 -1.49415 0
M  V30 1409 H 136.221 3.80934 -5.53479 0
M  V30 1410 N 138.941 1.26152 0.944643 0
M  V30 1411 C 140.169 1.14259 1.72489 0
M  V30 1412 C 140.584 -0.302555 1.8636 0
M  V30 1413 O 139.941 -1.20741 1.36849 0
M  V30 1414 C 139.992 1.80266 3.13347 0
M  V30 1415 O 139.713 3.19133 3.00143 0
M  V30 1416 C 141.214 1.74283 4.07603 0
M  V30 1417 H 138.434 0.398051 0.540181 0
M  V30 1418 H 140.978 1.66706 1.18446 0
M  V30 1419 H 139.133 1.31766 3.64303 0
M  V30 1420 H 139.547 3.51744 3.89071 0
M  V30 1421 H 141.021 2.25111 5.04013 0
M  V30 1422 H 141.498 0.708631 4.33446 0
M  V30 1423 H 142.104 2.22319 3.62567 0
M  V30 1424 N 140.419 -1.14872 1.07899 0
M  V30 1425 C 141.667 -1.85422 0.803941 0
M  V30 1426 C 141.988 -1.83051 -0.67211 0
M  V30 1427 O 141.258 -1.27532 -1.48703 0
M  V30 1428 H 139.838 -0.686537 0.294408 0
M  V30 1429 H 142.5 -1.39226 1.3639 0
M  V30 1430 H 141.596 -2.90399 1.14346 0
M  V30 1431 N 141.898 -0.863906 -1.31812 0
M  V30 1432 C 142.828 -0.330843 -2.31144 0
M  V30 1433 C 143.809 0.575005 -1.60087 0
M  V30 1434 O 144.994 0.493304 -1.8783 0
M  V30 1435 C 142.124 0.47374 -3.44054 0
M  V30 1436 C 141.078 -0.338481 -4.26659 0
M  V30 1437 C 140.404 0.591412 -5.31419 0
M  V30 1438 C 141.704 -1.56926 -4.98168 0
M  V30 1439 H 143.398 -1.16086 -2.75979 0
M  V30 1440 H 140.944 -0.559657 -1.32679 0
M  V30 1441 H 142.897 0.857143 -4.12591 0
M  V30 1442 H 141.621 1.33721 -2.9797 0
M  V30 1443 H 140.28 -0.703754 -3.59782 0
M  V30 1444 H 139.928 1.45199 -4.81587 0
M  V30 1445 H 139.628 0.0519022 -5.87577 0
M  V30 1446 H 141.152 0.97179 -6.02817 0
M  V30 1447 H 142.566 -1.25764 -5.59336 0
M  V30 1448 H 140.963 -2.04739 -5.64094 0
M  V30 1449 H 142.033 -2.32544 -4.25501 0
M  V30 1450 N 143.376 1.44774 -0.622745 0
M  V30 1451 C 144.606 2.06187 -0.130532 0
M  V30 1452 C 145.014 1.46547 1.19669 0
M  V30 1453 O 144.357 0.579636 1.74316 0
M  V30 1454 C 144.419 3.59437 0.0674983 0
M  V30 1455 C 144.083 4.41496 -1.18026 0
M  V30 1456 C 145.08 4.75512 -2.102 0
M  V30 1457 C 142.765 4.82007 -1.41333 0
M  V30 1458 C 144.759 5.48912 -3.23998 0
M  V30 1459 C 142.446 5.55157 -2.55429 0
M  V30 1460 C 143.444 5.88528 -3.46589 0
M  V30 1461 O 143.132 6.60191 -4.58697 0
M  V30 1462 H 142.864 0.672045 -0.0730162 0
M  V30 1463 H 145.418 1.86768 -0.854802 0
M  V30 1464 H 143.648 3.77314 0.846825 0
M  V30 1465 H 145.337 4.02642 0.513209 0
M  V30 1466 H 146.103 4.4476 -1.93425 0
M  V30 1467 H 141.982 4.55457 -0.712709 0
M  V30 1468 H 145.526 5.74877 -3.95174 0
M  V30 1469 H 141.423 5.85324 -2.72151 0
M  V30 1470 H 142.191 6.78654 -4.57571 0
M  V30 1471 N 144.854 0.36279 1.53368 0
M  V30 1472 C 146.082 -0.228613 2.05633 0
M  V30 1473 C 146.497 -1.42676 1.23649 0
M  V30 1474 O 145.854 -1.80394 0.27647 0
M  V30 1475 C 145.905 -0.624845 3.56059 0
M  V30 1476 O 145.626 0.525675 4.34935 0
M  V30 1477 C 147.127 -1.27493 4.24571 0
M  V30 1478 H 144.347 -0.0407183 0.669763 0
M  V30 1479 H 146.891 0.520352 1.97769 0
M  V30 1480 H 145.046 -1.32373 3.64083 0
M  V30 1481 H 145.46 0.205969 5.24095 0
M  V30 1482 H 146.934 -1.50277 5.31151 0
M  V30 1483 H 147.411 -2.23439 3.78116 0
M  V30 1484 H 148.017 -0.617558 4.20792 0
M  V30 1485 N 146.332 -1.57332 0.0918853 0
M  V30 1486 C 147.572 -1.96117 -0.575988 0
M  V30 1487 C 147.936 -0.972499 -1.65549 0
M  V30 1488 O 149.137 -1.24872 -2.38034 0
M  V30 1489 C 147.408 -3.39407 -1.11973 0
M  V30 1490 S 148.967 -4.00185 -1.79992 0
M  V30 1491 H 145.785 -0.685682 -0.188045 0
M  V30 1492 H 148.387 -1.94755 0.170525 0
M  V30 1493 H 147.091 -4.09131 -0.322504 0
M  V30 1494 H 146.622 -3.44358 -1.90214 0
M  V30 1495 H 148.637 -3.88728 -3.08391 0
M  V30 1496 N 147.81 0.181792 -1.56548 0
M  V30 1497 C 149.04 0.914618 -1.85252 0
M  V30 1498 C 149.448 1.76791 -0.673914 0
M  V30 1499 O 148.791 1.80009 0.366416 0
M  V30 1500 C 148.853 1.85019 -3.08234 0
M  V30 1501 C 148.517 1.17754 -4.41569 0
M  V30 1502 C 149.514 0.548035 -5.17003 0
M  V30 1503 C 147.199 1.17742 -4.88305 0
M  V30 1504 C 149.193 -0.0726128 -6.37359 0
M  V30 1505 C 146.88 0.552946 -6.08593 0
M  V30 1506 C 147.878 -0.070978 -6.82963 0
M  V30 1507 O 147.566 -0.685635 -8.00971 0
M  V30 1508 H 147.298 0.271695 -0.618998 0
M  V30 1509 H 149.852 0.189944 -2.0452 0
M  V30 1510 H 148.082 2.61491 -2.84885 0
M  V30 1511 H 149.771 2.45195 -3.23472 0
M  V30 1512 H 150.537 0.540174 -4.81982 0
M  V30 1513 H 146.416 1.65246 -4.30366 0
M  V30 1514 H 149.96 -0.560213 -6.95347 0
M  V30 1515 H 145.857 0.558354 -6.43081 0
M  V30 1516 H 146.625 -0.58385 -8.16415 0
M  V30 1517 N 149.288 1.51039 0.449983 0
M  V30 1518 C 150.518 1.66627 1.22143 0
M  V30 1519 C 150.926 0.357776 1.85786 0
M  V30 1520 O 150.269 -0.672424 1.70951 0
M  V30 1521 C 150.331 2.71562 2.35573 0
M  V30 1522 C 149.995 4.14526 1.92399 0
M  V30 1523 C 150.992 4.99717 1.43453 0
M  V30 1524 C 148.677 4.60559 2.00475 0
M  V30 1525 C 150.671 6.28998 1.03155 0
M  V30 1526 C 148.358 5.8984 1.59788 0
M  V30 1527 C 149.356 6.73886 1.11208 0
M  V30 1528 O 149.044 8.0075 0.710935 0
M  V30 1529 H 148.776 0.562635 0.374724 0
M  V30 1530 H 151.33 1.98146 0.541036 0
M  V30 1531 H 149.56 2.3533 3.06849 0
M  V30 1532 H 151.249 2.76156 2.97478 0
M  V30 1533 H 152.015 4.65361 1.36618 0
M  V30 1534 H 147.894 3.95273 2.37235 0
M  V30 1535 H 151.438 6.9455 0.651663 0
M  V30 1536 H 147.335 6.23713 1.66289 0
M  V30 1537 H 148.103 8.142 0.837913 0
M  V30 1538 N 150.766 -0.704594 1.40972 0
M  V30 1539 C 151.714 -1.83994 1.42299 0
M  V30 1540 C 152.708 -1.66684 0.302111 0
M  V30 1541 O 153.914 -1.73655 0.473697 0
M  V30 1542 H 150.289 -0.606171 0.44504 0
M  V30 1543 H 152.26 -1.79992 2.38003 0
M  V30 1544 C 151.009 -3.21946 1.31323 0
M  V30 1545 H 150.332 -3.35878 2.16855 0
M  V30 1546 H 151.772 -4.01491 1.36311 0
M  V30 1547 C 150.231 -3.36891 0.0245977 0
M  V30 1548 O 150.761 -3.90687 -0.934153 0
M  V30 1549 N 148.967 -2.90559 -0.0485243 0
M  V30 1550 H 148.514 -2.46968 0.732419 0
M  V30 1551 H 148.472 -3.00937 -0.910171 0
M  V30 1552 N 152.244 -1.26651 -0.937939 0
M  V30 1553 C 153.194 -1.05156 -2.02302 0
M  V30 1554 C 154.178 0.0171233 -1.60891 0
M  V30 1555 O 155.37 -0.200213 -1.75864 0
M  V30 1556 C 152.499 -0.689962 -3.36295 0
M  V30 1557 C 151.585 -1.79626 -3.84181 0
M  V30 1558 N 151.976 -3.03422 -4.04684 0
M  V30 1559 C 150.274 -1.6806 -4.13124 0
M  V30 1560 C 150.975 -3.75345 -4.444 0
M  V30 1561 N 149.951 -3.03051 -4.51288 0
M  V30 1562 H 153.753 -1.99117 -2.1617 0
M  V30 1563 H 151.267 -1.17216 -1.12402 0
M  V30 1564 H 153.264 -0.517112 -4.13681 0
M  V30 1565 H 151.924 0.242139 -3.23796 0
M  V30 1566 H 152.935 -3.39293 -3.91281 0
M  V30 1567 H 149.612 -0.818629 -4.09396 0
M  V30 1568 H 151.002 -4.81691 -4.68427 0
M  V30 1569 N 153.722 1.14298 -1.08507 0
M  V30 1570 C 154.95 1.89219 -0.836876 0
M  V30 1571 C 155.365 1.78638 0.611054 0
M  V30 1572 O 154.722 1.14643 1.41998 0
M  V30 1573 C 154.773 3.39158 -1.25116 0
M  V30 1574 O 154.494 3.49449 -2.64229 0
M  V30 1575 C 155.995 4.31073 -1.03398 0
M  V30 1576 H 153.215 0.599328 -0.301739 0
M  V30 1577 H 155.759 1.44746 -1.44461 0
M  V30 1578 H 153.914 3.81251 -0.687514 0
M  V30 1579 H 154.328 4.42589 -2.81452 0
M  V30 1580 H 155.802 5.34646 -1.37323 0
M  V30 1581 H 156.279 4.3919 0.0289259 0
M  V30 1582 H 156.885 3.94738 -1.58311 0
M  V30 1583 N 155.201 0.870884 1.31352 0
M  V30 1584 C 156.133 0.28455 2.27427 0
M  V30 1585 C 157.146 -0.552927 1.53123 0
M  V30 1586 O 158.335 -0.374771 1.74521 0
M  V30 1587 C 155.435 -0.615164 3.3327 0
M  V30 1588 C 154.608 0.190079 4.36987 0
M  V30 1589 C 153.667 -0.637917 5.22319 0
M  V30 1590 O 152.693 -0.065626 5.69162 0
M  V30 1591 N 153.895 -1.94973 5.46778 0
M  V30 1592 H 156.66 1.11017 2.7838 0
M  V30 1593 H 154.221 0.732458 1.44384 0
M  V30 1594 H 156.213 -1.1748 3.87273 0
M  V30 1595 H 154.783 -1.34146 2.82354 0
M  V30 1596 H 154.003 0.931165 3.83044 0
M  V30 1597 H 155.291 0.742579 5.03352 0
M  V30 1598 H 154.689 -2.4378 5.10478 0
M  V30 1599 H 153.246 -2.45713 6.03712 0
M  V30 1600 N 156.679 -1.44442 0.630414 0
M  V30 1601 C 157.907 -2.06414 0.141671 0
M  V30 1602 C 158.322 -1.47105 -1.18345 0
M  V30 1603 O 157.679 -0.593662 -1.72574 0
M  V30 1604 C 157.73 -3.61494 0.0199784 0
M  V30 1605 O 157.451 -4.18594 1.29269 0
M  V30 1606 C 158.952 -4.40499 -0.497544 0
M  V30 1607 H 156.172 -0.666292 0.0793452 0
M  V30 1608 H 158.716 -1.85323 0.864614 0
M  V30 1609 H 156.871 -3.8185 -0.653402 0
M  V30 1610 H 157.285 -5.12026 1.13707 0
M  V30 1611 H 158.759 -5.49433 -0.531708 0
M  V30 1612 H 159.236 -4.11895 -1.52445 0
M  V30 1613 H 159.842 -4.25061 0.142562 0
M  V30 1614 N 158.157 -0.370918 -1.53173 0
M  V30 1615 C 159.067 0.480823 -2.2962 0
M  V30 1616 C 160.083 1.08789 -1.35798 0
M  V30 1617 O 161.259 1.09768 -1.68858 0
M  V30 1618 C 158.324 1.60227 -3.07454 0
M  V30 1619 C 157.385 1.0222 -4.16953 0
M  V30 1620 C 156.618 2.0902 -4.91066 0
M  V30 1621 O 156.841 3.30222 -4.65091 0
M  V30 1622 O 155.775 1.71778 -5.76867 0
M  V30 1623 H 159.601 -0.141421 -3.03371 0
M  V30 1624 H 157.186 -0.135146 -1.48787 0
M  V30 1625 H 159.068 2.25417 -3.56041 0
M  V30 1626 H 157.743 2.20982 -2.36535 0
M  V30 1627 H 156.65 0.334064 -3.72605 0
M  V30 1628 H 157.983 0.459131 -4.90054 0
M  V30 1629 N 159.635 1.57281 -0.100228 0
M  V30 1630 C 160.545 2.17833 0.870965 0
M  V30 1631 C 161.561 1.14921 1.30649 0
M  V30 1632 O 162.737 1.47313 1.37335 0
M  V30 1633 C 159.802 2.75085 2.1102 0
M  V30 1634 C 158.863 3.9297 1.72838 0
M  V30 1635 C 158.096 4.47482 2.90854 0
M  V30 1636 O 158.319 4.00922 4.05731 0
M  V30 1637 O 157.253 5.38433 2.69023 0
M  V30 1638 H 161.079 3.0124 0.38575 0
M  V30 1639 H 158.664 1.48881 0.124397 0
M  V30 1640 H 160.546 3.11656 2.83634 0
M  V30 1641 H 159.221 1.94721 2.58584 0
M  V30 1642 H 158.128 3.61201 0.973883 0
M  V30 1643 H 159.461 4.74713 1.30033 0
M  V30 1644 N 161.113 -0.173488 1.56642 0
M  V30 1645 C 162.061 -1.23417 1.97157 0
M  V30 1646 C 163.055 -1.45946 0.860013 0
M  V30 1647 O 164.261 -1.46551 1.04512 0
M  V30 1648 H 160.636 -0.414818 0.62724 0
M  V30 1649 H 162.607 -0.865582 2.8557 0
M  V30 1650 C 161.356 -2.5665 2.34576 0
M  V30 1651 H 160.679 -2.40137 3.19647 0
M  V30 1652 H 162.119 -3.2956 2.6677 0
M  V30 1653 C 160.578 -3.15245 1.18836 0
M  V30 1654 O 161.108 -3.98883 0.474869 0
M  V30 1655 N 159.314 -2.74303 0.959497 0
M  V30 1656 H 158.861 -2.0639 1.54146 0
M  V30 1657 H 158.819 -3.13844 0.186932 0
M  V30 1658 N 162.591 -1.51276 -0.441967 0
M  V30 1659 C 163.501 -1.75092 -1.56141 0
M  V30 1660 C 164.517 -0.634963 -1.62001 0
M  V30 1661 O 165.693 -0.916686 -1.79329 0
M  V30 1662 C 162.758 -1.86666 -2.92158 0
M  V30 1663 C 161.819 -3.10506 -2.96453 0
M  V30 1664 C 161.052 -3.21519 -4.25982 0
M  V30 1665 O 161.275 -2.38586 -5.18105 0
M  V30 1666 O 160.209 -4.14465 -4.36466 0
M  V30 1667 H 164.035 -2.70044 -1.38961 0
M  V30 1668 H 161.62 -1.35722 -0.624499 0
M  V30 1669 H 163.502 -1.96292 -3.72891 0
M  V30 1670 H 162.177 -0.949014 -3.09476 0
M  V30 1671 H 161.084 -3.06363 -2.14692 0
M  V30 1672 H 162.417 -4.01945 -2.84079 0
M  V30 1673 N 164.069 0.697108 -1.41344 0
M  V30 1674 C 164.999 1.82353 -1.45841 0
M  V30 1675 C 165.98 1.67115 -0.317247 0
M  V30 1676 O 167.165 1.86871 -0.528474 0
M  V30 1677 C 164.295 3.20476 -1.33838 0
M  V30 1678 C 163.249 3.50415 -2.4575 0
M  V30 1679 C 162.575 4.87878 -2.18813 0
M  V30 1680 C 163.875 3.49546 -3.88091 0
M  V30 1681 H 165.569 1.78846 -2.40113 0
M  V30 1682 H 163.115 0.859028 -1.15571 0
M  V30 1683 H 165.068 3.98988 -1.35596 0
M  V30 1684 H 163.792 3.24604 -0.360498 0
M  V30 1685 H 162.451 2.74253 -2.43271 0
M  V30 1686 H 162.099 4.8863 -1.19371 0
M  V30 1687 H 161.799 5.08875 -2.93803 0
M  V30 1688 H 163.323 5.68702 -2.22284 0
M  V30 1689 H 164.737 4.18066 -3.92293 0
M  V30 1690 H 163.134 3.82075 -4.62751 0
M  V30 1691 H 164.204 2.48552 -4.16353 0
M  V30 1692 N 165.547 1.27147 0.931209 0
M  V30 1693 C 166.457 1.11372 2.06478 0
M  V30 1694 C 167.473 0.044645 1.73943 0
M  V30 1695 O 168.649 0.250417 1.99837 0
M  V30 1696 C 165.714 0.758838 3.38294 0
M  V30 1697 C 164.775 1.90841 3.84549 0
M  V30 1698 C 164.008 1.57036 5.10074 0
M  V30 1699 O 164.231 0.476645 5.68405 0
M  V30 1700 O 163.165 2.40839 5.51616 0
M  V30 1701 H 166.991 2.06493 2.22698 0
M  V30 1702 H 164.576 1.06301 1.04978 0
M  V30 1703 H 166.458 0.574098 4.17471 0
M  V30 1704 H 165.133 -0.162879 3.2329 0
M  V30 1705 H 164.04 2.14819 3.06274 0
M  V30 1706 H 165.373 2.81021 4.04089 0
M  V30 1707 N 167.025 -1.13721 1.09112 0
M  V30 1708 C 168.273 -1.84559 0.823562 0
M  V30 1709 C 168.594 -1.83754 -0.652658 0
M  V30 1710 O 167.864 -1.29102 -1.47342 0
M  V30 1711 H 166.444 -0.683376 0.301673 0
M  V30 1712 H 169.106 -1.37771 1.37859 0
M  V30 1713 H 168.202 -2.8917 1.17419 0
M  V30 1714 N 168.503 -0.877838 -1.30888 0
M  V30 1715 C 169.919 -0.570844 -1.49042 0
M  V30 1716 C 170.119 0.893159 -1.80624 0
M  V30 1717 O 169.175 1.67485 -1.88958 0
M  V30 1718 C 170.488 -1.47784 -2.61878 0
M  V30 1719 C 172.036 -1.48071 -2.75761 0
M  V30 1720 C 172.511 -2.37347 -3.91702 0
M  V30 1721 N 174.002 -2.35271 -3.99001 0
M  V30 1722 C 174.737 -3.01063 -4.88004 0
M  V30 1723 N 174.233 -3.76055 -5.81854 0
M  V30 1724 N 176.026 -2.90332 -4.81315 0
M  V30 1725 H 168.177 -1.82502 -1.0866 0
M  V30 1726 H 170.44 -0.780797 -0.537644 0
M  V30 1727 H 170.146 -2.51993 -2.45341 0
M  V30 1728 H 170.02 -1.18215 -3.58197 0
M  V30 1729 H 172.407 -0.446166 -2.91708 0
M  V30 1730 H 172.488 -1.81668 -1.80085 0
M  V30 1731 H 172.132 -3.40883 -3.76512 0
M  V30 1732 H 172.062 -2.01071 -4.86701 0
M  V30 1733 H 174.553 -1.80768 -3.3186 0
M  V30 1734 H 174.866 -4.23366 -6.46514 0
M  V30 1735 H 173.211 -3.80163 -5.81808 0
M  V30 1736 H 176.402 -2.31278 -4.06974 0
M  V30 1737 H 176.575 -3.41885 -5.50471 0
M  V30 1738 N 169.982 1.44106 -0.638065 0
M  V30 1739 C 170.932 2.27843 0.0847285 0
M  V30 1740 C 171.916 1.39055 0.809471 0
M  V30 1741 O 173.108 1.62808 0.694435 0
M  V30 1742 C 170.237 3.26497 1.06089 0
M  V30 1743 C 169.323 4.22772 0.33541 0
M  V30 1744 N 169.714 5.01737 -0.639787 0
M  V30 1745 C 168.012 4.42227 0.578921 0
M  V30 1746 C 168.713 5.71792 -1.06904 0
M  V30 1747 N 167.689 5.42079 -0.406395 0
M  V30 1748 H 171.491 2.86305 -0.663814 0
M  V30 1749 H 169.005 1.55627 -0.464122 0
M  V30 1750 H 171.002 3.8525 1.59337 0
M  V30 1751 H 169.662 2.69595 1.80966 0
M  V30 1752 H 170.673 5.07799 -1.01789 0
M  V30 1753 H 167.35 3.96415 1.31003 0
M  V30 1754 H 168.74 6.45205 -1.8751 0
M  V30 1755 N 171.46 0.379036 1.52974 0
M  V30 1756 C 172.709 -0.207612 2.00629 0
M  V30 1757 C 173.022 -1.48758 1.27006 0
M  V30 1758 O 174.228 -2.15365 1.65318 0
M  V30 1759 C 172.684 -0.42053 3.57435 0
M  V30 1760 C 172.292 0.845587 4.39948 0
M  V30 1761 C 174.036 -0.964102 4.13407 0
M  V30 1762 C 171.943 0.601513 5.88333 0
M  V30 1763 H 170.873 -0.0813591 0.749598 0
M  V30 1764 H 173.524 0.499853 1.76561 0
M  V30 1765 H 171.906 -1.18959 3.7771 0
M  V30 1766 H 173.08 1.61848 4.31442 0
M  V30 1767 H 171.395 1.31336 3.95145 0
M  V30 1768 H 173.992 -1.16225 5.21916 0
M  V30 1769 H 174.335 -1.93019 3.68849 0
M  V30 1770 H 174.868 -0.25487 3.96983 0
M  V30 1771 H 171.607 1.53831 6.37194 0
M  V30 1772 H 171.127 -0.132628 5.99653 0
M  V30 1773 H 172.806 0.232134 6.46583 0
M  V30 1774 N 172.938 -1.57226 0.108567 0
M  V30 1775 C 174.168 -1.9889 -0.559142 0
M  V30 1776 C 174.576 -0.986889 -1.61422 0
M  V30 1777 O 173.919 0.0298705 -1.83676 0
M  V30 1778 C 173.981 -3.36952 -1.25315 0
M  V30 1779 C 173.645 -4.55679 -0.347248 0
M  V30 1780 C 174.642 -5.18281 0.409996 0
M  V30 1781 C 172.327 -5.0162 -0.261367 0
M  V30 1782 C 174.321 -6.25203 1.24096 0
M  V30 1783 C 172.008 -6.08405 0.573238 0
M  V30 1784 C 173.006 -6.70063 1.32304 0
M  V30 1785 O 172.694 -7.74788 2.14381 0
M  V30 1786 H 172.426 -0.658343 -0.153492 0
M  V30 1787 H 174.98 -2.04532 0.188584 0
M  V30 1788 H 173.21 -3.28032 -2.04773 0
M  V30 1789 H 174.899 -3.62974 -1.81673 0
M  V30 1790 H 175.665 -4.8371 0.353457 0
M  V30 1791 H 171.544 -4.53381 -0.834656 0
M  V30 1792 H 175.088 -6.73259 1.82669 0
M  V30 1793 H 170.985 -6.42406 0.631208 0
M  V30 1794 H 171.753 -7.91837 2.07209 0
M  V30 1795 N 174.416 0.165178 -1.56732 0
M  V30 1796 C 175.665 0.879143 -1.81532 0
M  V30 1797 C 175.978 1.83144 -0.686842 0
M  V30 1798 O 177.184 2.58823 -0.819944 0
M  V30 1799 C 175.64 1.61388 -3.21686 0
M  V30 1800 C 175.248 0.704904 -4.4242 0
M  V30 1801 C 176.992 2.3157 -3.55774 0
M  V30 1802 C 174.899 1.44022 -5.73595 0
M  V30 1803 H 173.829 0.332033 -0.676957 0
M  V30 1804 H 176.48 0.132008 -1.83025 0
M  V30 1805 H 174.862 2.40599 -3.14529 0
M  V30 1806 H 176.036 -0.0506815 -4.60772 0
M  V30 1807 H 174.351 0.112419 -4.16248 0
M  V30 1808 H 176.948 2.8719 -4.51028 0
M  V30 1809 H 177.291 3.07201 -2.8095 0
M  V30 1810 H 177.824 1.59297 -3.64513 0
M  V30 1811 H 174.563 0.72612 -6.51466 0
M  V30 1812 H 174.083 2.16898 -5.5921 0
M  V30 1813 H 175.762 1.98606 -6.15764 0
M  V30 1814 N 175.894 1.51508 0.433938 0
M  V30 1815 C 177.124 1.67914 1.20369 0
M  V30 1816 C 177.532 0.377461 1.85397 0
M  V30 1817 O 176.875 -0.654255 1.71654 0
M  V30 1818 C 176.937 2.74045 2.32679 0
M  V30 1819 C 176.601 4.16543 1.87991 0
M  V30 1820 C 177.598 5.01211 1.38145 0
M  V30 1821 C 175.283 4.6266 1.95579 0
M  V30 1822 C 177.277 6.30056 0.964774 0
M  V30 1823 C 174.964 5.91501 1.53523 0
M  V30 1824 C 175.962 6.75027 1.04055 0
M  V30 1825 O 175.65 8.01459 0.625964 0
M  V30 1826 H 175.382 0.566578 0.368735 0
M  V30 1827 H 177.936 1.98709 0.51999 0
M  V30 1828 H 176.166 2.38572 3.04336 0
M  V30 1829 H 177.855 2.79295 2.94532 0
M  V30 1830 H 178.621 4.66783 1.31675 0
M  V30 1831 H 174.5 3.97767 2.33029 0
M  V30 1832 H 178.044 6.95202 0.57796 0
M  V30 1833 H 173.941 6.25442 1.59665 0
M  V30 1834 H 174.709 8.15043 0.751509 0
M  V30 1835 N 177.372 -0.689602 1.41712 0
M  V30 1836 C 178.618 -1.45181 1.41599 0
M  V30 1837 C 178.951 -1.94181 0.0270081 0
M  V30 1838 O 178.226 -1.6993 -0.946265 0
M  V30 1839 C 178.509 -2.65945 2.42787 0
M  V30 1840 C 178.362 -2.22672 3.90816 0
M  V30 1841 C 179.681 -3.68149 2.41151 0
M  V30 1842 H 176.8 -0.526576 0.515642 0
M  V30 1843 H 179.442 -0.784947 1.73028 0
M  V30 1844 H 177.592 -3.2284 2.16116 0
M  V30 1845 H 179.264 -1.71058 4.28412 0
M  V30 1846 H 177.507 -1.54394 4.05395 0
M  V30 1847 H 178.178 -3.0935 4.57172 0
M  V30 1848 H 180.654 -3.2094 2.64834 0
M  V30 1849 H 179.53 -4.50248 3.13955 0
M  V30 1850 H 179.791 -4.18259 1.43221 0
M  V30 1851 N 178.85 -1.27639 -0.924453 0
M  V30 1852 C 180.261 -1.12834 -1.48746 0
M  V30 1853 C 180.612 0.285505 -1.94112 0
M  V30 1854 O 179.737 1.17874 -1.81479 0
M  V30 1855 C 180.332 -2.04217 -2.70334 0
M  V30 1856 C 178.891 -1.93509 -3.22848 0
M  V30 1857 C 178.038 -1.96583 -1.95577 0
M  V30 1858 H 180.989 -1.40484 -0.738233 0
M  V30 1859 H 181.01 -1.59989 -3.4523 0
M  V30 1860 H 180.522 -3.07111 -2.37285 0
M  V30 1861 H 178.623 -0.936131 -3.60649 0
M  V30 1862 H 178.736 -2.79917 -3.88823 0
M  V30 1863 H 177.1 -1.4085 -2.12211 0
M  V30 1864 H 177.883 -3.01137 -1.64837 0
M  V30 1865 N 180.328 1.1314 -1.09713 0
M  V30 1866 C 181.605 1.80762 -0.747302 0
M  V30 1867 C 181.985 1.96663 0.767265 0
M  V30 1868 O 181.333 1.53706 1.69076 0
M  V30 1869 C 181.543 3.15606 -1.48975 0
M  V30 1870 C 182.891 3.90914 -1.65746 0
M  V30 1871 O 183.915 3.25239 -1.45251 0
M  V30 1872 O 182.774 5.08718 -1.9967 0
M  V30 1873 H 179.868 0.782103 -0.268782 0
M  V30 1874 H 182.414 1.20041 -1.19951 0
M  V30 1875 H 181.186 2.99278 -2.52088 0
M  V30 1876 H 180.809 3.84029 -1.02991 0
M  V30 1877 N 181.806 0.884767 1.30421 0
M  V30 1878 C 183.217 0.553656 1.78302 0
M  V30 1879 C 183.568 -0.930153 1.7275 0
M  V30 1880 O 182.693 -1.72681 1.30423 0
M  V30 1881 C 183.288 0.998234 3.2376 0
M  V30 1882 C 181.847 0.71854 3.69478 0
M  V30 1883 C 180.994 1.18132 2.50879 0
M  V30 1884 H 183.945 1.06901 1.17294 0
M  V30 1885 H 183.966 0.327118 3.79091 0
M  V30 1886 H 183.478 2.0782 3.27769 0
M  V30 1887 H 181.579 -0.349444 3.70958 0
M  V30 1888 H 181.692 1.30595 4.60958 0
M  V30 1889 H 180.056 0.600669 2.47516 0
M  V30 1890 H 180.839 2.26902 2.57624 0
M  V30 1891 N 183.284 -1.43765 0.645699 0
M  V30 1892 C 184.561 -1.9541 0.0862963 0
M  V30 1893 C 184.941 -1.58725 -1.39175 0
M  V30 1894 O 184.289 -0.868581 -2.11348 0
M  V30 1895 C 184.499 -3.47488 0.324565 0
M  V30 1896 C 185.847 -4.24001 0.225497 0
M  V30 1897 O 186.871 -3.55274 0.256715 0
M  V30 1898 O 185.73 -5.46313 0.142801 0
M  V30 1899 H 182.824 -0.826882 -0.0139483 0
M  V30 1900 H 185.37 -1.53743 0.718415 0
M  V30 1901 H 184.142 -3.67289 1.3496 0
M  V30 1902 H 183.765 -3.96135 -0.340987 0
M  V30 1903 N 184.763 -0.387143 -1.52771 0
M  V30 1904 C 186.009 0.196025 -2.0185 0
M  V30 1905 C 186.342 1.46641 -1.27319 0
M  V30 1906 O 185.617 1.90889 -0.373032 0
M  V30 1907 C 185.9 0.466136 -3.5707 0
M  V30 1908 C 185.753 -0.819385 -4.42274 0
M  V30 1909 C 187.072 1.25768 -4.21747 0
M  V30 1910 H 184.191 0.0697708 -0.73369 0
M  V30 1911 H 186.833 -0.516286 -1.82851 0
M  V30 1912 H 184.983 1.07293 -3.7339 0
M  V30 1913 H 186.655 -1.4563 -4.37709 0
M  V30 1914 H 184.898 -1.43517 -4.09372 0
M  V30 1915 H 185.569 -0.585065 -5.48891 0
M  V30 1916 H 188.045 0.744167 -4.09391 0
M  V30 1917 H 186.921 1.41541 -5.30337 0
M  V30 1918 H 187.182 2.27228 -3.79236 0
M  V30 1919 N 186.241 1.57166 -0.116904 0
M  V30 1920 C 187.204 2.14039 0.819742 0
M  V30 1921 C 188.204 1.07477 1.19605 0
M  V30 1922 O 189.394 1.33263 1.1219 0
M  V30 1923 C 186.526 2.67891 2.10826 0
M  V30 1924 H 187.719 2.98128 0.325511 0
M  V30 1925 H 185.272 1.55739 0.132312 0
M  V30 1926 H 186.007 1.87384 2.64685 0
M  V30 1927 H 185.792 3.45823 1.84793 0
M  V30 1928 H 187.282 3.11809 2.77785 0
M  V30 1929 N 187.719 -0.156864 1.56817 0
M  V30 1930 C 188.966 -0.871125 1.82805 0
M  V30 1931 C 189.294 -1.81611 0.696262 0
M  V30 1932 O 188.549 -1.93141 -0.315459 0
M  V30 1933 C 188.848 -1.68737 3.1506 0
M  V30 1934 C 188.514 -0.890045 4.42028 0
M  V30 1935 C 187.176 -0.670042 4.76512 0
M  V30 1936 C 189.528 -0.331769 5.20143 0
M  V30 1937 C 186.856 0.119104 5.86579 0
M  V30 1938 C 189.208 0.444365 6.31037 0
M  V30 1939 C 187.872 0.675035 6.64078 0
M  V30 1940 H 187.142 -0.318767 0.668931 0
M  V30 1941 H 189.789 -0.135274 1.91022 0
M  V30 1942 H 188.094 -2.49304 3.0225 0
M  V30 1943 H 189.791 -2.24331 3.3238 0
M  V30 1944 H 186.381 -1.07157 4.14988 0
M  V30 1945 H 190.565 -0.489043 4.93885 0
M  V30 1946 H 185.821 0.307417 6.10627 0
M  V30 1947 H 189.995 0.884139 6.90765 0
M  V30 1948 H 187.622 1.28839 7.49203 0
M  V30 1949 N 189.197 -1.51736 -0.425897 0
M  V30 1950 C 190.443 -1.65214 -1.1761 0
M  V30 1951 C 190.776 -0.372778 -1.90589 0
M  V30 1952 O 190.051 0.628139 -1.84078 0
M  V30 1953 C 190.334 -2.86312 -2.18398 0
M  V30 1954 C 190.187 -4.24254 -1.49426 0
M  V30 1955 C 191.506 -3.02925 -3.19256 0
M  V30 1956 H 188.625 -0.601263 -0.426206 0
M  V30 1957 H 191.267 -1.8425 -0.463882 0
M  V30 1958 H 189.417 -2.70213 -2.79137 0
M  V30 1959 H 191.089 -4.52046 -0.919362 0
M  V30 1960 H 189.332 -4.26426 -0.796432 0
M  V30 1961 H 190.003 -5.05001 -2.22885 0
M  V30 1962 H 192.479 -3.1781 -2.68581 0
M  V30 1963 H 191.355 -3.89199 -3.8706 0
M  V30 1964 H 191.616 -2.15497 -3.86023 0
M  V30 1965 N 190.675 0.682077 -1.42076 0
M  V30 1966 C 192.086 1.26246 -1.37546 0
M  V30 1967 C 192.437 1.96092 -0.0651481 0
M  V30 1968 O 191.562 1.99587 0.836297 0
M  V30 1969 C 192.157 2.29594 -2.49143 0
M  V30 1970 C 190.716 2.83175 -2.47969 0
M  V30 1971 C 189.863 1.57395 -2.28303 0
M  V30 1972 H 192.814 0.475937 -1.51395 0
M  V30 1973 H 192.835 3.11175 -2.18976 0
M  V30 1974 H 192.347 1.78729 -3.44496 0
M  V30 1975 H 190.448 3.3818 -1.56413 0
M  V30 1976 H 190.561 3.32687 -3.44755 0
M  V30 1977 H 188.925 1.83699 -1.76428 0
M  V30 1978 H 189.708 1.08507 -3.25701 0
M  V30 1979 N 192.153 1.28127 0.917671 0
M  V30 1980 C 193.083 1.14248 2.03641 0
M  V30 1981 C 194.064 0.0412748 1.7005 0
M  V30 1982 O 195.249 0.217566 1.92977 0
M  V30 1983 C 192.379 0.799431 3.37974 0
M  V30 1984 C 191.333 1.85497 3.85713 0
M  V30 1985 C 190.659 1.36565 5.16966 0
M  V30 1986 C 191.959 3.26085 4.08002 0
M  V30 1987 H 193.653 2.07835 2.15511 0
M  V30 1988 H 191.199 1.00064 1.03553 0
M  V30 1989 H 193.152 0.689114 4.15727 0
M  V30 1990 H 191.876 -0.172145 3.26146 0
M  V30 1991 H 190.535 1.95437 3.10161 0
M  V30 1992 H 190.183 0.383253 5.01538 0
M  V30 1993 H 189.883 2.07143 5.49878 0
M  V30 1994 H 191.407 1.26848 5.97279 0
M  V30 1995 H 192.821 3.19089 4.76293 0
M  V30 1996 H 191.218 3.94462 4.52238 0
M  V30 1997 H 192.288 3.70394 3.12948 0
M  V30 1998 N 193.631 -1.12557 1.10312 0
M  V30 1999 C 194.879 -1.83675 0.843091 0
M  V30 2000 C 195.2 -1.84435 -0.633131 0
M  V30 2001 O 194.47 -1.30657 -1.45964 0
M  V30 2002 H 193.05 -0.680138 0.308904 0
M  V30 2003 H 195.712 -1.36301 1.39313 0
M  V30 2004 H 194.808 -2.87908 1.2048 0
M  V30 2005 N 195.109 -0.891671 -1.2995 0
M  V30 2006 C 196.042 -0.307994 -2.26112 0
M  V30 2007 C 197.02 0.575262 -1.52084 0
M  V30 2008 O 198.204 0.523864 -1.81074 0
M  V30 2009 C 195.331 0.561734 -3.34009 0
M  V30 2010 C 194.377 -0.253107 -4.25748 0
M  V30 2011 S 195.21 -1.64572 -5.09584 0
M  V30 2012 C 196.366 -0.782699 -6.20987 0
M  V30 2013 H 196.599 -1.12309 -2.75271 0
M  V30 2014 H 194.132 -0.691509 -1.38049 0
M  V30 2015 H 196.09 1.05777 -3.96638 0
M  V30 2016 H 194.751 1.35099 -2.83561 0
M  V30 2017 H 193.944 0.410908 -5.02322 0
M  V30 2018 H 193.546 -0.682004 -3.67729 0
M  V30 2019 H 195.838 -0.00257476 -6.775 0
M  V30 2020 H 196.781 -1.52026 -6.91588 0
M  V30 2021 H 197.189 -0.340638 -5.63471 0
M  V30 2022 N 196.587 1.43421 -0.653314 0
M  V30 2023 C 197.815 2.06163 -0.174491 0
M  V30 2024 C 198.23 1.48969 1.1599 0
M  V30 2025 O 197.587 0.621042 1.71608 0
M  V30 2026 C 197.638 3.61417 -0.0774865 0
M  V30 2027 O 197.359 4.16485 -1.35912 0
M  V30 2028 C 198.86 4.41235 0.427402 0
M  V30 2029 H 196.08 0.664946 -0.0899353 0
M  V30 2030 H 198.624 1.83924 -0.893988 0
M  V30 2031 H 196.779 3.82841 0.59257 0
M  V30 2032 H 197.193 5.10153 -1.21839 0
M  V30 2033 H 198.667 5.5021 0.44423 0
M  V30 2034 H 199.144 4.14268 1.45873 0
M  V30 2035 H 199.75 4.2478 -0.210167 0
M  V30 2036 N 198.065 0.39524 1.52563 0
M  V30 2037 C 199.342 -0.242908 1.94086 0
M  V30 2038 C 199.722 -1.63841 1.33114 0
M  V30 2039 O 199.07 -2.22928 0.501529 0
M  V30 2040 C 199.28 -0.26327 3.48006 0
M  V30 2041 C 200.628 -0.489354 4.21771 0
M  V30 2042 O 201.652 -0.343226 3.54543 0
M  V30 2043 O 200.511 -0.776169 5.4096 0
M  V30 2044 H 197.605 -0.152536 0.812811 0
M  V30 2045 H 200.151 0.450178 1.6362 0
M  V30 2046 H 198.923 0.713985 3.84731 0
M  V30 2047 H 198.546 -1.00103 3.84792 0
M  V30 2048 N 199.544 -1.57102 0.125237 0
M  V30 2049 C 200.774 -1.99472 -0.538015 0
M  V30 2050 C 201.182 -1.00395 -1.60366 0
M  V30 2051 O 200.525 0.0103875 -1.83697 0
M  V30 2052 C 200.587 -3.38262 -1.21734 0
M  V30 2053 C 200.251 -4.56021 -0.298897 0
M  V30 2054 C 201.248 -5.17817 0.464943 0
M  V30 2055 C 198.933 -5.01869 -0.208149 0
M  V30 2056 C 200.927 -6.23852 1.3072 0
M  V30 2057 C 198.614 -6.07763 0.637736 0
M  V30 2058 C 199.612 -6.68622 1.39403 0
M  V30 2059 O 199.3 -7.7247 2.22586 0
M  V30 2060 H 199.032 -0.659934 -0.146501 0
M  V30 2061 H 201.586 -2.04321 0.210267 0
M  V30 2062 H 199.816 -3.30185 -2.01282 0
M  V30 2063 H 201.505 -3.6488 -1.77813 0
M  V30 2064 H 202.271 -4.83308 0.404741 0
M  V30 2065 H 198.15 -4.54241 -0.786522 0
M  V30 2066 H 201.694 -6.71284 1.898 0
M  V30 2067 H 197.591 -6.41701 0.699309 0
M  V30 2068 H 198.359 -7.89595 2.15596 0
M  V30 2069 N 201.022 0.148545 -1.56898 0
M  V30 2070 C 201.952 1.18524 -2.01182 0
M  V30 2071 C 202.933 1.4489 -0.891123 0
M  V30 2072 O 204.118 1.55836 -1.15882 0
M  V30 2073 C 201.248 2.51879 -2.39112 0
M  V30 2074 C 200.202 2.40038 -3.54353 0
M  V30 2075 C 199.528 3.78089 -3.78091 0
M  V30 2076 C 200.828 1.88577 -4.87069 0
M  V30 2077 H 202.522 0.817029 -2.88036 0
M  V30 2078 H 200.068 0.391575 -1.38574 0
M  V30 2079 H 202.021 3.24627 -2.68692 0
M  V30 2080 H 200.745 2.90532 -1.49193 0
M  V30 2081 H 199.404 1.69742 -3.24936 0
M  V30 2082 H 199.052 4.14175 -2.85426 0
M  V30 2083 H 198.752 3.71028 -4.55645 0
M  V30 2084 H 200.276 4.52387 -4.10095 0
M  V30 2085 H 201.69 2.51117 -5.15377 0
M  V30 2086 H 200.087 1.9241 -5.68417 0
M  V30 2087 H 201.157 0.84136 -4.77545 0
M  V30 2088 N 202.5 1.5196 0.417844 0
M  V30 2089 C 203.746 1.65836 1.16732 0
M  V30 2090 C 204.079 0.382881 1.90388 0
M  V30 2091 O 203.354 -0.618368 1.84408 0
M  V30 2092 C 203.637 2.87466 2.16876 0
M  V30 2093 C 203.49 4.25041 1.47174 0
M  V30 2094 C 204.809 3.04613 3.17646 0
M  V30 2095 H 201.928 0.603515 0.423011 0
M  V30 2096 H 204.57 1.84494 0.454105 0
M  V30 2097 H 202.72 2.71689 2.777 0
M  V30 2098 H 204.392 4.52527 0.895376 0
M  V30 2099 H 202.635 4.26843 0.773806 0
M  V30 2100 H 203.306 5.06176 2.20204 0
M  V30 2101 H 205.782 3.1923 2.66892 0
M  V30 2102 H 204.658 3.91247 3.8499 0
M  V30 2103 H 204.919 2.17541 3.84874 0
M  V30 2104 N 203.978 -0.674533 1.42435 0
M  V30 2105 C 205.227 -1.43034 1.42212 0
M  V30 2106 C 205.54 -1.95555 0.0420788 0
M  V30 2107 O 206.746 -2.71374 -0.0827558 0
M  V30 2108 C 205.202 -2.58748 2.50155 0
M  V30 2109 C 204.81 -2.12925 3.94166 0
M  V30 2110 C 206.554 -3.36257 2.59098 0
M  V30 2111 C 204.461 -3.25723 4.93618 0
M  V30 2112 H 203.391 -0.537345 0.528939 0
M  V30 2113 H 206.042 -0.73024 1.68344 0
M  V30 2114 H 204.424 -3.31128 2.17188 0
M  V30 2115 H 205.598 -1.47697 4.36488 0
M  V30 2116 H 203.913 -1.48354 3.89076 0
M  V30 2117 H 206.51 -4.20264 3.30578 0
M  V30 2118 H 206.853 -3.82866 1.63461 0
M  V30 2119 H 207.386 -2.70947 2.9126 0
M  V30 2120 H 204.125 -2.84105 5.90732 0
M  V30 2121 H 203.645 -3.89732 4.55926 0
M  V30 2122 H 205.324 -3.91186 5.15347 0
M  V30 2123 N 205.456 -1.28612 -0.910864 0
M  V30 2124 C 206.702 -1.16106 -1.66274 0
M  V30 2125 C 207.035 0.289113 -1.92036 0
M  V30 2126 O 206.31 1.21 -1.52281 0
M  V30 2127 C 206.593 -1.96309 -3.01885 0
M  V30 2128 C 206.446 -3.49405 -2.8326 0
M  V30 2129 C 207.765 -1.78076 -4.02463 0
M  V30 2130 H 204.884 -0.423152 -0.603417 0
M  V30 2131 H 207.526 -1.57961 -1.05586 0
M  V30 2132 H 205.676 -1.60742 -3.53687 0
M  V30 2133 H 207.348 -3.94894 -2.38446 0
M  V30 2134 H 205.591 -3.74893 -2.18261 0
M  V30 2135 H 206.262 -4.00784 -3.79574 0
M  V30 2136 H 208.738 -2.0912 -3.59733 0
M  V30 2137 H 207.614 -2.36561 -4.95308 0
M  V30 2138 H 207.875 -0.733008 -4.35981 0
M  V30 2139 N 206.934 1.1197 -1.10907 0
M  V30 2140 C 207.844 2.21433 -0.774896 0
M  V30 2141 C 208.86 1.72478 0.229657 0
M  V30 2142 O 210.036 2.01288 0.0672008 0
M  V30 2143 C 207.101 3.4602 -0.216986 0
M  V30 2144 C 206.162 4.09791 -1.27944 0
M  V30 2145 C 205.395 5.28431 -0.748055 0
M  V30 2146 O 205.618 5.68823 0.423833 0
M  V30 2147 O 204.552 5.82644 -1.51027 0
M  V30 2148 H 208.378 2.5242 -1.68873 0
M  V30 2149 H 205.963 1.20399 -0.884555 0
M  V30 2150 H 207.845 4.21304 0.090059 0
M  V30 2151 H 206.52 3.16698 0.669633 0
M  V30 2152 H 205.427 3.36265 -1.63941 0
M  V30 2153 H 206.76 4.4328 -2.13925 0
M  V30 2154 N 208.412 0.89855 1.29475 0
M  V30 2155 C 209.689 0.443416 1.90508 0
M  V30 2156 C 210.069 -1.07685 1.81569 0
M  V30 2157 O 209.417 -1.9182 1.24166 0
M  V30 2158 C 209.627 0.956708 3.35631 0
M  V30 2159 C 210.975 0.999728 4.12663 0
M  V30 2160 O 211.999 0.904299 3.4453 0
M  V30 2161 O 210.858 1.14289 5.34416 0
M  V30 2162 H 207.952 0.138025 0.815401 0
M  V30 2163 H 210.498 0.98834 1.37949 0
M  V30 2164 H 209.27 2.00067 3.36287 0
M  V30 2165 H 208.893 0.391728 3.95666 0
M  V30 2166 N 209.89 -1.43072 0.660911 0
M  V30 2167 C 211.167 -1.95307 0.107017 0
M  V30 2168 C 211.547 -1.60192 -1.37484 0
M  V30 2169 O 210.895 -0.890949 -2.10415 0
M  V30 2170 C 211.105 -3.47124 0.361402 0
M  V30 2171 C 212.453 -4.23738 0.270455 0
M  V30 2172 O 213.477 -3.54981 0.294382 0
M  V30 2173 O 212.336 -5.46131 0.200737 0
M  V30 2174 H 209.43 -0.826984 -0.00517729 0
M  V30 2175 H 211.976 -1.52972 0.734681 0
M  V30 2176 H 210.748 -3.65837 1.38848 0
M  V30 2177 H 210.371 -3.96475 -0.298953 0
M  V30 2178 N 211.368 -0.403325 -1.52352 0
M  V30 2179 C 212.645 0.232611 -1.94212 0
M  V30 2180 C 213.025 1.63133 -1.33981 0
M  V30 2181 O 212.373 2.22659 -0.513344 0
M  V30 2182 C 212.583 0.244811 -3.4814 0
M  V30 2183 C 213.931 0.46698 -4.22024 0
M  V30 2184 O 214.955 0.324419 -3.5472 0
M  V30 2185 O 213.814 0.74747 -5.41364 0
M  V30 2186 H 210.908 0.148223 -0.813609 0
M  V30 2187 H 213.454 -0.458848 -1.63379 0
M  V30 2188 H 212.226 -0.734378 -3.84347 0
M  V30 2189 H 211.849 0.980611 -3.85318 0
M  V30 2190 N 212.846 1.57033 -0.133567 0
M  V30 2191 C 214.071 2.00475 0.531477 0
M  V30 2192 C 214.496 1.01291 1.58499 0
M  V30 2193 O 213.854 -0.0133279 1.81295 0
M  V30 2194 C 213.902 3.42729 1.12113 0
M  V30 2195 O 213.006 3.46498 2.23636 0
M  V30 2196 H 212.347 0.650876 0.131362 0
M  V30 2197 H 214.877 2.03344 -0.22634 0
M  V30 2198 H 214.887 3.81246 1.4531 0
M  V30 2199 H 213.562 4.14428 0.349557 0
M  V30 2200 H 212.139 3.19811 1.91769 0
M  V30 2201 N 214.325 -0.140222 1.56975 0
M  V30 2202 C 215.288 -1.15689 1.97861 0
M  V30 2203 C 216.288 -1.3549 0.865974 0
M  V30 2204 O 217.478 -1.32367 1.13246 0
M  V30 2205 C 214.61 -2.51582 2.30042 0
M  V30 2206 H 215.803 -0.805971 2.88867 0
M  V30 2207 H 213.356 -0.383801 1.51515 0
M  V30 2208 H 214.091 -2.91632 1.41849 0
M  V30 2209 H 213.876 -2.38569 3.11171 0
M  V30 2210 H 215.366 -3.24792 2.62488 0
M  V30 2211 N 215.803 -1.52179 -0.40978 0
M  V30 2212 C 217.052 -1.65434 -1.15388 0
M  V30 2213 C 217.365 -0.390056 -1.91671 0
M  V30 2214 O 218.571 -0.402399 -2.68501 0
M  V30 2215 C 217.027 -2.92279 -2.10003 0
M  V30 2216 C 216.635 -4.25813 -1.39239 0
M  V30 2217 C 218.379 -3.14897 -2.84675 0
M  V30 2218 C 216.286 -5.43782 -2.32498 0
M  V30 2219 H 215.216 -0.616267 -0.434432 0
M  V30 2220 H 217.867 -1.78666 -0.418401 0
M  V30 2221 H 216.249 -2.72744 -2.871 0
M  V30 2222 H 217.423 -4.55828 -0.675099 0
M  V30 2223 H 215.738 -4.09292 -0.766097 0
M  V30 2224 H 218.335 -4.0021 -3.54593 0
M  V30 2225 H 218.678 -2.29103 -3.47588 0
M  V30 2226 H 219.211 -3.34901 -2.14677 0
M  V30 2227 H 215.95 -6.3192 -1.74233 0
M  V30 2228 H 215.47 -5.18106 -3.02201 0
M  V30 2229 H 217.149 -5.76834 -2.93038 0
M  V30 2230 N 217.281 0.66697 -1.42791 0
M  V30 2231 C 218.53 1.42278 -1.42968 0
M  V30 2232 C 218.843 1.9553 -0.0524489 0
M  V30 2233 O 220.049 2.71414 0.068363 0
M  V30 2234 C 218.505 2.57418 -2.51524 0
M  V30 2235 C 218.113 2.10832 -3.9529 0
M  V30 2236 C 219.857 3.34878 -2.60877 0
M  V30 2237 C 217.764 3.23101 -4.95338 0
M  V30 2238 H 216.694 0.534533 -0.531781 0
M  V30 2239 H 219.345 0.721302 -1.68729 0
M  V30 2240 H 217.727 3.29971 -2.18941 0
M  V30 2241 H 218.901 1.4538 -4.37266 0
M  V30 2242 H 217.216 1.46289 -3.89857 0
M  V30 2243 H 219.813 4.18505 -3.32802 0
M  V30 2244 H 220.156 3.81993 -1.6549 0
M  V30 2245 H 220.689 2.69398 -2.92693 0
M  V30 2246 H 217.428 2.80969 -5.9223 0
M  V30 2247 H 216.948 3.87309 -4.57987 0
M  V30 2248 H 218.627 3.88447 -5.17415 0
M  V30 2249 N 218.759 1.29093 0.90403 0
M  V30 2250 C 220.17 1.15186 1.46932 0
M  V30 2251 C 220.521 -0.254587 1.94541 0
M  V30 2252 O 219.646 -1.14972 1.83332 0
M  V30 2253 C 220.241 2.08492 2.67051 0
M  V30 2254 C 218.8 1.98621 3.19729 0
M  V30 2255 C 217.947 1.9967 1.92425 0
M  V30 2256 H 220.898 1.41641 0.715789 0
M  V30 2257 H 220.919 1.65461 3.42641 0
M  V30 2258 H 220.431 3.10847 2.3237 0
M  V30 2259 H 218.532 0.993389 3.59114 0
M  V30 2260 H 218.645 2.86068 3.8432 0
M  V30 2261 H 217.009 1.44208 2.09943 0
M  V30 2262 H 217.792 3.03721 1.60026 0
M  V30 2263 N 220.237 -1.11381 1.11499 0
M  V30 2264 C 221.477 -1.84763 0.874188 0
M  V30 2265 C 221.841 -1.82726 -0.589496 0
M  V30 2266 O 223.042 -2.51562 -0.947089 0
M  V30 2267 C 221.313 -3.27931 1.42112 0
M  V30 2268 S 222.872 -4.18557 1.31739 0
M  V30 2269 H 219.69 -0.637115 0.315603 0
M  V30 2270 H 222.292 -1.34097 1.42261 0
M  V30 2271 H 220.996 -3.26978 2.48019 0
M  V30 2272 H 220.527 -3.83665 0.869761 0
M  V30 2273 H 222.542 -4.95396 0.282335 0
M  V30 2274 N 221.715 -0.905404 -1.28997 0
M  V30 2275 C 223.131 -0.60233 -1.47798 0
M  V30 2276 C 223.331 0.854645 -1.82478 0
M  V30 2277 O 222.387 1.63439 -1.92468 0
M  V30 2278 C 223.7 -1.53306 -2.58685 0
M  V30 2279 C 225.248 -1.53887 -2.72558 0
M  V30 2280 C 225.723 -2.45602 -3.86579 0
M  V30 2281 N 227.214 -2.43681 -3.93921 0
M  V30 2282 C 227.949 -3.11347 -4.81509 0
M  V30 2283 N 227.445 -3.88313 -5.73746 0
M  V30 2284 N 229.238 -3.00476 -4.75048 0
M  V30 2285 H 221.389 -1.84765 -1.04764 0
M  V30 2286 H 223.652 -0.792025 -0.520961 0
M  V30 2287 H 223.358 -2.57141 -2.39941 0
M  V30 2288 H 223.232 -1.25787 -3.55609 0
M  V30 2289 H 225.619 -0.507941 -2.90696 0
M  V30 2290 H 225.7 -1.85447 -1.76191 0
M  V30 2291 H 225.344 -3.48792 -3.69197 0
M  V30 2292 H 225.274 -2.11349 -4.82327 0
M  V30 2293 H 227.765 -1.87767 -3.27951 0
M  V30 2294 H 228.078 -4.36985 -6.37389 0
M  V30 2295 H 226.423 -3.92419 -5.73614 0
M  V30 2296 H 229.614 -2.39858 -4.01977 0
M  V30 2297 H 229.787 -3.53485 -5.43095 0
M  V30 2298 N 223.193 1.4272 -0.668489 0
M  V30 2299 C 224.421 2.05966 -0.196348 0
M  V30 2300 C 224.836 1.50191 1.14403 0
M  V30 2301 O 224.193 0.639208 1.7094 0
M  V30 2302 C 224.244 3.61314 -0.115815 0
M  V30 2303 O 223.965 4.1502 -1.40322 0
M  V30 2304 C 225.466 4.41663 0.380579 0
M  V30 2305 H 222.686 0.663954 -0.0969829 0
M  V30 2306 H 225.23 1.82966 -0.913446 0
M  V30 2307 H 223.385 3.83448 0.551931 0
M  V30 2308 H 223.799 5.08832 -1.27243 0
M  V30 2309 H 225.273 5.5065 0.385848 0
M  V30 2310 H 225.75 4.15792 1.41471 0
M  V30 2311 H 226.356 4.24534 -0.255209 0
M  V30 2312 N 224.671 0.411399 1.52136 0
M  V30 2313 C 225.899 -0.163076 2.06256 0
M  V30 2314 C 226.314 -1.3867 1.28125 0
M  V30 2315 O 225.671 -1.79423 0.333721 0
M  V30 2316 C 225.722 -0.511252 3.57867 0
M  V30 2317 O 225.443 0.66378 4.33042 0
M  V30 2318 C 226.944 -1.13921 4.28412 0
M  V30 2319 H 224.164 -0.0193897 0.67072 0
M  V30 2320 H 226.708 0.583007 1.96013 0
M  V30 2321 H 224.863 -1.20723 3.6811 0
M  V30 2322 H 225.277 0.372601 5.23175 0
M  V30 2323 H 226.751 -1.33302 5.35663 0
M  V30 2324 H 227.228 -2.11296 3.85033 0
M  V30 2325 H 227.834 -0.483373 4.22544 0
M  V30 2326 N 226.149 -1.5696 0.141893 0
M  V30 2327 C 227.426 -1.87553 -0.555281 0
M  V30 2328 C 227.806 -1.04699 -1.83306 0
M  V30 2329 O 227.154 -0.132346 -2.28116 0
M  V30 2330 C 227.364 -3.39093 -0.825664 0
M  V30 2331 C 228.712 -4.08199 -1.16869 0
M  V30 2332 O 229.736 -3.44242 -0.915185 0
M  V30 2333 O 228.595 -5.21139 -1.6455 0
M  V30 2334 H 225.689 -0.777188 -0.282679 0
M  V30 2335 H 228.235 -1.68763 0.17812 0
M  V30 2336 H 227.007 -3.91221 0.0788633 0
M  V30 2337 H 226.63 -3.63393 -1.61343 0
M  V30 2338 N 227.627 0.131896 -1.57047 0
M  V30 2339 C 229.038 0.690407 -1.73465 0
M  V30 2340 C 229.389 1.8094 -0.758629 0
M  V30 2341 O 228.514 2.16282 0.0713813 0
M  V30 2342 C 229.109 1.25916 -3.14532 0
M  V30 2343 C 227.668 1.76409 -3.32501 0
M  V30 2344 C 226.815 0.658579 -2.69366 0
M  V30 2345 H 229.766 -0.0939144 -1.58422 0
M  V30 2346 H 229.787 2.12892 -3.15369 0
M  V30 2347 H 229.299 0.444515 -3.85546 0
M  V30 2348 H 227.4 2.60391 -2.66509 0
M  V30 2349 H 227.513 1.88241 -4.4057 0
M  V30 2350 H 225.877 1.08899 -2.30246 0
M  V30 2351 H 226.66 -0.14487 -3.42994 0
M  V30 2352 N 229.106 1.52395 0.401703 0
M  V30 2353 C 230.016 1.7917 1.51444 0
M  V30 2354 C 231.032 0.677691 1.6026 0
M  V30 2355 O 232.208 0.963909 1.76835 0
M  V30 2356 C 229.273 1.94347 2.87107 0
M  V30 2357 C 228.334 3.18257 2.88116 0
M  V30 2358 C 227.567 3.32701 4.17308 0
M  V30 2359 O 227.79 2.52238 5.11598 0
M  V30 2360 O 226.724 4.25891 4.25324 0
M  V30 2361 H 230.55 2.73633 1.31752 0
M  V30 2362 H 228.135 1.3733 0.588296 0
M  V30 2363 H 230.017 2.06109 3.67555 0
M  V30 2364 H 228.692 1.03073 3.06851 0
M  V30 2365 H 227.599 3.11947 2.06494 0
M  V30 2366 H 228.932 4.09336 2.73322 0
M  V30 2367 N 230.584 -0.659388 1.43143 0
M  V30 2368 C 231.812 -1.44723 1.47861 0
M  V30 2369 C 232.227 -1.88563 0.0945886 0
M  V30 2370 O 231.584 -1.59108 -0.893915 0
M  V30 2371 C 231.635 -2.68627 2.41913 0
M  V30 2372 O 231.356 -2.26623 3.74932 0
M  V30 2373 C 232.857 -3.62045 2.55809 0
M  V30 2374 H 230.077 -0.444801 0.502387 0
M  V30 2375 H 232.621 -0.808916 1.87821 0
M  V30 2376 H 230.776 -3.28613 2.05164 0
M  V30 2377 H 231.19 -3.06745 4.2545 0
M  V30 2378 H 232.664 -4.45666 3.25708 0
M  V30 2379 H 233.141 -4.08981 1.60099 0
M  V30 2380 H 233.747 -3.07944 2.93344 0
M  V30 2381 N 232.062 -1.29571 -0.897171 0
M  V30 2382 C 233.473 -1.15964 -1.46319 0
M  V30 2383 C 233.824 0.244267 -1.94674 0
M  V30 2384 O 232.949 1.13998 -1.83939 0
M  V30 2385 C 233.544 -2.09906 -2.65942 0
M  V30 2386 C 232.103 -2.00314 -3.18671 0
M  V30 2387 C 231.25 -2.00687 -1.91363 0
M  V30 2388 H 234.201 -1.42019 -0.708268 0
M  V30 2389 H 234.222 -1.67276 -3.41759 0
M  V30 2390 H 233.734 -3.12075 -2.30718 0
M  V30 2391 H 231.835 -1.01242 -3.58582 0
M  V30 2392 H 231.948 -2.88102 -3.82798 0
M  V30 2393 H 230.312 -1.45319 -2.09175 0
M  V30 2394 H 231.095 -3.04566 -1.58413 0
M  V30 2395 N 233.54 1.10788 -1.12088 0
M  V30 2396 C 234.786 1.82942 -0.875226 0
M  V30 2397 C 235.119 1.84779 0.597538 0
M  V30 2398 O 234.394 1.30578 1.44152 0
M  V30 2399 C 234.677 3.29789 -1.44606 0
M  V30 2400 C 234.53 3.36307 -2.98693 0
M  V30 2401 C 235.849 4.26064 -1.10261 0
M  V30 2402 H 232.968 0.664195 -0.319397 0
M  V30 2403 H 235.61 1.29867 -1.38689 0
M  V30 2404 H 233.76 3.75118 -1.01089 0
M  V30 2405 H 235.432 2.99487 -3.50864 0
M  V30 2406 H 233.675 2.76318 -3.34411 0
M  V30 2407 H 234.346 4.39694 -3.33726 0
M  V30 2408 H 236.822 3.88951 -1.4784 0
M  V30 2409 H 235.698 5.27183 -1.52869 0
M  V30 2410 H 235.959 4.42098 -0.0142953 0
M  V30 2411 N 235.018 0.912232 1.28515 0
M  V30 2412 C 236.246 0.560416 1.99166 0
M  V30 2413 C 236.661 -0.857927 1.68182 0
M  V30 2414 O 236.018 -1.56805 0.933733 0
M  V30 2415 C 236.069 0.758142 3.53461 0
M  V30 2416 O 235.79 2.12067 3.83352 0
M  V30 2417 C 237.291 0.412954 4.41372 0
M  V30 2418 H 234.511 0.213805 0.636026 0
M  V30 2419 H 237.055 1.22502 1.63749 0
M  V30 2420 H 235.21 0.140556 3.87145 0
M  V30 2421 H 235.624 2.15923 4.77993 0
M  V30 2422 H 237.098 0.60208 5.48707 0
M  V30 2423 H 237.575 -0.65073 4.34353 0
M  V30 2424 H 238.181 1.00802 4.13182 0
M  V30 2425 N 236.496 -1.42363 0.676048 0
M  V30 2426 C 237.426 -2.33497 0.0124832 0
M  V30 2427 C 238.407 -1.50748 -0.787981 0
M  V30 2428 O 239.592 -1.79346 -0.744884 0
M  V30 2429 C 236.722 -3.34377 -0.938582 0
M  V30 2430 C 235.676 -4.27289 -0.246622 0
M  V30 2431 C 235.002 -5.18386 -1.31071 0
M  V30 2432 C 236.302 -5.14916 0.875125 0
M  V30 2433 H 237.996 -2.89233 0.773593 0
M  V30 2434 H 235.542 -1.39073 0.37346 0
M  V30 2435 H 237.495 -3.97044 -1.41188 0
M  V30 2436 H 236.219 -2.76947 -1.73113 0
M  V30 2437 H 234.878 -3.66018 0.206456 0
M  V30 2438 H 234.526 -4.57282 -2.09528 0
M  V30 2439 H 234.226 -5.81378 -0.852839 0
M  V30 2440 H 235.75 -5.83929 -1.78492 0
M  V30 2441 H 237.164 -5.71262 0.482983 0
M  V30 2442 H 235.561 -5.86747 1.25887 0
M  V30 2443 H 236.631 -4.53242 1.72335 0
M  V30 2444 N 237.974 -0.419461 -1.51915 0
M  V30 2445 C 238.924 0.418496 -2.24126 0
M  V30 2446 C 239.908 1.00495 -1.25656 0
M  V30 2447 O 241.1 0.926058 -1.50842 0
M  V30 2448 C 238.229 1.52899 -3.07371 0
M  V30 2449 C 237.315 0.952797 -4.13258 0
M  V30 2450 N 237.706 0.104175 -5.05693 0
M  V30 2451 C 236.004 1.22224 -4.28926 0
M  V30 2452 C 236.705 -0.21752 -5.81293 0
M  V30 2453 N 235.681 0.394293 -5.42168 0
M  V30 2454 H 239.483 -0.236048 -2.92951 0
M  V30 2455 H 236.997 -0.230481 -1.60756 0
M  V30 2456 H 238.994 2.14199 -3.57665 0
M  V30 2457 H 237.654 2.18605 -2.40088 0
M  V30 2458 H 238.665 -0.260924 -5.17242 0
M  V30 2459 H 235.342 1.87812 -3.72871 0
M  V30 2460 H 236.732 -0.906992 -6.6575 0
M  V30 2461 N 239.452 1.56882 -0.150215 0
M  V30 2462 C 240.4 2.18214 0.805313 0
M  V30 2463 C 241.394 1.14006 1.25296 0
M  V30 2464 O 242.6 1.3225 1.22107 0
M  V30 2465 H 238.975 0.698762 0.277913 0
M  V30 2466 H 240.946 2.97231 0.263862 0
M  V30 2467 C 239.695 2.82065 2.03309 0
M  V30 2468 H 239.018 3.61968 1.69763 0
M  V30 2469 H 240.458 3.28477 2.68103 0
M  V30 2470 C 238.917 1.80739 2.84315 0
M  V30 2471 O 239.447 1.27983 3.80767 0
M  V30 2472 N 237.653 1.4997 2.48913 0
M  V30 2473 H 237.2 1.93062 1.70542 0
M  V30 2474 H 237.158 0.824217 3.03404 0
M  V30 2475 N 240.93 -0.123565 1.57115 0
M  V30 2476 C 242.155 -0.850398 1.89164 0
M  V30 2477 C 242.58 -1.7286 0.741688 0
M  V30 2478 O 241.938 -1.78665 -0.307958 0
M  V30 2479 C 241.986 -1.66353 3.19936 0
M  V30 2480 O 241.09 -2.77004 3.0552 0
M  V30 2481 H 240.431 -0.235454 0.620852 0
M  V30 2482 H 242.961 -0.107335 2.04318 0
M  V30 2483 H 242.971 -2.05372 3.52543 0
M  V30 2484 H 241.646 -1.01881 4.03228 0
M  V30 2485 H 240.223 -2.41221 2.84371 0
M  V30 2486 N 242.408 -1.52605 -0.393616 0
M  V30 2487 C 243.318 -1.79971 -1.50492 0
M  V30 2488 C 244.334 -0.686181 -1.59899 0
M  V30 2489 O 245.51 -0.973274 -1.76322 0
M  V30 2490 C 242.575 -1.95867 -2.86072 0
M  V30 2491 C 241.636 -3.19781 -2.86424 0
M  V30 2492 C 240.869 -3.34909 -4.15538 0
M  V30 2493 O 241.092 -2.54948 -5.10253 0
M  V30 2494 O 240.026 -4.28141 -4.23059 0
M  V30 2495 H 243.852 -2.74328 -1.30299 0
M  V30 2496 H 241.437 -1.3764 -0.581005 0
M  V30 2497 H 243.319 -2.08056 -3.66457 0
M  V30 2498 H 241.994 -1.04699 -3.063 0
M  V30 2499 H 240.901 -3.13038 -2.04837 0
M  V30 2500 H 242.234 -4.1078 -2.71147 0
M  V30 2501 N 243.887 0.651787 -1.4349 0
M  V30 2502 C 245.135 1.40888 -1.44897 0
M  V30 2503 C 245.456 1.94856 -0.0749086 0
M  V30 2504 O 244.726 1.74518 0.889956 0
M  V30 2505 H 243.306 0.522887 -0.533478 0
M  V30 2506 H 245.968 0.768609 -1.79104 0
M  V30 2507 H 245.064 2.25052 -2.16236 0
M  V30 2508 N 245.365 1.30045 0.890287 0
M  V30 2509 C 246.611 1.18737 1.64406 0
M  V30 2510 C 246.944 -0.258525 1.92472 0
M  V30 2511 O 246.219 -1.18562 1.54186 0
M  V30 2512 C 246.502 2.01087 2.98724 0
M  V30 2513 C 246.355 3.53867 2.77665 0
M  V30 2514 C 247.674 1.84457 3.9958 0
M  V30 2515 H 244.793 0.432698 0.596608 0
M  V30 2516 H 247.435 1.5962 1.0306 0
M  V30 2517 H 245.585 1.66349 3.51084 0
M  V30 2518 H 247.257 3.98637 2.32133 0
M  V30 2519 H 245.5 3.78318 2.12269 0
M  V30 2520 H 246.171 4.06772 3.7315 0
M  V30 2521 H 248.647 2.14817 3.56361 0
M  V30 2522 H 247.523 2.44411 4.91482 0
M  V30 2523 H 247.784 0.802276 4.3476 0
M  V30 2524 N 246.843 -1.10192 1.12674 0
M  V30 2525 C 248.089 -1.82475 0.884915 0
M  V30 2526 C 248.422 -1.85093 -0.58773 0
M  V30 2527 O 247.697 -1.3134 -1.43457 0
M  V30 2528 C 247.98 -3.29018 1.46353 0
M  V30 2529 C 247.833 -3.34718 3.00473 0
M  V30 2530 C 249.152 -4.25473 1.12519 0
M  V30 2531 H 246.271 -0.662492 0.322915 0
M  V30 2532 H 248.913 -1.2913 1.39375 0
M  V30 2533 H 247.063 -3.74576 1.03077 0
M  V30 2534 H 248.735 -2.97622 3.52447 0
M  V30 2535 H 246.978 -2.74541 3.35872 0
M  V30 2536 H 247.649 -4.37918 3.36053 0
M  V30 2537 H 250.125 -3.88161 1.499 0
M  V30 2538 H 249.001 -5.26365 1.55663 0
M  V30 2539 H 249.262 -4.42084 0.0377407 0
M  V30 2540 N 248.321 -0.919034 -1.28029 0
M  V30 2541 C 249.732 -0.600735 -1.76771 0
M  V30 2542 C 250.083 0.884024 -1.75156 0
M  V30 2543 O 249.208 1.69163 -1.34956 0
M  V30 2544 C 249.803 -1.08372 -3.21 0
M  V30 2545 C 248.362 -0.816248 -3.67443 0
M  V30 2546 C 247.509 -1.24742 -2.47658 0
M  V30 2547 H 250.46 -1.09974 -1.14418 0
M  V30 2548 H 250.481 -0.427512 -3.78091 0
M  V30 2549 H 249.993 -2.16437 -3.22144 0
M  V30 2550 H 248.094 0.250968 -3.71754 0
M  V30 2551 H 248.207 -1.4277 -4.57333 0
M  V30 2552 H 246.571 -0.666083 -2.45836 0
M  V30 2553 H 247.354 -2.33653 -2.51518 0
M  V30 2554 N 249.799 1.42003 -0.683588 0
M  V30 2555 C 250.762 2.29191 -0.0198243 0
M  V30 2556 C 251.762 1.43773 0.72013 0
M  V30 2557 O 252.952 1.65061 0.556815 0
M  V30 2558 C 250.084 3.26435 0.982487 0
M  V30 2559 H 251.277 2.8938 -0.787345 0
M  V30 2560 H 248.83 1.49789 -0.446418 0
M  V30 2561 H 249.565 2.71203 1.77819 0
M  V30 2562 H 249.35 3.89449 0.455182 0
M  V30 2563 H 250.84 3.918 1.44508 0
M  V30 2564 N 251.277 0.427512 1.51691 0
M  V30 2565 C 252.502 -0.143601 2.06902 0
M  V30 2566 C 252.927 -1.36536 1.29382 0
M  V30 2567 O 252.285 -1.78289 0.329043 0
M  V30 2568 C 252.333 -0.454207 3.57728 0
M  V30 2569 O 251.437 -1.54228 3.82475 0
M  V30 2570 H 250.778 -0.00617128 0.663971 0
M  V30 2571 H 253.308 0.606014 1.95419 0
M  V30 2572 H 253.318 -0.707525 4.01818 0
M  V30 2573 H 251.993 0.438812 4.13579 0
M  V30 2574 H 250.57 -1.2797 3.50254 0
M  V30 2575 N 252.755 -1.56801 0.158532 0
M  V30 2576 C 253.985 -2.00568 -0.495583 0
M  V30 2577 C 254.393 -1.03774 -1.58201 0
M  V30 2578 O 253.736 -0.0285797 -1.83678 0
M  V30 2579 C 253.798 -3.40768 -1.14532 0
M  V30 2580 C 253.462 -4.56553 -0.202101 0
M  V30 2581 C 254.459 -5.16714 0.574675 0
M  V30 2582 C 252.144 -5.02197 -0.101648 0
M  V30 2583 C 254.138 -6.20939 1.43924 0
M  V30 2584 C 251.825 -6.06274 0.766508 0
M  V30 2585 C 252.823 -6.65515 1.53555 0
M  V30 2586 O 252.511 -7.67575 2.38922 0
M  V30 2587 H 252.243 -0.662893 -0.13247 0
M  V30 2588 H 254.797 -2.03829 0.253559 0
M  V30 2589 H 253.027 -3.34381 -1.94233 0
M  V30 2590 H 254.716 -3.6857 -1.70033 0
M  V30 2591 H 255.482 -4.82341 0.507167 0
M  V30 2592 H 251.361 -4.55807 -0.689994 0
M  V30 2593 H 254.905 -6.67107 2.03996 0
M  V30 2594 H 250.802 -6.40073 0.835266 0
M  V30 2595 H 251.57 -7.84844 2.32296 0
M  V30 2596 N 254.233 0.115231 -1.57178 0
M  V30 2597 C 255.51 0.852873 -1.76027 0
M  V30 2598 C 255.89 1.97892 -0.73498 0
M  V30 2599 O 255.238 2.27232 0.24036 0
M  V30 2600 C 255.448 1.36608 -3.21153 0
M  V30 2601 C 256.796 1.81692 -3.83762 0
M  V30 2602 O 257.82 1.46278 -3.24779 0
M  V30 2603 O 256.679 2.47104 -4.87444 0
M  V30 2604 H 253.773 0.405296 -0.720877 0
M  V30 2605 H 256.319 0.0986785 -1.69413 0
M  V30 2606 H 255.091 0.558357 -3.87296 0
M  V30 2607 H 254.714 2.18287 -3.3232 0
M  V30 2608 N 255.711 1.52812 0.385517 0
M  V30 2609 C 256.936 1.72207 1.15583 0
M  V30 2610 C 257.361 0.441034 1.82857 0
M  V30 2611 O 256.719 -0.603465 1.70962 0
M  V30 2612 C 256.767 2.87476 2.17692 0
M  V30 2613 O 255.871 2.54693 3.24354 0
M  V30 2614 H 255.212 0.572526 0.336319 0
M  V30 2615 H 257.742 1.99618 0.448744 0
M  V30 2616 H 257.752 3.13072 2.6163 0
M  V30 2617 H 256.427 3.80408 1.68115 0
M  V30 2618 H 255.004 2.3985 2.85529 0
M  V30 2619 N 257.189 -0.644168 1.43834 0
M  V30 2620 C 258.605 -0.960875 1.27434 0
M  V30 2621 C 258.805 -2.00499 0.200618 0
M  V30 2622 O 257.861 -2.49018 -0.417906 0
M  V30 2623 C 259.174 -1.43653 2.64167 0
M  V30 2624 C 260.722 -1.55271 2.71772 0
M  V30 2625 C 261.197 -2.06224 4.08944 0
M  V30 2626 N 262.688 -2.13513 4.11055 0
M  V30 2627 C 263.423 -2.54081 5.14033 0
M  V30 2628 N 262.919 -2.9388 6.27381 0
M  V30 2629 N 264.712 -2.54101 5.01387 0
M  V30 2630 H 256.863 0.0465779 2.12349 0
M  V30 2631 H 259.126 -0.0417638 0.94708 0
M  V30 2632 H 258.832 -0.743706 3.43747 0
M  V30 2633 H 258.706 -2.40993 2.90176 0
M  V30 2634 H 261.093 -2.23653 1.92519 0
M  V30 2635 H 261.174 -0.563395 2.49519 0
M  V30 2636 H 260.818 -1.38441 4.88668 0
M  V30 2637 H 260.748 -3.06003 4.28567 0
M  V30 2638 H 263.239 -1.85493 3.29242 0
M  V30 2639 H 263.552 -3.2361 7.01781 0
M  V30 2640 H 261.897 -2.91663 6.30839 0
M  V30 2641 H 265.088 -2.22391 4.11898 0
M  V30 2642 H 265.261 -2.85394 5.81768 0
M  V30 2643 N 258.668 -1.30515 -0.883378 0
M  V30 2644 C 259.6 -1.12846 -1.99496 0
M  V30 2645 C 260.613 -0.0712571 -1.62644 0
M  V30 2646 O 261.802 -0.317432 -1.75655 0
M  V30 2647 C 258.902 -0.699123 -3.3161 0
M  V30 2648 C 258.075 -1.83842 -3.96889 0
M  V30 2649 C 257.134 -1.39737 -5.07307 0
M  V30 2650 O 256.16 -2.10485 -5.28852 0
M  V30 2651 N 257.362 -0.277279 -5.79837 0
M  V30 2652 H 260.127 -2.08585 -2.15203 0
M  V30 2653 H 257.688 -1.22672 -1.05656 0
M  V30 2654 H 259.68 -0.387044 -4.02845 0
M  V30 2655 H 258.25 0.166276 -3.12157 0
M  V30 2656 H 257.47 -2.31853 -3.18807 0
M  V30 2657 H 258.758 -2.60187 -4.37241 0
M  V30 2658 H 258.156 0.3122 -5.64838 0
M  V30 2659 H 256.713 -0.0246623 -6.51795 0
M  V30 2660 N 260.146 1.09593 -1.13257 0
M  V30 2661 C 261.394 1.81375 -0.891492 0
M  V30 2662 C 261.715 1.86049 0.584009 0
M  V30 2663 O 260.985 1.34481 1.42449 0
M  V30 2664 H 259.565 0.671708 -0.326828 0
M  V30 2665 H 262.227 1.3256 -1.42877 0
M  V30 2666 H 261.323 2.84612 -1.28071 0
M  V30 2667 N 261.624 0.925811 1.2754 0
M  V30 2668 C 262.871 0.565255 1.94451 0
M  V30 2669 C 263.199 -0.89316 1.7278 0
M  V30 2670 O 262.454 -1.65213 1.04895 0
M  V30 2671 C 262.753 0.835296 3.47502 0
M  V30 2672 C 262.419 2.27515 3.89291 0
M  V30 2673 C 261.081 2.66879 4.00411 0
M  V30 2674 C 263.433 3.21158 4.10496 0
M  V30 2675 C 260.761 3.99014 4.30122 0
M  V30 2676 C 263.113 4.52871 4.4169 0
M  V30 2677 C 261.777 4.92072 4.51023 0
M  V30 2678 H 261.047 0.206841 0.711546 0
M  V30 2679 H 263.694 1.16942 1.51647 0
M  V30 2680 H 261.999 0.148442 3.91519 0
M  V30 2681 H 263.696 0.535322 3.97411 0
M  V30 2682 H 260.286 1.95976 3.81171 0
M  V30 2683 H 264.47 2.9195 4.01346 0
M  V30 2684 H 259.726 4.2907 4.35556 0
M  V30 2685 H 263.9 5.25436 4.57045 0
M  V30 2686 H 261.527 5.9449 4.738 0
M  V30 2687 N 263.102 -1.41638 0.69111 0
M  V30 2688 C 264.05 -2.32597 0.0115199 0
M  V30 2689 C 265.044 -1.5072 -0.773296 0
M  V30 2690 O 266.25 -1.66685 -0.67942 0
M  V30 2691 H 262.625 -0.751849 -0.0150746 0
M  V30 2692 H 264.596 -2.87593 0.795791 0
M  V30 2693 C 263.345 -3.35467 -0.914172 0
M  V30 2694 H 262.668 -3.9852 -0.319687 0
M  V30 2695 H 264.108 -4.01662 -1.35808 0
M  V30 2696 C 262.567 -2.69004 -2.02826 0
M  V30 2697 O 263.097 -2.53444 -3.11655 0
M  V30 2698 N 261.303 -2.2777 -1.80469 0
M  V30 2699 H 260.85 -2.40626 -0.919615 0
M  V30 2700 H 260.808 -1.83635 -2.55197 0
M  V30 2701 N 264.58 -0.43555 -1.51462 0
M  V30 2702 C 265.828 0.131254 -2.01673 0
M  V30 2703 C 266.149 1.43368 -1.32177 0
M  V30 2704 O 265.419 1.90524 -0.455769 0
M  V30 2705 H 263.999 0.0514954 -0.745223 0
M  V30 2706 H 266.661 -0.577847 -1.86137 0
M  V30 2707 H 265.757 0.308446 -3.10572 0
M  V30 2708 N 266.058 1.56714 -0.166846 0
M  V30 2709 C 267.286 2.0112 0.485644 0
M  V30 2710 C 267.701 1.04705 1.57106 0
M  V30 2711 O 267.058 0.0471923 1.82439 0
M  V30 2712 C 267.109 3.45361 1.06808 0
M  V30 2713 O 266.83 4.38092 0.0259995 0
M  V30 2714 C 268.331 4.05145 1.79924 0
M  V30 2715 H 265.551 0.65931 0.124704 0
M  V30 2716 H 268.095 2.02746 -0.267262 0
M  V30 2717 H 266.25 3.44524 1.7715 0
M  V30 2718 H 266.664 5.22519 0.455398 0
M  V30 2719 H 268.138 5.08009 2.15942 0
M  V30 2720 H 268.615 3.46982 2.69258 0
M  V30 2721 H 269.221 4.09672 1.14234 0
M  V30 2722 N 267.536 -0.106894 1.57237 0
M  V30 2723 C 268.783 -0.812526 1.85484 0
M  V30 2724 C 269.111 -1.79304 0.753687 0
M  V30 2725 O 268.366 -1.94047 -0.253853 0
M  V30 2726 C 268.665 -1.58628 3.20268 0
M  V30 2727 C 268.331 -0.748967 4.44636 0
M  V30 2728 C 266.993 -0.518104 4.78403 0
M  V30 2729 C 269.345 -0.166122 5.20935 0
M  V30 2730 C 266.673 0.305659 5.85903 0
M  V30 2731 C 269.025 0.644899 6.29304 0
M  V30 2732 C 267.689 0.885965 6.61594 0
M  V30 2733 H 266.959 -0.297324 0.678734 0
M  V30 2734 H 269.606 -0.0744332 1.91355 0
M  V30 2735 H 267.911 -2.39562 3.10028 0
M  V30 2736 H 269.608 -2.13643 3.39349 0
M  V30 2737 H 266.198 -0.939006 4.18187 0
M  V30 2738 H 270.382 -0.33167 4.95191 0
M  V30 2739 H 265.638 0.501528 6.0934 0
M  V30 2740 H 269.812 1.10345 6.87602 0
M  V30 2741 H 267.439 1.52609 7.44725 0
M  V30 2742 N 269.014 -1.53014 -0.377408 0
M  V30 2743 C 270.242 -1.72515 -1.14219 0
M  V30 2744 C 270.657 -0.448735 -1.8339 0
M  V30 2745 O 270.014 0.577592 -1.73119 0
M  V30 2746 C 270.065 -2.8826 -2.18148 0
M  V30 2747 O 269.786 -4.10962 -1.51795 0
M  V30 2748 C 271.287 -3.19536 -3.07264 0
M  V30 2749 H 268.507 -0.577301 -0.342001 0
M  V30 2750 H 271.051 -1.99712 -0.439935 0
M  V30 2751 H 269.206 -2.63492 -2.83991 0
M  V30 2752 H 269.62 -4.75693 -2.20945 0
M  V30 2753 H 271.094 -4.03959 -3.76193 0
M  V30 2754 H 271.571 -2.34403 -3.71419 0
M  V30 2755 H 272.177 -3.46186 -2.47053 0
M  V30 2756 N 270.492 0.636531 -1.44174 0
M  V30 2757 C 271.738 1.39826 -1.4689 0
M  V30 2758 C 272.071 1.93947 -0.0990585 0
M  V30 2759 O 271.346 1.73325 0.882544 0
M  V30 2760 C 271.629 2.56751 -2.5249 0
M  V30 2761 C 271.482 2.08014 -3.98811 0
M  V30 2762 C 272.801 3.58946 -2.54649 0
M  V30 2763 H 269.92 0.507075 -0.53483 0
M  V30 2764 H 272.562 0.720188 -1.75822 0
M  V30 2765 H 270.712 3.14597 -2.2795 0
M  V30 2766 H 272.384 1.5504 -4.34466 0
M  V30 2767 H 270.627 1.39242 -4.10846 0
M  V30 2768 H 271.298 2.92169 -4.68339 0
M  V30 2769 H 273.774 3.1089 -2.76563 0
M  V30 2770 H 272.65 4.38286 -3.3045 0
M  V30 2771 H 272.911 4.12655 -1.58646 0
M  V30 2772 N 271.97 1.30982 0.876444 0
M  V30 2773 C 273.218 1.20058 1.62575 0
M  V30 2774 C 273.539 -0.242947 1.93481 0
M  V30 2775 O 272.809 -1.1619 1.57724 0
M  V30 2776 H 271.389 0.44135 0.602677 0
M  V30 2777 H 274.051 1.64222 1.04962 0
M  V30 2778 H 273.147 1.76762 2.57219 0
M  V30 2779 N 273.449 -1.08991 1.13837 0
M  V30 2780 C 274.86 -1.62746 0.914917 0
M  V30 2781 C 275.211 -1.88403 -0.547594 0
M  V30 2782 O 274.336 -1.63706 -1.41525 0
M  V30 2783 C 274.931 -2.95662 1.65437 0
M  V30 2784 C 273.49 -3.46225 1.47666 0
M  V30 2785 C 272.637 -2.20562 1.6807 0
M  V30 2786 H 275.588 -0.922946 1.29102 0
M  V30 2787 H 275.609 -3.63825 1.11407 0
M  V30 2788 H 275.121 -2.76956 2.71877 0
M  V30 2789 H 273.222 -3.70046 0.435478 0
M  V30 2790 H 273.335 -4.23368 2.24268 0
M  V30 2791 H 271.699 -2.29439 1.10589 0
M  V30 2792 H 272.482 -2.0437 2.7584 0
M  V30 2793 N 274.927 -0.932562 -1.27047 0
M  V30 2794 C 276.157 -0.591173 -1.97961 0
M  V30 2795 C 276.565 0.836219 -1.69717 0
M  V30 2796 O 275.908 1.56801 -0.957036 0
M  V30 2797 C 275.97 -0.743082 -3.51736 0
M  V30 2798 C 275.634 -2.1435 -4.03613 0
M  V30 2799 C 276.631 -3.11815 -4.16014 0
M  V30 2800 C 274.316 -2.46175 -4.37839 0
M  V30 2801 C 276.31 -4.39211 -4.61923 0
M  V30 2802 C 273.997 -3.73806 -4.83438 0
M  V30 2803 C 274.995 -4.70137 -4.95439 0
M  V30 2804 O 274.683 -5.95496 -5.40037 0
M  V30 2805 H 274.415 -0.222375 -0.638377 0
M  V30 2806 H 276.969 -1.25317 -1.62742 0
M  V30 2807 H 275.199 -0.0239739 -3.86693 0
M  V30 2808 H 276.888 -0.40603 -4.03864 0
M  V30 2809 H 277.654 -2.88549 -3.89826 0
M  V30 2810 H 273.533 -1.71936 -4.27737 0
M  V30 2811 H 277.077 -5.14404 -4.71205 0
M  V30 2812 H 272.974 -3.96888 -5.09068 0
M  V30 2813 H 273.742 -5.98554 -5.58279 0
M  V30 2814 N 276.405 1.4127 -0.698611 0
M  V30 2815 C 277.654 2.00408 -0.227949 0
M  V30 2816 C 277.967 1.55981 1.18023 0
M  V30 2817 O 279.173 2.07699 1.74852 0
M  V30 2818 C 277.629 3.58129 -0.356636 0
M  V30 2819 C 277.237 4.11536 -1.77037 0
M  V30 2820 C 278.981 4.24466 0.0540969 0
M  V30 2821 C 276.888 5.61701 -1.85055 0
M  V30 2822 H 275.818 0.749586 -0.0814657 0
M  V30 2823 H 278.469 1.61713 -0.867249 0
M  V30 2824 H 276.851 3.94442 0.350965 0
M  V30 2825 H 278.025 3.86636 -2.50698 0
M  V30 2826 H 276.34 3.57736 -2.13105 0
M  V30 2827 H 278.937 5.34698 0.0146723 0
M  V30 2828 H 279.28 4.01687 1.09332 0
M  V30 2829 H 279.813 3.93198 -0.603337 0
M  V30 2830 H 276.552 5.89312 -2.8704 0
M  V30 2831 H 276.072 5.88519 -1.15783 0
M  V30 2832 H 277.751 6.26524 -1.61484 0
M  V30 2833 N 277.883 0.443576 1.51229 0
M  V30 2834 C 279.123 -0.119889 2.04048 0
M  V30 2835 C 279.487 -1.39418 1.32009 0
M  V30 2836 O 280.688 -2.03829 1.75235 0
M  V30 2837 C 278.959 -0.327233 3.55899 0
M  V30 2838 S 280.518 -0.853208 4.30425 0
M  V30 2839 H 277.336 -0.028921 0.710412 0
M  V30 2840 H 279.938 0.604413 1.85922 0
M  V30 2841 H 278.642 0.606445 4.05895 0
M  V30 2842 H 278.173 -1.07844 3.7833 0
M  V30 2843 H 280.188 -2.13005 4.48155 0
M  V30 2844 N 279.361 -1.56624 0.175154 0
M  V30 2845 C 280.271 -2.21741 -0.766042 0
M  V30 2846 C 281.287 -1.21023 -1.25018 0
M  V30 2847 O 282.463 -1.53697 -1.3015 0
M  V30 2848 C 279.528 -2.84839 -1.97655 0
M  V30 2849 C 278.589 -4.00769 -1.53892 0
M  V30 2850 C 277.822 -4.60849 -2.69173 0
M  V30 2851 O 278.045 -4.19823 -3.86141 0
M  V30 2852 O 276.979 -5.50655 -2.43028 0
M  V30 2853 H 280.805 -3.02738 -0.241585 0
M  V30 2854 H 278.39 -1.49305 -0.053222 0
M  V30 2855 H 280.272 -3.24834 -2.68442 0
M  V30 2856 H 278.947 -2.06836 -2.48999 0
M  V30 2857 H 277.854 -3.65436 -0.80044 0
M  V30 2858 H 279.187 -4.80376 -1.07236 0
M  V30 2859 N 280.839 0.0985539 -1.57292 0
M  V30 2860 C 281.802 1.10402 -2.00858 0
M  V30 2861 C 282.802 1.33146 -0.901593 0
M  V30 2862 O 283.992 1.29318 -1.16716 0
M  V30 2863 C 281.124 2.45394 -2.36632 0
M  V30 2864 H 282.317 0.729099 -2.90902 0
M  V30 2865 H 279.87 0.343495 -1.52479 0
M  V30 2866 H 280.605 2.87769 -1.49531 0
M  V30 2867 H 280.39 2.30235 -3.17387 0
M  V30 2868 H 281.88 3.17718 -2.71007 0
M  V30 2869 N 282.317 1.53212 0.369288 0
M  V30 2870 C 283.545 1.73119 1.13303 0
M  V30 2871 C 283.96 0.458455 1.83149 0
M  V30 2872 O 283.317 -0.568403 1.73423 0
M  V30 2873 C 283.368 2.89413 2.16616 0
M  V30 2874 O 283.089 4.11761 1.49614 0
M  V30 2875 C 284.59 3.21161 3.05566 0
M  V30 2876 H 281.81 0.579107 0.338934 0
M  V30 2877 H 284.354 1.99942 0.429338 0
M  V30 2878 H 282.509 2.64994 2.82589 0
M  V30 2879 H 282.923 4.76858 2.18419 0
M  V30 2880 H 284.397 4.05949 3.74045 0
M  V30 2881 H 284.874 2.36369 3.70171 0
M  V30 2882 H 285.48 3.47492 2.45213 0
M  V30 2883 N 283.795 -0.628877 1.44509 0
M  V30 2884 C 285.041 -1.39045 1.47629 0
M  V30 2885 C 285.374 -1.93892 0.109343 0
M  V30 2886 O 284.649 -1.7379 -0.87334 0
M  V30 2887 C 284.932 -2.55408 2.53848 0
M  V30 2888 C 284.785 -2.05896 3.99909 0
M  V30 2889 C 286.104 -3.5759 2.56549 0
M  V30 2890 H 283.223 -0.504232 0.537512 0
M  V30 2891 H 285.865 -0.710854 1.76201 0
M  V30 2892 H 284.015 -3.13384 2.29615 0
M  V30 2893 H 285.687 -1.52734 4.35282 0
M  V30 2894 H 283.93 -1.37061 4.11578 0
M  V30 2895 H 284.601 -2.89681 4.69882 0
M  V30 2896 H 287.077 -3.09419 2.78207 0
M  V30 2897 H 285.953 -4.36527 3.32769 0
M  V30 2898 H 286.214 -4.11808 1.60832 0
M  V30 2899 N 285.273 -1.31445 -0.869486 0
M  V30 2900 C 286.22 -1.19135 -1.97675 0
M  V30 2901 C 287.19 -0.0770266 -1.65921 0
M  V30 2902 O 288.375 -0.249972 -1.89155 0
M  V30 2903 C 285.515 -0.905149 -3.33018 0
M  V30 2904 C 284.628 -2.10285 -3.77365 0
M  V30 2905 C 283.763 -1.75339 -5.01427 0
M  V30 2906 C 282.802 -2.91515 -5.38224 0
M  V30 2907 N 281.939 -2.56762 -6.53466 0
M  V30 2908 H 286.779 -2.13853 -2.07535 0
M  V30 2909 H 284.316 -1.06379 -1.01597 0
M  V30 2910 H 286.274 -0.719765 -4.10944 0
M  V30 2911 H 284.904 0.00519624 -3.228 0
M  V30 2912 H 283.956 -2.39899 -2.95216 0
M  V30 2913 H 285.268 -2.97237 -4.00564 0
M  V30 2914 H 284.422 -1.53266 -5.87022 0
M  V30 2915 H 283.161 -0.855801 -4.80133 0
M  V30 2916 H 282.166 -3.14237 -4.51149 0
M  V30 2917 H 283.391 -3.81985 -5.61484 0
M  V30 2918 H 281.337 -1.69526 -6.33717 0
M  V30 2919 H 281.254 -3.37243 -6.76612 0
M  V30 2920 H 282.522 -2.38083 -7.42251 0
M  V30 2921 N 286.751 1.08385 -1.14413 0
M  V30 2922 C 287.999 1.80419 -0.910679 0
M  V30 2923 C 288.32 1.86658 0.564243 0
M  V30 2924 O 287.59 1.35985 1.41014 0
M  V30 2925 H 286.17 0.668204 -0.333934 0
M  V30 2926 H 288.832 1.31037 -1.44275 0
M  V30 2927 H 287.928 2.83238 -1.31082 0
M  V30 2928 N 288.23 0.939286 1.26551 0
M  V30 2929 C 289.177 0.446088 2.26448 0
M  V30 2930 C 290.147 -0.493234 1.58608 0
M  V30 2931 O 291.332 -0.409857 1.86346 0
M  V30 2932 C 288.472 -0.284375 3.43926 0
M  V30 2933 C 287.585 0.690399 4.26448 0
M  V30 2934 C 286.72 -0.0610712 5.31165 0
M  V30 2935 C 285.759 0.905649 6.05363 0
M  V30 2936 N 284.896 0.186055 7.01853 0
M  V30 2937 H 289.736 1.30291 2.68008 0
M  V30 2938 H 287.273 0.65371 1.31776 0
M  V30 2939 H 289.231 -0.724313 4.10864 0
M  V30 2940 H 287.861 -1.10535 3.03285 0
M  V30 2941 H 286.913 1.24885 3.59316 0
M  V30 2942 H 288.225 1.42873 4.779 0
M  V30 2943 H 287.379 -0.56038 6.04106 0
M  V30 2944 H 286.118 -0.832297 4.80546 0
M  V30 2945 H 285.123 1.4161 5.3125 0
M  V30 2946 H 286.348 1.67685 6.58072 0
M  V30 2947 H 284.294 -0.566714 6.53548 0
M  V30 2948 H 284.211 0.863752 7.51049 0
M  V30 2949 H 285.479 -0.292221 7.78952 0
M  V30 2950 N 289.708 -1.40897 0.706093 0
M  V30 2951 C 290.655 -2.30751 0.0474474 0
M  V30 2952 C 291.625 -1.47678 -0.76029 0
M  V30 2953 O 292.81 -1.76441 -0.726177 0
M  V30 2954 C 289.95 -3.33815 -0.875309 0
M  V30 2955 C 289.063 -4.31961 -0.0580623 0
M  V30 2956 C 288.198 -5.22093 -0.979425 0
M  V30 2957 C 287.237 -6.11902 -0.155706 0
M  V30 2958 N 286.374 -6.94482 -1.03144 0
M  V30 2959 H 291.214 -2.86513 0.819413 0
M  V30 2960 H 288.751 -1.41102 0.415783 0
M  V30 2961 H 290.709 -3.92129 -1.42446 0
M  V30 2962 H 289.339 -2.79579 -1.61356 0
M  V30 2963 H 288.391 -3.75507 0.608147 0
M  V30 2964 H 289.703 -4.95415 0.580082 0
M  V30 2965 H 288.857 -5.85292 -1.59744 0
M  V30 2966 H 287.596 -4.5889 -1.65141 0
M  V30 2967 H 286.601 -5.47742 0.475309 0
M  V30 2968 H 287.826 -6.77162 0.512635 0
M  V30 2969 H 285.772 -6.33877 -1.68924 0
M  V30 2970 H 285.689 -7.54665 -0.449108 0
M  V30 2971 H 286.957 -7.6214 -1.63593 0
M  V30 2972 N 291.186 -0.45159 -1.50991 0
M  V30 2973 C 292.433 0.110074 -2.02201 0
M  V30 2974 C 292.761 1.4146 -1.33489 0
M  V30 2975 O 292.016 1.90617 -0.443125 0
M  V30 2976 C 292.315 0.361728 -3.55565 0
M  V30 2977 C 291.981 -0.858717 -4.42648 0
M  V30 2978 C 290.643 -1.19338 -4.66167 0
M  V30 2979 C 292.995 -1.67221 -4.93646 0
M  V30 2980 C 290.323 -2.34195 -5.37931 0
M  V30 2981 C 292.675 -2.8119 -5.6667 0
M  V30 2982 C 291.339 -3.15094 -5.88449 0
M  V30 2983 H 290.609 0.040279 -0.739904 0
M  V30 2984 H 293.256 -0.601696 -1.81802 0
M  V30 2985 H 291.561 1.15554 -3.74372 0
M  V30 2986 H 293.258 0.80996 -3.92735 0
M  V30 2987 H 289.848 -0.58796 -4.24548 0
M  V30 2988 H 294.032 -1.42686 -4.75347 0
M  V30 2989 H 289.288 -2.6076 -5.53005 0
M  V30 2990 H 293.462 -3.44585 -6.05173 0
M  V30 2991 H 291.089 -4.04204 -6.43835 0
M  V30 2992 N 292.664 1.56529 -0.183458 0
M  V30 2993 C 293.596 2.15747 0.773697 0
M  V30 2994 C 294.609 1.1162 1.1851 0
M  V30 2995 O 295.798 1.3876 1.12285 0
M  V30 2996 C 292.898 2.6952 2.05456 0
M  V30 2997 C 292.071 3.98429 1.8048 0
M  V30 2998 C 291.13 4.37145 2.92901 0
M  V30 2999 O 290.156 5.04791 2.6301 0
M  V30 3000 N 291.358 3.99695 4.2098 0
M  V30 3001 H 294.123 2.98505 0.26736 0
M  V30 3002 H 291.684 1.619 -0.0010878 0
M  V30 3003 H 293.676 2.92412 2.79781 0
M  V30 3004 H 292.246 1.91282 2.47245 0
M  V30 3005 H 291.466 3.8379 0.899947 0
M  V30 3006 H 292.754 4.82597 1.61175 0
M  V30 3007 H 292.152 3.4526 4.48121 0
M  V30 3008 H 290.709 4.27562 4.9197 0
M  V30 3009 N 294.142 -0.090211 1.57342 0
M  V30 3010 C 295.37 -0.806224 1.90546 0
M  V30 3011 C 295.785 -1.72041 0.777644 0
M  V30 3012 O 295.142 -1.80778 -0.250103 0
M  V30 3013 C 295.193 -1.61546 3.23396 0
M  V30 3014 O 294.914 -0.738043 4.31839 0
M  V30 3015 C 296.415 -2.4341 3.70495 0
M  V30 3016 H 293.635 -0.230256 0.630257 0
M  V30 3017 H 296.179 -0.0659843 2.04394 0
M  V30 3018 H 294.334 -2.30816 3.11131 0
M  V30 3019 H 294.748 -1.29901 5.08159 0
M  V30 3020 H 296.222 -2.95676 4.66133 0
M  V30 3021 H 296.699 -3.22098 2.98579 0
M  V30 3022 H 297.305 -1.79331 3.85643 0
M  V30 3023 N 295.62 -1.53406 -0.361157 0
M  V30 3024 C 296.869 -1.69022 -1.10066 0
M  V30 3025 C 297.182 -0.450838 -1.90333 0
M  V30 3026 O 298.388 -0.487617 -2.67085 0
M  V30 3027 C 296.844 -2.98812 -2.00598 0
M  V30 3028 C 296.452 -4.30027 -1.25621 0
M  V30 3029 C 298.196 -3.23795 -2.74513 0
M  V30 3030 C 296.103 -5.50903 -2.1508 0
M  V30 3031 H 295.033 -0.629776 -0.414606 0
M  V30 3032 H 297.684 -1.79907 -0.361348 0
M  V30 3033 H 296.066 -2.8174 -2.78278 0
M  V30 3034 H 297.24 -4.57745 -0.529739 0
M  V30 3035 H 295.555 -4.11522 -0.635496 0
M  V30 3036 H 298.152 -4.11289 -3.41681 0
M  V30 3037 H 298.495 -2.40045 -3.40123 0
M  V30 3038 H 299.028 -3.41561 -2.03914 0
M  V30 3039 H 295.767 -6.37143 -1.54041 0
M  V30 3040 H 295.287 -5.27459 -2.85565 0
M  V30 3041 H 296.966 -5.85865 -2.74538 0
M  V30 3042 N 297.098 0.621204 -1.44841 0
M  V30 3043 C 298.509 1.20298 -1.42777 0
M  V30 3044 C 298.86 1.95639 -0.148259 0
M  V30 3045 O 297.985 2.02955 0.750892 0
M  V30 3046 C 298.58 2.1882 -2.58657 0
M  V30 3047 C 297.139 2.72403 -2.59756 0
M  V30 3048 C 296.286 1.4757 -2.34773 0
M  V30 3049 H 299.237 0.411297 -1.53278 0
M  V30 3050 H 299.258 3.01607 -2.31977 0
M  V30 3051 H 298.77 1.63957 -3.51766 0
M  V30 3052 H 296.871 3.31242 -1.70615 0
M  V30 3053 H 296.984 3.17765 -3.58556 0
M  V30 3054 H 295.348 1.76051 -1.8406 0
M  V30 3055 H 296.131 0.945954 -3.3001 0
M  V30 3056 N 298.576 1.31904 0.862503 0
M  V30 3057 C 299.823 1.22017 1.61611 0
M  V30 3058 C 300.151 -0.21991 1.93253 0
M  V30 3059 O 299.406 -1.17076 1.56817 0
M  V30 3060 C 299.705 2.01713 2.95037 0
M  V30 3061 C 299.371 3.51145 2.82857 0
M  V30 3062 C 298.033 3.91889 2.79243 0
M  V30 3063 C 300.385 4.46204 2.69353 0
M  V30 3064 C 297.713 5.25947 2.59993 0
M  V30 3065 C 300.065 5.80397 2.5164 0
M  V30 3066 C 298.729 6.20352 2.46413 0
M  V30 3067 H 297.999 0.44649 0.591378 0
M  V30 3068 H 300.646 1.63248 1.00111 0
M  V30 3069 H 298.951 1.53185 3.60613 0
M  V30 3070 H 300.648 1.91437 3.52353 0
M  V30 3071 H 297.238 3.1878 2.86491 0
M  V30 3072 H 301.422 4.15652 2.71196 0
M  V30 3073 H 296.678 5.5597 2.54376 0
M  V30 3074 H 300.852 6.53676 2.40169 0
M  V30 3075 H 298.479 7.24172 2.31256 0
M  V30 3076 N 300.054 -1.07777 1.14986 0
M  V30 3077 C 301.002 -2.16964 0.838406 0
M  V30 3078 C 301.996 -1.68372 -0.186386 0
M  V30 3079 O 303.202 -1.79951 -0.0418465 0
M  V30 3080 H 299.577 -0.708006 0.253439 0
M  V30 3081 H 301.548 -2.40454 1.76704 0
M  V30 3082 C 300.297 -3.4604 0.339335 0
M  V30 3083 H 299.62 -3.83813 1.11927 0
M  V30 3084 H 301.06 -4.23698 0.160021 0
M  V30 3085 C 299.519 -3.23569 -0.938325 0
M  V30 3086 O 300.049 -3.47752 -2.01077 0
M  V30 3087 N 298.255 -2.77079 -0.876117 0
M  V30 3088 H 297.802 -2.576 -0.00322037 0
M  V30 3089 H 297.76 -2.62422 -1.73153 0
M  V30 3090 N 301.532 -0.945985 -1.26051 0
M  V30 3091 C 302.778 -0.597002 -1.93814 0
M  V30 3092 C 303.111 0.862484 -1.73997 0
M  V30 3093 O 302.386 1.61769 -1.07986 0
M  V30 3094 C 302.669 -0.945937 -3.47454 0
M  V30 3095 C 302.522 -2.46052 -3.76535 0
M  V30 3096 C 303.841 -0.464785 -4.37639 0
M  V30 3097 H 300.96 -0.218366 -0.703907 0
M  V30 3098 H 303.602 -1.18107 -1.48831 0
M  V30 3099 H 301.752 -0.448902 -3.85898 0
M  V30 3100 H 303.424 -3.03065 -3.47778 0
M  V30 3101 H 301.667 -2.90194 -3.22444 0
M  V30 3102 H 302.338 -2.65517 -4.83947 0
M  V30 3103 H 304.814 -0.891016 -4.06448 0
M  V30 3104 H 303.69 -0.737712 -5.4392 0
M  V30 3105 H 303.951 0.635274 -4.37512 0
M  V30 3106 N 303.011 1.40521 -0.713556 0
M  V30 3107 C 304.241 2.0494 -0.261395 0
M  V30 3108 C 304.649 1.53861 1.10107 0
M  V30 3109 O 303.992 0.689321 1.70276 0
M  V30 3110 C 304.054 3.59138 -0.161227 0
M  V30 3111 C 303.718 4.33096 -1.45865 0
M  V30 3112 C 304.715 4.61182 -2.40016 0
M  V30 3113 C 302.4 4.72043 -1.71701 0
M  V30 3114 C 304.394 5.27196 -3.58251 0
M  V30 3115 C 302.081 5.37789 -2.90218 0
M  V30 3116 C 303.079 5.65295 -3.83315 0
M  V30 3117 O 302.767 6.29683 -4.99754 0
M  V30 3118 H 302.499 0.666041 -0.115608 0
M  V30 3119 H 305.053 1.80954 -0.971849 0
M  V30 3120 H 303.283 3.81936 0.605153 0
M  V30 3121 H 304.972 4.05091 0.256105 0
M  V30 3122 H 305.738 4.31559 -2.21318 0
M  V30 3123 H 301.617 4.50003 -1.00092 0
M  V30 3124 H 305.161 5.48582 -4.30934 0
M  V30 3125 H 301.058 5.66831 -3.08825 0
M  V30 3126 H 301.826 6.4818 -4.99805 0
M  V30 3127 N 304.489 0.459591 1.5075 0
M  V30 3128 C 305.452 -0.329093 2.26825 0
M  V30 3129 C 306.452 -0.930481 1.31144 0
M  V30 3130 O 307.642 -0.801453 1.54669 0
M  V30 3131 C 304.774 -1.46768 3.07688 0
M  V30 3132 H 305.967 0.337924 2.9799 0
M  V30 3133 H 303.52 0.213336 1.54837 0
M  V30 3134 H 304.255 -2.17009 2.40993 0
M  V30 3135 H 304.04 -1.04238 3.77991 0
M  V30 3136 H 305.53 -2.02433 3.65254 0
M  V30 3137 N 305.967 -1.56429 0.191757 0
M  V30 3138 C 306.897 -2.21937 -0.725696 0
M  V30 3139 C 307.878 -1.1814 -1.2238 0
M  V30 3140 O 309.063 -1.46636 -1.27325 0
M  V30 3141 C 306.193 -2.87611 -1.94672 0
M  V30 3142 C 305.147 -3.97623 -1.58366 0
M  V30 3143 C 304.473 -4.50446 -2.88102 0
M  V30 3144 C 305.773 -5.16197 -0.796133 0
M  V30 3145 H 307.467 -2.98861 -0.179606 0
M  V30 3146 H 305.013 -1.43749 -0.0849464 0
M  V30 3147 H 306.966 -3.3212 -2.59373 0
M  V30 3148 H 305.69 -2.08087 -2.51728 0
M  V30 3149 H 304.349 -3.53801 -0.960247 0
M  V30 3150 H 303.997 -3.67688 -3.43241 0
M  V30 3151 H 303.697 -5.24675 -2.64556 0
M  V30 3152 H 305.221 -4.97654 -3.53798 0
M  V30 3153 H 306.635 -5.57271 -1.34618 0
M  V30 3154 H 305.032 -5.96471 -0.658928 0
M  V30 3155 H 306.102 -4.84473 0.203478 0
M  V30 3156 N 307.445 0.0818655 -1.57387 0
M  V30 3157 C 308.392 1.09834 -2.0299 0
M  V30 3158 C 309.362 1.39043 -0.908639 0
M  V30 3159 O 310.547 1.50282 -1.17559 0
M  V30 3160 C 307.687 2.40971 -2.47037 0
M  V30 3161 C 306.8 2.18379 -3.7274 0
M  V30 3162 C 305.935 3.43008 -4.0561 0
M  V30 3163 C 304.974 3.15736 -5.24383 0
M  V30 3164 N 304.111 4.32667 -5.52941 0
M  V30 3165 H 308.951 0.702472 -2.89602 0
M  V30 3166 H 306.488 0.33531 -1.43227 0
M  V30 3167 H 308.446 3.1752 -2.70623 0
M  V30 3168 H 307.076 2.78379 -1.63417 0
M  V30 3169 H 306.128 1.32569 -3.56552 0
M  V30 3170 H 307.44 1.94227 -4.59431 0
M  V30 3171 H 306.594 4.27958 -4.30043 0
M  V30 3172 H 305.333 3.70225 -3.17466 0
M  V30 3173 H 304.338 2.2918 -4.99757 0
M  V30 3174 H 305.563 2.8985 -6.14136 0
M  V30 3175 H 303.509 4.59935 -4.67756 0
M  V30 3176 H 303.426 4.11753 -6.34031 0
M  V30 3177 H 304.694 5.18644 -5.81918 0
M  V30 3178 N 308.923 1.53595 0.353017 0
M  V30 3179 C 309.886 1.80232 1.41594 0
M  V30 3180 C 310.886 0.673081 1.46035 0
M  V30 3181 O 312.076 0.941335 1.46576 0
M  V30 3182 C 309.208 1.93578 2.80607 0
M  V30 3183 H 310.401 2.75174 1.19244 0
M  V30 3184 H 307.954 1.44864 0.586872 0
M  V30 3185 H 308.689 1.00746 3.08254 0
M  V30 3186 H 308.474 2.75724 2.78781 0
M  V30 3187 H 309.964 2.15735 3.57558 0
M  V30 3188 N 310.401 -0.613514 1.45168 0
M  V30 3189 C 311.629 -1.39946 1.5239 0
M  V30 3190 C 312.044 -1.88167 0.154531 0
M  V30 3191 O 311.401 -1.61872 -0.842843 0
M  V30 3192 C 311.452 -2.60795 2.50337 0
M  V30 3193 O 311.173 -2.1458 3.81952 0
M  V30 3194 C 312.674 -3.53723 2.67198 0
M  V30 3195 H 309.894 -0.428593 0.516284 0
M  V30 3196 H 312.438 -0.748753 1.903 0
M  V30 3197 H 310.593 -3.21919 2.15515 0
M  V30 3198 H 311.007 -2.93055 4.34993 0
M  V30 3199 H 312.481 -4.35079 3.39721 0
M  V30 3200 H 312.958 -4.0368 1.73029 0
M  V30 3201 H 313.564 -2.98456 3.02992 0
M  V30 3202 N 311.879 -1.3236 -0.855495 0
M  V30 3203 C 313.104 -1.2601 -1.64731 0
M  V30 3204 C 313.529 0.169068 -1.87339 0
M  V30 3205 O 312.887 1.12016 -1.42556 0
M  V30 3206 C 312.935 -2.02417 -2.98429 0
M  V30 3207 O 312.039 -1.3714 -3.8893 0
M  V30 3208 H 311.38 -0.434325 -0.502253 0
M  V30 3209 H 313.91 -1.74661 -1.06558 0
M  V30 3210 H 313.92 -2.12559 -3.48257 0
M  V30 3211 H 312.595 -3.06343 -2.81295 0
M  V30 3212 H 311.172 -1.3554 -3.47395 0
M  V30 3213 N 313.357 1.07166 -1.15556 0
M  V30 3214 C 314.267 2.17947 -0.868116 0
M  V30 3215 C 315.283 1.73297 0.156297 0
M  V30 3216 O 316.459 2.01392 -0.0182327 0
M  V30 3217 C 313.524 3.44789 -0.36355 0
M  V30 3218 C 312.585 4.03996 -1.45209 0
M  V30 3219 C 311.818 5.24783 -0.971508 0
M  V30 3220 O 312.041 5.70109 0.182194 0
M  V30 3221 O 310.975 5.75715 -1.75603 0
M  V30 3222 H 314.801 2.4503 -1.79427 0
M  V30 3223 H 312.386 1.16539 -0.934824 0
M  V30 3224 H 314.268 4.21307 -0.0887113 0
M  V30 3225 H 312.943 3.19253 0.534708 0
M  V30 3226 H 311.85 3.29009 -1.78056 0
M  V30 3227 H 313.183 4.33808 -2.32533 0
M  V30 3228 N 314.835 0.952656 1.25548 0
M  V30 3229 C 315.765 0.489287 2.28316 0
M  V30 3230 C 316.746 -0.463359 1.63667 0
M  V30 3231 O 317.931 -0.36274 1.90782 0
M  V30 3232 C 315.061 -0.235603 3.465 0
M  V30 3233 C 314.015 0.631593 4.23314 0
M  V30 3234 C 313.341 -0.223923 5.34231 0
M  V30 3235 C 314.641 1.90871 4.86174 0
M  V30 3236 H 316.335 1.34822 2.67326 0
M  V30 3237 H 313.881 0.649728 1.28509 0
M  V30 3238 H 315.834 -0.570882 4.17515 0
M  V30 3239 H 314.558 -1.12877 3.06474 0
M  V30 3240 H 313.217 0.949929 3.54079 0
M  V30 3241 H 312.865 -1.11678 4.90446 0
M  V30 3242 H 312.565 0.35299 5.86539 0
M  V30 3243 H 314.089 -0.554214 6.0808 0
M  V30 3244 H 315.503 1.63997 5.49343 0
M  V30 3245 H 313.9 2.43112 5.4865 0
M  V30 3246 H 314.97 2.61304 4.08471 0
M  V30 3247 N 316.313 -1.40141 0.720998 0
M  V30 3248 C 317.59 -1.94677 0.189757 0
M  V30 3249 C 317.97 -1.65879 -1.30566 0
M  V30 3250 O 317.318 -0.979391 -2.06447 0
M  V30 3251 C 317.528 -3.45279 0.508304 0
M  V30 3252 C 318.876 -4.22209 0.449934 0
M  V30 3253 O 319.9 -3.53413 0.444677 0
M  V30 3254 O 318.759 -5.44788 0.432189 0
M  V30 3255 H 315.853 -0.826459 0.0299026 0
M  V30 3256 H 318.399 -1.49719 0.7989 0
M  V30 3257 H 317.171 -3.59619 1.54239 0
M  V30 3258 H 316.794 -3.97386 -0.130525 0
M  V30 3259 N 317.792 -0.46758 -1.50504 0
M  V30 3260 C 318.722 0.318381 -2.31319 0
M  V30 3261 C 319.703 0.993564 -1.38066 0
M  V30 3262 O 320.888 0.991411 -1.66987 0
M  V30 3263 C 318.018 1.40275 -3.17711 0
M  V30 3264 C 316.972 0.849373 -4.19487 0
M  V30 3265 C 316.298 2.03177 -4.94594 0
M  V30 3266 C 317.598 -0.136942 -5.2212 0
M  V30 3267 H 319.292 -0.356106 -2.97275 0
M  V30 3268 H 316.838 -0.172703 -1.42961 0
M  V30 3269 H 318.791 1.96004 -3.73042 0
M  V30 3270 H 317.515 2.10596 -2.49634 0
M  V30 3271 H 316.174 0.314076 -3.65252 0
M  V30 3272 H 315.822 2.72187 -4.22993 0
M  V30 3273 H 315.522 1.66774 -5.63436 0
M  V30 3274 H 317.046 2.59403 -5.52759 0
M  V30 3275 H 318.46 0.331056 -5.72343 0
M  V30 3276 H 316.857 -0.41507 -5.98663 0
M  V30 3277 H 317.927 -1.06398 -4.73083 0
M  V30 3278 N 319.27 1.56325 -0.20005 0
M  V30 3279 C 320.18 2.22931 0.730668 0
M  V30 3280 C 321.196 1.22997 1.23076 0
M  V30 3281 O 322.372 1.55748 1.27689 0
M  V30 3282 C 319.437 2.87948 1.93098 0
M  V30 3283 C 318.498 4.03166 1.47497 0
M  V30 3284 C 317.731 4.65073 2.61807 0
M  V30 3285 O 317.954 4.25913 3.79413 0
M  V30 3286 O 316.888 5.54452 2.34237 0
M  V30 3287 H 320.714 3.03084 0.193391 0
M  V30 3288 H 318.299 1.49371 0.0294621 0
M  V30 3289 H 320.181 3.29063 2.6324 0
M  V30 3290 H 318.856 2.10771 2.45677 0
M  V30 3291 H 317.763 3.66664 0.742201 0
M  V30 3292 H 319.096 4.82022 0.995796 0
M  V30 3293 N 320.748 -0.0735177 1.57428 0
M  V30 3294 C 321.681 -1.11932 1.98863 0
M  V30 3295 C 322.659 -1.37666 0.865266 0
M  V30 3296 O 323.843 -1.51068 1.12742 0
M  V30 3297 C 320.97 -2.46403 2.32386 0
M  V30 3298 C 320.016 -2.36815 3.54713 0
M  V30 3299 S 320.849 -1.76392 5.05614 0
M  V30 3300 C 322.005 -3.12444 5.42337 0
M  V30 3301 H 322.238 -0.766212 2.87257 0
M  V30 3302 H 319.771 -0.281987 1.51803 0
M  V30 3303 H 321.729 -3.23755 2.52375 0
M  V30 3304 H 320.39 -2.78876 1.44524 0
M  V30 3305 H 319.583 -3.35977 3.7568 0
M  V30 3306 H 319.185 -1.67598 3.34345 0
M  V30 3307 H 321.477 -4.08753 5.40303 0
M  V30 3308 H 322.42 -2.96258 6.43146 0
M  V30 3309 H 322.828 -3.1297 4.69798 0
M  V30 3310 N 322.226 -1.5378 -0.344866 0
M  V30 3311 C 323.136 -1.84667 -1.4469 0
M  V30 3312 C 324.152 -0.736704 -1.57635 0
M  V30 3313 O 325.328 -1.02888 -1.73136 0
M  V30 3314 C 322.393 -2.04869 -2.79696 0
M  V30 3315 C 321.454 -3.28731 -2.76106 0
M  V30 3316 C 320.687 -3.4796 -4.04673 0
M  V30 3317 O 320.91 -2.71052 -5.01883 0
M  V30 3318 O 319.844 -4.41383 -4.09224 0
M  V30 3319 H 323.67 -2.78334 -1.21506 0
M  V30 3320 H 321.255 -1.39418 -0.536921 0
M  V30 3321 H 323.137 -2.19609 -3.59652 0
M  V30 3322 H 321.812 -1.14391 -3.02814 0
M  V30 3323 H 320.719 -3.19396 -1.94774 0
M  V30 3324 H 322.052 -4.19198 -2.57941 0
M  V30 3325 N 323.704 0.605807 -1.45491 0
M  V30 3326 C 324.667 1.69836 -1.5391 0
M  V30 3327 C 325.667 1.55261 -0.418424 0
M  V30 3328 O 326.857 1.60296 -0.681965 0
M  V30 3329 C 323.989 3.09117 -1.43734 0
M  V30 3330 H 325.182 1.63738 -2.51257 0
M  V30 3331 H 322.735 0.821689 -1.32959 0
M  V30 3332 H 323.47 3.20791 -0.475788 0
M  V30 3333 H 323.255 3.21104 -2.25021 0
M  V30 3334 H 324.745 3.88696 -1.52661 0
M  V30 3335 N 325.182 1.32811 0.848464 0
M  V30 3336 C 326.112 1.24882 1.97299 0
M  V30 3337 C 327.093 0.131357 1.69592 0
M  V30 3338 O 328.278 0.319553 1.91553 0
M  V30 3339 C 325.408 0.97746 3.33261 0
M  V30 3340 C 324.362 2.05682 3.75338 0
M  V30 3341 C 323.688 1.63777 5.09 0
M  V30 3342 C 324.988 3.47254 3.90144 0
M  V30 3343 H 326.682 2.18966 2.04191 0
M  V30 3344 H 324.228 1.05413 0.981029 0
M  V30 3345 H 326.181 0.908513 4.1149 0
M  V30 3346 H 324.905 0.000980011 3.266 0
M  V30 3347 H 323.564 2.11603 2.99366 0
M  V30 3348 H 323.212 0.648569 4.98801 0
M  V30 3349 H 322.912 2.36 5.38124 0
M  V30 3350 H 324.436 1.5833 5.89715 0
M  V30 3351 H 325.85 3.43888 4.58709 0
M  V30 3352 H 324.247 4.1788 4.30693 0
M  V30 3353 H 325.317 3.86462 2.92874 0
M  V30 3354 N 326.66 -1.06551 1.16123 0
M  V30 3355 C 327.607 -2.13961 0.865414 0
M  V30 3356 C 328.577 -1.65066 -0.185055 0
M  V30 3357 O 329.762 -1.90732 -0.05083 0
M  V30 3358 C 326.902 -3.43113 0.369776 0
M  V30 3359 C 326.015 -4.05756 1.48276 0
M  V30 3360 C 325.15 -5.22773 0.942414 0
M  V30 3361 C 324.189 -5.77395 2.03179 0
M  V30 3362 N 323.326 -6.85731 1.50721 0
M  V30 3363 H 328.166 -2.38605 1.78527 0
M  V30 3364 H 325.703 -1.17072 0.890646 0
M  V30 3365 H 327.661 -4.17151 0.0640643 0
M  V30 3366 H 326.291 -3.18695 -0.513143 0
M  V30 3367 H 325.343 -3.29292 1.9045 0
M  V30 3368 H 326.655 -4.42351 2.30493 0
M  V30 3369 H 325.809 -6.03827 0.589729 0
M  V30 3370 H 324.548 -4.87618 0.0895191 0
M  V30 3371 H 323.553 -4.94981 2.3932 0
M  V30 3372 H 324.778 -6.14603 2.8886 0
M  V30 3373 H 322.724 -6.52499 0.676811 0
M  V30 3374 H 322.641 -7.21254 2.26557 0
M  V30 3375 H 323.909 -7.7047 1.18303 0
M  V30 3376 N 328.138 -0.959301 -1.25041 0
M  V30 3377 C 329.366 -0.633949 -1.96948 0
M  V30 3378 C 329.781 0.794916 -1.7125 0
M  V30 3379 O 329.138 1.53231 -0.991287 0
M  V30 3380 C 329.189 -0.888805 -3.50403 0
M  V30 3381 O 328.91 -2.26149 -3.75218 0
M  V30 3382 C 330.411 -0.576482 -4.39536 0
M  V30 3383 H 327.631 -0.237263 -0.627652 0
M  V30 3384 H 330.175 -1.28495 -1.59089 0
M  V30 3385 H 328.33 -0.284145 -3.86357 0
M  V30 3386 H 328.744 -2.33514 -4.6965 0
M  V30 3387 H 330.218 -0.805314 -5.46094 0
M  V30 3388 H 330.695 0.489075 -4.36468 0
M  V30 3389 H 331.301 -1.16067 -4.09156 0
M  V30 3390 N 329.616 1.39756 -0.72842 0
M  V30 3391 C 330.862 2.00942 -0.273892 0
M  V30 3392 C 331.195 1.57656 1.13394 0
M  V30 3393 O 330.47 0.802434 1.77176 0
M  V30 3394 C 330.753 3.58211 -0.368346 0
M  V30 3395 C 330.606 4.11534 -1.81548 0
M  V30 3396 C 331.925 4.39372 0.253054 0
M  V30 3397 H 329.044 0.730047 -0.100996 0
M  V30 3398 H 331.686 1.66056 -0.923337 0
M  V30 3399 H 329.836 3.88061 0.184588 0
M  V30 3400 H 331.508 3.92431 -2.42478 0
M  V30 3401 H 329.751 3.65341 -2.33898 0
M  V30 3402 H 330.422 5.20682 -1.83288 0
M  V30 3403 H 332.898 4.15527 -0.218224 0
M  V30 3404 H 331.774 5.48677 0.156585 0
M  V30 3405 H 332.035 4.21358 1.33826 0
M  V30 3406 N 331.094 0.475555 1.50254 0
M  V30 3407 C 332.324 -0.0753399 2.06463 0
M  V30 3408 C 332.732 -1.33661 1.33908 0
M  V30 3409 O 332.075 -1.79219 0.403257 0
M  V30 3410 C 332.137 -0.424921 3.5698 0
M  V30 3411 C 331.801 0.734965 4.51051 0
M  V30 3412 C 332.798 1.61827 4.94073 0
M  V30 3413 C 330.483 0.926557 4.9368 0
M  V30 3414 C 332.477 2.67754 5.78434 0
M  V30 3415 C 330.164 1.98904 5.77824 0
M  V30 3416 C 331.162 2.8629 6.20103 0
M  V30 3417 O 330.85 3.90708 7.02568 0
M  V30 3418 H 330.582 0.00576308 0.675975 0
M  V30 3419 H 333.136 0.664662 1.94349 0
M  V30 3420 H 331.366 -1.21817 3.67012 0
M  V30 3421 H 333.055 -0.911422 3.95535 0
M  V30 3422 H 333.821 1.48196 4.61804 0
M  V30 3423 H 329.7 0.25584 4.6029 0
M  V30 3424 H 333.244 3.35992 6.11355 0
M  V30 3425 H 329.141 2.12541 6.09505 0
M  V30 3426 H 329.909 3.87751 7.20827 0
M  V30 3427 N 332.573 -1.56217 0.208337 0
M  V30 3428 C 333.52 -2.19699 -0.707192 0
M  V30 3429 C 334.49 -1.14836 -1.20008 0
M  V30 3430 O 335.675 -1.4314 -1.26157 0
M  V30 3431 C 332.815 -2.87061 -1.91546 0
M  V30 3432 C 331.928 -4.06483 -1.46271 0
M  V30 3433 C 331.063 -4.61665 -2.62752 0
M  V30 3434 C 330.102 -5.73417 -2.14147 0
M  V30 3435 N 329.239 -6.22948 -3.23853 0
M  V30 3436 H 334.079 -2.97575 -0.159111 0
M  V30 3437 H 331.616 -1.46948 -0.0667874 0
M  V30 3438 H 333.574 -3.24294 -2.62468 0
M  V30 3439 H 332.204 -2.11725 -2.43664 0
M  V30 3440 H 331.256 -3.74825 -0.648886 0
M  V30 3441 H 332.568 -4.87271 -1.06622 0
M  V30 3442 H 331.722 -5.01272 -3.41776 0
M  V30 3443 H 330.461 -3.80013 -3.05682 0
M  V30 3444 H 329.466 -5.33326 -1.33581 0
M  V30 3445 H 330.691 -6.56897 -1.72232 0
M  V30 3446 H 328.637 -5.44213 -3.6629 0
M  V30 3447 H 328.554 -6.98823 -2.88414 0
M  V30 3448 H 329.822 -6.6721 -4.03052 0
M  V30 3449 N 334.051 0.0651679 -1.57465 0
M  V30 3450 C 335.276 0.779605 -1.9219 0
M  V30 3451 C 335.701 1.69988 -0.805333 0
M  V30 3452 O 335.059 1.79685 0.241435 0
M  V30 3453 C 335.107 1.54364 -3.2589 0
M  V30 3454 O 334.211 2.65474 -3.1559 0
M  V30 3455 H 333.552 0.212249 -0.629163 0
M  V30 3456 H 336.082 0.0314294 -2.04576 0
M  V30 3457 H 336.092 1.92146 -3.59922 0
M  V30 3458 H 334.767 0.868457 -4.06732 0
M  V30 3459 H 333.344 2.30501 -2.93128 0
M  V30 3460 N 335.529 1.53961 0.336706 0
M  V30 3461 C 336.777 1.71197 1.07405 0
M  V30 3462 C 337.098 0.481475 1.88962 0
M  V30 3463 O 336.368 -0.504585 1.8929 0
M  V30 3464 H 334.948 0.631185 0.399517 0
M  V30 3465 H 337.61 1.91232 0.376323 0
M  V30 3466 H 336.706 2.58587 1.74755 0
M  V30 3467 N 337.007 -0.598083 1.45811 0
M  V30 3468 C 337.917 -1.73632 1.57763 0
M  V30 3469 C 338.933 -1.67763 0.461676 0
M  V30 3470 O 340.109 -1.87949 0.723685 0
M  V30 3471 C 337.174 -3.10114 1.55018 0
M  V30 3472 C 336.235 -3.27364 2.77726 0
M  V30 3473 C 335.468 -4.57334 2.75102 0
M  V30 3474 O 335.691 -5.40258 1.8297 0
M  V30 3475 O 334.625 -4.77502 3.66437 0
M  V30 3476 H 338.451 -1.66498 2.53992 0
M  V30 3477 H 336.036 -0.763308 1.28429 0
M  V30 3478 H 337.918 -3.9141 1.56129 0
M  V30 3479 H 336.593 -3.17718 0.619431 0
M  V30 3480 H 335.5 -2.45619 2.82174 0
M  V30 3481 H 336.833 -3.24641 3.69958 0
M  V30 3482 N 338.485 -1.33259 -0.841409 0
M  V30 3483 C 339.713 -1.27605 -1.62864 0
M  V30 3484 C 340.128 0.153507 -1.88175 0
M  V30 3485 O 339.485 1.09485 -1.46011 0
M  V30 3486 C 339.536 -2.04596 -2.98031 0
M  V30 3487 O 339.257 -3.41975 -2.73834 0
M  V30 3488 C 340.758 -2.06122 -3.92465 0
M  V30 3489 H 337.978 -0.439718 -0.506842 0
M  V30 3490 H 340.522 -1.75591 -1.04824 0
M  V30 3491 H 338.677 -1.60299 -3.5268 0
M  V30 3492 H 339.091 -3.81549 -3.59889 0
M  V30 3493 H 340.565 -2.64451 -4.84531 0
M  V30 3494 H 341.042 -1.05083 -4.26444 0
M  V30 3495 H 341.648 -2.50427 -3.43753 0
M  V30 3496 N 339.963 1.05934 -1.16686 0
M  V30 3497 C 341.212 1.78188 -0.945085 0
M  V30 3498 C 341.525 1.88338 0.528021 0
M  V30 3499 O 342.731 2.57258 0.867799 0
M  V30 3500 C 341.187 3.20277 -1.64167 0
M  V30 3501 C 340.795 3.18281 -3.15279 0
M  V30 3502 C 342.539 3.97039 -1.502 0
M  V30 3503 C 340.446 4.55112 -3.7766 0
M  V30 3504 H 339.376 0.667866 -0.349959 0
M  V30 3505 H 342.027 1.18794 -1.39858 0
M  V30 3506 H 340.409 3.79952 -1.11589 0
M  V30 3507 H 341.583 2.68167 -3.74731 0
M  V30 3508 H 339.898 2.55018 -3.29173 0
M  V30 3509 H 342.495 4.98194 -1.94183 0
M  V30 3510 H 342.838 4.13845 -0.451461 0
M  V30 3511 H 343.371 3.43894 -1.99954 0
M  V30 3512 H 340.11 4.43512 -4.82677 0
M  V30 3513 H 339.63 5.05406 -3.22994 0
M  V30 3514 H 341.309 5.24064 -3.79428 0
M  V30 3515 N 341.441 0.965919 1.2453 0
M  V30 3516 C 342.687 0.62776 1.92839 0
M  V30 3517 C 343.02 -0.834694 1.75347 0
M  V30 3518 O 342.295 -1.60031 1.10546 0
M  V30 3519 C 342.578 1.00109 3.45905 0
M  V30 3520 C 342.431 2.52011 3.72573 0
M  V30 3521 C 343.75 0.53435 4.36844 0
M  V30 3522 H 340.869 0.229537 0.700344 0
M  V30 3523 H 343.511 1.2046 1.46933 0
M  V30 3524 H 341.661 0.510238 3.85135 0
M  V30 3525 H 343.333 3.08559 3.42912 0
M  V30 3526 H 341.576 2.95287 3.17786 0
M  V30 3527 H 342.247 2.73183 4.79661 0
M  V30 3528 H 344.723 0.955565 4.04979 0
M  V30 3529 H 343.599 0.824152 5.42678 0
M  V30 3530 H 343.86 -0.565589 4.38467 0
M  V30 3531 N 342.919 -1.39368 0.735821 0
M  V30 3532 C 344.165 -2.00794 0.284544 0
M  V30 3533 C 344.498 -1.58255 -1.12557 0
M  V30 3534 O 343.773 -0.811819 -1.76748 0
M  V30 3535 C 344.056 -3.58011 0.387337 0
M  V30 3536 C 343.909 -4.10566 1.83728 0
M  V30 3537 C 345.228 -4.395 -0.22975 0
M  V30 3538 H 342.347 -0.729501 0.104866 0
M  V30 3539 H 344.989 -1.65564 0.93213 0
M  V30 3540 H 343.139 -3.88154 -0.164006 0
M  V30 3541 H 344.811 -3.91139 2.44556 0
M  V30 3542 H 343.054 -3.64095 2.35833 0
M  V30 3543 H 343.725 -5.19702 1.86047 0
M  V30 3544 H 346.201 -4.15406 0.240257 0
M  V30 3545 H 345.077 -5.48752 -0.127485 0
M  V30 3546 H 345.338 -4.22062 -1.3159 0
M  V30 3547 N 344.397 -0.483516 -1.5 0
M  V30 3548 C 345.625 0.0644831 -2.06799 0
M  V30 3549 C 346.04 1.32399 -1.34596 0
M  V30 3550 O 345.397 1.77626 -0.418946 0
M  V30 3551 C 345.448 0.339927 -3.59898 0
M  V30 3552 O 345.169 -0.869635 -4.29382 0
M  V30 3553 C 346.67 0.933515 -4.33359 0
M  V30 3554 H 343.89 -0.0126333 -0.670881 0
M  V30 3555 H 346.434 -0.675864 -1.93009 0
M  V30 3556 H 344.589 1.03022 -3.7345 0
M  V30 3557 H 345.003 -0.62179 -5.20801 0
M  V30 3558 H 346.477 1.07593 -5.41413 0
M  V30 3559 H 346.954 1.92685 -3.94676 0
M  V30 3560 H 347.56 0.281221 -4.24369 0
M  V30 3561 N 345.875 1.56104 -0.216619 0
M  V30 3562 C 347.115 2.00074 0.418322 0
M  V30 3563 C 347.479 1.10098 1.57297 0
M  V30 3564 O 348.68 1.43393 2.27359 0
M  V30 3565 C 346.951 3.47231 0.846477 0
M  V30 3566 S 348.51 4.13223 1.47622 0
M  V30 3567 H 345.328 0.698457 0.132962 0
M  V30 3568 H 347.93 1.92784 -0.324748 0
M  V30 3569 H 346.634 4.104 -0.0036319 0
M  V30 3570 H 346.165 3.58384 1.62248 0
M  V30 3571 H 348.18 4.12005 2.76526 0
M  V30 3572 N 347.353 -0.0568162 1.57498 0
M  V30 3573 C 348.316 -1.05038 2.03715 0
M  V30 3574 C 349.316 -1.30709 0.936577 0
M  V30 3575 O 350.506 -1.26178 1.20103 0
M  V30 3576 C 347.638 -2.39034 2.43055 0
M  V30 3577 H 348.831 -0.651715 2.92733 0
M  V30 3578 H 346.384 -0.302947 1.53336 0
M  V30 3579 H 347.119 -2.83703 1.57108 0
M  V30 3580 H 346.904 -2.21739 3.2338 0
M  V30 3581 H 348.394 -3.10421 2.79336 0
M  V30 3582 N 348.832 -1.54138 -0.328536 0
M  V30 3583 C 350.078 -1.7236 -1.06865 0
M  V30 3584 C 350.411 -0.493231 -1.87832 0
M  V30 3585 O 349.686 0.5098 -1.877 0
M  V30 3586 C 349.969 -2.99621 -1.99747 0
M  V30 3587 C 349.822 -4.32899 -1.22143 0
M  V30 3588 C 351.141 -3.22615 -2.99345 0
M  V30 3589 H 348.26 -0.627151 -0.387105 0
M  V30 3590 H 350.902 -1.86827 -0.345767 0
M  V30 3591 H 349.052 -2.87418 -2.61387 0
M  V30 3592 H 350.724 -4.56978 -0.630017 0
M  V30 3593 H 348.967 -4.30628 -0.523628 0
M  V30 3594 H 349.638 -5.18154 -1.90318 0
M  V30 3595 H 352.114 -3.34248 -2.47826 0
M  V30 3596 H 350.99 -4.13027 -3.61524 0
M  V30 3597 H 351.251 -2.3961 -3.71536 0
M  V30 3598 N 350.31 0.590341 -1.46126 0
M  V30 3599 C 351.557 1.34882 -1.5104 0
M  V30 3600 C 351.885 1.93849 -0.159021 0
M  V30 3601 O 351.14 1.76544 0.844436 0
M  V30 3602 C 351.439 2.5032 -2.55097 0
M  V30 3603 C 351.105 2.09394 -3.99331 0
M  V30 3604 C 349.767 1.97947 -4.38601 0
M  V30 3605 C 352.119 1.77712 -4.89967 0
M  V30 3606 C 349.447 1.53065 -5.66381 0
M  V30 3607 C 351.799 1.34312 -6.18177 0
M  V30 3608 C 350.463 1.21436 -6.56361 0
M  V30 3609 H 349.733 0.493568 -0.552695 0
M  V30 3610 H 352.38 0.665539 -1.79563 0
M  V30 3611 H 350.685 3.24062 -2.20207 0
M  V30 3612 H 352.382 3.08541 -2.56132 0
M  V30 3613 H 348.972 2.19235 -3.68285 0
M  V30 3614 H 353.156 1.85445 -4.60352 0
M  V30 3615 H 348.412 1.41733 -5.94745 0
M  V30 3616 H 352.586 1.08849 -6.87841 0
M  V30 3617 H 350.213 0.864345 -7.5527 0
M  V30 3618 N 351.788 1.33704 0.83433 0
M  V30 3619 C 352.736 1.24323 1.96587 0
M  V30 3620 C 353.73 0.143659 1.6879 0
M  V30 3621 O 354.936 0.30791 1.77347 0
M  V30 3622 H 351.311 0.385925 0.645419 0
M  V30 3623 H 353.282 2.19978 2.01624 0
M  V30 3624 C 352.031 1.00394 3.32891 0
M  V30 3625 H 351.354 1.84231 3.54822 0
M  V30 3626 H 352.794 0.97862 4.12552 0
M  V30 3627 C 351.253 -0.293047 3.35623 0
M  V30 3628 O 351.783 -1.29823 3.80143 0
M  V30 3629 N 349.989 -0.322174 2.88809 0
M  V30 3630 H 349.536 0.496379 2.52772 0
M  V30 3631 H 349.494 -1.18977 2.91019 0
M  V30 3632 N 353.266 -1.05314 1.17247 0
M  V30 3633 C 354.214 -2.15137 0.884238 0
M  V30 3634 C 355.208 -1.68729 -0.15063 0
M  V30 3635 O 356.414 -1.8 -0.00366673 0
M  V30 3636 H 352.789 -0.702471 0.2684 0
M  V30 3637 H 354.76 -2.36652 1.81764 0
M  V30 3638 C 353.509 -3.45243 0.412659 0
M  V30 3639 H 352.832 -3.81352 1.20043 0
M  V30 3640 H 354.272 -4.23263 0.249858 0
M  V30 3641 C 352.731 -3.25487 -0.86948 0
M  V30 3642 O 353.261 -3.51938 -1.93655 0
M  V30 3643 N 351.467 -2.78875 -0.817147 0
M  V30 3644 H 351.014 -2.57549 0.0514211 0
M  V30 3645 H 350.972 -2.66036 -1.67547 0
M  V30 3646 N 354.744 -0.972509 -1.24016 0
M  V30 3647 C 355.654 -0.5143 -2.28893 0
M  V30 3648 C 356.67 0.427078 -1.68677 0
M  V30 3649 O 357.846 0.298939 -1.99169 0
M  V30 3650 C 354.911 0.183598 -3.46214 0
M  V30 3651 C 353.972 -0.798202 -4.21814 0
M  V30 3652 C 353.205 -0.133514 -5.33533 0
M  V30 3653 O 353.428 1.07714 -5.60137 0
M  V30 3654 O 352.362 -0.828103 -5.96176 0
M  V30 3655 H 356.188 -1.38629 -2.70214 0
M  V30 3656 H 353.773 -0.739769 -1.29799 0
M  V30 3657 H 355.655 0.575433 -4.17453 0
M  V30 3658 H 354.33 1.03048 -3.0686 0
M  V30 3659 H 353.237 -1.24059 -3.52931 0
M  V30 3660 H 354.57 -1.61364 -4.64997 0
M  V30 3661 N 356.222 1.38976 -0.743202 0
M  V30 3662 C 357.468 2.0064 -0.295189 0
M  V30 3663 C 357.801 1.5885 1.11716 0
M  V30 3664 O 357.076 0.821181 1.76315 0
M  V30 3665 C 357.359 3.578 -0.406318 0
M  V30 3666 C 357.212 4.09586 -1.85903 0
M  V30 3667 C 358.531 4.39616 0.206439 0
M  V30 3668 H 355.65 0.728935 -0.108733 0
M  V30 3669 H 358.292 1.65067 -0.940897 0
M  V30 3670 H 356.442 3.88235 0.143419 0
M  V30 3671 H 358.114 3.89837 -2.46627 0
M  V30 3672 H 356.357 3.6284 -2.3776 0
M  V30 3673 H 357.028 5.18708 -1.888 0
M  V30 3674 H 359.504 4.15273 -0.262283 0
M  V30 3675 H 358.38 5.48812 0.0983819 0
M  V30 3676 H 358.641 4.22754 1.2935 0
M  V30 3677 N 357.7 0.491464 1.49741 0
M  V30 3678 C 358.946 -0.0565092 2.02721 0
M  V30 3679 C 359.279 -1.37522 1.37118 0
M  V30 3680 O 358.554 -1.87866 0.503645 0
M  V30 3681 C 358.837 -0.219051 3.59433 0
M  V30 3682 C 358.69 1.12211 4.35579 0
M  V30 3683 C 360.009 -0.964157 4.29409 0
M  V30 3684 H 357.128 -0.0190627 0.736753 0
M  V30 3685 H 359.77 0.641021 1.7886 0
M  V30 3686 H 357.92 -0.813165 3.79895 0
M  V30 3687 H 359.592 1.75437 4.26637 0
M  V30 3688 H 357.835 1.71377 3.98513 0
M  V30 3689 H 358.506 0.961794 5.43556 0
M  V30 3690 H 360.982 -0.460378 4.13545 0
M  V30 3691 H 359.858 -1.04671 5.38828 0
M  V30 3692 H 360.119 -2.00563 3.93988 0
M  V30 3693 N 359.178 -1.55987 0.224894 0
M  V30 3694 C 360.455 -1.90232 -0.455083 0
M  V30 3695 C 360.835 -1.14269 -1.77499 0
M  V30 3696 O 360.183 -0.253079 -2.27094 0
M  V30 3697 C 360.393 -3.42993 -0.644758 0
M  V30 3698 C 361.741 -4.13821 -0.950669 0
M  V30 3699 O 362.765 -3.4861 -0.731423 0
M  V30 3700 O 361.624 -5.29128 -1.36695 0
M  V30 3701 H 358.718 -0.79108 -0.241084 0
M  V30 3702 H 361.264 -1.67581 0.267327 0
M  V30 3703 H 360.036 -3.90252 0.28613 0
M  V30 3704 H 359.659 -3.71434 -1.41853 0
M  V30 3705 N 360.656 0.0484629 -1.57525 0
M  V30 3706 C 361.586 1.0549 -2.08313 0
M  V30 3707 C 362.567 1.38929 -0.981463 0
M  V30 3708 O 363.752 1.48151 -1.25558 0
M  V30 3709 C 360.882 2.36162 -2.54646 0
M  V30 3710 C 359.836 2.17016 -3.68901 0
M  V30 3711 C 359.162 3.53278 -4.01371 0
M  V30 3712 C 360.462 1.57219 -4.98076 0
M  V30 3713 H 362.156 0.632195 -2.92649 0
M  V30 3714 H 359.702 0.302654 -1.40784 0
M  V30 3715 H 361.655 3.06882 -2.88793 0
M  V30 3716 H 360.379 2.80456 -1.67368 0
M  V30 3717 H 359.038 1.48733 -3.35073 0
M  V30 3718 H 358.686 3.95185 -3.11188 0
M  V30 3719 H 358.386 3.41299 -4.78318 0
M  V30 3720 H 359.91 4.25391 -4.38035 0
M  V30 3721 H 361.324 2.17832 -5.30304 0
M  V30 3722 H 359.721 1.55871 -5.79503 0
M  V30 3723 H 360.791 0.535956 -4.81929 0
M  V30 3724 N 362.134 1.5431 0.320358 0
M  V30 3725 C 363.066 1.80262 1.41556 0
M  V30 3726 C 364.079 0.684723 1.477 0
M  V30 3727 O 365.268 0.961886 1.50366 0
M  V30 3728 C 362.368 1.90825 2.8007 0
M  V30 3729 C 361.541 3.21023 2.97091 0
M  V30 3730 C 360.6 3.22247 4.15985 0
M  V30 3731 O 359.626 3.95871 4.08992 0
M  V30 3732 N 360.828 2.46258 5.25678 0
M  V30 3733 H 363.593 2.74778 1.19655 0
M  V30 3734 H 361.154 1.53646 0.510358 0
M  V30 3735 H 363.146 1.89067 3.57821 0
M  V30 3736 H 361.716 1.03392 2.95006 0
M  V30 3737 H 360.936 3.35715 2.06614 0
M  V30 3738 H 362.224 4.0698 3.05361 0
M  V30 3739 H 361.622 1.86037 5.34235 0
M  V30 3740 H 360.179 2.50275 6.01835 0
M  V30 3741 N 363.613 -0.582584 1.46437 0
M  V30 3742 C 364.859 -1.34064 1.52965 0
M  V30 3743 C 365.214 -1.91566 0.178968 0
M  V30 3744 O 364.507 -1.73526 -0.812365 0
M  V30 3745 C 364.701 -2.48964 2.56421 0
M  V30 3746 C 364.53 -2.02717 4.01417 0
M  V30 3747 C 363.3 -1.87728 4.69134 0
M  V30 3748 C 365.498 -1.58675 4.8921 0
M  V30 3749 N 363.48 -1.35554 5.98747 0
M  V30 3750 C 364.851 -1.18093 6.08649 0
M  V30 3751 C 366.906 -1.46494 4.75861 0
M  V30 3752 C 365.609 -0.665427 7.16215 0
M  V30 3753 C 367.635 -0.96347 5.83499 0
M  V30 3754 C 366.997 -0.567432 7.02111 0
M  V30 3755 H 363.096 -0.483551 0.614575 0
M  V30 3756 H 365.68 -0.663309 1.83053 0
M  V30 3757 H 363.851 -3.1426 2.28244 0
M  V30 3758 H 365.583 -3.15913 2.52944 0
M  V30 3759 H 362.338 -2.09678 4.24655 0
M  V30 3760 H 362.762 -1.11628 6.67734 0
M  V30 3761 H 367.404 -1.75731 3.8455 0
M  V30 3762 H 365.122 -0.360639 8.07295 0
M  V30 3763 H 368.708 -0.873129 5.75211 0
M  V30 3764 H 367.588 -0.185389 7.83981 0
M  V30 3765 N 365.091 -1.34144 -0.827227 0
M  V30 3766 C 366.319 -1.29325 -1.61501 0
M  V30 3767 C 366.734 0.13354 -1.88327 0
M  V30 3768 O 366.091 1.0793 -1.47164 0
M  V30 3769 C 366.142 -2.07746 -2.95844 0
M  V30 3770 O 365.863 -3.4486 -2.70191 0
M  V30 3771 C 367.364 -2.10273 -3.90256 0
M  V30 3772 H 364.584 -0.445069 -0.50215 0
M  V30 3773 H 367.128 -1.76693 -1.02955 0
M  V30 3774 H 365.283 -1.6403 -3.5096 0
M  V30 3775 H 365.697 -3.85345 -3.55822 0
M  V30 3776 H 367.171 -2.69575 -4.81698 0
M  V30 3777 H 367.648 -1.096 -4.25305 0
M  V30 3778 H 368.254 -2.54059 -3.41078 0
M  V30 3779 N 366.569 1.04691 -1.17803 0
M  V30 3780 C 367.799 1.81183 -0.992788 0
M  V30 3781 C 368.207 1.8347 0.462098 0
M  V30 3782 O 367.55 1.2643 1.33271 0
M  V30 3783 C 367.612 3.28363 -1.46349 0
M  V30 3784 C 367.276 3.49749 -2.94151 0
M  V30 3785 C 368.273 3.41456 -3.92051 0
M  V30 3786 C 365.958 3.76548 -3.32441 0
M  V30 3787 C 367.952 3.59656 -5.26238 0
M  V30 3788 C 365.639 3.94396 -4.66792 0
M  V30 3789 C 366.637 3.8595 -5.635 0
M  V30 3790 O 366.325 4.03294 -6.9542 0
M  V30 3791 H 366.057 0.577622 -0.351182 0
M  V30 3792 H 368.611 1.32876 -1.5663 0
M  V30 3793 H 366.841 3.77609 -0.833574 0
M  V30 3794 H 368.53 3.86395 -1.24313 0
M  V30 3795 H 369.296 3.20723 -3.63815 0
M  V30 3796 H 365.175 3.82224 -2.57732 0
M  V30 3797 H 368.719 3.52979 -6.01707 0
M  V30 3798 H 364.616 4.14622 -4.94731 0
M  V30 3799 H 365.384 4.2049 -7.02232 0
M  V30 3800 N 368.047 0.979072 1.23499 0
M  V30 3801 C 369.458 0.684391 1.73704 0
M  V30 3802 C 369.809 -0.799448 1.79174 0
M  V30 3803 O 368.934 -1.62531 1.42873 0
M  V30 3804 C 369.529 1.23564 3.15464 0
M  V30 3805 C 368.088 0.99063 3.6313 0
M  V30 3806 C 367.235 1.36416 2.41425 0
M  V30 3807 H 370.186 1.15307 1.09041 0
M  V30 3808 H 370.207 0.607417 3.7562 0
M  V30 3809 H 369.719 2.31561 3.1145 0
M  V30 3810 H 367.82 -0.0733136 3.72528 0
M  V30 3811 H 367.933 1.64427 4.5 0
M  V30 3812 H 366.297 0.782616 2.42378 0
M  V30 3813 H 367.08 2.45387 2.40083 0
M  V30 3814 N 369.525 -1.3858 0.750561 0
M  V30 3815 C 370.773 -1.99789 0.30477 0
M  V30 3816 C 371.094 -1.59874 -1.11649 0
M  V30 3817 O 370.364 -0.85417 -1.76297 0
M  V30 3818 H 368.944 -0.738902 0.109694 0
M  V30 3819 H 371.606 -1.69391 0.963983 0
M  V30 3820 H 370.702 -3.09952 0.365499 0
M  V30 3821 N 371.003 -0.499398 -1.49478 0
M  V30 3822 C 371.913 0.284489 -2.32869 0
M  V30 3823 C 372.929 0.968885 -1.44529 0
M  V30 3824 O 374.105 0.95062 -1.77553 0
M  V30 3825 C 371.17 1.33594 -3.19928 0
M  V30 3826 C 370.231 0.665149 -4.24116 0
M  V30 3827 C 369.464 1.6665 -5.07014 0
M  V30 3828 O 369.687 2.89618 -4.91404 0
M  V30 3829 O 368.621 1.22271 -5.8935 0
M  V30 3830 H 372.447 -0.39802 -3.01081 0
M  V30 3831 H 370.032 -0.260758 -1.47107 0
M  V30 3832 H 371.914 1.94431 -3.73864 0
M  V30 3833 H 370.589 2.0014 -2.54412 0
M  V30 3834 H 369.496 0.0170769 -3.74096 0
M  V30 3835 H 370.829 0.0421555 -4.92182 0
M  V30 3836 N 372.481 1.55866 -0.233164 0
M  V30 3837 C 373.727 1.98897 0.395959 0
M  V30 3838 C 374.06 1.12091 1.58585 0
M  V30 3839 O 373.335 0.181182 1.93654 0
M  V30 3840 C 373.618 3.50658 0.819224 0
M  V30 3841 C 373.471 4.48233 -0.375109 0
M  V30 3842 C 374.79 4.07135 1.67121 0
M  V30 3843 H 371.909 0.723102 0.142451 0
M  V30 3844 H 374.551 1.87082 -0.331725 0
M  V30 3845 H 372.701 3.60857 1.43925 0
M  V30 3846 H 374.373 4.50031 -1.01341 0
M  V30 3847 H 372.616 4.21624 -1.02058 0
M  V30 3848 H 373.287 5.51988 -0.0358328 0
M  V30 3849 H 375.763 3.99952 1.14795 0
M  V30 3850 H 374.639 5.13615 1.93625 0
M  V30 3851 H 374.9 3.54736 2.63846 0
M  V30 3852 N 373.959 -0.0401083 1.57549 0
M  V30 3853 C 374.906 -1.04413 2.05831 0
M  V30 3854 C 375.876 -1.36585 0.945184 0
M  V30 3855 O 377.061 -1.47112 1.21502 0
M  V30 3856 C 374.201 -2.34336 2.53339 0
M  V30 3857 C 373.314 -2.08419 3.78398 0
M  V30 3858 C 372.449 -3.32133 4.14561 0
M  V30 3859 C 371.488 -3.01721 5.3257 0
M  V30 3860 N 370.625 -4.17855 5.64218 0
M  V30 3861 H 375.465 -0.625442 2.91363 0
M  V30 3862 H 373.002 -0.297218 1.44066 0
M  V30 3863 H 374.96 -3.10234 2.78946 0
M  V30 3864 H 373.59 -2.73948 1.7074 0
M  V30 3865 H 372.642 -1.23069 3.59942 0
M  V30 3866 H 373.954 -1.81978 4.64419 0
M  V30 3867 H 373.108 -4.16406 4.41238 0
M  V30 3868 H 371.847 -3.61678 3.2717 0
M  V30 3869 H 370.852 -2.15849 5.05657 0
M  V30 3870 H 372.077 -2.73466 6.21605 0
M  V30 3871 H 370.023 -4.47372 4.79786 0
M  V30 3872 H 369.94 -3.94798 6.44725 0
M  V30 3873 H 371.208 -5.03033 5.95465 0
M  V30 3874 N 375.437 -1.54477 -0.31217 0
M  V30 3875 C 376.685 -1.72884 -1.04668 0
M  V30 3876 C 377.006 -0.511477 -1.88173 0
M  V30 3877 O 376.276 0.474407 -1.90069 0
M  V30 3878 H 374.856 -0.637461 -0.389425 0
M  V30 3879 H 377.518 -1.91807 -0.345852 0
M  V30 3880 H 376.614 -2.61334 -1.70619 0
M  V30 3881 N 376.915 0.57481 -1.46744 0
M  V30 3882 C 377.862 1.68329 -1.57905 0
M  V30 3883 C 378.832 1.60625 -0.422927 0
M  V30 3884 O 380.017 1.79721 -0.640711 0
M  V30 3885 C 377.157 3.06665 -1.58274 0
M  V30 3886 C 376.27 3.24935 -2.84678 0
M  V30 3887 C 375.405 4.53566 -2.76499 0
M  V30 3888 C 374.444 4.65207 -3.97806 0
M  V30 3889 N 373.581 5.85172 -3.87967 0
M  V30 3890 H 378.421 1.58127 -2.52587 0
M  V30 3891 H 375.958 0.770552 -1.25303 0
M  V30 3892 H 377.916 3.86745 -1.56473 0
M  V30 3893 H 376.546 3.15745 -0.671194 0
M  V30 3894 H 375.598 2.38405 -2.96424 0
M  V30 3895 H 376.91 3.29403 -3.7456 0
M  V30 3896 H 376.064 5.41885 -2.72848 0
M  V30 3897 H 374.803 4.51548 -1.8427 0
M  V30 3898 H 373.808 3.75304 -4.0178 0
M  V30 3899 H 375.033 4.68997 -4.9114 0
M  V30 3900 H 372.979 5.84137 -2.98529 0
M  V30 3901 H 372.896 5.90943 -4.71511 0
M  V30 3902 H 374.164 6.759 -3.88303 0
M  V30 3903 N 378.394 1.34581 0.820102 0
M  V30 3904 C 379.642 1.26845 1.57336 0
M  V30 3905 C 379.963 -0.160667 1.94337 0
M  V30 3906 O 379.233 -1.09396 1.6251 0
M  V30 3907 H 377.813 0.466514 0.583415 0
M  V30 3908 H 380.475 1.68526 0.979027 0
M  V30 3909 H 379.571 1.87513 2.4949 0
M  V30 3910 N 379.872 -1.04064 1.18357 0
M  V30 3911 C 381.121 -1.76662 0.973313 0
M  V30 3912 C 381.434 -1.89154 -0.497991 0
M  V30 3913 O 382.64 -2.58606 -0.826762 0
M  V30 3914 C 381.096 -3.17624 1.69242 0
M  V30 3915 C 380.704 -3.13225 3.20303 0
M  V30 3916 C 382.448 -3.946 1.56497 0
M  V30 3917 C 380.355 -4.49046 3.84853 0
M  V30 3918 H 379.285 -0.662214 0.36054 0
M  V30 3919 H 381.936 -1.16553 1.41731 0
M  V30 3920 H 380.318 -3.78129 1.1762 0
M  V30 3921 H 381.492 -2.62172 3.78949 0
M  V30 3922 H 379.807 -2.49749 3.33189 0
M  V30 3923 H 382.404 -4.95042 2.02084 0
M  V30 3924 H 382.747 -4.13074 0.517243 0
M  V30 3925 H 383.28 -3.4067 2.05399 0
M  V30 3926 H 380.019 -4.35777 4.89672 0
M  V30 3927 H 379.539 -5.00203 3.30994 0
M  V30 3928 H 381.218 -5.17961 3.87718 0
M  V30 3929 N 381.35 -0.985608 -1.22978 0
M  V30 3930 C 382.578 -0.675582 -1.95559 0
M  V30 3931 C 382.993 0.758413 -1.72897 0
M  V30 3932 O 382.35 1.51094 -1.02357 0
M  V30 3933 C 382.401 -0.96293 -3.48439 0
M  V30 3934 O 382.122 -2.34057 -3.70336 0
M  V30 3935 C 383.623 -0.669585 -4.38214 0
M  V30 3936 H 380.843 -0.250523 -0.622478 0
M  V30 3937 H 383.387 -1.3184 -1.56328 0
M  V30 3938 H 381.542 -0.366033 -3.85667 0
M  V30 3939 H 381.956 -2.43424 -4.64591 0
M  V30 3940 H 383.43 -0.920967 -5.44263 0
M  V30 3941 H 383.907 0.396383 -4.37408 0
M  V30 3942 H 384.513 -1.2472 -4.06602 0
M  V30 3943 N 382.828 1.3818 -0.7579 0
M  V30 3944 C 383.761 2.28055 -0.0814093 0
M  V30 3945 C 384.739 1.45603 0.723779 0
M  V30 3946 O 385.923 1.74961 0.701491 0
M  V30 3947 C 383.05 3.2676 0.891394 0
M  V30 3948 C 382.096 4.26153 0.171909 0
M  V30 3949 S 382.929 5.23434 -1.13035 0
M  V30 3950 C 384.085 6.25694 -0.160727 0
M  V30 3951 H 384.318 2.85082 -0.84353 0
M  V30 3952 H 381.851 1.44246 -0.550671 0
M  V30 3953 H 383.809 3.8414 1.44731 0
M  V30 3954 H 382.47 2.68706 1.62652 0
M  V30 3955 H 381.663 4.95738 0.908843 0
M  V30 3956 H 381.265 3.72691 -0.312606 0
M  V30 3957 H 383.557 6.74161 0.671773 0
M  V30 3958 H 384.5 7.03285 -0.824353 0
M  V30 3959 H 384.908 5.64064 0.221892 0
M  V30 3960 N 384.306 0.507319 1.49211 0
M  V30 3961 C 385.236 -0.256939 2.32082 0
M  V30 3962 C 386.217 -0.956609 1.40652 0
M  V30 3963 O 387.402 -0.946788 1.69557 0
M  V30 3964 C 384.532 -1.31802 3.21318 0
M  V30 3965 C 383.486 -0.737855 4.21592 0
M  V30 3966 C 382.812 -1.89992 4.99807 0
M  V30 3967 C 384.112 0.275325 5.21574 0
M  V30 3968 H 385.806 0.434798 2.96226 0
M  V30 3969 H 383.352 0.210546 1.42452 0
M  V30 3970 H 385.305 -1.86045 3.78107 0
M  V30 3971 H 384.029 -2.03903 2.5513 0
M  V30 3972 H 382.688 -0.217126 3.65956 0
M  V30 3973 H 382.336 -2.60877 4.30061 0
M  V30 3974 H 382.036 -1.51777 5.6766 0
M  V30 3975 H 383.56 -2.44657 5.59442 0
M  V30 3976 H 384.974 -0.179193 5.7302 0
M  V30 3977 H 383.371 0.573649 5.97352 0
M  V30 3978 H 384.441 1.18903 4.70096 0
M  V30 3979 N 385.784 -1.5574 0.241426 0
M  V30 3980 C 386.694 -2.2479 -0.671305 0
M  V30 3981 C 387.71 -1.26217 -1.19772 0
M  V30 3982 O 388.886 -1.59079 -1.23514 0
M  V30 3983 C 385.951 -2.92966 -1.85396 0
M  V30 3984 C 385.012 -4.06935 -1.36756 0
M  V30 3985 C 384.245 -4.71851 -2.49384 0
M  V30 3986 O 384.468 -4.35823 -3.67987 0
M  V30 3987 O 383.402 -5.60467 -2.19454 0
M  V30 3988 H 387.228 -3.0349 -0.112966 0
M  V30 3989 H 384.813 -1.49397 0.0101513 0
M  V30 3990 H 386.695 -3.35927 -2.54423 0
M  V30 3991 H 385.37 -2.17211 -2.40002 0
M  V30 3992 H 384.277 -3.68503 -0.644726 0
M  V30 3993 H 385.61 -4.84492 -0.867647 0
M  V30 3994 N 387.262 0.0317525 -1.57568 0
M  V30 3995 C 388.172 1.05021 -2.0978 0
M  V30 3996 C 389.188 1.39809 -1.03583 0
M  V30 3997 O 390.364 1.49182 -1.35302 0
M  V30 3998 C 387.429 2.33301 -2.56459 0
M  V30 3999 C 386.49 2.0512 -3.77127 0
M  V30 4000 C 385.723 3.27283 -4.2157 0
M  V30 4001 O 385.946 4.37861 -3.65559 0
M  V30 4002 O 384.88 3.13141 -5.14029 0
M  V30 4003 H 388.706 0.636505 -2.96955 0
M  V30 4004 H 386.291 0.248559 -1.47318 0
M  V30 4005 H 388.173 3.08722 -2.86825 0
M  V30 4006 H 386.848 2.73973 -1.72397 0
M  V30 4007 H 385.755 1.27276 -3.51784 0
M  V30 4008 H 387.088 1.69305 -4.62165 0
M  V30 4009 N 388.74 1.54641 0.303973 0
M  V30 4010 C 389.989 1.7299 1.03717 0
M  V30 4011 C 390.302 0.521168 1.88529 0
M  V30 4012 O 391.508 0.586408 2.65092 0
M  V30 4013 C 389.964 3.06051 1.89369 0
M  V30 4014 C 389.572 4.34393 1.09574 0
M  V30 4015 C 391.316 3.3376 2.62306 0
M  V30 4016 C 389.223 5.58506 1.94486 0
M  V30 4017 H 388.153 0.64473 0.390947 0
M  V30 4018 H 390.804 1.81124 0.294328 0
M  V30 4019 H 389.186 2.91874 2.67629 0
M  V30 4020 H 390.36 4.59396 0.359485 0
M  V30 4021 H 388.675 4.13597 0.482324 0
M  V30 4022 H 391.272 4.23687 3.26181 0
M  V30 4023 H 391.615 2.52503 3.3098 0
M  V30 4024 H 392.148 3.48894 1.91097 0
M  V30 4025 H 388.887 6.42422 1.30287 0
M  V30 4026 H 388.407 5.37694 2.65792 0
M  V30 4027 H 390.086 5.95651 2.52605 0
M  V30 4028 N 390.218 -0.567019 1.47046 0
M  V30 4029 C 391.165 -1.67489 1.58796 0
M  V30 4030 C 392.135 -1.60399 0.43144 0
M  V30 4031 O 393.32 -1.79378 0.650233 0
M  V30 4032 C 390.46 -3.05821 1.59899 0
M  V30 4033 C 389.573 -3.2342 2.86397 0
M  V30 4034 C 388.708 -4.52093 2.789 0
M  V30 4035 C 387.747 -4.6309 4.00267 0
M  V30 4036 N 386.884 -5.83106 3.91064 0
M  V30 4037 H 391.724 -1.56785 2.53422 0
M  V30 4038 H 389.261 -0.763896 1.2571 0
M  V30 4039 H 391.219 -3.8591 1.58522 0
M  V30 4040 H 389.849 -3.15384 0.687929 0
M  V30 4041 H 388.901 -2.3683 2.97684 0
M  V30 4042 H 390.213 -3.27412 3.76301 0
M  V30 4043 H 389.367 -5.4043 2.75718 0
M  V30 4044 H 388.106 -4.50565 1.86662 0
M  V30 4045 H 387.111 -3.73168 4.03765 0
M  V30 4046 H 388.336 -4.66386 4.93621 0
M  V30 4047 H 386.282 -5.82546 3.01623 0
M  V30 4048 H 386.199 -5.88434 4.74638 0
M  V30 4049 H 387.467 -6.73831 3.91882 0
M  V30 4050 N 391.696 -1.35014 -0.812953 0
M  V30 4051 C 392.942 -1.2812 -1.57204 0
M  V30 4052 C 393.275 0.145869 -1.93651 0
M  V30 4053 O 392.55 1.0937 -1.60836 0
M  V30 4054 C 392.833 -2.18162 -2.86492 0
M  V30 4055 C 392.686 -3.69454 -2.56561 0
M  V30 4056 C 394.005 -2.07439 -3.88145 0
M  V30 4057 H 391.124 -0.466746 -0.570366 0
M  V30 4058 H 393.766 -1.65357 -0.935783 0
M  V30 4059 H 391.916 -1.86535 -3.40789 0
M  V30 4060 H 393.588 -4.11493 -2.08497 0
M  V30 4061 H 391.831 -3.9005 -1.89851 0
M  V30 4062 H 392.502 -4.27835 -3.48799 0
M  V30 4063 H 394.978 -2.35228 -3.4323 0
M  V30 4064 H 393.854 -2.7265 -4.76396 0
M  V30 4065 H 394.115 -1.05439 -4.29343 0
M  V30 4066 N 393.175 1.03435 -1.18907 0
M  V30 4067 C 394.586 1.58195 -0.991523 0
M  V30 4068 C 394.937 1.90801 0.457081 0
M  V30 4069 O 394.062 1.70272 1.33553 0
M  V30 4070 C 394.657 2.87432 -1.79355 0
M  V30 4071 C 393.216 3.38785 -1.64017 0
M  V30 4072 C 392.363 2.12292 -1.78402 0
M  V30 4073 H 395.314 0.860299 -1.33359 0
M  V30 4074 H 395.335 3.58096 -1.28638 0
M  V30 4075 H 394.847 2.63669 -2.84781 0
M  V30 4076 H 392.948 3.67547 -0.611536 0
M  V30 4077 H 393.061 4.12186 -2.44212 0
M  V30 4078 H 391.425 2.23901 -1.2141 0
M  V30 4079 H 392.208 1.90977 -2.85277 0
M  V30 4080 N 394.653 0.992116 1.22453 0
M  V30 4081 C 395.878 0.685644 1.95739 0
M  V30 4082 C 396.303 -0.743 1.72804 0
M  V30 4083 O 395.661 -1.50778 1.00676 0
M  V30 4084 C 395.709 0.996293 3.46564 0
M  V30 4085 O 394.813 0.0945512 4.12292 0
M  V30 4086 H 394.154 0.256694 0.612376 0
M  V30 4087 H 396.684 1.32888 1.5557 0
M  V30 4088 H 396.694 0.93781 3.97076 0
M  V30 4089 H 395.369 2.03733 3.62582 0
M  V30 4090 H 393.946 0.208451 3.72317 0
M  V30 4091 N 396.131 -1.37776 0.765217 0
M  V30 4092 C 397.38 -1.99092 0.323307 0
M  V30 4093 C 397.693 -1.61434 -1.10446 0
M  V30 4094 O 398.899 -2.15805 -1.64743 0
M  V30 4095 C 397.355 -3.56019 0.527098 0
M  V30 4096 C 396.963 -4.0262 1.96471 0
M  V30 4097 C 398.707 -4.2424 0.148483 0
M  V30 4098 C 396.614 -5.52233 2.11644 0
M  V30 4099 H 395.544 -0.744846 0.117137 0
M  V30 4100 H 398.195 -1.57391 0.943417 0
M  V30 4101 H 396.577 -3.95667 -0.162372 0
M  V30 4102 H 397.751 -3.74234 2.68859 0
M  V30 4103 H 396.066 -3.47161 2.29931 0
M  V30 4104 H 398.663 -5.34159 0.240456 0
M  V30 4105 H 399.006 -4.06446 -0.900422 0
M  V30 4106 H 399.539 -3.89872 0.79025 0
M  V30 4107 H 396.278 -5.74945 3.1483 0
M  V30 4108 H 395.798 -5.82324 1.4373 0
M  V30 4109 H 397.477 -6.18106 1.91193 0
M  V30 4110 N 397.609 -0.515225 -1.4894 0
M  V30 4111 C 398.556 0.255567 -2.29381 0
M  V30 4112 C 399.526 0.947387 -1.36432 0
M  V30 4113 O 400.711 0.951288 -1.65394 0
M  V30 4114 C 397.851 1.30551 -3.19453 0
M  V30 4115 C 396.964 0.624029 -4.27469 0
M  V30 4116 C 396.099 1.65563 -5.0474 0
M  V30 4117 C 395.138 0.956802 -6.04576 0
M  V30 4118 N 394.275 1.93326 -6.74959 0
M  V30 4119 H 399.115 -0.436607 -2.94784 0
M  V30 4120 H 396.652 -0.227154 -1.45336 0
M  V30 4121 H 398.61 1.92639 -3.70062 0
M  V30 4122 H 397.24 1.96626 -2.56004 0
M  V30 4123 H 396.292 -0.110459 -3.8024 0
M  V30 4124 H 397.604 0.0746092 -4.98744 0
M  V30 4125 H 396.758 2.35119 -5.59289 0
M  V30 4126 H 395.497 2.23893 -4.3327 0
M  V30 4127 H 394.502 0.247097 -5.49244 0
M  V30 4128 H 395.727 0.379814 -6.78037 0
M  V30 4129 H 393.673 2.50591 -6.06251 0
M  V30 4130 H 393.59 1.43489 -7.42258 0
M  V30 4131 H 394.858 2.62126 -7.34105 0
M  V30 4132 N 399.087 1.5561 -0.249682 0
M  V30 4133 C 400.017 2.24477 0.642826 0
M  V30 4134 C 400.998 1.22601 1.17911 0
M  V30 4135 O 402.183 1.5126 1.21795 0
M  V30 4136 C 399.313 2.94638 1.83863 0
M  V30 4137 C 398.267 4.03227 1.435 0
M  V30 4138 C 397.593 4.60828 2.71186 0
M  V30 4139 C 398.893 5.18796 0.604002 0
M  V30 4140 H 400.587 2.99321 0.0685625 0
M  V30 4141 H 398.133 1.43965 0.0315363 0
M  V30 4142 H 400.086 3.41517 2.46868 0
M  V30 4143 H 398.81 2.17287 2.43832 0
M  V30 4144 H 397.469 3.57121 0.828275 0
M  V30 4145 H 397.117 3.80174 3.29358 0
M  V30 4146 H 396.817 5.34132 2.44901 0
M  V30 4147 H 398.341 5.10442 3.35084 0
M  V30 4148 H 399.755 5.61883 1.13842 0
M  V30 4149 H 398.152 5.98506 0.437097 0
M  V30 4150 H 399.222 4.83384 -0.383147 0
M  V30 4151 N 400.565 -0.0233959 1.57583 0
M  V30 4152 C 401.811 -0.714119 1.89811 0
M  V30 4153 C 402.144 -1.74702 0.848113 0
M  V30 4154 O 401.419 -1.94023 -0.136135 0
M  V30 4155 C 401.702 -1.37853 3.32669 0
M  V30 4156 C 401.555 -0.358764 4.48367 0
M  V30 4157 C 402.874 -2.31101 3.7454 0
M  V30 4158 H 399.993 -0.25814 0.690314 0
M  V30 4159 H 402.635 0.0230927 1.89986 0
M  V30 4160 H 400.785 -2.00689 3.3265 0
M  V30 4161 H 402.457 0.268115 4.6052 0
M  V30 4162 H 400.7 0.321387 4.32608 0
M  V30 4163 H 401.371 -0.862242 5.45224 0
M  V30 4164 H 403.847 -1.78304 3.75961 0
M  V30 4165 H 402.723 -2.74567 4.75294 0
M  V30 4166 H 402.984 -3.18018 3.0711 0
M  V30 4167 N 402.043 -1.548 -0.295768 0
M  V30 4168 C 403.273 -1.78069 -1.04762 0
M  V30 4169 C 403.681 -0.542847 -1.81245 0
M  V30 4170 O 403.024 0.497051 -1.76848 0
M  V30 4171 C 403.086 -2.93881 -2.07061 0
M  V30 4172 C 402.75 -4.31777 -1.49725 0
M  V30 4173 C 403.747 -5.11613 -0.924581 0
M  V30 4174 C 401.432 -4.78389 -1.5313 0
M  V30 4175 C 403.426 -6.36184 -0.393594 0
M  V30 4176 C 401.113 -6.02921 -0.996447 0
M  V30 4177 C 402.111 -6.81654 -0.428569 0
M  V30 4178 O 401.799 -8.0384 0.0981593 0
M  V30 4179 H 401.531 -0.597475 -0.316226 0
M  V30 4180 H 404.085 -2.02584 -0.338973 0
M  V30 4181 H 402.315 -2.65003 -2.81621 0
M  V30 4182 H 404.004 -3.04679 -2.6819 0
M  V30 4183 H 404.77 -4.76743 -0.891136 0
M  V30 4184 H 400.649 -4.17132 -1.9627 0
M  V30 4185 H 404.193 -6.97582 0.0503014 0
M  V30 4186 H 400.09 -6.37277 -1.02706 0
M  V30 4187 H 400.858 -8.18499 -0.0146455 0
M  V30 4188 N 403.521 0.559213 -1.47345 0
M  V30 4189 C 404.749 1.34194 -1.57479 0
M  V30 4190 C 405.164 1.87463 -0.224261 0
M  V30 4191 O 404.521 1.64888 0.782185 0
M  V30 4192 C 404.572 2.51324 -2.59843 0
M  V30 4193 O 404.293 2.00256 -3.89653 0
M  V30 4194 C 405.794 3.43563 -2.80142 0
M  V30 4195 H 403.014 0.409136 -0.531835 0
M  V30 4196 H 405.558 0.677609 -1.92947 0
M  V30 4197 H 403.713 3.13699 -2.27314 0
M  V30 4198 H 404.127 2.76708 -4.4557 0
M  V30 4199 H 405.601 4.2217 -3.55635 0
M  V30 4200 H 406.078 3.9698 -1.87892 0
M  V30 4201 H 406.684 2.87005 -3.1386 0
M  V30 4202 N 404.999 1.35443 0.805782 0
M  V30 4203 C 405.929 1.31095 1.93226 0
M  V30 4204 C 406.91 0.185244 1.69088 0
M  V30 4205 O 408.095 0.380332 1.90439 0
M  V30 4206 C 405.225 1.08299 3.29983 0
M  V30 4207 C 404.179 2.17519 3.68605 0
M  V30 4208 C 403.505 1.79887 5.03532 0
M  V30 4209 C 404.805 3.5949 3.78898 0
M  V30 4210 H 406.499 2.25352 1.97122 0
M  V30 4211 H 404.045 1.0848 0.946996 0
M  V30 4212 H 405.998 1.03897 4.08391 0
M  V30 4213 H 404.722 0.104885 3.26432 0
M  V30 4214 H 403.381 2.2102 2.92482 0
M  V30 4215 H 403.029 0.80693 4.96485 0
M  V30 4216 H 402.729 2.53001 5.30344 0
M  V30 4217 H 404.253 1.77011 5.84379 0
M  V30 4218 H 405.667 3.58307 4.47536 0
M  V30 4219 H 404.064 4.31371 4.1718 0
M  V30 4220 H 405.134 3.95584 2.80431 0
M  V30 4221 N 406.477 -1.02803 1.19454 0
M  V30 4222 C 407.705 -1.79841 1.02297 0
M  V30 4223 C 408.12 -1.83879 -0.428259 0
M  V30 4224 O 407.477 -1.28345 -1.29745 0
M  V30 4225 C 407.528 -3.24852 1.58598 0
M  V30 4226 O 407.249 -3.21097 2.98041 0
M  V30 4227 C 408.75 -4.18485 1.46236 0
M  V30 4228 H 405.97 -0.565936 0.360496 0
M  V30 4229 H 408.514 -1.2948 1.58288 0
M  V30 4230 H 406.669 -3.72401 1.06753 0
M  V30 4231 H 407.083 -4.12033 3.24545 0
M  V30 4232 H 408.557 -5.18121 1.90407 0
M  V30 4233 H 409.034 -4.37254 0.41301 0
M  V30 4234 H 409.64 -3.76811 1.97215 0
M  V30 4235 N 407.956 -0.998596 -1.21925 0
M  V30 4236 C 409.202 -0.678667 -1.91107 0
M  V30 4237 C 409.535 0.78791 -1.77498 0
M  V30 4238 O 408.81 1.57043 -1.1475 0
M  V30 4239 C 409.093 -1.09245 -3.43129 0
M  V30 4240 C 408.946 -2.61801 -3.6576 0
M  V30 4241 C 410.265 -0.649984 -4.35274 0
M  V30 4242 H 407.384 -0.248025 -0.694012 0
M  V30 4243 H 410.026 -1.24314 -1.43688 0
M  V30 4244 H 408.176 -0.612171 -3.83647 0
M  V30 4245 H 409.848 -3.17543 -3.34611 0
M  V30 4246 H 408.091 -3.03609 -3.09845 0
M  V30 4247 H 408.762 -2.85804 -4.7225 0
M  V30 4248 H 411.238 -1.0626 -4.02303 0
M  V30 4249 H 410.114 -0.967743 -5.40302 0
M  V30 4250 H 410.375 0.449139 -4.39813 0
M  V30 4251 N 409.434 1.37368 -0.772513 0
M  V30 4252 C 410.845 1.8231 -0.402493 0
M  V30 4253 C 411.196 1.6436 1.07146 0
M  V30 4254 O 410.321 1.15514 1.82991 0
M  V30 4255 C 410.916 3.30979 -0.723776 0
M  V30 4256 C 409.475 3.74195 -0.406802 0
M  V30 4257 C 408.622 2.59885 -0.967218 0
M  V30 4258 H 411.573 1.25829 -0.967099 0
M  V30 4259 H 411.594 3.80499 -0.00870832 0
M  V30 4260 H 411.106 3.44011 -1.7966 0
M  V30 4261 H 409.207 3.66732 0.658673 0
M  V30 4262 H 409.32 4.7027 -0.915588 0
M  V30 4263 H 407.684 2.51674 -0.391416 0
M  V30 4264 H 408.467 2.7571 -2.04546 0
M  V30 4265 N 410.912 0.523116 1.48665 0
M  V30 4266 C 411.822 -0.247406 2.33292 0
M  V30 4267 C 412.838 -0.945769 1.46052 0
M  V30 4268 O 414.014 -0.922253 1.79043 0
M  V30 4269 C 411.079 -1.28487 3.22012 0
M  V30 4270 C 410.14 -0.597592 4.2512 0
M  V30 4271 C 409.373 -1.58563 5.09601 0
M  V30 4272 O 409.596 -2.81763 4.95949 0
M  V30 4273 O 408.53 -1.12879 5.91221 0
M  V30 4274 H 412.356 0.445869 3.00409 0
M  V30 4275 H 409.941 0.284128 1.46673 0
M  V30 4276 H 411.823 -1.88459 3.7691 0
M  V30 4277 H 410.498 -1.96068 2.57564 0
M  V30 4278 H 409.405 0.0424407 3.74076 0
M  V30 4279 H 410.738 0.0361517 4.92187 0
M  V30 4280 N 412.39 -1.55475 0.257931 0
M  V30 4281 C 413.353 -2.20551 -0.623706 0
M  V30 4282 C 414.353 -1.17809 -1.09443 0
M  V30 4283 O 415.543 -1.42823 -0.997362 0
M  V30 4284 C 412.675 -2.85784 -1.8585 0
M  V30 4285 H 413.868 -2.99848 -0.0557743 0
M  V30 4286 H 411.421 -1.56298 0.0084422 0
M  V30 4287 H 412.156 -2.10453 -2.46739 0
M  V30 4288 H 411.941 -3.61057 -1.52907 0
M  V30 4289 H 413.431 -3.35553 -2.48584 0
M  V30 4290 N 413.868 0.0150385 -1.57593 0
M  V30 4291 C 415.096 0.714395 -1.94175 0
M  V30 4292 C 415.511 1.68135 -0.858841 0
M  V30 4293 O 414.868 1.81766 0.163567 0
M  V30 4294 C 414.919 1.45933 -3.30735 0
M  V30 4295 O 414.64 0.531167 -4.34868 0
M  V30 4296 C 416.141 2.25456 -3.81686 0
M  V30 4297 H 413.361 0.199923 -0.640525 0
M  V30 4298 H 415.905 -0.0316096 -2.04476 0
M  V30 4299 H 414.06 2.15709 -3.21789 0
M  V30 4300 H 414.474 1.05509 -5.13778 0
M  V30 4301 H 415.948 2.731 -4.79709 0
M  V30 4302 H 416.425 3.07485 -3.13607 0
M  V30 4303 H 417.031 1.60727 -3.9376 0
M  V30 4304 N 415.346 1.54954 0.287554 0
M  V30 4305 C 416.592 1.75132 1.02257 0
M  V30 4306 C 416.925 0.542858 1.86458 0
M  V30 4307 O 416.2 -0.459856 1.88986 0
M  V30 4308 C 416.483 3.04812 1.91733 0
M  V30 4309 C 416.336 4.35985 1.10622 0
M  V30 4310 C 417.655 3.30438 2.90687 0
M  V30 4311 H 414.774 0.637194 0.370341 0
M  V30 4312 H 417.416 1.87678 0.296111 0
M  V30 4313 H 415.566 2.94247 2.53675 0
M  V30 4314 H 417.238 4.58487 0.508636 0
M  V30 4315 H 415.481 4.31865 0.409271 0
M  V30 4316 H 416.152 5.23017 1.76513 0
M  V30 4317 H 418.628 3.40701 2.38877 0
M  V30 4318 H 417.504 4.22467 3.50447 0
M  V30 4319 H 417.765 2.49377 3.65053 0
M  V30 4320 N 416.824 -0.551391 1.4764 0
M  V30 4321 C 417.771 -1.65796 1.60563 0
M  V30 4322 C 418.741 -1.59932 0.448428 0
M  V30 4323 O 419.926 -1.78679 0.669222 0
M  V30 4324 C 417.066 -3.04108 1.63133 0
M  V30 4325 C 416.179 -3.20365 2.89811 0
M  V30 4326 C 415.314 -4.49109 2.8368 0
M  V30 4327 C 414.353 -4.58819 4.05156 0
M  V30 4328 N 413.49 -5.78926 3.97227 0
M  V30 4329 H 418.33 -1.54088 2.5507 0
M  V30 4330 H 415.867 -0.75052 1.26513 0
M  V30 4331 H 417.825 -3.84207 1.62606 0
M  V30 4332 H 416.455 -3.14637 0.721341 0
M  V30 4333 H 415.507 -2.33659 3.00179 0
M  V30 4334 H 416.819 -3.23402 3.79753 0
M  V30 4335 H 415.973 -5.37475 2.81434 0
M  V30 4336 H 414.712 -4.4856 1.91431 0
M  V30 4337 H 413.717 -3.68864 4.077 0
M  V30 4338 H 414.942 -4.61124 4.98539 0
M  V30 4339 H 412.888 -5.79314 3.07785 0
M  V30 4340 H 412.805 -5.83367 4.80853 0
M  V30 4341 H 414.073 -6.69637 3.99007 0
M  V30 4342 N 418.302 -1.35869 -0.798587 0
M  V30 4343 C 419.579 -1.20145 -1.54352 0
M  V30 4344 C 419.959 0.216161 -2.0999 0
M  V30 4345 O 419.307 1.22068 -1.93162 0
M  V30 4346 C 419.517 -2.27602 -2.64572 0
M  V30 4347 C 420.865 -2.63811 -3.32699 0
M  V30 4348 O 421.889 -2.26576 -2.74849 0
M  V30 4349 O 420.748 -3.27866 -4.37226 0
M  V30 4350 H 417.842 -0.467248 -0.682355 0
M  V30 4351 H 420.388 -1.47574 -0.837859 0
M  V30 4352 H 419.16 -3.2265 -2.21388 0
M  V30 4353 H 418.783 -2.01488 -3.42766 0
M  V30 4354 N 419.78 1.02168 -1.19998 0
M  V30 4355 C 421.005 1.79833 -1.03319 0
M  V30 4356 C 421.43 1.83504 0.413281 0
M  V30 4357 O 420.788 1.26635 1.29743 0
M  V30 4358 C 420.836 3.22396 -1.61533 0
M  V30 4359 O 419.94 4.03555 -0.849519 0
M  V30 4360 H 419.281 0.554872 -0.364709 0
M  V30 4361 H 421.811 1.28542 -1.59179 0
M  V30 4362 H 421.821 3.73124 -1.65054 0
M  V30 4363 H 420.496 3.19039 -2.66809 0
M  V30 4364 H 419.073 3.62169 -0.888129 0
M  V30 4365 N 421.258 1.00505 1.21394 0
M  V30 4366 C 422.506 0.686415 1.90086 0
M  V30 4367 C 422.827 -0.785264 1.7849 0
M  V30 4368 O 422.097 -1.56387 1.17983 0
M  V30 4369 H 420.677 0.2509 0.703604 0
M  V30 4370 H 423.339 1.27417 1.47482 0
M  V30 4371 H 422.435 0.959621 2.96981 0
M  V30 4372 N 422.737 -1.36956 0.779787 0
M  V30 4373 C 424.014 -1.93697 0.272156 0
M  V30 4374 C 424.394 -1.71267 -1.23413 0
M  V30 4375 O 423.742 -1.06607 -2.02107 0
M  V30 4376 C 423.952 -3.42812 0.654291 0
M  V30 4377 C 425.3 -4.19921 0.628602 0
M  V30 4378 O 426.324 -3.51209 0.594172 0
M  V30 4379 O 425.183 -5.42465 0.662864 0
M  V30 4380 H 422.277 -0.824447 0.0649286 0
M  V30 4381 H 424.823 -1.46196 0.861682 0
M  V30 4382 H 423.595 -3.52754 1.69353 0
M  V30 4383 H 423.218 -3.97582 0.0381369 0
M  V30 4384 N 424.215 -0.530993 -1.48385 0
M  V30 4385 C 425.445 -0.00133928 -2.066 0
M  V30 4386 C 425.853 1.28599 -1.38777 0
M  V30 4387 O 425.196 1.77599 -0.469495 0
M  V30 4388 C 425.258 0.292137 -3.58311 0
M  V30 4389 C 424.922 -0.901864 -4.48013 0
M  V30 4390 C 425.919 -1.80053 -4.87726 0
M  V30 4391 C 423.604 -1.10915 -4.89901 0
M  V30 4392 C 425.598 -2.89038 -5.68098 0
M  V30 4393 C 423.285 -2.20213 -5.70043 0
M  V30 4394 C 424.283 -3.09107 -6.0905 0
M  V30 4395 O 423.971 -4.16514 -6.87583 0
M  V30 4396 H 423.703 -0.0308475 -0.675296 0
M  V30 4397 H 426.257 -0.736335 -1.91748 0
M  V30 4398 H 424.487 1.08112 -3.7128 0
M  V30 4399 H 426.176 0.763994 -3.98645 0
M  V30 4400 H 426.942 -1.65234 -4.55986 0
M  V30 4401 H 422.821 -0.426498 -4.59023 0
M  V30 4402 H 426.365 -3.58451 -5.98464 0
M  V30 4403 H 422.262 -2.35016 -6.01197 0
M  V30 4404 H 423.03 -4.14237 -7.05939 0
M  V30 4405 N 425.693 1.55336 -0.266172 0
M  V30 4406 C 426.603 2.2583 0.635458 0
M  V30 4407 C 427.619 1.28106 1.17749 0
M  V30 4408 O 428.795 1.61024 1.20968 0
M  V30 4409 C 425.86 2.95879 1.80712 0
M  V30 4410 C 424.921 4.09059 1.30265 0
M  V30 4411 C 424.154 4.75759 2.41846 0
M  V30 4412 O 424.377 4.41622 3.61007 0
M  V30 4413 O 423.311 5.63888 2.1051 0
M  V30 4414 H 427.137 3.03631 0.0646693 0
M  V30 4415 H 424.722 1.49361 -0.0339177 0
M  V30 4416 H 426.604 3.39932 2.49047 0
M  V30 4417 H 425.279 2.21002 2.36516 0
M  V30 4418 H 424.186 3.69482 0.586019 0
M  V30 4419 H 425.519 4.85811 0.790458 0
M  V30 4420 N 427.171 -0.0066808 1.57599 0
M  V30 4421 C 428.411 -0.697501 1.92131 0
M  V30 4422 C 428.775 -1.71306 0.867071 0
M  V30 4423 O 429.976 -2.45377 1.09743 0
M  V30 4424 C 428.247 -1.32978 3.3174 0
M  V30 4425 S 429.806 -2.04665 3.88146 0
M  V30 4426 H 426.624 -0.230555 0.672581 0
M  V30 4427 H 429.226 0.0484026 1.9544 0
M  V30 4428 H 427.93 -0.57772 4.06313 0
M  V30 4429 H 427.461 -2.11376 3.31789 0
M  V30 4430 H 429.476 -3.32097 3.68682 0
M  V30 4431 N 428.649 -1.55105 -0.279332 0
M  V30 4432 C 429.612 -1.86783 -1.32834 0
M  V30 4433 C 430.612 -0.74199 -1.42657 0
M  V30 4434 O 431.802 -1.0102 -1.41918 0
M  V30 4435 C 428.934 -2.06746 -2.71052 0
M  V30 4436 H 430.127 -2.8055 -1.05979 0
M  V30 4437 H 427.68 -1.47499 -0.517087 0
M  V30 4438 H 428.415 -1.15339 -3.03097 0
M  V30 4439 H 428.2 -2.88711 -2.65309 0
M  V30 4440 H 429.69 -2.32549 -3.46858 0
M  V30 4441 N 430.127 0.543554 -1.4793 0
M  V30 4442 C 431.09 1.63156 -1.60975 0
M  V30 4443 C 432.09 1.53346 -0.483899 0
M  V30 4444 O 433.28 1.5726 -0.749339 0
M  V30 4445 C 430.412 3.02743 -1.56716 0
M  V30 4446 H 431.605 1.52934 -2.57975 0
M  V30 4447 H 429.158 0.764557 -1.36324 0
M  V30 4448 H 429.893 3.18484 -0.611418 0
M  V30 4449 H 429.678 3.11272 -2.38438 0
M  V30 4450 H 431.168 3.81871 -1.6901 0
M  V30 4451 N 431.605 1.3629 0.791371 0
M  V30 4452 C 433.021 1.16661 1.08914 0
M  V30 4453 C 433.221 -0.0106266 2.01497 0
M  V30 4454 O 432.277 -0.676596 2.43266 0
M  V30 4455 C 433.59 2.47656 1.70549 0
M  V30 4456 C 435.138 2.54002 1.82899 0
M  V30 4457 C 435.613 3.85078 2.47949 0
M  V30 4458 N 437.104 3.86413 2.5542 0
M  V30 4459 C 437.839 4.84572 3.06557 0
M  V30 4460 N 437.335 5.93124 3.58016 0
M  V30 4461 N 439.128 4.71994 3.05251 0
M  V30 4462 H 431.279 2.11668 0.176238 0
M  V30 4463 H 433.542 0.937486 0.140796 0
M  V30 4464 H 433.248 3.34059 1.09989 0
M  V30 4465 H 433.122 2.63319 2.70079 0
M  V30 4466 H 435.509 1.68018 2.42598 0
M  V30 4467 H 435.59 2.42239 0.821808 0
M  V30 4468 H 435.234 4.71467 1.88895 0
M  V30 4469 H 435.164 3.94135 3.49235 0
M  V30 4470 H 437.655 3.07988 2.18979 0
M  V30 4471 H 437.968 6.63999 3.95381 0
M  V30 4472 H 436.313 5.96796 3.56173 0
M  V30 4473 H 439.504 3.86321 2.64336 0
M  V30 4474 H 439.677 5.48653 3.44796 0
M  V30 4475 N 433.083 -1.0153 1.20538 0
M  V30 4476 C 434.015 -2.10224 0.913155 0
M  V30 4477 C 435.028 -1.62495 -0.0995998 0
M  V30 4478 O 436.217 -1.78014 0.131582 0
M  V30 4479 C 433.317 -3.37111 0.347717 0
M  V30 4480 C 432.49 -4.13971 1.41233 0
M  V30 4481 C 431.549 -5.19158 0.857976 0
M  V30 4482 O 430.575 -5.48 1.53897 0
M  V30 4483 N 431.777 -5.7955 -0.331966 0
M  V30 4484 H 434.542 -2.35879 1.84881 0
M  V30 4485 H 432.103 -1.17931 1.10923 0
M  V30 4486 H 434.095 -4.04683 -0.0373026 0
M  V30 4487 H 432.665 -3.08696 -0.492527 0
M  V30 4488 H 431.885 -3.41351 1.97163 0
M  V30 4489 H 433.173 -4.62103 2.12928 0
M  V30 4490 H 432.571 -5.58455 -0.902478 0
M  V30 4491 H 431.128 -6.48464 -0.65861 0
M  V30 4492 N 434.561 -1.01147 -1.20859 0
M  V30 4493 C 435.524 -0.582224 -2.21682 0
M  V30 4494 C 436.524 0.344887 -1.57058 0
M  V30 4495 O 437.714 0.134281 -1.73682 0
M  V30 4496 C 434.846 0.150496 -3.40568 0
M  V30 4497 H 436.039 -1.47408 -2.61172 0
M  V30 4498 H 433.592 -0.800695 -1.34233 0
M  V30 4499 H 434.327 1.0575 -3.06574 0
M  V30 4500 H 434.112 -0.515444 -3.88697 0
M  V30 4501 H 435.602 0.438344 -4.15293 0
M  V30 4502 N 436.039 1.36541 -0.78704 0
M  V30 4503 C 437.267 2.03561 -0.370199 0
M  V30 4504 C 437.682 1.59347 1.01263 0
M  V30 4505 O 437.039 0.781781 1.64907 0
M  V30 4506 C 437.09 3.59033 -0.421614 0
M  V30 4507 O 436.811 4.01634 -1.7499 0
M  V30 4508 C 438.312 4.433 0.00489763 0
M  V30 4509 H 435.532 0.653346 -0.152904 0
M  V30 4510 H 438.076 1.74566 -1.06522 0
M  V30 4511 H 436.231 3.86746 0.224971 0
M  V30 4512 H 436.645 4.96217 -1.69909 0
M  V30 4513 H 438.119 5.51939 -0.0822184 0
M  V30 4514 H 438.596 4.26285 1.05723 0
M  V30 4515 H 439.202 4.20843 -0.614085 0
M  V30 4516 N 437.518 0.538854 1.48102 0
M  V30 4517 C 438.934 0.19732 1.58376 0
M  V30 4518 C 439.134 -1.29971 1.5398 0
M  V30 4519 O 438.19 -2.07861 1.43352 0
M  V30 4520 C 439.503 0.807716 2.89649 0
M  V30 4521 C 441.051 0.77726 3.03196 0
M  V30 4522 C 441.526 1.36639 4.37143 0
M  V30 4523 N 443.017 1.32875 4.43732 0
M  V30 4524 C 443.752 1.7544 5.45901 0
M  V30 4525 N 443.248 2.25776 6.54979 0
M  V30 4526 N 445.041 1.66623 5.36836 0
M  V30 4527 H 437.192 1.5117 1.49202 0
M  V30 4528 H 439.455 0.629327 0.708979 0
M  V30 4529 H 439.161 1.85909 2.98548 0
M  V30 4530 H 439.035 0.289975 3.76084 0
M  V30 4531 H 441.422 -0.265374 2.93904 0
M  V30 4532 H 441.503 1.33256 2.18349 0
M  V30 4533 H 441.147 2.408 4.47189 0
M  V30 4534 H 441.077 0.786689 5.20691 0
M  V30 4535 H 443.568 0.96037 3.65493 0
M  V30 4536 H 443.881 2.56226 7.29087 0
M  V30 4537 H 442.226 2.29775 6.55918 0
M  V30 4538 H 445.417 1.27089 4.50517 0
M  V30 4539 H 445.59 2.00115 6.16326 0
M  V30 4540 N 438.996 -1.55193 0.274407 0
M  V30 4541 C 439.906 -2.26164 -0.623473 0
M  V30 4542 C 440.922 -1.28729 -1.17068 0
M  V30 4543 O 442.098 -1.61663 -1.20112 0
M  V30 4544 C 439.163 -2.96833 -1.7914 0
M  V30 4545 C 438.224 -4.09745 -1.28093 0
M  V30 4546 C 437.457 -4.77034 -2.3932 0
M  V30 4547 O 437.68 -4.4353 -3.5866 0
M  V30 4548 O 436.614 -5.64996 -2.07516 0
M  V30 4549 H 440.44 -3.03661 -0.0485661 0
M  V30 4550 H 438.025 -1.49341 0.0418382 0
M  V30 4551 H 439.907 -3.41248 -2.4724 0
M  V30 4552 H 438.582 -2.22253 -2.35341 0
M  V30 4553 H 437.489 -3.69787 -0.566416 0
M  V30 4554 H 438.822 -4.86224 -0.764683 0
M  V30 4555 N 440.474 -0.00167713 -1.576 0
M  V30 4556 C 441.72 0.683832 -1.90923 0
M  V30 4557 C 442.053 1.7333 -0.875799 0
M  V30 4558 O 441.328 1.94215 0.10525 0
M  V30 4559 C 441.611 1.32543 -3.3482 0
M  V30 4560 C 441.464 0.287387 -4.48881 0
M  V30 4561 C 442.783 2.25114 -3.78169 0
M  V30 4562 H 439.902 0.247125 -0.694333 0
M  V30 4563 H 442.544 -0.0533149 -1.89925 0
M  V30 4564 H 440.694 1.95372 -3.35801 0
M  V30 4565 H 442.366 -0.341346 -4.60035 0
M  V30 4566 H 440.609 -0.39017 -4.32042 0
M  V30 4567 H 441.28 0.775393 -5.46527 0
M  V30 4568 H 443.756 1.723 -3.7875 0
M  V30 4569 H 442.632 2.66971 -4.79602 0
M  V30 4570 H 442.893 3.13092 -3.12131 0
M  V30 4571 N 441.952 1.55251 0.271103 0
M  V30 4572 C 442.899 1.88261 1.33516 0
M  V30 4573 C 443.869 0.734296 1.48988 0
M  V30 4574 O 445.054 0.985741 1.63364 0
M  V30 4575 C 442.194 2.16168 2.69008 0
M  V30 4576 C 441.307 3.43678 2.61743 0
M  V30 4577 C 440.442 3.61276 3.89427 0
M  V30 4578 C 439.481 4.82472 3.7668 0
M  V30 4579 N 438.618 4.96717 4.96202 0
M  V30 4580 H 443.458 2.79015 1.04665 0
M  V30 4581 H 440.995 1.38137 0.505618 0
M  V30 4582 H 442.953 2.30349 3.47844 0
M  V30 4583 H 441.583 1.28646 2.96057 0
M  V30 4584 H 440.635 3.37959 1.74607 0
M  V30 4585 H 441.947 4.3265 2.48224 0
M  V30 4586 H 441.101 3.75284 4.76704 0
M  V30 4587 H 439.84 2.70492 4.05814 0
M  V30 4588 H 438.845 4.68465 2.87786 0
M  V30 4589 H 440.07 5.74692 3.61809 0
M  V30 4590 H 438.016 4.08865 5.12997 0
M  V30 4591 H 437.933 5.79738 4.85222 0
M  V30 4592 H 439.201 5.15113 5.85046 0
M  V30 4593 N 443.43 -0.535701 1.48216 0
M  V30 4594 C 444.34 -1.66785 1.64985 0
M  V30 4595 C 445.356 -1.65654 0.532414 0
M  V30 4596 O 446.532 -1.8471 0.80275 0
M  V30 4597 C 443.597 -3.0326 1.68031 0
M  V30 4598 C 442.658 -3.1529 2.9136 0
M  V30 4599 C 441.891 -4.45255 2.94252 0
M  V30 4600 O 442.114 -5.32011 2.05719 0
M  V30 4601 O 441.048 -4.6153 3.86359 0
M  V30 4602 H 444.874 -1.55576 2.60825 0
M  V30 4603 H 442.459 -0.70815 1.31551 0
M  V30 4604 H 444.341 -3.84436 1.72589 0
M  V30 4605 H 443.016 -3.14805 0.753628 0
M  V30 4606 H 441.923 -2.3343 2.92337 0
M  V30 4607 H 443.256 -3.08658 3.83394 0
M  V30 4608 N 444.908 -1.36708 -0.784132 0
M  V30 4609 C 445.841 -1.25827 -1.90375 0
M  V30 4610 C 446.819 -0.141331 -1.61985 0
M  V30 4611 O 448.003 -0.313389 -1.85877 0
M  V30 4612 C 445.13 -0.942621 -3.25319 0
M  V30 4613 C 444.176 -2.07474 -3.72635 0
M  V30 4614 S 445.009 -3.69317 -3.8777 0
M  V30 4615 C 446.165 -3.39876 -5.25581 0
M  V30 4616 H 446.398 -2.20593 -1.99314 0
M  V30 4617 H 443.931 -1.22186 -0.943926 0
M  V30 4618 H 445.889 -0.767321 -4.03265 0
M  V30 4619 H 444.55 -0.0126566 -3.14097 0
M  V30 4620 H 443.743 -1.80858 -4.70432 0
M  V30 4621 H 443.345 -2.20953 -3.01754 0
M  V30 4622 H 445.637 -2.94097 -6.10339 0
M  V30 4623 H 446.58 -4.36956 -5.57203 0
M  V30 4624 H 446.988 -2.75098 -4.92931 0
M  V30 4625 N 446.386 1.0089 -1.21074 0
M  V30 4626 C 447.333 2.09588 -0.966512 0
M  V30 4627 C 448.303 1.65761 0.106089 0
M  V30 4628 O 449.488 1.90758 -0.0402287 0
M  V30 4629 C 446.628 3.40958 -0.533058 0
M  V30 4630 C 445.741 3.9822 -1.67467 0
M  V30 4631 C 444.876 5.17682 -1.19076 0
M  V30 4632 C 443.915 5.67043 -2.30496 0
M  V30 4633 N 443.052 6.77759 -1.83267 0
M  V30 4634 H 447.892 2.29815 -1.89708 0
M  V30 4635 H 445.429 1.12689 -0.945489 0
M  V30 4636 H 447.387 4.1637 -0.263019 0
M  V30 4637 H 446.017 3.20781 0.360505 0
M  V30 4638 H 445.069 3.1983 -2.05944 0
M  V30 4639 H 446.381 4.3085 -2.51336 0
M  V30 4640 H 445.535 6.00326 -0.877151 0
M  V30 4641 H 444.274 4.86635 -0.322066 0
M  V30 4642 H 443.279 4.82999 -2.62664 0
M  V30 4643 H 444.504 6.00121 -3.17855 0
M  V30 4644 H 442.45 6.48527 -0.987356 0
M  V30 4645 H 442.367 7.09624 -2.60711 0
M  V30 4646 H 443.635 7.63949 -1.54928 0
M  V30 4647 N 447.864 1.01787 1.20321 0
M  V30 4648 C 448.811 0.589197 2.23153 0
M  V30 4649 C 449.781 -0.391367 1.61423 0
M  V30 4650 O 450.966 -0.290518 1.88575 0
M  V30 4651 C 448.106 -0.0650747 3.45039 0
M  V30 4652 C 447.219 0.960207 4.21194 0
M  V30 4653 C 446.354 0.276854 5.30478 0
M  V30 4654 C 445.393 1.2888 5.98378 0
M  V30 4655 N 444.53 0.632031 6.99249 0
M  V30 4656 H 449.37 1.47071 2.59179 0
M  V30 4657 H 446.907 0.736192 1.27352 0
M  V30 4658 H 448.865 -0.461552 4.14639 0
M  V30 4659 H 447.495 -0.910233 3.09701 0
M  V30 4660 H 446.547 1.47484 3.50646 0
M  V30 4661 H 447.859 1.72977 4.67847 0
M  V30 4662 H 447.013 -0.175056 6.06447 0
M  V30 4663 H 445.752 -0.525004 4.84866 0
M  V30 4664 H 444.757 1.75109 5.21169 0
M  V30 4665 H 445.982 2.09196 6.46076 0
M  V30 4666 H 443.928 -0.149935 6.55829 0
M  V30 4667 H 443.845 1.33964 7.44036 0
M  V30 4668 H 445.113 0.203755 7.79234 0
M  V30 4669 N 449.342 -1.36122 0.79427 0
M  V30 4670 C 450.588 -1.99406 0.369452 0
M  V30 4671 C 450.921 -1.62886 -1.05743 0
M  V30 4672 O 450.196 -0.886053 -1.73145 0
M  V30 4673 C 450.479 -3.56046 0.538833 0
M  V30 4674 C 450.332 -4.02404 2.00976 0
M  V30 4675 C 451.651 -4.40079 -0.0431359 0
M  V30 4676 H 448.77 -0.724397 0.135712 0
M  V30 4677 H 451.412 -1.61461 1.00151 0
M  V30 4678 H 449.562 -3.885 0.000771004 0
M  V30 4679 H 451.234 -3.80415 2.60926 0
M  V30 4680 H 449.477 -3.53765 2.51063 0
M  V30 4681 H 450.148 -5.11344 2.07922 0
M  V30 4682 H 452.624 -4.14013 0.416228 0
M  V30 4683 H 451.5 -5.48799 0.105374 0
M  V30 4684 H 451.761 -4.27264 -1.13571 0
M  V30 4685 N 450.82 -0.546701 -1.47814 0
M  V30 4686 C 452.048 -0.0232857 -2.06887 0
M  V30 4687 C 452.463 1.26571 -1.4009 0
M  V30 4688 O 451.82 1.7569 -0.493906 0
M  V30 4689 C 451.871 0.186975 -3.61016 0
M  V30 4690 O 451.592 -1.05097 -4.25307 0
M  V30 4691 C 453.093 0.748872 -4.36929 0
M  V30 4692 H 450.313 -0.0410763 -0.669742 0
M  V30 4693 H 452.857 -0.757117 -1.89968 0
M  V30 4694 H 451.012 0.870903 -3.77484 0
M  V30 4695 H 451.426 -0.842121 -5.17695 0
M  V30 4696 H 452.9 0.845334 -5.45489 0
M  V30 4697 H 453.377 1.75772 -4.02493 0
M  V30 4698 H 453.983 0.100979 -4.2518 0
M  V30 4699 N 452.299 1.55045 -0.282633 0
M  V30 4700 C 453.548 1.98938 0.332667 0
M  V30 4701 C 453.861 1.17455 1.56409 0
M  V30 4702 O 455.067 1.51527 2.25282 0
M  V30 4703 C 453.523 3.54105 0.643226 0
M  V30 4704 C 453.131 4.44374 -0.568814 0
M  V30 4705 C 454.875 4.06569 1.22074 0
M  V30 4706 C 452.782 5.90943 -0.232426 0
M  V30 4707 H 451.712 0.743043 0.128075 0
M  V30 4708 H 454.363 1.79341 -0.388464 0
M  V30 4709 H 452.745 3.69532 1.42346 0
M  V30 4710 H 453.919 4.40718 -1.34551 0
M  V30 4711 H 452.234 4.02585 -1.06369 0
M  V30 4712 H 454.831 5.13626 1.48635 0
M  V30 4713 H 455.174 3.56057 2.15707 0
M  V30 4714 H 455.707 3.94612 0.502621 0
M  V30 4715 H 452.446 6.45567 -1.13683 0
M  V30 4716 H 451.966 5.9765 0.507357 0
M  V30 4717 H 453.645 6.4677 0.172657 0
M  V30 4718 N 453.777 0.010035 1.57597 0
M  V30 4719 C 455.002 -0.687021 1.95691 0
M  V30 4720 C 455.427 -1.65952 0.885519 0
M  V30 4721 O 454.785 -1.80633 -0.15543 0
M  V30 4722 C 454.833 -1.3864 3.32884 0
M  V30 4723 O 453.937 -2.50115 3.27897 0
M  V30 4724 H 453.278 -0.181989 0.638573 0
M  V30 4725 H 455.808 0.0662122 2.04493 0
M  V30 4726 H 455.818 -1.74754 3.6868 0
M  V30 4727 H 454.493 -0.673411 4.10412 0
M  V30 4728 H 453.07 -2.16253 3.03791 0
M  V30 4729 N 455.255 -1.55392 -0.262866 0
M  V30 4730 C 456.501 -1.76737 -0.99458 0
M  V30 4731 C 456.834 -0.572453 -1.85571 0
M  V30 4732 O 456.109 0.429732 -1.89693 0
M  V30 4733 C 456.392 -3.07824 -1.8686 0
M  V30 4734 C 456.245 -4.3769 -1.03672 0
M  V30 4735 C 457.564 -3.35021 -2.85393 0
M  V30 4736 H 454.683 -0.643005 -0.360157 0
M  V30 4737 H 457.325 -1.88126 -0.266216 0
M  V30 4738 H 455.475 -2.98245 -2.48962 0
M  V30 4739 H 457.147 -4.59238 -0.43563 0
M  V30 4740 H 455.39 -4.32461 -0.340513 0
M  V30 4741 H 456.061 -5.25759 -1.6817 0
M  V30 4742 H 458.537 -3.44458 -2.33426 0
M  V30 4743 H 457.413 -4.27989 -3.43681 0
M  V30 4744 H 457.674 -2.55153 -3.61039 0
M  V30 4745 N 456.733 0.527833 -1.48498 0
M  V30 4746 C 457.683 1.62844 -1.5958 0
M  V30 4747 C 458.667 1.54397 -0.452809 0
M  V30 4748 O 459.859 1.62381 -0.704364 0
M  V30 4749 C 456.988 3.01557 -1.64067 0
M  V30 4750 C 456.074 3.151 -2.83853 0
M  V30 4751 N 456.465 2.9861 -4.08247 0
M  V30 4752 C 454.763 3.46158 -2.8123 0
M  V30 4753 C 455.464 3.15626 -4.88626 0
M  V30 4754 N 454.44 3.43298 -4.21483 0
M  V30 4755 H 458.242 1.48708 -2.53502 0
M  V30 4756 H 455.756 0.733343 -1.44899 0
M  V30 4757 H 457.753 3.8062 -1.70101 0
M  V30 4758 H 456.413 3.16783 -0.712636 0
M  V30 4759 H 457.424 2.75329 -4.3865 0
M  V30 4760 H 454.101 3.67728 -1.97692 0
M  V30 4761 H 455.491 3.07596 -5.97356 0
M  V30 4762 N 458.211 1.37122 0.776871 0
M  V30 4763 C 459.121 1.34651 1.9211 0
M  V30 4764 C 460.137 0.246824 1.7224 0
M  V30 4765 O 461.313 0.48134 1.95563 0
M  V30 4766 C 458.378 1.14748 3.2716 0
M  V30 4767 C 457.439 2.34308 3.5972 0
M  V30 4768 C 456.672 2.15345 4.88326 0
M  V30 4769 O 456.895 1.13507 5.58992 0
M  V30 4770 O 455.829 3.03414 5.1983 0
M  V30 4771 H 459.655 2.31013 1.97146 0
M  V30 4772 H 457.24 1.17799 0.918901 0
M  V30 4773 H 459.122 1.05616 4.0795 0
M  V30 4774 H 457.797 0.214562 3.22988 0
M  V30 4775 H 456.704 2.49011 2.79185 0
M  V30 4776 H 458.037 3.26149 3.68629 0
M  V30 4777 N 459.689 -1.00246 1.21608 0
M  V30 4778 C 460.636 -2.09073 0.977613 0
M  V30 4779 C 461.606 -1.65815 -0.097297 0
M  V30 4780 O 462.791 -1.90734 0.0503445 0
M  V30 4781 C 459.931 -3.40671 0.551133 0
M  V30 4782 C 459.044 -3.97326 1.69576 0
M  V30 4783 C 458.179 -5.17043 1.2182 0
M  V30 4784 C 457.218 -5.65813 2.335 0
M  V30 4785 N 456.355 -6.76778 1.86859 0
M  V30 4786 H 461.195 -2.28806 1.90924 0
M  V30 4787 H 458.732 -1.12186 0.951452 0
M  V30 4788 H 460.69 -4.16225 0.285097 0
M  V30 4789 H 459.32 -3.20967 -0.343489 0
M  V30 4790 H 458.372 -3.18734 2.07637 0
M  V30 4791 H 459.684 -4.29511 2.53617 0
M  V30 4792 H 458.838 -5.99852 0.908975 0
M  V30 4793 H 457.577 -4.86458 0.347869 0
M  V30 4794 H 456.582 -4.81599 2.65222 0
M  V30 4795 H 457.807 -5.98427 3.21033 0
M  V30 4796 H 455.753 -6.47994 1.02174 0
M  V30 4797 H 455.67 -7.08231 2.64471 0
M  V30 4798 H 456.938 -7.63116 1.58978 0
M  V30 4799 N 461.167 -1.02423 -1.1978 0
M  V30 4800 C 462.415 -0.716569 -1.8897 0
M  V30 4801 C 462.736 0.756769 -1.79716 0
M  V30 4802 O 462.006 1.5449 -1.20456 0
M  V30 4803 H 460.586 -0.262062 -0.699523 0
M  V30 4804 H 463.248 -1.29747 -1.45436 0
M  V30 4805 H 462.344 -1.00675 -2.95417 0
M  V30 4806 N 462.645 1.35699 -0.801477 0
M  V30 4807 C 463.892 1.98913 -0.379459 0
M  V30 4808 C 464.22 1.63592 1.05204 0
M  V30 4809 O 463.475 0.888563 1.74365 0
M  V30 4810 C 463.774 3.53828 -0.504041 0
M  V30 4811 C 463.44 4.09002 -1.8981 0
M  V30 4812 C 462.102 4.23783 -2.27951 0
M  V30 4813 C 464.454 4.38939 -2.81038 0
M  V30 4814 C 461.782 4.65816 -3.56696 0
M  V30 4815 C 464.134 4.82409 -4.09224 0
M  V30 4816 C 462.798 4.95395 -4.4737 0
M  V30 4817 H 462.068 0.727874 -0.138854 0
M  V30 4818 H 464.715 1.61994 -1.02128 0
M  V30 4819 H 463.02 3.91175 0.221242 0
M  V30 4820 H 464.717 4.00687 -0.158361 0
M  V30 4821 H 461.307 3.97946 -1.59176 0
M  V30 4822 H 465.491 4.27077 -2.52821 0
M  V30 4823 H 460.747 4.74059 -3.86106 0
M  V30 4824 H 464.921 5.04535 -4.80018 0
M  V30 4825 H 462.548 5.27724 -5.47185 0
M  V30 4826 N 464.123 0.554532 1.47522 0
M  V30 4827 C 465.372 0.0273458 2.01681 0
M  V30 4828 C 465.685 -1.32962 1.43459 0
M  V30 4829 O 466.891 -1.94657 1.89265 0
M  V30 4830 C 465.347 -0.00159057 3.599 0
M  V30 4831 C 464.955 1.35197 4.27113 0
M  V30 4832 C 466.699 -0.476311 4.21819 0
M  V30 4833 C 464.606 1.28229 5.77331 0
M  V30 4834 H 463.536 0.00645269 0.753972 0
M  V30 4835 H 466.187 0.701985 1.69542 0
M  V30 4836 H 464.569 -0.741821 3.8899 0
M  V30 4837 H 465.743 2.1097 4.09668 0
M  V30 4838 H 464.058 1.76441 3.77171 0
M  V30 4839 H 466.655 -0.5468 5.31897 0
M  V30 4840 H 466.998 -1.4877 3.8881 0
M  V30 4841 H 467.531 0.20898 3.97251 0
M  V30 4842 H 464.27 2.26959 6.14955 0
M  V30 4843 H 463.79 0.566314 5.97121 0
M  V30 4844 H 465.469 0.983226 6.39485 0
M  V30 4845 N 465.601 -1.54893 0.290851 0
M  V30 4846 C 466.511 -2.26812 -0.59945 0
M  V30 4847 C 467.527 -1.29963 -1.15696 0
M  V30 4848 O 468.703 -1.62928 -1.18391 0
M  V30 4849 C 465.768 -2.98716 -1.75982 0
M  V30 4850 C 464.829 -4.1108 -1.2374 0
M  V30 4851 C 464.062 -4.79546 -2.34246 0
M  V30 4852 O 464.285 -4.47309 -3.53936 0
M  V30 4853 O 463.219 -5.67165 -2.01512 0
M  V30 4854 H 467.045 -3.03696 -0.0163561 0
M  V30 4855 H 464.63 -1.49289 0.0576755 0
M  V30 4856 H 466.512 -3.43851 -2.43607 0
M  V30 4857 H 465.187 -2.24737 -2.3297 0
M  V30 4858 H 464.094 -3.70367 -0.527163 0
M  V30 4859 H 465.427 -4.87007 -0.71307 0
M  V30 4860 N 467.08 -0.0183926 -1.57589 0
M  V30 4861 C 468.329 0.66185 -1.90532 0
M  V30 4862 C 468.642 1.73904 -0.895366 0
M  V30 4863 O 469.848 2.47518 -1.11566 0
M  V30 4864 C 468.304 1.22844 -3.38286 0
M  V30 4865 C 467.912 0.185103 -4.47617 0
M  V30 4866 C 469.656 1.88581 -3.80312 0
M  V30 4867 C 467.563 0.762723 -5.86461 0
M  V30 4868 H 466.493 0.250972 -0.711006 0
M  V30 4869 H 469.144 -0.0819435 -1.83317 0
M  V30 4870 H 467.526 2.0235 -3.40398 0
M  V30 4871 H 468.7 -0.58671 -4.5705 0
M  V30 4872 H 467.015 -0.372889 -4.14727 0
M  V30 4873 H 469.612 2.32735 -4.81392 0
M  V30 4874 H 469.955 2.72408 -3.14801 0
M  V30 4875 H 470.488 1.15782 -3.80578 0
M  V30 4876 H 467.227 -0.0371713 -6.55489 0
M  V30 4877 H 466.747 1.50327 -5.80656 0
M  V30 4878 H 468.426 1.25576 -6.34697 0
M  V30 4879 N 468.558 1.5553 0.254621 0
M  V30 4880 C 469.505 1.89666 1.31512 0
M  V30 4881 C 470.475 0.750057 1.482 0
M  V30 4882 O 471.66 1.00301 1.62309 0
M  V30 4883 C 468.8 2.19009 2.667 0
M  V30 4884 C 467.913 3.46435 2.58083 0
M  V30 4885 C 467.048 3.65386 3.85573 0
M  V30 4886 C 466.087 4.8644 3.71541 0
M  V30 4887 N 465.224 5.01952 4.90906 0
M  V30 4888 H 470.064 2.80109 1.017 0
M  V30 4889 H 467.601 1.38666 0.490938 0
M  V30 4890 H 469.559 2.34025 3.45381 0
M  V30 4891 H 468.189 1.31779 2.94676 0
M  V30 4892 H 467.241 3.39792 1.71013 0
M  V30 4893 H 468.553 4.35258 2.43622 0
M  V30 4894 H 467.707 3.80319 4.72697 0
M  V30 4895 H 466.446 2.74781 4.02922 0
M  V30 4896 H 465.451 4.71491 2.82801 0
M  V30 4897 H 466.676 5.78497 3.55694 0
M  V30 4898 H 464.622 4.14283 5.08631 0
M  V30 4899 H 464.539 5.84851 4.79046 0
M  V30 4900 H 465.807 5.21289 5.7955 0
M  V30 4901 N 470.036 -0.519951 1.48776 0
M  V30 4902 C 471.447 -1.10177 1.50725 0
M  V30 4903 C 471.798 -1.94153 0.282678 0
M  V30 4904 O 470.923 -2.07645 -0.609298 0
M  V30 4905 C 471.518 -2.00482 2.73116 0
M  V30 4906 C 470.077 -2.53862 2.77905 0
M  V30 4907 C 469.224 -1.31047 2.44381 0
M  V30 4908 H 472.175 -0.30473 1.55747 0
M  V30 4909 H 472.196 -2.8491 2.52203 0
M  V30 4910 H 471.708 -1.39335 3.62225 0
M  V30 4911 H 469.809 -3.18702 1.93029 0
M  V30 4912 H 469.922 -2.9231 3.79594 0
M  V30 4913 H 468.286 -1.62953 1.95751 0
M  V30 4914 H 469.069 -0.71637 3.35743 0
M  V30 4915 N 471.514 -1.37532 -0.769588 0
M  V30 4916 C 472.742 -1.36059 -1.55871 0
M  V30 4917 C 473.157 0.053544 -1.88724 0
M  V30 4918 O 472.514 1.01591 -1.5161 0
M  V30 4919 C 472.565 -2.20107 -2.86767 0
M  V30 4920 O 472.286 -3.56009 -2.55321 0
M  V30 4921 C 473.787 -2.26636 -3.80987 0
M  V30 4922 H 471.007 -0.465967 -0.482821 0
M  V30 4923 H 473.551 -1.80901 -0.953686 0
M  V30 4924 H 471.706 -1.78768 -3.43687 0
M  V30 4925 H 472.12 -4.0009 -3.39158 0
M  V30 4926 H 473.594 -2.89763 -4.69831 0
M  V30 4927 H 474.071 -1.2754 -4.20274 0
M  V30 4928 H 474.677 -2.68296 -3.29996 0
M  V30 4929 N 472.992 0.995999 -1.22138 0
M  V30 4930 C 474.239 1.7351 -1.04406 0
M  V30 4931 C 474.567 1.89884 0.421244 0
M  V30 4932 O 473.822 1.43683 1.32867 0
M  V30 4933 C 474.121 3.14553 -1.6968 0
M  V30 4934 C 473.787 3.18102 -3.19565 0
M  V30 4935 C 472.449 3.18778 -3.60464 0
M  V30 4936 C 474.801 3.14636 -4.15516 0
M  V30 4937 C 472.129 3.13684 -4.95801 0
M  V30 4938 C 474.481 3.11084 -5.50826 0
M  V30 4939 C 473.145 3.10074 -5.91109 0
M  V30 4940 H 472.415 0.634916 -0.38205 0
M  V30 4941 H 475.062 1.1667 -1.51857 0
M  V30 4942 H 473.367 3.74682 -1.14546 0
M  V30 4943 H 475.064 3.70477 -1.53454 0
M  V30 4944 H 471.654 3.18324 -2.86998 0
M  V30 4945 H 475.838 3.13266 -3.84939 0
M  V30 4946 H 471.094 3.11245 -5.26247 0
M  V30 4947 H 475.268 3.07357 -6.24904 0
M  V30 4948 H 472.895 3.05882 -6.95946 0
M  V30 4949 N 474.47 1.03057 1.19235 0
M  V30 4950 C 475.695 0.74757 1.93458 0
M  V30 4951 C 476.12 -0.687648 1.7508 0
M  V30 4952 O 475.478 -1.47499 1.05422 0
M  V30 4953 C 475.526 1.10604 3.43219 0
M  V30 4954 O 474.63 0.225671 4.11782 0
M  V30 4955 H 473.971 0.276047 0.603899 0
M  V30 4956 H 476.501 1.3777 1.51263 0
M  V30 4957 H 476.511 1.06366 3.93891 0
M  V30 4958 H 475.186 2.15165 3.55917 0
M  V30 4959 H 473.763 0.326795 3.71465 0
M  V30 4960 N 475.948 -1.35272 0.808662 0
M  V30 4961 C 476.88 -2.28507 0.178149 0
M  V30 4962 C 477.893 -1.50377 -0.623754 0
M  V30 4963 O 479.082 -1.72583 -0.455774 0
M  V30 4964 C 476.182 -3.30038 -0.769959 0
M  V30 4965 C 475.355 -4.37398 -0.0139749 0
M  V30 4966 C 474.414 -5.18775 -0.880875 0
M  V30 4967 O 473.44 -5.68236 -0.331059 0
M  V30 4968 N 474.642 -5.37087 -2.20267 0
M  V30 4969 H 477.407 -2.83255 0.979106 0
M  V30 4970 H 474.968 -1.47643 0.664308 0
M  V30 4971 H 476.96 -3.81371 -1.35418 0
M  V30 4972 H 475.53 -2.75789 -1.47171 0
M  V30 4973 H 474.75 -3.86971 0.751468 0
M  V30 4974 H 476.038 -5.06268 0.506965 0
M  V30 4975 H 475.436 -4.9855 -2.67328 0
M  V30 4976 H 473.993 -5.91593 -2.73608 0
M  V30 4977 N 477.426 -0.562348 -1.47226 0
M  V30 4978 C 478.356 0.170627 -2.32876 0
M  V30 4979 C 479.337 0.903748 -1.44106 0
M  V30 4980 O 480.522 0.883206 -1.72954 0
M  V30 4981 C 477.652 1.19786 -3.25989 0
M  V30 4982 C 476.606 0.580875 -4.2404 0
M  V30 4983 C 475.932 1.71311 -5.06514 0
M  V30 4984 C 477.232 -0.468714 -5.20193 0
M  V30 4985 H 478.926 -0.544441 -2.94408 0
M  V30 4986 H 476.472 -0.263271 -1.41573 0
M  V30 4987 H 478.425 1.71884 -3.84752 0
M  V30 4988 H 477.149 1.94294 -2.62521 0
M  V30 4989 H 475.808 0.0811538 -3.6651 0
M  V30 4990 H 475.456 2.44736 -4.39447 0
M  V30 4991 H 475.156 1.30604 -5.72902 0
M  V30 4992 H 476.68 2.23725 -5.68137 0
M  V30 4993 H 478.094 -0.0336028 -5.7329 0
M  V30 4994 H 476.491 -0.794957 -5.94811 0
M  V30 4995 H 477.561 -1.36269 -4.65359 0
M  V30 4996 N 478.904 1.54736 -0.299062 0
M  V30 4997 C 479.814 2.27127 0.587413 0
M  V30 4998 C 480.83 1.30575 1.15005 0
M  V30 4999 O 482.006 1.63554 1.17525 0
M  V30 5000 C 479.071 2.99645 1.74395 0
M  V30 5001 C 478.132 4.11731 1.21559 0
M  V30 5002 C 477.365 4.80781 2.317 0
M  V30 5003 O 477.588 4.4918 3.51558 0
M  V30 5004 O 476.522 5.68226 1.98501 0
M  V30 5005 H 480.348 3.037 0.000250109 0
M  V30 5006 H 477.933 1.49256 -0.0655919 0
M  V30 5007 H 479.815 3.45138 2.4178 0
M  V30 5008 H 478.49 2.25969 2.31775 0
M  V30 5009 H 477.397 3.70641 0.507514 0
M  V30 5010 H 478.73 4.87379 0.687233 0
M  V30 5011 N 480.382 0.0267497 1.57577 0
M  V30 5012 C 481.345 -0.940916 2.08996 0
M  V30 5013 C 482.345 -1.25561 1.00455 0
M  V30 5014 O 483.535 -1.19634 1.26623 0
M  V30 5015 C 480.667 -2.25814 2.55384 0
M  V30 5016 H 481.86 -0.495628 2.95776 0
M  V30 5017 H 479.413 -0.221241 1.54726 0
M  V30 5018 H 480.148 -2.74976 1.71926 0
M  V30 5019 H 479.933 -2.04285 3.34679 0
M  V30 5020 H 481.423 -2.95178 2.95398 0
M  V30 5021 N 481.861 -1.55662 -0.24637 0
M  V30 5022 C 483.107 -1.77782 -0.975779 0
M  V30 5023 C 483.44 -0.592103 -1.84953 0
M  V30 5024 O 482.715 0.409588 -1.90138 0
M  V30 5025 C 482.998 -3.09788 -1.83584 0
M  V30 5026 C 482.851 -4.38764 -0.990241 0
M  V30 5027 C 484.17 -3.38029 -2.81823 0
M  V30 5028 H 481.289 -0.646789 -0.353317 0
M  V30 5029 H 483.931 -1.88398 -0.246248 0
M  V30 5030 H 482.081 -3.00869 -2.45784 0
M  V30 5031 H 483.753 -4.59675 -0.386897 0
M  V30 5032 H 481.996 -4.32798 -0.294626 0
M  V30 5033 H 482.667 -5.27514 -1.62584 0
M  V30 5034 H 485.143 -3.46915 -2.2976 0
M  V30 5035 H 484.019 -4.3161 -3.39122 0
M  V30 5036 H 484.28 -2.58968 -3.58313 0
M  V30 5037 N 483.339 0.512053 -1.4905 0
M  V30 5038 C 484.287 1.63568 -1.65373 0
M  V30 5039 C 485.281 1.61228 -0.519806 0
M  V30 5040 O 486.487 1.65869 -0.699101 0
M  V30 5041 H 482.862 0.542019 -0.521267 0
M  V30 5042 H 484.833 1.4695 -2.59708 0
M  V30 5043 C 483.582 3.01761 -1.7273 0
M  V30 5044 H 482.905 3.04263 -2.59353 0
M  V30 5045 H 484.345 3.79948 -1.8819 0
M  V30 5046 C 482.804 3.33609 -0.46973 0
M  V30 5047 O 483.334 3.99607 0.409492 0
M  V30 5048 N 481.54 2.88651 -0.336003 0
M  V30 5049 H 481.087 2.35119 -1.05247 0
M  V30 5050 H 481.045 3.10328 0.504363 0
M  V30 5051 N 484.817 1.37938 0.762283 0
M  V30 5052 C 485.747 1.37176 1.88958 0
M  V30 5053 C 486.728 0.238945 1.68413 0
M  V30 5054 O 487.913 0.440726 1.89133 0
M  V30 5055 C 485.043 1.18742 3.2637 0
M  V30 5056 C 483.997 2.29136 3.61498 0
M  V30 5057 C 483.323 1.95816 4.97554 0
M  V30 5058 C 484.623 3.71363 3.6727 0
M  V30 5059 H 486.317 2.31509 1.89853 0
M  V30 5060 H 483.863 1.11438 0.912005 0
M  V30 5061 H 485.816 1.16837 4.04879 0
M  V30 5062 H 484.54 0.208683 3.25933 0
M  V30 5063 H 483.199 2.30213 2.85303 0
M  V30 5064 H 482.847 0.964475 4.93667 0
M  V30 5065 H 482.547 2.69745 5.22026 0
M  V30 5066 H 484.071 1.95513 5.78452 0
M  V30 5067 H 485.485 3.72364 4.35911 0
M  V30 5068 H 483.882 4.44425 4.03245 0
M  V30 5069 H 484.952 4.04305 2.67704 0
M  V30 5070 N 486.295 -0.989507 1.22664 0
M  V30 5071 C 487.245 -2.06478 0.967005 0
M  V30 5072 C 488.229 -1.60682 -0.0836374 0
M  V30 5073 O 489.421 -1.76541 0.127322 0
M  V30 5074 C 486.55 -3.38861 0.550313 0
M  V30 5075 C 485.636 -3.9128 1.63587 0
M  V30 5076 N 486.027 -4.16884 2.86429 0
M  V30 5077 C 484.325 -4.1972 1.50834 0
M  V30 5078 C 485.026 -4.5954 3.56648 0
M  V30 5079 N 484.002 -4.63434 2.84131 0
M  V30 5080 H 487.804 -2.24219 1.90008 0
M  V30 5081 H 485.318 -1.17153 1.12467 0
M  V30 5082 H 487.315 -4.15465 0.345612 0
M  V30 5083 H 485.975 -3.22518 -0.375822 0
M  V30 5084 H 486.986 -4.04976 3.22823 0
M  V30 5085 H 483.663 -4.1243 0.648643 0
M  V30 5086 H 485.053 -4.87944 4.61909 0
M  V30 5087 N 487.773 -1.03688 -1.18687 0
M  V30 5088 C 488.683 -0.634908 -2.25845 0
M  V30 5089 C 489.699 0.337065 -1.70704 0
M  V30 5090 O 490.875 0.192943 -2.00474 0
M  V30 5091 C 487.94 -0.000180054 -3.467 0
M  V30 5092 C 487.001 -1.02067 -4.1699 0
M  V30 5093 C 486.234 -0.41614 -5.32075 0
M  V30 5094 O 486.457 0.778712 -5.65059 0
M  V30 5095 O 485.391 -1.14296 -5.90948 0
M  V30 5096 H 489.217 -1.52757 -2.62486 0
M  V30 5097 H 486.802 -0.807533 -1.25695 0
M  V30 5098 H 488.684 0.353342 -4.19916 0
M  V30 5099 H 487.359 0.866367 -3.11891 0
M  V30 5100 H 486.266 -1.42592 -3.45859 0
M  V30 5101 H 487.599 -1.85786 -4.5579 0
M  V30 5102 N 489.251 1.34841 -0.815825 0
M  V30 5103 C 490.497 1.98793 -0.401129 0
M  V30 5104 C 490.83 1.64548 1.03139 0
M  V30 5105 O 490.105 0.913487 1.71714 0
M  V30 5106 C 490.388 3.55143 -0.595409 0
M  V30 5107 C 490.241 3.99155 -2.07352 0
M  V30 5108 C 491.56 4.40092 -0.0268823 0
M  V30 5109 H 488.679 0.722146 -0.14722 0
M  V30 5110 H 491.321 1.59847 -1.02707 0
M  V30 5111 H 489.471 3.8845 -0.0625779 0
M  V30 5112 H 491.143 3.76216 -2.66945 0
M  V30 5113 H 489.386 3.49726 -2.56659 0
M  V30 5114 H 490.057 5.07971 -2.1603 0
M  V30 5115 H 492.533 4.13298 -0.482042 0
M  V30 5116 H 491.409 5.48562 -0.19267 0
M  V30 5117 H 491.67 4.29016 1.06759 0
M  V30 5118 N 490.729 0.570148 1.46925 0
M  V30 5119 C 491.676 -0.170257 2.30171 0
M  V30 5120 C 492.646 -0.896099 1.39855 0
M  V30 5121 O 493.831 -0.889248 1.68811 0
M  V30 5122 C 490.971 -1.18605 3.24079 0
M  V30 5123 C 490.084 -0.464947 4.29491 0
M  V30 5124 C 489.219 -1.46716 5.10537 0
M  V30 5125 C 488.258 -0.731758 6.0771 0
M  V30 5126 N 487.395 -1.68142 6.81669 0
M  V30 5127 H 492.235 0.545713 2.92961 0
M  V30 5128 H 489.772 0.280938 1.44392 0
M  V30 5129 H 491.73 -1.78771 3.76957 0
M  V30 5130 H 490.36 -1.86989 2.63125 0
M  V30 5131 H 489.412 0.251506 3.79568 0
M  V30 5132 H 490.724 0.110548 4.98677 0
M  V30 5133 H 489.878 -2.14199 5.6763 0
M  V30 5134 H 488.617 -2.07658 4.41282 0
M  V30 5135 H 487.622 -0.0430787 5.49783 0
M  V30 5136 H 488.847 -0.127904 6.7898 0
M  V30 5137 H 486.793 -2.27918 6.15134 0
M  V30 5138 H 486.71 -1.15841 7.47072 0
M  V30 5139 H 487.978 -2.347 7.43328 0
M  V30 5140 N 492.207 -1.54576 0.307264 0
M  V30 5141 C 493.157 -2.20467 -0.581249 0
M  V30 5142 C 494.141 -1.17972 -1.09414 0
M  V30 5143 O 495.333 -1.43667 -1.03387 0
M  V30 5144 C 492.462 -2.95369 -1.74963 0
M  V30 5145 C 491.548 -4.05186 -1.25241 0
M  V30 5146 N 491.939 -5.03577 -0.47364 0
M  V30 5147 C 490.237 -4.18841 -1.53259 0
M  V30 5148 C 490.938 -5.81328 -0.208083 0
M  V30 5149 N 489.914 -5.37834 -0.789651 0
M  V30 5150 H 493.716 -2.93892 0.0212221 0
M  V30 5151 H 491.23 -1.62011 0.112325 0
M  V30 5152 H 493.227 -3.41046 -2.39777 0
M  V30 5153 H 491.887 -2.23461 -2.35574 0
M  V30 5154 H 492.898 -5.17766 -0.117963 0
M  V30 5155 H 489.575 -3.58141 -2.14573 0
M  V30 5156 H 490.965 -6.706 0.417793 0
M  V30 5157 N 493.685 -0.035106 -1.57561 0
M  V30 5158 C 494.932 0.642229 -1.92046 0
M  V30 5159 C 495.26 1.7179 -0.91206 0
M  V30 5160 O 494.515 1.95544 0.0781153 0
M  V30 5161 C 494.814 1.29149 -3.3325 0
M  V30 5162 C 494.48 0.345604 -4.49574 0
M  V30 5163 C 493.142 0.0852775 -4.81124 0
M  V30 5164 C 495.494 -0.303569 -5.20315 0
M  V30 5165 C 492.822 -0.831927 -5.80772 0
M  V30 5166 C 495.174 -1.20886 -6.20942 0
M  V30 5167 C 493.838 -1.47802 -6.50931 0
M  V30 5168 H 493.108 0.235008 -0.702746 0
M  V30 5169 H 495.755 -0.0981529 -1.91248 0
M  V30 5170 H 494.06 2.10676 -3.30337 0
M  V30 5171 H 495.757 1.82223 -3.57205 0
M  V30 5172 H 492.347 0.558683 -4.24943 0
M  V30 5173 H 496.531 -0.115515 -4.96166 0
M  V30 5174 H 491.787 -1.0481 -6.02349 0
M  V30 5175 H 495.961 -1.71804 -6.74875 0
M  V30 5176 H 493.588 -2.19039 -7.2796 0
M  V30 5177 N 495.163 1.55791 0.238111 0
M  V30 5178 C 496.409 1.78297 0.966337 0
M  V30 5179 C 496.742 0.601903 1.84637 0
M  V30 5180 O 496.017 -0.399499 1.90353 0
M  V30 5181 C 496.3 3.10758 1.81939 0
M  V30 5182 C 496.153 4.39283 0.966958 0
M  V30 5183 C 497.472 3.39519 2.80027 0
M  V30 5184 H 494.591 0.648654 0.349882 0
M  V30 5185 H 497.233 1.88525 0.236253 0
M  V30 5186 H 495.383 3.02168 2.44185 0
M  V30 5187 H 497.055 4.59873 0.362514 0
M  V30 5188 H 495.298 4.32948 0.271669 0
M  V30 5189 H 495.969 5.28368 1.59784 0
M  V30 5190 H 498.445 3.48128 2.27917 0
M  V30 5191 H 497.321 4.33402 3.36829 0
M  V30 5192 H 497.582 2.60864 3.56934 0
M  V30 5193 N 496.642 -0.504142 1.49319 0
M  V30 5194 C 497.888 -1.26033 1.58882 0
M  V30 5195 C 498.221 -1.92268 0.273274 0
M  V30 5196 O 497.496 -1.80567 -0.72291 0
M  V30 5197 C 497.779 -2.32976 2.7458 0
M  V30 5198 C 497.632 -1.71263 4.1592 0
M  V30 5199 C 498.951 -3.34561 2.85932 0
M  V30 5200 H 496.07 -0.456863 0.578312 0
M  V30 5201 H 498.712 -0.558965 1.81592 0
M  V30 5202 H 496.862 -2.92796 2.55348 0
M  V30 5203 H 498.534 -1.15294 4.4666 0
M  V30 5204 H 496.777 -1.01686 4.21714 0
M  V30 5205 H 497.448 -2.48816 4.92742 0
M  V30 5206 H 499.924 -2.84727 3.0343 0
M  V30 5207 H 498.8 -4.06754 3.68568 0
M  V30 5208 H 499.061 -3.96695 1.95154 0
M  V30 5209 N 498.12 -1.38341 -0.754957 0
M  V30 5210 C 499.03 -1.3769 -1.89944 0
M  V30 5211 C 500.046 -0.274194 -1.71826 0
M  V30 5212 O 501.222 -0.512391 -1.94773 0
M  V30 5213 C 498.287 -1.19938 -3.25293 0
M  V30 5214 C 497.348 -2.40001 -3.55946 0
M  V30 5215 C 496.581 -2.23087 -4.84838 0
M  V30 5216 O 496.804 -1.22386 -5.57116 0
M  V30 5217 O 495.738 -3.11646 -5.14937 0
M  V30 5218 H 499.564 -2.3412 -1.93446 0
M  V30 5219 H 497.149 -1.19246 -0.900044 0
M  V30 5220 H 499.031 -1.12093 -4.06218 0
M  V30 5221 H 497.706 -0.265919 -3.22606 0
M  V30 5222 H 496.613 -2.53421 -2.75188 0
M  V30 5223 H 497.946 -3.31973 -3.63394 0
M  V30 5224 N 499.598 0.982988 -1.23187 0
M  V30 5225 C 500.844 1.72648 -1.06398 0
M  V30 5226 C 501.177 1.90066 0.398561 0
M  V30 5227 O 500.452 1.45105 1.29518 0
M  V30 5228 C 500.735 3.12627 -1.78707 0
M  V30 5229 C 500.588 3.02795 -3.32618 0
M  V30 5230 C 501.907 4.11997 -1.54747 0
M  V30 5231 H 499.026 0.626649 -0.387918 0
M  V30 5232 H 501.668 1.14455 -1.51658 0
M  V30 5233 H 499.818 3.62308 -1.40234 0
M  V30 5234 H 501.49 2.60659 -3.80598 0
M  V30 5235 H 499.733 2.39362 -3.61785 0
M  V30 5236 H 500.404 4.01893 -3.78399 0
M  V30 5237 H 502.88 3.71114 -1.88186 0
M  V30 5238 H 501.756 5.08037 -2.07821 0
M  V30 5239 H 502.017 4.39462 -0.482249 0
M  V30 5240 N 501.076 1.04316 1.18135 0
M  V30 5241 C 502.492 0.762858 1.40188 0
M  V30 5242 C 502.692 -0.646547 1.90846 0
M  V30 5243 O 501.748 -1.41036 2.0944 0
M  V30 5244 C 503.061 1.81106 2.40044 0
M  V30 5245 C 504.609 1.83226 2.53766 0
M  V30 5246 C 505.084 2.87044 3.56889 0
M  V30 5247 N 506.575 2.85951 3.64398 0
M  V30 5248 C 507.31 3.62932 4.43923 0
M  V30 5249 N 506.806 4.49672 5.27036 0
M  V30 5250 N 508.599 3.51411 4.38711 0
M  V30 5251 H 500.75 1.95264 0.835805 0
M  V30 5252 H 503.013 0.845017 0.429709 0
M  V30 5253 H 502.719 2.82214 2.09876 0
M  V30 5254 H 502.593 1.64529 3.39426 0
M  V30 5255 H 504.98 0.827869 2.8325 0
M  V30 5256 H 505.061 2.03879 1.54489 0
M  V30 5257 H 504.705 3.87663 3.28145 0
M  V30 5258 H 504.635 2.63645 4.5585 0
M  V30 5259 H 507.126 2.23051 3.05052 0
M  V30 5260 H 507.439 5.05116 5.84874 0
M  V30 5261 H 505.784 4.53738 5.26447 0
M  V30 5262 H 508.975 2.83047 3.72829 0
M  V30 5263 H 509.148 4.11654 5.00445 0
M  V30 5264 N 502.554 -1.34406 0.822964 0
M  V30 5265 C 503.517 -2.2783 0.250271 0
M  V30 5266 C 504.517 -1.50288 -0.571854 0
M  V30 5267 O 505.707 -1.69825 -0.387952 0
M  V30 5268 C 502.839 -3.34663 -0.649137 0
M  V30 5269 H 504.032 -2.79992 1.07444 0
M  V30 5270 H 501.585 -1.44539 0.594829 0
M  V30 5271 H 502.32 -2.87714 -1.49637 0
M  V30 5272 H 502.105 -3.92052 -0.0611199 0
M  V30 5273 H 503.595 -4.04349 -1.04363 0
M  V30 5274 N 504.032 -0.577932 -1.46621 0
M  V30 5275 C 505.262 -0.0670668 -2.06491 0
M  V30 5276 C 505.67 1.24119 -1.42798 0
M  V30 5277 O 505.013 1.76016 -0.525759 0
M  V30 5278 C 505.075 0.177995 -3.59059 0
M  V30 5279 C 504.739 -1.04394 -4.44917 0
M  V30 5280 C 505.736 -1.95479 -4.81751 0
M  V30 5281 C 503.421 -1.26444 -4.86125 0
M  V30 5282 C 505.415 -3.06965 -5.58615 0
M  V30 5283 C 503.102 -2.38237 -5.62749 0
M  V30 5284 C 504.1 -3.28327 -5.98908 0
M  V30 5285 O 503.788 -4.38179 -6.73984 0
M  V30 5286 H 503.52 -0.0523159 -0.673973 0
M  V30 5287 H 506.074 -0.796966 -1.89308 0
M  V30 5288 H 504.304 0.962451 -3.74531 0
M  V30 5289 H 505.993 0.636782 -4.00874 0
M  V30 5290 H 506.759 -1.79657 -4.50498 0
M  V30 5291 H 502.638 -0.572316 -4.57434 0
M  V30 5292 H 506.182 -3.77309 -5.86757 0
M  V30 5293 H 502.079 -2.54023 -5.93416 0
M  V30 5294 H 502.847 -4.36486 -6.92403 0
M  V30 5295 N 505.51 1.54411 -0.315457 0
M  V30 5296 C 506.921 1.85885 0.174265 0
M  V30 5297 C 507.272 1.23723 1.52273 0
M  V30 5298 O 506.397 0.540246 2.09548 0
M  V30 5299 C 506.992 3.37257 0.322981 0
M  V30 5300 C 505.551 3.68711 0.756922 0
M  V30 5301 C 504.698 2.77013 -0.126195 0
M  V30 5302 H 507.649 1.49374 -0.536007 0
M  V30 5303 H 507.67 3.62539 1.15522 0
M  V30 5304 H 507.182 3.82471 -0.658602 0
M  V30 5305 H 505.283 3.29024 1.74854 0
M  V30 5306 H 505.396 4.75741 0.566291 0
M  V30 5307 H 503.76 2.51588 0.39692 0
M  V30 5308 H 504.543 3.25051 -1.1044 0
M  V30 5309 N 506.988 0.0434614 1.5754 0
M  V30 5310 C 508.399 -0.493343 1.80064 0
M  V30 5311 C 508.75 -1.71388 0.955023 0
M  V30 5312 O 507.875 -2.15736 0.169434 0
M  V30 5313 C 508.47 -0.90179 3.26578 0
M  V30 5314 C 507.029 -1.38362 3.50047 0
M  V30 5315 C 506.176 -0.355129 2.75017 0
M  V30 5316 H 509.127 0.2694 1.56397 0
M  V30 5317 H 509.148 -1.76523 3.37075 0
M  V30 5318 H 508.66 -0.013271 3.88098 0
M  V30 5319 H 506.761 -2.29159 2.93798 0
M  V30 5320 H 506.874 -1.3811 4.58762 0
M  V30 5321 H 505.238 -0.826348 2.40922 0
M  V30 5322 H 506.021 0.525172 3.39259 0
M  V30 5323 N 508.466 -1.55915 -0.229846 0
M  V30 5324 C 509.877 -1.68809 -0.797531 0
M  V30 5325 C 510.228 -0.643995 -1.8533 0
M  V30 5326 O 509.353 0.206492 -2.15413 0
M  V30 5327 C 509.948 -3.06043 -1.45338 0
M  V30 5328 C 508.507 -3.20819 -1.96856 0
M  V30 5329 C 507.654 -2.6472 -0.825736 0
M  V30 5330 H 510.605 -1.58699 -0.00533733 0
M  V30 5331 H 510.626 -3.01438 -2.32196 0
M  V30 5332 H 510.138 -3.82012 -0.684743 0
M  V30 5333 H 508.239 -2.49704 -2.76548 0
M  V30 5334 H 508.352 -4.27937 -2.15423 0
M  V30 5335 H 506.716 -2.22985 -1.23084 0
M  V30 5336 H 507.499 -3.43229 -0.0699019 0
M  V30 5337 N 509.944 0.496216 -1.49584 0
M  V30 5338 C 511.36 0.827814 -1.36453 0
M  V30 5339 C 511.56 1.97464 -0.401285 0
M  V30 5340 O 510.616 2.51958 0.165296 0
M  V30 5341 C 511.929 1.16352 -2.77277 0
M  V30 5342 C 513.477 1.27145 -2.86013 0
M  V30 5343 C 513.952 1.64042 -4.27615 0
M  V30 5344 N 515.443 1.71082 -4.30448 0
M  V30 5345 C 516.178 2.01085 -5.36984 0
M  V30 5346 N 515.674 2.2928 -6.5376 0
M  V30 5347 N 517.467 2.02376 -5.24405 0
M  V30 5348 H 509.618 -0.259947 -2.10803 0
M  V30 5349 H 511.881 -0.0537163 -0.946477 0
M  V30 5350 H 511.587 0.394153 -3.49484 0
M  V30 5351 H 511.461 2.10582 -3.12946 0
M  V30 5352 H 513.848 2.03152 -2.1404 0
M  V30 5353 H 513.929 0.309542 -2.5392 0
M  V30 5354 H 513.573 0.88583 -5.00115 0
M  V30 5355 H 513.503 2.6134 -4.57175 0
M  V30 5356 H 515.994 1.51434 -3.46232 0
M  V30 5357 H 516.307 2.51376 -7.30774 0
M  V30 5358 H 514.652 2.26726 -6.56978 0
M  V30 5359 H 517.843 1.79829 -4.32179 0
M  V30 5360 H 518.016 2.25425 -6.07526 0
M  V30 5361 N 511.423 1.38739 0.74761 0
M  V30 5362 C 512.672 1.3459 1.50228 0
M  V30 5363 C 512.985 -0.0595592 1.95509 0
M  V30 5364 O 514.191 -0.22361 2.70578 0
M  V30 5365 C 512.647 2.36377 2.71393 0
M  V30 5366 C 512.255 3.82573 2.33113 0
M  V30 5367 C 513.999 2.41281 3.49262 0
M  V30 5368 C 511.906 4.76032 3.50924 0
M  V30 5369 H 510.836 0.500312 0.564096 0
M  V30 5370 H 513.487 1.64324 0.8167 0
M  V30 5371 H 511.869 1.99694 3.41962 0
M  V30 5372 H 513.043 4.28227 1.70171 0
M  V30 5373 H 511.358 3.80844 1.68365 0
M  V30 5374 H 513.955 3.08301 4.36869 0
M  V30 5375 H 514.298 1.43353 3.9084 0
M  V30 5376 H 514.831 2.76793 2.85711 0
M  V30 5377 H 511.57 5.75177 3.14408 0
M  V30 5378 H 511.09 4.35066 4.12889 0
M  V30 5379 H 512.769 4.94331 4.17427 0
M  V30 5380 N 512.901 -0.976442 1.23707 0
M  V30 5381 C 514.126 -1.75875 1.09922 0
M  V30 5382 C 514.551 -1.84911 -0.34489 0
M  V30 5383 O 513.909 -1.31363 -1.24954 0
M  V30 5384 C 513.957 -3.16179 1.73388 0
M  V30 5385 O 513.061 -4.00124 0.99871 0
M  V30 5386 H 512.402 -0.540954 0.385052 0
M  V30 5387 H 514.932 -1.22546 1.6384 0
M  V30 5388 H 514.942 -3.66741 1.78788 0
M  V30 5389 H 513.617 -3.08917 2.78466 0
M  V30 5390 H 512.194 -3.58624 1.02193 0
M  V30 5391 N 514.379 -1.04941 -1.1758 0
M  V30 5392 C 515.625 -0.768896 -1.88307 0
M  V30 5393 C 515.98 0.696361 -1.79356 0
M  V30 5394 O 515.273 1.50245 -1.18899 0
M  V30 5395 C 515.467 -1.18062 -3.37337 0
M  V30 5396 C 515.296 -2.68436 -3.60794 0
M  V30 5397 C 514.066 -3.35709 -3.77661 0
M  V30 5398 C 516.264 -3.66657 -3.60649 0
M  V30 5399 N 514.246 -4.74974 -3.88939 0
M  V30 5400 C 515.617 -4.91638 -3.77747 0
M  V30 5401 C 517.672 -3.60162 -3.43785 0
M  V30 5402 C 516.375 -6.10902 -3.79726 0
M  V30 5403 C 518.401 -4.78863 -3.47051 0
M  V30 5404 C 517.763 -6.02666 -3.64654 0
M  V30 5405 H 513.862 -0.33355 -0.707296 0
M  V30 5406 H 516.446 -1.34085 -1.41171 0
M  V30 5407 H 514.617 -0.636648 -3.83147 0
M  V30 5408 H 516.349 -0.8502 -3.95669 0
M  V30 5409 H 513.104 -2.8611 -3.77409 0
M  V30 5410 H 513.528 -5.47378 -3.98379 0
M  V30 5411 H 518.17 -2.65412 -3.29114 0
M  V30 5412 H 515.888 -7.05998 -3.93182 0
M  V30 5413 H 519.474 -4.75488 -3.35265 0
M  V30 5414 H 518.354 -6.92979 -3.67083 0
M  V30 5415 N 515.857 1.33968 -0.830081 0
M  V30 5416 C 516.787 2.31911 -0.271911 0
M  V30 5417 C 517.768 1.58571 0.61556 0
M  V30 5418 O 518.953 1.86514 0.540946 0
M  V30 5419 C 516.083 3.42737 0.561146 0
M  V30 5420 C 515.037 4.27383 -0.229789 0
M  V30 5421 C 514.363 5.29742 0.726463 0
M  V30 5422 C 515.663 5.02 -1.44197 0
M  V30 5423 H 517.357 2.78844 -1.09025 0
M  V30 5424 H 514.903 1.34061 -0.52571 0
M  V30 5425 H 516.856 4.10276 0.961867 0
M  V30 5426 H 515.58 2.94471 1.41261 0
M  V30 5427 H 514.239 3.61456 -0.611964 0
M  V30 5428 H 513.887 4.77736 1.57408 0
M  V30 5429 H 513.587 5.87255 0.20142 0
M  V30 5430 H 515.111 6.00149 1.12489 0
M  V30 5431 H 516.525 5.62355 -1.11488 0
M  V30 5432 H 514.922 5.69122 -1.90317 0
M  V30 5433 H 515.992 4.31281 -2.2164 0
M  V30 5434 N 517.335 0.585699 1.46312 0
M  V30 5435 C 518.282 -0.145835 2.30339 0
M  V30 5436 C 519.252 -0.881215 1.40797 0
M  V30 5437 O 520.437 -0.871293 1.69744 0
M  V30 5438 C 517.577 -1.15161 3.25318 0
M  V30 5439 C 516.69 -0.419367 4.2996 0
M  V30 5440 C 515.825 -1.41293 5.12064 0
M  V30 5441 C 514.864 -0.667261 6.08452 0
M  V30 5442 N 514.001 -1.60903 6.83414 0
M  V30 5443 H 518.841 0.576755 2.92365 0
M  V30 5444 H 516.378 0.296237 1.44086 0
M  V30 5445 H 518.336 -1.74763 3.78832 0
M  V30 5446 H 516.966 -1.84188 2.65094 0
M  V30 5447 H 516.018 0.291751 3.7928 0
M  V30 5448 H 517.33 0.163433 4.98532 0
M  V30 5449 H 516.484 -2.08167 5.6987 0
M  V30 5450 H 515.223 -2.02966 4.43459 0
M  V30 5451 H 514.228 0.0152356 5.49798 0
M  V30 5452 H 515.453 -0.0558817 6.79077 0
M  V30 5453 H 513.399 -2.21381 6.17516 0
M  V30 5454 H 513.316 -1.07911 7.48259 0
M  V30 5455 H 514.584 -2.26802 7.45775 0
M  V30 5456 N 518.813 -1.54241 0.323641 0
M  V30 5457 C 519.761 -2.25813 -0.557804 0
M  V30 5458 C 520.755 -1.27225 -1.11849 0
M  V30 5459 O 521.961 -1.45001 -1.06652 0
M  V30 5460 H 518.336 -0.72532 -0.198532 0
M  V30 5461 H 520.307 -2.98322 0.0681112 0
M  V30 5462 C 519.056 -3.02913 -1.70701 0
M  V30 5463 H 518.379 -3.78593 -1.28482 0
M  V30 5464 H 519.819 -3.56238 -2.29935 0
M  V30 5465 C 518.278 -2.11217 -2.62467 0
M  V30 5466 O 518.808 -1.69508 -3.64184 0
M  V30 5467 N 517.014 -1.76704 -2.30703 0
M  V30 5468 H 516.561 -2.1082 -1.48029 0
M  V30 5469 H 516.519 -1.15631 -2.92364 0
M  V30 5470 N 520.291 -0.0518155 -1.57515 0
M  V30 5471 C 521.239 0.940195 -2.12751 0
M  V30 5472 C 522.233 1.3218 -1.05948 0
M  V30 5473 O 523.439 1.30138 -1.24355 0
M  V30 5474 H 519.814 0.321066 -0.680015 0
M  V30 5475 H 521.785 0.449217 -2.94999 0
M  V30 5476 C 520.534 2.2055 -2.68799 0
M  V30 5477 H 519.857 1.92066 -3.50643 0
M  V30 5478 H 521.297 2.88119 -3.11068 0
M  V30 5479 C 519.756 2.95061 -1.62605 0
M  V30 5480 O 520.286 3.88025 -1.03921 0
M  V30 5481 N 518.492 2.57804 -1.34111 0
M  V30 5482 H 518.039 1.82281 -1.8202 0
M  V30 5483 H 517.997 3.07964 -0.632872 0
M  V30 5484 N 521.769 1.56035 0.221574 0
M  V30 5485 C 522.699 1.95434 1.2778 0
M  V30 5486 C 523.68 0.822564 1.48889 0
M  V30 5487 O 524.865 1.08486 1.61072 0
M  V30 5488 C 521.995 2.27102 2.62759 0
M  V30 5489 C 520.949 3.4277 2.56306 0
M  V30 5490 C 520.275 3.60043 3.95314 0
M  V30 5491 C 521.575 4.77742 2.11093 0
M  V30 5492 H 523.269 2.83912 0.950504 0
M  V30 5493 H 520.815 1.36596 0.455791 0
M  V30 5494 H 522.768 2.53256 3.36807 0
M  V30 5495 H 521.492 1.35478 2.97176 0
M  V30 5496 H 520.151 3.16664 1.84715 0
M  V30 5497 H 519.799 2.65794 4.27039 0
M  V30 5498 H 519.499 4.37841 3.91879 0
M  V30 5499 H 521.023 3.88545 4.71025 0
M  V30 5500 H 522.437 5.03102 2.74885 0
M  V30 5501 H 520.834 5.58823 2.18716 0
M  V30 5502 H 521.904 4.731 1.06321 0
M  V30 5503 N 523.247 -0.488276 1.49845 0
M  V30 5504 C 524.475 -1.26527 1.63702 0
M  V30 5505 C 524.89 -1.8618 0.313447 0
M  V30 5506 O 524.247 -1.68432 -0.702624 0
M  V30 5507 C 524.298 -2.3864 2.71538 0
M  V30 5508 O 524.019 -1.81437 3.98763 0
M  V30 5509 C 525.52 -3.29805 2.96215 0
M  V30 5510 H 522.74 -0.383295 0.55075 0
M  V30 5511 H 525.284 -0.584779 1.95961 0
M  V30 5512 H 523.439 -3.02496 2.42023 0
M  V30 5513 H 523.853 -2.55135 4.58265 0
M  V30 5514 H 525.327 -4.04722 3.75372 0
M  V30 5515 H 525.804 -3.87563 2.06619 0
M  V30 5516 H 526.41 -2.71703 3.27196 0
M  V30 5517 N 524.725 -1.39134 -0.740242 0
M  V30 5518 C 525.655 -1.40165 -1.86751 0
M  V30 5519 C 526.636 -0.265708 -1.68012 0
M  V30 5520 O 527.821 -0.47076 -1.88408 0
M  V30 5521 C 524.951 -1.2392 -3.2444 0
M  V30 5522 C 523.905 -2.34858 -3.57807 0
M  V30 5523 C 523.231 -2.03707 -4.94376 0
M  V30 5524 C 524.531 -3.77159 -3.61315 0
M  V30 5525 H 526.225 -2.345 -1.86145 0
M  V30 5526 H 523.771 -1.12875 -0.89416 0
M  V30 5527 H 525.724 -1.23263 -4.02969 0
M  V30 5528 H 524.448 -0.26051 -3.25559 0
M  V30 5529 H 523.107 -2.34723 -2.81604 0
M  V30 5530 H 522.755 -1.04289 -4.9207 0
M  V30 5531 H 522.455 -2.78016 -5.17669 0
M  V30 5532 H 523.979 -2.04691 -5.75268 0
M  V30 5533 H 525.393 -3.79252 -4.29931 0
M  V30 5534 H 523.79 -4.50784 -3.96124 0
M  V30 5535 H 524.86 -4.08513 -2.61238 0
M  V30 5536 N 526.204 0.969867 -1.24223 0
M  V30 5537 C 527.453 1.70687 -1.07466 0
M  V30 5538 C 527.766 1.91736 0.386861 0
M  V30 5539 O 528.972 2.62986 0.674581 0
M  V30 5540 C 527.428 3.07217 -1.87472 0
M  V30 5541 C 527.036 2.94018 -3.3802 0
M  V30 5542 C 528.78 3.84804 -1.79237 0
M  V30 5543 C 526.687 4.25844 -4.10379 0
M  V30 5544 H 525.617 0.640067 -0.398536 0
M  V30 5545 H 528.268 1.08092 -1.48285 0
M  V30 5546 H 526.65 3.70628 -1.39466 0
M  V30 5547 H 527.824 2.39632 -3.9359 0
M  V30 5548 H 526.139 2.29898 -3.47183 0
M  V30 5549 H 528.736 4.82417 -2.30603 0
M  V30 5550 H 529.079 4.09356 -0.757197 0
M  V30 5551 H 529.612 3.28115 -2.24912 0
M  V30 5552 H 526.351 4.06486 -5.14246 0
M  V30 5553 H 525.871 4.80054 -3.59594 0
M  V30 5554 H 527.55 4.94475 -4.17257 0
M  V30 5555 N 527.682 1.05563 1.17022 0
M  V30 5556 C 528.592 0.670758 2.24807 0
M  V30 5557 C 529.608 -0.309865 1.71219 0
M  V30 5558 O 530.784 -0.161025 2.00755 0
M  V30 5559 C 527.849 0.055337 3.46656 0
M  V30 5560 C 526.91 1.08688 4.15314 0
M  V30 5561 C 526.143 0.500736 5.31346 0
M  V30 5562 O 526.366 -0.688718 5.66227 0
M  V30 5563 O 525.3 1.23683 5.89055 0
M  V30 5564 H 529.126 1.56914 2.60023 0
M  V30 5565 H 526.711 0.827428 1.24395 0
M  V30 5566 H 528.593 -0.286492 4.20425 0
M  V30 5567 H 527.268 -0.816638 3.13229 0
M  V30 5568 H 526.175 1.48077 3.43546 0
M  V30 5569 H 527.508 1.93014 4.52777 0
M  V30 5570 N 529.16 -1.33526 0.837174 0
M  V30 5571 C 530.108 -2.31168 0.257698 0
M  V30 5572 C 531.102 -1.5806 -0.609388 0
M  V30 5573 O 532.308 -1.72941 -0.499139 0
M  V30 5574 H 528.683 -0.74922 0.0646058 0
M  V30 5575 H 530.654 -2.77552 1.09578 0
M  V30 5576 C 529.403 -3.4326 -0.553887 0
M  V30 5577 H 528.726 -3.99665 0.104008 0
M  V30 5578 H 530.166 -4.13782 -0.925219 0
M  V30 5579 C 528.625 -2.88965 -1.73207 0
M  V30 5580 O 529.155 -2.85013 -2.83073 0
M  V30 5581 N 527.361 -2.45596 -1.55342 0
M  V30 5582 H 526.908 -2.49009 -0.659705 0
M  V30 5583 H 526.866 -2.0962 -2.34322 0
M  V30 5584 N 530.638 -0.59345 -1.46 0
M  V30 5585 C 531.568 0.121192 -2.33185 0
M  V30 5586 C 532.549 0.872977 -1.4599 0
M  V30 5587 O 533.734 0.846321 -1.74789 0
M  V30 5588 C 530.864 1.12844 -3.28456 0
M  V30 5589 C 529.818 0.4908 -4.25177 0
M  V30 5590 C 529.144 1.60529 -5.10034 0
M  V30 5591 C 530.444 -0.578949 -5.19081 0
M  V30 5592 H 532.138 -0.606767 -2.93187 0
M  V30 5593 H 529.684 -0.293242 -1.40983 0
M  V30 5594 H 531.637 1.63684 -3.88311 0
M  V30 5595 H 530.361 1.88681 -2.66584 0
M  V30 5596 H 529.02 0.00339328 -3.666 0
M  V30 5597 H 528.668 2.35359 -4.44539 0
M  V30 5598 H 528.368 1.18422 -5.75543 0
M  V30 5599 H 529.892 2.11623 -5.72755 0
M  V30 5600 H 531.306 -0.155199 -5.7309 0
M  V30 5601 H 529.703 -0.920947 -5.92991 0
M  V30 5602 H 530.773 -1.46109 -4.62364 0
M  V30 5603 N 532.116 1.54067 -0.331816 0
M  V30 5604 C 533.344 2.05131 0.269996 0
M  V30 5605 C 533.759 1.20749 1.45138 0
M  V30 5606 O 533.116 0.240069 1.80914 0
M  V30 5607 C 533.167 3.54728 0.696456 0
M  V30 5608 O 532.888 4.35906 -0.43794 0
M  V30 5609 C 534.389 4.21916 1.36021 0
M  V30 5610 H 531.609 0.668807 0.0542042 0
M  V30 5611 H 534.153 1.98777 -0.4804 0
M  V30 5612 H 532.308 3.61342 1.39681 0
M  V30 5613 H 532.722 5.24404 -0.100334 0
M  V30 5614 H 534.196 5.28015 1.60947 0
M  V30 5615 H 534.673 3.73538 2.31011 0
M  V30 5616 H 535.279 4.19463 0.702212 0
M  V30 5617 N 533.594 0.0601682 1.57485 0
M  V30 5618 C 534.504 -0.926121 2.15546 0
M  V30 5619 C 535.52 -1.33532 1.11558 0
M  V30 5620 O 536.696 -1.4104 1.4377 0
M  V30 5621 C 533.761 -2.17952 2.69625 0
M  V30 5622 C 532.822 -1.82783 3.88444 0
M  V30 5623 C 532.055 -3.02148 4.39935 0
M  V30 5624 O 532.278 -4.15803 3.90466 0
M  V30 5625 O 531.212 -2.82639 5.31412 0
M  V30 5626 H 535.038 -0.462289 3.00161 0
M  V30 5627 H 532.623 -0.162246 1.48516 0
M  V30 5628 H 534.505 -2.91474 3.04337 0
M  V30 5629 H 533.18 -2.63456 1.88077 0
M  V30 5630 H 532.087 -1.06549 3.58606 0
M  V30 5631 H 533.42 -1.42072 4.7125 0
M  V30 5632 N 535.072 -1.5615 -0.213296 0
M  V30 5633 C 536.321 -1.78743 -0.93455 0
M  V30 5634 C 536.634 -0.630199 -1.8517 0
M  V30 5635 O 537.84 -0.739966 -2.61222 0
M  V30 5636 C 536.296 -3.16571 -1.71203 0
M  V30 5637 C 535.904 -4.40043 -0.840617 0
M  V30 5638 C 537.648 -3.48485 -2.42401 0
M  V30 5639 C 535.555 -5.68895 -1.61592 0
M  V30 5640 H 534.485 -0.666426 -0.352692 0
M  V30 5641 H 537.136 -1.82532 -0.188227 0
M  V30 5642 H 535.518 -3.06981 -2.50157 0
M  V30 5643 H 536.692 -4.6071 -0.0910326 0
M  V30 5644 H 535.007 -4.15706 -0.240365 0
M  V30 5645 H 537.604 -4.41983 -3.00924 0
M  V30 5646 H 537.947 -2.71371 -3.15695 0
M  V30 5647 H 538.48 -3.59442 -1.7043 0
M  V30 5648 H 535.219 -6.48925 -0.926106 0
M  V30 5649 H 534.739 -5.52275 -2.33991 0
M  V30 5650 H 536.418 -6.09365 -2.17447 0
M  V30 5651 N 536.55 0.480323 -1.50102 0
M  V30 5652 C 537.778 1.25657 -1.64371 0
M  V30 5653 C 538.193 1.86011 -0.323316 0
M  V30 5654 O 537.55 1.68803 0.693682 0
M  V30 5655 C 537.601 2.37197 -2.728 0
M  V30 5656 O 537.322 1.7932 -3.9972 0
M  V30 5657 C 538.823 3.2823 -2.9796 0
M  V30 5658 H 536.043 0.380369 -0.552775 0
M  V30 5659 H 538.587 0.574379 -1.96268 0
M  V30 5660 H 536.742 3.01208 -2.43623 0
M  V30 5661 H 537.156 2.52701 -4.59611 0
M  V30 5662 H 538.63 4.02725 -3.77513 0
M  V30 5663 H 539.107 3.86462 -2.08671 0
M  V30 5664 H 539.713 2.69964 -3.28633 0
M  V30 5665 N 538.028 1.39524 0.732853 0
M  V30 5666 C 539.256 1.40143 1.52209 0
M  V30 5667 C 539.671 -0.00348836 1.888 0
M  V30 5668 O 539.028 -0.975357 1.5425 0
M  V30 5669 C 539.079 2.27632 2.8083 0
M  V30 5670 O 538.8 3.62654 2.45792 0
M  V30 5671 C 540.301 2.36658 3.74844 0
M  V30 5672 H 537.521 0.478604 0.470297 0
M  V30 5673 H 540.065 1.83366 0.905388 0
M  V30 5674 H 538.22 1.87818 3.38826 0
M  V30 5675 H 538.634 4.08941 3.28431 0
M  V30 5676 H 540.108 3.02118 4.61984 0
M  V30 5677 H 540.585 1.38638 4.16745 0
M  V30 5678 H 541.191 2.76951 3.22766 0
M  V30 5679 N 539.506 -0.963266 1.24736 0
M  V30 5680 C 540.783 -1.68248 0.9976 0
M  V30 5681 C 541.163 -2.05599 -0.478776 0
M  V30 5682 O 540.511 -1.7626 -1.45412 0
M  V30 5683 C 540.721 -2.91118 1.92487 0
M  V30 5684 C 542.069 -3.63261 2.19833 0
M  V30 5685 O 543.093 -3.01184 1.90176 0
M  V30 5686 O 541.952 -4.75019 2.7022 0
M  V30 5687 H 539.046 -0.735744 0.377637 0
M  V30 5688 H 541.592 -1.01696 1.35853 0
M  V30 5689 H 540.364 -2.60242 2.92215 0
M  V30 5690 H 539.987 -3.65402 1.56738 0
M  V30 5691 N 540.985 -1.06182 -1.16461 0
M  V30 5692 C 542.231 -0.779015 -1.87241 0
M  V30 5693 C 542.564 0.692715 -1.81425 0
M  V30 5694 O 541.839 1.5074 -1.22913 0
M  V30 5695 C 542.122 -1.2728 -3.36856 0
M  V30 5696 C 541.975 -2.80821 -3.51368 0
M  V30 5697 C 543.294 -0.879799 -4.31216 0
M  V30 5698 H 540.413 -0.284464 -0.679889 0
M  V30 5699 H 543.055 -1.31755 -1.36896 0
M  V30 5700 H 541.205 -0.814673 -3.79862 0
M  V30 5701 H 542.877 -3.34833 -3.17308 0
M  V30 5702 H 541.12 -3.19606 -2.93316 0
M  V30 5703 H 541.791 -3.10435 -4.56436 0
M  V30 5704 H 544.267 -1.27436 -3.96105 0
M  V30 5705 H 543.143 -1.25278 -5.34412 0
M  V30 5706 H 543.404 0.215372 -4.41575 0
M  V30 5707 N 542.463 1.3308 -0.844243 0
M  V30 5708 C 543.373 2.32876 -0.283922 0
M  V30 5709 C 544.389 1.63589 0.592846 0
M  V30 5710 O 545.565 1.95205 0.495693 0
M  V30 5711 C 542.63 3.42667 0.527283 0
M  V30 5712 C 541.691 4.27664 -0.374394 0
M  V30 5713 C 540.924 5.32212 0.39819 0
M  V30 5714 O 541.147 5.46635 1.62932 0
M  V30 5715 O 540.081 6.01458 -0.2306 0
M  V30 5716 H 543.907 2.82671 -1.11045 0
M  V30 5717 H 541.492 1.36518 -0.606903 0
M  V30 5718 H 543.374 4.09652 0.988078 0
M  V30 5719 H 542.049 2.95079 1.33078 0
M  V30 5720 H 540.956 3.63526 -0.883144 0
M  V30 5721 H 542.289 4.78749 -1.1428 0
M  V30 5722 N 543.941 0.601185 1.45683 0
M  V30 5723 C 544.888 -0.121396 2.30481 0
M  V30 5724 C 545.858 -0.866232 1.41724 0
M  V30 5725 O 547.043 -0.85324 1.70659 0
M  V30 5726 C 544.183 -1.11704 3.26521 0
M  V30 5727 C 543.296 -0.373741 4.3038 0
M  V30 5728 C 542.431 -1.35854 5.13534 0
M  V30 5729 C 541.47 -0.602689 6.09126 0
M  V30 5730 N 540.607 -1.53645 6.85082 0
M  V30 5731 H 545.447 0.607732 2.91737 0
M  V30 5732 H 542.984 0.311502 1.43764 0
M  V30 5733 H 544.942 -1.70735 3.80664 0
M  V30 5734 H 543.572 -1.81366 2.67032 0
M  V30 5735 H 542.624 0.331962 3.78949 0
M  V30 5736 H 543.936 0.2163 4.98331 0
M  V30 5737 H 543.09 -2.02111 5.72046 0
M  V30 5738 H 541.829 -1.98251 4.45587 0
M  V30 5739 H 540.834 0.0735482 5.49751 0
M  V30 5740 H 542.059 0.0161467 6.79098 0
M  V30 5741 H 540.005 -2.14819 6.1983 0
M  V30 5742 H 539.922 -0.999688 7.49361 0
M  V30 5743 H 541.19 -2.1888 7.48139 0
M  V30 5744 N 545.419 -1.53889 0.339982 0
M  V30 5745 C 546.668 -2.00035 -0.258604 0
M  V30 5746 C 546.981 -1.23179 -1.51942 0
M  V30 5747 O 548.187 -1.59784 -2.19503 0
M  V30 5748 C 546.643 -3.56249 -0.511359 0
M  V30 5749 C 546.251 -4.41957 0.733349 0
M  V30 5750 C 547.995 -4.1082 -1.069 0
M  V30 5751 C 545.902 -5.89673 0.451591 0
M  V30 5752 H 544.832 -0.747284 -0.10041 0
M  V30 5753 H 547.483 -1.77776 0.454758 0
M  V30 5754 H 545.865 -3.7456 -1.28533 0
M  V30 5755 H 547.039 -4.35421 1.50815 0
M  V30 5756 H 545.354 -3.9836 1.21237 0
M  V30 5757 H 547.951 -5.18789 -1.2947 0
M  V30 5758 H 548.294 -3.63817 -2.02343 0
M  V30 5759 H 548.827 -3.96205 -0.355817 0
M  V30 5760 H 545.566 -6.40903 1.37565 0
M  V30 5761 H 545.086 -5.99122 -0.285193 0
M  V30 5762 H 546.765 -6.46965 0.0675067 0
M  V30 5763 N 546.897 -0.0685191 -1.57451 0
M  V30 5764 C 547.829 0.929372 -2.09512 0
M  V30 5765 C 548.842 1.26354 -1.02657 0
M  V30 5766 O 550.031 1.2213 -1.30179 0
M  V30 5767 C 547.131 2.24612 -2.53777 0
M  V30 5768 C 546.304 2.09128 -3.84167 0
M  V30 5769 C 545.363 3.24079 -4.14559 0
M  V30 5770 O 544.389 2.99215 -4.8421 0
M  V30 5771 N 545.591 4.49077 -3.67845 0
M  V30 5772 H 548.356 0.484901 -2.95751 0
M  V30 5773 H 545.917 0.11729 -1.61475 0
M  V30 5774 H 547.909 3.00412 -2.71172 0
M  V30 5775 H 546.479 2.60569 -1.72692 0
M  V30 5776 H 545.699 1.17815 -3.76182 0
M  V30 5777 H 546.987 1.9603 -4.69521 0
M  V30 5778 H 546.385 4.72165 -3.11571 0
M  V30 5779 H 544.942 5.21915 -3.90446 0
M  V30 5780 N 548.375 1.56261 0.205012 0
M  V30 5781 C 549.285 1.96944 1.27476 0
M  V30 5782 C 550.301 0.875636 1.50362 0
M  V30 5783 O 551.477 1.18058 1.6317 0
M  V30 5784 C 548.542 2.29219 2.60115 0
M  V30 5785 C 547.603 3.52255 2.45387 0
M  V30 5786 C 546.836 3.8298 3.71701 0
M  V30 5787 O 547.059 3.15138 4.75441 0
M  V30 5788 O 545.993 4.76435 3.67823 0
M  V30 5789 H 549.819 2.88144 0.959527 0
M  V30 5790 H 547.404 1.43686 0.409217 0
M  V30 5791 H 549.286 2.51098 3.3842 0
M  V30 5792 H 547.961 1.4119 2.91285 0
M  V30 5793 H 546.868 3.35635 1.65227 0
M  V30 5794 H 548.201 4.40719 2.19152 0
M  V30 5795 N 549.853 -0.472356 1.50355 0
M  V30 5796 C 551.102 -1.2213 1.60522 0
M  V30 5797 C 551.415 -1.9312 0.310466 0
M  V30 5798 O 552.621 -2.69936 0.291029 0
M  V30 5799 C 551.077 -2.21909 2.83345 0
M  V30 5800 C 550.685 -1.56727 4.19691 0
M  V30 5801 C 552.429 -2.97453 3.02856 0
M  V30 5802 C 550.336 -2.54785 5.33703 0
M  V30 5803 H 549.266 -0.459543 0.597776 0
M  V30 5804 H 551.917 -0.491922 1.76783 0
M  V30 5805 H 550.299 -2.98133 2.60639 0
M  V30 5806 H 551.473 -0.863007 4.52646 0
M  V30 5807 H 549.788 -0.934685 4.05774 0
M  V30 5808 H 552.385 -3.70838 3.85205 0
M  V30 5809 H 552.728 -3.56764 2.14534 0
M  V30 5810 H 553.261 -2.28342 3.25737 0
M  V30 5811 H 550 -2.00214 6.24175 0
M  V30 5812 H 549.52 -3.23367 5.05167 0
M  V30 5813 H 551.199 -3.16639 5.64224 0
M  V30 5814 N 551.331 -1.39911 -0.725443 0
M  V30 5815 C 552.747 -1.21725 -1.03224 0
M  V30 5816 C 552.947 -0.0855224 -2.01318 0
M  V30 5817 O 552.003 0.55976 -2.46217 0
M  V30 5818 C 553.316 -2.55511 -1.58539 0
M  V30 5819 C 554.864 -2.62439 -1.70572 0
M  V30 5820 C 555.339 -3.9647 -2.29294 0
M  V30 5821 N 556.83 -3.98159 -2.36692 0
M  V30 5822 C 557.565 -4.98647 -2.83088 0
M  V30 5823 N 557.061 -6.0953 -3.2931 0
M  V30 5824 N 558.854 -4.8602 -2.82384 0
M  V30 5825 H 551.005 -2.12267 -0.075048 0
M  V30 5826 H 553.268 -0.943136 -0.0959066 0
M  V30 5827 H 552.974 -3.38926 -0.939249 0
M  V30 5828 H 552.848 -2.75905 -2.57208 0
M  V30 5829 H 555.235 -1.79401 -2.34306 0
M  V30 5830 H 555.316 -2.45885 -0.705297 0
M  V30 5831 H 554.96 -4.79942 -1.66186 0
M  V30 5832 H 554.89 -4.10349 -3.30032 0
M  V30 5833 H 557.381 -3.18085 -2.04035 0
M  V30 5834 H 557.694 -6.82106 -3.6325 0
M  V30 5835 H 556.039 -6.1311 -3.27294 0
M  V30 5836 H 559.23 -3.98493 -2.45603 0
M  V30 5837 H 559.403 -5.64478 -3.18226 0
M  V30 5838 N 552.809 0.956637 -1.25245 0
M  V30 5839 C 554.039 1.7332 -1.12445 0
M  V30 5840 C 554.447 1.86392 0.324732 0
M  V30 5841 O 553.79 1.35967 1.23526 0
M  V30 5842 C 553.852 3.16603 -1.70303 0
M  V30 5843 C 553.516 3.26966 -3.19284 0
M  V30 5844 C 554.513 3.11434 -4.16299 0
M  V30 5845 C 552.198 3.50851 -3.59456 0
M  V30 5846 C 554.192 3.1963 -5.51467 0
M  V30 5847 C 551.879 3.58684 -4.94761 0
M  V30 5848 C 552.877 3.43087 -5.90576 0
M  V30 5849 O 552.565 3.50598 -7.2342 0
M  V30 5850 H 552.297 0.549981 -0.393061 0
M  V30 5851 H 554.851 1.20892 -1.66055 0
M  V30 5852 H 553.081 3.70385 -1.11138 0
M  V30 5853 H 554.77 3.76109 -1.52632 0
M  V30 5854 H 555.536 2.92853 -3.86604 0
M  V30 5855 H 551.415 3.62053 -2.85375 0
M  V30 5856 H 554.959 3.07373 -6.26233 0
M  V30 5857 H 550.856 3.76782 -5.24124 0
M  V30 5858 H 551.624 3.67242 -7.31489 0
M  V30 5859 N 554.287 1.06798 1.15896 0
M  V30 5860 C 555.703 0.792423 1.38538 0
M  V30 5861 C 555.903 -0.60592 1.92174 0
M  V30 5862 O 554.959 -1.36561 2.12385 0
M  V30 5863 C 556.272 1.86157 2.36149 0
M  V30 5864 C 557.82 1.88567 2.49823 0
M  V30 5865 C 558.295 2.9455 3.5072 0
M  V30 5866 N 559.786 2.93616 3.58251 0
M  V30 5867 C 560.521 3.72267 4.36125 0
M  V30 5868 N 560.017 4.60751 5.17379 0
M  V30 5869 N 561.81 3.60637 4.31158 0
M  V30 5870 H 553.961 1.96993 0.794198 0
M  V30 5871 H 556.224 0.853942 0.411688 0
M  V30 5872 H 555.93 2.86603 2.03843 0
M  V30 5873 H 555.804 1.71692 3.3586 0
M  V30 5874 H 558.191 0.887765 2.8143 0
M  V30 5875 H 558.272 2.0711 1.5013 0
M  V30 5876 H 557.916 3.94537 3.19849 0
M  V30 5877 H 557.846 2.73255 4.50155 0
M  V30 5878 H 560.337 2.29472 3.00252 0
M  V30 5879 H 560.65 5.17408 5.74028 0
M  V30 5880 H 558.995 4.64803 5.16704 0
M  V30 5881 H 562.186 2.90892 3.66742 0
M  V30 5882 H 562.359 4.22176 4.91601 0
M  V30 5883 N 555.766 -1.3263 0.851289 0
M  V30 5884 C 556.991 -2.02097 0.466006 0
M  V30 5885 C 557.416 -1.63574 -0.928709 0
M  V30 5886 O 556.774 -0.834665 -1.60944 0
M  V30 5887 C 556.822 -3.55425 0.608737 0
M  V30 5888 O 555.926 -4.10827 -0.359878 0
M  V30 5889 H 555.267 -0.636911 0.187724 0
M  V30 5890 H 557.797 -1.69253 1.14955 0
M  V30 5891 H 557.807 -4.04986 0.495006 0
M  V30 5892 H 556.482 -3.82806 1.62581 0
M  V30 5893 H 555.059 -3.72349 -0.202666 0
M  V30 5894 N 557.244 -0.608902 -1.45362 0
M  V30 5895 C 558.191 0.109172 -2.30542 0
M  V30 5896 C 559.161 0.858704 -1.42181 0
M  V30 5897 O 560.346 0.844178 -1.71109 0
M  V30 5898 C 557.486 1.09971 -3.27109 0
M  V30 5899 C 556.599 0.350911 -4.30572 0
M  V30 5900 C 555.734 1.33129 -5.14247 0
M  V30 5901 C 554.773 0.570377 -6.09437 0
M  V30 5902 N 553.91 1.5001 -6.85887 0
M  V30 5903 H 558.75 -0.623195 -2.91411 0
M  V30 5904 H 556.287 -0.319122 -1.43597 0
M  V30 5905 H 558.245 1.68714 -3.81564 0
M  V30 5906 H 556.875 1.79947 -2.67991 0
M  V30 5907 H 555.927 -0.352054 -3.78767 0
M  V30 5908 H 557.239 -0.242725 -4.98209 0
M  V30 5909 H 556.393 1.99074 -5.73109 0
M  V30 5910 H 555.132 1.95885 -4.46632 0
M  V30 5911 H 554.137 -0.102702 -5.49704 0
M  V30 5912 H 555.362 -0.0521607 -6.7908 0
M  V30 5913 H 553.308 2.11529 -6.2096 0
M  V30 5914 H 553.225 0.959934 -7.49881 0
M  V30 5915 H 554.493 2.14909 -7.49289 0
M  V30 5916 N 558.722 1.53707 -0.348139 0
M  V30 5917 C 559.652 2.28111 0.498766 0
M  V30 5918 C 560.633 1.29851 1.09876 0
M  V30 5919 O 561.818 1.587 1.11928 0
M  V30 5920 C 558.948 3.05735 1.64753 0
M  V30 5921 C 557.902 4.11537 1.17565 0
M  V30 5922 C 557.228 4.77142 2.4133 0
M  V30 5923 C 558.528 5.21587 0.272844 0
M  V30 5924 H 560.222 2.99152 -0.121934 0
M  V30 5925 H 557.768 1.43875 -0.0600842 0
M  V30 5926 H 559.721 3.56526 2.24649 0
M  V30 5927 H 558.445 2.32354 2.2952 0
M  V30 5928 H 557.104 3.61665 0.599483 0
M  V30 5929 H 556.752 4.0035 3.04514 0
M  V30 5930 H 556.452 5.48626 2.10436 0
M  V30 5931 H 557.976 5.30719 3.01943 0
M  V30 5932 H 559.39 5.67986 0.778779 0
M  V30 5933 H 557.787 6.00074 0.0555849 0
M  V30 5934 H 558.857 4.79969 -0.689785 0
M  V30 5935 N 560.2 0.0768682 1.57412 0
M  V30 5936 C 561.147 -0.888577 2.13009 0
M  V30 5937 C 562.117 -1.29198 1.0439 0
M  V30 5938 O 563.302 -1.37694 1.3208 0
M  V30 5939 C 560.442 -2.14899 2.70023 0
M  V30 5940 C 559.555 -1.79777 3.92816 0
M  V30 5941 C 558.69 -3.00467 4.38056 0
M  V30 5942 C 557.729 -2.61385 5.53484 0
M  V30 5943 N 556.866 -3.74851 5.93659 0
M  V30 5944 H 561.706 -0.407593 2.95199 0
M  V30 5945 H 559.243 -0.189534 1.45874 0
M  V30 5946 H 561.201 -2.88688 3.0119 0
M  V30 5947 H 559.831 -2.60529 1.9059 0
M  V30 5948 H 558.883 -0.960301 3.68079 0
M  V30 5949 H 560.195 -1.47027 4.76639 0
M  V30 5950 H 559.349 -3.82529 4.7091 0
M  V30 5951 H 558.088 -3.36413 3.53097 0
M  V30 5952 H 557.093 -1.77746 5.20275 0
M  V30 5953 H 558.318 -2.26603 6.40178 0
M  V30 5954 H 556.264 -4.1055 5.11649 0
M  V30 5955 H 556.181 -3.45887 6.72234 0
M  V30 5956 H 557.449 -4.57477 6.31138 0
M  V30 5957 N 561.678 -1.56367 -0.196722 0
M  V30 5958 C 562.608 -1.97442 -1.24655 0
M  V30 5959 C 563.589 -0.846147 -1.47561 0
M  V30 5960 O 564.774 -1.11035 -1.59326 0
M  V30 5961 C 561.904 -2.31253 -2.59112 0
M  V30 5962 C 560.858 -3.46804 -2.50821 0
M  V30 5963 C 560.184 -3.66286 -3.89536 0
M  V30 5964 C 561.484 -4.8104 -2.03465 0
M  V30 5965 H 563.178 -2.85388 -0.905216 0
M  V30 5966 H 560.724 -1.37304 -0.434002 0
M  V30 5967 H 562.677 -2.58583 -3.32736 0
M  V30 5968 H 561.401 -1.40188 -2.94983 0
M  V30 5969 H 560.06 -3.19563 -1.79653 0
M  V30 5970 H 559.708 -2.72555 -4.22756 0
M  V30 5971 H 559.408 -4.4402 -3.84864 0
M  V30 5972 H 560.932 -3.9599 -4.64784 0
M  V30 5973 H 562.346 -5.07411 -2.66846 0
M  V30 5974 H 560.743 -5.62232 -2.09798 0
M  V30 5975 H 561.813 -4.74732 -0.98781 0
M  V30 5976 N 563.156 0.464375 -1.50603 0
M  V30 5977 C 564.405 1.21277 -1.61167 0
M  V30 5978 C 564.718 1.92953 -0.320704 0
M  V30 5979 O 565.924 2.69778 -0.30534 0
M  V30 5980 C 564.38 2.20403 -2.84518 0
M  V30 5981 C 563.988 1.54499 -4.20516 0
M  V30 5982 C 565.732 2.95843 -3.0443 0
M  V30 5983 C 563.639 2.51951 -5.35047 0
M  V30 5984 H 562.569 0.456367 -0.600204 0
M  V30 5985 H 565.22 0.48254 -1.77042 0
M  V30 5986 H 563.602 2.96746 -2.62217 0
M  V30 5987 H 564.776 0.83899 -4.53098 0
M  V30 5988 H 563.091 0.913152 -4.06264 0
M  V30 5989 H 565.688 3.6879 -3.87167 0
M  V30 5990 H 566.031 3.55622 -2.16423 0
M  V30 5991 H 566.564 2.26611 -3.26944 0
M  V30 5992 H 563.303 1.96901 -6.25228 0
M  V30 5993 H 562.823 3.20683 -5.06875 0
M  V30 5994 H 564.502 3.13643 -5.65895 0
M  V30 5995 N 564.634 1.40294 0.718013 0
M  V30 5996 C 566.05 1.2227 1.02577 0
M  V30 5997 C 566.25 0.0961976 2.0127 0
M  V30 5998 O 565.306 -0.546695 2.46511 0
M  V30 5999 C 566.619 2.56348 1.57182 0
M  V30 6000 C 568.167 2.6334 1.69178 0
M  V30 6001 C 568.642 3.9768 2.27188 0
M  V30 6002 N 570.133 3.99409 2.34578 0
M  V30 6003 C 570.868 5.00141 2.8044 0
M  V30 6004 N 570.364 6.11268 3.26073 0
M  V30 6005 N 572.157 4.87511 2.79802 0
M  V30 6006 H 564.308 2.12304 0.0637899 0
M  V30 6007 H 566.571 0.943632 0.0909036 0
M  V30 6008 H 566.277 3.3942 0.921262 0
M  V30 6009 H 566.151 2.77266 2.55741 0
M  V30 6010 H 568.538 1.80641 2.33351 0
M  V30 6011 H 568.619 2.46255 0.692247 0
M  V30 6012 H 568.263 4.80817 1.63638 0
M  V30 6013 H 568.193 4.12093 3.27852 0
M  V30 6014 H 570.684 3.19162 2.02346 0
M  V30 6015 H 570.997 6.84023 3.59628 0
M  V30 6016 H 569.342 6.14837 3.24038 0
M  V30 6017 H 572.533 3.9979 2.43487 0
M  V30 6018 H 572.706 5.66158 3.15228 0
M  V30 6019 N 566.112 -0.949982 1.2575 0
M  V30 6020 C 567.075 -2.02894 1.06615 0
M  V30 6021 C 568.075 -1.60791 0.0173905 0
M  V30 6022 O 569.265 -1.72249 0.260003 0
M  V30 6023 C 566.397 -3.35219 0.619751 0
M  V30 6024 H 567.59 -2.21302 2.02399 0
M  V30 6025 H 565.143 -1.12772 1.08223 0
M  V30 6026 H 565.878 -3.22508 -0.340486 0
M  V30 6027 H 565.663 -3.67129 1.37692 0
M  V30 6028 H 567.153 -4.14505 0.507443 0
M  V30 6029 N 567.59 -1.07411 -1.15328 0
M  V30 6030 C 568.537 -0.694995 -2.20087 0
M  V30 6031 C 569.507 0.313904 -1.63107 0
M  V30 6032 O 570.692 0.200216 -1.89747 0
M  V30 6033 C 567.832 -0.0996218 -3.44956 0
M  V30 6034 C 566.945 -1.16007 -4.16133 0
M  V30 6035 C 566.08 -0.529636 -5.28553 0
M  V30 6036 C 565.119 -1.57283 -5.91548 0
M  V30 6037 N 564.256 -0.964932 -6.95438 0
M  V30 6038 H 569.096 -1.5927 -2.51867 0
M  V30 6039 H 566.633 -0.796115 -1.23695 0
M  V30 6040 H 568.591 0.263197 -4.16369 0
M  V30 6041 H 567.221 0.761435 -3.13691 0
M  V30 6042 H 566.273 -1.64045 -3.4321 0
M  V30 6043 H 567.585 -1.95101 -4.59061 0
M  V30 6044 H 566.739 -0.114487 -6.06592 0
M  V30 6045 H 565.478 0.29307 -4.86819 0
M  V30 6046 H 564.483 -1.99775 -5.12221 0
M  V30 6047 H 565.708 -2.39783 -6.35359 0
M  V30 6048 H 563.654 -0.16314 -6.55797 0
M  V30 6049 H 563.571 -1.69311 -7.36797 0
M  V30 6050 H 564.839 -0.575305 -7.77374 0
M  V30 6051 N 569.068 1.32177 -0.85831 0
M  V30 6052 C 569.978 2.32561 -0.308606 0
M  V30 6053 C 570.994 1.64209 0.575462 0
M  V30 6054 O 572.17 1.95719 0.474961 0
M  V30 6055 C 569.235 3.43207 0.490909 0
M  V30 6056 C 568.296 4.27243 -0.419733 0
M  V30 6057 C 567.529 5.32605 0.341719 0
M  V30 6058 O 567.752 5.48332 1.57125 0
M  V30 6059 O 566.686 6.0118 -0.294379 0
M  V30 6060 H 570.512 2.81477 -1.14037 0
M  V30 6061 H 568.097 1.35866 -0.621349 0
M  V30 6062 H 569.979 4.10677 0.944574 0
M  V30 6063 H 568.654 2.96474 1.29941 0
M  V30 6064 H 567.561 3.62569 -0.921652 0
M  V30 6065 H 568.894 4.7751 -1.19352 0
M  V30 6066 N 570.547 0.616602 1.45037 0
M  V30 6067 C 571.457 -0.0985401 2.34393 0
M  V30 6068 C 572.473 -0.850971 1.51771 0
M  V30 6069 O 573.649 -0.806521 1.84546 0
M  V30 6070 C 570.714 -1.07748 3.29532 0
M  V30 6071 C 569.775 -0.326022 4.2806 0
M  V30 6072 C 569.008 -1.25833 5.18654 0
M  V30 6073 O 569.231 -2.49652 5.12864 0
M  V30 6074 O 568.165 -0.750512 5.97203 0
M  V30 6075 H 571.991 0.636016 2.96966 0
M  V30 6076 H 569.576 0.376832 1.44569 0
M  V30 6077 H 571.458 -1.64107 3.88133 0
M  V30 6078 H 570.133 -1.79291 2.69512 0
M  V30 6079 H 569.04 0.280253 3.73049 0
M  V30 6080 H 570.373 0.349091 4.9096 0
M  V30 6081 N 572.025 -1.5352 0.356285 0
M  V30 6082 C 573.302 -1.93405 -0.292223 0
M  V30 6083 C 573.682 -1.28901 -1.67176 0
M  V30 6084 O 573.03 -0.444632 -2.24132 0
M  V30 6085 C 573.24 -3.47223 -0.35175 0
M  V30 6086 C 574.588 -4.20389 -0.596534 0
M  V30 6087 O 575.612 -3.53554 -0.433344 0
M  V30 6088 O 574.471 -5.3881 -0.913589 0
M  V30 6089 H 571.565 -0.808666 -0.173172 0
M  V30 6090 H 574.111 -1.64713 0.408391 0
M  V30 6091 H 572.883 -3.86423 0.615841 0
M  V30 6092 H 572.506 -3.8212 -1.09864 0
M  V30 6093 N 573.503 -0.0852151 -1.57369 0
M  V30 6094 C 574.728 0.592872 -1.98746 0
M  V30 6095 C 575.153 1.61538 -0.963689 0
M  V30 6096 O 574.511 1.81168 0.069071 0
M  V30 6097 C 574.559 1.22599 -3.39119 0
M  V30 6098 O 573.663 2.34185 -3.39457 0
M  V30 6099 H 573.004 0.151314 -0.646529 0
M  V30 6100 H 575.534 -0.163703 -2.03944 0
M  V30 6101 H 575.544 1.56965 -3.76598 0
M  V30 6102 H 574.219 0.476831 -4.13158 0
M  V30 6103 H 572.796 2.01512 -3.13763 0
M  V30 6104 N 574.981 1.5647 0.188427 0
M  V30 6105 C 576.229 1.80655 0.905986 0
M  V30 6106 C 576.55 0.659391 1.83513 0
M  V30 6107 O 575.82 -0.321868 1.93238 0
M  V30 6108 H 574.4 0.666391 0.337538 0
M  V30 6109 H 577.062 1.93949 0.192339 0
M  V30 6110 H 576.158 2.74066 1.49313 0
M  V30 6111 N 576.459 -0.456382 1.50847 0
M  V30 6112 C 577.409 -1.55045 1.67168 0
M  V30 6113 C 578.393 -1.52061 0.525958 0
M  V30 6114 O 579.585 -1.58836 0.781036 0
M  V30 6115 C 576.714 -2.93386 1.78268 0
M  V30 6116 C 575.8 -3.01198 2.98564 0
M  V30 6117 N 576.191 -2.78792 4.22029 0
M  V30 6118 C 574.489 -3.32346 2.97426 0
M  V30 6119 C 575.19 -2.91953 5.03128 0
M  V30 6120 N 574.166 -3.22797 4.37382 0
M  V30 6121 H 577.968 -1.36444 2.60308 0
M  V30 6122 H 575.482 -0.663375 1.48233 0
M  V30 6123 H 577.479 -3.72071 1.88067 0
M  V30 6124 H 576.139 -3.13022 0.862965 0
M  V30 6125 H 577.15 -2.54087 4.51287 0
M  V30 6126 H 573.827 -3.57877 2.15012 0
M  V30 6127 H 575.217 -2.78745 6.11351 0
M  V30 6128 N 577.937 -1.40673 -0.710563 0
M  V30 6129 C 579.167 -1.4234 -1.49742 0
M  V30 6130 C 579.575 -0.022821 -1.89186 0
M  V30 6131 O 578.918 0.964773 -1.56326 0
M  V30 6132 C 578.98 -2.25509 -2.79975 0
M  V30 6133 C 578.644 -3.73862 -2.62824 0
M  V30 6134 C 579.641 -4.66379 -2.29752 0
M  V30 6135 C 577.326 -4.17735 -2.78932 0
M  V30 6136 C 579.32 -6.00756 -2.13006 0
M  V30 6137 C 577.007 -5.5218 -2.61802 0
M  V30 6138 C 578.005 -6.43505 -2.28888 0
M  V30 6139 O 577.693 -7.75472 -2.11894 0
M  V30 6140 H 577.425 -0.487311 -0.468513 0
M  V30 6141 H 579.979 -1.8542 -0.883668 0
M  V30 6142 H 578.209 -1.77218 -3.43701 0
M  V30 6143 H 579.898 -2.19058 -3.41714 0
M  V30 6144 H 580.664 -4.33778 -2.16936 0
M  V30 6145 H 576.543 -3.46967 -3.03537 0
M  V30 6146 H 580.087 -6.72003 -1.87237 0
M  V30 6147 H 575.984 -5.84365 -2.74204 0
M  V30 6148 H 576.752 -7.86458 -2.26775 0
M  V30 6149 N 579.415 0.9433 -1.26252 0
M  V30 6150 C 580.643 1.72367 -1.14443 0
M  V30 6151 C 581.058 1.86392 0.300572 0
M  V30 6152 O 580.415 1.36978 1.20596 0
M  V30 6153 C 580.466 3.13155 -1.806 0
M  V30 6154 O 580.187 2.99803 -3.19452 0
M  V30 6155 C 581.688 4.07417 -1.74717 0
M  V30 6156 H 578.908 0.539758 -0.398626 0
M  V30 6157 H 581.452 1.18268 -1.66832 0
M  V30 6158 H 579.607 3.64162 -1.32154 0
M  V30 6159 H 580.021 3.88697 -3.52158 0
M  V30 6160 H 581.495 5.03773 -2.25647 0
M  V30 6161 H 581.972 4.3337 -0.713244 0
M  V30 6162 H 582.578 3.6233 -2.22704 0
M  V30 6163 N 580.893 1.08022 1.14757 0
M  V30 6164 C 582.142 0.802468 1.8505 0
M  V30 6165 C 582.455 -0.674061 1.83619 0
M  V30 6166 O 583.661 -1.06683 2.49662 0
M  V30 6167 C 582.117 1.38551 3.32162 0
M  V30 6168 C 581.725 2.89354 3.42021 0
M  V30 6169 C 583.469 1.18608 4.07594 0
M  V30 6170 C 581.376 3.40815 4.83321 0
M  V30 6171 H 580.306 0.296518 0.693248 0
M  V30 6172 H 582.957 1.30114 1.29393 0
M  V30 6173 H 581.339 0.814556 3.87532 0
M  V30 6174 H 582.513 3.52552 2.96722 0
M  V30 6175 H 580.828 3.08165 2.80041 0
M  V30 6176 H 583.425 1.54525 5.11885 0
M  V30 6177 H 583.768 0.125599 4.1611 0
M  V30 6178 H 584.301 1.72375 3.58513 0
M  V30 6179 H 581.04 4.46418 4.79991 0
M  V30 6180 H 580.56 2.82374 5.29174 0
M  V30 6181 H 582.239 3.37171 5.522 0
M  V30 6182 N 582.371 -1.3172 0.865308 0
M  V30 6183 C 583.617 -1.97168 0.474633 0
M  V30 6184 C 583.95 -1.68263 -0.969604 0
M  V30 6185 O 583.225 -0.976588 -1.68205 0
M  V30 6186 C 583.508 -3.52689 0.726808 0
M  V30 6187 C 583.361 -3.91185 2.22024 0
M  V30 6188 C 584.68 -4.39689 0.190201 0
M  V30 6189 H 581.799 -0.716185 0.17392 0
M  V30 6190 H 584.441 -1.55925 1.08569 0
M  V30 6191 H 582.591 -3.8795 0.206705 0
M  V30 6192 H 584.263 -3.66049 2.80724 0
M  V30 6193 H 582.506 -3.3996 2.69462 0
M  V30 6194 H 583.177 -4.99604 2.34735 0
M  V30 6195 H 585.653 -4.11225 0.635103 0
M  V30 6196 H 584.529 -5.47469 0.396132 0
M  V30 6197 H 584.79 -4.32683 -0.907625 0
M  V30 6198 N 583.85 -0.624285 -1.44708 0
M  V30 6199 C 584.812 0.0749638 -2.29077 0
M  V30 6200 C 585.812 0.778965 -1.40673 0
M  V30 6201 O 587.003 0.624591 -1.62618 0
M  V30 6202 C 584.135 1.11663 -3.22094 0
M  V30 6203 H 585.327 -0.667013 -2.92388 0
M  V30 6204 H 582.88 -0.384098 -1.51507 0
M  V30 6205 H 583.615 1.88881 -2.63618 0
M  V30 6206 H 583.401 0.61583 -3.87234 0
M  V30 6207 H 584.891 1.60585 -3.8549 0
M  V30 6208 N 585.328 1.53329 -0.364422 0
M  V30 6209 C 586.26 2.23286 0.517293 0
M  V30 6210 C 587.273 1.24657 1.04711 0
M  V30 6211 O 588.462 1.50887 0.95369 0
M  V30 6212 C 585.562 2.91604 1.72685 0
M  V30 6213 C 584.735 4.1673 1.32873 0
M  V30 6214 C 583.794 4.68269 2.40022 0
M  V30 6215 O 582.82 5.31976 2.02461 0
M  V30 6216 N 584.022 4.45983 3.7159 0
M  V30 6217 H 586.787 2.99588 -0.0819391 0
M  V30 6218 H 584.348 1.60787 -0.189544 0
M  V30 6219 H 586.34 3.22992 2.4384 0
M  V30 6220 H 584.91 2.18763 2.23297 0
M  V30 6221 H 584.13 3.91657 0.447069 0
M  V30 6222 H 585.418 4.98078 1.03902 0
M  V30 6223 H 584.816 3.95077 4.04883 0
M  V30 6224 H 583.373 4.81924 4.38854 0
M  V30 6225 N 586.806 0.0935595 1.57322 0
M  V30 6226 C 587.754 -0.883457 2.15169 0
M  V30 6227 C 588.748 -1.29324 1.09415 0
M  V30 6228 O 589.954 -1.26795 1.27762 0
M  V30 6229 H 586.329 -0.302923 0.688289 0
M  V30 6230 H 588.3 -0.370845 2.96087 0
M  V30 6231 C 587.049 -2.13345 2.74552 0
M  V30 6232 H 586.372 -1.82702 3.55612 0
M  V30 6233 H 587.812 -2.7977 3.18598 0
M  V30 6234 C 586.271 -2.90646 1.70371 0
M  V30 6235 O 586.801 -3.85133 1.14173 0
M  V30 6236 N 585.007 -2.54157 1.40899 0
M  V30 6237 H 584.554 -1.77391 1.86789 0
M  V30 6238 H 584.512 -3.06178 0.714301 0
M  V30 6239 N 588.284 -1.56567 -0.180126 0
M  V30 6240 C 589.194 -1.98947 -1.24327 0
M  V30 6241 C 590.21 -0.899446 -1.4895 0
M  V30 6242 O 591.386 -1.20639 -1.61271 0
M  V30 6243 C 588.451 -2.33328 -2.56435 0
M  V30 6244 C 587.512 -3.56114 -2.39752 0
M  V30 6245 C 586.745 -3.88845 -3.65561 0
M  V30 6246 O 586.968 -3.22662 -4.70368 0
M  V30 6247 O 585.902 -4.82226 -3.60197 0
M  V30 6248 H 589.728 -2.89634 -0.913565 0
M  V30 6249 H 587.313 -1.44319 -0.386306 0
M  V30 6250 H 589.195 -2.5645 -3.34382 0
M  V30 6251 H 587.87 -1.45806 -2.89002 0
M  V30 6252 H 586.777 -3.38221 -1.59866 0
M  V30 6253 H 588.11 -4.4415 -2.12113 0
M  V30 6254 N 589.762 0.448376 -1.51087 0
M  V30 6255 C 591.039 1.20926 -1.53741 0
M  V30 6256 C 591.419 2.09025 -0.295222 0
M  V30 6257 O 590.767 2.16851 0.720283 0
M  V30 6258 C 590.977 2.02067 -2.84552 0
M  V30 6259 C 592.325 2.59486 -3.36084 0
M  V30 6260 O 593.349 2.12289 -2.86028 0
M  V30 6261 O 592.208 3.45539 -4.23397 0
M  V30 6262 H 589.302 0.549951 -0.617643 0
M  V30 6263 H 591.848 0.458344 -1.63393 0
M  V30 6264 H 590.62 1.37291 -3.66425 0
M  V30 6265 H 590.243 2.84246 -2.78011 0
M  V30 6266 N 591.24 1.41047 0.703093 0
M  V30 6267 C 592.203 1.42036 1.79884 0
M  V30 6268 C 593.203 0.312153 1.57741 0
M  V30 6269 O 594.393 0.571672 1.64553 0
M  V30 6270 C 591.525 1.22437 3.18154 0
M  V30 6271 H 592.718 2.39572 1.80403 0
M  V30 6272 H 590.271 1.27079 0.909977 0
M  V30 6273 H 591.006 0.257112 3.23279 0
M  V30 6274 H 590.791 2.02723 3.35627 0
M  V30 6275 H 592.281 1.25946 3.98155 0
M  V30 6276 N 592.718 -0.936591 1.26751 0
M  V30 6277 C 593.964 -1.6858 1.12733 0
M  V30 6278 C 594.297 -1.91414 -0.327745 0
M  V30 6279 O 593.572 -1.49812 -1.24043 0
M  V30 6280 C 593.855 -3.05779 1.90187 0
M  V30 6281 C 593.708 -2.90242 3.43627 0
M  V30 6282 C 595.027 -4.0597 1.69931 0
M  V30 6283 H 592.146 -0.61182 0.410908 0
M  V30 6284 H 594.788 -1.08747 1.55801 0
M  V30 6285 H 592.938 -3.56853 1.53584 0
M  V30 6286 H 594.61 -2.46354 3.9001 0
M  V30 6287 H 592.853 -2.2577 3.70419 0
M  V30 6288 H 593.524 -3.87572 3.93055 0
M  V30 6289 H 596 -3.63874 2.0183 0
M  V30 6290 H 594.876 -4.99974 2.26534 0
M  V30 6291 H 595.137 -4.37369 0.64502 0
M  V30 6292 N 594.196 -1.08629 -1.14182 0
M  V30 6293 C 595.143 -0.718299 -2.19338 0
M  V30 6294 C 596.113 0.296587 -1.63431 0
M  V30 6295 O 597.298 0.180079 -1.89948 0
M  V30 6296 C 594.438 -0.136203 -3.44831 0
M  V30 6297 C 593.551 -1.20414 -4.14879 0
M  V30 6298 C 592.686 -0.585666 -5.27962 0
M  V30 6299 C 591.725 -1.63548 -5.89846 0
M  V30 6300 N 590.862 -1.03864 -6.94375 0
M  V30 6301 H 595.702 -1.61932 -2.50164 0
M  V30 6302 H 593.239 -0.80919 -1.22844 0
M  V30 6303 H 595.197 0.219021 -4.16625 0
M  V30 6304 H 593.827 0.728121 -3.14481 0
M  V30 6305 H 592.879 -1.67676 -3.41451 0
M  V30 6306 H 594.191 -1.99959 -4.56966 0
M  V30 6307 H 593.345 -0.178818 -6.06436 0
M  V30 6308 H 592.084 0.24142 -4.87102 0
M  V30 6309 H 591.089 -2.05197 -5.10073 0
M  V30 6310 H 592.314 -2.46509 -6.3278 0
M  V30 6311 H 590.26 -0.232687 -6.55587 0
M  V30 6312 H 590.177 -1.77116 -7.3496 0
M  V30 6313 H 591.445 -0.657724 -7.7672 0
M  V30 6314 N 595.674 1.31259 -0.872281 0
M  V30 6315 C 596.899 2.0133 -0.498099 0
M  V30 6316 C 597.324 1.65031 0.902568 0
M  V30 6317 O 596.682 0.860164 1.59596 0
M  V30 6318 C 596.73 3.54411 -0.665205 0
M  V30 6319 O 595.834 4.11347 0.294473 0
M  V30 6320 H 595.175 0.633844 -0.197832 0
M  V30 6321 H 597.705 1.67402 -1.17633 0
M  V30 6322 H 597.715 4.04147 -0.559373 0
M  V30 6323 H 596.39 3.80171 -1.68651 0
M  V30 6324 H 594.967 3.72624 0.143403 0
M  V30 6325 N 597.152 0.631951 1.44375 0
M  V30 6326 C 598.382 0.143658 2.061 0
M  V30 6327 C 598.79 -1.18733 1.47306 0
M  V30 6328 O 598.133 -1.73943 0.590724 0
M  V30 6329 C 598.195 -0.0446102 3.59472 0
M  V30 6330 C 597.859 1.20835 4.40736 0
M  V30 6331 C 598.856 2.13224 4.74164 0
M  V30 6332 C 596.541 1.44399 4.81097 0
M  V30 6333 C 598.535 3.27487 5.46838 0
M  V30 6334 C 596.222 2.58959 5.53519 0
M  V30 6335 C 597.22 3.50329 5.86309 0
M  V30 6336 O 596.908 4.62891 6.57257 0
M  V30 6337 H 596.64 0.0772939 0.671567 0
M  V30 6338 H 599.194 0.866677 1.8622 0
M  V30 6339 H 597.424 -0.822783 3.77845 0
M  V30 6340 H 599.113 -0.487561 4.02961 0
M  V30 6341 H 599.879 1.96253 4.4352 0
M  V30 6342 H 595.758 0.741696 4.54994 0
M  V30 6343 H 599.302 3.98826 5.72349 0
M  V30 6344 H 595.199 2.75873 5.83579 0
M  V30 6345 H 595.967 4.61883 6.75726 0
M  V30 6346 N 598.631 -1.53133 0.372548 0
M  V30 6347 C 599.859 -2.05774 -0.215515 0
M  V30 6348 C 600.274 -1.24555 -1.41886 0
M  V30 6349 O 599.631 -0.287951 -1.80214 0
M  V30 6350 C 599.682 -3.5645 -0.602161 0
M  V30 6351 O 599.403 -4.34591 0.553359 0
M  V30 6352 C 600.904 -4.25374 -1.24787 0
M  V30 6353 H 598.124 -0.670009 -0.0364529 0
M  V30 6354 H 600.668 -1.97434 0.532934 0
M  V30 6355 H 598.823 -3.64918 -1.30052 0
M  V30 6356 H 599.237 -5.23954 0.239336 0
M  V30 6357 H 600.711 -5.32097 -1.46891 0
M  V30 6358 H 601.188 -3.79531 -2.21026 0
M  V30 6359 H 601.794 -4.21177 -0.590752 0
M  V30 6360 N 600.109 -0.101901 -1.5727 0
M  V30 6361 C 601.356 0.560197 -1.94597 0
M  V30 6362 C 601.684 1.67767 -0.984101 0
M  V30 6363 O 600.939 1.95699 -0.00489193 0
M  V30 6364 C 601.238 1.14898 -3.38427 0
M  V30 6365 C 600.904 0.154613 -4.50635 0
M  V30 6366 C 599.566 -0.118861 -4.81053 0
M  V30 6367 C 601.918 -0.523979 -5.18559 0
M  V30 6368 C 599.246 -1.0775 -5.76721 0
M  V30 6369 C 601.598 -1.47114 -6.15256 0
M  V30 6370 C 600.262 -1.75278 -6.44076 0
M  V30 6371 H 599.532 0.204991 -0.712081 0
M  V30 6372 H 602.179 -0.17918 -1.9066 0
M  V30 6373 H 600.484 1.96476 -3.38976 0
M  V30 6374 H 602.181 1.66909 -3.64613 0
M  V30 6375 H 598.771 0.377948 -4.2693 0
M  V30 6376 H 602.955 -0.325851 -4.95229 0
M  V30 6377 H 598.211 -1.30263 -5.97362 0
M  V30 6378 H 602.385 -2.00274 -6.66981 0
M  V30 6379 H 600.012 -2.49717 -7.18015 0
M  V30 6380 N 601.587 1.56661 0.17182 0
M  V30 6381 C 602.497 1.99604 1.2327 0
M  V30 6382 C 603.513 0.907333 1.4847 0
M  V30 6383 O 604.689 1.21492 1.60629 0
M  V30 6384 C 601.754 2.34685 2.55194 0
M  V30 6385 C 600.815 3.57381 2.3786 0
M  V30 6386 C 600.048 3.90779 3.63494 0
M  V30 6387 O 600.271 3.25152 4.6865 0
M  V30 6388 O 599.205 4.84129 3.57634 0
M  V30 6389 H 603.031 2.90114 0.898192 0
M  V30 6390 H 600.616 1.44522 0.378647 0
M  V30 6391 H 602.498 2.5822 3.33017 0
M  V30 6392 H 601.173 1.47336 2.88225 0
M  V30 6393 H 600.08 3.39064 1.5807 0
M  V30 6394 H 601.413 4.45268 2.09754 0
M  V30 6395 N 603.065 -0.440357 1.51323 0
M  V30 6396 C 603.995 -1.54174 1.75364 0
M  V30 6397 C 604.976 -1.59039 0.603375 0
M  V30 6398 O 606.161 -1.74815 0.845774 0
M  V30 6399 C 603.291 -2.92277 1.87593 0
M  V30 6400 C 602.245 -3.02274 3.03009 0
M  V30 6401 C 601.571 -4.42327 3.00418 0
M  V30 6402 C 602.871 -2.76634 4.43024 0
M  V30 6403 H 604.565 -1.34307 2.67585 0
M  V30 6404 H 602.111 -0.644678 1.28763 0
M  V30 6405 H 604.064 -3.69284 2.02995 0
M  V30 6406 H 602.788 -3.13369 0.920179 0
M  V30 6407 H 601.447 -2.27706 2.87307 0
M  V30 6408 H 601.095 -4.60382 2.02626 0
M  V30 6409 H 600.795 -4.49946 3.77918 0
M  V30 6410 H 602.319 -5.21312 3.17909 0
M  V30 6411 H 603.733 -3.43376 4.59093 0
M  V30 6412 H 602.13 -2.95666 5.22208 0
M  V30 6413 H 603.2 -1.72262 4.5327 0
M  V30 6414 N 604.543 -1.41418 -0.695603 0
M  V30 6415 C 605.473 -1.46035 -1.82197 0
M  V30 6416 C 606.454 -0.319025 -1.67082 0
M  V30 6417 O 607.639 -0.530462 -1.86815 0
M  V30 6418 C 604.769 -1.34179 -3.20333 0
M  V30 6419 C 603.723 -2.46123 -3.50154 0
M  V30 6420 C 603.049 -2.19332 -4.87645 0
M  V30 6421 C 604.349 -3.88463 -3.49133 0
M  V30 6422 H 606.043 -2.40303 -1.78591 0
M  V30 6423 H 603.589 -1.15663 -0.857797 0
M  V30 6424 H 605.542 -1.36021 -3.98844 0
M  V30 6425 H 604.266 -0.363952 -3.24566 0
M  V30 6426 H 602.925 -2.43563 -2.73994 0
M  V30 6427 H 602.573 -1.19891 -4.88503 0
M  V30 6428 H 602.273 -2.94344 -5.08562 0
M  V30 6429 H 603.797 -2.22889 -5.68465 0
M  V30 6430 H 605.211 -3.92738 -4.17648 0
M  V30 6431 H 603.608 -4.63158 -3.81582 0
M  V30 6432 H 604.678 -4.16617 -2.48109 0
M  V30 6433 N 606.021 0.929856 -1.27246 0
M  V30 6434 C 607.249 1.71144 -1.16265 0
M  V30 6435 C 607.664 1.867 0.280786 0
M  V30 6436 O 607.021 1.38249 1.19136 0
M  V30 6437 C 607.072 3.11222 -1.83911 0
M  V30 6438 O 606.793 2.96398 -3.22614 0
M  V30 6439 C 608.294 4.05541 -1.79028 0
M  V30 6440 H 605.514 0.535499 -0.404328 0
M  V30 6441 H 608.058 1.16492 -1.68077 0
M  V30 6442 H 606.213 3.6274 -1.36009 0
M  V30 6443 H 606.627 3.8494 -3.56261 0
M  V30 6444 H 608.101 5.01351 -2.30978 0
M  V30 6445 H 608.578 4.32589 -0.759168 0
M  V30 6446 H 609.184 3.59947 -2.26535 0
M  V30 6447 N 607.499 1.09233 1.13605 0
M  V30 6448 C 608.431 0.687794 2.18637 0
M  V30 6449 C 609.444 -0.26936 1.60556 0
M  V30 6450 O 610.633 -0.0557162 1.78413 0
M  V30 6451 C 607.733 -0.00751901 3.38899 0
M  V30 6452 C 606.906 0.97067 4.26494 0
M  V30 6453 C 605.965 0.309129 5.25291 0
M  V30 6454 O 604.991 0.956149 5.61112 0
M  V30 6455 N 606.193 -0.937555 5.72879 0
M  V30 6456 H 608.958 1.59141 2.53957 0
M  V30 6457 H 606.519 0.979515 1.28907 0
M  V30 6458 H 608.511 -0.461238 4.02063 0
M  V30 6459 H 607.081 -0.813353 3.01833 0
M  V30 6460 H 606.301 1.603 3.60135 0
M  V30 6461 H 607.589 1.63323 4.81875 0
M  V30 6462 H 606.987 -1.48281 5.4592 0
M  V30 6463 H 605.544 -1.33463 6.3799 0
M  V30 6464 N 608.977 -1.30795 0.87923 0
M  V30 6465 C 610.223 -1.96653 0.495519 0
M  V30 6466 C 610.556 -1.69282 -0.951703 0
M  V30 6467 O 609.831 -0.994374 -1.6716 0
M  V30 6468 C 610.114 -3.51898 0.764174 0
M  V30 6469 C 609.967 -3.88808 2.2616 0
M  V30 6470 C 611.286 -4.39462 0.236825 0
M  V30 6471 H 608.405 -0.7143 0.181507 0
M  V30 6472 H 611.047 -1.54765 1.10217 0
M  V30 6473 H 609.197 -3.87709 0.247841 0
M  V30 6474 H 610.869 -3.63051 2.8459 0
M  V30 6475 H 609.112 -3.37082 2.73053 0
M  V30 6476 H 609.783 -4.97086 2.4002 0
M  V30 6477 H 612.259 -4.10528 0.678683 0
M  V30 6478 H 611.135 -5.47018 0.454176 0
M  V30 6479 H 611.396 -4.33621 -0.861683 0
M  V30 6480 N 610.455 -0.639598 -1.44038 0
M  V30 6481 C 611.866 -0.228866 -1.85292 0
M  V30 6482 C 612.217 1.22161 -1.53529 0
M  V30 6483 O 611.342 1.93064 -0.977518 0
M  V30 6484 C 611.937 -0.408592 -3.36327 0
M  V30 6485 C 610.496 -0.0522953 -3.76364 0
M  V30 6486 C 609.643 -0.717959 -2.67844 0
M  V30 6487 H 612.594 -0.844194 -1.34384 0
M  V30 6488 H 612.615 0.349968 -3.78887 0
M  V30 6489 H 612.127 -1.46435 -3.59414 0
M  V30 6490 H 610.228 1.0014 -3.58891 0
M  V30 6491 H 610.341 -0.468261 -4.76806 0
M  V30 6492 H 608.705 -0.152459 -2.54243 0
M  V30 6493 H 609.488 -1.77648 -2.93762 0
M  V30 6494 N 611.933 1.52934 -0.380664 0
M  V30 6495 C 613.158 2.06363 0.207157 0
M  V30 6496 C 613.583 1.25122 1.4045 0
M  V30 6497 O 612.941 0.274062 1.79217 0
M  V30 6498 C 612.989 3.56162 0.563996 0
M  V30 6499 O 612.093 3.77552 1.65917 0
M  V30 6500 H 611.434 0.663468 0.0265859 0
M  V30 6501 H 613.964 1.9719 -0.545635 0
M  V30 6502 H 613.974 3.99453 0.830752 0
M  V30 6503 H 612.649 4.14732 -0.311427 0
M  V30 6504 H 611.226 3.46154 1.3868 0
M  V30 6505 N 613.412 0.11024 1.57214 0
M  V30 6506 C 614.637 -0.561179 1.99664 0
M  V30 6507 C 615.062 -1.59985 0.989266 0
M  V30 6508 O 614.42 -1.81255 -0.0402399 0
M  V30 6509 C 614.468 -1.17189 3.41027 0
M  V30 6510 O 613.572 -2.28755 3.4314 0
M  V30 6511 H 612.913 -0.14101 0.648855 0
M  V30 6512 H 615.443 0.196128 2.03658 0
M  V30 6513 H 615.453 -1.50954 3.79047 0
M  V30 6514 H 614.128 -0.411041 4.13864 0
M  V30 6515 H 612.705 -1.96495 3.16929 0
M  V30 6516 N 614.89 -1.56749 -0.16351 0
M  V30 6517 C 616.139 -1.81626 -0.877211 0
M  V30 6518 C 616.452 -0.688791 -1.83071 0
M  V30 6519 O 617.658 -0.822697 -2.58735 0
M  V30 6520 C 616.114 -3.21858 -1.61045 0
M  V30 6521 C 615.722 -4.42494 -0.700195 0
M  V30 6522 C 617.466 -3.56021 -2.31192 0
M  V30 6523 C 615.373 -5.73748 -1.43412 0
M  V30 6524 H 614.303 -0.67731 -0.331312 0
M  V30 6525 H 616.954 -1.83039 -0.13006 0
M  V30 6526 H 615.336 -3.14784 -2.40264 0
M  V30 6527 H 616.51 -4.60766 0.0555849 0
M  V30 6528 H 614.825 -4.1626 -0.10799 0
M  V30 6529 H 617.422 -4.51333 -2.8671 0
M  V30 6530 H 617.765 -2.81277 -3.06902 0
M  V30 6531 H 618.298 -3.64682 -1.58909 0
M  V30 6532 H 615.037 -6.51543 -0.719186 0
M  V30 6533 H 614.557 -5.5944 -2.16302 0
M  V30 6534 H 616.236 -6.15975 -1.9795 0
M  V30 6535 N 616.368 0.432326 -1.51554 0
M  V30 6536 C 617.298 1.53242 -1.76179 0
M  V30 6537 C 618.279 1.58717 -0.611801 0
M  V30 6538 O 619.464 1.74364 -0.855033 0
M  V30 6539 C 616.594 2.91278 -1.89141 0
M  V30 6540 C 615.548 3.00663 -3.04608 0
M  V30 6541 C 614.874 4.40728 -3.02759 0
M  V30 6542 C 616.174 2.74281 -4.44485 0
M  V30 6543 H 617.868 1.32886 -2.68294 0
M  V30 6544 H 615.414 0.637841 -1.29103 0
M  V30 6545 H 617.367 3.68203 -2.04951 0
M  V30 6546 H 616.091 3.12877 -0.936785 0
M  V30 6547 H 614.75 2.26179 -2.88511 0
M  V30 6548 H 614.398 4.59301 -2.05065 0
M  V30 6549 H 614.098 4.47936 -3.80299 0
M  V30 6550 H 615.622 5.19619 -3.20669 0
M  V30 6551 H 617.036 3.40936 -4.60907 0
M  V30 6552 H 615.433 2.92893 -5.23769 0
M  V30 6553 H 616.503 1.69856 -4.54177 0
M  V30 6554 N 617.846 1.41785 0.688094 0
M  V30 6555 C 619.123 1.32031 1.44316 0
M  V30 6556 C 619.503 -0.0486079 2.11044 0
M  V30 6557 O 618.851 -1.06332 2.02252 0
M  V30 6558 C 619.061 2.47906 2.45649 0
M  V30 6559 C 620.409 2.89415 3.10683 0
M  V30 6560 O 621.433 2.477 2.55975 0
M  V30 6561 O 620.292 3.61573 4.09789 0
M  V30 6562 H 617.386 0.519994 0.643067 0
M  V30 6563 H 619.932 1.53765 0.71794 0
M  V30 6564 H 618.704 3.39222 1.95048 0
M  V30 6565 H 618.327 2.28089 3.25671 0
M  V30 6566 N 619.324 -0.923095 1.27737 0
M  V30 6567 C 620.254 -2.04124 1.13383 0
M  V30 6568 C 621.235 -1.70066 0.0340658 0
M  V30 6569 O 622.42 -1.93068 0.209383 0
M  V30 6570 C 619.55 -3.3831 0.785097 0
M  V30 6571 C 618.504 -3.86496 1.8386 0
M  V30 6572 C 617.83 -5.1754 1.34373 0
M  V30 6573 C 619.13 -4.09381 3.24353 0
M  V30 6574 H 620.824 -2.1639 2.06919 0
M  V30 6575 H 618.37 -1.03976 0.996243 0
M  V30 6576 H 620.323 -4.16016 0.671485 0
M  V30 6577 H 619.047 -3.2607 -0.185969 0
M  V30 6578 H 617.706 -3.10987 1.9412 0
M  V30 6579 H 617.354 -5.01696 0.361989 0
M  V30 6580 H 617.054 -5.50751 2.04811 0
M  V30 6581 H 618.578 -5.97811 1.24315 0
M  V30 6582 H 619.992 -4.77641 3.17067 0
M  V30 6583 H 618.389 -4.53906 3.92542 0
M  V30 6584 H 619.459 -3.14515 3.69064 0
M  V30 6585 N 620.802 -1.09834 -1.13024 0
M  V30 6586 C 622.048 -0.83819 -1.84668 0
M  V30 6587 C 622.381 0.634645 -1.83537 0
M  V30 6588 O 621.656 1.46753 -1.27647 0
M  V30 6589 C 621.939 -1.37933 -3.32636 0
M  V30 6590 C 621.792 -2.91857 -3.42257 0
M  V30 6591 C 623.111 -1.01654 -4.28199 0
M  V30 6592 H 620.23 -0.30595 -0.670495 0
M  V30 6593 H 622.872 -1.36044 -1.32635 0
M  V30 6594 H 621.022 -0.935111 -3.77078 0
M  V30 6595 H 622.694 -3.44759 -3.06495 0
M  V30 6596 H 620.937 -3.28776 -2.83 0
M  V30 6597 H 621.608 -3.24799 -4.46329 0
M  V30 6598 H 624.084 -1.39973 -3.9185 0
M  V30 6599 H 622.96 -1.42217 -5.30156 0
M  V30 6600 H 623.221 0.0747794 -4.42037 0
M  V30 6601 N 622.28 1.30327 -0.886154 0
M  V30 6602 C 623.557 1.90922 -0.425217 0
M  V30 6603 C 623.937 1.80533 1.09413 0
M  V30 6604 O 623.285 1.2233 1.92996 0
M  V30 6605 C 623.495 3.36529 -0.924638 0
M  V30 6606 C 624.843 4.13598 -0.960305 0
M  V30 6607 O 625.867 3.45377 -0.871382 0
M  V30 6608 O 624.726 5.35482 -1.09184 0
M  V30 6609 H 621.82 0.81668 -0.130238 0
M  V30 6610 H 624.366 1.38886 -0.975132 0
M  V30 6611 H 623.138 3.38181 -1.96849 0
M  V30 6612 H 622.761 3.96021 -0.353955 0
M  V30 6613 N 623.758 0.647228 1.43697 0
M  V30 6614 C 625.035 0.0883758 1.954 0
M  V30 6615 C 625.415 -1.39006 1.58873 0
M  V30 6616 O 624.763 -2.11255 0.87083 0
M  V30 6617 C 624.973 0.328263 3.47453 0
M  V30 6618 C 626.321 0.230009 4.23977 0
M  V30 6619 O 627.345 0.260496 3.55246 0
M  V30 6620 O 626.204 0.148615 5.46298 0
M  V30 6621 H 623.298 -0.0130683 0.826897 0
M  V30 6622 H 625.844 0.72005 1.53666 0
M  V30 6623 H 624.616 1.3535 3.67146 0
M  V30 6624 H 624.239 -0.336772 3.96171 0
M  V30 6625 N 625.236 -1.5273 0.388769 0
M  V30 6626 C 626.186 -2.23238 -0.463567 0
M  V30 6627 C 627.17 -1.23606 -1.03007 0
M  V30 6628 O 628.362 -1.48945 -0.956261 0
M  V30 6629 C 625.491 -3.04228 -1.5906 0
M  V30 6630 C 624.577 -4.11255 -1.03587 0
M  V30 6631 N 624.968 -5.0538 -0.206038 0
M  V30 6632 C 623.266 -4.26376 -1.30841 0
M  V30 6633 C 623.967 -5.81613 0.100359 0
M  V30 6634 N 622.943 -5.41264 -0.503447 0
M  V30 6635 H 626.745 -2.93367 0.176978 0
M  V30 6636 H 624.259 -1.61188 0.198046 0
M  V30 6637 H 626.256 -3.53277 -2.21362 0
M  V30 6638 H 624.916 -2.35634 -2.23398 0
M  V30 6639 H 625.927 -5.17663 0.156659 0
M  V30 6640 H 622.604 -3.69011 -1.95287 0
M  V30 6641 H 623.994 -6.67442 0.772676 0
M  V30 6642 N 626.714 -0.118576 -1.57153 0
M  V30 6643 C 627.664 0.842924 -2.11846 0
M  V30 6644 C 628.648 1.22845 -1.03914 0
M  V30 6645 O 629.84 1.19961 -1.30148 0
M  V30 6646 C 626.969 2.09312 -2.72109 0
M  V30 6647 C 626.055 1.73198 -3.87122 0
M  V30 6648 N 626.446 1.07758 -4.94188 0
M  V30 6649 C 624.744 2.02659 -3.97298 0
M  V30 6650 C 625.445 0.907741 -5.74574 0
M  V30 6651 N 624.421 1.4326 -5.24383 0
M  V30 6652 H 628.223 0.333416 -2.92003 0
M  V30 6653 H 625.737 0.0839073 -1.62183 0
M  V30 6654 H 627.734 2.79162 -3.09635 0
M  V30 6655 H 626.394 2.60807 -1.93416 0
M  V30 6656 H 627.405 0.741613 -5.12563 0
M  V30 6657 H 624.082 2.56204 -3.29645 0
M  V30 6658 H 625.472 0.394112 -6.70743 0
M  V30 6659 N 628.193 1.56834 0.155195 0
M  V30 6660 C 629.441 1.82536 0.867462 0
M  V30 6661 C 629.762 0.698168 1.82073 0
M  V30 6662 O 629.032 -0.280807 1.93877 0
M  V30 6663 H 627.612 0.673401 0.323327 0
M  V30 6664 H 630.274 1.94313 0.151156 0
M  V30 6665 H 629.37 2.77171 1.43466 0
M  V30 6666 N 629.671 -0.424282 1.51781 0
M  V30 6667 C 630.896 -1.19928 1.6921 0
M  V30 6668 C 631.321 -1.8392 0.394355 0
M  V30 6669 O 630.679 -1.69371 -0.646778 0
M  V30 6670 C 630.727 -2.24937 2.81843 0
M  V30 6671 O 629.831 -3.3073 2.46356 0
M  V30 6672 H 629.172 -0.35078 0.563781 0
M  V30 6673 H 631.702 -0.499401 1.98412 0
M  V30 6674 H 631.712 -2.69512 3.06312 0
M  V30 6675 H 630.387 -1.77742 3.76006 0
M  V30 6676 H 628.964 -2.9154 2.32505 0
M  V30 6677 N 631.149 -1.42148 -0.680565 0
M  V30 6678 C 632.377 -1.45696 -1.46902 0
M  V30 6679 C 632.792 -0.0665858 -1.88683 0
M  V30 6680 O 632.149 0.917436 -1.57764 0
M  V30 6681 C 632.2 -2.37898 -2.72188 0
M  V30 6682 O 631.921 -3.71526 -2.32163 0
M  V30 6683 C 633.422 -2.50407 -3.65802 0
M  V30 6684 H 630.642 -0.495729 -0.45221 0
M  V30 6685 H 633.186 -1.866 -0.836709 0
M  V30 6686 H 631.341 -2.00263 -3.31622 0
M  V30 6687 H 631.755 -4.20849 -3.13027 0
M  V30 6688 H 633.229 -3.19056 -4.50452 0
M  V30 6689 H 633.706 -1.5401 -4.11312 0
M  V30 6690 H 634.312 -2.8874 -3.12265 0
M  V30 6691 N 632.627 0.916307 -1.28225 0
M  V30 6692 C 633.875 1.6619 -1.15002 0
M  V30 6693 C 634.196 1.92642 0.302329 0
M  V30 6694 O 633.466 1.54076 1.20985 0
M  V30 6695 H 632.046 0.615964 -0.422608 0
M  V30 6696 H 634.708 1.09963 -1.60917 0
M  V30 6697 H 633.804 2.62533 -1.68769 0
M  V30 6698 N 634.105 1.10431 1.1244 0
M  V30 6699 C 635.353 0.845045 1.83585 0
M  V30 6700 C 635.674 -0.631168 1.84503 0
M  V30 6701 O 634.944 -1.45825 1.30813 0
M  V30 6702 H 633.524 0.309628 0.679809 0
M  V30 6703 H 636.186 1.39458 1.36153 0
M  V30 6704 H 635.282 1.20786 2.8778 0
M  V30 6705 N 635.583 -1.29855 0.893053 0
M  V30 6706 C 636.515 -2.26911 0.32311 0
M  V30 6707 C 637.528 -1.54039 -0.526858 0
M  V30 6708 O 638.717 -1.75132 -0.345095 0
M  V30 6709 C 635.817 -3.34266 -0.558509 0
M  V30 6710 C 634.99 -4.36601 0.264222 0
M  V30 6711 C 634.049 -5.23326 -0.549171 0
M  V30 6712 O 633.075 -5.69192 0.0309883 0
M  V30 6713 N 634.277 -5.50008 -1.85664 0
M  V30 6714 H 637.042 -2.76455 1.15726 0
M  V30 6715 H 634.603 -1.4312 0.756859 0
M  V30 6716 H 636.595 -3.89211 -1.1089 0
M  V30 6717 H 635.165 -2.8459 -1.29334 0
M  V30 6718 H 634.385 -3.81409 0.996046 0
M  V30 6719 H 635.673 -5.02019 0.827906 0
M  V30 6720 H 635.071 -5.14542 -2.35081 0
M  V30 6721 H 633.628 -6.07796 -2.35431 0
M  V30 6722 N 637.061 -0.65484 -1.43351 0
M  V30 6723 C 638.289 -0.176685 -2.06144 0
M  V30 6724 C 638.704 1.15831 -1.49093 0
M  V30 6725 O 638.061 1.71542 -0.622868 0
M  V30 6726 C 638.112 -0.0813326 -3.61408 0
M  V30 6727 O 637.833 -1.36355 -4.1634 0
M  V30 6728 C 639.334 0.422706 -4.4128 0
M  V30 6729 H 636.554 -0.0906429 -0.66485 0
M  V30 6730 H 639.098 -0.895945 -1.83829 0
M  V30 6731 H 637.253 0.588496 -3.82904 0
M  V30 6732 H 637.667 -1.22381 -5.10023 0
M  V30 6733 H 639.141 0.438375 -5.50257 0
M  V30 6734 H 639.618 1.45432 -4.14423 0
M  V30 6735 H 640.224 -0.214687 -4.24758 0
M  V30 6736 N 638.539 1.52521 -0.396863 0
M  V30 6737 C 639.785 2.01971 0.183169 0
M  V30 6738 C 640.118 1.2825 1.45827 0
M  V30 6739 O 639.393 0.385179 1.90648 0
M  V30 6740 C 639.676 3.5736 0.443391 0
M  V30 6741 C 639.529 4.41743 -0.84753 0
M  V30 6742 C 640.848 4.22539 1.2308 0
M  V30 6743 H 637.967 0.734119 0.0650976 0
M  V30 6744 H 640.609 1.82519 -0.527918 0
M  V30 6745 H 638.759 3.74066 1.04914 0
M  V30 6746 H 640.431 4.36773 -1.48414 0
M  V30 6747 H 638.674 4.0845 -1.4612 0
M  V30 6748 H 639.345 5.48507 -0.620003 0
M  V30 6749 H 641.821 4.09857 0.718084 0
M  V30 6750 H 640.697 5.31227 1.38162 0
M  V30 6751 H 640.958 3.80675 2.24808 0
M  V30 6752 N 640.017 0.126909 1.57088 0
M  V30 6753 C 641.433 -0.229641 1.57939 0
M  V30 6754 C 641.633 -1.66145 1.1401 0
M  V30 6755 O 640.689 -2.3843 0.831119 0
M  V30 6756 C 642.002 0.0108648 3.00698 0
M  V30 6757 C 643.55 -0.054418 3.12953 0
M  V30 6758 C 644.025 0.158497 4.57726 0
M  V30 6759 N 645.516 0.104735 4.63082 0
M  V30 6760 C 646.251 0.24427 5.72879 0
M  V30 6761 N 645.747 0.440415 6.91399 0
M  V30 6762 N 647.54 0.183286 5.61801 0
M  V30 6763 H 639.691 1.06203 1.83942 0
M  V30 6764 H 641.954 0.418834 0.85046 0
M  V30 6765 H 641.66 1.00102 3.37154 0
M  V30 6766 H 641.534 -0.717512 3.70313 0
M  V30 6767 H 643.921 -1.0351 2.7635 0
M  V30 6768 H 644.002 0.705967 2.45865 0
M  V30 6769 H 643.646 1.13619 4.95028 0
M  V30 6770 H 643.576 -0.62197 5.22914 0
M  V30 6771 H 646.067 -0.0430298 3.77876 0
M  V30 6772 H 646.38 0.537536 7.70928 0
M  V30 6773 H 644.725 0.476488 6.93365 0
M  V30 6774 H 647.916 0.0309561 4.6809 0
M  V30 6775 H 648.089 0.295471 6.47326 0
M  V30 6776 N 641.495 -1.56914 -0.146875 0
M  V30 6777 C 642.735 -1.85163 -0.86568 0
M  V30 6778 C 643.099 -0.711215 -1.78342 0
M  V30 6779 O 644.3 -0.874754 -2.54168 0
M  V30 6780 C 642.571 -3.18593 -1.61967 0
M  V30 6781 S 644.13 -3.68397 -2.38388 0
M  V30 6782 H 640.948 -0.6494 -0.289483 0
M  V30 6783 H 643.55 -1.95096 -0.125679 0
M  V30 6784 H 642.254 -3.99562 -0.93694 0
M  V30 6785 H 641.785 -3.11666 -2.40058 0
M  V30 6786 H 643.8 -3.37672 -3.63582 0
M  V30 6787 N 642.974 0.416227 -1.52004 0
M  V30 6788 C 644.202 1.18573 -1.69553 0
M  V30 6789 C 644.617 1.84472 -0.401919 0
M  V30 6790 O 643.974 1.71593 0.621463 0
M  V30 6791 C 644.025 2.25413 -2.82615 0
M  V30 6792 O 643.746 1.62205 -4.06966 0
M  V30 6793 C 645.247 3.15297 -3.11613 0
M  V30 6794 H 642.467 0.356582 -0.56841 0
M  V30 6795 H 645.011 0.490618 -1.98528 0
M  V30 6796 H 643.166 2.90604 -2.56179 0
M  V30 6797 H 643.58 2.3298 -4.69916 0
M  V30 6798 H 645.054 3.86351 -3.94255 0
M  V30 6799 H 645.531 3.77264 -2.24874 0
M  V30 6800 H 646.137 2.55783 -3.39787 0
M  V30 6801 N 644.452 1.42507 0.673017 0
M  V30 6802 C 645.415 1.4582 1.76831 0
M  V30 6803 C 646.415 0.345542 1.57043 0
M  V30 6804 O 647.605 0.606447 1.63303 0
M  V30 6805 C 644.737 1.29158 3.15485 0
M  V30 6806 H 645.93 2.43345 1.7528 0
M  V30 6807 H 643.483 1.28981 0.882817 0
M  V30 6808 H 644.218 0.325626 3.22661 0
M  V30 6809 H 644.003 2.09797 3.31252 0
M  V30 6810 H 645.493 1.34363 3.95394 0
M  V30 6811 N 645.93 -0.909495 1.28709 0
M  V30 6812 C 646.84 -2.04558 1.14861 0
M  V30 6813 C 647.856 -1.73842 0.0741621 0
M  V30 6814 O 649.032 -1.99383 0.2843 0
M  V30 6815 C 646.097 -3.36957 0.816148 0
M  V30 6816 C 645.158 -3.81255 1.97341 0
M  V30 6817 C 644.391 -5.07335 1.65671 0
M  V30 6818 O 644.614 -5.67514 0.573053 0
M  V30 6819 O 643.548 -5.47449 2.50167 0
M  V30 6820 H 647.374 -2.19161 2.10243 0
M  V30 6821 H 644.959 -1.03159 1.08068 0
M  V30 6822 H 646.841 -4.16436 0.644873 0
M  V30 6823 H 645.516 -3.2352 -0.107983 0
M  V30 6824 H 644.423 -3.02584 2.19986 0
M  V30 6825 H 645.756 -3.99261 2.87839 0
M  V30 6826 N 647.408 -1.11026 -1.11852 0
M  V30 6827 C 648.656 -0.854769 -1.83134 0
M  V30 6828 C 648.977 0.621375 -1.84835 0
M  V30 6829 O 648.247 1.45129 -1.31584 0
M  V30 6830 H 646.827 -0.313229 -0.678157 0
M  V30 6831 H 649.489 -1.40178 -1.35411 0
M  V30 6832 H 648.585 -1.22311 -2.87135 0
M  V30 6833 N 648.886 1.2938 -0.899927 0
M  V30 6834 C 650.114 1.99691 -0.541386 0
M  V30 6835 C 650.529 1.67355 0.873936 0
M  V30 6836 O 649.886 0.918728 1.57688 0
M  V30 6837 C 649.937 3.54168 -0.72438 0
M  V30 6838 O 649.658 3.85359 -2.08399 0
M  V30 6839 C 651.159 4.41746 -0.370819 0
M  V30 6840 H 648.379 0.638037 -0.207726 0
M  V30 6841 H 650.923 1.6491 -1.20934 0
M  V30 6842 H 649.078 3.87261 -0.103607 0
M  V30 6843 H 649.492 4.80032 -2.11352 0
M  V30 6844 H 650.966 5.49256 -0.549693 0
M  V30 6845 H 651.443 4.33712 0.692148 0
M  V30 6846 H 652.049 4.14125 -0.968543 0
M  V30 6847 N 650.364 0.662433 1.43002 0
M  V30 6848 C 651.775 0.258315 1.84904 0
M  V30 6849 C 652.126 -1.19703 1.55453 0
M  V30 6850 O 651.251 -1.91484 1.00811 0
M  V30 6851 C 651.846 0.462047 3.35635 0
M  V30 6852 C 650.405 0.112165 3.76233 0
M  V30 6853 C 649.552 0.760479 2.66668 0
M  V30 6854 H 652.503 0.865467 1.33024 0
M  V30 6855 H 652.524 -0.289646 3.79396 0
M  V30 6856 H 652.036 1.52135 3.57039 0
M  V30 6857 H 650.137 -0.944179 3.60439 0
M  V30 6858 H 650.25 0.544058 4.76001 0
M  V30 6859 H 648.614 0.192887 2.53969 0
M  V30 6860 H 649.397 1.82299 2.90898 0
M  V30 6861 N 651.842 -1.52309 0.404946 0
M  V30 6862 C 652.772 -2.29805 -0.41376 0
M  V30 6863 C 653.753 -1.3384 -1.0498 0
M  V30 6864 O 654.938 -1.62745 -1.05961 0
M  V30 6865 C 652.068 -3.11639 -1.53292 0
M  V30 6866 C 651.022 -4.15616 -1.02211 0
M  V30 6867 C 650.348 -4.8577 -2.23455 0
M  V30 6868 C 651.648 -5.2224 -0.0790725 0
M  V30 6869 H 653.342 -2.98493 0.232878 0
M  V30 6870 H 650.888 -1.43552 0.113441 0
M  V30 6871 H 652.841 -3.64618 -2.11262 0
M  V30 6872 H 651.565 -2.40712 -2.20738 0
M  V30 6873 H 650.224 -3.63641 -0.46484 0
M  V30 6874 H 649.872 -4.11376 -2.89445 0
M  V30 6875 H 649.572 -5.56058 -1.89929 0
M  V30 6876 H 651.096 -5.4156 -2.82038 0
M  V30 6877 H 652.51 -5.70485 -0.567438 0
M  V30 6878 H 650.907 -5.99867 0.167167 0
M  V30 6879 H 651.977 -4.77078 0.867447 0
M  V30 6880 N 653.32 -0.135238 -1.57019 0
M  V30 6881 C 654.731 0.387521 -1.82634 0
M  V30 6882 C 655.082 1.65528 -1.05332 0
M  V30 6883 O 654.207 2.14381 -0.294926 0
M  V30 6884 C 654.802 0.709852 -3.3128 0
M  V30 6885 C 653.361 1.17718 -3.57518 0
M  V30 6886 C 652.508 0.194183 -2.76619 0
M  V30 6887 H 655.459 -0.360126 -1.5456 0
M  V30 6888 H 655.48 1.5657 -3.46794 0
M  V30 6889 H 654.992 -0.213024 -3.87515 0
M  V30 6890 H 653.093 2.1164 -3.06658 0
M  V30 6891 H 653.206 1.11128 -4.66034 0
M  V30 6892 H 651.57 0.684478 -2.4533 0
M  V30 6893 H 652.353 -0.722076 -3.3562 0
M  V30 6894 N 654.798 1.5699 0.138552 0
M  V30 6895 C 656.075 1.74741 0.87891 0
M  V30 6896 C 656.455 0.705522 1.98961 0
M  V30 6897 O 655.803 -0.274066 2.2685 0
M  V30 6898 C 656.013 3.1909 1.4136 0
M  V30 6899 C 657.361 3.81023 1.87368 0
M  V30 6900 O 658.385 3.22571 1.51084 0
M  V30 6901 O 657.244 4.83722 2.54312 0
M  V30 6902 H 654.338 0.714781 0.415953 0
M  V30 6903 H 656.884 1.69248 0.123817 0
M  V30 6904 H 655.656 3.86424 0.61579 0
M  V30 6905 H 655.279 3.29043 2.23196 0
M  V30 6906 N 656.276 -0.40816 1.52223 0
M  V30 6907 C 657.525 -1.15212 1.65557 0
M  V30 6908 C 657.838 -1.9163 0.392096 0
M  V30 6909 O 659.044 -2.68458 0.405256 0
M  V30 6910 C 657.5 -2.09691 2.92502 0
M  V30 6911 C 657.108 -1.38785 4.25961 0
M  V30 6912 C 658.852 -2.8434 3.152 0
M  V30 6913 C 656.759 -2.31919 5.44029 0
M  V30 6914 H 655.689 -0.433776 0.616729 0
M  V30 6915 H 658.34 -0.4165 1.78711 0
M  V30 6916 H 656.722 -2.8681 2.7305 0
M  V30 6917 H 657.896 -0.670248 4.55899 0
M  V30 6918 H 656.211 -0.761741 4.09373 0
M  V30 6919 H 658.808 -3.54166 4.00587 0
M  V30 6920 H 659.151 -3.47344 2.29473 0
M  V30 6921 H 659.684 -2.14321 3.35129 0
M  V30 6922 H 656.423 -1.7356 6.32105 0
M  V30 6923 H 655.943 -3.0165 5.18428 0
M  V30 6924 H 657.622 -2.92424 5.77146 0
M  V30 6925 N 657.755 -1.42862 -0.66545 0
M  V30 6926 C 658.665 -1.49491 -1.80803 0
M  V30 6927 C 659.681 -0.382914 -1.69734 0
M  V30 6928 O 660.857 -0.635223 -1.9112 0
M  V30 6929 C 657.922 -1.40383 -3.17007 0
M  V30 6930 C 656.983 -2.62152 -3.39963 0
M  V30 6931 C 656.216 -2.53469 -4.69669 0
M  V30 6932 O 656.439 -1.57568 -5.48205 0
M  V30 6933 O 655.373 -3.43763 -4.94075 0
M  V30 6934 H 659.199 -2.45949 -1.78165 0
M  V30 6935 H 656.784 -1.24728 -0.822387 0
M  V30 6936 H 658.666 -1.377 -3.98267 0
M  V30 6937 H 657.341 -0.470546 -3.20262 0
M  V30 6938 H 656.248 -2.70409 -2.58515 0
M  V30 6939 H 657.581 -3.54411 -3.41546 0
M  V30 6940 N 659.233 0.902656 -1.29189 0
M  V30 6941 C 660.479 1.6555 -1.18172 0
M  V30 6942 C 660.834 1.90569 0.264788 0
M  V30 6943 O 660.127 1.50292 1.1884 0
M  V30 6944 C 660.321 3.011 -1.92545 0
M  V30 6945 C 660.15 2.89312 -3.4428 0
M  V30 6946 C 658.92 2.90239 -4.1363 0
M  V30 6947 C 661.118 2.6656 -4.3983 0
M  V30 6948 N 659.1 2.69156 -5.5175 0
M  V30 6949 C 660.471 2.54429 -5.6539 0
M  V30 6950 C 662.526 2.51644 -4.29627 0
M  V30 6951 C 661.229 2.289 -6.81907 0
M  V30 6952 C 663.255 2.27498 -5.45892 0
M  V30 6953 C 662.617 2.16129 -6.70423 0
M  V30 6954 H 658.716 0.611519 -0.48741 0
M  V30 6955 H 661.3 1.06514 -1.62981 0
M  V30 6956 H 659.471 3.58202 -1.50154 0
M  V30 6957 H 661.203 3.65471 -1.73818 0
M  V30 6958 H 657.958 3.01412 -3.65305 0
M  V30 6959 H 658.382 2.61676 -6.24383 0
M  V30 6960 H 663.024 2.59178 -3.34045 0
M  V30 6961 H 660.742 2.20104 -7.77547 0
M  V30 6962 H 664.328 2.16805 -5.39895 0
M  V30 6963 H 663.208 1.97703 -7.5887 0
M  V30 6964 N 660.711 1.11618 1.11262 0
M  V30 6965 C 661.644 0.719995 2.16544 0
M  V30 6966 C 662.622 -0.28471 1.60088 0
M  V30 6967 O 663.806 -0.180693 1.87632 0
M  V30 6968 C 660.933 0.0643302 3.38639 0
M  V30 6969 C 659.979 1.03448 4.13764 0
M  V30 6970 S 660.812 2.55789 4.70459 0
M  V30 6971 C 661.968 1.91529 5.95875 0
M  V30 6972 H 662.201 1.61181 2.49816 0
M  V30 6973 H 659.734 0.934401 1.22916 0
M  V30 6974 H 661.692 -0.307609 4.09346 0
M  V30 6975 H 660.353 -0.804471 3.03623 0
M  V30 6976 H 659.546 0.523188 5.01277 0
M  V30 6977 H 659.148 1.34893 3.48826 0
M  V30 6978 H 661.44 1.25286 6.65815 0
M  V30 6979 H 662.383 2.77047 6.51652 0
M  V30 6980 H 662.791 1.37468 5.47506 0
M  V30 6981 N 662.189 -1.289 0.906776 0
M  V30 6982 C 663.438 -1.9455 0.532262 0
M  V30 6983 C 663.751 -1.72219 -0.927353 0
M  V30 6984 O 664.957 -2.32033 -1.40971 0
M  V30 6985 C 663.413 -3.48438 0.901041 0
M  V30 6986 C 663.021 -3.79558 2.37991 0
M  V30 6987 C 664.765 -4.20284 0.596777 0
M  V30 6988 C 662.672 -5.26723 2.68918 0
M  V30 6989 H 661.602 -0.728259 0.195333 0
M  V30 6990 H 664.253 -1.46519 1.10474 0
M  V30 6991 H 662.635 -3.95162 0.257419 0
M  V30 6992 H 663.809 -3.43668 3.06967 0
M  V30 6993 H 662.124 -3.20868 2.65391 0
M  V30 6994 H 664.721 -5.28612 0.8046 0
M  V30 6995 H 665.064 -4.13694 -0.465072 0
M  V30 6996 H 665.597 -3.79315 1.19855 0
M  V30 6997 H 662.336 -5.38384 3.73928 0
M  V30 6998 H 661.856 -5.63836 2.04571 0
M  V30 6999 H 663.535 -5.94391 2.55555 0
M  V30 7000 N 663.667 -0.670007 -1.42649 0
M  V30 7001 C 664.907 -0.194106 -2.03476 0
M  V30 7002 C 665.271 1.1755 -1.51809 0
M  V30 7003 O 666.472 1.74579 -2.04391 0
M  V30 7004 C 664.743 -0.221828 -3.56711 0
M  V30 7005 S 666.302 0.183772 -4.38415 0
M  V30 7006 H 663.12 -0.0802478 -0.706457 0
M  V30 7007 H 665.722 -0.882092 -1.74469 0
M  V30 7008 H 664.426 -1.22107 -3.91814 0
M  V30 7009 H 663.957 0.486149 -3.90385 0
M  V30 7010 H 665.972 1.41839 -4.75496 0
M  V30 7011 N 665.145 1.52092 -0.413018 0
M  V30 7012 C 666.092 2.27119 0.410558 0
M  V30 7013 C 667.062 1.29692 1.03774 0
M  V30 7014 O 668.247 1.58561 1.06128 0
M  V30 7015 C 665.387 3.09863 1.51918 0
M  V30 7016 C 664.5 4.22252 0.912528 0
M  V30 7017 C 663.635 4.92348 1.99417 0
M  V30 7018 C 662.674 5.96694 1.36466 0
M  V30 7019 N 661.811 6.60292 2.38661 0
M  V30 7020 H 666.651 2.97067 -0.235661 0
M  V30 7021 H 664.188 1.46542 -0.128055 0
M  V30 7022 H 666.146 3.56144 2.17295 0
M  V30 7023 H 664.776 2.42078 2.13537 0
M  V30 7024 H 663.828 3.80113 0.147697 0
M  V30 7025 H 665.14 4.9709 0.412717 0
M  V30 7026 H 664.294 5.42054 2.72512 0
M  V30 7027 H 663.033 4.17087 2.52764 0
M  V30 7028 H 662.038 5.46304 0.61906 0
M  V30 7029 H 663.263 6.73899 0.838827 0
M  V30 7030 H 661.209 5.87858 2.91134 0
M  V30 7031 H 661.126 7.30816 1.93503 0
M  V30 7032 H 662.394 7.14635 3.11314 0
M  V30 7033 N 666.623 0.143563 1.56945 0
M  V30 7034 C 667.9 -0.553285 1.87612 0
M  V30 7035 C 668.28 -1.83195 1.04894 0
M  V30 7036 O 667.628 -2.28102 0.134773 0
M  V30 7037 C 667.838 -0.822055 3.3918 0
M  V30 7038 C 669.186 -1.16435 4.08324 0
M  V30 7039 O 670.21 -0.911522 3.4434 0
M  V30 7040 O 669.069 -1.63996 5.21313 0
M  V30 7041 H 666.163 -0.281851 0.777489 0
M  V30 7042 H 668.709 0.179916 1.68744 0
M  V30 7043 H 667.481 0.0830265 3.91212 0
M  V30 7044 H 667.104 -1.60956 3.63564 0
M  V30 7045 N 668.101 -1.57061 -0.130224 0
M  V30 7046 C 669.35 -1.83446 -0.838488 0
M  V30 7047 C 669.663 -0.727468 -1.81569 0
M  V30 7048 O 670.869 -0.877394 -2.56932 0
M  V30 7049 C 669.325 -3.25201 -1.54182 0
M  V30 7050 C 668.933 -4.4388 -0.606178 0
M  V30 7051 C 670.677 -3.60844 -2.23588 0
M  V30 7052 C 668.584 -5.76661 -1.31209 0
M  V30 7053 H 667.514 -0.684185 -0.316871 0
M  V30 7054 H 670.165 -1.83273 -0.0912059 0
M  V30 7055 H 668.547 -3.1981 -2.33533 0
M  V30 7056 H 669.721 -4.60545 0.153308 0
M  V30 7057 H 668.036 -4.16395 -0.0196705 0
M  V30 7058 H 670.633 -4.57313 -2.77072 0
M  V30 7059 H 670.976 -2.87724 -3.00867 0
M  V30 7060 H 671.509 -3.67971 -1.51137 0
M  V30 7061 H 668.248 -6.52922 -0.580823 0
M  V30 7062 H 667.768 -5.63902 -2.04387 0
M  V30 7063 H 669.447 -6.20035 -1.8484 0
M  V30 7064 N 669.579 0.400081 -1.52437 0
M  V30 7065 C 670.526 1.48803 -1.76426 0
M  V30 7066 C 671.496 1.5461 -0.607032 0
M  V30 7067 O 672.681 1.71041 -0.845563 0
M  V30 7068 C 669.821 2.86156 -1.92896 0
M  V30 7069 C 668.934 2.89587 -3.20567 0
M  V30 7070 C 668.069 4.18296 -3.27417 0
M  V30 7071 C 667.108 4.15736 -4.49255 0
M  V30 7072 N 666.245 5.36032 -4.53447 0
M  V30 7073 H 671.085 1.27649 -2.69276 0
M  V30 7074 H 668.622 0.619451 -1.33421 0
M  V30 7075 H 670.58 3.65901 -2.00429 0
M  V30 7076 H 669.21 3.05785 -1.03418 0
M  V30 7077 H 668.262 2.02278 -3.22161 0
M  V30 7078 H 669.574 2.83562 -4.10358 0
M  V30 7079 H 668.728 5.06439 -3.34072 0
M  V30 7080 H 667.467 4.27028 -2.35581 0
M  V30 7081 H 666.472 3.25982 -4.42737 0
M  V30 7082 H 667.697 4.08636 -5.42396 0
M  V30 7083 H 665.643 5.45415 -3.64498 0
M  V30 7084 H 665.56 5.32038 -5.37096 0
M  V30 7085 H 666.828 6.26104 -4.64343 0
M  V30 7086 N 671.057 1.43213 0.657864 0
M  V30 7087 C 672.004 1.48011 1.77092 0
M  V30 7088 C 672.974 0.330291 1.62783 0
M  V30 7089 O 674.159 0.536787 1.83094 0
M  V30 7090 C 671.299 1.40461 3.15222 0
M  V30 7091 C 670.412 2.65612 3.40697 0
M  V30 7092 C 669.547 2.50083 4.68649 0
M  V30 7093 C 668.586 3.70525 4.87214 0
M  V30 7094 N 667.723 3.53835 6.0642 0
M  V30 7095 H 672.563 2.43121 1.72326 0
M  V30 7096 H 670.1 1.20687 0.841013 0
M  V30 7097 H 672.058 1.34079 3.95068 0
M  V30 7098 H 670.688 0.489359 3.19069 0
M  V30 7099 H 669.74 2.82292 2.54982 0
M  V30 7100 H 671.052 3.5509 3.50303 0
M  V30 7101 H 670.206 2.41383 5.56614 0
M  V30 7102 H 668.945 1.58121 4.61356 0
M  V30 7103 H 667.95 3.79639 3.97686 0
M  V30 7104 H 669.175 4.63489 4.96341 0
M  V30 7105 H 667.121 2.64604 6.00267 0
M  V30 7106 H 667.038 4.36912 6.16963 0
M  V30 7107 H 668.306 3.48978 6.97019 0
M  V30 7108 N 672.536 -0.895792 1.29666 0
M  V30 7109 C 673.776 -1.6609 1.19136 0
M  V30 7110 C 674.14 -1.90336 -0.252245 0
M  V30 7111 O 675.341 -2.64469 -0.480593 0
M  V30 7112 C 673.612 -2.97129 1.98618 0
M  V30 7113 S 675.171 -3.88146 2.04666 0
M  V30 7114 H 671.989 -0.570188 0.424744 0
M  V30 7115 H 674.591 -1.06411 1.64003 0
M  V30 7116 H 673.295 -2.77199 3.02637 0
M  V30 7117 H 672.826 -3.61847 1.54371 0
M  V30 7118 H 674.841 -4.82301 1.16618 0
M  V30 7119 N 674.014 -1.12206 -1.10668 0
M  V30 7120 C 674.962 -0.782918 -2.19028 0
M  V30 7121 C 675.956 0.229175 -1.67843 0
M  V30 7122 O 677.162 0.0876295 -1.79787 0
M  V30 7123 H 673.537 -0.235339 -0.714227 0
M  V30 7124 H 675.508 -1.70527 -2.44874 0
M  V30 7125 C 674.257 -0.25116 -3.46792 0
M  V30 7126 H 673.58 -1.02123 -3.86537 0
M  V30 7127 H 675.02 -0.0521409 -4.23968 0
M  V30 7128 C 673.479 1.02037 -3.21076 0
M  V30 7129 O 674.009 2.09862 -3.42522 0
M  V30 7130 N 672.215 0.946348 -2.74759 0
M  V30 7131 H 671.762 0.068777 -2.57508 0
M  V30 7132 H 671.72 1.79775 -2.57931 0
M  V30 7133 N 675.492 1.28418 -0.913599 0
M  V30 7134 C 676.44 2.29272 -0.392037 0
M  V30 7135 C 677.434 1.61344 0.516198 0
M  V30 7136 O 678.64 1.75557 0.39746 0
M  V30 7137 H 675.015 0.744178 -0.108178 0
M  V30 7138 H 676.986 2.70691 -1.25574 0
M  V30 7139 C 675.735 3.45905 0.352815 0
M  V30 7140 H 675.058 3.98378 -0.336848 0
M  V30 7141 H 676.498 4.18473 0.682398 0
M  V30 7142 C 674.957 2.98572 1.56065 0
M  V30 7143 O 675.487 3.01033 2.65974 0
M  V30 7144 N 673.693 2.54235 1.40759 0
M  V30 7145 H 673.24 2.52432 0.513403 0
M  V30 7146 H 673.198 2.22925 2.21702 0
M  V30 7147 N 676.97 0.677563 1.42291 0
M  V30 7148 C 677.88 0.000962654 2.346 0
M  V30 7149 C 678.896 -0.785833 1.55244 0
M  V30 7150 O 680.072 -0.727523 1.87801 0
M  V30 7151 C 677.137 -0.936746 3.33805 0
M  V30 7152 C 676.198 -0.144173 4.29058 0
M  V30 7153 C 675.431 -1.03722 5.23524 0
M  V30 7154 O 675.654 -2.27675 5.22992 0
M  V30 7155 O 674.588 -0.496542 5.99848 0
M  V30 7156 H 678.414 0.761397 2.94001 0
M  V30 7157 H 675.999 0.43781 1.42841 0
M  V30 7158 H 677.881 -1.47497 3.94744 0
M  V30 7159 H 676.556 -1.67698 2.76874 0
M  V30 7160 H 675.463 0.438224 3.71524 0
M  V30 7161 H 676.796 0.55701 4.89038 0
M  V30 7162 N 678.448 -1.51871 0.421078 0
M  V30 7163 C 679.676 -2.06356 -0.14994 0
M  V30 7164 C 680.091 -1.29006 -1.37851 0
M  V30 7165 O 679.448 -0.345139 -1.79207 0
M  V30 7166 C 679.499 -3.58185 -0.488454 0
M  V30 7167 O 679.22 -4.32611 0.691341 0
M  V30 7168 C 680.721 -4.29129 -1.11191 0
M  V30 7169 H 677.941 -0.67083 -0.0151186 0
M  V30 7170 H 680.485 -1.95638 0.595476 0
M  V30 7171 H 678.64 -3.68871 -1.18376 0
M  V30 7172 H 679.054 -5.22927 0.405906 0
M  V30 7173 H 680.528 -5.36501 -1.29889 0
M  V30 7174 H 681.005 -3.86371 -2.0884 0
M  V30 7175 H 681.611 -4.22843 -0.456458 0
M  V30 7176 N 679.926 -0.151884 -1.56866 0
M  V30 7177 C 681.151 0.508044 -2.01081 0
M  V30 7178 C 681.576 1.57306 -1.03134 0
M  V30 7179 O 680.934 1.81298 -0.0078309 0
M  V30 7180 C 680.982 1.08106 -3.44014 0
M  V30 7181 O 680.086 2.19577 -3.49084 0
M  V30 7182 H 679.427 0.123757 -0.652365 0
M  V30 7183 H 681.957 -0.250055 -2.03066 0
M  V30 7184 H 681.967 1.40851 -3.82916 0
M  V30 7185 H 680.642 0.301168 -4.14808 0
M  V30 7186 H 679.219 1.88023 -3.22027 0
M  V30 7187 N 681.404 1.57128 0.121893 0
M  V30 7188 C 682.65 1.85853 0.826451 0
M  V30 7189 C 683.005 0.739262 1.77631 0
M  V30 7190 O 682.298 -0.260959 1.89815 0
M  V30 7191 C 682.492 3.1874 1.61677 0
M  V30 7192 C 682.321 4.43487 0.744944 0
M  V30 7193 C 681.091 5.03707 0.400891 0
M  V30 7194 C 683.289 5.1426 0.0638779 0
M  V30 7195 N 681.271 6.12006 -0.481902 0
M  V30 7196 C 682.642 6.16281 -0.678033 0
M  V30 7197 C 684.697 4.97898 -0.0128424 0
M  V30 7198 C 683.4 7.0371 -1.48946 0
M  V30 7199 C 685.426 5.85812 -0.81108 0
M  V30 7200 C 684.788 6.87333 -1.54119 0
M  V30 7201 H 680.887 0.730367 0.279442 0
M  V30 7202 H 683.471 1.9449 0.0903486 0
M  V30 7203 H 681.642 3.11204 2.32393 0
M  V30 7204 H 683.374 3.35283 2.26644 0
M  V30 7205 H 680.129 4.67744 0.742469 0
M  V30 7206 H 680.553 6.70787 -0.915063 0
M  V30 7207 H 685.195 4.19372 0.537278 0
M  V30 7208 H 682.913 7.81646 -2.05074 0
M  V30 7209 H 686.499 5.75217 -0.872764 0
M  V30 7210 H 685.379 7.54182 -2.14893 0
M  V30 7211 N 682.882 -0.391992 1.52647 0
M  V30 7212 C 684.11 -1.1586 1.71418 0
M  V30 7213 C 684.525 -1.8381 0.431216 0
M  V30 7214 O 683.882 -1.7256 -0.594085 0
M  V30 7215 C 683.933 -2.20888 2.86165 0
M  V30 7216 O 683.654 -1.5571 4.09495 0
M  V30 7217 C 685.155 -3.103 3.1659 0
M  V30 7218 H 682.375 -0.347494 0.574011 0
M  V30 7219 H 684.919 -0.458972 1.99283 0
M  V30 7220 H 683.074 -2.86492 2.6077 0
M  V30 7221 H 683.488 -2.25474 4.73563 0
M  V30 7222 H 684.962 -3.8003 4.00351 0
M  V30 7223 H 685.439 -3.73639 2.30848 0
M  V30 7224 H 686.045 -2.50345 3.43813 0
M  V30 7225 N 684.36 -1.4356 -0.65026 0
M  V30 7226 C 685.609 -1.44619 -1.406 0
M  V30 7227 C 685.922 -0.0752645 -1.95455 0
M  V30 7228 O 687.128 0.0366832 -2.71475 0
M  V30 7229 C 685.584 -2.54511 -2.54465 0
M  V30 7230 C 685.192 -3.97723 -2.06204 0
M  V30 7231 C 686.936 -2.64768 -3.31811 0
M  V30 7232 C 684.843 -4.99075 -3.17298 0
M  V30 7233 H 683.773 -0.537983 -0.52829 0
M  V30 7234 H 686.424 -1.69559 -0.701561 0
M  V30 7235 H 684.806 -2.22777 -3.27393 0
M  V30 7236 H 685.98 -4.38932 -1.40267 0
M  V30 7237 H 684.295 -3.91538 -1.41729 0
M  V30 7238 H 686.892 -3.37664 -4.14593 0
M  V30 7239 H 687.235 -1.69936 -3.80036 0
M  V30 7240 H 687.768 -2.95817 -2.65964 0
M  V30 7241 H 684.507 -5.95469 -2.74038 0
M  V30 7242 H 684.027 -4.62476 -3.81937 0
M  V30 7243 H 685.706 -5.21913 -3.82382 0
M  V30 7244 N 685.838 0.888903 -1.30139 0
M  V30 7245 C 686.768 2.01046 -1.18755 0
M  V30 7246 C 687.749 1.69916 -0.0791438 0
M  V30 7247 O 688.934 1.92445 -0.260498 0
M  V30 7248 C 686.064 3.36109 -0.874518 0
M  V30 7249 C 685.018 3.81486 -1.94043 0
M  V30 7250 C 684.344 5.13796 -1.48047 0
M  V30 7251 C 685.644 4.00637 -3.35093 0
M  V30 7252 H 687.338 2.10828 -2.12584 0
M  V30 7253 H 684.884 1.01298 -1.02346 0
M  V30 7254 H 686.837 4.14089 -0.781548 0
M  V30 7255 H 685.561 3.26449 0.0994519 0
M  V30 7256 H 684.22 3.05731 -2.02297 0
M  V30 7257 H 683.868 5.0056 -0.494878 0
M  V30 7258 H 683.568 5.45127 -2.19341 0
M  V30 7259 H 685.092 5.94305 -1.40121 0
M  V30 7260 H 686.506 4.69067 -3.2962 0
M  V30 7261 H 684.903 4.43339 -4.04438 0
M  V30 7262 H 685.973 3.0462 -3.77273 0
M  V30 7263 N 687.317 1.12792 1.10072 0
M  V30 7264 C 688.28 0.802264 2.14701 0
M  V30 7265 C 689.28 -0.18515 1.59731 0
M  V30 7266 O 690.47 0.041109 1.74151 0
M  V30 7267 C 687.602 0.19285 3.40354 0
M  V30 7268 H 688.795 1.72932 2.45019 0
M  V30 7269 H 686.348 0.931662 1.25498 0
M  V30 7270 H 687.083 -0.743748 3.15656 0
M  V30 7271 H 686.868 0.903827 3.81541 0
M  V30 7272 H 688.358 -0.0183704 4.17596 0
M  V30 7273 N 688.795 -1.27931 0.920396 0
M  V30 7274 C 689.743 -2.29061 0.404191 0
M  V30 7275 C 690.737 -1.61615 -0.507634 0
M  V30 7276 O 691.943 -1.75765 -0.388144 0
M  V30 7277 H 688.318 -0.743594 0.112123 0
M  V30 7278 H 690.289 -2.70021 1.27008 0
M  V30 7279 C 689.038 -3.46088 -0.334466 0
M  V30 7280 H 688.361 -3.98194 0.35797 0
M  V30 7281 H 689.801 -4.18829 -0.660196 0
M  V30 7282 C 688.26 -2.99396 -1.54479 0
M  V30 7283 O 688.79 -3.02439 -2.64374 0
M  V30 7284 N 686.996 -2.54978 -1.39408 0
M  V30 7285 H 686.543 -2.52701 -0.500009 0
M  V30 7286 H 686.501 -2.24098 -2.20516 0
M  V30 7287 N 690.273 -0.685099 -1.4193 0
M  V30 7288 C 691.221 -0.00165985 -2.326 0
M  V30 7289 C 692.215 0.779678 -1.50391 0
M  V30 7290 O 693.421 0.68648 -1.66395 0
M  V30 7291 H 689.796 0.0182616 -0.751778 0
M  V30 7292 H 691.767 -0.783592 -2.87928 0
M  V30 7293 C 690.516 0.928385 -3.35077 0
M  V30 7294 H 689.839 0.336578 -3.98381 0
M  V30 7295 H 691.279 1.37509 -4.01083 0
M  V30 7296 C 689.738 2.03964 -2.68142 0
M  V30 7297 O 690.268 3.12727 -2.5212 0
M  V30 7298 N 688.474 1.81433 -2.27003 0
M  V30 7299 H 688.021 0.929807 -2.40234 0
M  V30 7300 H 687.979 2.55973 -1.82552 0
M  V30 7301 N 691.751 1.51645 -0.429126 0
M  V30 7302 C 692.997 2.02314 0.140286 0
M  V30 7303 C 693.33 1.31314 1.43074 0
M  V30 7304 O 692.605 0.425531 1.89788 0
M  V30 7305 C 692.888 3.5822 0.36749 0
M  V30 7306 C 692.741 4.39846 -0.941039 0
M  V30 7307 C 694.06 4.25055 1.14089 0
M  V30 7308 H 691.179 0.735335 0.0495112 0
M  V30 7309 H 693.821 1.81358 -0.566514 0
M  V30 7310 H 691.971 3.76207 0.969556 0
M  V30 7311 H 693.643 4.33527 -1.57646 0
M  V30 7312 H 691.886 4.05259 -1.54751 0
M  V30 7313 H 692.557 5.47069 -0.73621 0
M  V30 7314 H 695.033 4.11288 0.630986 0
M  V30 7315 H 693.909 5.34038 1.26863 0
M  V30 7316 H 694.17 3.85358 2.16683 0
M  V30 7317 N 693.229 0.160201 1.56784 0
M  V30 7318 C 694.454 -0.497373 2.01348 0
M  V30 7319 C 694.879 -1.56757 1.03966 0
M  V30 7320 O 694.237 -1.81292 0.0174455 0
M  V30 7321 C 694.285 -1.0628 3.44582 0
M  V30 7322 O 693.389 -2.17723 3.50244 0
M  V30 7323 H 692.73 -0.120295 0.653012 0
M  V30 7324 H 695.26 0.260821 2.02931 0
M  V30 7325 H 695.27 -1.38819 3.83658 0
M  V30 7326 H 693.945 -0.279166 4.14962 0
M  V30 7327 H 692.522 -1.86313 3.2302 0
M  V30 7328 N 694.707 -1.5719 -0.113559 0
M  V30 7329 C 695.655 -2.01725 -1.158 0
M  V30 7330 C 696.649 -0.915105 -1.42556 0
M  V30 7331 O 697.855 -1.10031 -1.42454 0
M  V30 7332 H 694.23 -0.64262 -0.390569 0
M  V30 7333 H 696.201 -2.88666 -0.755926 0
M  V30 7334 C 694.95 -2.44203 -2.47507 0
M  V30 7335 H 694.273 -3.28582 -2.27758 0
M  V30 7336 H 695.713 -2.79158 -3.19135 0
M  V30 7337 C 694.172 -1.30785 -3.10478 0
M  V30 7338 O 694.702 -0.626807 -3.9678 0
M  V30 7339 N 692.908 -1.06352 -2.7044 0
M  V30 7340 H 692.455 -1.61913 -2.00355 0
M  V30 7341 H 692.413 -0.306614 -3.12901 0
M  V30 7342 N 696.185 0.383891 -1.52853 0
M  V30 7343 C 697.434 1.12563 -1.67369 0
M  V30 7344 C 697.747 1.90982 -0.422533 0
M  V30 7345 O 698.953 2.6778 -0.447914 0
M  V30 7346 C 697.409 2.05011 -2.95801 0
M  V30 7347 C 697.017 1.31991 -4.28115 0
M  V30 7348 C 698.761 2.79289 -3.19684 0
M  V30 7349 C 696.668 2.23235 -5.4765 0
M  V30 7350 H 695.598 0.42391 -0.623552 0
M  V30 7351 H 698.249 0.388016 -1.79351 0
M  V30 7352 H 696.631 2.82429 -2.77578 0
M  V30 7353 H 697.805 0.597633 -4.56908 0
M  V30 7354 H 696.12 0.696517 -4.10533 0
M  V30 7355 H 698.717 3.47749 -4.06171 0
M  V30 7356 H 699.06 3.43649 -2.3497 0
M  V30 7357 H 699.593 2.08962 -3.38496 0
M  V30 7358 H 696.332 1.63482 -6.34786 0
M  V30 7359 H 695.852 2.93364 -5.23161 0
M  V30 7360 H 697.531 2.83205 -5.81725 0
M  V30 7361 N 697.663 1.43903 0.642637 0
M  V30 7362 C 698.912 1.45362 1.39831 0
M  V30 7363 C 699.225 0.0856289 1.95412 0
M  V30 7364 O 700.431 -0.0222856 2.71491 0
M  V30 7365 C 698.887 2.55857 2.53111 0
M  V30 7366 C 698.495 3.98811 2.04092 0
M  V30 7367 C 700.239 2.66524 3.30402 0
M  V30 7368 C 698.146 5.00751 3.14647 0
M  V30 7369 H 697.076 0.540777 0.52543 0
M  V30 7370 H 699.727 1.69929 0.692559 0
M  V30 7371 H 698.109 2.2451 3.26207 0
M  V30 7372 H 699.283 4.3967 1.37938 0
M  V30 7373 H 697.598 3.92284 1.39651 0
M  V30 7374 H 700.195 3.39858 4.12796 0
M  V30 7375 H 700.538 1.71949 3.79129 0
M  V30 7376 H 701.071 2.97224 2.64392 0
M  V30 7377 H 697.81 5.96914 2.70876 0
M  V30 7378 H 697.33 4.64495 3.79479 0
M  V30 7379 H 699.009 5.23933 3.79609 0
M  V30 7380 N 699.141 -0.881989 1.30609 0
M  V30 7381 C 700.369 -1.66711 1.22536 0
M  V30 7382 C 700.784 -1.87614 -0.2113 0
M  V30 7383 O 700.141 -1.42576 -1.13923 0
M  V30 7384 C 700.192 -3.04182 1.95335 0
M  V30 7385 O 699.913 -2.8422 3.33393 0
M  V30 7386 C 701.414 -3.98617 1.93956 0
M  V30 7387 H 698.634 -0.520124 0.423925 0
M  V30 7388 H 701.178 -1.10174 1.72285 0
M  V30 7389 H 699.333 -3.57442 1.49378 0
M  V30 7390 H 699.747 -3.71452 3.70302 0
M  V30 7391 H 701.221 -4.92433 2.49426 0
M  V30 7392 H 701.698 -4.29473 0.919198 0
M  V30 7393 H 702.304 -3.51292 2.39738 0
M  V30 7394 N 700.619 -1.13374 -1.09472 0
M  V30 7395 C 701.529 -0.824029 -2.19652 0
M  V30 7396 C 702.545 0.19118 -1.72947 0
M  V30 7397 O 703.721 0.0223464 -2.01388 0
M  V30 7398 C 700.786 -0.294009 -3.45451 0
M  V30 7399 C 699.847 -1.3704 -4.0684 0
M  V30 7400 C 699.08 -0.86558 -5.26634 0
M  V30 7401 O 699.303 0.29702 -5.69626 0
M  V30 7402 O 698.237 -1.63968 -5.79136 0
M  V30 7403 H 702.063 -1.74454 -2.48595 0
M  V30 7404 H 699.648 -0.911155 -1.18399 0
M  V30 7405 H 701.53 -0.00381039 -4.214 0
M  V30 7406 H 700.205 0.598921 -3.18111 0
M  V30 7407 H 699.112 -1.71391 -3.3253 0
M  V30 7408 H 700.445 -2.23746 -4.38405 0
M  V30 7409 N 702.098 1.27442 -0.927168 0
M  V30 7410 C 703.347 1.93679 -0.563146 0
M  V30 7411 C 703.66 1.73673 0.899837 0
M  V30 7412 O 704.866 2.34247 1.37262 0
M  V30 7413 C 703.322 3.46961 -0.95636 0
M  V30 7414 C 702.93 3.75724 -2.43999 0
M  V30 7415 C 704.674 4.19282 -0.663565 0
M  V30 7416 C 702.581 5.22378 -2.77263 0
M  V30 7417 H 701.511 0.725059 -0.206894 0
M  V30 7418 H 704.162 1.44743 -1.12791 0
M  V30 7419 H 702.544 3.94703 -0.320254 0
M  V30 7420 H 703.718 3.38741 -3.12396 0
M  V30 7421 H 702.033 3.16605 -2.70463 0
M  V30 7422 H 704.63 5.27265 -0.888596 0
M  V30 7423 H 704.973 4.14382 0.399198 0
M  V30 7424 H 705.506 3.7736 -1.25875 0
M  V30 7425 H 702.245 5.32367 -3.82446 0
M  V30 7426 H 701.765 5.6051 -2.13516 0
M  V30 7427 H 703.444 5.9025 -2.64979 0
M  V30 7428 N 703.576 0.692616 1.41565 0
M  V30 7429 C 704.526 0.00231847 2.28 0
M  V30 7430 C 705.51 -0.755793 1.42044 0
M  V30 7431 O 706.702 -0.631772 1.65341 0
M  V30 7432 C 703.831 -0.935468 3.30309 0
M  V30 7433 C 702.917 -0.173761 4.23744 0
M  V30 7434 N 703.308 0.830872 4.98929 0
M  V30 7435 C 701.606 -0.409666 4.44115 0
M  V30 7436 C 702.307 1.28656 5.67294 0
M  V30 7437 N 701.283 0.613053 5.40132 0
M  V30 7438 H 705.085 0.772635 2.83562 0
M  V30 7439 H 702.599 0.523198 1.53741 0
M  V30 7440 H 704.596 -1.44513 3.91052 0
M  V30 7441 H 703.256 -1.70542 2.76307 0
M  V30 7442 H 704.267 1.21101 5.03542 0
M  V30 7443 H 700.944 -1.15773 4.01127 0
M  V30 7444 H 702.334 2.12006 6.37576 0
M  V30 7445 N 705.054 -1.51416 0.437162 0
M  V30 7446 C 706.279 -2.0699 -0.130424 0
M  V30 7447 C 706.704 -1.30249 -1.35709 0
M  V30 7448 O 706.062 -0.340388 -1.78076 0
M  V30 7449 C 706.11 -3.5801 -0.43142 0
M  V30 7450 O 705.214 -3.8345 -1.5179 0
M  V30 7451 H 704.555 -0.663997 -0.00194339 0
M  V30 7452 H 707.085 -1.95029 0.618445 0
M  V30 7453 H 707.095 -4.02261 -0.681926 0
M  V30 7454 H 705.77 -4.13291 0.465137 0
M  V30 7455 H 704.347 -3.51062 -1.25737 0
M  V30 7456 N 706.532 -0.168513 -1.56696 0
M  V30 7457 C 707.948 0.187686 -1.58493 0
M  V30 7458 C 708.148 1.63063 -1.18375 0
M  V30 7459 O 707.204 2.36142 -0.894042 0
M  V30 7460 C 708.517 -0.0905858 -3.00564 0
M  V30 7461 C 710.065 -0.028575 -3.12987 0
M  V30 7462 C 710.54 -0.279799 -4.57145 0
M  V30 7463 N 712.031 -0.227476 -4.62641 0
M  V30 7464 C 712.766 -0.396073 -5.7203 0
M  V30 7465 N 712.262 -0.623572 -6.89988 0
M  V30 7466 N 714.055 -0.332173 -5.61118 0
M  V30 7467 H 706.206 -1.11042 -1.81062 0
M  V30 7468 H 708.469 -0.441235 -0.839056 0
M  V30 7469 H 708.175 -1.09006 -3.34381 0
M  V30 7470 H 708.049 0.619078 -3.72085 0
M  V30 7471 H 710.436 0.961471 -2.78998 0
M  V30 7472 H 710.517 -0.770905 -2.43907 0
M  V30 7473 H 710.161 -1.26704 -4.91842 0
M  V30 7474 H 710.091 0.48311 -5.24379 0
M  V30 7475 H 712.582 -0.0571723 -3.77857 0
M  V30 7476 H 712.895 -0.741745 -7.69232 0
M  V30 7477 H 711.24 -0.660153 -6.91858 0
M  V30 7478 H 714.431 -0.155051 -4.67843 0
M  V30 7479 H 714.604 -0.466994 -6.46315 0
M  V30 7480 N 708.01 1.57248 0.105221 0
M  V30 7481 C 709.287 1.76566 0.841647 0
M  V30 7482 C 709.667 0.747566 1.9742 0
M  V30 7483 O 709.015 -0.225886 2.27381 0
M  V30 7484 C 709.225 3.22016 1.3456 0
M  V30 7485 C 710.573 3.84911 1.79244 0
M  V30 7486 O 711.597 3.25703 1.44207 0
M  V30 7487 O 710.456 4.89008 2.43995 0
M  V30 7488 H 707.55 0.723443 0.400698 0
M  V30 7489 H 710.096 1.69472 0.0878893 0
M  V30 7490 H 708.868 3.87644 0.533685 0
M  V30 7491 H 708.491 3.33703 2.16167 0
M  V30 7492 N 709.488 -0.375779 1.53054 0
M  V30 7493 C 710.904 -0.716764 1.426 0
M  V30 7494 C 711.104 -1.93651 0.556931 0
M  V30 7495 O 710.16 -2.52475 0.0354461 0
M  V30 7496 C 711.473 -0.939499 2.85646 0
M  V30 7497 C 713.021 -1.04015 2.95212 0
M  V30 7498 C 713.496 -1.29543 4.39298 0
M  V30 7499 N 714.987 -1.36335 4.42682 0
M  V30 7500 C 715.722 -1.57778 5.51266 0
M  V30 7501 N 715.218 -1.76604 6.69913 0
M  V30 7502 N 717.011 -1.60065 5.38828 0
M  V30 7503 H 709.162 0.42664 2.08071 0
M  V30 7504 H 711.425 0.128758 0.939215 0
M  V30 7505 H 711.131 -0.115189 3.51511 0
M  V30 7506 H 711.005 -1.85048 3.2869 0
M  V30 7507 H 713.392 -1.85501 2.29507 0
M  V30 7508 H 713.473 -0.106785 2.55577 0
M  V30 7509 H 713.117 -0.485611 5.05573 0
M  V30 7510 H 713.047 -2.24184 4.76497 0
M  V30 7511 H 715.538 -1.23441 3.5717 0
M  V30 7512 H 715.851 -1.9251 7.48438 0
M  V30 7513 H 714.196 -1.73802 6.72917 0
M  V30 7514 H 717.387 -1.44917 4.45103 0
M  V30 7515 H 717.56 -1.76435 6.23518 0
M  V30 7516 N 710.966 -1.44241 -0.634997 0
M  V30 7517 C 712.191 -1.50516 -1.42687 0
M  V30 7518 C 712.616 -0.129864 -1.87651 0
M  V30 7519 O 711.974 0.880164 -1.58502 0
M  V30 7520 C 712.022 -2.4714 -2.62591 0
M  V30 7521 O 711.126 -1.97025 -3.62291 0
M  V30 7522 H 710.467 -0.50841 -0.427101 0
M  V30 7523 H 712.997 -1.89337 -0.775408 0
M  V30 7524 H 713.007 -2.65048 -3.10183 0
M  V30 7525 H 711.682 -3.47039 -2.29209 0
M  V30 7526 H 710.259 -1.88866 -3.21534 0
M  V30 7527 N 712.444 0.87505 -1.31075 0
M  V30 7528 C 713.672 1.66058 -1.23419 0
M  V30 7529 C 714.087 1.87723 0.201347 0
M  V30 7530 O 713.444 1.43178 1.13165 0
M  V30 7531 C 713.495 3.03142 -1.96945 0
M  V30 7532 O 713.216 2.82448 -3.34895 0
M  V30 7533 C 714.717 3.97583 -1.96067 0
M  V30 7534 H 711.937 0.517868 -0.426677 0
M  V30 7535 H 714.481 1.09258 -1.72867 0
M  V30 7536 H 712.636 3.56645 -1.51271 0
M  V30 7537 H 713.05 3.69483 -3.72267 0
M  V30 7538 H 714.524 4.91104 -2.52034 0
M  V30 7539 H 715.001 4.2898 -0.941961 0
M  V30 7540 H 715.607 3.50015 -2.41597 0
M  V30 7541 N 713.922 1.13953 1.08869 0
M  V30 7542 C 715.168 0.906151 1.8143 0
M  V30 7543 C 715.501 -0.566089 1.85766 0
M  V30 7544 O 714.776 -1.41915 1.33006 0
M  V30 7545 C 715.059 1.50183 3.27287 0
M  V30 7546 C 714.912 3.04359 3.31189 0
M  V30 7547 C 716.231 1.17477 4.24131 0
M  V30 7548 H 713.35 0.330624 0.658678 0
M  V30 7549 H 715.992 1.40873 1.27495 0
M  V30 7550 H 714.142 1.07442 3.73348 0
M  V30 7551 H 715.814 3.55896 2.93488 0
M  V30 7552 H 714.057 3.39053 2.70602 0
M  V30 7553 H 714.728 3.41141 4.33966 0
M  V30 7554 H 717.204 1.5442 3.86385 0
M  V30 7555 H 716.08 1.61795 5.24513 0
M  V30 7556 H 716.341 0.0893312 4.4201 0
M  V30 7557 N 715.4 -1.26948 0.933913 0
M  V30 7558 C 716.31 -2.30366 0.443671 0
M  V30 7559 C 717.326 -1.67284 -0.478745 0
M  V30 7560 O 718.502 -1.98156 -0.360043 0
M  V30 7561 C 715.567 -3.45485 -0.289974 0
M  V30 7562 C 714.628 -4.24069 0.668114 0
M  V30 7563 C 713.861 -5.33691 -0.0306138 0
M  V30 7564 O 714.084 -5.5656 -1.24888 0
M  V30 7565 O 713.018 -5.98441 0.644384 0
M  V30 7566 H 716.844 -2.74349 1.30254 0
M  V30 7567 H 714.429 -1.32012 0.699506 0
M  V30 7568 H 716.311 -4.15486 -0.70353 0
M  V30 7569 H 714.986 -3.03546 -1.12435 0
M  V30 7570 H 713.893 -3.56579 1.13147 0
M  V30 7571 H 715.226 -4.69739 1.46989 0
M  V30 7572 N 716.879 -0.700114 -1.41195 0
M  V30 7573 C 718.127 -0.232546 -2.00758 0
M  V30 7574 C 718.448 1.1734 -1.55745 0
M  V30 7575 O 717.718 1.79262 -0.790058 0
M  V30 7576 H 716.298 -0.0829845 -0.742376 0
M  V30 7577 H 718.96 -0.902289 -1.72756 0
M  V30 7578 H 718.056 -0.253521 -3.11069 0
M  V30 7579 N 718.357 1.51182 -0.445186 0
M  V30 7580 C 719.773 1.59299 -0.0978954 0
M  V30 7581 C 719.973 1.4555 1.39346 0
M  V30 7582 O 719.029 1.30073 2.16419 0
M  V30 7583 C 720.342 2.94133 -0.625005 0
M  V30 7584 C 721.89 3.07463 -0.586137 0
M  V30 7585 C 722.365 4.44832 -1.09035 0
M  V30 7586 N 723.856 4.51173 -1.04867 0
M  V30 7587 C 724.591 5.55804 -1.40959 0
M  V30 7588 N 724.087 6.67816 -1.84375 0
M  V30 7589 N 725.88 5.46205 -1.32726 0
M  V30 7590 H 718.031 1.58363 -1.41544 0
M  V30 7591 H 720.294 0.746946 -0.58376 0
M  V30 7592 H 720 3.09589 -1.66876 0
M  V30 7593 H 719.874 3.77161 -0.0542262 0
M  V30 7594 H 722.261 2.9167 0.448646 0
M  V30 7595 H 722.342 2.26255 -1.19341 0
M  V30 7596 H 721.986 4.61372 -2.12364 0
M  V30 7597 H 721.916 5.24591 -0.459539 0
M  V30 7598 H 724.407 3.70783 -0.729932 0
M  V30 7599 H 724.72 7.43683 -2.10131 0
M  V30 7600 H 723.065 6.69003 -1.88308 0
M  V30 7601 H 726.256 4.57583 -0.986678 0
M  V30 7602 H 726.429 6.27634 -1.61182 0
M  V30 7603 N 719.835 0.176821 1.56605 0
M  V30 7604 C 721.081 -0.467406 1.9734 0
M  V30 7605 C 721.414 -1.62523 1.06301 0
M  V30 7606 O 720.689 -1.94182 0.11125 0
M  V30 7607 C 720.972 -0.945106 3.47476 0
M  V30 7608 C 720.825 0.213273 4.49294 0
M  V30 7609 C 722.144 -1.8169 4.00845 0
M  V30 7610 H 719.263 -0.168426 0.717497 0
M  V30 7611 H 721.905 0.264065 1.88156 0
M  V30 7612 H 720.055 -1.56841 3.55434 0
M  V30 7613 H 721.727 0.850508 4.53392 0
M  V30 7614 H 719.97 0.867918 4.25029 0
M  V30 7615 H 720.641 -0.163187 5.51759 0
M  V30 7616 H 723.117 -1.29139 3.95553 0
M  V30 7617 H 721.993 -2.12015 5.06301 0
M  V30 7618 H 722.254 -2.76463 3.44994 0
M  V30 7619 N 721.313 -1.57302 -0.09688 0
M  V30 7620 C 722.541 -1.90202 -0.814295 0
M  V30 7621 C 722.956 -0.770344 -1.72369 0
M  V30 7622 O 722.313 0.257764 -1.8067 0
M  V30 7623 C 722.364 -3.22708 -1.62916 0
M  V30 7624 O 722.085 -4.31522 -0.756343 0
M  V30 7625 C 723.586 -3.69459 -2.44979 0
M  V30 7626 H 720.806 -0.629275 -0.232925 0
M  V30 7627 H 723.35 -2.04364 -0.0746482 0
M  V30 7628 H 721.505 -3.1015 -2.32133 0
M  V30 7629 H 721.919 -5.07604 -1.32054 0
M  V30 7630 H 723.393 -4.64875 -2.9765 0
M  V30 7631 H 723.87 -2.97211 -3.23361 0
M  V30 7632 H 724.476 -3.84879 -1.80964 0
M  V30 7633 N 722.791 0.367657 -1.53252 0
M  V30 7634 C 724.038 1.11052 -1.69333 0
M  V30 7635 C 724.366 1.89363 -0.444064 0
M  V30 7636 O 723.621 1.87094 0.573953 0
M  V30 7637 C 723.92 2.09825 -2.89324 0
M  V30 7638 C 723.586 1.4801 -4.25915 0
M  V30 7639 C 722.248 1.30879 -4.6306 0
M  V30 7640 C 724.6 1.03268 -5.10867 0
M  V30 7641 C 721.928 0.675868 -5.82794 0
M  V30 7642 C 724.28 0.41377 -6.31245 0
M  V30 7643 C 722.944 0.229939 -6.67104 0
M  V30 7644 H 722.214 0.406367 -0.619634 0
M  V30 7645 H 724.861 0.392558 -1.87433 0
M  V30 7646 H 723.166 2.87917 -2.65728 0
M  V30 7647 H 724.863 2.67252 -2.98961 0
M  V30 7648 H 721.453 1.62336 -3.96667 0
M  V30 7649 H 725.637 1.15297 -4.82722 0
M  V30 7650 H 720.893 0.521833 -6.09169 0
M  V30 7651 H 725.067 0.0588768 -6.96375 0
M  V30 7652 H 722.694 -0.262562 -7.59746 0
M  V30 7653 N 724.269 1.44576 0.627338 0
M  V30 7654 C 725.232 1.51372 1.72102 0
M  V30 7655 C 726.232 0.395329 1.55865 0
M  V30 7656 O 727.422 0.658094 1.61291 0
M  V30 7657 C 724.554 1.39129 3.11217 0
M  V30 7658 H 725.747 2.48798 1.6745 0
M  V30 7659 H 723.3 1.31724 0.841336 0
M  V30 7660 H 724.035 0.428114 3.21462 0
M  V30 7661 H 723.82 2.20229 3.24409 0
M  V30 7662 H 725.31 1.46874 3.90919 0
M  V30 7663 N 725.747 -0.868086 1.31537 0
M  V30 7664 C 726.694 -1.97548 1.19346 0
M  V30 7665 C 727.664 -1.65913 0.0787922 0
M  V30 7666 O 728.849 -1.89129 0.251985 0
M  V30 7667 C 725.989 -3.32922 0.908692 0
M  V30 7668 C 725.102 -3.77141 2.10687 0
M  V30 7669 C 724.237 -5.01241 1.75873 0
M  V30 7670 C 723.276 -5.37914 2.92088 0
M  V30 7671 N 722.413 -6.53192 2.57457 0
M  V30 7672 H 727.253 -2.07307 2.14074 0
M  V30 7673 H 724.79 -1.01483 1.06487 0
M  V30 7674 H 726.748 -4.10867 0.724138 0
M  V30 7675 H 725.378 -3.228 -0.0017611 0
M  V30 7676 H 724.43 -2.94961 2.40213 0
M  V30 7677 H 725.742 -4.00248 2.97663 0
M  V30 7678 H 724.896 -5.86858 1.53891 0
M  V30 7679 H 723.635 -4.80041 0.86091 0
M  V30 7680 H 722.64 -4.50814 3.14717 0
M  V30 7681 H 723.865 -5.61077 3.82582 0
M  V30 7682 H 721.811 -6.33536 1.702 0
M  V30 7683 H 721.728 -6.76252 3.37963 0
M  V30 7684 H 722.996 -7.41997 2.38873 0
M  V30 7685 N 727.225 -1.14528 -1.08264 0
M  V30 7686 C 728.471 -0.91576 -1.80947 0
M  V30 7687 C 728.804 0.55623 -1.86064 0
M  V30 7688 O 728.079 1.41207 -1.33756 0
M  V30 7689 C 728.362 -1.51917 -3.26486 0
M  V30 7690 C 728.215 -3.06111 -3.2957 0
M  V30 7691 C 729.534 -1.19724 -4.23502 0
M  V30 7692 H 726.653 -0.334113 -0.656915 0
M  V30 7693 H 729.295 -1.41547 -1.26746 0
M  V30 7694 H 727.445 -1.0942 -3.72773 0
M  V30 7695 H 729.117 -3.57448 -2.91597 0
M  V30 7696 H 727.36 -3.40483 -2.688 0
M  V30 7697 H 728.031 -3.43438 -4.32151 0
M  V30 7698 H 730.507 -1.56467 -3.85561 0
M  V30 7699 H 729.383 -1.64575 -5.23647 0
M  V30 7700 H 729.644 -0.112771 -4.41956 0
M  V30 7701 N 728.703 1.26451 -0.940633 0
M  V30 7702 C 729.613 2.30128 -0.455881 0
M  V30 7703 C 730.629 1.67536 0.469867 0
M  V30 7704 O 731.805 1.98344 0.349529 0
M  V30 7705 C 728.87 3.45634 0.271648 0
M  V30 7706 C 727.931 4.23709 -0.690594 0
M  V30 7707 C 727.164 5.337 0.00231047 0
M  V30 7708 O 727.387 5.57215 1.21935 0
M  V30 7709 O 726.321 5.98091 -0.676111 0
M  V30 7710 H 730.147 2.73655 -1.31707 0
M  V30 7711 H 727.732 1.3164 -0.706497 0
M  V30 7712 H 729.614 4.15853 0.681486 0
M  V30 7713 H 728.289 3.04138 1.10824 0
M  V30 7714 H 727.196 3.55974 -1.15037 0
M  V30 7715 H 728.529 4.68953 -1.49478 0
M  V30 7716 N 730.181 0.707592 1.40822 0
M  V30 7717 C 731.091 0.0507246 2.34545 0
M  V30 7718 C 732.107 -0.752727 1.56876 0
M  V30 7719 O 733.283 -0.687524 1.89302 0
M  V30 7720 C 730.348 -0.865731 3.35717 0
M  V30 7721 C 729.409 -0.0531313 4.29267 0
M  V30 7722 C 728.642 -0.925939 5.25606 0
M  V30 7723 O 728.865 -2.16531 5.27703 0
M  V30 7724 O 727.799 -0.369194 6.00767 0
M  V30 7725 H 731.625 0.823587 2.9232 0
M  V30 7726 H 729.21 0.46801 1.4188 0
M  V30 7727 H 731.092 -1.39091 3.97783 0
M  V30 7728 H 729.767 -1.61788 2.80368 0
M  V30 7729 H 728.674 0.516931 3.70511 0
M  V30 7730 H 730.007 0.660617 4.87747 0
M  V30 7731 N 731.66 -1.50943 0.453197 0
M  V30 7732 C 732.888 -2.06628 -0.106135 0
M  V30 7733 C 733.303 -1.31901 -1.35084 0
M  V30 7734 O 732.66 -0.383074 -1.78434 0
M  V30 7735 C 732.711 -3.5914 -0.412368 0
M  V30 7736 O 732.432 -4.31047 0.782948 0
M  V30 7737 C 733.933 -4.31391 -1.02064 0
M  V30 7738 H 731.153 -0.670999 -0.000885896 0
M  V30 7739 H 733.697 -1.94331 0.63684 0
M  V30 7740 H 731.852 -3.71299 -1.10526 0
M  V30 7741 H 732.266 -5.21948 0.516736 0
M  V30 7742 H 733.74 -5.39135 -1.1848 0
M  V30 7743 H 734.217 -3.90714 -2.00598 0
M  V30 7744 H 734.823 -4.23716 -0.366664 0
M  V30 7745 N 733.138 -0.185124 -1.56509 0
M  V30 7746 C 734.387 0.456421 -1.96468 0
M  V30 7747 C 734.7 1.63448 -1.07444 0
M  V30 7748 O 735.906 2.34316 -1.37143 0
M  V30 7749 C 734.362 0.863404 -3.4939 0
M  V30 7750 C 733.97 -0.289815 -4.47062 0
M  V30 7751 C 735.714 1.47259 -3.98139 0
M  V30 7752 C 733.621 0.137571 -5.9124 0
M  V30 7753 H 732.551 0.17429 -0.733579 0
M  V30 7754 H 735.202 -0.275554 -1.81419 0
M  V30 7755 H 733.584 1.65176 -3.59907 0
M  V30 7756 H 734.758 -1.06728 -4.4827 0
M  V30 7757 H 733.073 -0.809851 -4.08449 0
M  V30 7758 H 735.67 1.80463 -5.03326 0
M  V30 7759 H 736.013 2.3755 -3.41871 0
M  V30 7760 H 736.546 0.748405 -3.90696 0
M  V30 7761 H 733.285 -0.730907 -6.51412 0
M  V30 7762 H 732.805 0.8801 -5.93308 0
M  V30 7763 H 734.484 0.576771 -6.44424 0
M  V30 7764 N 734.616 1.57351 0.0885366 0
M  V30 7765 C 735.579 2.01557 1.09121 0
M  V30 7766 C 736.579 0.910052 1.3257 0
M  V30 7767 O 737.769 1.17537 1.28572 0
M  V30 7768 C 734.901 2.38189 2.43883 0
M  V30 7769 H 736.094 2.91361 0.710562 0
M  V30 7770 H 733.647 1.52694 0.333779 0
M  V30 7771 H 734.382 1.5136 2.86811 0
M  V30 7772 H 734.167 3.18846 2.28209 0
M  V30 7773 H 735.657 2.73025 3.15986 0
M  V30 7774 N 736.094 -0.359525 1.53444 0
M  V30 7775 C 737.34 -1.10315 1.70172 0
M  V30 7776 C 737.673 -1.88788 0.455287 0
M  V30 7777 O 736.948 -1.86635 -0.547514 0
M  V30 7778 C 737.231 -2.05744 2.95536 0
M  V30 7779 C 737.084 -1.3084 4.3035 0
M  V30 7780 C 738.403 -3.05784 3.16518 0
M  V30 7781 H 735.522 -0.399662 0.619225 0
M  V30 7782 H 738.164 -0.383338 1.86093 0
M  V30 7783 H 736.314 -2.67125 2.82093 0
M  V30 7784 H 737.986 -0.721959 4.55615 0
M  V30 7785 H 736.229 -0.610283 4.29486 0
M  V30 7786 H 736.9 -2.00718 5.14214 0
M  V30 7787 H 739.376 -2.5451 3.29187 0
M  V30 7788 H 738.252 -3.69772 4.05659 0
M  V30 7789 H 738.513 -3.76289 2.32076 0
M  V30 7790 N 737.572 -1.44907 -0.619662 0
M  V30 7791 C 738.988 -1.29046 -0.939107 0
M  V30 7792 C 739.188 -0.23462 -2.00129 0
M  V30 7793 O 738.244 0.37558 -2.49691 0
M  V30 7794 C 739.557 -2.66567 -1.39149 0
M  V30 7795 C 741.105 -2.74368 -1.50635 0
M  V30 7796 C 741.58 -4.12386 -1.99253 0
M  V30 7797 N 743.071 -4.1462 -2.06506 0
M  V30 7798 C 743.806 -5.18272 -2.4532 0
M  V30 7799 N 743.302 -6.32278 -2.83189 0
M  V30 7800 N 745.095 -5.05628 -2.45554 0
M  V30 7801 H 737.246 -2.12239 0.0826135 0
M  V30 7802 H 739.509 -0.947652 -0.0256829 0
M  V30 7803 H 739.215 -3.4496 -0.685254 0
M  V30 7804 H 739.089 -2.94224 -2.36034 0
M  V30 7805 H 741.476 -1.96287 -2.20353 0
M  V30 7806 H 741.557 -2.50439 -0.520963 0
M  V30 7807 H 741.201 -4.90947 -1.30127 0
M  V30 7808 H 741.131 -4.33699 -2.98684 0
M  V30 7809 H 743.622 -3.32343 -1.79878 0
M  V30 7810 H 743.935 -7.07172 -3.11652 0
M  V30 7811 H 742.28 -6.35699 -2.80913 0
M  V30 7812 H 745.471 -4.15613 -2.15367 0
M  V30 7813 H 745.644 -5.86529 -2.75478 0
M  V30 7814 N 739.05 0.861098 -1.31996 0
M  V30 7815 C 740.29 1.62873 -1.23498 0
M  V30 7816 C 740.654 1.90938 0.201692 0
M  V30 7817 O 741.855 2.6565 0.410305 0
M  V30 7818 C 740.126 2.91759 -2.06426 0
M  V30 7819 S 741.685 3.82583 -2.14885 0
M  V30 7820 H 738.503 0.558726 -0.439712 0
M  V30 7821 H 741.105 1.02025 -1.66767 0
M  V30 7822 H 739.809 2.69077 -3.0988 0
M  V30 7823 H 739.34 3.57627 -1.6391 0
M  V30 7824 H 741.355 4.7904 -1.29364 0
M  V30 7825 N 740.528 1.15101 1.07655 0
M  V30 7826 C 741.458 0.867864 2.16773 0
M  V30 7827 C 742.439 -0.180283 1.69142 0
M  V30 7828 O 743.624 -0.0353152 1.94168 0
M  V30 7829 C 740.754 0.35299 3.45501 0
M  V30 7830 C 739.708 1.33746 4.06566 0
M  V30 7831 C 739.034 0.681562 5.30338 0
M  V30 7832 C 740.334 2.7024 4.46954 0
M  V30 7833 H 742.028 1.78034 2.40716 0
M  V30 7834 H 739.574 0.857435 1.15689 0
M  V30 7835 H 741.527 0.142465 4.21159 0
M  V30 7836 H 740.251 -0.594945 3.21135 0
M  V30 7837 H 738.91 1.53429 3.32949 0
M  V30 7838 H 738.558 -0.272422 5.02262 0
M  V30 7839 H 738.258 1.33853 5.72151 0
M  V30 7840 H 739.782 0.48074 6.08705 0
M  V30 7841 H 741.196 2.5442 5.13754 0
M  V30 7842 H 739.593 3.32282 4.99709 0
M  V30 7843 H 740.663 3.26537 3.58471 0
M  V30 7844 N 742.006 -1.2595 0.947325 0
M  V30 7845 C 742.969 -2.24407 0.466285 0
M  V30 7846 C 743.969 -1.55054 -0.426005 0
M  V30 7847 O 745.159 -1.7275 -0.224319 0
M  V30 7848 C 742.291 -3.39326 -0.327201 0
M  V30 7849 H 743.484 -2.68477 1.33642 0
M  V30 7850 H 741.037 -1.38211 0.729887 0
M  V30 7851 H 741.772 -3.00667 -1.21532 0
M  V30 7852 H 741.557 -3.9085 0.312839 0
M  V30 7853 H 743.047 -4.12455 -0.653477 0
M  V30 7854 N 743.484 -0.715051 -1.40445 0
M  V30 7855 C 744.431 -0.0621393 -2.30716 0
M  V30 7856 C 745.401 0.750871 -1.48159 0
M  V30 7857 O 746.586 0.714928 -1.76899 0
M  V30 7858 C 743.726 0.854036 -3.34365 0
M  V30 7859 C 742.839 0.0305565 -4.31989 0
M  V30 7860 C 741.974 0.946162 -5.22706 0
M  V30 7861 C 741.013 0.116741 -6.11989 0
M  V30 7862 N 740.15 0.987194 -6.95125 0
M  V30 7863 H 744.99 -0.83764 -2.85985 0
M  V30 7864 H 742.527 -0.424759 -1.40834 0
M  V30 7865 H 744.485 1.39946 -3.93028 0
M  V30 7866 H 743.115 1.59572 -2.806 0
M  V30 7867 H 742.167 -0.632044 -3.75112 0
M  V30 7868 H 743.479 -0.611615 -4.95036 0
M  V30 7869 H 742.633 1.56014 -5.86297 0
M  V30 7870 H 741.372 1.62216 -4.59932 0
M  V30 7871 H 740.377 -0.510176 -5.47428 0
M  V30 7872 H 741.602 -0.555742 -6.76822 0
M  V30 7873 H 739.548 1.64885 -6.3494 0
M  V30 7874 H 739.465 0.401046 -7.54936 0
M  V30 7875 H 740.733 1.58737 -7.63166 0
M  V30 7876 N 744.962 1.50701 -0.461195 0
M  V30 7877 C 745.91 2.29918 0.352231 0
M  V30 7878 C 746.904 1.36778 0.999403 0
M  V30 7879 O 748.11 1.54015 0.931639 0
M  V30 7880 H 744.485 0.740249 0.132423 0
M  V30 7881 H 746.456 2.96497 -0.336424 0
M  V30 7882 C 745.205 3.17052 1.42736 0
M  V30 7883 H 744.528 3.88623 0.938747 0
M  V30 7884 H 745.968 3.75493 1.96928 0
M  V30 7885 C 744.427 2.3399 2.42384 0
M  V30 7886 O 744.957 2.01608 3.47444 0
M  V30 7887 N 743.163 1.96758 2.13857 0
M  V30 7888 H 742.71 2.23292 1.28447 0
M  V30 7889 H 742.668 1.41484 2.80766 0
M  V30 7890 N 746.441 0.193421 1.56409 0
M  V30 7891 C 747.371 -0.723334 2.22014 0
M  V30 7892 C 748.352 -1.22254 1.1827 0
M  V30 7893 O 749.537 -1.27168 1.46771 0
M  V30 7894 C 746.667 -1.94366 2.87818 0
M  V30 7895 C 745.621 -1.57943 3.97791 0
M  V30 7896 C 744.947 -2.87623 4.50752 0
M  V30 7897 C 746.247 -0.790639 5.16281 0
M  V30 7898 H 747.941 -0.176426 2.9888 0
M  V30 7899 H 745.487 -0.0834166 1.43758 0
M  V30 7900 H 747.44 -2.5902 3.32396 0
M  V30 7901 H 746.164 -2.51507 2.08355 0
M  V30 7902 H 744.823 -0.956482 3.53903 0
M  V30 7903 H 744.471 -3.4285 3.68053 0
M  V30 7904 H 744.171 -2.63998 5.24956 0
M  V30 7905 H 745.695 -3.53268 4.9803 0
M  V30 7906 H 747.109 -1.34024 5.57414 0
M  V30 7907 H 745.506 -0.65258 5.96541 0
M  V30 7908 H 746.576 0.208633 4.84451 0
M  V30 7909 N 747.919 -1.57396 -0.0801906 0
M  V30 7910 C 748.849 -2.06145 -1.09665 0
M  V30 7911 C 749.83 -0.953273 -1.40878 0
M  V30 7912 O 751.015 -1.22548 -1.50651 0
M  V30 7913 C 748.145 -2.49836 -2.41245 0
M  V30 7914 C 747.099 -3.64454 -2.24405 0
M  V30 7915 C 746.425 -3.94172 -3.61293 0
M  V30 7916 C 747.725 -4.94807 -1.67223 0
M  V30 7917 H 749.419 -2.91316 -0.691028 0
M  V30 7918 H 746.965 -1.40145 -0.330957 0
M  V30 7919 H 748.918 -2.82552 -3.12638 0
M  V30 7920 H 747.642 -1.61683 -2.83771 0
M  V30 7921 H 746.301 -3.32008 -1.55454 0
M  V30 7922 H 745.949 -3.03163 -4.01374 0
M  V30 7923 H 745.649 -4.71345 -3.50867 0
M  V30 7924 H 747.173 -4.29376 -4.3413 0
M  V30 7925 H 748.587 -5.25807 -2.28472 0
M  V30 7926 H 746.984 -5.76245 -1.67515 0
M  V30 7927 H 748.054 -4.80751 -0.632944 0
M  V30 7928 N 749.397 0.351382 -1.53633 0
M  V30 7929 C 750.645 1.09034 -1.70165 0
M  V30 7930 C 750.966 1.89413 -0.463422 0
M  V30 7931 O 750.236 1.888 0.522624 0
M  V30 7932 H 748.816 0.405522 -0.627344 0
M  V30 7933 H 751.478 0.394554 -1.90865 0
M  V30 7934 H 750.574 1.77215 -2.56907 0
M  V30 7935 N 750.875 1.45233 0.611969 0
M  V30 7936 C 751.838 1.53189 1.70487 0
M  V30 7937 C 752.838 0.411839 1.55437 0
M  V30 7938 O 754.028 0.675164 1.60584 0
M  V30 7939 C 751.16 1.42422 3.09723 0
M  V30 7940 H 752.353 2.5056 1.64802 0
M  V30 7941 H 749.906 1.32609 0.827318 0
M  V30 7942 H 750.641 0.462185 3.2099 0
M  V30 7943 H 750.426 2.23658 3.22055 0
M  V30 7944 H 751.916 1.51012 3.89339 0
M  V30 7945 N 752.353 -0.854086 1.3245 0
M  V30 7946 C 753.263 -1.99503 1.23434 0
M  V30 7947 C 754.279 -1.73371 0.147828 0
M  V30 7948 O 755.455 -1.97998 0.368609 0
M  V30 7949 C 752.52 -3.33192 0.958328 0
M  V30 7950 C 751.581 -3.72542 2.13333 0
M  V30 7951 C 750.814 -4.99852 1.8704 0
M  V30 7952 O 751.037 -5.64573 0.813239 0
M  V30 7953 O 749.971 -5.36345 2.73161 0
M  V30 7954 H 753.797 -2.10046 2.1935 0
M  V30 7955 H 751.382 -0.984823 1.12346 0
M  V30 7956 H 753.264 -4.13327 0.820918 0
M  V30 7957 H 751.939 -3.23687 0.0293299 0
M  V30 7958 H 750.846 -2.92981 2.32622 0
M  V30 7959 H 752.179 -3.86694 3.04514 0
M  V30 7960 N 753.831 -1.1567 -1.07043 0
M  V30 7961 C 754.779 -0.852204 -2.16426 0
M  V30 7962 C 755.773 0.175661 -1.68487 0
M  V30 7963 O 756.979 0.0303874 -1.79974 0
M  V30 7964 H 753.354 -0.257942 -0.706378 0
M  V30 7965 H 755.325 -1.78231 -2.39324 0
M  V30 7966 C 754.074 -0.361362 -3.45817 0
M  V30 7967 H 753.397 -1.14369 -3.83092 0
M  V30 7968 H 754.837 -0.186997 -4.23587 0
M  V30 7969 C 753.296 0.917703 -3.2416 0
M  V30 7970 O 753.826 1.98858 -3.49025 0
M  V30 7971 N 752.032 0.858456 -2.77631 0
M  V30 7972 H 751.579 -0.0131821 -2.57597 0
M  V30 7973 H 751.537 1.71478 -2.6352 0
M  V30 7974 N 755.309 1.25446 -0.953992 0
M  V30 7975 C 756.725 1.4539 -0.658316 0
M  V30 7976 C 756.925 1.85607 0.784356 0
M  V30 7977 O 755.981 1.98568 1.55972 0
M  V30 7978 C 757.294 2.52643 -1.6307 0
M  V30 7979 C 758.842 2.66484 -1.64181 0
M  V30 7980 C 759.317 3.76921 -2.60182 0
M  V30 7981 N 760.808 3.84331 -2.58542 0
M  V30 7982 C 761.543 4.69271 -3.29503 0
M  V30 7983 N 761.039 5.58503 -4.09934 0
M  V30 7984 N 762.832 4.6323 -3.18393 0
M  V30 7985 H 754.983 0.976337 -1.8863 0
M  V30 7986 H 757.246 0.490343 -0.811337 0
M  V30 7987 H 756.952 2.29949 -2.66114 0
M  V30 7988 H 756.826 3.50547 -1.39271 0
M  V30 7989 H 759.213 2.88545 -0.618552 0
M  V30 7990 H 759.294 1.68982 -1.92038 0
M  V30 7991 H 758.938 3.55612 -3.62633 0
M  V30 7992 H 758.868 4.73906 -2.29609 0
M  V30 7993 H 761.359 3.20544 -2.0015 0
M  V30 7994 H 761.672 6.20241 -4.61 0
M  V30 7995 H 760.017 5.58214 -4.14032 0
M  V30 7996 H 763.208 3.92527 -2.5503 0
M  V30 7997 H 763.381 5.29204 -3.73961 0
M  V30 7998 N 756.787 0.722489 1.40064 0
M  V30 7999 C 757.697 0.0755984 2.34478 0
M  V30 8000 C 758.713 -0.736046 1.57665 0
M  V30 8001 O 759.889 -0.667407 1.9002 0
M  V30 8002 C 756.954 -0.830075 3.36616 0
M  V30 8003 C 756.015 -0.00759884 4.29299 0
M  V30 8004 C 755.248 -0.870139 5.26559 0
M  V30 8005 O 755.471 -2.10921 5.2997 0
M  V30 8006 O 754.405 -0.305454 6.01124 0
M  V30 8007 H 758.231 0.854545 2.9143 0
M  V30 8008 H 755.816 0.483032 1.41376 0
M  V30 8009 H 757.698 -1.34864 3.99236 0
M  V30 8010 H 756.373 -1.58805 2.82069 0
M  V30 8011 H 755.28 0.556199 3.69942 0
M  V30 8012 H 756.613 0.712312 4.87018 0
M  V30 8013 N 758.265 -1.50454 0.469181 0
M  V30 8014 C 759.195 -2.31353 -0.31592 0
M  V30 8015 C 760.176 -1.38172 -0.992094 0
M  V30 8016 O 761.361 -1.67093 -0.989633 0
M  V30 8017 C 758.491 -3.1786 -1.39937 0
M  V30 8018 C 757.445 -4.19578 -0.844909 0
M  V30 8019 C 756.771 -4.9481 -2.0265 0
M  V30 8020 C 758.071 -5.22106 0.142499 0
M  V30 8021 H 759.765 -2.97237 0.359269 0
M  V30 8022 H 757.311 -1.42942 0.174224 0
M  V30 8023 H 759.264 -3.7325 -1.95607 0
M  V30 8024 H 757.988 -2.49858 -2.1033 0
M  V30 8025 H 756.647 -3.65285 -0.310189 0
M  V30 8026 H 756.295 -4.23282 -2.71737 0
M  V30 8027 H 755.995 -5.63613 -1.66174 0
M  V30 8028 H 757.519 -5.53035 -2.58815 0
M  V30 8029 H 758.933 -5.72378 -0.324966 0
M  V30 8030 H 757.33 -5.98618 0.421441 0
M  V30 8031 H 758.4 -4.7297 1.06901 0
M  V30 8032 N 759.743 -0.201713 -1.56304 0
M  V30 8033 C 760.69 0.716499 -2.19397 0
M  V30 8034 C 761.66 1.20494 -1.14326 0
M  V30 8035 O 762.845 1.26763 -1.42604 0
M  V30 8036 C 759.985 1.92762 -2.86246 0
M  V30 8037 C 759.098 1.47993 -4.0586 0
M  V30 8038 C 758.233 2.64706 -4.60547 0
M  V30 8039 C 757.272 2.16576 -5.72504 0
M  V30 8040 N 756.409 3.26491 -6.21569 0
M  V30 8041 H 761.249 0.171724 -2.97505 0
M  V30 8042 H 758.786 0.073016 -1.46919 0
M  V30 8043 H 760.744 2.6384 -3.23178 0
M  V30 8044 H 759.374 2.44559 -2.10691 0
M  V30 8045 H 758.426 0.66477 -3.74546 0
M  V30 8046 H 759.738 1.08686 -4.86815 0
M  V30 8047 H 758.892 3.43898 -4.99819 0
M  V30 8048 H 757.631 3.0729 -3.78713 0
M  V30 8049 H 756.636 1.3584 -5.32755 0
M  V30 8050 H 757.861 1.75015 -6.56161 0
M  V30 8051 H 755.807 3.68594 -5.42655 0
M  V30 8052 H 755.724 2.91374 -6.97594 0
M  V30 8053 H 756.992 4.05877 -6.65495 0
M  V30 8054 N 761.222 1.57436 0.0718424 0
M  V30 8055 C 762.152 2.06724 1.08571 0
M  V30 8056 C 763.133 0.960731 1.40371 0
M  V30 8057 O 764.318 1.23345 1.49999 0
M  V30 8058 C 761.448 2.51112 2.39916 0
M  V30 8059 C 760.402 3.65639 2.22469 0
M  V30 8060 C 759.728 3.96082 3.59198 0
M  V30 8061 C 761.028 4.95687 1.64596 0
M  V30 8062 H 762.722 2.91679 0.675569 0
M  V30 8063 H 760.268 1.40319 0.32352 0
M  V30 8064 H 762.221 2.84206 3.11135 0
M  V30 8065 H 760.945 1.63186 2.8291 0
M  V30 8066 H 759.604 3.32828 1.53691 0
M  V30 8067 H 759.252 3.05287 3.99761 0
M  V30 8068 H 758.952 4.73199 3.48362 0
M  V30 8069 H 760.476 4.31672 4.31847 0
M  V30 8070 H 761.89 5.27011 2.25681 0
M  V30 8071 H 760.287 5.77126 1.64457 0
M  V30 8072 H 761.357 4.8108 0.60744 0
M  V30 8073 N 762.7 -0.34323 1.53817 0
M  V30 8074 C 763.946 -1.08504 1.71332 0
M  V30 8075 C 764.279 -1.88294 0.475285 0
M  V30 8076 O 763.554 -1.87205 -0.527688 0
M  V30 8077 C 763.837 -2.02597 2.97702 0
M  V30 8078 C 763.69 -1.26268 4.31713 0
M  V30 8079 C 765.009 -3.0241 3.19744 0
M  V30 8080 H 762.128 -0.393072 0.623429 0
M  V30 8081 H 764.77 -0.363579 1.86489 0
M  V30 8082 H 762.92 -2.64118 2.8491 0
M  V30 8083 H 764.592 -0.673594 4.56356 0
M  V30 8084 H 762.835 -0.564696 4.30109 0
M  V30 8085 H 763.506 -1.95253 5.16314 0
M  V30 8086 H 765.982 -2.51004 3.31868 0
M  V30 8087 H 764.858 -3.65449 4.09558 0
M  V30 8088 H 765.119 -3.73806 2.36054 0
M  V30 8089 N 764.178 -1.45556 -0.604258 0
M  V30 8090 C 765.141 -1.54091 -1.69672 0
M  V30 8091 C 766.141 -0.420076 -1.55216 0
M  V30 8092 O 767.331 -0.683671 -1.60224 0
M  V30 8093 C 764.463 -1.44063 -3.08964 0
M  V30 8094 H 765.656 -2.51431 -1.6347 0
M  V30 8095 H 763.209 -1.33046 -0.820273 0
M  V30 8096 H 763.944 -0.479201 -3.2074 0
M  V30 8097 H 763.729 -2.25362 -3.20865 0
M  V30 8098 H 765.219 -1.53075 -3.88533 0
M  V30 8099 N 765.656 0.84705 -1.32902 0
M  V30 8100 C 767.067 1.41785 -1.21466 0
M  V30 8101 C 767.418 1.95464 0.169767 0
M  V30 8102 O 766.543 1.88157 1.06892 0
M  V30 8103 C 767.138 2.57734 -2.19906 0
M  V30 8104 C 765.697 3.10791 -2.12334 0
M  V30 8105 C 764.844 1.83562 -2.07847 0
M  V30 8106 H 767.795 0.653532 -1.44619 0
M  V30 8107 H 767.816 3.35123 -1.80202 0
M  V30 8108 H 767.328 2.18635 -3.20656 0
M  V30 8109 H 765.429 3.54455 -1.14858 0
M  V30 8110 H 765.542 3.71519 -3.02506 0
M  V30 8111 H 763.906 2.03475 -1.53199 0
M  V30 8112 H 764.689 1.4667 -3.10392 0
M  V30 8113 N 767.134 1.16236 1.06428 0
M  V30 8114 C 768.362 0.967184 1.82902 0
M  V30 8115 C 768.777 -0.484601 1.82475 0
M  V30 8116 O 768.134 -1.33631 1.24294 0
M  V30 8117 C 768.185 1.48534 3.29576 0
M  V30 8118 O 767.906 2.88026 3.3011 0
M  V30 8119 C 769.407 1.33298 4.22784 0
M  V30 8120 H 766.627 0.342923 0.576754 0
M  V30 8121 H 769.171 1.54232 1.34286 0
M  V30 8122 H 767.326 0.952513 3.75508 0
M  V30 8123 H 767.74 3.11721 4.21818 0
M  V30 8124 H 769.214 1.74385 5.23731 0
M  V30 8125 H 769.691 0.278356 4.38317 0
M  V30 8126 H 770.297 1.85535 3.82697 0
M  V30 8127 N 768.612 -1.24939 0.960631 0
M  V30 8128 C 769.542 -2.28 0.503815 0
M  V30 8129 C 770.523 -1.63959 -0.452928 0
M  V30 8130 O 771.708 -1.91009 -0.350585 0
M  V30 8131 C 768.838 -3.46643 -0.213535 0
M  V30 8132 C 767.792 -4.22903 0.658535 0
M  V30 8133 C 767.118 -5.34363 -0.189902 0
M  V30 8134 C 768.418 -4.84949 1.93963 0
M  V30 8135 H 770.112 -2.66462 1.36521 0
M  V30 8136 H 767.658 -1.28093 0.657897 0
M  V30 8137 H 769.611 -4.1787 -0.544286 0
M  V30 8138 H 768.335 -3.07187 -1.10923 0
M  V30 8139 H 766.994 -3.53467 0.972455 0
M  V30 8140 H 766.642 -4.91147 -1.08553 0
M  V30 8141 H 766.342 -5.86302 0.390331 0
M  V30 8142 H 767.866 -6.0842 -0.515484 0
M  V30 8143 H 769.28 -5.48288 1.67491 0
M  V30 8144 H 767.677 -5.47091 2.46601 0
M  V30 8145 H 768.747 -4.06799 2.639 0
M  V30 8146 N 770.09 -0.729906 -1.39679 0
M  V30 8147 C 771.506 -0.404951 -1.54377 0
M  V30 8148 C 771.706 1.08476 -1.6981 0
M  V30 8149 O 770.762 1.87087 -1.69572 0
M  V30 8150 C 772.075 -1.18352 -2.76429 0
M  V30 8151 C 773.623 -1.17124 -2.9026 0
M  V30 8152 C 774.098 -1.93227 -4.15244 0
M  V30 8153 N 775.589 -1.90368 -4.22273 0
M  V30 8154 C 776.324 -2.46065 -5.17918 0
M  V30 8155 N 775.82 -3.10378 -6.19385 0
M  V30 8156 N 777.613 -2.36127 -5.10099 0
M  V30 8157 H 769.764 -1.69567 -1.27909 0
M  V30 8158 H 772.027 -0.717527 -0.619564 0
M  V30 8159 H 771.733 -2.23743 -2.71352 0
M  V30 8160 H 771.607 -0.784589 -3.6895 0
M  V30 8161 H 773.994 -0.125478 -2.94833 0
M  V30 8162 H 774.075 -1.60951 -1.98817 0
M  V30 8163 H 773.719 -2.97802 -4.11432 0
M  V30 8164 H 773.649 -1.4681 -5.05722 0
M  V30 8165 H 776.14 -1.4351 -3.4959 0
M  V30 8166 H 776.453 -3.50358 -6.88817 0
M  V30 8167 H 774.798 -3.14467 -6.19787 0
M  V30 8168 H 777.989 -1.85529 -4.29763 0
M  V30 8169 H 778.162 -2.79833 -5.84463 0
M  V30 8170 N 771.568 1.50203 -0.477153 0
M  V30 8171 C 772.793 2.07263 0.0754986 0
M  V30 8172 C 773.218 1.33801 1.32208 0
M  V30 8173 O 772.576 0.387482 1.77111 0
M  V30 8174 C 772.624 3.59028 0.336348 0
M  V30 8175 O 771.728 3.87339 1.4157 0
M  V30 8176 H 771.069 0.663815 -0.015662 0
M  V30 8177 H 773.599 1.93321 -0.669936 0
M  V30 8178 H 773.609 4.03927 0.575034 0
M  V30 8179 H 772.284 4.11912 -0.574551 0
M  V30 8180 H 770.861 3.54272 1.16385 0
M  V30 8181 N 773.046 0.209999 1.56195 0
M  V30 8182 C 773.956 -0.716459 2.23392 0
M  V30 8183 C 774.972 -1.22291 1.23778 0
M  V30 8184 O 776.148 -1.26694 1.56558 0
M  V30 8185 C 773.213 -1.91261 2.89172 0
M  V30 8186 C 772.274 -1.44927 4.04097 0
M  V30 8187 C 771.507 -2.5884 4.66731 0
M  V30 8188 O 771.73 -3.76693 4.2832 0
M  V30 8189 O 770.664 -2.30701 5.55932 0
M  V30 8190 H 774.49 -0.174089 3.03201 0
M  V30 8191 H 772.075 -0.0199505 1.49387 0
M  V30 8192 H 773.957 -2.6114 3.30733 0
M  V30 8193 H 772.632 -2.4433 2.12331 0
M  V30 8194 H 771.539 -0.718839 3.67129 0
M  V30 8195 H 772.872 -0.965084 4.82646 0
M  V30 8196 N 774.524 -1.57472 -0.0634922 0
M  V30 8197 C 775.454 -2.07297 -1.07473 0
M  V30 8198 C 776.435 -0.968162 -1.39859 0
M  V30 8199 O 777.62 -1.24139 -1.49343 0
M  V30 8200 C 774.75 -2.52381 -2.38581 0
M  V30 8201 C 773.704 -3.66813 -2.20526 0
M  V30 8202 C 773.03 -3.97982 -3.57092 0
M  V30 8203 C 774.33 -4.96553 -1.61965 0
M  V30 8204 H 776.024 -2.92033 -0.660092 0
M  V30 8205 H 773.57 -1.40488 -0.316074 0
M  V30 8206 H 775.523 -2.85852 -3.09624 0
M  V30 8207 H 774.247 -1.64684 -2.8204 0
M  V30 8208 H 772.906 -3.33639 -1.51924 0
M  V30 8209 H 772.554 -3.07403 -3.98136 0
M  V30 8210 H 772.254 -4.7504 -3.45848 0
M  V30 8211 H 773.778 -4.33956 -4.29552 0
M  V30 8212 H 775.192 -5.28201 -2.22883 0
M  V30 8213 H 773.589 -5.7799 -1.61394 0
M  V30 8214 H 774.659 -4.81396 -0.581918 0
M  V30 8215 N 776.003 0.335068 -1.53997 0
M  V30 8216 C 777.231 1.09418 -1.756 0
M  V30 8217 C 777.646 1.82083 -0.499138 0
M  V30 8218 O 777.003 1.74646 0.529631 0
M  V30 8219 C 777.054 2.10115 -2.94166 0
M  V30 8220 O 776.775 1.40404 -4.14992 0
M  V30 8221 C 778.276 2.98336 -3.27888 0
M  V30 8222 H 775.496 0.32595 -0.586513 0
M  V30 8223 H 778.04 0.384693 -2.00849 0
M  V30 8224 H 776.195 2.76616 -2.71224 0
M  V30 8225 H 776.609 2.07743 -4.81605 0
M  V30 8226 H 778.083 3.6491 -4.1418 0
M  V30 8227 H 778.56 3.64814 -2.44556 0
M  V30 8228 H 779.166 2.37412 -3.52868 0
M  V30 8229 N 777.481 1.45874 0.596531 0
M  V30 8230 C 778.727 1.5069 1.35722 0
M  V30 8231 C 779.06 0.152506 1.936 0
M  V30 8232 O 778.335 -0.834411 1.75692 0
M  V30 8233 C 778.618 2.59474 2.4969 0
M  V30 8234 C 778.471 4.04396 1.96937 0
M  V30 8235 C 779.79 2.64451 3.51787 0
M  V30 8236 H 776.909 0.548611 0.492133 0
M  V30 8237 H 779.551 1.77741 0.671428 0
M  V30 8238 H 777.701 2.36539 3.08191 0
M  V30 8239 H 779.373 4.38576 1.43 0
M  V30 8240 H 777.616 4.14529 1.27859 0
M  V30 8241 H 778.287 4.76218 2.79143 0
M  V30 8242 H 780.763 2.85031 3.03145 0
M  V30 8243 H 779.639 3.42411 4.29006 0
M  V30 8244 H 779.9 1.69965 4.08123 0
M  V30 8245 N 778.959 -0.83999 1.33349 0
M  V30 8246 C 779.922 -1.93128 1.23426 0
M  V30 8247 C 780.922 -1.60065 0.153599 0
M  V30 8248 O 782.112 -1.69425 0.405049 0
M  V30 8249 C 779.244 -3.28761 0.901622 0
M  V30 8250 H 780.437 -2.03352 2.20427 0
M  V30 8251 H 777.99 -1.03194 1.17391 0
M  V30 8252 H 778.725 -3.24233 -0.0659337 0
M  V30 8253 H 778.51 -3.54138 1.68311 0
M  V30 8254 H 780 -4.08714 0.856913 0
M  V30 8255 N 780.437 -1.16799 -1.0581 0
M  V30 8256 C 781.4 -0.881396 -2.11575 0
M  V30 8257 C 782.4 0.12574 -1.60308 0
M  V30 8258 O 783.59 -0.105716 -1.73879 0
M  V30 8259 C 780.722 -0.319037 -3.39404 0
M  V30 8260 H 781.915 -1.81907 -2.38432 0
M  V30 8261 H 779.468 -0.977597 -1.21954 0
M  V30 8262 H 780.203 0.626082 -3.18199 0
M  V30 8263 H 779.988 -1.04481 -3.77923 0
M  V30 8264 H 781.478 -0.13663 -4.17376 0
M  V30 8265 N 781.915 1.24427 -0.967243 0
M  V30 8266 C 782.878 2.23637 -0.501927 0
M  V30 8267 C 783.878 1.55712 0.401283 0
M  V30 8268 O 785.068 1.73085 0.196808 0
M  V30 8269 C 782.2 3.39804 0.273176 0
M  V30 8270 H 783.393 2.66317 -1.37897 0
M  V30 8271 H 780.946 1.37033 -0.751783 0
M  V30 8272 H 781.681 3.02562 1.16733 0
M  V30 8273 H 781.466 3.90303 -0.37498 0
M  V30 8274 H 782.956 4.13443 0.587776 0
M  V30 8275 N 783.393 0.737304 1.3929 0
M  V30 8276 C 784.639 0.286681 2.00763 0
M  V30 8277 C 784.972 -1.12388 1.58375 0
M  V30 8278 O 784.247 -1.76661 0.813699 0
M  V30 8279 C 784.53 0.391147 3.57969 0
M  V30 8280 C 784.383 1.84165 4.1037 0
M  V30 8281 C 785.702 -0.225072 4.39524 0
M  V30 8282 H 782.821 0.105642 0.729389 0
M  V30 8283 H 785.463 0.933892 1.65464 0
M  V30 8284 H 783.613 -0.159875 3.88171 0
M  V30 8285 H 785.285 2.44972 3.90879 0
M  V30 8286 H 783.528 2.3622 3.63844 0
M  V30 8287 H 784.199 1.866 5.19504 0
M  V30 8288 H 786.675 0.244677 4.1538 0
M  V30 8289 H 785.551 -0.121646 5.48765 0
M  V30 8290 H 785.812 -1.31141 4.22202 0
M  V30 8291 N 784.871 -1.49948 0.485112 0
M  V30 8292 C 785.801 -2.31675 -0.291364 0
M  V30 8293 C 786.782 -1.39216 -0.977383 0
M  V30 8294 O 787.967 -1.68133 -0.971855 0
M  V30 8295 C 785.097 -3.19326 -1.36558 0
M  V30 8296 C 784.051 -4.2045 -0.800359 0
M  V30 8297 C 783.377 -4.96931 -1.97391 0
M  V30 8298 C 784.677 -5.21925 0.197867 0
M  V30 8299 H 786.371 -2.96839 0.390775 0
M  V30 8300 H 783.917 -1.42749 0.189375 0
M  V30 8301 H 785.87 -3.75304 -1.91638 0
M  V30 8302 H 784.594 -2.52074 -2.07668 0
M  V30 8303 H 783.253 -3.65594 -0.271428 0
M  V30 8304 H 782.901 -4.26141 -2.67232 0
M  V30 8305 H 782.601 -5.65344 -1.60187 0
M  V30 8306 H 784.125 -5.55749 -2.52935 0
M  V30 8307 H 785.539 -5.72691 -0.264239 0
M  V30 8308 H 783.936 -5.98138 0.484908 0
M  V30 8309 H 785.006 -4.71809 1.11912 0
M  V30 8310 N 786.349 -0.21828 -1.56081 0
M  V30 8311 C 787.595 0.414921 -1.9851 0
M  V30 8312 C 787.928 1.59648 -1.10573 0
M  V30 8313 O 787.203 1.93818 -0.162695 0
M  V30 8314 C 787.486 0.852647 -3.4986 0
M  V30 8315 C 787.339 -0.33232 -4.48571 0
M  V30 8316 C 788.658 1.70998 -4.05521 0
M  V30 8317 H 785.777 0.149344 -0.72171 0
M  V30 8318 H 788.419 -0.313858 -1.8739 0
M  V30 8319 H 786.569 1.47362 -3.59467 0
M  V30 8320 H 788.241 -0.970418 -4.50977 0
M  V30 8321 H 786.484 -0.980302 -4.22578 0
M  V30 8322 H 787.155 0.0168407 -5.51997 0
M  V30 8323 H 789.631 1.18606 -3.98838 0
M  V30 8324 H 788.507 1.98517 -5.11744 0
M  V30 8325 H 788.768 2.67219 -3.52202 0
M  V30 8326 N 787.827 1.57504 0.0551401 0
M  V30 8327 C 788.757 2.07864 1.06372 0
M  V30 8328 C 789.738 0.975565 1.39344 0
M  V30 8329 O 790.923 1.24929 1.48682 0
M  V30 8330 C 788.053 2.53643 2.3724 0
M  V30 8331 C 787.007 3.67978 2.18578 0
M  V30 8332 C 786.333 3.9987 3.54976 0
M  V30 8333 C 787.633 4.97405 1.59329 0
M  V30 8334 H 789.327 2.92379 0.644595 0
M  V30 8335 H 786.873 1.40654 0.308619 0
M  V30 8336 H 788.826 2.8749 3.08103 0
M  V30 8337 H 787.55 1.66177 2.81163 0
M  V30 8338 H 786.209 3.3444 1.50152 0
M  V30 8339 H 785.857 3.0951 3.965 0
M  V30 8340 H 785.557 4.76867 3.43324 0
M  V30 8341 H 787.081 4.36228 4.27244 0
M  V30 8342 H 788.495 5.29375 2.20078 0
M  V30 8343 H 786.892 5.78837 1.58327 0
M  V30 8344 H 787.962 4.81697 0.55638 0
M  V30 8345 N 789.305 -0.326896 1.54172 0
M  V30 8346 C 790.235 -1.40741 1.86317 0
M  V30 8347 C 791.216 -1.54125 0.719684 0
M  V30 8348 O 792.401 -1.6806 0.973117 0
M  V30 8349 C 789.531 -2.77557 2.08757 0
M  V30 8350 C 788.485 -2.78965 3.24596 0
M  V30 8351 C 787.811 -4.18824 3.32401 0
M  V30 8352 C 789.111 -2.4301 4.62324 0
M  V30 8353 H 790.805 -1.14088 2.76811 0
M  V30 8354 H 788.351 -0.547389 1.3319 0
M  V30 8355 H 790.304 -3.53209 2.29829 0
M  V30 8356 H 789.028 -3.0568 1.15009 0
M  V30 8357 H 787.687 -2.05767 3.03406 0
M  V30 8358 H 787.335 -4.44083 2.36218 0
M  V30 8359 H 787.035 -4.20673 4.10253 0
M  V30 8360 H 788.559 -4.96294 3.55703 0
M  V30 8361 H 789.973 -3.08375 4.83299 0
M  V30 8362 H 788.37 -2.56116 5.42701 0
M  V30 8363 H 789.44 -1.38165 4.64799 0
M  V30 8364 N 790.784 -1.46188 -0.588786 0
M  V30 8365 C 792.03 -1.51407 -1.34921 0
M  V30 8366 C 792.363 -0.162771 -1.93517 0
M  V30 8367 O 791.638 0.825082 -1.76132 0
M  V30 8368 C 791.921 -2.60795 -2.48311 0
M  V30 8369 C 791.774 -4.05435 -1.94789 0
M  V30 8370 C 793.093 -2.66313 -3.50379 0
M  V30 8371 H 790.212 -0.551213 -0.489217 0
M  V30 8372 H 792.854 -1.78095 -0.661993 0
M  V30 8373 H 791.004 -2.3817 -3.06932 0
M  V30 8374 H 792.676 -4.39328 -1.40672 0
M  V30 8375 H 790.919 -4.15202 -1.25659 0
M  V30 8376 H 791.59 -4.77691 -2.76613 0
M  V30 8377 H 794.066 -2.86634 -3.01629 0
M  V30 8378 H 792.942 -3.44681 -4.27184 0
M  V30 8379 H 793.203 -1.72127 -4.07216 0
M  V30 8380 N 792.262 0.832906 -1.33792 0
M  V30 8381 C 793.511 1.58351 -1.24932 0
M  V30 8382 C 793.824 1.94754 0.181703 0
M  V30 8383 O 795.03 2.6865 0.392375 0
M  V30 8384 C 793.486 2.85643 -2.18943 0
M  V30 8385 C 793.094 2.56581 -3.67247 0
M  V30 8386 C 794.838 3.63667 -2.18968 0
M  V30 8387 C 792.745 3.80006 -4.53155 0
M  V30 8388 H 791.675 0.594278 -0.464058 0
M  V30 8389 H 794.326 0.91786 -1.58895 0
M  V30 8390 H 792.708 3.53781 -1.77919 0
M  V30 8391 H 793.882 1.96617 -4.16747 0
M  V30 8392 H 792.197 1.91851 -3.6957 0
M  V30 8393 H 794.794 4.55293 -2.80379 0
M  V30 8394 H 795.137 3.99039 -1.18631 0
M  V30 8395 H 795.67 3.0246 -2.58384 0
M  V30 8396 H 792.409 3.4976 -5.5439 0
M  V30 8397 H 791.929 4.39288 -4.08395 0
M  V30 8398 H 793.608 4.47523 -4.6726 0
M  V30 8399 N 793.74 1.17359 1.05189 0
M  V30 8400 C 794.986 0.963413 1.78455 0
M  V30 8401 C 795.319 -0.506703 1.87473 0
M  V30 8402 O 794.594 -1.37611 1.37453 0
M  V30 8403 C 794.877 1.60519 3.22344 0
M  V30 8404 C 794.73 3.14741 3.21338 0
M  V30 8405 C 796.049 1.3091 4.20179 0
M  V30 8406 H 793.168 0.351412 0.647826 0
M  V30 8407 H 795.81 1.44858 1.22948 0
M  V30 8408 H 793.96 1.19265 3.69741 0
M  V30 8409 H 795.632 3.65053 2.82017 0
M  V30 8410 H 793.875 3.4749 2.59679 0
M  V30 8411 H 794.546 3.54775 4.22894 0
M  V30 8412 H 797.022 1.66635 3.81277 0
M  V30 8413 H 795.898 1.784 5.191 0
M  V30 8414 H 796.159 0.229908 4.41502 0
M  V30 8415 N 795.218 -1.23913 0.973828 0
M  V30 8416 C 796.467 -1.91455 0.63464 0
M  V30 8417 C 796.78 -1.76893 -0.834759 0
M  V30 8418 O 797.986 -2.3918 -1.28473 0
M  V30 8419 C 796.442 -3.43172 1.08447 0
M  V30 8420 C 796.05 -3.66409 2.57776 0
M  V30 8421 C 797.794 -4.1653 0.818721 0
M  V30 8422 C 795.701 -5.11728 2.9646 0
M  V30 8423 H 794.631 -0.716881 0.233661 0
M  V30 8424 H 797.282 -1.40457 1.18085 0
M  V30 8425 H 795.664 -3.93242 0.466524 0
M  V30 8426 H 796.838 -3.26913 3.24753 0
M  V30 8427 H 795.153 -3.06349 2.82027 0
M  V30 8428 H 797.75 -5.23603 1.08367 0
M  V30 8429 H 798.093 -4.15578 -0.245128 0
M  V30 8430 H 798.626 -3.72428 1.39793 0
M  V30 8431 H 795.365 -5.17806 4.01941 0
M  V30 8432 H 794.885 -5.52199 2.34172 0
M  V30 8433 H 796.564 -5.80009 2.86703 0
M  V30 8434 N 796.696 -0.74468 -1.38897 0
M  V30 8435 C 797.945 -0.293716 -1.9955 0
M  V30 8436 C 798.258 1.12831 -1.59777 0
M  V30 8437 O 799.464 1.67929 -2.13336 0
M  V30 8438 C 797.92 -0.474188 -3.56762 0
M  V30 8439 C 797.528 -1.90472 -4.05493 0
M  V30 8440 C 799.272 -0.0854875 -4.24414 0
M  V30 8441 C 797.179 -2.03423 -5.55314 0
M  V30 8442 H 796.109 -0.106066 -0.746502 0
M  V30 8443 H 798.76 -0.919948 -1.58774 0
M  V30 8444 H 797.142 0.221092 -3.95382 0
M  V30 8445 H 798.316 -2.63274 -3.78184 0
M  V30 8446 H 796.631 -2.24752 -3.50536 0
M  V30 8447 H 799.228 -0.161133 -5.34457 0
M  V30 8448 H 799.571 0.96066 -4.05064 0
M  V30 8449 H 800.104 -0.732286 -3.91002 0
M  V30 8450 H 796.843 -3.0626 -5.79556 0
M  V30 8451 H 796.363 -1.3507 -5.84394 0
M  V30 8452 H 798.042 -1.81996 -6.20876 0
M  V30 8453 N 798.174 1.49689 -0.493057 0
M  V30 8454 C 799.399 2.07331 0.0535114 0
M  V30 8455 C 799.824 1.35196 1.30781 0
M  V30 8456 O 799.182 0.406246 1.7669 0
M  V30 8457 C 799.23 3.59364 0.29825 0
M  V30 8458 O 798.334 3.88819 1.37454 0
M  V30 8459 H 797.675 0.663612 -0.0227018 0
M  V30 8460 H 800.205 1.926 -0.690402 0
M  V30 8461 H 800.215 4.04515 0.532159 0
M  V30 8462 H 798.89 4.1128 -0.618207 0
M  V30 8463 H 797.467 3.55487 1.12621 0
M  V30 8464 N 799.652 0.226554 1.55963 0
M  V30 8465 C 800.582 -0.676079 2.23498 0
M  V30 8466 C 801.563 -1.19718 1.20837 0
M  V30 8467 O 802.748 -1.24027 1.49436 0
M  V30 8468 C 799.878 -1.88217 2.91876 0
M  V30 8469 C 798.832 -1.4947 4.01052 0
M  V30 8470 C 798.158 -2.77997 4.56751 0
M  V30 8471 C 799.458 -0.680951 5.17842 0
M  V30 8472 H 801.152 -0.112989 2.99187 0
M  V30 8473 H 798.698 -0.0529046 1.43903 0
M  V30 8474 H 800.651 -2.51911 3.37815 0
M  V30 8475 H 799.375 -2.47031 2.13643 0
M  V30 8476 H 798.034 -0.881199 3.55852 0
M  V30 8477 H 797.682 -3.34966 3.75243 0
M  V30 8478 H 797.382 -2.52803 5.30438 0
M  V30 8479 H 798.906 -3.42625 5.05411 0
M  V30 8480 H 800.32 -1.22171 5.60131 0
M  V30 8481 H 798.717 -0.525898 5.97791 0
M  V30 8482 H 799.787 0.311346 4.83899 0
M  V30 8483 N 801.13 -1.57531 -0.0467866 0
M  V30 8484 C 802.379 -1.87632 -0.740069 0
M  V30 8485 C 802.692 -0.822691 -1.77457 0
M  V30 8486 O 803.898 -1.01235 -2.5192 0
M  V30 8487 C 802.354 -3.32917 -1.36727 0
M  V30 8488 C 801.962 -4.46469 -0.370035 0
M  V30 8489 C 803.706 -3.72189 -2.04146 0
M  V30 8490 C 801.613 -5.82806 -1.00457 0
M  V30 8491 H 800.543 -0.70002 -0.280158 0
M  V30 8492 H 803.194 -1.83499 0.00607151 0
M  V30 8493 H 801.576 -3.31739 -2.16252 0
M  V30 8494 H 802.75 -4.59085 0.397217 0
M  V30 8495 H 801.065 -4.15914 0.201079 0
M  V30 8496 H 803.662 -4.71357 -2.52441 0
M  V30 8497 H 804.005 -3.03268 -2.85192 0
M  V30 8498 H 804.538 -3.75465 -1.3142 0
M  V30 8499 H 801.277 -6.55083 -0.233907 0
M  V30 8500 H 800.797 -5.73944 -1.74209 0
M  V30 8501 H 802.476 -6.28961 -1.51713 0
M  V30 8502 N 802.608 0.318715 -1.54344 0
M  V30 8503 C 803.854 1.05765 -1.73037 0
M  V30 8504 C 804.187 1.87514 -0.505181 0
M  V30 8505 O 803.462 1.88021 0.497838 0
M  V30 8506 C 803.745 1.97836 -3.00887 0
M  V30 8507 C 803.598 1.19384 -4.33668 0
M  V30 8508 C 804.917 2.97285 -3.24514 0
M  V30 8509 H 802.036 0.383104 -0.629603 0
M  V30 8510 H 804.678 0.333864 -1.87044 0
M  V30 8511 H 802.828 2.59552 -2.89076 0
M  V30 8512 H 804.5 0.600906 -4.57369 0
M  V30 8513 H 802.743 0.496198 -4.30953 0
M  V30 8514 H 803.414 1.87014 -5.19355 0
M  V30 8515 H 805.89 2.45693 -3.35819 0
M  V30 8516 H 804.766 3.58887 -4.15321 0
M  V30 8517 H 805.027 3.70003 -2.41971 0
M  V30 8518 N 804.086 1.46499 0.581025 0
M  V30 8519 C 805.016 1.60052 1.70017 0
M  V30 8520 C 805.997 0.450788 1.64018 0
M  V30 8521 O 807.182 0.677237 1.82009 0
M  V30 8522 C 804.312 1.5921 3.08658 0
M  V30 8523 C 803.266 2.73169 3.29488 0
M  V30 8524 C 802.592 2.57389 4.68674 0
M  V30 8525 C 803.892 4.14978 3.1716 0
M  V30 8526 H 805.586 2.53735 1.5893 0
M  V30 8527 H 803.132 1.22113 0.763173 0
M  V30 8528 H 805.085 1.67285 3.86773 0
M  V30 8529 H 803.809 0.620718 3.20647 0
M  V30 8530 H 802.468 2.64566 2.53773 0
M  V30 8531 H 802.116 1.58331 4.77431 0
M  V30 8532 H 801.816 3.33826 4.83564 0
M  V30 8533 H 803.34 2.67358 5.48956 0
M  V30 8534 H 804.754 4.24684 3.85119 0
M  V30 8535 H 803.151 4.92016 3.4357 0
M  V30 8536 H 804.221 4.35016 2.14218 0
M  V30 8537 N 805.565 -0.825799 1.34232 0
M  V30 8538 C 806.811 -1.58419 1.26614 0
M  V30 8539 C 807.144 -1.93503 -0.164341 0
M  V30 8540 O 806.419 -1.59785 -1.109 0
M  V30 8541 C 806.702 -2.8856 2.15418 0
M  V30 8542 C 806.555 -2.60075 3.66989 0
M  V30 8543 C 807.874 -3.90107 2.03726 0
M  V30 8544 H 804.993 -0.574794 0.461282 0
M  V30 8545 H 807.635 -0.951519 1.64457 0
M  V30 8546 H 805.785 -3.42553 1.83275 0
M  V30 8547 H 807.457 -2.12414 4.09485 0
M  V30 8548 H 805.7 -1.93565 3.88221 0
M  V30 8549 H 806.371 -3.52866 4.24488 0
M  V30 8550 H 808.847 -3.45459 2.31942 0
M  V30 8551 H 807.723 -4.78976 2.68092 0
M  V30 8552 H 807.984 -4.30329 1.01337 0
M  V30 8553 N 807.043 -1.17915 -1.04565 0
M  V30 8554 C 808.289 -0.972863 -1.77942 0
M  V30 8555 C 808.622 0.496753 -1.87739 0
M  V30 8556 O 807.897 1.3688 -1.38181 0
M  V30 8557 C 808.18 -1.62227 -3.21488 0
M  V30 8558 C 808.033 -3.16441 -3.19664 0
M  V30 8559 C 809.352 -1.33137 -4.19479 0
M  V30 8560 H 806.471 -0.354843 -0.645953 0
M  V30 8561 H 809.113 -1.45508 -1.22178 0
M  V30 8562 H 807.263 -1.21224 -3.69103 0
M  V30 8563 H 808.935 -3.66544 -2.80077 0
M  V30 8564 H 807.178 -3.48863 -2.57832 0
M  V30 8565 H 807.849 -3.57012 -4.21006 0
M  V30 8566 H 810.325 -1.68654 -3.80388 0
M  V30 8567 H 809.201 -1.81151 -5.18146 0
M  V30 8568 H 809.462 -0.253319 -4.41374 0
M  V30 8569 N 808.521 1.23394 -0.980386 0
M  V30 8570 C 809.77 1.91116 -0.644785 0
M  V30 8571 C 810.083 1.77333 0.825367 0
M  V30 8572 O 811.289 2.39858 1.27203 0
M  V30 8573 C 809.745 3.42592 -1.10266 0
M  V30 8574 C 809.353 3.65037 -2.59715 0
M  V30 8575 C 811.097 4.1609 -0.8408 0
M  V30 8576 C 809.004 5.10148 -2.9917 0
M  V30 8577 H 807.934 0.715632 -0.23746 0
M  V30 8578 H 810.585 1.39829 -1.18828 0
M  V30 8579 H 808.967 3.92989 -0.487372 0
M  V30 8580 H 810.141 3.25186 -3.26482 0
M  V30 8581 H 808.456 3.04849 -2.83647 0
M  V30 8582 H 811.053 5.23021 -1.11143 0
M  V30 8583 H 811.396 4.15702 0.223085 0
M  V30 8584 H 811.929 3.71681 -1.41767 0
M  V30 8585 H 808.668 5.15668 -4.04682 0
M  V30 8586 H 808.188 5.50949 -2.37097 0
M  V30 8587 H 809.867 5.7848 -2.89775 0
M  V30 8588 N 809.999 0.752036 1.385 0
M  V30 8589 C 811.245 0.316909 2.00916 0
M  V30 8590 C 811.6 -1.08884 1.58625 0
M  V30 8591 O 810.893 -1.73494 0.813047 0
M  V30 8592 C 811.087 0.376155 3.55415 0
M  V30 8593 C 810.916 1.78612 4.12708 0
M  V30 8594 C 809.686 2.4023 4.44542 0
M  V30 8595 C 811.884 2.74253 4.35075 0
M  V30 8596 N 809.866 3.73204 4.87434 0
M  V30 8597 C 811.237 3.9199 4.80358 0
M  V30 8598 C 813.292 2.71795 4.17171 0
M  V30 8599 C 811.995 5.07627 5.09615 0
M  V30 8600 C 814.021 3.86589 4.47552 0
M  V30 8601 C 813.383 5.03064 4.93058 0
M  V30 8602 H 809.482 0.16259 0.764911 0
M  V30 8603 H 812.066 0.981657 1.68142 0
M  V30 8604 H 810.237 -0.258317 3.8754 0
M  V30 8605 H 811.969 -0.0791421 4.04623 0
M  V30 8606 H 808.724 1.92009 4.32931 0
M  V30 8607 H 809.148 4.41519 5.13215 0
M  V30 8608 H 813.79 1.82929 3.81178 0
M  V30 8609 H 811.508 5.97109 5.44506 0
M  V30 8610 H 815.094 3.86005 4.35306 0
M  V30 8611 H 813.974 5.90417 5.16118 0
M  V30 8612 N 811.477 -1.49425 0.500989 0
M  V30 8613 C 812.424 -2.29126 -0.277443 0
M  V30 8614 C 813.394 -1.35522 -0.960363 0
M  V30 8615 O 814.579 -1.64479 -0.967027 0
M  V30 8616 C 811.719 -3.18193 -1.33593 0
M  V30 8617 C 810.832 -4.26854 -0.664791 0
M  V30 8618 C 809.967 -5.03137 -1.70372 0
M  V30 8619 C 809.006 -6.03635 -1.01445 0
M  V30 8620 N 808.143 -6.73083 -1.99758 0
M  V30 8621 H 812.983 -2.95187 0.408458 0
M  V30 8622 H 810.52 -1.45546 0.213275 0
M  V30 8623 H 812.478 -3.68207 -1.96161 0
M  V30 8624 H 811.108 -2.54116 -1.9906 0
M  V30 8625 H 810.16 -3.80328 0.0741708 0
M  V30 8626 H 811.472 -4.9865 -0.122197 0
M  V30 8627 H 810.626 -5.5702 -2.40445 0
M  V30 8628 H 809.365 -4.31114 -2.28017 0
M  V30 8629 H 808.37 -5.48984 -0.299496 0
M  V30 8630 H 809.595 -6.77644 -0.444497 0
M  V30 8631 H 807.541 -6.03832 -2.56365 0
M  V30 8632 H 807.458 -7.40855 -1.50565 0
M  V30 8633 H 808.726 -7.3157 -2.69119 0
M  V30 8634 N 812.955 -0.234822 -1.55841 0
M  V30 8635 C 813.887 0.702346 -2.18174 0
M  V30 8636 C 814.9 1.14776 -1.15457 0
M  V30 8637 O 816.089 1.07662 -1.42377 0
M  V30 8638 C 813.189 1.96483 -2.76129 0
M  V30 8639 C 812.362 1.67283 -4.04148 0
M  V30 8640 C 811.421 2.7837 -4.46539 0
M  V30 8641 O 810.447 2.46272 -5.13166 0
M  V30 8642 N 811.649 4.07611 -4.1332 0
M  V30 8643 H 814.414 0.169074 -2.99223 0
M  V30 8644 H 811.975 -0.0543164 -1.61809 0
M  V30 8645 H 813.967 2.70016 -3.01452 0
M  V30 8646 H 812.537 2.40822 -1.99307 0
M  V30 8647 H 811.757 0.773278 -3.86541 0
M  V30 8648 H 813.045 1.45222 -4.87635 0
M  V30 8649 H 812.443 4.36527 -3.59806 0
M  V30 8650 H 811 4.77646 -4.43506 0
M  V30 8651 N 814.433 1.57553 0.0384317 0
M  V30 8652 C 815.38 2.05942 1.04194 0
M  V30 8653 C 816.35 0.946637 1.36484 0
M  V30 8654 O 817.535 1.21658 1.46983 0
M  V30 8655 C 814.675 2.53588 2.34066 0
M  V30 8656 C 813.788 3.7862 2.08017 0
M  V30 8657 C 812.923 4.14915 3.31692 0
M  V30 8658 C 811.962 5.32891 3.01155 0
M  V30 8659 N 811.099 5.64662 4.17254 0
M  V30 8660 H 815.939 2.91429 0.622341 0
M  V30 8661 H 813.476 1.44098 0.295684 0
M  V30 8662 H 815.434 2.79276 3.09937 0
M  V30 8663 H 814.064 1.71031 2.73767 0
M  V30 8664 H 813.116 3.60073 1.22686 0
M  V30 8665 H 814.428 4.64613 1.81484 0
M  V30 8666 H 813.582 4.41681 4.15936 0
M  V30 8667 H 812.321 3.27555 3.6133 0
M  V30 8668 H 811.326 5.05887 2.15311 0
M  V30 8669 H 812.551 6.21896 2.72804 0
M  V30 8670 H 810.497 4.80261 4.46861 0
M  V30 8671 H 810.414 6.45145 3.94112 0
M  V30 8672 H 811.682 5.96 5.02399 0
M  V30 8673 N 815.911 -0.310526 1.54511 0
M  V30 8674 C 817.322 -0.884142 1.64438 0
M  V30 8675 C 817.673 -1.88425 0.546855 0
M  V30 8676 O 816.798 -2.14049 -0.31811 0
M  V30 8677 C 817.393 -1.6104 2.9808 0
M  V30 8678 C 815.952 -2.13255 3.1016 0
M  V30 8679 C 815.099 -0.96213 2.60074 0
M  V30 8680 H 818.05 -0.0877666 1.58457 0
M  V30 8681 H 818.071 -2.47541 2.8897 0
M  V30 8682 H 817.583 -0.882255 3.77939 0
M  V30 8683 H 815.684 -2.89145 2.35002 0
M  V30 8684 H 815.797 -2.37361 4.16169 0
M  V30 8685 H 814.161 -1.34501 2.16291 0
M  V30 8686 H 814.944 -0.248098 3.42402 0
M  V30 8687 N 817.389 -1.46805 -0.573248 0
M  V30 8688 C 818.805 -1.31969 -0.897577 0
M  V30 8689 C 819.005 -0.298171 -1.99282 0
M  V30 8690 O 818.061 0.295953 -2.5076 0
M  V30 8691 C 819.374 -2.70859 -1.30598 0
M  V30 8692 C 820.922 -2.79022 -1.4183 0
M  V30 8693 C 821.397 -4.18516 -1.86033 0
M  V30 8694 N 822.888 -4.2098 -1.9321 0
M  V30 8695 C 823.623 -5.25814 -2.28707 0
M  V30 8696 N 823.119 -6.40968 -2.6293 0
M  V30 8697 N 824.912 -5.13184 -2.29343 0
M  V30 8698 H 817.063 -2.11869 0.150094 0
M  V30 8699 H 819.326 -0.947989 0.00447895 0
M  V30 8700 H 819.032 -3.46965 -0.575161 0
M  V30 8701 H 818.906 -3.01585 -2.26554 0
M  V30 8702 H 821.293 -2.03198 -2.13996 0
M  V30 8703 H 821.374 -2.51969 -0.441024 0
M  V30 8704 H 821.018 -4.94839 -1.14442 0
M  V30 8705 H 820.948 -4.42982 -2.84735 0
M  V30 8706 H 823.439 -3.37898 -1.69214 0
M  V30 8707 H 823.752 -7.16729 -2.88996 0
M  V30 8708 H 822.097 -6.44314 -2.60547 0
M  V30 8709 H 825.288 -4.22255 -2.02036 0
M  V30 8710 H 825.461 -5.94996 -2.56679 0
M  V30 8711 N 818.867 0.818669 -1.34668 0
M  V30 8712 C 820.097 1.60441 -1.30162 0
M  V30 8713 C 820.505 1.88783 0.125579 0
M  V30 8714 O 819.848 1.48281 1.08437 0
M  V30 8715 C 819.91 2.96794 -2.02864 0
M  V30 8716 C 819.574 2.91327 -3.52105 0
M  V30 8717 C 820.571 2.65611 -4.4693 0
M  V30 8718 C 818.256 3.10825 -3.9458 0
M  V30 8719 C 820.25 2.59452 -5.82206 0
M  V30 8720 C 817.937 3.0429 -5.29954 0
M  V30 8721 C 818.935 2.78637 -6.23579 0
M  V30 8722 O 818.623 2.72042 -7.56471 0
M  V30 8723 H 818.355 0.505278 -0.449077 0
M  V30 8724 H 820.909 1.02632 -1.77921 0
M  V30 8725 H 819.139 3.56538 -1.49725 0
M  V30 8726 H 820.828 3.57837 -1.91592 0
M  V30 8727 H 821.594 2.50278 -4.15434 0
M  V30 8728 H 817.473 3.29807 -3.221 0
M  V30 8729 H 821.017 2.39349 -6.55254 0
M  V30 8730 H 816.914 3.19177 -5.61067 0
M  V30 8731 H 817.682 2.87738 -7.66257 0
M  V30 8732 N 820.346 1.18468 1.03938 0
M  V30 8733 C 821.256 0.927889 2.1547 0
M  V30 8734 C 822.272 -0.108447 1.73662 0
M  V30 8735 O 823.448 0.0737636 2.01265 0
M  V30 8736 C 820.513 0.458494 3.43655 0
M  V30 8737 C 819.574 1.56295 3.99838 0
M  V30 8738 C 818.807 1.11586 5.21904 0
M  V30 8739 O 819.03 -0.0249057 5.70395 0
M  V30 8740 O 817.964 1.91412 5.70653 0
M  V30 8741 H 821.79 1.86116 2.39989 0
M  V30 8742 H 819.375 0.966607 1.13917 0
M  V30 8743 H 821.257 0.204861 4.20902 0
M  V30 8744 H 819.932 -0.446464 3.20606 0
M  V30 8745 H 818.839 1.87061 3.23974 0
M  V30 8746 H 820.172 2.44408 4.2723 0
M  V30 8747 N 821.824 -1.22873 0.986916 0
M  V30 8748 C 823.073 -1.90772 0.654911 0
M  V30 8749 C 823.386 -1.77768 -0.81595 0
M  V30 8750 O 824.592 -2.40529 -1.25929 0
M  V30 8751 C 823.048 -3.42003 1.12081 0
M  V30 8752 C 822.656 -3.63655 2.61647 0
M  V30 8753 C 824.4 -4.15638 0.862854 0
M  V30 8754 C 822.307 -5.08555 3.01871 0
M  V30 8755 H 821.237 -0.714362 0.241252 0
M  V30 8756 H 823.888 -1.39196 1.19568 0
M  V30 8757 H 822.27 -3.92725 0.508207 0
M  V30 8758 H 823.444 -3.2345 3.28202 0
M  V30 8759 H 821.759 -3.03341 2.8526 0
M  V30 8760 H 824.356 -5.22425 1.13915 0
M  V30 8761 H 824.699 -4.15814 -0.201036 0
M  V30 8762 H 825.232 -3.70924 1.43736 0
M  V30 8763 H 821.971 -5.13514 4.07411 0
M  V30 8764 H 821.491 -5.49684 2.40015 0
M  V30 8765 H 823.17 -5.76936 2.92839 0
M  V30 8766 N 823.302 -0.75937 -1.38099 0
M  V30 8767 C 824.718 -0.437606 -1.53483 0
M  V30 8768 C 824.918 1.04849 -1.72072 0
M  V30 8769 O 823.974 1.83448 -1.73502 0
M  V30 8770 C 825.287 -1.24189 -2.73857 0
M  V30 8771 C 826.835 -1.23255 -2.8771 0
M  V30 8772 C 827.31 -2.01992 -4.11051 0
M  V30 8773 N 828.801 -1.99282 -4.1814 0
M  V30 8774 C 829.536 -2.56996 -5.12583 0
M  V30 8775 N 829.032 -3.23446 -6.12662 0
M  V30 8776 N 830.825 -2.46894 -5.04975 0
M  V30 8777 H 822.976 -1.72242 -1.24283 0
M  V30 8778 H 825.239 -0.730507 -0.604205 0
M  V30 8779 H 824.945 -2.29449 -2.66545 0
M  V30 8780 H 824.819 -0.862672 -3.67203 0
M  V30 8781 H 827.206 -0.187988 -2.94501 0
M  V30 8782 H 827.287 -1.65132 -1.95359 0
M  V30 8783 H 826.931 -3.06462 -4.05023 0
M  V30 8784 H 826.861 -1.57505 -5.02494 0
M  V30 8785 H 829.352 -1.50893 -3.46467 0
M  V30 8786 H 829.665 -3.6489 -6.81231 0
M  V30 8787 H 828.01 -3.27543 -6.12977 0
M  V30 8788 H 831.201 -1.94604 -4.25731 0
M  V30 8789 H 831.374 -2.92168 -5.78396 0
M  V30 8790 N 824.78 1.49157 -0.508906 0
M  V30 8791 C 826.026 2.03385 0.0248089 0
M  V30 8792 C 826.381 1.381 1.33964 0
M  V30 8793 O 825.674 0.510317 1.84679 0
M  V30 8794 C 825.868 3.56687 0.225717 0
M  V30 8795 C 825.697 4.36832 -1.06809 0
M  V30 8796 C 824.467 4.78556 -1.6221 0
M  V30 8797 C 826.665 4.74934 -1.97338 0
M  V30 8798 N 824.647 5.43158 -2.86098 0
M  V30 8799 C 826.018 5.39336 -3.05805 0
M  V30 8800 C 828.073 4.56872 -1.97921 0
M  V30 8801 C 826.776 5.87587 -4.1489 0
M  V30 8802 C 828.802 5.06089 -3.05987 0
M  V30 8803 C 828.164 5.70499 -4.13172 0
M  V30 8804 H 824.263 0.781349 -0.0318988 0
M  V30 8805 H 826.847 1.82233 -0.685518 0
M  V30 8806 H 825.018 3.77707 0.905108 0
M  V30 8807 H 826.75 3.97554 0.757147 0
M  V30 8808 H 823.505 4.59017 -1.16621 0
M  V30 8809 H 823.929 5.8004 -3.49116 0
M  V30 8810 H 828.571 4.06474 -1.16357 0
M  V30 8811 H 826.289 6.37002 -4.97247 0
M  V30 8812 H 829.875 4.93919 -3.07466 0
M  V30 8813 H 828.755 6.07893 -4.95415 0
M  V30 8814 N 826.258 0.243083 1.55714 0
M  V30 8815 C 827.674 -0.111853 1.59208 0
M  V30 8816 C 827.874 -1.5723 1.2602 0
M  V30 8817 O 826.93 -2.31608 1.00569 0
M  V30 8818 C 828.243 0.233885 2.99789 0
M  V30 8819 C 829.791 0.177873 3.12494 0
M  V30 8820 C 830.266 0.49759 4.55289 0
M  V30 8821 N 831.757 0.447949 4.61029 0
M  V30 8822 C 832.492 0.668545 5.69489 0
M  V30 8823 N 831.988 0.952064 6.86227 0
M  V30 8824 N 833.781 0.599512 5.58894 0
M  V30 8825 H 825.932 1.19554 1.75558 0
M  V30 8826 H 828.195 0.480765 0.817049 0
M  V30 8827 H 827.901 1.24835 3.28799 0
M  V30 8828 H 827.775 -0.440846 3.74615 0
M  V30 8829 H 830.162 -0.827263 2.83267 0
M  V30 8830 H 830.243 0.886399 2.39951 0
M  V30 8831 H 829.887 1.50026 4.85237 0
M  V30 8832 H 829.817 -0.232371 5.26087 0
M  V30 8833 H 832.308 0.237388 3.77154 0
M  V30 8834 H 832.621 1.10791 7.64817 0
M  V30 8835 H 830.966 0.989496 6.8792 0
M  V30 8836 H 834.157 0.378088 4.66571 0
M  V30 8837 H 834.33 0.774828 6.43351 0
M  V30 8838 N 827.736 -1.57571 -0.0300757 0
M  V30 8839 C 828.982 -1.89506 -0.722159 0
M  V30 8840 C 829.315 -0.840699 -1.7506 0
M  V30 8841 O 828.59 0.144358 -1.93964 0
M  V30 8842 C 828.873 -3.32081 -1.39262 0
M  V30 8843 C 828.726 -4.48211 -0.377768 0
M  V30 8844 C 830.045 -3.73557 -2.32687 0
M  V30 8845 H 827.164 -0.689213 -0.261064 0
M  V30 8846 H 829.806 -1.89994 0.0150388 0
M  V30 8847 H 827.956 -3.31796 -2.02098 0
M  V30 8848 H 829.628 -4.6063 0.248591 0
M  V30 8849 H 827.871 -4.3274 0.303045 0
M  V30 8850 H 828.542 -5.44854 -0.885347 0
M  V30 8851 H 831.018 -3.75202 -1.79896 0
M  V30 8852 H 829.894 -4.74125 -2.7658 0
M  V30 8853 H 830.155 -3.05759 -3.19317 0
M  V30 8854 N 829.214 0.302327 -1.54673 0
M  V30 8855 C 830.463 1.03533 -1.73101 0
M  V30 8856 C 830.776 1.88473 -0.523174 0
M  V30 8857 O 831.982 2.65029 -0.589229 0
M  V30 8858 C 830.438 1.89043 -3.06252 0
M  V30 8859 C 830.046 1.09112 -4.3451 0
M  V30 8860 C 831.79 2.61951 -3.34039 0
M  V30 8861 C 829.697 1.93891 -5.58713 0
M  V30 8862 H 828.627 0.390261 -0.645145 0
M  V30 8863 H 831.278 0.2924 -1.81155 0
M  V30 8864 H 829.66 2.67319 -2.92159 0
M  V30 8865 H 830.834 0.354596 -4.59434 0
M  V30 8866 H 829.149 0.477923 -4.13648 0
M  V30 8867 H 831.746 3.25729 -4.24033 0
M  V30 8868 H 832.089 3.30711 -2.52855 0
M  V30 8869 H 832.622 1.90725 -3.49097 0
M  V30 8870 H 829.361 1.29604 -6.4256 0
M  V30 8871 H 828.881 2.6522 -5.37976 0
M  V30 8872 H 830.56 2.51971 -5.95919 0
M  V30 8873 N 830.692 1.47107 0.565454 0
M  V30 8874 C 831.602 1.61591 1.70075 0
M  V30 8875 C 832.618 0.498931 1.66693 0
M  V30 8876 O 833.794 0.765372 1.8629 0
M  V30 8877 C 830.859 1.61887 3.06583 0
M  V30 8878 C 829.92 2.84949 3.21096 0
M  V30 8879 C 829.153 2.85221 4.51093 0
M  V30 8880 O 829.376 1.94959 5.36048 0
M  V30 8881 O 828.31 3.76982 4.69221 0
M  V30 8882 H 832.136 2.57638 1.60799 0
M  V30 8883 H 829.721 1.30097 0.73451 0
M  V30 8884 H 831.603 1.64809 3.87835 0
M  V30 8885 H 830.278 0.69005 3.16259 0
M  V30 8886 H 829.185 2.87575 2.39273 0
M  V30 8887 H 830.518 3.77098 3.1632 0
M  V30 8888 N 832.17 -0.811516 1.35101 0
M  V30 8889 C 833.395 -1.60499 1.31358 0
M  V30 8890 C 833.82 -1.87793 -0.107383 0
M  V30 8891 O 833.178 -1.46161 -1.07268 0
M  V30 8892 C 833.226 -2.91612 2.12119 0
M  V30 8893 O 832.33 -3.84211 1.49853 0
M  V30 8894 H 831.671 -0.487702 0.450603 0
M  V30 8895 H 834.201 -1.00758 1.7807 0
M  V30 8896 H 834.211 -3.4108 2.23894 0
M  V30 8897 H 832.886 -2.71071 3.15426 0
M  V30 8898 H 831.463 -3.42751 1.46889 0
M  V30 8899 N 833.648 -1.19017 -1.03309 0
M  V30 8900 C 834.897 -0.984542 -1.76039 0
M  V30 8901 C 835.21 0.485937 -1.89468 0
M  V30 8902 O 836.416 0.810278 -2.59127 0
M  V30 8903 C 834.872 -1.71261 -3.1654 0
M  V30 8904 C 834.48 -3.22291 -3.11179 0
M  V30 8905 C 836.224 -1.59007 -3.93595 0
M  V30 8906 C 834.131 -3.87704 -4.46587 0
M  V30 8907 H 833.061 -0.364749 -0.659905 0
M  V30 8908 H 835.712 -1.4247 -1.15649 0
M  V30 8909 H 834.094 -1.20025 -3.77373 0
M  V30 8910 H 835.268 -3.80611 -2.59753 0
M  V30 8911 H 833.583 -3.34772 -2.47622 0
M  V30 8912 H 836.18 -2.05232 -4.93745 0
M  V30 8913 H 836.523 -0.543534 -4.12736 0
M  V30 8914 H 837.056 -2.07564 -3.39355 0
M  V30 8915 H 833.795 -4.92437 -4.3265 0
M  V30 8916 H 833.315 -3.34172 -4.98085 0
M  V30 8917 H 834.994 -3.91008 -5.15482 0
M  V30 8918 N 835.127 1.22348 -0.993418 0
M  V30 8919 C 836.352 1.95666 -0.687727 0
M  V30 8920 C 836.777 1.72883 0.741161 0
M  V30 8921 O 836.135 1.00837 1.50671 0
M  V30 8922 C 836.183 3.46457 -0.99998 0
M  V30 8923 O 835.287 4.12281 -0.0989386 0
M  V30 8924 H 834.628 0.612102 -0.257346 0
M  V30 8925 H 837.158 1.55428 -1.33054 0
M  V30 8926 H 837.168 3.96976 -0.942035 0
M  V30 8927 H 835.843 3.62365 -2.04118 0
M  V30 8928 H 834.42 3.72295 -0.212413 0
M  V30 8929 N 836.605 0.766683 1.37694 0
M  V30 8930 C 838.016 0.394761 1.82479 0
M  V30 8931 C 838.367 -1.07842 1.63904 0
M  V30 8932 O 837.492 -1.83479 1.14737 0
M  V30 8933 C 838.087 0.70974 3.31283 0
M  V30 8934 C 836.646 0.390936 3.74364 0
M  V30 8935 C 835.793 0.956192 2.60293 0
M  V30 8936 H 838.744 0.961756 1.26238 0
M  V30 8937 H 838.765 -0.00742144 3.80499 0
M  V30 8938 H 838.277 1.782 3.4477 0
M  V30 8939 H 836.378 -0.674213 3.66449 0
M  V30 8940 H 836.491 0.895645 4.70654 0
M  V30 8941 H 834.855 0.380744 2.51838 0
M  V30 8942 H 835.638 2.03375 2.76575 0
M  V30 8943 N 838.083 -1.48885 0.516809 0
M  V30 8944 C 839.36 -1.95412 -0.0858293 0
M  V30 8945 C 839.74 -1.45875 -1.5259 0
M  V30 8946 O 839.088 -0.679415 -2.18166 0
M  V30 8947 C 839.298 -3.48995 0.0178194 0
M  V30 8948 C 840.646 -4.24342 -0.14813 0
M  V30 8949 O 841.67 -3.56155 -0.0566125 0
M  V30 8950 O 840.529 -5.45454 -0.338035 0
M  V30 8951 H 837.623 -0.822455 -0.0865884 0
M  V30 8952 H 840.169 -1.59464 0.580472 0
M  V30 8953 H 838.941 -3.77732 1.02147 0
M  V30 8954 H 838.564 -3.91604 -0.687924 0
M  V30 8955 N 839.561 -0.251338 -1.55583 0
M  V30 8956 C 840.809 0.371434 -1.98657 0
M  V30 8957 C 841.13 1.58143 -1.14087 0
M  V30 8958 O 840.4 1.94607 -0.224708 0
M  V30 8959 H 838.98 0.140225 -0.733721 0
M  V30 8960 H 841.642 -0.351157 -1.9171 0
M  V30 8961 H 840.738 0.677554 -3.04657 0
M  V30 8962 N 841.039 1.57585 0.0217189 0
M  V30 8963 C 841.989 2.03506 1.02807 0
M  V30 8964 C 842.973 0.925716 1.31603 0
M  V30 8965 O 844.165 1.18958 1.31065 0
M  V30 8966 C 841.294 2.52407 2.32693 0
M  V30 8967 C 840.38 3.70176 2.06955 0
M  V30 8968 N 840.771 4.82641 1.513 0
M  V30 8969 C 839.069 3.77691 2.37204 0
M  V30 8970 C 839.77 5.64218 1.41536 0
M  V30 8971 N 838.746 5.09557 1.89348 0
M  V30 8972 H 842.548 2.87878 0.591899 0
M  V30 8973 H 840.062 1.60793 0.227875 0
M  V30 8974 H 842.059 2.83569 3.05605 0
M  V30 8975 H 840.719 1.69444 2.76982 0
M  V30 8976 H 841.73 5.03931 1.19472 0
M  V30 8977 H 838.407 3.05542 2.84517 0
M  V30 8978 H 839.797 6.64576 0.989333 0
M  V30 8979 N 842.517 -0.29412 1.54831 0
M  V30 8980 C 843.427 -1.3854 1.89325 0
M  V30 8981 C 844.443 -1.55127 0.788133 0
M  V30 8982 O 845.619 -1.6966 1.08524 0
M  V30 8983 C 842.684 -2.72809 2.13954 0
M  V30 8984 C 841.745 -2.65148 3.37631 0
M  V30 8985 C 840.978 -3.93014 3.61076 0
M  V30 8986 O 841.201 -4.927 2.87406 0
M  V30 8987 O 840.135 -3.94491 4.54599 0
M  V30 8988 H 843.961 -1.12289 2.82179 0
M  V30 8989 H 841.546 -0.490793 1.41108 0
M  V30 8990 H 843.428 -3.52238 2.31315 0
M  V30 8991 H 842.103 -2.9889 1.24285 0
M  V30 8992 H 841.01 -1.84168 3.25627 0
M  V30 8993 H 842.343 -2.4402 4.27452 0
M  V30 8994 N 843.995 -1.47404 -0.557645 0
M  V30 8995 C 845.225 -1.57393 -1.33832 0
M  V30 8996 C 845.633 -0.222978 -1.87881 0
M  V30 8997 O 844.976 0.793854 -1.65661 0
M  V30 8998 C 845.038 -2.53882 -2.54528 0
M  V30 8999 C 844.702 -3.99585 -2.21767 0
M  V30 9000 C 845.699 -4.88082 -1.79087 0
M  V30 9001 C 843.384 -4.44917 -2.3314 0
M  V30 9002 C 845.378 -6.1993 -1.48209 0
M  V30 9003 C 843.065 -5.76793 -2.01874 0
M  V30 9004 C 844.063 -6.64121 -1.59476 0
M  V30 9005 O 843.751 -7.93546 -1.28607 0
M  V30 9006 H 843.483 -0.534172 -0.41429 0
M  V30 9007 H 846.037 -1.93733 -0.682404 0
M  V30 9008 H 844.267 -2.12609 -3.23009 0
M  V30 9009 H 845.956 -2.54003 -3.16603 0
M  V30 9010 H 846.722 -4.54307 -1.69794 0
M  V30 9011 H 842.601 -3.77152 -2.65099 0
M  V30 9012 H 846.145 -6.88049 -1.15043 0
M  V30 9013 H 842.042 -6.1011 -2.10799 0
M  V30 9014 H 842.81 -8.06046 -1.42241 0
M  V30 9015 N 845.473 0.80434 -1.35529 0
M  V30 9016 C 846.722 1.55665 -1.28263 0
M  V30 9017 C 847.035 1.95096 0.140352 0
M  V30 9018 O 848.241 2.69422 0.335303 0
M  V30 9019 C 846.697 2.80935 -2.24952 0
M  V30 9020 C 846.305 2.48733 -3.72607 0
M  V30 9021 C 848.049 3.5894 -2.26632 0
M  V30 9022 C 845.956 3.70308 -4.61114 0
M  V30 9023 H 844.886 0.584301 -0.476559 0
M  V30 9024 H 847.537 0.88395 -1.60806 0
M  V30 9025 H 845.919 3.49927 -1.85383 0
M  V30 9026 H 847.093 1.87733 -4.20824 0
M  V30 9027 H 845.408 1.83969 -3.73557 0
M  V30 9028 H 848.005 4.49244 -2.89973 0
M  V30 9029 H 848.348 3.96433 -1.27069 0
M  V30 9030 H 848.881 2.96912 -2.64742 0
M  V30 9031 H 845.62 3.37922 -5.61684 0
M  V30 9032 H 845.14 4.30526 -4.17621 0
M  V30 9033 H 846.819 4.37511 -4.76648 0
M  V30 9034 N 846.951 1.19563 1.02676 0
M  V30 9035 C 848.181 1.0234 1.79472 0
M  V30 9036 C 848.589 -0.430891 1.84228 0
M  V30 9037 O 847.932 -1.31106 1.28674 0
M  V30 9038 C 847.994 1.51901 3.25832 0
M  V30 9039 C 847.658 3.00045 3.44706 0
M  V30 9040 C 848.655 3.9779 3.34752 0
M  V30 9041 C 846.34 3.38784 3.70851 0
M  V30 9042 C 848.334 5.32267 3.50672 0
M  V30 9043 C 846.021 4.73419 3.86416 0
M  V30 9044 C 847.019 5.69969 3.7633 0
M  V30 9045 O 846.707 7.02165 3.91432 0
M  V30 9046 H 846.439 0.360936 0.571578 0
M  V30 9047 H 848.993 1.58863 1.30198 0
M  V30 9048 H 847.223 0.897546 3.7614 0
M  V30 9049 H 848.912 1.30853 3.84229 0
M  V30 9050 H 849.678 3.69207 3.14502 0
M  V30 9051 H 845.557 2.64183 3.77794 0
M  V30 9052 H 849.101 6.07612 3.42715 0
M  V30 9053 H 844.998 5.01697 4.06165 0
M  V30 9054 H 845.766 7.09268 4.08511 0
M  V30 9055 N 848.429 -1.21819 0.999893 0
M  V30 9056 C 849.675 -1.91035 0.680701 0
M  V30 9057 C 850.008 -1.77582 -0.786021 0
M  V30 9058 O 849.283 -1.14917 -1.56921 0
M  V30 9059 C 849.566 -3.43013 1.0961 0
M  V30 9060 C 849.419 -3.65481 2.6219 0
M  V30 9061 C 850.738 -4.35204 0.654616 0
M  V30 9062 H 847.857 -0.693748 0.248763 0
M  V30 9063 H 850.499 -1.43555 1.24466 0
M  V30 9064 H 848.649 -3.83581 0.616253 0
M  V30 9065 H 850.321 -3.34273 3.17899 0
M  V30 9066 H 848.564 -3.09522 3.03938 0
M  V30 9067 H 849.235 -4.71945 2.86307 0
M  V30 9068 H 851.711 -4.0219 1.06688 0
M  V30 9069 H 850.587 -5.40198 0.973492 0
M  V30 9070 H 850.848 -4.3986 -0.444458 0
M  V30 9071 N 849.908 -0.773975 -1.37286 0
M  V30 9072 C 851.185 -0.263942 -1.93811 0
M  V30 9073 C 851.565 1.24138 -1.70743 0
M  V30 9074 O 850.913 2.02557 -1.05749 0
M  V30 9075 C 851.123 -0.639753 -3.43086 0
M  V30 9076 C 852.471 -0.610796 -4.20184 0
M  V30 9077 O 853.495 -0.579278 -3.51458 0
M  V30 9078 O 852.354 -0.639862 -5.42741 0
M  V30 9079 H 849.448 -0.0614331 -0.824715 0
M  V30 9080 H 851.994 -0.855477 -1.46559 0
M  V30 9081 H 850.766 -1.67856 -3.53469 0
M  V30 9082 H 850.389 -0.0212827 -3.97594 0
M  V30 9083 N 851.386 1.48609 -0.524698 0
M  V30 9084 C 852.797 1.86516 -0.0828846 0
M  V30 9085 C 853.148 1.43478 1.33822 0
M  V30 9086 O 852.273 0.823139 2.00133 0
M  V30 9087 C 852.868 3.38495 -0.143639 0
M  V30 9088 C 851.427 3.75615 0.242951 0
M  V30 9089 C 850.574 2.72649 -0.505747 0
M  V30 9090 H 853.525 1.40589 -0.736233 0
M  V30 9091 H 853.546 3.74977 0.645955 0
M  V30 9092 H 853.058 3.69789 -1.17805 0
M  V30 9093 H 851.159 3.49935 1.27971 0
M  V30 9094 H 851.272 4.7901 -0.0929834 0
M  V30 9095 H 849.636 2.54656 0.0473482 0
M  V30 9096 H 850.419 3.06786 -1.54069 0
M  V30 9097 N 852.864 0.259585 1.55447 0
M  V30 9098 C 853.797 -0.675542 2.17972 0
M  V30 9099 C 854.775 -1.16362 1.13572 0
M  V30 9100 O 855.959 -1.23944 1.42021 0
M  V30 9101 C 853.086 -1.91952 2.79056 0
M  V30 9102 C 852.132 -1.56824 3.96621 0
M  V30 9103 S 852.965 -0.659846 5.31419 0
M  V30 9104 C 854.121 -1.91255 5.95963 0
M  V30 9105 H 854.354 -0.144236 2.9695 0
M  V30 9106 H 851.887 0.0439448 1.54337 0
M  V30 9107 H 853.845 -2.63362 3.14882 0
M  V30 9108 H 852.506 -2.42196 2 0
M  V30 9109 H 851.699 -2.49348 4.37997 0
M  V30 9110 H 851.301 -0.934472 3.62138 0
M  V30 9111 H 853.593 -2.85834 6.14252 0
M  V30 9112 H 854.536 -1.54207 6.91105 0
M  V30 9113 H 854.944 -2.07042 5.25161 0
M  V30 9114 N 854.342 -1.57594 -0.0133615 0
M  V30 9115 C 855.274 -2.04402 -1.03695 0
M  V30 9116 C 856.287 -0.959546 -1.31516 0
M  V30 9117 O 857.476 -1.23659 -1.28727 0
M  V30 9118 C 854.576 -2.41766 -2.37491 0
M  V30 9119 C 853.749 -3.72785 -2.28802 0
M  V30 9120 C 852.808 -3.97165 -3.45176 0
M  V30 9121 O 851.834 -4.68013 -3.23963 0
M  V30 9122 N 853.036 -3.44021 -4.67579 0
M  V30 9123 H 855.801 -2.92833 -0.637874 0
M  V30 9124 H 853.362 -1.60647 -0.20101 0
M  V30 9125 H 855.354 -2.55201 -3.14093 0
M  V30 9126 H 853.924 -1.58924 -2.69188 0
M  V30 9127 H 853.144 -3.69555 -1.37197 0
M  V30 9128 H 854.432 -4.58704 -2.20154 0
M  V30 9129 H 853.83 -2.86623 -4.87713 0
M  V30 9130 H 852.387 -3.62808 -5.41492 0
M  V30 9131 N 855.82 0.285905 -1.54985 0
M  V30 9132 C 856.75 1.35752 -1.89983 0
M  V30 9133 C 857.731 1.52163 -0.760295 0
M  V30 9134 O 858.916 1.65421 -1.01733 0
M  V30 9135 C 856.046 2.71925 -2.16042 0
M  V30 9136 C 855 2.70261 -3.31878 0
M  V30 9137 C 854.326 4.09864 -3.43388 0
M  V30 9138 C 855.626 2.30667 -4.68604 0
M  V30 9139 H 857.32 1.06709 -2.79738 0
M  V30 9140 H 854.866 0.511884 -1.34595 0
M  V30 9141 H 856.819 3.46992 -2.39113 0
M  V30 9142 H 855.543 3.02523 -1.23074 0
M  V30 9143 H 854.202 1.97651 -3.08755 0
M  V30 9144 H 853.85 4.37664 -2.47909 0
M  V30 9145 H 853.55 4.09648 -4.21262 0
M  V30 9146 H 855.074 4.86689 -3.68736 0
M  V30 9147 H 856.488 2.95453 -4.91305 0
M  V30 9148 H 854.885 2.41637 -5.49301 0
M  V30 9149 H 855.955 1.25793 -4.68299 0
M  V30 9150 N 857.298 1.47698 0.54982 0
M  V30 9151 C 858.709 1.48474 1.13191 0
M  V30 9152 C 859.06 0.243504 1.94683 0
M  V30 9153 O 858.185 -0.651009 2.06375 0
M  V30 9154 C 858.78 2.69022 2.05944 0
M  V30 9155 C 857.339 2.72733 2.5941 0
M  V30 9156 C 856.486 2.41691 1.35944 0
M  V30 9157 H 859.437 1.55101 0.336048 0
M  V30 9158 H 859.458 2.46412 2.89934 0
M  V30 9159 H 858.97 3.59345 1.46605 0
M  V30 9160 H 857.071 1.86568 3.22526 0
M  V30 9161 H 857.184 3.73628 2.99899 0
M  V30 9162 H 855.548 1.92428 1.66864 0
M  V30 9163 H 856.331 3.34231 0.783869 0
M  V30 9164 N 858.776 -0.797141 1.35954 0
M  V30 9165 C 860.006 -1.5835 1.32698 0
M  V30 9166 C 860.414 -1.88959 -0.0955298 0
M  V30 9167 O 859.757 -1.49987 -1.06064 0
M  V30 9168 C 859.819 -2.93529 2.0756 0
M  V30 9169 C 859.483 -2.85688 3.56695 0
M  V30 9170 C 860.48 -2.58467 4.51099 0
M  V30 9171 C 858.165 -3.04508 3.99475 0
M  V30 9172 C 860.159 -2.50157 5.8626 0
M  V30 9173 C 857.846 -2.9582 5.34728 0
M  V30 9174 C 858.844 -2.68681 6.27933 0
M  V30 9175 O 858.532 -2.59973 7.60703 0
M  V30 9176 H 858.264 -0.49807 0.457059 0
M  V30 9177 H 860.818 -0.997889 1.79531 0
M  V30 9178 H 859.048 -3.54111 1.55378 0
M  V30 9179 H 860.737 -3.54744 1.9726 0
M  V30 9180 H 861.503 -2.43638 4.19363 0
M  V30 9181 H 857.382 -3.24641 3.27306 0
M  V30 9182 H 860.926 -2.28894 6.58979 0
M  V30 9183 H 856.823 -3.10211 5.66074 0
M  V30 9184 H 857.591 -2.75511 7.70737 0
M  V30 9185 N 860.254 -1.20106 -1.0204 0
M  V30 9186 C 861.531 -0.918029 -1.72718 0
M  V30 9187 C 861.911 0.574163 -2.03142 0
M  V30 9188 O 861.259 1.53476 -1.69285 0
M  V30 9189 C 861.469 -1.78698 -2.9978 0
M  V30 9190 C 862.817 -2.02648 -3.7312 0
M  V30 9191 O 863.841 -1.75919 -3.09727 0
M  V30 9192 O 862.7 -2.47767 -4.87107 0
M  V30 9193 H 859.794 -0.342904 -0.752559 0
M  V30 9194 H 862.34 -1.30961 -1.07923 0
M  V30 9195 H 861.112 -2.79757 -2.7359 0
M  V30 9196 H 860.735 -1.39522 -3.72316 0
M  V30 9197 N 861.732 1.21287 -1.00634 0
M  V30 9198 C 862.957 1.94925 -0.708441 0
M  V30 9199 C 863.382 1.73659 0.722783 0
M  V30 9200 O 862.74 1.02429 1.49593 0
M  V30 9201 C 862.788 3.45377 -1.03667 0
M  V30 9202 O 861.892 4.12153 -0.142661 0
M  V30 9203 H 861.233 0.609338 -0.263824 0
M  V30 9204 H 863.763 1.54008 -1.34695 0
M  V30 9205 H 863.773 3.95954 -0.984086 0
M  V30 9206 H 862.448 3.6018 -2.0795 0
M  V30 9207 H 861.025 3.72048 -0.251888 0
M  V30 9208 N 863.21 0.781244 1.36873 0
M  V30 9209 C 864.626 0.461968 1.52768 0
M  V30 9210 C 864.826 -1.02099 1.73719 0
M  V30 9211 O 863.882 -1.80665 1.76399 0
M  V30 9212 C 865.195 1.2853 2.71846 0
M  V30 9213 C 866.743 1.27817 2.85713 0
M  V30 9214 C 867.218 2.08506 4.07786 0
M  V30 9215 N 868.709 2.05909 4.14917 0
M  V30 9216 C 869.444 2.65118 5.08429 0
M  V30 9217 N 868.94 3.33152 6.07438 0
M  V30 9218 N 870.733 2.54896 5.00983 0
M  V30 9219 H 862.884 1.74198 1.21527 0
M  V30 9220 H 865.147 0.740027 0.592506 0
M  V30 9221 H 864.853 2.3366 2.62861 0
M  V30 9222 H 864.727 0.920981 3.65784 0
M  V30 9223 H 867.114 0.234817 2.94164 0
M  V30 9224 H 867.195 1.68219 1.92707 0
M  V30 9225 H 866.839 3.12867 4.00096 0
M  V30 9226 H 866.769 1.65479 4.99924 0
M  V30 9227 H 869.26 1.56386 3.44023 0
M  V30 9228 H 869.573 3.75681 6.75339 0
M  V30 9229 H 867.918 3.37253 6.07689 0
M  V30 9230 H 871.109 2.01352 4.22581 0
M  V30 9231 H 871.282 3.01332 5.73675 0
M  V30 9232 N 864.689 -1.48329 0.532571 0
M  V30 9233 C 865.935 -2.03399 0.00755104 0
M  V30 9234 C 866.29 -1.40213 -1.3175 0
M  V30 9235 O 865.583 -0.539633 -1.83844 0
M  V30 9236 C 865.777 -3.57 -0.168943 0
M  V30 9237 C 865.606 -4.35077 1.13745 0
M  V30 9238 C 864.376 -4.75915 1.69803 0
M  V30 9239 C 866.574 -4.71734 2.04869 0
M  V30 9240 N 864.556 -5.38538 2.94703 0
M  V30 9241 C 865.927 -5.34403 3.14346 0
M  V30 9242 C 867.982 -4.53665 2.05164 0
M  V30 9243 C 866.685 -5.80912 4.24186 0
M  V30 9244 C 868.711 -5.01157 3.13999 0
M  V30 9245 C 868.073 -5.63853 4.22195 0
M  V30 9246 H 864.172 -0.780743 0.0443253 0
M  V30 9247 H 866.756 -1.81119 0.714423 0
M  V30 9248 H 864.927 -3.79099 -0.844903 0
M  V30 9249 H 866.659 -3.98708 -0.693804 0
M  V30 9250 H 863.414 -4.57103 1.23909 0
M  V30 9251 H 863.838 -5.74413 3.583 0
M  V30 9252 H 868.48 -4.04571 1.22808 0
M  V30 9253 H 866.198 -6.2901 5.07318 0
M  V30 9254 H 869.784 -4.88965 3.15285 0
M  V30 9255 H 868.664 -5.99935 5.05023 0
M  V30 9256 N 866.167 -0.267825 -1.55308 0
M  V30 9257 C 867.077 0.633055 -2.25897 0
M  V30 9258 C 868.093 1.17613 -1.28231 0
M  V30 9259 O 869.269 1.20797 -1.61153 0
M  V30 9260 C 866.334 1.80397 -2.96071 0
M  V30 9261 C 865.395 1.29829 -4.09198 0
M  V30 9262 C 864.628 2.4134 -4.76016 0
M  V30 9263 O 864.851 3.60537 -4.42006 0
M  V30 9264 O 863.785 2.09909 -5.64111 0
M  V30 9265 H 867.611 0.0614381 -3.03638 0
M  V30 9266 H 865.196 -0.0355072 -1.49358 0
M  V30 9267 H 867.078 2.48685 -3.40197 0
M  V30 9268 H 865.753 2.36281 -2.21253 0
M  V30 9269 H 864.66 0.582086 -3.69544 0
M  V30 9270 H 865.993 0.785288 -4.85895 0
M  V30 9271 N 867.645 1.57599 0.00500368 0
M  V30 9272 C 868.892 1.90349 0.690895 0
M  V30 9273 C 869.22 0.868045 1.74055 0
M  V30 9274 O 868.475 -0.127855 1.95282 0
M  V30 9275 C 868.774 3.29855 1.37588 0
M  V30 9276 C 868.44 4.48548 0.459906 0
M  V30 9277 C 867.102 4.80752 0.207693 0
M  V30 9278 C 869.454 5.20919 -0.171054 0
M  V30 9279 C 866.782 5.82701 -0.683855 0
M  V30 9280 C 869.134 6.23818 -1.05045 0
M  V30 9281 C 867.798 6.54481 -1.31189 0
M  V30 9282 H 867.068 0.696538 0.252816 0
M  V30 9283 H 869.715 1.91436 -0.0494495 0
M  V30 9284 H 868.02 3.24869 2.19015 0
M  V30 9285 H 869.717 3.52452 1.91255 0
M  V30 9286 H 866.307 4.23384 0.666648 0
M  V30 9287 H 870.491 4.96299 0.0107942 0
M  V30 9288 H 865.747 6.04822 -0.894467 0
M  V30 9289 H 869.921 6.79029 -1.54574 0
M  V30 9290 H 867.548 7.33299 -2.00442 0
M  V30 9291 N 869.123 -0.277682 1.55134 0
M  V30 9292 C 870.534 -0.849063 1.66276 0
M  V30 9293 C 870.885 -1.87223 0.5867 0
M  V30 9294 O 870.01 -2.14676 -0.272635 0
M  V30 9295 C 870.605 -1.54681 3.01429 0
M  V30 9296 C 869.164 -2.06628 3.14614 0
M  V30 9297 C 868.311 -0.906748 2.62056 0
M  V30 9298 H 871.262 -0.0541357 1.58608 0
M  V30 9299 H 871.283 -2.41356 2.94156 0
M  V30 9300 H 870.795 -0.80189 3.79725 0
M  V30 9301 H 868.896 -2.84095 2.41082 0
M  V30 9302 H 869.009 -2.2848 4.2111 0
M  V30 9303 H 867.373 -1.29882 2.19095 0
M  V30 9304 H 868.156 -0.175414 3.42852 0
M  V30 9305 N 870.601 -1.47988 -0.541979 0
M  V30 9306 C 872.017 -1.33843 -0.869383 0
M  V30 9307 C 872.217 -0.340374 -1.98604 0
M  V30 9308 O 871.273 0.242696 -2.51331 0
M  V30 9309 C 872.586 -2.73568 -1.24823 0
M  V30 9310 C 874.134 -2.81967 -1.3588 0
M  V30 9311 C 874.609 -4.22368 -1.77114 0
M  V30 9312 N 876.1 -4.24983 -1.84237 0
M  V30 9313 C 876.835 -5.30547 -2.17503 0
M  V30 9314 N 876.331 -6.46401 -2.49275 0
M  V30 9315 N 878.124 -5.17933 -2.18406 0
M  V30 9316 H 870.275 -2.11503 0.195001 0
M  V30 9317 H 872.538 -0.947681 0.0245862 0
M  V30 9318 H 872.244 -3.48107 -0.501435 0
M  V30 9319 H 872.118 -3.06322 -2.20106 0
M  V30 9320 H 874.505 -2.07692 -2.09638 0
M  V30 9321 H 874.586 -2.52848 -0.387478 0
M  V30 9322 H 874.23 -4.97155 -1.0392 0
M  V30 9323 H 874.16 -4.48922 -2.75275 0
M  V30 9324 H 876.651 -3.41411 -1.62009 0
M  V30 9325 H 876.964 -7.22698 -2.73729 0
M  V30 9326 H 875.309 -6.49696 -2.46821 0
M  V30 9327 H 878.5 -4.26445 -1.93034 0
M  V30 9328 H 878.673 -6.00307 -2.44 0
M  V30 9329 N 872.079 0.78992 -1.36375 0
M  V30 9330 C 873.356 1.53584 -1.21126 0
M  V30 9331 C 873.736 2.10124 0.202785 0
M  V30 9332 O 873.084 1.93936 1.20835 0
M  V30 9333 C 873.294 2.63117 -2.29282 0
M  V30 9334 C 874.642 3.31013 -2.65924 0
M  V30 9335 O 875.666 2.734 -2.28321 0
M  V30 9336 O 874.525 4.35129 -3.30643 0
M  V30 9337 H 871.619 0.679366 -0.471583 0
M  V30 9338 H 874.165 0.828446 -1.48104 0
M  V30 9339 H 872.937 2.19329 -3.24053 0
M  V30 9340 H 872.56 3.41476 -2.03666 0
M  V30 9341 N 873.557 1.20646 1.01402 0
M  V30 9342 C 874.805 1.01618 1.74695 0
M  V30 9343 C 875.126 -0.452438 1.89679 0
M  V30 9344 O 874.396 -1.32693 1.44116 0
M  V30 9345 H 872.976 0.373013 0.647202 0
M  V30 9346 H 875.638 1.518 1.22241 0
M  V30 9347 H 874.734 1.47666 2.74957 0
M  V30 9348 N 875.035 -1.20752 1.01276 0
M  V30 9349 C 875.965 -2.25658 0.600064 0
M  V30 9350 C 876.946 -1.65733 -0.38298 0
M  V30 9351 O 878.131 -1.92324 -0.269256 0
M  V30 9352 C 875.261 -3.47237 -0.0663197 0
M  V30 9353 C 874.215 -4.1973 0.83731 0
M  V30 9354 C 873.541 -5.34687 0.0369102 0
M  V30 9355 C 874.841 -4.76286 2.14357 0
M  V30 9356 H 876.535 -2.60432 1.477 0
M  V30 9357 H 874.081 -1.25187 0.711634 0
M  V30 9358 H 876.034 -4.19803 -0.366563 0
M  V30 9359 H 874.758 -3.11615 -0.977944 0
M  V30 9360 H 873.417 -3.49024 1.1215 0
M  V30 9361 H 873.065 -4.95309 -0.876244 0
M  V30 9362 H 872.765 -5.84119 0.63865 0
M  V30 9363 H 874.289 -6.10059 -0.256968 0
M  V30 9364 H 875.703 -5.40691 1.90595 0
M  V30 9365 H 874.1 -5.36139 2.69583 0
M  V30 9366 H 875.17 -3.9524 2.80916 0
M  V30 9367 N 876.513 -0.788492 -1.36457 0
M  V30 9368 C 877.759 -0.360995 -1.99561 0
M  V30 9369 C 878.092 1.06433 -1.62437 0
M  V30 9370 O 877.367 1.7352 -0.878705 0
M  V30 9371 C 877.65 -0.523735 -3.56271 0
M  V30 9372 C 877.503 -1.99268 -4.03252 0
M  V30 9373 C 878.822 0.0617908 -4.40057 0
M  V30 9374 H 875.941 -0.13264 -0.724966 0
M  V30 9375 H 878.583 -0.994659 -1.61884 0
M  V30 9376 H 876.733 0.0156979 -3.88497 0
M  V30 9377 H 878.405 -2.59311 -3.81518 0
M  V30 9378 H 876.648 -2.49561 -3.54826 0
M  V30 9379 H 877.319 -2.05752 -5.12221 0
M  V30 9380 H 879.795 -0.398674 -4.14186 0
M  V30 9381 H 878.671 -0.0821089 -5.48839 0
M  V30 9382 H 878.932 1.15381 -4.26778 0
M  V30 9383 N 877.991 1.48044 -0.54043 0
M  V30 9384 C 878.921 2.32597 0.205178 0
M  V30 9385 C 879.902 1.42748 0.925041 0
M  V30 9386 O 881.087 1.71624 0.908784 0
M  V30 9387 C 878.217 3.24175 1.24612 0
M  V30 9388 C 877.171 4.23131 0.64376 0
M  V30 9389 C 876.497 5.03915 1.78812 0
M  V30 9390 C 877.797 5.20831 -0.39144 0
M  V30 9391 H 879.491 2.95184 -0.500676 0
M  V30 9392 H 877.037 1.41948 -0.242225 0
M  V30 9393 H 878.99 3.82158 1.77576 0
M  V30 9394 H 877.714 2.59608 1.98169 0
M  V30 9395 H 876.373 3.66349 0.135554 0
M  V30 9396 H 876.021 4.35765 2.51232 0
M  V30 9397 H 875.721 5.709 1.39094 0
M  V30 9398 H 877.245 5.64753 2.32134 0
M  V30 9399 H 878.659 5.73277 0.0515064 0
M  V30 9400 H 877.056 5.95926 -0.706569 0
M  V30 9401 H 878.126 4.6733 -1.29345 0
M  V30 9402 N 879.47 0.276058 1.55163 0
M  V30 9403 C 880.718 -0.339782 1.99223 0
M  V30 9404 C 881.039 -1.56307 1.16589 0
M  V30 9405 O 880.309 -1.94225 0.25564 0
M  V30 9406 H 878.889 -0.128534 0.735859 0
M  V30 9407 H 881.551 0.381612 1.91128 0
M  V30 9408 H 880.647 -0.629 3.05696 0
M  V30 9409 N 880.948 -1.576 0.00335426 0
M  V30 9410 C 882.364 -1.55653 -0.352766 0
M  V30 9411 C 882.564 -1.00632 -1.74572 0
M  V30 9412 O 881.62 -0.641621 -2.44212 0
M  V30 9413 C 882.933 -2.99858 -0.224929 0
M  V30 9414 C 884.481 -3.11563 -0.299619 0
M  V30 9415 C 884.956 -4.57559 -0.200868 0
M  V30 9416 N 886.447 -4.62477 -0.258663 0
M  V30 9417 C 887.182 -5.73031 -0.205644 0
M  V30 9418 N 886.678 -6.92723 -0.103027 0
M  V30 9419 N 888.471 -5.61509 -0.257754 0
M  V30 9420 H 880.622 -1.91703 0.914539 0
M  V30 9421 H 882.885 -0.88068 0.350865 0
M  V30 9422 H 882.591 -3.43964 0.733595 0
M  V30 9423 H 882.465 -3.63547 -1.00564 0
M  V30 9424 H 884.852 -2.67384 -1.24859 0
M  V30 9425 H 884.933 -2.50644 0.511025 0
M  V30 9426 H 884.577 -5.02413 0.744572 0
M  V30 9427 H 884.507 -5.16428 -1.03004 0
M  V30 9428 H 886.998 -3.76375 -0.339168 0
M  V30 9429 H 887.311 -7.7277 -0.0685593 0
M  V30 9430 H 885.656 -6.94966 -0.0686069 0
M  V30 9431 H 888.847 -4.66892 -0.336142 0
M  V30 9432 H 889.02 -6.4765 -0.21297 0
M  V30 9433 N 882.426 0.269451 -1.5528 0
M  V30 9434 C 883.672 1.00206 -1.76314 0
M  V30 9435 C 884.005 1.85812 -0.564581 0
M  V30 9436 O 883.28 1.89509 0.437769 0
M  V30 9437 C 883.563 1.88163 -3.07029 0
M  V30 9438 C 883.416 1.05527 -4.37246 0
M  V30 9439 C 884.735 2.8681 -3.33808 0
M  V30 9440 H 881.854 0.36288 -0.641473 0
M  V30 9441 H 884.496 0.274188 -1.88011 0
M  V30 9442 H 882.646 2.50224 -2.97187 0
M  V30 9443 H 884.318 0.455094 -4.5905 0
M  V30 9444 H 882.561 0.358842 -4.32313 0
M  V30 9445 H 883.232 1.70397 -5.25042 0
M  V30 9446 H 885.708 2.34884 -3.43466 0
M  V30 9447 H 884.584 3.45492 -4.26528 0
M  V30 9448 H 884.845 3.62118 -2.5362 0
M  V30 9449 N 883.904 1.48273 0.534124 0
M  V30 9450 C 884.834 1.6538 1.64839 0
M  V30 9451 C 885.815 0.502741 1.62501 0
M  V30 9452 O 887 0.734799 1.79762 0
M  V30 9453 C 884.13 1.68949 3.03436 0
M  V30 9454 C 883.084 2.83513 3.20631 0
M  V30 9455 C 882.41 2.72169 4.60248 0
M  V30 9456 C 883.71 4.24858 3.03797 0
M  V30 9457 H 885.404 2.58663 1.50777 0
M  V30 9458 H 882.95 1.24479 0.723937 0
M  V30 9459 H 884.903 1.79505 3.81256 0
M  V30 9460 H 883.627 0.722415 3.1851 0
M  V30 9461 H 882.286 2.72505 2.45227 0
M  V30 9462 H 881.934 1.7344 4.72152 0
M  V30 9463 H 881.634 3.49042 4.72698 0
M  V30 9464 H 883.158 2.84687 5.40172 0
M  V30 9465 H 884.572 4.36721 3.71413 0
M  V30 9466 H 882.969 5.02697 3.27743 0
M  V30 9467 H 884.039 4.41611 2.0027 0
M  V30 9468 N 885.382 -0.782676 1.36792 0
M  V30 9469 C 886.63 -1.53778 1.31136 0
M  V30 9470 C 886.951 -1.94706 -0.107014 0
M  V30 9471 O 886.221 -1.65465 -1.04872 0
M  V30 9472 H 884.801 -0.570328 0.482426 0
M  V30 9473 H 887.463 -0.932181 1.71162 0
M  V30 9474 H 886.559 -2.44224 1.94321 0
M  V30 9475 N 886.86 -1.21182 -1.00761 0
M  V30 9476 C 888.085 -1.05411 -1.78615 0
M  V30 9477 C 888.51 0.391837 -1.83973 0
M  V30 9478 O 887.868 1.28256 -1.28141 0
M  V30 9479 C 887.916 -1.65285 -3.20489 0
M  V30 9480 O 887.02 -0.896558 -4.02536 0
M  V30 9481 H 886.361 -0.37116 -0.550578 0
M  V30 9482 H 888.891 -1.60669 -1.26676 0
M  V30 9483 H 888.901 -1.69397 -3.71172 0
M  V30 9484 H 887.576 -2.70514 -3.15904 0
M  V30 9485 H 886.153 -0.930335 -3.61108 0
M  V30 9486 N 888.338 1.20213 -1.01915 0
M  V30 9487 C 889.586 1.89272 -0.708552 0
M  V30 9488 C 889.907 1.79394 0.76438 0
M  V30 9489 O 889.177 1.198 1.54999 0
M  V30 9490 H 887.757 0.700628 -0.259094 0
M  V30 9491 H 890.419 1.45985 -1.29129 0
M  V30 9492 H 889.515 2.95841 -0.994215 0
M  V30 9493 N 889.816 0.795718 1.36037 0
M  V30 9494 C 890.779 0.204318 2.28287 0
M  V30 9495 C 891.779 -0.602017 1.49105 0
M  V30 9496 O 892.969 -0.422089 1.69009 0
M  V30 9497 C 890.101 -0.716431 3.33287 0
M  V30 9498 H 891.294 1.01781 2.821 0
M  V30 9499 H 888.847 0.565588 1.45708 0
M  V30 9500 H 889.582 -1.55403 2.84641 0
M  V30 9501 H 889.367 -0.140096 3.9185 0
M  V30 9502 H 890.857 -1.12488 4.02164 0
M  V30 9503 N 891.294 -1.47756 0.548274 0
M  V30 9504 C 892.541 -2.02489 0.0208955 0
M  V30 9505 C 892.869 -1.42356 -1.32533 0
M  V30 9506 O 892.124 -0.565448 -1.87353 0
M  V30 9507 C 892.423 -3.5716 -0.131069 0
M  V30 9508 C 892.089 -4.36169 1.14313 0
M  V30 9509 C 890.751 -4.57476 1.4923 0
M  V30 9510 C 893.103 -4.81801 1.9879 0
M  V30 9511 C 890.431 -5.21662 2.68487 0
M  V30 9512 C 892.783 -5.47303 3.17242 0
M  V30 9513 C 891.447 -5.66844 3.52483 0
M  V30 9514 H 890.717 -0.740961 0.00764621 0
M  V30 9515 H 893.364 -1.77531 0.717987 0
M  V30 9516 H 891.669 -3.8106 -0.911063 0
M  V30 9517 H 893.366 -3.9715 -0.55433 0
M  V30 9518 H 889.956 -4.19858 0.861235 0
M  V30 9519 H 894.14 -4.65126 1.73123 0
M  V30 9520 H 889.396 -5.34987 2.95971 0
M  V30 9521 H 893.57 -5.81626 3.82994 0
M  V30 9522 H 891.197 -6.16352 4.44988 0
M  V30 9523 N 892.772 -0.284283 -1.55015 0
M  V30 9524 C 894.02 0.329212 -1.99401 0
M  V30 9525 C 894.341 1.55687 -1.17416 0
M  V30 9526 O 893.611 1.94087 -0.265937 0
M  V30 9527 H 892.191 0.12463 -0.73653 0
M  V30 9528 H 894.853 -0.391743 -1.90922 0
M  V30 9529 H 893.949 0.61278 -3.06025 0
M  V30 9530 N 894.251 1.57596 -0.0117121 0
M  V30 9531 C 895.198 2.09153 0.975897 0
M  V30 9532 C 896.168 0.989579 1.33404 0
M  V30 9533 O 897.353 1.26273 1.43038 0
M  V30 9534 C 894.493 2.60906 2.2588 0
M  V30 9535 C 893.606 3.85046 1.95866 0
M  V30 9536 C 892.741 4.25257 3.18323 0
M  V30 9537 C 891.78 5.42202 2.84049 0
M  V30 9538 N 890.917 5.77651 3.99079 0
M  V30 9539 H 895.757 2.93261 0.52931 0
M  V30 9540 H 893.294 1.44965 0.249691 0
M  V30 9541 H 895.252 2.88995 3.00895 0
M  V30 9542 H 893.882 1.79654 2.68187 0
M  V30 9543 H 892.934 3.63794 1.11168 0
M  V30 9544 H 894.246 4.70151 1.66611 0
M  V30 9545 H 893.4 4.5469 4.01674 0
M  V30 9546 H 892.139 3.38884 3.50726 0
M  V30 9547 H 891.144 5.1248 1.99107 0
M  V30 9548 H 892.369 6.3026 2.52881 0
M  V30 9549 H 890.315 4.94235 4.31356 0
M  V30 9550 H 890.232 6.57356 3.73388 0
M  V30 9551 H 891.5 6.11681 4.83183 0
M  V30 9552 N 895.729 -0.261212 1.5542 0
M  V30 9553 C 896.975 -0.992699 1.76843 0
M  V30 9554 C 897.308 -1.8551 0.574428 0
M  V30 9555 O 896.583 -1.89739 -0.427713 0
M  V30 9556 C 896.866 -1.86532 3.08022 0
M  V30 9557 C 896.719 -1.03206 4.378 0
M  V30 9558 C 898.038 -2.85036 3.35324 0
M  V30 9559 H 895.157 -0.359473 0.643388 0
M  V30 9560 H 897.799 -0.264214 1.88154 0
M  V30 9561 H 895.949 -2.48644 2.9851 0
M  V30 9562 H 897.621 -0.430743 4.59285 0
M  V30 9563 H 895.864 -0.335911 4.32497 0
M  V30 9564 H 896.535 -1.6761 5.25938 0
M  V30 9565 H 899.011 -2.3306 3.44706 0
M  V30 9566 H 897.887 -3.43226 4.28354 0
M  V30 9567 H 898.148 -3.60768 2.55537 0
M  V30 9568 N 897.207 -1.48554 -0.526253 0
M  V30 9569 C 898.453 -1.56994 -1.28378 0
M  V30 9570 C 898.786 -0.244701 -1.92652 0
M  V30 9571 O 898.061 0.749636 -1.79473 0
M  V30 9572 C 898.344 -2.71092 -2.37026 0
M  V30 9573 C 898.197 -4.13331 -1.77418 0
M  V30 9574 C 899.516 -2.80934 -3.38769 0
M  V30 9575 H 896.635 -0.571466 -0.465398 0
M  V30 9576 H 899.277 -1.80742 -0.585861 0
M  V30 9577 H 897.427 -2.50973 -2.96555 0
M  V30 9578 H 899.099 -4.44899 -1.21912 0
M  V30 9579 H 897.342 -4.20158 -1.07936 0
M  V30 9580 H 898.013 -4.88994 -2.56104 0
M  V30 9581 H 900.489 -2.9917 -2.892 0
M  V30 9582 H 899.365 -3.62489 -4.12181 0
M  V30 9583 H 899.626 -1.89244 -3.99549 0
M  V30 9584 N 898.685 0.775411 -1.37205 0
M  V30 9585 C 899.595 1.91967 -1.34855 0
M  V30 9586 C 900.611 1.72214 -0.248656 0
M  V30 9587 O 901.787 1.95512 -0.483421 0
M  V30 9588 C 898.852 3.27038 -1.15096 0
M  V30 9589 C 897.913 3.5947 -2.34691 0
M  V30 9590 C 897.146 4.88097 -2.15865 0
M  V30 9591 O 897.369 5.58871 -1.14102 0
M  V30 9592 O 896.303 5.19507 -3.03967 0
M  V30 9593 H 900.129 1.969 -2.31223 0
M  V30 9594 H 897.714 0.917647 -1.17897 0
M  V30 9595 H 899.596 4.07837 -1.0605 0
M  V30 9596 H 898.271 3.22965 -0.217999 0
M  V30 9597 H 897.178 2.7892 -2.49308 0
M  V30 9598 H 898.511 3.68282 -3.26541 0
M  V30 9599 N 900.163 1.21714 1.00117 0
M  V30 9600 C 901.411 1.03465 1.73607 0
M  V30 9601 C 901.732 -0.432295 1.90148 0
M  V30 9602 O 901.002 -1.31157 1.45515 0
M  V30 9603 H 899.582 0.379857 0.643209 0
M  V30 9604 H 902.244 1.53088 1.20624 0
M  V30 9605 H 901.34 1.50574 2.73375 0
M  V30 9606 N 901.641 -1.19671 1.02551 0
M  V30 9607 C 902.869 -1.93233 0.739513 0
M  V30 9608 C 903.284 -1.75298 -0.701158 0
M  V30 9609 O 902.641 -1.07269 -1.47647 0
M  V30 9610 C 902.692 -3.45085 1.07697 0
M  V30 9611 O 902.413 -3.62441 2.46106 0
M  V30 9612 C 903.914 -4.35776 0.813298 0
M  V30 9613 H 901.134 -0.613905 0.270853 0
M  V30 9614 H 903.678 -1.51909 1.36909 0
M  V30 9615 H 901.833 -3.84255 0.492635 0
M  V30 9616 H 902.247 -4.56337 2.58567 0
M  V30 9617 H 903.721 -5.40941 1.09941 0
M  V30 9618 H 904.198 -4.38474 -0.252359 0
M  V30 9619 H 904.804 -4.02282 1.38021 0
M  V30 9620 N 903.119 -0.802921 -1.35613 0
M  V30 9621 C 904.082 -0.216422 -2.28176 0
M  V30 9622 C 905.082 0.594101 -1.49422 0
M  V30 9623 O 906.272 0.41312 -1.6923 0
M  V30 9624 C 903.404 0.698746 -3.33662 0
M  V30 9625 H 904.597 -1.03276 -2.81557 0
M  V30 9626 H 902.15 -0.573307 -1.45406 0
M  V30 9627 H 902.885 1.53891 -2.85461 0
M  V30 9628 H 902.67 0.119314 -3.91918 0
M  V30 9629 H 904.16 1.10354 -4.02755 0
M  V30 9630 N 904.597 1.47463 -0.556102 0
M  V30 9631 C 905.827 2.06568 -0.0364056 0
M  V30 9632 C 906.235 1.40939 1.26225 0
M  V30 9633 O 905.578 0.499572 1.76777 0
M  V30 9634 C 905.64 3.58755 0.231278 0
M  V30 9635 C 905.304 4.46417 -0.977776 0
M  V30 9636 C 906.301 4.846 -1.88305 0
M  V30 9637 C 903.986 4.87948 -1.19214 0
M  V30 9638 C 905.98 5.63111 -2.98639 0
M  V30 9639 C 903.667 5.66224 -2.29857 0
M  V30 9640 C 904.665 6.03716 -3.194 0
M  V30 9641 O 904.353 6.80415 -4.28125 0
M  V30 9642 H 904.085 0.674675 -0.042305 0
M  V30 9643 H 906.639 1.9047 -0.768775 0
M  V30 9644 H 904.869 3.73061 1.01794 0
M  V30 9645 H 906.558 3.99884 0.696221 0
M  V30 9646 H 907.324 4.53115 -1.72949 0
M  V30 9647 H 903.203 4.58233 -0.504347 0
M  V30 9648 H 906.747 5.92293 -3.68557 0
M  V30 9649 H 902.644 5.97121 -2.45186 0
M  V30 9650 H 903.412 6.98807 -4.26159 0
M  V30 9651 N 906.075 0.2925 1.54862 0
M  V30 9652 C 907.323 -0.318633 1.99572 0
M  V30 9653 C 907.644 -1.55062 1.1824 0
M  V30 9654 O 906.914 -1.93943 0.276226 0
M  V30 9655 H 905.494 -0.120722 0.737181 0
M  V30 9656 H 908.156 0.401862 1.90712 0
M  V30 9657 H 907.252 -0.596542 3.06346 0
M  V30 9658 N 907.553 -1.57587 0.0200696 0
M  V30 9659 C 908.483 -2.12702 -0.963333 0
M  V30 9660 C 909.464 -1.04094 -1.34531 0
M  V30 9661 O 910.649 -1.31881 -1.42552 0
M  V30 9662 C 907.779 -2.64673 -2.24868 0
M  V30 9663 C 906.733 -3.77987 -2.00772 0
M  V30 9664 C 906.059 -4.16351 -3.35494 0
M  V30 9665 C 907.359 -5.0444 -1.35416 0
M  V30 9666 H 909.053 -2.95121 -0.504363 0
M  V30 9667 H 906.599 -1.41966 -0.24116 0
M  V30 9668 H 908.552 -3.01862 -2.94036 0
M  V30 9669 H 907.276 -1.79403 -2.72914 0
M  V30 9670 H 905.935 -3.41223 -1.34025 0
M  V30 9671 H 905.583 -3.28075 -3.81282 0
M  V30 9672 H 905.283 -4.92705 -3.20181 0
M  V30 9673 H 906.807 -4.56115 -4.05945 0
M  V30 9674 H 908.221 -5.39273 -1.94571 0
M  V30 9675 H 906.618 -5.85732 -1.30529 0
M  V30 9676 H 907.688 -4.83803 -0.325923 0
M  V30 9677 N 909.032 0.252966 -1.55557 0
M  V30 9678 C 910.257 1.0038 -1.8149 0
M  V30 9679 C 910.682 1.78397 -0.596318 0
M  V30 9680 O 910.04 1.7551 0.454535 0
M  V30 9681 C 910.088 1.9222 -3.05096 0
M  V30 9682 O 909.192 3.01302 -2.81587 0
M  V30 9683 H 908.533 0.285949 -0.599274 0
M  V30 9684 H 911.063 0.275795 -2.02733 0
M  V30 9685 H 911.073 2.338 -3.34368 0
M  V30 9686 H 909.748 1.34852 -3.93431 0
M  V30 9687 H 908.325 2.63894 -2.63466 0
M  V30 9688 N 910.51 1.48831 0.518367 0
M  V30 9689 C 911.926 1.35209 0.847979 0
M  V30 9690 C 912.126 0.371927 1.98038 0
M  V30 9691 O 911.182 -0.202681 2.51685 0
M  V30 9692 C 912.495 2.7552 1.20455 0
M  V30 9693 C 914.043 2.84094 1.31377 0
M  V30 9694 C 914.518 4.25132 1.70372 0
M  V30 9695 N 916.009 4.27861 1.77453 0
M  V30 9696 C 916.744 5.3394 2.09035 0
M  V30 9697 N 916.24 6.50285 2.3896 0
M  V30 9698 N 918.033 5.21343 2.10139 0
M  V30 9699 H 910.184 2.11166 -0.228624 0
M  V30 9700 H 912.447 0.94717 -0.0396599 0
M  V30 9701 H 912.153 3.48861 0.445991 0
M  V30 9702 H 912.027 3.09785 2.15204 0
M  V30 9703 H 914.414 2.11001 2.06307 0
M  V30 9704 H 914.495 2.53433 0.347203 0
M  V30 9705 H 914.139 4.98745 0.959975 0
M  V30 9706 H 914.069 4.53245 2.68098 0
M  V30 9707 H 916.56 3.43945 1.56557 0
M  V30 9708 H 916.873 7.26961 2.62196 0
M  V30 9709 H 915.218 6.5354 2.36454 0
M  V30 9710 H 918.409 4.29462 1.86225 0
M  V30 9711 H 918.582 6.04112 2.34419 0
M  V30 9712 N 911.988 -0.768124 1.37614 0
M  V30 9713 C 913.213 -1.56239 1.36397 0
M  V30 9714 C 913.638 -1.8804 -0.0475839 0
M  V30 9715 O 912.996 -1.495 -1.02564 0
M  V30 9716 C 913.044 -2.84716 2.21289 0
M  V30 9717 O 912.148 -3.79249 1.62001 0
M  V30 9718 H 911.489 -0.473119 0.465891 0
M  V30 9719 H 914.019 -0.950415 1.81186 0
M  V30 9720 H 914.029 -3.33784 2.34632 0
M  V30 9721 H 912.704 -2.60899 3.2389 0
M  V30 9722 H 911.281 -3.37904 1.57719 0
M  V30 9723 N 913.466 -1.22244 -0.994698 0
M  V30 9724 C 914.398 -0.948706 -2.08644 0
M  V30 9725 C 915.411 0.0720049 -1.62641 0
M  V30 9726 O 916.6 -0.161778 -1.77765 0
M  V30 9727 C 913.7 -0.404885 -3.36473 0
M  V30 9728 C 912.873 -1.48239 -4.11514 0
M  V30 9729 C 911.932 -0.94597 -5.17627 0
M  V30 9730 O 910.958 -1.63177 -5.45309 0
M  V30 9731 N 912.16 0.23355 -5.8003 0
M  V30 9732 H 914.925 -1.88858 -2.32707 0
M  V30 9733 H 912.486 -1.12908 -1.16032 0
M  V30 9734 H 914.478 -0.0313903 -4.04688 0
M  V30 9735 H 913.048 0.440061 -3.09487 0
M  V30 9736 H 912.268 -2.02928 -3.37955 0
M  V30 9737 H 913.556 -2.20741 -4.58422 0
M  V30 9738 H 912.954 0.80756 -5.59906 0
M  V30 9739 H 911.511 0.54845 -6.49488 0
M  V30 9740 N 914.944 1.19125 -1.03184 0
M  V30 9741 C 916.355 1.70564 -0.759264 0
M  V30 9742 C 916.706 1.8248 0.720794 0
M  V30 9743 O 915.831 1.49804 1.56166 0
M  V30 9744 C 916.426 3.09793 -1.37163 0
M  V30 9745 C 914.985 3.5848 -1.14757 0
M  V30 9746 C 914.132 2.35265 -1.46784 0
M  V30 9747 H 917.083 1.03925 -1.19939 0
M  V30 9748 H 917.104 3.72624 -0.77015 0
M  V30 9749 H 916.616 3.01088 -2.44882 0
M  V30 9750 H 914.717 3.72494 -0.0887182 0
M  V30 9751 H 914.83 4.42426 -1.83836 0
M  V30 9752 H 913.194 2.38747 -0.887254 0
M  V30 9753 H 913.977 2.29188 -2.55593 0
M  V30 9754 N 916.422 0.810101 1.35185 0
M  V30 9755 C 917.668 0.392698 1.98962 0
M  V30 9756 C 918.001 -1.03835 1.64109 0
M  V30 9757 O 917.276 -1.721 0.9062 0
M  V30 9758 C 917.559 0.580349 3.55393 0
M  V30 9759 C 917.412 2.05658 4.00031 0
M  V30 9760 C 918.731 0.00822618 4.40099 0
M  V30 9761 H 915.85 0.144157 0.722764 0
M  V30 9762 H 918.492 1.02029 1.60281 0
M  V30 9763 H 916.642 0.0461106 3.88473 0
M  V30 9764 H 918.314 2.65348 3.77344 0
M  V30 9765 H 916.557 2.55174 3.50811 0
M  V30 9766 H 917.228 2.13875 5.08883 0
M  V30 9767 H 919.704 0.464517 4.13499 0
M  V30 9768 H 918.58 0.169414 5.48638 0
M  V30 9769 H 918.841 -1.08576 4.2856 0
M  V30 9770 N 917.9 -1.47166 0.563914 0
M  V30 9771 C 918.833 -2.27058 -0.227989 0
M  V30 9772 C 919.811 -1.34468 -0.914179 0
M  V30 9773 O 920.995 -1.63857 -0.931829 0
M  V30 9774 C 918.122 -3.11689 -1.32543 0
M  V30 9775 C 917.168 -4.19906 -0.747084 0
M  V30 9776 S 918.001 -5.33916 0.41153 0
M  V30 9777 C 919.157 -6.22112 -0.687566 0
M  V30 9778 H 919.39 -2.93876 0.449939 0
M  V30 9779 H 916.923 -1.50372 0.350382 0
M  V30 9780 H 918.881 -3.61017 -1.95389 0
M  V30 9781 H 917.542 -2.44221 -1.97522 0
M  V30 9782 H 916.735 -4.78876 -1.57141 0
M  V30 9783 H 916.337 -3.73493 -0.194671 0
M  V30 9784 H 918.629 -6.58867 -1.578 0
M  V30 9785 H 919.572 -7.07971 -0.135058 0
M  V30 9786 H 919.98 -5.55871 -0.983255 0
M  V30 9787 N 919.378 -0.300708 -1.54705 0
M  V30 9788 C 920.325 0.57552 -2.23509 0
M  V30 9789 C 921.295 1.12979 -1.21758 0
M  V30 9790 O 922.48 1.17437 -1.50377 0
M  V30 9791 C 919.62 1.74167 -2.97926 0
M  V30 9792 C 918.733 1.21882 -4.1445 0
M  V30 9793 C 917.868 2.34881 -4.7645 0
M  V30 9794 C 916.907 1.79729 -5.85119 0
M  V30 9795 N 916.044 2.863 -6.41075 0
M  V30 9796 H 920.884 -0.0178257 -2.97995 0
M  V30 9797 H 918.421 -0.0205666 -1.47086 0
M  V30 9798 H 920.379 2.42753 -3.39303 0
M  V30 9799 H 919.009 2.30665 -2.25817 0
M  V30 9800 H 918.061 0.425227 -3.78016 0
M  V30 9801 H 919.373 0.775065 -4.92741 0
M  V30 9802 H 918.527 3.11415 -5.20678 0
M  V30 9803 H 917.266 2.82584 -3.97489 0
M  V30 9804 H 916.271 1.01684 -5.40315 0
M  V30 9805 H 917.496 1.32931 -6.65963 0
M  V30 9806 H 915.442 3.33337 -5.64998 0
M  V30 9807 H 915.359 2.46419 -7.14712 0
M  V30 9808 H 916.627 3.62732 -6.89961 0
M  V30 9809 N 920.856 1.57574 -0.0284266 0
M  V30 9810 C 922.102 1.92056 0.651327 0
M  V30 9811 C 922.435 0.905092 1.71819 0
M  V30 9812 O 921.71 -0.0722703 1.94366 0
M  V30 9813 C 921.993 3.37021 1.26841 0
M  V30 9814 C 921.846 4.49304 0.211157 0
M  V30 9815 C 923.165 3.81936 2.18662 0
M  V30 9816 H 920.284 0.698428 0.235304 0
M  V30 9817 H 922.926 1.89807 -0.0855435 0
M  V30 9818 H 921.076 3.39068 1.89644 0
M  V30 9819 H 922.748 4.5939 -0.419379 0
M  V30 9820 H 920.991 4.31317 -0.463445 0
M  V30 9821 H 921.662 5.47764 0.682518 0
M  V30 9822 H 924.138 3.8162 1.65847 0
M  V30 9823 H 923.014 4.84064 2.58792 0
M  V30 9824 H 923.275 3.174 3.07749 0
M  V30 9825 N 922.334 -0.244713 1.55689 0
M  V30 9826 C 923.297 -1.2864 1.89695 0
M  V30 9827 C 924.297 -1.40969 0.773583 0
M  V30 9828 O 925.487 -1.39632 1.04156 0
M  V30 9829 C 922.619 -2.66379 2.12732 0
M  V30 9830 H 923.812 -0.997033 2.82841 0
M  V30 9831 H 921.365 -0.484103 1.48614 0
M  V30 9832 H 922.1 -3.00452 1.22062 0
M  V30 9833 H 921.885 -2.58812 2.94549 0
M  V30 9834 H 923.375 -3.41592 2.40218 0
M  V30 9835 N 923.813 -1.49104 -0.510467 0
M  V30 9836 C 925.059 -1.58346 -1.26705 0
M  V30 9837 C 925.392 -0.265121 -1.92382 0
M  V30 9838 O 924.667 0.730558 -1.80258 0
M  V30 9839 C 924.95 -2.7359 -2.34137 0
M  V30 9840 C 924.803 -4.1519 -1.73024 0
M  V30 9841 C 926.122 -2.84511 -3.3577 0
M  V30 9842 H 923.241 -0.57637 -0.459311 0
M  V30 9843 H 925.883 -1.81353 -0.566658 0
M  V30 9844 H 924.033 -2.54105 -2.93876 0
M  V30 9845 H 925.705 -4.46167 -1.17186 0
M  V30 9846 H 923.948 -4.21279 -1.03473 0
M  V30 9847 H 924.619 -4.91683 -2.50903 0
M  V30 9848 H 927.095 -3.0222 -2.86011 0
M  V30 9849 H 925.971 -3.6684 -4.08313 0
M  V30 9850 H 926.232 -1.93471 -3.97519 0
M  V30 9851 N 925.291 0.760815 -1.38019 0
M  V30 9852 C 926.238 1.8744 -1.34666 0
M  V30 9853 C 927.208 1.64762 -0.210386 0
M  V30 9854 O 928.393 1.86528 -0.401479 0
M  V30 9855 C 925.533 3.24648 -1.17037 0
M  V30 9856 C 924.646 3.59206 -2.3999 0
M  V30 9857 C 923.781 4.8568 -2.15148 0
M  V30 9858 C 922.82 5.13002 -3.3391 0
M  V30 9859 N 921.957 6.30668 -3.08549 0
M  V30 9860 H 926.797 1.8964 -2.29871 0
M  V30 9861 H 924.334 0.927004 -1.14215 0
M  V30 9862 H 926.292 4.03814 -1.04834 0
M  V30 9863 H 924.922 3.21793 -0.254758 0
M  V30 9864 H 923.974 2.74939 -2.62893 0
M  V30 9865 H 925.286 3.75328 -3.28527 0
M  V30 9866 H 924.44 5.72773 -2.00039 0
M  V30 9867 H 923.179 4.71682 -1.23965 0
M  V30 9868 H 922.184 4.2438 -3.49545 0
M  V30 9869 H 923.409 5.28901 -4.25958 0
M  V30 9870 H 921.355 6.18008 -2.20006 0
M  V30 9871 H 921.272 6.47257 -3.90633 0
M  V30 9872 H 922.54 7.20669 -2.9708 0
M  V30 9873 N 926.769 1.22769 0.988202 0
M  V30 9874 C 927.702 0.945196 2.07705 0
M  V30 9875 C 928.68 -0.11363 1.62202 0
M  V30 9876 O 929.864 0.0189624 1.8849 0
M  V30 9877 C 926.991 0.422474 3.36055 0
M  V30 9878 C 926.037 1.4667 4.00487 0
M  V30 9879 S 926.87 3.04158 4.40736 0
M  V30 9880 C 928.026 2.53536 5.7225 0
M  V30 9881 H 928.259 1.86723 2.31348 0
M  V30 9882 H 925.792 1.05928 1.12333 0
M  V30 9883 H 927.75 0.12748 4.10302 0
M  V30 9884 H 926.411 -0.478515 3.10434 0
M  V30 9885 H 925.604 1.05093 4.92921 0
M  V30 9886 H 925.206 1.71064 3.32585 0
M  V30 9887 H 927.498 1.95069 6.4881 0
M  V30 9888 H 928.441 3.44479 6.1866 0
M  V30 9889 H 928.849 1.94658 5.29876 0
M  V30 9890 N 928.247 -1.18576 1.03814 0
M  V30 9891 C 929.177 -2.24334 0.647795 0
M  V30 9892 C 930.158 -1.66508 -0.34774 0
M  V30 9893 O 931.343 -1.92852 -0.228401 0
M  V30 9894 C 928.473 -3.47299 0.00734922 0
M  V30 9895 C 927.427 -4.17859 0.926152 0
M  V30 9896 C 926.753 -5.34489 0.150317 0
M  V30 9897 C 928.053 -4.71632 2.24411 0
M  V30 9898 H 929.747 -2.57241 1.53191 0
M  V30 9899 H 927.293 -1.23649 0.738028 0
M  V30 9900 H 929.246 -4.20486 -0.277434 0
M  V30 9901 H 927.97 -3.13619 -0.911626 0
M  V30 9902 H 926.629 -3.46567 1.19528 0
M  V30 9903 H 926.277 -4.97056 -0.770985 0
M  V30 9904 H 925.977 -5.82633 0.762407 0
M  V30 9905 H 927.501 -6.10467 -0.127508 0
M  V30 9906 H 928.915 -5.36526 2.02021 0
M  V30 9907 H 927.312 -5.303 2.80894 0
M  V30 9908 H 928.382 -3.89192 2.89236 0
M  V30 9909 N 929.725 -0.817259 -1.34754 0
M  V30 9910 C 930.672 -0.233108 -2.2962 0
M  V30 9911 C 931.642 0.638902 -1.53321 0
M  V30 9912 O 932.827 0.581739 -1.81715 0
M  V30 9913 C 929.967 0.603659 -3.39779 0
M  V30 9914 C 929.08 -0.289967 -4.31026 0
M  V30 9915 C 928.215 0.555825 -5.28284 0
M  V30 9916 C 927.254 -0.337539 -6.11169 0
M  V30 9917 N 926.391 0.468847 -7.00533 0
M  V30 9918 H 931.231 -1.04747 -2.78984 0
M  V30 9919 H 928.768 -0.528056 -1.37295 0
M  V30 9920 H 930.726 1.10407 -4.02326 0
M  V30 9921 H 929.356 1.38319 -2.91664 0
M  V30 9922 H 928.408 -0.908552 -3.69391 0
M  V30 9923 H 929.72 -0.977136 -4.89135 0
M  V30 9924 H 928.874 1.12094 -5.96255 0
M  V30 9925 H 927.613 1.27652 -4.70698 0
M  V30 9926 H 926.618 -0.914839 -5.42135 0
M  V30 9927 H 927.843 -1.05626 -6.70835 0
M  V30 9928 H 925.789 1.17332 -6.45422 0
M  V30 9929 H 925.706 -0.160052 -7.55831 0
M  V30 9930 H 926.974 1.01689 -7.72839 0
M  V30 9931 N 931.203 1.46865 -0.571711 0
M  V30 9932 C 932.614 1.86158 -0.142181 0
M  V30 9933 C 932.965 1.47663 1.2919 0
M  V30 9934 O 932.09 0.886393 1.97413 0
M  V30 9935 C 932.685 3.37867 -0.251256 0
M  V30 9936 C 931.244 3.76198 0.123329 0
M  V30 9937 C 930.391 2.70902 -0.592232 0
M  V30 9938 H 933.342 1.38176 -0.780587 0
M  V30 9939 H 933.363 3.76842 0.526331 0
M  V30 9940 H 932.875 3.65853 -1.2951 0
M  V30 9941 H 930.976 3.53829 1.16773 0
M  V30 9942 H 931.089 4.78471 -0.24533 0
M  V30 9943 H 929.453 2.54678 -0.0336927 0
M  V30 9944 H 930.236 3.01729 -1.63751 0
M  V30 9945 N 932.681 0.308908 1.54543 0
M  V30 9946 C 933.909 -0.300418 2.04707 0
M  V30 9947 C 934.324 -1.46915 1.18581 0
M  V30 9948 O 933.681 -1.81251 0.213186 0
M  V30 9949 C 933.732 -0.749038 3.53655 0
M  V30 9950 O 933.453 0.373181 4.36508 0
M  V30 9951 C 934.954 -1.4227 4.1985 0
M  V30 9952 H 932.174 -0.0641267 0.667929 0
M  V30 9953 H 934.718 0.450839 1.99469 0
M  V30 9954 H 932.873 -1.4503 3.59228 0
M  V30 9955 H 933.287 0.0224752 5.24495 0
M  V30 9956 H 934.761 -1.68768 5.25568 0
M  V30 9957 H 935.238 -2.36531 3.70067 0
M  V30 9958 H 935.844 -0.764404 4.18374 0
M  V30 9959 N 934.159 -1.57557 0.0367827 0
M  V30 9960 C 935.122 -2.09591 -0.927589 0
M  V30 9961 C 936.122 -1.01252 -1.24919 0
M  V30 9962 O 937.312 -1.27382 -1.18825 0
M  V30 9963 C 934.444 -2.56816 -2.24184 0
M  V30 9964 H 935.637 -2.96086 -0.476784 0
M  V30 9965 H 933.19 -1.54864 -0.211385 0
M  V30 9966 H 933.925 -1.73673 -2.73876 0
M  V30 9967 H 933.71 -3.35973 -2.0215 0
M  V30 9968 H 935.2 -2.97271 -2.93291 0
M  V30 9969 N 935.637 0.236453 -1.55816 0
M  V30 9970 C 937.053 0.585465 -1.48474 0
M  V30 9971 C 937.253 1.8785 -0.72902 0
M  V30 9972 O 936.309 2.51131 -0.262614 0
M  V30 9973 C 937.622 0.678506 -2.92945 0
M  V30 9974 C 939.17 0.770135 -3.03378 0
M  V30 9975 C 939.645 0.894649 -4.49177 0
M  V30 9976 N 941.136 0.959253 -4.53158 0
M  V30 9977 C 941.871 1.07505 -5.63232 0
M  V30 9978 N 941.367 1.15572 -6.83092 0
M  V30 9979 N 943.16 1.10902 -5.51051 0
M  V30 9980 H 935.311 -0.612241 -2.03385 0
M  V30 9981 H 937.574 -0.212796 -0.923808 0
M  V30 9982 H 937.28 -0.201757 -3.51121 0
M  V30 9983 H 937.154 1.54703 -3.44016 0
M  V30 9984 H 939.541 1.64085 -2.45276 0
M  V30 9985 H 939.622 -0.123753 -2.555 0
M  V30 9986 H 939.266 0.0284537 -5.07892 0
M  V30 9987 H 939.196 1.80373 -4.94745 0
M  V30 9988 H 941.687 0.907827 -3.66834 0
M  V30 9989 H 942 1.24343 -7.62731 0
M  V30 9990 H 940.345 1.12511 -6.85833 0
M  V30 9991 H 943.536 1.04255 -4.56343 0
M  V30 9992 H 943.709 1.19581 -6.36871 0
M  V30 9993 N 937.115 1.49373 0.502552 0
M  V30 9994 C 938.34 1.62752 1.28556 0
M  V30 9995 C 938.765 0.298285 1.8572 0
M  V30 9996 O 938.123 -0.733885 1.65782 0
M  V30 9997 C 938.171 2.69778 2.39274 0
M  V30 9998 O 937.275 2.28843 3.43081 0
M  V30 9999 H 936.616 0.544799 0.379592 0
M  V30 10000 H 939.146 1.9555 0.601792 0
M  V30 10001 H 939.156 2.91899 2.8506 0
M  V30 10002 H 937.831 3.66266 1.97033 0
M  V30 10003 H 936.408 2.17047 3.03224 0
M  V30 10004 N 938.594 -0.753485 1.38421 0
M  V30 10005 C 939.819 -1.54783 1.38047 0
M  V30 10006 C 940.244 -1.8808 -0.0276371 0
M  V30 10007 O 939.602 -1.5058 -1.00973 0
M  V30 10008 C 939.65 -2.82353 2.24297 0
M  V30 10009 O 938.754 -3.77509 1.66014 0
M  V30 10010 H 938.095 -0.468151 0.470883 0
M  V30 10011 H 940.625 -0.931144 1.82184 0
M  V30 10012 H 940.635 -3.31277 2.38159 0
M  V30 10013 H 939.31 -2.57449 3.26639 0
M  V30 10014 H 937.887 -3.36212 1.61294 0
M  V30 10015 N 940.072 -1.23292 -0.981677 0
M  V30 10016 C 940.982 -1.02964 -2.10798 0
M  V30 10017 C 941.998 0.0254674 -1.73981 0
M  V30 10018 O 943.174 -0.169706 -2.00684 0
M  V30 10019 C 940.239 -0.621934 -3.41076 0
M  V30 10020 C 939.3 -1.75194 -3.91926 0
M  V30 10021 C 938.533 -1.36359 -5.15986 0
M  V30 10022 O 938.756 -0.247265 -5.69864 0
M  V30 10023 O 937.69 -2.18421 -5.60871 0
M  V30 10024 H 941.516 -1.97354 -2.30836 0
M  V30 10025 H 939.101 -1.01986 -1.09175 0
M  V30 10026 H 940.983 -0.405446 -4.19445 0
M  V30 10027 H 939.658 0.29299 -3.22371 0
M  V30 10028 H 938.565 -2.02305 -3.1468 0
M  V30 10029 H 939.898 -2.64513 -4.15083 0
M  V30 10030 N 941.55 1.18024 -1.04442 0
M  V30 10031 C 942.497 2.21785 -0.638759 0
M  V30 10032 C 943.467 1.62255 0.355312 0
M  V30 10033 O 944.652 1.89176 0.24844 0
M  V30 10034 C 941.792 3.45098 -0.0118002 0
M  V30 10035 C 940.905 4.1895 -1.05379 0
M  V30 10036 C 940.04 5.2973 -0.394951 0
M  V30 10037 C 939.079 5.95359 -1.42178 0
M  V30 10038 N 938.216 6.97668 -0.787635 0
M  V30 10039 H 943.056 2.55839 -1.52808 0
M  V30 10040 H 940.593 1.25681 -0.764378 0
M  V30 10041 H 942.551 4.15564 0.369075 0
M  V30 10042 H 941.181 3.11652 0.84102 0
M  V30 10043 H 940.233 3.47274 -1.55258 0
M  V30 10044 H 941.545 4.63877 -1.83355 0
M  V30 10045 H 940.699 6.06687 0.0399244 0
M  V30 10046 H 939.438 4.85915 0.416867 0
M  V30 10047 H 938.443 5.17139 -1.86675 0
M  V30 10048 H 939.668 6.41255 -2.23536 0
M  V30 10049 H 937.614 6.56 0.00380893 0
M  V30 10050 H 937.531 7.40867 -1.50505 0
M  V30 10051 H 938.799 7.78586 -0.377282 0
M  V30 10052 N 943.028 0.824394 1.34319 0
M  V30 10053 C 943.96 0.204805 2.28283 0
M  V30 10054 C 944.973 -0.606162 1.51094 0
M  V30 10055 O 946.162 -0.435602 1.73103 0
M  V30 10056 C 943.262 -0.73139 3.30914 0
M  V30 10057 C 942.435 0.0370723 4.37384 0
M  V30 10058 C 941.494 -0.820272 5.19767 0
M  V30 10059 O 940.52 -0.264721 5.68584 0
M  V30 10060 N 941.722 -2.13984 5.39621 0
M  V30 10061 H 944.487 1.0121 2.82093 0
M  V30 10062 H 942.048 0.681494 1.46858 0
M  V30 10063 H 944.04 -1.30958 3.82926 0
M  V30 10064 H 942.61 -1.43943 2.77487 0
M  V30 10065 H 941.83 0.796578 3.86068 0
M  V30 10066 H 943.118 0.566014 5.05642 0
M  V30 10067 H 942.516 -2.61492 5.01636 0
M  V30 10068 H 941.073 -2.66685 5.94746 0
M  V30 10069 N 944.506 -1.46559 0.579492 0
M  V30 10070 C 945.469 -2.28739 -0.145371 0
M  V30 10071 C 946.469 -1.38211 -0.821854 0
M  V30 10072 O 947.659 -1.6062 -0.674302 0
M  V30 10073 C 944.791 -3.18507 -1.21515 0
M  V30 10074 H 945.984 -2.94301 0.576786 0
M  V30 10075 H 943.537 -1.52616 0.337327 0
M  V30 10076 H 944.272 -2.57685 -1.96899 0
M  V30 10077 H 944.057 -3.85157 -0.734616 0
M  V30 10078 H 945.547 -3.80369 -1.72363 0
M  V30 10079 N 945.984 -0.3171 -1.54377 0
M  V30 10080 C 946.914 0.544623 -2.2706 0
M  V30 10081 C 947.895 1.12469 -1.27611 0
M  V30 10082 O 949.08 1.15103 -1.56413 0
M  V30 10083 C 946.21 1.70879 -3.02353 0
M  V30 10084 C 945.164 1.25833 -4.09084 0
M  V30 10085 C 944.49 2.50894 -4.72182 0
M  V30 10086 C 945.79 0.377876 -5.20931 0
M  V30 10087 H 947.484 -0.0616372 -2.99337 0
M  V30 10088 H 945.03 -0.0310848 -1.43966 0
M  V30 10089 H 946.983 2.31787 -3.51927 0
M  V30 10090 H 945.707 2.34155 -2.27682 0
M  V30 10091 H 944.366 0.672228 -3.60384 0
M  V30 10092 H 944.014 3.12518 -3.94134 0
M  V30 10093 H 943.714 2.21447 -5.44275 0
M  V30 10094 H 945.238 3.12575 -5.24528 0
M  V30 10095 H 946.652 0.893056 -5.66302 0
M  V30 10096 H 945.049 0.176474 -5.9984 0
M  V30 10097 H 946.119 -0.592943 -4.81261 0
M  V30 10098 N 947.462 1.57535 -0.0451378 0
M  V30 10099 C 948.395 2.06721 0.96653 0
M  V30 10100 C 949.373 0.966392 1.30766 0
M  V30 10101 O 950.557 1.23789 1.42157 0
M  V30 10102 C 947.684 2.50266 2.2822 0
M  V30 10103 C 946.73 3.71525 2.09455 0
M  V30 10104 S 947.563 5.17453 1.37851 0
M  V30 10105 C 948.719 5.64308 2.70753 0
M  V30 10106 H 948.952 2.92207 0.547911 0
M  V30 10107 H 946.485 1.53494 0.166973 0
M  V30 10108 H 948.443 2.76019 3.03849 0
M  V30 10109 H 947.104 1.65097 2.67211 0
M  V30 10110 H 946.297 3.99894 3.06759 0
M  V30 10111 H 945.899 3.46008 1.41967 0
M  V30 10112 H 948.191 5.69525 3.66943 0
M  V30 10113 H 949.134 6.63613 2.47028 0
M  V30 10114 H 949.542 4.92014 2.76736 0
M  V30 10115 N 948.94 -0.228186 1.55939 0
M  V30 10116 C 950.165 -0.974795 1.83064 0
M  V30 10117 C 950.59 -1.77426 0.624624 0
M  V30 10118 O 949.948 -1.76211 -0.426556 0
M  V30 10119 C 949.996 -1.87342 3.08116 0
M  V30 10120 O 949.1 -2.96784 2.86344 0
M  V30 10121 H 948.441 -0.276379 0.603747 0
M  V30 10122 H 950.971 -0.243507 2.03146 0
M  V30 10123 H 950.981 -2.28451 3.38045 0
M  V30 10124 H 949.656 -1.28575 3.95526 0
M  V30 10125 H 948.233 -2.59669 2.67631 0
M  V30 10126 N 950.418 -1.49637 -0.494624 0
M  V30 10127 C 951.328 -1.69522 -1.62172 0
M  V30 10128 C 952.344 -0.577894 -1.64123 0
M  V30 10129 O 953.52 -0.853382 -1.82426 0
M  V30 10130 C 950.585 -1.7633 -2.9851 0
M  V30 10131 C 949.646 -2.99944 -3.07135 0
M  V30 10132 C 948.879 -3.06419 -4.36971 0
M  V30 10133 O 949.102 -2.20312 -5.26136 0
M  V30 10134 O 948.036 -3.9894 -4.507 0
M  V30 10135 H 951.862 -2.65017 -1.48324 0
M  V30 10136 H 949.447 -1.33454 -0.671603 0
M  V30 10137 H 951.329 -1.83125 -3.7953 0
M  V30 10138 H 950.004 -0.840155 -3.12607 0
M  V30 10139 H 948.911 -2.98664 -2.2528 0
M  V30 10140 H 950.244 -3.9176 -2.97968 0
M  V30 10141 N 951.896 0.746133 -1.38819 0
M  V30 10142 C 952.826 1.87344 -1.39372 0
M  V30 10143 C 953.807 1.68123 -0.258583 0
M  V30 10144 O 954.992 1.88606 -0.462769 0
M  V30 10145 C 952.122 3.24962 -1.22543 0
M  V30 10146 C 951.076 3.58799 -2.33339 0
M  V30 10147 C 950.402 4.95235 -2.01609 0
M  V30 10148 C 951.702 3.62911 -3.75624 0
M  V30 10149 H 953.396 1.87138 -2.33709 0
M  V30 10150 H 950.942 0.898937 -1.12495 0
M  V30 10151 H 952.895 4.03488 -1.21554 0
M  V30 10152 H 951.619 3.25667 -0.246707 0
M  V30 10153 H 950.278 2.82596 -2.33527 0
M  V30 10154 H 949.926 4.92508 -1.02202 0
M  V30 10155 H 949.626 5.18843 -2.75819 0
M  V30 10156 H 951.15 5.76131 -2.02251 0
M  V30 10157 H 952.564 4.31535 -3.77426 0
M  V30 10158 H 950.961 3.98031 -4.491 0
M  V30 10159 H 952.031 2.62967 -4.07402 0
M  V30 10160 N 953.375 1.23811 0.975125 0
M  V30 10161 C 954.322 1.02394 2.06843 0
M  V30 10162 C 955.292 -0.060337 1.6599 0
M  V30 10163 O 956.477 0.0928187 1.90574 0
M  V30 10164 C 953.617 0.626882 3.39359 0
M  V30 10165 C 952.73 1.78385 3.9345 0
M  V30 10166 C 951.865 1.33307 5.14201 0
M  V30 10167 C 950.904 2.46045 5.60471 0
M  V30 10168 N 950.041 2.01888 6.72448 0
M  V30 10169 H 954.881 1.95973 2.24496 0
M  V30 10170 H 952.418 0.976206 1.10039 0
M  V30 10171 H 954.376 0.377742 4.15486 0
M  V30 10172 H 953.006 -0.271907 3.21653 0
M  V30 10173 H 952.058 2.14685 3.14029 0
M  V30 10174 H 953.37 2.63122 4.23755 0
M  V30 10175 H 952.524 1.04237 5.97678 0
M  V30 10176 H 951.263 0.456143 4.85562 0
M  V30 10177 H 950.268 2.75884 4.75571 0
M  V30 10178 H 951.493 3.34283 5.91127 0
M  V30 10179 H 949.439 1.16583 6.45558 0
M  V30 10180 H 949.356 2.80182 7.02164 0
M  V30 10181 H 950.624 1.75937 7.59386 0
M  V30 10182 N 954.853 -1.17469 1.05066 0
M  V30 10183 C 956.102 -1.87032 0.755114 0
M  V30 10184 C 956.415 -1.81844 -0.720572 0
M  V30 10185 O 957.621 -2.46866 -1.13002 0
M  V30 10186 C 956.077 -3.35581 1.30052 0
M  V30 10187 C 955.685 -3.49274 2.80556 0
M  V30 10188 C 957.429 -4.1048 1.08196 0
M  V30 10189 C 955.336 -4.91838 3.28404 0
M  V30 10190 H 954.266 -0.70057 0.278779 0
M  V30 10191 H 956.917 -1.32663 1.26779 0
M  V30 10192 H 955.299 -3.89479 0.715667 0
M  V30 10193 H 956.473 -3.05598 3.44886 0
M  V30 10194 H 954.788 -2.87793 3.00939 0
M  V30 10195 H 957.385 -5.15652 1.41447 0
M  V30 10196 H 957.728 -4.16295 0.0196603 0
M  V30 10197 H 958.261 -3.62784 1.63195 0
M  V30 10198 H 955 -4.91196 4.34058 0
M  V30 10199 H 954.52 -5.36189 2.68815 0
M  V30 10200 H 956.199 -5.60602 3.23009 0
M  V30 10201 N 956.331 -0.831506 -1.3388 0
M  V30 10202 C 957.264 -0.2046 -2.27281 0
M  V30 10203 C 958.242 0.643992 -1.49303 0
M  V30 10204 O 959.426 0.605863 -1.78498 0
M  V30 10205 C 956.553 0.713409 -3.31101 0
M  V30 10206 C 955.599 -0.0587654 -4.2646 0
M  V30 10207 S 956.432 -1.41172 -5.16557 0
M  V30 10208 C 957.588 -0.498807 -6.23909 0
M  V30 10209 H 957.821 -0.996442 -2.80104 0
M  V30 10210 H 955.354 -0.62786 -1.41058 0
M  V30 10211 H 957.312 1.23748 -3.91403 0
M  V30 10212 H 955.973 1.47885 -2.77108 0
M  V30 10213 H 955.166 0.639466 -4.99927 0
M  V30 10214 H 954.768 -0.513665 -3.70456 0
M  V30 10215 H 957.06 0.306268 -6.76807 0
M  V30 10216 H 958.003 -1.20342 -6.97799 0
M  V30 10217 H 958.411 -0.0834242 -5.64438 0
M  V30 10218 N 957.809 1.4625 -0.587256 0
M  V30 10219 C 959.037 2.06744 -0.08033 0
M  V30 10220 C 959.452 1.43527 1.2266 0
M  V30 10221 O 958.809 0.542168 1.74261 0
M  V30 10222 C 958.86 3.61394 0.0873469 0
M  V30 10223 O 958.581 4.22247 -1.16785 0
M  V30 10224 C 960.082 4.38828 0.628095 0
M  V30 10225 H 957.302 0.668354 -0.0595301 0
M  V30 10226 H 959.846 1.87808 -0.809217 0
M  V30 10227 H 958.001 3.79742 0.766473 0
M  V30 10228 H 958.415 5.15176 -0.984565 0
M  V30 10229 H 959.889 5.47613 0.694583 0
M  V30 10230 H 960.366 4.07188 1.64606 0
M  V30 10231 H 960.972 4.25297 -0.0163115 0
M  V30 10232 N 959.287 0.325282 1.54207 0
M  V30 10233 C 960.237 -0.55548 2.2113 0
M  V30 10234 C 961.221 -1.0803 1.19241 0
M  V30 10235 O 962.413 -1.01703 1.44864 0
M  V30 10236 C 959.542 -1.71504 2.97391 0
M  V30 10237 C 958.628 -1.20503 4.0662 0
M  V30 10238 N 959.019 -0.414838 5.04096 0
M  V30 10239 C 957.317 -1.4836 4.20601 0
M  V30 10240 C 958.018 -0.140225 5.81531 0
M  V30 10241 N 956.994 -0.72683 5.38719 0
M  V30 10242 H 960.796 0.0555192 2.93848 0
M  V30 10243 H 958.31 0.131225 1.61869 0
M  V30 10244 H 960.307 -2.35781 3.43821 0
M  V30 10245 H 958.967 -2.3295 2.26195 0
M  V30 10246 H 959.978 -0.0575291 5.17868 0
M  V30 10247 H 956.655 -2.10378 3.60621 0
M  V30 10248 H 958.045 0.496026 6.70067 0
M  V30 10249 N 960.765 -1.57509 0.0534917 0
M  V30 10250 C 961.695 -2.14698 -0.917999 0
M  V30 10251 C 962.676 -1.06924 -1.32292 0
M  V30 10252 O 963.861 -1.34875 -1.39723 0
M  V30 10253 C 960.991 -2.69383 -2.19203 0
M  V30 10254 C 959.945 -3.82161 -1.9271 0
M  V30 10255 C 959.271 -4.23373 -3.26587 0
M  V30 10256 C 960.571 -5.07199 -1.24686 0
M  V30 10257 H 962.265 -2.96125 -0.44165 0
M  V30 10258 H 959.811 -1.42446 -0.210993 0
M  V30 10259 H 961.764 -3.08031 -2.87567 0
M  V30 10260 H 960.488 -1.85151 -2.69048 0
M  V30 10261 H 959.147 -3.43989 -1.26757 0
M  V30 10262 H 958.795 -3.36089 -3.74237 0
M  V30 10263 H 958.495 -4.99385 -3.09658 0
M  V30 10264 H 960.019 -4.64623 -3.96178 0
M  V30 10265 H 961.433 -5.43279 -1.83088 0
M  V30 10266 H 959.83 -5.88369 -1.18076 0
M  V30 10267 H 960.9 -4.84386 -0.223227 0
M  V30 10268 N 962.243 0.219913 -1.56058 0
M  V30 10269 C 963.491 0.942199 -1.78793 0
M  V30 10270 C 963.812 1.84804 -0.622284 0
M  V30 10271 O 963.082 1.9255 0.360735 0
M  V30 10272 H 961.662 0.350895 -0.659455 0
M  V30 10273 H 964.324 0.231376 -1.93522 0
M  V30 10274 H 963.42 1.54804 -2.71002 0
M  V30 10275 N 963.721 1.49897 0.486681 0
M  V30 10276 C 965.132 1.53142 1.06792 0
M  V30 10277 C 965.483 0.325856 1.93475 0
M  V30 10278 O 964.608 -0.562893 2.08951 0
M  V30 10279 C 965.203 2.77514 1.94348 0
M  V30 10280 C 963.762 2.83491 2.47609 0
M  V30 10281 C 962.909 2.47239 1.2557 0
M  V30 10282 H 965.86 1.56387 0.269962 0
M  V30 10283 H 965.881 2.58487 2.79221 0
M  V30 10284 H 965.393 3.65239 1.31232 0
M  V30 10285 H 963.494 2.0008 3.14323 0
M  V30 10286 H 963.607 3.86011 2.83782 0
M  V30 10287 H 961.971 1.99332 1.58552 0
M  V30 10288 H 962.754 3.37255 0.641404 0
M  V30 10289 N 965.199 -0.738761 1.39212 0
M  V30 10290 C 966.149 -1.84376 1.34125 0
M  V30 10291 C 967.133 -1.5935 0.222793 0
M  V30 10292 O 968.325 -1.70918 0.460014 0
M  V30 10293 C 965.454 -3.22261 1.18334 0
M  V30 10294 C 964.54 -3.53129 2.34864 0
M  V30 10295 N 964.931 -3.54957 3.60332 0
M  V30 10296 C 963.229 -3.83472 2.27739 0
M  V30 10297 C 963.93 -3.83513 4.3737 0
M  V30 10298 N 962.906 -4.01097 3.66909 0
M  V30 10299 H 966.708 -1.84089 2.29104 0
M  V30 10300 H 964.222 -0.936826 1.32655 0
M  V30 10301 H 966.219 -4.01358 1.12772 0
M  V30 10302 H 964.879 -3.23789 0.243016 0
M  V30 10303 H 965.89 -3.36359 3.93806 0
M  V30 10304 H 962.567 -3.92628 1.41949 0
M  V30 10305 H 963.957 -3.91427 5.46109 0
M  V30 10306 N 966.677 -1.24326 -0.968545 0
M  V30 10307 C 967.607 -1.05951 -2.08079 0
M  V30 10308 C 968.588 0.0272666 -1.70078 0
M  V30 10309 O 969.773 -0.139644 -1.93697 0
M  V30 10310 C 966.903 -0.662623 -3.4092 0
M  V30 10311 C 965.857 -1.69807 -3.92873 0
M  V30 10312 C 965.183 -1.15628 -5.22048 0
M  V30 10313 C 966.483 -3.09383 -4.20808 0
M  V30 10314 H 968.177 -1.98984 -2.23709 0
M  V30 10315 H 965.723 -0.958112 -1.075 0
M  V30 10316 H 967.676 -0.521071 -4.18166 0
M  V30 10317 H 966.4 0.303399 -3.25188 0
M  V30 10318 H 965.059 -1.82783 -3.17783 0
M  V30 10319 H 964.707 -0.180888 -5.02675 0
M  V30 10320 H 964.407 -1.84822 -5.57776 0
M  V30 10321 H 965.931 -1.02683 -6.01904 0
M  V30 10322 H 967.345 -2.99642 -4.88761 0
M  V30 10323 H 965.742 -3.75923 -4.67763 0
M  V30 10324 H 966.812 -3.57486 -3.27616 0
M  V30 10325 N 968.156 1.1691 -1.05688 0
M  V30 10326 C 969.104 2.2315 -0.656262 0
M  V30 10327 C 970.098 1.66256 0.324873 0
M  V30 10328 O 971.304 1.7899 0.190397 0
M  V30 10329 H 967.679 0.726527 -0.19407 0
M  V30 10330 H 969.65 2.54233 -1.56231 0
M  V30 10331 C 968.399 3.47661 -0.0522431 0
M  V30 10332 H 967.722 3.91749 -0.798299 0
M  V30 10333 H 969.162 4.23571 0.190626 0
M  V30 10334 C 967.621 3.14709 1.20248 0
M  V30 10335 O 968.151 3.29947 2.29124 0
M  V30 10336 N 966.357 2.68892 1.10207 0
M  V30 10337 H 965.904 2.56692 0.216063 0
M  V30 10338 H 965.862 2.47218 1.94244 0
M  V30 10339 N 969.634 0.838594 1.33437 0
M  V30 10340 C 970.883 0.430484 1.97053 0
M  V30 10341 C 971.196 -1.01556 1.6717 0
M  V30 10342 O 972.402 -1.52834 2.24397 0
M  V30 10343 C 970.858 0.718828 3.52648 0
M  V30 10344 C 970.466 2.17953 3.91408 0
M  V30 10345 C 972.21 0.377654 4.22817 0
M  V30 10346 C 970.117 2.41194 5.39981 0
M  V30 10347 H 969.047 0.157239 0.737422 0
M  V30 10348 H 971.698 1.02714 1.5206 0
M  V30 10349 H 970.08 0.0518042 3.95966 0
M  V30 10350 H 971.254 2.88701 3.59149 0
M  V30 10351 H 969.569 2.48366 3.34221 0
M  V30 10352 H 972.166 0.528926 5.32077 0
M  V30 10353 H 972.509 -0.679338 4.1072 0
M  V30 10354 H 973.042 0.999899 3.85028 0
M  V30 10355 H 969.781 3.45457 5.57081 0
M  V30 10356 H 969.301 1.75007 5.73701 0
M  V30 10357 H 970.98 2.24334 6.06863 0
M  V30 10358 N 971.112 -1.45937 0.595003 0
M  V30 10359 C 972.358 -2.0262 0.0854317 0
M  V30 10360 C 972.691 -1.46402 -1.27594 0
M  V30 10361 O 971.966 -0.633823 -1.83883 0
M  V30 10362 C 972.249 -3.60085 0.0329075 0
M  V30 10363 C 972.102 -4.26663 1.42405 0
M  V30 10364 C 973.421 -4.35101 -0.661426 0
M  V30 10365 H 970.54 -0.736282 0.0325196 0
M  V30 10366 H 973.182 -1.73938 0.764563 0
M  V30 10367 H 971.332 -3.84652 -0.545439 0
M  V30 10368 H 973.004 -4.13321 2.04851 0
M  V30 10369 H 971.247 -3.85549 1.98833 0
M  V30 10370 H 971.918 -5.35497 1.33965 0
M  V30 10371 H 974.394 -4.15753 -0.169977 0
M  V30 10372 H 973.27 -5.44829 -0.667243 0
M  V30 10373 H 973.531 -4.07053 -1.72513 0
M  V30 10374 N 972.59 -0.333456 -1.54032 0
M  V30 10375 C 973.538 0.543414 -2.26163 0
M  V30 10376 C 974.532 1.11037 -1.27934 0
M  V30 10377 O 975.738 1.05727 -1.45677 0
M  V30 10378 H 972.113 0.19391 -0.726569 0
M  V30 10379 H 974.084 -0.0871052 -2.98273 0
M  V30 10380 C 972.833 1.68769 -3.03994 0
M  V30 10381 H 972.156 1.26069 -3.79403 0
M  V30 10382 H 973.596 2.27662 -3.57695 0
M  V30 10383 C 972.055 2.61117 -2.12884 0
M  V30 10384 O 972.585 3.63097 -1.71823 0
M  V30 10385 N 970.791 2.29573 -1.7817 0
M  V30 10386 H 970.338 1.46684 -2.11759 0
M  V30 10387 H 970.296 2.91622 -1.1749 0
M  V30 10388 N 974.068 1.57479 -0.061844 0
M  V30 10389 C 974.998 2.15181 0.9066 0
M  V30 10390 C 975.979 1.07624 1.31724 0
M  V30 10391 O 977.164 1.35614 1.39006 0
M  V30 10392 C 974.294 2.70542 2.17771 0
M  V30 10393 C 973.248 3.83178 1.9068 0
M  V30 10394 C 972.574 4.25099 3.24337 0
M  V30 10395 C 973.874 5.07853 1.21994 0
M  V30 10396 H 975.568 2.96355 0.42594 0
M  V30 10397 H 973.114 1.42556 0.203435 0
M  V30 10398 H 975.067 3.09552 2.85929 0
M  V30 10399 H 973.791 1.86575 2.68062 0
M  V30 10400 H 972.45 3.44656 1.24931 0
M  V30 10401 H 972.098 3.38069 3.72449 0
M  V30 10402 H 971.798 5.01021 3.07005 0
M  V30 10403 H 973.322 4.66718 3.93709 0
M  V30 10404 H 974.736 5.44242 1.80204 0
M  V30 10405 H 973.133 5.88987 1.14954 0
M  V30 10406 H 974.203 4.84497 0.197536 0
M  V30 10407 N 975.546 -0.211634 1.56173 0
M  V30 10408 C 976.476 -1.26533 1.96244 0
M  V30 10409 C 977.457 -1.48362 0.832028 0
M  V30 10410 O 978.642 -1.60378 1.0951 0
M  V30 10411 C 975.772 -2.61307 2.2877 0
M  V30 10412 C 974.726 -2.54119 3.44395 0
M  V30 10413 C 974.052 -3.93014 3.62552 0
M  V30 10414 C 975.352 -2.08046 4.79076 0
M  V30 10415 H 977.046 -0.932407 2.84511 0
M  V30 10416 H 974.592 -0.447084 1.36884 0
M  V30 10417 H 976.545 -3.35188 2.55396 0
M  V30 10418 H 975.269 -2.96307 1.37367 0
M  V30 10419 H 973.928 -1.82694 3.17834 0
M  V30 10420 H 973.576 -4.25338 2.68508 0
M  V30 10421 H 973.276 -3.89083 4.40327 0
M  V30 10422 H 974.8 -4.68542 3.91537 0
M  V30 10423 H 976.214 -2.71676 5.04842 0
M  V30 10424 H 974.611 -2.15154 5.60204 0
M  V30 10425 H 975.681 -1.03306 4.73768 0
M  V30 10426 N 977.024 -1.50153 -0.478725 0
M  V30 10427 C 978.272 -1.60443 -1.22892 0
M  V30 10428 C 978.593 -0.303276 -1.92627 0
M  V30 10429 O 977.863 0.678798 -1.83764 0
M  V30 10430 H 976.443 -0.591205 -0.456602 0
M  V30 10431 H 979.105 -1.86893 -0.552905 0
M  V30 10432 H 978.201 -2.41175 -1.98094 0
M  V30 10433 N 978.502 0.731368 -1.39602 0
M  V30 10434 C 979.465 1.8271 -1.38383 0
M  V30 10435 C 980.465 1.58338 -0.280309 0
M  V30 10436 O 981.655 1.65671 -0.538402 0
M  V30 10437 C 978.787 3.20556 -1.16002 0
M  V30 10438 H 979.98 1.85193 -2.35889 0
M  V30 10439 H 977.533 0.935396 -1.2522 0
M  V30 10440 H 978.268 3.23732 -0.191927 0
M  V30 10441 H 978.053 3.39643 -1.9592 0
M  V30 10442 H 979.543 4.00612 -1.17899 0
M  V30 10443 N 979.98 1.24838 0.961938 0
M  V30 10444 C 981.22 1.10348 1.72054 0
M  V30 10445 C 981.584 -0.350775 1.88769 0
M  V30 10446 O 982.785 -0.617323 2.61615 0
M  V30 10447 C 981.056 1.82916 3.07045 0
M  V30 10448 S 982.615 1.84227 3.98253 0
M  V30 10449 H 979.433 0.394552 0.591481 0
M  V30 10450 H 982.035 1.58254 1.14786 0
M  V30 10451 H 980.739 2.87829 2.92545 0
M  V30 10452 H 980.27 1.35366 3.69377 0
M  V30 10453 H 982.285 0.914073 4.87708 0
M  V30 10454 N 981.458 -1.16348 1.06306 0
M  V30 10455 C 982.686 -1.90782 0.800614 0
M  V30 10456 C 983.101 -1.77439 -0.645033 0
M  V30 10457 O 982.458 -1.11912 -1.4416 0
M  V30 10458 C 982.509 -3.41484 1.18621 0
M  V30 10459 O 982.23 -3.54428 2.57512 0
M  V30 10460 C 983.731 -4.32968 0.951525 0
M  V30 10461 H 980.951 -0.604977 0.290247 0
M  V30 10462 H 983.495 -1.47476 1.41672 0
M  V30 10463 H 981.65 -3.82493 0.614633 0
M  V30 10464 H 982.064 -4.4788 2.72954 0
M  V30 10465 H 983.538 -5.37169 1.27095 0
M  V30 10466 H 984.015 -4.39055 -0.112734 0
M  V30 10467 H 984.621 -3.97687 1.50749 0
M  V30 10468 N 982.937 -0.845659 -1.3299 0
M  V30 10469 C 983.884 -0.281761 -2.29074 0
M  V30 10470 C 984.854 0.606237 -1.54641 0
M  V30 10471 O 986.039 0.543063 -1.82908 0
M  V30 10472 C 983.179 0.531451 -3.40983 0
M  V30 10473 C 982.292 -0.381328 -4.30314 0
M  V30 10474 C 981.427 0.443643 -5.29344 0
M  V30 10475 C 980.466 -0.467101 -6.10315 0
M  V30 10476 N 979.603 0.320148 -7.0137 0
M  V30 10477 H 984.443 -1.10641 -2.76699 0
M  V30 10478 H 981.98 -0.55706 -1.36144 0
M  V30 10479 H 983.938 1.01848 -4.04577 0
M  V30 10480 H 982.568 1.32101 -2.94532 0
M  V30 10481 H 981.62 -0.986701 -3.6738 0
M  V30 10482 H 982.932 -1.08067 -4.86953 0
M  V30 10483 H 982.086 0.994212 -5.98498 0
M  V30 10484 H 980.825 1.17639 -4.73299 0
M  V30 10485 H 979.83 -1.02963 -5.40073 0
M  V30 10486 H 981.055 -1.19832 -6.68444 0
M  V30 10487 H 979.001 1.03615 -6.47765 0
M  V30 10488 H 978.918 -0.320338 -7.55321 0
M  V30 10489 H 980.186 0.852735 -7.74822 0
M  V30 10490 N 984.415 1.45619 -0.602734 0
M  V30 10491 C 985.64 2.07157 -0.100429 0
M  V30 10492 C 986.065 1.44524 1.20393 0
M  V30 10493 O 985.423 0.536191 1.7319 0
M  V30 10494 C 985.471 3.60587 0.0308604 0
M  V30 10495 O 984.575 3.97944 1.08234 0
M  V30 10496 H 983.916 0.6601 -0.0718643 0
M  V30 10497 H 986.446 1.86948 -0.831366 0
M  V30 10498 H 986.456 4.07348 0.230634 0
M  V30 10499 H 985.131 4.05561 -0.921581 0
M  V30 10500 H 983.708 3.62862 0.859414 0
M  V30 10501 N 985.893 0.34162 1.53853 0
M  V30 10502 C 987.141 -0.254979 2.00485 0
M  V30 10503 C 987.462 -1.51222 1.23114 0
M  V30 10504 O 986.732 -1.92966 0.337787 0
M  V30 10505 H 985.312 -0.0972084 0.740648 0
M  V30 10506 H 987.974 0.462332 1.89337 0
M  V30 10507 H 987.07 -0.498778 3.08089 0
M  V30 10508 N 987.371 -1.57444 0.0701946 0
M  V30 10509 C 988.782 -1.80875 -0.462709 0
M  V30 10510 C 989.133 -0.983975 -1.69742 0
M  V30 10511 O 988.258 -0.206027 -2.15417 0
M  V30 10512 C 988.853 -3.28062 -0.84623 0
M  V30 10513 C 987.412 -3.52345 -1.32401 0
M  V30 10514 C 986.559 -2.7558 -0.308399 0
M  V30 10515 H 989.51 -1.55917 0.295907 0
M  V30 10516 H 989.531 -3.40023 -1.70776 0
M  V30 10517 H 989.043 -3.88064 0.0526033 0
M  V30 10518 H 987.144 -2.97645 -2.24139 0
M  V30 10519 H 987.257 -4.6104 -1.30304 0
M  V30 10520 H 985.621 -2.4229 -0.785337 0
M  V30 10521 H 986.404 -3.38319 0.582679 0
M  V30 10522 N 988.849 0.203349 -1.56283 0
M  V30 10523 C 990.098 0.92315 -1.79334 0
M  V30 10524 C 990.411 1.84765 -0.641977 0
M  V30 10525 O 991.617 2.60745 -0.756584 0
M  V30 10526 C 990.073 1.69184 -3.17655 0
M  V30 10527 C 989.681 0.812581 -4.40569 0
M  V30 10528 C 991.425 2.40177 -3.50022 0
M  V30 10529 C 989.332 1.57967 -5.69913 0
M  V30 10530 H 988.262 0.348442 -0.668659 0
M  V30 10531 H 990.913 0.1766 -1.82648 0
M  V30 10532 H 989.295 2.48197 -3.08568 0
M  V30 10533 H 990.469 0.0616956 -4.60759 0
M  V30 10534 H 988.784 0.21389 -4.1585 0
M  V30 10535 H 991.381 2.98103 -4.4389 0
M  V30 10536 H 991.724 3.13961 -2.73376 0
M  V30 10537 H 992.257 1.68138 -3.6052 0
M  V30 10538 H 988.996 0.884767 -6.49501 0
M  V30 10539 H 988.516 2.3047 -5.53754 0
M  V30 10540 H 990.195 2.13562 -6.10737 0
M  V30 10541 N 990.327 1.50405 0.470755 0
M  V30 10542 C 991.557 1.64928 1.24428 0
M  V30 10543 C 991.965 0.332139 1.86262 0
M  V30 10544 O 991.308 -0.695919 1.70008 0
M  V30 10545 C 991.37 2.6829 2.39293 0
M  V30 10546 C 991.034 4.11835 1.98093 0
M  V30 10547 C 992.031 4.97693 1.50326 0
M  V30 10548 C 989.716 4.57753 2.06803 0
M  V30 10549 C 991.71 6.27516 1.11813 0
M  V30 10550 C 989.397 5.87582 1.67902 0
M  V30 10551 C 990.395 6.72289 1.20485 0
M  V30 10552 O 990.083 7.99694 0.821219 0
M  V30 10553 H 989.815 0.557418 0.382442 0
M  V30 10554 H 992.369 1.97382 0.568292 0
M  V30 10555 H 990.599 2.31079 3.10063 0
M  V30 10556 H 992.288 2.7203 3.01255 0
M  V30 10557 H 993.054 4.63434 1.43018 0
M  V30 10558 H 988.933 3.91966 2.42659 0
M  V30 10559 H 992.477 6.93586 0.747317 0
M  V30 10560 H 988.374 6.21362 1.74869 0
M  V30 10561 H 989.142 8.12968 0.950038 0
M  V30 10562 N 991.805 -0.723954 1.39988 0
M  V30 10563 C 993.054 -1.47922 1.3712 0
M  V30 10564 C 993.367 -1.95582 -0.0263665 0
M  V30 10565 O 994.573 -2.70918 -0.177652 0
M  V30 10566 C 993.029 -2.67342 2.40949 0
M  V30 10567 C 992.637 -2.26586 3.86475 0
M  V30 10568 C 994.381 -3.45116 2.47174 0
M  V30 10569 C 992.288 -3.42794 4.81919 0
M  V30 10570 H 991.218 -0.555522 0.509815 0
M  V30 10571 H 993.869 -0.788692 1.65686 0
M  V30 10572 H 992.251 -3.38524 2.0547 0
M  V30 10573 H 993.425 -1.62878 4.31054 0
M  V30 10574 H 991.74 -1.61876 3.83647 0
M  V30 10575 H 994.337 -4.31573 3.15672 0
M  V30 10576 H 994.68 -3.8835 1.49966 0
M  V30 10577 H 995.213 -2.80971 2.81602 0
M  V30 10578 H 991.952 -3.046 5.8043 0
M  V30 10579 H 991.472 -4.05445 4.42012 0
M  V30 10580 H 993.151 -4.08977 5.01345 0
M  V30 10581 N 993.283 -1.25346 -0.955304 0
M  V30 10582 C 994.532 -1.0945 -1.69421 0
M  V30 10583 C 994.845 0.364459 -1.92175 0
M  V30 10584 O 996.051 0.643843 -2.63755 0
M  V30 10585 C 994.507 -1.91045 -3.05008 0
M  V30 10586 C 994.115 -3.41428 -2.90053 0
M  V30 10587 C 995.859 -1.83716 -3.82686 0
M  V30 10588 C 993.766 -4.1532 -4.21026 0
M  V30 10589 H 992.696 -0.405978 -0.635372 0
M  V30 10590 H 995.347 -1.49536 -1.06354 0
M  V30 10591 H 993.729 -1.43781 -3.68975 0
M  V30 10592 H 994.903 -3.9636 -2.35022 0
M  V30 10593 H 993.218 -3.49842 -2.25831 0
M  V30 10594 H 995.815 -2.36217 -4.79693 0
M  V30 10595 H 996.158 -0.804919 -4.08444 0
M  V30 10596 H 996.691 -2.28726 -3.25468 0
M  V30 10597 H 993.43 -5.18955 -4.00457 0
M  V30 10598 H 992.95 -3.65172 -4.75825 0
M  V30 10599 H 994.629 -4.22999 -4.89572 0
M  V30 10600 N 994.761 1.15782 -1.06922 0
M  V30 10601 C 995.989 1.90355 -0.81072 0
M  V30 10602 C 996.404 1.77779 0.635614 0
M  V30 10603 O 995.761 1.12675 1.43564 0
M  V30 10604 C 995.812 3.4085 -1.2043 0
M  V30 10605 O 995.533 3.53057 -2.59388 0
M  V30 10606 C 997.034 4.32457 -0.974473 0
M  V30 10607 H 994.254 0.60343 -0.293451 0
M  V30 10608 H 996.798 1.46723 -1.42452 0
M  V30 10609 H 994.953 3.82162 -0.634909 0
M  V30 10610 H 995.367 4.46426 -2.75326 0
M  V30 10611 H 996.841 5.36488 -1.29942 0
M  V30 10612 H 997.318 4.39109 0.0894481 0
M  V30 10613 H 997.924 3.96882 -1.52856 0
M  V30 10614 N 996.239 0.8527 1.3254 0
M  V30 10615 C 997.149 0.298744 2.3269 0
M  V30 10616 C 998.165 -0.582418 1.63963 0
M  V30 10617 O 999.341 -0.483253 1.95516 0
M  V30 10618 C 996.406 -0.505453 3.42996 0
M  V30 10619 C 995.467 0.401618 4.27417 0
M  V30 10620 C 994.7 -0.364294 5.32455 0
M  V30 10621 O 994.923 -1.59448 5.47661 0
M  V30 10622 O 993.857 0.268892 6.01299 0
M  V30 10623 H 997.683 1.12843 2.81958 0
M  V30 10624 H 995.268 0.615584 1.36128 0
M  V30 10625 H 997.15 -0.961974 4.10273 0
M  V30 10626 H 995.825 -1.31197 2.95921 0
M  V30 10627 H 994.732 0.906274 3.62957 0
M  V30 10628 H 996.065 1.17327 4.78012 0
M  V30 10629 N 997.718 -1.45297 0.610449 0
M  V30 10630 C 998.948 -2.0629 0.113047 0
M  V30 10631 C 999.356 -1.45527 -1.20907 0
M  V30 10632 O 998.699 -0.564837 -1.74801 0
M  V30 10633 C 998.761 -3.59366 -0.0979692 0
M  V30 10634 C 998.425 -4.42481 1.14279 0
M  V30 10635 C 999.422 -4.77277 2.06161 0
M  V30 10636 C 997.107 -4.83187 1.37241 0
M  V30 10637 C 999.101 -5.51639 3.19333 0
M  V30 10638 C 996.788 -5.57303 2.50713 0
M  V30 10639 C 997.786 -5.91445 3.41587 0
M  V30 10640 O 997.474 -6.64056 4.53083 0
M  V30 10641 H 997.206 -0.67264 0.0673159 0
M  V30 10642 H 999.76 -1.87486 0.838937 0
M  V30 10643 H 997.99 -3.76582 -0.878783 0
M  V30 10644 H 999.679 -4.02193 -0.547327 0
M  V30 10645 H 1000.44 -4.46384 1.89647 0
M  V30 10646 H 996.324 -4.56045 0.67407 0
M  V30 10647 H 999.868 -5.78207 3.90286 0
M  V30 10648 H 995.765 -5.8761 2.67179 0
M  V30 10649 H 996.533 -6.82509 4.51801 0
M  V30 10650 N 999.196 -0.349774 -1.5367 0
M  V30 10651 C 1000.44 0.245095 -2.02925 0
M  V30 10652 C 1000.8 1.4727 -1.23189 0
M  V30 10653 O 1002 2.14215 -1.62374 0
M  V30 10654 C 1000.27 0.545392 -3.53214 0
M  V30 10655 S 1001.83 1.11619 -4.24366 0
M  V30 10656 H 998.649 0.0725368 -0.70729 0
M  V30 10657 H 1001.25 -0.488979 -1.89286 0
M  V30 10658 H 999.955 -0.355786 -4.08855 0
M  V30 10659 H 999.486 1.30897 -3.70985 0
M  V30 10660 H 1001.5 2.40151 -4.34214 0
M  V30 10661 N 1000.67 1.57404 -0.0785433 0
M  V30 10662 C 1001.92 1.93744 0.589024 0
M  V30 10663 C 1002.25 0.959087 1.69209 0
M  V30 10664 O 1001.5 -0.0241604 1.95685 0
M  V30 10665 C 1001.8 3.36684 1.1991 0
M  V30 10666 C 1001.47 4.50356 0.221493 0
M  V30 10667 C 1000.13 4.81177 -0.0474347 0
M  V30 10668 C 1002.48 5.1928 -0.446941 0
M  V30 10669 C 999.811 5.78257 -0.99177 0
M  V30 10670 C 1002.16 6.17372 -1.37964 0
M  V30 10671 C 1000.83 6.46607 -1.65697 0
M  V30 10672 H 1000.1 0.70896 0.215539 0
M  V30 10673 H 1002.74 1.90905 -0.150856 0
M  V30 10674 H 1001.05 3.36022 2.01486 0
M  V30 10675 H 1002.75 3.62095 1.72303 0
M  V30 10676 H 999.336 4.26322 0.441284 0
M  V30 10677 H 1003.52 4.95658 -0.252298 0
M  V30 10678 H 998.776 5.9923 -1.21381 0
M  V30 10679 H 1002.95 6.6988 -1.9035 0
M  V30 10680 H 1000.58 7.21643 -2.39031 0
M  V30 10681 N 1002.15 -0.195058 1.56388 0
M  V30 10682 C 1003.38 -0.930291 1.8447 0
M  V30 10683 C 1003.79 -1.77356 0.658901 0
M  V30 10684 O 1003.13 -1.79691 -0.381664 0
M  V30 10685 C 1003.19 -1.87626 3.06654 0
M  V30 10686 C 1002.86 -1.21494 4.40555 0
M  V30 10687 C 1003.86 -0.591847 5.1652 0
M  V30 10688 C 1001.54 -1.21878 4.8729 0
M  V30 10689 C 1003.53 0.0185743 6.37397 0
M  V30 10690 C 1001.22 -0.604524 6.08103 0
M  V30 10691 C 1002.22 0.0130731 6.82999 0
M  V30 10692 O 1001.91 0.617703 8.01523 0
M  V30 10693 H 1001.64 -0.276933 0.616672 0
M  V30 10694 H 1004.19 -0.207277 2.04351 0
M  V30 10695 H 1002.42 -2.63897 2.82658 0
M  V30 10696 H 1004.11 -2.47929 3.21382 0
M  V30 10697 H 1004.88 -0.581018 4.81507 0
M  V30 10698 H 1000.76 -1.68888 4.2895 0
M  V30 10699 H 1004.3 0.50124 6.95797 0
M  V30 10700 H 1000.2 -0.612855 6.42584 0
M  V30 10701 H 1000.97 0.514612 8.16881 0
M  V30 10702 N 1003.63 -1.50653 -0.462772 0
M  V30 10703 C 1004.88 -1.61737 -1.21184 0
M  V30 10704 C 1005.2 -0.32369 -1.92295 0
M  V30 10705 O 1004.47 0.659269 -1.84473 0
M  V30 10706 H 1003.05 -0.596015 -0.450306 0
M  V30 10707 H 1005.71 -1.87469 -0.533051 0
M  V30 10708 H 1004.81 -2.43262 -1.95525 0
M  V30 10709 N 1005.11 0.71652 -1.4037 0
M  V30 10710 C 1006.39 1.46947 -1.29097 0
M  V30 10711 C 1006.77 2.10903 0.0911182 0
M  V30 10712 O 1006.11 2.00068 1.10385 0
M  V30 10713 C 1006.32 2.50594 -2.42907 0
M  V30 10714 C 1007.67 3.16451 -2.83097 0
M  V30 10715 O 1008.7 2.60913 -2.42493 0
M  V30 10716 O 1007.55 4.16991 -3.53244 0
M  V30 10717 H 1004.65 0.653413 -0.506932 0
M  V30 10718 H 1007.19 0.748774 -1.52287 0
M  V30 10719 H 1005.97 2.01843 -3.35224 0
M  V30 10720 H 1005.59 3.302 -2.21481 0
M  V30 10721 N 1006.59 1.25851 0.948643 0
M  V30 10722 C 1007.52 1.09248 2.06367 0
M  V30 10723 C 1008.5 -0.000205168 1.701 0
M  V30 10724 O 1009.68 0.170442 1.93451 0
M  V30 10725 C 1006.81 0.716777 3.39823 0
M  V30 10726 C 1005.77 1.76036 3.90122 0
M  V30 10727 C 1005.09 1.23918 5.20143 0
M  V30 10728 C 1006.39 3.16039 4.15833 0
M  V30 10729 H 1008.09 2.02518 2.20515 0
M  V30 10730 H 1005.63 0.975093 1.05962 0
M  V30 10731 H 1007.59 0.587531 4.17284 0
M  V30 10732 H 1006.31 -0.251626 3.25629 0
M  V30 10733 H 1004.97 1.87815 3.14835 0
M  V30 10734 H 1004.62 0.260836 5.02323 0
M  V30 10735 H 1004.32 1.93673 5.54765 0
M  V30 10736 H 1005.84 1.12245 6.00194 0
M  V30 10737 H 1007.25 3.0738 4.83933 0
M  V30 10738 H 1005.65 3.83317 4.61723 0
M  V30 10739 H 1006.72 3.62652 3.21887 0
M  V30 10740 N 1008.06 -1.15214 1.07534 0
M  V30 10741 C 1009.31 -1.86319 0.800814 0
M  V30 10742 C 1009.64 -1.82221 -0.671494 0
M  V30 10743 O 1008.92 -1.24664 -1.49295 0
M  V30 10744 C 1009.2 -3.35347 1.31203 0
M  V30 10745 C 1009.05 -3.48067 2.84902 0
M  V30 10746 C 1010.37 -4.3016 0.930064 0
M  V30 10747 H 1007.49 -0.676523 0.292379 0
M  V30 10748 H 1010.13 -1.35349 1.33344 0
M  V30 10749 H 1008.28 -3.78886 0.858949 0
M  V30 10750 H 1009.96 -3.13379 3.38514 0
M  V30 10751 H 1008.2 -2.89566 3.23008 0
M  V30 10752 H 1008.87 -4.52782 3.15741 0
M  V30 10753 H 1011.35 -3.94591 1.3205 0
M  V30 10754 H 1010.22 -5.32914 1.31507 0
M  V30 10755 H 1010.48 -4.41796 -0.163824 0
M  V30 10756 N 1009.54 -0.859717 -1.32086 0
M  V30 10757 C 1010.49 -0.296897 -2.30697 0
M  V30 10758 C 1011.48 0.582473 -1.59071 0
M  V30 10759 O 1012.69 0.469713 -1.73763 0
M  V30 10760 H 1009.07 -0.0773132 -0.748015 0
M  V30 10761 H 1011.04 -1.14273 -2.75652 0
M  V30 10762 C 1009.79 0.495546 -3.44151 0
M  V30 10763 H 1009.11 -0.171829 -3.99431 0
M  V30 10764 H 1010.55 0.854854 -4.15293 0
M  V30 10765 C 1009.01 1.68278 -2.91863 0
M  V30 10766 O 1009.54 2.78194 -2.89777 0
M  V30 10767 N 1007.74 1.51151 -2.48197 0
M  V30 10768 H 1007.29 0.617345 -2.50093 0
M  V30 10769 H 1007.25 2.3073 -2.13567 0
M  V30 10770 N 1011.02 1.44971 -0.618145 0
M  V30 10771 C 1012.25 2.06228 -0.123985 0
M  V30 10772 C 1012.66 1.46166 1.20134 0
M  V30 10773 O 1012 0.574099 1.74499 0
M  V30 10774 C 1012.06 3.59413 0.0789098 0
M  V30 10775 C 1011.73 4.41869 -1.16624 0
M  V30 10776 C 1012.72 4.76177 -2.0869 0
M  V30 10777 C 1010.41 4.82453 -1.39802 0
M  V30 10778 C 1012.4 5.49938 -3.22254 0
M  V30 10779 C 1010.09 5.55965 -2.53665 0
M  V30 10780 C 1011.09 5.89626 -3.44718 0
M  V30 10781 O 1010.78 6.61644 -4.56598 0
M  V30 10782 H 1010.51 0.672274 -0.0708822 0
M  V30 10783 H 1013.06 1.87038 -0.848868 0
M  V30 10784 H 1011.29 3.77043 0.8588 0
M  V30 10785 H 1012.98 4.02478 0.52599 0
M  V30 10786 H 1013.75 4.45372 -1.92012 0
M  V30 10787 H 1009.63 4.55681 -0.698245 0
M  V30 10788 H 1013.17 5.76129 -3.93347 0
M  V30 10789 H 1009.07 5.86185 -2.70291 0
M  V30 10790 H 1009.84 6.80103 -4.55414 0
M  V30 10791 N 1012.5 0.357919 1.53482 0
M  V30 10792 C 1013.43 -0.484231 2.28424 0
M  V30 10793 C 1014.41 -1.09046 1.30548 0
M  V30 10794 O 1015.59 -1.10916 1.59409 0
M  V30 10795 C 1012.72 -1.62803 3.06778 0
M  V30 10796 C 1011.68 -1.14943 4.12277 0
M  V30 10797 C 1011 -2.38287 4.78669 0
M  V30 10798 C 1012.3 -0.239627 5.2175 0
M  V30 10799 H 1014 0.140979 2.99068 0
M  V30 10800 H 1011.54 0.069244 1.43833 0
M  V30 10801 H 1013.5 -2.22374 3.57949 0
M  V30 10802 H 1012.22 -2.28036 2.3381 0
M  V30 10803 H 1010.88 -0.576442 3.6204 0
M  V30 10804 H 1010.53 -3.01959 4.02281 0
M  V30 10805 H 1010.23 -2.06939 5.49955 0
M  V30 10806 H 1011.75 -2.98558 5.32631 0
M  V30 10807 H 1013.17 -0.742597 5.6847 0
M  V30 10808 H 1011.56 -0.0173747 6.00097 0
M  V30 10809 H 1012.63 0.720333 4.7952 0
M  V30 10810 N 1013.98 -1.5736 0.0868897 0
M  V30 10811 C 1014.93 -2.10105 -0.885435 0
M  V30 10812 C 1015.91 -1.01417 -1.24913 0
M  V30 10813 O 1017.1 -1.27704 -1.22558 0
M  V30 10814 C 1014.23 -2.67837 -2.14752 0
M  V30 10815 C 1013.32 -3.83553 -1.80963 0
M  V30 10816 N 1013.71 -4.91917 -1.17693 0
M  V30 10817 C 1012.01 -3.93134 -2.10622 0
M  V30 10818 C 1012.71 -5.72628 -1.02332 0
M  V30 10819 N 1011.68 -5.2139 -1.53796 0
M  V30 10820 H 1015.49 -2.91272 -0.392179 0
M  V30 10821 H 1013 -1.61981 -0.116566 0
M  V30 10822 H 1015 -3.03948 -2.85344 0
M  V30 10823 H 1013.66 -1.88122 -2.64651 0
M  V30 10824 H 1014.67 -5.10964 -0.844731 0
M  V30 10825 H 1011.34 -3.24416 -2.62793 0
M  V30 10826 H 1012.73 -6.69813 -0.529171 0
M  V30 10827 N 1015.45 0.186762 -1.56489 0
M  V30 10828 C 1016.4 1.23141 -1.95205 0
M  V30 10829 C 1017.37 1.44799 -0.81378 0
M  V30 10830 O 1018.56 1.57795 -1.07263 0
M  V30 10831 C 1015.7 2.56926 -2.30397 0
M  V30 10832 C 1014.81 2.42777 -3.57328 0
M  V30 10833 C 1013.94 3.69323 -3.81804 0
M  V30 10834 C 1012.98 3.50041 -5.02133 0
M  V30 10835 N 1012.12 4.68619 -5.2282 0
M  V30 10836 H 1016.96 0.894256 -2.84266 0
M  V30 10837 H 1014.5 0.430187 -1.40669 0
M  V30 10838 H 1016.46 3.3488 -2.4882 0
M  V30 10839 H 1015.09 2.88668 -1.44466 0
M  V30 10840 H 1014.14 1.56078 -3.46906 0
M  V30 10841 H 1015.45 2.24468 -4.45439 0
M  V30 10842 H 1014.6 4.55715 -4.00511 0
M  V30 10843 H 1013.34 3.90595 -2.92039 0
M  V30 10844 H 1012.35 2.62034 -4.8334 0
M  V30 10845 H 1013.57 3.30206 -5.93414 0
M  V30 10846 H 1011.52 4.90139 -4.36005 0
M  V30 10847 H 1011.44 4.53165 -6.05126 0
M  V30 10848 H 1012.7 5.56338 -5.45993 0
M  V30 10849 N 1016.93 1.50896 0.454776 0
M  V30 10850 C 1017.88 1.71497 1.57136 0
M  V30 10851 C 1018.87 0.58098 1.59126 0
M  V30 10852 O 1020.08 0.761916 1.63079 0
M  V30 10853 H 1016.46 0.54158 0.521724 0
M  V30 10854 H 1018.43 2.65129 1.36928 0
M  V30 10855 C 1017.18 1.84125 2.94947 0
M  V30 10856 H 1016.5 2.7078 2.9414 0
M  V30 10857 H 1017.94 2.02558 3.72487 0
M  V30 10858 C 1016.4 0.596752 3.31573 0
M  V30 10859 O 1016.93 -0.256632 4.00879 0
M  V30 10860 N 1015.13 0.445958 2.87158 0
M  V30 10861 H 1014.68 1.14146 2.30929 0
M  V30 10862 H 1014.64 -0.385519 3.12027 0
M  V30 10863 N 1018.41 -0.709066 1.40748 0
M  V30 10864 C 1019.83 -1.01797 1.22921 0
M  V30 10865 C 1020.03 -2.01205 0.109011 0
M  V30 10866 O 1019.08 -2.46854 -0.530987 0
M  V30 10867 C 1020.4 -1.55546 2.57344 0
M  V30 10868 C 1021.94 -1.67498 2.64412 0
M  V30 10869 C 1022.42 -2.24652 3.99119 0
M  V30 10870 N 1023.91 -2.3203 4.00895 0
M  V30 10871 C 1024.64 -2.7725 5.01917 0
M  V30 10872 N 1024.14 -3.22174 6.13332 0
M  V30 10873 N 1025.93 -2.76692 4.89283 0
M  V30 10874 H 1018.08 -0.0502704 2.12341 0
M  V30 10875 H 1020.35 -0.0848933 0.944191 0
M  V30 10876 H 1020.05 -0.899631 3.39999 0
M  V30 10877 H 1019.93 -2.53971 2.78888 0
M  V30 10878 H 1022.31 -2.32196 1.82123 0
M  V30 10879 H 1022.4 -0.676553 2.46691 0
M  V30 10880 H 1022.04 -1.60573 4.81849 0
M  V30 10881 H 1021.97 -3.25221 4.14173 0
M  V30 10882 H 1024.46 -2.00309 3.20444 0
M  V30 10883 H 1024.77 -3.55265 6.86299 0
M  V30 10884 H 1023.12 -3.20116 6.16888 0
M  V30 10885 H 1026.31 -2.40936 4.01332 0
M  V30 10886 H 1026.48 -3.11617 5.68154 0
M  V30 10887 N 1019.89 -1.26353 -0.941956 0
M  V30 10888 C 1021.17 -1.02601 -1.6653 0
M  V30 10889 C 1021.55 0.44381 -2.06382 0
M  V30 10890 O 1020.89 1.42399 -1.78703 0
M  V30 10891 C 1021.1 -1.97401 -2.87809 0
M  V30 10892 C 1022.45 -2.25967 -3.59478 0
M  V30 10893 O 1023.48 -1.95261 -2.97912 0
M  V30 10894 O 1022.34 -2.78244 -4.70364 0
M  V30 10895 H 1019.43 -0.39007 -0.729228 0
M  V30 10896 H 1021.98 -1.37559 -0.993754 0
M  V30 10897 H 1020.75 -2.9659 -2.55245 0
M  V30 10898 H 1020.37 -1.62918 -3.62689 0
M  V30 10899 N 1021.37 1.14642 -1.08144 0
M  V30 10900 C 1022.59 1.90025 -0.830972 0
M  V30 10901 C 1023.02 1.77904 0.610879 0
M  V30 10902 O 1022.38 1.11735 1.42776 0
M  V30 10903 C 1022.42 3.38085 -1.25422 0
M  V30 10904 O 1021.53 4.10412 -0.404486 0
M  V30 10905 H 1020.87 0.591327 -0.302041 0
M  V30 10906 H 1023.4 1.4513 -1.44216 0
M  V30 10907 H 1023.41 3.88894 -1.23391 0
M  V30 10908 H 1022.08 3.46226 -2.30435 0
M  V30 10909 H 1020.66 3.69693 -0.487987 0
M  V30 10910 N 1022.85 0.866709 1.31628 0
M  V30 10911 C 1024.09 0.476026 1.96825 0
M  V30 10912 C 1024.42 -0.970994 1.68529 0
M  V30 10913 O 1023.68 -1.69823 0.97255 0
M  V30 10914 C 1023.97 0.676018 3.50948 0
M  V30 10915 C 1023.64 2.09533 3.99258 0
M  V30 10916 C 1022.3 2.48349 4.1216 0
M  V30 10917 C 1024.65 3.02112 4.24709 0
M  V30 10918 C 1021.98 3.78991 4.47864 0
M  V30 10919 C 1024.33 4.32266 4.61875 0
M  V30 10920 C 1023 4.71 4.72985 0
M  V30 10921 H 1022.27 0.17419 0.720235 0
M  V30 10922 H 1024.92 1.09907 1.5682 0
M  V30 10923 H 1023.22 -0.0301867 3.91788 0
M  V30 10924 H 1024.92 0.353604 3.99438 0
M  V30 10925 H 1021.51 1.78396 3.89709 0
M  V30 10926 H 1025.69 2.73351 4.14238 0
M  V30 10927 H 1020.95 4.08769 4.54663 0
M  V30 10928 H 1025.12 5.04055 4.80522 0
M  V30 10929 H 1022.75 5.72273 5.00407 0
M  V30 10930 N 1024.32 -1.44642 0.625825 0
M  V30 10931 C 1025.25 -2.33397 -0.0692188 0
M  V30 10932 C 1026.23 -1.47898 -0.840241 0
M  V30 10933 O 1027.42 -1.7663 -0.807176 0
M  V30 10934 C 1024.55 -3.30888 -1.055 0
M  V30 10935 C 1023.5 -4.26164 -0.395968 0
M  V30 10936 C 1022.83 -5.13483 -1.49128 0
M  V30 10937 C 1024.13 -5.17663 0.694433 0
M  V30 10938 H 1025.82 -2.91763 0.671925 0
M  V30 10939 H 1023.37 -1.40294 0.324573 0
M  V30 10940 H 1025.32 -3.91861 -1.54993 0
M  V30 10941 H 1024.05 -2.7072 -1.82696 0
M  V30 10942 H 1022.71 -3.66516 0.0782691 0
M  V30 10943 H 1022.35 -4.49672 -2.25399 0
M  V30 10944 H 1022.05 -5.78038 -1.05573 0
M  V30 10945 H 1023.58 -5.77327 -1.98813 0
M  V30 10946 H 1024.99 -5.72602 0.282818 0
M  V30 10947 H 1023.39 -5.90793 1.05281 0
M  V30 10948 H 1024.46 -4.58994 1.56372 0
M  V30 10949 N 1025.8 -0.366053 -1.5329 0
M  V30 10950 C 1027.03 0.226839 -2.06156 0
M  V30 10951 C 1027.45 1.41637 -1.23776 0
M  V30 10952 O 1026.81 1.7947 -0.256948 0
M  V30 10953 C 1026.86 0.597956 -3.55608 0
M  V30 10954 O 1025.96 1.69512 -3.75951 0
M  V30 10955 H 1025.3 0.0329156 -0.663184 0
M  V30 10956 H 1027.83 -0.526793 -1.97702 0
M  V30 10957 H 1027.84 0.868831 -3.98642 0
M  V30 10958 H 1026.52 -0.271838 -4.15011 0
M  V30 10959 H 1025.09 1.41976 -3.44815 0
M  V30 10960 N 1027.28 1.57312 -0.0952337 0
M  V30 10961 C 1028.23 2.10571 0.87428 0
M  V30 10962 C 1029.21 1.02079 1.24374 0
M  V30 10963 O 1030.41 1.28353 1.2188 0
M  V30 10964 C 1027.53 2.68972 2.13329 0
M  V30 10965 C 1026.62 3.84508 1.78926 0
M  V30 10966 N 1027.01 4.92534 1.15082 0
M  V30 10967 C 1025.31 3.94245 2.08535 0
M  V30 10968 C 1026.01 5.73163 0.992937 0
M  V30 10969 N 1024.99 5.22198 1.51029 0
M  V30 10970 H 1028.79 2.91476 0.376727 0
M  V30 10971 H 1026.3 1.62041 0.107974 0
M  V30 10972 H 1028.3 3.05457 2.83728 0
M  V30 10973 H 1026.96 1.89523 2.6365 0
M  V30 10974 H 1027.97 5.11405 0.817621 0
M  V30 10975 H 1024.65 3.25805 2.61069 0
M  V30 10976 H 1026.04 6.70084 0.493641 0
M  V30 10977 N 1028.76 -0.17846 1.56586 0
M  V30 10978 C 1029.71 -1.22552 1.92263 0
M  V30 10979 C 1030.69 -1.40163 0.790131 0
M  V30 10980 O 1031.88 -1.42254 1.05322 0
M  V30 10981 C 1029.01 -2.5666 2.27993 0
M  V30 10982 C 1028.1 -2.42772 3.47739 0
M  V30 10983 N 1028.49 -1.98588 4.65185 0
M  V30 10984 C 1026.79 -2.73619 3.52205 0
M  V30 10985 C 1027.49 -1.96991 5.47329 0
M  V30 10986 N 1026.46 -2.39126 4.8818 0
M  V30 10987 H 1030.27 -0.875493 2.80557 0
M  V30 10988 H 1027.78 -0.386785 1.57727 0
M  V30 10989 H 1029.78 -3.32312 2.51743 0
M  V30 10990 H 1028.44 -2.92472 1.41034 0
M  V30 10991 H 1029.45 -1.69036 4.89538 0
M  V30 10992 H 1026.13 -3.13516 2.75706 0
M  V30 10993 H 1027.52 -1.64589 6.51429 0
M  V30 10994 N 1030.24 -1.51135 -0.446768 0
M  V30 10995 C 1031.65 -1.55919 -1.02694 0
M  V30 10996 C 1032 -0.377038 -1.92543 0
M  V30 10997 O 1031.12 0.507295 -2.1037 0
M  V30 10998 C 1031.72 -2.8257 -1.86922 0
M  V30 10999 C 1030.28 -2.89956 -2.40005 0
M  V30 11000 C 1029.42 -2.50482 -1.18971 0
M  V30 11001 H 1032.37 -1.57048 -0.228403 0
M  V30 11002 H 1032.4 -2.65799 -2.7227 0
M  V30 11003 H 1031.91 -3.6859 -1.21502 0
M  V30 11004 H 1030.01 -2.08343 -3.08907 0
M  V30 11005 H 1030.12 -3.93399 -2.73448 0
M  V30 11006 H 1028.49 -2.03466 -1.53211 0
M  V30 11007 H 1029.27 -3.38837 -0.551762 0
M  V30 11008 N 1031.71 0.701592 -1.41122 0
M  V30 11009 C 1032.62 1.84548 -1.44841 0
M  V30 11010 C 1033.64 1.70654 -0.339594 0
M  V30 11011 O 1034.82 1.92675 -0.586378 0
M  V30 11012 C 1031.88 3.20477 -1.3227 0
M  V30 11013 C 1030.94 3.46524 -2.53415 0
M  V30 11014 C 1030.17 4.75968 -2.41434 0
M  V30 11015 O 1030.4 5.52037 -1.43566 0
M  V30 11016 O 1029.33 5.02664 -3.31078 0
M  V30 11017 H 1033.16 1.84367 -2.41335 0
M  V30 11018 H 1030.74 0.853863 -1.22595 0
M  V30 11019 H 1032.62 4.01642 -1.2752 0
M  V30 11020 H 1031.3 3.21355 -0.388889 0
M  V30 11021 H 1030.21 2.65313 -2.63742 0
M  V30 11022 H 1031.54 3.50455 -3.45604 0
M  V30 11023 N 1033.19 1.2685 0.935242 0
M  V30 11024 C 1034.14 1.08923 2.03481 0
M  V30 11025 C 1035.11 -0.00749786 1.66098 0
M  V30 11026 O 1036.29 0.153401 1.90182 0
M  V30 11027 C 1033.43 0.734529 3.37192 0
M  V30 11028 C 1032.55 1.90812 3.87576 0
M  V30 11029 C 1031.68 1.49599 5.097 0
M  V30 11030 C 1030.72 2.63752 5.5236 0
M  V30 11031 N 1029.86 2.23179 6.65684 0
M  V30 11032 H 1034.7 2.03016 2.18148 0
M  V30 11033 H 1032.23 1.01072 1.06878 0
M  V30 11034 H 1034.19 0.509734 4.14074 0
M  V30 11035 H 1032.82 -0.169438 3.22355 0
M  V30 11036 H 1031.87 2.24567 3.0704 0
M  V30 11037 H 1033.19 2.7647 4.1517 0
M  V30 11038 H 1032.34 1.23199 5.9406 0
M  V30 11039 H 1031.08 0.61039 4.83865 0
M  V30 11040 H 1030.08 2.90874 4.66554 0
M  V30 11041 H 1031.31 3.5292 5.80193 0
M  V30 11042 H 1029.26 1.37061 6.41522 0
M  V30 11043 H 1029.17 3.02379 6.92895 0
M  V30 11044 H 1030.44 2.00007 7.53404 0
M  V30 11045 N 1034.67 -1.14067 1.0875 0
M  V30 11046 C 1036.08 -1.66747 0.839778 0
M  V30 11047 C 1036.43 -1.85711 -0.632909 0
M  V30 11048 O 1035.56 -1.57084 -1.48841 0
M  V30 11049 C 1036.15 -3.02896 1.51787 0
M  V30 11050 C 1034.71 -3.52596 1.3173 0
M  V30 11051 C 1033.86 -2.27994 1.57841 0
M  V30 11052 H 1036.81 -0.980838 1.24761 0
M  V30 11053 H 1036.83 -3.68526 0.947057 0
M  V30 11054 H 1036.34 -2.89062 2.58969 0
M  V30 11055 H 1034.44 -3.71647 0.266339 0
M  V30 11056 H 1034.56 -4.33151 2.04736 0
M  V30 11057 H 1032.92 -2.34241 1.00015 0
M  V30 11058 H 1033.7 -2.16732 2.66237 0
M  V30 11059 N 1036.15 -0.873678 -1.31166 0
M  V30 11060 C 1037.1 -0.330288 -2.28424 0
M  V30 11061 C 1038.07 0.573299 -1.55893 0
M  V30 11062 O 1039.25 0.504143 -1.84019 0
M  V30 11063 C 1036.39 0.459004 -3.42034 0
M  V30 11064 C 1035.5 -0.472519 -4.29408 0
M  V30 11065 C 1034.64 0.331261 -5.30166 0
M  V30 11066 C 1033.68 -0.596453 -6.09187 0
M  V30 11067 N 1032.81 0.171305 -7.01891 0
M  V30 11068 H 1037.65 -1.16485 -2.7429 0
M  V30 11069 H 1035.19 -0.585813 -1.34932 0
M  V30 11070 H 1037.15 0.932432 -4.06647 0
M  V30 11071 H 1035.78 1.25824 -2.97268 0
M  V30 11072 H 1034.83 -1.06441 -3.65205 0
M  V30 11073 H 1036.14 -1.18372 -4.84551 0
M  V30 11074 H 1035.3 0.867038 -6.00473 0
M  V30 11075 H 1034.04 1.07573 -4.75688 0
M  V30 11076 H 1033.04 -1.14395 -5.37767 0
M  V30 11077 H 1034.27 -1.33983 -6.65752 0
M  V30 11078 H 1032.21 0.89852 -6.49817 0
M  V30 11079 H 1032.13 -0.480481 -7.54472 0
M  V30 11080 H 1033.4 0.688192 -7.76456 0
M  V30 11081 N 1037.63 1.44308 -0.633487 0
M  V30 11082 C 1038.57 2.30694 0.0700257 0
M  V30 11083 C 1039.54 1.43618 0.834447 0
M  V30 11084 O 1040.73 1.72517 0.815014 0
M  V30 11085 C 1037.87 3.28929 1.04403 0
M  V30 11086 C 1036.98 4.31106 0.277779 0
M  V30 11087 C 1036.12 5.16433 1.24381 0
M  V30 11088 C 1035.16 6.10317 0.466855 0
M  V30 11089 N 1034.29 6.88335 1.38347 0
M  V30 11090 H 1039.13 2.90311 -0.672567 0
M  V30 11091 H 1036.67 1.43034 -0.343449 0
M  V30 11092 H 1038.63 3.84373 1.62214 0
M  V30 11093 H 1037.26 2.71006 1.75372 0
M  V30 11094 H 1036.31 3.78115 -0.416292 0
M  V30 11095 H 1037.62 4.97725 -0.327251 0
M  V30 11096 H 1036.78 5.76406 1.89318 0
M  V30 11097 H 1035.51 4.49893 1.88276 0
M  V30 11098 H 1034.52 5.49451 -0.195989 0
M  V30 11099 H 1035.74 6.78894 -0.167414 0
M  V30 11100 H 1033.69 6.24461 2.00959 0
M  V30 11101 H 1033.61 7.51402 0.832517 0
M  V30 11102 H 1034.88 7.52829 2.0216 0
M  V30 11103 N 1039.1 0.374177 1.53094 0
M  V30 11104 C 1040.01 -0.475935 2.29722 0
M  V30 11105 C 1041.03 -1.085 1.36029 0
M  V30 11106 O 1042.21 -1.09408 1.69091 0
M  V30 11107 C 1039.27 -1.59572 3.07795 0
M  V30 11108 C 1038.33 -1.01332 4.17169 0
M  V30 11109 C 1037.57 -2.07975 4.9151 0
M  V30 11110 O 1037.79 -3.29232 4.65793 0
M  V30 11111 O 1036.72 -1.7055 5.77232 0
M  V30 11112 H 1040.55 0.147877 3.0334 0
M  V30 11113 H 1038.13 0.138312 1.48758 0
M  V30 11114 H 1040.02 -2.24658 3.5652 0
M  V30 11115 H 1038.69 -2.20478 2.37005 0
M  V30 11116 H 1037.6 -0.326133 3.72676 0
M  V30 11117 H 1038.93 -0.4487 4.90151 0
M  V30 11118 N 1040.58 -1.57259 0.103575 0
M  V30 11119 C 1041.51 -2.17509 -0.84923 0
M  V30 11120 C 1042.49 -1.11079 -1.28824 0
M  V30 11121 O 1043.68 -1.39252 -1.35361 0
M  V30 11122 C 1040.81 -2.76221 -2.10522 0
M  V30 11123 C 1039.76 -3.88098 -1.80454 0
M  V30 11124 C 1039.09 -4.33549 -3.12952 0
M  V30 11125 C 1040.39 -5.10909 -1.08486 0
M  V30 11126 H 1042.08 -2.9738 -0.347217 0
M  V30 11127 H 1039.63 -1.43045 -0.165568 0
M  V30 11128 H 1041.58 -3.17024 -2.77621 0
M  V30 11129 H 1040.31 -1.93617 -2.63021 0
M  V30 11130 H 1038.96 -3.47847 -1.15749 0
M  V30 11131 H 1038.61 -3.47825 -3.63355 0
M  V30 11132 H 1038.31 -5.08984 -2.93614 0
M  V30 11133 H 1039.84 -4.76992 -3.81196 0
M  V30 11134 H 1041.25 -5.48828 -1.65711 0
M  V30 11135 H 1039.65 -5.91828 -0.992973 0
M  V30 11136 H 1040.72 -4.84851 -0.0690108 0
M  V30 11137 N 1042.06 0.170153 -1.56679 0
M  V30 11138 C 1043.34 0.913938 -1.72935 0
M  V30 11139 C 1043.72 2.00342 -0.665293 0
M  V30 11140 O 1043.07 2.26252 0.319715 0
M  V30 11141 C 1043.28 1.47761 -3.16177 0
M  V30 11142 C 1044.62 1.95007 -3.7717 0
M  V30 11143 O 1045.65 1.57552 -3.19462 0
M  V30 11144 O 1044.51 2.64007 -4.78501 0
M  V30 11145 H 1041.6 0.43027 -0.706256 0
M  V30 11146 H 1044.15 0.157891 -1.68964 0
M  V30 11147 H 1042.92 0.69352 -3.85105 0
M  V30 11148 H 1042.54 2.2978 -3.24479 0
M  V30 11149 N 1043.54 1.5137 0.438746 0
M  V30 11150 C 1044.79 1.63202 1.18524 0
M  V30 11151 C 1045.1 0.353408 1.92381 0
M  V30 11152 O 1046.31 0.351086 2.6922 0
M  V30 11153 C 1044.76 2.88218 2.15542 0
M  V30 11154 C 1044.37 4.23078 1.47339 0
M  V30 11155 C 1046.11 3.09407 2.90633 0
M  V30 11156 C 1044.02 5.39246 2.42833 0
M  V30 11157 H 1042.95 0.607864 0.446114 0
M  V30 11158 H 1045.6 1.77835 0.452421 0
M  V30 11159 H 1043.98 2.67216 2.92253 0
M  V30 11160 H 1045.16 4.54457 0.761964 0
M  V30 11161 H 1043.47 4.07755 0.844065 0
M  V30 11162 H 1046.07 3.9337 3.62165 0
M  V30 11163 H 1046.41 2.22428 3.51897 0
M  V30 11164 H 1046.95 3.30743 2.21029 0
M  V30 11165 H 1043.69 6.2848 1.8626 0
M  V30 11166 H 1043.21 5.12245 3.12034 0
M  V30 11167 H 1044.88 5.71137 3.03992 0
M  V30 11168 N 1045.02 -0.694098 1.41492 0
M  V30 11169 C 1046.26 -1.45415 1.40929 0
M  V30 11170 C 1046.59 -1.94491 0.0189301 0
M  V30 11171 O 1045.85 -1.7 -0.96945 0
M  V30 11172 C 1046.15 -2.6805 2.36398 0
M  V30 11173 C 1045.81 -2.37623 3.83205 0
M  V30 11174 C 1044.47 -2.29035 4.23198 0
M  V30 11175 C 1046.83 -2.12555 4.75888 0
M  V30 11176 C 1044.15 -1.93478 5.5388 0
M  V30 11177 C 1046.51 -1.78506 6.06892 0
M  V30 11178 C 1045.17 -1.68415 6.45905 0
M  V30 11179 H 1044.44 -0.53211 0.515694 0
M  V30 11180 H 1047.09 -0.793193 1.74301 0
M  V30 11181 H 1045.39 -3.39086 1.96285 0
M  V30 11182 H 1047.09 -3.26194 2.33234 0
M  V30 11183 H 1043.68 -2.45202 3.51531 0
M  V30 11184 H 1047.86 -2.18133 4.45793 0
M  V30 11185 H 1043.12 -1.84219 5.82986 0
M  V30 11186 H 1047.29 -1.58128 6.7821 0
M  V30 11187 H 1044.92 -1.40631 7.47079 0
M  V30 11188 N 1046.49 -1.27344 -0.928501 0
M  V30 11189 C 1047.74 -1.13411 -1.67279 0
M  V30 11190 C 1048.06 0.320698 -1.92345 0
M  V30 11191 O 1047.33 1.2245 -1.52915 0
M  V30 11192 H 1045.91 -0.416712 -0.619968 0
M  V30 11193 H 1048.58 -1.5986 -1.11493 0
M  V30 11194 H 1047.67 -1.66256 -2.64131 0
M  V30 11195 N 1047.97 1.13488 -1.09353 0
M  V30 11196 C 1048.9 2.20988 -0.75409 0
M  V30 11197 C 1049.88 1.67977 0.267901 0
M  V30 11198 O 1051.07 1.93722 0.136128 0
M  V30 11199 C 1048.2 3.46869 -0.173042 0
M  V30 11200 C 1047.15 4.12965 -1.12446 0
M  V30 11201 C 1046.48 5.33163 -0.405157 0
M  V30 11202 C 1047.78 4.60388 -2.46658 0
M  V30 11203 H 1049.47 2.49639 -1.6529 0
M  V30 11204 H 1047.02 1.19987 -0.796182 0
M  V30 11205 H 1048.97 4.21331 0.0764988 0
M  V30 11206 H 1047.7 3.17611 0.760956 0
M  V30 11207 H 1046.35 3.40469 -1.35927 0
M  V30 11208 H 1046 5.00169 0.532955 0
M  V30 11209 H 1045.7 5.78332 -1.03952 0
M  V30 11210 H 1047.23 6.1038 -0.163899 0
M  V30 11211 H 1048.64 5.26276 -2.27389 0
M  V30 11212 H 1047.04 5.16294 -3.05876 0
M  V30 11213 H 1048.11 3.74949 -3.07476 0
M  V30 11214 N 1049.45 0.880621 1.30701 0
M  V30 11215 C 1050.4 0.333562 2.30196 0
M  V30 11216 C 1051.39 -0.557092 1.59978 0
M  V30 11217 O 1052.6 -0.442009 1.74489 0
M  V30 11218 H 1048.97 0.0892036 0.746691 0
M  V30 11219 H 1050.95 1.18644 2.73799 0
M  V30 11220 C 1049.69 -0.440731 3.44895 0
M  V30 11221 H 1049.02 0.235353 3.99107 0
M  V30 11222 H 1050.46 -0.788676 4.166 0
M  V30 11223 C 1048.92 -1.63613 2.94504 0
M  V30 11224 O 1049.45 -2.73549 2.94166 0
M  V30 11225 N 1047.65 -1.47183 2.5057 0
M  V30 11226 H 1047.2 -0.577479 2.51044 0
M  V30 11227 H 1047.16 -2.27303 2.17211 0
M  V30 11228 N 1050.93 -1.4397 0.641131 0
M  V30 11229 C 1052.34 -1.85267 0.230838 0
M  V30 11230 C 1052.69 -1.53659 -1.21998 0
M  V30 11231 O 1051.82 -0.979572 -1.92959 0
M  V30 11232 C 1052.41 -3.36284 0.412171 0
M  V30 11233 C 1050.97 -3.76358 0.0563004 0
M  V30 11234 C 1050.12 -2.67768 0.720809 0
M  V30 11235 H 1053.07 -1.34294 0.845624 0
M  V30 11236 H 1053.09 -3.78924 -0.345936 0
M  V30 11237 H 1052.6 -3.59258 1.46818 0
M  V30 11238 H 1050.7 -3.58997 -0.997582 0
M  V30 11239 H 1050.82 -4.76756 0.473335 0
M  V30 11240 H 1049.18 -2.54227 0.155164 0
M  V30 11241 H 1049.96 -2.93573 1.77961 0
M  V30 11242 N 1052.41 -0.382291 -1.52893 0
M  V30 11243 C 1053.37 0.44408 -2.24857 0
M  V30 11244 C 1054.37 0.996004 -1.26239 0
M  V30 11245 O 1055.56 0.879114 -1.5039 0
M  V30 11246 C 1052.69 1.62234 -2.99822 0
M  V30 11247 H 1053.89 -0.185862 -2.99324 0
M  V30 11248 H 1051.44 -0.134275 -1.55722 0
M  V30 11249 H 1052.17 2.28991 -2.29638 0
M  V30 11250 H 1051.96 1.23336 -3.72197 0
M  V30 11251 H 1053.45 2.20756 -3.54481 0
M  V30 11252 N 1053.89 1.57202 -0.111913 0
M  V30 11253 C 1055.16 1.86459 0.590972 0
M  V30 11254 C 1055.54 1.01182 1.85271 0
M  V30 11255 O 1054.89 0.0887891 2.28327 0
M  V30 11256 C 1055.1 3.37455 0.890225 0
M  V30 11257 C 1056.45 4.05895 1.24638 0
M  V30 11258 O 1057.47 3.42433 0.980713 0
M  V30 11259 O 1056.33 5.17903 1.74466 0
M  V30 11260 H 1053.43 0.771652 0.297459 0
M  V30 11261 H 1055.97 1.69072 -0.145882 0
M  V30 11262 H 1054.74 3.913 -0.00419012 0
M  V30 11263 H 1054.37 3.60248 1.68248 0
M  V30 11264 N 1055.36 -0.161842 1.56767 0
M  V30 11265 C 1056.27 -1.21996 2.00385 0
M  V30 11266 C 1057.29 -1.4789 0.916768 0
M  V30 11267 O 1058.47 -1.59852 1.22513 0
M  V30 11268 C 1055.53 -2.53695 2.36305 0
M  V30 11269 C 1054.59 -2.3558 3.58888 0
M  V30 11270 C 1053.82 -3.60998 3.93085 0
M  V30 11271 O 1054.05 -4.6657 3.28129 0
M  V30 11272 O 1052.98 -3.54544 4.86397 0
M  V30 11273 H 1056.81 -0.879701 2.9068 0
M  V30 11274 H 1054.39 -0.369437 1.4476 0
M  V30 11275 H 1056.27 -3.31366 2.60335 0
M  V30 11276 H 1054.95 -2.87281 1.49169 0
M  V30 11277 H 1053.86 -1.55908 3.40064 0
M  V30 11278 H 1055.19 -2.06915 4.46595 0
M  V30 11279 N 1056.84 -1.516 -0.430713 0
M  V30 11280 C 1058.07 -1.687 -1.20644 0
M  V30 11281 C 1058.49 -0.386555 -1.84085 0
M  V30 11282 O 1057.85 0.653952 -1.69095 0
M  V30 11283 C 1057.9 -2.80887 -2.2613 0
M  V30 11284 O 1057 -2.44952 -3.31772 0
M  V30 11285 H 1056.34 -0.562289 -0.353167 0
M  V30 11286 H 1058.87 -1.98198 -0.507807 0
M  V30 11287 H 1058.88 -3.05167 -2.70809 0
M  V30 11288 H 1057.56 -3.75249 -1.79334 0
M  V30 11289 H 1056.13 -2.31267 -2.92523 0
M  V30 11290 N 1058.32 0.686584 -1.41858 0
M  V30 11291 C 1059.55 1.47519 -1.45072 0
M  V30 11292 C 1059.96 1.88709 -0.0585868 0
M  V30 11293 O 1059.32 1.57373 0.924116 0
M  V30 11294 C 1059.37 2.73195 -2.36742 0
M  V30 11295 O 1059.09 2.33736 -3.70539 0
M  V30 11296 C 1060.59 3.66861 -2.48854 0
M  V30 11297 H 1057.81 0.454307 -0.493808 0
M  V30 11298 H 1060.36 0.844612 -1.86243 0
M  V30 11299 H 1058.51 3.32468 -1.98856 0
M  V30 11300 H 1058.93 3.14809 -4.19518 0
M  V30 11301 H 1060.4 4.51801 -3.17143 0
M  V30 11302 H 1060.88 4.11961 -1.52265 0
M  V30 11303 H 1061.48 3.13486 -2.87414 0
M  V30 11304 N 1059.8 1.27835 0.921735 0
M  V30 11305 C 1061.21 1.05369 1.19873 0
M  V30 11306 C 1061.41 -0.208997 2.00413 0
M  V30 11307 O 1060.47 -0.912861 2.35421 0
M  V30 11308 C 1061.78 2.29658 1.94108 0
M  V30 11309 C 1063.33 2.34756 2.07023 0
M  V30 11310 C 1063.81 3.5879 2.84664 0
M  V30 11311 N 1065.3 3.59383 2.9223 0
M  V30 11312 C 1066.03 4.52029 3.52785 0
M  V30 11313 N 1065.53 5.54986 4.14683 0
M  V30 11314 N 1067.32 4.39641 3.50246 0
M  V30 11315 H 1059.47 2.08903 0.383819 0
M  V30 11316 H 1061.73 0.919065 0.232429 0
M  V30 11317 H 1061.44 3.21604 1.4235 0
M  V30 11318 H 1061.31 2.35444 2.94696 0
M  V30 11319 H 1063.7 1.43312 2.57965 0
M  V30 11320 H 1063.78 2.32969 1.05636 0
M  V30 11321 H 1063.43 4.50574 2.34404 0
M  V30 11322 H 1063.36 3.57829 3.86349 0
M  V30 11323 H 1065.85 2.84927 2.48244 0
M  V30 11324 H 1066.16 6.21837 4.58845 0
M  V30 11325 H 1064.51 5.58822 4.13211 0
M  V30 11326 H 1067.7 3.58413 3.01094 0
M  V30 11327 H 1067.87 5.12033 3.97148 0
M  V30 11328 N 1061.28 -1.12907 1.09954 0
M  V30 11329 C 1062.5 -1.88679 0.861099 0
M  V30 11330 C 1062.93 -1.78853 -0.582499 0
M  V30 11331 O 1062.28 -1.13992 -1.4098 0
M  V30 11332 C 1062.33 -3.36047 1.30785 0
M  V30 11333 O 1061.44 -4.09716 0.469728 0
M  V30 11334 H 1060.78 -0.586447 0.31141 0
M  V30 11335 H 1063.31 -1.42818 1.46507 0
M  V30 11336 H 1063.32 -3.86882 1.29562 0
M  V30 11337 H 1061.99 -3.42516 2.35914 0
M  V30 11338 H 1060.57 -3.6887 0.54674 0
M  V30 11339 N 1062.75 -0.88754 -1.30232 0
M  V30 11340 C 1063.98 -0.521549 -1.99909 0
M  V30 11341 C 1064.39 0.895086 -1.66688 0
M  V30 11342 O 1063.73 1.60053 -0.90159 0
M  V30 11343 C 1063.8 -0.619564 -3.54121 0
M  V30 11344 C 1063.46 -2.00097 -4.10865 0
M  V30 11345 C 1064.46 -2.97068 -4.26669 0
M  V30 11346 C 1062.14 -2.30706 -4.46184 0
M  V30 11347 C 1064.14 -4.2278 -4.77007 0
M  V30 11348 C 1061.82 -3.56663 -4.96221 0
M  V30 11349 C 1062.82 -4.52515 -5.11585 0
M  V30 11350 O 1062.51 -5.76237 -5.60541 0
M  V30 11351 H 1062.24 -0.199904 -0.645766 0
M  V30 11352 H 1064.8 -1.19546 -1.67027 0
M  V30 11353 H 1063.03 0.111334 -3.8654 0
M  V30 11354 H 1064.71 -0.26448 -4.05037 0
M  V30 11355 H 1065.48 -2.74734 -3.99683 0
M  V30 11356 H 1061.36 -1.56865 -4.33491 0
M  V30 11357 H 1064.9 -4.97603 -4.88914 0
M  V30 11358 H 1060.8 -3.78834 -5.22643 0
M  V30 11359 H 1061.57 -5.78655 -5.78879 0
M  V30 11360 N 1064.23 1.43628 -0.648757 0
M  V30 11361 C 1065.48 2.02163 -0.160574 0
M  V30 11362 C 1065.81 1.51037 1.22072 0
M  V30 11363 O 1065.09 0.701633 1.81404 0
M  V30 11364 C 1065.37 3.59715 -0.166528 0
M  V30 11365 C 1065.22 4.21083 -1.58142 0
M  V30 11366 C 1066.54 4.37256 0.499485 0
M  V30 11367 H 1063.66 0.734568 -0.0598238 0
M  V30 11368 H 1066.3 1.70981 -0.828592 0
M  V30 11369 H 1064.45 3.86411 0.402302 0
M  V30 11370 H 1066.12 4.05433 -2.2005 0
M  V30 11371 H 1064.37 3.77904 -2.13005 0
M  V30 11372 H 1065.04 5.30156 -1.53748 0
M  V30 11373 H 1067.51 4.16097 0.0155561 0
M  V30 11374 H 1066.39 5.4693 0.464574 0
M  V30 11375 H 1066.65 4.13175 1.57286 0
M  V30 11376 N 1065.71 0.390394 1.52688 0
M  V30 11377 C 1066.96 -0.192697 2.00777 0
M  V30 11378 C 1067.27 -1.4781 1.28108 0
M  V30 11379 O 1068.48 -2.1413 1.66914 0
M  V30 11380 C 1066.93 -0.393955 3.57737 0
M  V30 11381 C 1066.54 0.878259 4.39307 0
M  V30 11382 C 1068.29 -0.933352 4.14112 0
M  V30 11383 C 1066.19 0.645218 5.8787 0
M  V30 11384 H 1065.12 -0.0757862 0.750182 0
M  V30 11385 H 1067.77 0.512961 1.76184 0
M  V30 11386 H 1066.16 -1.16149 3.78583 0
M  V30 11387 H 1067.33 1.65049 4.30227 0
M  V30 11388 H 1065.65 1.34269 3.94158 0
M  V30 11389 H 1068.24 -1.12343 5.22765 0
M  V30 11390 H 1068.59 -1.90272 3.70273 0
M  V30 11391 H 1069.12 -0.225361 3.97161 0
M  V30 11392 H 1065.86 1.58562 6.36033 0
M  V30 11393 H 1065.38 -0.0880609 5.99735 0
M  V30 11394 H 1067.06 0.280178 6.46393 0
M  V30 11395 N 1067.19 -1.57141 0.120249 0
M  V30 11396 C 1068.12 -2.18398 -0.826112 0
M  V30 11397 C 1069.1 -1.12439 -1.27638 0
M  V30 11398 O 1070.28 -1.40679 -1.33877 0
M  V30 11399 C 1067.41 -2.78438 -2.0758 0
M  V30 11400 C 1066.37 -3.89991 -1.76327 0
M  V30 11401 C 1065.69 -4.36844 -3.08336 0
M  V30 11402 C 1066.99 -5.12031 -1.03062 0
M  V30 11403 H 1068.69 -2.97731 -0.315656 0
M  V30 11404 H 1066.23 -1.43213 -0.150387 0
M  V30 11405 H 1068.19 -3.19951 -2.74243 0
M  V30 11406 H 1066.91 -1.96396 -2.60953 0
M  V30 11407 H 1065.57 -3.49055 -1.12053 0
M  V30 11408 H 1065.22 -3.51659 -3.59646 0
M  V30 11409 H 1064.92 -5.1207 -2.88199 0
M  V30 11410 H 1066.44 -4.81009 -3.76116 0
M  V30 11411 H 1067.86 -5.50555 -1.59881 0
M  V30 11412 H 1066.25 -5.92848 -0.930146 0
M  V30 11413 H 1067.32 -4.84897 -0.017582 0
M  V30 11414 N 1068.67 0.153526 -1.5685 0
M  V30 11415 C 1069.89 0.886343 -1.87507 0
M  V30 11416 C 1070.32 1.74244 -0.708565 0
M  V30 11417 O 1069.67 1.78045 0.341997 0
M  V30 11418 C 1069.72 1.72428 -3.16703 0
M  V30 11419 O 1068.83 2.82784 -3.00178 0
M  V30 11420 H 1068.17 0.247259 -0.616246 0
M  V30 11421 H 1070.7 0.146306 -2.04076 0
M  V30 11422 H 1070.71 2.12062 -3.4856 0
M  V30 11423 H 1069.38 1.09558 -4.01211 0
M  V30 11424 H 1067.96 2.46604 -2.79716 0
M  V30 11425 N 1070.14 1.51827 0.422667 0
M  V30 11426 C 1071.39 1.6522 1.17084 0
M  V30 11427 C 1071.72 0.375508 1.90841 0
M  V30 11428 O 1070.97 -0.641029 1.84903 0
M  V30 11429 C 1071.27 2.81572 2.20119 0
M  V30 11430 C 1070.94 4.20303 1.63268 0
M  V30 11431 C 1069.6 4.5804 1.47488 0
M  V30 11432 C 1071.95 5.06812 1.21618 0
M  V30 11433 C 1069.28 5.79979 0.885531 0
M  V30 11434 C 1071.63 6.29343 0.641071 0
M  V30 11435 C 1070.3 6.65841 0.470286 0
M  V30 11436 H 1069.57 0.604581 0.428442 0
M  V30 11437 H 1072.21 1.85896 0.459874 0
M  V30 11438 H 1070.52 2.55175 2.97309 0
M  V30 11439 H 1072.22 2.89132 2.77856 0
M  V30 11440 H 1068.81 3.90557 1.76531 0
M  V30 11441 H 1072.99 4.78251 1.32624 0
M  V30 11442 H 1068.25 6.06892 0.741105 0
M  V30 11443 H 1072.42 6.9571 0.309888 0
M  V30 11444 H 1070.05 7.60199 0.0115038 0
M  V30 11445 N 1071.62 -0.679052 1.4222 0
M  V30 11446 C 1072.53 -1.82221 1.47759 0
M  V30 11447 C 1073.55 -1.70092 0.3667 0
M  V30 11448 O 1074.72 -1.91718 0.616957 0
M  V30 11449 C 1071.79 -3.18332 1.37351 0
M  V30 11450 C 1070.85 -3.42449 2.58896 0
M  V30 11451 C 1070.08 -4.72067 2.48976 0
M  V30 11452 O 1070.31 -5.49683 1.5233 0
M  V30 11453 O 1069.24 -4.97333 3.39033 0
M  V30 11454 H 1073.07 -1.80504 2.44238 0
M  V30 11455 H 1070.65 -0.834251 1.23938 0
M  V30 11456 H 1072.53 -3.99563 1.33893 0
M  V30 11457 H 1071.21 -3.20696 0.439965 0
M  V30 11458 H 1070.12 -2.61083 2.6793 0
M  V30 11459 H 1071.45 -3.44912 3.51136 0
M  V30 11460 N 1073.1 -1.28322 -0.914942 0
M  V30 11461 C 1074.05 -1.12003 -2.03858 0
M  V30 11462 C 1075.04 -0.0396287 -1.69354 0
M  V30 11463 O 1076.25 -0.198309 -1.78904 0
M  V30 11464 H 1072.62 -0.34552 -0.667922 0
M  V30 11465 H 1074.59 -2.07168 -2.14765 0
M  V30 11466 C 1073.34 -0.797402 -3.38433 0
M  V30 11467 H 1072.67 -1.62071 -3.65476 0
M  V30 11468 H 1074.11 -0.723165 -4.17787 0
M  V30 11469 C 1072.57 0.498807 -3.33187 0
M  V30 11470 O 1073.1 1.52946 -3.71444 0
M  V30 11471 N 1071.3 0.499101 -2.86282 0
M  V30 11472 H 1070.85 -0.340056 -2.55346 0
M  V30 11473 H 1070.81 1.36641 -2.83155 0
M  V30 11474 N 1074.58 1.12322 -1.10551 0
M  V30 11475 C 1075.53 2.20166 -0.750317 0
M  V30 11476 C 1076.52 1.67484 0.254066 0
M  V30 11477 O 1077.73 1.79637 0.114309 0
M  V30 11478 H 1074.1 0.717642 -0.22471 0
M  V30 11479 H 1076.07 2.47378 -1.66873 0
M  V30 11480 C 1074.82 3.47126 -0.199651 0
M  V30 11481 H 1074.14 3.88011 -0.963735 0
M  V30 11482 H 1075.58 4.23999 0.0108033 0
M  V30 11483 C 1074.04 3.19526 1.06792 0
M  V30 11484 O 1074.57 3.39368 2.14923 0
M  V30 11485 N 1072.78 2.73324 0.987032 0
M  V30 11486 H 1072.33 2.57378 0.106997 0
M  V30 11487 H 1072.28 2.55234 1.83584 0
M  V30 11488 N 1076.06 0.894434 1.2976 0
M  V30 11489 C 1077.3 0.516646 1.95385 0
M  V30 11490 C 1077.63 -0.939141 1.70895 0
M  V30 11491 O 1076.9 -1.66153 1.03778 0
M  V30 11492 H 1075.48 0.188072 0.722937 0
M  V30 11493 H 1078.14 1.13958 1.58113 0
M  V30 11494 H 1077.23 0.694819 3.04267 0
M  V30 11495 N 1077.53 -1.43282 0.656365 0
M  V30 11496 C 1078.81 -1.9534 0.100816 0
M  V30 11497 C 1079.19 -1.59755 -1.37992 0
M  V30 11498 O 1078.54 -0.884264 -2.10697 0
M  V30 11499 C 1078.75 -3.47237 0.35038 0
M  V30 11500 C 1080.1 -4.23822 0.257001 0
M  V30 11501 O 1081.12 -3.55073 0.283111 0
M  V30 11502 O 1079.98 -5.46192 0.183397 0
M  V30 11503 H 1077.07 -0.826963 -0.00780287 0
M  V30 11504 H 1079.62 -1.53205 0.72982 0
M  V30 11505 H 1078.39 -3.66276 1.37685 0
M  V30 11506 H 1078.02 -3.96378 -0.311539 0
M  V30 11507 N 1079.01 -0.398486 -1.52479 0
M  V30 11508 C 1080.24 0.180295 -2.05812 0
M  V30 11509 C 1080.65 1.40301 -1.26934 0
M  V30 11510 O 1079.99 1.81039 -0.311544 0
M  V30 11511 C 1080.06 0.60601 -3.54355 0
M  V30 11512 C 1079.72 -0.504508 -4.54207 0
M  V30 11513 C 1080.72 -1.36478 -5.01667 0
M  V30 11514 C 1078.4 -0.674161 -4.97755 0
M  V30 11515 C 1080.4 -2.37975 -5.91309 0
M  V30 11516 C 1078.08 -1.69246 -5.87196 0
M  V30 11517 C 1079.08 -2.54367 -6.33866 0
M  V30 11518 O 1078.77 -3.54454 -7.21538 0
M  V30 11519 H 1078.5 0.0286396 -0.675393 0
M  V30 11520 H 1081.06 -0.564912 -1.97479 0
M  V30 11521 H 1079.29 1.40334 -3.60338 0
M  V30 11522 H 1080.97 1.1115 -3.90385 0
M  V30 11523 H 1081.74 -1.24506 -4.68746 0
M  V30 11524 H 1077.62 -0.0213029 -4.60995 0
M  V30 11525 H 1081.16 -3.0445 -6.27659 0
M  V30 11526 H 1077.06 -1.81252 -6.1953 0
M  V30 11527 H 1077.83 -3.50571 -7.39623 0
M  V30 11528 N 1080.49 1.57075 -0.12858 0
M  V30 11529 C 1081.42 2.11553 0.855593 0
M  V30 11530 C 1082.4 1.03435 1.25459 0
M  V30 11531 O 1083.59 1.3115 1.35395 0
M  V30 11532 C 1080.71 2.62012 2.14633 0
M  V30 11533 C 1079.76 3.82105 1.89467 0
M  V30 11534 S 1080.59 5.24033 1.10228 0
M  V30 11535 C 1081.75 5.77867 2.4046 0
M  V30 11536 H 1081.98 2.94701 0.392248 0
M  V30 11537 H 1079.51 1.54164 0.0853746 0
M  V30 11538 H 1081.47 2.91737 2.8879 0
M  V30 11539 H 1080.13 1.79029 2.58084 0
M  V30 11540 H 1079.33 4.15592 2.8513 0
M  V30 11541 H 1078.93 3.53047 1.23427 0
M  V30 11542 H 1081.22 5.88175 3.36238 0
M  V30 11543 H 1082.16 6.75775 2.11504 0
M  V30 11544 H 1082.57 5.05991 2.50266 0
M  V30 11545 N 1081.97 -0.145205 1.5693 0
M  V30 11546 C 1083.25 -0.88631 1.74367 0
M  V30 11547 C 1083.63 -1.99259 0.697081 0
M  V30 11548 O 1082.97 -2.26732 -0.28368 0
M  V30 11549 C 1083.18 -1.42712 3.18488 0
M  V30 11550 C 1084.53 -1.88982 3.80225 0
M  V30 11551 O 1085.56 -1.5245 3.21928 0
M  V30 11552 O 1084.42 -2.56361 4.8264 0
M  V30 11553 H 1081.51 -0.418979 0.713011 0
M  V30 11554 H 1084.06 -0.130991 1.69194 0
M  V30 11555 H 1082.83 -0.632165 3.8616 0
M  V30 11556 H 1082.45 -2.24589 3.28094 0
M  V30 11557 N 1083.45 -1.52049 -0.414609 0
M  V30 11558 C 1084.38 -1.69712 -1.52555 0
M  V30 11559 C 1085.36 -0.544681 -1.53206 0
M  V30 11560 O 1086.54 -0.771358 -1.71995 0
M  V30 11561 C 1083.67 -1.73145 -2.91099 0
M  V30 11562 C 1082.72 -2.94624 -3.08382 0
M  V30 11563 S 1083.55 -4.55062 -2.82274 0
M  V30 11564 C 1084.7 -4.61274 -4.23057 0
M  V30 11565 H 1084.94 -2.63675 -1.37342 0
M  V30 11566 H 1082.47 -1.42018 -0.605824 0
M  V30 11567 H 1084.43 -1.75808 -3.70947 0
M  V30 11568 H 1083.09 -0.803198 -3.03657 0
M  V30 11569 H 1082.28 -2.93492 -4.0973 0
M  V30 11570 H 1081.88 -2.8982 -2.36391 0
M  V30 11571 H 1084.18 -4.38313 -5.16612 0
M  V30 11572 H 1085.12 -5.63188 -4.29214 0
M  V30 11573 H 1085.53 -3.90361 -4.07773 0
M  V30 11574 N 1084.93 0.6715 -1.42579 0
M  V30 11575 C 1085.87 1.78496 -1.46314 0
M  V30 11576 C 1086.84 1.63091 -0.314743 0
M  V30 11577 O 1088.03 1.83597 -0.519292 0
M  V30 11578 C 1085.17 3.16548 -1.37447 0
M  V30 11579 C 1084.28 3.43216 -2.62348 0
M  V30 11580 C 1083.42 4.71014 -2.456 0
M  V30 11581 C 1082.45 4.90728 -3.65859 0
M  V30 11582 N 1081.59 6.09769 -3.48032 0
M  V30 11583 H 1086.43 1.74638 -2.41466 0
M  V30 11584 H 1083.97 0.852491 -1.19879 0
M  V30 11585 H 1085.93 3.96329 -1.30303 0
M  V30 11586 H 1084.56 3.19522 -0.458891 0
M  V30 11587 H 1083.61 2.57664 -2.79846 0
M  V30 11588 H 1084.92 3.53675 -3.51732 0
M  V30 11589 H 1084.07 5.58892 -2.3606 0
M  V30 11590 H 1082.81 4.62843 -1.53712 0
M  V30 11591 H 1081.82 4.01291 -3.75827 0
M  V30 11592 H 1083.04 5.00741 -4.58732 0
M  V30 11593 H 1080.99 6.02765 -2.58864 0
M  V30 11594 H 1080.91 6.21104 -4.31005 0
M  V30 11595 H 1082.17 7.00317 -3.42311 0
M  V30 11596 N 1086.4 1.28806 0.908124 0
M  V30 11597 C 1087.34 1.09018 2.01613 0
M  V30 11598 C 1088.35 0.0402059 1.6275 0
M  V30 11599 O 1089.54 0.283853 1.76229 0
M  V30 11600 C 1086.64 0.635712 3.32884 0
M  V30 11601 C 1085.81 1.76235 4.00325 0
M  V30 11602 C 1084.87 1.3003 5.09881 0
M  V30 11603 O 1083.9 2.00354 5.32773 0
M  V30 11604 N 1085.1 0.166575 5.80261 0
M  V30 11605 H 1087.86 2.0444 2.19144 0
M  V30 11606 H 1085.42 1.20633 1.07978 0
M  V30 11607 H 1087.42 0.310097 4.0351 0
M  V30 11608 H 1085.99 -0.225816 3.11783 0
M  V30 11609 H 1085.21 2.25727 3.23173 0
M  V30 11610 H 1086.49 2.51796 4.42127 0
M  V30 11611 H 1085.89 -0.419934 5.64139 0
M  V30 11612 H 1084.45 -0.0997281 6.51724 0
M  V30 11613 N 1087.88 -1.11734 1.11145 0
M  V30 11614 C 1088.84 -2.15868 0.770303 0
M  V30 11615 C 1089.84 -1.59438 -0.208842 0
M  V30 11616 O 1091.03 -1.74193 0.0152516 0
M  V30 11617 C 1088.17 -3.40603 0.142303 0
M  V30 11618 H 1089.36 -2.4756 1.69276 0
M  V30 11619 H 1086.91 -1.26867 0.912929 0
M  V30 11620 H 1087.65 -3.14517 -0.790526 0
M  V30 11621 H 1087.43 -3.8284 0.847087 0
M  V30 11622 H 1088.92 -4.17523 -0.0803608 0
M  V30 11623 N 1089.36 -0.901303 -1.29284 0
M  V30 11624 C 1090.64 -0.44747 -1.90413 0
M  V30 11625 C 1091.02 1.07298 -1.81797 0
M  V30 11626 O 1090.36 1.91555 -1.24574 0
M  V30 11627 C 1090.57 -0.963849 -3.35427 0
M  V30 11628 C 1091.92 -1.00851 -4.12449 0
M  V30 11629 O 1092.95 -0.91163 -3.44337 0
M  V30 11630 O 1091.81 -1.15426 -5.34171 0
M  V30 11631 H 1088.9 -0.13976 -0.815105 0
M  V30 11632 H 1091.45 -0.991274 -1.37738 0
M  V30 11633 H 1090.22 -2.00782 -3.3586 0
M  V30 11634 H 1089.84 -0.400149 -3.95581 0
M  V30 11635 N 1090.84 1.42931 -0.663954 0
M  V30 11636 C 1092.07 2.06028 -0.189808 0
M  V30 11637 C 1092.48 1.49827 1.14879 0
M  V30 11638 O 1091.84 0.633778 1.71142 0
M  V30 11639 C 1091.89 3.61349 -0.104343 0
M  V30 11640 O 1091.61 4.15463 -1.39004 0
M  V30 11641 C 1093.11 4.4154 0.394599 0
M  V30 11642 H 1090.33 0.664259 -0.0948744 0
M  V30 11643 H 1092.87 1.83255 -0.907632 0
M  V30 11644 H 1091.03 3.83271 0.564103 0
M  V30 11645 H 1091.44 5.09233 -1.25626 0
M  V30 11646 H 1092.92 5.50525 0.403329 0
M  V30 11647 H 1093.39 4.1534 1.4279 0
M  V30 11648 H 1094 4.24612 -0.241729 0
M  V30 11649 N 1092.32 0.406567 1.52266 0
M  V30 11650 C 1093.54 -0.169624 2.06204 0
M  V30 11651 C 1093.96 -1.39076 1.27684 0
M  V30 11652 O 1093.32 -1.79528 0.328023 0
M  V30 11653 C 1093.37 -0.522611 3.57702 0
M  V30 11654 O 1093.09 0.650028 4.33251 0
M  V30 11655 C 1094.59 -1.15281 4.28048 0
M  V30 11656 H 1091.81 -0.0215191 0.670655 0
M  V30 11657 H 1094.35 0.576781 1.96198 0
M  V30 11658 H 1092.51 -1.21891 3.67725 0
M  V30 11659 H 1092.92 0.355989 5.23291 0
M  V30 11660 H 1094.4 -1.35002 5.35237 0
M  V30 11661 H 1094.87 -2.12517 3.84361 0
M  V30 11662 H 1095.48 -0.496786 4.22389 0
M  V30 11663 N 1093.79 -1.57004 0.136909 0
M  V30 11664 C 1094.73 -2.13355 -0.837405 0
M  V30 11665 C 1095.74 -1.08053 -1.21772 0
M  V30 11666 O 1096.93 -1.35365 -1.16355 0
M  V30 11667 C 1094.03 -2.63302 -2.13366 0
M  V30 11668 C 1093.2 -3.92896 -1.92228 0
M  V30 11669 C 1092.26 -4.28257 -3.05749 0
M  V30 11670 O 1091.29 -4.96761 -2.7788 0
M  V30 11671 N 1092.49 -3.87021 -4.3266 0
M  V30 11672 H 1095.25 -2.9758 -0.35586 0
M  V30 11673 H 1092.81 -1.61832 -0.0469758 0
M  V30 11674 H 1094.81 -2.83977 -2.88339 0
M  V30 11675 H 1093.38 -1.83858 -2.52814 0
M  V30 11676 H 1092.6 -3.80949 -1.01349 0
M  V30 11677 H 1093.88 -4.776 -1.75431 0
M  V30 11678 H 1093.28 -3.31804 -4.58173 0
M  V30 11679 H 1091.84 -4.12768 -5.04446 0
M  V30 11680 N 1095.27 0.136881 -1.57004 0
M  V30 11681 C 1096.5 0.861186 -1.87796 0
M  V30 11682 C 1096.91 1.74788 -0.724272 0
M  V30 11683 O 1096.25 1.80984 0.31471 0
M  V30 11684 C 1096.32 1.76115 -3.13407 0
M  V30 11685 C 1095.98 1.05059 -4.4476 0
M  V30 11686 C 1096.98 0.399736 -5.18361 0
M  V30 11687 C 1094.66 1.03709 -4.91477 0
M  V30 11688 C 1096.66 -0.255127 -6.36889 0
M  V30 11689 C 1094.34 0.378414 -6.09927 0
M  V30 11690 C 1095.34 -0.266555 -6.8248 0
M  V30 11691 O 1095.03 -0.914757 -7.98679 0
M  V30 11692 H 1094.76 0.253855 -0.626525 0
M  V30 11693 H 1097.31 0.131291 -2.0498 0
M  V30 11694 H 1095.54 2.53224 -2.92257 0
M  V30 11695 H 1097.23 2.3583 -3.30362 0
M  V30 11696 H 1098 0.401909 -4.83332 0
M  V30 11697 H 1093.88 1.52852 -4.34922 0
M  V30 11698 H 1097.42 -0.759135 -6.93457 0
M  V30 11699 H 1093.32 0.373942 -6.44416 0
M  V30 11700 H 1094.09 -0.817437 -8.14408 0
M  V30 11701 N 1096.75 1.52266 0.40654 0
M  V30 11702 C 1098 1.66699 1.15496 0
M  V30 11703 C 1098.33 0.397019 1.90098 0
M  V30 11704 O 1097.6 -0.604646 1.84863 0
M  V30 11705 C 1097.89 2.8907 2.14734 0
M  V30 11706 C 1097.74 4.26123 1.44012 0
M  V30 11707 C 1099.06 3.06966 3.15373 0
M  V30 11708 H 1096.18 0.606642 0.418515 0
M  V30 11709 H 1098.82 1.84826 0.440381 0
M  V30 11710 H 1096.97 2.73745 2.75673 0
M  V30 11711 H 1098.64 4.5318 0.861722 0
M  V30 11712 H 1096.89 4.27406 0.742064 0
M  V30 11713 H 1097.56 5.07799 2.16436 0
M  V30 11714 H 1100.03 3.21205 2.64512 0
M  V30 11715 H 1098.91 3.94097 3.82072 0
M  V30 11716 H 1099.17 2.20395 3.83247 0
M  V30 11717 N 1098.23 -0.663929 1.42933 0
M  V30 11718 C 1099.64 -1.24484 1.39143 0
M  V30 11719 C 1099.99 -1.95993 0.0901142 0
M  V30 11720 O 1099.12 -2.00636 -0.810812 0
M  V30 11721 C 1099.71 -2.26402 2.52047 0
M  V30 11722 C 1098.27 -2.79995 2.51555 0
M  V30 11723 C 1097.42 -1.54475 2.30289 0
M  V30 11724 H 1100.37 -0.456619 1.51989 0
M  V30 11725 H 1100.39 -3.08361 2.22921 0
M  V30 11726 H 1099.9 -1.74328 3.46744 0
M  V30 11727 H 1098 -3.36161 1.60707 0
M  V30 11728 H 1098.11 -3.2827 3.48964 0
M  V30 11729 H 1096.48 -1.81437 1.78753 0
M  V30 11730 H 1097.26 -1.04351 3.27056 0
M  V30 11731 N 1099.71 -1.29285 -0.901281 0
M  V30 11732 C 1100.64 -1.08603 -2.007 0
M  V30 11733 C 1101.62 0.00162233 -1.626 0
M  V30 11734 O 1102.8 -0.148764 -1.87912 0
M  V30 11735 C 1099.93 -0.652972 -3.32346 0
M  V30 11736 C 1098.97 -1.73911 -3.89432 0
M  V30 11737 S 1099.81 -3.33797 -4.18736 0
M  V30 11738 C 1100.96 -2.92355 -5.53425 0
M  V30 11739 H 1101.2 -2.02216 -2.17936 0
M  V30 11740 H 1098.73 -1.13414 -1.04769 0
M  V30 11741 H 1100.69 -0.409825 -4.08449 0
M  V30 11742 H 1099.35 0.263527 -3.12993 0
M  V30 11743 H 1098.54 -1.388 -4.84511 0
M  V30 11744 H 1098.14 -1.93569 -3.20011 0
M  V30 11745 H 1100.44 -2.39301 -6.33831 0
M  V30 11746 H 1101.38 -3.86278 -5.9346 0
M  V30 11747 H 1101.79 -2.30697 -5.15208 0
M  V30 11748 N 1101.18 1.11143 -1.11736 0
M  V30 11749 C 1102.11 2.19339 -0.800795 0
M  V30 11750 C 1103.1 1.68508 0.23221 0
M  V30 11751 O 1104.28 1.93967 0.0950063 0
M  V30 11752 C 1101.41 3.46424 -0.246579 0
M  V30 11753 C 1100.36 4.10487 -1.21181 0
M  V30 11754 C 1099.69 5.32183 -0.518158 0
M  V30 11755 C 1100.99 4.55052 -2.56368 0
M  V30 11756 H 1102.68 2.46077 -1.70548 0
M  V30 11757 H 1100.23 1.18271 -0.821454 0
M  V30 11758 H 1102.18 4.21398 -0.0128889 0
M  V30 11759 H 1100.91 3.19154 0.693415 0
M  V30 11760 H 1099.57 3.3751 -1.43118 0
M  V30 11761 H 1099.21 5.01187 0.426742 0
M  V30 11762 H 1098.91 5.75997 -1.16196 0
M  V30 11763 H 1100.44 6.09895 -0.293333 0
M  V30 11764 H 1101.85 5.21335 -2.38501 0
M  V30 11765 H 1100.25 5.0969 -3.16758 0
M  V30 11766 H 1101.32 3.68343 -3.1536 0
M  V30 11767 N 1102.66 0.908147 1.28804 0
M  V30 11768 C 1103.57 0.397167 2.31214 0
M  V30 11769 C 1104.59 -0.512352 1.66286 0
M  V30 11770 O 1105.76 -0.399893 1.9739 0
M  V30 11771 C 1102.83 -0.359522 3.44831 0
M  V30 11772 C 1101.89 0.582539 4.25329 0
M  V30 11773 C 1101.12 -0.138133 5.33521 0
M  V30 11774 O 1101.35 -1.36076 5.53931 0
M  V30 11775 O 1100.28 0.523682 5.99618 0
M  V30 11776 H 1104.11 1.247 2.76918 0
M  V30 11777 H 1101.69 0.672766 1.33395 0
M  V30 11778 H 1103.57 -0.787098 4.13984 0
M  V30 11779 H 1102.25 -1.18528 3.01219 0
M  V30 11780 H 1101.16 1.0594 3.58786 0
M  V30 11781 H 1102.49 1.37495 4.72605 0
M  V30 11782 N 1104.14 -1.42577 0.671525 0
M  V30 11783 C 1105.56 -1.5592 0.340769 0
M  V30 11784 C 1105.76 -1.65179 -1.15405 0
M  V30 11785 O 1104.81 -1.61691 -1.93939 0
M  V30 11786 C 1106.13 -2.81087 1.06821 0
M  V30 11787 C 1107.67 -2.94855 1.05022 0
M  V30 11788 C 1108.15 -4.22878 1.75892 0
M  V30 11789 N 1109.64 -4.29783 1.72744 0
M  V30 11790 C 1110.37 -5.2765 2.24439 0
M  V30 11791 N 1109.87 -6.31689 2.84501 0
M  V30 11792 N 1111.66 -5.19426 2.14832 0
M  V30 11793 H 1103.81 -1.34811 1.64133 0
M  V30 11794 H 1106.08 -0.648704 0.691294 0
M  V30 11795 H 1105.78 -2.80371 2.12332 0
M  V30 11796 H 1105.66 -3.71879 0.631356 0
M  V30 11797 H 1108.04 -2.951 0.00345633 0
M  V30 11798 H 1108.13 -2.05303 1.52592 0
M  V30 11799 H 1107.77 -4.23394 2.80535 0
M  V30 11800 H 1107.7 -5.1136 1.25773 0
M  V30 11801 H 1110.19 -3.55225 1.28932 0
M  V30 11802 H 1110.5 -7.02715 3.21575 0
M  V30 11803 H 1108.85 -6.3226 2.88569 0
M  V30 11804 H 1112.04 -4.37067 1.676 0
M  V30 11805 H 1112.21 -5.95535 2.55426 0
M  V30 11806 N 1105.62 -0.414636 -1.52048 0
M  V30 11807 C 1106.57 0.408141 -2.27163 0
M  V30 11808 C 1107.54 1.03636 -1.29803 0
M  V30 11809 O 1108.72 1.05959 -1.58674 0
M  V30 11810 C 1105.86 1.51588 -3.10024 0
M  V30 11811 C 1104.97 0.908034 -4.22349 0
M  V30 11812 C 1104.11 1.98893 -4.9256 0
M  V30 11813 C 1103.15 1.35831 -5.96839 0
M  V30 11814 N 1102.28 2.37958 -6.60545 0
M  V30 11815 H 1107.12 -0.238822 -2.97041 0
M  V30 11816 H 1104.66 -0.129614 -1.46528 0
M  V30 11817 H 1106.62 2.16916 -3.56375 0
M  V30 11818 H 1105.25 2.13279 -2.42305 0
M  V30 11819 H 1104.3 0.143652 -3.80129 0
M  V30 11820 H 1105.61 0.407426 -4.97133 0
M  V30 11821 H 1104.77 2.71935 -5.42343 0
M  V30 11822 H 1103.51 2.5232 -4.17356 0
M  V30 11823 H 1102.51 0.613246 -5.46369 0
M  V30 11824 H 1103.74 0.831655 -6.73988 0
M  V30 11825 H 1101.68 2.90508 -5.88167 0
M  V30 11826 H 1101.6 1.92725 -7.31022 0
M  V30 11827 H 1102.87 3.10553 -7.14966 0
M  V30 11828 N 1107.1 1.56929 -0.145233 0
M  V30 11829 C 1108.01 2.20238 0.808219 0
M  V30 11830 C 1109.02 1.18615 1.27304 0
M  V30 11831 O 1110.2 1.51186 1.3306 0
M  V30 11832 C 1107.26 2.81016 2.03055 0
M  V30 11833 C 1106.32 3.97759 1.61512 0
M  V30 11834 C 1105.56 4.55628 2.77918 0
M  V30 11835 O 1105.78 4.12378 3.94082 0
M  V30 11836 O 1104.71 5.45917 2.53492 0
M  V30 11837 H 1108.54 3.02221 0.299314 0
M  V30 11838 H 1106.13 1.49176 0.0817051 0
M  V30 11839 H 1108.01 3.19652 2.74592 0
M  V30 11840 H 1106.68 2.02047 2.52901 0
M  V30 11841 H 1105.59 3.63842 0.870033 0
M  V30 11842 H 1106.92 4.78242 1.16383 0
M  V30 11843 N 1108.58 -0.128553 1.57075 0
M  V30 11844 C 1109.82 -0.839252 1.8462 0
M  V30 11845 C 1110.15 -1.79974 0.729582 0
M  V30 11846 O 1109.43 -1.92681 -0.265369 0
M  V30 11847 C 1109.71 -1.59756 3.22723 0
M  V30 11848 C 1109.57 -0.657313 4.44971 0
M  V30 11849 C 1110.88 -2.55592 3.58275 0
M  V30 11850 H 1108 -0.303652 0.671539 0
M  V30 11851 H 1110.65 -0.103802 1.89716 0
M  V30 11852 H 1108.8 -2.22451 3.18509 0
M  V30 11853 H 1110.47 -0.0399471 4.61283 0
M  V30 11854 H 1108.71 0.0318416 4.33788 0
M  V30 11855 H 1109.38 -1.22433 5.38251 0
M  V30 11856 H 1111.86 -2.03007 3.63218 0
M  V30 11857 H 1110.73 -3.05687 4.55902 0
M  V30 11858 H 1110.99 -3.37813 2.85193 0
M  V30 11859 N 1110.05 -1.5248 -0.398459 0
M  V30 11860 C 1111.28 -1.71221 -1.17039 0
M  V30 11861 C 1111.7 -0.425515 -1.83224 0
M  V30 11862 O 1111.06 0.617938 -1.70444 0
M  V30 11863 C 1111.11 -2.8562 -2.20121 0
M  V30 11864 O 1110.21 -2.51934 -3.26501 0
M  V30 11865 H 1109.55 -0.569654 -0.34116 0
M  V30 11866 H 1112.08 -1.99231 -0.465652 0
M  V30 11867 H 1112.09 -3.10842 -2.64275 0
M  V30 11868 H 1110.77 -3.78969 -1.71334 0
M  V30 11869 H 1109.35 -2.3742 -2.87552 0
M  V30 11870 N 1111.53 0.65634 -1.43283 0
M  V30 11871 C 1112.48 1.76934 -1.48199 0
M  V30 11872 C 1113.45 1.62748 -0.332023 0
M  V30 11873 O 1114.63 1.83036 -0.538735 0
M  V30 11874 C 1111.77 3.15072 -1.40797 0
M  V30 11875 C 1110.89 3.40414 -2.65974 0
M  V30 11876 C 1110.02 4.68383 -2.50582 0
M  V30 11877 C 1109.06 4.8682 -3.71043 0
M  V30 11878 N 1108.2 6.06043 -3.5448 0
M  V30 11879 H 1113.04 1.72067 -2.43304 0
M  V30 11880 H 1110.57 0.839728 -1.20777 0
M  V30 11881 H 1112.53 3.94925 -1.345 0
M  V30 11882 H 1111.16 3.19017 -0.492754 0
M  V30 11883 H 1110.21 2.54681 -2.82563 0
M  V30 11884 H 1111.53 3.49925 -3.55463 0
M  V30 11885 H 1110.68 5.56357 -2.41975 0
M  V30 11886 H 1109.42 4.61187 -1.58612 0
M  V30 11887 H 1108.42 3.97282 -3.80062 0
M  V30 11888 H 1109.65 4.95847 -4.64017 0
M  V30 11889 H 1107.6 5.99985 -2.65242 0
M  V30 11890 H 1107.51 6.16498 -4.37568 0
M  V30 11891 H 1108.78 6.96647 -3.49719 0
M  V30 11892 N 1113.01 1.29761 0.894412 0
M  V30 11893 C 1114.24 1.20765 1.67629 0
M  V30 11894 C 1114.65 -0.233434 1.87754 0
M  V30 11895 O 1113.99 -1.16747 1.4183 0
M  V30 11896 C 1114.05 1.85542 3.07919 0
M  V30 11897 C 1113.72 3.34852 3.11004 0
M  V30 11898 C 1114.71 4.30994 2.90758 0
M  V30 11899 C 1112.4 3.76141 3.32901 0
M  V30 11900 C 1114.39 5.664 2.92352 0
M  V30 11901 C 1112.08 5.11667 3.34126 0
M  V30 11902 C 1113.08 6.06607 3.13874 0
M  V30 11903 O 1112.77 7.39659 3.14897 0
M  V30 11904 H 1112.5 0.419418 0.530155 0
M  V30 11905 H 1115.05 1.71754 1.12648 0
M  V30 11906 H 1113.28 1.29071 3.64524 0
M  V30 11907 H 1114.97 1.70795 3.68217 0
M  V30 11908 H 1115.74 4.00427 2.73648 0
M  V30 11909 H 1111.62 3.02694 3.47703 0
M  V30 11910 H 1115.16 6.40479 2.76464 0
M  V30 11911 H 1111.06 5.41877 3.50769 0
M  V30 11912 H 1111.82 7.4853 3.31127 0
M  V30 11913 N 1114.49 -1.10549 1.12324 0
M  V30 11914 C 1115.71 -1.8681 0.900927 0
M  V30 11915 C 1116.14 -1.80049 -0.54443 0
M  V30 11916 O 1115.5 -1.16957 -1.38531 0
M  V30 11917 C 1115.54 -3.33197 1.37883 0
M  V30 11918 O 1114.65 -4.08628 0.556529 0
M  V30 11919 H 1113.99 -0.579709 0.32378 0
M  V30 11920 H 1116.52 -1.39678 1.49503 0
M  V30 11921 H 1116.53 -3.84047 1.37739 0
M  V30 11922 H 1115.2 -3.37435 2.43127 0
M  V30 11923 H 1113.78 -3.67627 0.62486 0
M  V30 11924 N 1115.97 -0.914965 -1.28321 0
M  V30 11925 C 1117.24 -0.46764 -1.89928 0
M  V30 11926 C 1117.62 1.05364 -1.82925 0
M  V30 11927 O 1116.97 1.90223 -1.26599 0
M  V30 11928 C 1117.18 -0.999372 -3.34385 0
M  V30 11929 C 1118.53 -1.0522 -4.11356 0
M  V30 11930 O 1119.55 -0.9481 -3.4335 0
M  V30 11931 O 1118.41 -1.21085 -5.32917 0
M  V30 11932 H 1115.51 -0.148398 -0.813577 0
M  V30 11933 H 1118.05 -1.00583 -1.36679 0
M  V30 11934 H 1116.82 -2.04333 -3.33712 0
M  V30 11935 H 1116.45 -0.442083 -3.95135 0
M  V30 11936 N 1117.44 1.42219 -0.679077 0
M  V30 11937 C 1118.69 2.00703 -0.200309 0
M  V30 11938 C 1119.01 1.54339 1.20161 0
M  V30 11939 O 1120.21 2.0527 1.77698 0
M  V30 11940 C 1118.67 3.58586 -0.307248 0
M  V30 11941 C 1118.28 4.13937 -1.71349 0
M  V30 11942 C 1120.02 4.24351 0.112588 0
M  V30 11943 C 1117.93 5.64198 -1.77297 0
M  V30 11944 H 1116.86 0.750638 -0.0711279 0
M  V30 11945 H 1119.51 1.62893 -0.844881 0
M  V30 11946 H 1117.89 3.93921 0.40529 0
M  V30 11947 H 1119.06 3.90054 -2.45346 0
M  V30 11948 H 1117.38 3.60639 -2.08155 0
M  V30 11949 H 1119.98 5.34627 0.0883578 0
M  V30 11950 H 1120.32 4.00142 1.14857 0
M  V30 11951 H 1120.85 3.93992 -0.549093 0
M  V30 11952 H 1117.59 5.93211 -2.78892 0
M  V30 11953 H 1117.11 5.90058 -1.07662 0
M  V30 11954 H 1118.79 6.2869 -1.52835 0
M  V30 11955 N 1118.92 0.422693 1.51826 0
M  V30 11956 C 1119.85 -0.43167 2.25098 0
M  V30 11957 C 1120.87 -0.998758 1.28564 0
M  V30 11958 O 1122.06 -0.89539 1.54418 0
M  V30 11959 C 1119.16 -1.61426 2.97985 0
M  V30 11960 C 1118.33 -1.16866 4.21499 0
M  V30 11961 C 1117.39 -2.2197 4.77091 0
M  V30 11962 O 1116.41 -1.82004 5.39317 0
M  V30 11963 N 1117.62 -3.54293 4.59844 0
M  V30 11964 H 1120.38 0.196255 2.99057 0
M  V30 11965 H 1117.94 0.25079 1.59946 0
M  V30 11966 H 1119.93 -2.31331 3.32066 0
M  V30 11967 H 1118.5 -2.14783 2.27128 0
M  V30 11968 H 1117.72 -0.297217 3.93078 0
M  V30 11969 H 1119.01 -0.848106 5.01682 0
M  V30 11970 H 1118.41 -3.89505 4.10247 0
M  V30 11971 H 1116.97 -4.20135 4.98327 0
M  V30 11972 N 1120.4 -1.5685 0.153553 0
M  V30 11973 C 1121.82 -1.58306 -0.202801 0
M  V30 11974 C 1122.02 -1.16813 -1.64186 0
M  V30 11975 O 1121.07 -0.871468 -2.36985 0
M  V30 11976 C 1122.38 -3.00636 0.0619012 0
M  V30 11977 C 1123.93 -3.13 -0.00129219 0
M  V30 11978 C 1124.41 -4.57391 0.236164 0
M  V30 11979 N 1125.9 -4.62837 0.18332 0
M  V30 11980 C 1126.63 -5.72382 0.341471 0
M  V30 11981 N 1126.13 -6.90552 0.557704 0
M  V30 11982 N 1127.92 -5.61409 0.278615 0
M  V30 11983 H 1120.07 -1.82113 1.09309 0
M  V30 11984 H 1122.34 -0.843228 0.433209 0
M  V30 11985 H 1122.04 -3.35406 1.0581 0
M  V30 11986 H 1121.92 -3.71477 -0.654555 0
M  V30 11987 H 1124.3 -2.78068 -0.98805 0
M  V30 11988 H 1124.38 -2.44632 0.747596 0
M  V30 11989 H 1124.03 -4.93029 1.22005 0
M  V30 11990 H 1123.96 -5.23894 -0.533125 0
M  V30 11991 H 1126.45 -3.77894 0.0211138 0
M  V30 11992 H 1126.76 -7.69905 0.66831 0
M  V30 11993 H 1125.11 -6.92456 0.594105 0
M  V30 11994 H 1128.3 -4.6797 0.110401 0
M  V30 11995 H 1128.47 -6.46731 0.4053 0
M  V30 11996 N 1121.88 0.120221 -1.57141 0
M  V30 11997 C 1123.1 0.84637 -1.89344 0
M  V30 11998 C 1123.53 1.72702 -0.745365 0
M  V30 11999 O 1122.89 1.7873 0.304155 0
M  V30 12000 C 1122.93 1.65671 -3.20289 0
M  V30 12001 O 1122.04 2.76353 -3.06109 0
M  V30 12002 H 1121.38 0.234132 -0.621352 0
M  V30 12003 H 1123.91 0.102986 -2.04341 0
M  V30 12004 H 1123.92 2.04621 -3.52979 0
M  V30 12005 H 1122.59 1.01023 -4.03444 0
M  V30 12006 H 1121.17 2.40615 -2.84884 0
M  V30 12007 N 1123.36 1.52689 0.390367 0
M  V30 12008 C 1124.29 1.80338 1.48325 0
M  V30 12009 C 1125.27 0.655338 1.56969 0
M  V30 12010 O 1126.45 0.902792 1.7194 0
M  V30 12011 C 1123.58 1.97101 2.85952 0
M  V30 12012 C 1122.54 3.12783 2.92148 0
M  V30 12013 C 1121.86 3.14798 4.32211 0
M  V30 12014 C 1123.16 4.5188 2.61919 0
M  V30 12015 H 1124.86 2.71857 1.25437 0
M  V30 12016 H 1122.4 1.30813 0.601995 0
M  V30 12017 H 1124.36 2.15027 3.62411 0
M  V30 12018 H 1123.08 1.02271 3.10174 0
M  V30 12019 H 1121.74 2.94638 2.18137 0
M  V30 12020 H 1121.39 2.17653 4.53471 0
M  V30 12021 H 1121.09 3.92507 4.37278 0
M  V30 12022 H 1122.61 3.34877 5.10578 0
M  V30 12023 H 1124.02 4.70134 3.28096 0
M  V30 12024 H 1122.42 5.31647 2.78337 0
M  V30 12025 H 1123.49 4.58689 1.57266 0
M  V30 12026 N 1124.83 -0.648732 1.43629 0
M  V30 12027 C 1126.06 -1.43412 1.48716 0
M  V30 12028 C 1126.47 -1.88908 0.105051 0
M  V30 12029 O 1125.82 -1.60373 -0.895896 0
M  V30 12030 C 1125.88 -2.69906 2.37468 0
M  V30 12031 C 1125.54 -2.46321 3.84935 0
M  V30 12032 C 1126.54 -2.09259 4.75927 0
M  V30 12033 C 1124.22 -2.60506 4.29467 0
M  V30 12034 C 1126.22 -1.86686 6.09448 0
M  V30 12035 C 1123.9 -2.37548 5.6304 0
M  V30 12036 C 1124.9 -2.00694 6.52848 0
M  V30 12037 O 1124.59 -1.77979 7.83951 0
M  V30 12038 H 1124.32 -0.446883 0.507219 0
M  V30 12039 H 1126.88 -0.802218 1.89086 0
M  V30 12040 H 1125.11 -3.35672 1.91993 0
M  V30 12041 H 1126.8 -3.31867 2.33707 0
M  V30 12042 H 1127.56 -1.97872 4.428 0
M  V30 12043 H 1123.44 -2.88165 3.59836 0
M  V30 12044 H 1126.98 -1.57844 6.79508 0
M  V30 12045 H 1122.88 -2.48539 5.95734 0
M  V30 12046 H 1123.65 -1.92368 7.95573 0
M  V30 12047 N 1126.31 -1.30234 -0.887518 0
M  V30 12048 C 1127.59 -1.09572 -1.62029 0
M  V30 12049 C 1127.97 0.355877 -2.08079 0
M  V30 12050 O 1127.32 1.34692 -1.84582 0
M  V30 12051 C 1127.53 -2.0943 -2.79177 0
M  V30 12052 C 1128.88 -2.4101 -3.4957 0
M  V30 12053 O 1129.9 -2.0772 -2.89363 0
M  V30 12054 O 1128.76 -2.97943 -4.5814 0
M  V30 12055 H 1125.85 -0.420648 -0.712028 0
M  V30 12056 H 1128.4 -1.41651 -0.934517 0
M  V30 12057 H 1127.17 -3.07149 -2.42436 0
M  V30 12058 H 1126.79 -1.78154 -3.55453 0
M  V30 12059 N 1127.79 1.09952 -1.12909 0
M  V30 12060 C 1129.21 1.34051 -0.866172 0
M  V30 12061 C 1129.41 1.95169 0.501125 0
M  V30 12062 O 1128.46 2.19458 1.24878 0
M  V30 12063 C 1129.78 2.25738 -1.98653 0
M  V30 12064 C 1131.32 2.39261 -2.01799 0
M  V30 12065 C 1131.8 3.3428 -3.13083 0
M  V30 12066 N 1133.29 3.41851 -3.12558 0
M  V30 12067 C 1134.02 4.15358 -3.95304 0
M  V30 12068 N 1133.52 4.91709 -4.88051 0
M  V30 12069 N 1135.31 4.11027 -3.83423 0
M  V30 12070 H 1127.46 0.686521 -2.00999 0
M  V30 12071 H 1129.73 0.364913 -0.874953 0
M  V30 12072 H 1129.43 1.88048 -2.97205 0
M  V30 12073 H 1129.31 3.26085 -1.89601 0
M  V30 12074 H 1131.69 2.76218 -1.03864 0
M  V30 12075 H 1131.78 1.38712 -2.14925 0
M  V30 12076 H 1131.42 2.98048 -4.11254 0
M  V30 12077 H 1131.35 4.34721 -2.97195 0
M  V30 12078 H 1133.84 2.87405 -2.45371 0
M  V30 12079 H 1134.15 5.45212 -5.47689 0
M  V30 12080 H 1132.5 4.90816 -4.92061 0
M  V30 12081 H 1135.69 3.50477 -3.10296 0
M  V30 12082 H 1135.86 4.68054 -4.4814 0
M  V30 12083 N 1129.27 0.921757 1.27833 0
M  V30 12084 C 1130.68 0.604496 1.76643 0
M  V30 12085 C 1131.03 -0.880294 1.75343 0
M  V30 12086 O 1130.16 -1.68875 1.35315 0
M  V30 12087 C 1130.75 1.09055 3.20768 0
M  V30 12088 C 1129.31 0.824066 3.67268 0
M  V30 12089 C 1128.46 1.25269 2.47392 0
M  V30 12090 H 1131.41 1.10217 1.14184 0
M  V30 12091 H 1131.43 0.435558 3.77999 0
M  V30 12092 H 1130.94 2.17122 3.21682 0
M  V30 12093 H 1129.04 -0.243055 3.71806 0
M  V30 12094 H 1129.15 1.43743 4.57028 0
M  V30 12095 H 1127.52 0.671313 2.45694 0
M  V30 12096 H 1128.3 2.34188 2.5102 0
M  V30 12097 N 1130.75 -1.41857 0.686609 0
M  V30 12098 C 1131.71 -2.29187 0.0247022 0
M  V30 12099 C 1132.71 -1.43926 -0.717069 0
M  V30 12100 O 1133.9 -1.65179 -0.5533 0
M  V30 12101 C 1131.03 -3.26644 -0.975537 0
M  V30 12102 H 1132.22 -2.89212 0.793503 0
M  V30 12103 H 1129.78 -1.49694 0.449605 0
M  V30 12104 H 1130.51 -2.7158 -1.77242 0
M  V30 12105 H 1130.3 -3.89545 -0.446892 0
M  V30 12106 H 1131.79 -3.92107 -1.43673 0
M  V30 12107 N 1132.22 -0.430739 -1.51599 0
M  V30 12108 C 1133.45 0.139197 -2.06932 0
M  V30 12109 C 1133.87 1.3626 -1.29672 0
M  V30 12110 O 1133.23 1.78219 -0.332836 0
M  V30 12111 C 1133.28 0.446593 -3.57824 0
M  V30 12112 O 1132.38 1.53414 -3.82803 0
M  V30 12113 H 1131.73 0.00475812 -0.663983 0
M  V30 12114 H 1134.26 -0.610171 -1.9529 0
M  V30 12115 H 1134.27 0.698972 -4.01968 0
M  V30 12116 H 1132.94 -0.447613 -4.13484 0
M  V30 12117 H 1131.52 1.27224 -3.50526 0
M  V30 12118 N 1133.7 1.56767 -0.161869 0
M  V30 12119 C 1134.93 2.00673 0.491314 0
M  V30 12120 C 1135.34 1.04111 1.5798 0
M  V30 12121 O 1134.68 0.0324889 1.83671 0
M  V30 12122 C 1134.75 3.41011 1.13806 0
M  V30 12123 C 1134.41 4.56595 0.192384 0
M  V30 12124 C 1135.41 5.16591 -0.585671 0
M  V30 12125 C 1133.09 5.02218 0.0909594 0
M  V30 12126 C 1135.09 6.20631 -1.45245 0
M  V30 12127 C 1132.77 6.06109 -0.77941 0
M  V30 12128 C 1133.77 6.65187 -1.54971 0
M  V30 12129 O 1133.46 7.67065 -2.40555 0
M  V30 12130 H 1133.19 0.663174 0.131059 0
M  V30 12131 H 1135.74 2.03775 -0.257896 0
M  V30 12132 H 1133.97 3.34793 1.93521 0
M  V30 12133 H 1135.66 3.68931 1.69248 0
M  V30 12134 H 1136.43 4.82232 -0.517432 0
M  V30 12135 H 1132.31 4.55953 0.680292 0
M  V30 12136 H 1135.85 6.66671 -2.05415 0
M  V30 12137 H 1131.75 6.39894 -0.848887 0
M  V30 12138 H 1132.52 7.84348 -2.33966 0
M  V30 12139 N 1135.18 -0.111886 1.57202 0
M  V30 12140 C 1136.13 -1.13688 2.00858 0
M  V30 12141 C 1137.1 -1.40752 0.881939 0
M  V30 12142 O 1138.28 -1.52498 1.14669 0
M  V30 12143 C 1135.42 -2.45641 2.42393 0
M  V30 12144 C 1134.54 -2.25452 3.68504 0
M  V30 12145 C 1133.67 -3.50686 3.9899 0
M  V30 12146 C 1132.71 -3.25685 5.18262 0
M  V30 12147 N 1131.85 -4.4314 5.44583 0
M  V30 12148 H 1136.69 -0.757611 2.88209 0
M  V30 12149 H 1134.22 -0.362582 1.42561 0
M  V30 12150 H 1136.18 -3.22627 2.64514 0
M  V30 12151 H 1134.81 -2.81447 1.58074 0
M  V30 12152 H 1133.86 -1.39349 3.53958 0
M  V30 12153 H 1135.18 -2.0296 4.55641 0
M  V30 12154 H 1134.33 -4.36087 4.21797 0
M  V30 12155 H 1133.07 -3.76216 3.10343 0
M  V30 12156 H 1132.07 -2.38675 4.95292 0
M  V30 12157 H 1133.3 -3.01518 6.08493 0
M  V30 12158 H 1131.24 -4.68778 4.58893 0
M  V30 12159 H 1131.16 -4.23778 6.26058 0
M  V30 12160 H 1132.43 -5.29654 5.71915 0
M  V30 12161 N 1136.66 -1.52894 -0.382264 0
M  V30 12162 C 1137.61 -1.78151 -1.46734 0
M  V30 12163 C 1138.58 -0.625034 -1.53891 0
M  V30 12164 O 1139.76 -0.865467 -1.70042 0
M  V30 12165 C 1136.9 -1.96223 -2.83885 0
M  V30 12166 C 1136.01 -3.23925 -2.85826 0
M  V30 12167 C 1135.15 -3.32277 -4.14446 0
M  V30 12168 C 1134.19 -4.54076 -4.10465 0
M  V30 12169 N 1133.32 -4.59672 -5.30703 0
M  V30 12170 H 1138.16 -2.70748 -1.24497 0
M  V30 12171 H 1135.7 -1.34135 -0.603838 0
M  V30 12172 H 1137.66 -2.04686 -3.63537 0
M  V30 12173 H 1136.29 -1.0698 -3.04557 0
M  V30 12174 H 1135.34 -3.245 -1.98505 0
M  V30 12175 H 1136.65 -4.1364 -2.78754 0
M  V30 12176 H 1135.81 -3.3996 -5.02506 0
M  V30 12177 H 1134.55 -2.40548 -4.2425 0
M  V30 12178 H 1133.55 -4.46511 -3.20793 0
M  V30 12179 H 1134.78 -5.47128 -4.02278 0
M  V30 12180 H 1132.72 -3.70838 -5.41124 0
M  V30 12181 H 1132.64 -5.43268 -5.25734 0
M  V30 12182 H 1133.91 -4.71618 -6.20642 0
M  V30 12183 N 1138.14 0.641106 -1.43971 0
M  V30 12184 C 1139.08 1.75352 -1.50068 0
M  V30 12185 C 1140.05 1.62386 -0.349266 0
M  V30 12186 O 1141.24 1.82455 -0.558118 0
M  V30 12187 C 1138.38 3.13561 -1.4413 0
M  V30 12188 C 1137.49 3.37574 -2.6957 0
M  V30 12189 C 1136.63 4.65698 -2.55535 0
M  V30 12190 C 1135.67 4.82857 -3.76186 0
M  V30 12191 N 1134.8 6.02249 -3.60888 0
M  V30 12192 H 1139.64 1.69477 -2.45116 0
M  V30 12193 H 1137.18 0.826871 -1.2166 0
M  V30 12194 H 1139.14 3.93476 -1.38681 0
M  V30 12195 H 1137.77 3.18476 -0.526563 0
M  V30 12196 H 1136.82 2.5167 -2.85248 0
M  V30 12197 H 1138.13 3.46135 -3.59154 0
M  V30 12198 H 1137.29 5.53759 -2.47862 0
M  V30 12199 H 1136.03 4.59479 -1.63495 0
M  V30 12200 H 1135.03 3.93229 -3.84254 0
M  V30 12201 H 1136.26 4.90898 -4.6925 0
M  V30 12202 H 1134.2 5.97138 -2.71591 0
M  V30 12203 H 1134.12 6.11822 -4.44083 0
M  V30 12204 H 1135.39 6.92898 -3.57088 0
M  V30 12205 N 1139.62 1.30703 0.880598 0
M  V30 12206 C 1140.84 1.22843 1.67106 0
M  V30 12207 C 1141.27 -0.204788 1.86982 0
M  V30 12208 O 1140.62 -1.14716 1.40392 0
M  V30 12209 C 1140.67 1.96685 3.02237 0
M  V30 12210 O 1139.78 1.29693 3.91476 0
M  V30 12211 H 1139.12 0.424661 0.51045 0
M  V30 12212 H 1141.65 1.72596 1.09871 0
M  V30 12213 H 1141.66 2.05874 3.52249 0
M  V30 12214 H 1140.33 3.00919 2.8709 0
M  V30 12215 H 1138.91 1.28886 3.49918 0
M  V30 12216 N 1141.09 -1.09351 1.1349 0
M  V30 12217 C 1142.03 -2.15291 0.756645 0
M  V30 12218 C 1143 -1.60548 -0.257497 0
M  V30 12219 O 1144.19 -1.87912 -0.14882 0
M  V30 12220 C 1141.32 -3.38481 0.121799 0
M  V30 12221 C 1140.36 -4.11949 1.10456 0
M  V30 12222 S 1141.19 -4.6605 2.63738 0
M  V30 12223 C 1142.35 -5.92539 2.01615 0
M  V30 12224 H 1142.58 -2.47044 1.65398 0
M  V30 12225 H 1140.12 -1.21312 0.955129 0
M  V30 12226 H 1142.07 -4.09809 -0.238086 0
M  V30 12227 H 1140.74 -3.04945 -0.752821 0
M  V30 12228 H 1139.93 -5.00317 0.608195 0
M  V30 12229 H 1139.53 -3.46486 1.40795 0
M  V30 12230 H 1141.82 -6.63593 1.36569 0
M  V30 12231 H 1142.77 -6.46856 2.88068 0
M  V30 12232 H 1143.17 -5.45094 1.46741 0
M  V30 12233 N 1142.57 -0.928524 -1.27343 0
M  V30 12234 C 1143.5 -0.445627 -2.29208 0
M  V30 12235 C 1144.48 0.494508 -1.62753 0
M  V30 12236 O 1145.67 0.399082 -1.90055 0
M  V30 12237 C 1142.8 0.301684 -3.45987 0
M  V30 12238 C 1141.75 -0.550695 -4.24442 0
M  V30 12239 C 1141.08 0.325833 -5.33706 0
M  V30 12240 C 1142.38 -1.81559 -4.89728 0
M  V30 12241 H 1144.07 -1.29696 -2.69851 0
M  V30 12242 H 1141.62 -0.625085 -1.29725 0
M  V30 12243 H 1143.57 0.650455 -4.1635 0
M  V30 12244 H 1142.29 1.18705 -3.04264 0
M  V30 12245 H 1140.95 -0.882185 -3.55827 0
M  V30 12246 H 1140.6 1.21018 -4.88225 0
M  V30 12247 H 1140.3 -0.240994 -5.87106 0
M  V30 12248 H 1141.83 0.670156 -6.06911 0
M  V30 12249 H 1143.24 -1.53483 -5.52373 0
M  V30 12250 H 1141.64 -2.32598 -5.53189 0
M  V30 12251 H 1142.71 -2.53461 -4.13383 0
M  V30 12252 N 1144.05 1.41491 -0.694123 0
M  V30 12253 C 1145.33 1.95004 -0.152571 0
M  V30 12254 C 1145.71 1.63357 1.33707 0
M  V30 12255 O 1145.05 0.939815 2.08278 0
M  V30 12256 C 1145.26 3.46186 -0.44232 0
M  V30 12257 C 1146.61 4.22991 -0.369279 0
M  V30 12258 O 1147.64 3.54198 -0.377152 0
M  V30 12259 O 1146.5 5.45514 -0.328145 0
M  V30 12260 H 1143.59 0.826879 -0.0141253 0
M  V30 12261 H 1146.14 1.51216 -0.770183 0
M  V30 12262 H 1144.91 3.62497 -1.47348 0
M  V30 12263 H 1144.53 3.97064 0.206337 0
M  V30 12264 N 1145.53 0.438773 1.51369 0
M  V30 12265 C 1146.75 -0.128221 2.07003 0
M  V30 12266 C 1147.18 -1.3557 1.30393 0
M  V30 12267 O 1146.54 -1.7804 0.342283 0
M  V30 12268 C 1146.58 -0.42761 3.58056 0
M  V30 12269 O 1145.69 -1.51382 3.83611 0
M  V30 12270 H 1145.03 -0.00123679 0.663999 0
M  V30 12271 H 1147.56 0.62052 1.94963 0
M  V30 12272 H 1147.57 -0.677645 4.02333 0
M  V30 12273 H 1146.24 0.469535 4.13241 0
M  V30 12274 H 1144.82 -1.25363 3.51196 0
M  V30 12275 N 1147.01 -1.56678 0.170181 0
M  V30 12276 C 1147.92 -2.21496 -0.773079 0
M  V30 12277 C 1148.93 -1.20626 -1.25401 0
M  V30 12278 O 1150.11 -1.53283 -1.30638 0
M  V30 12279 C 1147.17 -2.8421 -1.98558 0
M  V30 12280 C 1146.23 -4.00278 -1.55164 0
M  V30 12281 C 1145.47 -4.59992 -2.70634 0
M  V30 12282 O 1145.69 -4.18595 -3.87472 0
M  V30 12283 O 1144.62 -5.49881 -2.44775 0
M  V30 12284 H 1148.45 -3.02659 -0.251195 0
M  V30 12285 H 1146.03 -1.49288 -0.0579621 0
M  V30 12286 H 1147.92 -3.2398 -2.69472 0
M  V30 12287 H 1146.59 -2.06045 -2.49654 0
M  V30 12288 H 1145.5 -3.6518 -0.812038 0
M  V30 12289 H 1146.83 -4.80033 -1.0876 0
M  V30 12290 N 1148.48 0.103547 -1.57259 0
M  V30 12291 C 1149.73 0.809774 -1.85931 0
M  V30 12292 C 1150.06 1.78791 -0.758122 0
M  V30 12293 O 1149.34 1.93079 0.234682 0
M  V30 12294 C 1149.62 1.54601 -3.25224 0
M  V30 12295 C 1149.47 0.586439 -4.45961 0
M  V30 12296 C 1150.79 2.4986 -3.62296 0
M  V30 12297 H 1147.91 0.29293 -0.676285 0
M  V30 12298 H 1150.55 0.0736065 -1.89857 0
M  V30 12299 H 1148.7 2.17355 -3.22008 0
M  V30 12300 H 1150.38 -0.0334441 -4.61288 0
M  V30 12301 H 1148.62 -0.10085 -4.33683 0
M  V30 12302 H 1149.29 1.13855 -5.40131 0
M  V30 12303 H 1151.77 1.97203 -3.66402 0
M  V30 12304 H 1150.64 2.98396 -4.60707 0
M  V30 12305 H 1150.9 3.33233 -2.90531 0
M  V30 12306 N 1149.96 1.53094 0.37415 0
M  V30 12307 C 1150.91 1.78927 1.45787 0
M  V30 12308 C 1151.88 0.633187 1.53558 0
M  V30 12309 O 1153.06 0.874472 1.69581 0
M  V30 12310 C 1150.2 1.97726 2.8284 0
M  V30 12311 C 1149.32 3.25436 2.84104 0
M  V30 12312 C 1148.45 3.3447 4.12678 0
M  V30 12313 C 1147.49 4.56246 4.08051 0
M  V30 12314 N 1146.63 4.6248 5.28258 0
M  V30 12315 H 1151.47 2.71404 1.2306 0
M  V30 12316 H 1149 1.34453 0.596716 0
M  V30 12317 H 1150.96 2.06611 3.62447 0
M  V30 12318 H 1149.59 1.08593 3.03986 0
M  V30 12319 H 1148.64 3.25548 1.96781 0
M  V30 12320 H 1149.96 4.15112 2.76556 0
M  V30 12321 H 1149.11 3.4262 5.00696 0
M  V30 12322 H 1147.85 2.42795 4.22968 0
M  V30 12323 H 1146.85 4.48206 3.1842 0
M  V30 12324 H 1148.08 5.49254 3.99371 0
M  V30 12325 H 1146.03 3.73703 5.3915 0
M  V30 12326 H 1145.94 5.46049 5.22845 0
M  V30 12327 H 1147.21 4.74903 6.18132 0
M  V30 12328 N 1151.44 -0.633461 1.44309 0
M  V30 12329 C 1152.39 -1.76674 1.51292 0
M  V30 12330 C 1153.38 -1.64972 0.384807 0
M  V30 12331 O 1154.59 -1.71079 0.559653 0
M  V30 12332 H 1150.96 -0.583238 0.474697 0
M  V30 12333 H 1152.93 -1.67907 2.46678 0
M  V30 12334 C 1151.68 -3.15002 1.47205 0
M  V30 12335 H 1151.01 -3.24653 2.33325 0
M  V30 12336 H 1152.45 -3.94199 1.56151 0
M  V30 12337 C 1150.9 -3.3635 0.192464 0
M  V30 12338 O 1151.43 -3.94857 -0.738285 0
M  V30 12339 N 1149.64 -2.9044 0.0963424 0
M  V30 12340 H 1149.19 -2.43011 0.85459 0
M  V30 12341 H 1149.15 -3.05099 -0.759061 0
M  V30 12342 N 1152.92 -1.31168 -0.873655 0
M  V30 12343 C 1153.85 -1.21094 -1.99646 0
M  V30 12344 C 1154.83 -0.0989684 -1.69812 0
M  V30 12345 O 1156.01 -0.282939 -1.92128 0
M  V30 12346 C 1153.14 -0.913684 -3.35066 0
M  V30 12347 C 1152.1 -1.98482 -3.79195 0
M  V30 12348 C 1151.42 -1.54033 -5.12033 0
M  V30 12349 C 1152.72 -3.39745 -3.96699 0
M  V30 12350 H 1154.42 -2.1503 -2.08333 0
M  V30 12351 H 1151.96 -1.03521 -1.00097 0
M  V30 12352 H 1153.92 -0.829821 -4.13149 0
M  V30 12353 H 1152.64 0.0613471 -3.26542 0
M  V30 12354 H 1151.3 -2.05851 -3.03349 0
M  V30 12355 H 1150.95 -0.553261 -4.99948 0
M  V30 12356 H 1150.65 -2.25688 -5.4253 0
M  V30 12357 H 1152.17 -1.47047 -5.92629 0
M  V30 12358 H 1153.59 -3.35071 -4.65188 0
M  V30 12359 H 1151.98 -4.09585 -4.38589 0
M  V30 12360 H 1153.05 -3.80802 -3.00196 0
M  V30 12361 N 1154.4 1.08748 -1.14068 0
M  V30 12362 C 1155.33 2.17591 -0.84714 0
M  V30 12363 C 1156.31 1.68962 0.196415 0
M  V30 12364 O 1157.49 1.94125 0.0538415 0
M  V30 12365 C 1154.62 3.45823 -0.320005 0
M  V30 12366 C 1153.58 4.07824 -1.2986 0
M  V30 12367 C 1152.9 5.30965 -0.630925 0
M  V30 12368 C 1154.2 4.49512 -2.65963 0
M  V30 12369 H 1155.9 2.42404 -1.75729 0
M  V30 12370 H 1153.44 1.16502 -0.846356 0
M  V30 12371 H 1155.4 4.21276 -0.102271 0
M  V30 12372 H 1154.12 3.20553 0.625561 0
M  V30 12373 H 1152.78 3.34398 -1.50245 0
M  V30 12374 H 1152.43 5.01979 0.320337 0
M  V30 12375 H 1152.13 5.73402 -1.28388 0
M  V30 12376 H 1153.65 6.09136 -0.422635 0
M  V30 12377 H 1155.06 5.16159 -2.49506 0
M  V30 12378 H 1153.46 5.02857 -3.27498 0
M  V30 12379 H 1154.53 3.6157 -3.23102 0
M  V30 12380 N 1155.87 0.935264 1.26849 0
M  V30 12381 C 1157.1 0.595704 1.98661 0
M  V30 12382 C 1157.52 -0.821001 1.69237 0
M  V30 12383 O 1156.88 -1.55211 0.936982 0
M  V30 12384 C 1156.93 0.837275 3.50745 0
M  V30 12385 O 1156.03 -0.0934914 4.12294 0
M  V30 12386 H 1155.38 0.228512 0.623441 0
M  V30 12387 H 1157.91 1.25658 1.61466 0
M  V30 12388 H 1157.92 0.755827 4.00938 0
M  V30 12389 H 1156.59 1.86993 3.71492 0
M  V30 12390 H 1155.17 0.0385124 3.7288 0
M  V30 12391 N 1157.35 -1.41121 0.701616 0
M  V30 12392 C 1158.63 -1.9492 0.162911 0
M  V30 12393 C 1159.01 -1.64064 -1.32839 0
M  V30 12394 O 1158.36 -0.950848 -2.07777 0
M  V30 12395 C 1158.57 -3.45946 0.460673 0
M  V30 12396 C 1159.92 -4.22789 0.391706 0
M  V30 12397 O 1160.94 -3.53993 0.395931 0
M  V30 12398 O 1159.8 -5.45332 0.357071 0
M  V30 12399 H 1156.89 -0.826793 0.0185103 0
M  V30 12400 H 1159.44 -1.50805 0.778192 0
M  V30 12401 H 1158.21 -3.61711 1.49269 0
M  V30 12402 H 1157.83 -3.97168 -0.185277 0
M  V30 12403 N 1158.83 -0.446794 -1.51134 0
M  V30 12404 C 1160.11 0.176892 -1.94798 0
M  V30 12405 C 1160.49 1.59229 -1.38598 0
M  V30 12406 O 1159.84 2.21097 -0.576905 0
M  V30 12407 C 1160.05 0.145 -3.48699 0
M  V30 12408 C 1161.39 0.345917 -4.23189 0
M  V30 12409 O 1162.42 0.222691 -3.55503 0
M  V30 12410 O 1161.28 0.592112 -5.43283 0
M  V30 12411 H 1158.37 0.12486 -0.81752 0
M  V30 12412 H 1160.92 -0.505453 -1.61998 0
M  V30 12413 H 1159.69 -0.844156 -3.82086 0
M  V30 12414 H 1159.31 0.869851 -3.87968 0
M  V30 12415 N 1160.31 1.56586 -0.178487 0
M  V30 12416 C 1161.26 2.19631 0.765822 0
M  V30 12417 C 1162.25 1.16247 1.23219 0
M  V30 12418 O 1163.46 1.34431 1.19701 0
M  V30 12419 H 1159.83 0.703661 0.265264 0
M  V30 12420 H 1161.8 2.97659 0.210207 0
M  V30 12421 C 1160.55 2.85686 1.98188 0
M  V30 12422 H 1159.87 3.64971 1.63206 0
M  V30 12423 H 1161.31 3.33259 2.62134 0
M  V30 12424 C 1159.77 1.85837 2.81009 0
M  V30 12425 O 1160.3 1.3483 3.78396 0
M  V30 12426 N 1158.51 1.54435 2.46167 0
M  V30 12427 H 1158.06 1.96107 1.67032 0
M  V30 12428 H 1158.01 0.878808 3.01868 0
M  V30 12429 N 1161.79 -0.095206 1.57312 0
M  V30 12430 C 1163.01 -0.81614 1.90667 0
M  V30 12431 C 1163.44 -1.71494 0.772746 0
M  V30 12432 O 1162.79 -1.79192 -0.275682 0
M  V30 12433 C 1162.84 -1.60555 3.22885 0
M  V30 12434 O 1161.95 -2.71448 3.10467 0
M  V30 12435 H 1161.29 -0.224217 0.624998 0
M  V30 12436 H 1163.82 -0.070464 2.04479 0
M  V30 12437 H 1163.83 -1.98979 3.5619 0
M  V30 12438 H 1162.5 -0.945918 4.05 0
M  V30 12439 H 1161.08 -2.36053 2.88675 0
M  V30 12440 N 1163.26 -1.53291 -0.366026 0
M  V30 12441 C 1164.17 -1.82656 -1.47221 0
M  V30 12442 C 1165.19 -0.71491 -1.58635 0
M  V30 12443 O 1166.37 -1.00492 -1.74538 0
M  V30 12444 C 1163.43 -2.00995 -2.82492 0
M  V30 12445 C 1162.49 -3.24895 -2.8061 0
M  V30 12446 C 1161.73 -3.4235 -4.09429 0
M  V30 12447 O 1161.95 -2.6411 -5.05571 0
M  V30 12448 O 1160.88 -4.35702 -4.15268 0
M  V30 12449 H 1164.71 -2.76634 -1.2533 0
M  V30 12450 H 1162.29 -1.38665 -0.556084 0
M  V30 12451 H 1164.18 -2.14632 -3.62645 0
M  V30 12452 H 1162.85 -1.10207 -3.04362 0
M  V30 12453 H 1161.76 -3.16682 -1.99157 0
M  V30 12454 H 1163.09 -4.15604 -2.63694 0
M  V30 12455 N 1164.74 0.6258 -1.44643 0
M  V30 12456 C 1165.99 1.38251 -1.47414 0
M  V30 12457 C 1166.31 1.94689 -0.110043 0
M  V30 12458 O 1165.58 1.76095 0.858333 0
M  V30 12459 H 1164.16 0.513179 -0.542823 0
M  V30 12460 H 1166.82 0.736179 -1.80462 0
M  V30 12461 H 1165.92 2.21115 -2.2026 0
M  V30 12462 N 1166.22 1.31629 0.866686 0
M  V30 12463 C 1167.15 1.22151 1.99001 0
M  V30 12464 C 1168.13 0.107972 1.69757 0
M  V30 12465 O 1169.32 0.293125 1.91975 0
M  V30 12466 C 1166.45 0.93144 3.34577 0
M  V30 12467 C 1165.4 2.0049 3.78137 0
M  V30 12468 C 1164.73 1.56747 5.11209 0
M  V30 12469 C 1166.03 3.41844 3.94892 0
M  V30 12470 H 1167.72 2.16132 2.0719 0
M  V30 12471 H 1165.27 1.04051 0.995463 0
M  V30 12472 H 1167.22 0.851719 4.12703 0
M  V30 12473 H 1165.94 -0.0440289 3.2657 0
M  V30 12474 H 1164.6 2.07457 3.02253 0
M  V30 12475 H 1164.25 0.579767 4.99648 0
M  V30 12476 H 1163.95 2.28562 5.41326 0
M  V30 12477 H 1165.47 1.50188 5.91841 0
M  V30 12478 H 1166.89 3.37534 4.63405 0
M  V30 12479 H 1165.29 4.11905 4.36411 0
M  V30 12480 H 1166.36 3.82389 2.98172 0
M  V30 12481 N 1167.7 -1.08142 1.14644 0
M  V30 12482 C 1168.93 -1.84318 0.939926 0
M  V30 12483 C 1169.34 -1.81735 -0.511636 0
M  V30 12484 O 1168.7 -1.22297 -1.35461 0
M  V30 12485 C 1168.75 -3.31744 1.43625 0
M  V30 12486 O 1168.47 -3.3435 2.83094 0
M  V30 12487 C 1169.97 -4.24717 1.27007 0
M  V30 12488 H 1167.19 -0.581781 0.334323 0
M  V30 12489 H 1169.74 -1.36561 1.52221 0
M  V30 12490 H 1167.89 -3.7688 0.896664 0
M  V30 12491 H 1168.31 -4.26399 3.05425 0
M  V30 12492 H 1169.78 -5.26262 1.66591 0
M  V30 12493 H 1170.26 -4.38682 0.213257 0
M  V30 12494 H 1170.86 -3.85409 1.79833 0
M  V30 12495 N 1169.18 -0.941978 -1.26351 0
M  V30 12496 C 1170.11 -0.469913 -2.28723 0
M  V30 12497 C 1171.09 0.477218 -1.63269 0
M  V30 12498 O 1172.27 0.378902 -1.90468 0
M  V30 12499 C 1169.4 0.264971 -3.46288 0
M  V30 12500 C 1168.36 -0.595682 -4.23834 0
M  V30 12501 C 1167.68 0.269208 -5.34022 0
M  V30 12502 C 1168.98 -1.86743 -4.87775 0
M  V30 12503 H 1170.68 -1.32551 -2.6846 0
M  V30 12504 H 1168.22 -0.638809 -1.29055 0
M  V30 12505 H 1170.18 0.606259 -4.17016 0
M  V30 12506 H 1168.9 1.15471 -3.05506 0
M  V30 12507 H 1167.56 -0.919875 -3.54872 0
M  V30 12508 H 1167.21 1.15832 -4.89481 0
M  V30 12509 H 1166.91 -0.30325 -5.86817 0
M  V30 12510 H 1168.43 0.605748 -6.07588 0
M  V30 12511 H 1169.85 -1.59333 -5.50714 0
M  V30 12512 H 1168.24 -2.38452 -5.50691 0
M  V30 12513 H 1169.31 -2.57831 -4.10671 0
M  V30 12514 N 1170.66 1.40747 -0.709091 0
M  V30 12515 C 1171.59 2.33404 -0.0669763 0
M  V30 12516 C 1172.57 1.52546 0.752582 0
M  V30 12517 O 1173.75 1.81036 0.702823 0
M  V30 12518 C 1170.88 3.36476 0.860285 0
M  V30 12519 C 1169.84 4.27748 0.146828 0
M  V30 12520 C 1169.16 5.21304 1.18937 0
M  V30 12521 C 1170.46 5.12734 -0.995064 0
M  V30 12522 H 1172.16 2.87349 -0.840888 0
M  V30 12523 H 1169.7 1.38163 -0.405817 0
M  V30 12524 H 1171.65 4.00231 1.31883 0
M  V30 12525 H 1170.38 2.80912 1.66602 0
M  V30 12526 H 1169.04 3.65437 -0.291826 0
M  V30 12527 H 1168.69 4.62048 1.98798 0
M  V30 12528 H 1168.39 5.8321 0.716917 0
M  V30 12529 H 1169.91 5.87936 1.64815 0
M  V30 12530 H 1171.32 5.69979 -0.61618 0
M  V30 12531 H 1169.72 5.83649 -1.39547 0
M  V30 12532 H 1170.79 4.49097 -1.82867 0
M  V30 12533 N 1172.13 0.454803 1.50895 0
M  V30 12534 C 1173.41 -0.166559 1.9489 0
M  V30 12535 C 1173.79 -1.58492 1.3944 0
M  V30 12536 O 1173.14 -2.20788 0.588622 0
M  V30 12537 C 1173.35 -0.126506 3.48771 0
M  V30 12538 C 1174.7 -0.32347 4.23366 0
M  V30 12539 O 1175.72 -0.203835 3.55616 0
M  V30 12540 O 1174.58 -0.563292 5.43589 0
M  V30 12541 H 1171.67 -0.120523 0.818171 0
M  V30 12542 H 1174.22 0.514037 1.61727 0
M  V30 12543 H 1172.99 0.864407 3.81633 0
M  V30 12544 H 1172.61 -0.849264 3.88424 0
M  V30 12545 N 1173.61 -1.56489 0.186789 0
M  V30 12546 C 1174.54 -2.21705 -0.732739 0
M  V30 12547 C 1175.52 -1.17751 -1.22755 0
M  V30 12548 O 1176.71 -1.46231 -1.27789 0
M  V30 12549 C 1173.84 -2.86992 -1.95584 0
M  V30 12550 C 1172.79 -3.97118 -1.59628 0
M  V30 12551 C 1172.12 -4.49529 -2.89531 0
M  V30 12552 C 1173.42 -5.15941 -0.812518 0
M  V30 12553 H 1175.11 -2.98802 -0.189094 0
M  V30 12554 H 1172.66 -1.43722 -0.0895099 0
M  V30 12555 H 1174.61 -3.31295 -2.60426 0
M  V30 12556 H 1173.33 -2.07287 -2.52388 0
M  V30 12557 H 1171.99 -3.53494 -0.971475 0
M  V30 12558 H 1171.64 -3.66596 -3.44407 0
M  V30 12559 H 1171.34 -5.23832 -2.66221 0
M  V30 12560 H 1172.87 -4.96528 -3.55376 0
M  V30 12561 H 1174.28 -5.56841 -1.36386 0
M  V30 12562 H 1172.68 -5.96259 -0.677862 0
M  V30 12563 H 1173.75 -4.84535 0.188095 0
M  V30 12564 N 1175.09 0.086862 -1.5736 0
M  V30 12565 C 1176.02 1.10538 -2.05678 0
M  V30 12566 C 1177 1.41281 -0.947293 0
M  V30 12567 O 1178.19 1.51169 -1.21908 0
M  V30 12568 C 1175.32 2.42302 -2.48812 0
M  V30 12569 C 1174.27 2.25948 -3.63499 0
M  V30 12570 C 1173.6 3.62961 -3.92637 0
M  V30 12571 C 1174.9 1.69319 -4.94094 0
M  V30 12572 H 1176.59 0.703371 -2.91021 0
M  V30 12573 H 1174.14 0.336895 -1.40004 0
M  V30 12574 H 1176.09 3.13833 -2.81224 0
M  V30 12575 H 1174.81 2.84454 -1.60479 0
M  V30 12576 H 1173.47 1.5686 -3.31347 0
M  V30 12577 H 1173.12 4.02656 -3.01459 0
M  V30 12578 H 1172.82 3.52862 -4.69853 0
M  V30 12579 H 1174.34 4.35946 -4.27531 0
M  V30 12580 H 1175.76 2.30699 -5.24834 0
M  V30 12581 H 1174.15 1.69957 -5.7553 0
M  V30 12582 H 1175.22 0.653318 -4.80479 0
M  V30 12583 N 1176.57 1.53483 0.357892 0
M  V30 12584 C 1177.79 1.74264 1.12458 0
M  V30 12585 C 1178.22 0.473944 1.82031 0
M  V30 12586 O 1177.58 -0.57253 1.72023 0
M  V30 12587 C 1177.62 2.91356 2.12471 0
M  V30 12588 O 1176.73 2.60502 3.19707 0
M  V30 12589 H 1176.07 0.578499 0.325937 0
M  V30 12590 H 1178.6 2.00395 0.412666 0
M  V30 12591 H 1178.61 3.1774 2.5594 0
M  V30 12592 H 1177.28 3.83378 1.61226 0
M  V30 12593 H 1175.86 2.44961 2.81156 0
M  V30 12594 N 1178.05 -0.61812 1.44973 0
M  V30 12595 C 1179.29 -1.3774 1.48439 0
M  V30 12596 C 1179.62 -1.94117 0.121999 0
M  V30 12597 O 1178.88 -1.749 -0.877974 0
M  V30 12598 C 1179.17 -2.55143 2.50274 0
M  V30 12599 C 1178.84 -2.16976 3.95262 0
M  V30 12600 C 1177.5 -2.06281 4.34743 0
M  V30 12601 C 1179.85 -1.8703 4.86486 0
M  V30 12602 C 1177.18 -1.63846 5.63357 0
M  V30 12603 C 1179.53 -1.46085 6.15501 0
M  V30 12604 C 1178.2 -1.3394 6.53924 0
M  V30 12605 H 1177.47 -0.504026 0.543175 0
M  V30 12606 H 1180.12 -0.699685 1.7826 0
M  V30 12607 H 1178.42 -3.28205 2.13983 0
M  V30 12608 H 1180.12 -3.13373 2.50197 0
M  V30 12609 H 1176.71 -2.26223 3.64034 0
M  V30 12610 H 1180.89 -1.94196 4.56729 0
M  V30 12611 H 1176.15 -1.53058 5.91932 0
M  V30 12612 H 1180.32 -1.21956 6.85638 0
M  V30 12613 H 1177.95 -1.00832 7.53483 0
M  V30 12614 N 1179.52 -1.32087 -0.859693 0
M  V30 12615 C 1180.75 -1.25348 -1.64607 0
M  V30 12616 C 1181.17 0.179425 -1.87945 0
M  V30 12617 O 1180.52 1.11487 -1.44489 0
M  V30 12618 C 1180.57 -2.0047 -3.00822 0
M  V30 12619 O 1180.3 -3.38169 -2.7852 0
M  V30 12620 C 1181.8 -2.00694 -3.95268 0
M  V30 12621 H 1179.02 -0.432692 -0.512854 0
M  V30 12622 H 1181.56 -1.7413 -1.07234 0
M  V30 12623 H 1179.72 -1.55423 -3.54855 0
M  V30 12624 H 1180.13 -3.76553 -3.65113 0
M  V30 12625 H 1181.6 -2.57748 -4.88129 0
M  V30 12626 H 1182.08 -0.99196 -4.27851 0
M  V30 12627 H 1182.69 -2.45666 -3.47172 0
M  V30 12628 N 1181 1.07532 -1.15215 0
M  V30 12629 C 1182.23 1.8355 -0.94831 0
M  V30 12630 C 1182.64 1.82289 0.506701 0
M  V30 12631 O 1181.98 1.23142 1.36314 0
M  V30 12632 C 1182.04 3.31834 -1.38298 0
M  V30 12633 C 1181.71 3.56818 -2.85535 0
M  V30 12634 C 1182.71 3.50915 -3.83608 0
M  V30 12635 C 1180.39 3.84543 -3.23159 0
M  V30 12636 C 1182.38 3.72382 -5.17311 0
M  V30 12637 C 1180.07 4.05662 -4.57036 0
M  V30 12638 C 1181.07 3.99576 -5.53921 0
M  V30 12639 O 1180.76 4.20132 -6.85379 0
M  V30 12640 H 1180.49 0.586014 -0.336992 0
M  V30 12641 H 1183.04 1.36656 -1.53344 0
M  V30 12642 H 1181.27 3.79529 -0.741244 0
M  V30 12643 H 1182.96 3.89312 -1.14853 0
M  V30 12644 H 1183.73 3.295 -3.55886 0
M  V30 12645 H 1179.61 3.88395 -2.48335 0
M  V30 12646 H 1183.15 3.67547 -5.92921 0
M  V30 12647 H 1179.05 4.26563 -4.84473 0
M  V30 12648 H 1179.82 4.3749 -6.91769 0
M  V30 12649 N 1182.48 0.948665 1.2585 0
M  V30 12650 C 1183.41 0.421458 2.25292 0
M  V30 12651 C 1184.43 -0.459389 1.56184 0
M  V30 12652 O 1185.61 -0.268627 1.76467 0
M  V30 12653 C 1182.71 -0.412653 3.36378 0
M  V30 12654 C 1181.89 0.453792 4.3504 0
M  V30 12655 C 1180.95 -0.321127 5.25219 0
M  V30 12656 O 1179.97 0.278424 5.68519 0
M  V30 12657 N 1181.17 -1.61576 5.5756 0
M  V30 12658 H 1183.94 1.27636 2.71162 0
M  V30 12659 H 1181.5 0.818367 1.39694 0
M  V30 12660 H 1183.49 -0.938637 3.93664 0
M  V30 12661 H 1182.06 -1.16839 2.89944 0
M  V30 12662 H 1181.28 1.16093 3.76718 0
M  V30 12663 H 1182.57 1.04538 4.97945 0
M  V30 12664 H 1181.97 -2.12488 5.24276 0
M  V30 12665 H 1180.53 -2.08783 6.17457 0
M  V30 12666 N 1183.96 -1.40369 0.716545 0
M  V30 12667 C 1185.2 -2.01167 0.256846 0
M  V30 12668 C 1185.54 -1.56689 -1.14727 0
M  V30 12669 O 1184.81 -0.787384 -1.7785 0
M  V30 12670 C 1185.1 -3.58511 0.337963 0
M  V30 12671 C 1184.95 -4.13059 1.78052 0
M  V30 12672 C 1186.27 -4.39142 -0.290295 0
M  V30 12673 H 1183.39 -0.730877 0.0948028 0
M  V30 12674 H 1186.03 -1.66833 0.909225 0
M  V30 12675 H 1184.18 -3.87891 -0.217482 0
M  V30 12676 H 1185.85 -3.94472 2.39143 0
M  V30 12677 H 1184.09 -3.67311 2.30793 0
M  V30 12678 H 1184.76 -5.22217 1.78867 0
M  V30 12679 H 1187.24 -4.15697 0.182987 0
M  V30 12680 H 1186.12 -5.48524 -0.203097 0
M  V30 12681 H 1186.38 -4.20209 -1.37394 0
M  V30 12682 N 1185.44 -0.462799 -1.50652 0
M  V30 12683 C 1186.4 0.324264 -2.26895 0
M  V30 12684 C 1187.4 0.927687 -1.31342 0
M  V30 12685 O 1188.59 0.798159 -1.54839 0
M  V30 12686 C 1185.72 1.46113 -3.08 0
M  V30 12687 H 1186.91 -0.344266 -2.97917 0
M  V30 12688 H 1184.47 -0.216631 -1.54791 0
M  V30 12689 H 1185.2 2.16496 -2.41454 0
M  V30 12690 H 1184.99 1.03433 -3.78212 0
M  V30 12691 H 1186.48 2.01655 -3.65684 0
M  V30 12692 N 1186.91 1.56388 -0.195085 0
M  V30 12693 C 1188.33 1.58788 0.160758 0
M  V30 12694 C 1188.53 1.21125 1.61031 0
M  V30 12695 O 1187.59 0.933994 2.34591 0
M  V30 12696 C 1188.9 3.00366 -0.141588 0
M  V30 12697 C 1190.45 3.12893 -0.0816947 0
M  V30 12698 C 1190.92 4.56604 -0.35735 0
M  V30 12699 N 1192.41 4.62188 -0.305968 0
M  V30 12700 C 1193.15 5.71276 -0.493108 0
M  V30 12701 N 1192.64 6.8883 -0.740595 0
M  V30 12702 N 1194.44 5.60473 -0.427365 0
M  V30 12703 H 1186.59 1.79151 -1.14099 0
M  V30 12704 H 1188.85 0.831446 -0.455413 0
M  V30 12705 H 1188.56 3.32483 -1.14666 0
M  V30 12706 H 1188.43 3.73082 0.555834 0
M  V30 12707 H 1190.82 2.80589 0.913978 0
M  V30 12708 H 1190.9 2.42564 -0.812193 0
M  V30 12709 H 1190.54 4.8962 -1.35034 0
M  V30 12710 H 1190.47 5.25124 0.394036 0
M  V30 12711 H 1192.96 3.77705 -0.121298 0
M  V30 12712 H 1193.28 7.67862 -0.872201 0
M  V30 12713 H 1191.62 6.90637 -0.777488 0
M  V30 12714 H 1194.81 4.67513 -0.234436 0
M  V30 12715 H 1194.99 6.45429 -0.576627 0
M  V30 12716 N 1188.39 -0.0785156 1.57404 0
M  V30 12717 C 1189.64 -0.777399 1.8655 0
M  V30 12718 C 1189.96 -1.78451 0.786142 0
M  V30 12719 O 1189.23 -1.95016 -0.185911 0
M  V30 12720 H 1187.81 -0.290097 0.688369 0
M  V30 12721 H 1190.47 -0.0562017 1.94819 0
M  V30 12722 H 1189.57 -1.29776 2.83839 0
M  V30 12723 N 1189.87 -1.5367 -0.349747 0
M  V30 12724 C 1190.8 -1.7603 -1.4522 0
M  V30 12725 C 1191.78 -0.609171 -1.50758 0
M  V30 12726 O 1192.97 -0.843613 -1.68569 0
M  V30 12727 C 1190.09 -1.85336 -2.83493 0
M  V30 12728 C 1189.14 -3.07438 -2.95608 0
M  V30 12729 S 1189.97 -4.66625 -2.62719 0
M  V30 12730 C 1191.13 -4.78802 -4.03112 0
M  V30 12731 H 1191.36 -2.69263 -1.26035 0
M  V30 12732 H 1188.89 -1.4446 -0.545044 0
M  V30 12733 H 1190.85 -1.91383 -3.63157 0
M  V30 12734 H 1189.51 -0.931267 -2.99977 0
M  V30 12735 H 1188.71 -3.10606 -3.96913 0
M  V30 12736 H 1188.31 -2.99585 -2.23886 0
M  V30 12737 H 1190.6 -4.5983 -4.97557 0
M  V30 12738 H 1191.54 -5.80886 -4.04941 0
M  V30 12739 H 1191.95 -4.07305 -3.90849 0
M  V30 12740 N 1191.35 0.610423 -1.45298 0
M  V30 12741 C 1192.26 1.74964 -1.56285 0
M  V30 12742 C 1193.27 1.68149 -0.447436 0
M  V30 12743 O 1194.45 1.88556 -0.707725 0
M  V30 12744 C 1191.52 3.11417 -1.52383 0
M  V30 12745 C 1190.58 3.29707 -2.7494 0
M  V30 12746 C 1189.81 4.5965 -2.71215 0
M  V30 12747 O 1190.03 5.41789 -1.78383 0
M  V30 12748 O 1188.97 4.80591 -3.62375 0
M  V30 12749 H 1192.79 1.68646 -2.52571 0
M  V30 12750 H 1190.38 0.774168 -1.27777 0
M  V30 12751 H 1192.26 3.9272 -1.52805 0
M  V30 12752 H 1190.93 3.18232 -0.592472 0
M  V30 12753 H 1189.84 2.48003 -2.80081 0
M  V30 12754 H 1191.17 3.27766 -3.67192 0
M  V30 12755 N 1192.83 1.32541 0.852676 0
M  V30 12756 C 1194.07 1.23214 1.607 0
M  V30 12757 C 1194.4 -0.205542 1.93411 0
M  V30 12758 O 1193.66 -1.15907 1.57683 0
M  V30 12759 C 1193.96 2.039 2.9353 0
M  V30 12760 C 1193.62 3.53237 2.8024 0
M  V30 12761 C 1192.28 3.93953 2.76323 0
M  V30 12762 C 1194.64 4.48194 2.6603 0
M  V30 12763 C 1191.96 5.27865 2.56077 0
M  V30 12764 C 1194.32 5.82251 2.47319 0
M  V30 12765 C 1192.98 6.22166 2.41796 0
M  V30 12766 H 1192.25 0.450873 0.588043 0
M  V30 12767 H 1194.9 1.63988 0.988954 0
M  V30 12768 H 1193.2 1.55861 3.59464 0
M  V30 12769 H 1194.9 1.94051 3.50921 0
M  V30 12770 H 1191.49 3.209 2.84114 0
M  V30 12771 H 1195.67 4.17656 2.681 0
M  V30 12772 H 1190.93 5.57845 2.50237 0
M  V30 12773 H 1195.1 6.55442 2.35305 0
M  V30 12774 H 1192.73 7.2587 2.25868 0
M  V30 12775 N 1194.3 -1.0692 1.15784 0
M  V30 12776 C 1195.23 -2.16216 0.881649 0
M  V30 12777 C 1196.22 -1.69253 -0.16951 0
M  V30 12778 O 1197.4 -1.94186 -0.0229511 0
M  V30 12779 C 1194.53 -3.4527 0.374982 0
M  V30 12780 C 1193.48 -4.05706 1.36332 0
M  V30 12781 C 1192.81 -5.29894 0.715317 0
M  V30 12782 C 1194.11 -4.45224 2.7308 0
M  V30 12783 H 1195.8 -2.39577 1.79563 0
M  V30 12784 H 1193.35 -1.15141 0.864784 0
M  V30 12785 H 1195.3 -4.2106 0.169279 0
M  V30 12786 H 1194.03 -3.21508 -0.574485 0
M  V30 12787 H 1192.69 -3.31965 1.55546 0
M  V30 12788 H 1192.33 -5.02425 -0.240436 0
M  V30 12789 H 1192.03 -5.71287 1.37494 0
M  V30 12790 H 1193.56 -6.08386 0.519489 0
M  V30 12791 H 1194.97 -5.12124 2.57686 0
M  V30 12792 H 1193.37 -4.97583 3.35457 0
M  V30 12793 H 1194.44 -3.56384 3.28813 0
M  V30 12794 N 1195.78 -0.955326 -1.25345 0
M  V30 12795 C 1196.75 -0.480564 -2.24105 0
M  V30 12796 C 1197.75 0.416123 -1.55322 0
M  V30 12797 O 1198.94 0.213315 -1.72889 0
M  V30 12798 C 1196.07 0.305589 -3.39528 0
M  V30 12799 H 1197.26 -1.35349 -2.6762 0
M  V30 12800 H 1194.81 -0.738673 -1.37744 0
M  V30 12801 H 1195.55 1.19615 -3.01434 0
M  V30 12802 H 1195.33 -0.337719 -3.90643 0
M  V30 12803 H 1196.82 0.627201 -4.12863 0
M  V30 12804 N 1197.26 1.39987 -0.723979 0
M  V30 12805 C 1198.49 2.0556 -0.275634 0
M  V30 12806 C 1198.91 1.54207 1.07711 0
M  V30 12807 O 1198.27 0.681041 1.68022 0
M  V30 12808 C 1198.32 3.59551 -0.27485 0
M  V30 12809 O 1197.42 4.05685 0.741182 0
M  V30 12810 H 1196.76 0.651634 -0.12755 0
M  V30 12811 H 1199.29 1.79229 -0.986814 0
M  V30 12812 H 1199.3 4.07837 -0.115425 0
M  V30 12813 H 1197.98 3.96291 -1.26198 0
M  V30 12814 H 1196.55 3.6884 0.548795 0
M  V30 12815 N 1198.74 0.470782 1.50404 0
M  V30 12816 C 1199.69 -0.32355 2.28521 0
M  V30 12817 C 1200.66 -0.987472 1.3356 0
M  V30 12818 O 1201.84 -0.999969 1.62497 0
M  V30 12819 C 1198.98 -1.39977 3.15437 0
M  V30 12820 C 1198.09 -0.750656 4.25428 0
M  V30 12821 C 1197.23 -1.80474 4.99602 0
M  V30 12822 C 1196.27 -1.13586 6.01469 0
M  V30 12823 N 1195.41 -2.13279 6.68922 0
M  V30 12824 H 1200.25 0.348902 2.9595 0
M  V30 12825 H 1197.78 0.183908 1.45946 0
M  V30 12826 H 1199.74 -2.0354 3.6418 0
M  V30 12827 H 1198.37 -2.04139 2.50054 0
M  V30 12828 H 1197.42 -0.00247092 3.804 0
M  V30 12829 H 1198.73 -0.222638 4.98303 0
M  V30 12830 H 1197.89 -2.51619 5.52062 0
M  V30 12831 H 1196.63 -2.36657 4.26433 0
M  V30 12832 H 1195.63 -0.410042 5.48269 0
M  V30 12833 H 1196.86 -0.580935 6.76611 0
M  V30 12834 H 1194.8 -2.68479 5.98544 0
M  V30 12835 H 1194.72 -1.65461 7.37671 0
M  V30 12836 H 1195.99 -2.83804 7.26 0
M  V30 12837 N 1200.22 -1.56282 0.203376 0
M  V30 12838 C 1201.17 -2.20822 -0.730784 0
M  V30 12839 C 1202.16 -1.18193 -1.21354 0
M  V30 12840 O 1203.37 -1.36318 -1.17547 0
M  V30 12841 H 1199.74 -0.707792 -0.254036 0
M  V30 12842 H 1201.71 -2.97955 -0.162825 0
M  V30 12843 C 1200.46 -2.88803 -1.93618 0
M  V30 12844 H 1199.78 -3.67521 -1.57379 0
M  V30 12845 H 1201.22 -3.37387 -2.56799 0
M  V30 12846 C 1199.68 -1.90285 -2.78017 0
M  V30 12847 O 1200.21 -1.40833 -3.76203 0
M  V30 12848 N 1198.42 -1.58332 -2.43679 0
M  V30 12849 H 1197.97 -1.9874 -1.63891 0
M  V30 12850 H 1197.92 -0.926722 -3.00432 0
M  V30 12851 N 1201.7 0.070167 -1.57444 0
M  V30 12852 C 1202.94 0.774338 -1.89165 0
M  V30 12853 C 1203.3 1.7466 -0.797353 0
M  V30 12854 O 1204.5 2.49599 -0.997682 0
M  V30 12855 C 1202.77 1.46235 -3.26114 0
M  V30 12856 S 1204.33 2.20136 -3.79586 0
M  V30 12857 H 1201.15 0.257464 -0.662747 0
M  V30 12858 H 1203.75 0.0303734 -1.95476 0
M  V30 12859 H 1202.45 0.740942 -4.03656 0
M  V30 12860 H 1201.99 2.24571 -3.23004 0
M  V30 12861 H 1204 3.4668 -3.55003 0
M  V30 12862 N 1203.17 1.53854 0.341593 0
M  V30 12863 C 1204.42 1.71447 1.08322 0
M  V30 12864 C 1204.75 0.477289 1.88243 0
M  V30 12865 O 1204.03 -0.525695 1.87261 0
M  V30 12866 C 1204.31 2.97917 2.02281 0
M  V30 12867 C 1204.16 4.31847 1.25809 0
M  V30 12868 C 1205.48 3.20065 3.0207 0
M  V30 12869 H 1202.6 0.623847 0.392408 0
M  V30 12870 H 1205.24 1.86527 0.361594 0
M  V30 12871 H 1203.39 2.85191 2.63815 0
M  V30 12872 H 1205.07 4.56427 0.668737 0
M  V30 12873 H 1203.31 4.30169 0.560119 0
M  V30 12874 H 1203.98 5.16522 1.94704 0
M  V30 12875 H 1206.46 3.32135 2.50651 0
M  V30 12876 H 1205.33 4.09947 3.65013 0
M  V30 12877 H 1205.59 2.36452 3.73554 0
M  V30 12878 N 1204.65 -0.602709 1.4562 0
M  V30 12879 C 1205.6 -1.70753 1.51088 0
M  V30 12880 C 1206.59 -1.56501 0.373662 0
M  V30 12881 O 1207.78 -1.65755 0.620828 0
M  V30 12882 C 1204.91 -3.09515 1.48511 0
M  V30 12883 C 1203.99 -3.29135 2.67453 0
M  V30 12884 N 1204.38 -3.18996 3.92524 0
M  V30 12885 C 1202.68 -3.60019 2.63253 0
M  V30 12886 C 1203.38 -3.40079 4.71933 0
M  V30 12887 N 1202.36 -3.64299 4.03469 0
M  V30 12888 H 1206.16 -1.61414 2.45607 0
M  V30 12889 H 1203.67 -0.806122 1.4098 0
M  V30 12890 H 1205.67 -3.88782 1.50513 0
M  V30 12891 H 1204.33 -3.19999 0.550526 0
M  V30 12892 H 1205.34 -2.97292 4.24073 0
M  V30 12893 H 1202.02 -3.77311 1.78725 0
M  V30 12894 H 1203.41 -3.37593 5.80931 0
M  V30 12895 N 1206.13 -1.32992 -0.845635 0
M  V30 12896 C 1207.55 -1.12179 -1.13526 0
M  V30 12897 C 1207.75 0.091795 -2.01291 0
M  V30 12898 O 1206.8 0.774051 -2.40343 0
M  V30 12899 C 1208.11 -2.40584 -1.80388 0
M  V30 12900 C 1209.66 -2.46427 -1.92984 0
M  V30 12901 C 1210.14 -3.74776 -2.63261 0
M  V30 12902 N 1211.63 -3.75809 -2.7078 0
M  V30 12903 C 1212.36 -4.71829 -3.2583 0
M  V30 12904 N 1211.86 -5.78219 -3.81621 0
M  V30 12905 N 1213.65 -4.59313 -3.24018 0
M  V30 12906 H 1205.8 -2.10786 -0.261369 0
M  V30 12907 H 1208.07 -0.931053 -0.17845 0
M  V30 12908 H 1207.77 -3.29357 -1.23357 0
M  V30 12909 H 1207.65 -2.52225 -2.80468 0
M  V30 12910 H 1210.03 -1.58108 -2.4917 0
M  V30 12911 H 1210.11 -2.38732 -0.918732 0
M  V30 12912 H 1209.76 -4.63474 -2.07736 0
M  V30 12913 H 1209.69 -3.79746 -3.6483 0
M  V30 12914 H 1212.18 -2.98916 -2.31209 0
M  V30 12915 H 1212.49 -6.47531 -4.2181 0
M  V30 12916 H 1210.84 -5.81962 -3.79927 0
M  V30 12917 H 1214.03 -3.75358 -2.79685 0
M  V30 12918 H 1214.2 -5.34316 -3.6662 0
M  V30 12919 N 1207.61 1.06304 -1.1635 0
M  V30 12920 C 1208.88 1.75916 -0.855166 0
M  V30 12921 C 1209.26 2.0094 0.647024 0
M  V30 12922 O 1208.61 1.63642 1.59479 0
M  V30 12923 C 1208.82 3.06028 -1.67774 0
M  V30 12924 C 1210.17 3.80184 -1.89065 0
M  V30 12925 O 1211.19 3.15868 -1.64639 0
M  V30 12926 O 1210.05 4.95723 -2.30045 0
M  V30 12927 H 1207.15 0.764432 -0.315551 0
M  V30 12928 H 1209.69 1.12574 -1.26985 0
M  V30 12929 H 1208.47 2.83498 -2.69712 0
M  V30 12930 H 1208.09 3.77104 -1.26009 0
M  V30 12931 N 1209.09 0.96196 1.24836 0
M  V30 12932 C 1210.02 0.506241 2.27946 0
M  V30 12933 C 1211 -0.451183 1.64007 0
M  V30 12934 O 1212.18 -0.348552 1.91046 0
M  V30 12935 C 1209.31 -0.209846 3.46665 0
M  V30 12936 C 1208.27 0.663035 4.22833 0
M  V30 12937 C 1207.59 -0.184216 5.34383 0
M  V30 12938 C 1208.89 1.94479 4.84742 0
M  V30 12939 H 1210.59 1.36805 2.66317 0
M  V30 12940 H 1208.13 0.65926 1.28023 0
M  V30 12941 H 1210.08 -0.539838 4.17928 0
M  V30 12942 H 1208.81 -1.10596 3.07305 0
M  V30 12943 H 1207.47 0.976216 3.53363 0
M  V30 12944 H 1207.12 -1.08031 4.91262 0
M  V30 12945 H 1206.82 0.39657 5.8626 0
M  V30 12946 H 1208.34 -0.509009 6.08475 0
M  V30 12947 H 1209.75 1.68074 5.48109 0
M  V30 12948 H 1208.15 2.47183 5.46828 0
M  V30 12949 H 1209.22 2.64332 4.06517 0
M  V30 12950 N 1210.56 -1.39601 0.731392 0
M  V30 12951 C 1211.53 -2.28992 0.0976037 0
M  V30 12952 C 1212.53 -1.46135 -0.670917 0
M  V30 12953 O 1213.72 -1.66856 -0.50047 0
M  V30 12954 C 1210.85 -3.29582 -0.871124 0
M  V30 12955 H 1212.04 -2.86541 0.885112 0
M  V30 12956 H 1209.59 -1.48188 0.497002 0
M  V30 12957 H 1210.33 -2.77082 -1.68512 0
M  V30 12958 H 1210.11 -3.9077 -0.322735 0
M  V30 12959 H 1211.6 -3.96479 -1.31126 0
M  V30 12960 N 1212.04 -0.478751 -1.50152 0
M  V30 12961 C 1213.01 0.300181 -2.27226 0
M  V30 12962 C 1214.01 0.913705 -1.32318 0
M  V30 12963 O 1215.2 0.781692 -1.55677 0
M  V30 12964 C 1212.33 1.42838 -3.09532 0
M  V30 12965 H 1213.52 -0.375845 -2.97536 0
M  V30 12966 H 1211.07 -0.233037 -1.54553 0
M  V30 12967 H 1211.81 2.13923 -2.43737 0
M  V30 12968 H 1211.59 0.994161 -3.79287 0
M  V30 12969 H 1213.08 1.97765 -3.67802 0
M  V30 12970 N 1213.52 1.56172 -0.211661 0
M  V30 12971 C 1214.94 1.5895 0.143907 0
M  V30 12972 C 1215.14 1.22826 1.59737 0
M  V30 12973 O 1214.19 0.958823 2.33587 0
M  V30 12974 C 1215.51 3.00199 -0.173438 0
M  V30 12975 C 1217.05 3.12789 -0.114877 0
M  V30 12976 C 1217.53 4.56199 -0.405759 0
M  V30 12977 N 1219.02 4.61838 -0.354973 0
M  V30 12978 C 1219.75 5.70721 -0.553671 0
M  V30 12979 N 1219.25 6.88006 -0.813613 0
M  V30 12980 N 1221.04 5.59988 -0.486787 0
M  V30 12981 H 1213.19 1.77931 -1.15993 0
M  V30 12982 H 1215.46 0.826569 -0.464206 0
M  V30 12983 H 1215.16 3.31248 -1.18186 0
M  V30 12984 H 1215.04 3.73651 0.516232 0
M  V30 12985 H 1217.42 2.81543 0.884166 0
M  V30 12986 H 1217.51 2.41688 -0.837875 0
M  V30 12987 H 1217.15 4.88161 -1.40219 0
M  V30 12988 H 1217.08 5.25512 0.338318 0
M  V30 12989 H 1219.57 3.77555 -0.161352 0
M  V30 12990 H 1219.88 7.66894 -0.953594 0
M  V30 12991 H 1218.23 6.89774 -0.850696 0
M  V30 12992 H 1221.42 4.67238 -0.284009 0
M  V30 12993 H 1221.59 6.44781 -0.645051 0
M  V30 12994 N 1215 -0.0618163 1.57479 0
M  V30 12995 C 1215.95 -1.09105 2.05424 0
M  V30 12996 C 1216.94 -1.3947 0.961479 0
M  V30 12997 O 1218.15 -1.3876 1.14655 0
M  V30 12998 H 1214.52 -0.36923 0.655113 0
M  V30 12999 H 1216.49 -0.66061 2.90996 0
M  V30 13000 C 1215.24 -2.39345 2.52209 0
M  V30 13001 H 1214.56 -2.16832 3.35893 0
M  V30 13002 H 1216 -3.09784 2.89499 0
M  V30 13003 C 1214.46 -3.06011 1.40922 0
M  V30 13004 O 1214.99 -3.94504 0.756921 0
M  V30 13005 N 1213.2 -2.66797 1.15186 0
M  V30 13006 H 1212.75 -1.94923 1.68412 0
M  V30 13007 H 1212.7 -3.11724 0.409324 0
M  V30 13008 N 1216.48 -1.54033 -0.333429 0
M  V30 13009 C 1217.72 -1.72019 -1.07411 0
M  V30 13010 C 1218.06 -0.487265 -1.87988 0
M  V30 13011 O 1217.33 0.515757 -1.87537 0
M  V30 13012 C 1217.61 -2.98986 -2.00698 0
M  V30 13013 C 1217.47 -4.32509 -1.23517 0
M  V30 13014 C 1218.79 -3.21663 -3.00368 0
M  V30 13015 H 1215.9 -0.625919 -0.389094 0
M  V30 13016 H 1218.55 -1.86717 -0.351697 0
M  V30 13017 H 1216.7 -2.86586 -2.62298 0
M  V30 13018 H 1218.37 -4.56775 -0.644522 0
M  V30 13019 H 1216.61 -4.3046 -0.537298 0
M  V30 13020 H 1217.28 -5.17547 -1.91962 0
M  V30 13021 H 1219.76 -3.33459 -2.48886 0
M  V30 13022 H 1218.63 -4.11877 -3.62834 0
M  V30 13023 H 1218.9 -2.3843 -3.72295 0
M  V30 13024 N 1217.95 0.594978 -1.45938 0
M  V30 13025 C 1218.88 1.71536 -1.58422 0
M  V30 13026 C 1219.87 1.64441 -0.435116 0
M  V30 13027 O 1221.05 1.82647 -0.659839 0
M  V30 13028 C 1218.18 3.10163 -1.56257 0
M  V30 13029 C 1217.13 3.3208 -2.70013 0
M  V30 13030 C 1216.46 4.71108 -2.52905 0
M  V30 13031 C 1217.76 3.21105 -4.11933 0
M  V30 13032 H 1219.45 1.61344 -2.52207 0
M  V30 13033 H 1217 0.774791 -1.2138 0
M  V30 13034 H 1218.95 3.88352 -1.63587 0
M  V30 13035 H 1217.68 3.21225 -0.590093 0
M  V30 13036 H 1216.34 2.56286 -2.62132 0
M  V30 13037 H 1215.98 4.7892 -1.53768 0
M  V30 13038 H 1215.68 4.86727 -3.29197 0
M  V30 13039 H 1217.21 5.51482 -2.62107 0
M  V30 13040 H 1218.62 3.89153 -4.2099 0
M  V30 13041 H 1217.02 3.4825 -4.88715 0
M  V30 13042 H 1218.09 2.18359 -4.32952 0
M  V30 13043 N 1219.43 1.33438 0.838571 0
M  V30 13044 C 1220.36 1.26344 1.96365 0
M  V30 13045 C 1221.34 0.143956 1.6949 0
M  V30 13046 O 1222.53 0.333779 1.9131 0
M  V30 13047 C 1219.66 1.0022 3.32526 0
M  V30 13048 C 1218.61 2.08466 3.73799 0
M  V30 13049 C 1217.94 1.67555 5.07769 0
M  V30 13050 C 1219.24 3.50144 3.87552 0
M  V30 13051 H 1220.93 2.20478 2.02558 0
M  V30 13052 H 1218.48 1.06139 0.973168 0
M  V30 13053 H 1220.43 0.939068 4.10803 0
M  V30 13054 H 1219.16 0.0252514 3.2659 0
M  V30 13055 H 1217.81 2.13822 2.97785 0
M  V30 13056 H 1217.46 0.685619 4.98305 0
M  V30 13057 H 1217.16 2.39993 5.36356 0
M  V30 13058 H 1218.69 1.62708 5.88522 0
M  V30 13059 H 1220.1 3.47287 4.56141 0
M  V30 13060 H 1218.5 4.21069 4.27575 0
M  V30 13061 H 1219.57 3.88628 2.89994 0
M  V30 13062 N 1220.91 -1.05686 1.16912 0
M  V30 13063 C 1221.87 -2.11481 0.883647 0
M  V30 13064 C 1222.87 -1.60321 -0.124034 0
M  V30 13065 O 1224.06 -1.73868 0.107566 0
M  V30 13066 C 1221.2 -3.3937 0.322649 0
M  V30 13067 H 1222.39 -2.38239 1.8216 0
M  V30 13068 H 1219.94 -1.2185 0.978895 0
M  V30 13069 H 1220.68 -3.18266 -0.622695 0
M  V30 13070 H 1220.46 -3.77812 1.04883 0
M  V30 13071 H 1221.95 -4.17362 0.141072 0
M  V30 13072 N 1222.39 -0.968567 -1.24324 0
M  V30 13073 C 1223.32 -0.457247 -2.24593 0
M  V30 13074 C 1224.33 0.434483 -1.56895 0
M  V30 13075 O 1225.52 0.240519 -1.76872 0
M  V30 13076 C 1222.62 0.359086 -3.36992 0
M  V30 13077 C 1221.8 -0.522945 -4.34263 0
M  V30 13078 C 1220.85 0.237528 -5.25664 0
M  V30 13079 O 1219.88 -0.368835 -5.68004 0
M  V30 13080 N 1221.08 1.52686 -5.6006 0
M  V30 13081 H 1223.85 -1.31934 -2.69098 0
M  V30 13082 H 1221.41 -0.840488 -1.38374 0
M  V30 13083 H 1223.4 0.87589 -3.95108 0
M  V30 13084 H 1221.97 1.12212 -2.91766 0
M  V30 13085 H 1221.19 -1.22071 -3.74823 0
M  V30 13086 H 1222.48 -1.12447 -4.96219 0
M  V30 13087 H 1221.88 2.0412 -5.2759 0
M  V30 13088 H 1220.43 1.98934 -6.207 0
M  V30 13089 N 1223.87 1.39211 -0.738786 0
M  V30 13090 C 1225.11 2.0004 -0.28782 0
M  V30 13091 C 1225.44 1.58921 1.13 0
M  V30 13092 O 1224.71 0.839193 1.77015 0
M  V30 13093 H 1223.29 0.739805 -0.103425 0
M  V30 13094 H 1225.95 1.70202 -0.949587 0
M  V30 13095 H 1225.04 3.10251 -0.339208 0
M  V30 13096 N 1225.34 0.486708 1.49896 0
M  V30 13097 C 1226.29 -0.299294 2.28851 0
M  V30 13098 C 1227.26 -0.973251 1.346 0
M  V30 13099 O 1228.45 -0.982678 1.63548 0
M  V30 13100 C 1225.59 -1.36624 3.16904 0
M  V30 13101 C 1224.7 -0.705492 4.262 0
M  V30 13102 C 1223.83 -1.75165 5.01488 0
M  V30 13103 C 1222.87 -1.072 6.0264 0
M  V30 13104 N 1222.01 -2.06172 6.71147 0
M  V30 13105 H 1226.85 0.380272 2.95564 0
M  V30 13106 H 1224.39 0.199377 1.45743 0
M  V30 13107 H 1226.35 -1.99666 3.66319 0
M  V30 13108 H 1224.98 -2.01476 2.52205 0
M  V30 13109 H 1224.03 0.0378757 3.80381 0
M  V30 13110 H 1225.34 -0.169774 4.98511 0
M  V30 13111 H 1224.49 -2.45749 5.547 0
M  V30 13112 H 1223.23 -2.3212 4.28919 0
M  V30 13113 H 1222.24 -0.351868 5.48673 0
M  V30 13114 H 1223.46 -0.509139 6.77189 0
M  V30 13115 H 1221.41 -2.62115 6.01358 0
M  V30 13116 H 1221.33 -1.57627 7.39385 0
M  V30 13117 H 1222.59 -2.76088 7.28969 0
M  V30 13118 N 1226.82 -1.56058 0.219941 0
M  V30 13119 C 1228.07 -1.97436 -0.412543 0
M  V30 13120 C 1228.39 -1.11058 -1.61014 0
M  V30 13121 O 1229.59 -1.42328 -2.31203 0
M  V30 13122 C 1228.05 -3.51227 -0.785362 0
M  V30 13123 C 1227.66 -4.46305 0.389328 0
M  V30 13124 C 1229.4 -4.01321 -1.38354 0
M  V30 13125 C 1227.31 -5.914 -0.00583531 0
M  V30 13126 H 1226.24 -0.73728 -0.157906 0
M  V30 13127 H 1228.89 -1.8076 0.315898 0
M  V30 13128 H 1227.27 -3.63497 -1.57118 0
M  V30 13129 H 1228.44 -4.45781 1.16686 0
M  V30 13130 H 1226.76 -4.06543 0.900633 0
M  V30 13131 H 1229.36 -5.07221 -1.69207 0
M  V30 13132 H 1229.7 -3.47077 -2.29876 0
M  V30 13133 H 1230.23 -3.92267 -0.66119 0
M  V30 13134 H 1226.97 -6.49623 0.87583 0
M  V30 13135 H 1226.49 -5.95121 -0.74772 0
M  V30 13136 H 1228.17 -6.45549 -0.43308 0
M  V30 13137 N 1228.3 0.053464 -1.57509 0
M  V30 13138 C 1229.55 0.750212 -1.88414 0
M  V30 13139 C 1229.88 1.76288 -0.814619 0
M  V30 13140 O 1229.16 1.93728 0.173136 0
M  V30 13141 C 1229.44 1.44176 -3.29978 0
M  V30 13142 C 1229.29 0.444263 -4.47601 0
M  V30 13143 C 1230.61 2.38207 -3.70061 0
M  V30 13144 H 1227.73 0.271266 -0.685262 0
M  V30 13145 H 1230.37 0.0131676 -1.89995 0
M  V30 13146 H 1228.52 2.07001 -3.2876 0
M  V30 13147 H 1230.19 -0.180182 -4.60948 0
M  V30 13148 H 1228.44 -0.238771 -4.33142 0
M  V30 13149 H 1229.11 0.966134 -5.43479 0
M  V30 13150 H 1231.58 1.85446 -3.7249 0
M  V30 13151 H 1230.46 2.83588 -4.69967 0
M  V30 13152 H 1230.72 3.23821 -3.00985 0
M  V30 13153 N 1229.78 1.54207 0.325255 0
M  V30 13154 C 1230.73 1.83474 1.40021 0
M  V30 13155 C 1231.7 0.681719 1.51466 0
M  V30 13156 O 1232.88 0.92798 1.66713 0
M  V30 13157 C 1230.02 2.06624 2.76407 0
M  V30 13158 C 1229.13 3.3431 2.73607 0
M  V30 13159 C 1228.27 3.4743 4.01828 0
M  V30 13160 C 1227.31 4.68997 3.93329 0
M  V30 13161 N 1226.45 4.79052 5.13277 0
M  V30 13162 H 1231.29 2.75182 1.14363 0
M  V30 13163 H 1228.82 1.36284 0.553639 0
M  V30 13164 H 1230.78 2.18037 3.5569 0
M  V30 13165 H 1229.41 1.18209 3.00377 0
M  V30 13166 H 1228.46 3.31643 1.86324 0
M  V30 13167 H 1229.77 4.237 2.6321 0
M  V30 13168 H 1228.93 3.58376 4.89542 0
M  V30 13169 H 1227.67 2.56128 4.1503 0
M  V30 13170 H 1226.67 4.58109 3.04 0
M  V30 13171 H 1227.9 5.61681 3.81695 0
M  V30 13172 H 1225.84 3.90666 5.26988 0
M  V30 13173 H 1225.76 5.62406 5.05208 0
M  V30 13174 H 1227.03 4.94328 6.02711 0
M  V30 13175 N 1231.26 -0.58723 1.46251 0
M  V30 13176 C 1232.51 -1.34179 1.50595 0
M  V30 13177 C 1232.82 -1.94943 0.160171 0
M  V30 13178 O 1234.03 -2.71378 0.0813797 0
M  V30 13179 C 1232.48 -2.43159 2.65333 0
M  V30 13180 C 1232.09 -1.88718 4.06312 0
M  V30 13181 C 1233.83 -3.19986 2.78943 0
M  V30 13182 C 1231.74 -2.953 5.12398 0
M  V30 13183 H 1230.67 -0.504401 0.560442 0
M  V30 13184 H 1233.32 -0.627179 1.72449 0
M  V30 13185 H 1231.7 -3.17398 2.368 0
M  V30 13186 H 1232.88 -1.21051 4.44616 0
M  V30 13187 H 1231.19 -1.24572 3.97329 0
M  V30 13188 H 1233.79 -3.9952 3.5537 0
M  V30 13189 H 1234.13 -3.72288 1.86298 0
M  V30 13190 H 1234.67 -2.52852 3.07101 0
M  V30 13191 H 1231.4 -2.4789 6.0682 0
M  V30 13192 H 1230.92 -3.61469 4.78644 0
M  V30 13193 H 1232.6 -3.5933 5.38044 0
M  V30 13194 N 1232.74 -1.33881 -0.831482 0
M  V30 13195 C 1233.98 -1.27095 -1.60082 0
M  V30 13196 C 1234.34 0.15911 -1.9134 0
M  V30 13197 O 1235.54 0.351029 -2.66498 0
M  V30 13198 C 1233.81 -2.12874 -2.87088 0
M  V30 13199 S 1235.37 -2.23354 -3.77702 0
M  V30 13200 H 1232.19 -0.452049 -0.548792 0
M  V30 13201 H 1234.79 -1.68998 -0.98285 0
M  V30 13202 H 1233.49 -3.15797 -2.62108 0
M  V30 13203 H 1233.03 -1.71836 -3.53887 0
M  V30 13204 H 1235.04 -1.40003 -4.76039 0
M  V30 13205 N 1234.21 1.05064 -1.1747 0
M  V30 13206 C 1235.49 1.74999 -0.873776 0
M  V30 13207 C 1235.87 2.01615 0.625676 0
M  V30 13208 O 1235.22 1.65324 1.57734 0
M  V30 13209 C 1235.43 3.04231 -1.7101 0
M  V30 13210 C 1236.78 3.78157 -1.93087 0
M  V30 13211 O 1237.8 3.14104 -1.6798 0
M  V30 13212 O 1236.66 4.93255 -2.3529 0
M  V30 13213 H 1233.75 0.761042 -0.323641 0
M  V30 13214 H 1236.3 1.1122 -1.28172 0
M  V30 13215 H 1235.07 2.80621 -2.72704 0
M  V30 13216 H 1234.69 3.75746 -1.30002 0
M  V30 13217 N 1235.69 0.975146 1.23809 0
M  V30 13218 C 1236.94 0.641124 1.92083 0
M  V30 13219 C 1237.27 -0.824671 1.76152 0
M  V30 13220 O 1236.52 -1.6097 1.11298 0
M  V30 13221 C 1236.82 0.971016 3.43956 0
M  V30 13222 C 1236.49 2.42616 3.80063 0
M  V30 13223 C 1235.15 2.82386 3.8963 0
M  V30 13224 C 1237.5 3.37019 3.97577 0
M  V30 13225 C 1234.83 4.15585 4.14133 0
M  V30 13226 C 1237.18 4.69855 4.23579 0
M  V30 13227 C 1235.84 5.09391 4.31366 0
M  V30 13228 H 1235.11 0.234604 0.702881 0
M  V30 13229 H 1237.76 1.22803 1.46941 0
M  V30 13230 H 1236.07 0.301965 3.90635 0
M  V30 13231 H 1237.76 0.690858 3.95004 0
M  V30 13232 H 1234.35 2.10782 3.73187 0
M  V30 13233 H 1238.54 3.07474 3.89581 0
M  V30 13234 H 1233.79 4.45831 4.18383 0
M  V30 13235 H 1237.97 5.42966 4.36074 0
M  V30 13236 H 1235.59 6.12624 4.50106 0
M  V30 13237 N 1237.17 -1.38817 0.746158 0
M  V30 13238 C 1238.42 -1.99885 0.298425 0
M  V30 13239 C 1238.74 -1.59518 -1.12156 0
M  V30 13240 O 1238.01 -0.848568 -1.76568 0
M  V30 13241 H 1236.59 -0.739247 0.107347 0
M  V30 13242 H 1239.25 -1.69696 0.9586 0
M  V30 13243 H 1238.35 -3.10067 0.355656 0
M  V30 13244 N 1238.65 -0.49465 -1.49636 0
M  V30 13245 C 1239.58 0.276606 -2.31856 0
M  V30 13246 C 1240.56 0.968499 -1.39836 0
M  V30 13247 O 1241.74 0.96113 -1.68748 0
M  V30 13248 C 1238.87 1.34522 -3.20189 0
M  V30 13249 C 1237.83 0.773571 -4.20951 0
M  V30 13250 C 1237.15 1.94223 -4.98178 0
M  V30 13251 C 1238.45 -0.231096 -5.21788 0
M  V30 13252 H 1240.15 -0.409668 -2.96584 0
M  V30 13253 H 1237.69 -0.198461 -1.42626 0
M  V30 13254 H 1239.65 1.89244 -3.76517 0
M  V30 13255 H 1238.37 2.06059 -2.53392 0
M  V30 13256 H 1237.03 0.248144 -3.65759 0
M  V30 13257 H 1236.68 2.64514 -4.27834 0
M  V30 13258 H 1236.38 1.56584 -5.66353 0
M  V30 13259 H 1237.9 2.49391 -5.57348 0
M  V30 13260 H 1239.32 0.227768 -5.72847 0
M  V30 13261 H 1237.71 -0.522984 -5.97817 0
M  V30 13262 H 1238.78 -1.14914 -4.71087 0
M  V30 13263 N 1240.13 1.55939 -0.228214 0
M  V30 13264 C 1241.09 2.1932 0.665681 0
M  V30 13265 C 1242.09 1.15699 1.11671 0
M  V30 13266 O 1243.28 1.40893 1.02444 0
M  V30 13267 C 1240.41 2.82185 1.9127 0
M  V30 13268 H 1241.6 2.99687 0.112986 0
M  V30 13269 H 1239.16 1.56285 0.0213865 0
M  V30 13270 H 1239.89 2.05706 2.5071 0
M  V30 13271 H 1239.68 3.58073 1.5977 0
M  V30 13272 H 1241.17 3.30748 2.54942 0
M  V30 13273 N 1241.6 -0.0451101 1.57535 0
M  V30 13274 C 1243.02 -0.400463 1.54494 0
M  V30 13275 C 1243.22 -1.77584 0.952166 0
M  V30 13276 O 1242.28 -2.46069 0.566221 0
M  V30 13277 C 1243.59 -0.31703 2.99024 0
M  V30 13278 C 1245.14 -0.395284 3.10494 0
M  V30 13279 C 1245.61 -0.341475 4.56725 0
M  V30 13280 N 1247.1 -0.400755 4.61463 0
M  V30 13281 C 1247.84 -0.381757 5.72128 0
M  V30 13282 N 1247.33 -0.315995 6.92079 0
M  V30 13283 N 1249.13 -0.4303 5.60451 0
M  V30 13284 H 1241.28 0.855156 1.94424 0
M  V30 13285 H 1243.54 0.323618 0.891053 0
M  V30 13286 H 1243.25 0.627477 3.46057 0
M  V30 13287 H 1243.12 -1.11696 3.60283 0
M  V30 13288 H 1245.51 -1.33022 2.63418 0
M  V30 13289 H 1245.59 0.433709 2.52096 0
M  V30 13290 H 1245.23 0.589725 5.04465 0
M  V30 13291 H 1245.16 -1.18836 5.13016 0
M  V30 13292 H 1247.65 -0.454745 3.75154 0
M  V30 13293 H 1247.97 -0.306158 7.72193 0
M  V30 13294 H 1246.31 -0.282281 6.94427 0
M  V30 13295 H 1249.5 -0.479555 4.65637 0
M  V30 13296 H 1249.68 -0.412025 6.46689 0
M  V30 13297 N 1243.08 -1.54377 -0.317073 0
M  V30 13298 C 1244.36 -1.63551 -1.07287 0
M  V30 13299 C 1244.74 -0.473499 -2.05721 0
M  V30 13300 O 1244.09 0.531545 -2.22232 0
M  V30 13301 C 1244.3 -3.00842 -1.76904 0
M  V30 13302 C 1245.65 -3.57111 -2.29689 0
M  V30 13303 O 1246.67 -3.0319 -1.86961 0
M  V30 13304 O 1245.53 -4.51486 -3.07932 0
M  V30 13305 H 1242.62 -0.662557 -0.494922 0
M  V30 13306 H 1245.17 -1.66723 -0.316444 0
M  V30 13307 H 1243.94 -3.76854 -1.05341 0
M  V30 13308 H 1243.56 -3.01377 -2.59341 0
M  V30 13309 N 1244.56 0.579466 -1.4656 0
M  V30 13310 C 1245.81 1.33379 -1.51304 0
M  V30 13311 C 1246.12 1.94855 -0.170507 0
M  V30 13312 O 1247.33 2.71331 -0.0957704 0
M  V30 13313 C 1245.78 2.41748 -2.66619 0
M  V30 13314 C 1245.39 1.8656 -4.07307 0
M  V30 13315 C 1247.14 3.18502 -2.80636 0
M  V30 13316 C 1245.04 2.92578 -5.13957 0
M  V30 13317 H 1243.97 0.501422 -0.56311 0
M  V30 13318 H 1246.62 0.618025 -1.72779 0
M  V30 13319 H 1245.01 3.16138 -2.3848 0
M  V30 13320 H 1246.18 1.18692 -4.45252 0
M  V30 13321 H 1244.5 1.22464 -3.97984 0
M  V30 13322 H 1247.09 3.9763 -3.57483 0
M  V30 13323 H 1247.44 3.71295 -1.8827 0
M  V30 13324 H 1247.97 2.51219 -3.08437 0
M  V30 13325 H 1244.71 2.44668 -6.08126 0
M  V30 13326 H 1244.23 3.58926 -4.80554 0
M  V30 13327 H 1245.91 3.56471 -5.39942 0
M  V30 13328 N 1246.04 1.3432 0.824371 0
M  V30 13329 C 1246.97 1.2012 1.94027 0
M  V30 13330 C 1247.95 0.0931808 1.62333 0
M  V30 13331 O 1249.13 0.258069 1.86725 0
M  V30 13332 C 1246.26 0.845628 3.27974 0
M  V30 13333 C 1245.31 1.9632 3.7863 0
M  V30 13334 S 1246.14 3.57642 3.98563 0
M  V30 13335 C 1247.3 3.24124 5.35439 0
M  V30 13336 H 1247.53 2.14579 2.05775 0
M  V30 13337 H 1245.06 1.1933 0.979783 0
M  V30 13338 H 1247.02 0.647266 4.05365 0
M  V30 13339 H 1245.68 -0.0805948 3.13997 0
M  V30 13340 H 1244.87 1.66812 4.75594 0
M  V30 13341 H 1244.48 2.11897 3.08181 0
M  V30 13342 H 1246.77 2.75848 6.188 0
M  V30 13343 H 1247.71 4.20222 5.69929 0
M  V30 13344 H 1248.12 2.60343 5.00881 0
M  V30 13345 N 1247.52 -1.0444 1.18026 0
M  V30 13346 C 1248.47 -2.10671 0.871877 0
M  V30 13347 C 1249.45 -1.60134 -0.156798 0
M  V30 13348 O 1250.64 -1.76938 0.0467129 0
M  V30 13349 C 1247.77 -3.41017 0.395271 0
M  V30 13350 C 1246.86 -3.98331 1.4558 0
M  V30 13351 N 1247.25 -4.29508 2.67127 0
M  V30 13352 C 1245.55 -4.2616 1.31544 0
M  V30 13353 C 1246.25 -4.7532 3.35329 0
M  V30 13354 N 1245.22 -4.75904 2.6271 0
M  V30 13355 H 1249.03 -2.32647 1.79589 0
M  V30 13356 H 1246.54 -1.22158 1.0701 0
M  V30 13357 H 1248.54 -4.16609 0.155861 0
M  V30 13358 H 1247.2 -3.20469 -0.522452 0
M  V30 13359 H 1248.21 -4.19271 3.04027 0
M  V30 13360 H 1244.88 -4.14959 0.459962 0
M  V30 13361 H 1246.27 -5.08493 4.39186 0
M  V30 13362 N 1248.99 -0.981699 -1.2329 0
M  V30 13363 C 1250.27 -0.567659 -1.87182 0
M  V30 13364 C 1250.65 0.955194 -1.88253 0
M  V30 13365 O 1250 1.83245 -1.36504 0
M  V30 13366 C 1250.21 -1.17522 -3.28618 0
M  V30 13367 C 1251.56 -1.26877 -4.052 0
M  V30 13368 O 1252.58 -1.12877 -3.37842 0
M  V30 13369 O 1251.44 -1.49163 -5.2575 0
M  V30 13370 H 1248.53 -0.191315 -0.804567 0
M  V30 13371 H 1251.08 -1.07686 -1.31155 0
M  V30 13372 H 1249.85 -2.21735 -3.22411 0
M  V30 13373 H 1249.48 -0.650913 -3.92236 0
M  V30 13374 N 1250.47 1.3842 -0.753509 0
M  V30 13375 C 1251.7 2.04929 -0.319174 0
M  V30 13376 C 1252.12 1.56457 1.04416 0
M  V30 13377 O 1251.48 0.716527 1.6654 0
M  V30 13378 C 1251.53 3.58887 -0.351054 0
M  V30 13379 O 1250.63 4.07166 0.654963 0
M  V30 13380 H 1249.97 0.648782 -0.141343 0
M  V30 13381 H 1252.5 1.77096 -1.02461 0
M  V30 13382 H 1252.51 4.075 -0.201907 0
M  V30 13383 H 1251.19 3.93525 -1.34576 0
M  V30 13384 H 1249.77 3.69921 0.470435 0
M  V30 13385 N 1251.95 0.502579 1.49372 0
M  V30 13386 C 1252.9 -0.288693 2.30801 0
M  V30 13387 C 1253.89 -0.961303 1.39482 0
M  V30 13388 O 1255.1 -0.888812 1.56525 0
M  V30 13389 H 1251.47 -0.111958 0.743619 0
M  V30 13390 H 1253.44 0.418062 2.95457 0
M  V30 13391 C 1252.19 -1.33938 3.20867 0
M  V30 13392 H 1251.52 -0.831219 3.91064 0
M  V30 13393 H 1252.96 -1.86498 3.80781 0
M  V30 13394 C 1251.42 -2.35839 2.40586 0
M  V30 13395 O 1251.95 -3.41752 2.11113 0
M  V30 13396 N 1250.15 -2.0835 2.0258 0
M  V30 13397 H 1249.7 -1.2224 2.26749 0
M  V30 13398 H 1249.66 -2.76758 1.49173 0
M  V30 13399 N 1253.43 -1.55816 0.23648 0
M  V30 13400 C 1254.66 -2.02789 -0.39501 0
M  V30 13401 C 1255.07 -1.1153 -1.52832 0
M  V30 13402 O 1254.41 -0.120084 -1.83307 0
M  V30 13403 C 1254.47 -3.46052 -0.974066 0
M  V30 13404 C 1254.14 -4.56993 0.0256825 0
M  V30 13405 C 1255.13 -5.13208 0.831477 0
M  V30 13406 C 1252.82 -5.0208 0.148759 0
M  V30 13407 C 1254.81 -6.12994 1.74691 0
M  V30 13408 C 1252.5 -6.017 1.0677 0
M  V30 13409 C 1253.5 -6.57035 1.86531 0
M  V30 13410 O 1253.18 -7.54714 2.76878 0
M  V30 13411 H 1252.92 -0.668672 -0.0992687 0
M  V30 13412 H 1255.47 -2.02312 0.354826 0
M  V30 13413 H 1253.7 -3.43645 -1.77327 0
M  V30 13414 H 1255.39 -3.76586 -1.51453 0
M  V30 13415 H 1256.16 -4.79214 0.746922 0
M  V30 13416 H 1252.03 -4.58679 -0.461976 0
M  V30 13417 H 1255.58 -6.56111 2.36989 0
M  V30 13418 H 1251.48 -6.35115 1.15322 0
M  V30 13419 H 1252.24 -7.72292 2.71122 0
M  V30 13420 N 1254.91 0.036755 -1.57557 0
M  V30 13421 C 1256.15 0.730186 -1.89199 0
M  V30 13422 C 1256.49 1.75414 -0.833271 0
M  V30 13423 O 1255.76 1.93901 0.152579 0
M  V30 13424 C 1256.04 1.40669 -3.31488 0
M  V30 13425 C 1255.9 0.396764 -4.48047 0
M  V30 13426 C 1257.22 2.34268 -3.72567 0
M  V30 13427 H 1254.33 0.263983 -0.6881 0
M  V30 13428 H 1256.98 -0.0069847 -1.89999 0
M  V30 13429 H 1255.13 2.03502 -3.30937 0
M  V30 13430 H 1256.8 -0.229062 -4.60731 0
M  V30 13431 H 1255.04 -0.284698 -4.32865 0
M  V30 13432 H 1255.71 0.908436 -5.44474 0
M  V30 13433 H 1258.19 1.81485 -3.74436 0
M  V30 13434 H 1257.06 2.78587 -4.72949 0
M  V30 13435 H 1257.33 3.20611 -3.04403 0
M  V30 13436 N 1256.39 1.54543 0.308881 0
M  V30 13437 C 1257.61 1.77753 1.06857 0
M  V30 13438 C 1258.04 0.531616 1.80431 0
M  V30 13439 O 1257.39 -0.517513 1.73757 0
M  V30 13440 C 1257.44 2.97968 2.03094 0
M  V30 13441 O 1256.55 2.70541 3.11257 0
M  V30 13442 H 1255.89 0.588576 0.307368 0
M  V30 13443 H 1258.42 2.01607 0.348703 0
M  V30 13444 H 1258.43 3.25722 2.45702 0
M  V30 13445 H 1257.1 3.88314 1.48948 0
M  V30 13446 H 1255.68 2.53781 2.7322 0
M  V30 13447 N 1257.86 -0.571685 1.46866 0
M  V30 13448 C 1258.81 -1.67992 1.58263 0
M  V30 13449 C 1259.78 -1.60535 0.426345 0
M  V30 13450 O 1260.97 -1.79584 0.644534 0
M  V30 13451 C 1258.11 -3.06327 1.58927 0
M  V30 13452 C 1257.22 -3.24328 2.85369 0
M  V30 13453 C 1256.35 -4.52976 2.77464 0
M  V30 13454 C 1255.39 -4.64359 3.98795 0
M  V30 13455 N 1254.53 -5.84345 3.89211 0
M  V30 13456 H 1259.37 -1.57589 2.52922 0
M  V30 13457 H 1256.91 -0.767883 1.25467 0
M  V30 13458 H 1258.86 -3.86411 1.57296 0
M  V30 13459 H 1257.49 -3.15601 0.677912 0
M  V30 13460 H 1256.55 -2.37774 2.96931 0
M  V30 13461 H 1257.86 -3.28605 3.7526 0
M  V30 13462 H 1257.01 -5.41303 2.74001 0
M  V30 13463 H 1255.75 -4.51155 1.85231 0
M  V30 13464 H 1254.76 -3.74448 4.02578 0
M  V30 13465 H 1255.98 -4.6795 4.92137 0
M  V30 13466 H 1253.93 -5.835 2.99772 0
M  V30 13467 H 1253.84 -5.89938 4.72768 0
M  V30 13468 H 1255.11 -6.75072 3.89741 0
M  V30 13469 N 1259.34 -1.34755 -0.817236 0
M  V30 13470 C 1260.59 -1.2718 -1.57066 0
M  V30 13471 C 1260.91 0.156531 -1.94371 0
M  V30 13472 O 1260.18 1.09049 -1.62742 0
M  V30 13473 H 1258.76 -0.467755 -0.582421 0
M  V30 13474 H 1261.42 -1.68734 -0.975438 0
M  V30 13475 H 1260.52 -1.88043 -2.49091 0
M  V30 13476 N 1260.82 1.03812 -1.18578 0
M  V30 13477 C 1262.04 1.8124 -1.00831 0
M  V30 13478 C 1262.47 1.82917 0.43853 0
M  V30 13479 O 1261.83 1.24835 1.31476 0
M  V30 13480 C 1261.88 3.24592 -1.57075 0
M  V30 13481 O 1260.98 4.04688 -0.793824 0
M  V30 13482 H 1260.32 0.559846 -0.357028 0
M  V30 13483 H 1262.85 1.30724 -1.57393 0
M  V30 13484 H 1262.86 3.75363 -1.59896 0
M  V30 13485 H 1261.54 3.22686 -2.62387 0
M  V30 13486 H 1260.11 3.63359 -0.838134 0
M  V30 13487 N 1262.3 0.988223 1.22768 0
M  V30 13488 C 1263.53 0.679743 1.95415 0
M  V30 13489 C 1263.94 -0.754731 1.73059 0
M  V30 13490 O 1263.3 -1.50876 1.02678 0
M  V30 13491 C 1263.35 0.970344 3.48234 0
M  V30 13492 O 1263.07 2.34845 3.69837 0
M  V30 13493 C 1264.57 0.67891 4.3807 0
M  V30 13494 H 1261.79 0.251847 0.621944 0
M  V30 13495 H 1264.33 1.32173 1.56047 0
M  V30 13496 H 1262.49 0.374241 3.85588 0
M  V30 13497 H 1262.9 2.44412 4.64072 0
M  V30 13498 H 1264.38 0.932549 5.44066 0
M  V30 13499 H 1264.85 -0.387073 4.37491 0
M  V30 13500 H 1265.46 1.25585 4.06335 0
M  V30 13501 N 1263.78 -1.38018 0.760839 0
M  V30 13502 C 1265.02 -1.99952 0.320241 0
M  V30 13503 C 1265.35 -1.60397 -1.10014 0
M  V30 13504 O 1264.61 -0.836407 -1.76926 0
M  V30 13505 C 1264.9 -3.55168 0.398778 0
M  V30 13506 C 1264.57 -4.14457 1.77585 0
M  V30 13507 C 1263.23 -4.30363 2.15269 0
M  V30 13508 C 1265.58 -4.47089 2.67883 0
M  V30 13509 C 1262.91 -4.762 3.4271 0
M  V30 13510 C 1265.26 -4.94345 3.94722 0
M  V30 13511 C 1263.93 -5.08458 4.32466 0
M  V30 13512 H 1263.2 -0.731675 0.117185 0
M  V30 13513 H 1265.85 -1.64955 0.972736 0
M  V30 13514 H 1264.15 -3.90346 -0.337273 0
M  V30 13515 H 1265.85 -4.00981 0.0393393 0
M  V30 13516 H 1262.44 -4.02496 1.47292 0
M  V30 13517 H 1266.62 -4.34395 2.40031 0
M  V30 13518 H 1261.88 -4.85312 3.71863 0
M  V30 13519 H 1266.05 -5.18563 4.64828 0
M  V30 13520 H 1263.68 -5.43735 5.31278 0
M  V30 13521 N 1265.25 -0.510493 -1.49103 0
M  V30 13522 C 1266.18 0.251999 -2.32136 0
M  V30 13523 C 1267.16 0.953613 -1.40855 0
M  V30 13524 O 1268.35 0.943178 -1.69758 0
M  V30 13525 C 1265.48 1.31118 -3.21598 0
M  V30 13526 C 1264.43 0.72888 -4.21748 0
M  V30 13527 C 1263.76 1.88928 -5.0021 0
M  V30 13528 C 1265.06 -0.286425 -5.21514 0
M  V30 13529 H 1266.75 -0.441102 -2.96133 0
M  V30 13530 H 1264.3 -0.213577 -1.42407 0
M  V30 13531 H 1266.25 1.8524 -3.78503 0
M  V30 13532 H 1264.98 2.0336 -2.55563 0
M  V30 13533 H 1263.64 0.209336 -3.66002 0
M  V30 13534 H 1263.28 2.59961 -4.30615 0
M  V30 13535 H 1262.98 1.50568 -5.67981 0
M  V30 13536 H 1264.51 2.43465 -5.59962 0
M  V30 13537 H 1265.92 0.166997 -5.73057 0
M  V30 13538 H 1264.32 -0.586361 -5.97228 0
M  V30 13539 H 1265.39 -1.19904 -4.69842 0
M  V30 13540 N 1266.73 1.55688 -0.24474 0
M  V30 13541 C 1268.14 1.84897 0.25882 0
M  V30 13542 C 1268.49 1.16653 1.57755 0
M  V30 13543 O 1267.62 0.444162 2.11793 0
M  V30 13544 C 1268.21 3.35434 0.476385 0
M  V30 13545 C 1266.77 3.64877 0.924213 0
M  V30 13546 C 1265.92 2.773 0.00021322 0
M  V30 13547 H 1268.87 1.51662 -0.467358 0
M  V30 13548 H 1268.89 3.56896 1.31929 0
M  V30 13549 H 1268.4 3.85076 -0.483567 0
M  V30 13550 H 1266.5 3.20711 1.89671 0
M  V30 13551 H 1266.62 4.72665 0.78257 0
M  V30 13552 H 1264.98 2.49517 0.511194 0
M  V30 13553 H 1265.76 3.29747 -0.955072 0
M  V30 13554 N 1268.21 -0.0283989 1.57574 0
M  V30 13555 C 1269.46 -0.720142 1.89583 0
M  V30 13556 C 1269.79 -1.7497 0.842562 0
M  V30 13557 O 1269.06 -1.93979 -0.142294 0
M  V30 13558 C 1269.35 -1.38909 3.32229 0
M  V30 13559 C 1269.2 -0.372998 4.48251 0
M  V30 13560 C 1270.52 -2.32289 3.73804 0
M  V30 13561 H 1267.64 -0.26033 0.689491 0
M  V30 13562 H 1270.28 0.0170607 1.89992 0
M  V30 13563 H 1268.43 -2.01744 3.32011 0
M  V30 13564 H 1270.1 0.253492 4.60603 0
M  V30 13565 H 1268.34 0.30765 4.32708 0
M  V30 13566 H 1269.02 -0.879549 5.44948 0
M  V30 13567 H 1271.49 -1.79497 3.75393 0
M  V30 13568 H 1270.37 -2.76075 4.74419 0
M  V30 13569 H 1270.63 -3.18992 3.06099 0
M  V30 13570 N 1269.69 -1.54705 -0.300681 0
M  V30 13571 C 1270.63 -1.85678 -1.37084 0
M  V30 13572 C 1271.6 -0.70573 -1.50362 0
M  V30 13573 O 1272.79 -0.954385 -1.65215 0
M  V30 13574 C 1269.93 -2.10995 -2.73084 0
M  V30 13575 C 1269.04 -3.38621 -2.68254 0
M  V30 13576 C 1268.18 -3.53779 -3.9625 0
M  V30 13577 C 1267.22 -4.75195 -3.85818 0
M  V30 13578 N 1266.35 -4.87157 -5.05591 0
M  V30 13579 H 1271.19 -2.76967 -1.09971 0
M  V30 13580 H 1268.73 -1.37147 -0.531887 0
M  V30 13581 H 1270.69 -2.23669 -3.52176 0
M  V30 13582 H 1269.32 -1.22973 -2.98458 0
M  V30 13583 H 1268.37 -3.34566 -1.81025 0
M  V30 13584 H 1269.68 -4.27834 -2.56436 0
M  V30 13585 H 1268.84 -3.66119 -4.83779 0
M  V30 13586 H 1267.58 -2.62699 -4.10902 0
M  V30 13587 H 1266.58 -4.62888 -2.96673 0
M  V30 13588 H 1267.81 -5.67683 -3.72711 0
M  V30 13589 H 1265.75 -3.99001 -5.20706 0
M  V30 13590 H 1265.67 -5.70372 -4.96197 0
M  V30 13591 H 1266.94 -5.03854 -5.9477 0
M  V30 13592 N 1271.17 0.563888 -1.47167 0
M  V30 13593 C 1272.41 1.32105 -1.5466 0
M  V30 13594 C 1272.77 1.91322 -0.203349 0
M  V30 13595 O 1272.06 1.74546 0.790201 0
M  V30 13596 C 1272.25 2.45678 -2.59571 0
M  V30 13597 C 1272.08 1.97589 -4.03966 0
M  V30 13598 C 1270.85 1.81738 -4.71486 0
M  V30 13599 C 1273.05 1.52432 -4.91191 0
M  V30 13600 N 1271.03 1.27918 -6.00425 0
M  V30 13601 C 1272.4 1.10332 -6.10104 0
M  V30 13602 C 1274.46 1.40422 -4.77688 0
M  V30 13603 C 1273.16 0.574166 -7.17005 0
M  V30 13604 C 1275.19 0.889086 -5.84679 0
M  V30 13605 C 1274.55 0.477976 -7.02776 0
M  V30 13606 H 1270.65 0.475685 -0.620683 0
M  V30 13607 H 1273.23 0.639944 -1.83883 0
M  V30 13608 H 1271.4 3.11328 -2.32227 0
M  V30 13609 H 1273.14 3.12667 -2.56947 0
M  V30 13610 H 1269.89 2.04253 -4.27291 0
M  V30 13611 H 1270.32 1.03116 -6.69101 0
M  V30 13612 H 1274.96 1.7082 -3.86756 0
M  V30 13613 H 1272.68 0.257804 -8.07689 0
M  V30 13614 H 1276.26 0.799807 -5.76276 0
M  V30 13615 H 1275.14 0.0855381 -7.84153 0
M  V30 13616 N 1272.64 1.35187 0.810078 0
M  V30 13617 C 1273.58 1.22171 1.92742 0
M  V30 13618 C 1274.56 0.110393 1.62225 0
M  V30 13619 O 1275.74 0.27786 1.86441 0
M  V30 13620 C 1272.87 0.880367 3.27058 0
M  V30 13621 C 1271.91 2.00325 3.76527 0
M  V30 13622 S 1272.75 3.6185 3.94747 0
M  V30 13623 C 1273.9 3.29784 5.31971 0
M  V30 13624 H 1274.13 2.16749 2.03488 0
M  V30 13625 H 1271.67 1.20362 0.967072 0
M  V30 13626 H 1273.63 0.690224 4.04656 0
M  V30 13627 H 1272.29 -0.0472868 3.14064 0
M  V30 13628 H 1271.48 1.71847 4.73798 0
M  V30 13629 H 1271.08 2.15154 3.05916 0
M  V30 13630 H 1273.37 2.82396 6.1584 0
M  V30 13631 H 1274.32 4.26243 5.6544 0
M  V30 13632 H 1274.72 2.65641 4.98092 0
M  V30 13633 N 1274.12 -1.03182 1.19127 0
M  V30 13634 C 1275.09 -2.09559 0.928307 0
M  V30 13635 C 1276.09 -1.60548 -0.0899992 0
M  V30 13636 O 1277.28 -1.736 0.144422 0
M  V30 13637 C 1274.41 -3.38609 0.394561 0
M  V30 13638 H 1275.6 -2.34321 1.87173 0
M  V30 13639 H 1273.15 -1.19746 1.00452 0
M  V30 13640 H 1273.89 -3.19515 -0.555046 0
M  V30 13641 H 1273.67 -3.75502 1.12873 0
M  V30 13642 H 1275.16 -4.16969 0.229569 0
M  V30 13643 N 1275.6 -0.99472 -1.22242 0
M  V30 13644 C 1277.01 -0.706456 -1.72818 0
M  V30 13645 C 1277.36 0.776566 -1.80177 0
M  V30 13646 O 1276.49 1.60698 -1.44931 0
M  V30 13647 C 1277.08 -1.27571 -3.13865 0
M  V30 13648 C 1275.64 -1.03679 -3.61839 0
M  V30 13649 C 1274.79 -1.3948 -2.39668 0
M  V30 13650 H 1277.74 -1.16687 -1.07564 0
M  V30 13651 H 1277.76 -0.655202 -3.74816 0
M  V30 13652 H 1277.27 -2.35508 -3.08476 0
M  V30 13653 H 1275.37 0.0258679 -3.72591 0
M  V30 13654 H 1275.49 -1.70145 -4.4787 0
M  V30 13655 H 1273.85 -0.813418 -2.41362 0
M  V30 13656 H 1274.63 -2.48425 -2.36939 0
M  V30 13657 N 1277.08 1.37613 -0.768148 0
M  V30 13658 C 1277.99 2.34103 -0.152649 0
M  V30 13659 C 1279 1.6 0.683811 0
M  V30 13660 O 1280.18 1.92112 0.604572 0
M  V30 13661 C 1277.25 3.39164 0.718954 0
M  V30 13662 C 1276.31 4.29092 -0.13355 0
M  V30 13663 C 1275.54 5.29135 0.696547 0
M  V30 13664 O 1275.76 5.36618 1.93383 0
M  V30 13665 O 1274.7 6.01804 0.107652 0
M  V30 13666 H 1278.52 2.88462 -0.949899 0
M  V30 13667 H 1276.11 1.39711 -0.529252 0
M  V30 13668 H 1277.99 4.03454 1.21665 0
M  V30 13669 H 1276.66 2.87137 1.49445 0
M  V30 13670 H 1275.57 3.67914 -0.677528 0
M  V30 13671 H 1276.9 4.84413 -0.872048 0
M  V30 13672 N 1278.56 0.518393 1.4883 0
M  V30 13673 C 1279.78 -0.0183131 2.07392 0
M  V30 13674 C 1280.21 -1.28468 1.37396 0
M  V30 13675 O 1279.56 -1.75975 0.436177 0
M  V30 13676 C 1279.61 -0.237211 3.59819 0
M  V30 13677 O 1278.72 -1.30835 3.91096 0
M  V30 13678 H 1278.06 0.0339621 0.663131 0
M  V30 13679 H 1280.59 0.722993 1.914 0
M  V30 13680 H 1280.6 -0.463424 4.0536 0
M  V30 13681 H 1279.27 0.687925 4.10171 0
M  V30 13682 H 1277.85 -1.06571 3.57347 0
M  V30 13683 N 1280.03 -1.55556 0.252993 0
M  V30 13684 C 1281.28 -1.98267 -0.370571 0
M  V30 13685 C 1281.6 -1.14449 -1.58622 0
M  V30 13686 O 1282.8 -1.472 -2.28132 0
M  V30 13687 C 1281.26 -3.52813 -0.710685 0
M  V30 13688 C 1280.87 -4.45379 0.483908 0
M  V30 13689 C 1282.61 -4.04165 -1.2981 0
M  V30 13690 C 1280.52 -5.91279 0.119611 0
M  V30 13691 H 1279.45 -0.740463 -0.142232 0
M  V30 13692 H 1282.1 -1.8005 0.354169 0
M  V30 13693 H 1280.48 -3.66748 -1.49372 0
M  V30 13694 H 1281.65 -4.43206 1.26116 0
M  V30 13695 H 1279.97 -4.04542 0.986664 0
M  V30 13696 H 1282.57 -5.10696 -1.5841 0
M  V30 13697 H 1282.91 -3.51875 -2.22462 0
M  V30 13698 H 1283.44 -3.93581 -0.577836 0
M  V30 13699 H 1280.18 -6.47619 1.01343 0
M  V30 13700 H 1279.7 -5.96573 -0.621318 0
M  V30 13701 H 1281.38 -6.46322 -0.296052 0
M  V30 13702 N 1281.51 0.0200419 -1.57587 0
M  V30 13703 C 1282.76 0.709027 -1.89681 0
M  V30 13704 C 1283.09 1.74876 -0.851396 0
M  V30 13705 O 1282.34 1.95151 0.146483 0
M  V30 13706 C 1282.64 1.40729 -3.28527 0
M  V30 13707 C 1282.31 0.502686 -4.48089 0
M  V30 13708 C 1280.97 0.253558 -4.80532 0
M  V30 13709 C 1283.32 -0.121338 -5.21059 0
M  V30 13710 C 1280.65 -0.628221 -5.83327 0
M  V30 13711 C 1283 -0.990873 -6.24792 0
M  V30 13712 C 1281.67 -1.24937 -6.55703 0
M  V30 13713 H 1280.94 0.259451 -0.694094 0
M  V30 13714 H 1283.58 -0.03118 -1.91475 0
M  V30 13715 H 1281.89 2.22105 -3.22764 0
M  V30 13716 H 1283.58 1.94609 -3.50611 0
M  V30 13717 H 1280.17 0.707018 -4.22728 0
M  V30 13718 H 1284.36 0.0581516 -4.96266 0
M  V30 13719 H 1279.61 -0.836712 -6.05648 0
M  V30 13720 H 1283.79 -1.48087 -6.80473 0
M  V30 13721 H 1281.42 -1.93436 -7.35178 0
M  V30 13722 N 1282.99 1.54862 0.292472 0
M  V30 13723 C 1284.27 1.65237 1.04671 0
M  V30 13724 C 1284.65 0.506168 2.04942 0
M  V30 13725 O 1284 -0.496123 2.23049 0
M  V30 13726 C 1284.21 3.03618 1.72095 0
M  V30 13727 C 1285.55 3.6072 2.23979 0
M  V30 13728 O 1286.58 3.06126 1.82114 0
M  V30 13729 O 1285.44 4.56328 3.0071 0
M  V30 13730 H 1282.53 0.670347 0.484319 0
M  V30 13731 H 1285.08 1.67206 0.28988 0
M  V30 13732 H 1283.85 3.78482 0.993324 0
M  V30 13733 H 1283.47 3.05464 2.54514 0
M  V30 13734 N 1284.47 -0.556076 1.47464 0
M  V30 13735 C 1285.42 -1.68406 1.60444 0
M  V30 13736 C 1286.41 -1.627 0.471713 0
M  V30 13737 O 1287.62 -1.67871 0.649551 0
M  V30 13738 H 1283.99 -0.557255 0.504946 0
M  V30 13739 H 1285.96 -1.54595 2.55231 0
M  V30 13740 C 1284.71 -3.06756 1.63695 0
M  V30 13741 H 1284.03 -3.11829 2.50206 0
M  V30 13742 H 1285.47 -3.85368 1.76827 0
M  V30 13743 C 1283.93 -3.34857 0.370485 0
M  V30 13744 O 1284.46 -3.98216 -0.527942 0
M  V30 13745 N 1282.67 -2.89521 0.250163 0
M  V30 13746 H 1282.22 -2.3814 0.982204 0
M  V30 13747 H 1282.17 -3.08694 -0.596268 0
M  V30 13748 N 1285.95 -1.35615 -0.802897 0
M  V30 13749 C 1286.88 -1.31506 -1.92947 0
M  V30 13750 C 1287.86 -0.188843 -1.69048 0
M  V30 13751 O 1289.04 -0.384384 -1.90358 0
M  V30 13752 C 1286.17 -1.09001 -3.29752 0
M  V30 13753 C 1285.13 -2.18303 -3.68141 0
M  V30 13754 C 1284.45 -1.80959 -5.03148 0
M  V30 13755 C 1285.75 -3.60296 -3.78132 0
M  V30 13756 H 1287.45 -2.25771 -1.96642 0
M  V30 13757 H 1284.99 -1.08682 -0.944685 0
M  V30 13758 H 1286.95 -1.04766 -4.08169 0
M  V30 13759 H 1285.67 -0.111832 -3.26408 0
M  V30 13760 H 1284.33 -2.21642 -2.92011 0
M  V30 13761 H 1283.98 -0.817495 -4.96312 0
M  V30 13762 H 1283.68 -2.54129 -5.29804 0
M  V30 13763 H 1285.2 -1.78255 -5.84001 0
M  V30 13764 H 1286.62 -3.59259 -4.46773 0
M  V30 13765 H 1285.01 -4.32258 -4.16261 0
M  V30 13766 H 1286.08 -3.9618 -2.79588 0
M  V30 13767 N 1287.43 1.02549 -1.19673 0
M  V30 13768 C 1288.66 1.79363 -1.02531 0
M  V30 13769 C 1289.06 1.84274 0.42893 0
M  V30 13770 O 1288.41 1.28813 1.30969 0
M  V30 13771 C 1288.47 3.2567 -1.52248 0
M  V30 13772 C 1288.13 3.44386 -3.00412 0
M  V30 13773 C 1289.13 3.34329 -3.98146 0
M  V30 13774 C 1286.81 3.70491 -3.39178 0
M  V30 13775 C 1288.81 3.50106 -5.3264 0
M  V30 13776 C 1286.5 3.85912 -4.7383 0
M  V30 13777 C 1287.49 3.75723 -5.70369 0
M  V30 13778 O 1287.18 3.90685 -7.02581 0
M  V30 13779 H 1286.91 0.571194 -0.361544 0
M  V30 13780 H 1289.47 1.30029 -1.59002 0
M  V30 13781 H 1287.7 3.76044 -0.901548 0
M  V30 13782 H 1289.39 3.8409 -1.31262 0
M  V30 13783 H 1290.15 3.14109 -3.69541 0
M  V30 13784 H 1286.03 3.77513 -2.64585 0
M  V30 13785 H 1289.58 3.42069 -6.07976 0
M  V30 13786 H 1285.47 4.05631 -5.02129 0
M  V30 13787 H 1286.24 4.07756 -7.09702 0
M  V30 13788 N 1288.9 1.00119 1.21713 0
M  V30 13789 C 1290.13 0.700431 1.94683 0
M  V30 13790 C 1290.55 -0.736333 1.73849 0
M  V30 13791 O 1289.9 -1.49778 1.04272 0
M  V30 13792 C 1289.95 1.00722 3.47185 0
M  V30 13793 O 1289.68 2.38754 3.67326 0
M  V30 13794 C 1291.18 0.725335 4.37326 0
M  V30 13795 H 1288.4 0.25843 0.619238 0
M  V30 13796 H 1290.94 1.3382 1.54636 0
M  V30 13797 H 1289.1 0.415117 3.85169 0
M  V30 13798 H 1289.51 2.49321 4.61454 0
M  V30 13799 H 1290.98 0.990202 5.43046 0
M  V30 13800 H 1291.46 -0.340649 4.37877 0
M  V30 13801 H 1292.07 1.29888 4.04981 0
M  V30 13802 N 1290.38 -1.37203 0.775435 0
M  V30 13803 C 1291.61 -2.03868 0.352927 0
M  V30 13804 C 1292.02 -1.58482 -1.0261 0
M  V30 13805 O 1291.38 -0.767772 -1.65564 0
M  V30 13806 C 1291.43 -3.59378 0.39116 0
M  V30 13807 O 1291.15 -4.03103 1.71579 0
M  V30 13808 C 1292.65 -4.4328 -0.0424808 0
M  V30 13809 H 1289.87 -0.654619 0.14736 0
M  V30 13810 H 1292.42 -1.75463 1.05039 0
M  V30 13811 H 1290.57 -3.86542 -0.257752 0
M  V30 13812 H 1290.99 -4.9764 1.65695 0
M  V30 13813 H 1292.46 -5.51989 0.0354215 0
M  V30 13814 H 1292.94 -4.25374 -1.09333 0
M  V30 13815 H 1293.54 -4.21349 0.578384 0
M  V30 13816 N 1291.86 -0.526279 -1.48553 0
M  V30 13817 C 1292.79 0.227364 -2.3239 0
M  V30 13818 C 1293.77 0.93862 -1.41859 0
M  V30 13819 O 1294.96 0.925119 -1.70749 0
M  V30 13820 C 1292.09 1.277 -3.22971 0
M  V30 13821 C 1291.04 0.684107 -4.22497 0
M  V30 13822 C 1290.37 1.83612 -5.02186 0
M  V30 13823 C 1291.67 -0.341723 -5.21181 0
M  V30 13824 H 1293.36 -0.472486 -2.95648 0
M  V30 13825 H 1290.91 -0.228669 -1.42173 0
M  V30 13826 H 1292.86 1.81215 -3.80446 0
M  V30 13827 H 1291.58 2.00638 -2.57705 0
M  V30 13828 H 1290.24 0.170505 -3.66203 0
M  V30 13829 H 1289.89 2.55379 -4.33348 0
M  V30 13830 H 1289.59 1.44536 -5.69547 0
M  V30 13831 H 1291.11 2.37513 -5.62512 0
M  V30 13832 H 1292.53 0.106207 -5.73202 0
M  V30 13833 H 1290.92 -0.649673 -5.96573 0
M  V30 13834 H 1291.99 -1.2488 -4.68543 0
M  V30 13835 N 1293.34 1.5542 -0.261239 0
M  V30 13836 C 1294.56 2.04142 0.366144 0
M  V30 13837 C 1294.99 1.13884 1.49706 0
M  V30 13838 O 1294.35 0.134629 1.80799 0
M  V30 13839 C 1294.39 3.50733 0.837774 0
M  V30 13840 O 1293.5 3.63588 1.94621 0
M  V30 13841 H 1292.84 0.659424 0.077821 0
M  V30 13842 H 1295.37 2.0082 -0.391487 0
M  V30 13843 H 1295.38 3.91831 1.13721 0
M  V30 13844 H 1294.05 4.15899 0.0102742 0
M  V30 13845 H 1292.63 3.34391 1.65037 0
M  V30 13846 N 1294.82 -0.0116844 1.57596 0
M  V30 13847 C 1296.09 -0.735344 1.81251 0
M  V30 13848 C 1296.47 -1.92634 0.863446 0
M  V30 13849 O 1295.82 -2.28321 -0.0905028 0
M  V30 13850 C 1296.03 -1.15206 3.29437 0
M  V30 13851 C 1297.38 -1.56078 3.94873 0
M  V30 13852 O 1298.4 -1.24618 3.3369 0
M  V30 13853 O 1297.26 -2.14534 5.0263 0
M  V30 13854 H 1294.36 -0.357044 0.745955 0
M  V30 13855 H 1296.9 0.0128733 1.69695 0
M  V30 13856 H 1295.67 -0.302619 3.90128 0
M  V30 13857 H 1295.3 -1.95975 3.45947 0
M  V30 13858 N 1296.29 -1.55015 -0.284256 0
M  V30 13859 C 1297.54 -1.7535 -1.01884 0
M  V30 13860 C 1297.87 -0.546825 -1.86342 0
M  V30 13861 O 1297.15 0.455832 -1.89083 0
M  V30 13862 C 1297.43 -3.05219 -1.91084 0
M  V30 13863 C 1297.28 -4.36219 -1.09694 0
M  V30 13864 C 1298.6 -3.31056 -2.89983 0
M  V30 13865 H 1295.72 -0.637981 -0.368984 0
M  V30 13866 H 1298.36 -1.87741 -0.292116 0
M  V30 13867 H 1296.51 -2.94786 -2.53048 0
M  V30 13868 H 1298.19 -4.58594 -0.498876 0
M  V30 13869 H 1296.43 -4.31951 -0.400078 0
M  V30 13870 H 1297.1 -5.23392 -1.75399 0
M  V30 13871 H 1299.58 -3.41209 -2.38151 0
M  V30 13872 H 1298.45 -4.23212 -3.49547 0
M  V30 13873 H 1298.71 -2.50153 -3.64521 0
M  V30 13874 N 1297.77 0.548248 -1.47757 0
M  V30 13875 C 1299.02 1.30458 -1.56052 0
M  V30 13876 C 1299.37 1.91096 -0.22363 0
M  V30 13877 O 1298.67 1.75375 0.771644 0
M  V30 13878 C 1298.86 2.42911 -2.62162 0
M  V30 13879 C 1298.69 1.93293 -4.06039 0
M  V30 13880 C 1297.46 1.76727 -4.73387 0
M  V30 13881 C 1299.66 1.47214 -4.9278 0
M  V30 13882 N 1297.64 1.21543 -6.01748 0
M  V30 13883 C 1299.01 1.03855 -6.1124 0
M  V30 13884 C 1301.06 1.35348 -4.79151 0
M  V30 13885 C 1299.77 0.498086 -7.17573 0
M  V30 13886 C 1301.79 0.827023 -5.85589 0
M  V30 13887 C 1301.16 0.40341 -7.03244 0
M  V30 13888 H 1297.25 0.469075 -0.625694 0
M  V30 13889 H 1299.84 0.620405 -1.84551 0
M  V30 13890 H 1298.01 3.08847 -2.35516 0
M  V30 13891 H 1299.74 3.09924 -2.60249 0
M  V30 13892 H 1296.5 1.99709 -4.29433 0
M  V30 13893 H 1296.92 0.960132 -6.70157 0
M  V30 13894 H 1301.56 1.66708 -3.88546 0
M  V30 13895 H 1299.28 0.172123 -8.07917 0
M  V30 13896 H 1302.87 0.738641 -5.77092 0
M  V30 13897 H 1301.75 0.00236338 -7.842 0
M  V30 13898 N 1299.25 1.36039 0.795694 0
M  V30 13899 C 1300.47 1.33222 1.58955 0
M  V30 13900 C 1300.9 -0.0854596 1.87906 0
M  V30 13901 O 1300.26 -1.05555 1.47403 0
M  V30 13902 C 1300.31 2.15508 2.89117 0
M  V30 13903 O 1299.41 1.54327 3.82436 0
M  V30 13904 H 1298.75 0.456264 0.48241 0
M  V30 13905 H 1301.28 1.79234 0.986726 0
M  V30 13906 H 1301.29 2.2786 3.38444 0
M  V30 13907 H 1299.97 3.18568 2.67371 0
M  V30 13908 H 1298.54 1.50879 3.41013 0
M  V30 13909 N 1300.73 -1.01913 1.20215 0
M  V30 13910 C 1301.96 -1.78817 1.0348 0
M  V30 13911 C 1302.37 -1.84499 -0.419152 0
M  V30 13912 O 1301.71 -1.29506 -1.30284 0
M  V30 13913 C 1301.77 -3.24858 1.53973 0
M  V30 13914 C 1301.44 -3.42788 3.02234 0
M  V30 13915 C 1302.43 -3.32213 3.99914 0
M  V30 13916 C 1300.12 -3.68687 3.41138 0
M  V30 13917 C 1302.11 -3.47276 5.34489 0
M  V30 13918 C 1299.8 -3.83394 4.7587 0
M  V30 13919 C 1300.8 -3.72693 5.72354 0
M  V30 13920 O 1300.48 -3.86953 7.04643 0
M  V30 13921 H 1300.22 -0.569268 0.364568 0
M  V30 13922 H 1302.77 -1.29184 1.59689 0
M  V30 13923 H 1301 -3.7556 0.921478 0
M  V30 13924 H 1302.69 -3.83388 1.33297 0
M  V30 13925 H 1303.46 -3.12145 3.71202 0
M  V30 13926 H 1299.33 -3.76104 2.66583 0
M  V30 13927 H 1302.88 -3.3884 6.09782 0
M  V30 13928 H 1298.78 -4.02962 5.04273 0
M  V30 13929 H 1299.54 -4.03986 7.11855 0
M  V30 13930 N 1302.21 -1.00763 -1.2118 0
M  V30 13931 C 1303.45 -0.690459 -1.8994 0
M  V30 13932 C 1303.78 0.781464 -1.78656 0
M  V30 13933 O 1303.05 1.56135 -1.18316 0
M  V30 13934 H 1301.63 -0.252397 -0.703068 0
M  V30 13935 H 1304.29 -1.2773 -1.47211 0
M  V30 13936 H 1303.38 -0.96594 -2.96776 0
M  V30 13937 N 1303.68 1.3679 -0.7827 0
M  V30 13938 C 1304.93 1.98664 -0.348634 0
M  V30 13939 C 1305.25 1.62827 1.08382 0
M  V30 13940 O 1306.45 2.17886 1.61982 0
M  V30 13941 C 1304.91 3.55319 -0.572392 0
M  V30 13942 C 1304.52 4.00086 -2.01582 0
M  V30 13943 C 1306.26 4.24017 -0.202496 0
M  V30 13944 C 1304.17 5.49493 -2.18659 0
M  V30 13945 H 1303.1 0.743294 -0.126612 0
M  V30 13946 H 1305.75 1.56177 -0.963383 0
M  V30 13947 H 1304.13 3.95842 0.111973 0
M  V30 13948 H 1305.3 3.7078 -2.73603 0
M  V30 13949 H 1303.62 3.44205 -2.34333 0
M  V30 13950 H 1306.22 5.3381 -0.308459 0
M  V30 13951 H 1306.56 4.07559 0.84859 0
M  V30 13952 H 1307.09 3.88834 -0.839834 0
M  V30 13953 H 1303.83 5.7089 -3.22126 0
M  V30 13954 H 1303.35 5.80447 -1.51134 0
M  V30 13955 H 1305.03 6.15621 -1.99048 0
M  V30 13956 N 1305.16 0.53415 1.48272 0
M  V30 13957 C 1306.09 -0.215037 2.32508 0
M  V30 13958 C 1307.07 -0.931083 1.42355 0
M  V30 13959 O 1308.26 -0.916051 1.71237 0
M  V30 13960 C 1305.39 -1.25985 3.23643 0
M  V30 13961 C 1304.34 -0.661692 4.22854 0
M  V30 13962 C 1303.67 -1.80946 5.03153 0
M  V30 13963 C 1304.97 0.369358 5.20992 0
M  V30 13964 H 1306.66 0.488158 2.95394 0
M  V30 13965 H 1304.21 0.236206 1.4205 0
M  V30 13966 H 1306.16 -1.79195 3.81402 0
M  V30 13967 H 1304.89 -1.99268 2.58766 0
M  V30 13968 H 1303.54 -0.151082 3.66289 0
M  V30 13969 H 1303.19 -2.53077 4.34696 0
M  V30 13970 H 1302.89 -1.41513 5.70305 0
M  V30 13971 H 1304.42 -2.34526 5.63764 0
M  V30 13972 H 1305.83 -0.0758076 5.7325 0
M  V30 13973 H 1304.23 0.681301 5.9622 0
M  V30 13974 H 1305.3 1.27363 4.67875 0
M  V30 13975 N 1306.64 -1.55279 0.269478 0
M  V30 13976 C 1307.57 -2.25278 -0.614188 0
M  V30 13977 C 1308.55 -1.24092 -1.1634 0
M  V30 13978 O 1309.74 -1.52799 -1.19858 0
M  V30 13979 C 1306.87 -2.96956 -1.80096 0
M  V30 13980 C 1305.82 -4.05021 -1.38353 0
M  V30 13981 C 1305.15 -4.64244 -2.65295 0
M  V30 13982 C 1306.45 -5.19523 -0.537886 0
M  V30 13983 H 1308.14 -2.99385 -0.0304397 0
M  V30 13984 H 1305.69 -1.43994 -0.0132004 0
M  V30 13985 H 1307.64 -3.44633 -2.42499 0
M  V30 13986 H 1306.36 -2.20374 -2.41045 0
M  V30 13987 H 1305.02 -3.58146 -0.78273 0
M  V30 13988 H 1304.67 -3.84337 -3.2449 0
M  V30 13989 H 1304.37 -5.37208 -2.38079 0
M  V30 13990 H 1305.89 -5.14668 -3.28557 0
M  V30 13991 H 1307.31 -5.63287 -1.06677 0
M  V30 13992 H 1305.71 -5.99014 -0.360845 0
M  V30 13993 H 1306.78 -4.82857 0.444672 0
M  V30 13994 N 1308.12 0.00332656 -1.576 0
M  V30 13995 C 1309.36 0.684275 -1.91544 0
M  V30 13996 C 1309.72 1.71565 -0.870814 0
M  V30 13997 O 1309.01 1.9124 0.117405 0
M  V30 13998 C 1309.21 1.37237 -3.30001 0
M  V30 13999 C 1309.04 0.409158 -4.47835 0
M  V30 14000 C 1307.81 0.0207716 -5.05296 0
M  V30 14001 C 1310 -0.323226 -5.13283 0
M  V30 14002 N 1307.99 -0.941002 -6.06645 0
M  V30 14003 C 1309.36 -1.13979 -6.09433 0
M  V30 14004 C 1311.41 -0.387419 -4.9639 0
M  V30 14005 C 1310.11 -2.0147 -6.90509 0
M  V30 14006 C 1312.14 -1.24954 -5.78049 0
M  V30 14007 C 1311.5 -2.05396 -6.73789 0
M  V30 14008 H 1307.6 0.223698 -0.749322 0
M  V30 14009 H 1310.19 -0.0562395 -1.94619 0
M  V30 14010 H 1308.36 2.0832 -3.27807 0
M  V30 14011 H 1310.09 2.00775 -3.51385 0
M  V30 14012 H 1306.84 0.38844 -4.72004 0
M  V30 14013 H 1307.27 -1.41716 -6.62001 0
M  V30 14014 H 1311.91 0.220225 -4.22226 0
M  V30 14015 H 1309.63 -2.63303 -7.64001 0
M  V30 14016 H 1313.21 -1.30308 -5.6702 0
M  V30 14017 H 1312.09 -2.71028 -7.35876 0
M  V30 14018 N 1309.6 1.55164 0.276031 0
M  V30 14019 C 1310.51 1.90928 1.36321 0
M  V30 14020 C 1311.52 0.806183 1.54197 0
M  V30 14021 O 1312.7 1.10497 1.68382 0
M  V30 14022 C 1309.76 2.17123 2.70293 0
M  V30 14023 C 1308.82 3.40703 2.6119 0
M  V30 14024 C 1308.06 3.65638 3.88773 0
M  V30 14025 O 1308.28 2.93137 4.89313 0
M  V30 14026 O 1307.21 4.59172 3.89159 0
M  V30 14027 H 1311.04 2.8347 1.08988 0
M  V30 14028 H 1308.63 1.41672 0.474292 0
M  V30 14029 H 1310.51 2.3541 3.49514 0
M  V30 14030 H 1309.18 1.27765 2.97419 0
M  V30 14031 H 1308.09 3.27754 1.80355 0
M  V30 14032 H 1309.42 4.30271 2.39014 0
M  V30 14033 N 1311.07 -0.540404 1.48045 0
M  V30 14034 C 1312.32 -1.2932 1.54787 0
M  V30 14035 C 1312.64 -1.94335 0.222109 0
M  V30 14036 O 1313.84 -2.70982 0.167675 0
M  V30 14037 C 1312.3 -2.34594 2.72935 0
M  V30 14038 C 1311.91 -1.75696 4.1211 0
M  V30 14039 C 1313.65 -3.10949 2.88982 0
M  V30 14040 C 1311.56 -2.78849 5.21534 0
M  V30 14041 H 1310.49 -0.486315 0.576206 0
M  V30 14042 H 1313.14 -0.571998 1.74357 0
M  V30 14043 H 1311.52 -3.09704 2.46778 0
M  V30 14044 H 1312.69 -1.06845 4.48242 0
M  V30 14045 H 1311.01 -1.11869 4.01091 0
M  V30 14046 H 1313.61 -3.88012 3.679 0
M  V30 14047 H 1313.95 -3.66173 1.98048 0
M  V30 14048 H 1314.48 -2.42953 3.1499 0
M  V30 14049 H 1311.22 -2.28459 6.144 0
M  V30 14050 H 1310.74 -3.46059 4.89901 0
M  V30 14051 H 1312.42 -3.4203 5.49203 0
M  V30 14052 N 1312.55 -1.36459 -0.788468 0
M  V30 14053 C 1313.8 -1.30741 -1.54638 0
M  V30 14054 C 1314.13 0.113029 -1.94171 0
M  V30 14055 O 1313.38 1.08252 -1.63034 0
M  V30 14056 C 1313.68 -2.17672 -2.83467 0
M  V30 14057 C 1313.35 -3.66205 -2.63067 0
M  V30 14058 C 1312.01 -4.06688 -2.57212 0
M  V30 14059 C 1314.36 -4.60376 -2.44343 0
M  V30 14060 C 1311.69 -5.39482 -2.306 0
M  V30 14061 C 1314.04 -5.93388 -2.19258 0
M  V30 14062 C 1312.71 -6.32994 -2.11836 0
M  V30 14063 H 1311.98 -0.478416 -0.565862 0
M  V30 14064 H 1314.62 -1.68519 -0.909588 0
M  V30 14065 H 1312.93 -1.72834 -3.51619 0
M  V30 14066 H 1314.62 -2.10573 -3.41263 0
M  V30 14067 H 1311.21 -3.3409 -2.6848 0
M  V30 14068 H 1315.4 -4.29971 -2.47868 0
M  V30 14069 H 1310.65 -5.69149 -2.23337 0
M  V30 14070 H 1314.83 -6.65923 -2.03765 0
M  V30 14071 H 1312.46 -7.3582 -1.90978 0
M  V30 14072 N 1314.03 1.01274 -1.20754 0
M  V30 14073 C 1315.26 1.7906 -1.04653 0
M  V30 14074 C 1315.68 1.83806 0.399632 0
M  V30 14075 O 1315.04 1.27596 1.28798 0
M  V30 14076 C 1315.09 3.21187 -1.63925 0
M  V30 14077 O 1314.19 4.02913 -0.879486 0
M  V30 14078 H 1313.53 0.552147 -0.368823 0
M  V30 14079 H 1316.06 1.27356 -1.6013 0
M  V30 14080 H 1316.07 3.71887 -1.67822 0
M  V30 14081 H 1314.75 3.17048 -2.69172 0
M  V30 14082 H 1313.32 3.61499 -0.915019 0
M  V30 14083 N 1315.51 1.01404 1.20644 0
M  V30 14084 C 1316.44 0.602465 2.25594 0
M  V30 14085 C 1317.42 -0.381216 1.65773 0
M  V30 14086 O 1318.61 -0.267209 1.92353 0
M  V30 14087 C 1315.74 -0.0626245 3.47244 0
M  V30 14088 C 1314.69 0.841776 4.1964 0
M  V30 14089 C 1314.02 0.0426002 5.34683 0
M  V30 14090 C 1315.32 2.14864 4.76058 0
M  V30 14091 H 1317.01 1.47977 2.60275 0
M  V30 14092 H 1314.56 0.712966 1.25111 0
M  V30 14093 H 1316.51 -0.362095 4.19841 0
M  V30 14094 H 1315.23 -0.974627 3.11719 0
M  V30 14095 H 1313.89 1.12521 3.48905 0
M  V30 14096 H 1313.54 -0.870973 4.95402 0
M  V30 14097 H 1313.24 0.644866 5.84051 0
M  V30 14098 H 1314.76 -0.250476 6.10086 0
M  V30 14099 H 1316.18 1.9117 5.40488 0
M  V30 14100 H 1314.57 2.70153 5.35852 0
M  V30 14101 H 1315.64 2.81336 3.9494 0
M  V30 14102 N 1316.99 -1.36373 0.789944 0
M  V30 14103 C 1318.24 -1.98834 0.361866 0
M  V30 14104 C 1318.56 -1.63006 -1.07024 0
M  V30 14105 O 1317.83 -0.904312 -1.73779 0
M  V30 14106 H 1316.41 -0.735457 0.130812 0
M  V30 14107 H 1319.07 -1.66561 1.0121 0
M  V30 14108 H 1318.16 -3.08778 0.454122 0
M  V30 14109 N 1318.47 -0.542005 -1.47987 0
M  V30 14110 C 1319.71 -0.0122873 -2.02096 0
M  V30 14111 C 1320.03 1.3362 -1.42024 0
M  V30 14112 O 1319.3 1.86807 -0.589911 0
M  V30 14113 H 1317.88 -0.00155365 -0.746998 0
M  V30 14114 H 1320.55 -0.708566 -1.81564 0
M  V30 14115 H 1319.64 0.0871275 -3.11978 0
M  V30 14116 N 1319.94 1.55134 -0.277709 0
M  V30 14117 C 1321.17 2.04061 0.341601 0
M  V30 14118 C 1321.59 1.15597 1.49274 0
M  V30 14119 O 1320.94 0.176625 1.81643 0
M  V30 14120 C 1320.99 3.52074 0.820139 0
M  V30 14121 O 1320.72 4.37171 -0.28516 0
M  V30 14122 C 1322.22 4.16899 1.507 0
M  V30 14123 H 1319.44 0.666501 0.0775708 0
M  V30 14124 H 1321.98 2.00336 -0.410559 0
M  V30 14125 H 1320.14 3.56233 1.52238 0
M  V30 14126 H 1320.55 5.24434 0.0832022 0
M  V30 14127 H 1322.02 5.22061 1.79323 0
M  V30 14128 H 1322.5 3.65227 2.43939 0
M  V30 14129 H 1323.11 4.16749 0.848541 0
M  V30 14130 N 1321.42 0.00503138 1.57599 0
M  V30 14131 C 1322.83 -0.537106 1.78807 0
M  V30 14132 C 1323.18 -1.73666 0.912945 0
M  V30 14133 O 1322.31 -2.16085 0.116775 0
M  V30 14134 C 1322.9 -0.98116 3.24282 0
M  V30 14135 C 1321.46 -1.46857 3.46569 0
M  V30 14136 C 1320.61 -0.422088 2.74069 0
M  V30 14137 H 1323.56 0.231182 1.57007 0
M  V30 14138 H 1323.58 -1.8469 3.32671 0
M  V30 14139 H 1323.09 -0.107907 3.8795 0
M  V30 14140 H 1321.19 -2.36255 2.88122 0
M  V30 14141 H 1321.31 -1.49256 4.55258 0
M  V30 14142 H 1319.67 -0.884853 2.38836 0
M  V30 14143 H 1320.45 0.442285 3.40439 0
M  V30 14144 N 1322.9 -1.55308 -0.267798 0
M  V30 14145 C 1324.13 -1.79929 -1.01533 0
M  V30 14146 C 1324.54 -0.57545 -1.80237 0
M  V30 14147 O 1323.88 0.465072 -1.77715 0
M  V30 14148 C 1323.94 -2.97568 -2.01726 0
M  V30 14149 C 1323.61 -4.34407 -1.41912 0
M  V30 14150 C 1324.6 -5.13197 -0.832151 0
M  V30 14151 C 1322.29 -4.81074 -1.44476 0
M  V30 14152 C 1324.28 -6.3679 -0.278781 0
M  V30 14153 C 1321.97 -6.04621 -0.887535 0
M  V30 14154 C 1322.97 -6.82316 -0.305548 0
M  V30 14155 O 1322.66 -8.03532 0.243133 0
M  V30 14156 H 1322.39 -0.603082 -0.305398 0
M  V30 14157 H 1324.94 -2.03162 -0.302378 0
M  V30 14158 H 1323.17 -2.7004 -2.76795 0
M  V30 14159 H 1324.86 -3.09466 -2.62651 0
M  V30 14160 H 1325.63 -4.78273 -0.805 0
M  V30 14161 H 1321.51 -4.20604 -1.88714 0
M  V30 14162 H 1325.05 -6.97378 0.176117 0
M  V30 14163 H 1320.95 -6.39026 -0.911943 0
M  V30 14164 H 1321.71 -8.18392 0.132991 0
M  V30 14165 N 1324.38 0.532545 -1.4833 0
M  V30 14166 C 1325.79 1.11451 -1.49785 0
M  V30 14167 C 1326.14 1.94386 -0.266207 0
M  V30 14168 O 1325.26 2.07121 0.62688 0
M  V30 14169 C 1325.86 2.0279 -2.71407 0
M  V30 14170 C 1324.42 2.56209 -2.75742 0
M  V30 14171 C 1323.57 1.33114 -2.43261 0
M  V30 14172 H 1326.52 0.317924 -1.55483 0
M  V30 14173 H 1326.54 2.87038 -2.49779 0
M  V30 14174 H 1326.05 1.42401 -3.61031 0
M  V30 14175 H 1324.15 3.20327 -1.9032 0
M  V30 14176 H 1324.26 2.95518 -3.77102 0
M  V30 14177 H 1322.63 1.64607 -1.94362 0
M  V30 14178 H 1323.41 0.744809 -3.35123 0
M  V30 14179 N 1325.86 1.36875 0.78122 0
M  V30 14180 C 1327.1 1.31299 1.53639 0
M  V30 14181 C 1327.42 -0.104942 1.94717 0
M  V30 14182 O 1326.69 -1.04696 1.65576 0
M  V30 14183 H 1325.27 0.483032 0.569815 0
M  V30 14184 H 1327.94 1.71261 0.930359 0
M  V30 14185 H 1327.03 1.94581 2.44018 0
M  V30 14186 N 1327.33 -1.00632 1.21289 0
M  V30 14187 C 1328.27 -2.09085 0.914258 0
M  V30 14188 C 1329.24 -1.62016 -0.137697 0
M  V30 14189 O 1330.43 -1.88498 -0.00902131 0
M  V30 14190 C 1327.56 -3.36645 0.37254 0
M  V30 14191 C 1326.6 -4.0262 1.40709 0
M  V30 14192 S 1327.43 -4.45203 2.97582 0
M  V30 14193 C 1328.59 -5.75951 2.45013 0
M  V30 14194 H 1328.82 -2.34094 1.83268 0
M  V30 14195 H 1326.36 -1.13893 1.04248 0
M  V30 14196 H 1328.31 -4.10446 0.0665561 0
M  V30 14197 H 1326.98 -3.09689 -0.524546 0
M  V30 14198 H 1326.17 -4.94427 0.977642 0
M  V30 14199 H 1325.77 -3.35088 1.66108 0
M  V30 14200 H 1328.06 -6.51634 1.85416 0
M  V30 14201 H 1329.01 -6.23706 3.35257 0
M  V30 14202 H 1329.41 -5.32707 1.8677 0
M  V30 14203 N 1328.81 -1.02043 -1.20104 0
M  V30 14204 C 1329.74 -0.538603 -2.21753 0
M  V30 14205 C 1330.72 0.416016 -1.57188 0
M  V30 14206 O 1331.91 0.335114 -1.85497 0
M  V30 14207 C 1329.03 0.215706 -3.38012 0
M  V30 14208 C 1328.08 -0.68905 -4.20897 0
M  V30 14209 S 1328.91 -2.16041 -4.89986 0
M  V30 14210 C 1330.07 -1.41637 -6.09664 0
M  V30 14211 H 1330.3 -1.39988 -2.6228 0
M  V30 14212 H 1327.83 -0.829641 -1.30216 0
M  V30 14213 H 1329.79 0.644798 -4.05404 0
M  V30 14214 H 1328.45 1.0526 -2.95938 0
M  V30 14215 H 1327.65 -0.107195 -5.03886 0
M  V30 14216 H 1327.25 -1.05609 -3.5878 0
M  V30 14217 H 1329.54 -0.698414 -6.73891 0
M  V30 14218 H 1330.48 -2.22254 -6.72316 0
M  V30 14219 H 1330.89 -0.917572 -5.56993 0
M  V30 14220 N 1330.29 1.35952 -0.797165 0
M  V30 14221 C 1331.54 1.99327 -0.373695 0
M  V30 14222 C 1331.87 1.63111 1.05396 0
M  V30 14223 O 1331.14 0.889736 1.72956 0
M  V30 14224 C 1331.43 3.5593 -0.54641 0
M  V30 14225 C 1331.28 4.01975 -2.01832 0
M  V30 14226 C 1332.6 4.40087 0.0337694 0
M  V30 14227 H 1329.72 0.724107 -0.137254 0
M  V30 14228 H 1332.36 1.61248 -1.00495 0
M  V30 14229 H 1330.51 3.88499 -0.00903959 0
M  V30 14230 H 1332.18 3.79859 -2.61735 0
M  V30 14231 H 1330.43 3.5323 -2.51815 0
M  V30 14232 H 1331.1 5.109 -2.09009 0
M  V30 14233 H 1333.57 4.13923 -0.425039 0
M  V30 14234 H 1332.45 5.48775 -0.117054 0
M  V30 14235 H 1332.71 4.27504 1.12661 0
M  V30 14236 N 1331.77 0.549846 1.47697 0
M  V30 14237 C 1333.05 -0.0422793 1.95554 0
M  V30 14238 C 1333.43 -1.49303 1.49238 0
M  V30 14239 O 1332.77 -2.16598 0.727844 0
M  V30 14240 C 1332.98 0.0955552 3.48869 0
M  V30 14241 C 1334.33 -0.0535698 4.24566 0
M  V30 14242 O 1335.36 0.0227365 3.56193 0
M  V30 14243 O 1334.21 -0.21645 5.46071 0
M  V30 14244 H 1331.31 -0.0682465 0.824179 0
M  V30 14245 H 1333.85 0.615849 1.58131 0
M  V30 14246 H 1332.63 1.10536 3.75363 0
M  V30 14247 H 1332.25 -0.600522 3.93039 0
M  V30 14248 N 1333.25 -1.54984 0.285932 0
M  V30 14249 C 1334.47 -2.04699 -0.333621 0
M  V30 14250 C 1334.9 -1.16252 -1.47875 0
M  V30 14251 O 1334.25 -0.163376 -1.80562 0
M  V30 14252 C 1334.3 -3.52022 -0.78187 0
M  V30 14253 O 1333.41 -3.66639 -1.88812 0
M  V30 14254 H 1332.75 -0.660579 -0.0673203 0
M  V30 14255 H 1335.28 -2.00171 0.423386 0
M  V30 14256 H 1335.29 -3.93591 -1.07473 0
M  V30 14257 H 1333.96 -4.15862 0.055893 0
M  V30 14258 H 1332.54 -3.36974 -1.59696 0
M  V30 14259 N 1334.72 -0.0133892 -1.57594 0
M  V30 14260 C 1335.95 0.679255 -1.95432 0
M  V30 14261 C 1336.37 1.66558 -0.889028 0
M  V30 14262 O 1335.72 1.82031 0.130755 0
M  V30 14263 C 1335.78 1.39943 -3.33314 0
M  V30 14264 O 1335.5 0.452643 -4.35755 0
M  V30 14265 C 1337 2.18535 -3.85691 0
M  V30 14266 H 1334.22 0.188337 -0.644026 0
M  V30 14267 H 1336.76 -0.0684861 -2.04385 0
M  V30 14268 H 1334.92 2.0987 -3.25628 0
M  V30 14269 H 1335.33 0.962243 -5.15598 0
M  V30 14270 H 1336.8 2.64403 -4.84557 0
M  V30 14271 H 1337.28 3.01779 -3.19102 0
M  V30 14272 H 1337.89 1.53598 -3.96595 0
M  V30 14273 N 1336.2 1.55448 0.259558 0
M  V30 14274 C 1337.45 1.76686 0.98935 0
M  V30 14275 C 1337.78 0.575434 1.85793 0
M  V30 14276 O 1337.03 -0.441676 1.90651 0
M  V30 14277 C 1337.33 3.03292 1.89073 0
M  V30 14278 C 1337 4.35225 1.17855 0
M  V30 14279 C 1335.66 4.7108 0.981675 0
M  V30 14280 C 1338.01 5.16839 0.6728 0
M  V30 14281 C 1335.34 5.86094 0.266551 0
M  V30 14282 C 1337.69 6.32593 -0.0287965 0
M  V30 14283 C 1336.36 6.67078 -0.23726 0
M  V30 14284 H 1335.63 0.646542 0.362029 0
M  V30 14285 H 1338.27 1.8972 0.260488 0
M  V30 14286 H 1336.58 2.85217 2.68624 0
M  V30 14287 H 1338.27 3.16923 2.45685 0
M  V30 14288 H 1334.86 4.07051 1.34192 0
M  V30 14289 H 1339.05 4.89604 0.812481 0
M  V30 14290 H 1334.3 6.11327 0.0944447 0
M  V30 14291 H 1338.48 6.95081 -0.428378 0
M  V30 14292 H 1336.11 7.56049 -0.793358 0
M  V30 14293 N 1337.68 -0.524672 1.4861 0
M  V30 14294 C 1338.91 -1.30292 1.60335 0
M  V30 14295 C 1339.32 -1.87338 0.264774 0
M  V30 14296 O 1338.66 -1.67388 -0.756756 0
M  V30 14297 C 1338.72 -2.48809 2.59488 0
M  V30 14298 C 1338.39 -2.12811 4.04426 0
M  V30 14299 C 1339.38 -1.68171 4.9195 0
M  V30 14300 C 1337.07 -2.23171 4.5 0
M  V30 14301 C 1339.06 -1.34363 6.23077 0
M  V30 14302 C 1336.75 -1.88975 5.81147 0
M  V30 14303 C 1337.75 -1.44643 6.67508 0
M  V30 14304 O 1337.44 -1.10898 7.96214 0
M  V30 14305 H 1337.17 -0.402288 0.543268 0
M  V30 14306 H 1339.72 -0.63908 1.95205 0
M  V30 14307 H 1337.95 -3.18192 2.19751 0
M  V30 14308 H 1339.64 -3.10866 2.60992 0
M  V30 14309 H 1340.41 -1.59632 4.57977 0
M  V30 14310 H 1336.29 -2.56632 3.82963 0
M  V30 14311 H 1339.83 -0.996875 6.90441 0
M  V30 14312 H 1335.73 -1.97156 6.14654 0
M  V30 14313 H 1336.5 -1.2425 8.09014 0
M  V30 14314 N 1339.16 -1.37287 -0.77395 0
M  V30 14315 C 1340.11 -1.32955 -1.90855 0
M  V30 14316 C 1341.1 -0.218695 -1.67982 0
M  V30 14317 O 1342.31 -0.386594 -1.75799 0
M  V30 14318 H 1338.68 -0.414289 -0.62759 0
M  V30 14319 H 1340.65 -2.2874 -1.91626 0
M  V30 14320 C 1339.4 -1.15121 -3.28089 0
M  V30 14321 H 1338.72 -1.99852 -3.46264 0
M  V30 14322 H 1340.16 -1.1614 -4.07784 0
M  V30 14323 C 1338.62 0.14327 -3.36595 0
M  V30 14324 O 1339.15 1.12763 -3.85548 0
M  V30 14325 N 1337.36 0.193219 -2.89957 0
M  V30 14326 H 1336.91 -0.608471 -2.50311 0
M  V30 14327 H 1336.86 1.05897 -2.96029 0
M  V30 14328 N 1340.64 0.999871 -1.21821 0
M  V30 14329 C 1341.58 2.08864 -0.98206 0
M  V30 14330 C 1342.55 1.65835 0.0937677 0
M  V30 14331 O 1343.74 1.90722 -0.0544038 0
M  V30 14332 C 1340.88 3.40553 -0.558382 0
M  V30 14333 C 1339.99 3.96964 -1.70422 0
M  V30 14334 C 1339.13 5.16782 -1.2292 0
M  V30 14335 C 1338.17 5.65315 -2.34703 0
M  V30 14336 N 1337.3 6.76379 -1.88299 0
M  V30 14337 H 1342.14 2.28399 -1.9141 0
M  V30 14338 H 1339.68 1.11984 -0.953837 0
M  V30 14339 H 1341.64 4.16163 -0.293955 0
M  V30 14340 H 1340.27 3.2104 0.336656 0
M  V30 14341 H 1339.32 3.18291 -2.08315 0
M  V30 14342 H 1340.63 4.2897 -2.54531 0
M  V30 14343 H 1339.79 5.99657 -0.92174 0
M  V30 14344 H 1338.52 4.86383 -0.358222 0
M  V30 14345 H 1337.53 4.81033 -2.66246 0
M  V30 14346 H 1338.75 5.97742 -3.22306 0
M  V30 14347 H 1336.7 6.47775 -1.03552 0
M  V30 14348 H 1336.62 7.07666 -2.65978 0
M  V30 14349 H 1337.89 7.62776 -1.60601 0
M  V30 14350 N 1342.11 1.02678 1.19562 0
M  V30 14351 C 1343.36 0.717279 1.88515 0
M  V30 14352 C 1343.68 -0.757063 1.80355 0
M  V30 14353 O 1344.88 -1.17953 2.44539 0
M  V30 14354 C 1343.34 1.23265 3.38133 0
M  V30 14355 C 1342.95 2.73462 3.54856 0
M  V30 14356 C 1344.69 0.99904 4.12577 0
M  V30 14357 C 1342.6 3.18428 4.98355 0
M  V30 14358 H 1341.53 0.264608 0.706044 0
M  V30 14359 H 1344.18 1.2408 1.3519 0
M  V30 14360 H 1342.56 0.637052 3.90842 0
M  V30 14361 H 1343.73 3.38659 3.12485 0
M  V30 14362 H 1342.05 2.95079 2.93798 0
M  V30 14363 H 1344.65 1.3103 5.18397 0
M  V30 14364 H 1344.99 -0.064217 4.1625 0
M  V30 14365 H 1345.52 1.55853 3.65998 0
M  V30 14366 H 1342.26 4.24074 4.99842 0
M  V30 14367 H 1341.78 2.57958 5.41496 0
M  V30 14368 H 1343.46 3.11649 5.66996 0
M  V30 14369 N 1343.59 -1.35528 0.804364 0
M  V30 14370 C 1344.54 -2.29832 0.211186 0
M  V30 14371 C 1345.51 -1.52704 -0.653503 0
M  V30 14372 O 1346.69 -1.81152 -0.599052 0
M  V30 14373 C 1343.83 -3.39188 -0.636054 0
M  V30 14374 C 1342.95 -4.31283 0.248824 0
M  V30 14375 C 1342.08 -5.2773 -0.60621 0
M  V30 14376 C 1341.12 -6.11463 0.279205 0
M  V30 14377 N 1340.26 -7.00054 -0.535672 0
M  V30 14378 H 1345.1 -2.79971 1.0208 0
M  V30 14379 H 1342.64 -1.37793 0.514931 0
M  V30 14380 H 1344.59 -4.01254 -1.14241 0
M  V30 14381 H 1343.22 -2.90331 -1.41095 0
M  V30 14382 H 1342.28 -3.70241 0.873263 0
M  V30 14383 H 1343.59 -4.90046 0.930417 0
M  V30 14384 H 1342.74 -5.95158 -1.17778 0
M  V30 14385 H 1341.48 -4.69458 -1.32138 0
M  V30 14386 H 1340.49 -5.42984 0.863066 0
M  V30 14387 H 1341.71 -6.71813 0.9922 0
M  V30 14388 H 1339.66 -6.44273 -1.23486 0
M  V30 14389 H 1339.57 -7.55949 0.0879213 0
M  V30 14390 H 1340.84 -7.71833 -1.09059 0
M  V30 14391 N 1345.07 -0.557671 -1.47404 0
M  V30 14392 C 1346.3 -0.0366797 -2.07368 0
M  V30 14393 C 1346.72 1.2478 -1.40754 0
M  V30 14394 O 1346.08 1.74757 -0.48268 0
M  V30 14395 C 1346.13 0.141728 -3.60321 0
M  V30 14396 O 1345.23 1.20419 -3.94427 0
M  V30 14397 H 1344.57 -0.0515319 -0.661997 0
M  V30 14398 H 1347.1 -0.773485 -1.89416 0
M  V30 14399 H 1347.11 0.355787 -4.06446 0
M  V30 14400 H 1345.79 -0.796433 -4.08203 0
M  V30 14401 H 1344.36 0.970589 -3.60047 0
M  V30 14402 N 1346.55 1.54831 -0.294147 0
M  V30 14403 C 1347.8 1.99606 0.316509 0
M  V30 14404 C 1348.12 1.18405 1.54936 0
M  V30 14405 O 1347.39 0.278289 1.93913 0
M  V30 14406 H 1345.97 0.737309 0.119938 0
M  V30 14407 H 1348.63 1.90669 -0.403891 0
M  V30 14408 H 1347.73 3.06409 0.593282 0
M  V30 14409 N 1348.03 0.0217466 1.57585 0
M  V30 14410 C 1349.26 -0.667911 1.95506 0
M  V30 14411 C 1349.67 -1.66616 0.89642 0
M  V30 14412 O 1349.01 -1.83232 -0.131059 0
M  V30 14413 C 1349.07 -1.43696 3.29533 0
M  V30 14414 C 1348.73 -0.59787 4.53072 0
M  V30 14415 C 1349.73 0.12372 5.19753 0
M  V30 14416 C 1347.42 -0.53744 4.99417 0
M  V30 14417 C 1349.41 0.894491 6.31092 0
M  V30 14418 C 1347.1 0.237041 6.1064 0
M  V30 14419 C 1348.1 0.95172 6.76337 0
M  V30 14420 O 1347.78 1.71352 7.85426 0
M  V30 14421 H 1347.52 -0.189544 0.648883 0
M  V30 14422 H 1350.07 0.0755682 2.05261 0
M  V30 14423 H 1348.3 -2.22541 3.16247 0
M  V30 14424 H 1349.99 -2.01402 3.52409 0
M  V30 14425 H 1350.75 0.0863208 4.84923 0
M  V30 14426 H 1346.63 -1.08327 4.48092 0
M  V30 14427 H 1350.18 1.45285 6.82304 0
M  V30 14428 H 1346.07 0.276183 6.44909 0
M  V30 14429 H 1346.84 1.63252 8.02054 0
M  V30 14430 N 1349.51 -1.55583 -0.251311 0
M  V30 14431 C 1350.92 -1.47908 -0.599606 0
M  V30 14432 C 1351.12 -0.711061 -1.88537 0
M  V30 14433 O 1350.18 -0.238639 -2.5137 0
M  V30 14434 C 1351.49 -2.92284 -0.706429 0
M  V30 14435 C 1353.04 -3.02629 -0.799049 0
M  V30 14436 C 1353.51 -4.48303 -0.93747 0
M  V30 14437 N 1355 -4.52222 -1.00245 0
M  V30 14438 C 1355.74 -5.62181 -1.12874 0
M  V30 14439 N 1355.24 -6.81958 -1.22085 0
M  V30 14440 N 1357.03 -5.49968 -1.16155 0
M  V30 14441 H 1349.18 -2.0396 0.592806 0
M  V30 14442 H 1351.44 -0.925797 0.203971 0
M  V30 14443 H 1351.15 -3.51297 0.168243 0
M  V30 14444 H 1351.02 -3.42524 -1.57979 0
M  V30 14445 H 1353.41 -2.43699 -1.66418 0
M  V30 14446 H 1353.49 -2.55607 0.099367 0
M  V30 14447 H 1353.13 -5.07842 -0.0769166 0
M  V30 14448 H 1353.06 -4.93002 -1.85086 0
M  V30 14449 H 1355.56 -3.65951 -0.94279 0
M  V30 14450 H 1355.87 -7.6151 -1.31616 0
M  V30 14451 H 1354.21 -6.84728 -1.1905 0
M  V30 14452 H 1357.4 -4.55327 -1.08604 0
M  V30 14453 H 1357.58 -6.35701 -1.25653 0
M  V30 14454 N 1350.98 0.516783 -1.48886 0
M  V30 14455 C 1351.92 1.63715 -1.58974 0
M  V30 14456 C 1352.89 1.56547 -0.439513 0
M  V30 14457 O 1354.08 1.76831 -0.652924 0
M  V30 14458 C 1351.21 3.02172 -1.53002 0
M  V30 14459 C 1350.25 3.27655 -2.73029 0
M  V30 14460 S 1351.08 3.12489 -4.34869 0
M  V30 14461 C 1352.24 4.53369 -4.31517 0
M  V30 14462 H 1352.47 1.5491 -2.53752 0
M  V30 14463 H 1350.01 0.700754 -1.37582 0
M  V30 14464 H 1351.96 3.82017 -1.50243 0
M  V30 14465 H 1350.63 3.08405 -0.59539 0
M  V30 14466 H 1349.82 4.28693 -2.65026 0
M  V30 14467 H 1349.42 2.55504 -2.73119 0
M  V30 14468 H 1351.71 5.45151 -4.02264 0
M  V30 14469 H 1352.66 4.66425 -5.32779 0
M  V30 14470 H 1353.06 4.3331 -3.61804 0
M  V30 14471 N 1352.46 1.37696 0.766659 0
M  V30 14472 C 1353.42 1.33688 1.86172 0
M  V30 14473 C 1354.42 0.239922 1.59 0
M  V30 14474 O 1355.61 0.496066 1.66988 0
M  V30 14475 C 1352.75 1.07807 3.23405 0
M  V30 14476 H 1353.94 2.311 1.91136 0
M  V30 14477 H 1351.49 1.22799 0.966961 0
M  V30 14478 H 1352.23 0.109477 3.24115 0
M  V30 14479 H 1352.01 1.87213 3.4452 0
M  V30 14480 H 1353.5 1.07665 4.03482 0
M  V30 14481 N 1353.94 -0.993397 1.22349 0
M  V30 14482 C 1354.89 -2.0834 0.993123 0
M  V30 14483 C 1355.86 -1.65883 -0.0849717 0
M  V30 14484 O 1357.04 -1.90691 0.0645176 0
M  V30 14485 C 1354.18 -3.40252 0.576434 0
M  V30 14486 C 1353.29 -3.96055 1.72524 0
M  V30 14487 C 1352.43 -5.16123 1.25659 0
M  V30 14488 C 1351.47 -5.64062 2.37698 0
M  V30 14489 N 1350.61 -6.7537 1.91883 0
M  V30 14490 H 1355.45 -2.27381 1.92619 0
M  V30 14491 H 1352.98 -1.11476 0.959763 0
M  V30 14492 H 1354.94 -4.16001 0.316021 0
M  V30 14493 H 1353.57 -3.21214 -0.319626 0
M  V30 14494 H 1352.62 -3.17182 2.1 0
M  V30 14495 H 1353.93 -4.27614 2.56802 0
M  V30 14496 H 1353.09 -5.9916 0.953528 0
M  V30 14497 H 1351.83 -4.86186 0.384011 0
M  V30 14498 H 1350.83 -4.79614 2.68794 0
M  V30 14499 H 1352.06 -5.96025 3.25471 0
M  V30 14500 H 1350 -6.47217 1.06986 0
M  V30 14501 H 1349.92 -7.06246 2.69727 0
M  V30 14502 H 1351.19 -7.61914 1.64644 0
M  V30 14503 N 1355.42 -1.03311 -1.19015 0
M  V30 14504 C 1356.83 -0.761079 -1.70483 0
M  V30 14505 C 1357.18 0.718851 -1.82557 0
M  V30 14506 O 1356.3 1.56006 -1.4997 0
M  V30 14507 C 1356.9 -1.37492 -3.09647 0
M  V30 14508 C 1355.46 -1.15138 -3.58358 0
M  V30 14509 C 1354.61 -1.47034 -2.35109 0
M  V30 14510 H 1357.56 -1.2005 -1.03797 0
M  V30 14511 H 1357.58 -0.774115 -3.72542 0
M  V30 14512 H 1357.09 -2.45203 -3.00828 0
M  V30 14513 H 1355.19 -0.0926822 -3.72485 0
M  V30 14514 H 1355.3 -1.84307 -4.4223 0
M  V30 14515 H 1353.67 -0.889794 -2.38652 0
M  V30 14516 H 1354.45 -2.55837 -2.28916 0
M  V30 14517 N 1356.9 1.35099 -0.81154 0
M  V30 14518 C 1358.17 1.93009 -0.317289 0
M  V30 14519 C 1358.55 1.74101 1.19382 0
M  V30 14520 O 1357.9 1.11295 1.99564 0
M  V30 14521 C 1358.11 3.41191 -0.734123 0
M  V30 14522 C 1359.46 4.1834 -0.726437 0
M  V30 14523 O 1360.48 3.49727 -0.67598 0
M  V30 14524 O 1359.34 5.4077 -0.789291 0
M  V30 14525 H 1356.44 0.822707 -0.084153 0
M  V30 14526 H 1358.98 1.44145 -0.895569 0
M  V30 14527 H 1357.75 3.48705 -1.7754 0
M  V30 14528 H 1357.38 3.97384 -0.130919 0
M  V30 14529 N 1358.37 0.56548 1.47106 0
M  V30 14530 C 1359.32 -0.198133 2.27137 0
M  V30 14531 C 1360.31 -0.877743 1.3485 0
M  V30 14532 O 1361.5 -0.774683 1.59147 0
M  V30 14533 C 1358.63 -1.22223 3.20806 0
M  V30 14534 C 1357.71 -0.545616 4.20576 0
M  V30 14535 N 1358.11 0.389029 5.04302 0
M  V30 14536 C 1356.4 -0.798517 4.38793 0
M  V30 14537 C 1357.1 0.782852 5.76408 0
M  V30 14538 N 1356.08 0.13583 5.4343 0
M  V30 14539 H 1359.88 0.520354 2.89257 0
M  V30 14540 H 1357.4 0.386013 1.57746 0
M  V30 14541 H 1359.39 -1.78332 3.76833 0
M  V30 14542 H 1358.05 -1.94172 2.60244 0
M  V30 14543 H 1359.06 0.763644 5.12239 0
M  V30 14544 H 1355.74 -1.50589 3.89396 0
M  V30 14545 H 1357.13 1.55133 6.53746 0
M  V30 14546 N 1359.85 -1.54672 0.302354 0
M  V30 14547 C 1360.82 -2.22246 -0.560283 0
M  V30 14548 C 1361.82 -1.20895 -1.06023 0
M  V30 14549 O 1363.01 -1.45621 -0.956047 0
M  V30 14550 C 1360.14 -2.9099 -1.77589 0
M  V30 14551 H 1361.33 -2.99885 0.0301274 0
M  V30 14552 H 1358.88 -1.56209 0.0532036 0
M  V30 14553 H 1359.62 -2.17433 -2.4061 0
M  V30 14554 H 1359.4 -3.65288 -1.42503 0
M  V30 14555 H 1360.89 -3.42535 -2.38871 0
M  V30 14556 N 1361.33 -0.0301034 -1.57571 0
M  V30 14557 C 1362.56 0.658488 -1.96142 0
M  V30 14558 C 1362.97 1.65606 -0.906644 0
M  V30 14559 O 1362.33 1.82159 0.111441 0
M  V30 14560 C 1362.38 1.364 -3.34779 0
M  V30 14561 O 1362.1 0.4064 -4.36211 0
M  V30 14562 C 1363.6 2.14432 -3.87987 0
M  V30 14563 H 1360.82 0.181496 -0.645988 0
M  V30 14564 H 1363.37 -0.09016 -2.04301 0
M  V30 14565 H 1361.52 2.06404 -3.27836 0
M  V30 14566 H 1361.94 0.907503 -5.16589 0
M  V30 14567 H 1363.41 2.59248 -4.87334 0
M  V30 14568 H 1363.89 2.98377 -3.22285 0
M  V30 14569 H 1364.49 1.49383 -3.98202 0
M  V30 14570 N 1362.81 1.55714 0.243056 0
M  V30 14571 C 1364.03 1.82126 0.992219 0
M  V30 14572 C 1364.46 0.607665 1.78014 0
M  V30 14573 O 1363.82 -0.443351 1.75796 0
M  V30 14574 C 1363.86 3.06314 1.90274 0
M  V30 14575 O 1362.97 2.83499 2.99503 0
M  V30 14576 H 1362.31 0.601082 0.282128 0
M  V30 14577 H 1364.84 2.02904 0.262881 0
M  V30 14578 H 1364.85 3.35849 2.31666 0
M  V30 14579 H 1363.52 3.94282 1.32344 0
M  V30 14580 H 1362.1 2.65141 2.62211 0
M  V30 14581 N 1364.29 -0.50888 1.49158 0
M  V30 14582 C 1365.2 -1.63782 1.67966 0
M  V30 14583 C 1366.21 -1.64667 0.562207 0
M  V30 14584 O 1367.39 -1.83232 0.835935 0
M  V30 14585 C 1364.45 -3.00179 1.73474 0
M  V30 14586 C 1363.51 -3.09983 2.97 0
M  V30 14587 C 1362.75 -4.39875 3.02235 0
M  V30 14588 O 1362.97 -5.28214 2.15282 0
M  V30 14589 O 1361.9 -4.54486 3.94621 0
M  V30 14590 H 1365.73 -1.50846 2.63589 0
M  V30 14591 H 1363.32 -0.684306 1.32807 0
M  V30 14592 H 1365.2 -3.8126 1.79495 0
M  V30 14593 H 1363.87 -3.13394 0.810287 0
M  V30 14594 H 1362.78 -2.28119 2.965 0
M  V30 14595 H 1364.11 -3.01693 3.88899 0
M  V30 14596 N 1365.76 -1.381 -0.759346 0
M  V30 14597 C 1367.01 -1.3419 -1.52055 0
M  V30 14598 C 1367.34 0.0697657 -1.94075 0
M  V30 14599 O 1366.62 1.02975 -1.65004 0
M  V30 14600 C 1366.9 -2.29236 -2.7771 0
M  V30 14601 C 1366.75 -3.79237 -2.41866 0
M  V30 14602 C 1368.07 -2.22511 -3.79706 0
M  V30 14603 H 1365.19 -0.488768 -0.551611 0
M  V30 14604 H 1367.83 -1.68902 -0.870174 0
M  V30 14605 H 1365.98 -1.99764 -3.33206 0
M  V30 14606 H 1367.66 -4.19358 -1.92189 0
M  V30 14607 H 1365.9 -3.97199 -1.74399 0
M  V30 14608 H 1366.57 -4.41193 -3.31742 0
M  V30 14609 H 1369.05 -2.48516 -3.33735 0
M  V30 14610 H 1367.92 -2.91134 -4.6533 0
M  V30 14611 H 1368.18 -1.22206 -4.24874 0
M  V30 14612 N 1367.24 0.986894 -1.22875 0
M  V30 14613 C 1368.47 1.7601 -1.08185 0
M  V30 14614 C 1368.88 1.85545 0.370088 0
M  V30 14615 O 1368.22 1.32915 1.26804 0
M  V30 14616 C 1368.29 3.20661 -1.62532 0
M  V30 14617 C 1367.95 3.34655 -3.11216 0
M  V30 14618 C 1368.95 3.21493 -4.08581 0
M  V30 14619 C 1366.63 3.59512 -3.50794 0
M  V30 14620 C 1368.63 3.32983 -5.43508 0
M  V30 14621 C 1366.31 3.70642 -4.85868 0
M  V30 14622 C 1367.31 3.57387 -5.82034 0
M  V30 14623 O 1367 3.68135 -7.14655 0
M  V30 14624 H 1366.73 0.559402 -0.379533 0
M  V30 14625 H 1369.28 1.24905 -1.63058 0
M  V30 14626 H 1367.51 3.72985 -1.02073 0
M  V30 14627 H 1369.2 3.7972 -1.43415 0
M  V30 14628 H 1369.97 3.02193 -3.79347 0
M  V30 14629 H 1365.85 3.68904 -2.76461 0
M  V30 14630 H 1369.39 3.22553 -6.18551 0
M  V30 14631 H 1365.29 3.89451 -5.1478 0
M  V30 14632 H 1366.06 3.84971 -7.22316 0
M  V30 14633 N 1368.72 1.0394 1.18466 0
M  V30 14634 C 1369.63 0.639714 2.2571 0
M  V30 14635 C 1370.65 -0.333431 1.70775 0
M  V30 14636 O 1371.82 -0.188676 2.00514 0
M  V30 14637 C 1368.89 0.007559 3.46699 0
M  V30 14638 C 1367.95 1.02955 4.16772 0
M  V30 14639 C 1367.18 0.427464 5.31985 0
M  V30 14640 O 1367.4 -0.766684 5.65224 0
M  V30 14641 O 1366.34 1.15553 5.90704 0
M  V30 14642 H 1370.16 1.53316 2.6216 0
M  V30 14643 H 1367.75 0.810206 1.25523 0
M  V30 14644 H 1369.63 -0.344404 4.1999 0
M  V30 14645 H 1368.31 -0.859727 3.12074 0
M  V30 14646 H 1367.21 1.43328 3.45554 0
M  V30 14647 H 1368.55 1.86756 4.55393 0
M  V30 14648 N 1370.2 -1.34667 0.818693 0
M  V30 14649 C 1371.45 -1.9767 0.401184 0
M  V30 14650 C 1371.76 -1.65644 -1.04027 0
M  V30 14651 O 1372.97 -2.22104 -1.56148 0
M  V30 14652 C 1371.42 -3.53677 0.666398 0
M  V30 14653 C 1371.03 -3.94601 2.12119 0
M  V30 14654 C 1372.77 -4.23331 0.314845 0
M  V30 14655 C 1370.68 -5.43502 2.33151 0
M  V30 14656 H 1369.61 -0.739675 0.146275 0
M  V30 14657 H 1372.26 -1.53568 1.00445 0
M  V30 14658 H 1370.64 -3.95999 -0.00698307 0
M  V30 14659 H 1371.82 -3.63396 2.83338 0
M  V30 14660 H 1370.13 -3.37871 2.43377 0
M  V30 14661 H 1372.73 -5.32804 0.449881 0
M  V30 14662 H 1373.07 -4.09666 -0.740235 0
M  V30 14663 H 1373.61 -3.8647 0.942631 0
M  V30 14664 H 1370.35 -5.62148 3.37149 0
M  V30 14665 H 1369.87 -5.76236 1.66471 0
M  V30 14666 H 1371.54 -6.10127 2.153 0
M  V30 14667 N 1371.68 -0.573274 -1.46804 0
M  V30 14668 C 1372.61 0.213527 -2.27199 0
M  V30 14669 C 1373.59 0.905598 -1.35047 0
M  V30 14670 O 1374.77 0.921377 -1.64447 0
M  V30 14671 C 1371.9 1.30556 -3.12527 0
M  V30 14672 C 1370.94 0.720331 -4.20373 0
M  V30 14673 S 1371.78 -0.445518 -5.33644 0
M  V30 14674 C 1372.93 0.64794 -6.22537 0
M  V30 14675 H 1373.17 -0.468642 -2.93583 0
M  V30 14676 H 1370.7 -0.359949 -1.50146 0
M  V30 14677 H 1372.66 1.93086 -3.62254 0
M  V30 14678 H 1371.32 1.95963 -2.45474 0
M  V30 14679 H 1370.51 1.54089 -4.79867 0
M  V30 14680 H 1370.11 0.170885 -3.73609 0
M  V30 14681 H 1372.41 1.53602 -6.59858 0
M  V30 14682 H 1373.35 0.0899764 -7.08043 0
M  V30 14683 H 1373.76 0.94784 -5.56486 0
M  V30 14684 N 1373.15 1.5451 -0.310553 0
M  V30 14685 C 1374.4 2.00623 0.296343 0
M  V30 14686 C 1374.73 1.19855 1.52802 0
M  V30 14687 O 1374.01 0.277468 1.92511 0
M  V30 14688 C 1374.29 3.54305 0.643448 0
M  V30 14689 C 1374.14 4.45807 -0.598029 0
M  V30 14690 C 1375.46 4.14958 1.46623 0
M  V30 14691 H 1372.58 0.729303 0.106236 0
M  V30 14692 H 1375.22 1.85196 -0.424549 0
M  V30 14693 H 1373.37 3.67581 1.25762 0
M  V30 14694 H 1375.05 4.44421 -1.23643 0
M  V30 14695 H 1373.29 4.16014 -1.22944 0
M  V30 14696 H 1373.96 5.51124 -0.310883 0
M  V30 14697 H 1376.44 4.05176 0.947199 0
M  V30 14698 H 1375.31 5.22627 1.67787 0
M  V30 14699 H 1375.57 3.67445 2.45839 0
M  V30 14700 N 1374.63 0.0384594 1.57553 0
M  V30 14701 C 1375.58 -0.940256 2.10779 0
M  V30 14702 C 1376.55 -1.31705 1.01208 0
M  V30 14703 O 1377.74 -1.40874 1.28683 0
M  V30 14704 C 1374.88 -2.21419 2.64703 0
M  V30 14705 C 1373.99 -1.89302 3.88315 0
M  V30 14706 C 1373.12 -3.1106 4.30599 0
M  V30 14707 C 1372.16 -2.74805 5.46945 0
M  V30 14708 N 1371.3 -3.89217 5.84341 0
M  V30 14709 H 1376.14 -0.479458 2.94118 0
M  V30 14710 H 1373.68 -0.22505 1.45368 0
M  V30 14711 H 1375.63 -2.95946 2.94061 0
M  V30 14712 H 1374.26 -2.65099 1.84181 0
M  V30 14713 H 1373.32 -1.04977 3.65628 0
M  V30 14714 H 1374.63 -1.58607 4.72912 0
M  V30 14715 H 1373.78 -3.93898 4.61442 0
M  V30 14716 H 1372.52 -3.44924 3.44788 0
M  V30 14717 H 1371.53 -1.9038 5.15786 0
M  V30 14718 H 1372.75 -2.42147 6.34462 0
M  V30 14719 H 1370.7 -4.22905 5.01485 0
M  V30 14720 H 1370.61 -3.62177 6.63599 0
M  V30 14721 H 1371.88 -4.72732 6.19794 0
M  V30 14722 N 1376.11 -1.55841 -0.234795 0
M  V30 14723 C 1377.35 -1.80007 -0.968334 0
M  V30 14724 C 1377.72 -0.609903 -1.82055 0
M  V30 14725 O 1378.92 -0.730586 -2.58681 0
M  V30 14726 C 1377.19 -3.08991 -1.79609 0
M  V30 14727 S 1378.75 -3.54423 -2.58707 0
M  V30 14728 H 1375.56 -0.632112 -0.325508 0
M  V30 14729 H 1378.17 -1.94081 -0.235082 0
M  V30 14730 H 1376.87 -3.93667 -1.15993 0
M  V30 14731 H 1376.4 -2.97688 -2.57188 0
M  V30 14732 H 1378.42 -3.16713 -3.81978 0
M  V30 14733 N 1377.59 0.500963 -1.49426 0
M  V30 14734 C 1378.84 1.25427 -1.60124 0
M  V30 14735 C 1379.19 1.90288 -0.284312 0
M  V30 14736 O 1378.48 1.77741 0.715459 0
M  V30 14737 C 1378.68 2.34448 -2.69757 0
M  V30 14738 C 1378.51 1.80278 -4.11983 0
M  V30 14739 C 1377.28 1.61577 -4.7877 0
M  V30 14740 C 1379.47 1.31462 -4.97215 0
M  V30 14741 N 1377.46 1.02337 -6.0531 0
M  V30 14742 C 1378.83 0.843562 -6.14235 0
M  V30 14743 C 1380.88 1.20035 -4.83214 0
M  V30 14744 C 1379.59 0.269543 -7.18795 0
M  V30 14745 C 1381.61 0.640304 -5.87924 0
M  V30 14746 C 1380.97 0.179474 -7.04171 0
M  V30 14747 H 1377.07 0.448932 -0.6403 0
M  V30 14748 H 1379.66 0.561377 -1.86431 0
M  V30 14749 H 1377.83 3.01198 -2.45223 0
M  V30 14750 H 1379.56 3.01487 -2.69977 0
M  V30 14751 H 1376.31 1.85946 -4.3557 0
M  V30 14752 H 1376.74 0.746441 -6.72872 0
M  V30 14753 H 1381.38 1.54263 -3.93653 0
M  V30 14754 H 1379.1 -0.0849963 -8.08055 0
M  V30 14755 H 1382.68 0.554669 -5.7915 0
M  V30 14756 H 1381.56 -0.247125 -7.83811 0
M  V30 14757 N 1379.07 1.38501 0.752011 0
M  V30 14758 C 1380.02 1.35975 1.88716 0
M  V30 14759 C 1381.01 0.245392 1.67613 0
M  V30 14760 O 1382.22 0.414514 1.75162 0
M  V30 14761 H 1378.59 0.424221 0.620919 0
M  V30 14762 H 1380.56 2.3176 1.87962 0
M  V30 14763 C 1379.31 1.20326 3.26216 0
M  V30 14764 H 1378.63 2.05336 3.43041 0
M  V30 14765 H 1380.07 1.22613 4.05884 0
M  V30 14766 C 1378.53 -0.0897029 3.36781 0
M  V30 14767 O 1379.06 -1.06615 3.87293 0
M  V30 14768 N 1377.27 -0.147065 2.90228 0
M  V30 14769 H 1376.82 0.648216 2.49311 0
M  V30 14770 H 1376.77 -1.01174 2.97676 0
M  V30 14771 N 1380.55 -0.980364 1.23396 0
M  V30 14772 C 1381.77 -1.76223 1.09363 0
M  V30 14773 C 1382.2 -1.84801 -0.350759 0
M  V30 14774 O 1381.55 -1.30966 -1.2537 0
M  V30 14775 C 1381.6 -3.16728 1.72383 0
M  V30 14776 O 1380.71 -4.00439 0.986002 0
M  V30 14777 H 1380.05 -0.542174 0.383332 0
M  V30 14778 H 1382.58 -1.23066 1.6345 0
M  V30 14779 H 1382.59 -3.67307 1.77623 0
M  V30 14780 H 1381.26 -3.098 2.77483 0
M  V30 14781 H 1379.84 -3.58946 1.01054 0
M  V30 14782 N 1382.02 -1.04567 -1.17913 0
M  V30 14783 C 1382.93 -0.651674 -2.25367 0
M  V30 14784 C 1383.95 0.32437 -1.7095 0
M  V30 14785 O 1385.13 0.178039 -2.00612 0
M  V30 14786 C 1382.19 -0.0259452 -3.4669 0
M  V30 14787 C 1381.25 -1.05163 -4.1622 0
M  V30 14788 C 1380.48 -0.45567 -5.31751 0
M  V30 14789 O 1380.71 0.736698 -5.65623 0
M  V30 14790 O 1379.64 -1.18684 -5.90083 0
M  V30 14791 H 1383.47 -1.54704 -2.61344 0
M  V30 14792 H 1381.05 -0.816852 -1.25092 0
M  V30 14793 H 1382.93 0.322126 -4.20167 0
M  V30 14794 H 1381.61 0.843165 -3.12526 0
M  V30 14795 H 1380.52 -1.45159 -3.44789 0
M  V30 14796 H 1381.85 -1.89168 -4.54397 0
M  V30 14797 N 1383.5 1.34231 -0.825823 0
M  V30 14798 C 1384.91 1.8059 -0.473724 0
M  V30 14799 C 1385.26 1.68438 1.00614 0
M  V30 14800 O 1384.39 1.22606 1.78317 0
M  V30 14801 C 1384.98 3.27884 -0.853099 0
M  V30 14802 C 1383.54 3.72311 -0.553327 0
M  V30 14803 C 1382.69 2.55889 -1.06845 0
M  V30 14804 H 1385.64 1.21937 -1.01573 0
M  V30 14805 H 1385.66 3.80172 -0.158014 0
M  V30 14806 H 1385.17 3.36696 -1.93021 0
M  V30 14807 H 1383.27 3.69034 0.514256 0
M  V30 14808 H 1383.39 4.66315 -1.09942 0
M  V30 14809 H 1381.75 2.49945 -0.489874 0
M  V30 14810 H 1382.53 2.67471 -2.15207 0
M  V30 14811 N 1384.98 0.581051 1.46498 0
M  V30 14812 C 1385.89 -0.155669 2.34083 0
M  V30 14813 C 1386.91 -0.887728 1.49651 0
M  V30 14814 O 1388.08 -0.851284 1.82524 0
M  V30 14815 C 1385.15 -1.15752 3.26806 0
M  V30 14816 C 1384.21 -0.43031 4.27138 0
M  V30 14817 C 1383.44 -1.38443 5.15431 0
M  V30 14818 O 1383.66 -2.62084 5.06624 0
M  V30 14819 O 1382.6 -0.89592 5.95195 0
M  V30 14820 H 1386.42 0.56341 2.98428 0
M  V30 14821 H 1384.01 0.341466 1.45445 0
M  V30 14822 H 1385.89 -1.73523 3.84015 0
M  V30 14823 H 1384.57 -1.85809 2.65059 0
M  V30 14824 H 1383.47 0.1892 3.73621 0
M  V30 14825 H 1384.81 0.229263 4.91666 0
M  V30 14826 N 1386.46 -1.54343 0.318742 0
M  V30 14827 C 1387.4 -2.24166 -0.549397 0
M  V30 14828 C 1388.37 -1.23068 -1.1155 0
M  V30 14829 O 1389.56 -1.51737 -1.15674 0
M  V30 14830 C 1386.7 -2.99938 -1.70678 0
M  V30 14831 C 1385.81 -4.15844 -1.17037 0
M  V30 14832 C 1384.95 -4.79158 -2.29305 0
M  V30 14833 C 1383.99 -5.87176 -1.72888 0
M  V30 14834 N 1383.12 -6.44372 -2.78799 0
M  V30 14835 H 1387.96 -2.97954 0.0526018 0
M  V30 14836 H 1385.5 -1.47052 0.0377307 0
M  V30 14837 H 1387.46 -3.42113 -2.38777 0
M  V30 14838 H 1386.09 -2.28494 -2.28014 0
M  V30 14839 H 1385.14 -3.78486 -0.381082 0
M  V30 14840 H 1386.45 -4.93612 -0.717507 0
M  V30 14841 H 1385.61 -5.24277 -3.05317 0
M  V30 14842 H 1384.35 -4.0076 -2.77926 0
M  V30 14843 H 1383.35 -5.41465 -0.953714 0
M  V30 14844 H 1384.58 -6.67469 -1.2515 0
M  V30 14845 H 1382.52 -5.6885 -3.2672 0
M  V30 14846 H 1382.44 -7.17539 -2.38062 0
M  V30 14847 H 1383.71 -6.94147 -3.54655 0
M  V30 14848 N 1387.94 -0.0468143 -1.5753 0
M  V30 14849 C 1389.35 0.309707 -1.56566 0
M  V30 14850 C 1389.55 1.7173 -1.05408 0
M  V30 14851 O 1388.61 2.4235 -0.708723 0
M  V30 14852 C 1389.92 0.142151 -3.00364 0
M  V30 14853 C 1391.47 0.213585 -3.1227 0
M  V30 14854 C 1391.94 0.0746102 -4.57939 0
M  V30 14855 N 1393.43 0.131027 -4.63015 0
M  V30 14856 C 1394.17 0.0475409 -5.7338 0
M  V30 14857 N 1393.67 -0.0880445 -6.92744 0
M  V30 14858 N 1395.46 0.102809 -5.62006 0
M  V30 14859 H 1387.61 -0.967057 -1.89108 0
M  V30 14860 H 1389.87 -0.375018 -0.870669 0
M  V30 14861 H 1389.58 -0.828171 -3.4181 0
M  V30 14862 H 1389.45 0.905006 -3.66182 0
M  V30 14863 H 1391.84 1.17438 -2.70726 0
M  V30 14864 H 1391.92 -0.57995 -2.49139 0
M  V30 14865 H 1391.56 -0.882839 -5.00168 0
M  V30 14866 H 1391.49 0.887235 -5.19072 0
M  V30 14867 H 1393.99 0.235246 -3.77167 0
M  V30 14868 H 1394.3 -0.144574 -7.72665 0
M  V30 14869 H 1392.64 -0.12307 -6.94891 0
M  V30 14870 H 1395.83 0.207259 -4.67641 0
M  V30 14871 H 1396.01 0.0342865 -6.47991 0
M  V30 14872 N 1389.41 1.55964 0.226527 0
M  V30 14873 C 1390.83 1.68978 0.793936 0
M  V30 14874 C 1391.18 0.647938 1.85192 0
M  V30 14875 O 1390.3 -0.201907 2.15456 0
M  V30 14876 C 1390.9 3.06351 1.44687 0
M  V30 14877 C 1389.46 3.21237 1.96173 0
M  V30 14878 C 1388.6 2.64896 0.8201 0
M  V30 14879 H 1391.55 1.587 0.00195967 0
M  V30 14880 H 1391.57 3.01932 2.31554 0
M  V30 14881 H 1391.09 3.82156 0.676611 0
M  V30 14882 H 1389.19 2.50292 2.76016 0
M  V30 14883 H 1389.3 4.28394 2.14512 0
M  V30 14884 H 1387.66 2.23247 1.22609 0
M  V30 14885 H 1388.45 3.43243 0.0625967 0
M  V30 14886 N 1390.89 -0.493031 1.4969 0
M  V30 14887 C 1392.12 -1.27517 1.63567 0
M  V30 14888 C 1392.54 -1.85526 0.310105 0
M  V30 14889 O 1391.9 -1.66246 -0.723314 0
M  V30 14890 C 1391.95 -2.37551 2.71296 0
M  V30 14891 O 1391.05 -3.41617 2.31023 0
M  V30 14892 H 1390.39 -0.376116 0.547205 0
M  V30 14893 H 1392.92 -0.589328 1.95929 0
M  V30 14894 H 1392.93 -2.83196 2.93708 0
M  V30 14895 H 1391.61 -1.94697 3.67513 0
M  V30 14896 H 1390.19 -3.01836 2.18974 0
M  V30 14897 N 1392.37 -1.38898 -0.744656 0
M  V30 14898 C 1393.62 -1.35595 -1.50401 0
M  V30 14899 C 1393.95 0.0511979 -1.94433 0
M  V30 14900 O 1393.2 1.03011 -1.66395 0
M  V30 14901 C 1393.5 -2.2658 -2.76398 0
M  V30 14902 C 1393.17 -3.74389 -2.51283 0
M  V30 14903 C 1391.83 -4.14666 -2.44143 0
M  V30 14904 C 1394.18 -4.67916 -2.29573 0
M  V30 14905 C 1391.51 -5.46545 -2.1332 0
M  V30 14906 C 1393.86 -6.00063 -2.00269 0
M  V30 14907 C 1392.52 -6.39413 -1.91591 0
M  V30 14908 H 1391.79 -0.496176 -0.550355 0
M  V30 14909 H 1394.44 -1.71328 -0.855514 0
M  V30 14910 H 1392.75 -1.83933 -3.45942 0
M  V30 14911 H 1394.44 -2.21323 -3.34391 0
M  V30 14912 H 1391.03 -3.42463 -2.57715 0
M  V30 14913 H 1395.22 -4.37639 -2.34063 0
M  V30 14914 H 1390.47 -5.75966 -2.05117 0
M  V30 14915 H 1394.65 -6.72068 -1.82476 0
M  V30 14916 H 1392.27 -7.41524 -1.67472 0
M  V30 14917 N 1393.85 0.973806 -1.23914 0
M  V30 14918 C 1395.08 1.74853 -1.10046 0
M  V30 14919 C 1395.49 1.85927 0.350388 0
M  V30 14920 O 1394.83 1.34252 1.25388 0
M  V30 14921 C 1394.89 3.18919 -1.65924 0
M  V30 14922 C 1394.56 3.31335 -3.14748 0
M  V30 14923 C 1395.55 3.17141 -4.11968 0
M  V30 14924 C 1393.24 3.55772 -3.54587 0
M  V30 14925 C 1395.23 3.27199 -5.47009 0
M  V30 14926 C 1392.92 3.65468 -4.89771 0
M  V30 14927 C 1393.92 3.51193 -5.85792 0
M  V30 14928 O 1393.6 3.60534 -7.18519 0
M  V30 14929 H 1393.34 0.555345 -0.385445 0
M  V30 14930 H 1395.89 1.23168 -1.64374 0
M  V30 14931 H 1394.12 3.71882 -1.06023 0
M  V30 14932 H 1395.81 3.78177 -1.47434 0
M  V30 14933 H 1396.58 2.98153 -3.82531 0
M  V30 14934 H 1392.45 3.65951 -2.80358 0
M  V30 14935 H 1396 3.15974 -6.21937 0
M  V30 14936 H 1391.9 3.83969 -5.18882 0
M  V30 14937 H 1392.66 3.77288 -7.26358 0
M  V30 14938 N 1395.33 1.05191 1.17357 0
M  V30 14939 C 1396.28 0.623047 2.19322 0
M  V30 14940 C 1397.26 -0.340467 1.57257 0
M  V30 14941 O 1398.45 -0.157698 1.76296 0
M  V30 14942 C 1395.58 -0.000731889 3.433 0
M  V30 14943 C 1394.67 0.986608 4.12464 0
M  V30 14944 N 1395.06 2.158 4.57454 0
M  V30 14945 C 1393.36 0.815082 4.38489 0
M  V30 14946 C 1394.06 2.78262 5.10828 0
M  V30 14947 N 1393.03 2.0606 5.03031 0
M  V30 14948 H 1396.84 1.51555 2.5181 0
M  V30 14949 H 1394.35 0.922048 1.33686 0
M  V30 14950 H 1396.35 -0.325738 4.15625 0
M  V30 14951 H 1395.01 -0.888627 3.12304 0
M  V30 14952 H 1396.02 2.53634 4.51542 0
M  V30 14953 H 1392.69 -0.021765 4.17494 0
M  V30 14954 H 1394.08 3.77599 5.55759 0
M  V30 14955 N 1396.8 -1.33791 0.83293 0
M  V30 14956 C 1397.73 -2.31853 0.276846 0
M  V30 14957 C 1398.72 -1.58702 -0.612184 0
M  V30 14958 O 1399.9 -1.86629 -0.536975 0
M  V30 14959 C 1397.03 -3.42855 -0.55385 0
M  V30 14960 C 1395.98 -4.27333 0.238884 0
M  V30 14961 C 1395.31 -5.29895 -0.715187 0
M  V30 14962 C 1396.61 -5.01692 1.45265 0
M  V30 14963 H 1398.3 -2.78611 1.09618 0
M  V30 14964 H 1395.85 -1.33949 0.528562 0
M  V30 14965 H 1397.8 -4.10479 -0.953133 0
M  V30 14966 H 1396.53 -2.94771 -1.40634 0
M  V30 14967 H 1395.19 -3.61325 0.619656 0
M  V30 14968 H 1394.83 -4.7807 -1.56391 0
M  V30 14969 H 1394.53 -5.87296 -0.188921 0
M  V30 14970 H 1396.06 -6.00387 -1.11211 0
M  V30 14971 H 1397.47 -5.62117 1.12685 0
M  V30 14972 H 1395.87 -5.68715 1.91528 0
M  V30 14973 H 1396.94 -4.30809 2.22558 0
M  V30 14974 N 1398.28 -0.588812 -1.46187 0
M  V30 14975 C 1399.51 -0.0806571 -2.07243 0
M  V30 14976 C 1399.93 1.21766 -1.43369 0
M  V30 14977 O 1399.29 1.73694 -0.51964 0
M  V30 14978 C 1399.34 0.065267 -3.60541 0
M  V30 14979 O 1398.44 1.12026 -3.96893 0
M  V30 14980 H 1397.78 -0.0655622 -0.660755 0
M  V30 14981 H 1400.31 -0.813489 -1.87733 0
M  V30 14982 H 1400.32 0.269494 -4.07109 0
M  V30 14983 H 1399 -0.88284 -4.06422 0
M  V30 14984 H 1397.58 0.894 -3.62025 0
M  V30 14985 N 1399.76 1.54172 -0.326923 0
M  V30 14986 C 1400.67 2.28149 0.546351 0
M  V30 14987 C 1401.69 1.32628 1.12631 0
M  V30 14988 O 1402.86 1.65647 1.14556 0
M  V30 14989 C 1399.93 3.02742 1.68962 0
M  V30 14990 C 1398.99 4.13856 1.14112 0
M  V30 14991 C 1398.22 4.84882 2.2299 0
M  V30 14992 O 1398.44 4.55448 3.43399 0
M  V30 14993 O 1397.38 5.71714 1.8822 0
M  V30 14994 H 1401.2 3.03651 -0.0545288 0
M  V30 14995 H 1398.79 1.49113 -0.0925027 0
M  V30 14996 H 1400.67 3.49443 2.35515 0
M  V30 14997 H 1399.35 2.30113 2.27662 0
M  V30 14998 H 1398.25 3.71497 0.440579 0
M  V30 14999 H 1399.59 4.88539 0.599211 0
M  V30 15000 N 1401.24 0.0551678 1.57503 0
M  V30 15001 C 1402.49 -0.617201 1.92025 0
M  V30 15002 C 1402.8 -1.71767 0.93571 0
M  V30 15003 O 1404.01 -2.44847 1.17312 0
M  V30 15004 C 1402.46 -1.14915 3.41061 0
M  V30 15005 C 1402.07 -0.0805814 4.47928 0
M  V30 15006 C 1403.81 -1.79654 3.8461 0
M  V30 15007 C 1401.72 -0.625639 5.88081 0
M  V30 15008 H 1400.65 -0.23431 0.716669 0
M  V30 15009 H 1403.3 0.124706 1.83076 0
M  V30 15010 H 1401.68 -1.9435 3.45028 0
M  V30 15011 H 1402.86 0.693222 4.55556 0
M  V30 15012 H 1401.17 0.469581 4.13744 0
M  V30 15013 H 1403.77 -2.21436 4.86693 0
M  V30 15014 H 1404.11 -2.64987 3.21073 0
M  V30 15015 H 1404.65 -1.06868 3.83176 0
M  V30 15016 H 1401.39 0.190148 6.55224 0
M  V30 15017 H 1400.91 -1.36734 5.84007 0
M  V30 15018 H 1402.58 -1.10728 6.37454 0
M  V30 15019 N 1402.72 -1.56081 -0.218252 0
M  V30 15020 C 1403.96 -1.79513 -0.943553 0
M  V30 15021 C 1404.3 -0.625367 -1.83855 0
M  V30 15022 O 1403.57 0.375226 -1.90846 0
M  V30 15023 C 1403.85 -3.13049 -1.77967 0
M  V30 15024 C 1403.71 -4.40479 -0.910939 0
M  V30 15025 C 1405.03 -3.43057 -2.7568 0
M  V30 15026 H 1402.14 -0.653057 -0.341593 0
M  V30 15027 H 1404.79 -1.88811 -0.212226 0
M  V30 15028 H 1402.94 -3.05254 -2.40318 0
M  V30 15029 H 1404.61 -4.60298 -0.303922 0
M  V30 15030 H 1402.85 -4.33259 -0.216513 0
M  V30 15031 H 1403.52 -5.3036 -1.53042 0
M  V30 15032 H 1406 -3.51002 -2.23465 0
M  V30 15033 H 1404.87 -4.37657 -3.31282 0
M  V30 15034 H 1405.14 -2.65389 -3.53584 0
M  V30 15035 N 1404.2 0.485086 -1.49949 0
M  V30 15036 C 1405.11 1.61089 -1.70551 0
M  V30 15037 C 1406.12 1.63752 -0.588333 0
M  V30 15038 O 1407.3 1.81879 -0.86498 0
M  V30 15039 C 1404.36 2.97382 -1.78227 0
M  V30 15040 C 1403.42 3.05219 -3.01894 0
M  V30 15041 C 1402.66 4.35011 -3.09195 0
M  V30 15042 O 1402.88 5.24722 -2.23658 0
M  V30 15043 O 1401.81 4.48151 -4.01802 0
M  V30 15044 H 1405.64 1.46633 -2.65956 0
M  V30 15045 H 1403.22 0.663091 -1.33879 0
M  V30 15046 H 1405.11 3.78356 -1.85538 0
M  V30 15047 H 1403.78 3.12066 -0.860043 0
M  V30 15048 H 1402.69 2.23373 -3.00092 0
M  V30 15049 H 1404.02 2.95467 -3.93649 0
M  V30 15050 N 1405.67 1.39291 0.737279 0
M  V30 15051 C 1406.62 1.37969 1.87263 0
M  V30 15052 C 1407.62 0.263156 1.67344 0
M  V30 15053 O 1408.82 0.433069 1.74713 0
M  V30 15054 H 1405.2 0.430782 0.616385 0
M  V30 15055 H 1407.17 2.33741 1.85494 0
M  V30 15056 C 1405.92 1.23779 3.24922 0
M  V30 15057 H 1405.24 2.08963 3.40844 0
M  V30 15058 H 1406.68 1.26911 4.04561 0
M  V30 15059 C 1405.14 -0.0539778 3.36857 0
M  V30 15060 O 1405.67 -1.02501 3.88402 0
M  V30 15061 N 1403.87 -0.116275 2.90367 0
M  V30 15062 H 1403.42 0.674622 2.48609 0
M  V30 15063 H 1403.38 -0.980107 2.98733 0
M  V30 15064 N 1407.15 -0.967221 1.24429 0
M  V30 15065 C 1408.08 -2.07966 1.06172 0
M  V30 15066 C 1409.06 -1.70081 -0.0254566 0
M  V30 15067 O 1410.25 -1.93682 0.141705 0
M  V30 15068 C 1407.38 -3.4085 0.666251 0
M  V30 15069 C 1406.33 -3.92692 1.70225 0
M  V30 15070 C 1405.66 -5.21925 1.16183 0
M  V30 15071 C 1406.96 -4.20478 3.09831 0
M  V30 15072 H 1408.65 -2.23497 1.99222 0
M  V30 15073 H 1406.2 -1.07398 0.959255 0
M  V30 15074 H 1408.15 -4.1811 0.52552 0
M  V30 15075 H 1406.87 -3.2522 -0.299939 0
M  V30 15076 H 1405.53 -3.17588 1.83121 0
M  V30 15077 H 1405.18 -5.02655 0.186237 0
M  V30 15078 H 1404.88 -5.57579 1.85416 0
M  V30 15079 H 1406.41 -6.01795 1.03323 0
M  V30 15080 H 1407.82 -4.88442 3.00162 0
M  V30 15081 H 1406.22 -4.67362 3.7642 0
M  V30 15082 H 1407.29 -3.27235 3.57834 0
M  V30 15083 N 1408.63 -1.05812 -1.16797 0
M  V30 15084 C 1409.56 -0.685778 -2.23202 0
M  V30 15085 C 1410.54 0.319428 -1.67074 0
M  V30 15086 O 1411.73 0.195635 -1.93212 0
M  V30 15087 C 1408.86 -0.0662958 -3.47237 0
M  V30 15088 C 1407.81 -0.996943 -4.16227 0
M  V30 15089 C 1407.14 -0.241015 -5.34157 0
M  V30 15090 C 1408.44 -2.32384 -4.67755 0
M  V30 15091 H 1410.13 -1.57535 -2.54604 0
M  V30 15092 H 1407.68 -0.758909 -1.22379 0
M  V30 15093 H 1409.63 0.206024 -4.20896 0
M  V30 15094 H 1408.35 0.858263 -3.15121 0
M  V30 15095 H 1407.01 -1.25393 -3.44488 0
M  V30 15096 H 1406.66 0.686508 -4.98293 0
M  V30 15097 H 1406.36 -0.861188 -5.81255 0
M  V30 15098 H 1407.88 0.0238739 -6.10595 0
M  V30 15099 H 1409.3 -2.11099 -5.3302 0
M  V30 15100 H 1407.69 -2.89855 -5.25456 0
M  V30 15101 H 1408.76 -2.958 -3.84227 0
M  V30 15102 N 1410.11 1.33347 -0.840014 0
M  V30 15103 C 1411.52 1.80077 -0.492851 0
M  V30 15104 C 1411.87 1.69495 0.988221 0
M  V30 15105 O 1410.99 1.2449 1.77006 0
M  V30 15106 C 1411.59 3.2696 -0.887827 0
M  V30 15107 C 1410.15 3.71703 -0.592785 0
M  V30 15108 C 1409.3 2.54742 -1.09554 0
M  V30 15109 H 1412.25 1.20853 -1.02861 0
M  V30 15110 H 1412.27 3.79983 -0.198327 0
M  V30 15111 H 1411.78 3.3463 -1.96581 0
M  V30 15112 H 1409.88 3.69559 0.475086 0
M  V30 15113 H 1409.99 4.65123 -1.14882 0
M  V30 15114 H 1408.36 2.49411 -0.516357 0
M  V30 15115 H 1409.14 2.65173 -2.18032 0
M  V30 15116 N 1411.59 0.596556 1.45873 0
M  V30 15117 C 1412.83 0.0872856 2.01911 0
M  V30 15118 C 1413.15 -1.28257 1.46885 0
M  V30 15119 O 1412.42 -1.84489 0.658837 0
M  V30 15120 H 1411 0.0292769 0.746426 0
M  V30 15121 H 1413.67 0.775464 1.78809 0
M  V30 15122 H 1412.76 0.0287213 3.12087 0
M  V30 15123 N 1413.06 -1.53996 0.335095 0
M  V30 15124 C 1414 -2.22258 -0.559809 0
M  V30 15125 C 1415.01 -1.22636 -1.07071 0
M  V30 15126 O 1416.2 -1.4904 -0.982312 0
M  V30 15127 C 1413.3 -2.88256 -1.78218 0
M  V30 15128 C 1412.47 -4.14118 -1.40801 0
M  V30 15129 C 1411.53 -4.63603 -2.48915 0
M  V30 15130 O 1410.56 -5.28015 -2.12576 0
M  V30 15131 N 1411.76 -4.3881 -3.80034 0
M  V30 15132 H 1414.52 -2.9969 0.0247521 0
M  V30 15133 H 1412.08 -1.61119 0.158826 0
M  V30 15134 H 1414.08 -3.1828 -2.4996 0
M  V30 15135 H 1412.65 -2.14461 -2.27431 0
M  V30 15136 H 1411.87 -3.90732 -0.521729 0
M  V30 15137 H 1413.15 -4.96005 -1.13388 0
M  V30 15138 H 1412.55 -3.87278 -4.12349 0
M  V30 15139 H 1411.11 -4.73461 -4.47971 0
M  V30 15140 N 1414.54 -0.0635198 -1.57472 0
M  V30 15141 C 1415.77 0.615841 -1.97208 0
M  V30 15142 C 1416.18 1.64181 -0.940281 0
M  V30 15143 O 1415.52 1.83515 0.0824321 0
M  V30 15144 C 1415.58 1.34908 -3.33227 0
M  V30 15145 C 1415.25 0.477535 -4.54498 0
M  V30 15146 C 1416.25 -0.261479 -5.19242 0
M  V30 15147 C 1413.93 0.404839 -5.00666 0
M  V30 15148 C 1415.92 -1.0615 -6.28499 0
M  V30 15149 C 1413.61 -0.398859 -6.09797 0
M  V30 15150 C 1414.61 -1.1307 -6.73576 0
M  V30 15151 O 1414.3 -1.92116 -7.80607 0
M  V30 15152 H 1414.03 0.172273 -0.65368 0
M  V30 15153 H 1416.58 -0.129963 -2.04988 0
M  V30 15154 H 1414.81 2.14078 -3.22036 0
M  V30 15155 H 1416.5 1.91988 -3.57625 0
M  V30 15156 H 1417.27 -0.214859 -4.84524 0
M  V30 15157 H 1413.15 0.964087 -4.50806 0
M  V30 15158 H 1416.69 -1.63324 -6.78212 0
M  V30 15159 H 1412.59 -0.447073 -6.4395 0
M  V30 15160 H 1413.36 -1.84459 -7.97444 0
M  V30 15161 N 1416.02 1.56195 0.209972 0
M  V30 15162 C 1416.97 1.93355 1.26026 0
M  V30 15163 C 1417.94 0.792195 1.45991 0
M  V30 15164 O 1419.12 1.04909 1.5937 0
M  V30 15165 C 1416.26 2.26558 2.60318 0
M  V30 15166 C 1415.37 3.53685 2.48055 0
M  V30 15167 C 1414.51 3.76279 3.7495 0
M  V30 15168 C 1413.55 4.96881 3.57457 0
M  V30 15169 N 1412.69 5.15806 4.76328 0
M  V30 15170 H 1417.53 2.82907 0.936357 0
M  V30 15171 H 1415.06 1.40015 0.451022 0
M  V30 15172 H 1417.02 2.43821 3.38537 0
M  V30 15173 H 1415.65 1.40165 2.90781 0
M  V30 15174 H 1414.7 3.44551 1.61211 0
M  V30 15175 H 1416.01 4.42057 2.31056 0
M  V30 15176 H 1415.17 3.93702 4.6161 0
M  V30 15177 H 1413.91 2.86209 3.94887 0
M  V30 15178 H 1412.91 4.79397 2.69181 0
M  V30 15179 H 1414.14 5.88447 3.38979 0
M  V30 15180 H 1412.08 4.28681 4.96557 0
M  V30 15181 H 1412 5.98332 4.62099 0
M  V30 15182 H 1413.27 5.37674 5.64382 0
M  V30 15183 N 1417.5 -0.477127 1.50204 0
M  V30 15184 C 1418.44 -1.57587 1.68626 0
M  V30 15185 C 1419.41 -1.57499 0.527576 0
M  V30 15186 O 1420.6 -1.75121 0.757438 0
M  V30 15187 C 1417.74 -2.956 1.78086 0
M  V30 15188 C 1416.85 -3.05523 3.05417 0
M  V30 15189 C 1415.99 -4.34414 3.05709 0
M  V30 15190 C 1415.03 -4.38057 4.27519 0
M  V30 15191 N 1414.16 -5.5841 4.25585 0
M  V30 15192 H 1419 -1.41185 2.62433 0
M  V30 15193 H 1416.54 -0.686537 1.30096 0
M  V30 15194 H 1418.5 -3.75626 1.81552 0
M  V30 15195 H 1417.13 -3.10651 0.877251 0
M  V30 15196 H 1416.18 -2.18409 3.11451 0
M  V30 15197 H 1417.49 -3.04075 3.95398 0
M  V30 15198 H 1416.65 -5.22782 3.07871 0
M  V30 15199 H 1415.39 -4.38462 2.13548 0
M  V30 15200 H 1414.39 -3.48087 4.25577 0
M  V30 15201 H 1415.62 -4.35705 5.20901 0
M  V30 15202 H 1413.56 -5.63255 3.36274 0
M  V30 15203 H 1413.48 -5.58677 5.09328 0
M  V30 15204 H 1414.75 -6.4892 4.31884 0
M  V30 15205 N 1418.98 -1.3968 -0.729882 0
M  V30 15206 C 1420.2 -1.40654 -1.52418 0
M  V30 15207 C 1420.63 -0.00428997 -1.881 0
M  V30 15208 O 1419.98 0.984023 -1.52272 0
M  V30 15209 C 1420.03 -2.29057 -2.78506 0
M  V30 15210 O 1419.14 -1.72397 -3.74637 0
M  V30 15211 H 1418.48 -0.478761 -0.460091 0
M  V30 15212 H 1421.01 -1.83738 -0.900087 0
M  V30 15213 H 1421.02 -2.43748 -3.27187 0
M  V30 15214 H 1419.69 -3.30961 -2.51868 0
M  V30 15215 H 1418.27 -1.66977 -3.33426 0
M  V30 15216 N 1420.45 0.960609 -1.2494 0
M  V30 15217 C 1421.68 1.73676 -1.11894 0
M  V30 15218 C 1422.09 1.86288 0.330648 0
M  V30 15219 O 1421.44 1.35575 1.23957 0
M  V30 15220 C 1421.5 3.17142 -1.69297 0
M  V30 15221 C 1421.16 3.27978 -3.18244 0
M  V30 15222 C 1422.16 3.12754 -4.15308 0
M  V30 15223 C 1419.84 3.51991 -3.5834 0
M  V30 15224 C 1421.84 3.21379 -5.50449 0
M  V30 15225 C 1419.52 3.60253 -4.9362 0
M  V30 15226 C 1420.52 3.44961 -5.89484 0
M  V30 15227 O 1420.21 3.52893 -7.22303 0
M  V30 15228 H 1419.94 0.551226 -0.391313 0
M  V30 15229 H 1422.5 1.21418 -1.65671 0
M  V30 15230 H 1420.73 3.70736 -1.09961 0
M  V30 15231 H 1422.42 3.76592 -1.51437 0
M  V30 15232 H 1423.18 2.94079 -3.85672 0
M  V30 15233 H 1419.06 3.62957 -2.84224 0
M  V30 15234 H 1422.6 3.0936 -6.25254 0
M  V30 15235 H 1418.5 3.78444 -5.22925 0
M  V30 15236 H 1419.27 3.69563 -7.30319 0
M  V30 15237 N 1421.93 1.0643 1.16234 0
M  V30 15238 C 1422.84 0.687446 2.24302 0
M  V30 15239 C 1423.86 -0.297132 1.71444 0
M  V30 15240 O 1425.03 -0.146101 2.00869 0
M  V30 15241 C 1422.1 0.0810973 3.46605 0
M  V30 15242 C 1421.16 1.11772 4.14494 0
M  V30 15243 C 1420.39 0.54021 5.30959 0
M  V30 15244 O 1420.62 -0.646619 5.66723 0
M  V30 15245 O 1419.55 1.28057 5.8812 0
M  V30 15246 H 1423.38 1.58842 2.58849 0
M  V30 15247 H 1420.96 0.836649 1.23776 0
M  V30 15248 H 1422.84 -0.25524 4.20626 0
M  V30 15249 H 1421.52 -0.793338 3.13828 0
M  V30 15250 H 1420.43 1.50626 3.42436 0
M  V30 15251 H 1421.76 1.96373 4.5133 0
M  V30 15252 N 1423.41 -1.329 0.847073 0
M  V30 15253 C 1424.36 -2.29044 0.284199 0
M  V30 15254 C 1425.33 -1.54706 -0.604591 0
M  V30 15255 O 1426.51 -1.82966 -0.541116 0
M  V30 15256 C 1423.65 -3.4104 -0.527822 0
M  V30 15257 C 1422.77 -4.30273 0.385907 0
M  V30 15258 C 1421.9 -5.29391 -0.438009 0
M  V30 15259 C 1420.94 -6.10265 0.473596 0
M  V30 15260 N 1420.08 -7.01403 -0.312684 0
M  V30 15261 H 1424.92 -2.76582 1.10935 0
M  V30 15262 H 1422.45 -1.36085 0.558508 0
M  V30 15263 H 1424.41 -4.04686 -1.01417 0
M  V30 15264 H 1423.04 -2.94673 -1.31787 0
M  V30 15265 H 1422.09 -3.67275 0.99061 0
M  V30 15266 H 1423.41 -4.86837 1.08585 0
M  V30 15267 H 1422.56 -5.98604 -0.987842 0
M  V30 15268 H 1421.3 -4.73424 -1.17135 0
M  V30 15269 H 1420.3 -5.39963 1.03537 0
M  V30 15270 H 1421.53 -6.68316 1.20543 0
M  V30 15271 H 1419.47 -6.47875 -1.02926 0
M  V30 15272 H 1419.39 -7.55286 0.328376 0
M  V30 15273 H 1420.66 -7.74912 -0.844489 0
M  V30 15274 N 1424.89 -0.604284 -1.45555 0
M  V30 15275 C 1426.14 -0.0957836 -2.01472 0
M  V30 15276 C 1426.45 1.28016 -1.47889 0
M  V30 15277 O 1427.66 1.88121 -1.95762 0
M  V30 15278 C 1426.11 -0.120566 -3.59698 0
M  V30 15279 C 1425.72 -1.49616 -4.22278 0
M  V30 15280 C 1427.46 0.332865 -4.23193 0
M  V30 15281 C 1425.37 -1.4775 -5.72646 0
M  V30 15282 H 1424.3 -0.0320399 -0.753319 0
M  V30 15283 H 1426.95 -0.759125 -1.67061 0
M  V30 15284 H 1425.33 0.609365 -3.91283 0
M  V30 15285 H 1426.51 -2.24753 -4.02272 0
M  V30 15286 H 1424.82 -1.89141 -3.70965 0
M  V30 15287 H 1427.42 0.365951 -5.33446 0
M  V30 15288 H 1427.76 1.35487 -3.93635 0
M  V30 15289 H 1428.3 -0.343692 -3.96313 0
M  V30 15290 H 1425.04 -2.47701 -6.06898 0
M  V30 15291 H 1424.56 -0.768659 -5.94854 0
M  V30 15292 H 1426.23 -1.19971 -6.3578 0
M  V30 15293 N 1426.37 1.53816 -0.343257 0
M  V30 15294 C 1427.32 2.21763 0.529635 0
M  V30 15295 C 1428.3 1.20494 1.06631 0
M  V30 15296 O 1429.49 1.46041 1.00006 0
M  V30 15297 C 1426.62 2.99372 1.68022 0
M  V30 15298 C 1425.71 4.07999 1.1575 0
M  V30 15299 N 1426.1 5.04546 0.355979 0
M  V30 15300 C 1424.4 4.22304 1.43442 0
M  V30 15301 C 1425.1 5.81655 0.0723481 0
M  V30 15302 N 1424.07 5.39531 0.66391 0
M  V30 15303 H 1427.88 2.93763 -0.0898087 0
M  V30 15304 H 1425.39 1.61705 -0.150107 0
M  V30 15305 H 1427.39 3.4655 2.31752 0
M  V30 15306 H 1426.05 2.28899 2.30294 0
M  V30 15307 H 1427.06 5.179 -0.00291228 0
M  V30 15308 H 1423.73 3.63051 2.06155 0
M  V30 15309 H 1425.12 6.69442 -0.574192 0
M  V30 15310 N 1427.84 0.0718701 1.57436 0
M  V30 15311 C 1428.77 -0.89288 2.15754 0
M  V30 15312 C 1429.76 -1.31036 1.0846 0
M  V30 15313 O 1430.94 -1.38139 1.36496 0
M  V30 15314 C 1428.07 -2.16044 2.71923 0
M  V30 15315 C 1427.02 -1.88236 3.84384 0
M  V30 15316 C 1426.35 -3.21624 4.27156 0
M  V30 15317 C 1427.65 -1.18758 5.0862 0
M  V30 15318 H 1429.34 -0.407061 2.9662 0
M  V30 15319 H 1426.89 -0.194354 1.42682 0
M  V30 15320 H 1428.84 -2.83952 3.11366 0
M  V30 15321 H 1427.57 -2.66868 1.88279 0
M  V30 15322 H 1426.23 -1.22734 3.45445 0
M  V30 15323 H 1425.87 -3.70289 3.40433 0
M  V30 15324 H 1425.57 -3.03809 5.02965 0
M  V30 15325 H 1427.1 -3.90729 4.69215 0
M  V30 15326 H 1428.51 -1.76735 5.45378 0
M  V30 15327 H 1426.91 -1.11201 5.89707 0
M  V30 15328 H 1427.98 -0.166682 4.84613 0
M  V30 15329 N 1429.32 -1.56304 -0.201686 0
M  V30 15330 C 1430.6 -1.71059 -0.948595 0
M  V30 15331 C 1430.98 -0.624794 -2.01642 0
M  V30 15332 O 1430.33 0.365235 -2.25562 0
M  V30 15333 C 1430.54 -3.13136 -1.54101 0
M  V30 15334 C 1431.89 -3.73165 -2.02567 0
M  V30 15335 O 1432.91 -3.16223 -1.63956 0
M  V30 15336 O 1431.77 -4.73084 -2.73594 0
M  V30 15337 H 1428.86 -0.697443 -0.444412 0
M  V30 15338 H 1431.41 -1.68611 -0.191901 0
M  V30 15339 H 1430.18 -3.8363 -0.770968 0
M  V30 15340 H 1429.8 -3.19784 -2.36271 0
M  V30 15341 N 1430.8 0.469154 -1.50455 0
M  V30 15342 C 1432.05 1.22109 -1.61541 0
M  V30 15343 C 1432.38 1.91905 -0.316646 0
M  V30 15344 O 1431.63 1.82845 0.697585 0
M  V30 15345 C 1431.93 2.28673 -2.7467 0
M  V30 15346 C 1431.6 1.76115 -4.15083 0
M  V30 15347 C 1430.26 1.61503 -4.53288 0
M  V30 15348 C 1432.61 1.37145 -5.02833 0
M  V30 15349 C 1429.94 1.06346 -5.76981 0
M  V30 15350 C 1432.29 0.834294 -6.27074 0
M  V30 15351 C 1430.95 0.674814 -6.6408 0
M  V30 15352 H 1430.22 0.44683 -0.591121 0
M  V30 15353 H 1432.87 0.516821 -1.84394 0
M  V30 15354 H 1431.18 3.05015 -2.45912 0
M  V30 15355 H 1432.87 2.86615 -2.80451 0
M  V30 15356 H 1429.46 1.88457 -3.84944 0
M  V30 15357 H 1433.65 1.47268 -4.73947 0
M  V30 15358 H 1428.9 0.927377 -6.04326 0
M  V30 15359 H 1433.08 0.523676 -6.94428 0
M  V30 15360 H 1430.7 0.245264 -7.59804 0
M  V30 15361 N 1432.28 1.40065 0.722464 0
M  V30 15362 C 1433.21 1.42532 1.84951 0
M  V30 15363 C 1434.19 0.287082 1.6766 0
M  V30 15364 O 1435.37 0.494715 1.87793 0
M  V30 15365 C 1432.5 1.28041 3.22836 0
M  V30 15366 C 1431.46 2.39396 3.54787 0
M  V30 15367 C 1430.78 2.09986 4.91742 0
M  V30 15368 C 1432.08 3.81729 3.56483 0
M  V30 15369 H 1433.78 2.36851 1.83144 0
M  V30 15370 H 1431.32 1.14005 0.879714 0
M  V30 15371 H 1433.28 1.28385 4.01367 0
M  V30 15372 H 1432 0.301947 3.25201 0
M  V30 15373 H 1430.66 2.3829 2.78592 0
M  V30 15374 H 1430.31 1.10547 4.90702 0
M  V30 15375 H 1430.01 2.84586 5.14086 0
M  V30 15376 H 1431.53 2.12 5.72615 0
M  V30 15377 H 1432.95 3.84696 4.25067 0
M  V30 15378 H 1431.34 4.55791 3.90351 0
M  V30 15379 H 1432.41 4.11807 2.56014 0
M  V30 15380 N 1433.76 -0.95397 1.25448 0
M  V30 15381 C 1434.7 -2.05075 1.0589 0
M  V30 15382 C 1435.67 -1.66069 -0.0321545 0
M  V30 15383 O 1436.86 -1.90389 0.125152 0
M  V30 15384 C 1434 -3.38246 0.684391 0
M  V30 15385 C 1433.11 -3.90366 1.85037 0
M  V30 15386 C 1432.25 -5.11864 1.42016 0
M  V30 15387 C 1431.29 -5.56214 2.55523 0
M  V30 15388 N 1430.42 -6.68924 2.13272 0
M  V30 15389 H 1435.26 -2.21137 1.99755 0
M  V30 15390 H 1432.8 -1.08366 0.994742 0
M  V30 15391 H 1434.76 -4.14785 0.448209 0
M  V30 15392 H 1433.39 -3.22068 -0.217273 0
M  V30 15393 H 1432.44 -3.1034 2.19984 0
M  V30 15394 H 1433.75 -4.19228 2.70276 0
M  V30 15395 H 1432.91 -5.95823 1.14366 0
M  V30 15396 H 1431.65 -4.84718 0.538492 0
M  V30 15397 H 1430.65 -4.7082 2.83916 0
M  V30 15398 H 1431.88 -5.85368 3.44268 0
M  V30 15399 H 1429.82 -6.43486 1.27523 0
M  V30 15400 H 1429.74 -6.97307 2.92059 0
M  V30 15401 H 1431.01 -7.5629 1.88801 0
M  V30 15402 N 1435.24 -1.07045 -1.15668 0
M  V30 15403 C 1436.46 -0.812802 -1.9081 0
M  V30 15404 C 1436.89 0.627827 -1.77313 0
M  V30 15405 O 1436.24 1.43836 -1.10368 0
M  V30 15406 C 1436.29 -1.2219 -3.39267 0
M  V30 15407 O 1435.4 -0.365305 -4.10779 0
M  V30 15408 H 1434.74 -0.296385 -0.594182 0
M  V30 15409 H 1437.27 -1.42825 -1.465 0
M  V30 15410 H 1437.28 -1.19674 -3.90054 0
M  V30 15411 H 1435.95 -2.27121 -3.48409 0
M  V30 15412 H 1434.53 -0.452687 -3.70142 0
M  V30 15413 N 1436.71 1.32449 -0.85411 0
M  V30 15414 C 1437.99 1.91902 -0.378533 0
M  V30 15415 C 1438.37 1.77811 1.13782 0
M  V30 15416 O 1437.72 1.17588 1.95922 0
M  V30 15417 C 1437.93 3.38683 -0.842299 0
M  V30 15418 C 1439.28 4.15817 -0.859161 0
M  V30 15419 O 1440.3 3.47399 -0.786901 0
M  V30 15420 O 1439.16 5.37985 -0.960933 0
M  V30 15421 H 1436.25 0.819614 -0.110284 0
M  V30 15422 H 1438.8 1.41222 -0.940974 0
M  V30 15423 H 1437.57 3.4288 -1.88544 0
M  V30 15424 H 1437.19 3.96767 -0.257278 0
M  V30 15425 N 1438.19 0.611994 1.45232 0
M  V30 15426 C 1439.14 -0.125771 2.27653 0
M  V30 15427 C 1440.13 -0.834397 1.37574 0
M  V30 15428 O 1441.32 -0.72366 1.61531 0
M  V30 15429 C 1438.45 -1.11955 3.24532 0
M  V30 15430 C 1437.53 -0.411537 4.22099 0
M  V30 15431 N 1437.92 0.549272 5.02809 0
M  V30 15432 C 1436.22 -0.658514 4.41112 0
M  V30 15433 C 1436.92 0.965836 5.73626 0
M  V30 15434 N 1435.9 0.308649 5.42723 0
M  V30 15435 H 1439.7 0.612115 2.87455 0
M  V30 15436 H 1437.21 0.436003 1.56438 0
M  V30 15437 H 1439.21 -1.66253 3.82316 0
M  V30 15438 H 1437.87 -1.85795 2.6629 0
M  V30 15439 H 1438.88 0.926222 5.0955 0
M  V30 15440 H 1435.56 -1.38125 3.9399 0
M  V30 15441 H 1436.95 1.75853 6.48479 0
M  V30 15442 N 1439.67 -1.53632 0.351409 0
M  V30 15443 C 1441.08 -1.86241 -0.130834 0
M  V30 15444 C 1441.43 -1.27243 -1.49344 0
M  V30 15445 O 1440.56 -0.589006 -2.0823 0
M  V30 15446 C 1441.15 -3.37919 -0.244179 0
M  V30 15447 C 1439.71 -3.70377 -0.670662 0
M  V30 15448 C 1438.86 -2.76643 0.190813 0
M  V30 15449 H 1441.81 -1.48083 0.570724 0
M  V30 15450 H 1441.83 -3.65137 -1.07029 0
M  V30 15451 H 1441.34 -3.8083 0.747688 0
M  V30 15452 H 1439.44 -3.33015 -1.67127 0
M  V30 15453 H 1439.56 -4.76934 -0.455102 0
M  V30 15454 H 1437.92 -2.52446 -0.338092 0
M  V30 15455 H 1438.7 -3.22385 1.17996 0
M  V30 15456 N 1441.15 -0.0802183 -1.57396 0
M  V30 15457 C 1442.11 0.869437 -2.12069 0
M  V30 15458 C 1443.11 1.22079 -1.04658 0
M  V30 15459 O 1444.3 1.15267 -1.3061 0
M  V30 15460 C 1441.43 2.17016 -2.62901 0
M  V30 15461 H 1442.63 0.394952 -2.97288 0
M  V30 15462 H 1440.18 0.168597 -1.55388 0
M  V30 15463 H 1440.91 2.68983 -1.8116 0
M  V30 15464 H 1440.7 1.92808 -3.4142 0
M  V30 15465 H 1442.19 2.84982 -3.05246 0
M  V30 15466 N 1442.63 1.56409 0.193394 0
M  V30 15467 C 1443.87 1.80991 0.914875 0
M  V30 15468 C 1444.2 0.654538 1.82837 0
M  V30 15469 O 1443.48 -0.344816 1.91419 0
M  V30 15470 C 1443.76 3.15841 1.72964 0
M  V30 15471 C 1443.62 4.41873 0.840748 0
M  V30 15472 C 1444.93 3.474 2.70188 0
M  V30 15473 H 1442.05 0.658408 0.331161 0
M  V30 15474 H 1444.7 1.89125 0.182161 0
M  V30 15475 H 1442.85 3.09038 2.35431 0
M  V30 15476 H 1444.52 4.60723 0.230654 0
M  V30 15477 H 1442.76 4.33549 0.147558 0
M  V30 15478 H 1443.43 5.32728 1.44586 0
M  V30 15479 H 1445.91 3.54513 2.17852 0
M  V30 15480 H 1444.78 4.42872 3.24278 0
M  V30 15481 H 1445.04 2.7098 3.49317 0
M  V30 15482 N 1444.1 -0.461169 1.50702 0
M  V30 15483 C 1445.07 -1.54032 1.69725 0
M  V30 15484 C 1446.07 -1.50445 0.567707 0
M  V30 15485 O 1447.26 -1.52889 0.834901 0
M  V30 15486 C 1444.39 -2.93642 1.73168 0
M  V30 15487 H 1445.58 -1.38478 2.66015 0
M  V30 15488 H 1443.13 -0.688235 1.40332 0
M  V30 15489 H 1443.87 -3.14629 0.786078 0
M  V30 15490 H 1443.65 -2.97652 2.55236 0
M  V30 15491 H 1445.14 -3.71972 1.89807 0
M  V30 15492 N 1445.58 -1.40446 -0.715026 0
M  V30 15493 C 1447 -1.22488 -1.02317 0
M  V30 15494 C 1447.2 -0.100481 -2.01249 0
M  V30 15495 O 1446.25 0.541447 -2.46626 0
M  V30 15496 C 1447.57 -2.56682 -1.56636 0
M  V30 15497 C 1449.11 -2.63699 -1.68617 0
M  V30 15498 C 1449.59 -3.98163 -2.26342 0
M  V30 15499 N 1451.08 -3.99907 -2.33727 0
M  V30 15500 C 1451.82 -5.00737 -2.79375 0
M  V30 15501 N 1451.31 -6.11961 -3.24771 0
M  V30 15502 N 1453.1 -4.88106 -2.78764 0
M  V30 15503 H 1445.26 -2.12317 -0.0592712 0
M  V30 15504 H 1447.52 -0.943823 -0.088895 0
M  V30 15505 H 1447.22 -3.39615 -0.914036 0
M  V30 15506 H 1447.1 -2.77809 -2.55151 0
M  V30 15507 H 1449.49 -1.81138 -2.32966 0
M  V30 15508 H 1449.57 -2.46402 -0.687004 0
M  V30 15509 H 1449.21 -4.81164 -1.62614 0
M  V30 15510 H 1449.14 -4.1279 -3.26974 0
M  V30 15511 H 1451.63 -3.19592 -2.01666 0
M  V30 15512 H 1451.94 -6.84787 -3.58171 0
M  V30 15513 H 1450.29 -6.15525 -3.22729 0
M  V30 15514 H 1453.48 -4.00307 -2.42635 0
M  V30 15515 H 1453.65 -5.66828 -3.14023 0
M  V30 15516 N 1447.06 0.947303 -1.25952 0
M  V30 15517 C 1447.99 2.04485 -1.01297 0
M  V30 15518 C 1448.97 1.62488 0.06024 0
M  V30 15519 O 1450.15 1.88326 -0.0809237 0
M  V30 15520 C 1447.28 3.34484 -0.532733 0
M  V30 15521 C 1446.33 3.95449 -1.59758 0
M  V30 15522 S 1447.16 4.30498 -3.18484 0
M  V30 15523 C 1448.32 5.63605 -2.72213 0
M  V30 15524 H 1448.55 2.25084 -1.94228 0
M  V30 15525 H 1446.08 1.0879 -1.09564 0
M  V30 15526 H 1448.04 4.09661 -0.262309 0
M  V30 15527 H 1446.7 3.11839 0.376192 0
M  V30 15528 H 1445.89 4.892 -1.21243 0
M  V30 15529 H 1445.5 3.26781 -1.81907 0
M  V30 15530 H 1447.79 6.42046 -2.16295 0
M  V30 15531 H 1448.73 6.07 -3.64633 0
M  V30 15532 H 1449.14 5.2319 -2.11974 0
M  V30 15533 N 1448.54 1.07657 1.15099 0
M  V30 15534 C 1449.95 0.802696 1.37945 0
M  V30 15535 C 1450.15 -0.591622 1.92619 0
M  V30 15536 O 1449.21 -1.34979 2.13394 0
M  V30 15537 C 1450.52 1.87907 2.34759 0
M  V30 15538 C 1452.07 1.90418 2.48415 0
M  V30 15539 C 1452.55 2.97148 3.48521 0
M  V30 15540 N 1454.04 2.96271 3.56059 0
M  V30 15541 C 1454.77 3.75498 4.33346 0
M  V30 15542 N 1454.27 4.64583 5.1394 0
M  V30 15543 N 1456.06 3.63831 4.28466 0
M  V30 15544 H 1448.21 1.97578 0.779537 0
M  V30 15545 H 1450.48 0.856978 0.405331 0
M  V30 15546 H 1450.18 2.8811 2.01707 0
M  V30 15547 H 1450.06 1.74183 3.34575 0
M  V30 15548 H 1452.44 0.908655 2.80762 0
M  V30 15549 H 1452.52 2.0822 1.48586 0
M  V30 15550 H 1452.17 3.96903 3.16908 0
M  V30 15551 H 1452.1 2.76593 4.48112 0
M  V30 15552 H 1454.59 2.31697 2.98538 0
M  V30 15553 H 1454.9 5.2166 5.70167 0
M  V30 15554 H 1453.25 4.6863 5.13236 0
M  V30 15555 H 1456.44 2.93609 3.6457 0
M  V30 15556 H 1456.61 4.25818 4.8845 0
M  V30 15557 N 1450.02 -1.31994 0.861122 0
M  V30 15558 C 1451.26 -1.97317 0.468371 0
M  V30 15559 C 1451.6 -1.67954 -0.974941 0
M  V30 15560 O 1450.87 -0.971243 -1.68514 0
M  V30 15561 C 1451.15 -3.52918 0.715607 0
M  V30 15562 C 1451.01 -3.91888 2.20781 0
M  V30 15563 C 1452.33 -4.39747 0.17624 0
M  V30 15564 H 1449.44 -0.716733 0.171646 0
M  V30 15565 H 1452.09 -1.56269 1.08074 0
M  V30 15566 H 1450.24 -3.88013 0.194387 0
M  V30 15567 H 1451.91 -3.66938 2.7956 0
M  V30 15568 H 1450.15 -3.40813 2.68382 0
M  V30 15569 H 1450.82 -5.00346 2.33147 0
M  V30 15570 H 1453.3 -4.11424 0.622043 0
M  V30 15571 H 1452.17 -5.47592 0.378748 0
M  V30 15572 H 1452.44 -4.32393 -0.921358 0
M  V30 15573 N 1451.49 -0.619688 -1.44906 0
M  V30 15574 C 1452.77 -0.0510703 -1.95533 0
M  V30 15575 C 1453.15 1.42013 -1.56191 0
M  V30 15576 O 1452.5 2.12879 -0.830356 0
M  V30 15577 C 1452.71 -0.261896 -3.48016 0
M  V30 15578 C 1454.06 -0.149057 -4.24338 0
M  V30 15579 O 1455.08 -0.192655 -3.55679 0
M  V30 15580 O 1453.94 -0.0443345 -5.46482 0
M  V30 15581 H 1451.03 0.0288461 -0.826497 0
M  V30 15582 H 1453.58 -0.690594 -1.55013 0
M  V30 15583 H 1452.35 -1.28319 -3.69662 0
M  V30 15584 H 1451.98 0.412314 -3.95456 0
M  V30 15585 N 1452.97 1.53444 -0.359552 0
M  V30 15586 C 1454.2 2.06058 0.235576 0
M  V30 15587 C 1454.62 1.23175 1.42161 0
M  V30 15588 O 1453.98 0.249338 1.79577 0
M  V30 15589 C 1454.03 3.55351 0.613025 0
M  V30 15590 O 1453.13 3.75229 1.71104 0
M  V30 15591 H 1452.47 0.663038 0.0357266 0
M  V30 15592 H 1455 1.97923 -0.518408 0
M  V30 15593 H 1455.01 3.9827 0.885722 0
M  V30 15594 H 1453.69 4.15122 -0.254243 0
M  V30 15595 H 1452.27 3.4421 1.43437 0
M  V30 15596 N 1454.45 0.0885642 1.57351 0
M  V30 15597 C 1455.73 -0.618587 1.85561 0
M  V30 15598 C 1456.11 -1.86753 0.984206 0
M  V30 15599 O 1455.46 -2.28434 0.0548839 0
M  V30 15600 C 1455.67 -0.940222 3.36096 0
M  V30 15601 C 1457.01 -1.30649 4.04 0
M  V30 15602 O 1458.04 -1.03144 3.4094 0
M  V30 15603 O 1456.9 -1.82135 5.15256 0
M  V30 15604 H 1453.99 -0.308881 0.767152 0
M  V30 15605 H 1456.54 0.120767 1.6927 0
M  V30 15606 H 1455.31 -0.0538991 3.91263 0
M  V30 15607 H 1454.93 -1.73577 3.5771 0
M  V30 15608 N 1455.93 -1.56509 -0.185096 0
M  V30 15609 C 1456.88 -1.96237 -1.24875 0
M  V30 15610 C 1457.87 -0.849169 -1.46579 0
M  V30 15611 O 1459.08 -1.03422 -1.47322 0
M  V30 15612 H 1455.45 -0.624147 -0.419457 0
M  V30 15613 H 1457.42 -2.8492 -0.88673 0
M  V30 15614 C 1456.17 -2.32667 -2.58382 0
M  V30 15615 H 1455.49 -3.17858 -2.425 0
M  V30 15616 H 1456.93 -2.6432 -3.31528 0
M  V30 15617 C 1455.39 -1.16496 -3.16118 0
M  V30 15618 O 1455.92 -0.445283 -3.99224 0
M  V30 15619 N 1454.13 -0.939133 -2.75007 0
M  V30 15620 H 1453.68 -1.52611 -2.07527 0
M  V30 15621 H 1453.63 -0.163659 -3.13974 0
M  V30 15622 N 1457.41 0.45317 -1.50944 0
M  V30 15623 C 1458.37 1.5313 -1.7054 0
M  V30 15624 C 1459.37 1.50142 -0.575678 0
M  V30 15625 O 1460.56 1.52444 -0.842997 0
M  V30 15626 C 1457.69 2.92719 -1.74723 0
M  V30 15627 H 1458.88 1.37066 -2.66745 0
M  V30 15628 H 1456.44 0.680783 -1.40695 0
M  V30 15629 H 1457.17 3.14208 -0.802753 0
M  V30 15630 H 1456.96 2.96295 -2.56811 0
M  V30 15631 H 1458.45 3.7096 -1.91777 0
M  V30 15632 N 1458.88 1.40823 0.707568 0
M  V30 15633 C 1460.11 1.42659 1.49439 0
M  V30 15634 C 1460.52 0.0268475 1.89181 0
M  V30 15635 O 1459.87 -0.961444 1.56531 0
M  V30 15636 C 1459.93 2.26104 2.79494 0
M  V30 15637 C 1459.59 3.7442 2.62027 0
M  V30 15638 C 1460.59 4.66867 2.28759 0
M  V30 15639 C 1458.27 4.18328 2.78042 0
M  V30 15640 C 1460.27 6.01208 2.11727 0
M  V30 15641 C 1457.95 5.52736 2.60627 0
M  V30 15642 C 1458.95 6.43991 2.27518 0
M  V30 15643 O 1458.64 7.75921 2.10243 0
M  V30 15644 H 1458.37 0.488307 0.467475 0
M  V30 15645 H 1460.93 1.85607 0.879719 0
M  V30 15646 H 1459.16 1.77949 3.43323 0
M  V30 15647 H 1460.85 2.19785 3.41247 0
M  V30 15648 H 1461.61 4.34239 2.16012 0
M  V30 15649 H 1457.49 3.47612 3.02798 0
M  V30 15650 H 1461.03 6.724 1.85807 0
M  V30 15651 H 1456.93 5.84947 2.7296 0
M  V30 15652 H 1457.7 7.86938 2.251 0
M  V30 15653 N 1460.36 -0.94061 1.26453 0
M  V30 15654 C 1461.61 -1.68132 1.1142 0
M  V30 15655 C 1461.92 -1.92587 -0.342006 0
M  V30 15656 O 1463.13 -2.64489 -0.613018 0
M  V30 15657 C 1461.59 -3.02758 1.94591 0
M  V30 15658 C 1461.19 -2.86049 3.4479 0
M  V30 15659 C 1462.94 -3.80516 1.88169 0
M  V30 15660 C 1460.85 -4.1615 4.20206 0
M  V30 15661 H 1459.78 -0.630591 0.413366 0
M  V30 15662 H 1462.43 -1.04602 1.50767 0
M  V30 15663 H 1460.81 -3.67272 1.48078 0
M  V30 15664 H 1461.98 -2.3038 3.99076 0
M  V30 15665 H 1460.3 -2.21732 3.52454 0
M  V30 15666 H 1462.89 -4.76904 2.41799 0
M  V30 15667 H 1463.24 -4.07477 0.852531 0
M  V30 15668 H 1463.77 -3.22776 2.32509 0
M  V30 15669 H 1460.51 -3.94373 5.23593 0
M  V30 15670 H 1460.03 -4.71531 3.707 0
M  V30 15671 H 1461.71 -4.84602 4.28684 0
M  V30 15672 N 1461.84 -1.08266 -1.14527 0
M  V30 15673 C 1463.09 -0.809856 -1.85164 0
M  V30 15674 C 1463.41 0.666263 -1.83265 0
M  V30 15675 O 1462.68 1.48295 -1.28006 0
M  V30 15676 H 1461.26 -0.296598 -0.685594 0
M  V30 15677 H 1463.92 -1.36834 -1.38789 0
M  V30 15678 H 1463.02 -1.15272 -2.90032 0
M  V30 15679 N 1463.32 1.31536 -0.86811 0
M  V30 15680 C 1464.57 1.97066 -0.478829 0
M  V30 15681 C 1464.9 1.68469 0.966021 0
M  V30 15682 O 1464.17 0.980166 1.67997 0
M  V30 15683 C 1464.46 3.52533 -0.734313 0
M  V30 15684 C 1464.31 3.90711 -2.22856 0
M  V30 15685 C 1465.63 4.39647 -0.199559 0
M  V30 15686 H 1462.75 0.715813 -0.175444 0
M  V30 15687 H 1465.39 1.55694 -1.08901 0
M  V30 15688 H 1463.54 3.87905 -0.214962 0
M  V30 15689 H 1465.21 3.65451 -2.81502 0
M  V30 15690 H 1463.45 3.39385 -2.70185 0
M  V30 15691 H 1464.13 4.99103 -2.35797 0
M  V30 15692 H 1466.6 4.11088 -0.643853 0
M  V30 15693 H 1465.48 5.47383 -0.407783 0
M  V30 15694 H 1465.74 4.32875 0.898414 0
M  V30 15695 N 1464.8 0.627364 1.44575 0
M  V30 15696 C 1466.03 0.137313 2.06444 0
M  V30 15697 C 1466.44 -1.18655 1.46855 0
M  V30 15698 O 1465.8 -1.72699 0.590018 0
M  V30 15699 C 1465.85 0.0123481 3.61498 0
M  V30 15700 O 1465.57 1.28385 4.18866 0
M  V30 15701 C 1467.07 -0.506841 4.40393 0
M  V30 15702 H 1464.29 0.0779387 0.666458 0
M  V30 15703 H 1466.83 0.860701 1.85505 0
M  V30 15704 H 1464.99 -0.66146 3.81711 0
M  V30 15705 H 1465.4 1.12626 5.12265 0
M  V30 15706 H 1466.88 -0.543304 5.4932 0
M  V30 15707 H 1467.35 -1.53314 4.11572 0
M  V30 15708 H 1467.96 0.133589 4.2509 0
M  V30 15709 N 1466.28 -1.53251 0.367684 0
M  V30 15710 C 1467.51 -2.05407 -0.221725 0
M  V30 15711 C 1467.91 -1.24081 -1.4283 0
M  V30 15712 O 1467.26 -0.275005 -1.8163 0
M  V30 15713 C 1467.32 -3.53063 -0.677281 0
M  V30 15714 C 1466.98 -4.55131 0.412894 0
M  V30 15715 C 1467.98 -5.04315 1.26343 0
M  V30 15716 C 1465.66 -4.99013 0.573739 0
M  V30 15717 C 1467.66 -5.95984 2.26014 0
M  V30 15718 C 1465.35 -5.90487 1.57381 0
M  V30 15719 C 1466.34 -6.38863 2.41544 0
M  V30 15720 O 1466.03 -7.28533 3.39845 0
M  V30 15721 H 1465.76 -0.674679 -0.0422413 0
M  V30 15722 H 1468.32 -1.98577 0.52501 0
M  V30 15723 H 1466.55 -3.57437 -1.47565 0
M  V30 15724 H 1468.24 -3.88066 -1.18993 0
M  V30 15725 H 1469 -4.7116 1.15037 0
M  V30 15726 H 1464.88 -4.60944 -0.0715806 0
M  V30 15727 H 1468.43 -6.33666 2.91742 0
M  V30 15728 H 1464.32 -6.23056 1.68734 0
M  V30 15729 H 1465.09 -7.46536 3.35598 0
M  V30 15730 N 1467.75 -0.0969077 -1.57302 0
M  V30 15731 C 1468.7 0.861379 -2.14124 0
M  V30 15732 C 1469.67 1.27858 -1.06026 0
M  V30 15733 O 1470.86 1.36001 -1.33822 0
M  V30 15734 C 1468 2.11443 -2.72738 0
M  V30 15735 C 1467.11 1.7476 -3.95074 0
M  V30 15736 C 1466.24 2.94864 -4.41847 0
M  V30 15737 C 1465.28 2.54316 -5.56767 0
M  V30 15738 N 1464.42 3.67261 -5.98384 0
M  V30 15739 H 1469.26 0.369968 -2.95694 0
M  V30 15740 H 1466.8 0.170943 -1.46103 0
M  V30 15741 H 1468.75 2.84829 -3.04842 0
M  V30 15742 H 1467.38 2.5808 -1.93893 0
M  V30 15743 H 1466.44 0.91335 -3.69272 0
M  V30 15744 H 1467.75 1.40946 -4.78472 0
M  V30 15745 H 1466.9 3.76501 -4.75744 0
M  V30 15746 H 1465.64 3.31889 -3.57352 0
M  V30 15747 H 1464.65 1.71106 -5.22497 0
M  V30 15748 H 1465.87 2.18432 -6.43012 0
M  V30 15749 H 1463.82 4.04001 -5.16836 0
M  V30 15750 H 1463.73 3.37298 -6.76584 0
M  V30 15751 H 1465 4.49403 -6.36912 0
M  V30 15752 N 1469.23 1.56605 0.176793 0
M  V30 15753 C 1470.18 1.96896 1.23833 0
M  V30 15754 C 1471.17 0.85693 1.46127 0
M  V30 15755 O 1472.38 1.04202 1.46772 0
M  V30 15756 H 1468.75 0.626363 0.416141 0
M  V30 15757 H 1470.73 2.85387 0.871607 0
M  V30 15758 C 1469.47 2.34034 2.57145 0
M  V30 15759 H 1468.8 3.1914 2.40811 0
M  V30 15760 H 1470.24 2.66074 3.30122 0
M  V30 15761 C 1468.7 1.18171 3.15495 0
M  V30 15762 O 1469.23 0.466448 3.98983 0
M  V30 15763 N 1467.43 0.953705 2.74505 0
M  V30 15764 H 1466.98 1.5371 2.06715 0
M  V30 15765 H 1466.94 0.180307 3.13883 0
M  V30 15766 N 1470.71 -0.445159 1.51182 0
M  V30 15767 C 1471.62 -1.5651 1.74762 0
M  V30 15768 C 1472.64 -1.62134 0.631542 0
M  V30 15769 O 1473.81 -1.79522 0.912898 0
M  V30 15770 C 1470.88 -2.92552 1.86049 0
M  V30 15771 C 1469.94 -2.97108 3.0988 0
M  V30 15772 C 1469.17 -4.2666 3.2062 0
M  V30 15773 O 1469.39 -5.18608 2.37491 0
M  V30 15774 O 1468.33 -4.3734 4.13542 0
M  V30 15775 H 1472.15 -1.3953 2.6975 0
M  V30 15776 H 1469.74 -0.627363 1.3559 0
M  V30 15777 H 1471.62 -3.73304 1.95504 0
M  V30 15778 H 1470.3 -3.09676 0.94248 0
M  V30 15779 H 1469.2 -2.15338 3.05909 0
M  V30 15780 H 1470.54 -2.84927 4.01345 0
M  V30 15781 N 1472.19 -1.41197 -0.700089 0
M  V30 15782 C 1473.1 -1.45038 -1.84394 0
M  V30 15783 C 1474.11 -0.34141 -1.70618 0
M  V30 15784 O 1475.29 -0.588428 -1.92612 0
M  V30 15785 C 1472.35 -1.32611 -3.20336 0
M  V30 15786 C 1471.42 -2.53784 -3.46254 0
M  V30 15787 C 1470.65 -2.4194 -4.75711 0
M  V30 15788 O 1470.87 -1.44153 -5.51884 0
M  V30 15789 O 1469.81 -3.31613 -5.02311 0
M  V30 15790 H 1473.63 -2.41531 -1.8411 0
M  V30 15791 H 1471.22 -1.22686 -0.852558 0
M  V30 15792 H 1473.1 -1.27947 -4.01507 0
M  V30 15793 H 1471.77 -0.392309 -3.21314 0
M  V30 15794 H 1470.68 -2.64024 -2.65032 0
M  V30 15795 H 1472.01 -3.45977 -3.50087 0
M  V30 15796 N 1473.67 0.933891 -1.2695 0
M  V30 15797 C 1474.94 1.65874 -1.0366 0
M  V30 15798 C 1475.32 2.0666 0.43066 0
M  V30 15799 O 1474.67 1.79606 1.41259 0
M  V30 15800 C 1474.88 2.86546 -1.99229 0
M  V30 15801 C 1476.23 3.58031 -2.28251 0
M  V30 15802 O 1477.25 2.96663 -1.97154 0
M  V30 15803 O 1476.11 4.68583 -2.81233 0
M  V30 15804 H 1473.21 0.72673 -0.394706 0
M  V30 15805 H 1475.75 0.984975 -1.38189 0
M  V30 15806 H 1474.52 2.53351 -2.9821 0
M  V30 15807 H 1474.15 3.61645 -1.65224 0
M  V30 15808 N 1475.14 1.08871 1.13951 0
M  V30 15809 C 1476.09 0.722966 2.19184 0
M  V30 15810 C 1477.06 -0.293108 1.63493 0
M  V30 15811 O 1478.25 -0.176036 1.89986 0
M  V30 15812 C 1475.39 0.143542 3.44801 0
M  V30 15813 C 1474.5 1.21297 4.14622 0
M  V30 15814 C 1473.63 0.596902 5.27836 0
M  V30 15815 C 1472.67 1.64803 5.89497 0
M  V30 15816 N 1471.81 1.05341 6.94152 0
M  V30 15817 H 1476.65 1.62464 2.49819 0
M  V30 15818 H 1474.19 0.811803 1.22671 0
M  V30 15819 H 1476.14 -0.210153 4.1667 0
M  V30 15820 H 1474.77 -0.721426 3.14635 0
M  V30 15821 H 1473.83 1.68403 3.41093 0
M  V30 15822 H 1475.14 2.00931 4.56539 0
M  V30 15823 H 1474.29 0.191724 6.06397 0
M  V30 15824 H 1473.03 -0.231052 4.87152 0
M  V30 15825 H 1472.04 2.06282 5.09635 0
M  V30 15826 H 1473.26 2.47855 6.32254 0
M  V30 15827 H 1471.21 0.24664 6.55536 0
M  V30 15828 H 1471.12 1.7868 7.34581 0
M  V30 15829 H 1472.39 0.674253 7.76578 0
M  V30 15830 N 1476.62 -1.31073 0.875073 0
M  V30 15831 C 1477.55 -2.30855 0.350468 0
M  V30 15832 C 1478.53 -1.60569 -0.561384 0
M  V30 15833 O 1479.72 -1.88242 -0.477329 0
M  V30 15834 C 1476.85 -3.44444 -0.444493 0
M  V30 15835 C 1475.8 -4.26357 0.374716 0
M  V30 15836 C 1475.13 -5.31903 -0.546243 0
M  V30 15837 C 1476.43 -4.96817 1.61153 0
M  V30 15838 H 1478.12 -2.74983 1.18427 0
M  V30 15839 H 1475.67 -1.32199 0.570909 0
M  V30 15840 H 1477.62 -4.13304 -0.82206 0
M  V30 15841 H 1476.34 -2.99096 -1.31185 0
M  V30 15842 H 1475 -3.59171 0.734295 0
M  V30 15843 H 1474.65 -4.82803 -1.41102 0
M  V30 15844 H 1474.35 -5.876 -0.00198173 0
M  V30 15845 H 1475.88 -6.03621 -0.920542 0
M  V30 15846 H 1477.29 -5.58247 1.30511 0
M  V30 15847 H 1475.69 -5.62334 2.09524 0
M  V30 15848 H 1476.76 -4.2351 2.36151 0
M  V30 15849 N 1478.1 -0.635022 -1.4424 0
M  V30 15850 C 1479.05 0.0675707 -2.30701 0
M  V30 15851 C 1480.02 0.832919 -1.43707 0
M  V30 15852 O 1481.2 0.813177 -1.72604 0
M  V30 15853 C 1478.34 1.04053 -3.2904 0
M  V30 15854 C 1477.46 0.273191 -4.31135 0
M  V30 15855 C 1476.59 1.23831 -5.16565 0
M  V30 15856 C 1475.63 0.460359 -6.10366 0
M  V30 15857 N 1474.77 1.37614 -6.88481 0
M  V30 15858 H 1479.61 -0.675656 -2.90239 0
M  V30 15859 H 1477.14 -0.344971 -1.42998 0
M  V30 15860 H 1479.1 1.61805 -3.84545 0
M  V30 15861 H 1477.73 1.75084 -2.71193 0
M  V30 15862 H 1476.78 -0.420315 -3.78071 0
M  V30 15863 H 1478.1 -0.332548 -4.9769 0
M  V30 15864 H 1477.25 1.88704 -5.76607 0
M  V30 15865 H 1475.99 1.87797 -4.50093 0
M  V30 15866 H 1474.99 -0.201836 -5.49429 0
M  V30 15867 H 1476.22 -0.174639 -6.78875 0
M  V30 15868 H 1474.16 2.00294 -6.24675 0
M  V30 15869 H 1474.08 0.82452 -7.5149 0
M  V30 15870 H 1475.35 2.01359 -7.53044 0
M  V30 15871 N 1479.58 1.53054 -0.375806 0
M  V30 15872 C 1480.86 1.93761 0.26757 0
M  V30 15873 C 1481.24 1.31019 1.65521 0
M  V30 15874 O 1480.58 0.473138 2.23548 0
M  V30 15875 C 1480.79 3.47643 0.307505 0
M  V30 15876 C 1482.14 4.21114 0.542951 0
M  V30 15877 O 1483.17 3.54077 0.388285 0
M  V30 15878 O 1482.02 5.39929 0.8449 0
M  V30 15879 H 1479.12 0.810805 0.16286 0
M  V30 15880 H 1481.66 1.64179 -0.429334 0
M  V30 15881 H 1480.44 3.85608 -0.665001 0
M  V30 15882 H 1480.06 3.83488 1.04988 0
M  V30 15883 N 1481.06 0.105248 1.57248 0
M  V30 15884 C 1482.3 -0.550698 1.95803 0
M  V30 15885 C 1482.66 -1.65159 0.986933 0
M  V30 15886 O 1481.95 -1.91594 0.0146152 0
M  V30 15887 C 1482.14 -1.14178 3.38671 0
M  V30 15888 C 1481.97 -0.0996826 4.4959 0
M  V30 15889 C 1480.74 0.327365 5.04238 0
M  V30 15890 C 1482.94 0.676048 5.09837 0
M  V30 15891 N 1480.92 1.35667 5.98722 0
M  V30 15892 C 1482.29 1.55691 6.00134 0
M  V30 15893 C 1484.35 0.728451 4.92542 0
M  V30 15894 C 1483.05 2.48559 6.7499 0
M  V30 15895 C 1485.08 1.64478 5.68068 0
M  V30 15896 C 1484.44 2.51324 6.58039 0
M  V30 15897 H 1480.54 -0.171547 0.762952 0
M  V30 15898 H 1483.12 0.190175 1.93769 0
M  V30 15899 H 1481.29 -1.85243 3.41379 0
M  V30 15900 H 1483.03 -1.76092 3.64381 0
M  V30 15901 H 1479.78 -0.0623632 4.73559 0
M  V30 15902 H 1480.21 1.86983 6.50666 0
M  V30 15903 H 1484.85 0.0711612 4.2274 0
M  V30 15904 H 1482.57 3.15308 7.44047 0
M  V30 15905 H 1486.15 1.69059 5.56696 0
M  V30 15906 H 1485.03 3.21077 7.15457 0
M  V30 15907 N 1482.53 -1.56697 -0.168486 0
M  V30 15908 C 1483.44 -1.99866 -1.22845 0
M  V30 15909 C 1484.46 -0.910491 -1.48277 0
M  V30 15910 O 1485.64 -1.21834 -1.6037 0
M  V30 15911 C 1482.7 -2.35227 -2.54694 0
M  V30 15912 C 1481.76 -3.57886 -2.37099 0
M  V30 15913 C 1481 -3.91551 -3.62661 0
M  V30 15914 O 1481.22 -3.26148 -4.67957 0
M  V30 15915 O 1480.15 -4.8489 -3.56603 0
M  V30 15916 H 1483.98 -2.90305 -0.892015 0
M  V30 15917 H 1481.56 -1.44602 -0.375571 0
M  V30 15918 H 1483.45 -2.58928 -3.32467 0
M  V30 15919 H 1482.12 -1.4795 -2.87911 0
M  V30 15920 H 1481.03 -3.394 -1.57348 0
M  V30 15921 H 1482.36 -4.45714 -2.08806 0
M  V30 15922 N 1484.01 0.437135 -1.51416 0
M  V30 15923 C 1485.26 1.18421 -1.63771 0
M  V30 15924 C 1485.58 1.91718 -0.356282 0
M  V30 15925 O 1484.85 1.85566 0.627863 0
M  V30 15926 H 1483.43 0.440125 -0.603572 0
M  V30 15927 H 1486.09 0.501155 -1.88347 0
M  V30 15928 H 1485.19 1.91367 -2.46546 0
M  V30 15929 N 1485.49 1.41566 0.692592 0
M  V30 15930 C 1486.74 1.40805 1.44978 0
M  V30 15931 C 1487.06 0.0191039 1.94991 0
M  V30 15932 O 1486.33 -0.939544 1.71899 0
M  V30 15933 H 1484.91 0.518293 0.537942 0
M  V30 15934 H 1487.57 1.76831 0.81956 0
M  V30 15935 H 1486.67 2.09706 2.31149 0
M  V30 15936 N 1486.97 -0.927146 1.27443 0
M  V30 15937 C 1487.9 -2.04483 1.12735 0
M  V30 15938 C 1488.88 -1.70076 0.0286662 0
M  V30 15939 O 1490.06 -1.93133 0.203252 0
M  V30 15940 C 1487.19 -3.38557 0.774352 0
M  V30 15941 C 1486.15 -3.87078 1.82632 0
M  V30 15942 C 1485.47 -5.17964 1.32729 0
M  V30 15943 C 1486.77 -4.10409 3.23051 0
M  V30 15944 H 1488.47 -2.17046 2.06231 0
M  V30 15945 H 1486.01 -1.04292 0.992937 0
M  V30 15946 H 1487.97 -4.16227 0.658273 0
M  V30 15947 H 1486.69 -3.26009 -0.196321 0
M  V30 15948 H 1485.35 -3.11602 1.93132 0
M  V30 15949 H 1485 -5.01808 0.346059 0
M  V30 15950 H 1484.7 -5.51398 2.03061 0
M  V30 15951 H 1486.22 -5.98203 1.22416 0
M  V30 15952 H 1487.64 -4.78646 3.15549 0
M  V30 15953 H 1486.03 -4.5515 3.91099 0
M  V30 15954 H 1487.1 -3.15685 3.68064 0
M  V30 15955 N 1488.45 -1.09474 -1.13372 0
M  V30 15956 C 1489.72 -0.743485 -1.80919 0
M  V30 15957 C 1490.1 0.771414 -1.965 0
M  V30 15958 O 1489.45 1.694 -1.53349 0
M  V30 15959 C 1489.66 -1.48309 -3.1592 0
M  V30 15960 C 1491.01 -1.64921 -3.91263 0
M  V30 15961 O 1492.03 -1.44564 -3.25545 0
M  V30 15962 O 1490.89 -1.98595 -5.09139 0
M  V30 15963 H 1487.99 -0.26713 -0.782669 0
M  V30 15964 H 1490.53 -1.19697 -1.20294 0
M  V30 15965 H 1489.3 -2.51456 -2.99809 0
M  V30 15966 H 1488.93 -1.02181 -3.84246 0
M  V30 15967 N 1489.92 1.30607 -0.882012 0
M  V30 15968 C 1490.83 2.31967 -0.350503 0
M  V30 15969 C 1491.85 1.6522 0.54575 0
M  V30 15970 O 1493.03 1.96544 0.439581 0
M  V30 15971 C 1490.09 3.44037 0.428924 0
M  V30 15972 C 1489.15 4.26417 -0.496727 0
M  V30 15973 C 1488.39 5.33135 0.245597 0
M  V30 15974 O 1488.61 5.51077 1.47209 0
M  V30 15975 O 1487.54 6.00551 -0.402767 0
M  V30 15976 H 1491.37 2.79374 -1.19095 0
M  V30 15977 H 1488.95 1.34723 -0.645754 0
M  V30 15978 H 1490.84 4.12314 0.870346 0
M  V30 15979 H 1489.51 2.9877 1.24573 0
M  V30 15980 H 1488.42 3.60848 -0.986899 0
M  V30 15981 H 1489.75 4.7528 -1.27945 0
M  V30 15982 N 1491.4 0.642663 1.43901 0
M  V30 15983 C 1492.33 -0.0938945 2.29008 0
M  V30 15984 C 1493.35 -0.797561 1.41925 0
M  V30 15985 O 1494.54 -0.65708 1.65966 0
M  V30 15986 C 1491.64 -1.15564 3.18588 0
M  V30 15987 C 1490.81 -0.532208 4.3415 0
M  V30 15988 C 1489.87 -1.48943 5.0468 0
M  V30 15989 O 1488.89 -1.00211 5.60309 0
M  V30 15990 N 1490.1 -2.82362 5.072 0
M  V30 15991 H 1492.86 0.636539 2.92862 0
M  V30 15992 H 1490.42 0.484665 1.54475 0
M  V30 15993 H 1492.41 -1.79658 3.62636 0
M  V30 15994 H 1490.98 -1.78816 2.56405 0
M  V30 15995 H 1490.2 0.287598 3.93149 0
M  V30 15996 H 1491.49 -0.0965526 5.08708 0
M  V30 15997 H 1490.89 -3.24524 4.63358 0
M  V30 15998 H 1489.45 -3.41786 5.55001 0
M  V30 15999 N 1492.88 -1.52852 0.383918 0
M  V30 16000 C 1494.3 -1.59565 0.0336391 0
M  V30 16001 C 1494.5 -1.39819 -1.45097 0
M  V30 16002 O 1493.55 -1.21249 -2.21484 0
M  V30 16003 C 1494.87 -2.96412 0.506001 0
M  V30 16004 C 1496.41 -3.09575 0.461794 0
M  V30 16005 C 1496.89 -4.48863 0.910259 0
M  V30 16006 N 1498.38 -4.55032 0.866053 0
M  V30 16007 C 1499.12 -5.61032 1.18453 0
M  V30 16008 N 1498.61 -6.74701 1.57321 0
M  V30 16009 N 1500.4 -5.51109 1.10613 0
M  V30 16010 H 1492.56 -1.63937 1.3505 0
M  V30 16011 H 1494.82 -0.769857 0.553194 0
M  V30 16012 H 1494.52 -3.16061 1.54268 0
M  V30 16013 H 1494.4 -3.77073 -0.0977643 0
M  V30 16014 H 1496.79 -2.89625 -0.565786 0
M  V30 16015 H 1496.87 -2.30879 1.10129 0
M  V30 16016 H 1496.51 -4.69553 1.93604 0
M  V30 16017 H 1496.44 -5.26017 0.247825 0
M  V30 16018 H 1498.93 -3.73423 0.579962 0
M  V30 16019 H 1499.24 -7.51545 1.8 0
M  V30 16020 H 1497.59 -6.76046 1.61203 0
M  V30 16021 H 1500.78 -4.61187 0.801531 0
M  V30 16022 H 1500.95 -6.33618 1.35766 0
M  V30 16023 N 1494.36 -0.113586 -1.5719 0
M  V30 16024 C 1495.29 0.835363 -2.18046 0
M  V30 16025 C 1496.27 1.28114 -1.11897 0
M  V30 16026 O 1497.46 1.34472 -1.40111 0
M  V30 16027 C 1494.59 2.08759 -2.77556 0
M  V30 16028 C 1493.54 1.77979 -3.8924 0
M  V30 16029 C 1492.87 3.10185 -4.35533 0
M  V30 16030 C 1494.17 1.05231 -5.11589 0
M  V30 16031 H 1495.86 0.328275 -2.97595 0
M  V30 16032 H 1493.41 0.156456 -1.43148 0
M  V30 16033 H 1495.36 2.75597 -3.18785 0
M  V30 16034 H 1494.08 2.61783 -1.95288 0
M  V30 16035 H 1492.74 1.13532 -3.48577 0
M  V30 16036 H 1492.39 3.61133 -3.50131 0
M  V30 16037 H 1492.09 2.90367 -5.10843 0
M  V30 16038 H 1493.61 3.78151 -4.7941 0
M  V30 16039 H 1495.03 1.62213 -5.49872 0
M  V30 16040 H 1493.42 0.955269 -5.92448 0
M  V30 16041 H 1494.49 0.038137 -4.84885 0
M  V30 16042 N 1495.84 1.56784 0.160173 0
M  V30 16043 C 1497.06 1.87129 0.894283 0
M  V30 16044 C 1497.49 0.701172 1.74543 0
M  V30 16045 O 1496.85 -0.349542 1.77899 0
M  V30 16046 C 1496.89 3.15969 1.73769 0
M  V30 16047 O 1496 2.98977 2.84054 0
M  V30 16048 H 1495.34 0.615192 0.249869 0
M  V30 16049 H 1497.87 2.04012 0.154956 0
M  V30 16050 H 1497.88 3.47657 2.13538 0
M  V30 16051 H 1496.55 4.00742 1.11258 0
M  V30 16052 H 1495.13 2.78668 2.47788 0
M  V30 16053 N 1497.32 -0.429099 1.51646 0
M  V30 16054 C 1498.28 -1.50398 1.72954 0
M  V30 16055 C 1499.28 -1.49207 0.599491 0
M  V30 16056 O 1500.47 -1.51084 0.867143 0
M  V30 16057 C 1497.6 -2.89903 1.79358 0
M  V30 16058 H 1498.79 -1.32805 2.68892 0
M  V30 16059 H 1496.35 -0.658313 1.4176 0
M  V30 16060 H 1497.08 -3.12891 0.852639 0
M  V30 16061 H 1496.87 -2.92171 2.61492 0
M  V30 16062 H 1498.36 -3.67862 1.97654 0
M  V30 16063 N 1498.79 -1.41931 -0.685074 0
M  V30 16064 C 1500.07 -1.32338 -1.44035 0
M  V30 16065 C 1500.45 0.0441161 -2.11054 0
M  V30 16066 O 1499.8 1.05901 -2.02478 0
M  V30 16067 C 1500.01 -2.48429 -2.45121 0
M  V30 16068 C 1501.36 -2.90076 -3.10067 0
M  V30 16069 O 1502.38 -2.48245 -2.55447 0
M  V30 16070 O 1501.24 -3.62445 -4.09019 0
M  V30 16071 H 1498.33 -0.521361 -0.641959 0
M  V30 16072 H 1500.88 -1.53918 -0.714666 0
M  V30 16073 H 1499.65 -3.39637 -1.94326 0
M  V30 16074 H 1499.27 -2.28781 -3.25184 0
M  V30 16075 N 1500.27 0.920374 -1.27933 0
M  V30 16076 C 1501.5 1.70804 -1.17647 0
M  V30 16077 C 1501.92 1.86264 0.262189 0
M  V30 16078 O 1501.28 1.36798 1.18979 0
M  V30 16079 C 1501.33 3.08142 -1.87298 0
M  V30 16080 O 1500.43 3.95279 -1.17593 0
M  V30 16081 H 1499.77 0.523267 -0.408763 0
M  V30 16082 H 1502.3 1.15127 -1.69136 0
M  V30 16083 H 1502.31 3.58414 -1.94945 0
M  V30 16084 H 1500.99 2.96208 -2.91948 0
M  V30 16085 H 1499.56 3.53716 -1.18065 0
M  V30 16086 N 1501.75 1.10074 1.1279 0
M  V30 16087 C 1503 0.839212 1.83852 0
M  V30 16088 C 1503.32 -0.637023 1.84301 0
M  V30 16089 O 1502.59 -1.46239 1.30349 0
M  V30 16090 H 1501.17 0.307468 0.680788 0
M  V30 16091 H 1503.83 1.39025 1.36595 0
M  V30 16092 H 1502.93 1.19872 2.88162 0
M  V30 16093 N 1503.23 -1.30138 0.888926 0
M  V30 16094 C 1504.46 -1.99853 0.523676 0
M  V30 16095 C 1504.87 -1.66783 -0.893312 0
M  V30 16096 O 1504.21 -0.903292 -1.59957 0
M  V30 16097 C 1504.27 -3.54055 0.623332 0
M  V30 16098 C 1503.93 -4.10652 2.00534 0
M  V30 16099 C 1504.93 -4.26353 2.97522 0
M  V30 16100 C 1502.62 -4.45938 2.3118 0
M  V30 16101 C 1504.61 -4.76557 4.23288 0
M  V30 16102 C 1502.3 -4.95841 3.57191 0
M  V30 16103 C 1503.3 -5.11103 4.53059 0
M  V30 16104 O 1502.98 -5.59927 5.76833 0
M  V30 16105 H 1502.72 -0.645553 0.200591 0
M  V30 16106 H 1505.27 -1.66899 1.19724 0
M  V30 16107 H 1503.5 -3.86551 -0.107221 0
M  V30 16108 H 1505.19 -4.05009 0.26879 0
M  V30 16109 H 1505.95 -3.9939 2.75159 0
M  V30 16110 H 1501.83 -4.33324 1.57326 0
M  V30 16111 H 1505.38 -4.88385 4.98123 0
M  V30 16112 H 1501.27 -5.22239 3.7939 0
M  V30 16113 H 1502.04 -5.78263 5.79271 0
M  V30 16114 N 1504.71 -0.650285 -1.43559 0
M  V30 16115 C 1505.95 -0.159832 -2.01066 0
M  V30 16116 C 1506.27 1.23246 -1.51887 0
M  V30 16117 O 1507.47 1.81797 -2.01648 0
M  V30 16118 C 1505.93 -0.23494 -3.59132 0
M  V30 16119 C 1505.54 -1.62975 -4.17305 0
M  V30 16120 C 1507.28 0.198061 -4.24038 0
M  V30 16121 C 1505.19 -1.65894 -5.67656 0
M  V30 16122 H 1504.12 -0.0559899 -0.751918 0
M  V30 16123 H 1506.77 -0.811891 -1.64562 0
M  V30 16124 H 1505.15 0.484573 -3.93024 0
M  V30 16125 H 1506.33 -2.37438 -3.94918 0
M  V30 16126 H 1504.64 -2.00847 -3.64759 0
M  V30 16127 H 1507.24 0.196054 -5.3434 0
M  V30 16128 H 1507.58 1.22896 -3.97747 0
M  V30 16129 H 1508.11 -0.469602 -3.95018 0
M  V30 16130 H 1504.85 -2.66883 -5.9871 0
M  V30 16131 H 1504.37 -0.957519 -5.92108 0
M  V30 16132 H 1506.05 -1.40137 -6.31641 0
M  V30 16133 N 1506.18 1.52647 -0.392018 0
M  V30 16134 C 1507.43 2.00798 0.19056 0
M  V30 16135 C 1507.75 1.28265 1.47673 0
M  V30 16136 O 1508.95 1.67142 2.13953 0
M  V30 16137 C 1507.41 3.57779 0.390148 0
M  V30 16138 C 1507.02 4.39213 -0.882933 0
M  V30 16139 C 1508.76 4.14211 0.928945 0
M  V30 16140 C 1506.67 5.87801 -0.651474 0
M  V30 16141 H 1505.6 0.750262 0.0749879 0
M  V30 16142 H 1508.25 1.7613 -0.514835 0
M  V30 16143 H 1506.63 3.78707 1.15746 0
M  V30 16144 H 1507.8 4.30051 -1.65507 0
M  V30 16145 H 1506.12 3.94015 -1.34688 0
M  V30 16146 H 1508.72 5.22884 1.11787 0
M  V30 16147 H 1509.06 3.70475 1.89878 0
M  V30 16148 H 1509.59 3.97185 0.221135 0
M  V30 16149 H 1506.33 6.35864 -1.59239 0
M  V30 16150 H 1505.85 5.99744 0.0816786 0
M  V30 16151 H 1507.53 6.46363 -0.287057 0
M  V30 16152 N 1507.66 0.121921 1.57128 0
M  V30 16153 C 1509.07 -0.402991 1.82299 0
M  V30 16154 C 1509.42 -1.66415 1.03925 0
M  V30 16155 O 1508.55 -2.14623 0.27674 0
M  V30 16156 C 1509.14 -0.737913 3.30666 0
M  V30 16157 C 1507.7 -1.20745 3.56508 0
M  V30 16158 C 1506.85 -0.217628 2.76445 0
M  V30 16159 H 1509.8 0.347009 1.5486 0
M  V30 16160 H 1509.82 -1.59505 3.45454 0
M  V30 16161 H 1509.33 0.180162 3.87682 0
M  V30 16162 H 1507.44 -2.14232 3.04853 0
M  V30 16163 H 1507.55 -1.15075 4.65075 0
M  V30 16164 H 1505.91 -0.705253 2.44741 0
M  V30 16165 H 1506.7 0.693596 3.3622 0
M  V30 16166 N 1509.14 -1.56867 -0.151857 0
M  V30 16167 C 1510.07 -2.00932 -1.18949 0
M  V30 16168 C 1511.05 -0.888062 -1.45077 0
M  V30 16169 O 1512.24 -1.15553 -1.56081 0
M  V30 16170 C 1509.37 -2.3858 -2.52383 0
M  V30 16171 C 1508.32 -3.53845 -2.40785 0
M  V30 16172 C 1507.65 -3.77292 -3.78886 0
M  V30 16173 C 1508.95 -4.8667 -1.89605 0
M  V30 16174 H 1510.64 -2.87863 -0.823107 0
M  V30 16175 H 1508.19 -1.38491 -0.394499 0
M  V30 16176 H 1510.14 -2.68006 -3.25193 0
M  V30 16177 H 1508.86 -1.48579 -2.90847 0
M  V30 16178 H 1507.52 -3.24577 -1.70427 0
M  V30 16179 H 1507.17 -2.84551 -4.14777 0
M  V30 16180 H 1506.87 -4.54861 -3.71989 0
M  V30 16181 H 1508.39 -4.09139 -4.53252 0
M  V30 16182 H 1509.81 -5.14846 -2.52204 0
M  V30 16183 H 1508.21 -5.6801 -1.93609 0
M  V30 16184 H 1509.28 -4.77366 -0.851438 0
M  V30 16185 N 1510.62 0.421051 -1.51871 0
M  V30 16186 C 1512.03 1.00033 -1.5764 0
M  V30 16187 C 1512.38 1.91875 -0.409665 0
M  V30 16188 O 1511.51 2.11201 0.471516 0
M  V30 16189 C 1512.1 1.82099 -2.85701 0
M  V30 16190 C 1510.66 2.35049 -2.93988 0
M  V30 16191 C 1509.81 1.14703 -2.52465 0
M  V30 16192 H 1512.76 0.201715 -1.57413 0
M  V30 16193 H 1512.78 2.67719 -2.70382 0
M  V30 16194 H 1512.29 1.15229 -3.706 0
M  V30 16195 H 1510.39 3.05327 -2.13556 0
M  V30 16196 H 1510.5 2.66731 -3.97984 0
M  V30 16197 H 1508.87 1.49736 -2.06037 0
M  V30 16198 H 1509.65 0.494171 -3.39725 0
M  V30 16199 N 1512.1 1.42293 0.677538 0
M  V30 16200 C 1513.37 1.331 1.43331 0
M  V30 16201 C 1513.75 -0.0329227 2.11074 0
M  V30 16202 O 1513.1 -1.04826 2.03036 0
M  V30 16203 C 1513.31 2.49725 2.438 0
M  V30 16204 C 1514.66 2.91716 3.08524 0
M  V30 16205 O 1515.68 2.49596 2.54127 0
M  V30 16206 O 1514.54 3.64609 4.07091 0
M  V30 16207 H 1511.64 0.524758 0.639185 0
M  V30 16208 H 1514.18 1.54294 0.706493 0
M  V30 16209 H 1512.95 3.40663 1.92522 0
M  V30 16210 H 1512.58 2.30503 3.23966 0
M  V30 16211 N 1513.57 -0.913576 1.28419 0
M  V30 16212 C 1514.82 -1.65731 1.14961 0
M  V30 16213 C 1515.14 -1.93269 -0.301079 0
M  V30 16214 O 1516.34 -2.6573 -0.556778 0
M  V30 16215 C 1514.8 -2.98562 2.00969 0
M  V30 16216 C 1514.41 -2.78671 3.5078 0
M  V30 16217 C 1516.15 -3.76439 1.96198 0
M  V30 16218 C 1514.06 -4.07144 4.28938 0
M  V30 16219 H 1512.99 -0.621681 0.426648 0
M  V30 16220 H 1515.64 -1.0138 1.52952 0
M  V30 16221 H 1514.02 -3.64049 1.55835 0
M  V30 16222 H 1515.19 -2.21864 4.03873 0
M  V30 16223 H 1513.51 -2.14206 3.57078 0
M  V30 16224 H 1516.11 -4.71668 2.51861 0
M  V30 16225 H 1516.45 -4.05577 0.938771 0
M  V30 16226 H 1516.98 -3.17772 2.39303 0
M  V30 16227 H 1513.72 -3.83178 5.31841 0
M  V30 16228 H 1513.24 -4.63562 3.80619 0
M  V30 16229 H 1514.92 -4.754 4.38866 0
M  V30 16230 N 1515.05 -1.1067 -1.12204 0
M  V30 16231 C 1516.33 -0.762632 -1.8012 0
M  V30 16232 C 1516.71 0.750529 -1.97308 0
M  V30 16233 O 1516.06 1.67764 -1.55137 0
M  V30 16234 C 1516.27 -1.51651 -3.14329 0
M  V30 16235 C 1517.62 -1.69061 -3.89491 0
M  V30 16236 O 1518.64 -1.48009 -3.23994 0
M  V30 16237 O 1517.5 -2.03984 -5.07004 0
M  V30 16238 H 1514.59 -0.275417 -0.779791 0
M  V30 16239 H 1517.14 -1.20966 -1.19018 0
M  V30 16240 H 1515.91 -2.54622 -2.97125 0
M  V30 16241 H 1515.53 -1.0625 -3.83141 0
M  V30 16242 N 1516.53 1.29665 -0.895815 0
M  V30 16243 C 1517.94 1.77825 -0.568784 0
M  V30 16244 C 1518.29 1.73534 0.915443 0
M  V30 16245 O 1517.42 1.31885 1.71567 0
M  V30 16246 C 1518.01 3.22901 -1.0257 0
M  V30 16247 C 1516.57 3.68854 -0.749903 0
M  V30 16248 C 1515.72 2.49866 -1.20259 0
M  V30 16249 H 1518.67 1.16381 -1.07894 0
M  V30 16250 H 1518.69 3.788 -0.359312 0
M  V30 16251 H 1518.2 3.25991 -2.10597 0
M  V30 16252 H 1516.3 3.71241 0.317916 0
M  V30 16253 H 1516.42 4.59831 -1.34506 0
M  V30 16254 H 1514.78 2.46997 -0.621676 0
M  V30 16255 H 1515.56 2.55687 -2.29083 0
M  V30 16256 N 1518.01 0.657889 1.43212 0
M  V30 16257 C 1519.25 0.173443 2.02057 0
M  V30 16258 C 1519.59 -1.21108 1.51811 0
M  V30 16259 O 1518.86 -1.80953 0.71317 0
M  V30 16260 C 1519.15 0.189429 3.59601 0
M  V30 16261 C 1519 1.6082 4.20068 0
M  V30 16262 C 1520.32 -0.471633 4.37566 0
M  V30 16263 H 1517.44 0.0644999 0.734172 0
M  V30 16264 H 1520.08 0.839462 1.7045 0
M  V30 16265 H 1518.23 -0.377689 3.8666 0
M  V30 16266 H 1519.9 2.22627 4.04024 0
M  V30 16267 H 1518.14 2.15407 3.7654 0
M  V30 16268 H 1518.81 1.5712 5.29167 0
M  V30 16269 H 1521.29 0.0109387 4.16099 0
M  V30 16270 H 1520.17 -0.429739 5.47215 0
M  V30 16271 H 1520.43 -1.54652 4.14168 0
M  V30 16272 N 1519.49 -1.52437 0.400108 0
M  V30 16273 C 1520.9 -1.86563 -0.0715162 0
M  V30 16274 C 1521.25 -1.3193 -1.4522 0
M  V30 16275 O 1520.37 -0.654955 -2.06251 0
M  V30 16276 C 1520.97 -3.38525 -0.13655 0
M  V30 16277 C 1519.53 -3.72323 -0.55249 0
M  V30 16278 C 1518.67 -2.75896 0.278729 0
M  V30 16279 H 1521.63 -1.46192 0.617547 0
M  V30 16280 H 1521.65 -3.68357 -0.953588 0
M  V30 16281 H 1521.16 -3.78258 0.868468 0
M  V30 16282 H 1519.26 -3.38164 -1.56448 0
M  V30 16283 H 1519.37 -4.7814 -0.303139 0
M  V30 16284 H 1517.74 -2.53394 -0.257608 0
M  V30 16285 H 1518.52 -3.18467 1.28193 0
M  V30 16286 N 1520.96 -0.130252 -1.57061 0
M  V30 16287 C 1521.87 0.829198 -2.19457 0
M  V30 16288 C 1522.89 1.2843 -1.17395 0
M  V30 16289 O 1524.07 1.34496 -1.49909 0
M  V30 16290 C 1521.13 2.05727 -2.79065 0
M  V30 16291 C 1520.19 1.65301 -3.962 0
M  V30 16292 C 1519.43 2.82253 -4.52956 0
M  V30 16293 O 1519.65 3.97999 -4.08598 0
M  V30 16294 O 1518.58 2.5869 -5.43473 0
M  V30 16295 H 1522.41 0.328139 -3.01922 0
M  V30 16296 H 1519.99 0.0959361 -1.49092 0
M  V30 16297 H 1521.88 2.7763 -3.17017 0
M  V30 16298 H 1520.55 2.54817 -1.99624 0
M  V30 16299 H 1519.46 0.904712 -3.62996 0
M  V30 16300 H 1520.79 1.20942 -4.7711 0
M  V30 16301 N 1522.44 1.56945 0.143535 0
M  V30 16302 C 1523.35 2.01795 1.1965 0
M  V30 16303 C 1524.37 0.933965 1.4681 0
M  V30 16304 O 1525.55 1.2437 1.58411 0
M  V30 16305 C 1522.61 2.39249 2.5092 0
M  V30 16306 C 1521.67 3.61613 2.31376 0
M  V30 16307 C 1520.9 3.97271 3.56386 0
M  V30 16308 O 1521.13 3.33552 4.62709 0
M  V30 16309 O 1520.06 4.90501 3.48844 0
M  V30 16310 H 1523.89 2.91687 0.845718 0
M  V30 16311 H 1521.47 1.45182 0.352518 0
M  V30 16312 H 1523.35 2.64184 3.28306 0
M  V30 16313 H 1522.03 1.52511 2.85521 0
M  V30 16314 H 1520.94 3.4186 1.51929 0
M  V30 16315 H 1522.27 4.48979 2.01689 0
M  V30 16316 N 1523.92 -0.412991 1.52093 0
M  V30 16317 C 1524.83 -1.52768 1.78042 0
M  V30 16318 C 1525.85 -1.60758 0.665791 0
M  V30 16319 O 1527.02 -1.77545 0.950772 0
M  V30 16320 C 1524.09 -2.8854 1.92213 0
M  V30 16321 C 1523.15 -2.90468 3.16112 0
M  V30 16322 C 1522.38 -4.19763 3.29598 0
M  V30 16323 O 1522.61 -5.13454 2.48438 0
M  V30 16324 O 1521.54 -4.2847 4.22726 0
M  V30 16325 H 1525.37 -1.33777 2.72649 0
M  V30 16326 H 1522.95 -0.598461 1.3689 0
M  V30 16327 H 1524.83 -3.69073 2.03379 0
M  V30 16328 H 1523.51 -3.07607 1.00795 0
M  V30 16329 H 1522.41 -2.08801 3.10408 0
M  V30 16330 H 1523.75 -2.76349 4.07298 0
M  V30 16331 N 1525.4 -1.4265 -0.669982 0
M  V30 16332 C 1526.68 -1.33858 -1.42623 0
M  V30 16333 C 1527.06 0.0217285 -2.11089 0
M  V30 16334 O 1526.4 1.03748 -2.03589 0
M  V30 16335 C 1526.61 -2.51015 -2.42472 0
M  V30 16336 C 1527.96 -2.93348 -3.06972 0
M  V30 16337 O 1528.99 -2.5094 -2.52799 0
M  V30 16338 O 1527.85 -3.66762 -4.05151 0
M  V30 16339 H 1524.94 -0.528141 -0.636393 0
M  V30 16340 H 1527.49 -1.54667 -0.6983 0
M  V30 16341 H 1526.26 -3.41679 -1.90713 0
M  V30 16342 H 1525.88 -2.32218 -3.2274 0
M  V30 16343 N 1526.88 0.906753 -1.28902 0
M  V30 16344 C 1527.81 2.02663 -1.15974 0
M  V30 16345 C 1528.79 1.70009 -0.0557202 0
M  V30 16346 O 1529.97 1.92786 -0.233952 0
M  V30 16347 C 1527.1 3.37283 -0.828115 0
M  V30 16348 C 1526.06 3.84123 -1.88767 0
M  V30 16349 C 1525.38 5.15787 -1.40953 0
M  V30 16350 C 1526.68 4.05217 -3.2954 0
M  V30 16351 H 1528.38 2.13738 -2.09658 0
M  V30 16352 H 1525.92 1.02699 -1.0094 0
M  V30 16353 H 1527.88 4.15127 -0.724408 0
M  V30 16354 H 1526.6 3.2628 0.14443 0
M  V30 16355 H 1525.26 3.0849 -1.98065 0
M  V30 16356 H 1524.91 5.01194 -0.425848 0
M  V30 16357 H 1524.61 5.48098 -2.11807 0
M  V30 16358 H 1526.13 5.9618 -1.31918 0
M  V30 16359 H 1527.55 4.73565 -3.23124 0
M  V30 16360 H 1525.94 4.48871 -3.9829 0
M  V30 16361 H 1527.01 3.0979 -3.73039 0
M  V30 16362 N 1528.36 1.11264 1.11616 0
M  V30 16363 C 1529.6 0.858664 1.82952 0
M  V30 16364 C 1529.92 -0.617439 1.84967 0
M  V30 16365 O 1529.19 -1.44849 1.31893 0
M  V30 16366 H 1527.77 0.314671 0.677489 0
M  V30 16367 H 1530.44 1.40466 1.35113 0
M  V30 16368 H 1529.53 1.22921 2.86874 0
M  V30 16369 N 1529.83 -1.29188 0.902679 0
M  V30 16370 C 1530.78 -2.27632 0.381088 0
M  V30 16371 C 1531.75 -1.57131 -0.538431 0
M  V30 16372 O 1532.94 -1.85096 -0.463027 0
M  V30 16373 C 1530.08 -3.42971 -0.382701 0
M  V30 16374 C 1529.19 -4.28249 0.568054 0
M  V30 16375 C 1528.32 -5.30772 -0.213082 0
M  V30 16376 C 1527.36 -6.07707 0.732004 0
M  V30 16377 N 1526.5 -7.02098 -0.0149139 0
M  V30 16378 H 1531.34 -2.71628 1.22566 0
M  V30 16379 H 1528.88 -1.33594 0.615724 0
M  V30 16380 H 1530.83 -4.08623 -0.841619 0
M  V30 16381 H 1529.46 -2.99997 -1.19171 0
M  V30 16382 H 1528.52 -3.62743 1.14549 0
M  V30 16383 H 1529.83 -4.81794 1.29136 0
M  V30 16384 H 1528.98 -6.02255 -0.733065 0
M  V30 16385 H 1527.72 -4.77966 -0.969504 0
M  V30 16386 H 1526.73 -5.35086 1.26346 0
M  V30 16387 H 1527.95 -6.62602 1.4878 0
M  V30 16388 H 1525.9 -6.51658 -0.753548 0
M  V30 16389 H 1525.81 -7.53214 0.648423 0
M  V30 16390 H 1527.08 -7.77796 -0.515062 0
M  V30 16391 N 1531.31 -0.665475 -1.42861 0
M  V30 16392 C 1532.73 -0.334157 -1.56063 0
M  V30 16393 C 1532.93 1.16104 -1.64688 0
M  V30 16394 O 1531.98 1.94622 -1.60867 0
M  V30 16395 C 1533.3 -1.05628 -2.81537 0
M  V30 16396 C 1534.84 -1.03771 -2.95297 0
M  V30 16397 C 1535.32 -1.74098 -4.2362 0
M  V30 16398 N 1536.81 -1.7092 -4.30512 0
M  V30 16399 C 1537.55 -2.222 -5.28597 0
M  V30 16400 N 1537.04 -2.81821 -6.32889 0
M  V30 16401 N 1538.83 -2.12628 -5.20332 0
M  V30 16402 H 1530.99 -1.6356 -1.35506 0
M  V30 16403 H 1533.25 -0.688538 -0.651628 0
M  V30 16404 H 1532.95 -2.11141 -2.81269 0
M  V30 16405 H 1532.83 -0.615586 -3.72143 0
M  V30 16406 H 1535.22 0.00905324 -2.95099 0
M  V30 16407 H 1535.3 -1.51721 -2.05948 0
M  V30 16408 H 1534.94 -2.78737 -4.2458 0
M  V30 16409 H 1534.87 -1.23604 -5.11888 0
M  V30 16410 H 1537.36 -1.27425 -3.55769 0
M  V30 16411 H 1537.67 -3.18594 -7.04072 0
M  V30 16412 H 1536.02 -2.85887 -6.33478 0
M  V30 16413 H 1539.21 -1.65746 -4.37774 0
M  V30 16414 H 1539.38 -2.52899 -5.96612 0
M  V30 16415 N 1532.79 1.52222 -0.408187 0
M  V30 16416 C 1533.74 2.28544 0.432458 0
M  V30 16417 C 1534.73 1.33198 1.04665 0
M  V30 16418 O 1535.94 1.50661 0.984954 0
M  V30 16419 H 1532.31 0.735162 0.158241 0
M  V30 16420 H 1534.28 2.97493 -0.232482 0
M  V30 16421 C 1533.03 3.11864 1.53741 0
M  V30 16422 H 1532.36 3.851 1.07414 0
M  V30 16423 H 1533.8 3.68374 2.09945 0
M  V30 16424 C 1532.25 2.25367 2.50423 0
M  V30 16425 O 1532.78 1.89329 3.54285 0
M  V30 16426 N 1530.99 1.89155 2.2061 0
M  V30 16427 H 1530.54 2.18661 1.36181 0
M  V30 16428 H 1530.5 1.31574 2.85544 0
M  V30 16429 N 1534.27 0.138579 1.5699 0
M  V30 16430 C 1535.68 -0.217898 1.58106 0
M  V30 16431 C 1535.88 -1.65293 1.15241 0
M  V30 16432 O 1534.94 -2.37805 0.848815 0
M  V30 16433 C 1536.25 0.033211 3.00682 0
M  V30 16434 C 1537.8 -0.0311593 3.12984 0
M  V30 16435 C 1538.28 0.192508 4.57595 0
M  V30 16436 N 1539.77 0.139147 4.62991 0
M  V30 16437 C 1540.5 0.286837 5.72682 0
M  V30 16438 N 1540 0.491784 6.91052 0
M  V30 16439 N 1541.79 0.225032 5.61649 0
M  V30 16440 H 1533.94 1.07567 1.83148 0
M  V30 16441 H 1536.2 0.425143 0.847324 0
M  V30 16442 H 1535.91 1.02605 3.364 0
M  V30 16443 H 1535.78 -0.689972 3.70836 0
M  V30 16444 H 1538.17 -1.01454 2.77112 0
M  V30 16445 H 1538.25 0.724219 2.45334 0
M  V30 16446 H 1537.9 1.17295 4.9417 0
M  V30 16447 H 1537.83 -0.583092 5.23362 0
M  V30 16448 H 1540.32 -0.0149467 3.77897 0
M  V30 16449 H 1540.63 0.594813 7.70508 0
M  V30 16450 H 1538.98 0.528002 6.92991 0
M  V30 16451 H 1542.17 0.0657415 4.68054 0
M  V30 16452 H 1542.34 0.343569 6.47089 0
M  V30 16453 N 1535.75 -1.57019 -0.13521 0
M  V30 16454 C 1536.7 -1.95569 -1.17203 0
M  V30 16455 C 1537.68 -0.828483 -1.37931 0
M  V30 16456 O 1538.87 -1.09205 -1.39295 0
M  V30 16457 C 1536 -2.34984 -2.50275 0
M  V30 16458 C 1535.09 -3.54302 -2.3309 0
M  V30 16459 N 1535.48 -4.70484 -1.85684 0
M  V30 16460 C 1533.78 -3.59617 -2.63802 0
M  V30 16461 C 1534.48 -5.52553 -1.81823 0
M  V30 16462 N 1533.45 -4.94589 -2.25572 0
M  V30 16463 H 1537.25 -2.82865 -0.79779 0
M  V30 16464 H 1534.77 -1.58733 -0.343142 0
M  V30 16465 H 1536.77 -2.60812 -3.25243 0
M  V30 16466 H 1535.43 -1.49045 -2.88471 0
M  V30 16467 H 1536.44 -4.94013 -1.55472 0
M  V30 16468 H 1533.11 -2.84247 -3.05794 0
M  V30 16469 H 1534.5 -6.5572 -1.46562 0
M  V30 16470 N 1537.22 0.404919 -1.52309 0
M  V30 16471 C 1538.45 1.17764 -1.70723 0
M  V30 16472 C 1538.87 1.83403 -0.417744 0
M  V30 16473 O 1538.23 1.70181 0.625157 0
M  V30 16474 C 1538.28 2.2133 -2.84685 0
M  V30 16475 O 1537.38 3.27566 -2.50548 0
M  V30 16476 H 1536.73 0.343572 -0.568203 0
M  V30 16477 H 1539.26 0.474093 -1.99031 0
M  V30 16478 H 1539.27 2.6559 -3.09719 0
M  V30 16479 H 1537.94 1.72939 -3.78239 0
M  V30 16480 H 1536.52 2.88556 -2.36199 0
M  V30 16481 N 1538.7 1.43003 0.662408 0
M  V30 16482 C 1539.93 1.47766 1.45533 0
M  V30 16483 C 1540.35 0.0940298 1.87865 0
M  V30 16484 O 1539.71 -0.910252 1.56793 0
M  V30 16485 C 1539.76 2.42084 2.6726 0
M  V30 16486 O 1538.86 1.90076 3.65985 0
M  V30 16487 H 1538.2 0.500167 0.436725 0
M  V30 16488 H 1540.73 1.87823 0.811399 0
M  V30 16489 H 1540.74 2.5908 3.15185 0
M  V30 16490 H 1539.42 3.42601 2.3579 0
M  V30 16491 H 1538 1.82695 3.2508 0
M  V30 16492 N 1540.18 -0.899904 1.29381 0
M  V30 16493 C 1541.11 -2.00914 1.103 0
M  V30 16494 C 1542.13 -1.62721 0.050568 0
M  V30 16495 O 1543.31 -1.76044 0.295068 0
M  V30 16496 C 1540.41 -3.32473 0.656896 0
M  V30 16497 C 1539.59 -3.99195 1.7878 0
M  V30 16498 C 1538.65 -5.09043 1.33274 0
M  V30 16499 O 1537.67 -5.31486 2.03742 0
M  V30 16500 N 1538.87 -5.80143 0.203519 0
M  V30 16501 H 1541.64 -2.17838 2.05832 0
M  V30 16502 H 1539.2 -1.07208 1.21318 0
M  V30 16503 H 1541.19 -4.03305 0.335783 0
M  V30 16504 H 1539.76 -3.11921 -0.205959 0
M  V30 16505 H 1538.98 -3.21729 2.2778 0
M  V30 16506 H 1540.27 -4.40515 2.54606 0
M  V30 16507 H 1539.67 -5.64395 -0.384005 0
M  V30 16508 H 1538.23 -6.51774 -0.0582282 0
M  V30 16509 N 1541.66 -1.11854 -1.11024 0
M  V30 16510 C 1542.89 -0.892714 -1.8665 0
M  V30 16511 C 1543.3 0.557721 -1.80374 0
M  V30 16512 O 1542.66 1.3853 -1.1881 0
M  V30 16513 C 1542.71 -1.35135 -3.35292 0
M  V30 16514 O 1542.43 -2.74493 -3.41446 0
M  V30 16515 C 1543.93 -1.16157 -4.27811 0
M  V30 16516 H 1541.15 -0.319409 -0.590101 0
M  V30 16517 H 1543.7 -1.48697 -1.40391 0
M  V30 16518 H 1541.85 -0.80046 -3.7904 0
M  V30 16519 H 1542.26 -2.94474 -4.34034 0
M  V30 16520 H 1543.74 -1.53144 -5.30331 0
M  V30 16521 H 1544.22 -0.101546 -4.39083 0
M  V30 16522 H 1544.82 -1.69966 -3.89861 0
M  V30 16523 N 1543.14 1.28707 -0.909517 0
M  V30 16524 C 1544.36 1.99821 -0.555557 0
M  V30 16525 C 1544.79 1.67549 0.854931 0
M  V30 16526 O 1544.14 0.905521 1.57067 0
M  V30 16527 C 1544.19 3.52361 -0.766438 0
M  V30 16528 O 1543.3 4.12022 0.17654 0
M  V30 16529 H 1542.64 0.627918 -0.215905 0
M  V30 16530 H 1545.17 1.63965 -1.2238 0
M  V30 16531 H 1545.18 4.02379 -0.674894 0
M  V30 16532 H 1543.85 3.75184 -1.7947 0
M  V30 16533 H 1542.43 3.72882 0.0366216 0
M  V30 16534 N 1544.61 0.673042 1.42506 0
M  V30 16535 C 1545.52 -0.00648572 2.34599 0
M  V30 16536 C 1546.54 -0.790758 1.54994 0
M  V30 16537 O 1547.72 -0.733482 1.87569 0
M  V30 16538 C 1544.78 -0.94734 3.33506 0
M  V30 16539 C 1543.84 -0.157795 4.2901 0
M  V30 16540 C 1543.08 -1.05384 5.23192 0
M  V30 16541 O 1543.3 -2.29334 5.22266 0
M  V30 16542 O 1542.23 -0.515584 5.99688 0
M  V30 16543 H 1546.06 0.752059 2.94241 0
M  V30 16544 H 1543.64 0.433272 1.42979 0
M  V30 16545 H 1545.53 -1.4875 3.94273 0
M  V30 16546 H 1544.2 -1.68577 2.7634 0
M  V30 16547 H 1543.11 0.426426 3.71662 0
M  V30 16548 H 1544.44 0.54148 4.89212 0
M  V30 16549 N 1546.09 -1.52004 0.416254 0
M  V30 16550 C 1547 -2.30947 -0.412403 0
M  V30 16551 C 1548.02 -1.38969 -1.04707 0
M  V30 16552 O 1549.19 -1.72044 -1.04703 0
M  V30 16553 C 1546.26 -3.12078 -1.51024 0
M  V30 16554 C 1545.32 -4.19805 -0.897892 0
M  V30 16555 C 1544.55 -4.97059 -1.94341 0
M  V30 16556 O 1544.78 -4.74695 -3.16261 0
M  V30 16557 O 1543.71 -5.81715 -1.54567 0
M  V30 16558 H 1547.54 -3.02817 0.231473 0
M  V30 16559 H 1545.12 -1.4832 0.179283 0
M  V30 16560 H 1547 -3.6258 -2.14741 0
M  V30 16561 H 1545.68 -2.42995 -2.13858 0
M  V30 16562 H 1544.59 -3.73433 -0.223236 0
M  V30 16563 H 1545.92 -4.91201 -0.31336 0
M  V30 16564 N 1547.57 -0.146903 -1.56914 0
M  V30 16565 C 1548.8 0.514426 -2.00919 0
M  V30 16566 C 1549.22 1.57632 -1.02634 0
M  V30 16567 O 1548.58 1.813 -0.00207478 0
M  V30 16568 C 1548.63 1.09197 -3.43669 0
M  V30 16569 O 1547.73 2.20684 -3.48385 0
M  V30 16570 H 1547.07 0.125827 -0.651969 0
M  V30 16571 H 1549.6 -0.243607 -2.03145 0
M  V30 16572 H 1549.61 1.42066 -3.82467 0
M  V30 16573 H 1548.29 0.314336 -4.1471 0
M  V30 16574 H 1546.86 1.89045 -3.21429 0
M  V30 16575 N 1549.05 1.57088 0.126881 0
M  V30 16576 C 1550.01 1.98836 1.14003 0
M  V30 16577 C 1551.01 0.877454 1.34749 0
M  V30 16578 O 1552.2 1.14366 1.314 0
M  V30 16579 C 1549.33 2.32171 2.49618 0
M  V30 16580 H 1550.53 2.89541 0.7814 0
M  V30 16581 H 1548.08 1.51835 0.370915 0
M  V30 16582 H 1548.81 1.44321 2.90417 0
M  V30 16583 H 1548.6 3.13187 2.35916 0
M  V30 16584 H 1550.09 2.65238 3.2255 0
M  V30 16585 N 1550.53 -0.396836 1.52522 0
M  V30 16586 C 1551.78 -1.13978 1.66409 0
M  V30 16587 C 1552.09 -1.91333 0.406326 0
M  V30 16588 O 1553.29 -2.6815 0.425195 0
M  V30 16589 C 1551.75 -2.07512 2.94052 0
M  V30 16590 C 1551.36 -1.35616 4.2698 0
M  V30 16591 C 1553.1 -2.8199 3.17304 0
M  V30 16592 C 1551.01 -2.2787 5.45737 0
M  V30 16593 H 1549.94 -0.429181 0.619935 0
M  V30 16594 H 1552.59 -0.403207 1.79015 0
M  V30 16595 H 1550.97 -2.84773 2.75174 0
M  V30 16596 H 1552.15 -0.636349 4.56385 0
M  V30 16597 H 1550.46 -0.731297 4.09928 0
M  V30 16598 H 1553.06 -3.5118 4.03208 0
M  V30 16599 H 1553.4 -3.45629 2.32048 0
M  V30 16600 H 1553.93 -2.11824 3.36712 0
M  V30 16601 H 1550.67 -1.68858 6.33378 0
M  V30 16602 H 1550.19 -2.97789 5.20655 0
M  V30 16603 H 1551.87 -2.88126 5.79303 0
M  V30 16604 N 1552.01 -1.43353 -0.654814 0
M  V30 16605 C 1552.92 -1.50831 -1.79687 0
M  V30 16606 C 1553.93 -0.395518 -1.69445 0
M  V30 16607 O 1555.11 -0.649408 -1.90643 0
M  V30 16608 C 1552.17 -1.42735 -3.15955 0
M  V30 16609 C 1551.23 -2.64671 -3.38005 0
M  V30 16610 C 1550.47 -2.56952 -4.67773 0
M  V30 16611 O 1550.69 -1.61638 -5.47019 0
M  V30 16612 O 1549.62 -3.47425 -4.91507 0
M  V30 16613 H 1553.45 -2.47266 -1.76333 0
M  V30 16614 H 1551.03 -1.25336 -0.813095 0
M  V30 16615 H 1552.92 -1.40656 -3.97233 0
M  V30 16616 H 1551.59 -0.494334 -3.19903 0
M  V30 16617 H 1550.5 -2.72323 -2.56498 0
M  V30 16618 H 1551.83 -3.5694 -3.38903 0
M  V30 16619 N 1553.48 0.89303 -1.29857 0
M  V30 16620 C 1554.71 1.67744 -1.21119 0
M  V30 16621 C 1555.13 1.87428 0.227198 0
M  V30 16622 O 1554.48 1.41605 1.15128 0
M  V30 16623 C 1554.53 3.05827 -1.92749 0
M  V30 16624 O 1554.26 2.87036 -3.30971 0
M  V30 16625 C 1555.76 4.00248 -1.9057 0
M  V30 16626 H 1552.98 0.523699 -0.4195 0
M  V30 16627 H 1555.52 1.1163 -1.71344 0
M  V30 16628 H 1553.68 3.58696 -1.46342 0
M  V30 16629 H 1554.09 3.74578 -3.6714 0
M  V30 16630 H 1555.56 4.9453 -2.45242 0
M  V30 16631 H 1556.04 4.30237 -0.882753 0
M  V30 16632 H 1556.65 3.53312 -2.36751 0
M  V30 16633 N 1554.96 1.12442 1.10429 0
M  V30 16634 C 1556.21 0.878021 1.82031 0
M  V30 16635 C 1556.53 -0.597787 1.85611 0
M  V30 16636 O 1555.8 -1.43442 1.33422 0
M  V30 16637 H 1554.38 0.321839 0.674113 0
M  V30 16638 H 1557.04 1.41891 1.33615 0
M  V30 16639 H 1556.14 1.25957 2.85554 0
M  V30 16640 N 1556.44 -1.28223 0.91633 0
M  V30 16641 C 1557.66 -1.99523 0.566147 0
M  V30 16642 C 1558.09 -1.68 -0.846034 0
M  V30 16643 O 1557.45 -0.913838 -1.56584 0
M  V30 16644 C 1557.5 -3.51949 0.785114 0
M  V30 16645 O 1556.6 -4.1211 -0.154686 0
M  V30 16646 H 1555.94 -0.626764 0.219232 0
M  V30 16647 H 1558.47 -1.63313 1.23247 0
M  V30 16648 H 1558.48 -4.02016 0.696224 0
M  V30 16649 H 1557.16 -3.74227 1.81457 0
M  V30 16650 H 1555.73 -3.72896 -0.0168463 0
M  V30 16651 N 1557.92 -0.68059 -1.42147 0
M  V30 16652 C 1559.14 -0.212293 -2.06311 0
M  V30 16653 C 1559.57 1.12402 -1.50822 0
M  V30 16654 O 1558.93 1.70037 -0.629051 0
M  V30 16655 C 1558.97 -0.164156 -3.60226 0
M  V30 16656 O 1558.08 0.865582 -4.03214 0
M  V30 16657 H 1557.42 -0.107451 -0.655248 0
M  V30 16658 H 1559.95 -0.931233 -1.82179 0
M  V30 16659 H 1559.96 0.0100422 -4.07999 0
M  V30 16660 H 1558.63 -1.13952 -3.99985 0
M  V30 16661 H 1557.21 0.661955 -3.66978 0
M  V30 16662 N 1559.4 1.51781 -0.424309 0
M  V30 16663 C 1560.62 2.06871 0.147968 0
M  V30 16664 C 1561.05 1.29093 1.36808 0
M  V30 16665 O 1560.4 0.325279 1.78358 0
M  V30 16666 C 1560.45 3.57631 0.461757 0
M  V30 16667 O 1559.56 3.82149 1.55035 0
M  V30 16668 H 1558.9 0.663957 0.00757275 0
M  V30 16669 H 1561.43 1.95547 -0.601888 0
M  V30 16670 H 1561.44 4.01668 0.716005 0
M  V30 16671 H 1560.11 4.1367 -0.430081 0
M  V30 16672 H 1558.69 3.49984 1.28709 0
M  V30 16673 N 1560.87 0.155222 1.56834 0
M  V30 16674 C 1562.1 -0.503763 2.01189 0
M  V30 16675 C 1562.52 -1.57086 1.03468 0
M  V30 16676 O 1561.88 -1.81296 0.0116895 0
M  V30 16677 C 1561.93 -1.07373 3.44243 0
M  V30 16678 O 1561.03 -2.18834 3.49551 0
M  V30 16679 H 1560.37 -0.122368 0.652627 0
M  V30 16680 H 1562.9 0.254377 2.03013 0
M  V30 16681 H 1562.91 -1.40036 3.83215 0
M  V30 16682 H 1561.59 -0.292339 4.14871 0
M  V30 16683 H 1560.17 -1.87337 3.22427 0
M  V30 16684 N 1562.35 -1.57153 -0.118549 0
M  V30 16685 C 1563.58 -1.89062 -0.840429 0
M  V30 16686 C 1563.99 -0.746516 -1.73414 0
M  V30 16687 O 1563.35 0.282638 -1.80298 0
M  V30 16688 C 1563.4 -3.20433 -1.67347 0
M  V30 16689 O 1563.12 -4.30439 -0.815739 0
M  V30 16690 C 1564.62 -3.66048 -2.50047 0
M  V30 16691 H 1561.84 -0.626005 -0.241575 0
M  V30 16692 H 1564.39 -2.04241 -0.102804 0
M  V30 16693 H 1562.54 -3.06922 -2.36385 0
M  V30 16694 H 1562.96 -5.05736 -1.39037 0
M  V30 16695 H 1564.43 -4.60729 -3.04028 0
M  V30 16696 H 1564.91 -2.92727 -3.27426 0
M  V30 16697 H 1565.51 -3.82349 -1.86251 0
M  V30 16698 N 1563.83 0.388742 -1.5273 0
M  V30 16699 C 1565.08 1.13375 -1.67787 0
M  V30 16700 C 1565.4 1.89957 -0.417925 0
M  V30 16701 O 1564.66 1.86286 0.599682 0
M  V30 16702 C 1564.96 2.13792 -2.86405 0
M  V30 16703 C 1564.62 1.53865 -4.23835 0
M  V30 16704 C 1563.29 1.37248 -4.61212 0
M  V30 16705 C 1565.64 1.10298 -5.09395 0
M  V30 16706 C 1562.97 0.756119 -5.81807 0
M  V30 16707 C 1565.32 0.500723 -6.30615 0
M  V30 16708 C 1563.98 0.321851 -6.66724 0
M  V30 16709 H 1563.25 0.414868 -0.613975 0
M  V30 16710 H 1565.9 0.418351 -1.86874 0
M  V30 16711 H 1564.2 2.91551 -2.61735 0
M  V30 16712 H 1565.9 2.71346 -2.95249 0
M  V30 16713 H 1562.49 1.67787 -3.94393 0
M  V30 16714 H 1566.68 1.21938 -4.81087 0
M  V30 16715 H 1561.93 0.605734 -6.08392 0
M  V30 16716 H 1566.11 0.154839 -6.96228 0
M  V30 16717 H 1563.73 -0.157836 -7.60036 0
M  V30 16718 N 1565.31 1.43698 0.647203 0
M  V30 16719 C 1566.56 1.44918 1.40292 0
M  V30 16720 C 1566.87 0.0794243 1.95439 0
M  V30 16721 O 1568.08 -0.0309052 2.71482 0
M  V30 16722 C 1566.53 2.55052 2.53923 0
M  V30 16723 C 1566.14 3.98161 2.05357 0
M  V30 16724 C 1567.88 2.65473 3.31246 0
M  V30 16725 C 1565.79 4.99749 3.16235 0
M  V30 16726 H 1564.72 0.539106 0.527144 0
M  V30 16727 H 1567.37 1.69708 0.697951 0
M  V30 16728 H 1565.75 2.23473 3.26919 0
M  V30 16729 H 1566.93 4.3923 1.39333 0
M  V30 16730 H 1565.24 3.91839 1.40896 0
M  V30 16731 H 1567.84 3.38546 4.13873 0
M  V30 16732 H 1568.18 1.70745 3.79673 0
M  V30 16733 H 1568.72 2.96383 2.65334 0
M  V30 16734 H 1565.45 5.96051 2.7277 0
M  V30 16735 H 1564.97 4.63288 3.80952 0
M  V30 16736 H 1566.65 5.22725 3.81271 0
M  V30 16737 N 1566.79 -0.886131 1.30328 0
M  V30 16738 C 1567.73 -1.99174 1.16612 0
M  V30 16739 C 1568.7 -1.66006 0.0559202 0
M  V30 16740 O 1569.89 -1.89458 0.225897 0
M  V30 16741 C 1567.03 -3.34142 0.862726 0
M  V30 16742 C 1566.14 -3.80008 2.05469 0
M  V30 16743 C 1565.28 -5.03617 1.68949 0
M  V30 16744 C 1564.32 -5.41888 2.84647 0
M  V30 16745 N 1563.45 -6.56678 2.48431 0
M  V30 16746 H 1568.29 -2.10238 2.11197 0
M  V30 16747 H 1565.83 -1.02941 1.05079 0
M  V30 16748 H 1567.79 -4.11826 0.667447 0
M  V30 16749 H 1566.42 -3.22767 -0.0462461 0
M  V30 16750 H 1565.47 -2.98243 2.36126 0
M  V30 16751 H 1566.78 -4.04312 2.92119 0
M  V30 16752 H 1565.94 -5.88923 1.45789 0
M  V30 16753 H 1564.67 -4.81182 0.794674 0
M  V30 16754 H 1563.68 -4.55109 3.08474 0
M  V30 16755 H 1564.9 -5.66296 3.74813 0
M  V30 16756 H 1562.85 -6.35821 1.61453 0
M  V30 16757 H 1562.77 -6.80846 3.28611 0
M  V30 16758 H 1564.04 -7.45219 2.28624 0
M  V30 16759 N 1568.26 -1.13026 -1.09832 0
M  V30 16760 C 1569.68 -0.867598 -1.33959 0
M  V30 16761 C 1569.88 0.499047 -1.95222 0
M  V30 16762 O 1568.94 1.24644 -2.19591 0
M  V30 16763 C 1570.25 -1.98893 -2.25526 0
M  V30 16764 C 1571.8 -2.02054 -2.39047 0
M  V30 16765 C 1572.27 -3.13438 -3.33947 0
M  V30 16766 N 1573.76 -3.12921 -3.41518 0
M  V30 16767 C 1574.5 -3.95746 -4.14937 0
M  V30 16768 N 1573.99 -4.88574 -4.91189 0
M  V30 16769 N 1575.79 -3.8386 -4.10619 0
M  V30 16770 H 1567.94 -2.01072 -0.684382 0
M  V30 16771 H 1570.2 -0.875341 -0.363982 0
M  V30 16772 H 1569.91 -2.97405 -1.87731 0
M  V30 16773 H 1569.78 -1.89948 -3.25883 0
M  V30 16774 H 1572.17 -1.04158 -2.76107 0
M  V30 16775 H 1572.25 -2.15072 -1.38483 0
M  V30 16776 H 1571.89 -4.11571 -2.9761 0
M  V30 16777 H 1571.82 -2.97658 -4.34405 0
M  V30 16778 H 1574.31 -2.45677 -2.87144 0
M  V30 16779 H 1574.63 -5.48269 -5.44629 0
M  V30 16780 H 1572.97 -4.92583 -4.90292 0
M  V30 16781 H 1576.16 -3.10669 -3.50146 0
M  V30 16782 H 1576.34 -4.48637 -4.67577 0
M  V30 16783 N 1569.74 1.27735 -0.923117 0
M  V30 16784 C 1570.65 2.30734 -0.424124 0
M  V30 16785 C 1571.67 1.66872 0.49291 0
M  V30 16786 O 1572.84 1.97843 0.37683 0
M  V30 16787 C 1569.91 3.45227 0.319254 0
M  V30 16788 C 1568.97 4.2462 -0.632137 0
M  V30 16789 C 1568.2 5.33646 0.0758596 0
M  V30 16790 O 1568.43 5.55481 1.29602 0
M  V30 16791 O 1567.36 5.98966 -0.593624 0
M  V30 16792 H 1571.19 2.75444 -1.27923 0
M  V30 16793 H 1568.77 1.32601 -0.688288 0
M  V30 16794 H 1570.65 4.14874 0.73873 0
M  V30 16795 H 1569.33 3.02582 1.15004 0
M  V30 16796 H 1568.24 3.57525 -1.1012 0
M  V30 16797 H 1569.57 4.70969 -1.43001 0
M  V30 16798 N 1571.22 0.688118 1.41784 0
M  V30 16799 C 1572.5 0.144304 1.95067 0
M  V30 16800 C 1572.88 -1.34399 1.62789 0
M  V30 16801 O 1572.23 -2.08675 0.930978 0
M  V30 16802 C 1572.44 0.427641 3.4637 0
M  V30 16803 C 1573.78 0.351345 4.23144 0
M  V30 16804 O 1574.81 0.362134 3.54354 0
M  V30 16805 O 1573.67 0.305018 5.45648 0
M  V30 16806 H 1570.76 0.01062 0.826932 0
M  V30 16807 H 1573.31 0.763766 1.51541 0
M  V30 16808 H 1572.08 1.4581 3.63119 0
M  V30 16809 H 1571.7 -0.223167 3.96973 0
M  V30 16810 N 1572.7 -1.51554 0.432352 0
M  V30 16811 C 1573.61 -2.31371 -0.387885 0
M  V30 16812 C 1574.62 -1.40072 -1.03227 0
M  V30 16813 O 1575.8 -1.73145 -1.02873 0
M  V30 16814 C 1572.87 -3.13662 -1.47705 0
M  V30 16815 C 1571.93 -4.20734 -0.853315 0
M  V30 16816 C 1571.16 -4.99092 -1.89058 0
M  V30 16817 O 1571.38 -4.78022 -3.11209 0
M  V30 16818 O 1570.32 -5.83322 -1.48389 0
M  V30 16819 H 1574.14 -3.02554 0.263578 0
M  V30 16820 H 1571.73 -1.48122 0.195004 0
M  V30 16821 H 1573.61 -3.64837 -2.10884 0
M  V30 16822 H 1572.28 -2.45249 -2.11269 0
M  V30 16823 H 1571.19 -3.73649 -0.183616 0
M  V30 16824 H 1572.52 -4.91506 -0.261244 0
M  V30 16825 N 1574.18 -0.163538 -1.56749 0
M  V30 16826 C 1575.4 0.489888 -2.01017 0
M  V30 16827 C 1575.82 1.57327 -1.04373 0
M  V30 16828 O 1575.18 1.82449 -0.0433414 0
M  V30 16829 C 1575.23 1.07537 -3.45135 0
M  V30 16830 O 1574.95 0.0352465 -4.38086 0
M  V30 16831 C 1576.45 1.80779 -4.04764 0
M  V30 16832 H 1573.67 0.126095 -0.659046 0
M  V30 16833 H 1576.21 -0.262982 -2.02802 0
M  V30 16834 H 1574.37 1.77877 -3.44149 0
M  V30 16835 H 1574.78 0.466426 -5.22422 0
M  V30 16836 H 1576.26 2.17014 -5.07552 0
M  V30 16837 H 1576.73 2.6999 -3.46413 0
M  V30 16838 H 1577.34 1.15098 -4.09429 0
M  V30 16839 N 1575.65 1.57214 0.110213 0
M  V30 16840 C 1576.9 1.84498 0.815059 0
M  V30 16841 C 1577.22 0.750531 1.80628 0
M  V30 16842 O 1578.42 0.910042 2.55794 0
M  V30 16843 C 1576.88 3.27138 1.50028 0
M  V30 16844 C 1576.49 4.44616 0.549603 0
M  V30 16845 C 1578.23 3.63662 2.18975 0
M  V30 16846 C 1576.14 5.78285 1.23855 0
M  V30 16847 H 1575.07 0.688165 0.308132 0
M  V30 16848 H 1577.72 1.83374 0.0678595 0
M  V30 16849 H 1576.1 3.22758 2.29441 0
M  V30 16850 H 1577.27 4.60312 -0.211944 0
M  V30 16851 H 1575.59 4.16387 -0.0333571 0
M  V30 16852 H 1578.19 4.60804 2.71226 0
M  V30 16853 H 1578.53 2.91532 2.97178 0
M  V30 16854 H 1579.06 3.69865 1.46439 0
M  V30 16855 H 1575.8 6.53608 0.497629 0
M  V30 16856 H 1575.32 5.66459 1.9719 0
M  V30 16857 H 1577 6.22338 1.76929 0
M  V30 16858 N 1577.13 -0.380637 1.52934 0
M  V30 16859 C 1578.04 -1.48957 1.81243 0
M  V30 16860 C 1579.06 -1.5931 0.69974 0
M  V30 16861 O 1580.23 -1.75488 0.988218 0
M  V30 16862 C 1577.3 -2.84397 1.9829 0
M  V30 16863 C 1576.36 -2.83697 3.22202 0
M  V30 16864 C 1575.59 -4.12677 3.38427 0
M  V30 16865 O 1575.82 -5.08068 2.59274 0
M  V30 16866 O 1574.75 -4.19407 4.31719 0
M  V30 16867 H 1578.58 -1.27964 2.75425 0
M  V30 16868 H 1576.16 -0.56929 1.38128 0
M  V30 16869 H 1578.04 -3.64676 2.11161 0
M  V30 16870 H 1576.72 -3.054 1.07298 0
M  V30 16871 H 1575.63 -2.0217 3.14767 0
M  V30 16872 H 1576.96 -2.67648 4.13068 0
M  V30 16873 N 1578.61 -1.44039 -0.639573 0
M  V30 16874 C 1579.89 -1.36853 -1.39752 0
M  V30 16875 C 1580.27 -0.0230515 -2.11087 0
M  V30 16876 O 1579.62 0.994061 -2.05744 0
M  V30 16877 C 1579.83 -2.56101 -2.37093 0
M  V30 16878 C 1581.17 -2.99793 -3.00681 0
M  V30 16879 O 1582.2 -2.56246 -2.4742 0
M  V30 16880 O 1581.06 -3.75274 -3.97281 0
M  V30 16881 H 1578.15 -0.541521 -0.625047 0
M  V30 16882 H 1580.7 -1.56113 -0.665336 0
M  V30 16883 H 1579.47 -3.45647 -1.83422 0
M  V30 16884 H 1579.09 -2.39011 -3.17741 0
M  V30 16885 N 1580.09 0.879207 -1.30796 0
M  V30 16886 C 1581.34 1.62625 -1.19315 0
M  V30 16887 C 1581.65 1.93999 0.249731 0
M  V30 16888 O 1582.86 2.67112 0.486129 0
M  V30 16889 C 1581.31 2.93129 -2.08815 0
M  V30 16890 C 1580.92 2.69272 -3.58045 0
M  V30 16891 C 1582.66 3.71105 -2.0611 0
M  V30 16892 C 1580.57 3.95628 -4.39582 0
M  V30 16893 H 1579.5 0.61015 -0.442981 0
M  V30 16894 H 1582.15 0.972892 -1.55586 0
M  V30 16895 H 1580.53 3.59789 -1.65432 0
M  V30 16896 H 1581.71 2.11078 -4.09613 0
M  V30 16897 H 1580.02 2.04664 -3.62632 0
M  V30 16898 H 1582.62 4.64824 -2.64277 0
M  V30 16899 H 1582.96 4.02946 -1.04597 0
M  V30 16900 H 1583.5 3.11315 -2.47644 0
M  V30 16901 H 1580.24 3.68943 -5.41813 0
M  V30 16902 H 1579.76 4.53307 -3.92775 0
M  V30 16903 H 1581.43 4.63597 -4.51317 0
M  V30 16904 N 1581.57 1.13606 1.09231 0
M  V30 16905 C 1582.84 0.81012 1.78035 0
M  V30 16906 C 1583.22 -0.697953 1.99228 0
M  V30 16907 O 1582.57 -1.63592 1.5953 0
M  V30 16908 C 1582.78 1.59932 3.10198 0
M  V30 16909 C 1584.13 1.79328 3.84872 0
M  V30 16910 O 1585.15 1.56547 3.19955 0
M  V30 16911 O 1584.01 2.17355 5.01417 0
M  V30 16912 H 1581.11 0.295995 0.772215 0
M  V30 16913 H 1583.65 1.24079 1.15769 0
M  V30 16914 H 1582.43 2.6241 2.9027 0
M  V30 16915 H 1582.05 1.16371 3.80189 0
M  V30 16916 N 1583.05 -1.27244 0.929878 0
M  V30 16917 C 1583.98 -2.25097 0.375024 0
M  V30 16918 C 1584.96 -1.53726 -0.529833 0
M  V30 16919 O 1586.14 -1.82551 -0.469846 0
M  V30 16920 C 1583.27 -3.35531 -0.462271 0
M  V30 16921 C 1582.31 -4.24809 0.379462 0
M  V30 16922 S 1583.15 -5.04471 1.79637 0
M  V30 16923 C 1584.3 -6.18388 0.966815 0
M  V30 16924 H 1584.54 -2.71813 1.20436 0
M  V30 16925 H 1582.07 -1.35934 0.732211 0
M  V30 16926 H 1584.03 -3.99605 -0.939489 0
M  V30 16927 H 1582.69 -2.87449 -1.26616 0
M  V30 16928 H 1581.88 -5.03321 -0.261515 0
M  V30 16929 H 1581.48 -3.65541 0.790935 0
M  V30 16930 H 1583.77 -6.77193 0.203821 0
M  V30 16931 H 1584.72 -6.86767 1.72502 0
M  V30 16932 H 1585.13 -5.62211 0.507864 0
M  V30 16933 N 1584.52 -0.695628 -1.41417 0
M  V30 16934 C 1585.46 0.0202064 -2.28191 0
M  V30 16935 C 1586.43 0.787887 -1.42236 0
M  V30 16936 O 1587.62 0.778692 -1.71664 0
M  V30 16937 C 1584.75 1.03599 -3.22467 0
M  V30 16938 C 1583.79 0.361472 -4.24965 0
M  V30 16939 S 1584.62 -0.896181 -5.27948 0
M  V30 16940 C 1585.78 0.118005 -6.25789 0
M  V30 16941 H 1586.01 -0.715769 -2.88555 0
M  V30 16942 H 1583.55 -0.485904 -1.46555 0
M  V30 16943 H 1585.5 1.6169 -3.77315 0
M  V30 16944 H 1584.17 1.74454 -2.61198 0
M  V30 16945 H 1583.36 1.12866 -4.912 0
M  V30 16946 H 1582.96 -0.146366 -3.73713 0
M  V30 16947 H 1585.25 0.971258 -6.70502 0
M  V30 16948 H 1586.2 -0.510417 -7.06258 0
M  V30 16949 H 1586.6 0.472806 -5.62516 0
M  V30 16950 N 1586 1.51322 -0.440383 0
M  V30 16951 C 1587.28 1.94722 0.185148 0
M  V30 16952 C 1587.66 1.37922 1.59815 0
M  V30 16953 O 1587.01 0.567527 2.2134 0
M  V30 16954 C 1587.22 3.48634 0.159781 0
M  V30 16955 C 1588.56 4.23038 0.363853 0
M  V30 16956 O 1589.59 3.55406 0.237759 0
M  V30 16957 O 1588.45 5.43027 0.615137 0
M  V30 16958 H 1585.54 0.816983 0.128325 0
M  V30 16959 H 1588.09 1.62211 -0.498581 0
M  V30 16960 H 1586.86 3.8244 -0.827952 0
M  V30 16961 H 1586.48 3.87596 0.88629 0
M  V30 16962 N 1587.48 0.171848 1.5666 0
M  V30 16963 C 1588.76 -0.519355 1.88579 0
M  V30 16964 C 1589.14 -1.81273 1.08182 0
M  V30 16965 O 1588.48 -2.27822 0.175895 0
M  V30 16966 C 1588.69 -0.760743 3.40608 0
M  V30 16967 C 1590.04 -1.09051 4.10357 0
M  V30 16968 O 1591.07 -0.849264 3.45928 0
M  V30 16969 O 1589.93 -1.54566 5.24187 0
M  V30 16970 H 1587.02 -0.267782 0.782446 0
M  V30 16971 H 1589.57 0.210323 1.68392 0
M  V30 16972 H 1588.34 0.153577 3.90999 0
M  V30 16973 H 1587.96 -1.54372 3.66408 0
M  V30 16974 N 1588.96 -1.5727 -0.101874 0
M  V30 16975 C 1590.21 -1.84928 -0.805263 0
M  V30 16976 C 1590.52 -0.760099 -1.80227 0
M  V30 16977 O 1591.73 -0.923594 -2.55308 0
M  V30 16978 C 1590.18 -3.27929 -1.48291 0
M  V30 16979 C 1589.79 -4.44901 -0.526016 0
M  V30 16980 C 1591.53 -3.64819 -2.17043 0
M  V30 16981 C 1589.44 -5.78934 -1.20787 0
M  V30 16982 H 1588.37 -0.689789 -0.304478 0
M  V30 16983 H 1591.02 -1.83408 -0.0581337 0
M  V30 16984 H 1589.4 -3.2397 -2.27726 0
M  V30 16985 H 1590.58 -4.60193 0.236352 0
M  V30 16986 H 1588.89 -4.16363 0.0554387 0
M  V30 16987 H 1591.49 -4.62236 -2.68778 0
M  V30 16988 H 1591.83 -2.93104 -2.95628 0
M  V30 16989 H 1592.37 -3.70637 -1.44476 0
M  V30 16990 H 1589.1 -6.53863 -0.46296 0
M  V30 16991 H 1588.62 -5.67497 -1.94183 0
M  V30 16992 H 1590.3 -6.23268 -1.73626 0
M  V30 16993 N 1590.44 0.372521 -1.53134 0
M  V30 16994 C 1591.68 1.11368 -1.68646 0
M  V30 16995 C 1592 1.90034 -0.437275 0
M  V30 16996 O 1591.27 1.88062 0.548593 0
M  V30 16997 H 1589.85 0.414129 -0.621696 0
M  V30 16998 H 1592.52 0.42082 -1.90303 0
M  V30 16999 H 1591.61 1.80738 -2.54441 0
M  V30 17000 N 1591.91 1.44376 0.631925 0
M  V30 17001 C 1593.16 1.46398 1.38747 0
M  V30 17002 C 1593.48 0.100149 1.95343 0
M  V30 17003 O 1594.68 -0.00210908 2.715 0
M  V30 17004 C 1593.14 2.57731 2.51203 0
M  V30 17005 C 1592.75 4.00317 2.01123 0
M  V30 17006 C 1594.49 2.68972 3.28412 0
M  V30 17007 C 1592.4 5.03075 3.10917 0
M  V30 17008 H 1591.33 0.544667 0.521396 0
M  V30 17009 H 1593.98 1.70439 0.679912 0
M  V30 17010 H 1592.36 2.26928 3.2453 0
M  V30 17011 H 1593.53 4.40683 1.34666 0
M  V30 17012 H 1591.85 3.93311 1.36732 0
M  V30 17013 H 1594.45 3.42916 4.10259 0
M  V30 17014 H 1594.79 1.74762 3.77841 0
M  V30 17015 H 1595.32 2.9918 2.62176 0
M  V30 17016 H 1592.06 5.98911 2.66433 0
M  V30 17017 H 1591.58 4.67302 3.76017 0
M  V30 17018 H 1593.26 5.2674 3.75705 0
M  V30 17019 N 1593.39 -0.872258 1.31261 0
M  V30 17020 C 1594.67 -1.60739 1.11456 0
M  V30 17021 C 1595.05 -2.0848 -0.331569 0
M  V30 17022 O 1594.4 -1.86141 -1.32528 0
M  V30 17023 C 1594.61 -2.76714 2.12674 0
M  V30 17024 C 1595.95 -3.46734 2.45074 0
M  V30 17025 O 1596.98 -2.86919 2.11083 0
M  V30 17026 O 1595.84 -4.54632 3.0327 0
M  V30 17027 H 1592.93 -0.70707 0.428929 0
M  V30 17028 H 1595.48 -0.917922 1.42732 0
M  V30 17029 H 1594.25 -2.38834 3.09958 0
M  V30 17030 H 1593.87 -3.5335 1.8229 0
M  V30 17031 N 1594.87 -1.14184 -1.08627 0
M  V30 17032 C 1596.09 -0.932504 -1.85254 0
M  V30 17033 C 1596.52 0.513792 -1.80947 0
M  V30 17034 O 1595.88 1.36525 -1.19292 0
M  V30 17035 C 1595.93 -1.43519 -3.30809 0
M  V30 17036 O 1595.03 -0.625806 -4.07624 0
M  V30 17037 H 1594.37 -0.333573 -0.57413 0
M  V30 17038 H 1596.9 -1.51853 -1.3712 0
M  V30 17039 H 1596.91 -1.44238 -3.81654 0
M  V30 17040 H 1595.59 -2.48819 -3.3326 0
M  V30 17041 H 1594.16 -0.687168 -3.66514 0
M  V30 17042 N 1596.35 1.26749 -0.936613 0
M  V30 17043 C 1597.57 1.98597 -0.597817 0
M  V30 17044 C 1598 1.69324 0.8192 0
M  V30 17045 O 1597.36 0.938634 1.55111 0
M  V30 17046 C 1597.4 3.50656 -0.841007 0
M  V30 17047 O 1596.51 4.12304 0.0891038 0
M  V30 17048 H 1595.85 0.623197 -0.229176 0
M  V30 17049 H 1598.38 1.61332 -1.2583 0
M  V30 17050 H 1598.39 4.00857 -0.760093 0
M  V30 17051 H 1597.06 3.71293 -1.87388 0
M  V30 17052 H 1595.64 3.72876 -0.0424804 0
M  V30 17053 N 1597.83 0.703118 1.41046 0
M  V30 17054 C 1599.1 0.164985 1.94903 0
M  V30 17055 C 1599.48 -1.32665 1.64205 0
M  V30 17056 O 1598.83 -2.07675 0.953058 0
M  V30 17057 C 1599.04 0.464354 3.45897 0
M  V30 17058 C 1600.39 0.396205 4.22747 0
M  V30 17059 O 1601.41 0.399698 3.5395 0
M  V30 17060 O 1600.27 0.362874 5.45294 0
M  V30 17061 H 1597.37 0.0193901 0.826773 0
M  V30 17062 H 1599.91 0.779796 1.50722 0
M  V30 17063 H 1598.68 1.49653 3.61552 0
M  V30 17064 H 1598.31 -0.18105 3.97188 0
M  V30 17065 N 1599.3 -1.51086 0.448402 0
M  V30 17066 C 1600.23 -2.30896 -0.347773 0
M  V30 17067 C 1601.22 -1.36792 -1.01104 0
M  V30 17068 O 1602.4 -1.65713 -1.01257 0
M  V30 17069 C 1599.53 -3.15901 -1.44304 0
M  V30 17070 C 1598.48 -4.18373 -0.90265 0
M  V30 17071 C 1597.81 -4.9197 -2.0945 0
M  V30 17072 C 1599.11 -5.22252 0.0705335 0
M  V30 17073 H 1600.8 -2.97704 0.318273 0
M  V30 17074 H 1598.35 -1.43169 0.154509 0
M  V30 17075 H 1600.3 -3.70519 -2.00733 0
M  V30 17076 H 1599.03 -2.46935 -2.13753 0
M  V30 17077 H 1597.69 -3.64823 -0.3605 0
M  V30 17078 H 1597.33 -4.19497 -2.77545 0
M  V30 17079 H 1597.03 -5.6127 -1.73926 0
M  V30 17080 H 1598.56 -5.49415 -2.66412 0
M  V30 17081 H 1599.97 -5.71876 -0.403814 0
M  V30 17082 H 1598.37 -5.99142 0.338905 0
M  V30 17083 H 1599.44 -4.74398 1.00373 0
M  V30 17084 N 1600.78 -0.180154 -1.56567 0
M  V30 17085 C 1602.03 0.463205 -1.97439 0
M  V30 17086 C 1602.36 1.62296 -1.06647 0
M  V30 17087 O 1601.64 1.94157 -0.115382 0
M  V30 17088 C 1601.92 0.937709 -3.47677 0
M  V30 17089 C 1601.77 -0.222835 -4.49248 0
M  V30 17090 C 1603.09 1.80836 -4.01231 0
M  V30 17091 H 1600.21 0.166899 -0.717854 0
M  V30 17092 H 1602.85 -0.268069 -1.88099 0
M  V30 17093 H 1601 1.56084 -3.55767 0
M  V30 17094 H 1602.67 -0.860155 -4.5321 0
M  V30 17095 H 1600.92 -0.876962 -4.24843 0
M  V30 17096 H 1601.59 0.151444 -5.51792 0
M  V30 17097 H 1604.06 1.28297 -3.95827 0
M  V30 17098 H 1602.94 2.10937 -5.06751 0
M  V30 17099 H 1603.2 2.75728 -3.45581 0
M  V30 17100 N 1602.26 1.57322 0.0935319 0
M  V30 17101 C 1603.17 2.05499 1.13169 0
M  V30 17102 C 1604.19 0.980199 1.43764 0
M  V30 17103 O 1605.36 1.29347 1.54374 0
M  V30 17104 C 1602.43 2.47111 2.43181 0
M  V30 17105 C 1601.49 3.68791 2.19754 0
M  V30 17106 C 1600.72 4.08408 3.43567 0
M  V30 17107 O 1600.94 3.48104 4.51863 0
M  V30 17108 O 1599.88 5.01351 3.33062 0
M  V30 17109 H 1603.7 2.9423 0.752491 0
M  V30 17110 H 1601.29 1.4623 0.306151 0
M  V30 17111 H 1603.17 2.74495 3.19735 0
M  V30 17112 H 1601.85 1.61518 2.80524 0
M  V30 17113 H 1600.75 3.46521 1.40976 0
M  V30 17114 H 1602.09 4.55169 1.87303 0
M  V30 17115 N 1603.74 -0.364395 1.53329 0
M  V30 17116 C 1605.02 -1.12265 1.60174 0
M  V30 17117 C 1605.4 -2.0708 0.410015 0
M  V30 17118 O 1604.74 -2.20492 -0.599631 0
M  V30 17119 C 1604.95 -1.86071 2.9526 0
M  V30 17120 C 1606.3 -2.40562 3.49879 0
M  V30 17121 O 1607.33 -1.96196 2.97297 0
M  V30 17122 O 1606.18 -3.2167 4.41804 0
M  V30 17123 H 1603.28 -0.515062 0.647024 0
M  V30 17124 H 1605.82 -0.367563 1.65672 0
M  V30 17125 H 1604.6 -1.1688 3.73436 0
M  V30 17126 H 1604.22 -2.68486 2.93259 0
M  V30 17127 N 1605.22 -1.44709 -0.62426 0
M  V30 17128 C 1606.44 -1.51573 -1.41564 0
M  V30 17129 C 1606.87 -0.143806 -1.87549 0
M  V30 17130 O 1606.22 0.868361 -1.59151 0
M  V30 17131 C 1606.27 -2.49085 -2.60747 0
M  V30 17132 O 1605.38 -1.99712 -3.60817 0
M  V30 17133 H 1604.72 -0.51157 -0.423311 0
M  V30 17134 H 1607.25 -1.89908 -0.761316 0
M  V30 17135 H 1607.26 -2.67346 -3.08205 0
M  V30 17136 H 1605.93 -3.48733 -2.26624 0
M  V30 17137 H 1604.51 -1.9125 -3.20122 0
M  V30 17138 N 1606.69 0.865285 -1.31722 0
M  V30 17139 C 1607.94 1.61868 -1.21675 0
M  V30 17140 C 1608.27 1.93206 0.223988 0
M  V30 17141 O 1607.52 1.5657 1.17407 0
M  V30 17142 C 1607.82 2.95462 -2.0109 0
M  V30 17143 C 1607.49 2.83598 -3.50547 0
M  V30 17144 C 1606.15 2.80069 -3.91299 0
M  V30 17145 C 1608.5 2.70295 -4.45635 0
M  V30 17146 C 1605.83 2.61102 -5.25398 0
M  V30 17147 C 1608.18 2.52864 -5.79864 0
M  V30 17148 C 1606.85 2.47722 -6.19831 0
M  V30 17149 H 1606.12 0.592319 -0.445241 0
M  V30 17150 H 1608.76 1.00456 -1.63036 0
M  V30 17151 H 1607.07 3.60935 -1.52424 0
M  V30 17152 H 1608.77 3.52756 -1.90693 0
M  V30 17153 H 1605.36 2.87164 -3.18175 0
M  V30 17154 H 1609.54 2.72073 -4.15078 0
M  V30 17155 H 1604.8 2.55549 -5.55432 0
M  V30 17156 H 1608.97 2.41548 -6.53167 0
M  V30 17157 H 1606.6 2.32784 -7.23682 0
M  V30 17158 N 1608.17 1.14759 1.0802 0
M  V30 17159 C 1609.1 0.860977 2.17047 0
M  V30 17160 C 1610.08 -0.185652 1.69084 0
M  V30 17161 O 1611.27 -0.0414797 1.94156 0
M  V30 17162 C 1608.4 0.342018 3.45612 0
M  V30 17163 C 1607.35 1.32455 4.06989 0
M  V30 17164 C 1606.68 0.664721 5.30552 0
M  V30 17165 C 1607.98 2.68819 4.4781 0
M  V30 17166 H 1609.67 1.77269 2.4128 0
M  V30 17167 H 1607.22 0.853757 1.15961 0
M  V30 17168 H 1609.17 0.129093 4.21202 0
M  V30 17169 H 1607.9 -0.605138 3.20945 0
M  V30 17170 H 1606.55 1.52371 3.33435 0
M  V30 17171 H 1606.2 -0.288367 5.02173 0
M  V30 17172 H 1605.9 1.32036 5.72573 0
M  V30 17173 H 1607.43 0.461412 6.08854 0
M  V30 17174 H 1608.84 2.52787 5.14559 0
M  V30 17175 H 1607.24 3.30694 5.00761 0
M  V30 17176 H 1608.31 3.25398 3.59506 0
M  V30 17177 O 1609.69 -1.20621 1.0739 0
M  V30 17178 H 1610.38 -1.78149 0.760428 0
M  V30 END ATOM
M  V30 BEGIN BOND
M  V30 END BOND
M  V30 END CTAB
M  END
$$$$
