drugbank_target|P22894 Neutrophil collagenase (DB00786; DB02326; DB02953; DB03207; DB03622; DB03636; DB03880; DB06971; DB07397; DB07713; DB07772; DB07900; DB08028; DB08403; DB08476)
 OpenBabel12092119493D

  0  0  0     0  0            999 V3000
M  V30 BEGIN CTAB
M  V30 COUNTS 7411 7528 0 0 0
M  V30 BEGIN ATOM
M  V30 1 H -0.908 1.98254 -0.117106 0
M  V30 2 N 0 1.576 0 0
M  V30 3 C 0.933 2.03868 1.02534 0
M  V30 4 C 1.911 0.928543 1.3348 0
M  V30 5 O 3.095 1.19667 1.45644 0
M  V30 6 C 0.222 2.43627 2.35294 0
M  V30 7 C -0.732 3.65373 2.2001 0
M  V30 8 S 0.101 5.13292 1.52614 0
M  V30 9 C 1.257 5.56322 2.86805 0
M  V30 10 H 1.49 2.90518 0.631377 0
M  V30 11 H -0.977 1.52953 0.210867 0
M  V30 12 H 0.981 2.67203 3.11629 0
M  V30 13 H -0.358 1.57376 2.7183 0
M  V30 14 H -1.165 3.90944 3.18086 0
M  V30 15 H -1.563 3.418 1.51819 0
M  V30 16 H 0.729 5.58782 3.83104 0
M  V30 17 H 1.672 6.56266 2.65933 0
M  V30 18 H 2.08 4.83886 2.90714 0
M  V30 19 N 1.4781 -0.272755 1.55222 0
M  V30 20 C 2.7251 -1.00433 1.7584 0
M  V30 21 C 3.0531 -1.86275 0.559629 0
M  V30 22 O 2.3081 -1.90269 -0.457857 0
M  V30 23 C 2.6071 -1.91642 3.01675 0
M  V30 24 C 2.2731 -1.21548 4.34208 0
M  V30 25 C 0.9351 -1.02166 4.70229 0
M  V30 26 C 3.2871 -0.716684 5.16249 0
M  V30 27 C 0.6151 -0.316334 5.85847 0
M  V30 28 C 2.9671 -0.0249476 6.32595 0
M  V30 29 C 1.6311 0.180579 6.67256 0
M  V30 30 H 0.9011 -0.367509 0.643443 0
M  V30 31 H 3.5481 -0.276596 1.89492 0
M  V30 32 H 1.8531 -2.71037 2.82924 0
M  V30 33 H 3.5501 -2.48369 3.14824 0
M  V30 34 H 0.1401 -1.37645 4.05896 0
M  V30 35 H 4.3241 -0.854047 4.88896 0
M  V30 36 H -0.4199 -0.146378 6.11225 0
M  V30 37 H 3.7541 0.369311 6.9542 0
M  V30 38 H 1.3811 0.729098 7.56696 0
M  V30 39 N 2.9562 -1.48159 -0.537278 0
M  V30 40 C 4.1812 -1.59707 -1.32319 0
M  V30 41 C 4.6062 -0.254859 -1.86365 0
M  V30 42 O 3.9642 0.772378 -1.64024 0
M  V30 43 C 4.0122 -2.6412 -2.45505 0
M  V30 44 O 3.1162 -2.20774 -3.48328 0
M  V30 45 H 2.4572 -0.535791 -0.392204 0
M  V30 46 H 4.9872 -1.94092 -0.647268 0
M  V30 47 H 4.9972 -2.85166 -2.91795 0
M  V30 48 H 3.6722 -3.61567 -2.05528 0
M  V30 49 H 2.2492 -2.09911 -3.08207 0
M  V30 50 N 4.4343 0.785586 -1.36625 0
M  V30 51 C 5.3643 1.91259 -1.33949 0
M  V30 52 C 6.3453 1.68795 -0.210325 0
M  V30 53 O 7.5303 1.89854 -0.408561 0
M  V30 54 C 4.6603 3.28339 -1.13186 0
M  V30 55 C 3.6143 3.65335 -2.22967 0
M  V30 56 C 2.9403 5.00806 -1.87342 0
M  V30 57 C 4.2403 3.7352 -3.65075 0
M  V30 58 H 5.9343 1.93755 -2.28253 0
M  V30 59 H 3.4803 0.930788 -1.09874 0
M  V30 60 H 5.4333 4.06804 -1.09948 0
M  V30 61 H 4.1573 3.2624 -0.153332 0
M  V30 62 H 2.8163 2.89169 -2.25337 0
M  V30 63 H 2.4643 4.95233 -0.880545 0
M  V30 64 H 2.1643 5.26529 -2.60846 0
M  V30 65 H 3.6883 5.81687 -1.85667 0
M  V30 66 H 5.1023 4.42168 -3.64911 0
M  V30 67 H 3.4993 4.10731 -4.37516 0
M  V30 68 H 4.5693 2.74527 -3.99703 0
M  V30 69 N 5.9124 1.20967 1.01018 0
M  V30 70 C 6.8594 0.964281 2.09691 0
M  V30 71 C 7.8294 -0.107853 1.65749 0
M  V30 72 O 9.0144 0.0381987 1.90762 0
M  V30 73 C 6.1544 0.52943 3.41015 0
M  V30 74 C 5.2674 1.67043 3.98398 0
M  V30 75 C 4.4024 1.18525 5.17808 0
M  V30 76 C 3.4414 2.29892 5.67288 0
M  V30 77 N 2.5784 1.82546 6.77954 0
M  V30 78 H 7.4184 1.89463 2.30017 0
M  V30 79 H 4.9554 0.944289 1.1279 0
M  V30 80 H 6.9134 0.258588 4.16398 0
M  V30 81 H 5.5434 -0.363919 3.20742 0
M  V30 82 H 4.5954 2.05603 3.20049 0
M  V30 83 H 5.9074 2.50877 4.31117 0
M  V30 84 H 5.0614 0.870762 6.00419 0
M  V30 85 H 3.8004 0.316887 4.86669 0
M  V30 86 H 2.8054 2.6215 4.83278 0
M  V30 87 H 4.0304 3.17216 6.00459 0
M  V30 88 H 1.9764 0.980454 6.48632 0
M  V30 89 H 1.8934 2.59956 7.09901 0
M  V30 90 H 3.1614 1.54115 7.64113 0
M  V30 91 N 7.3905 -1.2043 1.01659 0
M  V30 92 C 8.6185 -1.93777 0.725132 0
M  V30 93 C 9.0335 -1.74772 -0.714166 0
M  V30 94 O 8.3905 -1.06169 -1.4844 0
M  V30 95 C 8.4415 -3.45876 1.05129 0
M  V30 96 O 8.1625 -3.6426 2.43406 0
M  V30 97 C 9.6635 -4.36368 0.780891 0
M  V30 98 H 6.8835 -0.615901 0.266284 0
M  V30 99 H 9.4275 -1.52922 1.35776 0
M  V30 100 H 7.5825 -3.8461 0.464065 0
M  V30 101 H 7.9965 -4.58246 2.55169 0
M  V30 102 H 9.4705 -5.41743 1.05918 0
M  V30 103 H 9.9475 -4.38275 -0.284937 0
M  V30 104 H 10.5535 -4.03296 1.35027 0
M  V30 105 N 8.8686 -0.792821 -1.36206 0
M  V30 106 C 9.7986 -0.207853 -2.32573 0
M  V30 107 C 10.7796 0.659055 -1.56813 0
M  V30 108 O 11.9646 0.592176 -1.84951 0
M  V30 109 C 9.0946 0.655449 -3.41059 0
M  V30 110 C 8.0486 -0.111842 -4.27854 0
M  V30 111 C 7.3746 0.872274 -5.27537 0
M  V30 112 C 8.6746 -1.30299 -5.05786 0
M  V30 113 H 10.3686 -1.01294 -2.81744 0
M  V30 114 H 7.9146 -0.48854 -1.3546 0
M  V30 115 H 9.8676 1.07464 -4.07467 0
M  V30 116 H 8.5916 1.49328 -2.90463 0
M  V30 117 H 7.2506 -0.512053 -3.63006 0
M  V30 118 H 6.8986 1.70523 -4.73214 0
M  V30 119 H 6.5986 0.363291 -5.86476 0
M  V30 120 H 8.1226 1.28996 -5.96818 0
M  V30 121 H 9.5366 -0.959379 -5.65216 0
M  V30 122 H 7.9336 -1.7455 -5.74154 0
M  V30 123 H 9.0036 -2.09663 -4.37229 0
M  V30 124 N 10.3467 1.47872 -0.545128 0
M  V30 125 C 11.7577 1.86384 -0.108581 0
M  V30 126 C 12.1087 1.45309 1.31832 0
M  V30 127 O 11.2337 0.850641 1.9898 0
M  V30 128 C 11.8287 3.38265 -0.190274 0
M  V30 129 C 10.3877 3.75914 0.191164 0
M  V30 130 C 9.5347 2.71926 -0.543273 0
M  V30 131 H 12.4857 1.39561 -0.755537 0
M  V30 132 H 12.5067 3.75831 0.594217 0
M  V30 133 H 12.0187 3.6813 -1.2289 0
M  V30 134 H 10.1197 3.51665 1.23136 0
M  V30 135 H 10.2327 4.78836 -0.158987 0
M  V30 136 H 8.5967 2.54697 0.0122495 0
M  V30 137 H 9.3797 3.04634 -1.58282 0
M  V30 138 N 11.8248 0.280983 1.55075 0
M  V30 139 C 13.0718 -0.334115 1.99725 0
M  V30 140 C 13.3998 -1.5542 1.1694 0
M  V30 141 O 12.6548 -1.94361 0.228531 0
M  V30 142 C 12.9538 -0.754656 3.49342 0
M  V30 143 C 12.6198 0.361445 4.49449 0
M  V30 144 C 11.2818 0.667893 4.76542 0
M  V30 145 C 13.6338 1.11322 5.09173 0
M  V30 146 C 10.9618 1.7296 5.60626 0
M  V30 147 C 13.3138 2.1647 5.9441 0
M  V30 148 C 11.9778 2.47742 6.19822 0
M  V30 149 H 11.2478 -0.122261 0.730844 0
M  V30 150 H 13.8948 0.395917 1.87363 0
M  V30 151 H 12.1998 -1.56446 3.5921 0
M  V30 152 H 13.8968 -1.24142 3.813 0
M  V30 153 H 10.4868 0.112481 4.28452 0
M  V30 154 H 14.6708 0.88973 4.8826 0
M  V30 155 H 9.9268 1.97684 5.78559 0
M  V30 156 H 14.1008 2.75193 6.3972 0
M  V30 157 H 11.7278 3.30145 6.84769 0
M  V30 158 N 13.3029 -1.57598 0.00835791 0
M  V30 159 C 14.2329 -2.1198 -0.979113 0
M  V30 160 C 15.2139 -1.03091 -1.35301 0
M  V30 161 O 16.3989 -1.30818 -1.43528 0
M  V30 162 C 13.5289 -2.62995 -2.26828 0
M  V30 163 C 12.4829 -3.76485 -2.03576 0
M  V30 164 C 11.8089 -4.13846 -3.38579 0
M  V30 165 C 13.1089 -5.0342 -1.39161 0
M  V30 166 H 14.8029 -2.94738 -0.526281 0
M  V30 167 H 12.3489 -1.41783 -0.251704 0
M  V30 168 H 14.3019 -2.99669 -2.96271 0
M  V30 169 H 13.0259 -1.7737 -2.7424 0
M  V30 170 H 11.6849 -3.40217 -1.36557 0
M  V30 171 H 11.3329 -3.25232 -3.83709 0
M  V30 172 H 11.0329 -4.90312 -3.23834 0
M  V30 173 H 12.5569 -4.53086 -4.09323 0
M  V30 174 H 13.9709 -5.37812 -1.98573 0
M  V30 175 H 12.3679 -5.84746 -1.34878 0
M  V30 176 H 13.4379 -4.83548 -0.361868 0
M  V30 177 N 14.781 0.264519 -1.55364 0
M  V30 178 C 15.711 1.33121 -1.91836 0
M  V30 179 C 16.692 1.51101 -0.781192 0
M  V30 180 O 17.877 1.64003 -1.04003 0
M  V30 181 C 15.007 2.68921 -2.19769 0
M  V30 182 C 13.961 2.65661 -3.35571 0
M  V30 183 C 13.287 4.05093 -3.49004 0
M  V30 184 C 14.587 2.24187 -4.71739 0
M  V30 185 H 16.281 1.02844 -2.81182 0
M  V30 186 H 13.827 0.493286 -1.35287 0
M  V30 187 H 15.78 3.43663 -2.43872 0
M  V30 188 H 14.504 3.00799 -1.27231 0
M  V30 189 H 13.163 1.93377 -3.1145 0
M  V30 190 H 12.811 4.34206 -2.53917 0
M  V30 191 H 12.511 4.03804 -4.26868 0
M  V30 192 H 14.035 4.81561 -3.75408 0
M  V30 193 H 15.449 2.88654 -4.9533 0
M  V30 194 H 13.846 2.34044 -5.52579 0
M  V30 195 H 14.916 1.19327 -4.69988 0
M  V30 196 N 16.2591 1.48442 0.529413 0
M  V30 197 C 17.1891 1.65902 1.64313 0
M  V30 198 C 18.1701 0.507897 1.6234 0
M  V30 199 O 19.3551 0.740503 1.79528 0
M  V30 200 C 16.4851 1.69911 3.02898 0
M  V30 201 C 15.4391 2.8453 3.19729 0
M  V30 202 C 14.7651 2.73629 4.59381 0
M  V30 203 C 16.0651 4.25821 3.02447 0
M  V30 204 H 17.7591 2.5914 1.49955 0
M  V30 205 H 15.3051 1.24709 0.719982 0
M  V30 206 H 17.2581 1.80715 3.80684 0
M  V30 207 H 15.9821 0.732524 3.18279 0
M  V30 208 H 14.6411 2.73283 2.44361 0
M  V30 209 H 14.2891 1.74938 4.71599 0
M  V30 210 H 13.9891 3.50541 4.71588 0
M  V30 211 H 15.5131 2.86401 5.39265 0
M  V30 212 H 16.9271 4.37898 3.70024 0
M  V30 213 H 15.3241 5.03735 3.26146 0
M  V30 214 H 16.3941 4.42244 1.98867 0
M  V30 215 N 17.7372 -0.778329 1.37039 0
M  V30 216 C 18.6672 -1.90546 1.34962 0
M  V30 217 C 19.6482 -1.68681 0.219274 0
M  V30 218 O 20.8332 -1.89634 0.418624 0
M  V30 219 C 17.9632 -3.27734 1.14925 0
M  V30 220 C 16.9172 -3.64147 2.24902 0
M  V30 221 C 16.2432 -4.99806 1.89996 0
M  V30 222 C 17.5432 -3.71579 3.67051 0
M  V30 223 H 19.2372 -1.92541 2.29277 0
M  V30 224 H 16.7832 -0.924948 1.10366 0
M  V30 225 H 18.7362 -4.06215 1.12104 0
M  V30 226 H 17.4602 -3.26154 0.170631 0
M  V30 227 H 16.1192 -2.8797 2.26868 0
M  V30 228 H 15.7672 -4.94759 0.906796 0
M  V30 229 H 15.4672 -5.25139 2.63634 0
M  V30 230 H 16.9912 -5.80694 1.88749 0
M  V30 231 H 18.4052 -4.40227 3.67251 0
M  V30 232 H 16.8022 -4.08405 4.39688 0
M  V30 233 H 17.8722 -2.72404 4.01154 0
M  V30 234 N 19.2153 -1.21501 -1.00376 0
M  V30 235 C 20.1653 -0.942843 -2.07592 0
M  V30 236 C 21.1493 0.102384 -1.60574 0
M  V30 237 O 22.3413 -0.10671 -1.76678 0
M  V30 238 C 19.4703 -0.510729 -3.3948 0
M  V30 239 C 18.5563 -1.59009 -3.93163 0
M  V30 240 N 18.9473 -2.81544 -4.20198 0
M  V30 241 C 17.2453 -1.45925 -4.21452 0
M  V30 242 C 17.9463 -3.51261 -4.63671 0
M  V30 243 N 16.9223 -2.78703 -4.66718 0
M  V30 244 H 20.7243 -1.87378 -2.26421 0
M  V30 245 H 18.2383 -1.11093 -1.18458 0
M  V30 246 H 20.2353 -0.297101 -4.1584 0
M  V30 247 H 18.8953 0.413436 -3.22057 0
M  V30 248 H 19.9063 -3.18075 -4.08716 0
M  V30 249 H 16.5833 -0.600467 -4.13159 0
M  V30 250 H 17.9733 -4.56183 -4.93302 0
M  V30 251 N 20.6934 1.19889 -1.02296 0
M  V30 252 C 21.9394 1.89701 -0.717033 0
M  V30 253 C 22.2724 1.7905 0.751989 0
M  V30 254 O 21.5474 1.17891 1.547 0
M  V30 255 C 21.8304 3.40858 -1.16136 0
M  V30 256 C 21.6834 3.60411 -2.69117 0
M  V30 257 C 23.0024 4.33876 -0.737549 0
M  V30 258 H 20.1214 0.688874 -0.261957 0
M  V30 259 H 22.7634 1.41154 -1.27183 0
M  V30 260 H 20.9134 3.82335 -0.689342 0
M  V30 261 H 22.5854 3.28145 -3.2422 0
M  V30 262 H 20.8284 3.03665 -3.0979 0
M  V30 263 H 21.4994 4.66396 -2.95261 0
M  V30 264 H 23.9754 4.00081 -1.14344 0
M  V30 265 H 22.8514 5.38242 -1.0764 0
M  V30 266 H 23.1124 4.40628 0.360436 0
M  V30 267 N 22.1715 0.800033 1.35784 0
M  V30 268 C 23.1035 0.163596 2.28615 0
M  V30 269 C 24.1165 -0.633317 1.49976 0
M  V30 270 O 25.3055 -0.466754 1.72289 0
M  V30 271 C 22.4055 -0.790958 3.29541 0
M  V30 272 C 21.5785 -0.0418255 4.3738 0
M  V30 273 C 20.6375 -0.91389 5.18203 0
M  V30 274 O 19.6635 -0.367234 5.68014 0
M  V30 275 N 20.8655 -2.23682 5.35674 0
M  V30 276 H 23.6305 0.96105 2.83873 0
M  V30 277 H 21.1915 0.654894 1.48063 0
M  V30 278 H 23.1835 -1.37844 3.80501 0
M  V30 279 H 21.7535 -1.48925 2.74846 0
M  V30 280 H 20.9735 0.726813 3.87442 0
M  V30 281 H 22.2615 0.474719 5.06581 0
M  V30 282 H 21.6595 -2.70497 4.96838 0
M  V30 283 H 20.2165 -2.77369 5.89839 0
M  V30 284 N 23.6496 -1.47581 0.552962 0
M  V30 285 C 24.8986 -2.01684 0.0251995 0
M  V30 286 C 25.2116 -1.43317 -1.33115 0
M  V30 287 O 26.4176 -1.89057 -1.94858 0
M  V30 288 C 24.8736 -3.599 -0.00542052 0
M  V30 289 C 24.4816 -4.27257 1.34742 0
M  V30 290 C 26.2256 -4.21768 -0.4808 0
M  V30 291 C 24.1326 -5.77467 1.27614 0
M  V30 292 H 23.0626 -0.753979 0.00565033 0
M  V30 293 H 25.7136 -1.69616 0.70018 0
M  V30 294 H 24.0956 -3.88911 -0.745961 0
M  V30 295 H 25.2696 -4.09893 2.10534 0
M  V30 296 H 23.5846 -3.77358 1.76039 0
M  V30 297 H 26.1816 -5.31838 -0.55246 0
M  V30 298 H 26.5246 -3.88651 -1.49184 0
M  V30 299 H 27.0576 -3.97273 0.204752 0
M  V30 300 H 23.7966 -6.15196 2.26304 0
M  V30 301 H 23.3166 -5.9718 0.55996 0
M  V30 302 H 24.9956 -6.3959 0.976421 0
M  V30 303 N 25.1277 -0.289203 -1.54924 0
M  V30 304 C 26.3527 0.329299 -2.04769 0
M  V30 305 C 26.7777 1.4763 -1.16564 0
M  V30 306 O 26.1357 1.80527 -0.167186 0
M  V30 307 C 26.1837 0.774438 -3.52186 0
M  V30 308 O 25.2877 1.88038 -3.67036 0
M  V30 309 H 24.6287 0.0659259 -0.660719 0
M  V30 310 H 27.1587 -0.42761 -2.00082 0
M  V30 311 H 27.1687 1.06642 -3.93816 0
M  V30 312 H 25.8437 -0.0646707 -4.1585 0
M  V30 313 H 24.4207 1.58985 -3.3731 0
M  V30 314 N 26.6058 1.57591 -0.0167156 0
M  V30 315 C 27.5528 2.09462 0.969251 0
M  V30 316 C 28.5228 0.99381 1.33089 0
M  V30 317 O 29.7078 1.26726 1.42636 0
M  V30 318 C 26.8478 2.61622 2.25051 0
M  V30 319 C 25.9608 3.85666 1.94642 0
M  V30 320 C 25.0958 4.26266 3.16972 0
M  V30 321 C 24.1348 5.43101 2.82326 0
M  V30 322 N 23.2718 5.78915 3.97243 0
M  V30 323 H 28.1118 2.93428 0.519997 0
M  V30 324 H 25.6488 1.45044 0.245087 0
M  V30 325 H 27.6068 2.89949 2.99976 0
M  V30 326 H 26.2368 1.80505 2.67615 0
M  V30 327 H 25.2888 3.64145 1.10013 0
M  V30 328 H 26.6008 4.70678 1.65117 0
M  V30 329 H 25.7548 4.55963 4.00228 0
M  V30 330 H 24.4938 3.39996 3.49648 0
M  V30 331 H 23.4988 5.1311 1.97479 0
M  V30 332 H 24.7238 6.3106 2.50879 0
M  V30 333 H 22.6698 4.95602 4.29785 0
M  V30 334 H 22.5868 6.58539 3.71299 0
M  V30 335 H 23.8548 6.13212 4.81239 0
M  V30 336 N 28.0839 -0.256276 1.55502 0
M  V30 337 C 29.0469 -1.30047 1.88734 0
M  V30 338 C 30.0469 -1.4154 0.763086 0
M  V30 339 O 31.2369 -1.40403 1.03115 0
M  V30 340 C 28.3689 -2.67953 2.10747 0
M  V30 341 H 29.5619 -1.01802 2.82093 0
M  V30 342 H 27.1149 -0.495134 1.4825 0
M  V30 343 H 27.8499 -3.01351 1.19825 0
M  V30 344 H 27.6349 -2.60993 2.92617 0
M  V30 345 H 29.1249 -3.43368 2.37673 0
M  V30 346 N 29.562 -1.4872 -0.521534 0
M  V30 347 C 30.809 -1.57168 -1.27689 0
M  V30 348 C 31.137 -0.249275 -1.92896 0
M  V30 349 O 30.392 0.761162 -1.80291 0
M  V30 350 C 30.691 -2.66497 -2.38148 0
M  V30 351 C 30.357 -4.08664 -1.90538 0
M  V30 352 C 29.019 -4.47357 -1.77271 0
M  V30 353 C 31.371 -4.97724 -1.54663 0
M  V30 354 C 28.699 -5.72905 -1.26478 0
M  V30 355 C 31.051 -6.2377 -1.05329 0
M  V30 356 C 29.715 -6.61311 -0.906861 0
M  V30 357 H 28.985 -0.575117 -0.467249 0
M  V30 358 H 31.632 -1.82472 -0.581051 0
M  V30 359 H 29.937 -2.35085 -3.13437 0
M  V30 360 H 31.634 -2.70246 -2.96257 0
M  V30 361 H 28.224 -3.78111 -2.01816 0
M  V30 362 H 32.408 -4.68501 -1.63768 0
M  V30 363 H 27.664 -6.00709 -1.13835 0
M  V30 364 H 31.838 -6.9217 -0.76644 0
M  V30 365 H 29.465 -7.5848 -0.511083 0
M  V30 366 N 31.0401 0.771051 -1.3745 0
M  V30 367 C 32.4511 1.34737 -1.29239 0
M  V30 368 C 32.8021 1.96109 0.0596908 0
M  V30 369 O 31.9271 1.93865 0.961534 0
M  V30 370 C 32.5221 2.44973 -2.34037 0
M  V30 371 C 31.0811 2.98372 -2.29458 0
M  V30 372 C 30.2281 1.71595 -2.17831 0
M  V30 373 H 33.1791 0.571256 -1.48062 0
M  V30 374 H 33.2001 3.24471 -1.98744 0
M  V30 375 H 32.7121 2.00276 -3.32432 0
M  V30 376 H 30.8131 3.47443 -1.34589 0
M  V30 377 H 30.9261 3.53939 -3.229 0
M  V30 378 H 29.2901 1.94547 -1.64388 0
M  V30 379 H 30.0731 1.29001 -3.18141 0
M  V30 380 N 32.5182 1.22032 0.997298 0
M  V30 381 C 33.7642 1.04376 1.73878 0
M  V30 382 C 34.0972 -0.420716 1.89588 0
M  V30 383 O 33.3722 -1.31202 1.43583 0
M  V30 384 C 33.6552 1.75047 3.14691 0
M  V30 385 C 33.5082 3.29062 3.06656 0
M  V30 386 C 34.8272 1.49928 4.13775 0
M  V30 387 H 31.9462 0.380578 0.631133 0
M  V30 388 H 34.5882 1.50312 1.16217 0
M  V30 389 H 32.7382 1.35996 3.63919 0
M  V30 390 H 34.4102 3.7753 2.65083 0
M  V30 391 H 32.6532 3.58967 2.43568 0
M  V30 392 H 33.3242 3.73683 4.06282 0
M  V30 393 H 35.8002 1.83842 3.73285 0
M  V30 394 H 34.6762 2.01878 5.10428 0
M  V30 395 H 34.9372 0.430929 4.39995 0
M  V30 396 N 33.9963 -1.19345 1.0293 0
M  V30 397 C 35.2213 -1.93538 0.745511 0
M  V30 398 C 35.6463 -1.75007 -0.689511 0
M  V30 399 O 35.0043 -1.05265 -1.47611 0
M  V30 400 C 35.0523 -3.43336 1.10239 0
M  V30 401 O 34.1563 -4.11806 0.221289 0
M  V30 402 H 33.4973 -0.604193 0.275404 0
M  V30 403 H 36.0273 -1.5141 1.37609 0
M  V30 404 H 36.0373 -3.94004 1.05947 0
M  V30 405 H 34.7123 -3.56146 2.14786 0
M  V30 406 H 33.2893 -3.715 0.322842 0
M  V30 407 N 35.4744 -0.807222 -1.35358 0
M  V30 408 C 36.6994 -0.399309 -2.0352 0
M  V30 409 C 37.1244 0.981986 -1.60433 0
M  V30 410 O 36.4824 1.63601 -0.781299 0
M  V30 411 C 36.5304 -0.491552 -3.57234 0
M  V30 412 O 35.6344 0.494754 -4.09421 0
M  V30 413 H 34.9754 -0.166682 -0.642739 0
M  V30 414 H 37.5054 -1.09328 -1.72941 0
M  V30 415 H 37.5154 -0.361588 -4.06395 0
M  V30 416 H 36.1904 -1.49907 -3.87944 0
M  V30 417 H 34.7674 0.324977 -3.71481 0
M  V30 418 N 36.9525 1.47285 -0.560781 0
M  V30 419 C 37.8995 2.30058 0.18491 0
M  V30 420 C 38.8695 1.39281 0.904986 0
M  V30 421 O 40.0545 1.68241 0.899979 0
M  V30 422 C 37.1945 3.23317 1.20666 0
M  V30 423 C 36.3075 4.29186 0.492285 0
M  V30 424 C 35.4425 5.09592 1.49964 0
M  V30 425 C 34.4815 6.07232 0.770439 0
M  V30 426 N 33.6185 6.80584 1.72479 0
M  V30 427 H 38.4585 2.93302 -0.527048 0
M  V30 428 H 35.9955 1.44568 -0.271738 0
M  V30 429 H 37.9535 3.75811 1.81168 0
M  V30 430 H 36.5835 2.61929 1.88661 0
M  V30 431 H 35.6355 3.7972 -0.227333 0
M  V30 432 H 36.9475 4.98738 -0.0787929 0
M  V30 433 H 36.1015 5.66254 2.17809 0
M  V30 434 H 34.8405 4.3995 2.10464 0
M  V30 435 H 33.8455 5.49745 0.0780846 0
M  V30 436 H 35.0705 6.78884 0.171134 0
M  V30 437 H 33.0165 6.1367 2.3183 0
M  V30 438 H 32.9335 7.46319 1.20596 0
M  V30 439 H 34.2015 7.41818 2.39428 0
M  V30 440 N 38.4306 0.297415 1.54768 0
M  V30 441 C 39.3406 -0.58983 2.27064 0
M  V30 442 C 40.3566 -1.15144 1.30453 0
M  V30 443 O 41.5326 -1.17699 1.63428 0
M  V30 444 C 38.5976 -1.74714 2.9946 0
M  V30 445 C 37.6586 -1.21997 4.11601 0
M  V30 446 C 36.8916 -2.32212 4.80535 0
M  V30 447 O 37.1146 -3.52036 4.48806 0
M  V30 448 O 36.0486 -1.99106 5.68014 0
M  V30 449 H 39.8746 -0.00348199 3.037 0
M  V30 450 H 37.4596 0.0640035 1.49263 0
M  V30 451 H 39.3416 -2.42147 3.44881 0
M  V30 452 H 38.0166 -2.32016 2.25722 0
M  V30 453 H 36.9236 -0.511458 3.70587 0
M  V30 454 H 38.2566 -0.692419 4.87305 0
M  V30 455 N 39.9087 -1.5758 0.0250728 0
M  V30 456 C 40.8557 -2.09973 -0.958129 0
M  V30 457 C 41.8257 -1.00085 -1.3256 0
M  V30 458 O 43.0107 -1.27481 -1.41962 0
M  V30 459 C 40.1507 -2.62812 -2.2366 0
M  V30 460 C 39.2637 -3.86693 -1.92594 0
M  V30 461 C 38.3987 -4.27941 -3.14707 0
M  V30 462 C 37.4377 -5.44591 -2.79442 0
M  V30 463 N 36.5747 -5.81014 -3.94167 0
M  V30 464 H 41.4147 -2.937 -0.504428 0
M  V30 465 H 38.9517 -1.45172 -0.237392 0
M  V30 466 H 40.9097 -2.91536 -2.98434 0
M  V30 467 H 39.5397 -1.81922 -2.66654 0
M  V30 468 H 38.5917 -3.64723 -1.0808 0
M  V30 469 H 39.9037 -4.71547 -1.62619 0
M  V30 470 H 39.0577 -4.58079 -3.97804 0
M  V30 471 H 37.7967 -3.41845 -3.4784 0
M  V30 472 H 36.8017 -5.1415 -1.94755 0
M  V30 473 H 38.0267 -6.32382 -2.47528 0
M  V30 474 H 35.9727 -4.97874 -4.2715 0
M  V30 475 H 35.8897 -6.60498 -3.67801 0
M  V30 476 H 37.1577 -6.15756 -4.7798 0
M  V30 477 N 41.3868 0.248026 -1.55636 0
M  V30 478 C 42.3348 1.32683 -1.91045 0
M  V30 479 C 43.3288 1.49883 -0.789401 0
M  V30 480 O 44.5348 1.51371 -0.974007 0
M  V30 481 H 40.9098 0.444272 -0.606734 0
M  V30 482 H 42.8808 1.00085 -2.81115 0
M  V30 483 C 41.6298 2.6755 -2.22064 0
M  V30 484 H 40.9528 2.55114 -3.07826 0
M  V30 485 H 42.3928 3.41912 -2.50743 0
M  V30 486 C 40.8518 3.20556 -1.0366 0
M  V30 487 O 41.3818 4.00695 -0.284016 0
M  V30 488 N 39.5878 2.78568 -0.82753 0
M  V30 489 H 39.1348 2.1351 -1.44123 0
M  V30 490 H 39.0928 3.14378 -0.0369803 0
M  V30 491 N 42.8649 1.48995 0.513639 0
M  V30 492 C 44.0929 1.61531 1.29288 0
M  V30 493 C 44.5079 0.281801 1.86685 0
M  V30 494 O 43.8649 -0.731111 1.67215 0
M  V30 495 C 43.9159 2.67449 2.43215 0
M  V30 496 O 43.6369 3.95626 1.88179 0
M  V30 497 C 45.1379 2.90575 3.34785 0
M  V30 498 H 42.3579 0.544165 0.392588 0
M  V30 499 H 44.9019 1.9494 0.617956 0
M  V30 500 H 43.0569 2.36853 3.0656 0
M  V30 501 H 43.4709 4.53868 2.62876 0
M  V30 502 H 44.9449 3.68449 4.11035 0
M  V30 503 H 45.4219 2.00011 3.91015 0
M  V30 504 H 46.0279 3.22538 2.77218 0
M  V30 505 N 44.343 -0.763751 1.37857 0
M  V30 506 C 45.29 -1.87726 1.34267 0
M  V30 507 C 46.26 -1.64807 0.206879 0
M  V30 508 O 47.445 -1.86613 0.397508 0
M  V30 509 C 44.585 -3.24896 1.16346 0
M  V30 510 C 43.698 -3.59716 2.39225 0
M  V30 511 C 42.833 -4.86137 2.14114 0
M  V30 512 C 41.872 -5.13711 3.32817 0
M  V30 513 N 41.009 -6.31323 3.07206 0
M  V30 514 H 45.849 -1.90129 2.29466 0
M  V30 515 H 43.386 -0.929433 1.14017 0
M  V30 516 H 45.344 -4.04036 1.03975 0
M  V30 517 H 43.974 -3.21847 0.247909 0
M  V30 518 H 43.026 -2.75498 2.62307 0
M  V30 519 H 44.338 -3.76027 3.27728 0
M  V30 520 H 43.492 -5.73198 1.9882 0
M  V30 521 H 42.231 -4.71945 1.22961 0
M  V30 522 H 41.236 -4.25123 3.48641 0
M  V30 523 H 42.461 -5.29807 4.24832 0
M  V30 524 H 40.407 -6.18474 2.1869 0
M  V30 525 H 40.324 -6.48087 3.89254 0
M  V30 526 H 41.592 -7.213 2.95546 0
M  V30 527 N 45.8211 -1.22559 -0.990812 0
M  V30 528 C 47.0491 -1.07779 -1.76611 0
M  V30 529 C 47.4641 0.371513 -1.85109 0
M  V30 530 O 46.8211 1.25737 -1.32274 0
M  V30 531 C 46.8721 -1.68512 -3.19822 0
M  V30 532 O 46.5931 -3.07774 -3.1178 0
M  V30 533 C 48.0941 -1.59035 -4.13791 0
M  V30 534 H 45.3141 -0.377729 -0.554583 0
M  V30 535 H 47.8581 -1.62195 -1.24551 0
M  V30 536 H 46.0131 -1.18154 -3.68942 0
M  V30 537 H 46.4271 -3.37062 -4.01858 0
M  V30 538 H 47.9011 -2.0625 -5.1202 0
M  V30 539 H 48.3781 -0.547273 -4.35777 0
M  V30 540 H 48.9841 -2.08709 -3.70568 0
M  V30 541 N 47.2992 1.18797 -1.03562 0
M  V30 542 C 48.5452 1.8893 -0.737113 0
M  V30 543 C 48.8782 1.79837 0.732956 0
M  V30 544 O 48.1532 1.19525 1.5344 0
M  V30 545 C 48.4362 3.39607 -1.19745 0
M  V30 546 C 48.2892 3.57537 -2.72924 0
M  V30 547 C 49.6082 4.33069 -0.783526 0
M  V30 548 H 46.7272 0.686057 -0.269249 0
M  V30 549 H 49.3692 1.39797 -1.28673 0
M  V30 550 H 47.5192 3.81583 -0.729855 0
M  V30 551 H 49.1912 3.24688 -3.27682 0
M  V30 552 H 47.4342 3.00363 -3.12993 0
M  V30 553 H 48.1052 4.63238 -3.00191 0
M  V30 554 H 50.5812 3.98846 -1.18581 0
M  V30 555 H 49.4572 5.3707 -1.13343 0
M  V30 556 H 49.7182 4.40986 0.313681 0
M  V30 557 N 48.7773 0.814389 1.34928 0
M  V30 558 C 49.7093 0.187834 2.28429 0
M  V30 559 C 50.7223 -0.617374 1.5064 0
M  V30 560 O 51.9113 -0.448454 1.72775 0
M  V30 561 C 49.0113 -0.755962 3.30361 0
M  V30 562 C 48.1843 0.00456686 4.374 0
M  V30 563 C 47.2433 -0.858876 5.19143 0
M  V30 564 O 46.2693 -0.306968 5.68372 0
M  V30 565 N 47.4713 -2.17988 5.38016 0
M  V30 566 H 50.2363 0.991105 2.82838 0
M  V30 567 H 47.7973 0.670561 1.4736 0
M  V30 568 H 49.7893 -1.338 3.81942 0
M  V30 569 H 48.3593 -1.46001 2.7641 0
M  V30 570 H 47.5793 0.767865 3.86649 0
M  V30 571 H 48.8673 0.528422 5.06049 0
M  V30 572 H 48.2653 -2.65212 4.99679 0
M  V30 573 H 46.8223 -2.71098 5.92747 0
M  V30 574 N 50.2554 -1.46986 0.568584 0
M  V30 575 C 51.5324 -1.95592 -0.0174074 0
M  V30 576 C 51.9124 -1.51124 -1.47393 0
M  V30 577 O 51.2604 -0.755329 -2.15655 0
M  V30 578 C 51.4704 -3.48719 0.139913 0
M  V30 579 C 52.8184 -4.246 0.000426376 0
M  V30 580 O 53.8424 -3.56135 0.0680316 0
M  V30 581 O 52.7014 -5.46302 -0.146988 0
M  V30 582 H 49.7954 -0.82498 -0.0577599 0
M  V30 583 H 52.3414 -1.57335 0.635909 0
M  V30 584 H 51.1134 -3.73927 1.15301 0
M  V30 585 H 50.7364 -3.93771 -0.550491 0
M  V30 586 N 51.7335 -0.305618 -1.54608 0
M  V30 587 C 52.9635 0.304333 -2.04346 0
M  V30 588 C 53.3715 1.47715 -1.18224 0
M  V30 589 O 52.7145 1.82591 -0.201577 0
M  V30 590 C 52.7765 0.819031 -3.50046 0
M  V30 591 C 52.4405 -0.22912 -4.56425 0
M  V30 592 C 53.4375 -1.05914 -5.08997 0
M  V30 593 C 51.1225 -0.372148 -5.0092 0
M  V30 594 C 53.1165 -2.01809 -6.04609 0
M  V30 595 C 50.8035 -1.33454 -5.9635 0
M  V30 596 C 51.8015 -2.15599 -6.48079 0
M  V30 597 O 51.4895 -3.10205 -7.41639 0
M  V30 598 H 51.2215 0.0693996 -0.672428 0
M  V30 599 H 53.7755 -0.444548 -2.00532 0
M  V30 600 H 52.0055 1.61852 -3.51199 0
M  V30 601 H 53.6945 1.34537 -3.82955 0
M  V30 602 H 54.4605 -0.959538 -4.75413 0
M  V30 603 H 50.3395 0.257304 -4.60281 0
M  V30 604 H 53.8835 -2.65966 -6.44909 0
M  V30 605 H 49.7805 -1.43485 -6.29351 0
M  V30 606 H 50.5485 -3.05237 -7.59455 0
M  V30 607 N 53.2116 1.57565 -0.0334293 0
M  V30 608 C 54.1416 2.13511 0.945265 0
M  V30 609 C 55.1226 1.05231 1.33643 0
M  V30 610 O 56.3076 1.33084 1.41429 0
M  V30 611 C 53.4376 2.6657 2.22616 0
M  V30 612 C 52.3916 3.79676 1.97561 0
M  V30 613 C 51.7176 4.1918 3.31952 0
M  V30 614 C 53.0176 5.0557 1.31135 0
M  V30 615 H 54.7116 2.95538 0.479325 0
M  V30 616 H 52.2576 1.42166 0.229115 0
M  V30 617 H 54.2106 3.04344 2.91466 0
M  V30 618 H 52.9346 1.8171 2.71384 0
M  V30 619 H 51.5936 3.42347 1.31127 0
M  V30 620 H 51.2416 3.31296 3.78487 0
M  V30 621 H 50.9416 4.95402 3.15992 0
M  V30 622 H 52.4656 4.59541 4.02063 0
M  V30 623 H 53.8796 5.40903 1.89992 0
M  V30 624 H 52.2766 5.86818 1.25559 0
M  V30 625 H 53.3466 4.84062 0.284894 0
M  V30 626 N 54.6897 -0.239769 1.55765 0
M  V30 627 C 55.5997 -1.31831 1.94056 0
M  V30 628 C 56.6157 -1.52275 0.841925 0
M  V30 629 O 57.7917 -1.65759 1.14394 0
M  V30 630 C 54.8567 -2.65156 2.23368 0
M  V30 631 C 53.9177 -2.53173 3.46701 0
M  V30 632 C 53.1507 -3.8014 3.74606 0
M  V30 633 O 53.3737 -4.82343 3.04469 0
M  V30 634 O 52.3077 -3.78344 4.68123 0
M  V30 635 H 56.1337 -1.02347 2.85935 0
M  V30 636 H 53.7187 -0.441123 1.42739 0
M  V30 637 H 55.6007 -3.43929 2.43497 0
M  V30 638 H 54.2757 -2.94358 1.34666 0
M  V30 639 H 53.1827 -1.72662 3.31871 0
M  V30 640 H 54.5157 -2.28915 4.35728 0
M  V30 641 N 56.1678 -1.49265 -0.50573 0
M  V30 642 C 57.1148 -1.65585 -1.6078 0
M  V30 643 C 58.0848 -0.497396 -1.58478 0
M  V30 644 O 59.2698 -0.72385 -1.76536 0
M  V30 645 C 56.4098 -1.72408 -2.98948 0
M  V30 646 C 55.5228 -2.99525 -3.11301 0
M  V30 647 C 54.6578 -2.97356 -4.40174 0
M  V30 648 C 53.6968 -4.19074 -4.46143 0
M  V30 649 N 52.8338 -4.14841 -5.66437 0
M  V30 650 H 57.6738 -2.59688 -1.46172 0
M  V30 651 H 55.2108 -1.28761 -0.711261 0
M  V30 652 H 57.1688 -1.74344 -3.79025 0
M  V30 653 H 55.7988 -0.817753 -3.1227 0
M  V30 654 H 54.8508 -3.07222 -2.24318 0
M  V30 655 H 56.1628 -3.89518 -3.11572 0
M  V30 656 H 55.3168 -2.97829 -5.28567 0
M  V30 657 H 54.0558 -2.05133 -4.42461 0
M  V30 658 H 53.0608 -4.1885 -3.56153 0
M  V30 659 H 54.2858 -5.12483 -4.45575 0
M  V30 660 H 52.2318 -3.25453 -5.69575 0
M  V30 661 H 52.1488 -4.98564 -5.68304 0
M  V30 662 H 53.4168 -4.1941 -6.57051 0
M  V30 663 N 57.6459 0.756429 -1.3826 0
M  V30 664 C 58.8929 1.51547 -1.34312 0
M  V30 665 C 59.2209 1.94382 0.0677144 0
M  V30 666 O 58.4759 1.65514 1.04421 0
M  V30 667 C 58.7749 2.78313 -2.24224 0
M  V30 668 C 58.4409 2.54455 -3.72241 0
M  V30 669 C 57.1029 2.47657 -4.12576 0
M  V30 670 C 59.4549 2.3354 -4.65949 0
M  V30 671 C 56.7829 2.17956 -5.44713 0
M  V30 672 C 59.1349 2.05359 -5.9834 0
M  V30 673 C 57.7989 1.97016 -6.37762 0
M  V30 674 H 57.0689 0.55455 -0.491482 0
M  V30 675 H 59.7159 0.870039 -1.70595 0
M  V30 676 H 58.0209 3.47492 -1.80987 0
M  V30 677 H 59.7179 3.36259 -2.18474 0
M  V30 678 H 56.3079 2.60616 -3.40261 0
M  V30 679 H 60.4919 2.37772 -4.35635 0
M  V30 680 H 55.7479 2.10003 -5.74203 0
M  V30 681 H 59.9219 1.88179 -6.70494 0
M  V30 682 H 57.5489 1.73766 -7.40074 0
M  V30 683 N 59.124 1.23083 0.984299 0
M  V30 684 C 60.354 1.08556 1.75781 0
M  V30 685 C 60.762 -0.366171 1.85623 0
M  V30 686 O 60.105 -1.26524 1.33182 0
M  V30 687 C 60.167 1.63208 3.20318 0
M  V30 688 C 59.831 3.11922 3.33997 0
M  V30 689 C 60.828 4.09259 3.2063 0
M  V30 690 C 58.513 3.51552 3.58771 0
M  V30 691 C 60.507 5.4421 3.31835 0
M  V30 692 C 58.194 4.86649 3.69616 0
M  V30 693 C 59.192 5.82787 3.56157 0
M  V30 694 O 58.88 7.15431 3.66626 0
M  V30 695 H 58.612 0.380713 0.5586 0
M  V30 696 H 61.166 1.63321 1.2456 0
M  V30 697 H 59.396 1.0286 3.72769 0
M  V30 698 H 61.085 1.44216 3.79416 0
M  V30 699 H 61.851 3.79984 3.01392 0
M  V30 700 H 57.73 2.77239 3.6832 0
M  V30 701 H 61.274 6.1923 3.21247 0
M  V30 702 H 57.171 5.15601 3.88363 0
M  V30 703 H 57.939 7.23127 3.83445 0
M  V30 704 N 60.6021 -1.18246 1.0419 0
M  V30 705 C 61.5341 -2.2142 0.592088 0
M  V30 706 C 62.5471 -1.59233 -0.338909 0
M  V30 707 O 63.7361 -1.78002 -0.133231 0
M  V30 708 C 60.8361 -3.38546 -0.154854 0
M  V30 709 C 60.0091 -4.3031 0.784328 0
M  V30 710 C 59.0681 -5.26138 0.0804583 0
M  V30 711 O 58.0941 -5.64738 0.711292 0
M  V30 712 N 59.2961 -5.68261 -1.18574 0
M  V30 713 H 62.0611 -2.60636 1.47949 0
M  V30 714 H 59.6221 -1.33044 0.922544 0
M  V30 715 H 61.6141 -3.99678 -0.635606 0
M  V30 716 H 60.1841 -2.98012 -0.943811 0
M  V30 717 H 59.4041 -3.66764 1.44491 0
M  V30 718 H 60.6921 -4.8852 1.42218 0
M  V30 719 H 60.0901 -5.38957 -1.71876 0
M  V30 720 H 58.6471 -6.31584 -1.61074 0
M  V30 721 N 62.0802 -0.821533 -1.34494 0
M  V30 722 C 63.0102 -0.257138 -2.3208 0
M  V30 723 C 63.9912 0.625645 -1.58176 0
M  V30 724 O 65.1762 0.552811 -1.86166 0
M  V30 725 C 62.3062 0.582958 -3.42372 0
M  V30 726 C 61.2602 -0.202571 -4.2752 0
M  V30 727 C 60.5862 0.760179 -5.29269 0
M  V30 728 C 61.8862 -1.40998 -5.02908 0
M  V30 729 H 63.5802 -1.07247 -2.79532 0
M  V30 730 H 61.1262 -0.517163 -1.34393 0
M  V30 731 H 63.0792 0.987972 -4.09655 0
M  V30 732 H 61.8032 1.43133 -2.93565 0
M  V30 733 H 60.4622 -0.588936 -3.61838 0
M  V30 734 H 60.1102 1.60447 -4.76724 0
M  V30 735 H 59.8102 0.238809 -5.87115 0
M  V30 736 H 61.3342 1.16308 -5.9942 0
M  V30 737 H 62.7482 -1.07905 -5.63054 0
M  V30 738 H 61.1452 -1.86689 -5.70322 0
M  V30 739 H 62.2152 -2.1889 -4.32684 0
M  V30 740 N 63.5583 1.46682 -0.576371 0
M  V30 741 C 64.9693 1.86112 -0.148091 0
M  V30 742 C 65.3203 1.48073 1.2872 0
M  V30 743 O 64.4453 0.892656 1.97131 0
M  V30 744 C 65.0403 3.37786 -0.261982 0
M  V30 745 C 63.5993 3.76235 0.111384 0
M  V30 746 C 62.7463 2.70713 -0.60083 0
M  V30 747 H 65.6973 1.37927 -0.78497 0
M  V30 748 H 65.7183 3.77007 0.514364 0
M  V30 749 H 65.2303 3.6544 -1.30671 0
M  V30 750 H 63.3313 3.54198 1.15649 0
M  V30 751 H 63.4443 4.78391 -0.26052 0
M  V30 752 H 61.8083 2.54666 -0.0417783 0
M  V30 753 H 62.5913 3.01208 -1.64708 0
M  V30 754 N 65.0364 0.313813 1.54444 0
M  V30 755 C 66.2614 -0.296681 2.05267 0
M  V30 756 C 66.6864 -1.45757 1.18897 0
M  V30 757 O 66.0444 -1.80239 0.195886 0
M  V30 758 C 66.0924 -0.71831 3.53373 0
M  V30 759 O 65.1964 -1.82175 3.69981 0
M  V30 760 H 64.5374 -0.0554061 0.661684 0
M  V30 761 H 67.0674 0.459387 1.99376 0
M  V30 762 H 67.0774 -1.00364 3.95463 0
M  V30 763 H 65.7524 0.130821 4.15694 0
M  V30 764 H 64.3294 -1.53598 3.39797 0
M  V30 765 N 66.5145 -1.57545 0.0417849 0
M  V30 766 C 67.4625 -2.12148 -0.953723 0
M  V30 767 C 68.4565 -1.05104 -1.32852 0
M  V30 768 O 69.6625 -1.23524 -1.30927 0
M  V30 769 H 66.0375 -0.677957 -0.325389 0
M  V30 770 H 68.0085 -2.94707 -0.467991 0
M  V30 771 C 66.7575 -2.6739 -2.22257 0
M  V30 772 H 66.0805 -3.49413 -1.94295 0
M  V30 773 H 67.5205 -3.09227 -2.90094 0
M  V30 774 C 65.9795 -1.60723 -2.96091 0
M  V30 775 O 66.5095 -1.01449 -3.88679 0
M  V30 776 N 64.7155 -1.32466 -2.58652 0
M  V30 777 H 64.2625 -1.80856 -1.83437 0
M  V30 778 H 64.2205 -0.61325 -3.08361 0
M  V30 779 N 67.9926 0.231505 -1.5589 0
M  V30 780 C 68.9246 1.31006 -1.8807 0
M  V30 781 C 69.9376 1.43539 -0.768145 0
M  V30 782 O 71.1266 1.44614 -1.04638 0
M  V30 783 C 68.2266 2.68688 -2.06543 0
M  V30 784 C 67.3996 2.78228 -3.37502 0
M  V30 785 C 66.4586 3.96857 -3.4553 0
M  V30 786 O 65.4846 3.85662 -4.18633 0
M  V30 787 N 66.6866 5.1072 -2.75944 0
M  V30 788 H 69.4516 1.03731 -2.81176 0
M  V30 789 H 67.0126 0.421573 -1.56315 0
M  V30 790 H 69.0046 3.46412 -2.09239 0
M  V30 791 H 67.5746 2.88605 -1.20109 0
M  V30 792 H 66.7946 1.87059 -3.46991 0
M  V30 793 H 68.0826 2.81564 -4.23791 0
M  V30 794 H 67.4806 5.2271 -2.16311 0
M  V30 795 H 66.0376 5.86523 -2.84314 0
M  V30 796 N 69.4707 1.49531 0.497807 0
M  V30 797 C 70.7007 1.62657 1.27382 0
M  V30 798 C 71.1087 0.298488 1.86831 0
M  V30 799 O 70.4517 -0.72647 1.68725 0
M  V30 800 C 70.5137 2.6393 2.44093 0
M  V30 801 C 70.1777 4.08195 2.05489 0
M  V30 802 C 71.1747 4.949 1.59279 0
M  V30 803 C 68.8597 4.53948 2.15026 0
M  V30 804 C 70.8537 6.25397 1.23113 0
M  V30 805 C 68.5407 5.84458 1.78473 0
M  V30 806 C 69.5387 6.70006 1.32591 0
M  V30 807 O 69.2267 7.98083 0.965327 0
M  V30 808 H 68.9587 0.550429 0.392434 0
M  V30 809 H 71.5127 1.96325 0.603801 0
M  V30 810 H 69.7427 2.25449 3.14181 0
M  V30 811 H 71.4317 2.66552 3.06113 0
M  V30 812 H 72.1977 4.60779 1.51354 0
M  V30 813 H 68.0767 3.87525 2.4969 0
M  V30 814 H 71.6207 6.92125 0.872299 0
M  V30 815 H 67.5177 6.18107 1.86048 0
M  V30 816 H 68.2857 8.11122 1.09652 0
M  V30 817 N 70.9488 -0.749086 1.3866 0
M  V30 818 C 71.8808 -1.87273 1.32142 0
M  V30 819 C 72.8938 -1.61127 0.232787 0
M  V30 820 O 74.0828 -1.71623 0.49069 0
M  V30 821 C 71.1828 -3.23005 1.02571 0
M  V30 822 C 70.3558 -3.7662 2.22433 0
M  V30 823 C 69.4148 -4.90879 1.89537 0
M  V30 824 O 68.4408 -5.05276 2.62078 0
M  V30 825 N 69.6428 -5.74198 0.853031 0
M  V30 826 H 72.4078 -1.93373 2.28969 0
M  V30 827 H 69.9688 -0.929216 1.32579 0
M  V30 828 H 71.9608 -3.96992 0.786085 0
M  V30 829 H 70.5308 -3.12262 0.145249 0
M  V30 830 H 69.7508 -2.94147 2.62434 0
M  V30 831 H 71.0388 -4.09173 3.02415 0
M  V30 832 H 70.4368 -5.6514 0.25155 0
M  V30 833 H 68.9938 -6.48313 0.67329 0
M  V30 834 N 72.4269 -1.23603 -0.977757 0
M  V30 835 C 73.6519 -1.09735 -1.75991 0
M  V30 836 C 74.0769 0.346858 -1.84874 0
M  V30 837 O 73.4349 1.25093 -1.3123 0
M  V30 838 C 73.4829 -1.73051 -3.16363 0
M  V30 839 O 72.5869 -0.994452 -4.0023 0
M  V30 840 H 71.9279 -0.384476 -0.541364 0
M  V30 841 H 74.4579 -1.6371 -1.2272 0
M  V30 842 H 74.4679 -1.78398 -3.66931 0
M  V30 843 H 73.1429 -2.78137 -3.09213 0
M  V30 844 H 71.7199 -1.01812 -3.58732 0
M  V30 845 N 73.905 1.17692 -1.04816 0
M  V30 846 C 75.133 1.91786 -0.776254 0
M  V30 847 C 75.548 1.76604 0.667577 0
M  V30 848 O 74.905 1.10067 1.45573 0
M  V30 849 C 74.956 3.42967 -1.14263 0
M  V30 850 O 74.677 3.57678 -2.52978 0
M  V30 851 C 76.178 4.34144 -0.896311 0
M  V30 852 H 73.398 0.608624 -0.282519 0
M  V30 853 H 75.942 1.49268 -1.39783 0
M  V30 854 H 74.097 3.83245 -0.565874 0
M  V30 855 H 74.511 4.51319 -2.67229 0
M  V30 856 H 75.985 5.38744 -1.20244 0
M  V30 857 H 76.462 4.38876 0.168636 0
M  V30 858 H 77.068 3.99574 -1.45672 0
M  V30 859 N 75.3831 0.828654 1.34056 0
M  V30 860 C 76.7991 0.515135 1.51058 0
M  V30 861 C 76.9991 -0.959581 1.77184 0
M  V30 862 O 76.0551 -1.74382 1.82612 0
M  V30 863 C 77.3681 1.37963 2.67183 0
M  V30 864 C 78.9161 1.37735 2.81066 0
M  V30 865 C 79.3911 2.22645 4.00241 0
M  V30 866 N 80.8821 2.203 4.07458 0
M  V30 867 C 81.6171 2.82744 4.98842 0
M  V30 868 N 81.1131 3.54201 5.9541 0
M  V30 869 N 82.9061 2.72268 4.91759 0
M  V30 870 H 75.0571 1.78343 1.15358 0
M  V30 871 H 77.3201 0.760304 0.566252 0
M  V30 872 H 77.0261 2.42714 2.54525 0
M  V30 873 H 76.9001 1.0484 3.62338 0
M  V30 874 H 79.2871 0.337593 2.93163 0
M  V30 875 H 79.3681 1.74859 1.86703 0
M  V30 876 H 79.0121 3.26674 3.88905 0
M  V30 877 H 78.9421 1.82869 4.93829 0
M  V30 878 H 81.4331 1.68327 3.38341 0
M  V30 879 H 81.7461 3.9908 6.61782 0
M  V30 880 H 80.0911 3.58308 5.95517 0
M  V30 881 H 83.2821 2.16014 4.15278 0
M  V30 882 H 83.4551 3.21219 5.62781 0
M  V30 883 N 76.8612 -1.46375 0.584142 0
M  V30 884 C 77.8082 -2.30323 -0.148286 0
M  V30 885 C 78.7782 -1.40703 -0.882713 0
M  V30 886 O 79.9632 -1.69651 -0.873099 0
M  V30 887 C 77.1032 -3.25196 -1.15507 0
M  V30 888 C 76.2162 -4.29915 -0.423943 0
M  V30 889 C 75.3512 -5.11914 -1.41838 0
M  V30 890 C 74.3902 -6.08381 -0.673736 0
M  V30 891 N 73.5272 -6.83242 -1.6163 0
M  V30 892 H 78.3672 -2.92427 0.573644 0
M  V30 893 H 75.9042 -1.44118 0.294703 0
M  V30 894 H 77.8622 -3.78646 -1.75166 0
M  V30 895 H 76.4922 -2.64898 -1.8447 0
M  V30 896 H 75.5442 -3.7931 0.287714 0
M  V30 897 H 76.8562 -4.98549 0.158128 0
M  V30 898 H 76.0102 -5.69648 -2.08773 0
M  V30 899 H 74.7492 -4.43243 -2.03438 0
M  V30 900 H 73.7542 -5.49799 0.00938483 0
M  V30 901 H 74.9792 -6.79071 -0.0631082 0
M  V30 902 H 72.9252 -6.1728 -2.22038 0
M  V30 903 H 72.8422 -7.48144 -1.08707 0
M  V30 904 H 74.1102 -7.45534 -2.27596 0
M  V30 905 N 78.3393 -0.321999 -1.54275 0
M  V30 906 C 79.2873 0.560206 -2.25753 0
M  V30 907 C 80.2813 1.11984 -1.27106 0
M  V30 908 O 81.4873 1.06806 -1.44888 0
M  V30 909 H 77.8623 0.199304 -0.725108 0
M  V30 910 H 79.8333 -0.0649365 -2.98329 0
M  V30 911 C 78.5823 1.71023 -3.02731 0
M  V30 912 H 77.9053 1.28885 -3.78456 0
M  V30 913 H 79.3453 2.30314 -3.55993 0
M  V30 914 C 77.8043 2.62692 -2.10938 0
M  V30 915 O 78.3343 3.64364 -1.6912 0
M  V30 916 N 76.5403 2.30891 -1.76459 0
M  V30 917 H 76.0873 1.48253 -2.10663 0
M  V30 918 H 76.0453 2.92487 -1.1532 0
M  V30 919 N 79.8174 1.5752 -0.0501392 0
M  V30 920 C 81.0654 1.9227 0.622642 0
M  V30 921 C 81.3864 0.929083 1.71444 0
M  V30 922 O 80.6564 -0.0262186 1.95882 0
M  V30 923 H 79.2364 0.709739 0.232981 0
M  V30 924 H 81.8984 1.94628 -0.102898 0
M  V30 925 H 80.9944 2.93479 1.06191 0
M  V30 926 N 81.2955 -0.223234 1.56011 0
M  V30 927 C 82.5235 -0.964812 1.83027 0
M  V30 928 C 82.9385 -1.78013 0.62904 0
M  V30 929 O 82.2955 -1.78008 -0.402414 0
M  V30 930 C 82.3465 -1.88373 3.08542 0
M  V30 931 O 82.0675 -1.10137 4.2403 0
M  V30 932 C 83.5685 -2.73934 3.48533 0
M  V30 933 H 80.7885 -0.282842 0.608475 0
M  V30 934 H 83.3325 -0.238971 2.03099 0
M  V30 935 H 81.4875 -2.56354 2.9045 0
M  V30 936 H 81.9015 -1.72501 4.95322 0
M  V30 937 H 83.3755 -3.34117 4.39397 0
M  V30 938 H 83.8525 -3.46244 2.70207 0
M  V30 939 H 84.4585 -2.11369 3.69057 0
M  V30 940 N 82.7736 -1.49793 -0.48987 0
M  V30 941 C 83.7216 -1.67783 -1.61095 0
M  V30 942 C 84.7156 -0.543683 -1.60438 0
M  V30 943 O 85.9216 -0.723647 -1.64813 0
M  V30 944 H 82.2966 -0.529255 -0.534222 0
M  V30 945 H 84.2676 -2.61861 -1.43078 0
M  V30 946 C 83.0166 -1.77191 -2.99164 0
M  V30 947 H 82.3396 -2.63841 -3.0038 0
M  V30 948 H 83.7796 -1.93809 -3.77113 0
M  V30 949 C 82.2386 -0.519203 -3.32875 0
M  V30 950 O 82.7686 0.350124 -4.00171 0
M  V30 951 N 80.9746 -0.378816 -2.8812 0
M  V30 952 H 80.5216 -1.08725 -2.33531 0
M  V30 953 H 80.4796 0.458239 -3.11043 0
M  V30 954 N 84.2517 0.741722 -1.39055 0
M  V30 955 C 85.4977 1.50336 -1.36113 0
M  V30 956 C 85.8307 1.94148 0.0450796 0
M  V30 957 O 85.1057 1.66301 1.00868 0
M  V30 958 C 85.3887 2.74773 -2.32749 0
M  V30 959 C 85.2417 2.37023 -3.82283 0
M  V30 960 C 86.5607 3.76846 -2.27322 0
M  V30 961 H 83.6797 0.545351 -0.495743 0
M  V30 962 H 86.3217 0.848624 -1.69995 0
M  V30 963 H 84.4717 3.30639 -2.03986 0
M  V30 964 H 86.1437 1.8684 -4.21768 0
M  V30 965 H 84.3867 1.69334 -3.99385 0
M  V30 966 H 85.0577 3.26104 -4.45376 0
M  V30 967 H 87.5337 3.30548 -2.5274 0
M  V30 968 H 86.4097 4.6159 -2.97028 0
M  V30 969 H 86.6707 4.23286 -1.27599 0
M  V30 970 N 85.7298 1.2412 0.971189 0
M  V30 971 C 86.9788 1.07284 1.70801 0
M  V30 972 C 87.2918 -0.388902 1.91695 0
M  V30 973 O 88.4978 -0.677379 2.62914 0
M  V30 974 C 86.9538 1.87145 3.07416 0
M  V30 975 C 86.5618 3.37707 2.94377 0
M  V30 976 C 88.3058 1.78828 3.84995 0
M  V30 977 C 86.2128 4.09925 4.26281 0
M  V30 978 H 85.1428 0.397854 0.64049 0
M  V30 979 H 87.7938 1.4817 1.0825 0
M  V30 980 H 86.1758 1.39071 3.70777 0
M  V30 981 H 87.3498 3.93335 2.4005 0
M  V30 982 H 85.6648 3.46938 2.30267 0
M  V30 983 H 88.2618 2.30089 4.82662 0
M  V30 984 H 88.6048 0.75284 4.09436 0
M  V30 985 H 89.1378 2.24563 3.28354 0
M  V30 986 H 85.8768 5.13813 4.07033 0
M  V30 987 H 85.3968 3.59083 4.80437 0
M  V30 988 H 87.0758 4.1673 4.94919 0
M  V30 989 N 87.2079 -1.17134 1.05439 0
M  V30 990 C 88.4539 -1.87733 0.767077 0
M  V30 991 C 88.7869 -1.8098 -0.704253 0
M  V30 992 O 88.0619 -1.21951 -1.5152 0
M  V30 993 C 88.3449 -3.37659 1.25133 0
M  V30 994 C 88.1979 -3.53149 2.78578 0
M  V30 995 C 89.5169 -4.31768 0.852324 0
M  V30 996 H 86.6359 -0.681687 0.280129 0
M  V30 997 H 89.2779 -1.37732 1.30881 0
M  V30 998 H 87.4279 -3.80373 0.790469 0
M  V30 999 H 89.0999 -3.19434 3.32806 0
M  V30 1000 H 87.3429 -2.95345 3.17732 0
M  V30 1001 H 88.0139 -4.58403 3.07523 0
M  V30 1002 H 90.4899 -3.96909 1.24911 0
M  V30 1003 H 89.3659 -5.35199 1.21873 0
M  V30 1004 H 89.6269 -4.41429 -0.243485 0
M  V30 1005 N 88.686 -0.835752 -1.33615 0
M  V30 1006 C 89.596 -0.269088 -2.33052 0
M  V30 1007 C 90.612 0.603251 -1.63208 0
M  V30 1008 O 91.788 0.508112 -1.94885 0
M  V30 1009 C 88.853 0.549091 -3.42324 0
M  V30 1010 C 87.914 -0.347156 -4.27894 0
M  V30 1011 C 87.147 0.43207 -5.31948 0
M  V30 1012 O 87.37 1.66409 -5.45586 0
M  V30 1013 O 86.304 -0.192298 -6.01593 0
M  V30 1014 H 90.13 -1.09243 -2.83372 0
M  V30 1015 H 87.715 -0.598198 -1.36901 0
M  V30 1016 H 89.597 1.01414 -4.09015 0
M  V30 1017 H 88.272 1.34955 -2.94226 0
M  V30 1018 H 87.179 -0.859979 -3.64081 0
M  V30 1019 H 88.512 -1.1123 -4.79467 0
M  V30 1020 N 90.1641 1.46063 -0.591896 0
M  V30 1021 C 91.1111 2.30399 0.136069 0
M  V30 1022 C 92.0811 1.41169 0.875238 0
M  V30 1023 O 93.2661 1.70112 0.86409 0
M  V30 1024 C 90.4061 3.25804 1.13781 0
M  V30 1025 C 89.5191 4.30134 0.401137 0
M  V30 1026 C 88.6541 5.12659 1.39121 0
M  V30 1027 C 87.6931 6.0873 0.641462 0
M  V30 1028 N 86.8301 6.8409 1.58004 0
M  V30 1029 H 91.6701 2.92118 -0.589144 0
M  V30 1030 H 89.2071 1.43959 -0.302342 0
M  V30 1031 H 91.1651 3.79569 1.73156 0
M  V30 1032 H 89.7951 2.65872 1.83062 0
M  V30 1033 H 88.8471 3.79152 -0.307826 0
M  V30 1034 H 90.1591 4.98458 -0.184565 0
M  V30 1035 H 89.3131 5.70747 2.05749 0
M  V30 1036 H 88.0521 4.44316 2.01084 0
M  V30 1037 H 87.0571 5.49786 -0.0385419 0
M  V30 1038 H 88.2821 6.79095 0.0270945 0
M  V30 1039 H 86.2281 6.18449 2.18761 0
M  V30 1040 H 86.1451 7.48709 1.04738 0
M  V30 1041 H 87.4131 7.4673 2.23639 0
M  V30 1042 N 91.6422 0.330177 1.54103 0
M  V30 1043 C 92.5722 -0.525353 2.27513 0
M  V30 1044 C 93.5532 -1.11383 1.2856 0
M  V30 1045 O 94.7382 -1.13773 1.57383 0
M  V30 1046 C 91.8682 -1.6831 3.03791 0
M  V30 1047 C 90.8222 -1.2236 4.10137 0
M  V30 1048 C 90.1482 -2.46882 4.74293 0
M  V30 1049 C 91.4482 -0.333697 5.21233 0
M  V30 1050 H 93.1422 0.087013 2.99274 0
M  V30 1051 H 90.6882 0.0432893 1.43935 0
M  V30 1052 H 92.6412 -2.28795 3.5388 0
M  V30 1053 H 91.3652 -2.32216 2.29659 0
M  V30 1054 H 90.0242 -0.64165 3.60941 0
M  V30 1055 H 89.6722 -3.09165 3.96769 0
M  V30 1056 H 89.3722 -2.16825 5.46133 0
M  V30 1057 H 90.8962 -3.08117 5.27159 0
M  V30 1058 H 92.3102 -0.845013 5.67038 0
M  V30 1059 H 90.7072 -0.125612 5.99969 0
M  V30 1060 H 91.7772 0.633724 4.80741 0
M  V30 1061 N 93.1203 -1.57491 0.0584922 0
M  V30 1062 C 94.0673 -2.11958 -0.913376 0
M  V30 1063 C 95.0373 -1.02875 -1.30407 0
M  V30 1064 O 96.2223 -1.30464 -1.39226 0
M  V30 1065 C 93.3623 -2.67497 -2.18035 0
M  V30 1066 C 92.4753 -3.90691 -1.84349 0
M  V30 1067 C 91.6103 -4.3452 -3.05559 0
M  V30 1068 C 90.6493 -5.50395 -2.67827 0
M  V30 1069 N 89.7863 -5.89244 -3.81754 0
M  V30 1070 H 94.6263 -2.94704 -0.442017 0
M  V30 1071 H 92.1633 -1.45643 -0.206545 0
M  V30 1072 H 94.1213 -2.978 -2.92183 0
M  V30 1073 H 92.7513 -1.87537 -2.62735 0
M  V30 1074 H 91.8033 -3.66934 -1.00319 0
M  V30 1075 H 93.1153 -4.7489 -1.5258 0
M  V30 1076 H 92.2693 -4.66414 -3.87998 0
M  V30 1077 H 91.0083 -3.49147 -3.40511 0
M  V30 1078 H 90.0133 -5.18165 -1.83806 0
M  V30 1079 H 91.2383 -6.3749 -2.34059 0
M  V30 1080 H 89.1843 -5.06823 -4.16493 0
M  V30 1081 H 89.1013 -6.68151 -3.53708 0
M  V30 1082 H 90.3693 -6.25756 -4.64811 0
M  V30 1083 N 94.5984 0.214957 -1.56127 0
M  V30 1084 C 95.5084 1.28727 -1.96129 0
M  V30 1085 C 96.5244 1.50916 -0.866044 0
M  V30 1086 O 97.7004 1.63918 -1.17016 0
M  V30 1087 C 94.7654 2.61569 -2.27558 0
M  V30 1088 C 93.8264 2.47625 -3.50685 0
M  V30 1089 C 93.0594 3.74132 -3.80606 0
M  V30 1090 O 93.2824 4.77438 -3.12104 0
M  V30 1091 O 92.2164 3.70849 -4.74083 0
M  V30 1092 H 96.0424 0.977855 -2.87527 0
M  V30 1093 H 93.6274 0.418358 -1.43423 0
M  V30 1094 H 95.5094 3.40012 -2.48938 0
M  V30 1095 H 94.1844 2.92178 -1.39332 0
M  V30 1096 H 93.0914 1.67361 -3.34576 0
M  V30 1097 H 94.4244 2.21954 -4.39315 0
M  V30 1098 N 96.0765 1.50051 0.48192 0
M  V30 1099 C 97.0095 1.62749 1.59963 0
M  V30 1100 C 97.9875 0.475903 1.5548 0
M  V30 1101 O 99.1715 0.693986 1.7526 0
M  V30 1102 C 96.2985 1.60008 2.98522 0
M  V30 1103 C 95.3445 2.80596 3.21198 0
M  V30 1104 S 96.1775 4.42038 3.02262 0
M  V30 1105 C 97.3335 4.41973 4.43182 0
M  V30 1106 H 97.5665 2.57296 1.4895 0
M  V30 1107 H 95.0995 1.39179 0.668477 0
M  V30 1108 H 97.0575 1.59112 3.78409 0
M  V30 1109 H 95.7185 0.667153 3.06933 0
M  V30 1110 H 94.9115 2.74952 4.22395 0
M  V30 1111 H 94.5135 2.79003 2.49065 0
M  V30 1112 H 96.8055 4.14868 5.35622 0
M  V30 1113 H 97.7485 5.43512 4.53873 0
M  V30 1114 H 98.1565 3.71812 4.24755 0
M  V30 1115 N 97.5546 -0.734337 1.39446 0
M  V30 1116 C 98.4866 -1.85861 1.34121 0
M  V30 1117 C 99.4996 -1.60871 0.249864 0
M  V30 1118 O 100.689 -1.71093 0.508865 0
M  V30 1119 C 97.7886 -3.21899 1.05991 0
M  V30 1120 C 96.9616 -3.74239 2.26415 0
M  V30 1121 C 96.0206 -4.88841 1.94733 0
M  V30 1122 O 95.0466 -5.02468 2.67422 0
M  V30 1123 N 96.2486 -5.73261 0.913884 0
M  V30 1124 H 99.0136 -1.90934 2.31007 0
M  V30 1125 H 96.5746 -0.915102 1.33557 0
M  V30 1126 H 98.5666 -3.96136 0.828147 0
M  V30 1127 H 97.1366 -3.12091 0.178361 0
M  V30 1128 H 96.3566 -2.91347 2.65539 0
M  V30 1129 H 97.6446 -4.05942 3.06738 0
M  V30 1130 H 97.0426 -5.64842 0.311476 0
M  V30 1131 H 95.5996 -6.47563 0.742015 0
M  V30 1132 N 99.0327 -1.24633 -0.964593 0
M  V30 1133 C 100.449 -1.01239 -1.2338 0
M  V30 1134 C 100.649 0.2769 -1.99588 0
M  V30 1135 O 99.7047 0.992241 -2.32187 0
M  V30 1136 C 101.018 -2.22937 -2.01791 0
M  V30 1137 C 102.566 -2.27594 -2.14872 0
M  V30 1138 C 103.041 -3.48921 -2.96678 0
M  V30 1139 N 104.532 -3.49257 -3.04259 0
M  V30 1140 C 105.267 -4.39795 -3.67924 0
M  V30 1141 N 104.763 -5.40591 -4.33281 0
M  V30 1142 N 106.556 -4.275 -3.64966 0
M  V30 1143 H 98.7067 -2.0748 -0.454502 0
M  V30 1144 H 100.97 -0.910647 -0.26349 0
M  V30 1145 H 100.676 -3.16587 -1.53184 0
M  V30 1146 H 100.55 -2.25306 -3.02518 0
M  V30 1147 H 102.937 -1.34473 -2.6268 0
M  V30 1148 H 103.018 -2.2925 -1.13482 0
M  V30 1149 H 102.662 -4.42359 -2.49562 0
M  V30 1150 H 102.592 -3.4451 -3.98272 0
M  V30 1151 H 105.083 -2.76337 -2.57771 0
M  V30 1152 H 105.396 -6.05904 -4.79687 0
M  V30 1153 H 103.741 -5.44475 -4.3194 0
M  V30 1154 H 106.932 -3.47987 -3.13086 0
M  V30 1155 H 107.105 -4.98258 -4.14298 0
M  V30 1156 N 100.511 1.16574 -1.06058 0
M  V30 1157 C 101.758 1.87047 -0.775873 0
M  V30 1158 C 102.086 1.81562 0.697534 0
M  V30 1159 O 101.341 1.22445 1.52662 0
M  V30 1160 C 101.64 3.36195 -1.21275 0
M  V30 1161 C 101.306 3.6188 -2.68986 0
M  V30 1162 C 99.9678 3.68599 -3.09335 0
M  V30 1163 C 102.32 3.72648 -3.64394 0
M  V30 1164 C 99.6478 3.83584 -4.43937 0
M  V30 1165 C 102 3.89154 -4.98741 0
M  V30 1166 C 100.664 3.94114 -5.3873 0
M  V30 1167 H 99.9338 0.684452 -0.283912 0
M  V30 1168 H 102.581 1.37853 -1.32925 0
M  V30 1169 H 100.886 3.87505 -0.578528 0
M  V30 1170 H 102.583 3.89103 -0.969542 0
M  V30 1171 H 99.1728 3.57281 -2.36744 0
M  V30 1172 H 103.357 3.66769 -3.34356 0
M  V30 1173 H 98.6128 3.85677 -4.74409 0
M  V30 1174 H 102.787 3.96427 -5.72554 0
M  V30 1175 H 100.414 4.05478 -6.43033 0
M  V30 1176 N 101.989 0.842826 1.3317 0
M  V30 1177 C 103.236 0.440447 1.97652 0
M  V30 1178 C 103.564 -1.00123 1.6675 0
M  V30 1179 O 102.819 -1.7155 0.941761 0
M  V30 1180 C 103.118 0.612607 3.52111 0
M  V30 1181 C 102.784 2.02297 4.02972 0
M  V30 1182 C 101.446 2.40874 4.16573 0
M  V30 1183 C 103.798 2.94402 4.30089 0
M  V30 1184 C 101.126 3.70852 4.54627 0
M  V30 1185 C 103.478 4.23865 4.69597 0
M  V30 1186 C 102.142 4.62392 4.81404 0
M  V30 1187 H 101.412 0.161171 0.72326 0
M  V30 1188 H 104.059 1.07061 1.58777 0
M  V30 1189 H 102.364 -0.100849 3.9167 0
M  V30 1190 H 104.061 0.2815 4.00011 0
M  V30 1191 H 100.651 1.71338 3.92863 0
M  V30 1192 H 104.835 2.65835 4.19101 0
M  V30 1193 H 100.091 4.00501 4.61962 0
M  V30 1194 H 104.265 4.95306 4.89536 0
M  V30 1195 H 101.892 5.63154 5.10648 0
M  V30 1196 N 103.467 -1.45747 0.599634 0
M  V30 1197 C 104.715 -2.01893 0.0915472 0
M  V30 1198 C 105.036 -1.47155 -1.27946 0
M  V30 1199 O 104.306 -0.66273 -1.84349 0
M  V30 1200 H 102.886 -0.746363 0.0308524 0
M  V30 1201 H 105.548 -1.78645 0.779237 0
M  V30 1202 H 104.644 -3.1208 0.0353086 0
M  V30 1203 N 104.945 -0.338344 -1.53925 0
M  V30 1204 C 105.875 0.51328 -2.27789 0
M  V30 1205 C 106.856 1.107 -1.29149 0
M  V30 1206 O 108.041 1.12937 -1.57984 0
M  V30 1207 C 105.171 1.66697 -3.04679 0
M  V30 1208 C 104.125 1.20183 -4.1078 0
M  V30 1209 C 103.451 2.44363 -4.75595 0
M  V30 1210 C 104.751 0.30605 -5.21403 0
M  V30 1211 H 106.445 -0.102883 -2.99223 0
M  V30 1212 H 103.991 -0.0509219 -1.4391 0
M  V30 1213 H 105.944 2.26915 -3.55088 0
M  V30 1214 H 104.668 2.30995 -2.30887 0
M  V30 1215 H 103.327 0.622499 -3.61276 0
M  V30 1216 H 102.975 3.07057 -3.98403 0
M  V30 1217 H 102.675 2.13925 -5.47275 0
M  V30 1218 H 104.199 3.05317 -5.28786 0
M  V30 1219 H 105.613 0.814929 -5.67478 0
M  V30 1220 H 104.01 0.0937929 -6.00027 0
M  V30 1221 H 105.08 -0.65921 -4.80398 0
M  V30 1222 N 106.423 1.57458 -0.0668435 0
M  V30 1223 C 107.371 2.13639 0.919851 0
M  V30 1224 C 108.365 1.07204 1.31163 0
M  V30 1225 O 109.571 1.25591 1.28945 0
M  V30 1226 H 105.946 0.683048 0.314562 0
M  V30 1227 H 107.917 2.95415 0.421047 0
M  V30 1228 C 106.666 2.70892 2.17975 0
M  V30 1229 H 105.989 3.5246 1.88711 0
M  V30 1230 H 107.429 3.13803 2.85138 0
M  V30 1231 C 105.888 1.65414 2.93496 0
M  V30 1232 O 106.418 1.07619 3.87015 0
M  V30 1233 N 104.624 1.36564 2.56512 0
M  V30 1234 H 104.171 1.83751 1.80536 0
M  V30 1235 H 104.129 0.66223 3.07347 0
M  V30 1236 N 107.901 -0.206675 1.56239 0
M  V30 1237 C 109.147 -0.930218 1.80208 0
M  V30 1238 C 109.48 -1.83387 0.638981 0
M  V30 1239 O 108.755 -1.91119 -0.361066 0
M  V30 1240 C 109.038 -1.75641 3.1436 0
M  V30 1241 C 108.891 -0.878257 4.41142 0
M  V30 1242 C 110.21 -2.73129 3.45092 0
M  V30 1243 H 107.329 -0.336742 0.655571 0
M  V30 1244 H 109.971 -0.198222 1.88963 0
M  V30 1245 H 108.121 -2.38048 3.07027 0
M  V30 1246 H 109.793 -0.269787 4.6051 0
M  V30 1247 H 108.036 -0.184385 4.33408 0
M  V30 1248 H 108.707 -1.49106 5.3148 0
M  V30 1249 H 111.183 -2.20856 3.52649 0
M  V30 1250 H 110.059 -3.28028 4.40101 0
M  V30 1251 H 110.32 -3.51606 2.68003 0
M  V30 1252 N 109.379 -1.50304 -0.473955 0
M  V30 1253 C 110.607 -1.64902 -1.24959 0
M  V30 1254 C 111.022 -0.331198 -1.85872 0
M  V30 1255 O 110.379 0.68652 -1.69095 0
M  V30 1256 C 110.43 -2.73803 -2.36038 0
M  V30 1257 O 110.151 -4.00477 -1.77624 0
M  V30 1258 C 111.652 -2.99349 -3.26964 0
M  V30 1259 H 108.872 -0.554383 -0.378022 0
M  V30 1260 H 111.416 -1.9651 -0.566054 0
M  V30 1261 H 109.571 -2.44898 -3.00173 0
M  V30 1262 H 109.985 -4.60678 -2.5075 0
M  V30 1263 H 111.459 -3.79217 -4.01121 0
M  V30 1264 H 111.936 -2.10307 -3.85574 0
M  V30 1265 H 112.542 -3.29774 -2.68569 0
M  V30 1266 N 110.857 0.726932 -1.39834 0
M  V30 1267 C 112.105 1.4837 -1.37225 0
M  V30 1268 C 112.426 1.94979 0.0284857 0
M  V30 1269 O 111.696 1.69555 0.981213 0
M  V30 1270 H 110.276 0.55043 -0.505011 0
M  V30 1271 H 112.938 0.862468 -1.74778 0
M  V30 1272 H 112.034 2.36198 -2.04003 0
M  V30 1273 N 112.336 1.25143 0.95797 0
M  V30 1274 C 113.283 1.05235 2.05412 0
M  V30 1275 C 114.253 -0.0374561 1.66058 0
M  V30 1276 O 115.438 0.119073 1.90428 0
M  V30 1277 C 112.578 0.673589 3.38462 0
M  V30 1278 C 111.691 1.8379 3.90954 0
M  V30 1279 C 110.826 1.40381 5.12315 0
M  V30 1280 C 109.865 2.53746 5.57027 0
M  V30 1281 N 109.002 2.11136 6.69601 0
M  V30 1282 H 113.842 1.99048 2.21774 0
M  V30 1283 H 111.379 0.991277 1.08683 0
M  V30 1284 H 113.337 0.434964 4.14926 0
M  V30 1285 H 111.967 -0.227554 3.21997 0
M  V30 1286 H 111.019 2.18992 3.11041 0
M  V30 1287 H 112.331 2.68937 4.20089 0
M  V30 1288 H 111.485 1.12464 5.96185 0
M  V30 1289 H 110.224 0.523015 4.84887 0
M  V30 1290 H 109.229 2.82412 4.71724 0
M  V30 1291 H 110.454 3.42398 5.86464 0
M  V30 1292 H 108.4 1.25468 6.4389 0
M  V30 1293 H 108.317 2.89832 6.98236 0
M  V30 1294 H 109.585 1.86385 7.56889 0
M  V30 1295 N 113.814 -1.1601 1.06675 0
M  V30 1296 C 115.225 -1.68235 0.809565 0
M  V30 1297 C 115.576 -1.8454 -0.666303 0
M  V30 1298 O 114.701 -1.54374 -1.5165 0
M  V30 1299 C 115.296 -3.05585 1.46299 0
M  V30 1300 C 113.855 -3.54915 1.25349 0
M  V30 1301 C 113.002 -2.30804 1.53703 0
M  V30 1302 H 115.953 -1.00318 1.22971 0
M  V30 1303 H 115.974 -3.70174 0.880431 0
M  V30 1304 H 115.486 -2.93686 2.53713 0
M  V30 1305 H 113.587 -3.72067 0.199261 0
M  V30 1306 H 113.7 -4.36774 1.9689 0
M  V30 1307 H 112.064 -2.36007 0.957739 0
M  V30 1308 H 112.847 -2.21499 2.62284 0
M  V30 1309 N 115.292 -0.849877 -1.32721 0
M  V30 1310 C 116.24 -0.279745 -2.30912 0
M  V30 1311 C 117.234 0.594278 -1.58634 0
M  V30 1312 O 118.44 0.482613 -1.73409 0
M  V30 1313 H 114.815 -0.0717521 -0.748569 0
M  V30 1314 H 116.786 -1.12222 -2.76494 0
M  V30 1315 C 115.535 0.521108 -3.43773 0
M  V30 1316 H 114.858 -0.142141 -3.99547 0
M  V30 1317 H 116.298 0.885693 -4.14646 0
M  V30 1318 C 114.757 1.70442 -2.90605 0
M  V30 1319 O 115.287 2.8034 -2.87702 0
M  V30 1320 N 113.493 1.52991 -2.47067 0
M  V30 1321 H 113.04 0.635914 -2.49628 0
M  V30 1322 H 112.998 2.32311 -2.11847 0
M  V30 1323 N 116.77 1.45427 -0.607355 0
M  V30 1324 C 117.68 2.34325 0.113463 0
M  V30 1325 C 118.696 1.51226 0.860617 0
M  V30 1326 O 119.872 1.84029 0.818255 0
M  V30 1327 C 116.937 3.28839 1.09844 0
M  V30 1328 C 115.998 4.27844 0.353271 0
M  V30 1329 C 115.231 5.17842 1.29133 0
M  V30 1330 O 115.454 5.11264 2.52913 0
M  V30 1331 O 114.388 5.96713 0.788523 0
M  V30 1332 H 118.214 2.97364 -0.617094 0
M  V30 1333 H 115.799 1.44807 -0.367619 0
M  V30 1334 H 117.681 3.8708 1.66575 0
M  V30 1335 H 116.356 2.68365 1.81003 0
M  V30 1336 H 115.263 3.7322 -0.256494 0
M  V30 1337 H 116.596 4.91173 -0.317822 0
M  V30 1338 N 118.248 0.346503 1.53744 0
M  V30 1339 C 119.158 -0.517293 2.28826 0
M  V30 1340 C 120.174 -1.10935 1.3405 0
M  V30 1341 O 121.35 -1.1244 1.6709 0
M  V30 1342 C 118.415 -1.65098 3.04866 0
M  V30 1343 C 117.476 -1.0884 4.15274 0
M  V30 1344 C 116.709 -2.16806 4.87679 0
M  V30 1345 O 116.932 -3.3758 4.59778 0
M  V30 1346 O 115.866 -1.80934 5.74061 0
M  V30 1347 H 119.692 0.0931396 3.03557 0
M  V30 1348 H 117.277 0.111458 1.48984 0
M  V30 1349 H 119.159 -2.31053 3.5241 0
M  V30 1350 H 117.834 -2.24717 2.32989 0
M  V30 1351 H 116.741 -0.3933 3.72027 0
M  V30 1352 H 118.074 -0.537036 4.89261 0
M  V30 1353 N 119.726 -1.57421 0.075193 0
M  V30 1354 C 120.954 -1.97946 -0.602076 0
M  V30 1355 C 121.369 -0.953674 -1.62943 0
M  V30 1356 O 120.726 0.0592551 -1.82404 0
M  V30 1357 C 120.777 -3.38546 -1.26762 0
M  V30 1358 O 120.498 -4.37195 -0.281376 0
M  V30 1359 C 121.999 -3.93966 -2.03239 0
M  V30 1360 H 119.219 -0.650918 -0.162931 0
M  V30 1361 H 121.763 -2.03959 0.148601 0
M  V30 1362 H 119.918 -3.33609 -1.96936 0
M  V30 1363 H 120.332 -5.18975 -0.759267 0
M  V30 1364 H 121.806 -4.94555 -2.45193 0
M  V30 1365 H 122.283 -3.30693 -2.8903 0
M  V30 1366 H 122.889 -4.02315 -1.37924 0
M  V30 1367 N 121.204 0.198386 -1.56346 0
M  V30 1368 C 122.134 1.24865 -1.9731 0
M  V30 1369 C 123.115 1.47651 -0.844576 0
M  V30 1370 O 124.3 1.59444 -1.10866 0
M  V30 1371 C 121.43 2.59358 -2.30977 0
M  V30 1372 C 120.384 2.5119 -3.46537 0
M  V30 1373 C 119.71 3.89926 -3.65871 0
M  V30 1374 C 121.01 2.03977 -4.80823 0
M  V30 1375 H 122.704 0.908252 -2.85291 0
M  V30 1376 H 120.25 0.435462 -1.37258 0
M  V30 1377 H 122.203 3.33011 -2.58228 0
M  V30 1378 H 120.927 2.95132 -1.39874 0
M  V30 1379 H 119.586 1.79993 -3.19371 0
M  V30 1380 H 119.234 4.23046 -2.72105 0
M  V30 1381 H 118.934 3.85336 -4.4361 0
M  V30 1382 H 120.458 4.65205 -3.95495 0
M  V30 1383 H 121.872 2.67386 -5.07127 0
M  V30 1384 H 120.269 2.10397 -5.62008 0
M  V30 1385 H 121.339 0.992861 -4.74626 0
M  V30 1386 N 122.682 1.50554 0.465978 0
M  V30 1387 C 123.959 1.5232 1.22712 0
M  V30 1388 C 124.339 0.270807 2.09356 0
M  V30 1389 O 123.687 -0.745541 2.15995 0
M  V30 1390 C 123.897 2.82175 2.05374 0
M  V30 1391 C 125.245 3.33033 2.6339 0
M  V30 1392 O 126.269 2.83531 2.15612 0
M  V30 1393 O 125.128 4.19336 3.50456 0
M  V30 1394 H 122.222 0.611183 0.557122 0
M  V30 1395 H 124.768 1.62847 0.477381 0
M  V30 1396 H 123.54 3.64797 1.41558 0
M  V30 1397 H 123.163 2.74675 2.87471 0
M  V30 1398 N 124.16 -0.719506 1.40217 0
M  V30 1399 C 125.093 -1.84298 1.34571 0
M  V30 1400 C 126.071 -1.61149 0.216741 0
M  V30 1401 O 127.255 -1.84212 0.399756 0
M  V30 1402 C 124.382 -3.20568 1.09335 0
M  V30 1403 C 123.428 -3.62551 2.24631 0
M  V30 1404 S 124.261 -3.7012 3.87004 0
M  V30 1405 C 125.417 -5.09154 3.64024 0
M  V30 1406 H 125.65 -1.88807 2.2965 0
M  V30 1407 H 123.183 -0.885901 1.26456 0
M  V30 1408 H 125.141 -3.99246 0.954602 0
M  V30 1409 H 123.802 -3.13696 0.159164 0
M  V30 1410 H 122.995 -4.61483 2.02606 0
M  V30 1411 H 122.597 -2.91119 2.34789 0
M  V30 1412 H 124.889 -5.95955 3.22248 0
M  V30 1413 H 125.832 -5.36213 4.62473 0
M  V30 1414 H 126.24 -4.79562 2.97793 0
M  V30 1415 N 125.638 -1.25649 -0.95132 0
M  V30 1416 C 126.571 -1.00644 -2.04807 0
M  V30 1417 C 127.549 0.0654271 -1.62468 0
M  V30 1418 O 128.733 -0.074911 -1.88351 0
M  V30 1419 C 125.86 -0.522052 -3.34653 0
M  V30 1420 C 124.906 -1.58495 -3.95957 0
M  V30 1421 S 125.739 -3.17108 -4.31512 0
M  V30 1422 C 126.895 -2.70412 -5.64471 0
M  V30 1423 H 127.128 -1.93508 -2.25703 0
M  V30 1424 H 124.661 -1.09216 -1.09139 0
M  V30 1425 H 126.619 -0.24923 -4.09743 0
M  V30 1426 H 125.28 0.386146 -3.11717 0
M  V30 1427 H 124.473 -1.1968 -4.89584 0
M  V30 1428 H 124.075 -1.80862 -3.2736 0
M  V30 1429 H 126.367 -2.14245 -6.42733 0
M  V30 1430 H 127.31 -3.62693 -6.08161 0
M  V30 1431 H 127.718 -2.10302 -5.23864 0
M  V30 1432 N 127.117 1.15442 -1.07289 0
M  V30 1433 C 128.064 2.20161 -0.692653 0
M  V30 1434 C 129.034 1.63073 0.31564 0
M  V30 1435 O 130.219 1.89725 0.202235 0
M  V30 1436 C 127.359 3.44967 -0.0959509 0
M  V30 1437 C 126.472 4.16256 -1.15564 0
M  V30 1438 C 125.607 5.28609 -0.524011 0
M  V30 1439 C 124.646 5.91715 -1.56653 0
M  V30 1440 N 123.783 6.9554 -0.957531 0
M  V30 1441 H 128.623 2.52037 -1.59002 0
M  V30 1442 H 126.16 1.2378 -0.794798 0
M  V30 1443 H 128.118 4.16341 0.267628 0
M  V30 1444 H 126.748 3.1361 0.764772 0
M  V30 1445 H 125.8 3.43385 -1.6368 0
M  V30 1446 H 127.112 4.59268 -1.94613 0
M  V30 1447 H 126.266 6.06604 -0.108032 0
M  V30 1448 H 125.005 4.86787 0.29825 0
M  V30 1449 H 124.01 5.12433 -1.9923 0
M  V30 1450 H 125.235 6.35614 -2.39107 0
M  V30 1451 H 123.181 6.55814 -0.156162 0
M  V30 1452 H 123.098 7.36977 -1.68526 0
M  V30 1453 H 124.366 7.77435 -0.567032 0
M  V30 1454 N 128.595 0.856903 1.32268 0
M  V30 1455 C 129.542 0.301172 2.28827 0
M  V30 1456 C 130.512 -0.593104 1.5515 0
M  V30 1457 O 131.697 -0.527537 1.83362 0
M  V30 1458 C 128.837 -0.502523 3.41422 0
M  V30 1459 C 127.95 0.417797 4.29975 0
M  V30 1460 C 127.085 -0.398749 5.29701 0
M  V30 1461 C 126.124 0.518827 6.09897 0
M  V30 1462 N 125.261 -0.260674 7.01616 0
M  V30 1463 H 130.101 1.12983 2.75751 0
M  V30 1464 H 127.638 0.568582 1.35667 0
M  V30 1465 H 129.596 -0.984141 4.05426 0
M  V30 1466 H 128.226 -1.29599 2.95642 0
M  V30 1467 H 127.278 1.01781 3.66531 0
M  V30 1468 H 128.59 1.12191 4.86019 0
M  V30 1469 H 127.744 -0.943435 5.9932 0
M  V30 1470 H 126.483 -1.13622 4.7428 0
M  V30 1471 H 125.488 1.07538 5.39181 0
M  V30 1472 H 126.713 1.25495 6.67404 0
M  V30 1473 H 124.659 -0.981198 6.4862 0
M  V30 1474 H 124.576 0.384364 7.55022 0
M  V30 1475 H 125.844 -0.787014 7.75517 0
M  V30 1476 N 130.073 -1.45103 0.615059 0
M  V30 1477 C 131.484 -1.85654 0.197383 0
M  V30 1478 C 131.835 -1.51433 -1.24749 0
M  V30 1479 O 130.96 -0.944608 -1.94695 0
M  V30 1480 C 131.555 -3.36972 0.351448 0
M  V30 1481 C 130.114 -3.76398 -0.011593 0
M  V30 1482 C 129.261 -2.69024 0.672394 0
M  V30 1483 H 132.212 -1.35797 0.821263 0
M  V30 1484 H 132.233 -3.78239 -0.414227 0
M  V30 1485 H 131.745 -3.61847 1.40314 0
M  V30 1486 H 129.846 -3.5714 -1.06217 0
M  V30 1487 H 129.959 -4.77532 0.387265 0
M  V30 1488 H 128.323 -2.54465 0.109284 0
M  V30 1489 H 129.106 -2.96735 1.72636 0
M  V30 1490 N 131.551 -0.354651 -1.53558 0
M  V30 1491 C 132.967 -0.00315426 -1.596 0
M  V30 1492 C 133.167 1.47741 -1.37021 0
M  V30 1493 O 132.223 2.23759 -1.16996 0
M  V30 1494 C 133.536 -0.44929 -2.97325 0
M  V30 1495 C 135.084 -0.402578 -3.104 0
M  V30 1496 C 135.559 -0.824355 -4.5052 0
M  V30 1497 N 137.05 -0.778979 -4.56603 0
M  V30 1498 C 137.785 -1.07715 -5.63192 0
M  V30 1499 N 137.281 -1.44405 -6.77583 0
M  V30 1500 N 139.074 -1.00066 -5.53121 0
M  V30 1501 H 131.225 -1.31893 -1.66487 0
M  V30 1502 H 133.488 -0.538388 -0.780284 0
M  V30 1503 H 133.194 -1.48202 -3.1895 0
M  V30 1504 H 133.068 0.169772 -3.76818 0
M  V30 1505 H 135.455 0.621004 -2.88492 0
M  V30 1506 H 135.536 -1.05699 -2.32941 0
M  V30 1507 H 135.18 -1.846 -4.73165 0
M  V30 1508 H 135.11 -0.147304 -5.26394 0
M  V30 1509 H 137.601 -0.508528 -3.74463 0
M  V30 1510 H 137.914 -1.65612 -7.54846 0
M  V30 1511 H 136.259 -1.4826 -6.79002 0
M  V30 1512 H 139.45 -0.713293 -4.62633 0
M  V30 1513 H 139.623 -1.23638 -6.36096 0
M  V30 1514 N 133.029 1.57378 -0.0835403 0
M  V30 1515 C 134.269 1.95808 0.586381 0
M  V30 1516 C 134.633 0.963706 1.66062 0
M  V30 1517 O 135.834 1.23608 2.38693 0
M  V30 1518 C 134.105 3.38808 1.13771 0
M  V30 1519 S 135.664 3.99225 1.82112 0
M  V30 1520 H 132.482 0.684675 0.191679 0
M  V30 1521 H 135.084 1.94843 -0.160194 0
M  V30 1522 H 133.788 4.08954 0.344197 0
M  V30 1523 H 133.319 3.43344 1.92038 0
M  V30 1524 H 135.334 3.87087 3.10449 0
M  V30 1525 N 134.507 -0.190092 1.56449 0
M  V30 1526 C 135.755 -0.907908 1.80559 0
M  V30 1527 C 136.076 -1.83583 0.657438 0
M  V30 1528 O 135.346 -1.93203 -0.323924 0
M  V30 1529 H 133.926 -0.338247 0.666032 0
M  V30 1530 H 136.588 -0.194403 1.93928 0
M  V30 1531 H 135.684 -1.49604 2.73907 0
M  V30 1532 N 135.985 -1.50799 -0.457987 0
M  V30 1533 C 137.231 -1.62683 -1.21088 0
M  V30 1534 C 137.564 -0.332268 -1.91336 0
M  V30 1535 O 136.839 0.667043 -1.82704 0
M  V30 1536 C 137.122 -2.81615 -2.24422 0
M  V30 1537 C 136.975 -4.20989 -1.58392 0
M  V30 1538 C 138.294 -2.96085 -3.2561 0
M  V30 1539 H 135.413 -0.592087 -0.438864 0
M  V30 1540 H 138.055 -1.83225 -0.50286 0
M  V30 1541 H 136.205 -2.64231 -2.84806 0
M  V30 1542 H 137.877 -4.49994 -1.01504 0
M  V30 1543 H 136.12 -4.24641 -0.886704 0
M  V30 1544 H 136.791 -5.0016 -2.33547 0
M  V30 1545 H 139.267 -3.12042 -2.75262 0
M  V30 1546 H 138.143 -3.80902 -3.95228 0
M  V30 1547 H 138.404 -2.0726 -3.90507 0
M  V30 1548 N 137.463 0.71206 -1.40597 0
M  V30 1549 C 138.874 1.29135 -1.34837 0
M  V30 1550 C 139.225 1.96186 -0.0235395 0
M  V30 1551 O 138.35 1.97768 0.878444 0
M  V30 1552 C 138.945 2.34827 -2.44217 0
M  V30 1553 C 137.504 2.88371 -2.41907 0
M  V30 1554 C 136.651 1.62202 -2.24913 0
M  V30 1555 H 139.602 0.507944 -1.50352 0
M  V30 1556 H 139.623 3.15749 -2.12327 0
M  V30 1557 H 139.135 1.85996 -3.40627 0
M  V30 1558 H 137.236 3.41422 -1.49204 0
M  V30 1559 H 137.349 3.39925 -3.37621 0
M  V30 1560 H 135.713 1.874 -1.72492 0
M  V30 1561 H 136.496 1.15391 -3.23326 0
M  V30 1562 N 138.941 1.26152 0.944643 0
M  V30 1563 C 140.218 1.02247 1.66748 0
M  V30 1564 C 140.598 -0.448202 2.06287 0
M  V30 1565 O 139.946 -1.42779 1.78399 0
M  V30 1566 C 140.156 1.96788 2.88228 0
M  V30 1567 C 141.504 2.25201 3.59958 0
M  V30 1568 O 142.528 1.94626 2.98327 0
M  V30 1569 O 141.387 2.77242 4.70956 0
M  V30 1570 H 138.481 0.388517 0.730057 0
M  V30 1571 H 141.027 1.37348 0.99668 0
M  V30 1572 H 139.799 2.96047 2.55875 0
M  V30 1573 H 139.422 1.62145 3.63035 0
M  V30 1574 N 140.419 -1.14872 1.07899 0
M  V30 1575 C 141.644 -1.90202 0.826926 0
M  V30 1576 C 142.069 -1.77774 -0.614664 0
M  V30 1577 O 141.427 -1.11431 -1.43013 0
M  V30 1578 C 141.475 -3.38352 1.24702 0
M  V30 1579 O 140.579 -4.10497 0.39575 0
M  V30 1580 H 139.92 -0.591968 0.300782 0
M  V30 1581 H 142.45 -1.45437 1.43907 0
M  V30 1582 H 142.46 -3.89156 1.22563 0
M  V30 1583 H 141.135 -3.46715 2.29698 0
M  V30 1584 H 139.712 -3.69796 0.480117 0
M  V30 1585 N 141.898 -0.863906 -1.31812 0
M  V30 1586 C 143.146 -0.470904 -1.96537 0
M  V30 1587 C 143.467 0.978771 -1.68657 0
M  V30 1588 O 142.737 1.6853 -0.998717 0
M  V30 1589 H 141.317 -0.171148 -0.72713 0
M  V30 1590 H 143.979 -1.10236 -1.60729 0
M  V30 1591 H 143.075 -0.623616 -3.05806 0
M  V30 1592 N 143.376 1.44774 -0.622745 0
M  V30 1593 C 144.624 2.01721 -0.123655 0
M  V30 1594 C 144.945 1.49172 1.25589 0
M  V30 1595 O 144.215 0.691974 1.83272 0
M  V30 1596 H 142.795 0.745777 -0.0427225 0
M  V30 1597 H 145.457 1.77382 -0.807559 0
M  V30 1598 H 144.553 3.11984 -0.0849534 0
M  V30 1599 N 144.854 0.36279 1.53368 0
M  V30 1600 C 146.101 -0.227776 2.01215 0
M  V30 1601 C 146.429 -1.49003 1.25014 0
M  V30 1602 O 145.684 -1.92876 0.331236 0
M  V30 1603 C 145.983 -0.568417 3.52851 0
M  V30 1604 C 145.649 0.59918 4.46901 0
M  V30 1605 C 144.311 0.919559 4.72332 0
M  V30 1606 C 146.663 1.38156 5.02556 0
M  V30 1607 C 143.991 2.02434 5.5067 0
M  V30 1608 C 146.343 2.47674 5.821 0
M  V30 1609 C 145.007 2.8025 6.05819 0
M  V30 1610 H 144.277 -0.083349 0.736297 0
M  V30 1611 H 146.924 0.494677 1.85001 0
M  V30 1612 H 145.229 -1.37185 3.66998 0
M  V30 1613 H 146.926 -1.03756 3.87344 0
M  V30 1614 H 143.516 0.339437 4.27254 0
M  V30 1615 H 147.7 1.14729 4.82857 0
M  V30 1616 H 142.956 2.28075 5.67267 0
M  V30 1617 H 147.13 3.08716 6.24234 0
M  V30 1618 H 144.757 3.65979 6.66306 0
M  V30 1619 N 146.332 -1.57332 0.0918853 0
M  V30 1620 C 147.265 -2.09499 -0.904735 0
M  V30 1621 C 148.243 -1.00479 -1.27839 0
M  V30 1622 O 149.427 -1.27954 -1.38419 0
M  V30 1623 C 146.554 -2.56931 -2.2069 0
M  V30 1624 C 145.6 -3.77579 -1.98334 0
M  V30 1625 S 146.433 -5.21317 -1.22428 0
M  V30 1626 C 147.589 -5.72097 -2.53882 0
M  V30 1627 H 147.822 -2.93705 -0.460922 0
M  V30 1628 H 145.355 -1.53923 -0.121332 0
M  V30 1629 H 147.313 -2.84917 -2.95521 0
M  V30 1630 H 145.974 -1.72956 -2.62192 0
M  V30 1631 H 145.167 -4.08824 -2.94752 0
M  V30 1632 H 144.769 -3.5007 -1.31633 0
M  V30 1633 H 147.061 -5.80168 -3.49874 0
M  V30 1634 H 148.004 -6.70654 -2.27219 0
M  V30 1635 H 148.412 -5.00012 -2.62007 0
M  V30 1636 N 147.81 0.181792 -1.56548 0
M  V30 1637 C 148.74 1.22765 -1.98623 0
M  V30 1638 C 149.721 1.46747 -0.860189 0
M  V30 1639 O 150.906 1.58259 -1.12551 0
M  V30 1640 C 148.036 2.56894 -2.33715 0
M  V30 1641 C 146.99 2.475 -3.49182 0
M  V30 1642 C 146.316 3.86023 -3.69986 0
M  V30 1643 C 147.616 1.98866 -4.82959 0
M  V30 1644 H 149.31 0.877942 -2.86239 0
M  V30 1645 H 146.856 0.42088 -1.37712 0
M  V30 1646 H 148.809 3.30253 -2.61746 0
M  V30 1647 H 147.533 2.93632 -1.42997 0
M  V30 1648 H 146.192 1.76596 -3.21262 0
M  V30 1649 H 145.84 4.20136 -2.76576 0
M  V30 1650 H 145.54 3.80609 -4.47672 0
M  V30 1651 H 147.064 4.60984 -4.00407 0
M  V30 1652 H 148.478 2.61992 -5.09934 0
M  V30 1653 H 146.875 2.04424 -5.64208 0
M  V30 1654 H 147.945 0.942465 -4.75653 0
M  V30 1655 N 149.288 1.51039 0.449983 0
M  V30 1656 C 150.516 1.66869 1.2232 0
M  V30 1657 C 150.931 0.360727 1.85322 0
M  V30 1658 O 150.288 -0.659531 1.70166 0
M  V30 1659 C 150.339 2.77524 2.31652 0
M  V30 1660 O 150.06 4.03252 1.7123 0
M  V30 1661 C 151.561 3.04512 3.2216 0
M  V30 1662 H 148.781 0.560326 0.369155 0
M  V30 1663 H 151.325 1.97385 0.534719 0
M  V30 1664 H 149.48 2.49642 2.96239 0
M  V30 1665 H 149.894 4.64609 2.43389 0
M  V30 1666 H 151.368 3.85551 3.95038 0
M  V30 1667 H 151.845 2.16415 3.8218 0
M  V30 1668 H 152.451 3.34005 2.63288 0
M  V30 1669 N 150.766 -0.704594 1.40972 0
M  V30 1670 C 152.177 -1.28418 1.3552 0
M  V30 1671 C 152.528 -1.96171 0.0339434 0
M  V30 1672 O 151.653 -1.98231 -0.867944 0
M  V30 1673 C 152.248 -2.33528 2.45459 0
M  V30 1674 C 150.807 -2.87085 2.43433 0
M  V30 1675 C 149.954 -1.61007 2.2577 0
M  V30 1676 H 152.905 -0.499963 1.50619 0
M  V30 1677 H 152.926 -3.14619 2.13998 0
M  V30 1678 H 152.438 -1.84187 3.41609 0
M  V30 1679 H 150.539 -3.40626 1.51013 0
M  V30 1680 H 150.652 -3.3813 3.39419 0
M  V30 1681 H 149.016 -1.86482 1.73483 0
M  V30 1682 H 149.799 -1.13675 3.23933 0
M  V30 1683 N 152.244 -1.26651 -0.937939 0
M  V30 1684 C 153.492 -1.12165 -1.68118 0
M  V30 1685 C 153.813 0.334983 -1.92101 0
M  V30 1686 O 153.083 1.23583 -1.52 0
M  V30 1687 H 151.663 -0.412093 -0.623048 0
M  V30 1688 H 154.325 -1.59027 -1.12678 0
M  V30 1689 H 153.421 -1.64289 -2.6536 0
M  V30 1690 N 153.722 1.14298 -1.08507 0
M  V30 1691 C 154.67 2.21483 -0.710483 0
M  V30 1692 C 155.664 1.66998 0.284234 0
M  V30 1693 O 156.87 1.79401 0.146692 0
M  V30 1694 H 153.245 0.721578 -0.211729 0
M  V30 1695 H 155.216 2.50348 -1.62384 0
M  V30 1696 C 153.965 3.4743 -0.137007 0
M  V30 1697 H 153.288 3.89686 -0.893592 0
M  V30 1698 H 154.728 4.2391 0.0872789 0
M  V30 1699 C 153.187 3.17548 1.12538 0
M  V30 1700 O 153.717 3.35437 2.21009 0
M  V30 1701 N 151.923 2.71499 1.03617 0
M  V30 1702 H 151.47 2.57143 0.153403 0
M  V30 1703 H 151.428 2.51881 1.88158 0
M  V30 1704 N 155.201 0.870884 1.31352 0
M  V30 1705 C 156.612 0.534714 1.78879 0
M  V30 1706 C 156.963 -0.948423 1.71754 0
M  V30 1707 O 156.088 -1.74055 1.28584 0
M  V30 1708 C 156.683 0.963839 3.24801 0
M  V30 1709 C 155.242 0.679311 3.70219 0
M  V30 1710 C 154.389 1.15465 2.52117 0
M  V30 1711 H 157.34 1.05651 1.18421 0
M  V30 1712 H 157.361 0.286892 3.79417 0
M  V30 1713 H 156.873 2.04332 3.29955 0
M  V30 1714 H 154.974 -0.388769 3.70566 0
M  V30 1715 H 155.087 1.25698 4.62317 0
M  V30 1716 H 153.451 0.574383 2.48139 0
M  V30 1717 H 154.234 2.24157 2.60016 0
M  V30 1718 N 156.679 -1.44442 0.630414 0
M  V30 1719 C 157.626 -2.30678 -0.0749355 0
M  V30 1720 C 158.596 -1.4344 -0.837502 0
M  V30 1721 O 159.781 -1.72343 -0.818684 0
M  V30 1722 C 156.921 -3.28706 -1.05103 0
M  V30 1723 C 156.034 -4.31046 -0.286954 0
M  V30 1724 C 155.169 -5.16167 -1.2548 0
M  V30 1725 C 154.208 -6.10216 -0.479843 0
M  V30 1726 N 153.345 -6.88039 -1.39811 0
M  V30 1727 H 158.185 -2.90454 0.666386 0
M  V30 1728 H 155.722 -1.43107 0.340404 0
M  V30 1729 H 157.68 -3.84027 -1.63031 0
M  V30 1730 H 156.31 -2.70632 -1.75949 0
M  V30 1731 H 155.362 -3.78203 0.408243 0
M  V30 1732 H 156.674 -4.97794 0.316657 0
M  V30 1733 H 155.828 -5.76002 -1.90544 0
M  V30 1734 H 154.567 -4.49491 -1.89233 0
M  V30 1735 H 153.572 -5.49491 0.184295 0
M  V30 1736 H 154.797 -6.78928 0.152965 0
M  V30 1737 H 152.743 -6.24032 -2.02287 0
M  V30 1738 H 152.66 -7.51223 -0.848508 0
M  V30 1739 H 153.928 -7.52397 -2.03762 0
M  V30 1740 N 158.157 -0.370918 -1.53173 0
M  V30 1741 C 159.403 0.209976 -2.02313 0
M  V30 1742 C 159.758 1.45987 -1.25322 0
M  V30 1743 O 159.051 1.8856 -0.339965 0
M  V30 1744 C 159.245 0.549696 -3.53147 0
M  V30 1745 C 159.074 -0.665721 -4.44745 0
M  V30 1746 C 157.844 -1.17942 -4.91343 0
M  V30 1747 C 160.042 -1.53255 -4.90935 0
M  V30 1748 N 158.024 -2.35431 -5.66962 0
M  V30 1749 C 159.395 -2.55403 -5.64951 0
M  V30 1750 C 161.45 -1.5548 -4.73002 0
M  V30 1751 C 160.153 -3.5964 -6.22938 0
M  V30 1752 C 162.179 -2.58613 -5.31858 0
M  V30 1753 C 161.541 -3.59485 -6.05764 0
M  V30 1754 H 157.64 0.0394095 -0.781006 0
M  V30 1755 H 160.224 -0.516666 -1.8772 0
M  V30 1756 H 158.395 1.24541 -3.67891 0
M  V30 1757 H 160.127 1.11614 -3.89004 0
M  V30 1758 H 156.882 -0.743228 -4.67732 0
M  V30 1759 H 157.306 -2.94827 -6.09431 0
M  V30 1760 H 161.948 -0.788457 -4.15383 0
M  V30 1761 H 159.666 -4.37153 -6.79649 0
M  V30 1762 H 163.252 -2.61195 -5.19873 0
M  V30 1763 H 162.132 -4.3798 -6.50495 0
M  V30 1764 N 159.635 1.57281 -0.100228 0
M  V30 1765 C 160.545 2.17833 0.870965 0
M  V30 1766 C 161.561 1.14921 1.30649 0
M  V30 1767 O 162.737 1.47313 1.37335 0
M  V30 1768 C 159.802 2.75085 2.1102 0
M  V30 1769 C 158.863 3.9297 1.72838 0
M  V30 1770 C 158.096 4.47482 2.90854 0
M  V30 1771 O 158.319 4.00922 4.05731 0
M  V30 1772 O 157.253 5.38433 2.69023 0
M  V30 1773 H 161.079 3.0124 0.38575 0
M  V30 1774 H 158.664 1.48881 0.124397 0
M  V30 1775 H 160.546 3.11656 2.83634 0
M  V30 1776 H 159.221 1.94721 2.58584 0
M  V30 1777 H 158.128 3.61201 0.973883 0
M  V30 1778 H 159.461 4.74713 1.30033 0
M  V30 1779 N 161.113 -0.173488 1.56642 0
M  V30 1780 C 162.529 -0.525174 1.50712 0
M  V30 1781 C 162.729 -1.8476 0.804107 0
M  V30 1782 O 161.785 -2.49869 0.363574 0
M  V30 1783 C 163.098 -0.559937 2.95441 0
M  V30 1784 C 164.646 -0.647288 3.06234 0
M  V30 1785 C 165.121 -0.712963 4.52417 0
M  V30 1786 N 166.612 -0.775911 4.56655 0
M  V30 1787 C 167.347 -0.847264 5.67106 0
M  V30 1788 N 166.843 -0.879585 6.87194 0
M  V30 1789 N 168.636 -0.886117 5.55071 0
M  V30 1790 H 160.787 0.693681 2.00753 0
M  V30 1791 H 163.05 0.249841 0.914485 0
M  V30 1792 H 162.756 0.343049 3.50023 0
M  V30 1793 H 162.63 -1.40718 3.49969 0
M  V30 1794 H 165.017 -1.5407 2.51687 0
M  V30 1795 H 165.098 0.226586 2.54794 0
M  V30 1796 H 164.742 0.176183 5.07594 0
M  V30 1797 H 164.672 -1.60295 5.0161 0
M  V30 1798 H 167.163 -0.759304 3.70193 0
M  V30 1799 H 167.476 -0.935144 7.67121 0
M  V30 1800 H 165.821 -0.847898 6.89808 0
M  V30 1801 H 169.012 -0.857853 4.60172 0
M  V30 1802 H 169.185 -0.938263 6.41171 0
M  V30 1803 N 162.591 -1.51276 -0.441967 0
M  V30 1804 C 163.819 -1.67516 -1.21434 0
M  V30 1805 C 164.234 -0.37055 -1.85128 0
M  V30 1806 O 163.591 0.650498 -1.70513 0
M  V30 1807 C 163.642 -2.78748 -2.30177 0
M  V30 1808 O 163.363 -4.04154 -1.69089 0
M  V30 1809 C 164.864 -3.06217 -3.20541 0
M  V30 1810 H 162.084 -0.562276 -0.366178 0
M  V30 1811 H 164.628 -1.97666 -0.524244 0
M  V30 1812 H 162.783 -2.5121 -2.94911 0
M  V30 1813 H 163.197 -4.65894 -2.40922 0
M  V30 1814 H 164.671 -3.8764 -3.92987 0
M  V30 1815 H 165.148 -2.18439 -3.81026 0
M  V30 1816 H 165.754 -3.35397 -2.61513 0
M  V30 1817 N 164.069 0.697108 -1.41344 0
M  V30 1818 C 165.017 1.83237 -1.43272 0
M  V30 1819 C 166.011 1.66522 -0.310947 0
M  V30 1820 O 167.217 1.73402 -0.482899 0
M  V30 1821 H 163.592 0.603802 -0.448249 0
M  V30 1822 H 165.563 1.78727 -2.38954 0
M  V30 1823 C 164.312 3.21245 -1.33029 0
M  V30 1824 H 163.635 3.34723 -2.18633 0
M  V30 1825 H 165.075 4.00763 -1.38439 0
M  V30 1826 C 163.534 3.36873 -0.0424635 0
M  V30 1827 O 164.064 3.91177 0.913421 0
M  V30 1828 N 162.27 2.90581 0.0331145 0
M  V30 1829 H 161.817 2.46577 -0.745506 0
M  V30 1830 H 161.775 3.01416 0.894199 0
M  V30 1831 N 165.547 1.27147 0.931209 0
M  V30 1832 C 166.477 1.12081 2.04842 0
M  V30 1833 C 167.458 0.0232364 1.70084 0
M  V30 1834 O 168.643 0.197085 1.93197 0
M  V30 1835 C 165.773 0.76354 3.38803 0
M  V30 1836 C 164.727 1.81396 3.87659 0
M  V30 1837 C 164.053 1.31075 5.18385 0
M  V30 1838 C 165.353 3.21739 4.11438 0
M  V30 1839 H 167.047 2.05537 2.17703 0
M  V30 1840 H 164.593 0.989603 1.04608 0
M  V30 1841 H 166.546 0.644982 4.16435 0
M  V30 1842 H 165.27 -0.206727 3.25945 0
M  V30 1843 H 163.929 1.92136 3.12217 0
M  V30 1844 H 163.577 0.330037 5.01916 0
M  V30 1845 H 163.277 2.013 5.52044 0
M  V30 1846 H 164.801 1.20506 5.98591 0
M  V30 1847 H 166.215 3.14019 4.79651 0
M  V30 1848 H 164.612 3.89644 4.56397 0
M  V30 1849 H 165.682 3.67054 3.16859 0
M  V30 1850 N 167.025 -1.13721 1.09112 0
M  V30 1851 C 168.253 -1.88773 0.846899 0
M  V30 1852 C 168.668 -1.7896 -0.601572 0
M  V30 1853 O 168.025 -1.15394 -1.41388 0
M  V30 1854 C 168.076 -3.3849 1.26913 0
M  V30 1855 O 167.797 -3.48043 2.66079 0
M  V30 1856 C 169.298 -4.30518 1.05682 0
M  V30 1857 H 166.518 -0.59772 0.304914 0
M  V30 1858 H 169.062 -1.43977 1.45227 0
M  V30 1859 H 167.217 -3.80881 0.707723 0
M  V30 1860 H 167.631 -4.4109 2.83795 0
M  V30 1861 H 169.105 -5.3391 1.40156 0
M  V30 1862 H 169.582 -4.392 -0.00563416 0
M  V30 1863 H 170.188 -3.93893 1.60402 0
M  V30 1864 N 168.503 -0.877838 -1.30888 0
M  V30 1865 C 169.733 -0.506678 -2.00291 0
M  V30 1866 C 170.141 0.907449 -1.66018 0
M  V30 1867 O 169.484 1.60719 -0.88967 0
M  V30 1868 C 169.546 -0.59323 -3.54572 0
M  V30 1869 C 169.21 -1.97038 -4.12341 0
M  V30 1870 C 170.207 -2.93889 -4.28865 0
M  V30 1871 C 167.892 -2.27383 -4.47886 0
M  V30 1872 C 169.886 -4.19224 -4.80136 0
M  V30 1873 C 167.573 -3.52965 -4.98857 0
M  V30 1874 C 168.571 -4.48701 -5.14934 0
M  V30 1875 O 168.259 -5.72056 -5.64808 0
M  V30 1876 H 167.991 -0.1951 -0.647234 0
M  V30 1877 H 170.545 -1.18301 -1.6791 0
M  V30 1878 H 168.775 0.140057 -3.86446 0
M  V30 1879 H 170.464 -0.234372 -4.05223 0
M  V30 1880 H 171.23 -2.71756 -4.01714 0
M  V30 1881 H 167.109 -1.53639 -4.34645 0
M  V30 1882 H 170.653 -4.93956 -4.92599 0
M  V30 1883 H 166.55 -3.74939 -5.25443 0
M  V30 1884 H 167.318 -5.74337 -5.83163 0
M  V30 1885 N 169.982 1.44106 -0.638065 0
M  V30 1886 C 171.398 1.56672 -0.304286 0
M  V30 1887 C 171.598 1.6244 1.19228 0
M  V30 1888 O 170.654 1.57121 1.9766 0
M  V30 1889 C 171.967 2.83503 -1.00231 0
M  V30 1890 C 173.515 2.97226 -0.981116 0
M  V30 1891 C 173.99 4.26868 -1.65974 0
M  V30 1892 N 175.481 4.33698 -1.62666 0
M  V30 1893 C 176.216 5.32745 -2.12063 0
M  V30 1894 N 175.712 6.38157 -2.6968 0
M  V30 1895 N 177.505 5.24299 -2.02651 0
M  V30 1896 H 169.656 1.38605 -1.60942 0
M  V30 1897 H 171.919 0.664661 -0.675965 0
M  V30 1898 H 171.625 2.85251 -2.0573 0
M  V30 1899 H 171.499 3.73251 -0.54439 0
M  V30 1900 H 173.886 2.95027 0.0654188 0
M  V30 1901 H 173.967 2.08808 -1.47759 0
M  V30 1902 H 173.611 4.29826 -2.70576 0
M  V30 1903 H 173.541 5.14156 -1.13804 0
M  V30 1904 H 176.032 3.58138 -1.20606 0
M  V30 1905 H 176.345 7.10029 -3.05087 0
M  V30 1906 H 174.69 6.38823 -2.73734 0
M  V30 1907 H 177.881 4.4086 -1.57353 0
M  V30 1908 H 178.054 6.01334 -2.41457 0
M  V30 1909 N 171.46 0.379036 1.52974 0
M  V30 1910 C 172.709 -0.207612 2.00629 0
M  V30 1911 C 173.022 -1.48758 1.27006 0
M  V30 1912 O 174.228 -2.15365 1.65318 0
M  V30 1913 C 172.684 -0.42053 3.57435 0
M  V30 1914 C 172.292 0.845587 4.39948 0
M  V30 1915 C 174.036 -0.964102 4.13407 0
M  V30 1916 C 171.943 0.601513 5.88333 0
M  V30 1917 H 170.873 -0.0813591 0.749598 0
M  V30 1918 H 173.524 0.499853 1.76561 0
M  V30 1919 H 171.906 -1.18959 3.7771 0
M  V30 1920 H 173.08 1.61848 4.31442 0
M  V30 1921 H 171.395 1.31336 3.95145 0
M  V30 1922 H 173.992 -1.16225 5.21916 0
M  V30 1923 H 174.335 -1.93019 3.68849 0
M  V30 1924 H 174.868 -0.25487 3.96983 0
M  V30 1925 H 171.607 1.53831 6.37194 0
M  V30 1926 H 171.127 -0.132628 5.99653 0
M  V30 1927 H 172.806 0.232134 6.46583 0
M  V30 1928 N 172.938 -1.57226 0.108567 0
M  V30 1929 C 174.354 -1.5766 -0.248058 0
M  V30 1930 C 174.554 -1.12063 -1.67464 0
M  V30 1931 O 173.61 -0.803236 -2.39383 0
M  V30 1932 C 174.923 -3.0069 -0.0242287 0
M  V30 1933 C 176.471 -3.12868 -0.0909372 0
M  V30 1934 C 176.946 -4.57879 0.105067 0
M  V30 1935 N 178.437 -4.63172 0.0506846 0
M  V30 1936 C 179.172 -5.73126 0.177396 0
M  V30 1937 N 178.668 -6.91866 0.359696 0
M  V30 1938 N 180.461 -5.61977 0.117709 0
M  V30 1939 H 172.612 -1.85169 1.04049 0
M  V30 1940 H 174.875 -0.85529 0.40888 0
M  V30 1941 H 174.581 -3.38299 0.961604 0
M  V30 1942 H 174.455 -3.6945 -0.76068 0
M  V30 1943 H 176.842 -2.75124 -1.06729 0
M  V30 1944 H 176.923 -2.46672 0.677225 0
M  V30 1945 H 176.567 -4.96321 1.07834 0
M  V30 1946 H 176.497 -5.22153 -0.682954 0
M  V30 1947 H 178.988 -3.778 -0.0871266 0
M  V30 1948 H 179.301 -7.71503 0.447529 0
M  V30 1949 H 177.646 -6.93874 0.395536 0
M  V30 1950 H 180.837 -4.68094 -0.0236741 0
M  V30 1951 H 181.01 -6.47627 0.219905 0
M  V30 1952 N 174.416 0.165178 -1.56732 0
M  V30 1953 C 175.364 1.22369 -1.97809 0
M  V30 1954 C 176.358 1.45488 -0.867741 0
M  V30 1955 O 177.564 1.45995 -1.05288 0
M  V30 1956 H 173.939 0.411486 -0.629431 0
M  V30 1957 H 175.91 0.850425 -2.86025 0
M  V30 1958 C 174.659 2.55403 -2.35934 0
M  V30 1959 H 173.982 2.38438 -3.20916 0
M  V30 1960 H 175.422 3.2814 -2.68514 0
M  V30 1961 C 173.881 3.14611 -1.20506 0
M  V30 1962 O 174.411 3.98626 -0.496016 0
M  V30 1963 N 172.617 2.7379 -0.97403 0
M  V30 1964 H 172.164 2.0557 -1.55238 0
M  V30 1965 H 172.122 3.1374 -0.203573 0
M  V30 1966 N 175.894 1.51508 0.433938 0
M  V30 1967 C 177.124 1.67914 1.20369 0
M  V30 1968 C 177.532 0.377461 1.85397 0
M  V30 1969 O 176.875 -0.654255 1.71654 0
M  V30 1970 C 176.937 2.74045 2.32679 0
M  V30 1971 C 176.601 4.16543 1.87991 0
M  V30 1972 C 177.598 5.01211 1.38145 0
M  V30 1973 C 175.283 4.6266 1.95579 0
M  V30 1974 C 177.277 6.30056 0.964774 0
M  V30 1975 C 174.964 5.91501 1.53523 0
M  V30 1976 C 175.962 6.75027 1.04055 0
M  V30 1977 O 175.65 8.01459 0.625964 0
M  V30 1978 H 175.382 0.566578 0.368735 0
M  V30 1979 H 177.936 1.98709 0.51999 0
M  V30 1980 H 176.166 2.38572 3.04336 0
M  V30 1981 H 177.855 2.79295 2.94532 0
M  V30 1982 H 178.621 4.66783 1.31675 0
M  V30 1983 H 174.5 3.97767 2.33029 0
M  V30 1984 H 178.044 6.95202 0.57796 0
M  V30 1985 H 173.941 6.25442 1.59665 0
M  V30 1986 H 174.709 8.15043 0.751509 0
M  V30 1987 N 177.372 -0.689602 1.41712 0
M  V30 1988 C 178.6 -1.47827 1.44758 0
M  V30 1989 C 179.015 -1.88721 0.0545703 0
M  V30 1990 O 178.372 -1.57176 -0.927463 0
M  V30 1991 C 178.423 -2.73698 2.3616 0
M  V30 1992 O 178.144 -2.34524 3.7004 0
M  V30 1993 C 179.645 -3.67389 2.48072 0
M  V30 1994 H 176.865 -0.455357 0.49284 0
M  V30 1995 H 179.409 -0.848574 1.86063 0
M  V30 1996 H 177.564 -3.32891 1.98148 0
M  V30 1997 H 177.978 -3.15701 4.18847 0
M  V30 1998 H 179.452 -4.52475 3.16181 0
M  V30 1999 H 179.929 -4.12284 1.51388 0
M  V30 2000 H 180.535 -3.14097 2.86746 0
M  V30 2001 N 178.85 -1.27639 -0.924453 0
M  V30 2002 C 180.261 -1.12834 -1.48746 0
M  V30 2003 C 180.612 0.285505 -1.94112 0
M  V30 2004 O 179.737 1.17874 -1.81479 0
M  V30 2005 C 180.332 -2.04217 -2.70334 0
M  V30 2006 C 178.891 -1.93509 -3.22848 0
M  V30 2007 C 178.038 -1.96583 -1.95577 0
M  V30 2008 H 180.989 -1.40484 -0.738233 0
M  V30 2009 H 181.01 -1.59989 -3.4523 0
M  V30 2010 H 180.522 -3.07111 -2.37285 0
M  V30 2011 H 178.623 -0.936131 -3.60649 0
M  V30 2012 H 178.736 -2.79917 -3.88823 0
M  V30 2013 H 177.1 -1.4085 -2.12211 0
M  V30 2014 H 177.883 -3.01137 -1.64837 0
M  V30 2015 N 180.328 1.1314 -1.09713 0
M  V30 2016 C 181.26 2.18343 -0.697056 0
M  V30 2017 C 182.273 1.60669 0.262551 0
M  V30 2018 O 183.462 1.78435 0.0481527 0
M  V30 2019 C 180.562 3.38899 -0.00684728 0
M  V30 2020 C 179.735 4.26078 -0.988741 0
M  V30 2021 C 178.794 5.25155 -0.331394 0
M  V30 2022 O 177.82 5.60701 -0.979926 0
M  V30 2023 N 179.022 5.73271 0.913261 0
M  V30 2024 H 181.787 2.5328 -1.60216 0
M  V30 2025 H 179.348 1.28491 -0.984971 0
M  V30 2026 H 181.34 4.02255 0.444191 0
M  V30 2027 H 179.91 3.02175 0.800551 0
M  V30 2028 H 179.13 3.59453 -1.61826 0
M  V30 2029 H 180.418 4.81178 -1.65364 0
M  V30 2030 H 179.816 5.46544 1.45966 0
M  V30 2031 H 178.373 6.3855 1.30757 0
M  V30 2032 N 181.806 0.884767 1.30421 0
M  V30 2033 C 182.736 0.367574 2.30589 0
M  V30 2034 C 183.717 -0.549464 1.60981 0
M  V30 2035 O 184.902 -0.46336 1.88591 0
M  V30 2036 C 182.032 -0.418944 3.44764 0
M  V30 2037 C 180.986 0.406316 4.26067 0
M  V30 2038 C 180.312 -0.506793 5.32293 0
M  V30 2039 C 181.612 1.64832 4.95608 0
M  V30 2040 H 183.306 1.20462 2.74097 0
M  V30 2041 H 180.852 0.580695 1.31772 0
M  V30 2042 H 182.805 -0.791395 4.13902 0
M  V30 2043 H 181.529 -1.28964 3.0006 0
M  V30 2044 H 180.188 0.760903 3.58617 0
M  V30 2045 H 179.836 -1.37519 4.83836 0
M  V30 2046 H 179.536 0.0415828 5.87585 0
M  V30 2047 H 181.06 -0.875764 6.04287 0
M  V30 2048 H 182.474 1.34646 5.57264 0
M  V30 2049 H 180.871 2.13688 5.60765 0
M  V30 2050 H 181.941 2.39284 4.21748 0
M  V30 2051 N 183.284 -1.43765 0.645699 0
M  V30 2052 C 184.509 -2.06767 0.161883 0
M  V30 2053 C 184.934 -1.48034 -1.16049 0
M  V30 2054 O 184.292 -0.587369 -1.71522 0
M  V30 2055 C 184.34 -3.60519 0.0762003 0
M  V30 2056 O 183.444 -4.00982 -0.963721 0
M  V30 2057 H 182.785 -0.657675 0.091429 0
M  V30 2058 H 185.315 -1.84397 0.886499 0
M  V30 2059 H 185.325 -4.07853 -0.109604 0
M  V30 2060 H 184 -4.02646 1.04157 0
M  V30 2061 H 182.577 -3.65253 -0.751312 0
M  V30 2062 N 184.763 -0.387143 -1.52771 0
M  V30 2063 C 185.673 0.456442 -2.30117 0
M  V30 2064 C 186.689 1.07342 -1.36944 0
M  V30 2065 O 187.865 1.07971 -1.70013 0
M  V30 2066 C 184.93 1.56957 -3.09136 0
M  V30 2067 C 183.991 0.977916 -4.18014 0
M  V30 2068 C 183.224 2.038 -4.93256 0
M  V30 2069 O 183.447 3.25271 -4.68567 0
M  V30 2070 O 182.381 1.6565 -5.78657 0
M  V30 2071 H 186.207 -0.17359 -3.03203 0
M  V30 2072 H 183.792 -0.150919 -1.48636 0
M  V30 2073 H 185.674 2.21628 -3.58412 0
M  V30 2074 H 184.349 2.18461 -2.38865 0
M  V30 2075 H 183.256 0.294525 -3.72939 0
M  V30 2076 H 184.589 0.407128 -4.90513 0
M  V30 2077 N 186.241 1.57166 -0.116904 0
M  V30 2078 C 187.204 2.14039 0.819742 0
M  V30 2079 C 188.204 1.07477 1.19605 0
M  V30 2080 O 189.394 1.33263 1.1219 0
M  V30 2081 C 186.526 2.67891 2.10826 0
M  V30 2082 H 187.719 2.98128 0.325511 0
M  V30 2083 H 185.272 1.55739 0.132312 0
M  V30 2084 H 186.007 1.87384 2.64685 0
M  V30 2085 H 185.792 3.45823 1.84793 0
M  V30 2086 H 187.282 3.11809 2.77785 0
M  V30 2087 N 187.719 -0.156864 1.56817 0
M  V30 2088 C 188.629 -1.2136 2.00771 0
M  V30 2089 C 189.645 -1.47598 0.921459 0
M  V30 2090 O 190.821 -1.59462 1.2302 0
M  V30 2091 C 187.886 -2.52943 2.37109 0
M  V30 2092 C 186.947 -2.34439 3.59634 0
M  V30 2093 C 186.18 -3.59748 3.94229 0
M  V30 2094 O 186.403 -4.65526 3.29609 0
M  V30 2095 O 185.337 -3.52998 4.8752 0
M  V30 2096 H 189.163 -0.870468 2.90958 0
M  V30 2097 H 186.748 -0.36484 1.44877 0
M  V30 2098 H 188.63 -3.30538 2.61386 0
M  V30 2099 H 187.305 -2.86806 1.5008 0
M  V30 2100 H 186.212 -1.54828 3.40557 0
M  V30 2101 H 187.545 -2.05496 4.4725 0
M  V30 2102 N 189.197 -1.51736 -0.425897 0
M  V30 2103 C 190.443 -1.65214 -1.1761 0
M  V30 2104 C 190.776 -0.372778 -1.90589 0
M  V30 2105 O 190.051 0.628139 -1.84078 0
M  V30 2106 C 190.334 -2.86312 -2.18398 0
M  V30 2107 C 190.187 -4.24254 -1.49426 0
M  V30 2108 C 191.506 -3.02925 -3.19256 0
M  V30 2109 H 188.625 -0.601263 -0.426206 0
M  V30 2110 H 191.267 -1.8425 -0.463882 0
M  V30 2111 H 189.417 -2.70213 -2.79137 0
M  V30 2112 H 191.089 -4.52046 -0.919362 0
M  V30 2113 H 189.332 -4.26426 -0.796432 0
M  V30 2114 H 190.003 -5.05001 -2.22885 0
M  V30 2115 H 192.479 -3.1781 -2.68581 0
M  V30 2116 H 191.355 -3.89199 -3.8706 0
M  V30 2117 H 191.616 -2.15497 -3.86023 0
M  V30 2118 N 190.675 0.682077 -1.42076 0
M  V30 2119 C 191.585 1.82535 -1.47371 0
M  V30 2120 C 192.601 1.7017 -0.363079 0
M  V30 2121 O 193.777 1.91848 -0.612875 0
M  V30 2122 C 190.842 3.18624 -1.36674 0
M  V30 2123 C 189.903 3.42999 -2.58167 0
M  V30 2124 C 189.136 4.72595 -2.4797 0
M  V30 2125 O 189.359 5.50006 -1.5116 0
M  V30 2126 O 188.293 4.98054 -3.37974 0
M  V30 2127 H 192.119 1.81023 -2.43853 0
M  V30 2128 H 189.704 0.836887 -1.2376 0
M  V30 2129 H 191.586 3.99847 -1.33043 0
M  V30 2130 H 190.261 3.20789 -0.433138 0
M  V30 2131 H 189.168 2.61653 -2.67373 0
M  V30 2132 H 190.501 3.45659 -3.50401 0
M  V30 2133 N 192.153 1.28127 0.917671 0
M  V30 2134 C 193.569 1.05749 1.19538 0
M  V30 2135 C 193.769 -0.202633 2.00479 0
M  V30 2136 O 192.825 -0.905382 2.3571 0
M  V30 2137 C 194.138 2.30273 1.93378 0
M  V30 2138 C 195.686 2.35412 2.06277 0
M  V30 2139 C 196.161 3.59692 2.83524 0
M  V30 2140 N 197.652 3.60309 2.91087 0
M  V30 2141 C 198.387 4.53147 3.51348 0
M  V30 2142 N 197.883 5.563 4.12919 0
M  V30 2143 N 199.676 4.40751 3.48849 0
M  V30 2144 H 191.827 2.09024 0.377184 0
M  V30 2145 H 194.09 0.919798 0.22951 0
M  V30 2146 H 193.796 3.22055 1.41328 0
M  V30 2147 H 193.67 2.36378 2.93947 0
M  V30 2148 H 196.057 1.4413 2.57508 0
M  V30 2149 H 196.138 2.33304 1.04895 0
M  V30 2150 H 195.782 4.51316 2.32973 0
M  V30 2151 H 195.712 3.59054 3.85211 0
M  V30 2152 H 198.203 2.85714 2.47338 0
M  V30 2153 H 198.516 6.2329 4.56869 0
M  V30 2154 H 196.861 5.60131 4.11435 0
M  V30 2155 H 200.052 3.59367 2.99955 0
M  V30 2156 H 200.225 5.13291 3.9552 0
M  V30 2157 N 193.631 -1.12557 1.10312 0
M  V30 2158 C 194.594 -2.16434 0.75424 0
M  V30 2159 C 195.594 -1.59278 -0.220685 0
M  V30 2160 O 196.784 -1.742 0.00230591 0
M  V30 2161 C 193.916 -3.40699 0.116987 0
M  V30 2162 H 195.109 -2.48811 1.67431 0
M  V30 2163 H 192.662 -1.27542 0.903475 0
M  V30 2164 H 193.397 -3.13921 -0.813877 0
M  V30 2165 H 193.182 -3.83459 0.818613 0
M  V30 2166 H 194.672 -4.17451 -0.111387 0
M  V30 2167 N 195.109 -0.891671 -1.2995 0
M  V30 2168 C 196.358 -0.509521 -1.95158 0
M  V30 2169 C 196.671 0.947388 -1.71125 0
M  V30 2170 O 197.877 1.43669 -2.30372 0
M  V30 2171 C 196.333 -0.860315 -3.49466 0
M  V30 2172 C 195.941 -2.33545 -3.8231 0
M  V30 2173 C 197.685 -0.547687 -4.20952 0
M  V30 2174 C 195.592 -2.62752 -5.29826 0
M  V30 2175 H 194.522 -0.18682 -0.730489 0
M  V30 2176 H 197.173 -1.08756 -1.47798 0
M  V30 2177 H 195.555 -0.211285 -3.95436 0
M  V30 2178 H 196.729 -3.02936 -3.47227 0
M  V30 2179 H 195.044 -2.61629 -3.23944 0
M  V30 2180 H 197.641 -0.742854 -5.29515 0
M  V30 2181 H 197.984 0.51332 -4.13123 0
M  V30 2182 H 198.517 -1.1542 -3.80688 0
M  V30 2183 H 195.256 -3.6762 -5.42712 0
M  V30 2184 H 194.776 -1.97977 -5.66185 0
M  V30 2185 H 196.455 -2.48601 -5.97333 0
M  V30 2186 N 196.587 1.43421 -0.653314 0
M  V30 2187 C 197.534 2.30768 0.0382271 0
M  V30 2188 C 198.504 1.44755 0.814576 0
M  V30 2189 O 199.689 1.73624 0.791162 0
M  V30 2190 C 196.829 3.30336 0.998599 0
M  V30 2191 C 195.942 4.31448 0.218342 0
M  V30 2192 C 195.077 5.18098 1.17252 0
M  V30 2193 C 194.116 6.10902 0.382702 0
M  V30 2194 N 193.253 6.90176 1.28848 0
M  V30 2195 H 198.093 2.89357 -0.712511 0
M  V30 2196 H 195.63 1.42548 -0.363128 0
M  V30 2197 H 197.588 3.86572 1.56901 0
M  V30 2198 H 196.218 2.73397 1.71621 0
M  V30 2199 H 195.27 3.77506 -0.46836 0
M  V30 2200 H 196.582 4.97227 -0.395812 0
M  V30 2201 H 195.736 5.7896 1.81356 0
M  V30 2202 H 194.475 4.52444 1.82058 0
M  V30 2203 H 193.48 5.49128 -0.27169 0
M  V30 2204 H 194.705 6.78598 -0.260957 0
M  V30 2205 H 192.651 6.27171 1.92334 0
M  V30 2206 H 192.568 7.52478 0.728887 0
M  V30 2207 H 193.836 7.55543 1.91766 0
M  V30 2208 N 198.065 0.39524 1.52563 0
M  V30 2209 C 199.342 -0.242908 1.94086 0
M  V30 2210 C 199.722 -1.63841 1.33114 0
M  V30 2211 O 199.07 -2.22928 0.501529 0
M  V30 2212 C 199.28 -0.26327 3.48006 0
M  V30 2213 C 200.628 -0.489354 4.21771 0
M  V30 2214 O 201.652 -0.343226 3.54543 0
M  V30 2215 O 200.511 -0.776169 5.4096 0
M  V30 2216 H 197.605 -0.152536 0.812811 0
M  V30 2217 H 200.151 0.450178 1.6362 0
M  V30 2218 H 198.923 0.713985 3.84731 0
M  V30 2219 H 198.546 -1.00103 3.84792 0
M  V30 2220 N 199.544 -1.57102 0.125237 0
M  V30 2221 C 200.507 -2.14471 -0.80838 0
M  V30 2222 C 201.507 -1.0811 -1.19033 0
M  V30 2223 O 202.697 -1.33856 -1.11482 0
M  V30 2224 C 199.829 -2.69005 -2.09402 0
M  V30 2225 H 201.022 -2.98297 -0.309696 0
M  V30 2226 H 198.575 -1.55807 -0.124051 0
M  V30 2227 H 199.31 -1.88785 -2.63687 0
M  V30 2228 H 199.095 -3.46799 -1.82957 0
M  V30 2229 H 200.585 -3.13278 -2.76128 0
M  V30 2230 N 201.022 0.148545 -1.56898 0
M  V30 2231 C 202.269 0.861418 -1.83264 0
M  V30 2232 C 202.597 1.81239 -0.705883 0
M  V30 2233 O 201.852 1.93305 0.305212 0
M  V30 2234 C 202.151 1.67064 -3.1595 0
M  V30 2235 C 201.817 0.866591 -4.42494 0
M  V30 2236 C 200.479 0.644762 -4.76861 0
M  V30 2237 C 202.831 0.30418 -5.20312 0
M  V30 2238 C 200.159 -0.15021 -5.86508 0
M  V30 2239 C 202.511 -0.477824 -6.30793 0
M  V30 2240 C 201.175 -0.710244 -6.63711 0
M  V30 2241 H 200.445 0.315215 -0.670612 0
M  V30 2242 H 203.092 0.125142 -1.91091 0
M  V30 2243 H 201.397 2.47698 -3.03567 0
M  V30 2244 H 203.094 2.22566 -3.33565 0
M  V30 2245 H 199.684 1.04955 -4.15551 0
M  V30 2246 H 203.868 0.462844 -4.94137 0
M  V30 2247 H 199.124 -0.339796 -6.10455 0
M  V30 2248 H 203.298 -0.92076 -6.90286 0
M  V30 2249 H 200.925 -1.3281 -7.48509 0
M  V30 2250 N 202.5 1.5196 0.417844 0
M  V30 2251 C 203.41 1.77554 1.53336 0
M  V30 2252 C 204.426 0.660655 1.6097 0
M  V30 2253 O 205.602 0.945099 1.77848 0
M  V30 2254 C 202.667 1.91291 2.89152 0
M  V30 2255 C 201.728 3.15183 2.91475 0
M  V30 2256 C 200.961 3.28256 4.20813 0
M  V30 2257 O 201.184 2.46798 5.14244 0
M  V30 2258 O 200.118 4.21356 4.29817 0
M  V30 2259 H 203.944 2.7222 1.34647 0
M  V30 2260 H 201.529 1.36698 0.602828 0
M  V30 2261 H 203.411 2.02199 3.69721 0
M  V30 2262 H 202.086 0.998129 3.07927 0
M  V30 2263 H 200.993 3.09739 2.09791 0
M  V30 2264 H 202.326 4.06414 2.77648 0
M  V30 2265 N 203.978 -0.674533 1.42435 0
M  V30 2266 C 204.908 -1.80009 1.48724 0
M  V30 2267 C 205.889 -1.6659 0.343793 0
M  V30 2268 O 207.074 -1.86007 0.558137 0
M  V30 2269 C 204.204 -3.18306 1.38919 0
M  V30 2270 C 203.158 -3.46461 2.51294 0
M  V30 2271 C 202.484 -4.84335 2.26547 0
M  V30 2272 C 203.784 -3.43328 3.93603 0
M  V30 2273 H 205.478 -1.75004 2.42928 0
M  V30 2274 H 203.024 -0.840533 1.16923 0
M  V30 2275 H 204.977 -3.9678 1.41927 0
M  V30 2276 H 203.701 -3.2399 0.412094 0
M  V30 2277 H 202.36 -2.70348 2.47604 0
M  V30 2278 H 202.008 -4.86669 1.2713 0
M  V30 2279 H 201.708 -5.04136 3.01861 0
M  V30 2280 H 203.232 -5.65094 2.31304 0
M  V30 2281 H 204.646 -4.11772 3.98894 0
M  V30 2282 H 203.043 -3.74664 4.68771 0
M  V30 2283 H 204.113 -2.41897 4.20255 0
M  V30 2284 N 205.456 -1.28612 -0.910864 0
M  V30 2285 C 206.702 -1.17116 -1.66299 0
M  V30 2286 C 207.057 0.276917 -1.90397 0
M  V30 2287 O 206.35 1.19795 -1.49532 0
M  V30 2288 C 206.544 -1.90624 -3.0232 0
M  V30 2289 C 206.373 -3.42431 -2.91498 0
M  V30 2290 C 205.143 -4.11773 -2.92867 0
M  V30 2291 C 207.341 -4.38124 -2.69355 0
M  V30 2292 N 205.323 -5.50025 -2.72664 0
M  V30 2293 C 206.694 -5.63759 -2.58023 0
M  V30 2294 C 208.749 -4.28016 -2.54375 0
M  V30 2295 C 207.452 -6.80436 -2.33238 0
M  V30 2296 C 209.478 -5.44433 -2.30969 0
M  V30 2297 C 208.84 -6.69034 -2.20394 0
M  V30 2298 H 204.939 -0.483506 -0.61461 0
M  V30 2299 H 207.523 -1.62299 -1.0755 0
M  V30 2300 H 205.694 -1.4787 -3.5915 0
M  V30 2301 H 207.426 -1.71488 -3.66571 0
M  V30 2302 H 204.181 -3.63378 -3.03732 0
M  V30 2303 H 204.605 -6.22705 -2.65646 0
M  V30 2304 H 209.247 -3.32388 -2.613 0
M  V30 2305 H 206.965 -7.7613 -2.25051 0
M  V30 2306 H 210.551 -5.38504 -2.20238 0
M  V30 2307 H 209.431 -7.57595 -2.02531 0
M  V30 2308 N 206.934 1.1197 -1.10907 0
M  V30 2309 C 208.159 1.87942 -0.877064 0
M  V30 2310 C 208.584 1.79341 0.567314 0
M  V30 2311 O 207.942 1.15184 1.40009 0
M  V30 2312 C 207.99 3.34926 -1.33629 0
M  V30 2313 O 207.094 4.09303 -0.504447 0
M  V30 2314 H 206.435 0.583785 -0.316371 0
M  V30 2315 H 208.965 1.4157 -1.47712 0
M  V30 2316 H 208.975 3.8577 -1.32837 0
M  V30 2317 H 207.65 3.40504 -2.3881 0
M  V30 2318 H 206.227 3.68393 -0.577993 0
M  V30 2319 N 208.412 0.89855 1.29475 0
M  V30 2320 C 209.658 0.524658 1.95896 0
M  V30 2321 C 209.991 -0.926468 1.70676 0
M  V30 2322 O 209.266 -1.65665 1.01908 0
M  V30 2323 C 209.549 0.81633 3.50725 0
M  V30 2324 C 209.402 2.31907 3.85408 0
M  V30 2325 C 210.721 0.302038 4.39062 0
M  V30 2326 H 207.84 0.19209 0.711527 0
M  V30 2327 H 210.482 1.12502 1.53112 0
M  V30 2328 H 208.632 0.305369 3.87298 0
M  V30 2329 H 210.304 2.89949 3.58786 0
M  V30 2330 H 208.547 2.78027 3.32992 0
M  V30 2331 H 209.218 2.47373 4.93468 0
M  V30 2332 H 211.694 0.739551 4.09475 0
M  V30 2333 H 210.57 0.535331 5.46283 0
M  V30 2334 H 210.831 -0.797216 4.34853 0
M  V30 2335 N 209.89 -1.43072 0.660911 0
M  V30 2336 C 210.853 -2.29194 -0.0166406 0
M  V30 2337 C 211.853 -1.42609 -0.742912 0
M  V30 2338 O 213.043 -1.64155 -0.583004 0
M  V30 2339 C 210.175 -3.24831 -1.0343 0
M  V30 2340 H 211.368 -2.90596 0.741208 0
M  V30 2341 H 208.921 -1.5048 0.422532 0
M  V30 2342 H 209.656 -2.68339 -1.82111 0
M  V30 2343 H 209.441 -3.88676 -0.517082 0
M  V30 2344 H 210.931 -3.89451 -1.50723 0
M  V30 2345 N 211.368 -0.403325 -1.52352 0
M  V30 2346 C 212.593 0.176499 -2.06648 0
M  V30 2347 C 213.018 1.38577 -1.27193 0
M  V30 2348 O 212.376 1.7879 -0.300637 0
M  V30 2349 C 212.424 0.511061 -3.5696 0
M  V30 2350 O 211.528 1.60294 -3.79973 0
M  V30 2351 H 210.869 0.0167337 -0.663789 0
M  V30 2352 H 213.399 -0.574848 -1.96359 0
M  V30 2353 H 213.409 0.771362 -4.00642 0
M  V30 2354 H 212.084 -0.37296 -4.14224 0
M  V30 2355 H 210.661 1.33526 -3.48174 0
M  V30 2356 N 212.846 1.57033 -0.133567 0
M  V30 2357 C 214.257 1.82593 0.389464 0
M  V30 2358 C 214.608 1.05156 1.6564 0
M  V30 2359 O 213.733 0.292644 2.14412 0
M  V30 2360 C 214.328 3.31204 0.713377 0
M  V30 2361 C 212.887 3.57393 1.18098 0
M  V30 2362 C 212.034 2.76598 0.197126 0
M  V30 2363 H 214.985 1.54598 -0.358481 0
M  V30 2364 H 215.006 3.46627 1.56939 0
M  V30 2365 H 214.518 3.87537 -0.2089 0
M  V30 2366 H 212.619 3.06433 2.11966 0
M  V30 2367 H 212.732 4.65915 1.11624 0
M  V30 2368 H 211.096 2.45257 0.687088 0
M  V30 2369 H 211.879 3.35697 -0.718504 0
M  V30 2370 N 214.325 -0.140222 1.56975 0
M  V30 2371 C 215.255 -1.17456 2.01808 0
M  V30 2372 C 216.236 -1.44415 0.898794 0
M  V30 2373 O 217.421 -1.5522 1.16707 0
M  V30 2374 C 214.551 -2.50607 2.40444 0
M  V30 2375 C 213.505 -2.38155 3.55621 0
M  V30 2376 C 212.831 -3.76078 3.80091 0
M  V30 2377 C 214.131 -1.85991 4.88062 0
M  V30 2378 H 215.825 -0.801743 2.88466 0
M  V30 2379 H 213.371 -0.38422 1.38779 0
M  V30 2380 H 215.324 -3.23197 2.7041 0
M  V30 2381 H 214.048 -2.89737 1.50732 0
M  V30 2382 H 212.707 -1.68016 3.25832 0
M  V30 2383 H 212.355 -4.12656 2.87618 0
M  V30 2384 H 212.055 -3.68606 4.57606 0
M  V30 2385 H 213.579 -4.50206 4.12488 0
M  V30 2386 H 214.993 -2.4838 5.16701 0
M  V30 2387 H 213.39 -1.89393 5.6943 0
M  V30 2388 H 214.46 -0.816023 4.77984 0
M  V30 2389 N 215.803 -1.52179 -0.40978 0
M  V30 2390 C 217.052 -1.65434 -1.15388 0
M  V30 2391 C 217.365 -0.390056 -1.91671 0
M  V30 2392 O 218.571 -0.402399 -2.68501 0
M  V30 2393 C 217.027 -2.92279 -2.10003 0
M  V30 2394 C 216.635 -4.25813 -1.39239 0
M  V30 2395 C 218.379 -3.14897 -2.84675 0
M  V30 2396 C 216.286 -5.43782 -2.32498 0
M  V30 2397 H 215.216 -0.616267 -0.434432 0
M  V30 2398 H 217.867 -1.78666 -0.418401 0
M  V30 2399 H 216.249 -2.72744 -2.871 0
M  V30 2400 H 217.423 -4.55828 -0.675099 0
M  V30 2401 H 215.738 -4.09292 -0.766097 0
M  V30 2402 H 218.335 -4.0021 -3.54593 0
M  V30 2403 H 218.678 -2.29103 -3.47588 0
M  V30 2404 H 219.211 -3.34901 -2.14677 0
M  V30 2405 H 215.95 -6.3192 -1.74233 0
M  V30 2406 H 215.47 -5.18106 -3.02201 0
M  V30 2407 H 217.149 -5.76834 -2.93038 0
M  V30 2408 N 217.281 0.66697 -1.42791 0
M  V30 2409 C 218.528 1.42699 -1.43678 0
M  V30 2410 C 218.856 1.94419 -0.0560425 0
M  V30 2411 O 218.111 1.7182 0.936831 0
M  V30 2412 C 218.41 2.6349 -2.4147 0
M  V30 2413 C 218.076 2.30267 -3.8767 0
M  V30 2414 C 216.738 2.20918 -4.27491 0
M  V30 2415 C 219.09 2.03435 -4.79858 0
M  V30 2416 C 216.418 1.82873 -5.57471 0
M  V30 2417 C 218.77 1.66892 -6.10188 0
M  V30 2418 C 217.434 1.56058 -6.49001 0
M  V30 2419 H 216.704 0.522171 -0.525755 0
M  V30 2420 H 219.351 0.759785 -1.75783 0
M  V30 2421 H 217.656 3.35279 -2.0272 0
M  V30 2422 H 219.353 3.21684 -2.39417 0
M  V30 2423 H 215.943 2.38449 -3.56146 0
M  V30 2424 H 220.127 2.09586 -4.49875 0
M  V30 2425 H 215.383 1.7306 -5.86396 0
M  V30 2426 H 219.557 1.45157 -6.81104 0
M  V30 2427 H 217.184 1.26348 -7.49627 0
M  V30 2428 N 218.759 1.29093 0.90403 0
M  V30 2429 C 219.987 1.19689 1.68766 0
M  V30 2430 C 220.402 -0.243113 1.87228 0
M  V30 2431 O 219.759 -1.16326 1.40621 0
M  V30 2432 C 219.81 1.90144 3.07453 0
M  V30 2433 O 219.531 3.2852 2.89838 0
M  V30 2434 C 221.032 1.87162 4.01852 0
M  V30 2435 H 218.252 0.415035 0.527244 0
M  V30 2436 H 220.796 1.7039 1.13082 0
M  V30 2437 H 218.951 1.43289 3.59926 0
M  V30 2438 H 219.365 3.63944 3.77684 0
M  V30 2439 H 220.839 2.41032 4.96596 0
M  V30 2440 H 221.316 0.84617 4.30972 0
M  V30 2441 H 221.922 2.33741 3.5531 0
M  V30 2442 N 220.237 -1.11381 1.11499 0
M  V30 2443 C 221.653 -1.35143 0.849031 0
M  V30 2444 C 221.853 -1.94515 -0.525938 0
M  V30 2445 O 220.909 -2.1785 -1.27662 0
M  V30 2446 C 222.222 -2.28249 1.95762 0
M  V30 2447 C 223.77 -2.41812 1.98736 0
M  V30 2448 C 224.245 -3.3824 3.088 0
M  V30 2449 N 225.736 -3.45803 3.08179 0
M  V30 2450 C 226.471 -4.20358 3.89982 0
M  V30 2451 N 225.967 -4.97884 4.8175 0
M  V30 2452 N 227.76 -4.15877 3.78157 0
M  V30 2453 H 219.911 -0.712062 2.00109 0
M  V30 2454 H 222.174 -0.376025 0.870235 0
M  V30 2455 H 221.88 -1.91817 2.94787 0
M  V30 2456 H 221.754 -3.28473 1.85433 0
M  V30 2457 H 224.141 -2.77518 1.00338 0
M  V30 2458 H 224.222 -1.41437 2.13141 0
M  V30 2459 H 223.866 -3.03261 4.07425 0
M  V30 2460 H 223.796 -4.38471 2.91635 0
M  V30 2461 H 226.287 -2.90506 2.41691 0
M  V30 2462 H 226.6 -5.52142 5.40702 0
M  V30 2463 H 224.945 -4.97043 4.85771 0
M  V30 2464 H 228.136 -3.544 3.05808 0
M  V30 2465 H 228.309 -4.73723 4.42143 0
M  V30 2466 N 221.715 -0.905404 -1.28997 0
M  V30 2467 C 222.964 -0.530191 -1.94607 0
M  V30 2468 C 223.277 0.929185 -1.72121 0
M  V30 2469 O 224.483 1.41218 -2.31883 0
M  V30 2470 C 222.939 -0.897333 -3.48534 0
M  V30 2471 C 222.547 -2.37587 -3.79811 0
M  V30 2472 C 224.291 -0.592304 -4.20347 0
M  V30 2473 C 222.198 -2.68357 -5.27009 0
M  V30 2474 H 221.128 -0.194558 -0.728466 0
M  V30 2475 H 223.779 -1.10318 -1.46636 0
M  V30 2476 H 222.161 -0.253214 -3.9519 0
M  V30 2477 H 223.335 -3.06602 -3.43994 0
M  V30 2478 H 221.65 -2.6505 -3.2115 0
M  V30 2479 H 224.247 -0.798975 -5.28697 0
M  V30 2480 H 224.59 0.469474 -4.13644 0
M  V30 2481 H 225.123 -1.19452 -3.79442 0
M  V30 2482 H 221.862 -3.73355 -5.38782 0
M  V30 2483 H 221.382 -2.03971 -5.64053 0
M  V30 2484 H 223.061 -2.54922 -5.94663 0
M  V30 2485 N 223.193 1.4272 -0.668489 0
M  V30 2486 C 224.418 2.06484 -0.194758 0
M  V30 2487 C 224.843 1.49862 1.13679 0
M  V30 2488 O 224.201 0.614582 1.70565 0
M  V30 2489 C 224.249 3.60353 -0.133546 0
M  V30 2490 O 223.353 4.02464 0.899806 0
M  V30 2491 H 222.694 0.656137 -0.10188 0
M  V30 2492 H 225.224 1.82964 -0.915722 0
M  V30 2493 H 225.234 4.07976 0.0447041 0
M  V30 2494 H 223.909 4.00938 -1.1055 0
M  V30 2495 H 222.486 3.66402 0.693109 0
M  V30 2496 N 224.671 0.411399 1.52136 0
M  V30 2497 C 225.603 -0.448386 2.24771 0
M  V30 2498 C 226.616 -1.00828 1.27818 0
M  V30 2499 O 227.805 -0.906841 1.53749 0
M  V30 2500 C 224.905 -1.63636 2.96777 0
M  V30 2501 C 224.078 -1.19995 4.20618 0
M  V30 2502 C 223.137 -2.25509 4.75428 0
M  V30 2503 O 222.163 -1.86007 5.3795 0
M  V30 2504 N 223.365 -3.577 4.57199 0
M  V30 2505 H 226.13 0.174025 2.99194 0
M  V30 2506 H 223.691 0.238897 1.60128 0
M  V30 2507 H 225.683 -2.33793 3.30338 0
M  V30 2508 H 224.253 -2.16465 2.25526 0
M  V30 2509 H 223.473 -0.326421 3.92846 0
M  V30 2510 H 224.761 -0.885365 5.01038 0
M  V30 2511 H 224.159 -3.92543 4.07341 0
M  V30 2512 H 222.716 -4.23827 4.95191 0
M  V30 2513 N 226.149 -1.5696 0.141893 0
M  V30 2514 C 227.397 -1.95573 -0.509484 0
M  V30 2515 C 227.718 -1.02746 -1.65736 0
M  V30 2516 O 226.988 -0.0880311 -1.95702 0
M  V30 2517 H 225.568 -0.722115 -0.191205 0
M  V30 2518 H 228.23 -1.93697 0.216196 0
M  V30 2519 H 227.326 -2.99171 -0.889 0
M  V30 2520 N 227.627 0.131896 -1.57047 0
M  V30 2521 C 228.537 1.1815 -2.02676 0
M  V30 2522 C 229.553 1.46113 -0.944824 0
M  V30 2523 O 230.729 1.57485 -1.25541 0
M  V30 2524 C 227.794 2.49139 -2.41103 0
M  V30 2525 C 226.855 2.28688 -3.63318 0
M  V30 2526 C 226.088 3.53431 -3.99903 0
M  V30 2527 O 226.311 4.60223 -3.36973 0
M  V30 2528 O 225.245 3.45198 -4.93074 0
M  V30 2529 H 229.071 0.824069 -2.92306 0
M  V30 2530 H 226.656 0.341745 -1.45439 0
M  V30 2531 H 228.538 3.26338 -2.66611 0
M  V30 2532 H 227.213 2.84382 -1.54624 0
M  V30 2533 H 226.12 1.4939 -3.42977 0
M  V30 2534 H 227.453 1.98355 -4.50462 0
M  V30 2535 N 229.106 1.52395 0.401703 0
M  V30 2536 C 230.069 1.75636 1.47257 0
M  V30 2537 C 231.069 0.62628 1.48103 0
M  V30 2538 O 232.259 0.894227 1.49497 0
M  V30 2539 C 229.391 1.84553 2.86624 0
M  V30 2540 H 230.584 2.71241 1.27938 0
M  V30 2541 H 228.137 1.42923 0.632662 0
M  V30 2542 H 228.872 0.908882 3.11303 0
M  V30 2543 H 228.657 2.66715 2.87412 0
M  V30 2544 H 230.147 2.04251 3.64241 0
M  V30 2545 N 230.584 -0.659388 1.43143 0
M  V30 2546 C 231.861 -1.41627 1.34912 0
M  V30 2547 C 232.241 -2.11099 -0.00607785 0
M  V30 2548 O 231.589 -2.04353 -1.02236 0
M  V30 2549 C 231.799 -2.40604 2.52805 0
M  V30 2550 C 233.147 -3.04789 2.95616 0
M  V30 2551 O 234.171 -2.50932 2.52807 0
M  V30 2552 O 233.03 -4.02421 3.69756 0
M  V30 2553 H 230.124 -0.63246 0.532844 0
M  V30 2554 H 232.67 -0.686814 1.5518 0
M  V30 2555 H 231.442 -1.88174 3.43083 0
M  V30 2556 H 231.065 -3.21009 2.34604 0
M  V30 2557 N 232.062 -1.29571 -0.897171 0
M  V30 2558 C 233.311 -1.1706 -1.64256 0
M  V30 2559 C 233.624 0.276476 -1.93636 0
M  V30 2560 O 234.83 0.52294 -2.66416 0
M  V30 2561 C 233.286 -2.0475 -2.95982 0
M  V30 2562 C 232.894 -3.54295 -2.74187 0
M  V30 2563 C 234.638 -2.0097 -3.73914 0
M  V30 2564 C 232.545 -4.34081 -4.01656 0
M  V30 2565 H 231.475 -0.43452 -0.616205 0
M  V30 2566 H 234.126 -1.54229 -0.994268 0
M  V30 2567 H 232.508 -1.60452 -3.62038 0
M  V30 2568 H 233.682 -4.06662 -2.1671 0
M  V30 2569 H 231.997 -3.59773 -2.09648 0
M  V30 2570 H 234.594 -2.57838 -4.68427 0
M  V30 2571 H 234.937 -0.990273 -4.0435 0
M  V30 2572 H 235.47 -2.43325 -3.14703 0
M  V30 2573 H 232.209 -5.36671 -3.76384 0
M  V30 2574 H 231.729 -3.86483 -4.58684 0
M  V30 2575 H 233.408 -4.44877 -4.69781 0
M  V30 2576 N 233.54 1.10788 -1.12088 0
M  V30 2577 C 234.488 2.19111 -0.780587 0
M  V30 2578 C 235.482 1.67818 0.230961 0
M  V30 2579 O 236.688 1.79777 0.0895427 0
M  V30 2580 H 233.063 0.714477 -0.234578 0
M  V30 2581 H 235.034 2.45055 -1.70266 0
M  V30 2582 C 233.783 3.46818 -0.24747 0
M  V30 2583 H 233.106 3.86646 -1.01712 0
M  V30 2584 H 234.546 4.23973 -0.0476291 0
M  V30 2585 C 233.005 3.20968 1.02378 0
M  V30 2586 O 233.535 3.42298 2.10226 0
M  V30 2587 N 231.741 2.74658 0.949271 0
M  V30 2588 H 231.288 2.57501 0.0715173 0
M  V30 2589 H 231.246 2.57739 1.80049 0
M  V30 2590 N 235.018 0.912232 1.28515 0
M  V30 2591 C 236.267 0.540504 1.94323 0
M  V30 2592 C 236.58 -0.920044 1.72611 0
M  V30 2593 O 237.786 -1.39986 2.32629 0
M  V30 2594 C 236.242 0.915803 3.48053 0
M  V30 2595 C 235.85 2.39598 3.78546 0
M  V30 2596 C 237.594 0.614588 4.20027 0
M  V30 2597 C 235.501 2.71148 5.25578 0
M  V30 2598 H 234.431 0.198418 0.727424 0
M  V30 2599 H 237.082 1.11094 1.46049 0
M  V30 2600 H 235.464 0.274168 3.9505 0
M  V30 2601 H 236.638 3.08422 3.42364 0
M  V30 2602 H 234.953 2.66749 3.1974 0
M  V30 2603 H 237.55 0.827002 5.28266 0
M  V30 2604 H 237.893 -0.447531 4.13887 0
M  V30 2605 H 238.426 1.21462 3.78803 0
M  V30 2606 H 235.165 3.76207 5.36794 0
M  V30 2607 H 234.685 2.0696 5.62963 0
M  V30 2608 H 236.364 2.58072 5.93302 0
M  V30 2609 N 236.496 -1.42363 0.676048 0
M  V30 2610 C 237.459 -2.29199 0.00766941 0
M  V30 2611 C 238.459 -1.43389 -0.727745 0
M  V30 2612 O 239.649 -1.64764 -0.56556 0
M  V30 2613 C 236.781 -3.2591 -0.999785 0
M  V30 2614 H 237.974 -2.89794 0.771988 0
M  V30 2615 H 235.527 -1.50024 0.438468 0
M  V30 2616 H 236.262 -2.70256 -1.79255 0
M  V30 2617 H 236.047 -3.89202 -0.475829 0
M  V30 2618 H 237.537 -3.91028 -1.46583 0
M  V30 2619 N 237.974 -0.419461 -1.51915 0
M  V30 2620 C 239.221 0.152939 -2.01922 0
M  V30 2621 C 239.549 1.4426 -1.30458 0
M  V30 2622 O 238.804 1.91514 -0.402593 0
M  V30 2623 C 239.103 0.437067 -3.54717 0
M  V30 2624 C 238.769 -0.764632 -4.44369 0
M  V30 2625 C 237.431 -1.09423 -4.68594 0
M  V30 2626 C 239.783 -1.56713 -4.97082 0
M  V30 2627 C 237.111 -2.22732 -5.42777 0
M  V30 2628 C 239.463 -2.69107 -5.72507 0
M  V30 2629 C 238.127 -3.02541 -5.95 0
M  V30 2630 H 237.397 0.0559644 -0.738884 0
M  V30 2631 H 240.044 -0.562998 -1.83037 0
M  V30 2632 H 238.349 1.23469 -3.71837 0
M  V30 2633 H 240.046 0.893083 -3.90928 0
M  V30 2634 H 236.636 -0.497775 -4.257 0
M  V30 2635 H 240.82 -1.32571 -4.78266 0
M  V30 2636 H 236.076 -2.48971 -5.58411 0
M  V30 2637 H 240.25 -3.31671 -6.12346 0
M  V30 2638 H 237.877 -3.90457 -6.52264 0
M  V30 2639 N 239.452 1.56882 -0.150215 0
M  V30 2640 C 240.682 2.00302 0.506213 0
M  V30 2641 C 241.09 1.02934 1.58749 0
M  V30 2642 O 240.433 0.0188384 1.8369 0
M  V30 2643 C 240.495 3.40156 1.16337 0
M  V30 2644 C 240.159 4.56439 0.226311 0
M  V30 2645 C 241.156 5.17012 -0.547265 0
M  V30 2646 C 238.841 5.02136 0.128279 0
M  V30 2647 C 240.835 6.21693 -1.40629 0
M  V30 2648 C 238.522 6.06672 -0.734345 0
M  V30 2649 C 239.52 6.6632 -1.50023 0
M  V30 2650 O 239.208 7.68831 -2.34848 0
M  V30 2651 H 238.94 0.662182 0.135984 0
M  V30 2652 H 241.494 2.03961 -0.242746 0
M  V30 2653 H 239.724 3.33346 1.96004 0
M  V30 2654 H 241.413 3.67663 1.71985 0
M  V30 2655 H 242.179 4.82603 -0.48158 0
M  V30 2656 H 238.058 4.55435 0.714157 0
M  V30 2657 H 241.602 6.68179 -2.00455 0
M  V30 2658 H 237.499 6.40507 -0.801309 0
M  V30 2659 H 238.267 7.86065 -2.28131 0
M  V30 2660 N 240.93 -0.123565 1.57115 0
M  V30 2661 C 241.862 -1.17739 1.96648 0
M  V30 2662 C 242.875 -1.37906 0.865201 0
M  V30 2663 O 244.064 -1.37062 1.14351 0
M  V30 2664 C 241.164 -2.53821 2.24562 0
M  V30 2665 C 240.337 -2.54317 3.55867 0
M  V30 2666 C 239.396 -3.72112 3.72047 0
M  V30 2667 O 238.422 -3.55907 4.44206 0
M  V30 2668 N 239.624 -4.90498 3.10471 0
M  V30 2669 H 242.389 -0.841147 2.87654 0
M  V30 2670 H 239.95 -0.31289 1.58848 0
M  V30 2671 H 241.942 -3.31175 2.32606 0
M  V30 2672 H 240.512 -2.79645 1.39705 0
M  V30 2673 H 239.732 -1.62711 3.59053 0
M  V30 2674 H 241.02 -2.51701 4.42181 0
M  V30 2675 H 240.418 -5.06567 2.51806 0
M  V30 2676 H 238.975 -5.65544 3.24043 0
M  V30 2677 N 242.408 -1.52605 -0.393616 0
M  V30 2678 C 243.824 -1.41753 -0.733357 0
M  V30 2679 C 244.024 -0.534293 -1.94287 0
M  V30 2680 O 243.08 -0.0059787 -2.52499 0
M  V30 2681 C 244.393 -2.84531 -0.972772 0
M  V30 2682 C 245.941 -2.93978 -1.07453 0
M  V30 2683 C 246.416 -4.37756 -1.3466 0
M  V30 2684 N 247.907 -4.4106 -1.41492 0
M  V30 2685 C 248.642 -5.49387 -1.642 0
M  V30 2686 N 248.138 -6.67806 -1.8441 0
M  V30 2687 N 249.931 -5.36923 -1.66342 0
M  V30 2688 H 242.082 -2.08555 0.402328 0
M  V30 2689 H 244.345 -0.940654 0.117789 0
M  V30 2690 H 244.051 -3.51353 -0.156204 0
M  V30 2691 H 243.925 -3.26508 -1.88871 0
M  V30 2692 H 246.312 -2.27326 -1.88167 0
M  V30 2693 H 246.393 -2.55435 -0.136605 0
M  V30 2694 H 246.037 -5.04972 -0.544581 0
M  V30 2695 H 245.967 -4.73848 -2.2973 0
M  V30 2696 H 248.458 -3.55705 -1.27601 0
M  V30 2697 H 248.771 -7.46141 -2.01231 0
M  V30 2698 H 247.116 -6.70843 -1.81644 0
M  V30 2699 H 250.307 -4.43381 -1.50102 0
M  V30 2700 H 250.48 -6.21416 -1.837 0
M  V30 2701 N 243.887 0.651787 -1.4349 0
M  V30 2702 C 245.164 1.40909 -1.35661 0
M  V30 2703 C 245.544 2.11099 -0.00511733 0
M  V30 2704 O 244.892 2.04892 1.0115 0
M  V30 2705 C 245.102 2.3926 -2.54078 0
M  V30 2706 C 246.45 3.03217 -2.97228 0
M  V30 2707 O 247.474 2.49588 -2.54135 0
M  V30 2708 O 246.333 4.00455 -3.71885 0
M  V30 2709 H 243.427 0.629625 -0.536191 0
M  V30 2710 H 245.973 0.678575 -1.55542 0
M  V30 2711 H 244.745 1.86352 -3.44076 0
M  V30 2712 H 244.368 3.1976 -2.36303 0
M  V30 2713 N 245.365 1.30045 0.890287 0
M  V30 2714 C 246.315 1.12592 1.9826 0
M  V30 2715 C 247.299 0.0426021 1.60844 0
M  V30 2716 O 248.491 0.265346 1.75 0
M  V30 2717 C 245.62 0.814301 3.33503 0
M  V30 2718 C 244.706 1.93761 3.7725 0
M  V30 2719 N 245.097 3.18232 3.93143 0
M  V30 2720 C 243.395 1.83277 4.06602 0
M  V30 2721 C 244.096 3.9158 4.30163 0
M  V30 2722 N 243.072 3.19591 4.3973 0
M  V30 2723 H 246.874 2.07003 2.08631 0
M  V30 2724 H 244.388 1.21307 1.07974 0
M  V30 2725 H 246.385 0.67029 4.11476 0
M  V30 2726 H 245.045 -0.121797 3.24471 0
M  V30 2727 H 246.056 3.53581 3.78419 0
M  V30 2728 H 242.733 0.97001 4.06075 0
M  V30 2729 H 244.123 4.98744 4.50226 0
M  V30 2730 N 246.843 -1.10192 1.12674 0
M  V30 2731 C 248.091 -1.81845 0.881861 0
M  V30 2732 C 248.412 -1.85737 -0.593867 0
M  V30 2733 O 247.682 -1.33724 -1.4316 0
M  V30 2734 H 246.262 -0.673432 0.323261 0
M  V30 2735 H 248.924 -1.33316 1.42172 0
M  V30 2736 H 248.02 -2.85288 1.2656 0
M  V30 2737 N 248.321 -0.919034 -1.28029 0
M  V30 2738 C 249.598 -0.473668 -1.89778 0
M  V30 2739 C 249.978 1.04783 -1.83259 0
M  V30 2740 O 249.326 1.8982 -1.27202 0
M  V30 2741 C 249.536 -1.00998 -3.34066 0
M  V30 2742 C 250.884 -1.06525 -4.1102 0
M  V30 2743 O 251.908 -0.958996 -3.43048 0
M  V30 2744 O 250.767 -1.22776 -5.3253 0
M  V30 2745 H 247.861 -0.15098 -0.813101 0
M  V30 2746 H 250.407 -1.01016 -1.36359 0
M  V30 2747 H 249.179 -2.05392 -3.33061 0
M  V30 2748 H 248.802 -0.454626 -3.94992 0
M  V30 2749 N 249.799 1.42003 -0.683588 0
M  V30 2750 C 250.747 2.326 0.000815408 0
M  V30 2751 C 251.741 1.50308 0.781278 0
M  V30 2752 O 252.947 1.66322 0.688251 0
M  V30 2753 H 249.322 0.751758 0.0190616 0
M  V30 2754 H 251.293 2.88011 -0.780528 0
M  V30 2755 C 250.042 3.34978 0.93195 0
M  V30 2756 H 249.365 3.98345 0.340817 0
M  V30 2757 H 250.805 4.00936 1.37936 0
M  V30 2758 C 249.264 2.67925 2.04249 0
M  V30 2759 O 249.794 2.51788 3.12995 0
M  V30 2760 N 248 2.2681 1.81675 0
M  V30 2761 H 247.547 2.40135 0.932363 0
M  V30 2762 H 247.505 1.8228 2.56167 0
M  V30 2763 N 251.277 0.427512 1.51691 0
M  V30 2764 C 252.502 -0.143601 2.06902 0
M  V30 2765 C 252.927 -1.36536 1.29382 0
M  V30 2766 O 252.285 -1.78289 0.329043 0
M  V30 2767 C 252.333 -0.454207 3.57728 0
M  V30 2768 O 251.437 -1.54228 3.82475 0
M  V30 2769 H 250.778 -0.00617128 0.663971 0
M  V30 2770 H 253.308 0.606014 1.95419 0
M  V30 2771 H 253.318 -0.707525 4.01818 0
M  V30 2772 H 251.993 0.438812 4.13579 0
M  V30 2773 H 250.57 -1.2797 3.50254 0
M  V30 2774 N 252.755 -1.56801 0.158532 0
M  V30 2775 C 254.166 -1.83189 -0.360366 0
M  V30 2776 C 254.517 -1.07778 -1.63946 0
M  V30 2777 O 253.642 -0.326718 -2.13919 0
M  V30 2778 C 254.237 -3.32297 -0.660595 0
M  V30 2779 C 252.796 -3.59227 -1.12398 0
M  V30 2780 C 251.943 -2.76877 -0.153097 0
M  V30 2781 H 254.894 -1.54008 0.383031 0
M  V30 2782 H 254.915 -3.4908 -1.51405 0
M  V30 2783 H 254.427 -3.87156 0.270527 0
M  V30 2784 H 252.528 -3.09766 -2.07064 0
M  V30 2785 H 252.641 -4.67632 -1.04197 0
M  V30 2786 H 251.005 -2.46319 -0.647983 0
M  V30 2787 H 251.788 -3.34511 0.77182 0
M  V30 2788 N 254.233 0.115231 -1.57178 0
M  V30 2789 C 255.48 0.822351 -1.8505 0
M  V30 2790 C 255.808 1.79701 -0.744168 0
M  V30 2791 O 255.063 1.93909 0.26414 0
M  V30 2792 C 255.362 1.60324 -3.19423 0
M  V30 2793 C 255.028 0.772536 -4.44233 0
M  V30 2794 C 253.69 0.543468 -4.78121 0
M  V30 2795 C 256.042 0.193746 -5.2084 0
M  V30 2796 C 253.37 -0.274583 -5.86057 0
M  V30 2797 C 255.722 -0.611517 -6.29637 0
M  V30 2798 C 254.386 -0.850867 -6.62055 0
M  V30 2799 H 253.656 0.30092 -0.677147 0
M  V30 2800 H 256.303 0.0845802 -1.91313 0
M  V30 2801 H 254.608 2.41203 -3.08753 0
M  V30 2802 H 256.305 2.1544 -3.38211 0
M  V30 2803 H 252.895 0.96117 -4.17683 0
M  V30 2804 H 257.079 0.357926 -4.95008 0
M  V30 2805 H 252.335 -0.469206 -6.09597 0
M  V30 2806 H 256.509 -1.06697 -6.88178 0
M  V30 2807 H 254.136 -1.48657 -7.45523 0
M  V30 2808 N 255.711 1.52812 0.385517 0
M  V30 2809 C 256.988 1.5861 1.14465 0
M  V30 2810 C 257.368 0.381402 2.07626 0
M  V30 2811 O 256.716 -0.629999 2.19643 0
M  V30 2812 C 256.926 2.92664 1.90128 0
M  V30 2813 C 258.274 3.46526 2.45367 0
M  V30 2814 O 259.298 2.94562 2.0028 0
M  V30 2815 O 258.157 4.37323 3.27736 0
M  V30 2816 H 255.251 0.639855 0.523941 0
M  V30 2817 H 257.797 1.65149 0.390389 0
M  V30 2818 H 256.569 3.71788 1.22022 0
M  V30 2819 H 256.192 2.89527 2.72507 0
M  V30 2820 N 257.189 -0.644168 1.43834 0
M  V30 2821 C 258.437 -1.40117 1.45642 0
M  V30 2822 C 258.758 -1.94814 0.0852413 0
M  V30 2823 O 258.028 -1.74988 -0.880688 0
M  V30 2824 H 256.608 -0.52005 0.536243 0
M  V30 2825 H 259.27 -0.7591 1.7951 0
M  V30 2826 H 258.366 -2.23902 2.17427 0
M  V30 2827 N 258.668 -1.30515 -0.883378 0
M  V30 2828 C 260.079 -1.17509 -1.45081 0
M  V30 2829 C 260.43 0.223605 -1.94922 0
M  V30 2830 O 259.555 1.12041 -1.85137 0
M  V30 2831 C 260.15 -2.12715 -2.63701 0
M  V30 2832 C 258.709 -2.03682 -3.16529 0
M  V30 2833 C 257.856 -2.02706 -1.89224 0
M  V30 2834 H 260.807 -1.42762 -0.693165 0
M  V30 2835 H 260.828 -1.70891 -3.39965 0
M  V30 2836 H 260.34 -3.14505 -2.27395 0
M  V30 2837 H 258.441 -1.05039 -3.57488 0
M  V30 2838 H 258.554 -2.92146 -3.7972 0
M  V30 2839 H 256.918 -1.4753 -2.07622 0
M  V30 2840 H 257.701 -3.06229 -1.55174 0
M  V30 2841 N 260.146 1.09593 -1.13257 0
M  V30 2842 C 261.094 2.18271 -0.803783 0
M  V30 2843 C 262.088 1.68054 0.213148 0
M  V30 2844 O 263.294 1.79862 0.0704699 0
M  V30 2845 H 259.669 0.711949 -0.242143 0
M  V30 2846 H 261.64 2.43235 -1.72856 0
M  V30 2847 C 260.389 3.46536 -0.28424 0
M  V30 2848 H 259.712 3.85545 -1.05807 0
M  V30 2849 H 261.152 4.23899 -0.0925945 0
M  V30 2850 C 259.611 3.22036 0.989684 0
M  V30 2851 O 260.141 3.44509 2.06584 0
M  V30 2852 N 258.347 2.7565 0.920086 0
M  V30 2853 H 257.894 2.57562 0.0442019 0
M  V30 2854 H 257.852 2.59635 1.77306 0
M  V30 2855 N 261.624 0.925811 1.2754 0
M  V30 2856 C 262.872 0.564138 1.94067 0
M  V30 2857 C 263.193 -0.897188 1.73134 0
M  V30 2858 O 262.463 -1.63573 1.07799 0
M  V30 2859 H 261.043 0.205645 0.718136 0
M  V30 2860 H 263.705 1.1778 1.55287 0
M  V30 2861 H 262.801 0.76881 3.02483 0
M  V30 2862 N 263.102 -1.41638 0.69111 0
M  V30 2863 C 264.351 -2.00526 0.217318 0
M  V30 2864 C 264.664 -1.55353 -1.18848 0
M  V30 2865 O 265.87 -2.06769 -1.75951 0
M  V30 2866 C 264.326 -3.58313 0.337639 0
M  V30 2867 C 263.934 -4.12469 1.74852 0
M  V30 2868 C 265.678 -4.24431 -0.0766066 0
M  V30 2869 C 263.585 -5.62675 1.82074 0
M  V30 2870 H 262.515 -0.750008 0.0774893 0
M  V30 2871 H 265.166 -1.6217 0.858661 0
M  V30 2872 H 263.548 -3.9425 -0.371879 0
M  V30 2873 H 264.722 -3.8796 2.48644 0
M  V30 2874 H 263.037 -3.58861 2.11205 0
M  V30 2875 H 265.634 -5.34683 -0.0430284 0
M  V30 2876 H 265.977 -4.01101 -1.1146 0
M  V30 2877 H 266.51 -3.93512 0.582476 0
M  V30 2878 H 263.249 -5.90826 2.83911 0
M  V30 2879 H 262.769 -5.89124 1.12661 0
M  V30 2880 H 264.448 -6.27371 1.58159 0
M  V30 2881 N 264.58 -0.43555 -1.51462 0
M  V30 2882 C 265.51 0.367376 -2.30592 0
M  V30 2883 C 266.491 1.02263 -1.35928 0
M  V30 2884 O 267.676 1.02661 -1.64847 0
M  V30 2885 C 264.806 1.46983 -3.14664 0
M  V30 2886 C 263.76 0.938161 -4.17591 0
M  V30 2887 C 263.086 2.13622 -4.90173 0
M  V30 2888 C 264.386 -0.0261621 -5.22293 0
M  V30 2889 H 266.08 -0.292969 -2.97963 0
M  V30 2890 H 263.626 -0.14234 -1.43295 0
M  V30 2891 H 265.579 2.03873 -3.688 0
M  V30 2892 H 264.303 2.15843 -2.4511 0
M  V30 2893 H 262.962 0.391481 -3.64504 0
M  V30 2894 H 262.61 2.81098 -4.17124 0
M  V30 2895 H 262.31 1.78688 -5.59772 0
M  V30 2896 H 263.834 2.7107 -5.47132 0
M  V30 2897 H 265.248 0.452384 -5.71512 0
M  V30 2898 H 263.645 -0.287992 -5.99409 0
M  V30 2899 H 264.715 -0.963391 -4.75233 0
M  V30 2900 N 266.058 1.56714 -0.166846 0
M  V30 2901 C 267.021 2.16539 0.751232 0
M  V30 2902 C 268.021 1.11228 1.16125 0
M  V30 2903 O 269.211 1.36765 1.07894 0
M  V30 2904 C 266.343 2.74462 2.02196 0
M  V30 2905 H 267.536 2.99013 0.230499 0
M  V30 2906 H 265.089 1.56081 0.0826982 0
M  V30 2907 H 265.824 1.95709 2.58589 0
M  V30 2908 H 265.609 3.51527 1.73698 0
M  V30 2909 H 267.099 3.20489 2.67725 0
M  V30 2910 N 267.536 -0.106894 1.57237 0
M  V30 2911 C 268.486 -1.1366 1.9765 0
M  V30 2912 C 269.47 -1.36416 0.853203 0
M  V30 2913 O 270.662 -1.37305 1.11697 0
M  V30 2914 C 267.791 -2.46 2.39455 0
M  V30 2915 C 266.877 -2.26668 3.58445 0
M  V30 2916 N 267.268 -1.77176 4.73754 0
M  V30 2917 C 265.566 -2.57279 3.64312 0
M  V30 2918 C 266.267 -1.71836 5.5574 0
M  V30 2919 N 265.243 -2.16623 4.98573 0
M  V30 2920 H 269.045 -0.74669 2.84256 0
M  V30 2921 H 266.559 -0.314483 1.59326 0
M  V30 2922 H 268.556 -3.2049 2.6663 0
M  V30 2923 H 267.216 -2.85738 1.54219 0
M  V30 2924 H 268.227 -1.46545 4.96734 0
M  V30 2925 H 264.904 -3.00622 2.89711 0
M  V30 2926 H 266.294 -1.34723 6.58255 0
M  V30 2927 N 269.014 -1.53014 -0.377408 0
M  V30 2928 C 269.977 -1.77957 -1.44444 0
M  V30 2929 C 270.977 -0.649763 -1.47087 0
M  V30 2930 O 272.167 -0.917897 -1.48055 0
M  V30 2931 C 269.299 -1.89089 -2.83651 0
M  V30 2932 H 270.492 -2.73243 -1.23606 0
M  V30 2933 H 268.045 -1.43912 -0.609844 0
M  V30 2934 H 268.78 -0.958293 -3.09818 0
M  V30 2935 H 268.565 -2.71254 -2.83132 0
M  V30 2936 H 270.055 -2.1002 -3.60945 0
M  V30 2937 N 270.492 0.636531 -1.44174 0
M  V30 2938 C 271.739 1.39619 -1.46672 0
M  V30 2939 C 272.067 1.94257 -0.0972691 0
M  V30 2940 O 271.322 1.73768 0.900175 0
M  V30 2941 C 271.621 2.58309 -2.47005 0
M  V30 2942 C 271.287 2.21992 -3.92467 0
M  V30 2943 C 269.949 2.118 -4.32081 0
M  V30 2944 C 272.301 1.9321 -4.84065 0
M  V30 2945 C 269.629 1.71007 -5.61225 0
M  V30 2946 C 271.981 1.53911 -6.13591 0
M  V30 2947 C 270.645 1.42257 -6.52165 0
M  V30 2948 H 269.915 0.510902 -0.536712 0
M  V30 2949 H 272.562 0.722328 -1.77355 0
M  V30 2950 H 270.867 3.30903 -2.09786 0
M  V30 2951 H 272.564 3.16533 -2.46186 0
M  V30 2952 H 269.154 2.30841 -3.61124 0
M  V30 2953 H 273.338 1.99997 -4.54219 0
M  V30 2954 H 268.594 1.60583 -5.89935 0
M  V30 2955 H 272.768 1.30677 -6.8403 0
M  V30 2956 H 270.395 1.10419 -7.52138 0
M  V30 2957 N 271.97 1.30982 0.876444 0
M  V30 2958 C 272.902 1.13902 1.98894 0
M  V30 2959 C 273.915 0.0798815 1.62604 0
M  V30 2960 O 275.104 0.326743 1.75484 0
M  V30 2961 C 272.204 0.716699 3.31235 0
M  V30 2962 C 271.377 1.85945 3.95908 0
M  V30 2963 C 270.436 1.42426 5.06558 0
M  V30 2964 O 269.462 2.13287 5.27729 0
M  V30 2965 N 270.664 0.308025 5.79682 0
M  V30 2966 H 273.429 2.09724 2.14094 0
M  V30 2967 H 270.99 1.2323 1.05004 0
M  V30 2968 H 272.982 0.408403 4.02634 0
M  V30 2969 H 271.552 -0.149719 3.12241 0
M  V30 2970 H 270.772 2.33541 3.17573 0
M  V30 2971 H 272.06 2.62503 4.35855 0
M  V30 2972 H 271.458 -0.282241 5.64995 0
M  V30 2973 H 270.015 0.0592282 6.51773 0
M  V30 2974 N 273.449 -1.08991 1.13837 0
M  V30 2975 C 274.86 -1.62746 0.914917 0
M  V30 2976 C 275.211 -1.88403 -0.547594 0
M  V30 2977 O 274.336 -1.63706 -1.41525 0
M  V30 2978 C 274.931 -2.95662 1.65437 0
M  V30 2979 C 273.49 -3.46225 1.47666 0
M  V30 2980 C 272.637 -2.20562 1.6807 0
M  V30 2981 H 275.588 -0.922946 1.29102 0
M  V30 2982 H 275.609 -3.63825 1.11407 0
M  V30 2983 H 275.121 -2.76956 2.71877 0
M  V30 2984 H 273.222 -3.70046 0.435478 0
M  V30 2985 H 273.335 -4.23368 2.24268 0
M  V30 2986 H 271.699 -2.29439 1.10589 0
M  V30 2987 H 272.482 -2.0437 2.7584 0
M  V30 2988 N 274.927 -0.932562 -1.27047 0
M  V30 2989 C 276.175 -0.574422 -1.93765 0
M  V30 2990 C 276.496 0.887993 -1.73608 0
M  V30 2991 O 275.766 1.62999 -1.08665 0
M  V30 2992 H 274.346 -0.209451 -0.717035 0
M  V30 2993 H 277.008 -1.18601 -1.5466 0
M  V30 2994 H 276.104 -0.784841 -3.02071 0
M  V30 2995 N 276.405 1.4127 -0.698611 0
M  V30 2996 C 277.337 2.292 0.00399731 0
M  V30 2997 C 278.35 1.44944 0.741279 0
M  V30 2998 O 279.539 1.68416 0.591477 0
M  V30 2999 C 276.639 3.22875 1.02979 0
M  V30 3000 C 275.812 4.35904 0.36151 0
M  V30 3001 C 274.871 5.10134 1.29033 0
M  V30 3002 O 273.897 5.63809 0.781562 0
M  V30 3003 N 275.099 5.17885 2.6225 0
M  V30 3004 H 277.864 2.9014 -0.750921 0
M  V30 3005 H 275.425 1.52455 -0.544882 0
M  V30 3006 H 277.417 3.69404 1.65296 0
M  V30 3007 H 275.987 2.63221 1.68622 0
M  V30 3008 H 275.207 3.91719 -0.441584 0
M  V30 3009 H 276.495 5.08696 -0.103055 0
M  V30 3010 H 275.893 4.7573 3.061 0
M  V30 3011 H 274.45 5.6798 3.19754 0
M  V30 3012 N 277.883 0.443576 1.51229 0
M  V30 3013 C 279.131 -0.120557 2.0174 0
M  V30 3014 C 279.452 -1.42665 1.32935 0
M  V30 3015 O 278.722 -1.9028 0.465866 0
M  V30 3016 H 277.302 -0.0475426 0.745486 0
M  V30 3017 H 279.964 0.587711 1.85828 0
M  V30 3018 H 279.06 -0.291972 3.10731 0
M  V30 3019 N 279.361 -1.56624 0.175154 0
M  V30 3020 C 280.61 -1.96173 -0.468921 0
M  V30 3021 C 280.923 -1.06401 -1.64128 0
M  V30 3022 O 282.129 -1.35648 -2.35185 0
M  V30 3023 C 280.585 -3.48833 -0.885633 0
M  V30 3024 C 280.193 -4.47237 0.261343 0
M  V30 3025 C 281.937 -3.97194 -1.49791 0
M  V30 3026 C 279.844 -5.9114 -0.175214 0
M  V30 3027 H 278.774 -0.732455 -0.178958 0
M  V30 3028 H 281.425 -1.81591 0.263997 0
M  V30 3029 H 279.807 -3.58848 -1.67464 0
M  V30 3030 H 280.981 -4.4894 1.03871 0
M  V30 3031 H 279.296 -4.08956 0.783827 0
M  V30 3032 H 281.893 -5.02167 -1.83665 0
M  V30 3033 H 282.236 -3.40351 -2.39722 0
M  V30 3034 H 282.769 -3.90212 -0.773267 0
M  V30 3035 H 279.508 -6.51865 0.689414 0
M  V30 3036 H 279.028 -5.92735 -0.91786 0
M  V30 3037 H 280.707 -6.44044 -0.617792 0
M  V30 3038 N 280.839 0.0985539 -1.57292 0
M  V30 3039 C 282.087 0.801092 -1.85545 0
M  V30 3040 C 282.408 1.79438 -0.763353 0
M  V30 3041 O 281.678 1.94763 0.21073 0
M  V30 3042 H 280.258 0.29884 -0.684619 0
M  V30 3043 H 282.92 0.0810064 -1.94732 0
M  V30 3044 H 282.016 1.3338 -2.82163 0
M  V30 3045 N 282.317 1.53212 0.369288 0
M  V30 3046 C 283.565 1.68881 1.11012 0
M  V30 3047 C 283.886 0.441285 1.89941 0
M  V30 3048 O 283.156 -0.544623 1.88177 0
M  V30 3049 H 281.736 0.622569 0.412816 0
M  V30 3050 H 284.398 1.90391 0.416802 0
M  V30 3051 H 283.494 2.54822 1.80201 0
M  V30 3052 N 283.795 -0.628877 1.44509 0
M  V30 3053 C 285.072 -1.38733 1.37886 0
M  V30 3054 C 285.452 -2.11065 0.0387008 0
M  V30 3055 O 284.8 -2.06476 -0.97878 0
M  V30 3056 C 285.01 -2.35188 2.57852 0
M  V30 3057 C 286.358 -2.9845 3.02014 0
M  V30 3058 O 287.382 -2.45513 2.58073 0
M  V30 3059 O 286.241 -3.94487 3.78209 0
M  V30 3060 H 283.335 -0.621015 0.54614 0
M  V30 3061 H 285.881 -0.653744 1.56602 0
M  V30 3062 H 284.653 -1.80855 3.46998 0
M  V30 3063 H 284.276 -3.1596 2.4136 0
M  V30 3064 N 285.273 -1.31445 -0.869486 0
M  V30 3065 C 286.236 -1.19094 -1.9583 0
M  V30 3066 C 287.236 -0.117906 -1.60367 0
M  V30 3067 O 288.426 -0.367208 -1.70286 0
M  V30 3068 C 285.558 -0.828165 -3.30688 0
M  V30 3069 H 286.751 -2.15842 -2.08212 0
M  V30 3070 H 284.304 -1.15063 -1.05784 0
M  V30 3071 H 285.039 0.138142 -3.24006 0
M  V30 3072 H 284.824 -1.6038 -3.578 0
M  V30 3073 H 286.314 -0.765658 -4.10521 0
M  V30 3074 N 286.751 1.08385 -1.14413 0
M  V30 3075 C 287.701 2.13509 -0.79987 0
M  V30 3076 C 288.685 1.5951 0.211059 0
M  V30 3077 O 289.877 1.76995 0.0133694 0
M  V30 3078 C 287.006 3.42162 -0.279297 0
M  V30 3079 C 286.092 4.03042 -1.31976 0
M  V30 3080 N 286.483 4.38327 -2.52395 0
M  V30 3081 C 284.781 4.30379 -1.17004 0
M  V30 3082 C 285.482 4.86428 -3.19003 0
M  V30 3083 N 284.458 4.84547 -2.46405 0
M  V30 3084 H 288.26 2.38609 -1.7159 0
M  V30 3085 H 285.774 1.2572 -1.02802 0
M  V30 3086 H 287.771 4.16898 -0.0143688 0
M  V30 3087 H 286.431 3.18511 0.630923 0
M  V30 3088 H 287.442 4.29349 -2.89621 0
M  V30 3089 H 284.119 4.16281 -0.318854 0
M  V30 3090 H 285.509 5.23107 -4.21674 0
M  V30 3091 N 288.23 0.939286 1.26551 0
M  V30 3092 C 289.477 0.585847 1.9384 0
M  V30 3093 C 289.805 -0.874784 1.73718 0
M  V30 3094 O 289.06 -1.64092 1.06642 0
M  V30 3095 C 289.359 0.872106 3.46596 0
M  V30 3096 C 289.025 2.31632 3.86856 0
M  V30 3097 C 287.687 2.71111 3.97558 0
M  V30 3098 C 290.039 3.25494 4.07066 0
M  V30 3099 C 287.367 4.03553 4.25866 0
M  V30 3100 C 289.719 4.57531 4.36862 0
M  V30 3101 C 288.383 4.96828 4.45778 0
M  V30 3102 H 287.653 0.214377 0.709312 0
M  V30 3103 H 290.3 1.18544 1.50398 0
M  V30 3104 H 288.605 0.18996 3.91339 0
M  V30 3105 H 290.302 0.577442 3.96821 0
M  V30 3106 H 286.892 2.00008 3.79071 0
M  V30 3107 H 291.076 2.9619 3.98227 0
M  V30 3108 H 286.332 4.33665 4.30981 0
M  V30 3109 H 290.506 5.30254 4.51446 0
M  V30 3110 H 288.133 5.99482 4.67468 0
M  V30 3111 N 289.708 -1.40897 0.706093 0
M  V30 3112 C 290.985 -1.94868 0.169099 0
M  V30 3113 C 291.365 -1.64485 -1.32318 0
M  V30 3114 O 290.713 -0.95744 -2.07474 0
M  V30 3115 C 290.923 -3.45798 0.471654 0
M  V30 3116 C 292.271 -4.22663 0.405127 0
M  V30 3117 O 293.295 -3.53865 0.407168 0
M  V30 3118 O 292.154 -5.45216 0.374383 0
M  V30 3119 H 289.248 -0.82673 0.0211352 0
M  V30 3120 H 291.794 -1.50558 0.782976 0
M  V30 3121 H 290.566 -3.61235 1.50416 0
M  V30 3122 H 290.189 -3.97225 -0.172666 0
M  V30 3123 N 291.186 -0.45159 -1.50991 0
M  V30 3124 C 292.149 0.341117 -2.26647 0
M  V30 3125 C 293.149 0.937422 -1.30649 0
M  V30 3126 O 294.339 0.809644 -1.54241 0
M  V30 3127 C 291.471 1.48398 -3.06905 0
M  V30 3128 H 292.664 -0.322117 -2.98165 0
M  V30 3129 H 290.217 -0.205122 -1.54948 0
M  V30 3130 H 290.952 2.18284 -2.39838 0
M  V30 3131 H 290.737 1.06241 -3.77432 0
M  V30 3132 H 292.227 2.04367 -3.64176 0
M  V30 3133 N 292.664 1.56529 -0.183458 0
M  V30 3134 C 293.574 2.22144 0.754272 0
M  V30 3135 C 294.59 1.21684 1.24374 0
M  V30 3136 O 295.766 1.54385 1.29333 0
M  V30 3137 C 292.831 2.85884 1.96141 0
M  V30 3138 C 291.892 4.01579 1.51765 0
M  V30 3139 C 291.125 4.6227 2.66725 0
M  V30 3140 O 291.348 4.21865 3.83909 0
M  V30 3141 O 290.282 5.51936 2.40104 0
M  V30 3142 H 294.108 3.02861 0.225527 0
M  V30 3143 H 291.693 1.49331 0.0453032 0
M  V30 3144 H 293.575 3.26253 2.66715 0
M  V30 3145 H 292.25 2.08154 2.47899 0
M  V30 3146 H 291.157 3.65856 0.781049 0
M  V30 3147 H 292.49 4.80938 1.04686 0
M  V30 3148 N 294.142 -0.090211 1.57342 0
M  V30 3149 C 295.052 -1.12735 2.05738 0
M  V30 3150 C 296.068 -1.43557 0.983231 0
M  V30 3151 O 297.244 -1.54101 1.29672 0
M  V30 3152 C 294.309 -2.42659 2.47624 0
M  V30 3153 C 293.37 -2.18975 3.69254 0
M  V30 3154 C 292.603 -3.42704 4.09133 0
M  V30 3155 O 292.826 -4.51127 3.49057 0
M  V30 3156 O 291.76 -3.32003 5.02053 0
M  V30 3157 H 295.586 -0.746279 2.94388 0
M  V30 3158 H 293.171 -0.303064 1.46294 0
M  V30 3159 H 295.053 -3.19155 2.7517 0
M  V30 3160 H 293.728 -2.80182 1.62109 0
M  V30 3161 H 292.635 -1.40244 3.46818 0
M  V30 3162 H 293.968 -1.86342 4.55563 0
M  V30 3163 N 295.62 -1.53406 -0.361157 0
M  V30 3164 C 296.848 -1.73717 -1.12383 0
M  V30 3165 C 297.263 -0.468161 -1.82904 0
M  V30 3166 O 296.62 0.559198 -1.73722 0
M  V30 3167 C 296.671 -2.90558 -2.15078 0
M  V30 3168 O 296.392 -4.12549 -1.47428 0
M  V30 3169 C 297.893 -3.22777 -3.03858 0
M  V30 3170 H 295.113 -0.580896 -0.335858 0
M  V30 3171 H 297.657 -2.00167 -0.418728 0
M  V30 3172 H 295.812 -2.66489 -2.8118 0
M  V30 3173 H 296.226 -4.78009 -2.15887 0
M  V30 3174 H 297.7 -4.07927 -3.71887 0
M  V30 3175 H 298.177 -2.38329 -3.68912 0
M  V30 3176 H 298.783 -3.48787 -2.43367 0
M  V30 3177 N 297.098 0.621204 -1.44841 0
M  V30 3178 C 298.344 1.38073 -1.49357 0
M  V30 3179 C 298.699 1.91973 -0.128115 0
M  V30 3180 O 297.992 1.71311 0.858087 0
M  V30 3181 C 298.186 2.55675 -2.4973 0
M  V30 3182 C 298.015 2.13289 -3.95901 0
M  V30 3183 C 296.785 2.001 -4.63991 0
M  V30 3184 C 298.983 1.7159 -4.84831 0
M  V30 3185 N 296.965 1.51381 -5.94943 0
M  V30 3186 C 298.336 1.34188 -6.05304 0
M  V30 3187 C 300.391 1.59059 -4.7181 0
M  V30 3188 C 299.094 0.855085 -7.14199 0
M  V30 3189 C 301.12 1.11784 -5.8074 0
M  V30 3190 C 300.482 0.753385 -7.0036 0
M  V30 3191 H 296.581 0.499675 -0.601539 0
M  V30 3192 H 299.165 0.711609 -1.8123 0
M  V30 3193 H 297.336 3.20201 -2.19832 0
M  V30 3194 H 299.068 3.22509 -2.4448 0
M  V30 3195 H 295.823 2.20863 -4.18947 0
M  V30 3196 H 296.247 1.29293 -6.64539 0
M  V30 3197 H 300.889 1.85865 -3.79755 0
M  V30 3198 H 298.607 0.574552 -8.06055 0
M  V30 3199 H 302.193 1.02533 -5.72694 0
M  V30 3200 H 301.073 0.393183 -7.83214 0
M  V30 3201 N 298.576 1.31904 0.862503 0
M  V30 3202 C 299.804 1.24998 1.64873 0
M  V30 3203 C 300.219 -0.183425 1.87907 0
M  V30 3204 O 299.576 -1.11794 1.44251 0
M  V30 3205 C 299.627 1.99829 3.01248 0
M  V30 3206 O 299.348 3.37575 2.79239 0
M  V30 3207 C 300.849 1.99852 3.95694 0
M  V30 3208 H 298.069 0.431599 0.513773 0
M  V30 3209 H 300.613 1.73901 1.07604 0
M  V30 3210 H 298.768 1.54668 3.55185 0
M  V30 3211 H 299.182 3.75776 3.65914 0
M  V30 3212 H 300.656 2.56709 4.88676 0
M  V30 3213 H 301.133 0.982852 4.28062 0
M  V30 3214 H 301.739 2.44926 3.47694 0
M  V30 3215 N 300.054 -1.07777 1.14986 0
M  V30 3216 C 301.002 -2.16964 0.838406 0
M  V30 3217 C 301.996 -1.68372 -0.186386 0
M  V30 3218 O 303.202 -1.79951 -0.0418465 0
M  V30 3219 H 299.577 -0.708006 0.253439 0
M  V30 3220 H 301.548 -2.40454 1.76704 0
M  V30 3221 C 300.297 -3.4604 0.339335 0
M  V30 3222 H 299.62 -3.83813 1.11927 0
M  V30 3223 H 301.06 -4.23698 0.160021 0
M  V30 3224 C 299.519 -3.23569 -0.938325 0
M  V30 3225 O 300.049 -3.47752 -2.01077 0
M  V30 3226 N 298.255 -2.77079 -0.876117 0
M  V30 3227 H 297.802 -2.576 -0.00322037 0
M  V30 3228 H 297.76 -2.62422 -1.73153 0
M  V30 3229 N 301.532 -0.945985 -1.26051 0
M  V30 3230 C 302.76 -0.613025 -1.9761 0
M  V30 3231 C 303.175 0.813035 -1.70397 0
M  V30 3232 O 302.532 1.54274 -0.974979 0
M  V30 3233 C 302.583 -0.85159 -3.51326 0
M  V30 3234 O 302.304 -2.22157 -3.77595 0
M  V30 3235 C 303.805 -0.529831 -4.40122 0
M  V30 3236 H 301.025 -0.230593 -0.630133 0
M  V30 3237 H 303.569 -1.268 -1.60443 0
M  V30 3238 H 301.724 -0.243151 -3.86636 0
M  V30 3239 H 302.138 -2.2852 -4.721 0
M  V30 3240 H 303.612 -0.747348 -5.46917 0
M  V30 3241 H 304.089 0.535341 -4.35925 0
M  V30 3242 H 304.695 -1.11721 -4.10364 0
M  V30 3243 N 303.011 1.40521 -0.713556 0
M  V30 3244 C 304.236 2.05759 -0.26035 0
M  V30 3245 C 304.661 1.53403 1.08854 0
M  V30 3246 O 304.019 0.668535 1.68524 0
M  V30 3247 C 304.067 3.59745 -0.248122 0
M  V30 3248 O 303.171 4.05123 0.77131 0
M  V30 3249 H 302.512 0.652564 -0.122703 0
M  V30 3250 H 305.042 1.79958 -0.973467 0
M  V30 3251 H 305.052 4.07911 -0.0851129 0
M  V30 3252 H 303.727 3.97218 -1.2325 0
M  V30 3253 H 302.304 3.68422 0.57619 0
M  V30 3254 N 304.489 0.459591 1.5075 0
M  V30 3255 C 305.452 -0.329093 2.26825 0
M  V30 3256 C 306.452 -0.930481 1.31144 0
M  V30 3257 O 307.642 -0.801453 1.54669 0
M  V30 3258 C 304.774 -1.46768 3.07688 0
M  V30 3259 H 305.967 0.337924 2.9799 0
M  V30 3260 H 303.52 0.213336 1.54837 0
M  V30 3261 H 304.255 -2.17009 2.40993 0
M  V30 3262 H 304.04 -1.04238 3.77991 0
M  V30 3263 H 305.53 -2.02433 3.65254 0
M  V30 3264 N 305.967 -1.56429 0.191757 0
M  V30 3265 C 306.915 -2.20273 -0.747174 0
M  V30 3266 C 307.909 -1.17288 -1.22229 0
M  V30 3267 O 309.115 -1.35441 -1.18557 0
M  V30 3268 H 305.49 -0.705885 -0.259289 0
M  V30 3269 H 307.461 -2.97826 -0.184963 0
M  V30 3270 C 306.21 -2.87356 -1.95759 0
M  V30 3271 H 305.533 -3.66341 -1.60106 0
M  V30 3272 H 306.973 -3.3547 -2.59299 0
M  V30 3273 C 305.432 -1.88213 -2.79423 0
M  V30 3274 O 305.962 -1.38033 -3.7724 0
M  V30 3275 N 304.168 -1.56516 -2.44849 0
M  V30 3276 H 303.715 -1.97516 -1.65364 0
M  V30 3277 H 303.673 -0.904369 -3.01112 0
M  V30 3278 N 307.445 0.0818655 -1.57387 0
M  V30 3279 C 308.675 0.794954 -1.90694 0
M  V30 3280 C 309.083 1.72147 -0.784982 0
M  V30 3281 O 308.426 1.81974 0.251196 0
M  V30 3282 C 308.488 1.65042 -3.19376 0
M  V30 3283 C 308.152 0.894337 -4.48164 0
M  V30 3284 C 309.149 0.21813 -5.19442 0
M  V30 3285 C 306.834 0.864495 -4.94805 0
M  V30 3286 C 308.828 -0.477802 -6.35607 0
M  V30 3287 C 306.515 0.164785 -6.10878 0
M  V30 3288 C 307.513 -0.505173 -6.81129 0
M  V30 3289 O 307.201 -1.19363 -7.94989 0
M  V30 3290 H 306.933 0.231779 -0.635023 0
M  V30 3291 H 309.487 0.059493 -2.05314 0
M  V30 3292 H 307.717 2.42844 -3.00938 0
M  V30 3293 H 309.406 2.24127 -3.38411 0
M  V30 3294 H 310.172 0.232558 -4.84442 0
M  V30 3295 H 306.051 1.37542 -4.40004 0
M  V30 3296 H 309.595 -1.00129 -6.90377 0
M  V30 3297 H 305.492 0.148249 -6.4533 0
M  V30 3298 H 306.26 -1.10188 -8.11049 0
M  V30 3299 N 308.923 1.53595 0.353017 0
M  V30 3300 C 309.871 1.81605 1.45335 0
M  V30 3301 C 310.865 0.685923 1.54892 0
M  V30 3302 O 312.071 0.869095 1.57628 0
M  V30 3303 H 308.446 0.575204 0.484401 0
M  V30 3304 H 310.417 2.73679 1.18921 0
M  V30 3305 C 309.166 2.03406 2.81995 0
M  V30 3306 H 308.489 2.89814 2.75405 0
M  V30 3307 H 309.929 2.26975 3.58132 0
M  V30 3308 C 308.388 0.816794 3.26849 0
M  V30 3309 O 308.918 0.0115856 4.01698 0
M  V30 3310 N 307.124 0.636682 2.8354 0
M  V30 3311 H 306.671 1.2931 2.22793 0
M  V30 3312 H 306.629 -0.176336 3.13905 0
M  V30 3313 N 310.401 -0.613514 1.45168 0
M  V30 3314 C 311.331 -1.7354 1.56225 0
M  V30 3315 C 312.312 -1.64981 0.41414 0
M  V30 3316 O 313.497 -1.83472 0.636526 0
M  V30 3317 C 310.627 -3.12128 1.52295 0
M  V30 3318 C 309.581 -3.35491 2.65762 0
M  V30 3319 C 308.907 -4.74291 2.46885 0
M  V30 3320 C 310.207 -3.26325 4.0781 0
M  V30 3321 H 311.901 -1.64543 2.50132 0
M  V30 3322 H 309.447 -0.790185 1.20383 0
M  V30 3323 H 311.4 -3.90404 1.58628 0
M  V30 3324 H 310.124 -3.2195 0.549139 0
M  V30 3325 H 308.783 -2.59603 2.58847 0
M  V30 3326 H 308.431 -4.80839 1.47657 0
M  V30 3327 H 308.131 -4.9088 3.22972 0
M  V30 3328 H 309.655 -5.54775 2.55063 0
M  V30 3329 H 311.069 -3.94483 4.16 0
M  V30 3330 H 309.466 -3.54445 4.8424 0
M  V30 3331 H 310.536 -2.23855 4.30136 0
M  V30 3332 N 311.879 -1.3236 -0.855495 0
M  V30 3333 C 313.126 -1.22872 -1.60962 0
M  V30 3334 C 313.454 0.209658 -1.93367 0
M  V30 3335 O 312.709 1.16243 -1.57436 0
M  V30 3336 C 313.008 -2.03275 -2.93963 0
M  V30 3337 C 312.674 -3.5264 -2.80991 0
M  V30 3338 C 311.336 -3.93364 -2.7716 0
M  V30 3339 C 313.688 -4.47626 -2.66983 0
M  V30 3340 C 311.016 -5.27319 -2.572 0
M  V30 3341 C 313.368 -5.81723 -2.48558 0
M  V30 3342 C 312.032 -6.2165 -2.4312 0
M  V30 3343 H 311.302 -0.44962 -0.589001 0
M  V30 3344 H 313.949 -1.63777 -0.992442 0
M  V30 3345 H 312.254 -1.55095 -3.59795 0
M  V30 3346 H 313.951 -1.93303 -3.51333 0
M  V30 3347 H 310.541 -3.20295 -2.84797 0
M  V30 3348 H 314.725 -4.17084 -2.68988 0
M  V30 3349 H 309.981 -5.57311 -2.51424 0
M  V30 3350 H 314.155 -6.5494 -2.36699 0
M  V30 3351 H 311.782 -7.25388 -2.27412 0
M  V30 3352 N 313.357 1.07166 -1.15556 0
M  V30 3353 C 314.287 2.16403 -0.877046 0
M  V30 3354 C 315.268 1.69217 0.173111 0
M  V30 3355 O 316.453 1.94181 0.027084 0
M  V30 3356 C 313.583 3.45349 -0.367632 0
M  V30 3357 C 312.537 4.05995 -1.35468 0
M  V30 3358 C 311.863 5.30045 -0.704038 0
M  V30 3359 C 313.163 4.45804 -2.72132 0
M  V30 3360 H 314.857 2.39959 -1.79053 0
M  V30 3361 H 312.403 1.15325 -0.862331 0
M  V30 3362 H 314.356 4.21095 -0.160317 0
M  V30 3363 H 313.08 3.21385 0.581326 0
M  V30 3364 H 311.739 3.32296 -1.54839 0
M  V30 3365 H 311.387 5.02373 0.251128 0
M  V30 3366 H 311.087 5.71579 -1.36277 0
M  V30 3367 H 312.611 6.08495 -0.50654 0
M  V30 3368 H 314.025 5.12671 -2.56595 0
M  V30 3369 H 312.422 4.98296 -3.34397 0
M  V30 3370 H 313.492 3.57083 -3.28054 0
M  V30 3371 N 314.835 0.952656 1.25548 0
M  V30 3372 C 316.081 0.607272 1.93494 0
M  V30 3373 C 316.414 -0.853245 1.74452 0
M  V30 3374 O 315.689 -1.61194 1.08843 0
M  V30 3375 C 315.972 0.96435 3.46947 0
M  V30 3376 C 315.825 2.48045 3.75225 0
M  V30 3377 C 317.144 0.487987 4.37386 0
M  V30 3378 H 314.263 0.222096 0.702739 0
M  V30 3379 H 316.905 1.18895 1.48203 0
M  V30 3380 H 315.055 0.469361 3.85654 0
M  V30 3381 H 316.727 3.04905 3.46166 0
M  V30 3382 H 314.97 2.919 3.209 0
M  V30 3383 H 315.641 2.6808 4.82532 0
M  V30 3384 H 318.117 0.912558 4.0597 0
M  V30 3385 H 316.993 0.766547 5.43521 0
M  V30 3386 H 317.254 -0.612063 4.37843 0
M  V30 3387 N 316.313 -1.40141 0.720998 0
M  V30 3388 C 317.276 -2.29058 0.0805834 0
M  V30 3389 C 318.276 -1.45632 -0.681758 0
M  V30 3390 O 319.466 -1.6648 -0.512856 0
M  V30 3391 C 316.598 -3.28925 -0.895593 0
M  V30 3392 H 317.791 -2.87191 0.863793 0
M  V30 3393 H 315.344 -1.48553 0.485975 0
M  V30 3394 H 316.079 -2.75822 -1.70566 0
M  V30 3395 H 315.864 -3.90519 -0.351766 0
M  V30 3396 H 317.354 -3.95494 -1.34069 0
M  V30 3397 N 317.792 -0.46758 -1.50504 0
M  V30 3398 C 318.755 0.317059 -2.26996 0
M  V30 3399 C 319.755 0.923513 -1.31635 0
M  V30 3400 O 320.945 0.793239 -1.55091 0
M  V30 3401 C 318.077 1.45134 -3.08462 0
M  V30 3402 H 319.27 -0.353723 -2.97807 0
M  V30 3403 H 316.823 -0.221545 -1.54722 0
M  V30 3404 H 317.558 2.15728 -2.4214 0
M  V30 3405 H 317.343 1.02232 -3.78538 0
M  V30 3406 H 318.833 2.00493 -3.66323 0
M  V30 3407 N 319.27 1.56325 -0.20005 0
M  V30 3408 C 320.22 2.15939 0.731743 0
M  V30 3409 C 321.204 1.10154 1.17281 0
M  V30 3410 O 322.396 1.36203 1.13038 0
M  V30 3411 C 319.525 2.82614 1.94895 0
M  V30 3412 C 318.611 3.95596 1.52855 0
M  V30 3413 N 319.002 4.99118 0.819418 0
M  V30 3414 C 317.3 4.07288 1.81748 0
M  V30 3415 C 318.001 5.78513 0.608053 0
M  V30 3416 N 316.977 5.31117 1.15828 0
M  V30 3417 H 320.779 2.9334 0.181285 0
M  V30 3418 H 318.293 1.624 -0.000452172 0
M  V30 3419 H 320.29 3.23718 2.62702 0
M  V30 3420 H 318.95 2.06702 2.50408 0
M  V30 3421 H 319.961 5.15723 0.47436 0
M  V30 3422 H 316.638 3.42509 2.38734 0
M  V30 3423 H 318.028 6.71885 0.0451619 0
M  V30 3424 N 320.748 -0.0735177 1.57428 0
M  V30 3425 C 321.658 -1.10547 2.06922 0
M  V30 3426 C 322.674 -1.42506 0.998402 0
M  V30 3427 O 323.85 -1.52717 1.31299 0
M  V30 3428 C 320.915 -2.40019 2.50184 0
M  V30 3429 C 319.976 -2.15046 3.71556 0
M  V30 3430 C 319.209 -3.38345 4.12745 0
M  V30 3431 O 319.432 -4.47399 3.53822 0
M  V30 3432 O 318.366 -3.2666 5.05546 0
M  V30 3433 H 322.192 -0.715013 2.95163 0
M  V30 3434 H 319.777 -0.287531 1.46607 0
M  V30 3435 H 321.659 -3.16218 2.78539 0
M  V30 3436 H 320.334 -2.78447 1.65072 0
M  V30 3437 H 319.241 -1.36558 3.48285 0
M  V30 3438 H 320.574 -1.81499 4.57514 0
M  V30 3439 N 322.226 -1.5378 -0.344866 0
M  V30 3440 C 323.473 -1.70963 -1.08526 0
M  V30 3441 C 323.801 -0.472126 -1.88683 0
M  V30 3442 O 323.056 0.546116 -1.87926 0
M  V30 3443 C 323.355 -2.92407 -2.05506 0
M  V30 3444 C 323.021 -4.28066 -1.41671 0
M  V30 3445 C 321.683 -4.64951 -1.2399 0
M  V30 3446 C 324.035 -5.12344 -0.956726 0
M  V30 3447 C 321.363 -5.83733 -0.589277 0
M  V30 3448 C 323.715 -6.3179 -0.320015 0
M  V30 3449 C 322.379 -6.67372 -0.130881 0
M  V30 3450 H 321.649 -0.625598 -0.397124 0
M  V30 3451 H 324.296 -1.87995 -0.36469 0
M  V30 3452 H 322.601 -2.69973 -2.8394 0
M  V30 3453 H 324.298 -3.02895 -2.62784 0
M  V30 3454 H 320.888 -3.99034 -1.56429 0
M  V30 3455 H 325.072 -4.8438 -1.08118 0
M  V30 3456 H 320.328 -6.09877 -0.431344 0
M  V30 3457 H 324.502 -6.96386 0.0445072 0
M  V30 3458 H 322.129 -7.59273 0.375318 0
M  V30 3459 N 323.704 0.605807 -1.45491 0
M  V30 3460 C 324.952 1.36207 -1.49305 0
M  V30 3461 C 325.273 1.94519 -0.136863 0
M  V30 3462 O 324.543 1.77261 0.833983 0
M  V30 3463 H 323.123 0.50565 -0.549843 0
M  V30 3464 H 325.785 0.711239 -1.81459 0
M  V30 3465 H 324.881 2.18058 -2.23287 0
M  V30 3466 N 325.182 1.32811 0.848464 0
M  V30 3467 C 326.132 1.18842 1.94578 0
M  V30 3468 C 327.116 0.0937517 1.60627 0
M  V30 3469 O 328.308 0.320887 1.74067 0
M  V30 3470 C 325.437 0.91999 3.30743 0
M  V30 3471 C 324.523 2.05665 3.70894 0
M  V30 3472 N 324.914 3.30579 3.8282 0
M  V30 3473 C 323.212 1.9612 4.00566 0
M  V30 3474 C 323.913 4.05067 4.17487 0
M  V30 3475 N 322.889 3.33419 4.2934 0
M  V30 3476 H 326.691 2.13536 2.0194 0
M  V30 3477 H 324.205 1.2468 1.0406 0
M  V30 3478 H 326.202 0.800859 4.09136 0
M  V30 3479 H 324.862 -0.0185076 3.24695 0
M  V30 3480 H 325.873 3.65441 3.66978 0
M  V30 3481 H 322.55 1.09871 4.02784 0
M  V30 3482 H 323.94 5.12815 4.34131 0
M  V30 3483 N 326.66 -1.06551 1.16123 0
M  V30 3484 C 327.885 -1.83544 0.965735 0
M  V30 3485 C 328.31 -1.81843 -0.481102 0
M  V30 3486 O 327.668 -1.21732 -1.34354 0
M  V30 3487 C 327.716 -3.28169 1.49457 0
M  V30 3488 O 326.82 -4.0643 0.699157 0
M  V30 3489 H 326.161 -0.568026 0.343864 0
M  V30 3490 H 328.691 -1.34362 1.54299 0
M  V30 3491 H 328.701 -3.78992 1.51092 0
M  V30 3492 H 327.376 -3.28722 2.54784 0
M  V30 3493 H 325.953 -3.65216 0.7531 0
M  V30 3494 N 328.138 -0.959301 -1.25041 0
M  V30 3495 C 329.068 -0.501388 -2.28053 0
M  V30 3496 C 330.049 0.454673 -1.63911 0
M  V30 3497 O 331.234 0.352618 -1.90972 0
M  V30 3498 C 328.364 0.217224 -3.4662 0
M  V30 3499 C 327.318 -0.654034 -4.22973 0
M  V30 3500 C 326.644 0.195589 -5.34342 0
M  V30 3501 C 327.944 -1.93447 -4.85155 0
M  V30 3502 H 329.638 -1.36238 -2.66608 0
M  V30 3503 H 327.184 -0.656534 -1.28163 0
M  V30 3504 H 329.137 0.548732 -4.17812 0
M  V30 3505 H 327.861 1.1125 -3.07068 0
M  V30 3506 H 326.52 -0.968693 -3.5357 0
M  V30 3507 H 326.168 1.09076 -4.91031 0
M  V30 3508 H 325.868 -0.384091 -5.86343 0
M  V30 3509 H 327.392 0.521958 -6.08365 0
M  V30 3510 H 328.806 -1.66908 -5.48466 0
M  V30 3511 H 327.203 -2.46018 -5.47353 0
M  V30 3512 H 328.273 -2.63466 -4.07079 0
M  V30 3513 N 329.616 1.39756 -0.72842 0
M  V30 3514 C 330.864 2.00248 -0.272946 0
M  V30 3515 C 331.185 1.58077 1.14178 0
M  V30 3516 O 330.455 0.826014 1.77634 0
M  V30 3517 H 329.035 0.740554 -0.0979247 0
M  V30 3518 H 331.697 1.70903 -0.936912 0
M  V30 3519 H 330.793 3.10495 -0.316142 0
M  V30 3520 N 331.094 0.475555 1.50254 0
M  V30 3521 C 332.024 -0.30611 2.31485 0
M  V30 3522 C 333.005 -0.986228 1.38591 0
M  V30 3523 O 334.19 -0.982541 1.67511 0
M  V30 3524 C 331.32 -1.38588 3.1845 0
M  V30 3525 C 330.274 -0.827115 4.19932 0
M  V30 3526 C 329.6 -2.00551 4.95665 0
M  V30 3527 C 330.9 0.16463 5.2204 0
M  V30 3528 H 332.594 0.371866 2.97082 0
M  V30 3529 H 330.14 0.180282 1.42867 0
M  V30 3530 H 332.093 -1.94023 3.74076 0
M  V30 3531 H 330.817 -2.09269 2.50747 0
M  V30 3532 H 329.476 -0.294702 3.65414 0
M  V30 3533 H 329.124 -2.6994 4.2443 0
M  V30 3534 H 328.824 -1.63784 5.64313 0
M  V30 3535 H 330.348 -2.56468 5.54127 0
M  V30 3536 H 331.762 -0.300699 5.72511 0
M  V30 3537 H 330.159 0.446813 5.98434 0
M  V30 3538 H 331.229 1.08905 4.72512 0
M  V30 3539 N 332.573 -1.56217 0.208337 0
M  V30 3540 C 333.536 -2.18455 -0.693557 0
M  V30 3541 C 334.536 -1.14268 -1.13135 0
M  V30 3542 O 335.726 -1.39577 -1.0423 0
M  V30 3543 C 332.858 -2.79727 -1.94848 0
M  V30 3544 H 334.051 -2.99519 -0.15114 0
M  V30 3545 H 331.604 -1.56245 -0.041287 0
M  V30 3546 H 332.339 -2.02497 -2.53309 0
M  V30 3547 H 332.124 -3.56009 -1.64316 0
M  V30 3548 H 333.614 -3.27475 -2.59133 0
M  V30 3549 N 334.051 0.0651679 -1.57465 0
M  V30 3550 C 335.001 1.0838 -2.00594 0
M  V30 3551 C 335.985 1.34106 -0.889071 0
M  V30 3552 O 337.177 1.34295 -1.15299 0
M  V30 3553 C 334.306 2.39565 -2.45894 0
M  V30 3554 C 333.392 2.17085 -3.64328 0
M  V30 3555 N 333.783 1.64553 -4.78285 0
M  V30 3556 C 332.081 2.4753 -3.71006 0
M  V30 3557 C 332.782 1.57042 -5.60101 0
M  V30 3558 N 331.758 2.03328 -5.04141 0
M  V30 3559 H 335.56 0.671062 -2.86136 0
M  V30 3560 H 333.074 0.27213 -1.60104 0
M  V30 3561 H 335.071 3.13308 -2.75034 0
M  V30 3562 H 333.731 2.81549 -1.61741 0
M  V30 3563 H 334.742 1.33323 -5.00445 0
M  V30 3564 H 331.419 2.92835 -2.9758 0
M  V30 3565 H 332.809 1.17223 -6.61595 0
M  V30 3566 N 335.529 1.53961 0.336706 0
M  V30 3567 C 336.754 1.75797 1.10046 0
M  V30 3568 C 337.179 0.498985 1.81361 0
M  V30 3569 O 336.537 -0.548769 1.72795 0
M  V30 3570 C 336.585 2.94257 2.08436 0
M  V30 3571 O 335.689 2.64883 3.16087 0
M  V30 3572 H 335.03 0.582936 0.317934 0
M  V30 3573 H 337.56 2.00945 0.38501 0
M  V30 3574 H 337.57 3.21237 2.51537 0
M  V30 3575 H 336.245 3.85564 1.55927 0
M  V30 3576 H 334.822 2.48812 2.77753 0
M  V30 3577 N 337.007 -0.598083 1.45811 0
M  V30 3578 C 338.232 -1.3881 1.54099 0
M  V30 3579 C 338.657 -1.8726 0.177578 0
M  V30 3580 O 338.015 -1.6069 -0.839541 0
M  V30 3581 C 338.063 -2.56217 2.53743 0
M  V30 3582 O 337.167 -3.5716 2.06182 0
M  V30 3583 H 336.508 -0.414024 0.519115 0
M  V30 3584 H 339.038 -0.726971 1.91249 0
M  V30 3585 H 339.048 -3.03337 2.72856 0
M  V30 3586 H 337.723 -2.20303 3.5276 0
M  V30 3587 H 336.3 -3.16624 1.96987 0
M  V30 3588 N 338.485 -1.33259 -0.841409 0
M  V30 3589 C 339.762 -1.15174 -1.58096 0
M  V30 3590 C 340.142 0.282858 -2.09196 0
M  V30 3591 O 339.49 1.28151 -1.89181 0
M  V30 3592 C 339.7 -2.1907 -2.71679 0
M  V30 3593 C 341.048 -2.53093 -3.40924 0
M  V30 3594 O 342.072 -2.17717 -2.81918 0
M  V30 3595 O 340.931 -3.1379 -4.47435 0
M  V30 3596 H 338.025 -0.445303 -0.696875 0
M  V30 3597 H 340.571 -1.44833 -0.884385 0
M  V30 3598 H 339.343 -3.15443 -2.31541 0
M  V30 3599 H 338.966 -1.90481 -3.49002 0
M  V30 3600 N 339.963 1.05934 -1.16686 0
M  V30 3601 C 341.374 1.60263 -0.957745 0
M  V30 3602 C 341.725 1.89789 0.49745 0
M  V30 3603 O 340.85 1.67401 1.37135 0
M  V30 3604 C 341.445 2.91172 -1.73218 0
M  V30 3605 C 340.004 3.42188 -1.56794 0
M  V30 3606 C 339.151 2.16028 -1.73859 0
M  V30 3607 H 342.102 0.888392 -1.31504 0
M  V30 3608 H 342.123 3.60744 -1.21014 0
M  V30 3609 H 341.635 2.6965 -2.79124 0
M  V30 3610 H 339.736 3.68762 -0.533437 0
M  V30 3611 H 339.849 4.17273 -2.35414 0
M  V30 3612 H 338.213 2.26426 -1.16633 0
M  V30 3613 H 338.996 1.96985 -2.81161 0
M  V30 3614 N 341.441 0.965919 1.2453 0
M  V30 3615 C 342.689 0.625593 1.92174 0
M  V30 3616 C 343.01 -0.841652 1.75901 0
M  V30 3617 O 342.28 -1.60061 1.12948 0
M  V30 3618 H 340.86 0.228388 0.71123 0
M  V30 3619 H 343.522 1.2266 1.51461 0
M  V30 3620 H 342.618 0.864653 2.99884 0
M  V30 3621 N 342.919 -1.39368 0.735821 0
M  V30 3622 C 343.882 -2.2896 0.104874 0
M  V30 3623 C 344.882 -1.46347 -0.666274 0
M  V30 3624 O 346.072 -1.67014 -0.49517 0
M  V30 3625 C 343.204 -3.29857 -0.860656 0
M  V30 3626 H 344.397 -2.86259 0.894205 0
M  V30 3627 H 341.95 -1.48029 0.501704 0
M  V30 3628 H 342.685 -2.77615 -1.67631 0
M  V30 3629 H 342.47 -3.9087 -0.310327 0
M  V30 3630 H 343.96 -3.96893 -1.29867 0
M  V30 3631 N 344.397 -0.483516 -1.5 0
M  V30 3632 C 345.327 0.293829 -2.31644 0
M  V30 3633 C 346.308 0.978864 -1.39112 0
M  V30 3634 O 347.493 0.973644 -1.68029 0
M  V30 3635 C 344.623 1.36897 -3.19181 0
M  V30 3636 C 343.577 0.804833 -4.20365 0
M  V30 3637 C 342.903 1.9792 -4.96721 0
M  V30 3638 C 344.203 -0.192313 -5.21946 0
M  V30 3639 H 345.897 -0.387616 -2.9688 0
M  V30 3640 H 343.443 -0.187856 -1.42769 0
M  V30 3641 H 345.396 1.92037 -3.751 0
M  V30 3642 H 344.12 2.07936 -2.51853 0
M  V30 3643 H 342.779 0.275319 -3.65565 0
M  V30 3644 H 342.427 2.67686 -4.25856 0
M  V30 3645 H 342.127 1.60789 -5.65173 0
M  V30 3646 H 343.651 2.53526 -5.55479 0
M  V30 3647 H 345.065 0.270333 -5.72662 0
M  V30 3648 H 343.462 -0.478543 -5.98189 0
M  V30 3649 H 344.532 -1.11409 -4.71928 0
M  V30 3650 N 345.875 1.56104 -0.216619 0
M  V30 3651 C 346.808 2.16026 0.735395 0
M  V30 3652 C 347.786 1.1032 1.1945 0
M  V30 3653 O 348.97 1.38549 1.27814 0
M  V30 3654 C 346.097 2.73656 1.99575 0
M  V30 3655 C 345.143 3.92146 1.67702 0
M  V30 3656 S 345.976 5.29397 0.806145 0
M  V30 3657 C 347.132 5.90463 2.07617 0
M  V30 3658 H 347.365 2.96439 0.226072 0
M  V30 3659 H 344.898 1.544 -0.00136639 0
M  V30 3660 H 346.856 3.075 2.71945 0
M  V30 3661 H 345.517 1.93245 2.47619 0
M  V30 3662 H 344.71 4.30954 2.61332 0
M  V30 3663 H 344.312 3.59423 1.03398 0
M  V30 3664 H 346.604 6.06136 3.02664 0
M  V30 3665 H 347.547 6.86589 1.73207 0
M  V30 3666 H 347.955 5.19252 2.21445 0
M  V30 3667 N 347.353 -0.0568162 1.57498 0
M  V30 3668 C 348.583 -0.764515 1.91934 0
M  V30 3669 C 348.991 -1.70877 0.81227 0
M  V30 3670 O 348.334 -1.82351 -0.222213 0
M  V30 3671 C 348.396 -1.5994 3.21962 0
M  V30 3672 C 348.06 -0.822925 4.4953 0
M  V30 3673 C 349.057 -0.135464 5.19723 0
M  V30 3674 C 346.742 -0.785666 4.96117 0
M  V30 3675 C 348.736 0.578861 6.34766 0
M  V30 3676 C 346.423 -0.0675784 6.11063 0
M  V30 3677 C 347.421 0.613471 6.80239 0
M  V30 3678 O 347.109 1.31996 7.92989 0
M  V30 3679 H 346.841 -0.221647 0.63863 0
M  V30 3680 H 349.395 -0.0268218 2.05382 0
M  V30 3681 H 347.625 -2.38026 3.04763 0
M  V30 3682 H 349.314 -2.18715 3.41934 0
M  V30 3683 H 350.08 -0.155458 4.84751 0
M  V30 3684 H 345.959 -1.30524 4.42136 0
M  V30 3685 H 349.503 1.111 6.88696 0
M  V30 3686 H 345.4 -0.0455636 6.45484 0
M  V30 3687 H 346.168 1.23077 8.09194 0
M  V30 3688 N 348.832 -1.54138 -0.328536 0
M  V30 3689 C 350.243 -1.63395 -0.903272 0
M  V30 3690 C 350.594 -0.524828 -1.8905 0
M  V30 3691 O 349.719 0.343068 -2.13663 0
M  V30 3692 C 350.314 -2.9618 -1.64507 0
M  V30 3693 C 348.873 -3.0765 -2.1686 0
M  V30 3694 C 348.02 -2.58933 -0.992416 0
M  V30 3695 H 350.971 -1.58344 -0.106253 0
M  V30 3696 H 350.992 -2.86061 -2.50897 0
M  V30 3697 H 350.504 -3.76884 -0.926302 0
M  V30 3698 H 348.605 -2.31611 -2.91868 0
M  V30 3699 H 348.718 -4.1337 -2.42202 0
M  V30 3700 H 347.082 -2.14706 -1.37016 0
M  V30 3701 H 347.865 -3.42089 -0.288041 0
M  V30 3702 N 350.31 0.590341 -1.46126 0
M  V30 3703 C 351.258 1.72105 -1.5647 0
M  V30 3704 C 352.252 1.63756 -0.433612 0
M  V30 3705 O 353.458 1.69342 -0.610194 0
M  V30 3706 H 349.833 0.568889 -0.491802 0
M  V30 3707 H 351.804 1.6051 -2.51553 0
M  V30 3708 C 350.553 3.10493 -1.56491 0
M  V30 3709 H 349.876 3.17583 -2.4286 0
M  V30 3710 H 351.316 3.8939 -1.67785 0
M  V30 3711 C 349.775 3.3563 -0.292231 0
M  V30 3712 O 350.305 3.96875 0.620739 0
M  V30 3713 N 348.511 2.90026 -0.182523 0
M  V30 3714 H 348.058 2.40367 -0.926356 0
M  V30 3715 H 348.016 3.07218 0.668152 0
M  V30 3716 N 351.788 1.33704 0.83433 0
M  V30 3717 C 353.018 1.28281 1.6195 0
M  V30 3718 C 353.426 -0.147603 1.88623 0
M  V30 3719 O 352.769 -1.1016 1.47005 0
M  V30 3720 C 352.831 1.99386 2.99141 0
M  V30 3721 C 352.495 3.48681 2.95416 0
M  V30 3722 C 353.492 4.438 2.70809 0
M  V30 3723 C 351.177 3.90925 3.15409 0
M  V30 3724 C 353.171 5.79138 2.66229 0
M  V30 3725 C 350.858 5.26366 3.10454 0
M  V30 3726 C 351.856 6.20284 2.85895 0
M  V30 3727 O 351.544 7.53245 2.80852 0
M  V30 3728 H 351.276 0.44315 0.510484 0
M  V30 3729 H 353.83 1.76711 1.04702 0
M  V30 3730 H 352.06 1.45554 3.58261 0
M  V30 3731 H 353.749 1.87403 3.60049 0
M  V30 3732 H 354.515 4.12485 2.5511 0
M  V30 3733 H 350.394 3.18229 3.33543 0
M  V30 3734 H 353.938 6.52416 2.4698 0
M  V30 3735 H 349.835 5.57304 3.25703 0
M  V30 3736 H 350.603 7.62846 2.96661 0
M  V30 3737 N 353.266 -1.05314 1.17247 0
M  V30 3738 C 354.229 -2.112 0.890357 0
M  V30 3739 C 355.229 -1.60359 -0.118943 0
M  V30 3740 O 356.419 -1.73833 0.113086 0
M  V30 3741 C 353.551 -3.39266 0.333422 0
M  V30 3742 H 354.744 -2.37659 1.82916 0
M  V30 3743 H 352.297 -1.21538 0.982758 0
M  V30 3744 H 353.032 -3.18462 -0.612587 0
M  V30 3745 H 352.817 -3.77477 1.06082 0
M  V30 3746 H 354.307 -4.17315 0.154322 0
M  V30 3747 N 354.744 -0.972509 -1.24016 0
M  V30 3748 C 355.991 -0.637034 -1.92219 0
M  V30 3749 C 356.319 0.828418 -1.75976 0
M  V30 3750 O 355.574 1.61206 -1.10955 0
M  V30 3751 C 355.873 -0.963694 -3.44162 0
M  V30 3752 C 355.539 -2.41807 -3.80579 0
M  V30 3753 C 354.201 -2.81556 -3.9023 0
M  V30 3754 C 356.553 -3.36172 -3.98293 0
M  V30 3755 C 353.881 -4.14702 -4.15017 0
M  V30 3756 C 356.233 -4.68952 -4.24578 0
M  V30 3757 C 354.897 -5.08472 -4.32449 0
M  V30 3758 H 354.167 -0.233107 -0.703379 0
M  V30 3759 H 356.814 -1.2249 -1.47202 0
M  V30 3760 H 355.119 -0.29365 -3.90698 0
M  V30 3761 H 356.816 -0.682449 -3.9515 0
M  V30 3762 H 353.406 -2.09988 -3.73635 0
M  V30 3763 H 357.59 -3.06644 -3.90234 0
M  V30 3764 H 352.846 -4.4494 -4.19331 0
M  V30 3765 H 357.02 -5.42037 -4.37229 0
M  V30 3766 H 354.647 -6.11665 -4.51409 0
M  V30 3767 N 356.222 1.38976 -0.743202 0
M  V30 3768 C 357.638 1.53984 -0.419664 0
M  V30 3769 C 357.838 1.70837 1.0685 0
M  V30 3770 O 356.894 1.7135 1.8546 0
M  V30 3771 C 358.207 2.75287 -1.20985 0
M  V30 3772 C 359.755 2.89129 -1.19889 0
M  V30 3773 C 360.23 4.13381 -1.97181 0
M  V30 3774 N 361.721 4.20437 -1.94389 0
M  V30 3775 C 362.456 5.15547 -2.50996 0
M  V30 3776 N 361.952 6.16395 -3.16274 0
M  V30 3777 N 363.745 5.07822 -2.40984 0
M  V30 3778 H 355.896 1.26285 -1.7078 0
M  V30 3779 H 358.159 0.612689 -0.723406 0
M  V30 3780 H 357.865 2.69204 -2.26323 0
M  V30 3781 H 357.739 3.68184 -0.819759 0
M  V30 3782 H 360.126 2.947 -0.153606 0
M  V30 3783 H 360.207 1.97272 -1.62841 0
M  V30 3784 H 359.851 4.08572 -3.01714 0
M  V30 3785 H 359.781 5.04298 -1.51629 0
M  V30 3786 H 362.272 3.48205 -1.46839 0
M  V30 3787 H 362.585 6.85443 -3.56915 0
M  V30 3788 H 360.93 6.16758 -3.20367 0
M  V30 3789 H 364.121 4.27973 -1.89622 0
M  V30 3790 H 364.294 5.81767 -2.85397 0
M  V30 3791 N 357.7 0.491464 1.49741 0
M  V30 3792 C 358.61 -0.296835 2.32715 0
M  V30 3793 C 359.626 -0.976536 1.44013 0
M  V30 3794 O 360.802 -0.960023 1.77047 0
M  V30 3795 C 357.867 -1.35288 3.19215 0
M  V30 3796 C 356.928 -0.687632 4.23757 0
M  V30 3797 C 356.161 -1.69336 5.06123 0
M  V30 3798 O 356.384 -2.92219 4.89861 0
M  V30 3799 O 355.318 -1.25394 5.88693 0
M  V30 3800 H 359.144 0.382048 3.01287 0
M  V30 3801 H 356.729 0.252953 1.47243 0
M  V30 3802 H 358.611 -1.96411 3.72828 0
M  V30 3803 H 357.286 -2.01487 2.53347 0
M  V30 3804 H 356.193 -0.0369159 3.74082 0
M  V30 3805 H 357.526 -0.0682566 4.92153 0
M  V30 3806 N 359.178 -1.55987 0.224894 0
M  V30 3807 C 360.406 -2.02784 -0.410665 0
M  V30 3808 C 360.821 -1.10464 -1.53112 0
M  V30 3809 O 360.178 -0.114871 -1.82138 0
M  V30 3810 C 360.229 -3.49087 -0.939165 0
M  V30 3811 O 359.95 -4.37887 0.136614 0
M  V30 3812 C 361.451 -4.11543 -1.64763 0
M  V30 3813 H 358.671 -0.663484 -0.100148 0
M  V30 3814 H 361.215 -2.01614 0.342326 0
M  V30 3815 H 359.37 -3.50861 -1.64242 0
M  V30 3816 H 359.784 -5.23849 -0.261155 0
M  V30 3817 H 361.258 -5.15673 -1.96939 0
M  V30 3818 H 361.735 -3.56736 -2.56195 0
M  V30 3819 H 362.341 -4.13629 -0.989503 0
M  V30 3820 N 360.656 0.0484629 -1.57525 0
M  V30 3821 C 361.881 0.759177 -1.93006 0
M  V30 3822 C 362.306 1.69125 -0.823317 0
M  V30 3823 O 361.664 1.79931 0.222364 0
M  V30 3824 C 361.712 1.50899 -3.27509 0
M  V30 3825 O 360.816 2.62112 -3.18388 0
M  V30 3826 H 360.157 0.205564 -0.631379 0
M  V30 3827 H 362.687 0.00972959 -2.04598 0
M  V30 3828 H 362.697 1.88317 -3.6194 0
M  V30 3829 H 361.372 0.825269 -4.0763 0
M  V30 3830 H 359.949 2.27379 -2.95556 0
M  V30 3831 N 362.134 1.5431 0.320358 0
M  V30 3832 C 363.082 1.84647 1.4145 0
M  V30 3833 C 364.076 0.718624 1.53402 0
M  V30 3834 O 365.282 0.902335 1.5575 0
M  V30 3835 H 361.657 0.585349 0.472091 0
M  V30 3836 H 363.628 2.7614 1.13089 0
M  V30 3837 C 362.377 2.09341 2.77617 0
M  V30 3838 H 361.7 2.9559 2.69196 0
M  V30 3839 H 363.14 2.3452 3.53237 0
M  V30 3840 C 361.599 0.885939 3.25043 0
M  V30 3841 O 362.129 0.0967891 4.01583 0
M  V30 3842 N 360.335 0.696682 2.82125 0
M  V30 3843 H 359.882 1.34006 2.2 0
M  V30 3844 H 359.84 -0.109712 3.14209 0
M  V30 3845 N 363.613 -0.582584 1.46437 0
M  V30 3846 C 364.843 -1.36484 1.55099 0
M  V30 3847 C 365.251 -1.88233 0.191056 0
M  V30 3848 O 364.594 -1.6429 -0.821858 0
M  V30 3849 C 364.656 -2.588 2.49525 0
M  V30 3850 C 364.32 -2.28517 3.95764 0
M  V30 3851 C 365.317 -1.87346 4.84972 0
M  V30 3852 C 363.002 -2.40658 4.40896 0
M  V30 3853 C 364.996 -1.5871 6.17325 0
M  V30 3854 C 362.683 -2.11635 5.73284 0
M  V30 3855 C 363.681 -1.70725 6.61318 0
M  V30 3856 O 363.369 -1.42057 7.91249 0
M  V30 3857 H 363.101 -0.423297 0.527063 0
M  V30 3858 H 365.655 -0.715188 1.92547 0
M  V30 3859 H 363.885 -3.26571 2.07095 0
M  V30 3860 H 365.574 -3.20868 2.48593 0
M  V30 3861 H 366.34 -1.77481 4.5136 0
M  V30 3862 H 362.219 -2.71463 3.72598 0
M  V30 3863 H 365.763 -1.26704 6.85997 0
M  V30 3864 H 361.66 -2.21124 6.06444 0
M  V30 3865 H 362.428 -1.55901 8.03515 0
M  V30 3866 N 365.091 -1.34144 -0.827227 0
M  V30 3867 C 366.316 -1.29476 -1.62021 0
M  V30 3868 C 366.741 0.129292 -1.87655 0
M  V30 3869 O 366.099 1.08967 -1.449 0
M  V30 3870 C 366.147 -2.08702 -2.94068 0
M  V30 3871 O 365.251 -1.45359 -3.85933 0
M  V30 3872 H 364.592 -0.444881 -0.492927 0
M  V30 3873 H 367.122 -1.76882 -1.02829 0
M  V30 3874 H 367.132 -2.19898 -3.43669 0
M  V30 3875 H 365.807 -3.12241 -2.74734 0
M  V30 3876 H 364.384 -1.42879 -3.44442 0
M  V30 3877 N 366.569 1.04691 -1.17803 0
M  V30 3878 C 367.499 2.14494 -0.92275 0
M  V30 3879 C 368.48 1.69546 0.137179 0
M  V30 3880 O 369.665 1.94195 -0.0141108 0
M  V30 3881 C 366.795 3.44491 -0.440803 0
M  V30 3882 C 365.749 4.03031 -1.4405 0
M  V30 3883 C 365.075 5.28432 -0.81631 0
M  V30 3884 C 366.375 4.39932 -2.81527 0
M  V30 3885 H 368.069 2.36107 -1.84103 0
M  V30 3886 H 365.615 1.1347 -0.886599 0
M  V30 3887 H 367.568 4.2066 -0.249602 0
M  V30 3888 H 366.292 3.22546 0.513025 0
M  V30 3889 H 364.951 3.28937 -1.61853 0
M  V30 3890 H 364.599 5.02792 0.144511 0
M  V30 3891 H 364.299 5.68559 -1.48371 0
M  V30 3892 H 365.823 6.07284 -0.635496 0
M  V30 3893 H 367.237 5.07113 -2.67412 0
M  V30 3894 H 365.634 4.9109 -3.44892 0
M  V30 3895 H 366.704 3.50045 -3.35554 0
M  V30 3896 N 368.047 0.979072 1.23499 0
M  V30 3897 C 369.458 0.684391 1.73704 0
M  V30 3898 C 369.809 -0.799448 1.79174 0
M  V30 3899 O 368.934 -1.62531 1.42873 0
M  V30 3900 C 369.529 1.23564 3.15464 0
M  V30 3901 C 368.088 0.99063 3.6313 0
M  V30 3902 C 367.235 1.36416 2.41425 0
M  V30 3903 H 370.186 1.15307 1.09041 0
M  V30 3904 H 370.207 0.607417 3.7562 0
M  V30 3905 H 369.719 2.31561 3.1145 0
M  V30 3906 H 367.82 -0.0733136 3.72528 0
M  V30 3907 H 367.933 1.64427 4.5 0
M  V30 3908 H 366.297 0.782616 2.42378 0
M  V30 3909 H 367.08 2.45387 2.40083 0
M  V30 3910 N 369.525 -1.3858 0.750561 0
M  V30 3911 C 370.457 -2.29057 0.0810714 0
M  V30 3912 C 371.47 -1.47596 -0.686973 0
M  V30 3913 O 372.659 -1.70495 -0.528563 0
M  V30 3914 C 369.759 -3.26475 -0.909247 0
M  V30 3915 C 368.932 -4.36945 -0.199478 0
M  V30 3916 C 367.991 -5.14572 -1.10011 0
M  V30 3917 O 367.017 -5.66321 -0.57177 0
M  V30 3918 N 368.219 -5.27262 -2.42849 0
M  V30 3919 H 370.984 -2.87153 0.858087 0
M  V30 3920 H 368.545 -1.50328 0.60109 0
M  V30 3921 H 370.537 -3.75285 -1.51471 0
M  V30 3922 H 369.107 -2.69298 -1.58736 0
M  V30 3923 H 368.327 -3.8981 0.586664 0
M  V30 3924 H 369.615 -5.07963 0.291783 0
M  V30 3925 H 369.013 -4.86763 -2.88233 0
M  V30 3926 H 367.57 -5.79456 -2.98453 0
M  V30 3927 N 371.003 -0.499398 -1.49478 0
M  V30 3928 C 372.28 0.108629 -1.95298 0
M  V30 3929 C 372.66 1.54282 -1.44084 0
M  V30 3930 O 372.008 2.18944 -0.653908 0
M  V30 3931 C 372.218 0.0229111 -3.48992 0
M  V30 3932 C 373.566 0.197643 -4.2414 0
M  V30 3933 O 374.59 0.0981735 -3.56065 0
M  V30 3934 O 373.449 0.401669 -5.45022 0
M  V30 3935 H 370.543 0.096181 -0.821388 0
M  V30 3936 H 373.089 -0.561822 -1.6013 0
M  V30 3937 H 371.861 -0.977321 -3.78899 0
M  V30 3938 H 371.484 0.733579 -3.90774 0
M  V30 3939 N 372.481 1.55866 -0.233164 0
M  V30 3940 C 373.758 1.90471 0.444988 0
M  V30 3941 C 374.138 1.15209 1.7689 0
M  V30 3942 O 373.486 0.265119 2.26957 0
M  V30 3943 C 373.696 3.4333 0.626559 0
M  V30 3944 C 375.044 4.14319 0.92871 0
M  V30 3945 O 376.068 3.48993 0.712926 0
M  V30 3946 O 374.927 5.29846 1.33887 0
M  V30 3947 H 372.021 0.792347 0.236885 0
M  V30 3948 H 374.567 1.67437 -0.276211 0
M  V30 3949 H 373.339 3.90095 -0.306822 0
M  V30 3950 H 372.962 3.72181 1.39881 0
M  V30 3951 N 373.959 -0.0401083 1.57549 0
M  V30 3952 C 375.208 -0.732108 1.87944 0
M  V30 3953 C 375.521 -1.77107 0.830206 0
M  V30 3954 O 376.727 -2.51488 1.02302 0
M  V30 3955 C 375.183 -1.35315 3.33494 0
M  V30 3956 C 374.791 -0.351105 4.46622 0
M  V30 3957 C 376.535 -2.02566 3.73051 0
M  V30 3958 C 374.442 -0.979859 5.83226 0
M  V30 3959 H 373.372 -0.277188 0.701201 0
M  V30 3960 H 376.023 0.0138501 1.83495 0
M  V30 3961 H 374.405 -2.14844 3.32653 0
M  V30 3962 H 375.579 0.416674 4.58912 0
M  V30 3963 H 373.894 0.218708 4.15825 0
M  V30 3964 H 376.491 -2.50441 4.72423 0
M  V30 3965 H 376.834 -2.83904 3.04474 0
M  V30 3966 H 377.367 -1.29827 3.76018 0
M  V30 3967 H 374.106 -0.206135 6.55176 0
M  V30 3968 H 373.626 -1.71774 5.74677 0
M  V30 3969 H 375.305 -1.49046 6.29599 0
M  V30 3970 N 375.437 -1.54477 -0.31217 0
M  V30 3971 C 376.714 -1.63891 -1.06767 0
M  V30 3972 C 377.094 -0.480028 -2.0557 0
M  V30 3973 O 376.442 0.524487 -2.22399 0
M  V30 3974 C 376.652 -3.01402 -1.75948 0
M  V30 3975 C 378 -3.57838 -2.28554 0
M  V30 3976 O 379.024 -3.03782 -1.85998 0
M  V30 3977 O 377.883 -4.52462 -3.06497 0
M  V30 3978 H 374.977 -0.664125 -0.492816 0
M  V30 3979 H 377.523 -1.66823 -0.311149 0
M  V30 3980 H 376.295 -3.77187 -1.04144 0
M  V30 3981 H 375.918 -3.02199 -2.58383 0
M  V30 3982 N 376.915 0.57481 -1.46744 0
M  V30 3983 C 378.163 1.33009 -1.52161 0
M  V30 3984 C 378.484 1.94185 -0.178092 0
M  V30 3985 O 377.754 1.7899 0.796196 0
M  V30 3986 H 376.334 0.493873 -0.560445 0
M  V30 3987 H 378.996 0.672589 -1.82927 0
M  V30 3988 H 378.092 2.13273 -2.27862 0
M  V30 3989 N 378.394 1.34581 0.820102 0
M  V30 3990 C 379.643 1.26437 1.57151 0
M  V30 3991 C 379.956 -0.163111 1.94919 0
M  V30 3992 O 381.162 -0.366722 2.69012 0
M  V30 3993 C 379.618 2.21658 2.83541 0
M  V30 3994 C 379.226 3.69679 2.53065 0
M  V30 3995 C 380.97 2.22428 3.61561 0
M  V30 3996 C 378.877 4.56761 3.75664 0
M  V30 3997 H 377.807 0.469707 0.589823 0
M  V30 3998 H 380.458 1.59763 0.902656 0
M  V30 3999 H 378.84 1.81287 3.52067 0
M  V30 4000 H 380.014 4.18605 1.92631 0
M  V30 4001 H 378.329 3.71384 1.88316 0
M  V30 4002 H 380.926 2.8471 4.52597 0
M  V30 4003 H 381.269 1.22434 3.97889 0
M  V30 4004 H 381.802 2.61259 2.99981 0
M  V30 4005 H 378.541 5.57702 3.44454 0
M  V30 4006 H 378.061 4.12568 4.35371 0
M  V30 4007 H 379.74 4.71509 4.43044 0
M  V30 4008 N 379.872 -1.04064 1.18357 0
M  V30 4009 C 380.804 -2.12114 0.868358 0
M  V30 4010 C 381.817 -1.62247 -0.134045 0
M  V30 4011 O 383.006 -1.78253 0.0937933 0
M  V30 4012 C 380.106 -3.37773 0.276132 0
M  V30 4013 C 379.279 -4.16874 1.3242 0
M  V30 4014 C 378.338 -5.20861 0.747662 0
M  V30 4015 O 377.364 -5.51141 1.42239 0
M  V30 4016 N 378.566 -5.78715 -0.454823 0
M  V30 4017 H 381.331 -2.39748 1.79836 0
M  V30 4018 H 378.892 -1.20258 1.08396 0
M  V30 4019 H 380.884 -4.04513 -0.123133 0
M  V30 4020 H 379.454 -3.07581 -0.557895 0
M  V30 4021 H 378.674 -3.45456 1.89878 0
M  V30 4022 H 379.962 -4.66516 2.03078 0
M  V30 4023 H 379.36 -5.56415 -1.02073 0
M  V30 4024 H 377.917 -6.46921 -0.79601 0
M  V30 4025 N 381.35 -0.985608 -1.22978 0
M  V30 4026 C 382.313 -0.535071 -2.22867 0
M  V30 4027 C 383.313 0.378123 -1.56291 0
M  V30 4028 O 384.503 0.171092 -1.73358 0
M  V30 4029 C 381.635 0.222702 -3.40172 0
M  V30 4030 H 382.828 -1.41835 -2.6424 0
M  V30 4031 H 380.381 -0.772042 -1.35901 0
M  V30 4032 H 381.116 1.12229 -3.04262 0
M  V30 4033 H 380.901 -0.43288 -3.89703 0
M  V30 4034 H 382.391 0.526335 -4.1427 0
M  V30 4035 N 382.828 1.3818 -0.7579 0
M  V30 4036 C 384.077 1.99261 -0.312744 0
M  V30 4037 C 384.39 1.60846 1.11301 0
M  V30 4038 O 385.596 2.14929 1.65885 0
M  V30 4039 C 384.052 3.56294 -0.50821 0
M  V30 4040 C 383.66 4.03657 -1.94333 0
M  V30 4041 C 385.404 4.24313 -0.125982 0
M  V30 4042 C 383.311 5.53347 -2.08712 0
M  V30 4043 H 382.241 0.745456 -0.113185 0
M  V30 4044 H 384.892 1.57889 -0.935056 0
M  V30 4045 H 383.274 3.95575 0.183353 0
M  V30 4046 H 384.448 3.75655 -2.66871 0
M  V30 4047 H 382.763 3.48376 -2.28086 0
M  V30 4048 H 385.36 5.34279 -0.212125 0
M  V30 4049 H 385.703 4.05962 0.921964 0
M  V30 4050 H 386.236 3.90285 -0.769563 0
M  V30 4051 H 382.975 5.76607 -3.11777 0
M  V30 4052 H 382.495 5.83078 -1.4064 0
M  V30 4053 H 384.174 6.19111 -1.87912 0
M  V30 4054 N 384.306 0.507319 1.49211 0
M  V30 4055 C 385.536 -0.0315292 2.06576 0
M  V30 4056 C 385.944 -1.30791 1.36713 0
M  V30 4057 O 385.287 -1.78324 0.441181 0
M  V30 4058 C 385.349 -0.349104 3.57801 0
M  V30 4059 C 385.013 0.830475 4.49391 0
M  V30 4060 C 386.01 1.72271 4.90529 0
M  V30 4061 C 383.695 1.03107 4.91604 0
M  V30 4062 C 385.689 2.79964 5.72625 0
M  V30 4063 C 383.376 2.11116 5.73475 0
M  V30 4064 C 384.374 2.99379 6.1389 0
M  V30 4065 O 384.062 4.05523 6.94123 0
M  V30 4066 H 383.794 0.0201002 0.675701 0
M  V30 4067 H 386.348 0.705737 1.92895 0
M  V30 4068 H 384.578 -1.14005 3.69513 0
M  V30 4069 H 386.267 -0.827319 3.97379 0
M  V30 4070 H 387.033 1.57958 4.58557 0
M  V30 4071 H 382.912 0.353417 4.59643 0
M  V30 4072 H 386.456 3.48884 6.04091 0
M  V30 4073 H 382.353 2.25421 6.0486 0
M  V30 4074 H 383.121 4.02953 7.1244 0
M  V30 4075 N 385.784 -1.5574 0.241426 0
M  V30 4076 C 387.032 -1.98417 -0.384075 0
M  V30 4077 C 387.353 -1.13078 -1.58866 0
M  V30 4078 O 386.623 -0.212312 -1.94746 0
M  V30 4079 H 385.203 -0.732813 -0.144894 0
M  V30 4080 H 387.865 -1.9193 0.338943 0
M  V30 4081 H 386.961 -3.04219 -0.696939 0
M  V30 4082 N 387.262 0.0317525 -1.57568 0
M  V30 4083 C 388.192 1.03274 -2.0942 0
M  V30 4084 C 389.173 1.3788 -0.996143 0
M  V30 4085 O 390.358 1.46811 -1.27122 0
M  V30 4086 C 387.488 2.33448 -2.57137 0
M  V30 4087 C 386.442 2.13091 -3.71182 0
M  V30 4088 C 385.768 3.49001 -4.05095 0
M  V30 4089 C 387.068 1.51928 -4.99715 0
M  V30 4090 H 388.762 0.60112 -2.93303 0
M  V30 4091 H 386.308 0.287705 -1.41097 0
M  V30 4092 H 388.261 3.03802 -2.92032 0
M  V30 4093 H 386.985 2.78665 -1.70333 0
M  V30 4094 H 385.644 1.45171 -3.36632 0
M  V30 4095 H 385.292 3.91862 -3.15362 0
M  V30 4096 H 384.992 3.36207 -4.81911 0
M  V30 4097 H 386.516 4.20721 -4.42522 0
M  V30 4098 H 387.93 2.12196 -5.32584 0
M  V30 4099 H 386.327 1.49716 -5.81124 0
M  V30 4100 H 387.397 0.484811 -4.8247 0
M  V30 4101 N 388.74 1.54641 0.303973 0
M  V30 4102 C 389.965 1.78092 1.06292 0
M  V30 4103 C 390.39 0.537342 1.80262 0
M  V30 4104 O 389.748 -0.511993 1.7392 0
M  V30 4105 C 389.796 2.98612 2.02147 0
M  V30 4106 O 388.9 2.71528 3.10397 0
M  V30 4107 H 388.241 0.589548 0.305497 0
M  V30 4108 H 390.771 2.01716 0.3423 0
M  V30 4109 H 390.781 3.265 2.44667 0
M  V30 4110 H 389.456 3.88785 1.47714 0
M  V30 4111 H 388.033 2.54648 2.72413 0
M  V30 4112 N 390.218 -0.567019 1.47046 0
M  V30 4113 C 391.443 -1.3551 1.57009 0
M  V30 4114 C 391.868 -1.86841 0.217259 0
M  V30 4115 O 391.226 -1.62435 -0.805268 0
M  V30 4116 C 391.274 -2.50777 2.5912 0
M  V30 4117 O 390.378 -3.52706 2.13711 0
M  V30 4118 H 389.719 -0.402919 0.52778 0
M  V30 4119 H 392.249 -0.686241 1.92748 0
M  V30 4120 H 392.259 -2.97481 2.79229 0
M  V30 4121 H 390.934 -2.12771 3.57353 0
M  V30 4122 H 389.511 -3.12374 2.03659 0
M  V30 4123 N 391.696 -1.35014 -0.812953 0
M  V30 4124 C 392.644 -1.27435 -1.94585 0
M  V30 4125 C 393.638 -0.170494 -1.6854 0
M  V30 4126 O 394.844 -0.336085 -1.76835 0
M  V30 4127 H 391.219 -0.396144 -0.639198 0
M  V30 4128 H 393.19 -2.23158 -1.98098 0
M  V30 4129 C 391.939 -1.05677 -3.31252 0
M  V30 4130 H 391.262 -1.89853 -3.51846 0
M  V30 4131 H 392.702 -1.04413 -4.10943 0
M  V30 4132 C 391.161 0.239615 -3.36047 0
M  V30 4133 O 391.691 1.23759 -3.8216 0
M  V30 4134 N 389.897 0.276186 -2.89285 0
M  V30 4135 H 389.444 -0.53653 -2.51951 0
M  V30 4136 H 389.402 1.14332 -2.92875 0
M  V30 4137 N 393.175 1.03435 -1.18907 0
M  V30 4138 C 394.586 1.58195 -0.991523 0
M  V30 4139 C 394.937 1.90801 0.457081 0
M  V30 4140 O 394.062 1.70272 1.33553 0
M  V30 4141 C 394.657 2.87432 -1.79355 0
M  V30 4142 C 393.216 3.38785 -1.64017 0
M  V30 4143 C 392.363 2.12292 -1.78402 0
M  V30 4144 H 395.314 0.860299 -1.33359 0
M  V30 4145 H 395.335 3.58096 -1.28638 0
M  V30 4146 H 394.847 2.63669 -2.84781 0
M  V30 4147 H 392.948 3.67547 -0.611536 0
M  V30 4148 H 393.061 4.12186 -2.44212 0
M  V30 4149 H 391.425 2.23901 -1.2141 0
M  V30 4150 H 392.208 1.90977 -2.85277 0
M  V30 4151 N 394.653 0.992116 1.22453 0
M  V30 4152 C 395.902 0.662992 1.90492 0
M  V30 4153 C 396.215 -0.808407 1.78113 0
M  V30 4154 O 397.421 -1.24908 2.41061 0
M  V30 4155 C 395.877 1.1353 3.41524 0
M  V30 4156 C 395.485 2.63187 3.62542 0
M  V30 4157 C 397.229 0.880465 4.15269 0
M  V30 4158 C 395.136 3.04024 5.0727 0
M  V30 4159 H 394.066 0.244278 0.713333 0
M  V30 4160 H 396.717 1.20157 1.38688 0
M  V30 4161 H 395.099 0.52485 3.92506 0
M  V30 4162 H 396.273 3.2957 3.22056 0
M  V30 4163 H 394.588 2.86543 3.02129 0
M  V30 4164 H 397.185 1.16128 5.21937 0
M  V30 4165 H 397.528 -0.183408 4.15896 0
M  V30 4166 H 398.061 1.45307 3.70312 0
M  V30 4167 H 394.8 4.09584 5.11782 0
M  V30 4168 H 394.32 2.42343 5.48662 0
M  V30 4169 H 395.999 2.95282 5.75689 0
M  V30 4170 N 396.131 -1.37776 0.765217 0
M  V30 4171 C 397.063 -2.28958 0.105361 0
M  V30 4172 C 398.076 -1.48316 -0.67128 0
M  V30 4173 O 399.265 -1.71046 -0.51045 0
M  V30 4174 C 396.365 -3.27421 -0.874569 0
M  V30 4175 C 395.538 -4.37132 -0.153123 0
M  V30 4176 C 394.597 -5.1571 -1.04547 0
M  V30 4177 O 393.623 -5.66896 -0.511672 0
M  V30 4178 N 394.825 -5.29808 -2.37243 0
M  V30 4179 H 397.59 -2.86227 0.888495 0
M  V30 4180 H 395.151 -1.49682 0.617 0
M  V30 4181 H 397.143 -3.7687 -1.47483 0
M  V30 4182 H 395.713 -2.70967 -1.55871 0
M  V30 4183 H 394.933 -3.89166 0.627975 0
M  V30 4184 H 396.221 -5.07625 0.345643 0
M  V30 4185 H 395.619 -4.89793 -2.83054 0
M  V30 4186 H 394.176 -5.82589 -2.9229 0
M  V30 4187 N 397.609 -0.515225 -1.4894 0
M  V30 4188 C 399.02 -0.0710067 -1.86565 0
M  V30 4189 C 399.371 1.34733 -1.42623 0
M  V30 4190 O 398.496 2.00653 -0.810379 0
M  V30 4191 C 399.091 -0.122083 -3.3858 0
M  V30 4192 C 397.65 0.266863 -3.75453 0
M  V30 4193 C 396.797 -0.488376 -2.72966 0
M  V30 4194 H 399.748 -0.727266 -1.41055 0
M  V30 4195 H 399.769 0.669818 -3.74558 0
M  V30 4196 H 399.281 -1.15448 -3.70531 0
M  V30 4197 H 397.382 1.30196 -3.49113 0
M  V30 4198 H 397.495 -0.0624811 -4.79059 0
M  V30 4199 H 395.859 0.0635622 -2.54621 0
M  V30 4200 H 396.642 -1.52113 -3.07761 0
M  V30 4201 N 399.087 1.5561 -0.249682 0
M  V30 4202 C 400.315 2.03411 0.378352 0
M  V30 4203 C 400.73 1.12886 1.51335 0
M  V30 4204 O 400.087 0.143833 1.81932 0
M  V30 4205 C 400.138 3.50537 0.88351 0
M  V30 4206 O 399.859 4.37614 -0.20626 0
M  V30 4207 C 401.36 4.14113 1.58195 0
M  V30 4208 H 398.58 0.664994 0.08958 0
M  V30 4209 H 401.124 2.01044 -0.374357 0
M  V30 4210 H 399.279 3.5343 1.58639 0
M  V30 4211 H 399.693 5.24199 0.177782 0
M  V30 4212 H 401.167 5.18741 1.8871 0
M  V30 4213 H 401.644 3.60767 2.50487 0
M  V30 4214 H 402.25 4.15151 0.923573 0
M  V30 4215 N 400.565 -0.0233959 1.57583 0
M  V30 4216 C 401.813 -0.711654 1.89156 0
M  V30 4217 C 402.134 -1.75591 0.848096 0
M  V30 4218 O 401.404 -1.95547 -0.117566 0
M  V30 4219 H 399.984 -0.265835 0.698098 0
M  V30 4220 H 402.646 0.0119948 1.94896 0
M  V30 4221 H 401.742 -1.19766 2.88206 0
M  V30 4222 N 402.043 -1.548 -0.295768 0
M  V30 4223 C 403.454 -1.65274 -0.868411 0
M  V30 4224 C 403.805 -0.56481 -1.87894 0
M  V30 4225 O 402.93 0.29767 -2.14343 0
M  V30 4226 C 403.525 -2.99603 -1.58188 0
M  V30 4227 C 402.084 -3.12181 -2.10286 0
M  V30 4228 C 401.231 -2.6098 -0.93727 0
M  V30 4229 H 404.182 -1.58534 -0.0726422 0
M  V30 4230 H 404.203 -2.91319 -2.44772 0
M  V30 4231 H 403.715 -3.78764 -0.846151 0
M  V30 4232 H 401.816 -2.3775 -2.8689 0
M  V30 4233 H 401.929 -4.18415 -2.33379 0
M  V30 4234 H 400.293 -2.17564 -1.32431 0
M  V30 4235 H 401.076 -3.42623 -0.215414 0
M  V30 4236 N 403.521 0.559213 -1.47345 0
M  V30 4237 C 404.746 1.34676 -1.57725 0
M  V30 4238 C 405.171 1.86723 -0.227164 0
M  V30 4239 O 404.529 1.6286 0.796642 0
M  V30 4240 C 404.577 2.49399 -2.60447 0
M  V30 4241 O 403.681 3.51567 -2.15578 0
M  V30 4242 H 403.022 0.400115 -0.52991 0
M  V30 4243 H 405.552 0.676009 -1.93109 0
M  V30 4244 H 405.562 2.95996 -2.80803 0
M  V30 4245 H 404.237 2.10873 -3.58477 0
M  V30 4246 H 402.814 3.11289 -2.05313 0
M  V30 4247 N 404.999 1.35443 0.805782 0
M  V30 4248 C 406.227 1.31878 1.59423 0
M  V30 4249 C 406.642 -0.103562 1.88516 0
M  V30 4250 O 405.999 -1.05575 1.48863 0
M  V30 4251 C 406.05 2.12426 2.92502 0
M  V30 4252 O 405.771 3.49115 2.6467 0
M  V30 4253 C 407.272 2.16455 3.86862 0
M  V30 4254 H 404.492 0.453002 0.495005 0
M  V30 4255 H 407.036 1.78309 1.00131 0
M  V30 4256 H 405.191 1.69593 3.48306 0
M  V30 4257 H 405.605 3.90957 3.49647 0
M  V30 4258 H 407.079 2.77204 4.77349 0
M  V30 4259 H 407.556 1.16352 4.23508 0
M  V30 4260 H 408.162 2.59453 3.36993 0
M  V30 4261 N 406.477 -1.02803 1.19454 0
M  V30 4262 C 407.888 -1.57667 0.999899 0
M  V30 4263 C 408.239 -1.91041 -0.446956 0
M  V30 4264 O 407.364 -1.70978 -1.32648 0
M  V30 4265 C 407.959 -2.86477 1.80877 0
M  V30 4266 C 406.518 -3.37911 1.65811 0
M  V30 4267 C 405.665 -2.11343 1.79526 0
M  V30 4268 H 408.616 -0.853214 1.33813 0
M  V30 4269 H 408.637 -3.57408 1.30536 0
M  V30 4270 H 408.149 -2.62155 2.86175 0
M  V30 4271 H 406.25 -3.67218 0.63102 0
M  V30 4272 H 406.363 -4.10885 2.46395 0
M  V30 4273 H 404.727 -2.23254 1.22596 0
M  V30 4274 H 405.51 -1.89461 2.86285 0
M  V30 4275 N 407.956 -0.998596 -1.21925 0
M  V30 4276 C 408.903 -0.553621 -2.24062 0
M  V30 4277 C 409.873 0.416999 -1.6078 0
M  V30 4278 O 411.058 0.320482 -1.88089 0
M  V30 4279 C 408.198 0.119959 -3.44891 0
M  V30 4280 C 407.311 -0.893077 -4.22668 0
M  V30 4281 C 406.446 -0.192424 -5.30851 0
M  V30 4282 C 405.485 -1.19344 -6.00353 0
M  V30 4283 N 404.622 -0.520707 -7.00166 0
M  V30 4284 H 409.462 -1.4293 -2.61486 0
M  V30 4285 H 406.999 -0.715838 -1.28507 0
M  V30 4286 H 408.957 0.527459 -4.13852 0
M  V30 4287 H 407.587 0.959389 -3.08214 0
M  V30 4288 H 406.639 -1.41886 -3.52948 0
M  V30 4289 H 407.951 -1.65512 -4.70539 0
M  V30 4290 H 407.105 0.271515 -6.06092 0
M  V30 4291 H 405.844 0.602075 -4.83969 0
M  V30 4292 H 404.849 -1.66795 -5.23889 0
M  V30 4293 H 406.074 -1.98891 -6.49322 0
M  V30 4294 H 404.02 0.254252 -6.55507 0
M  V30 4295 H 403.937 -1.2211 -7.46073 0
M  V30 4296 H 405.205 -0.0797596 -7.79459 0
M  V30 4297 N 409.434 1.37368 -0.772513 0
M  V30 4298 C 410.845 1.8231 -0.402493 0
M  V30 4299 C 411.196 1.6436 1.07146 0
M  V30 4300 O 410.321 1.15514 1.82991 0
M  V30 4301 C 410.916 3.30979 -0.723776 0
M  V30 4302 C 409.475 3.74195 -0.406802 0
M  V30 4303 C 408.622 2.59885 -0.967218 0
M  V30 4304 H 411.573 1.25829 -0.967099 0
M  V30 4305 H 411.594 3.80499 -0.00870832 0
M  V30 4306 H 411.106 3.44011 -1.7966 0
M  V30 4307 H 409.207 3.66732 0.658673 0
M  V30 4308 H 409.32 4.7027 -0.915588 0
M  V30 4309 H 407.684 2.51674 -0.391416 0
M  V30 4310 H 408.467 2.7571 -2.04546 0
M  V30 4311 N 410.912 0.523116 1.48665 0
M  V30 4312 C 412.152 -0.0115588 2.04397 0
M  V30 4313 C 412.516 -1.32225 1.39214 0
M  V30 4314 O 413.717 -1.94253 1.85793 0
M  V30 4315 C 411.988 -0.138119 3.57133 0
M  V30 4316 S 413.547 -0.623849 4.34343 0
M  V30 4317 H 410.365 0.00877706 0.710946 0
M  V30 4318 H 412.967 0.702116 1.82457 0
M  V30 4319 H 411.671 0.820748 4.02109 0
M  V30 4320 H 411.202 -0.876377 3.83514 0
M  V30 4321 H 413.217 -1.8895 4.58816 0
M  V30 4322 N 412.39 -1.55475 0.257931 0
M  V30 4323 C 413.667 -1.91155 -0.414629 0
M  V30 4324 C 414.047 -1.18008 -1.75035 0
M  V30 4325 O 413.395 -0.301193 -2.26506 0
M  V30 4326 C 413.605 -3.44283 -0.571859 0
M  V30 4327 C 414.953 -4.15744 -0.862678 0
M  V30 4328 O 415.977 -3.50083 -0.657314 0
M  V30 4329 O 414.836 -5.31909 -1.2544 0
M  V30 4330 H 411.93 -0.796016 -0.22425 0
M  V30 4331 H 414.476 -1.66976 0.302814 0
M  V30 4332 H 413.248 -3.89558 0.368844 0
M  V30 4333 H 412.871 -3.7436 -1.33943 0
M  V30 4334 N 413.868 0.0150385 -1.57593 0
M  V30 4335 C 415.279 0.559832 -1.78109 0
M  V30 4336 C 415.63 1.74814 -0.890756 0
M  V30 4337 O 414.755 2.16216 -0.0892482 0
M  V30 4338 C 415.35 1.02238 -3.23006 0
M  V30 4339 C 413.909 1.51258 -3.44671 0
M  V30 4340 C 413.056 0.456955 -2.73509 0
M  V30 4341 H 416.007 -0.211169 -1.57289 0
M  V30 4342 H 416.028 1.88912 -3.30292 0
M  V30 4343 H 415.54 0.157302 -3.87781 0
M  V30 4344 H 413.641 2.39905 -2.8509 0
M  V30 4345 H 413.754 1.55042 -4.5332 0
M  V30 4346 H 412.118 0.915196 -2.37689 0
M  V30 4347 H 412.901 -0.398896 -3.40975 0
M  V30 4348 N 415.346 1.54954 0.287554 0
M  V30 4349 C 416.571 1.79209 1.04397 0
M  V30 4350 C 416.996 0.556431 1.79682 0
M  V30 4351 O 416.354 -0.493518 1.74454 0
M  V30 4352 C 416.402 3.00739 1.98969 0
M  V30 4353 O 415.506 2.74805 3.075 0
M  V30 4354 H 414.847 0.592755 0.299227 0
M  V30 4355 H 417.377 2.02068 0.320886 0
M  V30 4356 H 417.387 3.29077 2.4119 0
M  V30 4357 H 416.062 3.90329 1.43582 0
M  V30 4358 H 414.639 2.57523 2.69697 0
M  V30 4359 N 416.824 -0.551391 1.4764 0
M  V30 4360 C 417.754 -1.66757 1.63445 0
M  V30 4361 C 418.735 -1.63077 0.483742 0
M  V30 4362 O 419.92 -1.80607 0.71377 0
M  V30 4363 C 417.05 -3.05387 1.65396 0
M  V30 4364 C 416.004 -3.23918 2.79752 0
M  V30 4365 C 415.33 -4.63393 2.66779 0
M  V30 4366 C 416.63 -3.08735 4.21284 0
M  V30 4367 H 418.324 -1.53786 2.56886 0
M  V30 4368 H 415.87 -0.738415 1.23626 0
M  V30 4369 H 417.823 -3.83325 1.75043 0
M  V30 4370 H 416.547 -3.19332 0.685195 0
M  V30 4371 H 415.206 -2.48391 2.69625 0
M  V30 4372 H 414.854 -4.74144 1.67918 0
M  V30 4373 H 414.554 -4.7674 3.43501 0
M  V30 4374 H 416.078 -5.43458 2.78364 0
M  V30 4375 H 417.492 -3.76484 4.32357 0
M  V30 4376 H 415.889 -3.33588 4.98838 0
M  V30 4377 H 416.959 -2.0541 4.39243 0
M  V30 4378 N 418.302 -1.35869 -0.798587 0
M  V30 4379 C 419.53 -1.32722 -1.58722 0
M  V30 4380 C 419.945 0.0935631 -1.88568 0
M  V30 4381 O 419.302 1.04784 -1.49421 0
M  V30 4382 C 419.353 -2.13974 -2.91371 0
M  V30 4383 O 419.074 -3.50514 -2.62815 0
M  V30 4384 C 420.575 -2.18504 -3.85708 0
M  V30 4385 H 417.795 -0.45562 -0.492596 0
M  V30 4386 H 420.339 -1.78837 -0.991843 0
M  V30 4387 H 418.494 -1.71438 -3.47402 0
M  V30 4388 H 418.908 -3.92806 -3.47568 0
M  V30 4389 H 420.382 -2.79732 -4.75872 0
M  V30 4390 H 420.859 -1.18597 -4.22885 0
M  V30 4391 H 421.465 -2.61236 -3.35612 0
M  V30 4392 N 419.78 1.02168 -1.19998 0
M  V30 4393 C 421.027 1.75685 -1.00702 0
M  V30 4394 C 421.355 1.88947 0.461426 0
M  V30 4395 O 420.61 1.40832 1.35885 0
M  V30 4396 C 420.909 3.18081 -1.62969 0
M  V30 4397 C 420.575 3.24809 -3.12746 0
M  V30 4398 C 419.237 3.26352 -3.53621 0
M  V30 4399 C 421.589 3.23379 -4.08749 0
M  V30 4400 C 418.917 3.2413 -4.89036 0
M  V30 4401 C 421.269 3.22698 -5.44104 0
M  V30 4402 C 419.933 3.22542 -5.84399 0
M  V30 4403 H 419.203 0.642877 -0.368496 0
M  V30 4404 H 421.85 1.19865 -1.49348 0
M  V30 4405 H 420.155 3.77027 -1.06573 0
M  V30 4406 H 421.852 3.73648 -1.45561 0
M  V30 4407 H 418.442 3.2434 -2.80181 0
M  V30 4408 H 422.626 3.21361 -3.78207 0
M  V30 4409 H 417.882 3.22338 -5.19527 0
M  V30 4410 H 422.056 3.20543 -6.18244 0
M  V30 4411 H 419.683 3.20575 -6.89301 0
M  V30 4412 N 421.258 1.00505 1.21394 0
M  V30 4413 C 422.535 0.603277 1.86064 0
M  V30 4414 C 422.915 -0.919095 1.90042 0
M  V30 4415 O 422.263 -1.80607 1.39977 0
M  V30 4416 C 422.473 1.23772 3.26315 0
M  V30 4417 C 423.821 1.34586 4.02705 0
M  V30 4418 O 424.845 1.19304 3.35626 0
M  V30 4419 O 423.704 1.59169 5.22807 0
M  V30 4420 H 420.798 0.206634 0.800769 0
M  V30 4421 H 423.344 1.1017 1.29076 0
M  V30 4422 H 422.116 2.27848 3.18121 0
M  V30 4423 H 421.739 0.725648 3.90922 0
M  V30 4424 N 422.737 -1.36956 0.779787 0
M  V30 4425 C 423.7 -2.2851 0.177662 0
M  V30 4426 C 424.7 -1.48393 -0.619377 0
M  V30 4427 O 425.89 -1.68505 -0.441785 0
M  V30 4428 C 423.022 -3.32428 -0.755279 0
M  V30 4429 H 424.215 -2.83269 0.984823 0
M  V30 4430 H 421.768 -1.46358 0.548544 0
M  V30 4431 H 422.503 -2.82808 -1.58714 0
M  V30 4432 H 422.288 -3.91659 -0.185817 0
M  V30 4433 H 423.778 -4.00824 -1.17174 0
M  V30 4434 N 424.215 -0.530993 -1.48385 0
M  V30 4435 C 425.464 0.00474348 -2.01699 0
M  V30 4436 C 425.777 1.35227 -1.41325 0
M  V30 4437 O 426.983 1.97643 -1.86144 0
M  V30 4438 C 425.439 0.0588473 -3.59852 0
M  V30 4439 C 425.047 -1.28385 -4.2921 0
M  V30 4440 C 426.791 0.543358 -4.21008 0
M  V30 4441 C 424.698 -1.19028 -5.79298 0
M  V30 4442 H 423.628 0.00554317 -0.75398 0
M  V30 4443 H 426.279 -0.674924 -1.70637 0
M  V30 4444 H 424.661 0.803612 -3.8776 0
M  V30 4445 H 425.835 -2.04426 -4.12973 0
M  V30 4446 H 424.15 -1.70418 -3.7993 0
M  V30 4447 H 426.747 0.631351 -5.3096 0
M  V30 4448 H 427.09 1.54937 -3.86394 0
M  V30 4449 H 427.623 -0.145754 -3.97533 0
M  V30 4450 H 424.362 -2.17147 -6.18488 0
M  V30 4451 H 423.882 -0.471246 -5.97946 0
M  V30 4452 H 425.561 -0.881365 -6.40969 0
M  V30 4453 N 425.693 1.55336 -0.266172 0
M  V30 4454 C 426.921 2.03801 0.356756 0
M  V30 4455 C 427.336 1.14485 1.50129 0
M  V30 4456 O 426.693 0.163121 1.8177 0
M  V30 4457 C 426.744 3.51455 0.846281 0
M  V30 4458 O 426.465 4.37371 -0.252663 0
M  V30 4459 C 427.966 4.15767 1.53794 0
M  V30 4460 H 425.186 0.665906 0.0825218 0
M  V30 4461 H 427.73 2.00636 -0.39566 0
M  V30 4462 H 425.885 3.55092 1.54881 0
M  V30 4463 H 426.299 5.24358 0.122173 0
M  V30 4464 H 427.773 5.20714 1.83198 0
M  V30 4465 H 428.25 3.63404 2.46646 0
M  V30 4466 H 428.856 4.16107 0.879488 0
M  V30 4467 N 427.171 -0.0066808 1.57599 0
M  V30 4468 C 428.399 -0.704087 1.94551 0
M  V30 4469 C 428.814 -1.67677 0.867746 0
M  V30 4470 O 428.171 -1.8185 -0.153925 0
M  V30 4471 C 428.222 -1.44177 3.31505 0
M  V30 4472 O 427.943 -0.508097 4.35144 0
M  V30 4473 C 429.444 -2.23429 3.82876 0
M  V30 4474 H 426.664 -0.196523 0.641576 0
M  V30 4475 H 429.208 0.042453 2.04456 0
M  V30 4476 H 427.363 -2.13999 3.22929 0
M  V30 4477 H 427.777 -1.02782 5.14331 0
M  V30 4478 H 429.251 -2.70552 4.8115 0
M  V30 4479 H 429.728 -3.05818 3.15233 0
M  V30 4480 H 430.334 -1.58636 3.94607 0
M  V30 4481 N 428.649 -1.55105 -0.279332 0
M  V30 4482 C 429.579 -1.90557 -1.34945 0
M  V30 4483 C 430.56 -0.766738 -1.51839 0
M  V30 4484 O 431.745 -1.02434 -1.64988 0
M  V30 4485 C 428.875 -2.17193 -2.71006 0
M  V30 4486 C 427.829 -3.33021 -2.68851 0
M  V30 4487 C 427.155 -3.45123 -4.08405 0
M  V30 4488 C 428.455 -4.69578 -2.28678 0
M  V30 4489 H 430.149 -2.80188 -1.05522 0
M  V30 4490 H 427.695 -1.34811 -0.506173 0
M  V30 4491 H 429.648 -2.40581 -3.45975 0
M  V30 4492 H 428.372 -1.24355 -3.01999 0
M  V30 4493 H 427.031 -3.0959 -1.9634 0
M  V30 4494 H 426.679 -2.49762 -4.3661 0
M  V30 4495 H 426.379 -4.22995 -4.07859 0
M  V30 4496 H 427.903 -3.70796 -4.85121 0
M  V30 4497 H 429.317 -4.92553 -2.93368 0
M  V30 4498 H 427.714 -5.5032 -2.39306 0
M  V30 4499 H 428.784 -4.68828 -1.23807 0
M  V30 4500 N 430.127 0.543554 -1.4793 0
M  V30 4501 C 431.543 0.870806 -1.3375 0
M  V30 4502 C 431.743 1.9864 -0.338261 0
M  V30 4503 O 430.799 2.51305 0.245371 0
M  V30 4504 C 432.112 1.25114 -2.73435 0
M  V30 4505 C 433.66 1.3618 -2.81823 0
M  V30 4506 C 434.135 1.77563 -4.22179 0
M  V30 4507 N 435.626 1.8469 -4.24787 0
M  V30 4508 C 436.361 2.18067 -5.30315 0
M  V30 4509 N 435.857 2.49963 -6.46135 0
M  V30 4510 N 437.65 2.18958 -5.17701 0
M  V30 4511 H 429.801 -0.19275 -2.11524 0
M  V30 4512 H 432.064 -0.0235777 -0.947707 0
M  V30 4513 H 431.77 0.50514 -3.48053 0
M  V30 4514 H 431.644 2.20431 -3.06088 0
M  V30 4515 H 434.031 2.09859 -2.07468 0
M  V30 4516 H 434.112 0.390169 -2.52807 0
M  V30 4517 H 433.756 1.04449 -4.97044 0
M  V30 4518 H 433.686 2.75753 -4.48629 0
M  V30 4519 H 436.177 1.62372 -3.41239 0
M  V30 4520 H 436.49 2.74497 -7.22406 0
M  V30 4521 H 434.835 2.47513 -6.49432 0
M  V30 4522 H 438.026 1.93488 -4.2624 0
M  V30 4523 H 438.199 2.44639 -6.00047 0
M  V30 4524 N 431.605 1.3629 0.791371 0
M  V30 4525 C 432.853 1.30154 1.5461 0
M  V30 4526 C 433.174 -0.119409 1.94634 0
M  V30 4527 O 432.444 -1.05924 1.64794 0
M  V30 4528 H 431.024 0.478784 0.573389 0
M  V30 4529 H 433.686 1.70565 0.94306 0
M  V30 4530 H 432.782 1.92762 2.45457 0
M  V30 4531 N 433.083 -1.0153 1.20538 0
M  V30 4532 C 433.993 -2.13557 0.971113 0
M  V30 4533 C 435.009 -1.73845 -0.0734366 0
M  V30 4534 O 436.185 -2.01075 0.114299 0
M  V30 4535 C 433.25 -3.42661 0.527639 0
M  V30 4536 C 432.311 -3.96608 1.64319 0
M  V30 4537 C 431.544 -5.1955 1.22078 0
M  V30 4538 O 431.767 -5.70329 0.0900198 0
M  V30 4539 O 430.701 -5.66681 2.02871 0
M  V30 4540 H 434.527 -2.3619 1.90913 0
M  V30 4541 H 432.112 -1.11946 0.989362 0
M  V30 4542 H 433.994 -4.20404 0.289621 0
M  V30 4543 H 432.669 -3.21441 -0.381779 0
M  V30 4544 H 431.576 -3.20139 1.93551 0
M  V30 4545 H 432.909 -4.22219 2.52966 0
M  V30 4546 N 434.561 -1.01147 -1.20859 0
M  V30 4547 C 435.81 -0.693214 -1.89413 0
M  V30 4548 C 436.123 0.779969 -1.79376 0
M  V30 4549 O 437.329 1.21057 -2.43017 0
M  V30 4550 C 435.785 -1.18949 -3.39675 0
M  V30 4551 C 435.393 -2.68921 -3.58309 0
M  V30 4552 C 437.137 -0.94642 -4.13815 0
M  V30 4553 C 435.044 -3.12056 -5.0237 0
M  V30 4554 H 433.974 -0.255595 -0.709357 0
M  V30 4555 H 436.625 -1.22349 -1.36759 0
M  V30 4556 H 435.007 -0.587228 -3.91622 0
M  V30 4557 H 436.181 -3.34652 -3.16772 0
M  V30 4558 H 434.496 -2.91314 -2.97532 0
M  V30 4559 H 437.093 -1.24417 -5.20023 0
M  V30 4560 H 437.436 0.117219 -4.16135 0
M  V30 4561 H 437.969 -1.5118 -3.67953 0
M  V30 4562 H 434.708 -4.17674 -5.05202 0
M  V30 4563 H 434.228 -2.51041 -5.44737 0
M  V30 4564 H 435.907 -3.04403 -5.70918 0
M  V30 4565 N 436.039 1.36541 -0.78704 0
M  V30 4566 C 436.969 2.32659 -0.197992 0
M  V30 4567 C 437.95 1.56533 0.665697 0
M  V30 4568 O 439.135 1.84698 0.60001 0
M  V30 4569 C 436.265 3.40778 0.669901 0
M  V30 4570 C 435.219 4.27897 -0.0937039 0
M  V30 4571 C 434.545 5.27163 0.894629 0
M  V30 4572 C 435.845 5.06334 -1.28154 0
M  V30 4573 H 437.539 2.82171 -1.00099 0
M  V30 4574 H 435.085 1.35665 -0.482793 0
M  V30 4575 H 437.038 4.07008 1.09191 0
M  V30 4576 H 435.762 2.89827 1.50558 0
M  V30 4577 H 434.421 3.6322 -0.49666 0
M  V30 4578 H 434.069 4.72486 1.72527 0
M  V30 4579 H 433.769 5.86317 0.388149 0
M  V30 4580 H 435.293 5.96266 1.31525 0
M  V30 4581 H 436.707 5.65617 -0.93541 0
M  V30 4582 H 435.104 5.74888 -1.72115 0
M  V30 4583 H 436.174 4.38114 -2.07807 0
M  V30 4584 N 437.518 0.538854 1.48102 0
M  V30 4585 C 438.765 0.0080018 2.02498 0
M  V30 4586 C 439.093 -1.33437 1.41509 0
M  V30 4587 O 438.348 -1.87709 0.553507 0
M  V30 4588 C 438.647 -0.153808 3.57069 0
M  V30 4589 C 438.313 1.11533 4.36888 0
M  V30 4590 C 436.975 1.46314 4.58417 0
M  V30 4591 C 439.327 1.95718 4.83057 0
M  V30 4592 C 436.655 2.6516 5.23361 0
M  V30 4593 C 439.007 3.13751 5.49312 0
M  V30 4594 C 437.671 3.48866 5.69077 0
M  V30 4595 H 436.941 0.00292807 0.740994 0
M  V30 4596 H 439.588 0.706668 1.77984 0
M  V30 4597 H 437.893 -0.935309 3.80472 0
M  V30 4598 H 439.59 -0.579607 3.96789 0
M  V30 4599 H 436.18 0.834484 4.20398 0
M  V30 4600 H 440.364 1.70158 4.66219 0
M  V30 4601 H 435.62 2.92558 5.36861 0
M  V30 4602 H 439.794 3.79282 5.84053 0
M  V30 4603 H 437.421 4.41054 6.19173 0
M  V30 4604 N 438.996 -1.55193 0.274407 0
M  V30 4605 C 440.243 -1.99581 -0.342579 0
M  V30 4606 C 440.571 -1.1628 -1.55914 0
M  V30 4607 O 439.826 -0.22029 -1.94456 0
M  V30 4608 C 440.125 -3.49019 -0.769458 0
M  V30 4609 C 439.791 -4.49598 0.342389 0
M  V30 4610 C 438.453 -4.76821 0.647686 0
M  V30 4611 C 440.805 -5.0964 1.09163 0
M  V30 4612 C 438.133 -5.61354 1.70581 0
M  V30 4613 C 440.485 -5.95323 2.13948 0
M  V30 4614 C 439.149 -6.20867 2.45113 0
M  V30 4615 H 438.419 -0.730319 -0.125358 0
M  V30 4616 H 441.066 -1.87529 0.387971 0
M  V30 4617 H 439.371 -3.58544 -1.57967 0
M  V30 4618 H 441.068 -3.8077 -1.25757 0
M  V30 4619 H 437.658 -4.28496 0.094318 0
M  V30 4620 H 441.842 -4.88632 0.869024 0
M  V30 4621 H 437.098 -5.79392 1.9523 0
M  V30 4622 H 441.272 -6.40881 2.72478 0
M  V30 4623 H 438.899 -6.86162 3.27239 0
M  V30 4624 N 440.474 -0.00167713 -1.576 0
M  V30 4625 C 441.421 0.989195 -2.08527 0
M  V30 4626 C 442.391 1.34031 -0.981065 0
M  V30 4627 O 443.576 1.43839 -1.2536 0
M  V30 4628 C 440.716 2.27537 -2.59463 0
M  V30 4629 C 439.829 1.98314 -3.83791 0
M  V30 4630 C 438.964 3.21025 -4.23222 0
M  V30 4631 C 438.003 2.87495 -5.40382 0
M  V30 4632 N 437.14 4.02749 -5.75098 0
M  V30 4633 H 441.98 0.547973 -2.92919 0
M  V30 4634 H 439.517 0.258917 -1.44803 0
M  V30 4635 H 441.475 3.02729 -2.87073 0
M  V30 4636 H 440.105 2.69325 -1.77943 0
M  V30 4637 H 439.157 1.13482 -3.63078 0
M  V30 4638 H 440.469 1.69601 -4.69081 0
M  V30 4639 H 439.623 4.04561 -4.52123 0
M  V30 4640 H 438.362 3.52877 -3.36644 0
M  V30 4641 H 437.367 2.02367 -5.11202 0
M  V30 4642 H 438.592 2.56889 -6.28637 0
M  V30 4643 H 436.538 4.34494 -4.91478 0
M  V30 4644 H 436.455 3.77566 -6.54966 0
M  V30 4645 H 437.723 4.87068 -6.08592 0
M  V30 4646 N 441.952 1.55251 0.271103 0
M  V30 4647 C 443.229 1.66664 1.02384 0
M  V30 4648 C 443.609 0.534363 2.04225 0
M  V30 4649 O 442.957 -0.465337 2.23712 0
M  V30 4650 C 443.167 3.05961 1.67895 0
M  V30 4651 C 444.515 3.63772 2.18986 0
M  V30 4652 O 445.539 3.08606 1.77878 0
M  V30 4653 O 444.398 4.60429 2.94393 0
M  V30 4654 H 441.492 0.676957 0.475035 0
M  V30 4655 H 444.038 1.67589 0.26681 0
M  V30 4656 H 442.81 3.79815 0.941071 0
M  V30 4657 H 442.433 3.08943 2.5028 0
M  V30 4658 N 443.43 -0.535701 1.48216 0
M  V30 4659 C 444.846 -0.863701 1.3421 0
M  V30 4660 C 445.046 -1.98458 0.34879 0
M  V30 4661 O 444.102 -2.51432 -0.23204 0
M  V30 4662 C 445.415 -1.23662 2.74095 0
M  V30 4663 C 446.963 -1.34683 2.82541 0
M  V30 4664 C 447.438 -1.75322 4.23115 0
M  V30 4665 N 448.929 -1.82434 4.2576 0
M  V30 4666 C 449.664 -2.15252 5.31464 0
M  V30 4667 N 449.16 -2.46533 6.47452 0
M  V30 4668 N 450.953 -2.16209 5.18855 0
M  V30 4669 H 443.104 0.203965 2.11418 0
M  V30 4670 H 445.367 0.0286033 0.947568 0
M  V30 4671 H 445.073 -0.486674 3.48316 0
M  V30 4672 H 444.947 -2.18805 3.07253 0
M  V30 4673 H 447.334 -2.08756 2.08579 0
M  V30 4674 H 447.415 -0.376756 2.5301 0
M  V30 4675 H 447.059 -1.01812 4.97591 0
M  V30 4676 H 446.989 -2.7337 4.50085 0
M  V30 4677 H 449.48 -1.6056 3.42095 0
M  V30 4678 H 449.793 -2.70662 7.23852 0
M  V30 4679 H 448.138 -2.44065 6.50736 0
M  V30 4680 H 451.329 -1.91224 4.2726 0
M  V30 4681 H 451.502 -2.41453 6.01335 0
M  V30 4682 N 444.908 -1.36708 -0.784132 0
M  V30 4683 C 446.138 -1.34203 -1.57077 0
M  V30 4684 C 446.546 0.0774945 -1.89041 0
M  V30 4685 O 445.889 1.04628 -1.50992 0
M  V30 4686 C 445.951 -2.10351 -2.91535 0
M  V30 4687 C 445.615 -3.59405 -2.82272 0
M  V30 4688 C 446.612 -4.53545 -2.54151 0
M  V30 4689 C 444.297 -4.02362 -3.00683 0
M  V30 4690 C 446.291 -5.8862 -2.44551 0
M  V30 4691 C 443.978 -5.37526 -2.90704 0
M  V30 4692 C 444.976 -6.30468 -2.62677 0
M  V30 4693 O 444.664 -7.63149 -2.52702 0
M  V30 4694 H 444.396 -0.461791 -0.493685 0
M  V30 4695 H 446.95 -1.80475 -0.980712 0
M  V30 4696 H 445.18 -1.5875 -3.52612 0
M  V30 4697 H 446.869 -2.00636 -3.52845 0
M  V30 4698 H 447.635 -4.21669 -2.39625 0
M  V30 4699 H 443.514 -3.30389 -3.21503 0
M  V30 4700 H 447.058 -6.61133 -2.22596 0
M  V30 4701 H 442.955 -5.69008 -3.04795 0
M  V30 4702 H 443.723 -7.73331 -2.68144 0
M  V30 4703 N 446.386 1.0089 -1.21074 0
M  V30 4704 C 447.633 1.74607 -1.0256 0
M  V30 4705 C 447.961 1.89426 0.44136 0
M  V30 4706 O 447.216 1.42266 1.34384 0
M  V30 4707 C 447.515 3.16335 -1.66334 0
M  V30 4708 C 447.181 3.21474 -3.16173 0
M  V30 4709 C 445.843 3.22583 -3.57062 0
M  V30 4710 C 448.195 3.19025 -4.12156 0
M  V30 4711 C 445.523 3.18925 -4.92446 0
M  V30 4712 C 447.875 3.16909 -5.47496 0
M  V30 4713 C 446.539 3.16326 -5.87787 0
M  V30 4714 H 445.809 0.638933 -0.375294 0
M  V30 4715 H 448.456 1.18274 -1.50611 0
M  V30 4716 H 446.761 3.75876 -1.10566 0
M  V30 4717 H 448.458 3.72083 -1.49516 0
M  V30 4718 H 445.048 3.2135 -2.83605 0
M  V30 4719 H 449.232 3.17332 -3.81595 0
M  V30 4720 H 444.488 3.16809 -5.22917 0
M  V30 4721 H 448.662 3.13968 -6.21609 0
M  V30 4722 H 446.289 3.13246 -6.92662 0
M  V30 4723 N 447.864 1.01787 1.20321 0
M  V30 4724 C 449.11 0.718699 1.90279 0
M  V30 4725 C 449.465 -0.743669 1.77447 0
M  V30 4726 O 448.758 -1.53345 1.14874 0
M  V30 4727 C 448.952 1.09076 3.40349 0
M  V30 4728 C 448.781 2.58775 3.67784 0
M  V30 4729 C 447.551 3.25578 3.86428 0
M  V30 4730 C 449.749 3.56966 3.70243 0
M  V30 4731 N 447.731 4.64495 4.01395 0
M  V30 4732 C 449.102 4.8145 3.90649 0
M  V30 4733 C 451.157 3.5092 3.53213 0
M  V30 4734 C 449.86 6.00619 3.95789 0
M  V30 4735 C 451.886 4.69493 3.59625 0
M  V30 4736 C 451.248 5.92786 3.80505 0
M  V30 4737 H 447.347 0.31468 0.715891 0
M  V30 4738 H 449.931 1.30295 1.44677 0
M  V30 4739 H 448.102 0.534839 3.847 0
M  V30 4740 H 449.834 0.744997 3.97784 0
M  V30 4741 H 446.589 2.76003 3.84862 0
M  V30 4742 H 447.013 5.36624 4.12752 0
M  V30 4743 H 451.655 2.56593 3.36035 0
M  V30 4744 H 449.373 6.95326 4.11762 0
M  V30 4745 H 452.959 4.66432 3.47754 0
M  V30 4746 H 451.839 6.83003 3.85327 0
M  V30 4747 N 449.342 -1.36122 0.79427 0
M  V30 4748 C 450.758 -1.5232 0.476525 0
M  V30 4749 C 450.958 -1.74685 -1.00436 0
M  V30 4750 O 450.014 -1.78115 -1.78973 0
M  V30 4751 C 451.327 -2.70607 1.31119 0
M  V30 4752 C 452.875 -2.8448 1.30537 0
M  V30 4753 C 453.35 -4.05778 2.12387 0
M  V30 4754 N 454.841 -4.12933 2.09859 0
M  V30 4755 C 455.576 -5.05876 2.69957 0
M  V30 4756 N 455.072 -6.04232 3.38934 0
M  V30 4757 N 456.865 -4.98528 2.59665 0
M  V30 4758 H 449.016 -1.1986 1.75349 0
M  V30 4759 H 451.279 -0.585418 0.745647 0
M  V30 4760 H 450.985 -2.60619 2.36158 0
M  V30 4761 H 450.859 -3.64888 0.955843 0
M  V30 4762 H 453.246 -2.93927 0.262876 0
M  V30 4763 H 453.327 -1.91093 1.70051 0
M  V30 4764 H 452.971 -3.97092 3.1667 0
M  V30 4765 H 452.901 -4.98323 1.70242 0
M  V30 4766 H 455.392 -3.42515 1.59662 0
M  V30 4767 H 455.705 -6.71724 3.82109 0
M  V30 4768 H 454.05 -6.04443 3.43036 0
M  V30 4769 H 457.241 -4.20641 2.05375 0
M  V30 4770 H 457.414 -5.70773 3.06793 0
M  V30 4771 N 450.82 -0.546701 -1.47814 0
M  V30 4772 C 452.236 -0.205717 -1.58269 0
M  V30 4773 C 452.436 1.29153 -1.54667 0
M  V30 4774 O 451.492 2.07098 -1.44453 0
M  V30 4775 C 452.805 -0.823065 -2.89216 0
M  V30 4776 C 454.353 -0.793328 -3.02779 0
M  V30 4777 C 454.828 -1.38955 -4.36412 0
M  V30 4778 N 456.319 -1.35227 -4.43021 0
M  V30 4779 C 457.054 -1.78333 -5.44963 0
M  V30 4780 N 456.55 -2.29246 -6.53772 0
M  V30 4781 N 458.343 -1.69467 -5.35945 0
M  V30 4782 H 450.494 -1.5196 -1.48398 0
M  V30 4783 H 452.757 -0.633078 -0.705632 0
M  V30 4784 H 452.463 -1.8749 -2.97558 0
M  V30 4785 H 452.337 -0.309915 -3.75925 0
M  V30 4786 H 454.724 0.249784 -2.94041 0
M  V30 4787 H 454.805 -1.34412 -2.17639 0
M  V30 4788 H 454.449 -2.43168 -4.45906 0
M  V30 4789 H 454.379 -0.814291 -5.20266 0
M  V30 4790 H 456.87 -0.979739 -3.64979 0
M  V30 4791 H 457.183 -2.60089 -7.27718 0
M  V30 4792 H 455.528 -2.3325 -6.5469 0
M  V30 4793 H 458.719 -1.29477 -4.49837 0
M  V30 4794 H 458.892 -2.03381 -6.15256 0
M  V30 4795 N 452.299 1.55045 -0.282633 0
M  V30 4796 C 453.249 2.19514 0.616249 0
M  V30 4797 C 454.233 1.16216 1.11277 0
M  V30 4798 O 455.425 1.42004 1.05659 0
M  V30 4799 C 452.554 2.92548 1.7964 0
M  V30 4800 C 451.64 4.03142 1.31671 0
M  V30 4801 N 452.031 5.0276 0.553695 0
M  V30 4802 C 450.329 4.1635 1.59903 0
M  V30 4803 C 451.03 5.80923 0.30054 0
M  V30 4804 N 450.006 5.3651 0.875116 0
M  V30 4805 H 453.808 2.93889 0.0255363 0
M  V30 4806 H 451.322 1.62169 -0.0865362 0
M  V30 4807 H 453.319 3.37188 2.45173 0
M  V30 4808 H 451.979 2.19685 2.39099 0
M  V30 4809 H 452.99 5.17512 0.20032 0
M  V30 4810 H 449.667 3.54682 2.20243 0
M  V30 4811 H 451.057 6.7118 -0.311053 0
M  V30 4812 N 453.777 0.010035 1.57597 0
M  V30 4813 C 455.188 -0.531426 1.78977 0
M  V30 4814 C 455.539 -1.73375 0.918454 0
M  V30 4815 O 454.664 -2.16047 0.123635 0
M  V30 4816 C 455.259 -0.97086 3.24592 0
M  V30 4817 C 453.818 -1.45756 3.47033 0
M  V30 4818 C 452.965 -0.413384 2.74201 0
M  V30 4819 H 455.916 0.236166 1.56933 0
M  V30 4820 H 455.937 -1.83633 3.33255 0
M  V30 4821 H 455.449 -0.0955893 3.87982 0
M  V30 4822 H 453.55 -2.35339 2.88871 0
M  V30 4823 H 453.663 -1.4781 4.55729 0
M  V30 4824 H 452.027 -0.877266 2.39115 0
M  V30 4825 H 452.81 0.453092 3.40297 0
M  V30 4826 N 455.255 -1.55392 -0.262866 0
M  V30 4827 C 456.187 -1.85392 -1.34768 0
M  V30 4828 C 457.2 -0.739069 -1.45057 0
M  V30 4829 O 458.389 -1.01703 -1.46693 0
M  V30 4830 C 455.489 -2.01088 -2.72795 0
M  V30 4831 C 454.662 -3.31828 -2.84972 0
M  V30 4832 C 453.721 -3.37464 -4.03738 0
M  V30 4833 O 452.747 -4.10778 -3.94018 0
M  V30 4834 N 453.949 -2.65599 -5.16176 0
M  V30 4835 H 456.714 -2.79029 -1.09375 0
M  V30 4836 H 454.275 -1.55434 -0.452981 0
M  V30 4837 H 456.267 -2.02217 -3.50557 0
M  V30 4838 H 454.837 -1.1427 -2.90966 0
M  V30 4839 H 454.057 -3.43152 -1.94012 0
M  V30 4840 H 455.345 -4.18032 -2.90045 0
M  V30 4841 H 454.743 -2.05736 -5.26962 0
M  V30 4842 H 453.3 -2.72439 -5.92132 0
M  V30 4843 N 456.733 0.527833 -1.48498 0
M  V30 4844 C 457.663 1.64136 -1.66077 0
M  V30 4845 C 458.644 1.62286 -0.509625 0
M  V30 4846 O 459.829 1.79449 -0.742413 0
M  V30 4847 C 456.959 3.02717 -1.70234 0
M  V30 4848 C 455.913 3.19426 -2.8487 0
M  V30 4849 C 455.239 4.5909 -2.74118 0
M  V30 4850 C 456.539 3.01993 -4.26142 0
M  V30 4851 H 458.233 1.4968 -2.593 0
M  V30 4852 H 455.779 0.718654 -1.24785 0
M  V30 4853 H 457.732 3.80491 -1.8112 0
M  V30 4854 H 456.456 3.18201 -0.735911 0
M  V30 4855 H 455.115 2.4407 -2.73542 0
M  V30 4856 H 454.763 4.71413 -1.7544 0
M  V30 4857 H 454.463 4.71214 -3.51042 0
M  V30 4858 H 455.987 5.3896 -2.86974 0
M  V30 4859 H 457.401 3.69558 -4.38292 0
M  V30 4860 H 455.798 3.2561 -5.04082 0
M  V30 4861 H 456.868 1.98396 -4.42456 0
M  V30 4862 N 458.211 1.37122 0.776871 0
M  V30 4863 C 459.143 1.28342 1.89897 0
M  V30 4864 C 460.156 0.200277 1.61563 0
M  V30 4865 O 461.345 0.456012 1.72577 0
M  V30 4866 C 458.445 0.960427 3.25006 0
M  V30 4867 C 457.618 2.148 3.81025 0
M  V30 4868 C 456.677 1.79608 4.94598 0
M  V30 4869 O 455.703 2.51845 5.10454 0
M  V30 4870 N 456.905 0.737171 5.758 0
M  V30 4871 H 459.67 2.25027 1.97947 0
M  V30 4872 H 457.231 1.3068 0.955739 0
M  V30 4873 H 459.223 0.705942 3.98495 0
M  V30 4874 H 457.793 0.0823066 3.12492 0
M  V30 4875 H 457.013 2.56454 2.99374 0
M  V30 4876 H 458.301 2.9411 4.15183 0
M  V30 4877 H 457.699 0.137637 5.65533 0
M  V30 4878 H 456.256 0.542534 6.49538 0
M  V30 4879 N 459.689 -1.00246 1.21608 0
M  V30 4880 C 461.105 -1.26435 0.973975 0
M  V30 4881 C 461.305 -1.98642 -0.338143 0
M  V30 4882 O 460.361 -2.29026 -1.06317 0
M  V30 4883 C 461.674 -2.08551 2.16626 0
M  V30 4884 C 463.222 -2.21769 2.20879 0
M  V30 4885 C 463.697 -3.07267 3.39633 0
M  V30 4886 N 465.188 -3.14855 3.39736 0
M  V30 4887 C 465.923 -3.81274 4.28273 0
M  V30 4888 N 465.419 -4.497 5.27012 0
M  V30 4889 N 467.212 -3.7794 4.16074 0
M  V30 4890 H 459.363 -0.518089 2.05984 0
M  V30 4891 H 461.626 -0.291368 0.902113 0
M  V30 4892 H 461.332 -1.62847 3.11727 0
M  V30 4893 H 461.206 -3.09303 2.15897 0
M  V30 4894 H 463.593 -2.66691 1.26332 0
M  V30 4895 H 463.674 -1.20478 2.25652 0
M  V30 4896 H 463.318 -2.63047 4.34475 0
M  V30 4897 H 463.248 -4.08678 3.321 0
M  V30 4898 H 465.739 -2.66147 2.6828 0
M  V30 4899 H 466.052 -4.98092 5.90867 0
M  V30 4900 H 464.397 -4.48479 5.30935 0
M  V30 4901 H 467.588 -3.23638 3.38195 0
M  V30 4902 H 467.761 -4.29424 4.85282 0
M  V30 4903 N 461.167 -1.02423 -1.1978 0
M  V30 4904 C 462.413 -0.719051 -1.89625 0
M  V30 4905 C 462.746 0.750083 -1.7913 0
M  V30 4906 O 462.021 1.54574 -1.18056 0
M  V30 4907 C 462.304 -1.16499 -3.40735 0
M  V30 4908 C 462.157 -2.695 -3.60125 0
M  V30 4909 C 463.476 -0.742166 -4.33797 0
M  V30 4910 H 460.595 -0.26269 -0.688595 0
M  V30 4911 H 463.237 -1.27333 -1.41018 0
M  V30 4912 H 461.387 -0.69341 -3.82262 0
M  V30 4913 H 463.059 -3.24569 -3.278 0
M  V30 4914 H 461.302 -3.10113 -3.03336 0
M  V30 4915 H 461.973 -2.95757 -4.66081 0
M  V30 4916 H 464.449 -1.1477 -3.99959 0
M  V30 4917 H 463.325 -1.08213 -5.38127 0
M  V30 4918 H 463.586 0.355747 -4.40666 0
M  V30 4919 N 462.645 1.35699 -0.801477 0
M  V30 4920 C 463.555 2.33661 -0.209691 0
M  V30 4921 C 464.571 1.6162 0.644591 0
M  V30 4922 O 465.747 1.93529 0.557545 0
M  V30 4923 C 462.812 3.40816 0.636033 0
M  V30 4924 C 461.873 4.28639 -0.238147 0
M  V30 4925 C 461.106 5.30676 0.567307 0
M  V30 4926 O 461.329 5.41174 1.8024 0
M  V30 4927 O 460.263 6.01887 -0.0391336 0
M  V30 4928 H 464.089 2.8606 -1.01996 0
M  V30 4929 H 461.674 1.38379 -0.563164 0
M  V30 4930 H 463.556 4.06301 1.11791 0
M  V30 4931 H 462.231 2.90696 1.42399 0
M  V30 4932 H 461.138 3.66152 -0.767044 0
M  V30 4933 H 462.471 4.82143 -0.989915 0
M  V30 4934 N 464.123 0.554532 1.47522 0
M  V30 4935 C 465.056 -0.242442 2.26908 0
M  V30 4936 C 466.034 -0.922722 1.33883 0
M  V30 4937 O 467.218 -0.942244 1.63261 0
M  V30 4938 C 464.345 -1.34525 3.10839 0
M  V30 4939 C 463.391 -0.773805 4.19422 0
M  V30 4940 S 464.224 0.377525 5.34168 0
M  V30 4941 C 465.38 -0.727164 6.21662 0
M  V30 4942 H 465.613 0.431218 2.94156 0
M  V30 4943 H 463.146 0.3408 1.50592 0
M  V30 4944 H 465.104 -1.97683 3.59766 0
M  V30 4945 H 463.765 -1.99073 2.42958 0
M  V30 4946 H 462.958 -1.60187 4.77866 0
M  V30 4947 H 462.56 -0.218448 3.73361 0
M  V30 4948 H 464.852 -1.61992 6.57849 0
M  V30 4949 H 465.795 -0.180135 7.07871 0
M  V30 4950 H 466.203 -1.01863 5.55233 0
M  V30 4951 N 465.601 -1.54893 0.290851 0
M  V30 4952 C 466.549 -2.24579 -0.605576 0
M  V30 4953 C 467.543 -1.24824 -1.14522 0
M  V30 4954 O 468.749 -1.42706 -1.09704 0
M  V30 4955 H 465.124 -0.720946 -0.213872 0
M  V30 4956 H 467.095 -2.984 0.0048173 0
M  V30 4957 C 465.844 -2.99224 -1.77088 0
M  V30 4958 H 465.167 -3.75782 -1.36484 0
M  V30 4959 H 466.607 -3.51281 -2.3744 0
M  V30 4960 C 465.066 -2.05602 -2.66888 0
M  V30 4961 O 465.596 -1.61745 -3.67698 0
M  V30 4962 N 463.802 -1.71771 -2.34399 0
M  V30 4963 H 463.349 -2.07633 -1.52468 0
M  V30 4964 H 463.307 -1.09403 -2.94751 0
M  V30 4965 N 467.08 -0.0183926 -1.57589 0
M  V30 4966 C 468.327 0.662562 -1.91354 0
M  V30 4967 C 468.655 1.72747 -0.893788 0
M  V30 4968 O 467.91 1.9545 0.0988509 0
M  V30 4969 C 468.209 1.32676 -3.31861 0
M  V30 4970 C 467.875 0.393267 -4.49182 0
M  V30 4971 C 466.537 0.136302 -4.81007 0
M  V30 4972 C 468.889 -0.248366 -5.20608 0
M  V30 4973 C 466.217 -0.770282 -5.81621 0
M  V30 4974 C 468.569 -1.14294 -6.22189 0
M  V30 4975 C 467.233 -1.4089 -6.52462 0
M  V30 4976 H 466.503 0.242448 -0.700214 0
M  V30 4977 H 469.15 -0.0778629 -1.91342 0
M  V30 4978 H 467.455 2.14168 -3.28084 0
M  V30 4979 H 469.152 1.86001 -3.55253 0
M  V30 4980 H 465.742 0.603723 -4.24327 0
M  V30 4981 H 469.926 -0.062883 -4.9626 0
M  V30 4982 H 465.182 -0.984154 -6.03427 0
M  V30 4983 H 469.356 -1.64637 -6.76659 0
M  V30 4984 H 466.983 -2.11306 -7.30242 0
M  V30 4985 N 468.558 1.5553 0.254621 0
M  V30 4986 C 469.807 1.76202 0.981612 0
M  V30 4987 C 470.12 0.580883 1.86776 0
M  V30 4988 O 471.326 0.670448 2.63092 0
M  V30 4989 C 469.782 3.11921 1.79537 0
M  V30 4990 C 469.39 4.37659 0.956991 0
M  V30 4991 C 471.134 3.41936 2.51555 0
M  V30 4992 C 469.041 5.64411 1.76619 0
M  V30 4993 H 467.971 0.656841 0.370237 0
M  V30 4994 H 470.622 1.81969 0.236556 0
M  V30 4995 H 469.004 3.00241 2.58208 0
M  V30 4996 H 470.178 4.60307 0.21315 0
M  V30 4997 H 468.493 4.14922 0.350497 0
M  V30 4998 H 471.09 4.33849 3.12536 0
M  V30 4999 H 471.433 2.62905 3.22779 0
M  V30 5000 H 471.966 3.54797 1.799 0
M  V30 5001 H 468.705 6.46241 1.09783 0
M  V30 5002 H 468.225 5.45877 2.48551 0
M  V30 5003 H 469.904 6.03386 2.33527 0
M  V30 5004 N 470.036 -0.519951 1.48776 0
M  V30 5005 C 471.261 -1.30447 1.6124 0
M  V30 5006 C 471.686 -1.86055 0.276591 0
M  V30 5007 O 471.044 -1.64915 -0.753183 0
M  V30 5008 C 471.092 -2.42406 2.66967 0
M  V30 5009 O 470.196 -3.45728 2.24824 0
M  V30 5010 H 469.537 -0.385924 0.540332 0
M  V30 5011 H 472.067 -0.624572 1.94834 0
M  V30 5012 H 472.077 -2.88447 2.88552 0
M  V30 5013 H 470.752 -2.01294 3.63941 0
M  V30 5014 H 469.329 -3.05737 2.13494 0
M  V30 5015 N 471.514 -1.37532 -0.769588 0
M  V30 5016 C 472.444 -1.36172 -1.89682 0
M  V30 5017 C 473.425 -0.23001 -1.68538 0
M  V30 5018 O 474.61 -0.43069 -1.89364 0
M  V30 5019 C 471.74 -1.1701 -3.26995 0
M  V30 5020 C 470.694 -2.27216 -3.62708 0
M  V30 5021 C 470.02 -1.93174 -4.98586 0
M  V30 5022 C 471.32 -3.6941 -3.69234 0
M  V30 5023 H 473.014 -2.30499 -1.91078 0
M  V30 5024 H 470.56 -1.10953 -0.917902 0
M  V30 5025 H 472.513 -1.14688 -4.05493 0
M  V30 5026 H 471.237 -0.191395 -3.26039 0
M  V30 5027 H 469.896 -2.28697 -2.86519 0
M  V30 5028 H 469.544 -0.938281 -4.94171 0
M  V30 5029 H 469.244 -2.66973 -5.23449 0
M  V30 5030 H 470.768 -1.92443 -5.79481 0
M  V30 5031 H 472.182 -3.70047 -4.37879 0
M  V30 5032 H 470.579 -4.4228 -4.05597 0
M  V30 5033 H 471.649 -4.0288 -2.69844 0
M  V30 5034 N 472.992 0.995999 -1.22138 0
M  V30 5035 C 474.239 1.7351 -1.04406 0
M  V30 5036 C 474.567 1.89884 0.421244 0
M  V30 5037 O 473.822 1.43683 1.32867 0
M  V30 5038 C 474.121 3.14553 -1.6968 0
M  V30 5039 C 473.787 3.18102 -3.19565 0
M  V30 5040 C 472.449 3.18778 -3.60464 0
M  V30 5041 C 474.801 3.14636 -4.15516 0
M  V30 5042 C 472.129 3.13684 -4.95801 0
M  V30 5043 C 474.481 3.11084 -5.50826 0
M  V30 5044 C 473.145 3.10074 -5.91109 0
M  V30 5045 H 472.415 0.634916 -0.38205 0
M  V30 5046 H 475.062 1.1667 -1.51857 0
M  V30 5047 H 473.367 3.74682 -1.14546 0
M  V30 5048 H 475.064 3.70477 -1.53454 0
M  V30 5049 H 471.654 3.18324 -2.86998 0
M  V30 5050 H 475.838 3.13266 -3.84939 0
M  V30 5051 H 471.094 3.11245 -5.26247 0
M  V30 5052 H 475.268 3.07357 -6.24904 0
M  V30 5053 H 472.895 3.05882 -6.95946 0
M  V30 5054 N 474.47 1.03057 1.19235 0
M  V30 5055 C 475.716 0.738841 1.89506 0
M  V30 5056 C 476.071 -0.724807 1.78225 0
M  V30 5057 O 475.364 -1.52118 1.16494 0
M  V30 5058 C 475.558 1.1268 3.39172 0
M  V30 5059 C 475.387 2.62662 3.65019 0
M  V30 5060 C 474.157 3.29658 3.82954 0
M  V30 5061 C 476.355 3.60873 3.66436 0
M  V30 5062 N 474.337 4.68726 3.96446 0
M  V30 5063 C 475.708 4.85566 3.8552 0
M  V30 5064 C 477.763 3.54647 3.49471 0
M  V30 5065 C 476.466 6.04783 3.89397 0
M  V30 5066 C 478.492 4.73281 3.54625 0
M  V30 5067 C 477.854 5.96789 3.74196 0
M  V30 5068 H 473.953 0.322256 0.712513 0
M  V30 5069 H 476.537 1.31822 1.43287 0
M  V30 5070 H 474.708 0.575612 3.84111 0
M  V30 5071 H 476.44 0.787145 3.96971 0
M  V30 5072 H 473.195 2.8007 3.81913 0
M  V30 5073 H 473.619 5.40971 4.07037 0
M  V30 5074 H 478.261 2.60143 3.33295 0
M  V30 5075 H 475.979 6.99654 4.04364 0
M  V30 5076 H 479.565 4.70094 3.42787 0
M  V30 5077 H 478.445 6.87051 3.78061 0
M  V30 5078 N 475.948 -1.35272 0.808662 0
M  V30 5079 C 477.359 -1.81179 0.450688 0
M  V30 5080 C 477.71 -1.67143 -1.02751 0
M  V30 5081 O 476.835 -1.20325 -1.79864 0
M  V30 5082 C 477.43 -3.28943 0.811275 0
M  V30 5083 C 475.989 -3.72985 0.505871 0
M  V30 5084 C 475.136 -2.57229 1.03578 0
M  V30 5085 H 478.087 -1.2322 1.00012 0
M  V30 5086 H 478.108 -3.80342 0.109588 0
M  V30 5087 H 477.62 -3.39127 1.88718 0
M  V30 5088 H 475.721 -3.68349 -0.561209 0
M  V30 5089 H 475.834 -4.67677 1.03995 0
M  V30 5090 H 474.198 -2.50548 0.458005 0
M  V30 5091 H 474.981 -2.7019 2.11784 0
M  V30 5092 N 477.426 -0.562348 -1.47226 0
M  V30 5093 C 478.651 -0.0432632 -2.07355 0
M  V30 5094 C 479.076 1.24332 -1.41149 0
M  V30 5095 O 478.434 1.74603 -0.488226 0
M  V30 5096 C 478.482 0.130288 -3.60365 0
M  V30 5097 O 477.586 1.19166 -3.94808 0
M  V30 5098 H 476.927 -0.0536334 -0.66183 0
M  V30 5099 H 479.457 -0.779495 -1.89169 0
M  V30 5100 H 479.467 0.342881 -4.06557 0
M  V30 5101 H 478.142 -0.809389 -4.07948 0
M  V30 5102 H 476.719 0.959153 -3.60354 0
M  V30 5103 N 478.904 1.54736 -0.299062 0
M  V30 5104 C 479.834 2.26409 0.571085 0
M  V30 5105 C 480.815 1.2629 1.13951 0
M  V30 5106 O 482 1.55059 1.16921 0
M  V30 5107 C 479.13 3.00338 1.74396 0
M  V30 5108 C 478.084 4.07588 1.30599 0
M  V30 5109 C 477.41 4.69222 2.56387 0
M  V30 5110 C 478.71 5.20455 0.438645 0
M  V30 5111 H 480.404 2.99388 -0.0266991 0
M  V30 5112 H 477.95 1.43993 -0.0142812 0
M  V30 5113 H 479.903 3.49198 2.35878 0
M  V30 5114 H 478.627 2.24934 2.36796 0
M  V30 5115 H 477.286 3.59575 0.71424 0
M  V30 5116 H 476.934 3.9046 3.17097 0
M  V30 5117 H 476.634 5.41653 2.27784 0
M  V30 5118 H 478.158 5.20844 3.18675 0
M  V30 5119 H 479.572 5.65221 0.959085 0
M  V30 5120 H 477.969 5.99594 0.246466 0
M  V30 5121 H 479.039 4.8192 -0.536738 0
M  V30 5122 N 480.382 0.0267497 1.57577 0
M  V30 5123 C 481.793 -0.512413 1.79531 0
M  V30 5124 C 482.144 -1.72391 0.936791 0
M  V30 5125 O 481.269 -2.15903 0.146543 0
M  V30 5126 C 481.864 -0.936378 3.25603 0
M  V30 5127 C 480.423 -1.42067 3.4856 0
M  V30 5128 C 479.57 -0.384278 2.74624 0
M  V30 5129 H 482.521 0.252797 1.56674 0
M  V30 5130 H 482.542 -1.80088 3.35184 0
M  V30 5131 H 482.054 -0.0544332 3.88062 0
M  V30 5132 H 480.155 -2.32262 2.9135 0
M  V30 5133 H 480.268 -1.42968 4.57271 0
M  V30 5134 H 478.632 -0.851855 2.40032 0
M  V30 5135 H 479.415 0.489159 3.39797 0
M  V30 5136 N 481.861 -1.55662 -0.24637 0
M  V30 5137 C 483.089 -1.81575 -0.991876 0
M  V30 5138 C 483.504 -0.602545 -1.78927 0
M  V30 5139 O 482.861 0.428795 -1.77391 0
M  V30 5140 C 482.912 -3.05711 -1.92933 0
M  V30 5141 O 482.633 -4.22348 -1.1642 0
M  V30 5142 C 484.134 -3.44428 -2.79078 0
M  V30 5143 H 481.354 -0.604209 -0.291844 0
M  V30 5144 H 483.898 -2.02722 -0.269095 0
M  V30 5145 H 482.053 -2.86612 -2.60638 0
M  V30 5146 H 482.467 -4.92706 -1.79835 0
M  V30 5147 H 483.941 -4.34388 -3.40603 0
M  V30 5148 H 484.418 -2.65037 -3.50217 0
M  V30 5149 H 485.024 -3.65879 -2.16824 0
M  V30 5150 N 483.339 0.512053 -1.4905 0
M  V30 5151 C 484.587 1.26436 -1.57665 0
M  V30 5152 C 484.908 1.93255 -0.260293 0
M  V30 5153 O 484.178 1.82206 0.719564 0
M  V30 5154 H 482.758 0.469658 -0.580888 0
M  V30 5155 H 485.42 0.594398 -1.85615 0
M  V30 5156 H 484.516 2.03417 -2.36702 0
M  V30 5157 N 484.817 1.37938 0.762283 0
M  V30 5158 C 486.066 1.32989 1.51647 0
M  V30 5159 C 486.379 -0.0802922 1.95435 0
M  V30 5160 O 487.585 -0.252295 2.70325 0
M  V30 5161 C 486.041 2.33485 2.73885 0
M  V30 5162 C 485.649 3.80079 2.37157 0
M  V30 5163 C 487.393 2.37563 3.51801 0
M  V30 5164 C 485.3 4.72283 3.55954 0
M  V30 5165 H 484.23 0.494301 0.56937 0
M  V30 5166 H 486.881 1.63448 0.834083 0
M  V30 5167 H 485.263 1.96056 3.44061 0
M  V30 5168 H 486.437 4.26398 1.74704 0
M  V30 5169 H 484.752 3.79037 1.72395 0
M  V30 5170 H 487.349 3.0365 4.40114 0
M  V30 5171 H 487.692 1.39199 3.92338 0
M  V30 5172 H 488.225 2.73747 2.8863 0
M  V30 5173 H 484.964 5.7181 3.2049 0
M  V30 5174 H 484.484 4.30663 4.1748 0
M  V30 5175 H 486.163 4.89876 4.22647 0
M  V30 5176 N 486.295 -0.989507 1.22664 0
M  V30 5177 C 487.227 -2.0824 0.957542 0
M  V30 5178 C 488.24 -1.6267 -0.0651098 0
M  V30 5179 O 489.429 -1.77695 0.169312 0
M  V30 5180 C 486.529 -3.36298 0.419145 0
M  V30 5181 C 485.702 -4.10882 1.49982 0
M  V30 5182 C 484.761 -5.17221 0.967904 0
M  V30 5183 O 483.787 -5.44613 1.65487 0
M  V30 5184 N 484.989 -5.80124 -0.20896 0
M  V30 5185 H 487.754 -2.31904 1.89843 0
M  V30 5186 H 485.315 -1.15552 1.13399 0
M  V30 5187 H 487.307 -4.04671 0.0485451 0
M  V30 5188 H 485.877 -3.09671 -0.426937 0
M  V30 5189 H 485.097 -3.37092 2.04359 0
M  V30 5190 H 486.385 -4.57482 2.22682 0
M  V30 5191 H 485.783 -5.60244 -0.783818 0
M  V30 5192 H 484.34 -6.49715 -0.520913 0
M  V30 5193 N 487.773 -1.03688 -1.18687 0
M  V30 5194 C 488.736 -0.629115 -2.20397 0
M  V30 5195 C 489.736 0.311495 -1.57754 0
M  V30 5196 O 490.926 0.0974107 -1.73927 0
M  V30 5197 C 488.058 0.0782231 -3.4081 0
M  V30 5198 H 489.251 -1.52915 -2.57987 0
M  V30 5199 H 486.804 -0.828988 -1.32505 0
M  V30 5200 H 487.539 0.992233 -3.08748 0
M  V30 5201 H 487.324 -0.597776 -3.87517 0
M  V30 5202 H 488.814 0.350156 -4.16129 0
M  V30 5203 N 489.251 1.34841 -0.815825 0
M  V30 5204 C 490.214 2.27959 -0.238185 0
M  V30 5205 C 491.214 1.49983 0.579816 0
M  V30 5206 O 492.404 1.69617 0.396953 0
M  V30 5207 C 489.536 3.34314 0.666876 0
M  V30 5208 H 490.729 2.80558 -1.05958 0
M  V30 5209 H 488.282 1.44852 -0.587156 0
M  V30 5210 H 489.017 2.86916 1.5116 0
M  V30 5211 H 488.802 3.92014 0.0819106 0
M  V30 5212 H 490.292 4.0379 1.06506 0
M  V30 5213 N 490.729 0.570148 1.46925 0
M  V30 5214 C 491.959 0.0561151 2.06524 0
M  V30 5215 C 492.367 -1.24874 1.42137 0
M  V30 5216 O 491.71 -1.76292 0.516417 0
M  V30 5217 C 491.772 -0.197035 3.5896 0
M  V30 5218 C 491.436 1.02033 4.45464 0
M  V30 5219 C 492.433 1.92921 4.82781 0
M  V30 5220 C 490.118 1.23864 4.86788 0
M  V30 5221 C 492.112 3.03999 5.60235 0
M  V30 5222 C 489.799 2.35249 5.64004 0
M  V30 5223 C 490.797 3.25146 6.0064 0
M  V30 5224 O 490.485 4.34598 6.76299 0
M  V30 5225 H 490.217 0.0487409 0.674241 0
M  V30 5226 H 492.771 0.786915 1.89728 0
M  V30 5227 H 491.001 -0.982299 3.74016 0
M  V30 5228 H 492.69 -0.658032 4.00531 0
M  V30 5229 H 493.456 1.77265 4.51444 0
M  V30 5230 H 489.335 0.54805 4.57731 0
M  V30 5231 H 492.879 3.74192 5.8875 0
M  V30 5232 H 488.776 2.50873 5.94755 0
M  V30 5233 H 489.544 4.32808 6.94708 0
M  V30 5234 N 492.207 -1.54576 0.307264 0
M  V30 5235 C 493.117 -2.27435 -0.57536 0
M  V30 5236 C 494.133 -1.31183 -1.14311 0
M  V30 5237 O 495.309 -1.64175 -1.16656 0
M  V30 5238 C 492.374 -3.00566 -1.72803 0
M  V30 5239 C 491.435 -4.12369 -1.19373 0
M  V30 5240 C 490.668 -4.82003 -2.29147 0
M  V30 5241 O 490.891 -4.51038 -3.49171 0
M  V30 5242 O 489.825 -5.69271 -1.95485 0
M  V30 5243 H 493.651 -3.03696 0.0158558 0
M  V30 5244 H 491.236 -1.49219 0.0735064 0
M  V30 5245 H 493.118 -3.46416 -2.39946 0
M  V30 5246 H 491.793 -2.27195 -2.30574 0
M  V30 5247 H 490.7 -3.70905 -0.487851 0
M  V30 5248 H 492.033 -4.87736 -0.661376 0
M  V30 5249 N 493.685 -0.035106 -1.57561 0
M  V30 5250 C 494.962 0.681212 -1.83354 0
M  V30 5251 C 495.342 1.89986 -0.920252 0
M  V30 5252 O 494.69 2.28489 0.0226815 0
M  V30 5253 C 494.9 1.05376 -3.32712 0
M  V30 5254 C 496.248 1.44286 -3.99333 0
M  V30 5255 O 497.272 1.14656 -3.37242 0
M  V30 5256 O 496.131 1.99518 -5.08778 0
M  V30 5257 H 493.225 0.334741 -0.756226 0
M  V30 5258 H 495.771 -0.0632448 -1.69582 0
M  V30 5259 H 494.543 0.186668 -3.90854 0
M  V30 5260 H 494.166 1.85619 -3.51613 0
M  V30 5261 N 495.163 1.55791 0.238111 0
M  V30 5262 C 496.41 1.78033 0.964907 0
M  V30 5263 C 496.738 0.600984 1.84982 0
M  V30 5264 O 495.993 -0.41536 1.91241 0
M  V30 5265 C 496.292 3.05869 1.84875 0
M  V30 5266 C 495.958 4.36808 1.11846 0
M  V30 5267 C 494.62 4.72388 0.916662 0
M  V30 5268 C 496.972 5.17717 0.60151 0
M  V30 5269 C 494.3 5.86406 0.185756 0
M  V30 5270 C 496.652 6.32494 -0.115972 0
M  V30 5271 C 495.316 6.66688 -0.329168 0
M  V30 5272 H 494.586 0.651469 0.353085 0
M  V30 5273 H 497.233 1.90061 0.234318 0
M  V30 5274 H 495.538 2.88891 2.64668 0
M  V30 5275 H 497.235 3.20278 2.41294 0
M  V30 5276 H 493.825 4.08862 1.28569 0
M  V30 5277 H 498.009 4.90678 0.744932 0
M  V30 5278 H 493.265 6.11399 0.0101886 0
M  V30 5279 H 497.439 6.94425 -0.524127 0
M  V30 5280 H 495.066 7.54884 -0.897474 0
M  V30 5281 N 496.642 -0.504142 1.49319 0
M  V30 5282 C 497.919 -1.26548 1.49147 0
M  V30 5283 C 498.299 -2.09977 0.21744 0
M  V30 5284 O 497.647 -2.14028 -0.800269 0
M  V30 5285 C 497.857 -2.12489 2.76857 0
M  V30 5286 C 499.205 -2.7178 3.26222 0
M  V30 5287 O 500.229 -2.22758 2.77952 0
M  V30 5288 O 499.088 -3.61015 4.10281 0
M  V30 5289 H 496.182 -0.572495 0.596806 0
M  V30 5290 H 498.728 -0.51867 1.61579 0
M  V30 5291 H 497.5 -1.50796 3.61077 0
M  V30 5292 H 497.123 -2.94368 2.6727 0
M  V30 5293 N 498.12 -1.38341 -0.754957 0
M  V30 5294 C 499.536 -1.19508 -1.05783 0
M  V30 5295 C 499.736 -0.0428005 -2.01455 0
M  V30 5296 O 498.792 0.611861 -2.44975 0
M  V30 5297 C 500.105 -2.52091 -1.63923 0
M  V30 5298 C 501.653 -2.58762 -1.76101 0
M  V30 5299 C 502.128 -3.91517 -2.37652 0
M  V30 5300 N 503.619 -3.93049 -2.45085 0
M  V30 5301 C 504.354 -4.9253 -2.93602 0
M  V30 5302 N 503.85 -6.02408 -3.42165 0
M  V30 5303 N 505.643 -4.79921 -2.92629 0
M  V30 5304 H 497.794 -2.1206 -0.120056 0
M  V30 5305 H 500.057 -0.94089 -0.11589 0
M  V30 5306 H 499.763 -3.36858 -1.01093 0
M  V30 5307 H 499.637 -2.70388 -2.63003 0
M  V30 5308 H 502.024 -1.74391 -2.38058 0
M  V30 5309 H 502.105 -2.44333 -0.757294 0
M  V30 5310 H 501.749 -4.76309 -1.76329 0
M  V30 5311 H 501.679 -4.03256 -3.38662 0
M  V30 5312 H 504.17 -3.13685 -2.10736 0
M  V30 5313 H 504.483 -6.74248 -3.77637 0
M  V30 5314 H 502.828 -6.0603 -3.40225 0
M  V30 5315 H 506.019 -3.93194 -2.54001 0
M  V30 5316 H 506.192 -5.57601 -3.30128 0
M  V30 5317 N 499.598 0.982988 -1.23187 0
M  V30 5318 C 500.875 1.69814 -0.970707 0
M  V30 5319 C 501.255 2.04811 0.511424 0
M  V30 5320 O 500.603 1.73924 1.48198 0
M  V30 5321 C 500.813 2.94143 -1.87831 0
M  V30 5322 C 502.161 3.66712 -2.14026 0
M  V30 5323 O 503.185 3.04171 -1.8536 0
M  V30 5324 O 502.044 4.79258 -2.62629 0
M  V30 5325 H 499.138 0.741659 -0.365884 0
M  V30 5326 H 501.684 1.03844 -1.34218 0
M  V30 5327 H 500.456 2.64858 -2.88038 0
M  V30 5328 H 500.079 3.6785 -1.50905 0
M  V30 5329 N 501.076 1.04316 1.18135 0
M  V30 5330 C 502.006 0.657299 2.24058 0
M  V30 5331 C 502.987 -0.340678 1.66654 0
M  V30 5332 O 504.172 -0.220223 1.92947 0
M  V30 5333 C 501.302 0.0220715 3.47293 0
M  V30 5334 C 500.256 0.943857 4.17463 0
M  V30 5335 C 499.582 0.172973 5.3442 0
M  V30 5336 C 500.882 2.26409 4.70677 0
M  V30 5337 H 502.576 1.5428 2.56589 0
M  V30 5338 H 500.122 0.743263 1.23335 0
M  V30 5339 H 502.075 -0.259607 4.206 0
M  V30 5340 H 500.799 -0.898323 3.14003 0
M  V30 5341 H 499.458 1.20996 3.46057 0
M  V30 5342 H 499.106 -0.749907 4.97379 0
M  V30 5343 H 498.806 0.787098 5.82304 0
M  V30 5344 H 500.33 -0.101628 6.10515 0
M  V30 5345 H 501.744 2.04294 5.35665 0
M  V30 5346 H 500.141 2.8314 5.29105 0
M  V30 5347 H 501.211 2.90883 3.87962 0
M  V30 5348 N 502.554 -1.34406 0.822964 0
M  V30 5349 C 503.803 -1.97542 0.407458 0
M  V30 5350 C 504.116 -1.65973 -1.035 0
M  V30 5351 O 505.322 -2.22598 -1.55442 0
M  V30 5352 C 503.778 -3.53463 0.677623 0
M  V30 5353 C 503.386 -3.93925 2.1337 0
M  V30 5354 C 505.13 -4.23229 0.328284 0
M  V30 5355 C 503.037 -5.42759 2.34876 0
M  V30 5356 H 501.967 -0.739207 0.148623 0
M  V30 5357 H 504.618 -1.53248 1.00932 0
M  V30 5358 H 503 -3.96 0.00558965 0
M  V30 5359 H 504.174 -3.62494 2.8449 0
M  V30 5360 H 502.489 -3.37097 2.44448 0
M  V30 5361 H 505.086 -5.32659 0.466794 0
M  V30 5362 H 505.429 -4.09899 -0.727224 0
M  V30 5363 H 505.962 -3.86169 0.954896 0
M  V30 5364 H 502.701 -5.61075 3.38932 0
M  V30 5365 H 502.221 -5.75704 1.68299 0
M  V30 5366 H 503.9 -6.0944 2.17236 0
M  V30 5367 N 504.032 -0.577932 -1.46621 0
M  V30 5368 C 505.279 -0.0616879 -2.02406 0
M  V30 5369 C 505.607 1.29638 -1.44997 0
M  V30 5370 O 504.862 1.86176 -0.60308 0
M  V30 5371 C 505.161 0.0590832 -3.57351 0
M  V30 5372 C 504.827 -1.23077 -4.33777 0
M  V30 5373 C 503.489 -1.58416 -4.54376 0
M  V30 5374 C 505.841 -2.08457 -4.77698 0
M  V30 5375 C 503.169 -2.78943 -5.16147 0
M  V30 5376 C 505.521 -3.28204 -5.408 0
M  V30 5377 C 504.185 -3.63832 -5.59627 0
M  V30 5378 H 503.455 -0.0225732 -0.740656 0
M  V30 5379 H 506.102 -0.753609 -1.76048 0
M  V30 5380 H 504.407 0.834104 -3.82818 0
M  V30 5381 H 506.104 0.474202 -3.98186 0
M  V30 5382 H 502.694 -0.945652 -4.18038 0
M  V30 5383 H 506.878 -1.82459 -4.61544 0
M  V30 5384 H 502.134 -3.06689 -5.28916 0
M  V30 5385 H 506.308 -3.94634 -5.73792 0
M  V30 5386 H 503.935 -4.57315 -6.07262 0
M  V30 5387 N 505.51 1.54411 -0.315457 0
M  V30 5388 C 506.44 2.27002 0.547039 0
M  V30 5389 C 507.421 1.27492 1.12605 0
M  V30 5390 O 508.606 1.5629 1.15269 0
M  V30 5391 C 505.736 3.02171 1.71201 0
M  V30 5392 C 504.69 4.0895 1.26268 0
M  V30 5393 C 504.016 4.71915 2.51396 0
M  V30 5394 C 505.316 5.20891 0.383419 0
M  V30 5395 H 507.01 2.99343 -0.0584517 0
M  V30 5396 H 504.556 1.4397 -0.0295527 0
M  V30 5397 H 506.509 3.51681 2.32161 0
M  V30 5398 H 505.233 2.27433 2.34397 0
M  V30 5399 H 503.892 3.60312 0.676062 0
M  V30 5400 H 503.54 3.93801 3.12937 0
M  V30 5401 H 503.24 5.44039 2.22026 0
M  V30 5402 H 504.764 5.24195 3.13133 0
M  V30 5403 H 506.178 5.66206 0.899082 0
M  V30 5404 H 504.575 5.99821 0.182857 0
M  V30 5405 H 505.645 4.81324 -0.587821 0
M  V30 5406 N 506.988 0.0434614 1.5754 0
M  V30 5407 C 508.235 -0.632035 1.92384 0
M  V30 5408 C 508.563 -1.71304 0.921157 0
M  V30 5409 O 507.818 -1.95583 -0.067744 0
M  V30 5410 C 508.117 -1.2738 3.3393 0
M  V30 5411 C 507.783 -0.321757 4.49751 0
M  V30 5412 C 506.445 -0.0597611 4.81163 0
M  V30 5413 C 508.797 0.331158 5.20147 0
M  V30 5414 C 506.125 0.862715 5.80322 0
M  V30 5415 C 508.477 1.24178 6.20292 0
M  V30 5416 C 507.141 1.51252 6.50138 0
M  V30 5417 H 506.411 -0.231278 0.703983 0
M  V30 5418 H 509.058 0.108294 1.91194 0
M  V30 5419 H 507.363 -2.08921 3.3145 0
M  V30 5420 H 509.06 -1.80326 3.58167 0
M  V30 5421 H 505.65 -0.53614 4.25233 0
M  V30 5422 H 509.834 0.141826 4.96097 0
M  V30 5423 H 505.09 1.08003 6.01785 0
M  V30 5424 H 509.264 1.75381 6.73954 0
M  V30 5425 H 506.891 2.22897 7.26788 0
M  V30 5426 N 508.466 -1.55915 -0.229846 0
M  V30 5427 C 509.413 -1.91734 -1.28478 0
M  V30 5428 C 510.383 -0.773539 -1.46988 0
M  V30 5429 O 511.568 -1.02871 -1.60693 0
M  V30 5430 C 508.708 -2.23224 -2.63182 0
M  V30 5431 C 507.821 -3.50497 -2.52539 0
M  V30 5432 C 506.956 -3.71474 -3.79711 0
M  V30 5433 C 505.995 -4.92289 -3.63755 0
M  V30 5434 N 505.132 -5.09698 -4.82858 0
M  V30 5435 H 509.972 -2.81692 -0.972308 0
M  V30 5436 H 507.509 -1.39429 -0.468815 0
M  V30 5437 H 509.467 -2.3949 -3.41614 0
M  V30 5438 H 508.097 -1.36451 -2.92542 0
M  V30 5439 H 507.149 -3.4247 -1.65585 0
M  V30 5440 H 508.461 -4.39079 -2.36666 0
M  V30 5441 H 507.615 -3.87791 -4.66586 0
M  V30 5442 H 506.354 -2.81157 -3.985 0
M  V30 5443 H 505.359 -4.7593 -2.75264 0
M  V30 5444 H 506.584 -5.84083 -3.46445 0
M  V30 5445 H 504.53 -4.22322 -5.01976 0
M  V30 5446 H 504.447 -5.92399 -4.69681 0
M  V30 5447 H 505.715 -5.30443 -5.71183 0
M  V30 5448 N 509.944 0.496216 -1.49584 0
M  V30 5449 C 511.192 1.24756 -1.58998 0
M  V30 5450 C 511.513 1.92968 -0.280775 0
M  V30 5451 O 510.783 1.82959 0.700198 0
M  V30 5452 H 509.363 0.463471 -0.585836 0
M  V30 5453 H 512.025 0.574678 -1.86235 0
M  V30 5454 H 511.121 2.00895 -2.38847 0
M  V30 5455 N 511.423 1.38739 0.74761 0
M  V30 5456 C 512.371 1.36573 1.88283 0
M  V30 5457 C 513.365 0.250712 1.67534 0
M  V30 5458 O 514.571 0.420073 1.7503 0
M  V30 5459 H 510.946 0.42619 0.619569 0
M  V30 5460 H 512.917 2.32356 1.87226 0
M  V30 5461 C 511.666 1.21361 3.25832 0
M  V30 5462 H 510.989 2.06424 3.42388 0
M  V30 5463 H 512.429 1.23901 4.05493 0
M  V30 5464 C 510.888 -0.0790099 3.36807 0
M  V30 5465 O 511.418 -1.05385 3.8763 0
M  V30 5466 N 509.624 -0.13785 2.90273 0
M  V30 5467 H 509.171 0.656128 2.49104 0
M  V30 5468 H 509.129 -1.00228 2.97996 0
M  V30 5469 N 512.901 -0.976442 1.23707 0
M  V30 5470 C 513.833 -2.07212 0.979574 0
M  V30 5471 C 514.846 -1.6273 -0.0478528 0
M  V30 5472 O 516.035 -1.77506 0.18815 0
M  V30 5473 C 513.135 -3.35835 0.45479 0
M  V30 5474 C 512.308 -4.09268 1.54331 0
M  V30 5475 C 511.367 -5.16166 1.02271 0
M  V30 5476 O 510.393 -5.42827 1.71254 0
M  V30 5477 N 511.595 -5.80313 -0.147419 0
M  V30 5478 H 514.36 -2.29878 1.92292 0
M  V30 5479 H 511.921 -1.14343 1.14618 0
M  V30 5480 H 513.913 -4.04597 0.0914631 0
M  V30 5481 H 512.483 -3.10106 -0.394068 0
M  V30 5482 H 511.703 -3.34906 2.07923 0
M  V30 5483 H 512.991 -4.55095 2.27522 0
M  V30 5484 H 512.389 -5.61043 -0.724353 0
M  V30 5485 H 510.946 -6.50231 -0.451972 0
M  V30 5486 N 514.379 -1.04941 -1.1758 0
M  V30 5487 C 515.609 -0.777166 -1.91425 0
M  V30 5488 C 516.017 0.670647 -1.76915 0
M  V30 5489 O 515.36 1.46965 -1.10213 0
M  V30 5490 C 515.422 -1.07495 -3.43052 0
M  V30 5491 C 515.086 -2.51844 -3.81345 0
M  V30 5492 C 516.083 -3.50047 -3.844 0
M  V30 5493 C 513.768 -2.86787 -4.12382 0
M  V30 5494 C 515.762 -4.81239 -4.17957 0
M  V30 5495 C 513.449 -4.18182 -4.45608 0
M  V30 5496 C 514.447 -5.15219 -4.48373 0
M  V30 5497 O 514.135 -6.44258 -4.80819 0
M  V30 5498 H 513.867 -0.282209 -0.614275 0
M  V30 5499 H 516.421 -1.40258 -1.50056 0
M  V30 5500 H 514.651 -0.392437 -3.84704 0
M  V30 5501 H 516.34 -0.78912 -3.98155 0
M  V30 5502 H 517.106 -3.24391 -3.60548 0
M  V30 5503 H 512.985 -2.11922 -4.09402 0
M  V30 5504 H 516.529 -5.56974 -4.2003 0
M  V30 5505 H 512.426 -4.43602 -4.68922 0
M  V30 5506 H 513.194 -6.49041 -4.98686 0
M  V30 5507 N 515.857 1.33968 -0.830081 0
M  V30 5508 C 517.103 1.98773 -0.431394 0
M  V30 5509 C 517.458 1.64598 0.99626 0
M  V30 5510 O 516.751 0.911022 1.68555 0
M  V30 5511 C 516.945 3.52679 -0.57898 0
M  V30 5512 C 516.774 4.01807 -2.01943 0
M  V30 5513 C 515.544 4.30062 -2.65282 0
M  V30 5514 C 517.742 4.18663 -2.98707 0
M  V30 5515 N 515.724 4.65272 -4.00493 0
M  V30 5516 C 517.095 4.57133 -4.18843 0
M  V30 5517 C 519.15 4.00929 -2.95229 0
M  V30 5518 C 517.853 4.79723 -5.35965 0
M  V30 5519 C 519.879 4.2469 -4.11573 0
M  V30 5520 C 519.241 4.63454 -5.30462 0
M  V30 5521 H 515.34 0.75435 -0.206107 0
M  V30 5522 H 517.924 1.62247 -1.07629 0
M  V30 5523 H 516.095 3.88383 0.0360632 0
M  V30 5524 H 517.827 4.04412 -0.152596 0
M  V30 5525 H 514.582 4.21231 -2.16475 0
M  V30 5526 H 515.006 4.87101 -4.70172 0
M  V30 5527 H 519.648 3.70082 -2.04448 0
M  V30 5528 H 517.366 5.09434 -6.27297 0
M  V30 5529 H 520.952 4.12497 -4.10289 0
M  V30 5530 H 519.832 4.81476 -6.18992 0
M  V30 5531 N 517.335 0.585699 1.46312 0
M  V30 5532 C 518.298 -0.135673 2.28798 0
M  V30 5533 C 519.298 -0.815988 1.38558 0
M  V30 5534 O 520.488 -0.667487 1.60904 0
M  V30 5535 C 517.62 -1.20163 3.1902 0
M  V30 5536 H 518.813 0.589257 2.94054 0
M  V30 5537 H 516.366 0.343794 1.52472 0
M  V30 5538 H 517.101 -1.95804 2.58517 0
M  V30 5539 H 516.886 -0.718282 3.85465 0
M  V30 5540 H 518.376 -1.70749 3.81096 0
M  V30 5541 N 518.813 -1.54241 0.323641 0
M  V30 5542 C 519.743 -2.27289 -0.534993 0
M  V30 5543 C 520.724 -1.28087 -1.11927 0
M  V30 5544 O 521.909 -1.56899 -1.14439 0
M  V30 5545 C 519.039 -3.03075 -1.69596 0
M  V30 5546 C 517.993 -4.09614 -1.24098 0
M  V30 5547 C 517.319 -4.73242 -2.4889 0
M  V30 5548 C 518.619 -5.21087 -0.355789 0
M  V30 5549 H 520.313 -2.99308 0.0743257 0
M  V30 5550 H 517.859 -1.43952 0.0371874 0
M  V30 5551 H 519.812 -3.52907 -2.30293 0
M  V30 5552 H 518.536 -2.28673 -2.33187 0
M  V30 5553 H 517.195 -3.60666 -0.656945 0
M  V30 5554 H 516.843 -3.95455 -3.10845 0
M  V30 5555 H 516.543 -5.45209 -2.19138 0
M  V30 5556 H 518.067 -5.25848 -3.10348 0
M  V30 5557 H 519.481 -5.66675 -0.869042 0
M  V30 5558 H 517.878 -5.9991 -0.151045 0
M  V30 5559 H 518.948 -4.81005 0.613339 0
M  V30 5560 N 520.291 -0.0518155 -1.57515 0
M  V30 5561 C 521.516 0.634896 -1.97443 0
M  V30 5562 C 521.941 1.63546 -0.929207 0
M  V30 5563 O 521.299 1.80981 0.107484 0
M  V30 5564 C 521.347 1.29765 -3.36442 0
M  V30 5565 O 520.451 2.41333 -3.34413 0
M  V30 5566 H 519.792 0.164994 -0.643174 0
M  V30 5567 H 522.322 -0.120407 -2.04245 0
M  V30 5568 H 522.332 1.64918 -3.73184 0
M  V30 5569 H 521.007 0.564361 -4.12053 0
M  V30 5570 H 519.584 2.08122 -3.09418 0
M  V30 5571 N 521.769 1.56035 0.221574 0
M  V30 5572 C 523.017 1.78693 0.944102 0
M  V30 5573 C 523.338 0.620317 1.8487 0
M  V30 5574 O 522.608 -0.362784 1.92512 0
M  V30 5575 H 521.188 0.659082 0.351597 0
M  V30 5576 H 523.85 1.93497 0.233435 0
M  V30 5577 H 522.946 2.70837 1.55093 0
M  V30 5578 N 523.247 -0.488276 1.49845 0
M  V30 5579 C 524.477 -1.26344 1.63465 0
M  V30 5580 C 524.885 -1.86637 0.310379 0
M  V30 5581 O 524.228 -1.69184 -0.715712 0
M  V30 5582 C 524.29 -2.42407 2.65479 0
M  V30 5583 C 523.954 -2.02886 4.09495 0
M  V30 5584 C 524.951 -1.56124 4.95904 0
M  V30 5585 C 522.636 -2.12131 4.55308 0
M  V30 5586 C 524.63 -1.19129 6.26169 0
M  V30 5587 C 522.317 -1.74747 5.85582 0
M  V30 5588 C 523.315 -1.28322 6.70837 0
M  V30 5589 O 523.003 -0.914491 7.98682 0
M  V30 5590 H 522.735 -0.388921 0.552916 0
M  V30 5591 H 525.289 -0.591288 1.96705 0
M  V30 5592 H 523.519 -3.12739 2.27445 0
M  V30 5593 H 525.208 -3.04409 2.68495 0
M  V30 5594 H 525.974 -1.48417 4.61733 0
M  V30 5595 H 521.853 -2.47217 3.89107 0
M  V30 5596 H 525.397 -0.828211 6.92666 0
M  V30 5597 H 521.294 -1.82109 6.19279 0
M  V30 5598 H 522.062 -1.04485 8.11804 0
M  V30 5599 N 524.725 -1.39134 -0.740242 0
M  V30 5600 C 526.002 -1.26584 -1.49117 0
M  V30 5601 C 526.382 0.126902 -2.10718 0
M  V30 5602 O 525.73 1.13765 -1.98166 0
M  V30 5603 C 525.94 -2.38619 -2.54681 0
M  V30 5604 C 527.288 -2.77685 -3.21211 0
M  V30 5605 O 528.312 -2.38029 -2.64991 0
M  V30 5606 O 527.171 -3.46115 -4.22926 0
M  V30 5607 H 524.265 -0.495769 -0.661923 0
M  V30 5608 H 526.811 -1.50995 -0.774514 0
M  V30 5609 H 525.583 -3.3175 -2.07504 0
M  V30 5610 H 525.206 -2.15845 -3.33911 0
M  V30 5611 N 526.204 0.969867 -1.24223 0
M  V30 5612 C 527.453 1.70687 -1.07466 0
M  V30 5613 C 527.766 1.91736 0.386861 0
M  V30 5614 O 528.972 2.62986 0.674581 0
M  V30 5615 C 527.428 3.07217 -1.87472 0
M  V30 5616 C 527.036 2.94018 -3.3802 0
M  V30 5617 C 528.78 3.84804 -1.79237 0
M  V30 5618 C 526.687 4.25844 -4.10379 0
M  V30 5619 H 525.617 0.640067 -0.398536 0
M  V30 5620 H 528.268 1.08092 -1.48285 0
M  V30 5621 H 526.65 3.70628 -1.39466 0
M  V30 5622 H 527.824 2.39632 -3.9359 0
M  V30 5623 H 526.139 2.29898 -3.47183 0
M  V30 5624 H 528.736 4.82417 -2.30603 0
M  V30 5625 H 529.079 4.09356 -0.757197 0
M  V30 5626 H 529.612 3.28115 -2.24912 0
M  V30 5627 H 526.351 4.06486 -5.14246 0
M  V30 5628 H 525.871 4.80054 -3.59594 0
M  V30 5629 H 527.55 4.94475 -4.17257 0
M  V30 5630 N 527.682 1.05563 1.17022 0
M  V30 5631 C 528.612 0.681026 2.23348 0
M  V30 5632 C 529.593 -0.322983 1.67005 0
M  V30 5633 O 530.778 -0.199746 1.9317 0
M  V30 5634 C 527.908 0.0589053 3.4725 0
M  V30 5635 C 526.862 0.988082 4.16438 0
M  V30 5636 C 526.188 0.229646 5.34207 0
M  V30 5637 C 527.488 2.31388 4.68249 0
M  V30 5638 H 529.182 1.56993 2.54938 0
M  V30 5639 H 526.728 0.756302 1.2254 0
M  V30 5640 H 528.681 -0.214982 4.20851 0
M  V30 5641 H 527.405 -0.864968 3.14938 0
M  V30 5642 H 526.064 1.24659 3.44754 0
M  V30 5643 H 525.712 -0.697111 4.98146 0
M  V30 5644 H 525.412 0.848815 5.81437 0
M  V30 5645 H 526.936 -0.0368694 6.10589 0
M  V30 5646 H 528.35 2.09964 5.33468 0
M  V30 5647 H 526.747 2.88736 5.26072 0
M  V30 5648 H 527.817 2.94982 3.84855 0
M  V30 5649 N 529.16 -1.33526 0.837174 0
M  V30 5650 C 530.092 -2.28077 0.226579 0
M  V30 5651 C 531.105 -1.51666 -0.591717 0
M  V30 5652 O 532.294 -1.73511 -0.419064 0
M  V30 5653 C 529.394 -3.31597 -0.69978 0
M  V30 5654 C 528.567 -4.37329 0.0788067 0
M  V30 5655 C 527.626 -5.20526 -0.770637 0
M  V30 5656 O 526.652 -5.68811 -0.210453 0
M  V30 5657 N 527.854 -5.41639 -2.08825 0
M  V30 5658 H 530.619 -2.81115 1.03897 0
M  V30 5659 H 528.18 -1.46201 0.695476 0
M  V30 5660 H 530.172 -3.84158 -1.27298 0
M  V30 5661 H 528.742 -2.78848 -1.41288 0
M  V30 5662 H 527.962 -3.8529 0.833381 0
M  V30 5663 H 529.25 -5.05079 0.614238 0
M  V30 5664 H 528.648 -5.04108 -2.56693 0
M  V30 5665 H 527.205 -5.97263 -2.60998 0
M  V30 5666 N 530.638 -0.59345 -1.46 0
M  V30 5667 C 531.886 -0.082988 -2.0193 0
M  V30 5668 C 532.207 1.28569 -1.46612 0
M  V30 5669 O 531.477 1.84629 -0.654909 0
M  V30 5670 H 530.057 -0.0276882 -0.746487 0
M  V30 5671 H 532.719 -0.771657 -1.78973 0
M  V30 5672 H 531.815 -0.022079 -3.12092 0
M  V30 5673 N 532.116 1.54067 -0.331816 0
M  V30 5674 C 533.346 2.04833 0.269605 0
M  V30 5675 C 533.754 1.20714 1.45687 0
M  V30 5676 O 533.097 0.232539 1.82222 0
M  V30 5677 C 533.159 3.51386 0.759499 0
M  V30 5678 C 532.823 4.55971 -0.306557 0
M  V30 5679 C 533.82 5.07126 -1.14538 0
M  V30 5680 C 531.505 5.00216 -0.457116 0
M  V30 5681 C 533.499 6.01096 -2.12042 0
M  V30 5682 C 531.186 5.93999 -1.43556 0
M  V30 5683 C 532.184 6.44326 -2.26568 0
M  V30 5684 O 531.872 7.36267 -3.22749 0
M  V30 5685 H 531.604 0.673509 0.0579763 0
M  V30 5686 H 534.158 1.99748 -0.478521 0
M  V30 5687 H 532.388 3.53896 1.55867 0
M  V30 5688 H 534.077 3.85184 1.28017 0
M  V30 5689 H 534.843 4.73716 -1.04009 0
M  V30 5690 H 530.722 4.60652 0.179142 0
M  V30 5691 H 534.266 6.40302 -2.76873 0
M  V30 5692 H 530.163 6.26825 -1.54146 0
M  V30 5693 H 530.931 7.54165 -3.18083 0
M  V30 5694 N 533.594 0.0601682 1.57485 0
M  V30 5695 C 535.005 -0.474217 1.80577 0
M  V30 5696 C 535.356 -1.70365 0.973147 0
M  V30 5697 O 534.481 -2.15544 0.192306 0
M  V30 5698 C 535.076 -0.867102 3.27516 0
M  V30 5699 C 533.635 -1.34642 3.51495 0
M  V30 5700 C 532.782 -0.32594 2.75378 0
M  V30 5701 H 535.733 0.285973 1.56102 0
M  V30 5702 H 535.754 -1.72938 3.38929 0
M  V30 5703 H 535.266 0.0278927 3.8809 0
M  V30 5704 H 533.367 -2.2603 2.96212 0
M  V30 5705 H 533.48 -1.33237 4.60201 0
M  V30 5706 H 531.844 -0.800749 2.41785 0
M  V30 5707 H 532.627 0.561125 3.38683 0
M  V30 5708 N 535.072 -1.5615 -0.213296 0
M  V30 5709 C 536.019 -1.93086 -1.26437 0
M  V30 5710 C 536.989 -0.789086 -1.4616 0
M  V30 5711 O 538.174 -1.04569 -1.59593 0
M  V30 5712 C 535.314 -2.26003 -2.608 0
M  V30 5713 C 534.427 -3.53156 -2.48807 0
M  V30 5714 C 533.562 -3.7548 -3.7575 0
M  V30 5715 C 532.601 -4.96119 -3.58514 0
M  V30 5716 N 531.738 -5.14791 -4.77425 0
M  V30 5717 H 536.578 -2.82707 -0.942376 0
M  V30 5718 H 534.115 -1.39919 -0.454001 0
M  V30 5719 H 536.073 -2.431 -3.39055 0
M  V30 5720 H 534.703 -1.39546 -2.91079 0
M  V30 5721 H 533.755 -3.44207 -1.61944 0
M  V30 5722 H 535.067 -4.41565 -2.31996 0
M  V30 5723 H 534.221 -3.92718 -4.62447 0
M  V30 5724 H 532.96 -2.85368 -3.95495 0
M  V30 5725 H 531.965 -4.78823 -2.70201 0
M  V30 5726 H 533.19 -5.87724 -3.40231 0
M  V30 5727 H 531.136 -4.27623 -4.97468 0
M  V30 5728 H 531.053 -5.97347 -4.63371 0
M  V30 5729 H 532.321 -5.36471 -5.65525 0
M  V30 5730 N 536.55 0.480323 -1.50102 0
M  V30 5731 C 537.827 1.24159 -1.51142 0
M  V30 5732 C 538.207 2.09605 -0.250818 0
M  V30 5733 O 537.555 2.15274 0.766118 0
M  V30 5734 C 537.765 2.08057 -2.80202 0
M  V30 5735 C 539.113 2.66556 -3.30504 0
M  V30 5736 O 540.137 2.18308 -2.81461 0
M  V30 5737 O 538.996 3.54442 -4.15973 0
M  V30 5738 H 536.09 0.562928 -0.605839 0
M  V30 5739 H 538.636 0.492899 -1.62384 0
M  V30 5740 H 537.408 1.45032 -3.6343 0
M  V30 5741 H 537.031 2.90079 -2.71919 0
M  V30 5742 N 538.028 1.39524 0.732853 0
M  V30 5743 C 539.277 1.36175 1.48792 0
M  V30 5744 C 539.59 -0.0388195 1.95561 0
M  V30 5745 O 540.796 -0.194899 2.708 0
M  V30 5746 C 539.252 2.39242 2.68871 0
M  V30 5747 C 538.86 3.85024 2.29042 0
M  V30 5748 C 540.604 2.44972 3.46683 0
M  V30 5749 C 538.511 4.79727 3.45856 0
M  V30 5750 H 537.441 0.506267 0.558757 0
M  V30 5751 H 540.092 1.65181 0.799226 0
M  V30 5752 H 538.474 2.0331 3.39825 0
M  V30 5753 H 539.648 4.30008 1.6562 0
M  V30 5754 H 537.963 3.82609 1.64316 0
M  V30 5755 H 540.56 3.12918 4.33574 0
M  V30 5756 H 540.903 1.4749 3.89297 0
M  V30 5757 H 541.436 2.79808 2.82759 0
M  V30 5758 H 538.175 5.78479 3.08289 0
M  V30 5759 H 537.695 4.39421 4.08251 0
M  V30 5760 H 539.374 4.98731 4.12161 0
M  V30 5761 N 539.506 -0.963266 1.24736 0
M  V30 5762 C 540.731 -1.74699 1.11781 0
M  V30 5763 C 541.156 -1.85267 -0.325258 0
M  V30 5764 O 540.514 -1.32681 -1.23553 0
M  V30 5765 C 540.562 -3.14322 1.76731 0
M  V30 5766 O 539.666 -3.99043 1.04109 0
M  V30 5767 H 539.007 -0.53684 0.390767 0
M  V30 5768 H 541.537 -1.20801 1.65131 0
M  V30 5769 H 541.547 -3.64824 1.82668 0
M  V30 5770 H 540.222 -3.05946 2.81726 0
M  V30 5771 H 538.799 -3.5752 1.05991 0
M  V30 5772 N 540.985 -1.06182 -1.16461 0
M  V30 5773 C 541.933 -0.665716 -2.2287 0
M  V30 5774 C 542.927 0.317822 -1.66392 0
M  V30 5775 O 544.133 0.182807 -1.79069 0
M  V30 5776 H 540.508 -0.197148 -0.725697 0
M  V30 5777 H 542.479 -1.57307 -2.53569 0
M  V30 5778 C 541.228 -0.0669803 -3.47635 0
M  V30 5779 H 540.551 -0.814899 -3.91407 0
M  V30 5780 H 541.991 0.172669 -4.23648 0
M  V30 5781 C 540.45 1.18913 -3.15216 0
M  V30 5782 O 540.98 2.27723 -3.30916 0
M  V30 5783 N 539.186 1.09066 -2.69357 0
M  V30 5784 H 538.733 0.20518 -2.56782 0
M  V30 5785 H 538.691 1.93195 -2.48039 0
M  V30 5786 N 542.463 1.3308 -0.844243 0
M  V30 5787 C 543.693 2.01515 -0.455541 0
M  V30 5788 C 544.101 1.63655 0.949406 0
M  V30 5789 O 543.444 0.84848 1.62931 0
M  V30 5790 C 543.506 3.55967 -0.502801 0
M  V30 5791 C 543.17 4.17222 -1.86481 0
M  V30 5792 C 544.167 4.36205 -2.8288 0
M  V30 5793 C 541.852 4.53528 -2.15911 0
M  V30 5794 C 543.846 4.90649 -4.06869 0
M  V30 5795 C 541.533 5.07679 -3.40155 0
M  V30 5796 C 542.531 5.26186 -4.35451 0
M  V30 5797 O 542.219 5.79183 -5.57496 0
M  V30 5798 H 541.951 0.65199 -0.178565 0
M  V30 5799 H 544.505 1.70867 -1.1399 0
M  V30 5800 H 542.735 3.85965 0.23836 0
M  V30 5801 H 544.424 4.05688 -0.131169 0
M  V30 5802 H 545.19 4.085 -2.61444 0
M  V30 5803 H 541.069 4.38414 -1.42528 0
M  V30 5804 H 544.613 5.0501 -4.81259 0
M  V30 5805 H 540.51 5.34815 -3.61446 0
M  V30 5806 H 541.278 5.97591 -5.5931 0
M  V30 5807 N 543.941 0.601185 1.45683 0
M  V30 5808 C 545.189 0.0936957 2.01883 0
M  V30 5809 C 545.51 -1.2779 1.47291 0
M  V30 5810 O 544.78 -1.84279 0.664691 0
M  V30 5811 H 543.36 0.0316466 0.746329 0
M  V30 5812 H 546.022 0.781137 1.78562 0
M  V30 5813 H 545.118 0.0386297 3.12076 0
M  V30 5814 N 545.419 -1.53889 0.339982 0
M  V30 5815 C 546.666 -2.00855 -0.257621 0
M  V30 5816 C 546.994 -1.22788 -1.50842 0
M  V30 5817 O 546.249 -0.302567 -1.93347 0
M  V30 5818 C 546.548 -3.51968 -0.620735 0
M  V30 5819 C 546.214 -4.47741 0.532771 0
M  V30 5820 C 544.876 -4.73645 0.849339 0
M  V30 5821 C 547.228 -5.04551 1.3068 0
M  V30 5822 C 544.556 -5.53614 1.94237 0
M  V30 5823 C 546.908 -5.85713 2.39005 0
M  V30 5824 C 545.572 -6.09912 2.71225 0
M  V30 5825 H 544.842 -0.734979 -0.0942703 0
M  V30 5826 H 547.489 -1.85714 0.467159 0
M  V30 5827 H 545.794 -3.64921 -1.42618 0
M  V30 5828 H 547.491 -3.85762 -1.09495 0
M  V30 5829 H 544.081 -4.27711 0.275973 0
M  V30 5830 H 548.265 -4.84507 1.07549 0
M  V30 5831 H 543.521 -5.7059 2.19628 0
M  V30 5832 H 547.695 -6.28748 2.99415 0
M  V30 5833 H 545.322 -6.71665 3.56047 0
M  V30 5834 N 546.897 -0.0685191 -1.57451 0
M  V30 5835 C 548.308 0.464634 -1.80826 0
M  V30 5836 C 548.659 1.69847 -0.982169 0
M  V30 5837 O 547.784 2.15439 -0.203734 0
M  V30 5838 C 548.379 0.849721 -3.27971 0
M  V30 5839 C 546.938 1.32776 -3.52204 0
M  V30 5840 C 546.085 0.311332 -2.75547 0
M  V30 5841 H 549.036 -0.294248 -1.55948 0
M  V30 5842 H 549.057 1.71138 -3.39841 0
M  V30 5843 H 548.569 -0.0484736 -3.8807 0
M  V30 5844 H 546.67 2.24456 -2.97406 0
M  V30 5845 H 546.783 1.30794 -4.60901 0
M  V30 5846 H 545.147 0.787915 -2.42206 0
M  V30 5847 H 545.93 -0.579078 -3.38381 0
M  V30 5848 N 548.375 1.56261 0.205012 0
M  V30 5849 C 549.6 1.84491 0.947512 0
M  V30 5850 C 550.025 0.650894 1.76479 0
M  V30 5851 O 549.383 -0.40035 1.76824 0
M  V30 5852 C 549.431 3.10863 1.82747 0
M  V30 5853 O 548.535 2.90719 2.925 0
M  V30 5854 H 547.876 0.607783 0.267386 0
M  V30 5855 H 550.406 2.03485 0.213323 0
M  V30 5856 H 550.416 3.41399 2.23407 0
M  V30 5857 H 549.091 3.97392 1.2269 0
M  V30 5858 H 547.668 2.71457 2.55667 0
M  V30 5859 N 549.853 -0.472356 1.50355 0
M  V30 5860 C 551.078 -1.25251 1.65309 0
M  V30 5861 C 551.503 -1.85081 0.335643 0
M  V30 5862 O 550.861 -1.67227 -0.700335 0
M  V30 5863 C 550.909 -2.3379 2.74544 0
M  V30 5864 O 550.013 -3.38401 2.35709 0
M  V30 5865 H 549.354 -0.368539 0.552336 0
M  V30 5866 H 551.884 -0.562271 1.96722 0
M  V30 5867 H 551.894 -2.79121 2.97583 0
M  V30 5868 H 550.569 -1.89614 3.70161 0
M  V30 5869 H 549.146 -2.9879 2.23112 0
M  V30 5870 N 551.331 -1.39911 -0.725443 0
M  V30 5871 C 552.577 -1.37858 -1.48738 0
M  V30 5872 C 552.91 0.0224187 -1.94187 0
M  V30 5873 O 552.185 0.989204 -1.67466 0
M  V30 5874 C 552.468 -2.3594 -2.72038 0
M  V30 5875 C 552.321 -3.85023 -2.32546 0
M  V30 5876 C 553.64 -2.31704 -3.74167 0
M  V30 5877 H 550.759 -0.502074 -0.539528 0
M  V30 5878 H 553.401 -1.70974 -0.828728 0
M  V30 5879 H 551.551 -2.0783 -3.28236 0
M  V30 5880 H 553.223 -4.2392 -1.81905 0
M  V30 5881 H 551.466 -4.01334 -1.64661 0
M  V30 5882 H 552.137 -4.49152 -3.20884 0
M  V30 5883 H 554.613 -2.5658 -3.27576 0
M  V30 5884 H 553.489 -3.02395 -4.58092 0
M  V30 5885 H 553.75 -1.3253 -4.21768 0
M  V30 5886 N 552.809 0.956637 -1.25245 0
M  V30 5887 C 553.741 2.05628 -1.01242 0
M  V30 5888 C 554.754 1.62785 0.0219579 0
M  V30 5889 O 555.943 1.77184 -0.216365 0
M  V30 5890 C 553.043 3.35069 -0.508161 0
M  V30 5891 C 552.216 4.06761 -1.60823 0
M  V30 5892 C 551.275 5.14473 -1.1047 0
M  V30 5893 O 550.301 5.40033 -1.79868 0
M  V30 5894 N 551.503 5.80474 0.0550773 0
M  V30 5895 H 554.268 2.2679 -1.95925 0
M  V30 5896 H 551.829 1.12505 -1.16423 0
M  V30 5897 H 553.821 4.044 -0.155819 0
M  V30 5898 H 552.391 3.10694 0.344683 0
M  V30 5899 H 551.611 3.31555 -2.13224 0
M  V30 5900 H 552.899 4.51418 -2.34733 0
M  V30 5901 H 552.297 5.62125 0.635004 0
M  V30 5902 H 550.854 6.50868 0.348469 0
M  V30 5903 N 554.287 1.06798 1.15896 0
M  V30 5904 C 555.25 0.687328 2.18651 0
M  V30 5905 C 556.25 -0.269559 1.58524 0
M  V30 5906 O 557.44 -0.0512627 1.74125 0
M  V30 5907 C 554.572 0.0121642 3.40898 0
M  V30 5908 H 555.765 1.59701 2.53842 0
M  V30 5909 H 553.318 0.863828 1.3026 0
M  V30 5910 H 554.053 -0.910025 3.1127 0
M  V30 5911 H 553.838 0.700309 3.85795 0
M  V30 5912 H 555.328 -0.239703 4.16911 0
M  V30 5913 N 555.766 -1.3263 0.851289 0
M  V30 5914 C 557.015 -1.96633 0.449267 0
M  V30 5915 C 557.328 -1.68131 -0.999562 0
M  V30 5916 O 558.534 -2.25845 -1.50685 0
M  V30 5917 C 556.99 -3.51946 0.752446 0
M  V30 5918 C 556.598 -3.89311 2.21678 0
M  V30 5919 C 558.342 -4.22437 0.417983 0
M  V30 5920 C 556.249 -5.37655 2.46336 0
M  V30 5921 H 555.179 -0.735888 0.164269 0
M  V30 5922 H 557.83 -1.51073 1.0416 0
M  V30 5923 H 556.212 -3.95899 0.0895858 0
M  V30 5924 H 557.386 -3.56378 2.92115 0
M  V30 5925 H 555.701 -3.31836 2.51543 0
M  V30 5926 H 558.298 -5.31549 0.579674 0
M  V30 5927 H 558.641 -4.11349 -0.640115 0
M  V30 5928 H 559.174 -3.84057 1.03659 0
M  V30 5929 H 555.913 -5.5376 3.50757 0
M  V30 5930 H 555.433 -5.72005 1.80473 0
M  V30 5931 H 557.112 -6.04695 2.30115 0
M  V30 5932 N 557.244 -0.608902 -1.45362 0
M  V30 5933 C 558.521 -0.0365378 -1.95566 0
M  V30 5934 C 558.901 1.43169 -1.55131 0
M  V30 5935 O 558.249 2.1349 -0.814513 0
M  V30 5936 C 558.459 -0.236026 -3.48201 0
M  V30 5937 C 559.807 -0.117518 -4.24437 0
M  V30 5938 O 560.831 -0.166217 -3.55812 0
M  V30 5939 O 559.69 -0.00372127 -5.465 0
M  V30 5940 H 556.784 0.0349874 -0.82626 0
M  V30 5941 H 559.33 -0.679055 -1.55521 0
M  V30 5942 H 558.102 -1.25569 -3.70605 0
M  V30 5943 H 557.725 0.441691 -3.95139 0
M  V30 5944 N 558.722 1.53707 -0.348139 0
M  V30 5945 C 559.685 2.23812 0.494058 0
M  V30 5946 C 560.685 1.23989 1.02388 0
M  V30 5947 O 561.875 1.48395 0.912396 0
M  V30 5948 C 559.007 2.96133 1.68872 0
M  V30 5949 H 560.2 2.99663 -0.119141 0
M  V30 5950 H 557.753 1.55983 -0.0995539 0
M  V30 5951 H 558.488 2.24481 2.34049 0
M  V30 5952 H 558.273 3.69357 1.31596 0
M  V30 5953 H 559.763 3.49475 2.28597 0
M  V30 5954 N 560.2 0.0768682 1.57412 0
M  V30 5955 C 561.163 -0.873949 2.11884 0
M  V30 5956 C 562.163 -1.22301 1.04398 0
M  V30 5957 O 563.353 -1.15545 1.30365 0
M  V30 5958 C 560.485 -2.17575 2.62438 0
M  V30 5959 H 561.678 -0.401278 2.97203 0
M  V30 5960 H 559.231 -0.171904 1.55352 0
M  V30 5961 H 559.966 -2.69368 1.80587 0
M  V30 5962 H 559.751 -1.93534 3.41009 0
M  V30 5963 H 561.241 -2.85631 3.04639 0
M  V30 5964 N 561.678 -1.56367 -0.196722 0
M  V30 5965 C 562.924 -1.80796 -0.918725 0
M  V30 5966 C 563.257 -0.650645 -1.82976 0
M  V30 5967 O 562.532 0.348889 -1.91345 0
M  V30 5968 C 562.815 -3.15472 -1.73636 0
M  V30 5969 C 562.668 -4.41693 -0.85015 0
M  V30 5970 C 563.987 -3.46824 -2.70927 0
M  V30 5971 H 561.106 -0.657702 -0.332561 0
M  V30 5972 H 563.748 -1.89086 -0.186186 0
M  V30 5973 H 561.898 -3.08536 -2.36088 0
M  V30 5974 H 563.57 -4.60673 -0.240459 0
M  V30 5975 H 561.813 -4.33517 -0.156785 0
M  V30 5976 H 562.484 -5.32419 -1.45719 0
M  V30 5977 H 564.96 -3.54049 -2.18607 0
M  V30 5978 H 563.836 -4.4218 -3.25219 0
M  V30 5979 H 564.097 -2.70236 -3.49893 0
M  V30 5980 N 563.156 0.464375 -1.50603 0
M  V30 5981 C 564.403 1.21596 -1.61928 0
M  V30 5982 C 564.731 1.91804 -0.322737 0
M  V30 5983 O 563.986 1.83065 0.691776 0
M  V30 5984 C 564.285 2.278 -2.75394 0
M  V30 5985 C 563.951 1.74797 -4.1564 0
M  V30 5986 C 562.613 1.60063 -4.53799 0
M  V30 5987 C 564.965 1.35548 -5.03266 0
M  V30 5988 C 562.293 1.04514 -5.77316 0
M  V30 5989 C 564.645 0.814381 -6.27336 0
M  V30 5990 C 563.309 0.653726 -6.64291 0
M  V30 5991 H 562.579 0.444951 -0.592536 0
M  V30 5992 H 565.226 0.510964 -1.84557 0
M  V30 5993 H 563.531 3.04233 -2.46879 0
M  V30 5994 H 565.228 2.85723 -2.81359 0
M  V30 5995 H 561.818 1.87234 -3.8554 0
M  V30 5996 H 566.002 1.45763 -4.74412 0
M  V30 5997 H 561.258 0.908186 -6.04617 0
M  V30 5998 H 565.432 0.501626 -6.94591 0
M  V30 5999 H 563.059 0.22114 -7.59878 0
M  V30 6000 N 564.634 1.40294 0.718013 0
M  V30 6001 C 565.864 1.41544 1.50495 0
M  V30 6002 C 566.272 0.0127877 1.89196 0
M  V30 6003 O 565.615 -0.97305 1.55812 0
M  V30 6004 C 565.677 2.24021 2.81167 0
M  V30 6005 C 565.341 3.72463 2.64803 0
M  V30 6006 C 566.338 4.65154 2.32223 0
M  V30 6007 C 564.023 4.1625 2.81143 0
M  V30 6008 C 566.017 5.99618 2.16189 0
M  V30 6009 C 563.704 5.50784 2.64727 0
M  V30 6010 C 564.702 6.42283 2.32297 0
M  V30 6011 O 564.39 7.74337 2.16004 0
M  V30 6012 H 564.122 0.484819 0.471091 0
M  V30 6013 H 566.676 1.84948 0.893488 0
M  V30 6014 H 564.906 1.75393 3.44636 0
M  V30 6015 H 566.595 2.17243 3.42871 0
M  V30 6016 H 567.361 4.32622 2.19234 0
M  V30 6017 H 563.24 3.45352 3.05373 0
M  V30 6018 H 566.784 6.71 1.90799 0
M  V30 6019 H 562.681 5.82902 2.773 0
M  V30 6020 H 563.449 7.85244 2.30942 0
M  V30 6021 N 566.112 -0.949982 1.2575 0
M  V30 6022 C 567.528 -1.22191 1.02672 0
M  V30 6023 C 567.728 -1.99898 -0.253588 0
M  V30 6024 O 566.784 -2.33329 -0.965076 0
M  V30 6025 C 568.097 -1.99175 2.25277 0
M  V30 6026 C 569.645 -2.12201 2.30087 0
M  V30 6027 C 570.12 -2.92586 3.5236 0
M  V30 6028 N 571.611 -3.00163 3.52784 0
M  V30 6029 C 572.346 -3.62766 4.44059 0
M  V30 6030 N 571.842 -4.26943 5.45611 0
M  V30 6031 N 573.635 -3.59953 4.3173 0
M  V30 6032 H 565.786 -0.430258 2.07996 0
M  V30 6033 H 568.049 -0.252844 0.91366 0
M  V30 6034 H 567.755 -1.49479 3.18354 0
M  V30 6035 H 567.629 -2.99868 2.28821 0
M  V30 6036 H 570.016 -2.61093 1.3753 0
M  V30 6037 H 570.097 -1.10799 2.30559 0
M  V30 6038 H 569.741 -2.44383 4.45241 0
M  V30 6039 H 569.671 -3.94224 3.49134 0
M  V30 6040 H 572.162 -2.54529 2.79327 0
M  V30 6041 H 572.475 -4.72583 6.11461 0
M  V30 6042 H 570.82 -4.25557 5.49478 0
M  V30 6043 H 574.011 -3.09003 3.51617 0
M  V30 6044 H 574.184 -4.08455 5.03059 0
M  V30 6045 N 567.59 -1.07411 -1.15328 0
M  V30 6046 C 568.815 -0.818856 -1.90551 0
M  V30 6047 C 569.24 0.622194 -1.77512 0
M  V30 6048 O 568.598 1.43484 -1.10824 0
M  V30 6049 C 568.646 -1.23267 -3.38877 0
M  V30 6050 O 567.75 -0.378345 -4.10661 0
M  V30 6051 H 567.091 -0.29827 -0.593238 0
M  V30 6052 H 569.621 -1.43289 -1.46046 0
M  V30 6053 H 569.631 -1.20912 -3.89672 0
M  V30 6054 H 568.306 -2.28226 -3.47686 0
M  V30 6055 H 566.883 -0.464437 -3.69996 0
M  V30 6056 N 569.068 1.32177 -0.85831 0
M  V30 6057 C 570.015 2.28794 -0.303607 0
M  V30 6058 C 570.985 1.55213 0.591453 0
M  V30 6059 O 572.17 1.83418 0.525585 0
M  V30 6060 C 569.31 3.41475 0.49889 0
M  V30 6061 C 568.423 4.2993 -0.422373 0
M  V30 6062 C 567.558 5.29743 0.393111 0
M  V30 6063 C 566.597 6.09842 -0.525317 0
M  V30 6064 N 565.734 7.01643 0.253208 0
M  V30 6065 H 570.574 2.75631 -1.13276 0
M  V30 6066 H 568.111 1.35606 -0.570026 0
M  V30 6067 H 570.069 4.05531 0.979826 0
M  V30 6068 H 568.699 2.95779 1.29284 0
M  V30 6069 H 567.751 3.66422 -1.02171 0
M  V30 6070 H 569.063 4.85899 -1.12709 0
M  V30 6071 H 568.217 5.9942 0.937056 0
M  V30 6072 H 566.956 4.744 1.13117 0
M  V30 6073 H 565.961 5.39066 -1.08112 0
M  V30 6074 H 567.186 6.6727 -1.26205 0
M  V30 6075 H 565.132 6.48725 0.974295 0
M  V30 6076 H 565.049 7.54981 -0.392398 0
M  V30 6077 H 566.317 7.756 0.778761 0
M  V30 6078 N 570.547 0.616602 1.45037 0
M  V30 6079 C 571.775 0.121968 2.0654 0
M  V30 6080 C 572.19 -1.19743 1.45969 0
M  V30 6081 O 571.547 -1.73133 0.577168 0
M  V30 6082 C 571.598 -0.0145171 3.61497 0
M  V30 6083 O 571.319 1.25269 4.19809 0
M  V30 6084 C 572.82 -0.539555 4.40004 0
M  V30 6085 H 570.04 0.0729837 0.667019 0
M  V30 6086 H 572.584 0.846891 1.8614 0
M  V30 6087 H 570.739 -0.689809 3.81209 0
M  V30 6088 H 571.153 1.08816 5.13088 0
M  V30 6089 H 572.627 -0.584112 5.48901 0
M  V30 6090 H 573.104 -1.56368 4.10421 0
M  V30 6091 H 573.71 0.101995 4.25178 0
M  V30 6092 N 572.025 -1.5352 0.356285 0
M  V30 6093 C 573.255 -2.05236 -0.236983 0
M  V30 6094 C 573.663 -1.23016 -1.43749 0
M  V30 6095 O 573.006 -0.2615 -1.81829 0
M  V30 6096 C 573.068 -3.52549 -0.7035 0
M  V30 6097 C 572.732 -4.55425 0.379059 0
M  V30 6098 C 573.729 -5.0524 1.22592 0
M  V30 6099 C 571.414 -4.99425 0.536638 0
M  V30 6100 C 573.408 -5.97647 2.21578 0
M  V30 6101 C 571.095 -5.9164 1.52988 0
M  V30 6102 C 572.093 -6.4064 2.3679 0
M  V30 6103 O 571.781 -7.31039 3.34421 0
M  V30 6104 H 571.513 -0.674346 -0.047254 0
M  V30 6105 H 574.067 -1.98962 0.510238 0
M  V30 6106 H 572.297 -3.56331 -1.50217 0
M  V30 6107 H 573.986 -3.87171 -1.21873 0
M  V30 6108 H 574.752 -4.72002 1.11532 0
M  V30 6109 H 570.631 -4.60879 -0.105834 0
M  V30 6110 H 574.175 -6.35816 2.87025 0
M  V30 6111 H 570.072 -6.24293 1.64099 0
M  V30 6112 H 570.84 -7.49009 3.30041 0
M  V30 6113 N 573.503 -0.0852151 -1.57369 0
M  V30 6114 C 574.75 0.580806 -1.93992 0
M  V30 6115 C 575.078 1.68801 -0.966252 0
M  V30 6116 O 574.333 1.95694 0.0158649 0
M  V30 6117 C 574.632 1.18482 -3.3719 0
M  V30 6118 C 574.298 0.2024 -4.50446 0
M  V30 6119 C 572.96 -0.0678318 -4.81152 0
M  V30 6120 C 575.312 -0.46895 -5.19086 0
M  V30 6121 C 572.64 -1.01627 -5.77831 0
M  V30 6122 C 574.992 -1.4058 -6.16782 0
M  V30 6123 C 573.656 -1.68436 -6.45899 0
M  V30 6124 H 572.926 0.212532 -0.709867 0
M  V30 6125 H 575.573 -0.158947 -1.90839 0
M  V30 6126 H 573.878 2.0006 -3.36873 0
M  V30 6127 H 575.575 1.70767 -3.62822 0
M  V30 6128 H 572.165 0.423208 -4.26505 0
M  V30 6129 H 576.349 -0.273307 -4.95547 0
M  V30 6130 H 571.605 -1.2392 -5.9871 0
M  V30 6131 H 575.779 -1.93188 -6.69068 0
M  V30 6132 H 573.406 -2.42088 -7.20623 0
M  V30 6133 N 574.981 1.5647 0.188427 0
M  V30 6134 C 576.228 1.81013 0.907779 0
M  V30 6135 C 576.556 0.65953 1.82977 0
M  V30 6136 O 575.811 -0.354308 1.92466 0
M  V30 6137 C 576.11 3.11596 1.7505 0
M  V30 6138 C 575.776 4.40145 0.978922 0
M  V30 6139 C 574.438 4.75066 0.765912 0
M  V30 6140 C 576.79 5.19369 0.436498 0
M  V30 6141 C 574.118 5.867 -0.00089868 0
M  V30 6142 C 576.47 6.31805 -0.317136 0
M  V30 6143 C 575.134 6.65303 -0.541103 0
M  V30 6144 H 574.404 0.662373 0.33218 0
M  V30 6145 H 577.051 1.9071 0.173732 0
M  V30 6146 H 575.356 2.97165 2.55343 0
M  V30 6147 H 577.053 3.27793 2.30983 0
M  V30 6148 H 573.643 4.12745 1.15497 0
M  V30 6149 H 577.827 4.92799 0.588449 0
M  V30 6150 H 573.083 6.11122 -0.184329 0
M  V30 6151 H 577.257 6.92406 -0.744788 0
M  V30 6152 H 574.884 7.51646 -1.13718 0
M  V30 6153 N 576.459 -0.456382 1.50847 0
M  V30 6154 C 577.705 -1.20914 1.62811 0
M  V30 6155 C 578.038 -1.91301 0.334304 0
M  V30 6156 O 577.313 -1.82775 -0.665098 0
M  V30 6157 C 577.596 -2.24122 2.81853 0
M  V30 6158 C 577.449 -1.57944 4.21158 0
M  V30 6159 C 578.768 -3.25295 2.96431 0
M  V30 6160 H 575.887 -0.438233 0.592554 0
M  V30 6161 H 578.529 -0.50091 1.83278 0
M  V30 6162 H 576.679 -2.84524 2.64534 0
M  V30 6163 H 578.351 -1.01025 4.50102 0
M  V30 6164 H 576.594 -0.882185 4.24735 0
M  V30 6165 H 577.265 -2.33014 5.00408 0
M  V30 6166 H 579.741 -2.7493 3.12335 0
M  V30 6167 H 578.617 -3.94822 3.81322 0
M  V30 6168 H 578.878 -3.90286 2.07676 0
M  V30 6169 N 577.937 -1.40673 -0.710563 0
M  V30 6170 C 578.885 -1.41517 -1.84596 0
M  V30 6171 C 579.879 -0.295043 -1.66811 0
M  V30 6172 O 581.085 -0.466331 -1.73854 0
M  V30 6173 H 577.46 -0.442467 -0.608052 0
M  V30 6174 H 579.431 -2.37238 -1.80999 0
M  V30 6175 C 578.18 -1.29957 -3.225 0
M  V30 6176 H 577.503 -2.15429 -3.36794 0
M  V30 6177 H 578.943 -1.34608 -4.02066 0
M  V30 6178 C 577.402 -0.0103164 -3.36898 0
M  V30 6179 O 577.932 0.950707 -3.90288 0
M  V30 6180 N 576.138 0.0608409 -2.90536 0
M  V30 6181 H 575.685 -0.721943 -2.47277 0
M  V30 6182 H 575.643 0.92292 -3.00549 0
M  V30 6183 N 579.415 0.9433 -1.26252 0
M  V30 6184 C 580.692 1.66639 -1.02424 0
M  V30 6185 C 581.072 2.06335 0.446006 0
M  V30 6186 O 580.42 1.78551 1.42589 0
M  V30 6187 C 580.63 2.88019 -1.97094 0
M  V30 6188 C 581.978 3.59718 -2.25584 0
M  V30 6189 O 583.002 2.9812 -1.94943 0
M  V30 6190 O 581.861 4.7066 -2.77743 0
M  V30 6191 H 578.955 0.729643 -0.389294 0
M  V30 6192 H 581.501 0.995218 -1.37454 0
M  V30 6193 H 580.273 2.5556 -2.96319 0
M  V30 6194 H 579.896 3.62863 -1.62532 0
M  V30 6195 N 580.893 1.08022 1.14757 0
M  V30 6196 C 581.825 0.664566 2.19354 0
M  V30 6197 C 582.838 -0.286374 1.60261 0
M  V30 6198 O 584.027 -0.0746362 1.78344 0
M  V30 6199 C 581.127 -0.0434634 3.38872 0
M  V30 6200 C 580.3 0.925381 4.27499 0
M  V30 6201 C 579.359 0.253398 5.2559 0
M  V30 6202 O 578.385 0.896581 5.62094 0
M  V30 6203 N 579.587 -0.998263 5.71852 0
M  V30 6204 H 582.352 1.56438 2.55631 0
M  V30 6205 H 579.913 0.965788 1.29939 0
M  V30 6206 H 581.905 -0.503857 4.01551 0
M  V30 6207 H 580.475 -0.845321 3.00954 0
M  V30 6208 H 579.695 1.56472 3.61815 0
M  V30 6209 H 580.983 1.58203 4.8358 0
M  V30 6210 H 580.381 -1.54063 5.44317 0
M  V30 6211 H 578.938 -1.40222 6.36538 0
M  V30 6212 N 582.371 -1.3172 0.865308 0
M  V30 6213 C 583.618 -1.96876 0.473931 0
M  V30 6214 C 583.946 -1.68425 -0.972786 0
M  V30 6215 O 583.201 -0.970742 -1.69927 0
M  V30 6216 C 583.5 -3.5102 0.672283 0
M  V30 6217 C 583.166 -3.9948 2.09108 0
M  V30 6218 C 581.828 -4.12425 2.4791 0
M  V30 6219 C 584.18 -4.2503 3.0166 0
M  V30 6220 C 581.508 -4.48267 3.78515 0
M  V30 6221 C 583.86 -4.62335 4.31774 0
M  V30 6222 C 582.524 -4.73486 4.70497 0
M  V30 6223 H 581.794 -0.72042 0.173424 0
M  V30 6224 H 584.441 -1.56937 1.0974 0
M  V30 6225 H 582.746 -3.91785 -0.034356 0
M  V30 6226 H 584.443 -3.99475 0.349353 0
M  V30 6227 H 581.033 -3.89898 1.77981 0
M  V30 6228 H 585.217 -4.14529 2.7291 0
M  V30 6229 H 580.473 -4.55097 4.08285 0
M  V30 6230 H 584.647 -4.81058 5.03543 0
M  V30 6231 H 582.274 -5.01016 5.71741 0
M  V30 6232 N 583.85 -0.624285 -1.44708 0
M  V30 6233 C 585.096 -0.13473 -2.02953 0
M  V30 6234 C 585.451 1.22724 -1.48178 0
M  V30 6235 O 584.744 1.80109 -0.653542 0
M  V30 6236 C 584.938 -0.0546353 -3.57358 0
M  V30 6237 C 584.767 -1.40729 -4.27113 0
M  V30 6238 C 583.537 -1.99231 -4.64365 0
M  V30 6239 C 585.735 -2.33968 -4.58 0
M  V30 6240 N 583.716 -3.27803 -5.19055 0
M  V30 6241 C 585.088 -3.47149 -5.137 0
M  V30 6242 C 587.143 -2.33132 -4.39948 0
M  V30 6243 C 585.846 -4.59682 -5.53249 0
M  V30 6244 C 587.872 -3.44724 -4.8054 0
M  V30 6245 C 587.234 -4.56629 -5.36348 0
M  V30 6246 H 583.332 -0.0930617 -0.776443 0
M  V30 6247 H 585.917 -0.826286 -1.76297 0
M  V30 6248 H 584.088 0.606183 -3.8364 0
M  V30 6249 H 585.82 0.443116 -4.02267 0
M  V30 6250 H 582.575 -1.52251 -4.4846 0
M  V30 6251 H 582.999 -3.93519 -5.50883 0
M  V30 6252 H 587.641 -1.47868 -3.961 0
M  V30 6253 H 585.359 -5.4566 -5.96054 0
M  V30 6254 H 588.945 -3.45245 -4.68291 0
M  V30 6255 H 587.825 -5.41551 -5.67179 0
M  V30 6256 N 585.328 1.53329 -0.364422 0
M  V30 6257 C 586.744 1.59594 -0.0133165 0
M  V30 6258 C 586.944 1.37959 1.46865 0
M  V30 6259 O 586 1.18418 2.2301 0
M  V30 6260 C 587.313 2.97032 -0.468213 0
M  V30 6261 C 588.861 3.10138 -0.422334 0
M  V30 6262 C 589.336 4.49986 -0.853024 0
M  V30 6263 N 590.827 4.56098 -0.808037 0
M  V30 6264 C 591.562 5.62495 -1.11299 0
M  V30 6265 N 591.058 6.7665 -1.48717 0
M  V30 6266 N 592.851 5.52473 -1.03586 0
M  V30 6267 H 585.002 1.65644 -1.32951 0
M  V30 6268 H 587.265 0.77684 -0.543345 0
M  V30 6269 H 586.971 3.18 -1.5023 0
M  V30 6270 H 586.845 3.76918 0.145775 0
M  V30 6271 H 589.232 2.88881 0.602622 0
M  V30 6272 H 589.313 2.32263 -1.0718 0
M  V30 6273 H 588.957 4.7198 -1.87609 0
M  V30 6274 H 588.887 5.26289 -0.180819 0
M  V30 6275 H 591.378 3.74131 -0.532361 0
M  V30 6276 H 591.691 7.53776 -1.70415 0
M  V30 6277 H 590.036 6.78044 -1.52581 0
M  V30 6278 H 593.227 4.6217 -0.742736 0
M  V30 6279 H 593.4 6.35295 -1.27686 0
M  V30 6280 N 586.806 0.0935595 1.57322 0
M  V30 6281 C 588.036 -0.578095 1.98347 0
M  V30 6282 C 588.444 -1.62357 0.971441 0
M  V30 6283 O 587.787 -1.83639 -0.0473959 0
M  V30 6284 C 587.849 -1.28525 3.3574 0
M  V30 6285 C 587.513 -0.390714 4.55327 0
M  V30 6286 C 588.51 0.360522 5.18648 0
M  V30 6287 C 586.195 -0.309221 5.01347 0
M  V30 6288 C 588.189 1.18125 6.26359 0
M  V30 6289 C 585.876 0.515157 6.08925 0
M  V30 6290 C 586.874 1.25904 6.71295 0
M  V30 6291 O 586.562 2.06978 7.76798 0
M  V30 6292 H 586.294 -0.159767 0.656849 0
M  V30 6293 H 588.848 0.169058 2.04703 0
M  V30 6294 H 587.078 -2.07894 3.26063 0
M  V30 6295 H 588.767 -1.85128 3.61223 0
M  V30 6296 H 589.533 0.307285 4.84026 0
M  V30 6297 H 585.412 -0.877881 4.52564 0
M  V30 6298 H 588.956 1.76236 6.74971 0
M  V30 6299 H 584.853 0.56988 6.42979 0
M  V30 6300 H 585.621 1.99644 7.93779 0
M  V30 6301 N 588.284 -1.56567 -0.180126 0
M  V30 6302 C 589.561 -1.7235 -0.924931 0
M  V30 6303 C 589.941 -0.652523 -2.00762 0
M  V30 6304 O 589.289 0.334115 -2.26044 0
M  V30 6305 C 589.499 -3.1523 -1.49771 0
M  V30 6306 C 590.847 -3.75921 -1.97405 0
M  V30 6307 O 591.871 -3.18452 -1.59583 0
M  V30 6308 O 590.73 -4.7681 -2.67048 0
M  V30 6309 H 587.824 -0.703502 -0.434758 0
M  V30 6310 H 590.37 -1.6886 -0.168647 0
M  V30 6311 H 589.142 -3.84656 -0.718027 0
M  V30 6312 H 588.765 -3.23009 -2.31842 0
M  V30 6313 N 589.762 0.448376 -1.51087 0
M  V30 6314 C 590.71 1.56407 -1.72161 0
M  V30 6315 C 591.704 1.58878 -0.587721 0
M  V30 6316 O 592.91 1.62755 -0.768822 0
M  V30 6317 H 589.285 0.519423 -0.543786 0
M  V30 6318 H 591.256 1.35803 -2.65707 0
M  V30 6319 C 590.005 2.94163 -1.85373 0
M  V30 6320 H 589.328 2.9299 -2.72024 0
M  V30 6321 H 590.768 3.71625 -2.04135 0
M  V30 6322 C 589.227 3.31317 -0.610803 0
M  V30 6323 O 589.757 4.00985 0.239636 0
M  V30 6324 N 587.963 2.86966 -0.458127 0
M  V30 6325 H 587.51 2.30443 -1.15124 0
M  V30 6326 H 587.468 3.12188 0.372289 0
M  V30 6327 N 591.24 1.41047 0.703093 0
M  V30 6328 C 592.172 1.38228 1.82827 0
M  V30 6329 C 593.185 0.285637 1.60275 0
M  V30 6330 O 594.374 0.54685 1.69917 0
M  V30 6331 C 591.474 1.13136 3.19458 0
M  V30 6332 C 590.647 2.34695 3.69103 0
M  V30 6333 C 589.706 2.05574 4.84382 0
M  V30 6334 O 588.732 2.78549 4.96386 0
M  V30 6335 N 589.934 1.04135 5.71083 0
M  V30 6336 H 592.699 2.35203 1.85741 0
M  V30 6337 H 590.26 1.35562 0.885125 0
M  V30 6338 H 592.252 0.916183 3.94193 0
M  V30 6339 H 590.822 0.247836 3.11616 0
M  V30 6340 H 590.042 2.71963 2.85359 0
M  V30 6341 H 591.33 3.15705 3.99009 0
M  V30 6342 H 590.728 0.43722 5.64008 0
M  V30 6343 H 589.285 0.886078 6.45749 0
M  V30 6344 N 592.718 -0.936591 1.26751 0
M  V30 6345 C 594.134 -1.21095 1.03963 0
M  V30 6346 C 594.334 -2.00156 -0.232372 0
M  V30 6347 O 593.39 -2.3434 -0.940274 0
M  V30 6348 C 594.703 -1.96775 2.27377 0
M  V30 6349 C 596.251 -2.09749 2.32324 0
M  V30 6350 C 596.726 -2.88832 3.55443 0
M  V30 6351 N 598.217 -2.96404 3.55948 0
M  V30 6352 C 598.952 -3.58036 4.47881 0
M  V30 6353 N 598.448 -4.21132 5.50109 0
M  V30 6354 N 600.241 -3.55353 4.35523 0
M  V30 6355 H 592.392 -0.408173 2.08441 0
M  V30 6356 H 594.655 -0.243139 0.91629 0
M  V30 6357 H 594.361 -1.46094 3.19921 0
M  V30 6358 H 594.235 -2.97424 2.31989 0
M  V30 6359 H 596.622 -2.5962 1.40291 0
M  V30 6360 H 596.703 -1.08347 2.31721 0
M  V30 6361 H 596.347 -2.39647 4.47808 0
M  V30 6362 H 596.277 -3.90499 3.53296 0
M  V30 6363 H 598.768 -2.51552 2.82011 0
M  V30 6364 H 599.081 -4.66071 6.16439 0
M  V30 6365 H 597.426 -4.19705 5.53961 0
M  V30 6366 H 600.617 -3.05256 3.54875 0
M  V30 6367 H 600.79 -4.03097 5.07363 0
M  V30 6368 N 594.196 -1.08629 -1.14182 0
M  V30 6369 C 595.128 -0.676189 -2.18998 0
M  V30 6370 C 596.141 0.277871 -1.60411 0
M  V30 6371 O 597.33 0.0651771 -1.78381 0
M  V30 6372 C 594.43 0.0254916 -3.3889 0
M  V30 6373 C 593.603 -0.948039 -4.27002 0
M  V30 6374 C 592.662 -0.281268 -5.25448 0
M  V30 6375 O 591.688 -0.926378 -5.61611 0
M  V30 6376 N 592.89 0.967923 -5.72374 0
M  V30 6377 H 595.655 -1.57792 -2.54798 0
M  V30 6378 H 593.216 -0.972665 -1.29425 0
M  V30 6379 H 595.208 0.482554 -4.01813 0
M  V30 6380 H 593.778 0.829348 -3.01398 0
M  V30 6381 H 592.998 -1.58388 -3.6098 0
M  V30 6382 H 594.286 -1.60765 -4.82734 0
M  V30 6383 H 593.684 1.51175 -5.45126 0
M  V30 6384 H 592.241 1.36844 -6.37273 0
M  V30 6385 N 595.674 1.31259 -0.872281 0
M  V30 6386 C 596.921 1.96622 -0.484365 0
M  V30 6387 C 597.249 1.68939 0.963841 0
M  V30 6388 O 596.504 0.97974 1.6941 0
M  V30 6389 C 596.803 3.50659 -0.690889 0
M  V30 6390 C 596.469 3.98366 -2.11224 0
M  V30 6391 C 595.131 4.11104 -2.50094 0
M  V30 6392 C 597.483 4.23425 -3.0391 0
M  V30 6393 C 594.811 4.46254 -3.80887 0
M  V30 6394 C 597.163 4.60039 -4.3422 0
M  V30 6395 C 595.827 4.70984 -4.73001 0
M  V30 6396 H 595.097 0.71949 -0.177242 0
M  V30 6397 H 597.744 1.56353 -1.10571 0
M  V30 6398 H 596.049 3.91798 0.0135782 0
M  V30 6399 H 597.746 3.99284 -0.370534 0
M  V30 6400 H 594.336 3.88949 -1.80047 0
M  V30 6401 H 598.52 4.13075 -2.75104 0
M  V30 6402 H 593.776 4.52926 -4.10692 0
M  V30 6403 H 597.95 4.78381 -5.06088 0
M  V30 6404 H 595.577 4.97977 -5.7439 0
M  V30 6405 N 597.152 0.631951 1.44375 0
M  V30 6406 C 598.085 -0.121822 2.27875 0
M  V30 6407 C 599.063 -0.850457 1.38586 0
M  V30 6408 O 600.247 -0.854378 1.68026 0
M  V30 6409 C 597.374 -1.17859 3.17533 0
M  V30 6410 C 596.42 -0.550391 4.22934 0
M  V30 6411 S 597.253 0.660145 5.31415 0
M  V30 6412 C 598.409 -0.396613 6.24642 0
M  V30 6413 H 598.642 0.586537 2.91457 0
M  V30 6414 H 596.175 0.420146 1.48574 0
M  V30 6415 H 598.133 -1.78335 3.69739 0
M  V30 6416 H 596.794 -1.85915 2.53169 0
M  V30 6417 H 595.987 -1.34631 4.85685 0
M  V30 6418 H 595.589 -0.0202306 3.73995 0
M  V30 6419 H 597.881 -1.26893 6.65511 0
M  V30 6420 H 598.824 0.195345 7.0783 0
M  V30 6421 H 599.232 -0.72288 5.59852 0
M  V30 6422 N 598.631 -1.53133 0.372548 0
M  V30 6423 C 599.541 -2.29671 -0.478379 0
M  V30 6424 C 600.557 -1.35913 -1.08644 0
M  V30 6425 O 601.733 -1.68975 -1.09588 0
M  V30 6426 C 598.798 -3.07625 -1.599 0
M  V30 6427 C 597.859 -4.17061 -1.01776 0
M  V30 6428 C 597.092 -4.91289 -2.08497 0
M  V30 6429 O 597.315 -4.65442 -3.29727 0
M  V30 6430 O 596.249 -5.7705 -1.71164 0
M  V30 6431 H 600.075 -3.03355 0.144649 0
M  V30 6432 H 597.66 -1.48773 0.136729 0
M  V30 6433 H 599.542 -3.56281 -2.25038 0
M  V30 6434 H 598.217 -2.3677 -2.2073 0
M  V30 6435 H 597.124 -3.72641 -0.330098 0
M  V30 6436 H 598.457 -4.90102 -0.453915 0
M  V30 6437 N 600.109 -0.101901 -1.5727 0
M  V30 6438 C 601.52 0.426173 -1.81771 0
M  V30 6439 C 601.871 1.67725 -1.01797 0
M  V30 6440 O 600.996 2.14958 -0.249386 0
M  V30 6441 C 601.591 0.779962 -3.297 0
M  V30 6442 C 600.15 1.25275 -3.54941 0
M  V30 6443 C 599.297 0.252814 -2.76145 0
M  V30 6444 H 602.248 -0.32726 -1.55289 0
M  V30 6445 H 602.269 1.63891 -3.43395 0
M  V30 6446 H 601.781 -0.130778 -3.8788 0
M  V30 6447 H 599.882 2.18097 -3.021 0
M  V30 6448 H 599.995 1.20988 -4.63572 0
M  V30 6449 H 598.359 0.736362 -2.43823 0
M  V30 6450 H 599.142 -0.650724 -3.37076 0
M  V30 6451 N 601.587 1.56661 0.17182 0
M  V30 6452 C 602.835 1.81606 0.886774 0
M  V30 6453 C 603.156 0.678818 1.82803 0
M  V30 6454 O 602.426 -0.301354 1.93568 0
M  V30 6455 H 601.006 0.669934 0.330451 0
M  V30 6456 H 603.668 1.94142 0.171757 0
M  V30 6457 H 602.764 2.75634 1.46398 0
M  V30 6458 N 603.065 -0.440357 1.51323 0
M  V30 6459 C 604.295 -1.21079 1.67402 0
M  V30 6460 C 604.703 -1.85555 0.369599 0
M  V30 6461 O 604.046 -1.71375 -0.661525 0
M  V30 6462 C 604.108 -2.33839 2.73056 0
M  V30 6463 C 603.772 -1.89755 4.15743 0
M  V30 6464 C 604.769 -1.40268 5.0062 0
M  V30 6465 C 602.454 -1.97539 4.61826 0
M  V30 6466 C 604.448 -0.991474 6.29642 0
M  V30 6467 C 602.135 -1.56029 5.90845 0
M  V30 6468 C 603.133 -1.06915 6.7458 0
M  V30 6469 O 602.821 -0.659933 8.01187 0
M  V30 6470 H 602.553 -0.371133 0.56501 0
M  V30 6471 H 605.107 -0.528409 1.98487 0
M  V30 6472 H 603.337 -3.05345 2.37279 0
M  V30 6473 H 605.026 -2.95713 2.78044 0
M  V30 6474 H 605.792 -1.33652 4.66221 0
M  V30 6475 H 601.671 -2.34713 3.96776 0
M  V30 6476 H 605.215 -0.607425 6.9495 0
M  V30 6477 H 601.112 -1.62315 6.24759 0
M  V30 6478 H 601.88 -0.786052 8.14717 0
M  V30 6479 N 604.543 -1.41418 -0.695603 0
M  V30 6480 C 605.954 -1.36335 -1.27552 0
M  V30 6481 C 606.305 -0.0464336 -1.96145 0
M  V30 6482 O 605.43 0.855304 -1.9878 0
M  V30 6483 C 606.025 -2.46941 -2.3196 0
M  V30 6484 C 604.584 -2.45256 -2.85529 0
M  V30 6485 C 603.731 -2.2679 -1.59566 0
M  V30 6486 H 606.682 -1.50934 -0.490362 0
M  V30 6487 H 606.703 -2.15997 -3.1325 0
M  V30 6488 H 606.215 -3.42775 -1.82008 0
M  V30 6489 H 604.316 -1.53179 -3.39657 0
M  V30 6490 H 604.429 -3.41565 -3.35961 0
M  V30 6491 H 602.793 -1.74667 -1.85374 0
M  V30 6492 H 603.576 -3.24651 -1.1161 0
M  V30 6493 N 606.021 0.929856 -1.27246 0
M  V30 6494 C 606.968 2.03017 -1.09785 0
M  V30 6495 C 607.938 1.661 0.000456744 0
M  V30 6496 O 609.123 1.90116 -0.161462 0
M  V30 6497 C 606.263 3.36878 -0.748816 0
M  V30 6498 C 605.376 3.86763 -1.92453 0
M  V30 6499 C 604.511 5.09061 -1.51758 0
M  V30 6500 C 603.55 5.51237 -2.66091 0
M  V30 6501 N 602.687 6.64732 -2.25999 0
M  V30 6502 H 607.527 2.17285 -2.03939 0
M  V30 6503 H 605.064 1.06448 -1.01524 0
M  V30 6504 H 607.022 4.13855 -0.527283 0
M  V30 6505 H 605.652 3.22424 0.155771 0
M  V30 6506 H 604.704 3.06086 -2.25867 0
M  V30 6507 H 606.016 4.13994 -2.78227 0
M  V30 6508 H 605.17 5.93532 -1.25716 0
M  V30 6509 H 603.909 4.83602 -0.630896 0
M  V30 6510 H 602.914 4.65316 -2.92849 0
M  V30 6511 H 604.139 5.78692 -3.55377 0
M  V30 6512 H 602.085 6.40935 -1.3978 0
M  V30 6513 H 602.002 6.91607 -3.05313 0
M  V30 6514 H 603.27 7.52549 -2.03199 0
M  V30 6515 N 607.499 1.09233 1.13605 0
M  V30 6516 C 608.724 0.849067 1.89224 0
M  V30 6517 C 609.149 -0.593875 1.78479 0
M  V30 6518 O 608.507 -1.41703 1.13092 0
M  V30 6519 C 608.555 1.28642 3.36873 0
M  V30 6520 O 607.659 0.44363 4.10007 0
M  V30 6521 H 607 0.30767 0.588417 0
M  V30 6522 H 609.53 1.45595 1.43748 0
M  V30 6523 H 609.54 1.27096 3.87699 0
M  V30 6524 H 608.215 2.33729 3.44011 0
M  V30 6525 H 606.792 0.523241 3.69211 0
M  V30 6526 N 608.977 -1.30795 0.87923 0
M  V30 6527 C 610.226 -1.95636 0.490875 0
M  V30 6528 C 610.539 -1.70214 -0.963674 0
M  V30 6529 O 611.745 -2.28991 -1.45861 0
M  V30 6530 C 610.201 -3.50271 0.826929 0
M  V30 6531 C 609.809 -3.84521 2.29886 0
M  V30 6532 C 611.553 -4.21456 0.507494 0
M  V30 6533 C 609.46 -5.32309 2.57685 0
M  V30 6534 H 608.39 -0.732238 0.179841 0
M  V30 6535 H 611.041 -1.48829 1.07341 0
M  V30 6536 H 609.423 -3.9562 0.173542 0
M  V30 6537 H 610.597 -3.50102 2.99609 0
M  V30 6538 H 608.912 -3.26425 2.58526 0
M  V30 6539 H 611.509 -5.30199 0.692293 0
M  V30 6540 H 611.852 -4.12614 -0.552718 0
M  V30 6541 H 612.385 -3.81772 1.11782 0
M  V30 6542 H 609.124 -5.46195 3.62424 0
M  V30 6543 H 608.644 -5.68048 1.92566 0
M  V30 6544 H 610.323 -5.99678 2.42889 0
M  V30 6545 N 610.455 -0.639598 -1.44038 0
M  V30 6546 C 611.68 -0.153117 -2.06834 0
M  V30 6547 C 612.105 1.16676 -1.47541 0
M  V30 6548 O 611.463 1.71769 -0.580093 0
M  V30 6549 C 611.511 -0.0609169 -3.60549 0
M  V30 6550 O 610.615 0.98071 -4.00569 0
M  V30 6551 H 609.956 -0.0886402 -0.658057 0
M  V30 6552 H 612.486 -0.878674 -1.84771 0
M  V30 6553 H 612.496 0.126892 -4.07803 0
M  V30 6554 H 611.171 -1.0245 -4.03084 0
M  V30 6555 H 609.748 0.766789 -3.64931 0
M  V30 6556 N 611.933 1.52934 -0.380664 0
M  V30 6557 C 613.181 2.01069 0.203874 0
M  V30 6558 C 613.502 1.26922 1.4804 0
M  V30 6559 O 612.772 0.386787 1.92044 0
M  V30 6560 H 611.352 0.742882 0.0783279 0
M  V30 6561 H 614.014 1.88099 -0.510368 0
M  V30 6562 H 613.11 3.09258 0.42021 0
M  V30 6563 N 613.412 0.11024 1.57214 0
M  V30 6564 C 614.375 -0.828808 2.1369 0
M  V30 6565 C 615.375 -1.20059 1.06969 0
M  V30 6566 O 616.565 -1.12754 1.32786 0
M  V30 6567 C 613.697 -2.11959 2.66994 0
M  V30 6568 H 614.89 -0.338146 2.97988 0
M  V30 6569 H 612.443 -0.138913 1.55681 0
M  V30 6570 H 613.178 -2.65476 1.8626 0
M  V30 6571 H 612.963 -1.86258 3.45037 0
M  V30 6572 H 614.453 -2.79105 3.10629 0
M  V30 6573 N 614.89 -1.56749 -0.16351 0
M  V30 6574 C 616.137 -1.82434 -0.878866 0
M  V30 6575 C 616.465 -0.688557 -1.81904 0
M  V30 6576 O 615.72 0.323644 -1.93005 0
M  V30 6577 C 616.019 -3.14342 -1.70071 0
M  V30 6578 C 615.685 -4.41647 -0.908775 0
M  V30 6579 C 614.347 -4.76224 -0.690236 0
M  V30 6580 C 616.699 -5.19998 -0.353815 0
M  V30 6581 C 614.027 -5.86624 0.0942374 0
M  V30 6582 C 616.379 -6.3122 0.41761 0
M  V30 6583 C 615.043 -6.64358 0.646879 0
M  V30 6584 H 614.313 -0.667574 -0.3216 0
M  V30 6585 H 616.96 -1.90963 -0.14337 0
M  V30 6586 H 615.265 -3.0119 -2.50583 0
M  V30 6587 H 616.962 -3.31426 -2.25738 0
M  V30 6588 H 613.552 -4.1453 -1.08916 0
M  V30 6589 H 617.736 -4.93673 -0.509975 0
M  V30 6590 H 612.992 -6.10751 0.281529 0
M  V30 6591 H 617.166 -6.91133 0.854849 0
M  V30 6592 H 614.793 -7.49742 1.25662 0
M  V30 6593 N 616.368 0.432326 -1.51554 0
M  V30 6594 C 617.779 1.01202 -1.56892 0
M  V30 6595 C 618.13 1.92175 -0.395394 0
M  V30 6596 O 617.255 2.10844 0.487198 0
M  V30 6597 C 617.85 1.84217 -2.8434 0
M  V30 6598 C 616.409 2.37228 -2.92233 0
M  V30 6599 C 615.556 1.16576 -2.51606 0
M  V30 6600 H 618.507 0.213407 -1.57259 0
M  V30 6601 H 618.528 2.69721 -2.68385 0
M  V30 6602 H 618.04 1.17979 -3.69733 0
M  V30 6603 H 616.141 3.06905 -2.11282 0
M  V30 6604 H 616.254 2.69682 -3.95991 0
M  V30 6605 H 614.618 1.51263 -2.04919 0
M  V30 6606 H 615.401 0.519404 -3.39348 0
M  V30 6607 N 617.846 1.41785 0.688094 0
M  V30 6608 C 619.094 1.41264 1.4453 0
M  V30 6609 C 619.415 0.0252946 1.94984 0
M  V30 6610 O 618.685 -0.934081 1.72197 0
M  V30 6611 H 617.265 0.519998 0.536294 0
M  V30 6612 H 619.927 1.7709 0.813941 0
M  V30 6613 H 619.023 2.10439 2.30482 0
M  V30 6614 N 619.324 -0.923095 1.27737 0
M  V30 6615 C 620.573 -1.66581 1.13727 0
M  V30 6616 C 620.886 -1.9304 -0.315433 0
M  V30 6617 O 622.092 -2.65309 -0.57651 0
M  V30 6618 C 620.548 -3.00047 1.98745 0
M  V30 6619 C 620.156 -2.8127 3.48699 0
M  V30 6620 C 621.9 -3.77887 1.93395 0
M  V30 6621 C 619.807 -4.1032 4.25901 0
M  V30 6622 H 618.737 -0.624834 0.422017 0
M  V30 6623 H 621.388 -1.02514 1.52194 0
M  V30 6624 H 619.77 -3.65197 1.53125 0
M  V30 6625 H 620.944 -2.24859 4.02213 0
M  V30 6626 H 619.259 -2.16854 3.55476 0
M  V30 6627 H 621.856 -4.73526 2.48348 0
M  V30 6628 H 622.199 -4.06264 0.908605 0
M  V30 6629 H 622.732 -3.19541 2.36935 0
M  V30 6630 H 619.471 -3.8712 5.28978 0
M  V30 6631 H 618.991 -4.66377 3.77163 0
M  V30 6632 H 620.67 -4.78648 4.35321 0
M  V30 6633 N 620.802 -1.09834 -1.13024 0
M  V30 6634 C 621.712 -0.753731 -2.22162 0
M  V30 6635 C 622.728 0.246105 -1.72251 0
M  V30 6636 O 623.904 0.0864051 -2.01215 0
M  V30 6637 C 620.969 -0.183958 -3.46212 0
M  V30 6638 C 620.03 -1.24028 -4.10993 0
M  V30 6639 C 619.263 -0.697597 -5.29121 0
M  V30 6640 O 619.486 0.478092 -5.68393 0
M  V30 6641 O 618.42 -1.4546 -5.84059 0
M  V30 6642 H 622.246 -1.66456 -2.5402 0
M  V30 6643 H 619.831 -0.873026 -1.21238 0
M  V30 6644 H 621.713 0.130257 -4.21199 0
M  V30 6645 H 620.388 0.699823 -3.16045 0
M  V30 6646 H 619.295 -1.60725 -3.37814 0
M  V30 6647 H 620.628 -2.09685 -4.45301 0
M  V30 6648 N 622.28 1.30327 -0.886154 0
M  V30 6649 C 623.505 2.0079 -0.519425 0
M  V30 6650 C 623.93 1.65979 0.885013 0
M  V30 6651 O 623.288 0.877043 1.58675 0
M  V30 6652 C 623.336 3.53686 -0.702758 0
M  V30 6653 O 622.44 4.11637 0.250828 0
M  V30 6654 H 621.781 0.63171 -0.204544 0
M  V30 6655 H 624.311 1.66145 -1.19402 0
M  V30 6656 H 624.321 4.03531 -0.602207 0
M  V30 6657 H 622.996 3.78361 -1.72673 0
M  V30 6658 H 621.573 3.72755 0.103873 0
M  V30 6659 N 623.758 0.647228 1.43697 0
M  V30 6660 C 624.705 -0.0480092 2.3075 0
M  V30 6661 C 625.675 -0.820705 1.44408 0
M  V30 6662 O 626.86 -0.798515 1.73287 0
M  V30 6663 C 624 -1.01259 3.2991 0
M  V30 6664 C 623.113 -0.236629 4.31351 0
M  V30 6665 C 622.248 -1.19447 5.17596 0
M  V30 6666 C 621.287 -0.408595 6.10735 0
M  V30 6667 N 620.424 -1.31772 6.89623 0
M  V30 6668 H 625.264 0.700238 2.89656 0
M  V30 6669 H 622.801 0.357082 1.427 0
M  V30 6670 H 624.759 -1.58538 3.85903 0
M  V30 6671 H 623.389 -1.72778 2.72667 0
M  V30 6672 H 622.441 0.452353 3.77701 0
M  V30 6673 H 623.753 0.374731 4.9739 0
M  V30 6674 H 622.907 -1.83809 5.78186 0
M  V30 6675 H 621.646 -1.83975 4.51669 0
M  V30 6676 H 620.651 0.24841 5.49239 0
M  V30 6677 H 621.876 0.232188 6.78703 0
M  V30 6678 H 619.822 -1.94991 6.2635 0
M  V30 6679 H 619.739 -0.760779 7.52162 0
M  V30 6680 H 621.007 -1.94967 7.54724 0
M  V30 6681 N 625.236 -1.5273 0.388769 0
M  V30 6682 C 626.482 -2.01871 -0.193877 0
M  V30 6683 C 626.815 -1.27475 -1.46505 0
M  V30 6684 O 626.09 -0.375063 -1.90849 0
M  V30 6685 C 626.373 -3.5712 -0.462336 0
M  V30 6686 C 626.226 -4.42186 0.824091 0
M  V30 6687 C 627.545 -4.21881 -1.25319 0
M  V30 6688 H 624.664 -0.733764 -0.0689899 0
M  V30 6689 H 627.306 -1.82796 0.518231 0
M  V30 6690 H 625.456 -3.73504 -1.06896 0
M  V30 6691 H 627.128 -4.37554 1.46096 0
M  V30 6692 H 625.371 -4.09219 1.43952 0
M  V30 6693 H 626.042 -5.48828 0.590905 0
M  V30 6694 H 628.518 -4.0947 -0.73981 0
M  V30 6695 H 627.394 -5.30487 -1.40977 0
M  V30 6696 H 627.655 -3.79478 -2.26824 0
M  V30 6697 N 626.714 -0.118576 -1.57153 0
M  V30 6698 C 627.991 0.583062 -1.86708 0
M  V30 6699 C 628.371 1.84841 -1.01967 0
M  V30 6700 O 627.719 2.28288 -0.0984673 0
M  V30 6701 C 627.929 0.875912 -3.3783 0
M  V30 6702 C 629.277 1.22916 -4.0642 0
M  V30 6703 O 630.301 0.966188 -3.42846 0
M  V30 6704 O 629.16 1.72269 -5.18638 0
M  V30 6705 H 626.254 0.294185 -0.772906 0
M  V30 6706 H 628.8 -0.153048 -1.69008 0
M  V30 6707 H 627.572 -0.0207776 -3.91294 0
M  V30 6708 H 627.195 1.66719 -3.60958 0
M  V30 6709 N 628.193 1.56834 0.155195 0
M  V30 6710 C 629.156 1.96748 1.17571 0
M  V30 6711 C 630.156 0.853006 1.3631 0
M  V30 6712 O 631.346 1.11978 1.33441 0
M  V30 6713 C 628.478 2.27631 2.53765 0
M  V30 6714 H 629.671 2.88085 0.833498 0
M  V30 6715 H 627.224 1.51141 0.398242 0
M  V30 6716 H 627.959 1.39059 2.92973 0
M  V30 6717 H 627.744 3.0888 2.41527 0
M  V30 6718 H 629.234 2.59377 3.27282 0
M  V30 6719 N 629.671 -0.424282 1.51781 0
M  V30 6720 C 630.917 -1.17434 1.6534 0
M  V30 6721 C 631.25 -1.90549 0.374806 0
M  V30 6722 O 630.525 -1.84145 -0.626179 0
M  V30 6723 C 630.808 -2.18093 2.86544 0
M  V30 6724 C 630.661 -1.48975 4.24413 0
M  V30 6725 C 631.98 -3.18934 3.03264 0
M  V30 6726 H 629.099 -0.425566 0.601716 0
M  V30 6727 H 631.741 -0.461921 1.84299 0
M  V30 6728 H 629.891 -2.78849 2.7051 0
M  V30 6729 H 631.563 -0.914551 4.52143 0
M  V30 6730 H 629.806 -0.791893 4.26511 0
M  V30 6731 H 630.477 -2.22347 5.05238 0
M  V30 6732 H 632.953 -2.68243 3.18096 0
M  V30 6733 H 631.829 -3.86645 3.89611 0
M  V30 6734 H 632.09 -3.85793 2.15908 0
M  V30 6735 N 631.149 -1.42148 -0.680565 0
M  V30 6736 C 632.396 -1.4231 -1.44063 0
M  V30 6737 C 632.724 -0.037488 -1.94464 0
M  V30 6738 O 631.979 0.953184 -1.70918 0
M  V30 6739 C 632.278 -2.38945 -2.65782 0
M  V30 6740 C 631.944 -3.85455 -2.33956 0
M  V30 6741 C 630.606 -4.25364 -2.24987 0
M  V30 6742 C 632.958 -4.77895 -2.08004 0
M  V30 6743 C 630.286 -5.55701 -1.88184 0
M  V30 6744 C 632.638 -6.08568 -1.72706 0
M  V30 6745 C 631.302 -6.47482 -1.62244 0
M  V30 6746 H 630.572 -0.520748 -0.527164 0
M  V30 6747 H 633.219 -1.7505 -0.776524 0
M  V30 6748 H 631.524 -1.99511 -3.37198 0
M  V30 6749 H 633.221 -2.36336 -3.23954 0
M  V30 6750 H 629.811 -3.53855 -2.41836 0
M  V30 6751 H 633.995 -4.47854 -2.1387 0
M  V30 6752 H 629.251 -5.84718 -1.78648 0
M  V30 6753 H 633.425 -6.79688 -1.5165 0
M  V30 6754 H 631.052 -7.48387 -1.33496 0
M  V30 6755 N 632.627 0.916307 -1.28225 0
M  V30 6756 C 633.559 2.02303 -1.07732 0
M  V30 6757 C 634.572 1.62773 -0.0298421 0
M  V30 6758 O 635.761 1.76406 -0.272626 0
M  V30 6759 C 632.861 3.33282 -0.614504 0
M  V30 6760 C 632.034 4.01439 -1.73682 0
M  V30 6761 C 631.093 5.10698 -1.26781 0
M  V30 6762 O 630.119 5.34038 -1.96958 0
M  V30 6763 N 631.321 5.80355 -0.129624 0
M  V30 6764 H 634.086 2.20442 -2.03041 0
M  V30 6765 H 631.647 1.08744 -1.19943 0
M  V30 6766 H 633.639 4.03699 -0.284397 0
M  V30 6767 H 632.209 3.11633 0.245664 0
M  V30 6768 H 631.429 3.24604 -2.23665 0
M  V30 6769 H 632.717 4.43721 -2.48976 0
M  V30 6770 H 632.115 5.6386 0.455847 0
M  V30 6771 H 630.672 6.51647 0.141224 0
M  V30 6772 N 634.105 1.10431 1.1244 0
M  V30 6773 C 635.037 0.710945 2.17895 0
M  V30 6774 C 636.05 -0.252315 1.60833 0
M  V30 6775 O 637.239 -0.03679 1.78462 0
M  V30 6776 C 634.339 0.0284262 3.38888 0
M  V30 6777 C 633.512 1.01585 4.2544 0
M  V30 6778 C 632.571 0.364826 5.24934 0
M  V30 6779 O 631.597 1.01561 5.60066 0
M  V30 6780 N 632.799 -0.87674 5.73841 0
M  V30 6781 H 635.564 1.61826 2.52255 0
M  V30 6782 H 633.125 0.993132 1.27861 0
M  V30 6783 H 635.117 -0.418568 4.0253 0
M  V30 6784 H 633.687 -0.781294 3.02679 0
M  V30 6785 H 632.907 1.64111 3.58415 0
M  V30 6786 H 634.195 1.68425 4.80115 0
M  V30 6787 H 633.593 -1.42483 5.47462 0
M  V30 6788 H 632.15 -1.26688 6.39369 0
M  V30 6789 N 635.583 -1.29855 0.893053 0
M  V30 6790 C 636.493 -2.31661 0.370157 0
M  V30 6791 C 637.509 -1.65677 -0.531723 0
M  V30 6792 O 638.685 -1.9691 -0.422902 0
M  V30 6793 C 635.75 -3.44388 -0.399741 0
M  V30 6794 C 634.811 -4.2598 0.532861 0
M  V30 6795 C 634.044 -5.33324 -0.200388 0
M  V30 6796 O 634.267 -5.52305 -1.42531 0
M  V30 6797 O 633.201 -6.00188 0.453668 0
M  V30 6798 H 637.027 -2.78354 1.2146 0
M  V30 6799 H 634.612 -1.34171 0.657153 0
M  V30 6800 H 636.494 -4.13037 -0.835358 0
M  V30 6801 H 635.169 -2.99815 -1.22035 0
M  V30 6802 H 634.076 -3.59998 1.01746 0
M  V30 6803 H 635.409 -4.74178 1.3197 0
M  V30 6804 N 637.061 -0.65484 -1.43351 0
M  V30 6805 C 638.011 0.0581325 -2.27926 0
M  V30 6806 C 638.995 0.793188 -1.3999 0
M  V30 6807 O 640.187 0.675387 -1.63608 0
M  V30 6808 C 637.316 1.02272 -3.27712 0
M  V30 6809 C 636.402 0.286048 -4.23134 0
M  V30 6810 N 636.793 -0.698298 -5.00957 0
M  V30 6811 C 635.091 0.527272 -4.42872 0
M  V30 6812 C 635.792 -1.1357 -5.70506 0
M  V30 6813 N 634.768 -0.469631 -5.41568 0
M  V30 6814 H 638.57 -0.697182 -2.85511 0
M  V30 6815 H 636.084 -0.482252 -1.55074 0
M  V30 6816 H 638.081 1.5483 -3.87083 0
M  V30 6817 H 636.741 1.77807 -2.71688 0
M  V30 6818 H 637.752 -1.07708 -5.06576 0
M  V30 6819 H 634.429 1.26367 -3.97916 0
M  V30 6820 H 635.819 -1.95027 -6.42973 0
M  V30 6821 N 638.539 1.52521 -0.396863 0
M  V30 6822 C 639.786 2.01672 0.182898 0
M  V30 6823 C 640.114 1.28302 1.46181 0
M  V30 6824 O 639.369 0.374118 1.92091 0
M  V30 6825 C 639.668 3.5403 0.489677 0
M  V30 6826 C 639.334 4.45456 -0.698581 0
M  V30 6827 C 637.996 4.70166 -1.02454 0
M  V30 6828 C 640.348 4.99354 -1.49316 0
M  V30 6829 C 637.676 5.46024 -2.1465 0
M  V30 6830 C 640.028 5.76439 -2.60579 0
M  V30 6831 C 638.692 5.99426 -2.93675 0
M  V30 6832 H 637.962 0.737971 0.066927 0
M  V30 6833 H 640.609 1.83853 -0.535764 0
M  V30 6834 H 638.914 3.69963 1.28976 0
M  V30 6835 H 640.611 3.8956 0.951018 0
M  V30 6836 H 637.201 4.26392 -0.434525 0
M  V30 6837 H 641.385 4.80182 -1.25457 0
M  V30 6838 H 636.641 5.62046 -2.40654 0
M  V30 6839 H 640.815 6.17202 -3.22544 0
M  V30 6840 H 638.442 6.57988 -3.80731 0
M  V30 6841 N 640.017 0.126909 1.57088 0
M  V30 6842 C 641.264 -0.529168 1.95464 0
M  V30 6843 C 641.592 -1.6618 1.01067 0
M  V30 6844 O 640.847 -1.95667 0.0360254 0
M  V30 6845 C 641.146 -1.095 3.40212 0
M  V30 6846 C 640.812 -0.0829015 4.50824 0
M  V30 6847 C 639.474 0.195377 4.80803 0
M  V30 6848 C 641.826 0.606411 5.1766 0
M  V30 6849 C 639.154 1.16912 5.74933 0
M  V30 6850 C 641.506 1.56884 6.12838 0
M  V30 6851 C 640.17 1.85502 6.41206 0
M  V30 6852 H 639.44 -0.193636 0.715252 0
M  V30 6853 H 642.087 0.209489 1.90351 0
M  V30 6854 H 640.392 -1.91058 3.42059 0
M  V30 6855 H 642.089 -1.61087 3.67222 0
M  V30 6856 H 638.679 -0.309979 4.27478 0
M  V30 6857 H 642.863 0.404597 4.94648 0
M  V30 6858 H 638.119 1.3975 5.95214 0
M  V30 6859 H 642.293 2.10859 6.6371 0
M  V30 6860 H 639.92 2.61109 7.13951 0
M  V30 6861 N 641.495 -1.56914 -0.146875 0
M  V30 6862 C 642.445 -1.94693 -1.18653 0
M  V30 6863 C 643.429 -0.81821 -1.38543 0
M  V30 6864 O 644.621 -1.08167 -1.40103 0
M  V30 6865 C 641.75 -2.33117 -2.52014 0
M  V30 6866 C 640.836 -3.5256 -2.35717 0
M  V30 6867 N 641.227 -4.69091 -1.89175 0
M  V30 6868 C 639.525 -3.57647 -2.66467 0
M  V30 6869 C 640.226 -5.51187 -1.85924 0
M  V30 6870 N 639.202 -4.92899 -2.29242 0
M  V30 6871 H 643.004 -2.82264 -0.81879 0
M  V30 6872 H 640.518 -1.58474 -0.354929 0
M  V30 6873 H 642.515 -2.58387 -3.27172 0
M  V30 6874 H 641.175 -1.46898 -2.89571 0
M  V30 6875 H 642.186 -4.92844 -1.59139 0
M  V30 6876 H 638.863 -2.81967 -3.07898 0
M  V30 6877 H 640.253 -6.54613 -1.51431 0
M  V30 6878 N 642.974 0.416227 -1.52004 0
M  V30 6879 C 644.22 1.16555 -1.6596 0
M  V30 6880 C 644.553 1.90347 -0.384906 0
M  V30 6881 O 643.828 1.84474 0.616405 0
M  V30 6882 C 644.111 2.1657 -2.87696 0
M  V30 6883 C 643.964 1.46722 -4.25197 0
M  V30 6884 C 645.283 3.17321 -3.04951 0
M  V30 6885 H 642.402 0.422369 -0.603965 0
M  V30 6886 H 645.044 0.452141 -1.84542 0
M  V30 6887 H 643.194 2.77411 -2.71985 0
M  V30 6888 H 644.866 0.89056 -4.52622 0
M  V30 6889 H 643.109 0.769263 -4.26925 0
M  V30 6890 H 643.78 2.19665 -5.0641 0
M  V30 6891 H 646.256 2.66552 -3.19514 0
M  V30 6892 H 645.132 3.84573 -3.91656 0
M  V30 6893 H 645.393 3.84643 -2.17951 0
M  V30 6894 N 644.452 1.42507 0.673017 0
M  V30 6895 C 645.699 1.43072 1.43306 0
M  V30 6896 C 646.027 0.0478004 1.94441 0
M  V30 6897 O 645.282 -0.944106 1.71421 0
M  V30 6898 C 645.581 2.40351 2.64511 0
M  V30 6899 C 645.247 3.8669 2.31908 0
M  V30 6900 C 643.909 4.26551 2.22728 0
M  V30 6901 C 646.261 4.78991 2.05467 0
M  V30 6902 C 643.589 5.56691 1.85234 0
M  V30 6903 C 645.941 6.09476 1.69477 0
M  V30 6904 C 644.605 6.48334 1.58808 0
M  V30 6905 H 643.875 0.523536 0.524395 0
M  V30 6906 H 646.522 1.75459 0.76723 0
M  V30 6907 H 644.827 2.01297 3.36135 0
M  V30 6908 H 646.524 2.38051 3.22696 0
M  V30 6909 H 643.114 3.55132 2.39956 0
M  V30 6910 H 647.298 4.48982 2.11492 0
M  V30 6911 H 642.554 5.85657 1.75545 0
M  V30 6912 H 646.728 6.80482 1.48043 0
M  V30 6913 H 644.355 7.49084 1.29525 0
M  V30 6914 N 645.93 -0.909495 1.28709 0
M  V30 6915 C 647.155 -1.69801 1.1909 0
M  V30 6916 C 647.58 -1.86479 -0.246388 0
M  V30 6917 O 646.938 -1.37802 -1.17815 0
M  V30 6918 C 646.986 -3.06543 1.89904 0
M  V30 6919 O 646.09 -3.94268 1.2094 0
M  V30 6920 H 645.431 -0.519783 0.413185 0
M  V30 6921 H 647.961 -1.13689 1.70106 0
M  V30 6922 H 647.971 -3.56748 1.97977 0
M  V30 6923 H 646.646 -2.93722 2.94449 0
M  V30 6924 H 645.223 -3.52702 1.2106 0
M  V30 6925 N 647.408 -1.11026 -1.11852 0
M  V30 6926 C 648.656 -0.854769 -1.83134 0
M  V30 6927 C 648.977 0.621375 -1.84835 0
M  V30 6928 O 648.247 1.45129 -1.31584 0
M  V30 6929 H 646.827 -0.313229 -0.678157 0
M  V30 6930 H 649.489 -1.40178 -1.35411 0
M  V30 6931 H 648.585 -1.22311 -2.87135 0
M  V30 6932 N 648.886 1.2938 -0.899927 0
M  V30 6933 C 650.297 1.77644 -0.574427 0
M  V30 6934 C 650.648 1.73824 0.909928 0
M  V30 6935 O 649.773 1.32429 1.71147 0
M  V30 6936 C 650.368 3.22573 -1.03595 0
M  V30 6937 C 648.927 3.68614 -0.76161 0
M  V30 6938 C 648.074 2.49483 -1.21052 0
M  V30 6939 H 651.025 1.16038 -1.08263 0
M  V30 6940 H 651.046 3.78684 -0.371337 0
M  V30 6941 H 650.558 3.25321 -2.11631 0
M  V30 6942 H 648.659 3.7134 0.306127 0
M  V30 6943 H 648.772 4.59402 -1.35965 0
M  V30 6944 H 647.136 2.46798 -0.629515 0
M  V30 6945 H 647.919 2.54959 -2.29893 0
M  V30 6946 N 650.364 0.662433 1.43002 0
M  V30 6947 C 651.78 0.330835 1.56133 0
M  V30 6948 C 651.98 -1.16454 1.64441 0
M  V30 6949 O 651.036 -1.94964 1.60453 0
M  V30 6950 C 652.349 1.05029 2.81761 0
M  V30 6951 C 653.897 1.03142 2.95518 0
M  V30 6952 C 654.372 1.73196 4.2399 0
M  V30 6953 N 655.863 1.70004 4.30875 0
M  V30 6954 C 656.598 2.21074 5.29069 0
M  V30 6955 N 656.094 2.80473 6.33488 0
M  V30 6956 N 657.887 2.1152 5.20784 0
M  V30 6957 H 650.038 1.63272 1.35853 0
M  V30 6958 H 652.301 0.687149 0.653092 0
M  V30 6959 H 652.007 2.10542 2.81718 0
M  V30 6960 H 651.881 0.607664 3.72273 0
M  V30 6961 H 654.268 -0.0153339 2.95096 0
M  V30 6962 H 654.349 1.51282 2.0627 0
M  V30 6963 H 653.993 2.77833 4.25172 0
M  V30 6964 H 653.923 1.22515 5.1215 0
M  V30 6965 H 656.414 1.26667 3.56039 0
M  V30 6966 H 656.727 3.17094 7.04749 0
M  V30 6967 H 655.072 2.84538 6.34085 0
M  V30 6968 H 658.263 1.64814 4.38126 0
M  V30 6969 H 658.436 2.51629 5.97149 0
M  V30 6970 N 651.842 -1.52309 0.404946 0
M  V30 6971 C 653.072 -2.05886 -0.171569 0
M  V30 6972 C 653.48 -1.27527 -1.39762 0
M  V30 6973 O 652.823 -0.319215 -1.80905 0
M  V30 6974 C 652.885 -3.54609 -0.590983 0
M  V30 6975 C 652.549 -4.53989 0.523757 0
M  V30 6976 C 653.546 -5.01084 1.38604 0
M  V30 6977 C 651.231 -4.97465 0.695255 0
M  V30 6978 C 653.225 -5.90295 2.4048 0
M  V30 6979 C 650.912 -5.86473 1.71733 0
M  V30 6980 C 651.91 -6.32782 2.57051 0
M  V30 6981 O 651.598 -7.20029 3.57509 0
M  V30 6982 H 651.33 -0.675508 -0.0257763 0
M  V30 6983 H 653.884 -1.97238 0.573278 0
M  V30 6984 H 652.114 -3.60929 -1.38805 0
M  V30 6985 H 653.803 -3.90853 -1.09494 0
M  V30 6986 H 654.569 -4.68214 1.26492 0
M  V30 6987 H 650.448 -4.60982 0.0408447 0
M  V30 6988 H 653.992 -6.26363 3.07108 0
M  V30 6989 H 649.889 -6.18756 1.83877 0
M  V30 6990 H 650.657 -7.3813 3.53703 0
M  V30 6991 N 653.32 -0.135238 -1.57019 0
M  V30 6992 C 654.55 0.525303 -1.9981 0
M  V30 6993 C 654.958 1.59724 -1.01415 0
M  V30 6994 O 654.301 1.837 -0.00130938 0
M  V30 6995 C 654.363 1.19578 -3.3903 0
M  V30 6996 C 654.027 0.269855 -4.56203 0
M  V30 6997 C 655.024 -0.497905 -5.1751 0
M  V30 6998 C 652.709 0.176188 -5.01991 0
M  V30 6999 C 654.703 -1.3469 -6.23007 0
M  V30 7000 C 652.39 -0.676422 -6.07345 0
M  V30 7001 C 653.388 -1.43658 -6.67721 0
M  V30 7002 O 653.076 -2.27501 -7.71037 0
M  V30 7003 H 652.808 0.142296 -0.660854 0
M  V30 7004 H 655.362 -0.223272 -2.04183 0
M  V30 7005 H 653.592 1.99176 -3.3146 0
M  V30 7006 H 655.281 1.75486 -3.66005 0
M  V30 7007 H 656.047 -0.435507 -4.83041 0
M  V30 7008 H 651.926 0.757583 -4.54733 0
M  V30 7009 H 655.47 -1.9407 -6.70062 0
M  V30 7010 H 651.367 -0.740154 -6.41243 0
M  V30 7011 H 652.135 -2.20619 -7.88206 0
M  V30 7012 N 654.798 1.5699 0.138552 0
M  V30 7013 C 655.761 1.97984 1.15478 0
M  V30 7014 C 656.761 0.867416 1.35398 0
M  V30 7015 O 657.951 1.13387 1.32246 0
M  V30 7016 C 655.083 2.3031 2.51337 0
M  V30 7017 H 656.276 2.88953 0.802896 0
M  V30 7018 H 653.829 1.51555 0.382189 0
M  V30 7019 H 654.564 1.42159 2.91481 0
M  V30 7020 H 654.349 3.11425 2.38237 0
M  V30 7021 H 655.839 2.62834 3.24512 0
M  V30 7022 N 656.276 -0.40816 1.52223 0
M  V30 7023 C 657.523 -1.15502 1.66329 0
M  V30 7024 C 657.851 -1.90474 0.393701 0
M  V30 7025 O 657.106 -1.85507 -0.623356 0
M  V30 7026 C 657.405 -2.17422 2.83659 0
M  V30 7027 C 657.071 -1.5925 4.21841 0
M  V30 7028 C 655.733 -1.4311 4.59427 0
M  V30 7029 C 658.085 -1.16776 5.0795 0
M  V30 7030 C 655.413 -0.830148 5.80797 0
M  V30 7031 C 657.765 -0.580988 6.29926 0
M  V30 7032 C 656.429 -0.406729 6.6626 0
M  V30 7033 H 655.699 -0.422653 0.608642 0
M  V30 7034 H 658.346 -0.442114 1.86327 0
M  V30 7035 H 656.651 -2.94861 2.58001 0
M  V30 7036 H 658.348 -2.75084 2.9177 0
M  V30 7037 H 654.938 -1.72796 3.92224 0
M  V30 7038 H 659.122 -1.28055 4.79495 0
M  V30 7039 H 654.378 -0.68316 6.07571 0
M  V30 7040 H 658.552 -0.243488 6.95974 0
M  V30 7041 H 656.179 0.0610366 7.60175 0
M  V30 7042 N 657.755 -1.42862 -0.66545 0
M  V30 7043 C 659.032 -1.3431 -1.42197 0
M  V30 7044 C 659.412 0.0150265 -2.11095 0
M  V30 7045 O 658.76 1.03101 -2.03918 0
M  V30 7046 C 658.97 -2.51783 -2.41674 0
M  V30 7047 C 660.318 -2.94321 -3.0604 0
M  V30 7048 O 661.342 -2.51741 -2.52001 0
M  V30 7049 O 660.201 -3.68047 -4.03985 0
M  V30 7050 H 657.295 -0.530159 -0.634713 0
M  V30 7051 H 659.841 -1.54888 -0.693386 0
M  V30 7052 H 658.613 -3.42282 -1.89627 0
M  V30 7053 H 658.236 -2.33241 -3.22001 0
M  V30 7054 N 659.233 0.902656 -1.29189 0
M  V30 7055 C 660.163 2.02294 -1.16616 0
M  V30 7056 C 661.144 1.6999 -0.0611175 0
M  V30 7057 O 662.329 1.9271 -0.240072 0
M  V30 7058 C 659.459 3.37018 -0.83882 0
M  V30 7059 C 658.413 3.83522 -1.89986 0
M  V30 7060 C 657.739 5.15337 -1.42589 0
M  V30 7061 C 659.039 4.04169 -3.30824 0
M  V30 7062 H 660.733 2.13071 -2.10336 0
M  V30 7063 H 658.279 1.02378 -1.01266 0
M  V30 7064 H 660.232 4.14895 -0.737584 0
M  V30 7065 H 658.956 3.26325 0.134071 0
M  V30 7066 H 657.615 3.07859 -1.99043 0
M  V30 7067 H 657.263 5.01056 -0.441759 0
M  V30 7068 H 656.963 5.47423 -2.13547 0
M  V30 7069 H 658.487 5.95758 -1.3381 0
M  V30 7070 H 659.901 4.72537 -3.24626 0
M  V30 7071 H 658.298 4.47604 -3.99713 0
M  V30 7072 H 659.368 3.08604 -3.74021 0
M  V30 7073 N 660.711 1.11618 1.11262 0
M  V30 7074 C 661.96 0.860934 1.82403 0
M  V30 7075 C 662.273 -0.615303 1.8567 0
M  V30 7076 O 663.479 -0.986861 2.52929 0
M  V30 7077 C 661.935 1.49048 3.27586 0
M  V30 7078 C 661.543 3.00089 3.32642 0
M  V30 7079 C 663.287 1.31515 4.03614 0
M  V30 7080 C 661.194 3.56019 4.72234 0
M  V30 7081 H 660.124 0.318423 0.683464 0
M  V30 7082 H 662.775 1.34165 1.25188 0
M  V30 7083 H 661.157 0.937434 3.84744 0
M  V30 7084 H 662.331 3.61813 2.85356 0
M  V30 7085 H 660.646 3.16919 2.70096 0
M  V30 7086 H 663.243 1.70732 5.0671 0
M  V30 7087 H 663.586 0.257917 4.155 0
M  V30 7088 H 664.119 1.83694 3.52848 0
M  V30 7089 H 660.858 4.61463 4.65545 0
M  V30 7090 H 660.378 2.99066 5.19923 0
M  V30 7091 H 662.057 3.54568 5.41193 0
M  V30 7092 N 662.189 -1.289 0.906776 0
M  V30 7093 C 663.152 -2.25777 0.394656 0
M  V30 7094 C 664.152 -1.53621 -0.475119 0
M  V30 7095 O 665.342 -1.71949 -0.279165 0
M  V30 7096 C 662.474 -3.38113 -0.43499 0
M  V30 7097 H 663.667 -2.72592 1.25033 0
M  V30 7098 H 661.22 -1.40463 0.685547 0
M  V30 7099 H 661.955 -2.96648 -1.31036 0
M  V30 7100 H 661.74 -3.91647 0.188334 0
M  V30 7101 H 663.23 -4.10168 -0.784365 0
M  V30 7102 N 663.667 -0.670007 -1.42649 0
M  V30 7103 C 664.599 0.0501746 -2.29145 0
M  V30 7104 C 665.612 0.770331 -1.43422 0
M  V30 7105 O 666.801 0.625288 -1.6719 0
M  V30 7106 C 663.901 1.09463 -3.20735 0
M  V30 7107 C 663.074 0.44926 -4.35087 0
M  V30 7108 C 662.133 1.39285 -5.07431 0
M  V30 7109 O 661.159 0.894997 -5.6212 0
M  V30 7110 N 662.361 2.72631 -5.12496 0
M  V30 7111 H 665.126 -0.692312 -2.91594 0
M  V30 7112 H 662.687 -0.514056 -1.53522 0
M  V30 7113 H 664.679 1.72705 -3.65999 0
M  V30 7114 H 663.249 1.73891 -2.59771 0
M  V30 7115 H 662.469 -0.362573 -3.92529 0
M  V30 7116 H 663.757 -0.000544776 -5.088 0
M  V30 7117 H 663.155 3.15623 -4.69467 0
M  V30 7118 H 661.712 3.31132 -5.61422 0
M  V30 7119 N 665.145 1.52092 -0.413018 0
M  V30 7120 C 666.561 1.59471 -0.0640836 0
M  V30 7121 C 666.761 1.42562 1.42402 0
M  V30 7122 O 665.817 1.25453 2.19129 0
M  V30 7123 C 667.13 2.95392 -0.562474 0
M  V30 7124 C 668.678 3.08637 -0.520788 0
M  V30 7125 C 669.153 4.47044 -0.995752 0
M  V30 7126 N 670.644 4.53296 -0.952732 0
M  V30 7127 C 671.379 5.58669 -1.29138 0
M  V30 7128 N 670.875 6.71576 -1.70168 0
M  V30 7129 N 672.668 5.48898 -1.2111 0
M  V30 7130 H 664.819 1.6133 -1.38153 0
M  V30 7131 H 667.082 0.75916 -0.567785 0
M  V30 7132 H 666.788 3.13059 -1.60271 0
M  V30 7133 H 666.662 3.77191 0.0257875 0
M  V30 7134 H 669.049 2.90652 0.510412 0
M  V30 7135 H 669.13 2.28735 -1.14515 0
M  V30 7136 H 668.774 4.65773 -2.0253 0
M  V30 7137 H 668.704 5.25448 -0.348162 0
M  V30 7138 H 671.195 3.72248 -0.651119 0
M  V30 7139 H 671.508 7.47973 -1.9431 0
M  V30 7140 H 669.853 6.72847 -1.74075 0
M  V30 7141 H 673.044 4.59573 -0.889396 0
M  V30 7142 H 673.217 6.30912 -1.47833 0
M  V30 7143 N 666.623 0.143563 1.56945 0
M  V30 7144 C 667.869 -0.50916 1.96304 0
M  V30 7145 C 668.202 -1.64741 1.0283 0
M  V30 7146 O 667.477 -1.94374 0.0700361 0
M  V30 7147 C 667.76 -1.0186 3.45393 0
M  V30 7148 C 667.613 0.117923 4.49645 0
M  V30 7149 C 668.932 -1.90151 3.96901 0
M  V30 7150 H 666.051 -0.183608 0.713763 0
M  V30 7151 H 668.693 0.224095 1.88674 0
M  V30 7152 H 666.843 -1.64345 3.52027 0
M  V30 7153 H 668.515 0.754145 4.55094 0
M  V30 7154 H 666.758 0.777568 4.26774 0
M  V30 7155 H 667.429 -0.280187 5.51288 0
M  V30 7156 H 669.905 -1.375 3.92725 0
M  V30 7157 H 668.781 -2.22707 5.0169 0
M  V30 7158 H 669.042 -2.83718 3.39052 0
M  V30 7159 N 668.101 -1.57061 -0.130224 0
M  V30 7160 C 669.329 -1.88432 -0.854456 0
M  V30 7161 C 669.744 -0.733608 -1.73964 0
M  V30 7162 O 669.101 0.296029 -1.80083 0
M  V30 7163 C 669.152 -3.1918 -1.69724 0
M  V30 7164 O 668.873 -4.2982 -0.847705 0
M  V30 7165 C 670.374 -3.6418 -2.5276 0
M  V30 7166 H 667.594 -0.624193 -0.246221 0
M  V30 7167 H 670.138 -2.04159 -0.11798 0
M  V30 7168 H 668.293 -3.05156 -2.3866 0
M  V30 7169 H 668.707 -5.04689 -1.42792 0
M  V30 7170 H 670.181 -4.58457 -3.07443 0
M  V30 7171 H 670.658 -2.90285 -3.29592 0
M  V30 7172 H 671.264 -3.80954 -1.89087 0
M  V30 7173 N 669.579 0.400081 -1.52437 0
M  V30 7174 C 670.995 0.739359 -1.41441 0
M  V30 7175 C 671.195 1.94512 -0.526053 0
M  V30 7176 O 670.251 2.525 0.00472502 0
M  V30 7177 C 671.564 0.984824 -2.84116 0
M  V30 7178 C 673.112 1.08698 -2.93519 0
M  V30 7179 C 673.587 1.36515 -4.37181 0
M  V30 7180 N 675.078 1.43361 -4.40457 0
M  V30 7181 C 675.813 1.66528 -5.48686 0
M  V30 7182 N 675.309 1.87239 -6.67018 0
M  V30 7183 N 677.102 1.68617 -5.36213 0
M  V30 7184 H 669.253 -0.393484 -2.08723 0
M  V30 7185 H 671.516 -0.1138 -0.941145 0
M  V30 7186 H 671.222 0.171096 -3.51284 0
M  V30 7187 H 671.096 1.90253 -3.25705 0
M  V30 7188 H 673.483 1.89129 -2.26526 0
M  V30 7189 H 673.564 0.147432 -2.55375 0
M  V30 7190 H 673.208 0.565982 -5.04737 0
M  V30 7191 H 673.138 2.31737 -4.7287 0
M  V30 7192 H 675.629 1.29108 -3.55161 0
M  V30 7193 H 675.942 2.04392 -7.45281 0
M  V30 7194 H 674.287 1.84486 -6.70067 0
M  V30 7195 H 677.478 1.5198 -4.42741 0
M  V30 7196 H 677.651 1.86332 -6.20632 0
M  V30 7197 N 671.057 1.43213 0.657864 0
M  V30 7198 C 672.303 1.44798 1.41991 0
M  V30 7199 C 672.636 0.070256 1.94073 0
M  V30 7200 O 671.911 -0.908177 1.71995 0
M  V30 7201 C 672.194 2.4865 2.60471 0
M  V30 7202 C 672.047 3.95679 2.13911 0
M  V30 7203 C 673.366 2.49292 3.62686 0
M  V30 7204 H 670.485 0.527244 0.514959 0
M  V30 7205 H 673.127 1.74733 0.74621 0
M  V30 7206 H 671.277 2.23254 3.17946 0
M  V30 7207 H 672.949 4.32116 1.61472 0
M  V30 7208 H 671.192 4.08733 1.45325 0
M  V30 7209 H 671.863 4.6395 2.99089 0
M  V30 7210 H 674.339 2.71917 3.14961 0
M  V30 7211 H 673.215 3.23907 4.43143 0
M  V30 7212 H 673.476 1.52502 4.14964 0
M  V30 7213 N 672.536 -0.895792 1.29666 0
M  V30 7214 C 673.499 -1.98189 1.15124 0
M  V30 7215 C 674.499 -1.60572 0.0855717 0
M  V30 7216 O 675.689 -1.70991 0.332826 0
M  V30 7217 C 672.821 -3.32289 0.761372 0
M  V30 7218 H 674.014 -2.12518 2.11603 0
M  V30 7219 H 671.567 -1.0808 1.12908 0
M  V30 7220 H 672.302 -3.23662 -0.203393 0
M  V30 7221 H 672.087 -3.60958 1.53139 0
M  V30 7222 H 673.577 -4.1198 0.682792 0
M  V30 7223 N 674.014 -1.12206 -1.10668 0
M  V30 7224 C 675.43 -0.857619 -1.346 0
M  V30 7225 C 675.63 0.513542 -1.94846 0
M  V30 7226 O 674.686 1.26273 -2.18658 0
M  V30 7227 C 675.999 -1.97212 -2.26998 0
M  V30 7228 C 677.547 -2.00272 -2.40542 0
M  V30 7229 C 678.022 -3.10948 -3.36267 0
M  V30 7230 N 679.513 -3.10375 -3.43834 0
M  V30 7231 C 680.248 -3.92651 -4.17867 0
M  V30 7232 N 679.744 -4.84911 -4.94807 0
M  V30 7233 N 681.537 -3.80798 -4.1346 0
M  V30 7234 H 673.688 -2.00558 -0.699306 0
M  V30 7235 H 675.951 -0.872612 -0.370477 0
M  V30 7236 H 675.657 -2.96002 -1.89936 0
M  V30 7237 H 675.531 -1.87521 -3.27286 0
M  V30 7238 H 677.918 -1.02103 -2.76874 0
M  V30 7239 H 677.999 -2.14037 -1.40077 0
M  V30 7240 H 677.643 -4.09348 -3.00661 0
M  V30 7241 H 677.573 -2.94421 -4.36605 0
M  V30 7242 H 680.064 -2.43536 -2.88961 0
M  V30 7243 H 680.377 -5.44207 -5.48688 0
M  V30 7244 H 678.722 -4.88926 -4.93939 0
M  V30 7245 H 681.913 -3.08058 -3.52445 0
M  V30 7246 H 682.086 -4.4515 -4.70898 0
M  V30 7247 N 675.492 1.28418 -0.913599 0
M  V30 7248 C 676.74 1.94596 -0.545594 0
M  V30 7249 C 677.061 1.7227 0.913668 0
M  V30 7250 O 676.331 1.06233 1.64595 0
M  V30 7251 H 674.911 0.720065 -0.198783 0
M  V30 7252 H 677.573 1.56404 -1.16292 0
M  V30 7253 H 676.669 3.03202 -0.739911 0
M  V30 7254 N 676.97 0.677563 1.42291 0
M  V30 7255 C 677.918 -0.0106755 2.32598 0
M  V30 7256 C 678.912 -0.787643 1.49975 0
M  V30 7257 O 680.118 -0.695295 1.66029 0
M  V30 7258 H 676.493 -0.0222482 0.751671 0
M  V30 7259 H 678.464 0.768312 2.88339 0
M  V30 7260 C 677.213 -0.946142 3.3458 0
M  V30 7261 H 676.536 -0.357701 3.98197 0
M  V30 7262 H 677.976 -1.39634 4.00348 0
M  V30 7263 C 676.435 -2.05383 2.67057 0
M  V30 7264 O 676.965 -3.1406 2.50458 0
M  V30 7265 N 675.171 -1.82635 2.26038 0
M  V30 7266 H 674.718 -0.942534 2.39737 0
M  V30 7267 H 674.676 -2.56937 1.81192 0
M  V30 7268 N 678.448 -1.51871 0.421078 0
M  V30 7269 C 679.395 -2.27334 -0.398508 0
M  V30 7270 C 680.365 -1.30241 -1.03085 0
M  V30 7271 O 681.55 -1.59121 -1.05285 0
M  V30 7272 C 678.69 -3.10664 -1.50272 0
M  V30 7273 C 677.803 -4.2273 -0.890122 0
M  V30 7274 C 676.938 -4.93399 -1.96803 0
M  V30 7275 C 675.977 -5.97409 -1.333 0
M  V30 7276 N 675.114 -6.61548 -2.35156 0
M  V30 7277 H 679.954 -2.96938 0.251411 0
M  V30 7278 H 677.491 -1.46472 0.135825 0
M  V30 7279 H 679.449 -3.57292 -2.15403 0
M  V30 7280 H 678.079 -2.43207 -2.1225 0
M  V30 7281 H 677.131 -3.80186 -0.127537 0
M  V30 7282 H 678.443 -4.97302 -0.386349 0
M  V30 7283 H 677.597 -5.43491 -2.69633 0
M  V30 7284 H 676.336 -4.18421 -2.50549 0
M  V30 7285 H 675.341 -5.46624 -0.59008 0
M  V30 7286 H 676.566 -6.74335 -0.803076 0
M  V30 7287 H 674.512 -5.89394 -2.88012 0
M  V30 7288 H 674.429 -7.31832 -1.89624 0
M  V30 7289 H 675.697 -7.16276 -3.0752 0
M  V30 7290 N 679.926 -0.151884 -1.56866 0
M  V30 7291 C 681.172 0.492327 -1.97352 0
M  V30 7292 C 681.527 1.62156 -1.03553 0
M  V30 7293 O 680.82 1.91467 -0.0714872 0
M  V30 7294 C 681.014 1.04074 -3.41911 0
M  V30 7295 C 680.843 -0.0338306 -4.49687 0
M  V30 7296 C 679.613 -0.476914 -5.03044 0
M  V30 7297 C 681.811 -0.827105 -5.07606 0
M  V30 7298 N 679.793 -1.53382 -5.9443 0
M  V30 7299 C 681.164 -1.73439 -5.95247 0
M  V30 7300 C 683.219 -0.874351 -4.90163 0
M  V30 7301 C 681.922 -2.68488 -6.67313 0
M  V30 7302 C 683.948 -1.81269 -5.62935 0
M  V30 7303 C 683.31 -2.70749 -6.50288 0
M  V30 7304 H 679.409 0.148822 -0.767708 0
M  V30 7305 H 681.993 -0.247615 -1.93119 0
M  V30 7306 H 680.164 1.75027 -3.46728 0
M  V30 7307 H 681.896 1.65197 -3.69448 0
M  V30 7308 H 678.651 -0.0782493 -4.73535 0
M  V30 7309 H 679.075 -2.06217 -6.44828 0
M  V30 7310 H 683.717 -0.196628 -4.22343 0
M  V30 7311 H 681.435 -3.37257 -7.34359 0
M  V30 7312 H 685.021 -1.85511 -5.51432 0
M  V30 7313 H 683.901 -3.42175 -7.0561 0
M  V30 7314 N 681.404 1.57128 0.121893 0
M  V30 7315 C 682.334 2.03165 1.15092 0
M  V30 7316 C 683.315 0.915587 1.43356 0
M  V30 7317 O 684.5 1.1851 1.53847 0
M  V30 7318 C 681.63 2.43352 2.47784 0
M  V30 7319 C 680.584 3.58376 2.33989 0
M  V30 7320 C 679.91 3.84454 3.71617 0
M  V30 7321 C 681.21 4.90199 1.80283 0
M  V30 7322 H 682.904 2.89382 0.768023 0
M  V30 7323 H 680.45 1.39218 0.367998 0
M  V30 7324 H 682.403 2.74163 3.20019 0
M  V30 7325 H 681.127 1.54103 2.87958 0
M  V30 7326 H 679.786 3.2777 1.64202 0
M  V30 7327 H 679.434 2.92414 4.09271 0
M  V30 7328 H 679.134 4.61877 3.6324 0
M  V30 7329 H 680.658 4.17714 4.45362 0
M  V30 7330 H 682.072 5.19565 2.42333 0
M  V30 7331 H 680.469 5.71601 1.82735 0
M  V30 7332 H 681.539 4.78904 0.760184 0
M  V30 7333 N 682.882 -0.391992 1.52647 0
M  V30 7334 C 683.83 -1.4991 1.77848 0
M  V30 7335 C 684.824 -1.56587 0.646282 0
M  V30 7336 O 686.03 -1.59789 0.828698 0
M  V30 7337 H 682.405 -0.498883 0.56269 0
M  V30 7338 H 684.376 -1.25847 2.70564 0
M  V30 7339 C 683.125 -2.87081 1.96163 0
M  V30 7340 H 682.448 -2.82692 2.82711 0
M  V30 7341 H 683.888 -3.63792 2.17787 0
M  V30 7342 C 682.347 -3.28822 0.733348 0
M  V30 7343 O 682.877 -4.01598 -0.0906481 0
M  V30 7344 N 681.083 -2.85068 0.564317 0
M  V30 7345 H 680.63 -2.26012 1.23598 0
M  V30 7346 H 680.588 -3.13355 -0.256166 0
M  V30 7347 N 684.36 -1.4356 -0.65026 0
M  V30 7348 C 685.6 -1.46839 -1.42188 0
M  V30 7349 C 685.964 -0.0911433 -1.91784 0
M  V30 7350 O 687.165 0.00137545 -2.688 0
M  V30 7351 C 685.436 -2.48411 -2.56957 0
M  V30 7352 S 686.995 -2.70589 -3.45438 0
M  V30 7353 H 683.813 -0.519596 -0.485325 0
M  V30 7354 H 686.415 -1.80347 -0.75466 0
M  V30 7355 H 685.119 -3.47209 -2.18801 0
M  V30 7356 H 684.65 -2.16411 -3.28527 0
M  V30 7357 H 686.665 -2.00738 -4.53782 0
M  V30 7358 N 685.838 0.888903 -1.30139 0
M  V30 7359 C 687.254 1.17153 -1.08385 0
M  V30 7360 C 687.454 2.0088 0.157925 0
M  V30 7361 O 686.51 2.37668 0.852652 0
M  V30 7362 C 687.823 1.882 -2.34523 0
M  V30 7363 C 689.371 2.00981 -2.39949 0
M  V30 7364 C 689.846 2.75441 -3.65918 0
M  V30 7365 N 691.337 2.82989 -3.66704 0
M  V30 7366 C 692.072 3.41167 -4.60861 0
M  V30 7367 N 691.568 4.00425 -5.6536 0
M  V30 7368 N 693.361 3.38944 -4.48412 0
M  V30 7369 H 685.512 0.33053 -2.09812 0
M  V30 7370 H 687.775 0.208964 -0.924683 0
M  V30 7371 H 687.481 1.34119 -3.25123 0
M  V30 7372 H 687.355 2.88609 -2.42868 0
M  V30 7373 H 689.742 2.54234 -1.4983 0
M  V30 7374 H 689.823 0.996725 -2.35582 0
M  V30 7375 H 689.467 2.22861 -4.56394 0
M  V30 7376 H 689.397 3.77118 -3.67546 0
M  V30 7377 H 691.888 2.40912 -2.91153 0
M  V30 7378 H 692.201 4.42871 -6.33313 0
M  V30 7379 H 690.546 3.98856 -5.69157 0
M  V30 7380 H 693.737 2.91875 -3.6596 0
M  V30 7381 H 693.91 3.83989 -5.21974 0
M  V30 7382 N 687.317 1.12792 1.10072 0
M  V30 7383 C 688.547 0.907189 1.85617 0
M  V30 7384 C 688.955 -0.547181 1.81115 0
M  V30 7385 O 688.298 -1.39024 1.20075 0
M  V30 7386 C 688.36 1.30872 3.34832 0
M  V30 7387 C 688.024 2.77516 3.6309 0
M  V30 7388 C 689.021 3.75696 3.59373 0
M  V30 7389 C 686.706 3.14513 3.91646 0
M  V30 7390 C 688.7 5.08888 3.83812 0
M  V30 7391 C 686.387 4.47886 4.15742 0
M  V30 7392 C 687.385 5.44882 4.11816 0
M  V30 7393 O 687.073 6.7585 4.35295 0
M  V30 7394 H 686.805 0.323855 0.593375 0
M  V30 7395 H 689.359 1.50262 1.40038 0
M  V30 7396 H 687.589 0.656518 3.81086 0
M  V30 7397 H 689.278 1.06153 3.91773 0
M  V30 7398 H 690.044 3.48458 3.37345 0
M  V30 7399 H 685.923 2.39622 3.93831 0
M  V30 7400 H 689.467 5.84586 3.80663 0
M  V30 7401 H 685.364 4.74851 4.37249 0
M  V30 7402 H 686.132 6.81853 4.52791 0
M  V30 7403 N 688.795 -1.27931 0.920396 0
M  V30 7404 C 690.043 -1.94304 0.555906 0
M  V30 7405 C 690.364 -1.72753 -0.904519 0
M  V30 7406 O 689.634 -1.07104 -1.64029 0
M  V30 7407 H 688.214 -0.719001 0.202599 0
M  V30 7408 H 690.876 -1.55785 1.1712 0
M  V30 7409 H 689.972 -3.02806 0.755981 0
M  V30 7410 O 690.312 -0.824023 -1.38896 0
M  V30 7411 H 691.003 -0.40654 -1.89386 0
M  V30 END ATOM
M  V30 BEGIN BOND
M  V30 END BOND
M  V30 END CTAB
M  END
$$$$
