drugbank_target|P81180 Cyanovirin-N (DB02695; DB03309)
 OpenBabel12092120013D

  0  0  0     0  0            999 V3000
M  V30 BEGIN CTAB
M  V30 COUNTS 1515 1524 0 0 0
M  V30 BEGIN ATOM
M  V30 1 H -0.908 1.98254 -0.117106 0
M  V30 2 N 0 1.576 0 0
M  V30 3 C 0.93 2.11458 0.990341 0
M  V30 4 C 1.911 1.02372 1.35845 0
M  V30 5 O 3.096 1.30055 1.4422 0
M  V30 6 C 0.226 2.61788 2.2822 0
M  V30 7 C -0.82 3.754 2.0557 0
M  V30 8 C -1.494 4.12045 3.40769 0
M  V30 9 C -0.194 5.02675 1.41829 0
M  V30 10 H 1.5 2.94455 0.541905 0
M  V30 11 H -0.954 1.41648 0.259219 0
M  V30 12 H 0.999 2.98093 2.97856 0
M  V30 13 H -0.277 1.75913 2.75177 0
M  V30 14 H -1.618 3.39488 1.38359 0
M  V30 15 H -1.97 3.23193 3.85429 0
M  V30 16 H -2.27 4.88587 3.26429 0
M  V30 17 H -0.746 4.50909 4.1172 0
M  V30 18 H 0.668 5.36751 2.01422 0
M  V30 19 H -0.935 5.84022 1.37978 0
M  V30 20 H 0.135 4.83349 0.387506 0
M  V30 21 N 1.4781 -0.272755 1.55222 0
M  V30 22 C 2.7261 -1.00234 1.75492 0
M  V30 23 C 3.0471 -1.8681 0.5592 0
M  V30 24 O 2.3171 -1.91215 -0.425882 0
M  V30 25 H 0.8971 -0.373076 0.647166 0
M  V30 26 H 3.5591 -0.296926 1.92625 0
M  V30 27 H 2.6551 -1.63913 2.65592 0
M  V30 28 N 2.9562 -1.48159 -0.537278 0
M  V30 29 C 3.9032 -1.62138 -1.64256 0
M  V30 30 C 4.8732 -0.463668 -1.59497 0
M  V30 31 O 6.0582 -0.686241 -1.78032 0
M  V30 32 C 3.1982 -1.66028 -3.02537 0
M  V30 33 C 2.3112 -2.92855 -3.17585 0
M  V30 34 C 1.4462 -2.87952 -4.46382 0
M  V30 35 C 0.4852 -4.09516 -4.54932 0
M  V30 36 N -0.3778 -4.02733 -5.75109 0
M  V30 37 H 4.4622 -2.56529 -1.51647 0
M  V30 38 H 1.9992 -1.27224 -0.738414 0
M  V30 39 H 3.9572 -1.66265 -3.82638 0
M  V30 40 H 2.5872 -0.751331 -3.13934 0
M  V30 41 H 1.6392 -3.02395 -2.30784 0
M  V30 42 H 2.9512 -3.82822 -3.19764 0
M  V30 43 H 2.1052 -2.8655 -5.34765 0
M  V30 44 H 0.8442 -1.95702 -4.46712 0
M  V30 45 H -0.1508 -4.11201 -3.64957 0
M  V30 46 H 1.0742 -5.02917 -4.56346 0
M  V30 47 H -0.9798 -3.13299 -5.76351 0
M  V30 48 H -1.0628 -4.86397 -5.78752 0
M  V30 49 H 0.2052 -4.05379 -6.65799 0
M  V30 50 N 4.4343 0.785586 -1.36625 0
M  V30 51 C 5.6813 1.54362 -1.31067 0
M  V30 52 C 6.0093 1.94195 0.10893 0
M  V30 53 O 5.2643 1.63262 1.07908 0
M  V30 54 C 5.5633 2.83007 -2.1827 0
M  V30 55 C 5.2293 2.62294 -3.6676 0
M  V30 56 C 3.8913 2.56353 -4.0723 0
M  V30 57 C 6.2433 2.43371 -4.6089 0
M  V30 58 C 3.5713 2.29461 -5.39967 0
M  V30 59 C 5.9233 2.18005 -5.93849 0
M  V30 60 C 4.5873 2.105 -6.3344 0
M  V30 61 H 3.8573 0.564851 -0.479609 0
M  V30 62 H 6.5043 0.906028 -1.68711 0
M  V30 63 H 4.8093 3.51253 -1.73576 0
M  V30 64 H 6.5063 3.40817 -2.11292 0
M  V30 65 H 3.0963 2.67774 -3.34656 0
M  V30 66 H 7.2803 2.46959 -4.30494 0
M  V30 67 H 2.5363 2.22135 -5.69619 0
M  V30 68 H 6.7103 2.02359 -6.66351 0
M  V30 69 H 4.3373 1.89425 -7.36222 0
M  V30 70 N 5.9124 1.20967 1.01018 0
M  V30 71 C 7.1374 1.0503 1.78839 0
M  V30 72 C 7.5624 -0.395752 1.8389 0
M  V30 73 O 6.9204 -1.28529 1.27867 0
M  V30 74 C 6.9684 1.64602 3.2084 0
M  V30 75 O 6.0724 0.887988 4.02726 0
M  V30 76 H 5.4134 0.369987 0.551367 0
M  V30 77 H 7.9434 1.60399 1.27018 0
M  V30 78 H 7.9534 1.68607 3.71532 0
M  V30 79 H 6.6284 2.69841 3.16479 0
M  V30 80 H 5.2054 0.922648 3.61305 0
M  V30 81 N 7.3905 -1.2043 1.01659 0
M  V30 82 C 8.3225 -2.22626 0.544988 0
M  V30 83 C 9.3355 -1.58479 -0.372609 0
M  V30 84 O 10.5245 -1.77679 -0.170958 0
M  V30 85 C 7.6245 -3.38141 -0.22663 0
M  V30 86 C 6.7975 -4.31877 0.692876 0
M  V30 87 C 5.8565 -5.26191 -0.0311616 0
M  V30 88 O 4.8825 -5.6612 0.591343 0
M  V30 89 N 6.0845 -5.65618 -1.30601 0
M  V30 90 H 8.8495 -2.63716 1.42388 0
M  V30 91 H 6.4105 -1.34971 0.894116 0
M  V30 92 H 8.4025 -3.98239 -0.72024 0
M  V30 93 H 6.9725 -2.95943 -1.00681 0
M  V30 94 H 6.1925 -3.69746 1.36679 0
M  V30 95 H 7.4805 -4.91426 1.31824 0
M  V30 96 H 6.8785 -5.3519 -1.83269 0
M  V30 97 H 5.4355 -6.28025 -1.74435 0
M  V30 98 N 8.8686 -0.792821 -1.36206 0
M  V30 99 C 10.0966 -0.378825 -2.03402 0
M  V30 100 C 10.5116 1.00586 -1.59774 0
M  V30 101 O 9.8686 1.64574 -0.788764 0
M  V30 102 C 9.9196 -0.43683 -3.58851 0
M  V30 103 O 9.6406 -1.76691 -4.00889 0
M  V30 104 C 11.1416 -0.0138943 -4.43298 0
M  V30 105 H 8.3616 -0.155673 -0.652692 0
M  V30 106 H 10.9056 -1.07261 -1.74113 0
M  V30 107 H 9.0606 0.208575 -3.86838 0
M  V30 108 H 9.4746 -1.72011 -4.95492 0
M  V30 109 H 10.9486 -0.105615 -5.51899 0
M  V30 110 H 11.4256 1.03915 -4.2673 0
M  V30 111 H 12.0316 -0.63192 -4.20579 0
M  V30 112 N 10.3467 1.47872 -0.545128 0
M  V30 113 C 11.5867 2.04391 -0.0187854 0
M  V30 114 C 11.9507 1.41162 1.30144 0
M  V30 115 O 13.1517 1.88656 1.91474 0
M  V30 116 C 11.4227 3.57299 0.0850867 0
M  V30 117 S 12.9817 4.35221 0.559302 0
M  V30 118 H 9.7997 0.710737 -0.0193301 0
M  V30 119 H 12.4017 1.81395 -0.729125 0
M  V30 120 H 11.1057 4.00847 -0.880351 0
M  V30 121 H 10.6367 3.84773 0.819348 0
M  V30 122 H 12.6517 4.61571 1.82118 0
M  V30 123 N 11.8248 0.280983 1.55075 0
M  V30 124 C 13.0548 -0.336804 2.03836 0
M  V30 125 C 13.4628 -1.49577 1.15859 0
M  V30 126 O 12.8058 -1.82888 0.172503 0
M  V30 127 C 12.8678 -0.874616 3.48699 0
M  V30 128 C 12.5318 0.156478 4.56732 0
M  V30 129 C 13.5288 0.978032 5.10618 0
M  V30 130 C 11.2138 0.292409 5.01448 0
M  V30 131 C 13.2078 1.92165 6.07743 0
M  V30 132 C 10.8948 1.23949 5.98398 0
M  V30 133 C 11.8928 2.05261 6.51427 0
M  V30 134 O 11.5808 2.98367 7.4648 0
M  V30 135 H 11.3128 -0.0800885 0.671239 0
M  V30 136 H 13.8668 0.412589 2.01213 0
M  V30 137 H 12.0968 -1.67418 3.4858 0
M  V30 138 H 13.7858 -1.40612 3.80766 0
M  V30 139 H 14.5518 0.883782 4.7688 0
M  V30 140 H 10.4308 -0.330498 4.59814 0
M  V30 141 H 13.9748 2.55672 6.49059 0
M  V30 142 H 9.8718 1.33454 6.31554 0
M  V30 143 H 10.6398 2.93116 7.64215 0
M  V30 144 N 13.3029 -1.57598 0.00835791 0
M  V30 145 C 14.2509 -2.10078 -0.998508 0
M  V30 146 C 15.2449 -1.02262 -1.35051 0
M  V30 147 O 16.4509 -1.20719 -1.33518 0
M  V30 148 H 12.8259 -0.670903 -0.339696 0
M  V30 149 H 14.7969 -2.93648 -0.530398 0
M  V30 150 C 13.5459 -2.62615 -2.27879 0
M  V30 151 H 12.8689 -3.45213 -2.01662 0
M  V30 152 H 14.3089 -3.03004 -2.96588 0
M  V30 153 C 12.7679 -1.54407 -2.99433 0
M  V30 154 O 13.2979 -0.931812 -3.90743 0
M  V30 155 N 11.5039 -1.2695 -2.61404 0
M  V30 156 H 11.0509 -1.76924 -1.87232 0
M  V30 157 H 11.0089 -0.547704 -3.09593 0
M  V30 158 N 14.781 0.264519 -1.55364 0
M  V30 159 C 16.006 1.01726 -1.80739 0
M  V30 160 C 16.431 1.78836 -0.583044 0
M  V30 161 O 15.789 1.75167 0.467566 0
M  V30 162 C 15.837 1.94482 -3.03659 0
M  V30 163 O 14.941 3.03386 -2.7934 0
M  V30 164 H 14.282 0.290395 -0.597132 0
M  V30 165 H 16.812 0.290854 -2.02522 0
M  V30 166 H 16.822 2.36278 -3.32621 0
M  V30 167 H 15.497 1.37772 -3.92418 0
M  V30 168 H 14.074 2.65844 -2.61498 0
M  V30 169 N 16.2591 1.48442 0.529413 0
M  V30 170 C 17.2221 1.62524 1.61612 0
M  V30 171 C 18.2221 0.498509 1.52877 0
M  V30 172 O 19.4121 0.76431 1.56537 0
M  V30 173 C 16.5441 1.59597 3.01233 0
M  V30 174 H 17.7371 2.59423 1.50465 0
M  V30 175 H 15.2901 1.37047 0.751514 0
M  V30 176 H 16.0251 0.641781 3.17886 0
M  V30 177 H 15.8101 2.41397 3.08982 0
M  V30 178 H 17.3001 1.72646 3.80241 0
M  V30 179 N 17.7372 -0.778329 1.37039 0
M  V30 180 C 18.9862 -1.53189 1.3121 0
M  V30 181 C 19.2992 -1.95328 -0.103095 0
M  V30 182 O 20.5052 -2.70012 -0.283826 0
M  V30 183 C 18.9612 -2.76591 2.30272 0
M  V30 184 C 18.5692 -2.41577 3.77286 0
M  V30 185 C 20.3132 -3.5455 2.33441 0
M  V30 186 C 18.2202 -3.61441 4.68096 0
M  V30 187 H 17.1502 -0.5751 0.487622 0
M  V30 188 H 19.8012 -0.853101 1.62464 0
M  V30 189 H 18.1832 -3.46326 1.92027 0
M  V30 190 H 19.3572 -1.79668 4.2433 0
M  V30 191 H 17.6722 -1.76806 3.76999 0
M  V30 192 H 20.2692 -4.43628 2.98493 0
M  V30 193 H 20.6122 -3.93936 1.34611 0
M  V30 194 H 21.1452 -2.91805 2.7036 0
M  V30 195 H 17.8842 -3.27142 5.6803 0
M  V30 196 H 17.4042 -4.22478 4.25761 0
M  V30 197 H 19.0832 -4.28335 4.8491 0
M  V30 198 N 19.2153 -1.21501 -1.00376 0
M  V30 199 C 20.1473 -0.933174 -2.09343 0
M  V30 200 C 21.1603 0.0840896 -1.62583 0
M  V30 201 O 22.3493 -0.148563 -1.77881 0
M  V30 202 C 19.4493 -0.379869 -3.36764 0
M  V30 203 C 18.6223 -1.45176 -4.12605 0
M  V30 204 C 17.6813 -0.907476 -5.18316 0
M  V30 205 O 16.7073 -1.5912 -5.46507 0
M  V30 206 N 17.9093 0.276649 -5.7984 0
M  V30 207 H 20.6743 -1.87124 -2.34104 0
M  V30 208 H 18.2353 -1.12043 -1.16867 0
M  V30 209 H 20.2273 -0.00131488 -4.047 0
M  V30 210 H 18.7973 0.463048 -3.09151 0
M  V30 211 H 18.0173 -2.00411 -3.39454 0
M  V30 212 H 19.3053 -2.17328 -4.6005 0
M  V30 213 H 18.7033 0.849147 -5.59291 0
M  V30 214 H 17.2603 0.596702 -6.49063 0
M  V30 215 N 20.6934 1.19889 -1.02296 0
M  V30 216 C 21.9414 1.89046 -0.714558 0
M  V30 217 C 22.2624 1.79636 0.758681 0
M  V30 218 O 21.5324 1.20292 1.54618 0
M  V30 219 H 20.1124 0.699802 -0.261317 0
M  V30 220 H 22.7744 1.45574 -1.29592 0
M  V30 221 H 21.8704 2.95524 -1.0036 0
M  V30 222 N 22.1715 0.800033 1.35784 0
M  V30 223 C 23.3965 0.388511 2.03729 0
M  V30 224 C 23.8215 -0.990481 1.5991 0
M  V30 225 O 23.1795 -1.64013 0.772612 0
M  V30 226 C 23.2275 0.4726 3.5749 0
M  V30 227 O 22.3315 -0.51646 4.09153 0
M  V30 228 H 21.6725 0.163271 0.643614 0
M  V30 229 H 24.2025 1.0841 1.73518 0
M  V30 230 H 24.2125 0.34003 4.06581 0
M  V30 231 H 22.8875 1.47848 3.88734 0
M  V30 232 H 21.4645 -0.344673 3.71304 0
M  V30 233 N 23.6496 -1.47581 0.552962 0
M  V30 234 C 24.8956 -2.02782 0.0273648 0
M  V30 235 C 25.2286 -1.42687 -1.31734 0
M  V30 236 O 24.5036 -0.580897 -1.85623 0
M  V30 237 C 24.7866 -3.60031 -0.0702371 0
M  V30 238 C 24.6396 -4.30566 1.30126 0
M  V30 239 C 25.9586 -4.33028 -0.785771 0
M  V30 240 H 23.0776 -0.736912 0.0114185 0
M  V30 241 H 25.7196 -1.76056 0.714432 0
M  V30 242 H 23.8696 -3.82932 -0.655382 0
M  V30 243 H 25.5416 -4.19018 1.92929 0
M  V30 244 H 23.7846 -3.91086 1.87709 0
M  V30 245 H 24.4556 -5.39114 1.18573 0
M  V30 246 H 26.9316 -4.15095 -0.288982 0
M  V30 247 H 25.8076 -5.42695 -0.823013 0
M  V30 248 H 26.0686 -4.01945 -1.841 0
M  V30 249 N 25.1277 -0.289203 -1.54924 0
M  V30 250 C 26.0577 0.58549 -2.2604 0
M  V30 251 C 27.0387 1.14753 -1.25562 0
M  V30 252 O 28.2237 1.17906 -1.54311 0
M  V30 253 C 25.3537 1.76305 -2.99222 0
M  V30 254 C 24.3077 1.33191 -4.06748 0
M  V30 255 C 23.6337 2.5937 -4.6758 0
M  V30 256 C 24.9337 0.471775 -5.20165 0
M  V30 257 H 26.6277 -0.00763532 -2.99399 0
M  V30 258 H 24.1737 -0.00511229 -1.43999 0
M  V30 259 H 26.1267 2.38097 -3.47689 0
M  V30 260 H 24.8507 2.38223 -2.23422 0
M  V30 261 H 23.5097 0.737121 -3.59113 0
M  V30 262 H 23.1577 3.19576 -3.88433 0
M  V30 263 H 22.8577 2.31228 -5.40192 0
M  V30 264 H 24.3817 3.21985 -5.18804 0
M  V30 265 H 25.7957 0.995056 -5.64599 0
M  V30 266 H 24.1927 0.284639 -5.99425 0
M  V30 267 H 25.2627 -0.506041 -4.82252 0
M  V30 268 N 26.6058 1.57591 -0.0167156 0
M  V30 269 C 27.8338 1.95575 0.675128 0
M  V30 270 C 28.2488 0.892542 1.6637 0
M  V30 271 O 27.6058 -0.126912 1.82058 0
M  V30 272 C 27.6568 3.33608 1.39239 0
M  V30 273 O 27.3778 4.3585 0.443444 0
M  V30 274 C 28.8788 3.86151 2.17721 0
M  V30 275 H 26.0988 0.644423 0.186978 0
M  V30 276 H 28.6428 2.0437 -0.0728 0
M  V30 277 H 26.7978 3.2607 2.09182 0
M  V30 278 H 27.2118 5.158 0.951358 0
M  V30 279 H 28.6858 4.85114 2.63379 0
M  V30 280 H 29.1628 3.19738 3.01105 0
M  V30 281 H 29.7688 3.96918 1.52761 0
M  V30 282 N 28.0839 -0.256276 1.55502 0
M  V30 283 C 29.3089 -1.00766 1.81276 0
M  V30 284 C 29.7339 -1.78524 0.59252 0
M  V30 285 O 29.0919 -1.75413 -0.45827 0
M  V30 286 C 29.1399 -1.92869 3.04687 0
M  V30 287 O 28.2439 -3.019 2.80945 0
M  V30 288 H 27.5849 -0.287224 0.598664 0
M  V30 289 H 30.1149 -0.280109 2.02674 0
M  V30 290 H 30.1249 -2.34511 3.33869 0
M  V30 291 H 28.7999 -1.35689 3.93143 0
M  V30 292 H 27.3769 -2.64454 2.62904 0
M  V30 293 N 29.562 -1.4872 -0.521534 0
M  V30 294 C 30.79 -1.60843 -1.30142 0
M  V30 295 C 31.205 -0.271897 -1.86832 0
M  V30 296 O 30.562 0.739969 -1.66825 0
M  V30 297 C 30.613 -2.66155 -2.4463 0
M  V30 298 O 30.334 -3.94623 -1.90275 0
M  V30 299 C 31.835 -2.88795 -3.36322 0
M  V30 300 H 29.055 -0.542075 -0.395468 0
M  V30 301 H 31.599 -1.94609 -0.628285 0
M  V30 302 H 29.754 -2.35224 -3.07812 0
M  V30 303 H 30.168 -4.52468 -2.65279 0
M  V30 304 H 31.642 -3.66264 -4.12983 0
M  V30 305 H 32.119 -1.97934 -3.9207 0
M  V30 306 H 32.725 -3.21063 -2.78924 0
M  V30 307 N 31.0401 0.771051 -1.3745 0
M  V30 308 C 32.2801 1.54264 -1.34096 0
M  V30 309 C 32.6441 1.91858 0.0737639 0
M  V30 310 O 33.8451 2.67797 0.23203 0
M  V30 311 C 32.1161 2.77326 -2.25445 0
M  V30 312 S 33.6751 3.67383 -2.39948 0
M  V30 313 H 30.4931 0.528122 -0.476034 0
M  V30 314 H 33.0951 0.906633 -1.73206 0
M  V30 315 H 31.7991 2.47788 -3.27153 0
M  V30 316 H 31.3301 3.45886 -1.87421 0
M  V30 317 H 33.3451 4.69334 -1.61059 0
M  V30 318 N 32.5182 1.22032 0.997298 0
M  V30 319 C 33.4282 1.00271 2.12092 0
M  V30 320 C 34.4442 -0.047621 1.73935 0
M  V30 321 O 35.6202 0.144136 2.00884 0
M  V30 322 C 32.6852 0.578449 3.4184 0
M  V30 323 C 31.7462 1.70189 3.94125 0
M  V30 324 C 30.9792 1.29778 5.17681 0
M  V30 325 O 31.2022 0.174676 5.70132 0
M  V30 326 O 30.1362 2.11261 5.63607 0
M  V30 327 H 33.9622 1.94398 2.3333 0
M  V30 328 H 31.5472 1.00587 1.10465 0
M  V30 329 H 33.4292 0.351998 4.19927 0
M  V30 330 H 32.1042 -0.334019 3.21972 0
M  V30 331 H 31.0112 1.98282 3.1723 0
M  V30 332 H 32.3442 2.59206 4.18417 0
M  V30 333 N 33.9963 -1.19345 1.0293 0
M  V30 334 C 35.4123 -1.41069 0.746446 0
M  V30 335 C 35.6123 -1.90078 -0.668776 0
M  V30 336 O 34.6683 -2.0778 -1.4347 0
M  V30 337 C 35.9813 -2.42141 1.78292 0
M  V30 338 C 37.5293 -2.55887 1.80252 0
M  V30 339 C 38.0043 -3.60214 2.8286 0
M  V30 340 N 39.4953 -3.67711 2.81679 0
M  V30 341 C 40.2303 -4.48128 3.57727 0
M  V30 342 N 39.7263 -5.32248 4.43491 0
M  V30 343 N 41.5193 -4.42782 3.46267 0
M  V30 344 H 33.6703 -0.858536 1.94275 0
M  V30 345 H 35.9333 -0.439541 0.839945 0
M  V30 346 H 35.6393 -2.13155 2.79746 0
M  V30 347 H 35.5133 -3.41323 1.60557 0
M  V30 348 H 37.9003 -2.84196 0.794757 0
M  V30 349 H 37.9813 -1.56858 2.02062 0
M  V30 350 H 37.6253 -3.32647 3.83807 0
M  V30 351 H 37.5553 -4.58895 2.58307 0
M  V30 352 H 40.0463 -3.07634 2.19476 0
M  V30 353 H 40.3593 -5.90729 4.98256 0
M  V30 354 H 38.7043 -5.31707 4.47564 0
M  V30 355 H 41.8953 -3.76107 2.78677 0
M  V30 356 H 42.0683 -5.05215 4.05785 0
M  V30 357 N 35.4744 -0.807222 -1.35358 0
M  V30 358 C 36.7024 -0.400377 -2.02989 0
M  V30 359 C 37.1174 0.988859 -1.60832 0
M  V30 360 O 36.4744 1.63729 -0.806175 0
M  V30 361 C 36.5254 -0.474867 -3.58368 0
M  V30 362 O 36.2464 -1.80933 -3.98992 0
M  V30 363 C 37.7474 -0.0609112 -4.43258 0
M  V30 364 H 34.9674 -0.162587 -0.651004 0
M  V30 365 H 37.5114 -1.09102 -1.72965 0
M  V30 366 H 35.6664 0.167534 -3.87038 0
M  V30 367 H 36.0804 -1.77256 -4.9364 0
M  V30 368 H 37.5544 -0.164145 -5.51756 0
M  V30 369 H 38.0314 0.993831 -4.27808 0
M  V30 370 H 38.6374 -0.676492 -4.19885 0
M  V30 371 N 36.9525 1.47285 -0.560781 0
M  V30 372 C 37.9005 2.31756 0.197942 0
M  V30 373 C 38.8945 1.43146 0.905854 0
M  V30 374 O 40.1005 1.59891 0.826733 0
M  V30 375 H 36.4755 0.747438 0.0827049 0
M  V30 376 H 38.4465 2.9359 -0.533629 0
M  V30 377 C 37.1955 3.25874 1.21249 0
M  V30 378 H 36.5185 3.94023 0.67719 0
M  V30 379 H 37.9585 3.87803 1.71419 0
M  V30 380 C 36.4175 2.49651 2.26221 0
M  V30 381 O 36.9475 2.24355 3.33208 0
M  V30 382 N 35.1535 2.10597 2.00243 0
M  V30 383 H 34.7005 2.31369 1.13252 0
M  V30 384 H 34.6585 1.59913 2.70694 0
M  V30 385 N 38.4306 0.297415 1.54768 0
M  V30 386 C 39.6786 -0.312295 1.99673 0
M  V30 387 C 39.9996 -1.54686 1.18732 0
M  V30 388 O 39.2696 -1.93854 0.282382 0
M  V30 389 H 37.8496 -0.118381 0.73756 0
M  V30 390 H 40.5116 0.407915 1.90583 0
M  V30 391 H 39.6076 -0.586813 3.06534 0
M  V30 392 N 39.9087 -1.5758 0.0250728 0
M  V30 393 C 41.1567 -1.91255 -0.653151 0
M  V30 394 C 41.4777 -0.901691 -1.729 0
M  V30 395 O 40.7477 0.0573785 -1.95816 0
M  V30 396 H 39.3277 -0.705942 -0.244243 0
M  V30 397 H 41.9897 -1.94767 0.0719209 0
M  V30 398 H 41.0857 -2.91752 -1.10847 0
M  V30 399 N 41.3868 0.248026 -1.55636 0
M  V30 400 C 42.6168 0.992367 -1.81206 0
M  V30 401 C 43.0248 1.7949 -0.598324 0
M  V30 402 O 42.3678 1.78292 0.442434 0
M  V30 403 C 42.4298 1.97926 -3.00109 0
M  V30 404 C 42.0938 1.36377 -4.36177 0
M  V30 405 C 43.0908 0.76682 -5.14214 0
M  V30 406 C 40.7758 1.38347 -4.82872 0
M  V30 407 C 42.7698 0.197778 -6.37093 0
M  V30 408 C 40.4568 0.810574 -6.057 0
M  V30 409 C 41.4548 0.218754 -6.8265 0
M  V30 410 O 41.1428 -0.345298 -8.03158 0
M  V30 411 H 40.8748 0.297704 -0.606917 0
M  V30 412 H 43.4288 0.276517 -2.0353 0
M  V30 413 H 41.6588 2.73339 -2.73538 0
M  V30 414 H 43.3478 2.58694 -3.12781 0
M  V30 415 H 44.1138 0.744114 -4.79258 0
M  V30 416 H 39.9928 1.8335 -4.2297 0
M  V30 417 H 43.5368 -0.264788 -6.97097 0
M  V30 418 H 39.4338 0.830604 -6.40134 0
M  V30 419 H 40.2018 -0.237055 -8.18157 0
M  V30 420 N 42.8649 1.48995 0.513639 0
M  V30 421 C 43.8129 1.65199 1.63744 0
M  V30 422 C 44.8069 0.51809 1.61283 0
M  V30 423 O 46.0129 0.697335 1.65943 0
M  V30 424 H 42.3879 0.52069 0.542574 0
M  V30 425 H 44.3589 2.59552 1.47226 0
M  V30 426 C 43.1079 1.72409 3.01945 0
M  V30 427 H 42.4309 2.59029 3.04539 0
M  V30 428 H 43.8709 1.87785 3.80148 0
M  V30 429 C 42.3299 0.46618 3.33659 0
M  V30 430 O 42.8599 -0.413744 3.99564 0
M  V30 431 N 41.0659 0.332931 2.88687 0
M  V30 432 H 40.6129 1.04996 2.35231 0
M  V30 433 H 40.5709 -0.507665 3.10274 0
M  V30 434 N 44.343 -0.763751 1.37857 0
M  V30 435 C 45.571 -1.55293 1.36718 0
M  V30 436 C 45.986 -1.88745 -0.0455434 0
M  V30 437 O 45.343 -1.52039 -1.00947 0
M  V30 438 C 45.394 -2.85831 2.2132 0
M  V30 439 O 45.115 -2.5381 3.57089 0
M  V30 440 C 46.616 -3.80023 2.28249 0
M  V30 441 H 43.836 -0.480841 0.468009 0
M  V30 442 H 46.38 -0.946009 1.81303 0
M  V30 443 H 44.535 -3.42926 1.80223 0
M  V30 444 H 44.949 -3.37459 4.01524 0
M  V30 445 H 46.423 -4.68599 2.91752 0
M  V30 446 H 46.9 -4.1973 1.2932 0
M  V30 447 H 47.506 -3.28855 2.69693 0
M  V30 448 N 45.8211 -1.22559 -0.990812 0
M  V30 449 C 47.0461 -1.07862 -1.77145 0
M  V30 450 C 47.4711 0.366447 -1.84496 0
M  V30 451 O 46.8291 1.26478 -1.29896 0
M  V30 452 C 46.8771 -1.69686 -3.18181 0
M  V30 453 O 45.9811 -0.951946 -4.01263 0
M  V30 454 H 45.3221 -0.378712 -0.545411 0
M  V30 455 H 47.8521 -1.62399 -1.2445 0
M  V30 456 H 47.8621 -1.74496 -3.68802 0
M  V30 457 H 46.5371 -2.74841 -3.12146 0
M  V30 458 H 45.1141 -0.980011 -3.59792 0
M  V30 459 N 47.2992 1.18797 -1.03562 0
M  V30 460 C 48.5242 1.9314 -0.755764 0
M  V30 461 C 48.9492 1.7537 0.68022 0
M  V30 462 O 48.3072 1.06046 1.47051 0
M  V30 463 C 48.3552 3.42747 -1.12058 0
M  V30 464 O 47.4592 4.11683 -0.243124 0
M  V30 465 H 46.8002 0.602724 -0.278604 0
M  V30 466 H 49.3302 1.50678 -1.3841 0
M  V30 467 H 49.3402 3.93437 -1.08035 0
M  V30 468 H 48.0152 3.55002 -2.16672 0
M  V30 469 H 46.5922 3.71323 -0.342539 0
M  V30 470 N 48.7773 0.814389 1.34928 0
M  V30 471 C 50.0263 0.394871 1.97797 0
M  V30 472 C 50.3393 -1.04555 1.65311 0
M  V30 473 O 51.5453 -1.56856 2.21604 0
M  V30 474 C 50.0013 0.655103 3.53888 0
M  V30 475 C 49.6093 2.10858 3.95276 0
M  V30 476 C 51.3533 0.301329 4.23429 0
M  V30 477 C 49.2603 2.31415 5.44244 0
M  V30 478 H 48.1903 0.143913 0.740139 0
M  V30 479 H 50.8413 0.999544 1.53888 0
M  V30 480 H 49.2233 -0.0196253 3.95995 0
M  V30 481 H 50.3973 2.82176 3.64298 0
M  V30 482 H 48.7123 2.42297 3.38646 0
M  V30 483 H 51.3093 0.432869 5.32945 0
M  V30 484 H 51.6523 -0.75331 4.09428 0
M  V30 485 H 52.1853 0.930288 3.86769 0
M  V30 486 H 48.9243 3.35353 5.63222 0
M  V30 487 H 48.4443 1.6463 5.76764 0
M  V30 488 H 50.1233 2.13352 6.10811 0
M  V30 489 N 50.2554 -1.46986 0.568584 0
M  V30 490 C 51.5324 -1.95592 -0.0174074 0
M  V30 491 C 51.9124 -1.51124 -1.47393 0
M  V30 492 O 51.2604 -0.755329 -2.15655 0
M  V30 493 C 51.4704 -3.48719 0.139913 0
M  V30 494 C 52.8184 -4.246 0.000426376 0
M  V30 495 O 53.8424 -3.56135 0.0680316 0
M  V30 496 O 52.7014 -5.46302 -0.146988 0
M  V30 497 H 49.7954 -0.82498 -0.0577599 0
M  V30 498 H 52.3414 -1.57335 0.635909 0
M  V30 499 H 51.1134 -3.73927 1.15301 0
M  V30 500 H 50.7364 -3.93771 -0.550491 0
M  V30 501 N 51.7335 -0.305618 -1.54608 0
M  V30 502 C 52.6635 0.561482 -2.26649 0
M  V30 503 C 53.6445 1.13415 -1.26772 0
M  V30 504 O 54.8295 1.16262 -1.55553 0
M  V30 505 C 51.9595 1.73122 -3.01075 0
M  V30 506 C 50.9135 1.2887 -4.08138 0
M  V30 507 C 50.2395 2.54396 -4.70305 0
M  V30 508 C 51.5395 0.416578 -5.20636 0
M  V30 509 H 53.2335 -0.0393902 -2.99374 0
M  V30 510 H 50.7795 -0.020385 -1.43986 0
M  V30 511 H 52.7325 2.34396 -3.50195 0
M  V30 512 H 51.4565 2.3584 -2.25936 0
M  V30 513 H 50.1155 0.698991 -3.59875 0
M  V30 514 H 49.7635 3.15439 -3.918 0
M  V30 515 H 49.4635 2.25486 -5.42614 0
M  V30 516 H 50.9875 3.16464 -5.2219 0
M  V30 517 H 52.4015 0.935116 -5.65622 0
M  V30 518 H 50.7985 0.221046 -5.99693 0
M  V30 519 H 51.8685 -0.557162 -4.81688 0
M  V30 520 N 53.2116 1.57565 -0.0334293 0
M  V30 521 C 54.1596 2.1164 0.96496 0
M  V30 522 C 55.1536 1.04398 1.33407 0
M  V30 523 O 56.3596 1.22828 1.3158 0
M  V30 524 H 52.7346 0.676222 0.32898 0
M  V30 525 H 54.7056 2.94455 0.483614 0
M  V30 526 C 53.4546 2.66207 2.23672 0
M  V30 527 H 52.7776 3.48378 1.96145 0
M  V30 528 H 54.2176 3.07685 2.9173 0
M  V30 529 C 52.6766 1.59151 2.96939 0
M  V30 530 O 53.2066 0.993858 3.89211 0
M  V30 531 N 51.4126 1.31093 2.59351 0
M  V30 532 H 50.9596 1.7988 1.84393 0
M  V30 533 H 50.9176 0.596889 3.08682 0
M  V30 534 N 54.6897 -0.239769 1.55765 0
M  V30 535 C 55.9147 -0.988373 1.82335 0
M  V30 536 C 56.3397 -1.77886 0.611421 0
M  V30 537 O 55.6977 -1.75889 -0.439639 0
M  V30 538 C 55.7457 -1.89627 3.06715 0
M  V30 539 O 54.8497 -2.98904 2.84131 0
M  V30 540 H 54.1907 -0.280858 0.601677 0
M  V30 541 H 56.7207 -0.258597 2.02959 0
M  V30 542 H 56.7307 -2.30957 3.36338 0
M  V30 543 H 55.4057 -1.31511 3.9456 0
M  V30 544 H 53.9827 -2.61651 2.65694 0
M  V30 545 N 56.1678 -1.49265 -0.50573 0
M  V30 546 C 57.4138 -1.58748 -1.26202 0
M  V30 547 C 57.7468 -0.271227 -1.92297 0
M  V30 548 O 57.0218 0.724831 -1.80489 0
M  V30 549 C 57.3048 -2.74332 -2.33268 0
M  V30 550 C 57.1578 -4.15737 -1.71705 0
M  V30 551 C 58.4768 -2.85576 -3.34865 0
M  V30 552 H 55.5958 -0.577826 -0.457478 0
M  V30 553 H 58.2378 -1.81532 -0.560897 0
M  V30 554 H 56.3878 -2.55036 -2.93068 0
M  V30 555 H 58.0598 -4.46537 -1.15769 0
M  V30 556 H 56.3028 -4.21605 -1.02135 0
M  V30 557 H 56.9738 -4.92477 -2.49341 0
M  V30 558 H 59.4498 -3.03127 -2.8505 0
M  V30 559 H 58.3258 -3.68135 -4.07146 0
M  V30 560 H 58.5868 -1.94732 -3.96903 0
M  V30 561 N 57.6459 0.756429 -1.3826 0
M  V30 562 C 58.8949 1.51082 -1.3363 0
M  V30 563 C 59.2079 1.95467 0.0720068 0
M  V30 564 O 60.4139 2.7043 0.240834 0
M  V30 565 C 58.8699 2.72893 -2.34644 0
M  V30 566 C 58.4779 2.35544 -3.81081 0
M  V30 567 C 60.2219 3.50791 -2.39052 0
M  V30 568 C 58.1289 3.53948 -4.73787 0
M  V30 569 H 57.0589 0.56727 -0.49671 0
M  V30 570 H 59.7099 0.827147 -1.638 0
M  V30 571 H 58.0919 3.43227 -1.97513 0
M  V30 572 H 59.2659 1.72894 -4.27135 0
M  V30 573 H 57.5809 1.70786 -3.79764 0
M  V30 574 H 60.1779 4.38823 -3.05513 0
M  V30 575 H 60.5209 3.91745 -1.40861 0
M  V30 576 H 61.0539 2.87467 -2.74968 0
M  V30 577 H 57.7929 3.18064 -5.73163 0
M  V30 578 H 57.3129 4.15651 -4.32428 0
M  V30 579 H 58.9919 4.20566 -4.91663 0
M  V30 580 N 59.124 1.23083 0.984299 0
M  V30 581 C 60.034 1.02515 2.11016 0
M  V30 582 C 61.05 -0.0291702 1.73976 0
M  V30 583 O 62.226 0.165434 2.00719 0
M  V30 584 C 59.291 0.614673 3.41208 0
M  V30 585 C 58.352 1.74359 3.92297 0
M  V30 586 C 57.585 1.35261 5.16275 0
M  V30 587 O 57.808 0.235136 5.69915 0
M  V30 588 O 56.742 2.17227 5.61334 0
M  V30 589 H 60.568 1.96862 2.31255 0
M  V30 590 H 58.153 1.01753 1.09392 0
M  V30 591 H 60.035 0.396518 4.1953 0
M  V30 592 H 58.71 -0.299851 3.22308 0
M  V30 593 H 57.617 2.01635 3.1511 0
M  V30 594 H 58.95 2.63629 4.15645 0
M  V30 595 N 60.6021 -1.18246 1.0419 0
M  V30 596 C 61.5501 -2.23968 0.627792 0
M  V30 597 C 62.5441 -1.65828 -0.346019 0
M  V30 598 O 63.7501 -1.78733 -0.213175 0
M  V30 599 H 60.1251 -0.728939 0.184802 0
M  V30 600 H 62.0961 -2.56202 1.52981 0
M  V30 601 C 60.8451 -3.47699 0.00796591 0
M  V30 602 H 60.1681 -3.92734 0.748347 0
M  V30 603 H 61.6081 -4.23294 -0.24455 0
M  V30 604 C 60.0671 -3.13153 -1.24246 0
M  V30 605 O 60.5971 -3.27003 -2.33307 0
M  V30 606 N 58.8031 -2.67467 -1.13622 0
M  V30 607 H 58.3501 -2.56396 -0.248734 0
M  V30 608 H 58.3081 -2.44724 -1.97377 0
M  V30 609 N 62.0802 -0.821533 -1.34494 0
M  V30 610 C 63.3262 -0.409552 -1.98622 0
M  V30 611 C 63.6592 1.0244 -1.64984 0
M  V30 612 O 62.9342 1.71325 -0.920758 0
M  V30 613 C 63.2172 -0.610458 -3.54888 0
M  V30 614 C 63.0702 -2.09043 -3.98273 0
M  V30 615 C 64.3892 -0.0455379 -4.40076 0
M  V30 616 H 61.5082 -0.15028 -0.721516 0
M  V30 617 H 64.1502 -1.03384 -1.59411 0
M  V30 618 H 62.3002 -0.079044 -3.8842 0
M  V30 619 H 63.9722 -2.68537 -3.75081 0
M  V30 620 H 62.2152 -2.58139 -3.48635 0
M  V30 621 H 62.8862 -2.18182 -5.07051 0
M  V30 622 H 65.3622 -0.499557 -4.1309 0
M  V30 623 H 64.2382 -0.215922 -5.48475 0
M  V30 624 H 64.4992 1.04939 -4.29465 0
M  V30 625 N 63.5583 1.46682 -0.576371 0
M  V30 626 C 64.8353 1.95599 0.00703437 0
M  V30 627 C 65.2153 1.51904 1.46589 0
M  V30 628 O 64.5633 0.766755 2.15251 0
M  V30 629 C 64.7733 3.4864 -0.158404 0
M  V30 630 C 66.1213 4.24594 -0.0229439 0
M  V30 631 O 67.1453 3.56094 -0.0869173 0
M  V30 632 O 66.0043 5.46373 0.118015 0
M  V30 633 H 63.0983 0.825275 0.053384 0
M  V30 634 H 65.6443 1.56996 -0.644244 0
M  V30 635 H 64.4163 3.7331 -1.17282 0
M  V30 636 H 64.0393 3.94057 0.5296 0
M  V30 637 N 65.0364 0.313813 1.54444 0
M  V30 638 C 66.2844 -0.291099 1.99993 0
M  V30 639 C 66.6054 -1.53418 1.20366 0
M  V30 640 O 65.8754 -1.93544 0.302927 0
M  V30 641 H 64.4554 -0.110552 0.738774 0
M  V30 642 H 67.1174 0.428106 1.9014 0
M  V30 643 H 66.2134 -0.554268 3.07139 0
M  V30 644 N 66.5145 -1.57545 0.0417849 0
M  V30 645 C 67.7395 -1.97035 -0.647455 0
M  V30 646 C 68.1645 -0.918775 -1.64135 0
M  V30 647 O 67.5225 0.119006 -1.80909 0
M  V30 648 C 67.5705 -3.35609 -1.31905 0
M  V30 649 O 66.6745 -3.3287 -2.43457 0
M  V30 650 H 66.0155 -0.64211 -0.169086 0
M  V30 651 H 68.5455 -2.04318 0.107399 0
M  V30 652 H 68.5555 -3.72126 -1.67291 0
M  V30 653 H 67.2305 -4.11685 -0.590586 0
M  V30 654 H 65.8075 -3.08087 -2.10088 0
M  V30 655 N 67.9926 0.231505 -1.5589 0
M  V30 656 C 68.9226 1.29022 -1.94617 0
M  V30 657 C 69.9036 1.4941 -0.813067 0
M  V30 658 O 71.0886 1.6176 -1.07459 0
M  V30 659 C 68.2186 2.64199 -2.25424 0
M  V30 660 C 67.1726 2.58484 -3.41131 0
M  V30 661 C 66.4986 3.97599 -3.57518 0
M  V30 662 C 67.7986 2.1413 -4.76388 0
M  V30 663 H 69.4926 0.968563 -2.83301 0
M  V30 664 H 67.0386 0.464479 -1.36303 0
M  V30 665 H 68.9916 3.38413 -2.51107 0
M  V30 666 H 67.7156 2.98032 -1.33583 0
M  V30 667 H 66.3746 1.86727 -3.15481 0
M  V30 668 H 66.0226 4.28723 -2.6307 0
M  V30 669 H 65.7226 3.94659 -4.35337 0
M  V30 670 H 67.2466 4.7349 -3.85538 0
M  V30 671 H 68.6606 2.78083 -5.01341 0
M  V30 672 H 67.0576 2.2227 -5.57419 0
M  V30 673 H 68.1276 1.09331 -4.72414 0
M  V30 674 N 69.4707 1.49531 0.497807 0
M  V30 675 C 70.4177 1.66436 1.59899 0
M  V30 676 C 71.3877 0.505793 1.58212 0
M  V30 677 O 72.5727 0.733202 1.7615 0
M  V30 678 C 69.7127 1.7399 2.98029 0
M  V30 679 C 68.8257 3.01172 3.09708 0
M  V30 680 C 67.9607 2.99686 4.38591 0
M  V30 681 C 66.9997 4.21434 4.43914 0
M  V30 682 N 66.1367 4.1784 5.64229 0
M  V30 683 H 70.9767 2.60459 1.44793 0
M  V30 684 H 68.5137 1.29137 0.704423 0
M  V30 685 H 70.4717 1.76352 3.78095 0
M  V30 686 H 69.1017 0.834301 3.11832 0
M  V30 687 H 68.1537 3.08408 2.22685 0
M  V30 688 H 69.4657 3.91165 3.09502 0
M  V30 689 H 68.6197 3.00628 5.2698 0
M  V30 690 H 67.3587 2.07477 4.41367 0
M  V30 691 H 66.3637 4.20733 3.53926 0
M  V30 692 H 67.5887 5.14839 4.42851 0
M  V30 693 H 65.5347 3.28469 5.67841 0
M  V30 694 H 65.4517 5.01571 5.65652 0
M  V30 695 H 66.7197 4.22889 6.54817 0
M  V30 696 N 70.9488 -0.749086 1.3866 0
M  V30 697 C 72.1948 -1.50959 1.36319 0
M  V30 698 C 72.5498 -1.92347 -0.0452451 0
M  V30 699 O 71.8428 -1.6289 -1.00884 0
M  V30 700 C 72.0368 -2.7712 2.25697 0
M  V30 701 C 71.8658 -2.48067 3.7509 0
M  V30 702 C 70.6358 -2.41062 4.44091 0
M  V30 703 C 72.8338 -2.14544 4.67414 0
M  V30 704 N 70.8158 -2.04331 5.78897 0
M  V30 705 C 72.1868 -1.88141 5.90765 0
M  V30 706 C 74.2418 -2.00892 4.55573 0
M  V30 707 C 72.9448 -1.49463 7.036 0
M  V30 708 C 74.9708 -1.63616 5.68317 0
M  V30 709 C 74.3328 -1.38088 6.90732 0
M  V30 710 H 70.4318 -0.551804 0.554108 0
M  V30 711 H 73.0158 -0.871886 1.74087 0
M  V30 712 H 71.1868 -3.38693 1.9011 0
M  V30 713 H 72.9188 -3.4321 2.1445 0
M  V30 714 H 69.6738 -2.57685 3.9736 0
M  V30 715 H 70.0978 -1.88598 6.502 0
M  V30 716 H 74.7398 -2.19301 3.61479 0
M  V30 717 H 72.4578 -1.29794 7.97608 0
M  V30 718 H 76.0438 -1.53678 5.61137 0
M  V30 719 H 74.9238 -1.09674 7.76493 0
M  V30 720 N 72.4269 -1.23603 -0.977757 0
M  V30 721 C 73.3589 -0.977369 -2.07317 0
M  V30 722 C 74.3719 0.0495845 -1.62724 0
M  V30 723 O 75.5609 -0.186261 -1.77526 0
M  V30 724 C 72.6609 -0.451216 -3.35883 0
M  V30 725 C 71.8339 -1.53896 -4.09432 0
M  V30 726 C 70.8929 -1.01721 -5.16274 0
M  V30 727 O 69.9189 -1.70676 -5.43009 0
M  V30 728 N 71.1209 0.153594 -5.80297 0
M  V30 729 H 73.8859 -1.92047 -2.30082 0
M  V30 730 H 71.4469 -1.14497 -1.14465 0
M  V30 731 H 73.4389 -0.0871574 -4.04606 0
M  V30 732 H 72.0089 0.397368 -3.10064 0
M  V30 733 H 71.2289 -2.07566 -3.35127 0
M  V30 734 H 72.5169 -2.27037 -4.55337 0
M  V30 735 H 71.9149 0.730323 -5.60966 0
M  V30 736 H 70.4719 0.458892 -6.50183 0
M  V30 737 N 73.905 1.17692 -1.04816 0
M  V30 738 C 75.316 1.69501 -0.782698 0
M  V30 739 C 75.667 1.83456 0.695577 0
M  V30 740 O 74.792 1.51942 1.54086 0
M  V30 741 C 75.387 3.07874 -1.41419 0
M  V30 742 C 73.946 3.56864 -1.19686 0
M  V30 743 C 73.093 2.3322 -1.50012 0
M  V30 744 H 76.044 1.02262 -1.2136 0
M  V30 745 H 76.065 3.71528 -0.821428 0
M  V30 746 H 75.577 2.97685 -2.49009 0
M  V30 747 H 73.678 3.72337 -0.140043 0
M  V30 748 H 73.791 4.39851 -1.89916 0
M  V30 749 H 72.155 2.37501 -0.920071 0
M  V30 750 H 72.938 2.25644 -2.58727 0
M  V30 751 N 75.3831 0.828654 1.34056 0
M  V30 752 C 76.6081 0.431637 2.02859 0
M  V30 753 C 77.0331 -0.956339 1.61975 0
M  V30 754 O 76.3911 -1.62338 0.807228 0
M  V30 755 C 76.4391 0.548323 3.56407 0
M  V30 756 O 75.5431 -0.429556 4.10157 0
M  V30 757 H 74.8841 0.176886 0.640006 0
M  V30 758 H 77.4141 1.12066 1.71179 0
M  V30 759 H 77.4241 0.426196 4.05768 0
M  V30 760 H 76.0991 1.5606 3.8551 0
M  V30 761 H 74.6761 -0.265836 3.71951 0
M  V30 762 N 76.8612 -1.46375 0.584142 0
M  V30 763 C 77.8092 -2.32042 -0.161047 0
M  V30 764 C 78.8032 -1.44569 -0.882966 0
M  V30 765 O 80.0092 -1.61186 -0.801191 0
M  V30 766 H 76.3842 -0.748659 -0.0708033 0
M  V30 767 H 78.3552 -2.92704 0.580269 0
M  V30 768 C 77.1042 -3.27762 -1.1605 0
M  V30 769 H 76.4272 -3.95051 -0.614419 0
M  V30 770 H 77.8672 -3.90481 -1.65228 0
M  V30 771 C 76.3262 -2.53218 -2.22221 0
M  V30 772 O 76.8562 -2.29628 -3.29597 0
M  V30 773 N 75.0622 -2.13756 -1.96868 0
M  V30 774 H 74.6092 -2.33142 -1.09557 0
M  V30 775 H 74.5672 -1.642 -2.68115 0
M  V30 776 N 78.3393 -0.321999 -1.54275 0
M  V30 777 C 79.5863 0.281044 -2.0054 0
M  V30 778 C 79.9143 1.52265 -1.21019 0
M  V30 779 O 79.1693 1.93687 -0.279982 0
M  V30 780 C 79.4683 0.661769 -3.5122 0
M  V30 781 C 79.1343 -0.480482 -4.48333 0
M  V30 782 C 77.7963 -0.794005 -4.74604 0
M  V30 783 C 80.1483 -1.24783 -5.06042 0
M  V30 784 C 77.4763 -1.87763 -5.55844 0
M  V30 785 C 79.8283 -2.32153 -5.88462 0
M  V30 786 C 78.4923 -2.64089 -6.13036 0
M  V30 787 H 77.7623 0.102841 -0.733829 0
M  V30 788 H 80.4093 -0.445453 -1.86247 0
M  V30 789 H 78.7143 1.46867 -3.63232 0
M  V30 790 H 80.4113 1.13989 -3.84457 0
M  V30 791 H 77.0013 -0.226039 -4.28004 0
M  V30 792 H 81.1853 -1.01887 -4.85729 0
M  V30 793 H 76.4413 -2.12954 -5.73115 0
M  V30 794 H 80.6153 -2.92057 -6.32199 0
M  V30 795 H 78.2423 -3.48185 -6.75775 0
M  V30 796 N 79.8174 1.5752 -0.0501392 0
M  V30 797 C 81.0664 1.91827 0.623328 0
M  V30 798 C 81.3794 0.930222 1.72065 0
M  V30 799 O 82.5854 1.1653 2.4522 0
M  V30 800 C 81.0414 3.40692 1.16003 0
M  V30 801 C 80.6494 4.479 0.0948811 0
M  V30 802 C 82.3934 3.84034 1.80881 0
M  V30 803 C 80.3004 5.87879 0.644411 0
M  V30 804 H 79.2304 0.715918 0.236596 0
M  V30 805 H 81.8814 1.83115 -0.118861 0
M  V30 806 H 80.2634 3.44405 1.9545 0
M  V30 807 H 81.4374 4.55775 -0.678675 0
M  V30 808 H 79.7524 4.13892 -0.45637 0
M  V30 809 H 82.3494 4.85984 2.22988 0
M  V30 810 H 82.6924 3.20225 2.6601 0
M  V30 811 H 83.2254 3.82833 1.0809 0
M  V30 812 H 79.9644 6.55282 -0.169229 0
M  V30 813 H 79.4844 5.83567 1.38598 0
M  V30 814 H 81.1634 6.37098 1.12763 0
M  V30 815 N 81.2955 -0.223234 1.56011 0
M  V30 816 C 82.2055 -1.29766 1.95443 0
M  V30 817 C 83.2215 -1.51373 0.858028 0
M  V30 818 O 84.3975 -1.64536 1.16146 0
M  V30 819 C 81.4625 -2.62772 2.26167 0
M  V30 820 C 80.5235 -2.49482 3.49367 0
M  V30 821 C 79.7565 -3.76145 3.78616 0
M  V30 822 O 79.9795 -4.79087 3.09568 0
M  V30 823 O 78.9135 -3.73358 4.72109 0
M  V30 824 H 82.7395 -0.99309 2.87004 0
M  V30 825 H 80.3245 -0.425958 1.43199 0
M  V30 826 H 82.2065 -3.41327 2.47131 0
M  V30 827 H 80.8815 -2.92913 1.37781 0
M  V30 828 H 79.7885 -1.69133 3.33684 0
M  V30 829 H 81.1215 -2.2428 4.38131 0
M  V30 830 N 82.7736 -1.49793 -0.48987 0
M  V30 831 C 84.0016 -1.63568 -1.26701 0
M  V30 832 C 84.4166 -0.311465 -1.86213 0
M  V30 833 O 83.7736 0.704416 -1.68357 0
M  V30 834 C 83.8246 -2.71284 -2.38929 0
M  V30 835 O 83.5456 -3.9857 -1.81861 0
M  V30 836 C 85.0466 -2.95864 -3.3012 0
M  V30 837 H 82.2666 -0.550342 -0.383881 0
M  V30 838 H 84.8106 -1.95898 -0.586864 0
M  V30 839 H 82.9656 -2.417 -3.02753 0
M  V30 840 H 83.3796 -4.57993 -2.55622 0
M  V30 841 H 84.8536 -3.74941 -4.05121 0
M  V30 842 H 85.3306 -2.06206 -3.87783 0
M  V30 843 H 85.9366 -3.26907 -2.72051 0
M  V30 844 N 84.2517 0.741722 -1.39055 0
M  V30 845 C 85.4917 1.51385 -1.37338 0
M  V30 846 C 85.8557 1.91972 0.0330513 0
M  V30 847 O 87.0567 2.68229 0.175174 0
M  V30 848 C 85.3277 2.72481 -2.31276 0
M  V30 849 S 86.8867 3.62211 -2.47687 0
M  V30 850 H 83.7047 0.517906 -0.487129 0
M  V30 851 H 86.3067 0.86969 -1.7509 0
M  V30 852 H 85.0107 2.40793 -3.32336 0
M  V30 853 H 84.5417 3.41832 -1.94716 0
M  V30 854 H 86.5567 4.65812 -1.70978 0
M  V30 855 N 85.7298 1.2412 0.971189 0
M  V30 856 C 87.1458 1.00584 1.23916 0
M  V30 857 C 87.3458 -0.287481 1.99439 0
M  V30 858 O 86.4018 -1.00454 2.31658 0
M  V30 859 C 87.7148 2.21864 2.0297 0
M  V30 860 C 89.2628 2.26452 2.16076 0
M  V30 861 C 89.7378 3.47343 2.98524 0
M  V30 862 N 91.2288 3.47639 3.06107 0
M  V30 863 C 91.9638 4.37837 3.70251 0
M  V30 864 N 91.4598 5.38286 4.36142 0
M  V30 865 N 93.2528 4.25558 3.67228 0
M  V30 866 H 85.4038 2.07236 0.465499 0
M  V30 867 H 87.6668 0.909236 0.268315 0
M  V30 868 H 87.3728 3.15771 1.54861 0
M  V30 869 H 87.2468 2.23698 3.03709 0
M  V30 870 H 89.6338 1.33078 2.6339 0
M  V30 871 H 89.7148 2.28645 1.14696 0
M  V30 872 H 89.3588 4.41029 2.51905 0
M  V30 873 H 89.2888 3.42393 4.00093 0
M  V30 874 H 91.7798 2.74966 2.59233 0
M  V30 875 H 92.0928 6.03352 4.82894 0
M  V30 876 H 90.4378 5.42176 4.34822 0
M  V30 877 H 93.6288 3.46322 3.14927 0
M  V30 878 H 93.8018 4.96054 4.16935 0
M  V30 879 N 87.2079 -1.17134 1.05439 0
M  V30 880 C 88.1559 -2.23289 0.651511 0
M  V30 881 C 89.1499 -1.66186 -0.328411 0
M  V30 882 O 90.3559 -1.78949 -0.194206 0
M  V30 883 H 86.7309 -0.726938 0.192523 0
M  V30 884 H 88.7019 -2.54565 1.55689 0
M  V30 885 C 87.4509 -3.47671 0.0448436 0
M  V30 886 H 86.7739 -3.91918 0.78996 0
M  V30 887 H 88.2139 -4.2353 -0.19964 0
M  V30 888 C 86.6729 -3.14453 -1.20918 0
M  V30 889 O 87.2029 -3.29459 -2.29825 0
M  V30 890 N 85.4089 -2.68657 -1.10779 0
M  V30 891 H 84.9559 -2.56646 -0.221526 0
M  V30 892 H 84.9139 -2.46804 -1.9477 0
M  V30 893 N 88.686 -0.835752 -1.33615 0
M  V30 894 C 89.914 -0.443344 -2.02094 0
M  V30 895 C 90.329 0.954522 -1.62894 0
M  V30 896 O 89.686 1.61982 -0.840723 0
M  V30 897 C 89.737 -0.550775 -3.5728 0
M  V30 898 O 89.458 -1.89356 -3.95065 0
M  V30 899 C 90.959 -0.154919 -4.43029 0
M  V30 900 H 88.179 -0.176359 -0.647409 0
M  V30 901 H 90.723 -1.12746 -1.70612 0
M  V30 902 H 88.878 0.0853997 -3.87306 0
M  V30 903 H 89.292 -1.87687 -4.89769 0
M  V30 904 H 90.766 -0.281144 -5.51284 0
M  V30 905 H 91.243 0.902863 -4.2982 0
M  V30 906 H 91.849 -0.765404 -4.18356 0
M  V30 907 N 90.1641 1.46063 -0.591896 0
M  V30 908 C 91.0961 2.28539 0.174001 0
M  V30 909 C 92.1091 1.39047 0.846753 0
M  V30 910 O 93.2981 1.63564 0.714774 0
M  V30 911 C 90.3981 3.14347 1.26645 0
M  V30 912 C 89.5711 4.32021 0.683856 0
M  V30 913 C 88.6301 4.99157 1.66518 0
M  V30 914 O 87.6561 5.56458 1.19763 0
M  V30 915 N 88.8581 4.97005 2.99943 0
M  V30 916 H 91.6231 2.94911 -0.533633 0
M  V30 917 H 89.1841 1.56077 -0.430294 0
M  V30 918 H 91.1761 3.56125 1.92242 0
M  V30 919 H 89.7461 2.49988 1.87682 0
M  V30 920 H 88.9661 3.93915 -0.1498 0
M  V30 921 H 90.2541 5.08059 0.274567 0
M  V30 922 H 89.6521 4.51714 3.40545 0
M  V30 923 H 88.2091 5.42696 3.61004 0
M  V30 924 N 91.6422 0.330177 1.54103 0
M  V30 925 C 92.5722 -0.525353 2.27513 0
M  V30 926 C 93.5532 -1.11383 1.2856 0
M  V30 927 O 94.7382 -1.13773 1.57383 0
M  V30 928 C 91.8682 -1.6831 3.03791 0
M  V30 929 C 90.8222 -1.2236 4.10137 0
M  V30 930 C 90.1482 -2.46882 4.74293 0
M  V30 931 C 91.4482 -0.333697 5.21233 0
M  V30 932 H 93.1422 0.087013 2.99274 0
M  V30 933 H 90.6882 0.0432893 1.43935 0
M  V30 934 H 92.6412 -2.28795 3.5388 0
M  V30 935 H 91.3652 -2.32216 2.29659 0
M  V30 936 H 90.0242 -0.64165 3.60941 0
M  V30 937 H 89.6722 -3.09165 3.96769 0
M  V30 938 H 89.3722 -2.16825 5.46133 0
M  V30 939 H 90.8962 -3.08117 5.27159 0
M  V30 940 H 92.3102 -0.845013 5.67038 0
M  V30 941 H 90.7072 -0.125612 5.99969 0
M  V30 942 H 91.7772 0.633724 4.80741 0
M  V30 943 N 93.1203 -1.57491 0.0584922 0
M  V30 944 C 94.0833 -2.1085 -0.898617 0
M  V30 945 C 95.0833 -1.02964 -1.23511 0
M  V30 946 O 96.2733 -1.29007 -1.17059 0
M  V30 947 C 93.4053 -2.59881 -2.20623 0
M  V30 948 H 94.5983 -2.96715 -0.435936 0
M  V30 949 H 92.1513 -1.55141 -0.190023 0
M  V30 950 H 92.8863 -1.77431 -2.71457 0
M  V30 951 H 92.6713 -3.38727 -1.97501 0
M  V30 952 H 94.1613 -3.01285 -2.89166 0
M  V30 953 N 94.5984 0.214957 -1.56127 0
M  V30 954 C 95.8464 0.936518 -1.79091 0
M  V30 955 C 96.1674 1.84606 -0.628148 0
M  V30 956 O 95.4374 1.92664 0.35462 0
M  V30 957 H 94.0174 0.3488 -0.660566 0
M  V30 958 H 96.6794 0.22523 -1.93594 0
M  V30 959 H 95.7754 1.53943 -2.71492 0
M  V30 960 N 96.0765 1.50051 0.48192 0
M  V30 961 C 97.3015 1.64508 1.26301 0
M  V30 962 C 97.7265 0.323851 1.85291 0
M  V30 963 O 97.0845 -0.710969 1.66778 0
M  V30 964 C 97.1325 2.7305 2.35533 0
M  V30 965 O 96.2365 2.3355 3.39895 0
M  V30 966 H 95.5775 0.549978 0.372048 0
M  V30 967 H 98.1075 1.9636 0.574786 0
M  V30 968 H 98.1175 2.95799 2.8101 0
M  V30 969 H 96.7925 3.68946 1.91967 0
M  V30 970 H 95.3695 2.21205 3.00204 0
M  V30 971 N 97.5546 -0.734337 1.39446 0
M  V30 972 C 98.7796 -1.52866 1.40167 0
M  V30 973 C 99.2046 -1.881 -0.00171513 0
M  V30 974 O 98.5626 -1.51957 -0.988879 0
M  V30 975 C 98.6106 -2.79235 2.28167 0
M  V30 976 O 97.7146 -3.75185 1.71201 0
M  V30 977 H 97.0556 -0.461618 0.477289 0
M  V30 978 H 99.5856 -0.905949 1.8345 0
M  V30 979 H 99.5956 -3.27963 2.42702 0
M  V30 980 H 98.2706 -2.52923 3.30156 0
M  V30 981 H 96.8476 -3.33958 1.65912 0
M  V30 982 N 99.0327 -1.24633 -0.964593 0
M  V30 983 C 99.9427 -1.05859 -2.09359 0
M  V30 984 C 100.959 0.00148855 -1.74 0
M  V30 985 O 102.135 -0.197346 -2.00431 0
M  V30 986 C 99.1997 -0.668879 -3.40187 0
M  V30 987 C 98.2607 -1.80578 -3.89474 0
M  V30 988 C 97.4937 -1.43457 -5.14058 0
M  V30 989 O 97.7167 -0.325775 -5.69469 0
M  V30 990 O 96.6507 -2.2613 -5.57807 0
M  V30 991 H 100.477 -2.00516 -2.28094 0
M  V30 992 H 98.0617 -1.03481 -1.0776 0
M  V30 993 H 99.9437 -0.463211 -4.18846 0
M  V30 994 H 98.6187 0.248536 -3.22744 0
M  V30 995 H 97.5257 -2.06623 -3.11862 0
M  V30 996 H 98.8587 -2.70208 -4.11398 0
M  V30 997 N 100.511 1.16574 -1.06058 0
M  V30 998 C 101.441 2.23057 -0.690488 0
M  V30 999 C 102.422 1.67141 0.315901 0
M  V30 1000 O 103.607 1.93253 0.191556 0
M  V30 1001 C 100.737 3.47222 -0.073625 0
M  V30 1002 C 99.6908 4.16016 -1.00573 0
M  V30 1003 C 99.0168 5.34104 -0.252289 0
M  V30 1004 C 100.317 4.67264 -2.33371 0
M  V30 1005 H 102.011 2.54271 -1.58072 0
M  V30 1006 H 99.5568 1.22218 -0.76149 0
M  V30 1007 H 101.51 4.20939 0.19714 0
M  V30 1008 H 100.234 3.15302 0.85161 0
M  V30 1009 H 98.8928 3.44223 -1.2612 0
M  V30 1010 H 98.5408 4.98437 0.675988 0
M  V30 1011 H 98.2408 5.81072 -0.873455 0
M  V30 1012 H 99.7648 6.10599 0.0109857 0
M  V30 1013 H 101.179 5.32573 -2.12223 0
M  V30 1014 H 99.5758 5.24843 -2.90963 0
M  V30 1015 H 100.646 3.83602 -2.96611 0
M  V30 1016 N 101.989 0.842826 1.3317 0
M  V30 1017 C 102.952 0.284065 2.27433 0
M  V30 1018 C 103.952 -0.54948 1.5112 0
M  V30 1019 O 105.142 -0.362699 1.70382 0
M  V30 1020 C 102.274 -0.599384 3.35589 0
M  V30 1021 H 103.467 1.11589 2.78366 0
M  V30 1022 H 101.02 0.616221 1.4364 0
M  V30 1023 H 101.755 -1.45349 2.89904 0
M  V30 1024 H 101.54 -0.00291266 3.921 0
M  V30 1025 H 103.03 -0.983488 4.05854 0
M  V30 1026 N 103.467 -1.45747 0.599634 0
M  V30 1027 C 104.43 -2.28917 -0.113835 0
M  V30 1028 C 105.43 -1.3933 -0.802729 0
M  V30 1029 O 106.62 -1.61534 -0.652103 0
M  V30 1030 C 103.752 -3.20152 -1.17114 0
M  V30 1031 H 104.945 -2.93478 0.617289 0
M  V30 1032 H 102.498 -1.52137 0.358327 0
M  V30 1033 H 103.233 -2.60374 -1.93329 0
M  V30 1034 H 103.018 -3.86133 -0.681468 0
M  V30 1035 H 104.508 -3.82708 -1.67105 0
M  V30 1036 N 104.945 -0.338344 -1.53925 0
M  V30 1037 C 105.855 0.529421 -2.28548 0
M  V30 1038 C 106.871 1.11645 -1.3346 0
M  V30 1039 O 108.047 1.13325 -1.66492 0
M  V30 1040 C 105.112 1.66713 -3.03987 0
M  V30 1041 C 104.173 1.11041 -4.14691 0
M  V30 1042 C 103.406 2.19389 -4.86522 0
M  V30 1043 O 103.629 3.40013 -4.57982 0
M  V30 1044 O 102.563 1.83976 -5.73094 0
M  V30 1045 H 106.389 -0.0770399 -3.03602 0
M  V30 1046 H 103.974 -0.103555 -1.49041 0
M  V30 1047 H 105.856 2.32918 -3.5118 0
M  V30 1048 H 104.531 2.25949 -2.31794 0
M  V30 1049 H 103.438 0.413024 -3.71813 0
M  V30 1050 H 104.771 0.562975 -4.8897 0
M  V30 1051 N 106.423 1.57458 -0.0668435 0
M  V30 1052 C 107.663 1.95175 0.607116 0
M  V30 1053 C 108.027 0.946039 1.67075 0
M  V30 1054 O 109.228 1.2107 2.39991 0
M  V30 1055 C 107.499 3.37582 1.17358 0
M  V30 1056 S 109.058 3.97271 1.86336 0
M  V30 1057 H 105.876 0.682604 0.19893 0
M  V30 1058 H 108.478 1.95002 -0.139519 0
M  V30 1059 H 107.182 4.08566 0.387553 0
M  V30 1060 H 106.713 3.41288 1.95669 0
M  V30 1061 H 108.728 3.83772 3.14537 0
M  V30 1062 N 107.901 -0.206675 1.56239 0
M  V30 1063 C 108.848 -1.25617 1.93621 0
M  V30 1064 C 109.818 -1.45824 0.795274 0
M  V30 1065 O 111.003 -1.59148 1.05245 0
M  V30 1066 C 108.143 -2.59839 2.27107 0
M  V30 1067 C 107.256 -2.47308 3.54207 0
M  V30 1068 C 106.391 -3.74155 3.7707 0
M  V30 1069 C 105.43 -3.56407 4.97635 0
M  V30 1070 N 104.567 -4.75238 5.1681 0
M  V30 1071 H 109.407 -0.930383 2.83104 0
M  V30 1072 H 106.944 -0.448065 1.4011 0
M  V30 1073 H 108.902 -3.38021 2.44535 0
M  V30 1074 H 107.532 -2.90485 1.40778 0
M  V30 1075 H 106.584 -1.60483 3.4489 0
M  V30 1076 H 107.896 -2.30122 4.42544 0
M  V30 1077 H 107.05 -4.60778 3.94675 0
M  V30 1078 H 105.789 -3.94282 2.87042 0
M  V30 1079 H 104.794 -2.68168 4.79964 0
M  V30 1080 H 106.019 -3.37736 5.89161 0
M  V30 1081 H 103.965 -4.95651 4.29728 0
M  V30 1082 H 103.882 -4.60835 5.99306 0
M  V30 1083 H 105.15 -5.63246 5.38864 0
M  V30 1084 N 109.379 -1.50304 -0.473955 0
M  V30 1085 C 110.607 -1.64902 -1.24959 0
M  V30 1086 C 111.022 -0.331198 -1.85872 0
M  V30 1087 O 110.379 0.68652 -1.69095 0
M  V30 1088 C 110.43 -2.73803 -2.36038 0
M  V30 1089 O 110.151 -4.00477 -1.77624 0
M  V30 1090 C 111.652 -2.99349 -3.26964 0
M  V30 1091 H 108.872 -0.554383 -0.378022 0
M  V30 1092 H 111.416 -1.9651 -0.566054 0
M  V30 1093 H 109.571 -2.44898 -3.00173 0
M  V30 1094 H 109.985 -4.60678 -2.5075 0
M  V30 1095 H 111.459 -3.79217 -4.01121 0
M  V30 1096 H 111.936 -2.10307 -3.85574 0
M  V30 1097 H 112.542 -3.29774 -2.68569 0
M  V30 1098 N 110.857 0.726932 -1.39834 0
M  V30 1099 C 112.273 1.03354 -1.21615 0
M  V30 1100 C 112.473 2.01327 -0.08338 0
M  V30 1101 O 111.529 2.46158 0.56238 0
M  V30 1102 C 112.842 1.58811 -2.55342 0
M  V30 1103 C 114.39 1.70851 -2.62257 0
M  V30 1104 C 114.865 2.29716 -3.96225 0
M  V30 1105 N 116.356 2.37116 -3.97907 0
M  V30 1106 C 117.091 2.83619 -4.98345 0
M  V30 1107 N 116.587 3.29958 -6.09179 0
M  V30 1108 N 118.38 2.82901 -4.8572 0
M  V30 1109 H 110.531 0.0773069 -2.12259 0
M  V30 1110 H 112.794 0.0969102 -0.943034 0
M  V30 1111 H 112.5 0.942855 -3.38826 0
M  V30 1112 H 112.374 2.57502 -2.75632 0
M  V30 1113 H 114.761 2.34497 -1.79152 0
M  V30 1114 H 114.842 0.707913 -2.45809 0
M  V30 1115 H 114.486 1.66696 -4.79765 0
M  V30 1116 H 114.416 3.30469 -4.09997 0
M  V30 1117 H 116.907 2.04374 -3.17868 0
M  V30 1118 H 117.22 3.63976 -6.8172 0
M  V30 1119 H 115.565 3.27946 -6.12761 0
M  V30 1120 H 118.756 2.46027 -3.98231 0
M  V30 1121 H 118.929 3.18827 -5.6414 0
M  V30 1122 N 112.336 1.25143 0.95797 0
M  V30 1123 C 113.299 1.05321 2.03569 0
M  V30 1124 C 114.299 0.007152 1.60798 0
M  V30 1125 O 115.489 0.24903 1.72411 0
M  V30 1126 C 112.621 0.598394 3.35607 0
M  V30 1127 H 113.814 2.00986 2.22586 0
M  V30 1128 H 111.367 1.07502 1.13459 0
M  V30 1129 H 112.102 -0.361014 3.22284 0
M  V30 1130 H 111.887 1.35351 3.67998 0
M  V30 1131 H 113.377 0.48104 4.1482 0
M  V30 1132 N 113.814 -1.1601 1.06675 0
M  V30 1133 C 114.746 -2.20115 0.638921 0
M  V30 1134 C 115.759 -1.59916 -0.305057 0
M  V30 1135 O 116.948 -1.78245 -0.0954446 0
M  V30 1136 C 114.048 -3.38798 -0.0830083 0
M  V30 1137 C 113.221 -4.2855 0.875426 0
M  V30 1138 C 112.28 -5.25849 0.192042 0
M  V30 1139 O 111.306 -5.63102 0.830921 0
M  V30 1140 N 112.508 -5.70648 -1.06493 0
M  V30 1141 H 115.273 -2.57439 1.53444 0
M  V30 1142 H 112.834 -1.31057 0.950557 0
M  V30 1143 H 114.826 -4.00936 -0.550685 0
M  V30 1144 H 113.396 -2.99947 -0.880386 0
M  V30 1145 H 112.616 -3.63617 1.52238 0
M  V30 1146 H 113.904 -4.85393 1.52548 0
M  V30 1147 H 113.302 -5.42482 -1.60405 0
M  V30 1148 H 111.859 -6.34859 -1.47641 0
M  V30 1149 N 115.292 -0.849877 -1.32721 0
M  V30 1150 C 116.224 -0.248332 -2.27851 0
M  V30 1151 C 117.237 0.577218 -1.52224 0
M  V30 1152 O 118.426 0.402489 -1.73903 0
M  V30 1153 C 115.526 0.668107 -3.32249 0
M  V30 1154 C 114.699 -0.120534 -4.37234 0
M  V30 1155 C 113.758 0.720932 -5.21238 0
M  V30 1156 O 112.784 0.156166 -5.68986 0
M  V30 1157 N 113.986 2.03647 -5.43607 0
M  V30 1158 H 116.751 -1.06575 -2.80111 0
M  V30 1159 H 114.312 -0.709395 -1.45531 0
M  V30 1160 H 116.304 1.23627 -3.85355 0
M  V30 1161 H 114.874 1.38621 -2.80184 0
M  V30 1162 H 114.094 -0.870108 -3.84477 0
M  V30 1163 H 115.382 -0.662406 -5.0447 0
M  V30 1164 H 114.78 2.51871 -5.06535 0
M  V30 1165 H 113.337 2.55287 -5.99727 0
M  V30 1166 N 116.77 1.45427 -0.607355 0
M  V30 1167 C 118.017 2.02241 -0.102455 0
M  V30 1168 C 118.345 1.4758 1.26691 0
M  V30 1169 O 117.6 0.640468 1.84923 0
M  V30 1170 C 117.899 3.57398 -0.0129263 0
M  V30 1171 C 117.565 4.3121 -1.31792 0
M  V30 1172 C 116.227 4.51092 -1.67539 0
M  V30 1173 C 118.579 4.73401 -2.18039 0
M  V30 1174 C 115.907 5.10422 -2.89285 0
M  V30 1175 C 118.259 5.34078 -3.39034 0
M  V30 1176 C 116.923 5.52184 -3.75033 0
M  V30 1177 H 116.193 0.740051 -0.037491 0
M  V30 1178 H 118.84 1.74494 -0.788926 0
M  V30 1179 H 117.145 3.84421 0.756806 0
M  V30 1180 H 118.842 3.99061 0.393881 0
M  V30 1181 H 115.432 4.16047 -1.02968 0
M  V30 1182 H 119.616 4.57774 -1.91721 0
M  V30 1183 H 114.872 5.22629 -3.17283 0
M  V30 1184 H 119.046 5.65724 -4.06115 0
M  V30 1185 H 116.673 5.97925 -4.69457 0
M  V30 1186 N 118.248 0.346503 1.53744 0
M  V30 1187 C 119.494 -0.249473 2.0126 0
M  V30 1188 C 119.827 -1.49965 1.23386 0
M  V30 1189 O 119.102 -1.91811 0.32229 0
M  V30 1190 C 119.385 -0.560643 3.55709 0
M  V30 1191 C 119.238 0.701836 4.44291 0
M  V30 1192 C 120.557 -1.36905 4.18264 0
M  V30 1193 H 117.676 -0.0891987 0.731582 0
M  V30 1194 H 120.318 0.467624 1.84156 0
M  V30 1195 H 118.468 -1.17156 3.70414 0
M  V30 1196 H 120.14 1.33974 4.41417 0
M  V30 1197 H 118.383 1.32612 4.13033 0
M  V30 1198 H 119.054 0.43933 5.50249 0
M  V30 1199 H 121.53 -0.852448 4.07275 0
M  V30 1200 H 120.406 -1.55553 5.26398 0
M  V30 1201 H 120.667 -2.37203 3.73078 0
M  V30 1202 N 119.726 -1.57421 0.075193 0
M  V30 1203 C 120.951 -1.98364 -0.605515 0
M  V30 1204 C 121.376 -0.953383 -1.62149 0
M  V30 1205 O 120.734 0.0806053 -1.81121 0
M  V30 1206 C 120.782 -3.38332 -1.24756 0
M  V30 1207 O 119.886 -3.37959 -2.36342 0
M  V30 1208 H 119.227 -0.645553 -0.155428 0
M  V30 1209 H 121.757 -2.04044 0.150714 0
M  V30 1210 H 121.767 -3.75591 -1.5936 0
M  V30 1211 H 120.442 -4.12846 -0.503129 0
M  V30 1212 H 119.019 -3.12474 -2.03506 0
M  V30 1213 N 121.204 0.198386 -1.56346 0
M  V30 1214 C 122.432 0.935572 -1.84539 0
M  V30 1215 C 122.847 1.76989 -0.657281 0
M  V30 1216 O 122.204 1.78626 0.374043 0
M  V30 1217 C 122.255 1.8344 -3.11499 0
M  V30 1218 O 121.976 1.03377 -4.25728 0
M  V30 1219 C 123.477 2.68355 -3.52846 0
M  V30 1220 H 120.697 0.273126 -0.612897 0
M  V30 1221 H 123.241 0.20663 -2.03453 0
M  V30 1222 H 121.396 2.51701 -2.94492 0
M  V30 1223 H 121.81 1.64599 -4.98003 0
M  V30 1224 H 123.284 3.27085 -4.44657 0
M  V30 1225 H 123.761 3.41901 -2.75681 0
M  V30 1226 H 124.367 2.05471 -3.72373 0
M  V30 1227 N 122.682 1.50554 0.465978 0
M  V30 1228 C 123.629 1.6979 1.56333 0
M  V30 1229 C 124.599 0.539239 1.57103 0
M  V30 1230 O 125.784 0.770401 1.74555 0
M  V30 1231 C 122.924 1.80273 2.94271 0
M  V30 1232 C 122.037 3.07674 3.0325 0
M  V30 1233 C 121.172 3.08922 4.32135 0
M  V30 1234 C 120.211 4.30755 4.34875 0
M  V30 1235 N 119.348 4.29714 5.55239 0
M  V30 1236 H 124.188 2.63472 1.39235 0
M  V30 1237 H 121.725 1.30602 0.676873 0
M  V30 1238 H 123.683 1.84332 3.74269 0
M  V30 1239 H 122.313 0.900258 3.09992 0
M  V30 1240 H 121.365 3.13062 2.16094 0
M  V30 1241 H 122.677 3.97642 3.01135 0
M  V30 1242 H 121.831 3.11738 5.20485 0
M  V30 1243 H 120.57 2.16792 4.36866 0
M  V30 1244 H 119.575 4.28146 3.44922 0
M  V30 1245 H 120.8 5.24117 4.31831 0
M  V30 1246 H 118.746 3.4044 5.60746 0
M  V30 1247 H 118.663 5.13456 5.54886 0
M  V30 1248 H 119.931 4.36683 6.457 0
M  V30 1249 N 124.16 -0.719506 1.40217 0
M  V30 1250 C 125.409 -1.47486 1.37589 0
M  V30 1251 C 125.722 -1.9559 -0.0201568 0
M  V30 1252 O 126.928 -2.70973 -0.169049 0
M  V30 1253 C 125.384 -2.66575 2.41796 0
M  V30 1254 C 124.992 -2.25358 3.87192 0
M  V30 1255 C 126.736 -3.4433 2.48269 0
M  V30 1256 C 124.643 -3.41262 4.83005 0
M  V30 1257 H 123.573 -0.553901 0.511576 0
M  V30 1258 H 126.224 -0.783427 1.65936 0
M  V30 1259 H 124.606 -3.3787 2.06543 0
M  V30 1260 H 125.78 -1.61509 4.31569 0
M  V30 1261 H 124.095 -1.60657 3.84159 0
M  V30 1262 H 126.692 -4.30569 3.17041 0
M  V30 1263 H 127.035 -3.87872 1.51198 0
M  V30 1264 H 127.568 -2.80076 2.82493 0
M  V30 1265 H 124.307 -3.02755 5.81394 0
M  V30 1266 H 123.827 -4.0404 4.43297 0
M  V30 1267 H 125.506 -4.07383 5.02641 0
M  V30 1268 N 125.638 -1.25649 -0.95132 0
M  V30 1269 C 126.586 -1.06118 -2.06982 0
M  V30 1270 C 127.58 0.00889169 -1.69398 0
M  V30 1271 O 128.786 -0.146988 -1.79399 0
M  V30 1272 H 125.161 -0.326248 -0.677544 0
M  V30 1273 H 127.132 -2.00932 -2.2061 0
M  V30 1274 C 125.881 -0.700145 -3.40578 0
M  V30 1275 H 125.204 -1.51537 -3.69968 0
M  V30 1276 H 126.644 -0.603211 -4.19687 0
M  V30 1277 C 125.103 0.59403 -3.31622 0
M  V30 1278 O 125.633 1.63522 -3.66911 0
M  V30 1279 N 123.839 0.58089 -2.84735 0
M  V30 1280 H 123.386 -0.266783 -2.56215 0
M  V30 1281 H 123.344 1.44695 -2.79125 0
M  V30 1282 N 127.117 1.15442 -1.07289 0
M  V30 1283 C 128.047 2.22312 -0.714107 0
M  V30 1284 C 129.028 1.67467 0.298155 0
M  V30 1285 O 130.213 1.93445 0.171048 0
M  V30 1286 C 127.343 3.47124 -0.110448 0
M  V30 1287 C 126.297 4.14926 -1.04979 0
M  V30 1288 C 125.623 5.33807 -0.308924 0
M  V30 1289 C 126.923 4.64762 -2.38314 0
M  V30 1290 H 128.617 2.5258 -1.6076 0
M  V30 1291 H 126.163 1.21404 -0.77441 0
M  V30 1292 H 128.116 4.21124 0.152482 0
M  V30 1293 H 126.84 3.16187 0.81812 0
M  V30 1294 H 125.499 3.42866 -1.29764 0
M  V30 1295 H 125.147 4.99126 0.623084 0
M  V30 1296 H 124.847 5.80113 -0.935036 0
M  V30 1297 H 126.371 6.10576 -0.0537771 0
M  V30 1298 H 127.785 5.30292 -2.1786 0
M  V30 1299 H 126.182 5.21728 -2.96514 0
M  V30 1300 H 127.252 3.80434 -3.00663 0
M  V30 1301 N 128.595 0.856903 1.32268 0
M  V30 1302 C 129.872 0.382583 1.91822 0
M  V30 1303 C 130.252 -1.13407 1.78051 0
M  V30 1304 O 129.6 -1.95673 1.18001 0
M  V30 1305 C 129.81 0.849446 3.38505 0
M  V30 1306 C 131.158 0.867936 4.15634 0
M  V30 1307 O 132.182 0.794232 3.47232 0
M  V30 1308 O 131.041 0.972286 5.37781 0
M  V30 1309 H 128.135 0.112014 0.819379 0
M  V30 1310 H 130.681 0.943952 1.41024 0
M  V30 1311 H 129.453 1.89267 3.42482 0
M  V30 1312 H 129.076 0.265652 3.96712 0
M  V30 1313 N 130.073 -1.45103 0.615059 0
M  V30 1314 C 131.35 -1.95549 0.0448276 0
M  V30 1315 C 131.73 -1.55737 -1.4251 0
M  V30 1316 O 131.078 -0.823556 -2.13143 0
M  V30 1317 C 131.288 -3.48098 0.250785 0
M  V30 1318 C 132.636 -4.24384 0.135509 0
M  V30 1319 O 133.66 -3.55738 0.181299 0
M  V30 1320 O 132.519 -5.46493 0.0268878 0
M  V30 1321 H 129.613 -0.8264 -0.0314845 0
M  V30 1322 H 132.159 -1.55232 0.685642 0
M  V30 1323 H 130.931 -3.7007 1.27139 0
M  V30 1324 H 130.554 -3.95323 -0.424937 0
M  V30 1325 N 131.551 -0.354651 -1.53558 0
M  V30 1326 C 132.501 0.513179 -2.2215 0
M  V30 1327 C 133.485 1.05734 -1.21281 0
M  V30 1328 O 134.677 0.989202 -1.46778 0
M  V30 1329 C 131.806 1.65798 -3.00609 0
M  V30 1330 C 130.892 1.12722 -4.08845 0
M  V30 1331 N 131.283 0.318563 -5.04796 0
M  V30 1332 C 129.581 1.40307 -4.23356 0
M  V30 1333 C 130.282 0.0292224 -5.81693 0
M  V30 1334 N 129.258 0.623891 -5.40008 0
M  V30 1335 H 133.06 -0.111586 -2.93688 0
M  V30 1336 H 130.574 -0.162091 -1.61589 0
M  V30 1337 H 132.571 2.29176 -3.48258 0
M  V30 1338 H 131.231 2.28591 -2.306 0
M  V30 1339 H 132.242 -0.0413091 -5.17884 0
M  V30 1340 H 128.919 2.03458 -3.6457 0
M  V30 1341 H 130.309 -0.623808 -6.68998 0
M  V30 1342 N 133.029 1.57378 -0.0835403 0
M  V30 1343 C 134.278 1.93106 0.582498 0
M  V30 1344 C 134.591 0.96651 1.70053 0
M  V30 1345 O 135.797 1.21705 2.42693 0
M  V30 1346 C 134.253 3.43076 1.08751 0
M  V30 1347 C 133.861 4.48 -0.000146404 0
M  V30 1348 C 135.605 3.87785 1.72694 0
M  V30 1349 C 133.512 5.89113 0.519568 0
M  V30 1350 H 132.442 0.720775 0.221358 0
M  V30 1351 H 135.093 1.82821 -0.157675 0
M  V30 1352 H 133.475 3.48474 1.88101 0
M  V30 1353 H 134.649 4.54233 -0.775199 0
M  V30 1354 H 132.964 4.1283 -0.54406 0
M  V30 1355 H 135.561 4.90604 2.1263 0
M  V30 1356 H 135.904 3.25796 2.59158 0
M  V30 1357 H 136.437 3.8504 0.999457 0
M  V30 1358 H 133.176 6.54775 -0.308186 0
M  V30 1359 H 132.696 5.86376 1.26188 0
M  V30 1360 H 134.375 6.39346 0.992237 0
M  V30 1361 N 134.507 -0.190092 1.56449 0
M  V30 1362 C 135.47 -1.21925 1.9408 0
M  V30 1363 C 136.47 -1.38176 0.822431 0
M  V30 1364 O 137.66 -1.35903 1.08977 0
M  V30 1365 C 134.792 -2.58773 2.21922 0
M  V30 1366 H 135.985 -0.897464 2.86157 0
M  V30 1367 H 133.538 -0.43181 1.50217 0
M  V30 1368 H 134.273 -2.95998 1.32499 0
M  V30 1369 H 134.058 -2.48348 3.03424 0
M  V30 1370 H 135.548 -3.32978 2.52022 0
M  V30 1371 N 135.985 -1.50799 -0.457987 0
M  V30 1372 C 136.933 -1.71162 -1.575 0
M  V30 1373 C 137.927 -0.577592 -1.59249 0
M  V30 1374 O 139.133 -0.758443 -1.63241 0
M  V30 1375 H 135.508 -0.540468 -0.522875 0
M  V30 1376 H 137.479 -2.64837 -1.37492 0
M  V30 1377 C 136.228 -1.83496 -2.95338 0
M  V30 1378 H 135.551 -2.70153 -2.94716 0
M  V30 1379 H 136.991 -2.01765 -3.72917 0
M  V30 1380 C 135.45 -0.589694 -3.31699 0
M  V30 1381 O 135.98 0.265163 -4.00824 0
M  V30 1382 N 134.186 -0.439845 -2.87252 0
M  V30 1383 H 133.733 -1.13655 -2.31172 0
M  V30 1384 H 133.691 0.392159 -3.11945 0
M  V30 1385 N 137.463 0.71206 -1.40597 0
M  V30 1386 C 138.712 1.46754 -1.38369 0
M  V30 1387 C 139.025 1.95598 0.0097839 0
M  V30 1388 O 140.231 2.71059 0.154677 0
M  V30 1389 C 138.687 2.65289 -2.43207 0
M  V30 1390 C 138.295 2.23301 -3.88382 0
M  V30 1391 C 140.039 3.43008 -2.50091 0
M  V30 1392 C 137.946 3.38696 -4.84808 0
M  V30 1393 H 136.876 0.55118 -0.514506 0
M  V30 1394 H 139.527 0.774616 -1.66349 0
M  V30 1395 H 137.909 3.36769 -2.08332 0
M  V30 1396 H 139.083 1.59218 -4.32419 0
M  V30 1397 H 137.398 1.58618 -3.85006 0
M  V30 1398 H 139.995 4.28881 -3.1932 0
M  V30 1399 H 140.338 3.87065 -1.53253 0
M  V30 1400 H 140.871 2.78574 -2.83974 0
M  V30 1401 H 137.61 2.99668 -5.82992 0
M  V30 1402 H 137.13 4.01683 -4.45433 0
M  V30 1403 H 138.809 4.04712 -5.04794 0
M  V30 1404 N 138.941 1.26152 0.944643 0
M  V30 1405 C 140.218 1.02247 1.66748 0
M  V30 1406 C 140.598 -0.448202 2.06287 0
M  V30 1407 O 139.946 -1.42779 1.78399 0
M  V30 1408 C 140.156 1.96788 2.88228 0
M  V30 1409 C 141.504 2.25201 3.59958 0
M  V30 1410 O 142.528 1.94626 2.98327 0
M  V30 1411 O 141.387 2.77242 4.70956 0
M  V30 1412 H 138.481 0.388517 0.730057 0
M  V30 1413 H 141.027 1.37348 0.99668 0
M  V30 1414 H 139.799 2.96047 2.55875 0
M  V30 1415 H 139.422 1.62145 3.63035 0
M  V30 1416 N 140.419 -1.14872 1.07899 0
M  V30 1417 C 141.667 -1.85422 0.803941 0
M  V30 1418 C 141.988 -1.83051 -0.67211 0
M  V30 1419 O 141.258 -1.27532 -1.48703 0
M  V30 1420 H 139.838 -0.686537 0.294408 0
M  V30 1421 H 142.5 -1.39226 1.3639 0
M  V30 1422 H 141.596 -2.90399 1.14346 0
M  V30 1423 N 141.898 -0.863906 -1.31812 0
M  V30 1424 C 143.126 -0.486111 -2.01108 0
M  V30 1425 C 143.541 0.919755 -1.64882 0
M  V30 1426 O 142.898 1.60162 -0.874893 0
M  V30 1427 C 142.949 -0.626435 -3.56031 0
M  V30 1428 O 142.67 -1.97693 -3.90959 0
M  V30 1429 C 144.171 -0.248857 -4.42601 0
M  V30 1430 H 141.391 -0.190052 -0.643523 0
M  V30 1431 H 143.935 -1.1634 -1.68182 0
M  V30 1432 H 142.09 0.00322717 -3.874 0
M  V30 1433 H 142.504 -1.98034 -4.85678 0
M  V30 1434 H 143.978 -0.398016 -5.50563 0
M  V30 1435 H 144.455 0.811489 -4.31638 0
M  V30 1436 H 145.061 -0.853971 -4.16638 0
M  V30 1437 N 143.376 1.44774 -0.622745 0
M  V30 1438 C 144.306 2.33382 0.0741861 0
M  V30 1439 C 145.287 1.47719 0.843387 0
M  V30 1440 O 146.472 1.76458 0.810934 0
M  V30 1441 C 143.602 3.30663 1.06204 0
M  V30 1442 C 142.556 4.26079 0.405037 0
M  V30 1443 C 141.882 5.13165 1.5022 0
M  V30 1444 C 143.182 5.1781 -0.683414 0
M  V30 1445 H 144.876 2.91905 -0.665713 0
M  V30 1446 H 142.422 1.40363 -0.321587 0
M  V30 1447 H 144.375 3.9153 1.55827 0
M  V30 1448 H 143.099 2.70331 1.83272 0
M  V30 1449 H 141.758 3.66532 -0.0704683 0
M  V30 1450 H 141.406 4.49191 2.26355 0
M  V30 1451 H 141.106 5.77812 1.06803 0
M  V30 1452 H 142.63 5.76902 2.00041 0
M  V30 1453 H 144.044 5.72661 -0.270631 0
M  V30 1454 H 142.441 5.91015 -1.04023 0
M  V30 1455 H 143.511 4.59326 -1.55395 0
M  V30 1456 N 144.854 0.36279 1.53368 0
M  V30 1457 C 145.801 -0.485008 2.25646 0
M  V30 1458 C 146.771 -1.07982 1.2621 0
M  V30 1459 O 147.956 -1.11284 1.54986 0
M  V30 1460 C 145.096 -1.62023 3.04701 0
M  V30 1461 C 144.209 -1.05086 4.19024 0
M  V30 1462 C 143.344 -2.15496 4.85525 0
M  V30 1463 C 142.383 -1.5601 5.91884 0
M  V30 1464 N 141.52 -2.60241 6.52088 0
M  V30 1465 H 146.36 0.137864 2.97681 0
M  V30 1466 H 143.897 0.0798061 1.46883 0
M  V30 1467 H 145.855 -2.28887 3.48807 0
M  V30 1468 H 144.485 -2.2138 2.34927 0
M  V30 1469 H 143.537 -0.27259 3.79422 0
M  V30 1470 H 144.849 -0.575926 4.95464 0
M  V30 1471 H 144.003 -2.90186 5.32801 0
M  V30 1472 H 142.742 -2.66341 4.08551 0
M  V30 1473 H 141.747 -0.798338 5.43973 0
M  V30 1474 H 142.972 -1.05994 6.70777 0
M  V30 1475 H 140.918 -3.10304 5.77968 0
M  V30 1476 H 140.835 -2.17426 7.24059 0
M  V30 1477 H 142.103 -3.34641 7.04014 0
M  V30 1478 N 146.332 -1.57332 0.0918853 0
M  V30 1479 C 147.562 -1.98286 -0.580205 0
M  V30 1480 C 147.97 -0.969713 -1.6246 0
M  V30 1481 O 147.313 0.0493501 -1.83634 0
M  V30 1482 C 147.375 -3.35603 -1.28882 0
M  V30 1483 C 147.039 -4.55285 -0.395559 0
M  V30 1484 C 148.036 -5.18687 0.355002 0
M  V30 1485 C 145.721 -5.01314 -0.314556 0
M  V30 1486 C 147.715 -6.26484 1.17458 0
M  V30 1487 C 145.402 -6.08979 0.508677 0
M  V30 1488 C 146.4 -6.71429 1.2519 0
M  V30 1489 O 146.088 -7.77018 2.06151 0
M  V30 1490 H 145.82 -0.656678 -0.160466 0
M  V30 1491 H 148.374 -2.04721 0.16688 0
M  V30 1492 H 146.604 -3.25842 -2.08241 0
M  V30 1493 H 148.293 -3.61026 -1.85512 0
M  V30 1494 H 149.059 -4.84058 0.302134 0
M  V30 1495 H 144.938 -4.5247 -0.882697 0
M  V30 1496 H 148.482 -6.75159 1.75518 0
M  V30 1497 H 144.379 -6.4304 0.563037 0
M  V30 1498 H 145.147 -7.93991 1.98799 0
M  V30 1499 N 147.81 0.181792 -1.56548 0
M  V30 1500 C 148.72 1.24538 -1.98815 0
M  V30 1501 C 149.736 1.49045 -0.897861 0
M  V30 1502 O 150.912 1.61399 -1.20467 0
M  V30 1503 C 147.977 2.56683 -2.33055 0
M  V30 1504 C 147.038 2.40131 -3.55859 0
M  V30 1505 C 146.271 3.65975 -3.88456 0
M  V30 1506 O 146.494 4.70711 -3.22161 0
M  V30 1507 O 145.428 3.6071 -4.81842 0
M  V30 1508 H 149.254 0.916647 -2.89536 0
M  V30 1509 H 146.839 0.387842 -1.44278 0
M  V30 1510 H 148.721 3.34655 -2.56094 0
M  V30 1511 H 147.396 2.89157 -1.45498 0
M  V30 1512 H 146.303 1.60226 -3.38051 0
M  V30 1513 H 147.636 2.12585 -4.43924 0
M  V30 1514 O 149.327 1.58157 0.326881 0
M  V30 1515 H 150.018 1.6734 0.975558 0
M  V30 END ATOM
M  V30 BEGIN BOND
M  V30 END BOND
M  V30 END CTAB
M  END
$$$$
