drugbank_target|Q8I5Y3 Eukaryotic translation initiation factor 3 subunit C (DB11638)
 OpenBabel12092121113D

  0  0  0     0  0            999 V3000
M  V30 BEGIN CTAB
M  V30 COUNTS 16201 16324 0 0 0
M  V30 BEGIN ATOM
M  V30 1 H -0.908 1.98254 -0.117106 0
M  V30 2 N 0 1.576 0 0
M  V30 3 C 0.933 2.03868 1.02534 0
M  V30 4 C 1.911 0.928543 1.3348 0
M  V30 5 O 3.095 1.19667 1.45644 0
M  V30 6 C 0.222 2.43627 2.35294 0
M  V30 7 C -0.732 3.65373 2.2001 0
M  V30 8 S 0.101 5.13292 1.52614 0
M  V30 9 C 1.257 5.56322 2.86805 0
M  V30 10 H 1.49 2.90518 0.631377 0
M  V30 11 H -0.977 1.52953 0.210867 0
M  V30 12 H 0.981 2.67203 3.11629 0
M  V30 13 H -0.358 1.57376 2.7183 0
M  V30 14 H -1.165 3.90944 3.18086 0
M  V30 15 H -1.563 3.418 1.51819 0
M  V30 16 H 0.729 5.58782 3.83104 0
M  V30 17 H 1.672 6.56266 2.65933 0
M  V30 18 H 2.08 4.83886 2.90714 0
M  V30 19 N 1.4781 -0.272755 1.55222 0
M  V30 20 C 2.4101 -1.35946 1.8453 0
M  V30 21 C 3.4231 -1.45525 0.729818 0
M  V30 22 O 4.6121 -1.47337 1.00767 0
M  V30 23 C 1.7121 -2.74069 1.99347 0
M  V30 24 C 0.8851 -2.87079 3.30007 0
M  V30 25 C -0.0559 -4.05879 3.34886 0
M  V30 26 O -1.0299 -3.96626 4.08261 0
M  V30 27 N 0.1721 -5.17857 2.62307 0
M  V30 28 H 2.9371 -1.11149 2.78327 0
M  V30 29 H 0.4981 -0.462869 1.55142 0
M  V30 30 H 2.4901 -3.51838 1.99981 0
M  V30 31 H 1.0601 -2.91688 1.12415 0
M  V30 32 H 0.2801 -1.96193 3.41909 0
M  V30 33 H 1.5681 -2.92701 4.16177 0
M  V30 34 H 0.9661 -5.28261 2.02377 0
M  V30 35 H -0.4769 -5.93855 2.68663 0
M  V30 36 N 2.9562 -1.48159 -0.537278 0
M  V30 37 C 4.1812 -1.59707 -1.32319 0
M  V30 38 C 4.6062 -0.254859 -1.86365 0
M  V30 39 O 3.9642 0.772378 -1.64024 0
M  V30 40 C 4.0122 -2.6412 -2.45505 0
M  V30 41 O 3.1162 -2.20774 -3.48328 0
M  V30 42 H 2.4572 -0.535791 -0.392204 0
M  V30 43 H 4.9872 -1.94092 -0.647268 0
M  V30 44 H 4.9972 -2.85166 -2.91795 0
M  V30 45 H 3.6722 -3.61567 -2.05528 0
M  V30 46 H 2.2492 -2.09911 -3.08207 0
M  V30 47 N 4.4343 0.785586 -1.36625 0
M  V30 48 C 5.3813 1.89838 -1.31264 0
M  V30 49 C 6.3513 1.65115 -0.180633 0
M  V30 50 O 7.5363 1.87222 -0.36777 0
M  V30 51 C 4.6763 3.26706 -1.11163 0
M  V30 52 C 3.7893 3.63476 -2.33472 0
M  V30 53 C 2.9243 4.89481 -2.06353 0
M  V30 54 C 1.9633 5.18941 -3.24602 0
M  V30 55 N 1.1003 6.36131 -2.97123 0
M  V30 56 H 5.9403 1.93756 -2.26413 0
M  V30 57 H 3.4773 0.947454 -1.12524 0
M  V30 58 H 5.4353 4.05639 -0.975337 0
M  V30 59 H 4.0653 3.222 -0.196674 0
M  V30 60 H 3.1173 2.79636 -2.57891 0
M  V30 61 H 4.4293 3.81193 -3.21704 0
M  V30 62 H 3.5833 5.76288 -1.89675 0
M  V30 63 H 2.3223 4.73841 -1.15437 0
M  V30 64 H 1.3273 4.30615 -3.41834 0
M  V30 65 H 2.5523 5.36498 -4.16349 0
M  V30 66 H 0.4983 6.21875 -2.08823 0
M  V30 67 H 0.4153 6.54198 -3.78894 0
M  V30 68 H 1.6833 7.2591 -2.84033 0
M  V30 69 N 5.9124 1.20967 1.01018 0
M  V30 70 C 7.1594 1.02374 1.74716 0
M  V30 71 C 7.4874 -0.443375 1.89379 0
M  V30 72 O 6.7424 -1.34535 1.42123 0
M  V30 73 C 7.0414 1.65997 3.16512 0
M  V30 74 C 6.7074 3.15831 3.2181 0
M  V30 75 C 5.3694 3.56719 3.22963 0
M  V30 76 C 7.7214 4.11816 3.19464 0
M  V30 77 C 5.0494 4.92107 3.19449 0
M  V30 78 C 7.4014 5.47158 3.17491 0
M  V30 79 C 6.0654 5.87451 3.16951 0
M  V30 80 H 5.3354 0.374614 0.639332 0
M  V30 81 H 7.9824 1.50485 1.18434 0
M  V30 82 H 6.2874 1.10166 3.75993 0
M  V30 83 H 7.9844 1.49119 3.72242 0
M  V30 84 H 4.5744 2.83263 3.21652 0
M  V30 85 H 8.7584 3.81257 3.17737 0
M  V30 86 H 4.0144 5.22579 3.17366 0
M  V30 87 H 8.1884 6.21274 3.14629 0
M  V30 88 H 5.8154 6.92329 3.13983 0
M  V30 89 N 7.3905 -1.2043 1.01659 0
M  V30 90 C 8.6365 -1.90356 0.716674 0
M  V30 91 C 8.9915 -1.77367 -0.745557 0
M  V30 92 O 8.2845 -1.1471 -1.53467 0
M  V30 93 C 8.4785 -3.40464 1.08714 0
M  V30 94 C 8.3075 -3.6806 2.58384 0
M  V30 95 C 7.0775 -3.86775 3.25167 0
M  V30 96 C 9.2755 -3.70623 3.56572 0
M  V30 97 N 7.2575 -4.01889 4.64067 0
M  V30 98 C 8.6285 -3.91161 4.81034 0
M  V30 99 C 10.6835 -3.53586 3.50544 0
M  V30 100 C 9.3865 -3.96428 6.00198 0
M  V30 101 C 11.4125 -3.60125 4.6911 0
M  V30 102 C 10.7745 -3.81135 5.92381 0
M  V30 103 H 6.8735 -0.716226 0.313918 0
M  V30 104 H 9.4575 -1.44815 1.30141 0
M  V30 105 H 7.6285 -3.84757 0.530745 0
M  V30 106 H 9.3605 -3.97863 0.740763 0
M  V30 107 H 6.1155 -3.85156 2.75594 0
M  V30 108 H 6.5395 -4.13323 5.36184 0
M  V30 109 H 11.1815 -3.36308 2.56235 0
M  V30 110 H 8.8995 -4.12502 6.94887 0
M  V30 111 H 12.4855 -3.4825 4.66062 0
M  V30 112 H 11.3655 -3.86054 6.82592 0
M  V30 113 N 8.8686 -0.792821 -1.36206 0
M  V30 114 C 9.8316 -0.199459 -2.2833 0
M  V30 115 C 10.8316 0.605189 -1.48977 0
M  V30 116 O 12.0216 0.425685 -1.68919 0
M  V30 117 C 9.1536 0.723523 -3.33134 0
M  V30 118 H 10.3466 -1.01181 -2.82316 0
M  V30 119 H 7.8996 -0.562485 -1.45828 0
M  V30 120 H 8.6346 1.56008 -2.84309 0
M  V30 121 H 8.4196 0.148436 -3.91819 0
M  V30 122 H 9.9096 1.13344 -4.01924 0
M  V30 123 N 10.3467 1.47872 -0.545128 0
M  V30 124 C 11.2937 2.29849 0.2093 0
M  V30 125 C 12.2637 1.38313 0.919707 0
M  V30 126 O 13.4487 1.67277 0.917772 0
M  V30 127 C 10.5887 3.22019 1.24088 0
M  V30 128 C 9.7017 4.2864 0.537778 0
M  V30 129 C 8.8367 5.07973 1.5536 0
M  V30 130 C 7.8757 6.06381 0.8348 0
M  V30 131 N 7.0127 6.78717 1.79688 0
M  V30 132 H 11.8527 2.93845 -0.49591 0
M  V30 133 H 9.3897 1.44848 -0.256389 0
M  V30 134 H 11.3477 3.73868 1.85144 0
M  V30 135 H 9.9777 2.59914 1.91428 0
M  V30 136 H 9.0297 3.7994 -0.187046 0
M  V30 137 H 10.3417 4.98793 -0.0258907 0
M  V30 138 H 9.4957 5.63912 2.23803 0
M  V30 139 H 8.2347 4.37693 2.15118 0
M  V30 140 H 7.2397 5.49631 0.136388 0
M  V30 141 H 8.4647 6.78665 0.24313 0
M  V30 142 H 6.4107 6.11177 2.38326 0
M  V30 143 H 6.3277 7.44998 1.28505 0
M  V30 144 H 7.5957 7.39237 2.47282 0
M  V30 145 N 11.8248 0.280983 1.55075 0
M  V30 146 C 12.7878 -0.590896 2.21452 0
M  V30 147 C 13.7878 -1.07682 1.19421 0
M  V30 148 O 14.9778 -0.97605 1.44288 0
M  V30 149 C 12.1098 -1.81587 2.88511 0
M  V30 150 H 13.3028 -0.0112554 2.99898 0
M  V30 151 H 10.8558 0.0316438 1.56268 0
M  V30 152 H 11.5908 -2.43587 2.14093 0
M  V30 153 H 11.3758 -1.4753 3.63287 0
M  V30 154 H 12.8658 -2.43575 3.39206 0
M  V30 155 N 13.3029 -1.57598 0.00835791 0
M  V30 156 C 14.5519 -1.90107 -0.673968 0
M  V30 157 C 14.8649 -0.884275 -1.7447 0
M  V30 158 O 16.0709 -1.09987 -2.48224 0
M  V30 159 C 14.5269 -3.37497 -1.24995 0
M  V30 160 C 14.1349 -4.47491 -0.2136 0
M  V30 161 C 15.8789 -3.79104 -1.90999 0
M  V30 162 C 13.7859 -5.85963 -0.80005 0
M  V30 163 H 12.7159 -0.709393 -0.255495 0
M  V30 164 H 15.3669 -1.83365 0.0702693 0
M  V30 165 H 13.7489 -3.39102 -2.04513 0
M  V30 166 H 14.9229 -4.57414 0.557596 0
M  V30 167 H 13.2379 -4.14956 0.346474 0
M  V30 168 H 15.8349 -4.79901 -2.35795 0
M  V30 169 H 16.1779 -3.1306 -2.74407 0
M  V30 170 H 16.7109 -3.79833 -1.18203 0
M  V30 171 H 13.4499 -6.555 -0.00456708 0
M  V30 172 H 12.9699 -5.79687 -1.54021 0
M  V30 173 H 14.6489 -6.33884 -1.29615 0
M  V30 174 N 14.781 0.264519 -1.55364 0
M  V30 175 C 16.058 1.01677 -1.67096 0
M  V30 176 C 16.438 2.03996 -0.543015 0
M  V30 177 O 15.786 2.23907 0.45585 0
M  V30 178 C 15.996 1.66596 -3.0667 0
M  V30 179 C 17.344 2.17442 -3.64697 0
M  V30 180 O 18.368 1.76568 -3.09358 0
M  V30 181 O 17.227 2.92439 -4.61673 0
M  V30 182 H 14.321 0.472161 -0.678965 0
M  V30 183 H 16.867 0.259703 -1.67701 0
M  V30 184 H 15.639 0.924962 -3.80211 0
M  V30 185 H 15.262 2.48968 -3.10001 0
M  V30 186 N 16.2591 1.48442 0.529413 0
M  V30 187 C 17.1691 1.6569 1.66084 0
M  V30 188 C 18.1851 0.539432 1.65427 0
M  V30 189 O 19.3611 0.810572 1.84368 0
M  V30 190 C 16.4261 1.69315 3.02545 0
M  V30 191 C 15.4871 2.92694 3.14052 0
M  V30 192 C 14.7201 2.96137 4.44003 0
M  V30 193 O 14.9431 2.07973 5.31134 0
M  V30 194 O 13.8771 3.88312 4.59888 0
M  V30 195 H 17.7031 2.61483 1.54469 0
M  V30 196 H 15.2881 1.3185 0.702567 0
M  V30 197 H 17.1701 1.74217 3.83701 0
M  V30 198 H 15.8451 0.766966 3.14483 0
M  V30 199 H 14.7521 2.93324 2.32189 0
M  V30 200 H 16.0851 3.84699 3.0703 0
M  V30 201 N 17.7372 -0.778329 1.37039 0
M  V30 202 C 19.0142 -1.52551 1.22424 0
M  V30 203 C 19.3942 -2.10288 -0.184964 0
M  V30 204 O 18.7422 -1.94953 -1.19187 0
M  V30 205 C 18.9522 -2.61164 2.31504 0
M  V30 206 C 20.3002 -3.28746 2.68721 0
M  V30 207 O 21.3242 -2.71455 2.30631 0
M  V30 208 O 20.1832 -4.3231 3.3432 0
M  V30 209 H 17.2772 -0.675343 0.477326 0
M  V30 210 H 19.8232 -0.815859 1.48801 0
M  V30 211 H 18.5952 -2.16574 3.25901 0
M  V30 212 H 18.2182 -3.39737 2.06554 0
M  V30 213 N 19.2153 -1.21501 -1.00376 0
M  V30 214 C 20.4403 -1.05977 -1.78279 0
M  V30 215 C 20.8653 0.385994 -1.84097 0
M  V30 216 O 20.2233 1.27849 -1.28547 0
M  V30 217 C 20.2713 -1.66302 -3.19963 0
M  V30 218 O 19.3753 -0.909333 -4.0225 0
M  V30 219 H 18.7163 -0.372906 -0.549397 0
M  V30 220 H 21.2463 -1.6107 -1.26165 0
M  V30 221 H 21.2563 -1.70574 -3.70632 0
M  V30 222 H 19.9313 -2.71515 -3.15043 0
M  V30 223 H 18.5083 -0.941795 -3.60811 0
M  V30 224 N 20.6934 1.19889 -1.02296 0
M  V30 225 C 21.9414 1.89046 -0.714558 0
M  V30 226 C 22.2624 1.79636 0.758681 0
M  V30 227 O 21.5324 1.20292 1.54618 0
M  V30 228 H 20.1124 0.699802 -0.261317 0
M  V30 229 H 22.7744 1.45574 -1.29592 0
M  V30 230 H 21.8704 2.95524 -1.0036 0
M  V30 231 N 22.1715 0.800033 1.35784 0
M  V30 232 C 23.4485 0.30088 1.93272 0
M  V30 233 C 23.8285 -1.20857 1.73081 0
M  V30 234 O 23.1765 -2.00502 1.09596 0
M  V30 235 C 23.3865 0.70511 3.41803 0
M  V30 236 C 24.7345 0.690871 4.18942 0
M  V30 237 O 25.7585 0.646244 3.50289 0
M  V30 238 O 24.6175 0.74332 5.41421 0
M  V30 239 H 21.7115 0.0771605 0.823393 0
M  V30 240 H 24.2575 0.88329 1.449 0
M  V30 241 H 23.0295 1.74571 3.50201 0
M  V30 242 H 22.6525 0.0971541 3.97481 0
M  V30 243 N 23.6496 -1.47581 0.552962 0
M  V30 244 C 24.5976 -2.31648 -0.21023 0
M  V30 245 C 25.5916 -1.42663 -0.913432 0
M  V30 246 O 26.7976 -1.5945 -0.835201 0
M  V30 247 H 23.1726 -0.746989 -0.0866676 0
M  V30 248 H 25.1436 -2.93869 0.518051 0
M  V30 249 C 23.8926 -3.25226 -1.22976 0
M  V30 250 H 23.2156 -3.93658 -0.698077 0
M  V30 251 H 24.6556 -3.86889 -1.73473 0
M  V30 252 C 23.1146 -2.48448 -2.27542 0
M  V30 253 O 23.6446 -2.22585 -3.34393 0
M  V30 254 N 21.8506 -2.09532 -2.01357 0
M  V30 255 H 21.3976 -2.30765 -1.14478 0
M  V30 256 H 21.3556 -1.58476 -2.71538 0
M  V30 257 N 25.1277 -0.289203 -1.54924 0
M  V30 258 C 26.3737 0.323998 -2.00195 0
M  V30 259 C 26.7067 1.54441 -1.17735 0
M  V30 260 O 25.9817 1.92875 -0.250878 0
M  V30 261 C 26.2647 0.692276 -3.53383 0
M  V30 262 C 26.1177 -0.536457 -4.46589 0
M  V30 263 C 27.4367 1.52335 -4.12895 0
M  V30 264 H 24.5557 0.116289 -0.727768 0
M  V30 265 H 27.1977 -0.398954 -1.85764 0
M  V30 266 H 25.3477 1.30822 -3.65811 0
M  V30 267 H 27.0197 -1.17499 -4.46085 0
M  V30 268 H 25.2627 -1.17192 -4.1767 0
M  V30 269 H 25.9337 -0.234806 -5.515 0
M  V30 270 H 28.4097 1.00302 -4.0383 0
M  V30 271 H 27.2857 1.74982 -5.20262 0
M  V30 272 H 27.5467 2.50886 -3.64018 0
M  V30 273 N 26.6058 1.57591 -0.0167156 0
M  V30 274 C 27.8338 1.95575 0.675128 0
M  V30 275 C 28.2488 0.892542 1.6637 0
M  V30 276 O 27.6058 -0.126912 1.82058 0
M  V30 277 C 27.6568 3.33608 1.39239 0
M  V30 278 O 27.3778 4.3585 0.443444 0
M  V30 279 C 28.8788 3.86151 2.17721 0
M  V30 280 H 26.0988 0.644423 0.186978 0
M  V30 281 H 28.6428 2.0437 -0.0728 0
M  V30 282 H 26.7978 3.2607 2.09182 0
M  V30 283 H 27.2118 5.158 0.951358 0
M  V30 284 H 28.6858 4.85114 2.63379 0
M  V30 285 H 29.1628 3.19738 3.01105 0
M  V30 286 H 29.7688 3.96918 1.52761 0
M  V30 287 N 28.0839 -0.256276 1.55502 0
M  V30 288 C 28.9939 -1.33882 1.92647 0
M  V30 289 C 30.0099 -1.53159 0.825727 0
M  V30 290 O 31.1859 -1.66963 1.12629 0
M  V30 291 C 28.2509 -2.6751 2.20543 0
M  V30 292 C 27.3119 -2.56836 3.43997 0
M  V30 293 C 26.5449 -3.84092 3.70553 0
M  V30 294 O 26.7679 -4.85545 2.99336 0
M  V30 295 O 25.7019 -3.83288 4.64084 0
M  V30 296 H 29.5279 -1.05374 2.84833 0
M  V30 297 H 27.1129 -0.456237 1.42263 0
M  V30 298 H 28.9949 -3.46492 2.39835 0
M  V30 299 H 27.6699 -2.9577 1.31536 0
M  V30 300 H 26.5769 -1.76172 3.30021 0
M  V30 301 H 27.9099 -2.33523 4.33275 0
M  V30 302 N 29.562 -1.4872 -0.521534 0
M  V30 303 C 30.787 -1.61101 -1.30618 0
M  V30 304 C 31.212 -0.274611 -1.86085 0
M  V30 305 O 30.57 0.754937 -1.64834 0
M  V30 306 C 30.618 -2.66709 -2.4269 0
M  V30 307 O 29.722 -2.24456 -3.45967 0
M  V30 308 H 29.063 -0.539921 -0.386499 0
M  V30 309 H 31.593 -1.94767 -0.626645 0
M  V30 310 H 31.603 -2.88245 -2.88754 0
M  V30 311 H 30.278 -3.63727 -2.01682 0
M  V30 312 H 28.855 -2.13168 -3.05964 0
M  V30 313 N 31.0401 0.771051 -1.3745 0
M  V30 314 C 32.2651 1.56529 -1.36065 0
M  V30 315 C 32.6901 1.88029 0.0515859 0
M  V30 316 O 32.0481 1.49282 1.02882 0
M  V30 317 C 32.0961 2.85187 -2.20683 0
M  V30 318 O 31.2001 3.79593 -1.61193 0
M  V30 319 H 30.5411 0.47411 -0.464883 0
M  V30 320 H 33.0711 0.954269 -1.80983 0
M  V30 321 H 33.0811 3.34283 -2.33921 0
M  V30 322 H 31.7561 2.61588 -3.23334 0
M  V30 323 H 30.3331 3.38239 -1.56999 0
M  V30 324 N 32.5182 1.22032 0.997298 0
M  V30 325 C 33.4282 1.00271 2.12092 0
M  V30 326 C 34.4442 -0.047621 1.73935 0
M  V30 327 O 35.6202 0.144136 2.00884 0
M  V30 328 C 32.6852 0.578449 3.4184 0
M  V30 329 C 31.7462 1.70189 3.94125 0
M  V30 330 C 30.9792 1.29778 5.17681 0
M  V30 331 O 31.2022 0.174676 5.70132 0
M  V30 332 O 30.1362 2.11261 5.63607 0
M  V30 333 H 33.9622 1.94398 2.3333 0
M  V30 334 H 31.5472 1.00587 1.10465 0
M  V30 335 H 33.4292 0.351998 4.19927 0
M  V30 336 H 32.1042 -0.334019 3.21972 0
M  V30 337 H 31.0112 1.98282 3.1723 0
M  V30 338 H 32.3442 2.59206 4.18417 0
M  V30 339 N 33.9963 -1.19345 1.0293 0
M  V30 340 C 35.2213 -1.93538 0.745511 0
M  V30 341 C 35.6463 -1.75007 -0.689511 0
M  V30 342 O 35.0043 -1.05265 -1.47611 0
M  V30 343 C 35.0523 -3.43336 1.10239 0
M  V30 344 O 34.1563 -4.11806 0.221289 0
M  V30 345 H 33.4973 -0.604193 0.275404 0
M  V30 346 H 36.0273 -1.5141 1.37609 0
M  V30 347 H 36.0373 -3.94004 1.05947 0
M  V30 348 H 34.7123 -3.56146 2.14786 0
M  V30 349 H 33.2893 -3.715 0.322842 0
M  V30 350 N 35.4744 -0.807222 -1.35358 0
M  V30 351 C 36.3844 -0.219594 -2.3357 0
M  V30 352 C 37.4004 0.637734 -1.61892 0
M  V30 353 O 38.5764 0.549336 -1.93763 0
M  V30 354 C 35.6414 0.62158 -3.41083 0
M  V30 355 C 34.7024 -0.256315 -4.28534 0
M  V30 356 C 33.9354 0.544807 -5.30912 0
M  V30 357 O 34.1584 1.77944 -5.41934 0
M  V30 358 O 33.0924 -0.0646478 -6.01865 0
M  V30 359 H 36.9184 -1.03208 -2.85625 0
M  V30 360 H 34.5034 -0.569025 -1.38139 0
M  V30 361 H 36.3854 1.10067 -4.06772 0
M  V30 362 H 35.0604 1.41165 -2.91297 0
M  V30 363 H 33.9674 -0.782559 -3.65823 0
M  V30 364 H 35.3004 -1.01034 -4.81719 0
M  V30 365 N 36.9525 1.47285 -0.560781 0
M  V30 366 C 38.1985 2.02764 -0.0381184 0
M  V30 367 C 38.5315 1.43384 1.30976 0
M  V30 368 O 37.8065 0.590733 1.85312 0
M  V30 369 C 38.0895 3.60064 0.0511427 0
M  V30 370 C 37.9425 4.2987 -1.32408 0
M  V30 371 C 39.2615 4.33439 0.762795 0
M  V30 372 H 36.3805 0.736841 -0.0153264 0
M  V30 373 H 39.0225 1.75675 -0.723759 0
M  V30 374 H 37.1725 3.83274 0.635065 0
M  V30 375 H 38.8445 4.17989 -1.95148 0
M  V30 376 H 37.0875 3.90085 -1.8978 0
M  V30 377 H 37.7585 5.38478 -1.21431 0
M  V30 378 H 40.2345 4.15243 0.266965 0
M  V30 379 H 39.1105 5.43124 0.794221 0
M  V30 380 H 39.3715 4.02915 1.81966 0
M  V30 381 N 38.4306 0.297415 1.54768 0
M  V30 382 C 39.3406 -0.58983 2.27064 0
M  V30 383 C 40.3566 -1.15144 1.30453 0
M  V30 384 O 41.5326 -1.17699 1.63428 0
M  V30 385 C 38.5976 -1.74714 2.9946 0
M  V30 386 C 37.6586 -1.21997 4.11601 0
M  V30 387 C 36.8916 -2.32212 4.80535 0
M  V30 388 O 37.1146 -3.52036 4.48806 0
M  V30 389 O 36.0486 -1.99106 5.68014 0
M  V30 390 H 39.8746 -0.00348199 3.037 0
M  V30 391 H 37.4596 0.0640035 1.49263 0
M  V30 392 H 39.3416 -2.42147 3.44881 0
M  V30 393 H 38.0166 -2.32016 2.25722 0
M  V30 394 H 36.9236 -0.511458 3.70587 0
M  V30 395 H 38.2566 -0.692419 4.87305 0
M  V30 396 N 39.9087 -1.5758 0.0250728 0
M  V30 397 C 40.8187 -2.1343 -0.973905 0
M  V30 398 C 41.8347 -1.08556 -1.35984 0
M  V30 399 O 43.0107 -1.40592 -1.44207 0
M  V30 400 C 40.0757 -2.64703 -2.23904 0
M  V30 401 C 39.1367 -3.84276 -1.91391 0
M  V30 402 C 38.3697 -4.33095 -3.11873 0
M  V30 403 O 38.5927 -3.81107 -4.24398 0
M  V30 404 O 37.5267 -5.24984 -2.94406 0
M  V30 405 H 41.3527 -2.99057 -0.529036 0
M  V30 406 H 38.9377 -1.48118 -0.195288 0
M  V30 407 H 40.8197 -2.97769 -2.98181 0
M  V30 408 H 39.4947 -1.82161 -2.6758 0
M  V30 409 H 38.4017 -3.56143 -1.14511 0
M  V30 410 H 39.7347 -4.67968 -1.52534 0
M  V30 411 N 41.3868 0.248026 -1.55636 0
M  V30 412 C 42.3338 1.30707 -1.90222 0
M  V30 413 C 43.3038 1.47881 -0.756332 0
M  V30 414 O 44.4888 1.61883 -1.00988 0
M  V30 415 C 41.6288 2.65769 -2.20138 0
M  V30 416 C 40.7418 2.56612 -3.47526 0
M  V30 417 C 39.8768 3.8402 -3.67017 0
M  V30 418 C 38.9158 3.69476 -4.8801 0
M  V30 419 N 38.0528 4.88774 -5.04029 0
M  V30 420 H 42.8928 1.00512 -2.80538 0
M  V30 421 H 40.4298 0.485055 -1.38873 0
M  V30 422 H 42.3878 3.44386 -2.35487 0
M  V30 423 H 41.0178 2.94115 -1.33027 0
M  V30 424 H 40.0698 1.69571 -3.40514 0
M  V30 425 H 41.3818 2.41774 -4.36287 0
M  V30 426 H 40.5358 4.7108 -3.8232 0
M  V30 427 H 39.2748 4.01754 -2.76487 0
M  V30 428 H 38.2798 2.80799 -4.72686 0
M  V30 429 H 39.5048 3.53238 -5.8 0
M  V30 430 H 37.4508 5.0687 -4.16435 0
M  V30 431 H 37.3678 4.76562 -5.86877 0
M  V30 432 H 38.6358 5.77335 -5.23741 0
M  V30 433 N 42.8649 1.48995 0.513639 0
M  V30 434 C 43.8119 1.6473 1.61656 0
M  V30 435 C 44.7819 0.488984 1.58739 0
M  V30 436 O 45.9669 0.714478 1.76918 0
M  V30 437 C 43.1069 1.7082 2.99858 0
M  V30 438 C 42.2199 2.9787 3.12885 0
M  V30 439 C 41.3549 2.95017 4.41744 0
M  V30 440 C 40.3939 4.16702 4.48359 0
M  V30 441 N 39.5309 4.11832 5.68629 0
M  V30 442 H 44.3709 2.58909 1.47547 0
M  V30 443 H 41.9079 1.28382 0.71808 0
M  V30 444 H 43.8659 1.72331 3.79944 0
M  V30 445 H 42.4959 0.801181 3.12699 0
M  V30 446 H 41.5479 3.06029 2.25944 0
M  V30 447 H 42.8599 3.8786 3.13633 0
M  V30 448 H 42.0139 2.95021 5.30139 0
M  V30 449 H 40.7529 2.02784 4.43542 0
M  V30 450 H 39.7579 4.16955 3.58369 0
M  V30 451 H 40.9829 5.10113 4.48287 0
M  V30 452 H 38.9289 3.22428 5.71293 0
M  V30 453 H 38.8459 4.95543 5.7094 0
M  V30 454 H 40.1139 4.1592 6.59266 0
M  V30 455 N 44.343 -0.763751 1.37857 0
M  V30 456 C 45.754 -1.3405 1.29952 0
M  V30 457 C 46.105 -1.96138 -0.0492898 0
M  V30 458 O 45.23 -1.94372 -0.951239 0
M  V30 459 C 45.825 -2.43729 2.35333 0
M  V30 460 C 44.384 -2.97151 2.31037 0
M  V30 461 C 43.531 -1.70438 2.18738 0
M  V30 462 H 46.482 -0.563396 1.48363 0
M  V30 463 H 46.503 -3.23412 2.00462 0
M  V30 464 H 46.015 -1.9851 3.33489 0
M  V30 465 H 44.116 -3.46724 1.3643 0
M  V30 466 H 44.229 -3.52221 3.24772 0
M  V30 467 H 42.593 -1.93673 1.65418 0
M  V30 468 H 43.376 -1.27312 3.18821 0
M  V30 469 N 45.8211 -1.22559 -0.990812 0
M  V30 470 C 47.0701 -1.04553 -1.72486 0
M  V30 471 C 47.3831 0.419349 -1.91052 0
M  V30 472 O 48.5891 0.719121 -2.61803 0
M  V30 473 C 47.0451 -1.82231 -3.10355 0
M  V30 474 C 46.6531 -3.32981 -2.99713 0
M  V30 475 C 48.3971 -1.7268 -3.87791 0
M  V30 476 C 46.3041 -4.03091 -4.32748 0
M  V30 477 H 45.2341 -0.387614 -0.646739 0
M  V30 478 H 47.8851 -1.46429 -1.10593 0
M  V30 479 H 46.2671 -1.33155 -3.72942 0
M  V30 480 H 47.4411 -3.89466 -2.46278 0
M  V30 481 H 45.7561 -3.43231 -2.35758 0
M  V30 482 H 48.3531 -2.22381 -4.86262 0
M  V30 483 H 48.6961 -0.687607 -4.10582 0
M  V30 484 H 49.2291 -2.1931 -3.31885 0
M  V30 485 H 45.9681 -5.07273 -4.15156 0
M  V30 486 H 45.4881 -3.51394 -4.86089 0
M  V30 487 H 47.1671 -4.08804 -5.01486 0
M  V30 488 N 47.2992 1.18797 -1.03562 0
M  V30 489 C 48.5452 1.8893 -0.737113 0
M  V30 490 C 48.8782 1.79837 0.732956 0
M  V30 491 O 48.1532 1.19525 1.5344 0
M  V30 492 C 48.4362 3.39607 -1.19745 0
M  V30 493 C 48.2892 3.57537 -2.72924 0
M  V30 494 C 49.6082 4.33069 -0.783526 0
M  V30 495 H 46.7272 0.686057 -0.269249 0
M  V30 496 H 49.3692 1.39797 -1.28673 0
M  V30 497 H 47.5192 3.81583 -0.729855 0
M  V30 498 H 49.1912 3.24688 -3.27682 0
M  V30 499 H 47.4342 3.00363 -3.12993 0
M  V30 500 H 48.1052 4.63238 -3.00191 0
M  V30 501 H 50.5812 3.98846 -1.18581 0
M  V30 502 H 49.4572 5.3707 -1.13343 0
M  V30 503 H 49.7182 4.40986 0.313681 0
M  V30 504 N 48.7773 0.814389 1.34928 0
M  V30 505 C 50.0023 0.410097 2.03305 0
M  V30 506 C 50.4273 -0.973464 1.60951 0
M  V30 507 O 49.7853 -1.63185 0.789964 0
M  V30 508 C 49.8333 0.51049 3.56968 0
M  V30 509 O 48.9373 -0.473035 4.09678 0
M  V30 510 H 48.2783 0.170088 0.641846 0
M  V30 511 H 50.8083 1.10244 1.72358 0
M  V30 512 H 50.8183 0.383135 4.06197 0
M  V30 513 H 49.4933 1.51963 3.87144 0
M  V30 514 H 48.0703 -0.305272 3.71648 0
M  V30 515 N 50.2554 -1.46986 0.568584 0
M  V30 516 C 51.2184 -2.28624 -0.162366 0
M  V30 517 C 52.2184 -1.37596 -0.832103 0
M  V30 518 O 53.4084 -1.60115 -0.68622 0
M  V30 519 C 50.5404 -3.17596 -1.23878 0
M  V30 520 H 51.7334 -2.94722 0.554899 0
M  V30 521 H 49.2864 -1.52863 0.325976 0
M  V30 522 H 50.0214 -2.56214 -1.98808 0
M  V30 523 H 49.8064 -3.846 -0.763219 0
M  V30 524 H 51.2964 -3.79078 -1.75185 0
M  V30 525 N 51.7335 -0.305618 -1.54608 0
M  V30 526 C 52.6655 0.602161 -2.21149 0
M  V30 527 C 53.6785 1.09394 -1.20569 0
M  V30 528 O 54.8675 1.0106 -1.47136 0
M  V30 529 C 51.9675 1.83692 -2.84799 0
M  V30 530 C 51.1405 1.48686 -4.11353 0
M  V30 531 C 50.1995 2.57725 -4.58764 0
M  V30 532 O 49.2255 2.22623 -5.23858 0
M  V30 533 N 50.4275 3.88346 -4.31471 0
M  V30 534 H 53.1925 0.0324966 -2.99682 0
M  V30 535 H 50.7535 -0.128021 -1.61393 0
M  V30 536 H 52.7455 2.55994 -3.13448 0
M  V30 537 H 51.3155 2.31486 -2.10078 0
M  V30 538 H 50.5355 0.596269 -3.89664 0
M  V30 539 H 51.8235 1.22842 -4.93748 0
M  V30 540 H 51.2215 4.19671 -3.79331 0
M  V30 541 H 49.7785 4.56932 -4.64818 0
M  V30 542 N 53.2116 1.57565 -0.0334293 0
M  V30 543 C 54.1746 2.09393 0.932048 0
M  V30 544 C 55.1746 1.00986 1.25134 0
M  V30 545 O 56.3646 1.27129 1.19096 0
M  V30 546 C 53.4966 2.56338 2.2473 0
M  V30 547 H 54.6896 2.95984 0.483085 0
M  V30 548 H 52.2426 1.54819 0.21468 0
M  V30 549 H 52.9776 1.7309 2.74245 0
M  V30 550 H 52.7626 3.35542 2.02865 0
M  V30 551 H 54.2526 2.96646 2.93923 0
M  V30 552 N 54.6897 -0.239769 1.55765 0
M  V30 553 C 55.5997 -1.31831 1.94056 0
M  V30 554 C 56.6157 -1.52275 0.841925 0
M  V30 555 O 57.7917 -1.65759 1.14394 0
M  V30 556 C 54.8567 -2.65156 2.23368 0
M  V30 557 C 53.9177 -2.53173 3.46701 0
M  V30 558 C 53.1507 -3.8014 3.74606 0
M  V30 559 O 53.3737 -4.82343 3.04469 0
M  V30 560 O 52.3077 -3.78344 4.68123 0
M  V30 561 H 56.1337 -1.02347 2.85935 0
M  V30 562 H 53.7187 -0.441123 1.42739 0
M  V30 563 H 55.6007 -3.43929 2.43497 0
M  V30 564 H 54.2757 -2.94358 1.34666 0
M  V30 565 H 53.1827 -1.72662 3.31871 0
M  V30 566 H 54.5157 -2.28915 4.35728 0
M  V30 567 N 56.1678 -1.49265 -0.50573 0
M  V30 568 C 57.5838 -1.35923 -0.836486 0
M  V30 569 C 57.7838 -0.388704 -1.97715 0
M  V30 570 O 56.8398 0.181336 -2.51848 0
M  V30 571 C 58.1528 -2.76531 -1.18115 0
M  V30 572 C 59.7008 -2.85197 -1.28964 0
M  V30 573 C 60.1758 -4.26561 -1.66761 0
M  V30 574 N 61.6668 -4.2935 -1.73819 0
M  V30 575 C 62.4018 -5.35693 -2.045 0
M  V30 576 N 61.8978 -6.52287 -2.33438 0
M  V30 577 N 63.6908 -5.23105 -2.05711 0
M  V30 578 H 55.8418 -2.10965 0.246519 0
M  V30 579 H 58.1048 -0.9468 0.0476887 0
M  V30 580 H 57.8108 -3.49226 -0.416398 0
M  V30 581 H 57.6848 -3.11599 -2.1257 0
M  V30 582 H 60.0718 -2.12742 -2.04511 0
M  V30 583 H 60.1528 -2.53718 -0.325704 0
M  V30 584 H 59.7968 -4.99541 -0.917656 0
M  V30 585 H 59.7268 -4.55502 -2.64246 0
M  V30 586 H 62.2178 -3.4526 -1.53635 0
M  V30 587 H 62.5308 -7.29158 -2.56024 0
M  V30 588 H 60.8758 -6.55521 -2.30905 0
M  V30 589 H 64.0668 -4.31026 -1.82577 0
M  V30 590 H 64.2398 -6.06078 -2.29289 0
M  V30 591 N 57.6459 0.756429 -1.3826 0
M  V30 592 C 58.8919 1.5168 -1.35517 0
M  V30 593 C 59.2469 1.9232 0.0554451 0
M  V30 594 O 58.5399 1.62352 1.01746 0
M  V30 595 C 58.7339 2.78313 -2.24224 0
M  V30 596 C 58.5629 2.50053 -3.7377 0
M  V30 597 C 57.3329 2.43414 -4.42807 0
M  V30 598 C 59.5309 2.1702 -4.66269 0
M  V30 599 N 57.5129 2.07398 -5.77805 0
M  V30 600 C 58.8839 1.91271 -5.89759 0
M  V30 601 C 60.9389 2.03305 -4.54501 0
M  V30 602 C 59.6419 1.53192 -7.02798 0
M  V30 603 C 61.6679 1.66627 -5.67441 0
M  V30 604 C 61.0299 1.4175 -6.8999 0
M  V30 605 H 57.1289 0.554735 -0.551174 0
M  V30 606 H 59.7129 0.881106 -1.73622 0
M  V30 607 H 57.8839 3.39696 -1.88311 0
M  V30 608 H 59.6159 3.44343 -2.12627 0
M  V30 609 H 56.3709 2.59789 -3.95988 0
M  V30 610 H 56.7949 1.92044 -6.4919 0
M  V30 611 H 61.4369 2.21215 -3.60311 0
M  V30 612 H 59.1549 1.34022 -7.96909 0
M  V30 613 H 62.7409 1.56652 -5.60314 0
M  V30 614 H 61.6209 1.1379 -7.759 0
M  V30 615 N 59.124 1.23083 0.984299 0
M  V30 616 C 60.087 1.00979 2.05757 0
M  V30 617 C 61.087 -0.0269573 1.60777 0
M  V30 618 O 62.277 0.212403 1.729 0
M  V30 619 C 59.409 0.527072 3.36801 0
M  V30 620 H 60.602 1.9622 2.26799 0
M  V30 621 H 58.155 1.05072 1.15714 0
M  V30 622 H 58.89 -0.429294 3.21446 0
M  V30 623 H 58.675 1.27515 3.70786 0
M  V30 624 H 60.165 0.392942 4.15747 0
M  V30 625 N 60.6021 -1.18246 1.0419 0
M  V30 626 C 61.5651 -2.20128 0.638452 0
M  V30 627 C 62.5651 -1.57885 -0.304805 0
M  V30 628 O 63.7551 -1.73967 -0.0900369 0
M  V30 629 C 60.8871 -3.4084 -0.0637751 0
M  V30 630 H 62.0801 -2.57336 1.54007 0
M  V30 631 H 59.6331 -1.32152 0.834598 0
M  V30 632 H 60.3681 -3.09166 -0.979136 0
M  V30 633 H 60.1531 -3.8726 0.614198 0
M  V30 634 H 61.6431 -4.16274 -0.332512 0
M  V30 635 N 62.0802 -0.821533 -1.34494 0
M  V30 636 C 63.3292 -0.405355 -1.97585 0
M  V30 637 C 63.6422 1.03677 -1.65863 0
M  V30 638 O 64.8482 1.55679 -2.22433 0
M  V30 639 C 63.3042 -0.673861 -3.53535 0
M  V30 640 C 62.9122 -2.12951 -3.94152 0
M  V30 641 C 64.6562 -0.32378 -4.23263 0
M  V30 642 C 62.5632 -2.34298 -5.43009 0
M  V30 643 H 61.4932 -0.147836 -0.739365 0
M  V30 644 H 64.1442 -1.00769 -1.53355 0
M  V30 645 H 62.5262 -0.00137554 -3.96 0
M  V30 646 H 63.7002 -2.84104 -3.62797 0
M  V30 647 H 62.0152 -2.44089 -3.37356 0
M  V30 648 H 64.6122 -0.461126 -5.32708 0
M  V30 649 H 64.9552 0.731586 -4.09821 0
M  V30 650 H 65.4882 -0.950786 -3.8627 0
M  V30 651 H 62.2272 -3.38335 -5.61435 0
M  V30 652 H 61.7472 -1.67687 -5.75883 0
M  V30 653 H 63.4262 -2.16588 -6.09671 0
M  V30 654 N 63.5583 1.46682 -0.576371 0
M  V30 655 C 64.8353 1.95599 0.00703437 0
M  V30 656 C 65.2153 1.51904 1.46589 0
M  V30 657 O 64.5633 0.766755 2.15251 0
M  V30 658 C 64.7733 3.4864 -0.158404 0
M  V30 659 C 66.1213 4.24594 -0.0229439 0
M  V30 660 O 67.1453 3.56094 -0.0869173 0
M  V30 661 O 66.0043 5.46373 0.118015 0
M  V30 662 H 63.0983 0.825275 0.053384 0
M  V30 663 H 65.6443 1.56996 -0.644244 0
M  V30 664 H 64.4163 3.7331 -1.17282 0
M  V30 665 H 64.0393 3.94057 0.5296 0
M  V30 666 N 65.0364 0.313813 1.54444 0
M  V30 667 C 66.2614 -0.296681 2.05267 0
M  V30 668 C 66.6864 -1.45757 1.18897 0
M  V30 669 O 66.0444 -1.80239 0.195886 0
M  V30 670 C 66.0924 -0.71831 3.53373 0
M  V30 671 O 65.1964 -1.82175 3.69981 0
M  V30 672 H 64.5374 -0.0554061 0.661684 0
M  V30 673 H 67.0674 0.459387 1.99376 0
M  V30 674 H 67.0774 -1.00364 3.95463 0
M  V30 675 H 65.7524 0.130821 4.15694 0
M  V30 676 H 64.3294 -1.53598 3.39797 0
M  V30 677 N 66.5145 -1.57545 0.0417849 0
M  V30 678 C 67.7395 -1.97035 -0.647455 0
M  V30 679 C 68.1645 -0.918775 -1.64135 0
M  V30 680 O 67.5225 0.119006 -1.80909 0
M  V30 681 C 67.5705 -3.35609 -1.31905 0
M  V30 682 O 66.6745 -3.3287 -2.43457 0
M  V30 683 H 66.0155 -0.64211 -0.169086 0
M  V30 684 H 68.5455 -2.04318 0.107399 0
M  V30 685 H 68.5555 -3.72126 -1.67291 0
M  V30 686 H 67.2305 -4.11685 -0.590586 0
M  V30 687 H 65.8075 -3.08087 -2.10088 0
M  V30 688 N 67.9926 0.231505 -1.5589 0
M  V30 689 C 69.2176 0.978689 -1.82856 0
M  V30 690 C 69.6426 1.77559 -0.620846 0
M  V30 691 O 69.0006 1.76119 0.430305 0
M  V30 692 C 69.0486 1.87997 -3.07716 0
M  V30 693 O 68.1526 2.97393 -2.85712 0
M  V30 694 H 67.4936 0.277663 -0.603158 0
M  V30 695 H 70.0236 0.24783 -2.03093 0
M  V30 696 H 70.0336 2.2917 -3.37558 0
M  V30 697 H 68.7086 1.29417 -3.95252 0
M  V30 698 H 67.2856 2.60238 -2.67078 0
M  V30 699 N 69.4707 1.49531 0.497807 0
M  V30 700 C 70.6957 1.63159 1.28039 0
M  V30 701 C 71.1207 0.30418 1.85624 0
M  V30 702 O 70.4787 -0.728618 1.66015 0
M  V30 703 C 70.5267 2.70537 2.38416 0
M  V30 704 O 69.6307 2.29931 3.42353 0
M  V30 705 H 68.9717 0.546001 0.377861 0
M  V30 706 H 71.5017 1.9574 0.59558 0
M  V30 707 H 71.5117 2.92802 2.84132 0
M  V30 708 H 70.1867 3.6689 1.95869 0
M  V30 709 H 68.7637 2.18009 3.02533 0
M  V30 710 N 70.9488 -0.749086 1.3866 0
M  V30 711 C 71.8588 -1.89358 1.38494 0
M  V30 712 C 72.8748 -1.71708 0.281476 0
M  V30 713 O 74.0508 -1.94554 0.520643 0
M  V30 714 C 71.1158 -3.24782 1.21316 0
M  V30 715 C 70.1768 -3.54926 2.41508 0
M  V30 716 C 69.4098 -4.83888 2.2514 0
M  V30 717 O 69.6328 -5.56592 1.24746 0
M  V30 718 O 68.5668 -5.13612 3.13826 0
M  V30 719 H 72.3928 -1.92452 2.34938 0
M  V30 720 H 69.9778 -0.894981 1.19626 0
M  V30 721 H 71.8598 -4.05739 1.13814 0
M  V30 722 H 70.5348 -3.2249 0.279592 0
M  V30 723 H 69.4418 -2.74112 2.54585 0
M  V30 724 H 70.7748 -3.61983 3.3351 0
M  V30 725 N 72.4269 -1.23603 -0.977757 0
M  V30 726 C 73.3369 -1.03632 -2.1047 0
M  V30 727 C 74.3529 0.0199435 -1.73989 0
M  V30 728 O 75.5289 -0.176076 -2.00629 0
M  V30 729 C 72.5939 -0.63276 -3.40877 0
M  V30 730 C 71.6549 -1.76437 -3.91367 0
M  V30 731 C 70.8879 -1.37997 -5.15551 0
M  V30 732 O 71.1109 -0.265357 -5.69782 0
M  V30 733 O 70.0449 -2.20201 -5.60174 0
M  V30 734 H 73.8709 -1.98086 -2.30208 0
M  V30 735 H 71.4559 -1.02332 -1.08851 0
M  V30 736 H 73.3379 -0.418761 -4.19314 0
M  V30 737 H 72.0129 0.282754 -3.22463 0
M  V30 738 H 70.9199 -2.03304 -3.14036 0
M  V30 739 H 72.2529 -2.6583 -4.14241 0
M  V30 740 N 73.905 1.17692 -1.04816 0
M  V30 741 C 74.815 2.25229 -0.65643 0
M  V30 742 C 75.831 1.71018 0.320761 0
M  V30 743 O 77.007 2.00649 0.173805 0
M  V30 744 C 74.072 3.46684 -0.0332629 0
M  V30 745 C 73.133 4.15997 -1.06042 0
M  V30 746 C 72.366 5.31654 -0.466893 0
M  V30 747 O 72.589 5.65777 0.724758 0
M  V30 748 O 71.523 5.89831 -1.1993 0
M  V30 749 H 75.349 2.61016 -1.55255 0
M  V30 750 H 72.934 1.24919 -0.81949 0
M  V30 751 H 74.816 4.20234 0.313256 0
M  V30 752 H 73.491 3.12703 0.836566 0
M  V30 753 H 72.398 3.44482 -1.45886 0
M  V30 754 H 73.731 4.53996 -1.90127 0
M  V30 755 N 75.3831 0.828654 1.34056 0
M  V30 756 C 76.2931 0.256725 2.33191 0
M  V30 757 C 77.3091 -0.611898 1.62886 0
M  V30 758 O 78.4851 -0.51844 1.94613 0
M  V30 759 C 75.5501 -0.567238 3.42028 0
M  V30 760 C 74.6111 0.324458 4.28072 0
M  V30 761 C 73.8441 -0.460274 5.31712 0
M  V30 762 O 74.0671 -1.693 5.44696 0
M  V30 763 O 73.0011 0.160391 6.01686 0
M  V30 764 H 76.8271 1.07739 2.83947 0
M  V30 765 H 74.4121 0.59093 1.37217 0
M  V30 766 H 76.2941 -1.03582 4.08471 0
M  V30 767 H 74.9691 -1.36513 2.93506 0
M  V30 768 H 73.8761 0.840659 3.64532 0
M  V30 769 H 75.2091 1.08685 4.8005 0
M  V30 770 N 76.8612 -1.46375 0.584142 0
M  V30 771 C 78.2772 -1.57694 0.245929 0
M  V30 772 C 78.4772 -1.57903 -1.25175 0
M  V30 773 O 77.5332 -1.49676 -2.03355 0
M  V30 774 C 78.8462 -2.87028 0.896402 0
M  V30 775 C 80.3942 -3.00662 0.870127 0
M  V30 776 C 80.8692 -4.32734 1.50017 0
M  V30 777 N 82.3602 -4.39436 1.46458 0
M  V30 778 C 83.0952 -5.40248 1.92144 0
M  V30 779 N 82.5912 -6.47726 2.4581 0
M  V30 780 N 84.3842 -5.31459 1.83052 0
M  V30 781 H 76.5352 -1.44483 1.55687 0
M  V30 782 H 78.7982 -0.689291 0.650831 0
M  V30 783 H 78.5042 -2.9269 1.95002 0
M  V30 784 H 78.3782 -3.75014 0.405486 0
M  V30 785 H 80.7652 -2.94581 -0.174871 0
M  V30 786 H 80.8462 -2.14148 1.39908 0
M  V30 787 H 80.4902 -4.39573 2.54437 0
M  V30 788 H 80.4202 -5.18025 0.946432 0
M  V30 789 H 82.9112 -3.62367 1.07231 0
M  V30 790 H 83.2242 -7.20863 2.78525 0
M  V30 791 H 81.5692 -6.48542 2.49836 0
M  V30 792 H 84.7602 -4.46396 1.40883 0
M  V30 793 H 84.9332 -6.09881 2.18973 0
M  V30 794 N 78.3393 -0.321999 -1.54275 0
M  V30 795 C 79.5853 0.281461 -2.00837 0
M  V30 796 C 79.9183 1.51909 -1.20985 0
M  V30 797 O 79.1933 1.923 -0.291733 0
M  V30 798 C 79.4763 0.617162 -3.54772 0
M  V30 799 C 79.3293 -0.631064 -4.45351 0
M  V30 800 C 80.6483 1.43542 -4.16033 0
M  V30 801 H 77.7673 0.100826 -0.730071 0
M  V30 802 H 80.4093 -0.438268 -1.84876 0
M  V30 803 H 78.5593 1.23034 -3.68504 0
M  V30 804 H 80.2313 -1.26934 -4.43492 0
M  V30 805 H 78.4743 -1.26025 -4.15091 0
M  V30 806 H 79.1453 -0.351735 -5.50878 0
M  V30 807 H 81.6213 0.917134 -4.05867 0
M  V30 808 H 80.4973 1.63907 -5.23856 0
M  V30 809 H 80.7583 2.43108 -3.69257 0
M  V30 810 N 79.8174 1.5752 -0.0501392 0
M  V30 811 C 81.0664 1.91827 0.623328 0
M  V30 812 C 81.3794 0.930222 1.72065 0
M  V30 813 O 82.5854 1.1653 2.4522 0
M  V30 814 C 81.0414 3.40692 1.16003 0
M  V30 815 C 80.6494 4.479 0.0948811 0
M  V30 816 C 82.3934 3.84034 1.80881 0
M  V30 817 C 80.3004 5.87879 0.644411 0
M  V30 818 H 79.2304 0.715918 0.236596 0
M  V30 819 H 81.8814 1.83115 -0.118861 0
M  V30 820 H 80.2634 3.44405 1.9545 0
M  V30 821 H 81.4374 4.55775 -0.678675 0
M  V30 822 H 79.7524 4.13892 -0.45637 0
M  V30 823 H 82.3494 4.85984 2.22988 0
M  V30 824 H 82.6924 3.20225 2.6601 0
M  V30 825 H 83.2254 3.82833 1.0809 0
M  V30 826 H 79.9644 6.55282 -0.169229 0
M  V30 827 H 79.4844 5.83567 1.38598 0
M  V30 828 H 81.1634 6.37098 1.12763 0
M  V30 829 N 81.2955 -0.223234 1.56011 0
M  V30 830 C 82.2425 -1.27664 1.92277 0
M  V30 831 C 83.2125 -1.46659 0.779763 0
M  V30 832 O 84.3975 -1.60256 1.03551 0
M  V30 833 C 81.5375 -2.62234 2.24338 0
M  V30 834 C 80.6505 -2.51051 3.51564 0
M  V30 835 C 79.7855 -3.78133 3.7308 0
M  V30 836 C 78.8245 -3.61665 4.93827 0
M  V30 837 N 77.9615 -4.80693 5.11741 0
M  V30 838 H 82.8015 -0.960358 2.82101 0
M  V30 839 H 80.3385 -0.462901 1.39627 0
M  V30 840 H 82.2965 -3.40596 2.40936 0
M  V30 841 H 80.9265 -2.91961 1.3769 0
M  V30 842 H 79.9785 -1.64132 3.43169 0
M  V30 843 H 81.2905 -2.34803 4.40079 0
M  V30 844 H 80.4445 -4.64938 3.89766 0
M  V30 845 H 79.1835 -3.97304 2.82844 0
M  V30 846 H 78.1885 -2.73244 4.77093 0
M  V30 847 H 79.4135 -3.43966 5.85546 0
M  V30 848 H 77.3595 -5.00181 4.24446 0
M  V30 849 H 77.2765 -4.67165 5.94384 0
M  V30 850 H 78.5445 -5.6893 5.3286 0
M  V30 851 N 82.7736 -1.49793 -0.48987 0
M  V30 852 C 84.0016 -1.63568 -1.26701 0
M  V30 853 C 84.4166 -0.311465 -1.86213 0
M  V30 854 O 83.7736 0.704416 -1.68357 0
M  V30 855 C 83.8246 -2.71284 -2.38929 0
M  V30 856 O 83.5456 -3.9857 -1.81861 0
M  V30 857 C 85.0466 -2.95864 -3.3012 0
M  V30 858 H 82.2666 -0.550342 -0.383881 0
M  V30 859 H 84.8106 -1.95898 -0.586864 0
M  V30 860 H 82.9656 -2.417 -3.02753 0
M  V30 861 H 83.3796 -4.57993 -2.55622 0
M  V30 862 H 84.8536 -3.74941 -4.05121 0
M  V30 863 H 85.3306 -2.06206 -3.87783 0
M  V30 864 H 85.9366 -3.26907 -2.72051 0
M  V30 865 N 84.2517 0.741722 -1.39055 0
M  V30 866 C 85.4817 1.52876 -1.3897 0
M  V30 867 C 85.8897 1.8919 0.0193266 0
M  V30 868 O 85.2327 1.54138 0.999356 0
M  V30 869 C 85.2947 2.84929 -2.19216 0
M  V30 870 C 84.9587 2.71086 -3.67915 0
M  V30 871 C 85.9557 2.40084 -4.61146 0
M  V30 872 C 83.6407 2.88168 -4.11418 0
M  V30 873 C 85.6347 2.26335 -5.95862 0
M  V30 874 C 83.3217 2.74037 -5.46211 0
M  V30 875 C 84.3197 2.43166 -6.38247 0
M  V30 876 O 84.0077 2.29115 -7.70559 0
M  V30 877 H 83.7397 0.479252 -0.476753 0
M  V30 878 H 86.2937 0.924751 -1.83405 0
M  V30 879 H 84.5237 3.47564 -1.69518 0
M  V30 880 H 86.2127 3.46509 -2.11392 0
M  V30 881 H 86.9787 2.26545 -4.28838 0
M  V30 882 H 82.8577 3.11191 -3.40119 0
M  V30 883 H 86.4017 2.0216 -6.67665 0
M  V30 884 H 82.2987 2.87153 -5.78112 0
M  V30 885 H 83.0667 2.44237 -7.81211 0
M  V30 886 N 85.7298 1.2412 0.971189 0
M  V30 887 C 86.6398 1.04747 2.09917 0
M  V30 888 C 87.6558 -0.0107162 1.73997 0
M  V30 889 O 88.8318 0.186714 2.00533 0
M  V30 890 C 85.8968 0.650828 3.40537 0
M  V30 891 C 84.9578 1.7851 3.90426 0
M  V30 892 C 84.1908 1.40729 5.14812 0
M  V30 893 O 84.4138 0.29557 5.69634 0
M  V30 894 O 83.3478 2.23168 5.58999 0
M  V30 895 H 87.1738 1.99304 2.29154 0
M  V30 896 H 84.7588 1.02908 1.08307 0
M  V30 897 H 86.6408 0.440992 4.19086 0
M  V30 898 H 85.3158 -0.265649 3.22608 0
M  V30 899 H 84.2228 2.04966 3.12953 0
M  V30 900 H 85.5558 2.68023 4.12825 0
M  V30 901 N 87.2079 -1.17134 1.05439 0
M  V30 902 C 88.4559 -1.87085 0.764429 0
M  V30 903 C 88.7769 -1.81584 -0.710787 0
M  V30 904 O 88.0469 -1.24349 -1.51374 0
M  V30 905 H 86.6269 -0.692627 0.279779 0
M  V30 906 H 89.2889 -1.42087 1.33406 0
M  V30 907 H 88.3849 -2.92759 1.0816 0
M  V30 908 N 88.686 -0.835752 -1.33615 0
M  V30 909 C 89.633 -0.26473 -2.29277 0
M  V30 910 C 90.603 0.617712 -1.54187 0
M  V30 911 O 91.788 0.556641 -1.825 0
M  V30 912 C 88.928 0.556777 -3.40579 0
M  V30 913 C 88.041 -0.349339 -4.30585 0
M  V30 914 C 87.176 0.482969 -5.29 0
M  V30 915 C 86.215 -0.421732 -6.10645 0
M  V30 916 N 85.352 0.372262 -7.01112 0
M  V30 917 H 90.192 -1.08582 -2.77514 0
M  V30 918 H 87.729 -0.546927 -1.36554 0
M  V30 919 H 89.687 1.04852 -4.03809 0
M  V30 920 H 88.317 1.34286 -2.93542 0
M  V30 921 H 87.369 -0.959372 -3.68104 0
M  V30 922 H 88.681 -1.04445 -4.87742 0
M  V30 923 H 87.835 1.03866 -5.97743 0
M  V30 924 H 86.574 1.21153 -4.72412 0
M  V30 925 H 85.579 -0.989464 -5.40823 0
M  V30 926 H 86.804 -1.14861 -6.69316 0
M  V30 927 H 84.75 1.08426 -6.46977 0
M  V30 928 H 84.667 -0.264198 -7.55538 0
M  V30 929 H 85.935 0.910293 -7.74167 0
M  V30 930 N 90.1641 1.46063 -0.591896 0
M  V30 931 C 91.5801 1.57561 -0.254288 0
M  V30 932 C 91.7801 1.58565 1.24336 0
M  V30 933 O 90.8361 1.50753 2.02558 0
M  V30 934 C 92.1491 2.86549 -0.911611 0
M  V30 935 C 93.6971 3.00197 -0.886059 0
M  V30 936 C 94.1721 4.31933 -1.5231 0
M  V30 937 N 95.6631 4.38654 -1.48786 0
M  V30 938 C 96.3981 5.39222 -1.95006 0
M  V30 939 N 95.8941 6.46414 -2.49241 0
M  V30 940 N 97.6871 5.3048 -1.85868 0
M  V30 941 H 89.8381 1.43655 -1.56451 0
M  V30 942 H 92.1011 0.68583 -0.654478 0
M  V30 943 H 91.8071 2.91651 -1.96551 0
M  V30 944 H 91.6811 3.74794 -0.425368 0
M  V30 945 H 94.0681 2.9467 0.159246 0
M  V30 946 H 94.1491 2.13403 -1.41041 0
M  V30 947 H 93.7931 4.38217 -2.56765 0
M  V30 948 H 93.7231 5.17516 -0.973891 0
M  V30 949 H 96.2141 3.61793 -1.09151 0
M  V30 950 H 96.5271 7.19376 -2.82344 0
M  V30 951 H 94.8721 6.47208 -2.53272 0
M  V30 952 H 98.0631 4.45643 -1.43248 0
M  V30 953 H 98.2361 6.08711 -2.22204 0
M  V30 954 N 91.6422 0.330177 1.54103 0
M  V30 955 C 92.5722 -0.525353 2.27513 0
M  V30 956 C 93.5532 -1.11383 1.2856 0
M  V30 957 O 94.7382 -1.13773 1.57383 0
M  V30 958 C 91.8682 -1.6831 3.03791 0
M  V30 959 C 90.8222 -1.2236 4.10137 0
M  V30 960 C 90.1482 -2.46882 4.74293 0
M  V30 961 C 91.4482 -0.333697 5.21233 0
M  V30 962 H 93.1422 0.087013 2.99274 0
M  V30 963 H 90.6882 0.0432893 1.43935 0
M  V30 964 H 92.6412 -2.28795 3.5388 0
M  V30 965 H 91.3652 -2.32216 2.29659 0
M  V30 966 H 90.0242 -0.64165 3.60941 0
M  V30 967 H 89.6722 -3.09165 3.96769 0
M  V30 968 H 89.3722 -2.16825 5.46133 0
M  V30 969 H 90.8962 -3.08117 5.27159 0
M  V30 970 H 92.3102 -0.845013 5.67038 0
M  V30 971 H 90.7072 -0.125612 5.99969 0
M  V30 972 H 91.7772 0.633724 4.80741 0
M  V30 973 N 93.1203 -1.57491 0.0584922 0
M  V30 974 C 94.0703 -2.08474 -0.923188 0
M  V30 975 C 95.0543 -0.991479 -1.26722 0
M  V30 976 O 96.2463 -1.25473 -1.24842 0
M  V30 977 C 93.3753 -2.6392 -2.19548 0
M  V30 978 C 92.4613 -3.80227 -1.87852 0
M  V30 979 N 92.8523 -4.89714 -1.26546 0
M  V30 980 C 91.1503 -3.89271 -2.17679 0
M  V30 981 C 91.8513 -5.70689 -1.12644 0
M  V30 982 N 90.8273 -5.18531 -1.63176 0
M  V30 983 H 94.6293 -2.90517 -0.444653 0
M  V30 984 H 92.1433 -1.61745 -0.145764 0
M  V30 985 H 94.1403 -2.98752 -2.9078 0
M  V30 986 H 92.8003 -1.83318 -2.68001 0
M  V30 987 H 93.8113 -5.09358 -0.936757 0
M  V30 988 H 90.4883 -3.19623 -2.68602 0
M  V30 989 H 91.8783 -6.6875 -0.6499 0
M  V30 990 N 94.5984 0.214957 -1.56127 0
M  V30 991 C 95.8454 0.938372 -1.79446 0
M  V30 992 C 96.1734 1.8407 -0.628378 0
M  V30 993 O 95.4284 1.91837 0.386925 0
M  V30 994 C 95.7274 1.80314 -3.0858 0
M  V30 995 C 95.3934 1.05349 -4.3842 0
M  V30 996 C 94.0554 0.846435 -4.73697 0
M  V30 997 C 96.4074 0.524588 -5.18553 0
M  V30 998 C 93.7354 0.098683 -5.86617 0
M  V30 999 C 96.0874 -0.209853 -6.32252 0
M  V30 1000 C 94.7514 -0.428102 -6.66126 0
M  V30 1001 H 94.0214 0.343375 -0.656639 0
M  V30 1002 H 96.6684 0.206077 -1.90388 0
M  V30 1003 H 94.9734 2.6035 -2.92789 0
M  V30 1004 H 96.6704 2.36513 -3.23825 0
M  V30 1005 H 93.2604 1.22486 -4.10725 0
M  V30 1006 H 97.4444 0.672008 -4.91729 0
M  V30 1007 H 92.7004 -0.0805753 -6.11347 0
M  V30 1008 H 96.8744 -0.627157 -6.9357 0
M  V30 1009 H 94.5014 -1.00944 -7.53468 0
M  V30 1010 N 96.0765 1.50051 0.48192 0
M  V30 1011 C 97.3065 1.63999 1.2565 0
M  V30 1012 C 97.7145 0.318288 1.86504 0
M  V30 1013 O 97.0575 -0.708534 1.69486 0
M  V30 1014 C 97.1195 2.66504 2.4128 0
M  V30 1015 C 96.7835 4.10352 2.01148 0
M  V30 1016 C 97.7805 4.96562 1.54021 0
M  V30 1017 C 95.4655 4.56203 2.10199 0
M  V30 1018 C 97.4595 6.26668 1.16473 0
M  V30 1019 C 95.1465 5.86318 1.72264 0
M  V30 1020 C 96.1445 6.71375 1.25477 0
M  V30 1021 O 95.8325 7.99062 0.880626 0
M  V30 1022 H 95.5645 0.55456 0.386574 0
M  V30 1023 H 98.1185 1.96954 0.582944 0
M  V30 1024 H 96.3485 2.28769 3.11772 0
M  V30 1025 H 98.0375 2.69783 3.03268 0
M  V30 1026 H 98.8035 4.62358 1.46458 0
M  V30 1027 H 94.6825 3.90152 2.45566 0
M  V30 1028 H 98.2265 6.93011 0.798841 0
M  V30 1029 H 94.1235 6.20046 1.79482 0
M  V30 1030 H 94.8915 8.12239 1.01043 0
M  V30 1031 N 97.5546 -0.734337 1.39446 0
M  V30 1032 C 98.4646 -1.87879 1.40495 0
M  V30 1033 C 99.4806 -1.714 0.299672 0
M  V30 1034 O 100.657 -1.93991 0.541249 0
M  V30 1035 C 97.7216 -3.23477 1.24754 0
M  V30 1036 C 96.7826 -3.52344 2.45259 0
M  V30 1037 C 96.0156 -4.81473 2.30259 0
M  V30 1038 O 96.2386 -5.55237 1.30643 0
M  V30 1039 O 95.1726 -5.10254 3.19256 0
M  V30 1040 H 98.9986 -1.89949 2.36966 0
M  V30 1041 H 96.5836 -0.882243 1.20569 0
M  V30 1042 H 98.4656 -4.04509 1.18111 0
M  V30 1043 H 97.1406 -3.22176 0.313781 0
M  V30 1044 H 96.0476 -2.71396 2.57478 0
M  V30 1045 H 97.3806 -3.58426 3.37331 0
M  V30 1046 N 99.0327 -1.24633 -0.964593 0
M  V30 1047 C 100.261 -1.11501 -1.74285 0
M  V30 1048 C 100.676 0.332165 -1.85855 0
M  V30 1049 O 100.033 1.22903 -1.34911 0
M  V30 1050 C 100.084 -1.75258 -3.16175 0
M  V30 1051 O 99.8047 -3.14318 -3.05182 0
M  V30 1052 C 101.306 -1.67776 -4.10324 0
M  V30 1053 H 98.5257 -0.389407 -0.546446 0
M  V30 1054 H 101.07 -1.64801 -1.21083 0
M  V30 1055 H 99.2247 -1.25954 -3.66353 0
M  V30 1056 H 99.6387 -3.4551 -3.94618 0
M  V30 1057 H 101.113 -2.17064 -5.0753 0
M  V30 1058 H 101.59 -0.639584 -4.34518 0
M  V30 1059 H 102.196 -2.16522 -3.66058 0
M  V30 1060 N 100.511 1.16574 -1.06058 0
M  V30 1061 C 101.739 1.90952 -0.796552 0
M  V30 1062 C 102.154 1.77302 0.648808 0
M  V30 1063 O 101.511 1.11605 1.44397 0
M  V30 1064 C 101.562 3.41736 -1.17894 0
M  V30 1065 O 101.283 3.54975 -2.56758 0
M  V30 1066 C 102.784 4.33169 -0.942308 0
M  V30 1067 H 100.004 0.605594 -0.288959 0
M  V30 1068 H 102.548 1.47777 -1.41358 0
M  V30 1069 H 100.703 3.82623 -0.606491 0
M  V30 1070 H 101.117 4.4846 -2.72 0
M  V30 1071 H 102.591 5.37439 -1.25952 0
M  V30 1072 H 103.068 4.3903 0.122078 0
M  V30 1073 H 103.674 3.98007 -1.49902 0
M  V30 1074 N 101.989 0.842826 1.3317 0
M  V30 1075 C 103.237 0.439577 1.97262 0
M  V30 1076 C 103.558 -1.00548 1.67078 0
M  V30 1077 O 102.828 -1.70098 0.971779 0
M  V30 1078 H 101.408 0.159558 0.72976 0
M  V30 1079 H 104.07 1.07665 1.62463 0
M  V30 1080 H 103.166 0.574886 3.0676 0
M  V30 1081 N 103.467 -1.45747 0.599634 0
M  V30 1082 C 104.415 -2.322 -0.136426 0
M  V30 1083 C 105.409 -1.45497 -0.867583 0
M  V30 1084 O 106.615 -1.62027 -0.78405 0
M  V30 1085 H 102.99 -0.749368 -0.0628588 0
M  V30 1086 H 104.961 -2.92072 0.611281 0
M  V30 1087 C 103.71 -3.28974 -1.12567 0
M  V30 1088 H 103.033 -3.9568 -0.572484 0
M  V30 1089 H 104.473 -3.92212 -1.61077 0
M  V30 1090 C 102.932 -2.55561 -2.19523 0
M  V30 1091 O 103.462 -2.33111 -3.27143 0
M  V30 1092 N 101.668 -2.15832 -1.94589 0
M  V30 1093 H 101.215 -2.3429 -1.07078 0
M  V30 1094 H 101.173 -1.67034 -2.66359 0
M  V30 1095 N 104.945 -0.338344 -1.53925 0
M  V30 1096 C 106.17 0.263987 -2.05713 0
M  V30 1097 C 106.595 1.43847 -1.21201 0
M  V30 1098 O 105.953 1.79904 -0.224535 0
M  V30 1099 C 106.001 0.662 -3.54471 0
M  V30 1100 O 105.105 1.76265 -3.72833 0
M  V30 1101 H 104.446 0.0448722 -0.662482 0
M  V30 1102 H 106.976 -0.491048 -1.9862 0
M  V30 1103 H 106.986 0.940594 -3.9701 0
M  V30 1104 H 105.661 -0.196937 -4.15433 0
M  V30 1105 H 104.238 1.48173 -3.42198 0
M  V30 1106 N 106.423 1.57458 -0.0668435 0
M  V30 1107 C 107.353 2.15468 0.899764 0
M  V30 1108 C 108.334 1.08042 1.31381 0
M  V30 1109 O 109.519 1.36054 1.38574 0
M  V30 1110 C 106.649 2.71232 2.16911 0
M  V30 1111 C 105.603 3.83781 1.89463 0
M  V30 1112 C 104.929 4.26127 3.22986 0
M  V30 1113 C 106.229 5.08238 1.20381 0
M  V30 1114 H 107.923 2.96488 0.416529 0
M  V30 1115 H 105.469 1.4262 0.198908 0
M  V30 1116 H 107.422 3.10458 2.84945 0
M  V30 1117 H 106.146 1.87426 2.67468 0
M  V30 1118 H 104.805 3.45051 1.23836 0
M  V30 1119 H 104.453 3.39249 3.71374 0
M  V30 1120 H 104.153 5.01993 3.05413 0
M  V30 1121 H 105.677 4.67966 3.92225 0
M  V30 1122 H 107.091 5.44811 1.78475 0
M  V30 1123 H 105.488 5.89349 1.13083 0
M  V30 1124 H 106.558 4.84558 0.182153 0
M  V30 1125 N 107.901 -0.206675 1.56239 0
M  V30 1126 C 108.849 -1.27571 1.94495 0
M  V30 1127 C 109.843 -1.47737 0.828862 0
M  V30 1128 O 111.049 -1.48735 1.0138 0
M  V30 1129 H 107.424 -0.428029 0.6183 0
M  V30 1130 H 109.395 -0.925961 2.8367 0
M  V30 1131 C 108.144 -2.61568 2.29079 0
M  V30 1132 H 107.467 -2.46863 3.14482 0
M  V30 1133 H 108.907 -3.35144 2.5972 0
M  V30 1134 C 107.366 -3.17695 1.12123 0
M  V30 1135 O 107.896 -3.99801 0.390153 0
M  V30 1136 N 106.102 -2.76276 0.901097 0
M  V30 1137 H 105.649 -2.09613 1.49733 0
M  V30 1138 H 105.607 -3.1417 0.120319 0
M  V30 1139 N 109.379 -1.50304 -0.473955 0
M  V30 1140 C 110.289 -1.7174 -1.5982 0
M  V30 1141 C 111.305 -0.600457 -1.63311 0
M  V30 1142 O 112.481 -0.878441 -1.81233 0
M  V30 1143 C 109.546 -1.80427 -2.96052 0
M  V30 1144 C 108.607 -3.04148 -3.02972 0
M  V30 1145 C 107.84 -3.12411 -4.32706 0
M  V30 1146 O 108.063 -2.27542 -5.23049 0
M  V30 1147 O 106.997 -4.05113 -4.45159 0
M  V30 1148 H 110.823 -2.67035 -1.44657 0
M  V30 1149 H 108.408 -1.34366 -0.653148 0
M  V30 1150 H 110.29 -1.88338 -3.7697 0
M  V30 1151 H 108.965 -0.883156 -3.11419 0
M  V30 1152 H 107.872 -3.0174 -2.21142 0
M  V30 1153 H 109.205 -3.95829 -2.92541 0
M  V30 1154 N 110.857 0.726932 -1.39834 0
M  V30 1155 C 111.805 1.86235 -1.39353 0
M  V30 1156 C 112.799 1.67144 -0.275555 0
M  V30 1157 O 114.005 1.74387 -0.44601 0
M  V30 1158 H 110.38 0.613174 -0.43534 0
M  V30 1159 H 112.351 1.83756 -2.35109 0
M  V30 1160 C 111.1 3.23995 -1.26185 0
M  V30 1161 H 110.423 3.39285 -2.11484 0
M  V30 1162 H 111.863 4.03609 -1.29907 0
M  V30 1163 C 110.322 3.36888 0.0290018 0
M  V30 1164 O 110.852 3.89152 0.99619 0
M  V30 1165 N 109.058 2.90446 0.0947437 0
M  V30 1166 H 108.605 2.48102 -0.693035 0
M  V30 1167 H 108.563 2.99451 0.957932 0
M  V30 1168 N 112.336 1.25143 0.95797 0
M  V30 1169 C 113.269 0.995565 2.05338 0
M  V30 1170 C 114.247 -0.0740423 1.62431 0
M  V30 1171 O 115.431 0.0649212 1.88388 0
M  V30 1172 C 112.558 0.504298 3.34925 0
M  V30 1173 C 111.604 1.56393 3.96792 0
M  V30 1174 S 112.437 3.14815 4.33188 0
M  V30 1175 C 113.593 2.67415 5.65898 0
M  V30 1176 H 113.826 1.92309 2.26726 0
M  V30 1177 H 111.359 1.08635 1.09716 0
M  V30 1178 H 113.317 0.227497 4.09869 0
M  V30 1179 H 111.978 -0.402671 3.11508 0
M  V30 1180 H 111.171 1.17082 4.90212 0
M  V30 1181 H 110.773 1.79124 3.28315 0
M  V30 1182 H 113.065 2.10833 6.4386 0
M  V30 1183 H 114.008 3.59463 6.10076 0
M  V30 1184 H 114.416 2.07521 5.24972 0
M  V30 1185 N 113.814 -1.1601 1.06675 0
M  V30 1186 C 115.044 -1.90251 0.805497 0
M  V30 1187 C 115.452 -1.77891 -0.64431 0
M  V30 1188 O 114.795 -1.12383 -1.45313 0
M  V30 1189 C 114.857 -3.41419 1.12576 0
M  V30 1190 C 114.521 -3.77564 2.57477 0
M  V30 1191 C 115.518 -3.79161 3.55715 0
M  V30 1192 C 113.203 -4.08079 2.92877 0
M  V30 1193 C 115.197 -4.10767 4.8739 0
M  V30 1194 C 112.884 -4.39351 4.24751 0
M  V30 1195 C 113.882 -4.40675 5.21818 0
M  V30 1196 O 113.57 -4.71202 6.51325 0
M  V30 1197 H 113.302 -0.610018 0.291297 0
M  V30 1198 H 115.856 -1.47958 1.4247 0
M  V30 1199 H 114.086 -3.84079 0.449503 0
M  V30 1200 H 115.775 -3.9694 0.84814 0
M  V30 1201 H 116.541 -3.55693 3.29708 0
M  V30 1202 H 112.42 -4.06211 2.17976 0
M  V30 1203 H 115.964 -4.11715 5.63148 0
M  V30 1204 H 111.861 -4.62285 4.50514 0
M  V30 1205 H 112.629 -4.88996 6.56373 0
M  V30 1206 N 115.292 -0.849877 -1.32721 0
M  V30 1207 C 116.24 -0.279745 -2.30912 0
M  V30 1208 C 117.234 0.594278 -1.58634 0
M  V30 1209 O 118.44 0.482613 -1.73409 0
M  V30 1210 H 114.815 -0.0717521 -0.748569 0
M  V30 1211 H 116.786 -1.12222 -2.76494 0
M  V30 1212 C 115.535 0.521108 -3.43773 0
M  V30 1213 H 114.858 -0.142141 -3.99547 0
M  V30 1214 H 116.298 0.885693 -4.14646 0
M  V30 1215 C 114.757 1.70442 -2.90605 0
M  V30 1216 O 115.287 2.8034 -2.87702 0
M  V30 1217 N 113.493 1.52991 -2.47067 0
M  V30 1218 H 113.04 0.635914 -2.49628 0
M  V30 1219 H 112.998 2.32311 -2.11847 0
M  V30 1220 N 116.77 1.45427 -0.607355 0
M  V30 1221 C 117.718 2.32269 0.12411 0
M  V30 1222 C 118.712 1.45955 0.859854 0
M  V30 1223 O 119.918 1.6244 0.775447 0
M  V30 1224 H 116.293 0.749691 0.0588839 0
M  V30 1225 H 118.264 2.91743 -0.626762 0
M  V30 1226 C 117.013 3.29567 1.1082 0
M  V30 1227 H 116.336 3.95978 0.551492 0
M  V30 1228 H 117.776 3.93061 1.58995 0
M  V30 1229 C 116.235 2.56722 2.18164 0
M  V30 1230 O 116.765 2.34842 3.25902 0
M  V30 1231 N 114.971 2.16861 1.93442 0
M  V30 1232 H 114.518 2.34855 1.05834 0
M  V30 1233 H 114.476 1.68444 2.65469 0
M  V30 1234 N 118.248 0.346503 1.53744 0
M  V30 1235 C 119.525 -0.304532 1.93215 0
M  V30 1236 C 119.905 -1.67993 1.27834 0
M  V30 1237 O 119.253 -2.24411 0.430352 0
M  V30 1238 C 119.463 -0.373852 3.46992 0
M  V30 1239 C 120.811 -0.62329 4.2 0
M  V30 1240 O 121.835 -0.455847 3.53271 0
M  V30 1241 O 120.694 -0.947879 5.38217 0
M  V30 1242 H 117.788 -0.178318 0.807547 0
M  V30 1243 H 120.334 0.397895 1.64969 0
M  V30 1244 H 119.106 0.591224 3.86808 0
M  V30 1245 H 118.729 -1.12294 3.81413 0
M  V30 1246 N 119.726 -1.57421 0.075193 0
M  V30 1247 C 120.973 -1.93618 -0.593146 0
M  V30 1248 C 121.301 -0.955484 -1.69413 0
M  V30 1249 O 120.556 0.0283251 -1.9568 0
M  V30 1250 C 120.855 -3.36428 -1.20626 0
M  V30 1251 C 120.521 -4.50307 -0.231078 0
M  V30 1252 C 119.183 -4.81186 0.0371936 0
M  V30 1253 C 121.535 -5.19374 0.435888 0
M  V30 1254 C 118.863 -5.78466 0.979461 0
M  V30 1255 C 121.215 -6.17665 1.3665 0
M  V30 1256 C 119.879 -6.46958 1.6432 0
M  V30 1257 H 119.149 -0.708499 -0.217047 0
M  V30 1258 H 121.796 -1.90937 0.146793 0
M  V30 1259 H 120.101 -3.35592 -2.02201 0
M  V30 1260 H 121.798 -3.61727 -1.73073 0
M  V30 1261 H 118.388 -4.26227 -0.450357 0
M  V30 1262 H 122.572 -4.95711 0.241748 0
M  V30 1263 H 117.828 -5.99487 1.20106 0
M  V30 1264 H 122.002 -6.70284 1.88924 0
M  V30 1265 H 119.629 -7.2215 2.37494 0
M  V30 1266 N 121.204 0.198386 -1.56346 0
M  V30 1267 C 122.152 1.26538 -1.95169 0
M  V30 1268 C 123.146 1.47295 -0.836685 0
M  V30 1269 O 124.352 1.48195 -1.02167 0
M  V30 1270 H 120.727 0.424744 -0.620561 0
M  V30 1271 H 122.698 0.910904 -2.84157 0
M  V30 1272 C 121.447 2.6035 -2.30463 0
M  V30 1273 H 120.77 2.45192 -3.15786 0
M  V30 1274 H 122.21 3.33762 -2.61494 0
M  V30 1275 C 120.669 3.17096 -1.13806 0
M  V30 1276 O 121.199 3.99588 -0.41135 0
M  V30 1277 N 119.405 2.75795 -0.915736 0
M  V30 1278 H 118.952 2.08816 -1.50843 0
M  V30 1279 H 118.91 3.14101 -0.136979 0
M  V30 1280 N 122.682 1.50554 0.465978 0
M  V30 1281 C 123.612 1.72722 1.57128 0
M  V30 1282 C 124.593 0.576294 1.6004 0
M  V30 1283 O 125.778 0.81598 1.76225 0
M  V30 1284 C 122.908 1.82605 2.95419 0
M  V30 1285 C 121.862 2.97835 3.07373 0
M  V30 1286 C 121.188 2.92867 4.47363 0
M  V30 1287 C 122.488 4.38265 2.84114 0
M  V30 1288 H 124.182 2.65267 1.38829 0
M  V30 1289 H 121.728 1.2765 0.666441 0
M  V30 1290 H 123.681 1.96698 3.72677 0
M  V30 1291 H 122.405 0.866858 3.14886 0
M  V30 1292 H 121.064 2.83401 2.3255 0
M  V30 1293 H 120.712 1.94783 4.63755 0
M  V30 1294 H 120.412 3.70227 4.56296 0
M  V30 1295 H 121.936 3.09015 5.26633 0
M  V30 1296 H 123.35 4.53198 3.51118 0
M  V30 1297 H 121.747 5.17115 3.04487 0
M  V30 1298 H 122.817 4.50281 1.7993 0
M  V30 1299 N 124.16 -0.719506 1.40217 0
M  V30 1300 C 125.09 -1.8465 1.42922 0
M  V30 1301 C 126.071 -1.67599 0.29062 0
M  V30 1302 O 127.256 -1.87688 0.498677 0
M  V30 1303 C 124.386 -3.22565 1.28722 0
M  V30 1304 C 123.34 -3.54281 2.40144 0
M  V30 1305 C 122.666 -4.91298 2.11023 0
M  V30 1306 C 123.966 -3.55676 3.82481 0
M  V30 1307 H 125.66 -1.82644 2.37237 0
M  V30 1308 H 123.206 -0.877305 1.1419 0
M  V30 1309 H 125.159 -4.01095 1.29232 0
M  V30 1310 H 123.883 -3.25137 0.308811 0
M  V30 1311 H 122.542 -2.78088 2.38877 0
M  V30 1312 H 122.19 -4.90468 1.11582 0
M  V30 1313 H 121.89 -5.13485 2.8567 0
M  V30 1314 H 123.414 -5.72166 2.13209 0
M  V30 1315 H 124.828 -4.24254 3.85592 0
M  V30 1316 H 123.225 -3.89388 4.56614 0
M  V30 1317 H 124.295 -2.55144 4.12346 0
M  V30 1318 N 125.638 -1.25649 -0.95132 0
M  V30 1319 C 126.568 -1.08808 -2.06599 0
M  V30 1320 C 127.549 0.00382547 -1.701 0
M  V30 1321 O 128.734 -0.166325 -1.93486 0
M  V30 1322 C 125.864 -0.709542 -3.39975 0
M  V30 1323 C 124.818 -1.75206 -3.90496 0
M  V30 1324 C 124.144 -1.22811 -5.20405 0
M  V30 1325 C 125.444 -3.15153 -4.16504 0
M  V30 1326 H 127.138 -2.02048 -2.20946 0
M  V30 1327 H 124.684 -0.972835 -1.06169 0
M  V30 1328 H 126.637 -0.578649 -4.17408 0
M  V30 1329 H 125.361 0.258556 -3.25575 0
M  V30 1330 H 124.02 -1.87145 -3.15234 0
M  V30 1331 H 123.668 -0.250145 -5.02378 0
M  V30 1332 H 123.368 -1.92492 -5.55176 0
M  V30 1333 H 124.892 -1.10968 -6.00432 0
M  V30 1334 H 126.306 -3.06349 -4.84586 0
M  V30 1335 H 124.703 -3.82333 -4.62538 0
M  V30 1336 H 125.773 -3.61966 -3.22658 0
M  V30 1337 N 127.117 1.15442 -1.07289 0
M  V30 1338 C 128.064 2.20161 -0.692653 0
M  V30 1339 C 129.034 1.63073 0.31564 0
M  V30 1340 O 130.219 1.89725 0.202235 0
M  V30 1341 C 127.359 3.44967 -0.0959509 0
M  V30 1342 C 126.472 4.16256 -1.15564 0
M  V30 1343 C 125.607 5.28609 -0.524011 0
M  V30 1344 C 124.646 5.91715 -1.56653 0
M  V30 1345 N 123.783 6.9554 -0.957531 0
M  V30 1346 H 128.623 2.52037 -1.59002 0
M  V30 1347 H 126.16 1.2378 -0.794798 0
M  V30 1348 H 128.118 4.16341 0.267628 0
M  V30 1349 H 126.748 3.1361 0.764772 0
M  V30 1350 H 125.8 3.43385 -1.6368 0
M  V30 1351 H 127.112 4.59268 -1.94613 0
M  V30 1352 H 126.266 6.06604 -0.108032 0
M  V30 1353 H 125.005 4.86787 0.29825 0
M  V30 1354 H 124.01 5.12433 -1.9923 0
M  V30 1355 H 125.235 6.35614 -2.39107 0
M  V30 1356 H 123.181 6.55814 -0.156162 0
M  V30 1357 H 123.098 7.36977 -1.68526 0
M  V30 1358 H 124.366 7.77435 -0.567032 0
M  V30 1359 N 128.595 0.856903 1.32268 0
M  V30 1360 C 129.872 0.382583 1.91822 0
M  V30 1361 C 130.252 -1.13407 1.78051 0
M  V30 1362 O 129.6 -1.95673 1.18001 0
M  V30 1363 C 129.81 0.849446 3.38505 0
M  V30 1364 C 131.158 0.867936 4.15634 0
M  V30 1365 O 132.182 0.794232 3.47232 0
M  V30 1366 O 131.041 0.972286 5.37781 0
M  V30 1367 H 128.135 0.112014 0.819379 0
M  V30 1368 H 130.681 0.943952 1.41024 0
M  V30 1369 H 129.453 1.89267 3.42482 0
M  V30 1370 H 129.076 0.265652 3.96712 0
M  V30 1371 N 130.073 -1.45103 0.615059 0
M  V30 1372 C 131.303 -2.06254 0.119596 0
M  V30 1373 C 131.711 -1.4591 -1.20445 0
M  V30 1374 O 131.054 -0.570384 -1.7462 0
M  V30 1375 C 131.116 -3.59396 -0.0865591 0
M  V30 1376 C 130.78 -4.42116 1.15683 0
M  V30 1377 C 131.777 -4.7662 2.07676 0
M  V30 1378 C 129.462 -4.82749 1.38775 0
M  V30 1379 C 131.456 -5.50622 3.21082 0
M  V30 1380 C 129.143 -5.56504 2.52481 0
M  V30 1381 C 130.141 -5.90358 3.43463 0
M  V30 1382 O 129.829 -6.62615 4.55189 0
M  V30 1383 H 129.561 -0.672423 0.0694512 0
M  V30 1384 H 132.115 -1.87219 0.844885 0
M  V30 1385 H 130.345 -3.76859 -0.866823 0
M  V30 1386 H 132.034 -4.02365 -0.534555 0
M  V30 1387 H 132.8 -4.4578 1.91063 0
M  V30 1388 H 128.679 -4.55829 0.688545 0
M  V30 1389 H 132.223 -5.76965 3.92119 0
M  V30 1390 H 128.12 -5.86759 2.69043 0
M  V30 1391 H 128.888 -6.81071 4.53966 0
M  V30 1392 N 131.551 -0.354651 -1.53558 0
M  V30 1393 C 132.461 0.50515 -2.29097 0
M  V30 1394 C 133.477 1.10223 -1.34636 0
M  V30 1395 O 134.653 1.11553 -1.67684 0
M  V30 1396 C 131.718 1.63479 -3.05738 0
M  V30 1397 C 130.779 1.06636 -4.15845 0
M  V30 1398 C 130.012 2.14217 -4.88822 0
M  V30 1399 O 130.235 3.35137 -4.61562 0
M  V30 1400 O 129.169 1.77887 -5.75013 0
M  V30 1401 H 132.995 -0.109237 -3.03503 0
M  V30 1402 H 130.58 -0.119357 -1.48922 0
M  V30 1403 H 132.462 2.2918 -3.5363 0
M  V30 1404 H 131.137 2.23478 -2.34178 0
M  V30 1405 H 130.044 0.373565 -3.7223 0
M  V30 1406 H 131.377 0.511081 -4.89539 0
M  V30 1407 N 133.029 1.57378 -0.0835403 0
M  V30 1408 C 133.977 2.14602 0.89714 0
M  V30 1409 C 134.971 1.08589 1.30018 0
M  V30 1410 O 136.177 1.26952 1.27606 0
M  V30 1411 H 132.552 0.686346 0.3073 0
M  V30 1412 H 134.523 2.95845 0.38969 0
M  V30 1413 C 133.272 2.73188 2.15089 0
M  V30 1414 H 132.595 3.54442 1.84962 0
M  V30 1415 H 134.035 3.1681 2.81793 0
M  V30 1416 C 132.494 1.68517 2.91725 0
M  V30 1417 O 133.024 1.11718 3.85852 0
M  V30 1418 N 131.23 1.39277 2.55049 0
M  V30 1419 H 130.777 1.85655 1.78577 0
M  V30 1420 H 130.735 0.694791 3.06627 0
M  V30 1421 N 134.507 -0.190092 1.56449 0
M  V30 1422 C 135.437 -1.23816 1.97969 0
M  V30 1423 C 136.418 -1.47201 0.852395 0
M  V30 1424 O 137.603 -1.58854 1.1171 0
M  V30 1425 C 134.733 -2.5813 2.3235 0
M  V30 1426 C 133.687 -2.49348 3.47864 0
M  V30 1427 C 133.013 -3.8798 3.67934 0
M  V30 1428 C 134.313 -2.01424 4.81898 0
M  V30 1429 H 136.007 -0.89311 2.85769 0
M  V30 1430 H 133.553 -0.428177 1.37487 0
M  V30 1431 H 135.506 -3.31637 2.59991 0
M  V30 1432 H 134.23 -2.94386 1.41438 0
M  V30 1433 H 132.889 -1.78297 3.20321 0
M  V30 1434 H 132.537 -4.21597 2.74344 0
M  V30 1435 H 132.237 -3.82978 4.45648 0
M  V30 1436 H 133.761 -4.63101 3.97957 0
M  V30 1437 H 135.175 -2.64693 5.08538 0
M  V30 1438 H 133.572 -2.07413 5.63116 0
M  V30 1439 H 134.642 -0.967677 4.75146 0
M  V30 1440 N 135.985 -1.50799 -0.457987 0
M  V30 1441 C 137.215 -1.65977 -1.23025 0
M  V30 1442 C 137.623 -0.347918 -1.85974 0
M  V30 1443 O 136.966 0.68148 -1.70592 0
M  V30 1444 C 137.028 -2.70309 -2.3701 0
M  V30 1445 C 136.692 -4.135 -1.94594 0
M  V30 1446 C 137.689 -4.98949 -1.46101 0
M  V30 1447 C 135.374 -4.5949 -2.02915 0
M  V30 1448 C 137.368 -6.28442 -1.06489 0
M  V30 1449 C 135.055 -5.88984 -1.62914 0
M  V30 1450 C 136.053 -6.73286 -1.1478 0
M  V30 1451 O 135.741 -8.00362 -0.75339 0
M  V30 1452 H 135.473 -0.56064 -0.377702 0
M  V30 1453 H 138.027 -1.97857 -0.551537 0
M  V30 1454 H 136.257 -2.337 -3.08093 0
M  V30 1455 H 137.946 -2.74574 -2.98938 0
M  V30 1456 H 138.712 -4.6463 -1.39084 0
M  V30 1457 H 134.591 -3.94009 -2.39328 0
M  V30 1458 H 138.135 -6.94194 -0.688488 0
M  V30 1459 H 134.032 -6.22822 -1.69595 0
M  V30 1460 H 134.8 -8.13744 -0.88108 0
M  V30 1461 N 137.463 0.71206 -1.40597 0
M  V30 1462 C 138.41 1.82613 -1.41142 0
M  V30 1463 C 139.38 1.63925 -0.267903 0
M  V30 1464 O 140.565 1.85009 -0.466495 0
M  V30 1465 C 137.705 3.20354 -1.28324 0
M  V30 1466 C 136.818 3.50589 -2.52411 0
M  V30 1467 C 135.953 4.77855 -2.32009 0
M  V30 1468 C 134.992 5.01005 -3.51654 0
M  V30 1469 N 134.129 6.19487 -3.30425 0
M  V30 1470 H 138.969 1.81482 -2.36365 0
M  V30 1471 H 136.506 0.886475 -1.17388 0
M  V30 1472 H 138.464 3.99899 -1.18899 0
M  V30 1473 H 137.094 3.20705 -0.367189 0
M  V30 1474 H 136.146 2.65573 -2.72351 0
M  V30 1475 H 137.458 3.63604 -3.41458 0
M  V30 1476 H 136.612 5.65424 -2.19956 0
M  V30 1477 H 135.351 4.67056 -1.40392 0
M  V30 1478 H 134.356 4.1189 -3.64179 0
M  V30 1479 H 135.581 5.13674 -4.44202 0
M  V30 1480 H 133.527 6.09932 -2.41494 0
M  V30 1481 H 133.444 6.33194 -4.13039 0
M  V30 1482 H 134.712 7.09834 -3.22113 0
M  V30 1483 N 138.941 1.26152 0.944643 0
M  V30 1484 C 140.188 1.11492 1.69044 0
M  V30 1485 C 140.516 -0.342366 1.91463 0
M  V30 1486 O 139.771 -1.26812 1.49054 0
M  V30 1487 C 140.07 1.82541 3.07268 0
M  V30 1488 C 139.736 3.32445 3.04616 0
M  V30 1489 C 138.398 3.73337 3.036 0
M  V30 1490 C 140.75 4.28171 2.97185 0
M  V30 1491 C 138.078 5.08348 2.92915 0
M  V30 1492 C 140.43 5.63218 2.88041 0
M  V30 1493 C 139.094 6.03426 2.85366 0
M  V30 1494 H 138.364 0.407977 0.618576 0
M  V30 1495 H 141.011 1.56551 1.10291 0
M  V30 1496 H 139.316 1.29941 3.69625 0
M  V30 1497 H 141.013 1.68642 3.63815 0
M  V30 1498 H 137.603 2.99915 3.06185 0
M  V30 1499 H 141.787 3.97563 2.97081 0
M  V30 1500 H 137.043 5.38667 2.89219 0
M  V30 1501 H 141.217 6.37078 2.81254 0
M  V30 1502 H 138.844 7.07999 2.76842 0
M  V30 1503 N 140.419 -1.14872 1.07899 0
M  V30 1504 C 141.352 -2.18794 0.64841 0
M  V30 1505 C 142.33 -1.59065 -0.337189 0
M  V30 1506 O 143.514 -1.86936 -0.242284 0
M  V30 1507 C 140.641 -3.38667 -0.0470417 0
M  V30 1508 C 139.687 -4.16942 0.897884 0
M  V30 1509 S 140.52 -4.78615 2.40183 0
M  V30 1510 C 141.676 -6.0185 1.71834 0
M  V30 1511 H 141.909 -2.5498 1.52881 0
M  V30 1512 H 139.442 -1.25922 0.893484 0
M  V30 1513 H 141.4 -4.08113 -0.442027 0
M  V30 1514 H 140.061 -3.00814 -0.903861 0
M  V30 1515 H 139.254 -5.02726 0.358096 0
M  V30 1516 H 138.856 -3.53073 1.23352 0
M  V30 1517 H 141.148 -6.69574 1.03328 0
M  V30 1518 H 142.091 -6.60408 2.55473 0
M  V30 1519 H 142.499 -5.5173 1.19392 0
M  V30 1520 N 141.898 -0.863906 -1.31812 0
M  V30 1521 C 143.147 -0.46801 -1.96195 0
M  V30 1522 C 143.46 0.983474 -1.69077 0
M  V30 1523 O 144.666 1.48523 -2.27273 0
M  V30 1524 C 143.122 -0.785995 -3.51212 0
M  V30 1525 C 142.73 -2.25383 -3.87178 0
M  V30 1526 C 144.474 -0.458274 -4.22019 0
M  V30 1527 C 142.381 -2.51455 -5.3528 0
M  V30 1528 H 141.311 -0.171283 -0.734287 0
M  V30 1529 H 143.962 -1.05597 -1.50072 0
M  V30 1530 H 142.344 -0.127359 -3.95795 0
M  V30 1531 H 143.518 -2.95502 -3.53575 0
M  V30 1532 H 141.833 -2.54698 -3.2942 0
M  V30 1533 H 144.43 -0.630369 -5.30971 0
M  V30 1534 H 144.773 0.600834 -4.11941 0
M  V30 1535 H 145.306 -1.07319 -3.8305 0
M  V30 1536 H 142.045 -3.56025 -5.50387 0
M  V30 1537 H 141.565 -1.85923 -5.70257 0
M  V30 1538 H 143.244 -2.35874 -6.02472 0
M  V30 1539 N 143.376 1.44774 -0.622745 0
M  V30 1540 C 144.323 2.30635 0.0871679 0
M  V30 1541 C 145.293 1.42994 0.845097 0
M  V30 1542 O 146.478 1.71907 0.827812 0
M  V30 1543 C 143.618 3.28144 1.06844 0
M  V30 1544 C 142.731 4.30888 0.309809 0
M  V30 1545 C 141.866 5.15494 1.28215 0
M  V30 1546 C 140.905 6.09953 0.512198 0
M  V30 1547 N 140.042 6.87287 1.43458 0
M  V30 1548 H 144.882 2.90803 -0.650974 0
M  V30 1549 H 142.419 1.43286 -0.33281 0
M  V30 1550 H 144.377 3.83157 1.65066 0
M  V30 1551 H 143.007 2.69695 1.77382 0
M  V30 1552 H 142.059 3.78414 -0.388181 0
M  V30 1553 H 143.371 4.97955 -0.290254 0
M  V30 1554 H 142.525 5.74983 1.93596 0
M  V30 1555 H 141.264 4.48481 1.91614 0
M  V30 1556 H 140.269 5.49581 -0.155151 0
M  V30 1557 H 141.494 6.78999 -0.116958 0
M  V30 1558 H 139.44 6.2295 2.05594 0
M  V30 1559 H 139.357 7.50763 0.888335 0
M  V30 1560 H 140.625 7.51306 2.07749 0
M  V30 1561 N 144.854 0.36279 1.53368 0
M  V30 1562 C 145.764 -0.492994 2.29362 0
M  V30 1563 C 146.78 -1.09507 1.35219 0
M  V30 1564 O 147.956 -1.10662 1.68273 0
M  V30 1565 C 145.021 -1.61855 3.066 0
M  V30 1566 C 144.082 -1.04429 4.16405 0
M  V30 1567 C 143.315 -2.11621 4.89951 0
M  V30 1568 O 143.538 -3.32684 4.63333 0
M  V30 1569 O 142.472 -1.74835 5.75948 0
M  V30 1570 H 146.298 0.125331 3.03441 0
M  V30 1571 H 143.883 0.127253 1.48857 0
M  V30 1572 H 145.765 -2.27302 3.54841 0
M  V30 1573 H 144.44 -2.22233 2.3536 0
M  V30 1574 H 143.347 -0.353819 3.72423 0
M  V30 1575 H 144.68 -0.485113 4.89804 0
M  V30 1576 N 146.332 -1.57332 0.0918853 0
M  V30 1577 C 147.557 -1.98995 -0.584442 0
M  V30 1578 C 147.982 -0.970528 -1.61128 0
M  V30 1579 O 147.34 0.0613904 -1.81196 0
M  V30 1580 C 147.388 -3.39636 -1.21161 0
M  V30 1581 O 146.492 -3.40447 -2.32744 0
M  V30 1582 H 145.833 -0.647165 -0.148572 0
M  V30 1583 H 148.363 -2.03873 0.172347 0
M  V30 1584 H 148.373 -3.7726 -1.55367 0
M  V30 1585 H 147.048 -4.13356 -0.459313 0
M  V30 1586 H 145.625 -3.14614 -2.0018 0
M  V30 1587 N 147.81 0.181792 -1.56548 0
M  V30 1588 C 148.773 1.20894 -1.94724 0
M  V30 1589 C 149.773 1.37738 -0.829747 0
M  V30 1590 O 150.963 1.35323 -1.09697 0
M  V30 1591 C 148.095 2.57593 -2.23291 0
M  V30 1592 H 149.288 0.882275 -2.86629 0
M  V30 1593 H 146.841 0.423838 -1.50444 0
M  V30 1594 H 147.576 2.95291 -1.34067 0
M  V30 1595 H 147.361 2.46735 -3.04736 0
M  V30 1596 H 148.851 3.31637 -2.53785 0
M  V30 1597 N 149.288 1.51039 0.449983 0
M  V30 1598 C 150.565 1.53612 1.21089 0
M  V30 1599 C 150.945 0.292997 2.09057 0
M  V30 1600 O 150.293 -0.72259 2.16774 0
M  V30 1601 C 150.503 2.84337 2.0237 0
M  V30 1602 C 151.851 3.35807 2.59843 0
M  V30 1603 O 152.875 2.85802 2.12593 0
M  V30 1604 O 151.734 4.23029 3.45989 0
M  V30 1605 H 148.828 0.617057 0.550608 0
M  V30 1606 H 151.374 1.63344 0.460082 0
M  V30 1607 H 150.146 3.66278 1.37681 0
M  V30 1608 H 149.769 2.77708 2.84542 0
M  V30 1609 N 150.766 -0.704594 1.40972 0
M  V30 1610 C 152.006 -1.47691 1.41304 0
M  V30 1611 C 152.37 -1.91992 0.0178582 0
M  V30 1612 O 153.571 -2.68599 -0.103996 0
M  V30 1613 C 151.842 -2.66254 2.38419 0
M  V30 1614 S 153.401 -3.55516 2.57204 0
M  V30 1615 H 150.219 -0.504808 0.500689 0
M  V30 1616 H 152.821 -0.822962 1.77335 0
M  V30 1617 H 151.525 -2.31897 3.38603 0
M  V30 1618 H 151.056 -3.3655 2.03711 0
M  V30 1619 H 153.071 -4.61115 1.83268 0
M  V30 1620 N 152.244 -1.26651 -0.937939 0
M  V30 1621 C 153.493 -1.11775 -1.67897 0
M  V30 1622 C 153.806 0.33794 -1.92659 0
M  V30 1623 O 155.012 0.607434 -2.64618 0
M  V30 1624 C 153.468 -1.9523 -3.02346 0
M  V30 1625 C 153.076 -3.45393 -2.8532 0
M  V30 1626 C 154.82 -1.88972 -3.80118 0
M  V30 1627 C 152.727 -4.21083 -4.15263 0
M  V30 1628 H 151.657 -0.414696 -0.629717 0
M  V30 1629 H 154.308 -1.50988 -1.04283 0
M  V30 1630 H 152.69 -1.48853 -3.66959 0
M  V30 1631 H 153.864 -3.99561 -2.29537 0
M  V30 1632 H 152.179 -3.52921 -2.20988 0
M  V30 1633 H 154.776 -2.42805 -4.76392 0
M  V30 1634 H 155.119 -0.86113 -4.07296 0
M  V30 1635 H 155.652 -2.33189 -3.22285 0
M  V30 1636 H 152.391 -5.24425 -3.93267 0
M  V30 1637 H 151.911 -3.71695 -4.70747 0
M  V30 1638 H 153.59 -4.29706 -4.83696 0
M  V30 1639 N 153.722 1.14298 -1.08507 0
M  V30 1640 C 155.133 1.66926 -0.836227 0
M  V30 1641 C 155.484 1.85576 0.63686 0
M  V30 1642 O 154.609 1.56767 1.49175 0
M  V30 1643 C 155.204 3.03219 -1.51142 0
M  V30 1644 C 153.763 3.52876 -1.30979 0
M  V30 1645 C 152.91 2.2833 -1.57356 0
M  V30 1646 H 155.861 0.983491 -1.24552 0
M  V30 1647 H 155.882 3.68726 -0.939211 0
M  V30 1648 H 155.394 2.89612 -2.58353 0
M  V30 1649 H 153.495 3.71703 -0.258429 0
M  V30 1650 H 153.608 4.33586 -2.03814 0
M  V30 1651 H 151.972 2.34454 -0.995164 0
M  V30 1652 H 152.755 2.17298 -2.65775 0
M  V30 1653 N 155.201 0.870884 1.31352 0
M  V30 1654 C 156.149 0.316445 2.30437 0
M  V30 1655 C 157.143 -0.568965 1.59559 0
M  V30 1656 O 158.349 -0.454964 1.74155 0
M  V30 1657 H 154.724 0.0836521 0.747333 0
M  V30 1658 H 156.695 1.16606 2.74673 0
M  V30 1659 C 155.444 -0.46635 3.44558 0
M  V30 1660 H 154.767 0.205687 3.99271 0
M  V30 1661 H 156.207 -0.819614 4.16003 0
M  V30 1662 C 154.666 -1.65797 2.9328 0
M  V30 1663 O 155.196 -2.75728 2.92125 0
M  V30 1664 N 153.402 -1.49041 2.4947 0
M  V30 1665 H 152.949 -0.59612 2.50608 0
M  V30 1666 H 152.907 -2.28911 2.15516 0
M  V30 1667 N 156.679 -1.44442 0.630414 0
M  V30 1668 C 157.926 -2.02052 0.134617 0
M  V30 1669 C 158.254 -1.49576 -1.24327 0
M  V30 1670 O 157.509 -0.669806 -1.83881 0
M  V30 1671 C 157.808 -3.57332 0.0697835 0
M  V30 1672 C 157.474 -4.29058 1.38635 0
M  V30 1673 C 156.136 -4.4837 1.74694 0
M  V30 1674 C 158.488 -4.69872 2.25543 0
M  V30 1675 C 155.816 -5.05756 2.97369 0
M  V30 1676 C 158.168 -5.28616 3.47487 0
M  V30 1677 C 156.832 -5.46147 3.8377 0
M  V30 1678 H 156.102 -0.739361 0.0492598 0
M  V30 1679 H 158.749 -1.73217 0.816586 0
M  V30 1680 H 157.054 -3.85577 -0.695553 0
M  V30 1681 H 158.751 -3.99637 -0.330344 0
M  V30 1682 H 155.341 -4.14357 1.09574 0
M  V30 1683 H 159.525 -4.54666 1.98979 0
M  V30 1684 H 154.781 -5.17515 3.25558 0
M  V30 1685 H 158.955 -5.59192 4.15063 0
M  V30 1686 H 156.582 -5.9038 4.7891 0
M  V30 1687 N 158.157 -0.370918 -1.53173 0
M  V30 1688 C 159.12 0.460778 -2.24521 0
M  V30 1689 C 160.12 1.00536 -1.25496 0
M  V30 1690 O 161.31 0.890266 -1.49733 0
M  V30 1691 C 158.442 1.64457 -2.98608 0
M  V30 1692 H 159.635 -0.163613 -2.99453 0
M  V30 1693 H 157.188 -0.122699 -1.55818 0
M  V30 1694 H 157.923 2.30691 -2.2793 0
M  V30 1695 H 157.708 1.26099 -3.7127 0
M  V30 1696 H 159.198 2.23384 -3.5283 0
M  V30 1697 N 159.635 1.57281 -0.100228 0
M  V30 1698 C 160.884 1.93713 0.561984 0
M  V30 1699 C 161.197 0.984492 1.69018 0
M  V30 1700 O 162.403 1.24273 2.41389 0
M  V30 1701 C 160.859 3.4421 1.05106 0
M  V30 1702 C 160.467 4.47975 -0.0476628 0
M  V30 1703 C 162.211 3.89595 1.68571 0
M  V30 1704 C 160.118 5.89631 0.457055 0
M  V30 1705 H 159.048 0.723082 0.2137 0
M  V30 1706 H 161.699 1.82644 -0.177057 0
M  V30 1707 H 160.081 3.50449 1.84395 0
M  V30 1708 H 161.255 4.53385 -0.823333 0
M  V30 1709 H 159.57 4.1223 -0.587816 0
M  V30 1710 H 162.167 4.92832 2.07414 0
M  V30 1711 H 162.51 3.28526 2.55688 0
M  V30 1712 H 163.043 3.86078 0.958562 0
M  V30 1713 H 159.782 6.54411 -0.377616 0
M  V30 1714 H 159.302 5.87681 1.19962 0
M  V30 1715 H 160.981 6.40363 0.92437 0
M  V30 1716 N 161.113 -0.173488 1.56642 0
M  V30 1717 C 162.362 -0.888758 1.81063 0
M  V30 1718 C 162.675 -1.83506 0.67712 0
M  V30 1719 O 163.881 -2.59254 0.806206 0
M  V30 1720 C 162.337 -1.63091 3.20826 0
M  V30 1721 C 161.945 -0.728357 4.4204 0
M  V30 1722 C 163.689 -2.33454 3.54541 0
M  V30 1723 C 161.596 -1.47062 5.72823 0
M  V30 1724 H 160.526 -0.335618 0.675186 0
M  V30 1725 H 163.177 -0.141712 1.82952 0
M  V30 1726 H 161.559 -2.42263 3.13248 0
M  V30 1727 H 162.733 0.0262449 4.60793 0
M  V30 1728 H 161.048 -0.134492 4.16183 0
M  V30 1729 H 163.645 -2.89578 4.49498 0
M  V30 1730 H 163.988 -3.08687 2.79317 0
M  V30 1731 H 164.521 -1.61227 3.63663 0
M  V30 1732 H 161.26 -0.760658 6.51072 0
M  V30 1733 H 160.78 -2.1986 5.58052 0
M  V30 1734 H 162.459 -2.01868 6.14702 0
M  V30 1735 N 162.591 -1.51276 -0.441967 0
M  V30 1736 C 163.821 -1.67273 -1.21257 0
M  V30 1737 C 164.229 -0.367624 -1.85594 0
M  V30 1738 O 163.572 0.663349 -1.71305 0
M  V30 1739 C 163.634 -2.72807 -2.34129 0
M  V30 1740 C 163.298 -4.1554 -1.90198 0
M  V30 1741 C 164.295 -5.00471 -1.40801 0
M  V30 1742 C 161.98 -4.61616 -1.9803 0
M  V30 1743 C 163.974 -6.29536 -0.998174 0
M  V30 1744 C 161.661 -5.90679 -1.56658 0
M  V30 1745 C 162.659 -6.74466 -1.07633 0
M  V30 1746 O 162.347 -8.01116 -0.668459 0
M  V30 1747 H 162.079 -0.564614 -0.371734 0
M  V30 1748 H 164.633 -1.9843 -0.530521 0
M  V30 1749 H 162.863 -2.36954 -3.05597 0
M  V30 1750 H 164.552 -2.77729 -2.96009 0
M  V30 1751 H 165.318 -4.66079 -1.34148 0
M  V30 1752 H 161.197 -3.96526 -2.35135 0
M  V30 1753 H 164.741 -6.94885 -0.61482 0
M  V30 1754 H 160.638 -6.24586 -1.62979 0
M  V30 1755 H 161.406 -8.14633 -0.794722 0
M  V30 1756 N 164.069 0.697108 -1.41344 0
M  V30 1757 C 164.999 1.82353 -1.45841 0
M  V30 1758 C 165.98 1.67115 -0.317247 0
M  V30 1759 O 167.165 1.86871 -0.528474 0
M  V30 1760 C 164.295 3.20476 -1.33838 0
M  V30 1761 C 163.249 3.50415 -2.4575 0
M  V30 1762 C 162.575 4.87878 -2.18813 0
M  V30 1763 C 163.875 3.49546 -3.88091 0
M  V30 1764 H 165.569 1.78846 -2.40113 0
M  V30 1765 H 163.115 0.859028 -1.15571 0
M  V30 1766 H 165.068 3.98988 -1.35596 0
M  V30 1767 H 163.792 3.24604 -0.360498 0
M  V30 1768 H 162.451 2.74253 -2.43271 0
M  V30 1769 H 162.099 4.8863 -1.19371 0
M  V30 1770 H 161.799 5.08875 -2.93803 0
M  V30 1771 H 163.323 5.68702 -2.22284 0
M  V30 1772 H 164.737 4.18066 -3.92293 0
M  V30 1773 H 163.134 3.82075 -4.62751 0
M  V30 1774 H 164.204 2.48552 -4.16353 0
M  V30 1775 N 165.547 1.27147 0.931209 0
M  V30 1776 C 166.824 1.0401 1.65654 0
M  V30 1777 C 167.204 -0.426297 2.06751 0
M  V30 1778 O 166.552 -1.40879 1.79904 0
M  V30 1779 C 166.762 1.99834 2.86125 0
M  V30 1780 C 168.11 2.29007 3.57549 0
M  V30 1781 O 169.134 1.97779 2.96246 0
M  V30 1782 O 167.993 2.82222 4.67989 0
M  V30 1783 H 165.087 0.396239 0.725895 0
M  V30 1784 H 167.633 1.38397 0.982056 0
M  V30 1785 H 166.405 2.98744 2.52721 0
M  V30 1786 H 166.028 1.65987 3.61295 0
M  V30 1787 N 167.025 -1.13721 1.09112 0
M  V30 1788 C 167.972 -2.19031 0.727591 0
M  V30 1789 C 168.942 -1.63555 -0.289656 0
M  V30 1790 O 170.127 -1.90023 -0.172026 0
M  V30 1791 C 167.267 -3.4477 0.15082 0
M  V30 1792 C 166.38 -4.14365 1.22172 0
M  V30 1793 C 165.515 -5.27709 0.608042 0
M  V30 1794 C 164.554 -5.89147 1.66047 0
M  V30 1795 N 163.691 -6.93929 1.06806 0
M  V30 1796 H 168.531 -2.49475 1.62991 0
M  V30 1797 H 166.068 -1.22499 0.81439 0
M  V30 1798 H 168.026 -4.16714 -0.201358 0
M  V30 1799 H 166.656 -3.14787 -0.714783 0
M  V30 1800 H 165.708 -3.40737 1.69122 0
M  V30 1801 H 167.02 -4.56114 2.01895 0
M  V30 1802 H 166.174 -6.06355 0.204523 0
M  V30 1803 H 164.913 -4.872 -0.220769 0
M  V30 1804 H 163.918 -5.09198 2.07357 0
M  V30 1805 H 165.143 -6.31729 2.49189 0
M  V30 1806 H 163.089 -6.55483 0.260476 0
M  V30 1807 H 163.006 -7.34202 1.8023 0
M  V30 1808 H 164.274 -7.76434 0.690644 0
M  V30 1809 N 168.503 -0.877838 -1.30888 0
M  V30 1810 C 169.433 -0.35534 -2.3078 0
M  V30 1811 C 170.414 0.557994 -1.60687 0
M  V30 1812 O 171.599 0.473355 -1.88343 0
M  V30 1813 C 168.729 0.437221 -3.44537 0
M  V30 1814 C 167.683 -0.383715 -4.26276 0
M  V30 1815 C 167.009 0.535014 -5.32017 0
M  V30 1816 C 168.309 -1.62201 -4.96476 0
M  V30 1817 H 170.003 -1.19007 -2.74732 0
M  V30 1818 H 167.549 -0.573698 -1.32078 0
M  V30 1819 H 169.502 0.813334 -4.13477 0
M  V30 1820 H 168.226 1.30553 -2.99372 0
M  V30 1821 H 166.885 -0.741874 -3.59015 0
M  V30 1822 H 166.533 1.40083 -4.831 0
M  V30 1823 H 166.233 -0.0104211 -5.87599 0
M  V30 1824 H 167.757 0.907799 -6.03814 0
M  V30 1825 H 169.171 -1.31689 -5.5797 0
M  V30 1826 H 167.568 -2.10711 -5.61891 0
M  V30 1827 H 168.638 -2.37044 -4.23011 0
M  V30 1828 N 169.982 1.44106 -0.638065 0
M  V30 1829 C 171.207 2.0685 -0.150916 0
M  V30 1830 C 171.632 1.47417 1.16833 0
M  V30 1831 O 170.99 0.578264 1.71831 0
M  V30 1832 C 171.038 3.60555 -0.05708 0
M  V30 1833 O 170.142 4.00465 0.984972 0
M  V30 1834 H 169.483 0.658151 -0.0879399 0
M  V30 1835 H 172.013 1.84865 -0.876707 0
M  V30 1836 H 172.023 4.07789 0.131232 0
M  V30 1837 H 170.698 4.03193 -1.02021 0
M  V30 1838 H 169.275 3.64849 0.770672 0
M  V30 1839 N 171.46 0.379036 1.52974 0
M  V30 1840 C 172.407 -0.461048 2.26148 0
M  V30 1841 C 173.377 -1.06637 1.27349 0
M  V30 1842 O 174.562 -1.09633 1.56157 0
M  V30 1843 C 171.702 -1.58782 3.06402 0
M  V30 1844 C 170.815 -1.00636 4.20115 0
M  V30 1845 C 169.95 -2.10334 4.87784 0
M  V30 1846 C 168.989 -1.49724 5.93506 0
M  V30 1847 N 168.126 -2.5331 6.54812 0
M  V30 1848 H 172.966 0.169429 2.97518 0
M  V30 1849 H 170.503 0.0953806 1.4679 0
M  V30 1850 H 172.461 -2.25174 3.51215 0
M  V30 1851 H 171.091 -2.18876 2.37261 0
M  V30 1852 H 170.143 -0.232332 3.7969 0
M  V30 1853 H 171.455 -0.523343 4.96047 0
M  V30 1854 H 170.609 -2.84519 5.35849 0
M  V30 1855 H 169.348 -2.61992 4.11353 0
M  V30 1856 H 168.353 -0.740598 5.44789 0
M  V30 1857 H 169.578 -0.988732 6.71864 0
M  V30 1858 H 167.524 -3.04156 5.81227 0
M  V30 1859 H 167.441 -2.09734 7.26325 0
M  V30 1860 H 168.709 -3.27155 7.07524 0
M  V30 1861 N 172.938 -1.57226 0.108567 0
M  V30 1862 C 174.168 -1.9889 -0.559142 0
M  V30 1863 C 174.576 -0.986889 -1.61422 0
M  V30 1864 O 173.919 0.0298705 -1.83676 0
M  V30 1865 C 173.981 -3.36952 -1.25315 0
M  V30 1866 C 173.645 -4.55679 -0.347248 0
M  V30 1867 C 174.642 -5.18281 0.409996 0
M  V30 1868 C 172.327 -5.0162 -0.261367 0
M  V30 1869 C 174.321 -6.25203 1.24096 0
M  V30 1870 C 172.008 -6.08405 0.573238 0
M  V30 1871 C 173.006 -6.70063 1.32304 0
M  V30 1872 O 172.694 -7.74788 2.14381 0
M  V30 1873 H 172.426 -0.658343 -0.153492 0
M  V30 1874 H 174.98 -2.04532 0.188584 0
M  V30 1875 H 173.21 -3.28032 -2.04773 0
M  V30 1876 H 174.899 -3.62974 -1.81673 0
M  V30 1877 H 175.665 -4.8371 0.353457 0
M  V30 1878 H 171.544 -4.53381 -0.834656 0
M  V30 1879 H 175.088 -6.73259 1.82669 0
M  V30 1880 H 170.985 -6.42406 0.631208 0
M  V30 1881 H 171.753 -7.91837 2.07209 0
M  V30 1882 N 174.416 0.165178 -1.56732 0
M  V30 1883 C 175.662 0.882112 -1.82611 0
M  V30 1884 C 175.995 1.81628 -0.687378 0
M  V30 1885 O 175.27 1.92009 0.310267 0
M  V30 1886 C 175.553 1.67245 -3.18906 0
M  V30 1887 C 175.406 0.760987 -4.43316 0
M  V30 1888 C 176.725 2.63884 -3.52212 0
M  V30 1889 H 173.844 0.319242 -0.664269 0
M  V30 1890 H 176.486 0.148052 -1.89422 0
M  V30 1891 H 174.636 2.29824 -3.1323 0
M  V30 1892 H 176.308 0.147596 -4.61064 0
M  V30 1893 H 174.551 0.0694102 -4.33744 0
M  V30 1894 H 175.222 1.34962 -5.35247 0
M  V30 1895 H 177.698 2.11429 -3.58381 0
M  V30 1896 H 176.574 3.16245 -4.48643 0
M  V30 1897 H 176.835 3.44377 -2.77231 0
M  V30 1898 N 175.894 1.51508 0.433938 0
M  V30 1899 C 176.804 1.75917 1.5521 0
M  V30 1900 C 177.82 0.643545 1.61662 0
M  V30 1901 O 178.996 0.926183 1.7884 0
M  V30 1902 C 176.061 1.88213 2.91164 0
M  V30 1903 C 175.122 3.12074 2.94802 0
M  V30 1904 C 174.355 3.23774 4.24271 0
M  V30 1905 O 174.578 2.4133 5.16833 0
M  V30 1906 O 173.512 4.16774 4.34262 0
M  V30 1907 H 177.338 2.70777 1.37527 0
M  V30 1908 H 174.923 1.36051 0.617293 0
M  V30 1909 H 176.805 1.98267 3.71845 0
M  V30 1910 H 175.48 0.965413 3.08968 0
M  V30 1911 H 174.387 3.07497 2.13065 0
M  V30 1912 H 175.72 4.03446 2.81943 0
M  V30 1913 N 177.372 -0.689602 1.41712 0
M  V30 1914 C 178.319 -1.80345 1.44029 0
M  V30 1915 C 179.289 -1.63478 0.293948 0
M  V30 1916 O 180.474 -1.84244 0.495869 0
M  V30 1917 C 177.614 -3.18272 1.33405 0
M  V30 1918 C 176.727 -3.46529 2.57956 0
M  V30 1919 C 175.862 -4.74103 2.39582 0
M  V30 1920 C 174.901 -4.95347 3.5958 0
M  V30 1921 N 174.038 -6.14151 3.40239 0
M  V30 1922 H 178.878 -1.77698 2.39222 0
M  V30 1923 H 176.415 -0.867688 1.18784 0
M  V30 1924 H 178.373 -3.97956 1.25246 0
M  V30 1925 H 177.003 -3.2008 0.418164 0
M  V30 1926 H 176.055 -2.61207 2.76542 0
M  V30 1927 H 177.367 -3.58126 3.47199 0
M  V30 1928 H 176.521 -5.61853 2.28924 0
M  V30 1929 H 175.26 -4.64763 1.47805 0
M  V30 1930 H 174.265 -4.06044 3.70686 0
M  V30 1931 H 175.49 -5.06542 4.52318 0
M  V30 1932 H 173.436 -6.06013 2.51167 0
M  V30 1933 H 173.353 -6.26543 4.23061 0
M  V30 1934 H 174.621 -7.04619 3.33365 0
M  V30 1935 N 178.85 -1.27639 -0.924453 0
M  V30 1936 C 180.078 -1.16989 -1.70649 0
M  V30 1937 C 180.493 0.272869 -1.86818 0
M  V30 1938 O 179.85 1.18549 -1.38753 0
M  V30 1939 C 179.901 -1.85229 -3.10439 0
M  V30 1940 O 179.622 -3.23868 -2.95028 0
M  V30 1941 C 181.123 -1.80746 -4.04779 0
M  V30 1942 H 178.343 -0.406595 -0.53378 0
M  V30 1943 H 180.887 -1.68569 -1.15778 0
M  V30 1944 H 179.042 -1.37545 -3.6216 0
M  V30 1945 H 179.456 -3.57889 -3.83426 0
M  V30 1946 H 180.93 -2.33101 -5.00368 0
M  V30 1947 H 181.407 -0.777499 -4.32263 0
M  V30 1948 H 182.013 -2.28059 -3.58984 0
M  V30 1949 N 180.328 1.1314 -1.09713 0
M  V30 1950 C 181.575 1.84484 -0.834987 0
M  V30 1951 C 181.903 1.83689 0.639418 0
M  V30 1952 O 181.158 1.2724 1.4869 0
M  V30 1953 C 181.457 3.32167 -1.3191 0
M  V30 1954 C 181.123 3.53139 -2.80363 0
M  V30 1955 C 179.785 3.58571 -3.20905 0
M  V30 1956 C 182.137 3.60866 -3.76065 0
M  V30 1957 C 179.465 3.69267 -4.55916 0
M  V30 1958 C 181.817 3.73089 -5.10869 0
M  V30 1959 C 180.481 3.76775 -5.50996 0
M  V30 1960 H 179.751 0.675073 -0.305544 0
M  V30 1961 H 182.398 1.33554 -1.37243 0
M  V30 1962 H 180.703 3.85469 -0.701517 0
M  V30 1963 H 182.4 3.85821 -1.09284 0
M  V30 1964 H 178.99 3.49569 -2.47991 0
M  V30 1965 H 183.174 3.55946 -3.45855 0
M  V30 1966 H 178.43 3.70388 -4.86438 0
M  V30 1967 H 182.604 3.78011 -5.84877 0
M  V30 1968 H 180.231 3.84815 -6.55608 0
M  V30 1969 N 181.806 0.884767 1.30421 0
M  V30 1970 C 182.738 0.308655 2.27112 0
M  V30 1971 C 183.751 -0.536655 1.53701 0
M  V30 1972 O 184.94 -0.35624 1.74909 0
M  V30 1973 C 182.04 -0.579782 3.33904 0
M  V30 1974 C 181.213 0.236417 4.36761 0
M  V30 1975 C 180.272 -0.582482 5.22966 0
M  V30 1976 O 179.298 -0.00525502 5.692 0
M  V30 1977 N 180.5 -1.89163 5.48815 0
M  V30 1978 H 183.265 1.13964 2.77186 0
M  V30 1979 H 180.826 0.747731 1.43599 0
M  V30 1980 H 182.818 -1.13366 3.88497 0
M  V30 1981 H 181.388 -1.31144 2.83761 0
M  V30 1982 H 180.608 0.97174 3.82035 0
M  V30 1983 H 181.896 0.795924 5.02536 0
M  V30 1984 H 181.294 -2.38352 5.13035 0
M  V30 1985 H 179.851 -2.39296 6.06284 0
M  V30 1986 N 183.284 -1.43765 0.645699 0
M  V30 1987 C 184.232 -2.32516 -0.0624849 0
M  V30 1988 C 185.226 -1.48183 -0.820855 0
M  V30 1989 O 186.432 -1.64439 -0.732106 0
M  V30 1990 H 182.807 -0.750989 -0.0389864 0
M  V30 1991 H 184.778 -2.89979 0.703892 0
M  V30 1992 C 183.527 -3.32389 -1.02044 0
M  V30 1993 H 182.85 -3.97301 -0.446312 0
M  V30 1994 H 184.29 -3.97138 -1.48517 0
M  V30 1995 C 182.749 -2.62416 -2.11281 0
M  V30 1996 O 183.279 -2.434 -3.19561 0
M  V30 1997 N 181.485 -2.21913 -1.87624 0
M  V30 1998 H 181.032 -2.37578 -0.995703 0
M  V30 1999 H 180.99 -1.75424 -2.6091 0
M  V30 2000 N 184.763 -0.387143 -1.52771 0
M  V30 2001 C 185.711 0.463953 -2.27926 0
M  V30 2002 C 186.705 1.06493 -1.31741 0
M  V30 2003 O 187.911 1.00565 -1.49287 0
M  V30 2004 H 184.286 0.16837 -0.732909 0
M  V30 2005 H 186.257 -0.19141 -2.97785 0
M  V30 2006 C 185.006 1.5803 -3.09713 0
M  V30 2007 H 184.329 1.12718 -3.83581 0
M  V30 2008 H 185.769 2.15008 -3.65442 0
M  V30 2009 C 184.228 2.53509 -2.2189 0
M  V30 2010 O 184.758 3.56863 -1.84422 0
M  V30 2011 N 182.964 2.23199 -1.86093 0
M  V30 2012 H 182.511 1.39185 -2.16761 0
M  V30 2013 H 182.469 2.87333 -1.27621 0
M  V30 2014 N 186.241 1.57166 -0.116904 0
M  V30 2015 C 187.487 1.95412 0.542405 0
M  V30 2016 C 187.82 1.00019 1.66463 0
M  V30 2017 O 187.095 0.0370346 1.94465 0
M  V30 2018 C 187.378 3.43615 1.07708 0
M  V30 2019 C 187.231 4.49781 -0.0415868 0
M  V30 2020 C 188.55 3.93616 1.96861 0
M  V30 2021 H 185.669 0.710543 0.195696 0
M  V30 2022 H 188.311 1.89027 -0.192038 0
M  V30 2023 H 186.461 3.49187 1.70296 0
M  V30 2024 H 188.133 4.56308 -0.676793 0
M  V30 2025 H 186.376 4.28033 -0.705019 0
M  V30 2026 H 187.047 5.50733 0.373717 0
M  V30 2027 H 189.523 3.90335 1.44146 0
M  V30 2028 H 188.399 4.97838 2.3119 0
M  V30 2029 H 188.66 3.34188 2.89432 0
M  V30 2030 N 187.719 -0.156864 1.56817 0
M  V30 2031 C 188.629 -1.2136 2.00771 0
M  V30 2032 C 189.645 -1.47598 0.921459 0
M  V30 2033 O 190.821 -1.59462 1.2302 0
M  V30 2034 C 187.886 -2.52943 2.37109 0
M  V30 2035 C 186.947 -2.34439 3.59634 0
M  V30 2036 C 186.18 -3.59748 3.94229 0
M  V30 2037 O 186.403 -4.65526 3.29609 0
M  V30 2038 O 185.337 -3.52998 4.8752 0
M  V30 2039 H 189.163 -0.870468 2.90958 0
M  V30 2040 H 186.748 -0.36484 1.44877 0
M  V30 2041 H 188.63 -3.30538 2.61386 0
M  V30 2042 H 187.305 -2.86806 1.5008 0
M  V30 2043 H 186.212 -1.54828 3.40557 0
M  V30 2044 H 187.545 -2.05496 4.4725 0
M  V30 2045 N 189.197 -1.51736 -0.425897 0
M  V30 2046 C 190.144 -1.73875 -1.51776 0
M  V30 2047 C 191.114 -0.580702 -1.55618 0
M  V30 2048 O 192.299 -0.81641 -1.72451 0
M  V30 2049 C 189.439 -1.88012 -2.89388 0
M  V30 2050 C 188.552 -3.15606 -2.94986 0
M  V30 2051 C 187.687 -3.20271 -4.23793 0
M  V30 2052 C 186.726 -4.42134 -4.23302 0
M  V30 2053 N 185.863 -4.44284 -5.43651 0
M  V30 2054 H 190.703 -2.67071 -1.32201 0
M  V30 2055 H 188.24 -1.32351 -0.642008 0
M  V30 2056 H 190.198 -1.9419 -3.69251 0
M  V30 2057 H 188.828 -0.98213 -3.07496 0
M  V30 2058 H 187.88 -3.18681 -2.07717 0
M  V30 2059 H 189.192 -4.05486 -2.90486 0
M  V30 2060 H 188.346 -3.25428 -5.12036 0
M  V30 2061 H 187.085 -2.28299 -4.30965 0
M  V30 2062 H 186.09 -4.3714 -3.3345 0
M  V30 2063 H 187.315 -5.35382 -4.17783 0
M  V30 2064 H 185.261 -3.55188 -5.51523 0
M  V30 2065 H 185.178 -5.27988 -5.41078 0
M  V30 2066 H 186.446 -4.53649 -6.33895 0
M  V30 2067 N 190.675 0.682077 -1.42076 0
M  V30 2068 C 191.622 1.79578 -1.44984 0
M  V30 2069 C 192.592 1.6332 -0.302614 0
M  V30 2070 O 193.777 1.83978 -0.505633 0
M  V30 2071 C 190.917 3.1756 -1.35091 0
M  V30 2072 C 190.03 3.45156 -2.59791 0
M  V30 2073 C 189.165 4.72826 -2.42093 0
M  V30 2074 C 188.204 4.93433 -3.62202 0
M  V30 2075 N 187.341 6.12338 -3.43491 0
M  V30 2076 H 192.181 1.76427 -2.40161 0
M  V30 2077 H 189.718 0.861376 -1.19242 0
M  V30 2078 H 191.676 3.97287 -1.27354 0
M  V30 2079 H 190.306 3.19854 -0.435133 0
M  V30 2080 H 189.358 2.59736 -2.77923 0
M  V30 2081 H 190.67 3.5628 -3.49094 0
M  V30 2082 H 189.824 5.60631 -2.319 0
M  V30 2083 H 188.563 4.63973 -1.50268 0
M  V30 2084 H 187.568 4.04073 -3.72834 0
M  V30 2085 H 188.793 5.04136 -4.54998 0
M  V30 2086 H 186.739 6.04672 -2.54377 0
M  V30 2087 H 186.656 6.2429 -4.26377 0
M  V30 2088 H 187.924 7.02841 -3.37097 0
M  V30 2089 N 192.153 1.28127 0.917671 0
M  V30 2090 C 193.101 1.11569 2.04096 0
M  V30 2091 C 194.095 0.0360242 1.69362 0
M  V30 2092 O 195.301 0.194501 1.78946 0
M  V30 2093 H 191.676 0.344097 0.668656 0
M  V30 2094 H 193.647 2.06711 2.15205 0
M  V30 2095 C 192.396 0.790197 3.38602 0
M  V30 2096 H 191.719 1.61293 3.6582 0
M  V30 2097 H 193.159 0.714271 4.1794 0
M  V30 2098 C 191.618 -0.505897 3.3308 0
M  V30 2099 O 192.148 -1.53736 3.71117 0
M  V30 2100 N 190.354 -0.505193 2.86175 0
M  V30 2101 H 189.901 0.334621 2.55417 0
M  V30 2102 H 189.859 -1.37243 2.82863 0
M  V30 2103 N 193.631 -1.12557 1.10312 0
M  V30 2104 C 194.561 -2.20341 0.772798 0
M  V30 2105 C 195.542 -1.68198 -0.25365 0
M  V30 2106 O 196.727 -1.93831 -0.119699 0
M  V30 2107 C 193.857 -3.46709 0.202443 0
M  V30 2108 C 192.811 -4.11996 1.15943 0
M  V30 2109 C 192.137 -5.328 0.450345 0
M  V30 2110 C 193.437 -4.5828 2.50552 0
M  V30 2111 H 195.131 -2.48229 1.674 0
M  V30 2112 H 192.677 -1.19308 0.806326 0
M  V30 2113 H 194.63 -4.2138 -0.0407752 0
M  V30 2114 H 193.354 -3.18245 -0.734001 0
M  V30 2115 H 192.013 -3.39305 1.38808 0
M  V30 2116 H 191.661 -5.00602 -0.490531 0
M  V30 2117 H 191.361 -5.7743 1.08851 0
M  V30 2118 H 192.885 -6.10219 0.215642 0
M  V30 2119 H 194.299 -5.2433 2.31843 0
M  V30 2120 H 192.696 -5.13683 3.10242 0
M  V30 2121 H 193.766 -3.72329 3.10643 0
M  V30 2122 N 195.109 -0.891671 -1.2995 0
M  V30 2123 C 196.334 -0.527932 -2.00568 0
M  V30 2124 C 196.759 0.877969 -1.66353 0
M  V30 2125 O 196.117 1.58301 -0.883762 0
M  V30 2126 C 196.165 -0.717745 -3.53385 0
M  V30 2127 O 195.269 0.233376 -4.11739 0
M  V30 2128 H 194.61 -0.20722 -0.630837 0
M  V30 2129 H 197.14 -1.20105 -1.65638 0
M  V30 2130 H 197.15 -0.619307 -4.03272 0
M  V30 2131 H 195.825 -1.74276 -3.77625 0
M  V30 2132 H 194.402 0.0880706 -3.72796 0
M  V30 2133 N 196.587 1.43421 -0.653314 0
M  V30 2134 C 197.534 2.30768 0.0382271 0
M  V30 2135 C 198.504 1.44755 0.814576 0
M  V30 2136 O 199.689 1.73624 0.791162 0
M  V30 2137 C 196.829 3.30336 0.998599 0
M  V30 2138 C 195.942 4.31448 0.218342 0
M  V30 2139 C 195.077 5.18098 1.17252 0
M  V30 2140 C 194.116 6.10902 0.382702 0
M  V30 2141 N 193.253 6.90176 1.28848 0
M  V30 2142 H 198.093 2.89357 -0.712511 0
M  V30 2143 H 195.63 1.42548 -0.363128 0
M  V30 2144 H 197.588 3.86572 1.56901 0
M  V30 2145 H 196.218 2.73397 1.71621 0
M  V30 2146 H 195.27 3.77506 -0.46836 0
M  V30 2147 H 196.582 4.97227 -0.395812 0
M  V30 2148 H 195.736 5.7896 1.81356 0
M  V30 2149 H 194.475 4.52444 1.82058 0
M  V30 2150 H 193.48 5.49128 -0.27169 0
M  V30 2151 H 194.705 6.78598 -0.260957 0
M  V30 2152 H 192.651 6.27171 1.92334 0
M  V30 2153 H 192.568 7.52478 0.728887 0
M  V30 2154 H 193.836 7.55543 1.91766 0
M  V30 2155 N 198.065 0.39524 1.52563 0
M  V30 2156 C 199.013 -0.451859 2.28169 0
M  V30 2157 C 200.007 -1.05792 1.32304 0
M  V30 2158 O 201.213 -0.997718 1.49818 0
M  V30 2159 H 197.588 -0.164481 0.733792 0
M  V30 2160 H 199.559 0.207199 2.9768 0
M  V30 2161 C 198.308 -1.56385 3.10546 0
M  V30 2162 H 197.631 -1.10682 3.84174 0
M  V30 2163 H 199.071 -2.13067 3.66577 0
M  V30 2164 C 197.53 -2.52328 2.23231 0
M  V30 2165 O 198.06 -3.5588 1.86312 0
M  V30 2166 N 196.266 -2.22209 1.87274 0
M  V30 2167 H 195.813 -1.38033 2.17496 0
M  V30 2168 H 195.771 -2.86652 1.29143 0
M  V30 2169 N 199.544 -1.57102 0.125237 0
M  V30 2170 C 200.491 -2.15641 -0.822655 0
M  V30 2171 C 201.461 -1.08313 -1.25927 0
M  V30 2172 O 202.646 -1.36251 -1.33567 0
M  V30 2173 C 199.786 -2.76504 -2.06494 0
M  V30 2174 C 198.899 -3.98158 -1.67612 0
M  V30 2175 C 198.034 -4.47088 -2.86854 0
M  V30 2176 C 197.073 -5.6126 -2.44242 0
M  V30 2177 N 196.21 -6.04905 -3.56419 0
M  V30 2178 H 201.05 -2.96313 -0.316625 0
M  V30 2179 H 198.587 -1.46388 -0.144588 0
M  V30 2180 H 200.545 -3.09925 -2.79289 0
M  V30 2181 H 199.175 -1.98512 -2.54545 0
M  V30 2182 H 198.227 -3.70858 -0.846661 0
M  V30 2183 H 199.539 -4.80934 -1.32301 0
M  V30 2184 H 198.693 -4.82451 -3.67867 0
M  V30 2185 H 197.432 -3.63275 -3.25396 0
M  V30 2186 H 196.437 -5.25495 -1.61663 0
M  V30 2187 H 197.662 -6.46843 -2.0681 0
M  V30 2188 H 195.608 -5.24032 -3.94623 0
M  V30 2189 H 195.525 -6.82552 -3.25051 0
M  V30 2190 H 196.793 -6.44907 -4.37853 0
M  V30 2191 N 201.022 0.148545 -1.56898 0
M  V30 2192 C 201.985 1.16736 -1.97244 0
M  V30 2193 C 202.985 1.35947 -0.858777 0
M  V30 2194 O 204.175 1.32966 -1.12542 0
M  V30 2195 C 201.307 2.52798 -2.28705 0
M  V30 2196 H 202.5 0.821279 -2.88435 0
M  V30 2197 H 200.053 0.391831 -1.51309 0
M  V30 2198 H 200.788 2.92381 -1.403 0
M  V30 2199 H 200.573 2.40216 -3.09901 0
M  V30 2200 H 202.063 3.26179 -2.60762 0
M  V30 2201 N 202.5 1.5196 0.417844 0
M  V30 2202 C 203.432 1.70895 1.52733 0
M  V30 2203 C 204.445 0.589405 1.51756 0
M  V30 2204 O 205.634 0.864312 1.56179 0
M  V30 2205 C 202.734 1.72627 2.91639 0
M  V30 2206 C 201.907 3.01479 3.16905 0
M  V30 2207 C 200.966 2.95139 4.35637 0
M  V30 2208 O 199.992 3.69059 4.3334 0
M  V30 2209 N 201.194 2.12328 5.40275 0
M  V30 2210 H 203.959 2.66612 1.36888 0
M  V30 2211 H 201.52 1.50089 0.607037 0
M  V30 2212 H 203.512 1.65928 3.6912 0
M  V30 2213 H 202.082 0.844216 3.00985 0
M  V30 2214 H 201.302 3.21895 2.27546 0
M  V30 2215 H 202.59 3.86736 3.30625 0
M  V30 2216 H 201.988 1.51685 5.44985 0
M  V30 2217 H 200.545 2.11494 6.16534 0
M  V30 2218 N 203.978 -0.674533 1.42435 0
M  V30 2219 C 205.206 -1.46283 1.46317 0
M  V30 2220 C 205.621 -1.88653 0.0745836 0
M  V30 2221 O 204.978 -1.58151 -0.91074 0
M  V30 2222 C 205.029 -2.71178 2.3905 0
M  V30 2223 O 204.75 -2.30586 3.72507 0
M  V30 2224 C 206.251 -3.64738 2.51955 0
M  V30 2225 H 203.471 -0.450104 0.497642 0
M  V30 2226 H 206.015 -0.828792 1.86953 0
M  V30 2227 H 204.17 -3.3077 2.01667 0
M  V30 2228 H 204.584 -3.11241 4.22172 0
M  V30 2229 H 206.058 -4.49096 3.20962 0
M  V30 2230 H 206.535 -4.10656 1.55752 0
M  V30 2231 H 207.141 -3.11038 2.90061 0
M  V30 2232 N 205.456 -1.28612 -0.910864 0
M  V30 2233 C 206.386 -1.15326 -2.03032 0
M  V30 2234 C 207.367 -0.0502924 -1.70026 0
M  V30 2235 O 208.552 -0.227797 -1.92859 0
M  V30 2236 C 205.682 -0.817343 -3.37545 0
M  V30 2237 C 204.636 -1.8754 -3.84724 0
M  V30 2238 C 203.962 -1.39305 -5.16235 0
M  V30 2239 C 205.262 -3.28244 -4.06267 0
M  V30 2240 H 206.956 -2.08975 -2.14406 0
M  V30 2241 H 204.502 -1.00612 -1.03021 0
M  V30 2242 H 206.455 -0.711151 -4.15356 0
M  V30 2243 H 205.179 0.154846 -3.26233 0
M  V30 2244 H 203.838 -1.97079 -3.09121 0
M  V30 2245 H 203.486 -0.409846 -5.01328 0
M  V30 2246 H 203.186 -2.10057 -5.48771 0
M  V30 2247 H 204.71 -1.30014 -5.96598 0
M  V30 2248 H 206.124 -3.21611 -4.74594 0
M  V30 2249 H 204.521 -3.96855 -4.5014 0
M  V30 2250 H 205.591 -3.72048 -3.10979 0
M  V30 2251 N 206.934 1.1197 -1.10907 0
M  V30 2252 C 207.882 2.19927 -0.757303 0
M  V30 2253 C 208.876 1.67564 0.248747 0
M  V30 2254 O 210.082 1.79672 0.108605 0
M  V30 2255 H 206.457 0.716925 -0.226987 0
M  V30 2256 H 208.428 2.46847 -1.67658 0
M  V30 2257 C 207.177 3.47061 -0.210671 0
M  V30 2258 H 206.5 3.87703 -0.976049 0
M  V30 2259 H 207.94 4.24 -0.0026584 0
M  V30 2260 C 206.399 3.19864 1.05777 0
M  V30 2261 O 206.929 3.40049 2.13845 0
M  V30 2262 N 205.135 2.73636 0.978349 0
M  V30 2263 H 204.682 2.5741 0.0988246 0
M  V30 2264 H 204.64 2.55815 1.82773 0
M  V30 2265 N 208.412 0.89855 1.29475 0
M  V30 2266 C 209.359 0.373819 2.27753 0
M  V30 2267 C 210.329 -0.543444 1.56958 0
M  V30 2268 O 211.514 -0.468934 1.84948 0
M  V30 2269 C 208.654 -0.393648 3.42848 0
M  V30 2270 C 207.767 0.554379 4.28428 0
M  V30 2271 C 206.902 -0.230026 5.30702 0
M  V30 2272 C 205.941 0.712599 6.07938 0
M  V30 2273 N 205.078 -0.0373283 7.0209 0
M  V30 2274 H 209.918 1.21699 2.72017 0
M  V30 2275 H 207.455 0.611456 1.33789 0
M  V30 2276 H 209.413 -0.85466 4.08352 0
M  V30 2277 H 208.043 -1.20128 2.99615 0
M  V30 2278 H 207.095 1.13391 3.63107 0
M  V30 2279 H 208.407 1.27597 4.82204 0
M  V30 2280 H 207.561 -0.752288 6.02018 0
M  V30 2281 H 206.3 -0.984758 4.77654 0
M  V30 2282 H 205.305 1.24637 5.35486 0
M  V30 2283 H 206.53 1.46664 6.63074 0
M  V30 2284 H 204.476 -0.774348 6.51414 0
M  V30 2285 H 204.393 0.624374 7.53417 0
M  V30 2286 H 205.661 -0.539891 7.77628 0
M  V30 2287 N 209.89 -1.43072 0.660911 0
M  V30 2288 C 210.82 -2.33497 -0.0122829 0
M  V30 2289 C 211.801 -1.49903 -0.803925 0
M  V30 2290 O 212.986 -1.78546 -0.763864 0
M  V30 2291 C 210.116 -3.33363 -0.973994 0
M  V30 2292 C 209.07 -4.27003 -0.291928 0
M  V30 2293 C 208.396 -5.16967 -1.36562 0
M  V30 2294 C 209.696 -5.15816 0.820462 0
M  V30 2295 H 211.39 -2.90038 0.742873 0
M  V30 2296 H 208.936 -1.39461 0.358688 0
M  V30 2297 H 210.889 -3.95524 -1.45392 0
M  V30 2298 H 209.613 -2.75095 -1.7604 0
M  V30 2299 H 208.272 -3.66217 0.167623 0
M  V30 2300 H 207.92 -4.55034 -2.14366 0
M  V30 2301 H 207.62 -5.80441 -0.914454 0
M  V30 2302 H 209.144 -5.82003 -1.84675 0
M  V30 2303 H 210.558 -5.71742 0.422366 0
M  V30 2304 H 208.955 -5.8805 1.19656 0
M  V30 2305 H 210.025 -4.55045 1.67518 0
M  V30 2306 N 211.368 -0.403325 -1.52352 0
M  V30 2307 C 212.784 -0.0539281 -1.59509 0
M  V30 2308 C 212.984 1.43307 -1.41652 0
M  V30 2309 O 212.04 2.19924 -1.24056 0
M  V30 2310 C 213.353 -0.543654 -2.95745 0
M  V30 2311 C 214.901 -0.501125 -3.08962 0
M  V30 2312 C 215.376 -0.967267 -4.47669 0
M  V30 2313 N 216.867 -0.923849 -4.53893 0
M  V30 2314 C 217.602 -1.25578 -5.5948 0
M  V30 2315 N 217.098 -1.65889 -6.72646 0
M  V30 2316 N 218.891 -1.17613 -5.49658 0
M  V30 2317 H 211.042 -1.37123 -1.62206 0
M  V30 2318 H 213.305 -0.56294 -0.76276 0
M  V30 2319 H 213.011 -1.58275 -3.14073 0
M  V30 2320 H 212.885 0.0498042 -3.77167 0
M  V30 2321 H 215.272 0.528909 -2.90321 0
M  V30 2322 H 215.353 -1.13056 -2.2946 0
M  V30 2323 H 214.997 -1.9956 -4.67053 0
M  V30 2324 H 214.927 -0.314698 -5.25659 0
M  V30 2325 H 217.418 -0.627403 -3.72655 0
M  V30 2326 H 217.731 -1.89543 -7.49195 0
M  V30 2327 H 216.076 -1.69787 -6.73942 0
M  V30 2328 H 219.267 -0.860115 -4.6013 0
M  V30 2329 H 219.44 -1.43812 -6.3184 0
M  V30 2330 N 212.846 1.57033 -0.133567 0
M  V30 2331 C 213.809 2.14897 0.796995 0
M  V30 2332 C 214.809 1.0874 1.18458 0
M  V30 2333 O 215.999 1.34446 1.1077 0
M  V30 2334 C 213.131 2.70112 2.07973 0
M  V30 2335 H 214.324 2.98457 0.293873 0
M  V30 2336 H 211.877 1.55871 0.115787 0
M  V30 2337 H 212.612 1.9018 2.62682 0
M  V30 2338 H 212.397 3.47764 1.81115 0
M  V30 2339 H 213.887 3.14738 2.74462 0
M  V30 2340 N 214.325 -0.140222 1.56975 0
M  V30 2341 C 215.272 -1.17292 1.98774 0
M  V30 2342 C 216.242 -1.4232 0.856408 0
M  V30 2343 O 217.427 -1.54541 1.119 0
M  V30 2344 C 214.567 -2.49973 2.37923 0
M  V30 2345 C 213.68 -2.32062 3.64378 0
M  V30 2346 C 212.815 -3.57825 3.926 0
M  V30 2347 C 211.854 -3.3498 5.12303 0
M  V30 2348 N 210.991 -4.52891 5.36502 0
M  V30 2349 H 215.831 -0.809472 2.86795 0
M  V30 2350 H 213.368 -0.388237 1.41884 0
M  V30 2351 H 215.326 -3.27346 2.58652 0
M  V30 2352 H 213.956 -2.84252 1.52972 0
M  V30 2353 H 213.008 -1.45711 3.51387 0
M  V30 2354 H 214.32 -2.11145 4.51906 0
M  V30 2355 H 213.474 -4.43624 4.13863 0
M  V30 2356 H 212.213 -3.81753 3.03506 0
M  V30 2357 H 211.218 -2.4757 4.90906 0
M  V30 2358 H 212.443 -3.12444 6.02956 0
M  V30 2359 H 210.389 -4.76979 4.50363 0
M  V30 2360 H 210.306 -4.35001 6.18312 0
M  V30 2361 H 211.574 -5.39884 5.62268 0
M  V30 2362 N 215.803 -1.52179 -0.40978 0
M  V30 2363 C 217.052 -1.65434 -1.15388 0
M  V30 2364 C 217.365 -0.390056 -1.91671 0
M  V30 2365 O 218.571 -0.402399 -2.68501 0
M  V30 2366 C 217.027 -2.92279 -2.10003 0
M  V30 2367 C 216.635 -4.25813 -1.39239 0
M  V30 2368 C 218.379 -3.14897 -2.84675 0
M  V30 2369 C 216.286 -5.43782 -2.32498 0
M  V30 2370 H 215.216 -0.616267 -0.434432 0
M  V30 2371 H 217.867 -1.78666 -0.418401 0
M  V30 2372 H 216.249 -2.72744 -2.871 0
M  V30 2373 H 217.423 -4.55828 -0.675099 0
M  V30 2374 H 215.738 -4.09292 -0.766097 0
M  V30 2375 H 218.335 -4.0021 -3.54593 0
M  V30 2376 H 218.678 -2.29103 -3.47588 0
M  V30 2377 H 219.211 -3.34901 -2.14677 0
M  V30 2378 H 215.95 -6.3192 -1.74233 0
M  V30 2379 H 215.47 -5.18106 -3.02201 0
M  V30 2380 H 217.149 -5.76834 -2.93038 0
M  V30 2381 N 217.281 0.66697 -1.42791 0
M  V30 2382 C 218.697 0.981027 -1.25889 0
M  V30 2383 C 218.897 2.00793 -0.168695 0
M  V30 2384 O 217.953 2.48321 0.45747 0
M  V30 2385 C 219.266 1.47838 -2.61848 0
M  V30 2386 C 220.814 1.59575 -2.69267 0
M  V30 2387 C 221.289 2.12704 -4.05612 0
M  V30 2388 N 222.78 2.20026 -4.07606 0
M  V30 2389 C 223.515 2.62227 -5.09926 0
M  V30 2390 N 223.011 3.03824 -6.22626 0
M  V30 2391 N 224.804 2.62045 -4.97281 0
M  V30 2392 H 216.955 -0.0127891 -2.12396 0
M  V30 2393 H 219.218 0.0568258 -0.946295 0
M  V30 2394 H 218.924 0.798299 -3.4252 0
M  V30 2395 H 218.798 2.45579 -2.86305 0
M  V30 2396 H 221.185 2.26687 -1.88936 0
M  V30 2397 H 221.266 0.60302 -2.48591 0
M  V30 2398 H 220.91 1.46198 -4.86404 0
M  V30 2399 H 220.84 3.12782 -4.23645 0
M  V30 2400 H 223.331 1.90708 -3.2625 0
M  V30 2401 H 223.644 3.34734 -6.96544 0
M  V30 2402 H 221.989 3.01662 -6.26119 0
M  V30 2403 H 225.18 2.28916 -4.08308 0
M  V30 2404 H 225.353 2.94613 -5.77154 0
M  V30 2405 N 218.759 1.29093 0.90403 0
M  V30 2406 C 219.706 1.13853 2.00764 0
M  V30 2407 C 220.676 0.0330084 1.66067 0
M  V30 2408 O 221.861 0.199733 1.89752 0
M  V30 2409 C 219.001 0.816537 3.35301 0
M  V30 2410 C 218.114 2.00206 3.82807 0
M  V30 2411 C 217.249 1.61983 5.059 0
M  V30 2412 C 216.288 2.77143 5.45764 0
M  V30 2413 N 215.425 2.39346 6.60044 0
M  V30 2414 H 220.265 2.08276 2.13132 0
M  V30 2415 H 217.802 1.03648 1.04381 0
M  V30 2416 H 219.76 0.610557 4.12708 0
M  V30 2417 H 218.39 -0.090779 3.22672 0
M  V30 2418 H 217.442 2.31988 3.01473 0
M  V30 2419 H 218.754 2.86512 4.08304 0
M  V30 2420 H 217.908 1.37649 5.90879 0
M  V30 2421 H 216.647 0.728202 4.82233 0
M  V30 2422 H 215.652 3.02165 4.59322 0
M  V30 2423 H 216.877 3.66964 5.71414 0
M  V30 2424 H 214.823 1.52665 6.37989 0
M  V30 2425 H 214.74 3.19185 6.85315 0
M  V30 2426 H 216.008 2.1832 7.48303 0
M  V30 2427 N 220.237 -1.11381 1.11499 0
M  V30 2428 C 221.477 -1.84763 0.874188 0
M  V30 2429 C 221.841 -1.82726 -0.589496 0
M  V30 2430 O 223.042 -2.51562 -0.947089 0
M  V30 2431 C 221.313 -3.27931 1.42112 0
M  V30 2432 S 222.872 -4.18557 1.31739 0
M  V30 2433 H 219.69 -0.637115 0.315603 0
M  V30 2434 H 222.292 -1.34097 1.42261 0
M  V30 2435 H 220.996 -3.26978 2.48019 0
M  V30 2436 H 220.527 -3.83665 0.869761 0
M  V30 2437 H 222.542 -4.95396 0.282335 0
M  V30 2438 N 221.715 -0.905404 -1.28997 0
M  V30 2439 C 222.94 -0.549175 -1.99997 0
M  V30 2440 C 223.365 0.860276 -1.67275 0
M  V30 2441 O 222.723 1.57355 -0.900502 0
M  V30 2442 C 222.771 -0.755185 -3.52604 0
M  V30 2443 O 221.875 0.189692 -4.11964 0
M  V30 2444 H 221.216 -0.213899 -0.628604 0
M  V30 2445 H 223.746 -1.21856 -1.64354 0
M  V30 2446 H 223.756 -0.662045 -4.02593 0
M  V30 2447 H 222.431 -1.78271 -3.75755 0
M  V30 2448 H 221.008 0.0485257 -3.72868 0
M  V30 2449 N 223.193 1.4272 -0.668489 0
M  V30 2450 C 224.103 2.34596 0.0139753 0
M  V30 2451 C 225.119 1.5474 0.795703 0
M  V30 2452 O 226.295 1.87334 0.739466 0
M  V30 2453 C 223.36 3.33202 0.957982 0
M  V30 2454 C 222.421 4.28957 0.17149 0
M  V30 2455 C 221.654 5.22853 1.07053 0
M  V30 2456 O 221.877 5.21531 2.31001 0
M  V30 2457 O 220.811 5.9952 0.534727 0
M  V30 2458 H 224.637 2.9448 -0.742661 0
M  V30 2459 H 222.222 1.43117 -0.428705 0
M  V30 2460 H 224.104 3.93796 1.50008 0
M  V30 2461 H 222.779 2.758 1.69458 0
M  V30 2462 H 221.686 3.71796 -0.414558 0
M  V30 2463 H 223.019 4.89383 -0.52586 0
M  V30 2464 N 224.671 0.411399 1.52136 0
M  V30 2465 C 225.918 -0.163645 2.01838 0
M  V30 2466 C 226.246 -1.4495 1.29691 0
M  V30 2467 O 225.501 -1.91725 0.392431 0
M  V30 2468 C 225.8 -0.455872 3.54481 0
M  V30 2469 C 225.466 0.741055 4.44769 0
M  V30 2470 C 224.128 1.06936 4.69167 0
M  V30 2471 C 226.48 1.54075 4.97906 0
M  V30 2472 C 223.808 2.19851 5.43951 0
M  V30 2473 C 226.16 2.66067 5.73926 0
M  V30 2474 C 224.824 2.99381 5.96596 0
M  V30 2475 H 224.094 -0.0598821 0.738576 0
M  V30 2476 H 226.741 0.553283 1.83333 0
M  V30 2477 H 225.046 -1.2544 3.71177 0
M  V30 2478 H 226.743 -0.913802 3.90449 0
M  V30 2479 H 223.333 0.475192 4.25958 0
M  V30 2480 H 227.517 1.30033 4.78963 0
M  V30 2481 H 222.773 2.46006 5.59724 0
M  V30 2482 H 226.947 3.28419 6.14096 0
M  V30 2483 H 224.574 3.86992 6.54325 0
M  V30 2484 N 226.149 -1.5696 0.141893 0
M  V30 2485 C 227.379 -2.00031 -0.516828 0
M  V30 2486 C 227.787 -1.02091 -1.59293 0
M  V30 2487 O 227.13 -0.00909657 -1.83698 0
M  V30 2488 C 227.192 -3.39534 -1.1814 0
M  V30 2489 C 226.856 -4.56313 -0.250513 0
M  V30 2490 C 227.853 -5.17295 0.519839 0
M  V30 2491 C 225.538 -5.02061 -0.154907 0
M  V30 2492 C 227.532 -6.2243 1.3733 0
M  V30 2493 C 225.219 -6.07053 0.702161 0
M  V30 2494 C 226.217 -6.67106 1.46487 0
M  V30 2495 O 225.905 -7.70066 2.30767 0
M  V30 2496 H 225.637 -0.661451 -0.139493 0
M  V30 2497 H 228.191 -2.04086 0.231926 0
M  V30 2498 H 226.421 -3.32302 -1.97769 0
M  V30 2499 H 228.11 -3.66745 -1.73933 0
M  V30 2500 H 228.876 -4.82852 0.45598 0
M  V30 2501 H 224.755 -4.5505 -0.7383 0
M  V30 2502 H 228.299 -6.69233 1.96909 0
M  V30 2503 H 224.196 -6.40923 0.76733 0
M  V30 2504 H 224.964 -7.87264 2.23959 0
M  V30 2505 N 227.627 0.131896 -1.57047 0
M  V30 2506 C 228.559 1.1878 -1.9602 0
M  V30 2507 C 229.572 1.38363 -0.857875 0
M  V30 2508 O 230.761 1.37666 -1.13623 0
M  V30 2509 C 227.861 2.55008 -2.23213 0
M  V30 2510 C 227.034 2.56201 -3.54513 0
M  V30 2511 C 226.093 3.7408 -3.70069 0
M  V30 2512 O 225.119 3.58258 -4.42312 0
M  V30 2513 N 226.321 4.92137 -3.07866 0
M  V30 2514 H 229.086 0.85639 -2.87204 0
M  V30 2515 H 226.647 0.321309 -1.5868 0
M  V30 2516 H 228.639 3.32404 -2.30846 0
M  V30 2517 H 227.209 2.80382 -1.3822 0
M  V30 2518 H 226.429 1.64613 -3.58185 0
M  V30 2519 H 227.717 2.54043 -4.4084 0
M  V30 2520 H 227.115 5.07895 -2.49116 0
M  V30 2521 H 225.672 5.67254 -3.21039 0
M  V30 2522 N 229.106 1.52395 0.401703 0
M  V30 2523 C 230.016 1.7917 1.51444 0
M  V30 2524 C 231.032 0.677691 1.6026 0
M  V30 2525 O 232.208 0.963909 1.76835 0
M  V30 2526 C 229.273 1.94347 2.87107 0
M  V30 2527 C 228.334 3.18257 2.88116 0
M  V30 2528 C 227.567 3.32701 4.17308 0
M  V30 2529 O 227.79 2.52238 5.11598 0
M  V30 2530 O 226.724 4.25891 4.25324 0
M  V30 2531 H 230.55 2.73633 1.31752 0
M  V30 2532 H 228.135 1.3733 0.588296 0
M  V30 2533 H 230.017 2.06109 3.67555 0
M  V30 2534 H 228.692 1.03073 3.06851 0
M  V30 2535 H 227.599 3.11947 2.06494 0
M  V30 2536 H 228.932 4.09336 2.73322 0
M  V30 2537 N 230.584 -0.659388 1.43143 0
M  V30 2538 C 231.531 -1.77249 1.47822 0
M  V30 2539 C 232.501 -1.62818 0.328558 0
M  V30 2540 O 233.686 -1.83151 0.534838 0
M  V30 2541 C 230.826 -3.15371 1.40126 0
M  V30 2542 C 229.939 -3.4098 2.65249 0
M  V30 2543 C 229.074 -4.68915 2.49584 0
M  V30 2544 C 228.113 -4.87608 3.70006 0
M  V30 2545 N 227.25 -6.06796 3.53189 0
M  V30 2546 H 232.09 -1.72584 2.42938 0
M  V30 2547 H 229.627 -0.842297 1.20598 0
M  V30 2548 H 231.585 -3.9521 1.33659 0
M  V30 2549 H 230.215 -3.19121 0.485964 0
M  V30 2550 H 229.267 -2.55282 2.8202 0
M  V30 2551 H 230.579 -3.50681 3.54717 0
M  V30 2552 H 229.733 -5.56871 2.4079 0
M  V30 2553 H 228.472 -4.61524 1.5763 0
M  V30 2554 H 227.477 -3.9809 3.79215 0
M  V30 2555 H 228.702 -4.96834 4.62961 0
M  V30 2556 H 226.648 -6.00549 2.63965 0
M  V30 2557 H 226.565 -6.17428 4.36255 0
M  V30 2558 H 227.833 -6.9739 3.48236 0
M  V30 2559 N 232.062 -1.29571 -0.897171 0
M  V30 2560 C 232.992 -1.17473 -2.01798 0
M  V30 2561 C 233.973 -0.068323 -1.69963 0
M  V30 2562 O 235.158 -0.248239 -1.92607 0
M  V30 2563 C 232.288 -0.853099 -3.36659 0
M  V30 2564 C 231.242 -1.9161 -3.82713 0
M  V30 2565 C 230.568 -1.44773 -5.14728 0
M  V30 2566 C 231.868 -3.32535 -4.02763 0
M  V30 2567 H 233.562 -2.11237 -2.12177 0
M  V30 2568 H 231.108 -1.01699 -1.01948 0
M  V30 2569 H 233.061 -0.755165 -4.14578 0
M  V30 2570 H 231.785 0.120236 -3.26379 0
M  V30 2571 H 230.444 -2.00346 -3.07013 0
M  V30 2572 H 230.092 -0.462995 -5.00865 0
M  V30 2573 H 229.792 -2.15865 -5.46513 0
M  V30 2574 H 231.316 -1.36334 -5.95185 0
M  V30 2575 H 232.73 -3.26626 -4.71156 0
M  V30 2576 H 231.127 -4.01607 -4.45905 0
M  V30 2577 H 232.197 -3.75326 -3.07016 0
M  V30 2578 N 233.54 1.10788 -1.12088 0
M  V30 2579 C 234.488 2.19111 -0.780587 0
M  V30 2580 C 235.482 1.67818 0.230961 0
M  V30 2581 O 236.688 1.79777 0.0895427 0
M  V30 2582 H 233.063 0.714477 -0.234578 0
M  V30 2583 H 235.034 2.45055 -1.70266 0
M  V30 2584 C 233.783 3.46818 -0.24747 0
M  V30 2585 H 233.106 3.86646 -1.01712 0
M  V30 2586 H 234.546 4.23973 -0.0476291 0
M  V30 2587 C 233.005 3.20968 1.02378 0
M  V30 2588 O 233.535 3.42298 2.10226 0
M  V30 2589 N 231.741 2.74658 0.949271 0
M  V30 2590 H 231.288 2.57501 0.0715173 0
M  V30 2591 H 231.246 2.57739 1.80049 0
M  V30 2592 N 235.018 0.912232 1.28515 0
M  V30 2593 C 235.948 0.416403 2.29757 0
M  V30 2594 C 236.929 -0.515194 1.6211 0
M  V30 2595 O 238.114 -0.423253 1.89532 0
M  V30 2596 C 235.244 -0.34572 3.45575 0
M  V30 2597 C 234.198 0.496599 4.25109 0
M  V30 2598 C 233.524 -0.393771 5.33248 0
M  V30 2599 C 234.824 1.75307 4.92001 0
M  V30 2600 H 236.518 1.26249 2.7148 0
M  V30 2601 H 234.064 0.608515 1.30511 0
M  V30 2602 H 236.017 -0.703422 4.15488 0
M  V30 2603 H 234.741 -1.2257 3.02728 0
M  V30 2604 H 233.4 0.8368 3.56922 0
M  V30 2605 H 233.048 -1.27225 4.86644 0
M  V30 2606 H 232.748 0.166209 5.87365 0
M  V30 2607 H 234.272 -0.747389 6.06009 0
M  V30 2608 H 235.686 1.46437 5.54283 0
M  V30 2609 H 234.083 2.25534 5.56106 0
M  V30 2610 H 235.153 2.48176 4.16577 0
M  V30 2611 N 236.496 -1.42363 0.676048 0
M  V30 2612 C 237.726 -2.05561 0.206967 0
M  V30 2613 C 238.134 -1.50887 -1.14148 0
M  V30 2614 O 237.477 -0.643933 -1.72044 0
M  V30 2615 C 237.539 -3.5944 0.0659508 0
M  V30 2616 C 237.203 -4.36812 1.34331 0
M  V30 2617 C 238.2 -4.67383 2.27704 0
M  V30 2618 C 235.885 -4.76429 1.59125 0
M  V30 2619 C 237.879 -5.36509 3.44147 0
M  V30 2620 C 235.566 -5.45294 2.75857 0
M  V30 2621 C 236.564 -5.75259 3.68193 0
M  V30 2622 O 236.252 -6.42712 4.82883 0
M  V30 2623 H 235.984 -0.668872 0.0979084 0
M  V30 2624 H 238.538 -1.83467 0.923531 0
M  V30 2625 H 236.768 -3.80197 -0.706204 0
M  V30 2626 H 238.457 -4.0427 -0.363418 0
M  V30 2627 H 239.223 -4.37275 2.09799 0
M  V30 2628 H 235.102 -4.52498 0.881258 0
M  V30 2629 H 238.646 -5.59814 4.16238 0
M  V30 2630 H 234.543 -5.7482 2.93688 0
M  V30 2631 H 235.311 -6.61204 4.82444 0
M  V30 2632 N 237.974 -0.419461 -1.51915 0
M  V30 2633 C 238.922 0.415502 -2.28859 0
M  V30 2634 C 239.916 1.03674 -1.3397 0
M  V30 2635 O 241.122 0.973757 -1.51387 0
M  V30 2636 H 237.497 0.152786 -0.736315 0
M  V30 2637 H 239.468 -0.254531 -2.97312 0
M  V30 2638 C 238.217 1.51425 -3.12995 0
M  V30 2639 H 237.54 1.04556 -3.85886 0
M  V30 2640 H 238.98 2.07208 -3.6992 0
M  V30 2641 C 237.439 2.48745 -2.27217 0
M  V30 2642 O 237.969 3.52871 -1.9195 0
M  V30 2643 N 236.175 2.19202 -1.90785 0
M  V30 2644 H 235.722 1.34556 -2.19664 0
M  V30 2645 H 235.68 2.84561 -1.33687 0
M  V30 2646 N 239.452 1.56882 -0.150215 0
M  V30 2647 C 240.362 2.20494 0.801222 0
M  V30 2648 C 241.378 1.19019 1.26927 0
M  V30 2649 O 242.554 1.51607 1.32579 0
M  V30 2650 C 239.619 2.81659 2.02161 0
M  V30 2651 C 238.68 3.9827 1.60249 0
M  V30 2652 C 237.913 4.56508 2.7647 0
M  V30 2653 O 238.136 4.13627 3.92771 0
M  V30 2654 O 237.07 5.46719 2.51757 0
M  V30 2655 H 240.896 3.02315 0.289717 0
M  V30 2656 H 238.481 1.49202 0.0769684 0
M  V30 2657 H 240.363 3.20522 2.73576 0
M  V30 2658 H 239.038 2.02849 2.52258 0
M  V30 2659 H 237.945 3.64117 0.858477 0
M  V30 2660 H 239.278 4.78609 1.14864 0
M  V30 2661 N 240.93 -0.123565 1.57115 0
M  V30 2662 C 241.878 -1.17082 2.00984 0
M  V30 2663 C 242.872 -1.43136 0.906009 0
M  V30 2664 O 244.078 -1.43152 1.09121 0
M  V30 2665 H 240.453 -0.394653 0.64012 0
M  V30 2666 H 242.424 -0.774292 2.88179 0
M  V30 2667 C 241.173 -2.49057 2.42623 0
M  V30 2668 H 240.496 -2.29846 3.27125 0
M  V30 2669 H 241.936 -3.20906 2.7712 0
M  V30 2670 C 240.395 -3.11305 1.28805 0
M  V30 2671 O 240.925 -3.97171 0.60153 0
M  V30 2672 N 239.131 -2.71111 1.04628 0
M  V30 2673 H 238.678 -2.01382 1.60634 0
M  V30 2674 H 238.636 -3.1309 0.286685 0
M  V30 2675 N 242.408 -1.52605 -0.393616 0
M  V30 2676 C 243.819 -1.59417 -0.971761 0
M  V30 2677 C 244.17 -0.444173 -1.91106 0
M  V30 2678 O 243.295 0.433382 -2.12016 0
M  V30 2679 C 243.89 -2.88936 -1.76921 0
M  V30 2680 C 242.449 -2.98175 -2.29714 0
M  V30 2681 C 241.596 -2.54491 -1.10135 0
M  V30 2682 H 244.547 -1.57751 -0.173317 0
M  V30 2683 H 244.568 -2.75163 -2.62804 0
M  V30 2684 H 244.08 -3.72616 -1.08532 0
M  V30 2685 H 242.181 -2.19024 -3.01429 0
M  V30 2686 H 242.294 -4.02726 -2.59517 0
M  V30 2687 H 240.658 -2.08702 -1.45999 0
M  V30 2688 H 241.441 -3.4056 -0.432874 0
M  V30 2689 N 243.887 0.651787 -1.4349 0
M  V30 2690 C 245.164 1.40909 -1.35661 0
M  V30 2691 C 245.544 2.11099 -0.00511733 0
M  V30 2692 O 244.892 2.04892 1.0115 0
M  V30 2693 C 245.102 2.3926 -2.54078 0
M  V30 2694 C 246.45 3.03217 -2.97228 0
M  V30 2695 O 247.474 2.49588 -2.54135 0
M  V30 2696 O 246.333 4.00455 -3.71885 0
M  V30 2697 H 243.427 0.629625 -0.536191 0
M  V30 2698 H 245.973 0.678575 -1.55542 0
M  V30 2699 H 244.745 1.86352 -3.44076 0
M  V30 2700 H 244.368 3.1976 -2.36303 0
M  V30 2701 N 245.365 1.30045 0.890287 0
M  V30 2702 C 246.642 1.09227 1.62262 0
M  V30 2703 C 247.022 -0.360305 2.08002 0
M  V30 2704 O 246.37 -1.35084 1.84295 0
M  V30 2705 C 246.58 2.08835 2.79623 0
M  V30 2706 C 247.928 2.40266 3.50082 0
M  V30 2707 O 248.952 2.07104 2.89804 0
M  V30 2708 O 247.811 2.96967 4.58773 0
M  V30 2709 H 244.905 0.419132 0.712922 0
M  V30 2710 H 247.451 1.41451 0.937529 0
M  V30 2711 H 246.223 3.06633 2.43089 0
M  V30 2712 H 245.846 1.77397 3.55832 0
M  V30 2713 N 246.843 -1.10192 1.12674 0
M  V30 2714 C 248.09 -1.82205 0.883606 0
M  V30 2715 C 248.418 -1.8532 -0.590492 0
M  V30 2716 O 247.673 -1.31137 -1.45264 0
M  V30 2717 C 247.972 -3.28552 1.4067 0
M  V30 2718 C 247.638 -3.45582 2.89627 0
M  V30 2719 C 246.3 -3.49937 3.30299 0
M  V30 2720 C 248.652 -3.50768 3.85501 0
M  V30 2721 C 245.98 -3.57049 4.65546 0
M  V30 2722 C 248.332 -3.59414 5.20581 0
M  V30 2723 C 246.996 -3.62034 5.60792 0
M  V30 2724 H 246.266 -0.666735 0.323334 0
M  V30 2725 H 248.913 -1.29868 1.40736 0
M  V30 2726 H 247.218 -3.83473 0.80347 0
M  V30 2727 H 248.915 -3.82788 1.19475 0
M  V30 2728 H 245.505 -3.42871 2.57172 0
M  V30 2729 H 249.689 -3.46651 3.55171 0
M  V30 2730 H 244.945 -3.57361 4.96088 0
M  V30 2731 H 249.119 -3.62371 5.94693 0
M  V30 2732 H 246.746 -3.67298 6.6558 0
M  V30 2733 N 248.321 -0.919034 -1.28029 0
M  V30 2734 C 249.268 -0.410005 -2.27129 0
M  V30 2735 C 250.238 0.518405 -1.57803 0
M  V30 2736 O 251.423 0.439451 -1.8567 0
M  V30 2737 C 248.563 0.339054 -3.4343 0
M  V30 2738 C 247.676 -0.622468 -4.27492 0
M  V30 2739 C 246.811 0.145567 -5.31001 0
M  V30 2740 C 245.85 -0.809226 -6.06727 0
M  V30 2741 N 244.987 -0.0743728 -7.02061 0
M  V30 2742 H 249.827 -1.26011 -2.70047 0
M  V30 2743 H 247.364 -0.632663 -1.328 0
M  V30 2744 H 249.322 0.789586 -4.0966 0
M  V30 2745 H 247.952 1.15346 -3.01488 0
M  V30 2746 H 247.004 -1.19153 -3.61257 0
M  V30 2747 H 248.316 -1.35252 -4.80113 0
M  V30 2748 H 247.47 0.656417 -6.03139 0
M  V30 2749 H 246.209 0.908643 -4.79161 0
M  V30 2750 H 245.214 -1.3314 -5.33436 0
M  V30 2751 H 246.439 -1.57194 -6.60656 0
M  V30 2752 H 244.385 0.670616 -6.52563 0
M  V30 2753 H 244.302 -0.744157 -7.52329 0
M  V30 2754 H 245.57 0.416109 -7.78389 0
M  V30 2755 N 249.799 1.42003 -0.683588 0
M  V30 2756 C 251.076 1.95112 -0.138075 0
M  V30 2757 C 251.456 1.62359 1.34918 0
M  V30 2758 O 250.804 0.924311 2.08971 0
M  V30 2759 C 251.014 3.46505 -0.416581 0
M  V30 2760 C 252.362 4.23254 -0.337834 0
M  V30 2761 O 253.386 3.54468 -0.35082 0
M  V30 2762 O 252.245 5.45743 -0.287596 0
M  V30 2763 H 249.339 0.826961 -0.00797996 0
M  V30 2764 H 251.885 1.51784 -0.758924 0
M  V30 2765 H 250.657 3.63582 -1.4465 0
M  V30 2766 H 250.28 3.969 0.235839 0
M  V30 2767 N 251.277 0.427512 1.51691 0
M  V30 2768 C 252.554 -0.201684 1.94557 0
M  V30 2769 C 252.934 -1.60981 1.36559 0
M  V30 2770 O 252.282 -2.21814 0.548702 0
M  V30 2771 C 252.492 -0.189394 3.48486 0
M  V30 2772 C 253.84 -0.39978 4.22714 0
M  V30 2773 O 254.864 -0.267945 3.55191 0
M  V30 2774 O 253.723 -0.661249 5.42485 0
M  V30 2775 H 250.817 -0.135261 0.815864 0
M  V30 2776 H 253.363 0.484782 1.62628 0
M  V30 2777 H 252.135 0.795431 3.8313 0
M  V30 2778 H 251.758 -0.919187 3.86829 0
M  V30 2779 N 252.755 -1.56801 0.158532 0
M  V30 2780 C 254.171 -1.5837 -0.197774 0
M  V30 2781 C 254.371 -1.17334 -1.63814 0
M  V30 2782 O 253.427 -0.878988 -2.36707 0
M  V30 2783 C 254.74 -3.00615 0.0714459 0
M  V30 2784 C 256.288 -3.12999 0.00864533 0
M  V30 2785 C 256.763 -4.57313 0.250685 0
M  V30 2786 N 258.254 -4.62777 0.198014 0
M  V30 2787 C 258.989 -5.72271 0.359642 0
M  V30 2788 N 258.485 -6.90371 0.579625 0
M  V30 2789 N 260.278 -5.61318 0.296438 0
M  V30 2790 H 252.429 -1.81765 1.09887 0
M  V30 2791 H 254.692 -0.841849 0.435884 0
M  V30 2792 H 254.398 -3.35068 1.06874 0
M  V30 2793 H 254.272 -3.71683 -0.642757 0
M  V30 2794 H 256.659 -2.7838 -0.979217 0
M  V30 2795 H 256.74 -2.44393 0.755359 0
M  V30 2796 H 256.384 -4.92639 1.2357 0
M  V30 2797 H 256.314 -5.24061 -0.516489 0
M  V30 2798 H 258.805 -3.77885 0.0331115 0
M  V30 2799 H 259.118 -7.69689 0.69275 0
M  V30 2800 H 257.463 -6.92264 0.616087 0
M  V30 2801 H 260.654 -4.67932 0.125258 0
M  V30 2802 H 260.827 -6.46599 0.425831 0
M  V30 2803 N 254.233 0.115231 -1.57178 0
M  V30 2804 C 255.18 1.14115 -2.00615 0
M  V30 2805 C 256.15 1.40939 -0.878941 0
M  V30 2806 O 257.335 1.52741 -1.14345 0
M  V30 2807 C 254.475 2.46156 -2.4187 0
M  V30 2808 C 253.588 2.26236 -3.68024 0
M  V30 2809 C 252.723 3.51534 -3.98243 0
M  V30 2810 C 251.762 3.26787 -5.17568 0
M  V30 2811 N 250.899 4.44298 -5.43639 0
M  V30 2812 H 255.739 0.763743 -2.88047 0
M  V30 2813 H 253.276 0.365615 -1.42484 0
M  V30 2814 H 255.234 3.23189 -2.63827 0
M  V30 2815 H 253.864 2.81783 -1.57475 0
M  V30 2816 H 252.916 1.40102 -3.5366 0
M  V30 2817 H 254.228 2.03929 -4.55208 0
M  V30 2818 H 253.382 4.36984 -4.20868 0
M  V30 2819 H 252.121 3.76876 -3.09541 0
M  V30 2820 H 251.126 2.39729 -4.94783 0
M  V30 2821 H 252.351 3.02812 -6.0785 0
M  V30 2822 H 250.297 4.69754 -4.57895 0
M  V30 2823 H 250.214 4.25109 -6.25154 0
M  V30 2824 H 251.482 5.3087 -5.70786 0
M  V30 2825 N 255.711 1.52812 0.385517 0
M  V30 2826 C 256.658 1.77838 1.47113 0
M  V30 2827 C 257.628 0.621757 1.54024 0
M  V30 2828 O 258.813 0.861846 1.70226 0
M  V30 2829 C 255.953 1.95618 2.84302 0
M  V30 2830 C 255.066 3.23316 2.86515 0
M  V30 2831 C 254.201 3.31394 4.15152 0
M  V30 2832 C 253.24 4.53201 4.1143 0
M  V30 2833 N 252.377 4.58542 5.3168 0
M  V30 2834 H 257.217 2.70482 1.25073 0
M  V30 2835 H 254.754 1.34006 0.606692 0
M  V30 2836 H 256.712 2.03912 3.63972 0
M  V30 2837 H 255.342 1.06331 3.04784 0
M  V30 2838 H 254.394 3.24076 1.99195 0
M  V30 2839 H 255.706 4.13045 2.79634 0
M  V30 2840 H 254.86 3.3889 5.03228 0
M  V30 2841 H 253.599 2.39645 4.24761 0
M  V30 2842 H 252.604 4.45827 3.21742 0
M  V30 2843 H 253.829 5.46271 4.03442 0
M  V30 2844 H 251.775 3.69686 5.41912 0
M  V30 2845 H 251.692 5.42148 5.26889 0
M  V30 2846 H 252.96 4.70296 6.21644 0
M  V30 2847 N 257.189 -0.644168 1.43834 0
M  V30 2848 C 258.466 -1.40188 1.36406 0
M  V30 2849 C 258.846 -2.11094 0.0163124 0
M  V30 2850 O 258.194 -2.05426 -1.00062 0
M  V30 2851 C 258.404 -2.3791 2.55343 0
M  V30 2852 C 259.752 -3.01637 2.98832 0
M  V30 2853 O 260.776 -2.48237 2.55455 0
M  V30 2854 O 259.635 -3.98477 3.74003 0
M  V30 2855 H 256.729 -0.626773 0.539523 0
M  V30 2856 H 259.275 -0.670317 1.559 0
M  V30 2857 H 258.047 -1.84525 3.4506 0
M  V30 2858 H 257.67 -3.18503 2.37995 0
M  V30 2859 N 258.668 -1.30515 -0.883378 0
M  V30 2860 C 259.601 -1.11359 -1.99184 0
M  V30 2861 C 260.579 -0.0207858 -1.62587 0
M  V30 2862 O 261.763 -0.174646 -1.87689 0
M  V30 2863 C 258.89 -0.69871 -3.31415 0
M  V30 2864 C 257.936 -1.79261 -3.86998 0
M  V30 2865 S 258.769 -3.39536 -4.14096 0
M  V30 2866 C 259.925 -2.99954 -5.49344 0
M  V30 2867 H 260.158 -2.052 -2.15128 0
M  V30 2868 H 257.691 -1.14847 -1.03196 0
M  V30 2869 H 259.649 -0.466075 -4.07846 0
M  V30 2870 H 258.31 0.220368 -3.13326 0
M  V30 2871 H 257.503 -1.45464 -4.82552 0
M  V30 2872 H 257.105 -1.97961 -3.17313 0
M  V30 2873 H 259.397 -2.48013 -6.30473 0
M  V30 2874 H 260.34 -3.9442 -5.8808 0
M  V30 2875 H 260.748 -2.37775 -5.1198 0
M  V30 2876 N 260.146 1.09593 -1.13257 0
M  V30 2877 C 261.423 1.78293 -0.804432 0
M  V30 2878 C 261.803 1.99004 0.70431 0
M  V30 2879 O 261.151 1.59007 1.641 0
M  V30 2880 C 261.361 3.10707 -1.5894 0
M  V30 2881 C 262.709 3.85443 -1.78099 0
M  V30 2882 O 263.733 3.20454 -1.55525 0
M  V30 2883 O 262.592 5.02108 -2.15753 0
M  V30 2884 H 259.686 0.773156 -0.293528 0
M  V30 2885 H 262.232 1.16164 -1.23709 0
M  V30 2886 H 261.004 2.91106 -2.61482 0
M  V30 2887 H 260.627 3.80558 -1.15157 0
M  V30 2888 N 261.624 0.925811 1.2754 0
M  V30 2889 C 262.901 0.483726 1.89524 0
M  V30 2890 C 263.281 -1.03809 1.83812 0
M  V30 2891 O 262.629 -1.89143 1.28207 0
M  V30 2892 C 262.839 1.02769 3.33526 0
M  V30 2893 C 264.187 1.08703 4.10449 0
M  V30 2894 O 265.211 0.977175 3.42534 0
M  V30 2895 O 264.07 1.25599 5.31871 0
M  V30 2896 H 261.164 0.15529 0.812289 0
M  V30 2897 H 263.71 1.01738 1.35822 0
M  V30 2898 H 262.482 2.07155 3.31967 0
M  V30 2899 H 262.105 0.475567 3.94746 0
M  V30 2900 N 263.102 -1.41638 0.69111 0
M  V30 2901 C 264.379 -1.95036 0.148421 0
M  V30 2902 C 264.759 -1.63072 -1.34055 0
M  V30 2903 O 264.107 -0.93538 -2.08478 0
M  V30 2904 C 264.317 -3.46279 0.434951 0
M  V30 2905 C 265.665 -4.23069 0.360275 0
M  V30 2906 O 266.689 -3.54277 0.369613 0
M  V30 2907 O 265.548 -5.45583 0.316534 0
M  V30 2908 H 262.642 -0.826908 0.0123654 0
M  V30 2909 H 265.188 -1.5138 0.766963 0
M  V30 2910 H 263.96 -3.6281 1.46576 0
M  V30 2911 H 263.583 -3.97019 -0.214787 0
M  V30 2912 N 264.58 -0.43555 -1.51462 0
M  V30 2913 C 265.49 0.383001 -2.31453 0
M  V30 2914 C 266.506 1.02931 -1.4029 0
M  V30 2915 O 267.682 1.02507 -1.73362 0
M  V30 2916 C 264.747 1.47043 -3.13973 0
M  V30 2917 C 263.808 0.844433 -4.20913 0
M  V30 2918 C 263.041 1.88004 -4.9949 0
M  V30 2919 O 263.264 3.10199 -4.78678 0
M  V30 2920 O 262.198 1.47157 -5.83634 0
M  V30 2921 H 266.024 -0.269964 -3.02498 0
M  V30 2922 H 263.609 -0.19813 -1.4808 0
M  V30 2923 H 265.491 2.10113 -3.65281 0
M  V30 2924 H 264.166 2.10751 -2.45695 0
M  V30 2925 H 263.073 0.175729 -3.73687 0
M  V30 2926 H 264.406 0.250869 -4.9156 0
M  V30 2927 N 266.058 1.56714 -0.166846 0
M  V30 2928 C 267.335 1.88412 0.525373 0
M  V30 2929 C 267.715 1.07602 1.81618 0
M  V30 2930 O 267.063 0.168621 2.27877 0
M  V30 2931 C 267.273 3.40363 0.771613 0
M  V30 2932 C 268.621 4.10007 1.1036 0
M  V30 2933 O 269.645 3.45655 0.860304 0
M  V30 2934 O 268.504 5.2369 1.56239 0
M  V30 2935 H 265.598 0.781587 0.270278 0
M  V30 2936 H 268.144 1.68458 -0.204946 0
M  V30 2937 H 266.916 3.91046 -0.141093 0
M  V30 2938 H 266.539 3.65914 1.55541 0
M  V30 2939 N 267.536 -0.106894 1.57237 0
M  V30 2940 C 268.813 -0.843526 1.76477 0
M  V30 2941 C 269.193 -1.97499 0.745464 0
M  V30 2942 O 268.541 -2.27357 -0.228306 0
M  V30 2943 C 268.751 -1.34903 3.21873 0
M  V30 2944 C 270.099 -1.79654 3.8472 0
M  V30 2945 O 271.123 -1.44554 3.2555 0
M  V30 2946 O 269.982 -2.44515 4.88748 0
M  V30 2947 H 267.076 -0.401468 0.723016 0
M  V30 2948 H 269.622 -0.0896927 1.69463 0
M  V30 2949 H 268.394 -0.53781 3.87586 0
M  V30 2950 H 268.017 -2.16522 3.33473 0
M  V30 2951 N 269.014 -1.53014 -0.377408 0
M  V30 2952 C 269.924 -1.81557 -1.48574 0
M  V30 2953 C 270.94 -0.703102 -1.59162 0
M  V30 2954 O 272.116 -0.99192 -1.75279 0
M  V30 2955 C 269.181 -1.9889 -2.83978 0
M  V30 2956 C 268.242 -3.22801 -2.83016 0
M  V30 2957 C 267.475 -3.39298 -4.11962 0
M  V30 2958 O 267.698 -2.60345 -5.0752 0
M  V30 2959 O 266.632 -4.32604 -4.18494 0
M  V30 2960 H 270.458 -2.75695 -1.27382 0
M  V30 2961 H 268.043 -1.38248 -0.566373 0
M  V30 2962 H 269.925 -2.11931 -3.6423 0
M  V30 2963 H 268.6 -1.07942 -3.05172 0
M  V30 2964 H 267.507 -3.15193 -2.01505 0
M  V30 2965 H 268.84 -4.13632 -2.66775 0
M  V30 2966 N 270.492 0.636531 -1.44174 0
M  V30 2967 C 271.769 1.39463 -1.37148 0
M  V30 2968 C 272.149 2.11082 -0.027507 0
M  V30 2969 O 271.497 2.05954 0.989716 0
M  V30 2970 C 271.707 2.36552 -2.56601 0
M  V30 2971 C 273.055 3.00048 -3.00427 0
M  V30 2972 O 274.079 2.46878 -2.56767 0
M  V30 2973 O 272.938 3.96488 -3.76111 0
M  V30 2974 H 270.032 0.623903 -0.542839 0
M  V30 2975 H 272.578 0.662039 -1.56253 0
M  V30 2976 H 271.35 1.82692 -3.46034 0
M  V30 2977 H 270.973 3.17236 -2.39681 0
M  V30 2978 N 271.97 1.30982 0.876444 0
M  V30 2979 C 272.918 1.18006 2.00443 0
M  V30 2980 C 273.912 0.0898871 1.69161 0
M  V30 2981 O 275.118 0.251333 1.78237 0
M  V30 2982 H 271.493 0.365196 0.65737 0
M  V30 2983 H 273.464 2.13453 2.0852 0
M  V30 2984 C 272.213 0.897521 3.35916 0
M  V30 2985 H 271.536 1.7285 3.60504 0
M  V30 2986 H 272.976 0.846874 4.15456 0
M  V30 2987 C 271.435 -0.399674 3.34521 0
M  V30 2988 O 271.965 -1.41852 3.7582 0
M  V30 2989 N 270.171 -0.413893 2.87637 0
M  V30 2990 H 269.718 0.41571 2.54224 0
M  V30 2991 H 269.676 -1.28175 2.87086 0
M  V30 2992 N 273.449 -1.08991 1.13837 0
M  V30 2993 C 274.359 -2.19301 0.833333 0
M  V30 2994 C 275.375 -1.73026 -0.183847 0
M  V30 2995 O 276.551 -2.01395 -0.0138092 0
M  V30 2996 C 273.616 -3.45323 0.308651 0
M  V30 2997 C 272.677 -4.06255 1.38764 0
M  V30 2998 C 271.91 -5.26262 0.887896 0
M  V30 2999 O 272.133 -5.69747 -0.27287 0
M  V30 3000 O 271.067 -5.78435 1.66421 0
M  V30 3001 H 274.893 -2.47854 1.75506 0
M  V30 3002 H 272.478 -1.18012 0.916166 0
M  V30 3003 H 274.36 -4.21394 0.0216739 0
M  V30 3004 H 273.035 -3.18362 -0.585431 0
M  V30 3005 H 271.942 -3.318 1.72799 0
M  V30 3006 H 273.275 -4.37452 2.25602 0
M  V30 3007 N 274.927 -0.932562 -1.27047 0
M  V30 3008 C 275.837 -0.441219 -2.30414 0
M  V30 3009 C 276.853 0.480525 -1.67233 0
M  V30 3010 O 278.029 0.362151 -1.98117 0
M  V30 3011 C 275.094 0.293651 -3.45454 0
M  V30 3012 C 274.155 -0.663601 -4.2414 0
M  V30 3013 C 273.388 0.0362932 -5.33688 0
M  V30 3014 O 273.611 1.2548 -5.56427 0
M  V30 3015 O 272.545 -0.638015 -5.98509 0
M  V30 3016 H 276.371 -1.29962 -2.74488 0
M  V30 3017 H 273.956 -0.6981 -1.32087 0
M  V30 3018 H 275.838 0.707951 -4.15411 0
M  V30 3019 H 274.513 1.12758 -3.03426 0
M  V30 3020 H 273.42 -1.12768 -3.56699 0
M  V30 3021 H 274.753 -1.46489 -4.69896 0
M  V30 3022 N 276.405 1.4127 -0.698611 0
M  V30 3023 C 277.682 1.94955 -0.158762 0
M  V30 3024 C 278.062 1.63781 1.33188 0
M  V30 3025 O 277.41 0.946423 2.07979 0
M  V30 3026 C 277.62 3.46044 -0.453309 0
M  V30 3027 C 278.968 4.22872 -0.382707 0
M  V30 3028 O 279.992 3.54076 -0.388396 0
M  V30 3029 O 278.851 5.45407 -0.345463 0
M  V30 3030 H 275.945 0.82683 -0.0167505 0
M  V30 3031 H 278.491 1.50971 -0.77498 0
M  V30 3032 H 277.263 3.62028 -1.48498 0
M  V30 3033 H 276.886 3.97128 0.19373 0
M  V30 3034 N 277.883 0.443576 1.51229 0
M  V30 3035 C 279.16 -0.181038 1.9476 0
M  V30 3036 C 279.54 -1.59523 1.38259 0
M  V30 3037 O 278.888 -2.2122 0.572198 0
M  V30 3038 C 279.098 -0.152422 3.48667 0
M  V30 3039 C 280.446 -0.354923 4.23114 0
M  V30 3040 O 281.47 -0.230257 3.55455 0
M  V30 3041 O 280.329 -0.603674 5.43156 0
M  V30 3042 H 277.423 -0.1266 0.817252 0
M  V30 3043 H 279.969 0.502004 1.62105 0
M  V30 3044 H 278.741 0.836022 3.82265 0
M  V30 3045 H 278.364 -0.878107 3.87782 0
M  V30 3046 N 279.361 -1.56624 0.175154 0
M  V30 3047 C 280.271 -2.21741 -0.766042 0
M  V30 3048 C 281.287 -1.21023 -1.25018 0
M  V30 3049 O 282.463 -1.53697 -1.3015 0
M  V30 3050 C 279.528 -2.84839 -1.97655 0
M  V30 3051 C 278.589 -4.00769 -1.53892 0
M  V30 3052 C 277.822 -4.60849 -2.69173 0
M  V30 3053 O 278.045 -4.19823 -3.86141 0
M  V30 3054 O 276.979 -5.50655 -2.43028 0
M  V30 3055 H 280.805 -3.02738 -0.241585 0
M  V30 3056 H 278.39 -1.49305 -0.053222 0
M  V30 3057 H 280.272 -3.24834 -2.68442 0
M  V30 3058 H 278.947 -2.06836 -2.48999 0
M  V30 3059 H 277.854 -3.65436 -0.80044 0
M  V30 3060 H 279.187 -4.80376 -1.07236 0
M  V30 3061 N 280.839 0.0985539 -1.57292 0
M  V30 3062 C 281.749 1.13824 -2.05137 0
M  V30 3063 C 282.765 1.44076 -0.975604 0
M  V30 3064 O 283.941 1.54786 -1.28853 0
M  V30 3065 C 281.006 2.43969 -2.46333 0
M  V30 3066 C 280.067 2.2093 -3.68087 0
M  V30 3067 C 279.3 3.44869 -4.0731 0
M  V30 3068 O 279.523 4.52972 -3.46659 0
M  V30 3069 O 278.457 3.34661 -5.00285 0
M  V30 3070 H 282.283 0.761881 -2.93988 0
M  V30 3071 H 279.868 0.310818 -1.46131 0
M  V30 3072 H 281.75 3.20609 -2.73473 0
M  V30 3073 H 280.425 2.81038 -1.60621 0
M  V30 3074 H 279.332 1.42081 -3.46069 0
M  V30 3075 H 280.665 1.88755 -4.54568 0
M  V30 3076 N 282.317 1.53212 0.369288 0
M  V30 3077 C 283.227 1.82342 1.47609 0
M  V30 3078 C 284.243 0.711532 1.58787 0
M  V30 3079 O 285.419 1.0012 1.74751 0
M  V30 3080 C 282.484 2.00393 2.8292 0
M  V30 3081 C 281.545 3.24297 2.81301 0
M  V30 3082 C 280.778 3.41478 4.10157 0
M  V30 3083 O 281.001 2.63033 5.06132 0
M  V30 3084 O 279.935 4.34817 4.16194 0
M  V30 3085 H 283.761 2.76366 1.25918 0
M  V30 3086 H 281.346 1.38547 0.559034 0
M  V30 3087 H 283.228 2.13859 3.63101 0
M  V30 3088 H 281.903 1.09559 3.04596 0
M  V30 3089 H 280.81 3.16257 1.99831 0
M  V30 3090 H 282.143 4.15041 2.64578 0
M  V30 3091 N 283.795 -0.628877 1.44509 0
M  V30 3092 C 284.705 -1.7694 1.54044 0
M  V30 3093 C 285.721 -1.68705 0.425987 0
M  V30 3094 O 286.897 -1.89442 0.683656 0
M  V30 3095 C 283.962 -3.13332 1.48405 0
M  V30 3096 C 283.023 -3.33181 2.70719 0
M  V30 3097 C 282.256 -4.63067 2.6534 0
M  V30 3098 O 282.479 -5.44017 1.71469 0
M  V30 3099 O 281.413 -4.85167 3.56226 0
M  V30 3100 H 285.239 -1.71848 2.50403 0
M  V30 3101 H 282.824 -0.790378 1.26781 0
M  V30 3102 H 284.706 -3.94634 1.47791 0
M  V30 3103 H 283.381 -3.1896 0.551898 0
M  V30 3104 H 282.288 -2.51549 2.769 0
M  V30 3105 H 283.621 -3.32416 3.62988 0
M  V30 3106 N 285.273 -1.31445 -0.869486 0
M  V30 3107 C 286.183 -1.21097 -2.0093 0
M  V30 3108 C 287.199 -0.127584 -1.73532 0
M  V30 3109 O 288.375 -0.345477 -1.98415 0
M  V30 3110 C 285.44 -0.919378 -3.34288 0
M  V30 3111 C 284.501 -2.08971 -3.75006 0
M  V30 3112 C 283.734 -1.81194 -5.02001 0
M  V30 3113 O 283.957 -0.747296 -5.65484 0
M  V30 3114 O 282.891 -2.66883 -5.39497 0
M  V30 3115 H 286.717 -2.16883 -2.12592 0
M  V30 3116 H 284.302 -1.11189 -0.997868 0
M  V30 3117 H 286.184 -0.772625 -4.14257 0
M  V30 3118 H 284.859 0.00844772 -3.23699 0
M  V30 3119 H 283.766 -2.29187 -2.95676 0
M  V30 3120 H 285.099 -2.9998 -3.90221 0
M  V30 3121 N 286.751 1.08385 -1.14413 0
M  V30 3122 C 288.028 1.77429 -0.823297 0
M  V30 3123 C 288.408 1.9974 0.683163 0
M  V30 3124 O 287.756 1.60739 1.62405 0
M  V30 3125 C 287.966 3.09004 -1.62227 0
M  V30 3126 C 289.314 3.83532 -1.82177 0
M  V30 3127 O 290.338 3.18786 -1.58915 0
M  V30 3128 O 289.197 4.99792 -2.21067 0
M  V30 3129 H 286.291 0.769999 -0.301712 0
M  V30 3130 H 288.837 1.14846 -1.24934 0
M  V30 3131 H 287.609 2.88316 -2.64555 0
M  V30 3132 H 287.232 3.79316 -1.19187 0
M  V30 3133 N 288.23 0.939286 1.26551 0
M  V30 3134 C 289.14 0.453432 2.30176 0
M  V30 3135 C 290.156 -0.471649 1.67486 0
M  V30 3136 O 291.332 -0.35164 1.98306 0
M  V30 3137 C 288.397 -0.275326 3.45605 0
M  V30 3138 C 287.458 0.686084 4.23782 0
M  V30 3139 C 286.691 -0.00798994 5.33699 0
M  V30 3140 O 286.914 -1.22528 5.57085 0
M  V30 3141 O 285.848 0.669746 5.98162 0
M  V30 3142 H 289.674 1.31416 2.73795 0
M  V30 3143 H 287.259 0.705095 1.31715 0
M  V30 3144 H 289.141 -0.685911 4.1578 0
M  V30 3145 H 287.816 -1.11147 3.0402 0
M  V30 3146 H 286.723 1.14658 3.56096 0
M  V30 3147 H 288.056 1.48979 4.69112 0
M  V30 3148 N 289.708 -1.40897 0.706093 0
M  V30 3149 C 290.618 -2.3455 0.0482286 0
M  V30 3150 C 291.634 -1.56796 -0.754396 0
M  V30 3151 O 292.81 -1.89228 -0.689538 0
M  V30 3152 C 289.875 -3.35625 -0.869303 0
M  V30 3153 C 288.936 -4.29261 -0.0576994 0
M  V30 3154 C 288.169 -5.25508 -0.931531 0
M  V30 3155 O 288.392 -5.27472 -2.17092 0
M  V30 3156 O 287.326 -6.00727 -0.375587 0
M  V30 3157 H 291.152 -2.92407 0.820476 0
M  V30 3158 H 288.737 -1.4193 0.4665 0
M  V30 3159 H 290.619 -3.97635 -1.39514 0
M  V30 3160 H 289.294 -2.80196 -1.62086 0
M  V30 3161 H 288.201 -3.70566 0.512988 0
M  V30 3162 H 289.534 -4.87817 0.655426 0
M  V30 3163 N 291.186 -0.45159 -1.50991 0
M  V30 3164 C 292.096 0.358431 -2.31846 0
M  V30 3165 C 293.112 1.01438 -1.41373 0
M  V30 3166 O 294.288 1.00663 -1.74439 0
M  V30 3167 C 291.353 1.43704 -3.15515 0
M  V30 3168 C 290.414 0.799742 -4.21785 0
M  V30 3169 C 289.647 1.82696 -5.01456 0
M  V30 3170 O 289.87 3.05105 -4.81941 0
M  V30 3171 O 288.804 1.40958 -5.85162 0
M  V30 3172 H 292.63 -0.302032 -3.02194 0
M  V30 3173 H 290.215 -0.213825 -1.47862 0
M  V30 3174 H 292.097 2.06227 -3.67489 0
M  V30 3175 H 290.772 2.08133 -2.47916 0
M  V30 3176 H 289.679 0.136084 -3.73852 0
M  V30 3177 H 291.012 0.198718 -4.91799 0
M  V30 3178 N 292.664 1.56529 -0.183458 0
M  V30 3179 C 293.596 2.15747 0.773697 0
M  V30 3180 C 294.609 1.1162 1.1851 0
M  V30 3181 O 295.798 1.3876 1.12285 0
M  V30 3182 C 292.898 2.6952 2.05456 0
M  V30 3183 C 292.071 3.98429 1.8048 0
M  V30 3184 C 291.13 4.37145 2.92901 0
M  V30 3185 O 290.156 5.04791 2.6301 0
M  V30 3186 N 291.358 3.99695 4.2098 0
M  V30 3187 H 294.123 2.98505 0.26736 0
M  V30 3188 H 291.684 1.619 -0.0010878 0
M  V30 3189 H 293.676 2.92412 2.79781 0
M  V30 3190 H 292.246 1.91282 2.47245 0
M  V30 3191 H 291.466 3.8379 0.899947 0
M  V30 3192 H 292.754 4.82597 1.61175 0
M  V30 3193 H 292.152 3.4526 4.48121 0
M  V30 3194 H 290.709 4.27562 4.9197 0
M  V30 3195 N 294.142 -0.090211 1.57342 0
M  V30 3196 C 295.052 -1.12735 2.05738 0
M  V30 3197 C 296.068 -1.43557 0.983231 0
M  V30 3198 O 297.244 -1.54101 1.29672 0
M  V30 3199 C 294.309 -2.42659 2.47624 0
M  V30 3200 C 293.37 -2.18975 3.69254 0
M  V30 3201 C 292.603 -3.42704 4.09133 0
M  V30 3202 O 292.826 -4.51127 3.49057 0
M  V30 3203 O 291.76 -3.32003 5.02053 0
M  V30 3204 H 295.586 -0.746279 2.94388 0
M  V30 3205 H 293.171 -0.303064 1.46294 0
M  V30 3206 H 295.053 -3.19155 2.7517 0
M  V30 3207 H 293.728 -2.80182 1.62109 0
M  V30 3208 H 292.635 -1.40244 3.46818 0
M  V30 3209 H 293.968 -1.86342 4.55563 0
M  V30 3210 N 295.62 -1.53406 -0.361157 0
M  V30 3211 C 296.897 -1.60411 -1.11927 0
M  V30 3212 C 297.277 -0.414385 -2.06993 0
M  V30 3213 O 296.625 0.594976 -2.20618 0
M  V30 3214 C 296.835 -2.95652 -1.85448 0
M  V30 3215 C 298.183 -3.50386 -2.39823 0
M  V30 3216 O 299.207 -2.97711 -1.95568 0
M  V30 3217 O 298.066 -4.42482 -3.20737 0
M  V30 3218 H 295.16 -0.64811 -0.513695 0
M  V30 3219 H 297.706 -1.65749 -0.364065 0
M  V30 3220 H 296.478 -3.73682 -1.16091 0
M  V30 3221 H 296.101 -2.93825 -2.67866 0
M  V30 3222 N 297.098 0.621204 -1.44841 0
M  V30 3223 C 298.03 1.74615 -1.48466 0
M  V30 3224 C 299.043 1.58377 -0.37691 0
M  V30 3225 O 300.232 1.66508 -0.643215 0
M  V30 3226 C 297.332 3.12459 -1.31236 0
M  V30 3227 C 296.505 3.55064 -2.55438 0
M  V30 3228 C 295.564 4.71821 -2.32963 0
M  V30 3229 O 294.59 4.79628 -3.06505 0
M  V30 3230 N 295.792 5.64186 -1.36654 0
M  V30 3231 H 298.557 1.71973 -2.45449 0
M  V30 3232 H 296.118 0.806077 -1.40407 0
M  V30 3233 H 298.11 3.88302 -1.14032 0
M  V30 3234 H 296.68 3.09686 -0.4258 0
M  V30 3235 H 295.9 2.69324 -2.87851 0
M  V30 3236 H 297.188 3.80284 -3.38026 0
M  V30 3237 H 296.586 5.6058 -0.759344 0
M  V30 3238 H 295.143 6.39618 -1.25425 0
M  V30 3239 N 298.576 1.31904 0.862503 0
M  V30 3240 C 299.853 1.12644 1.59908 0
M  V30 3241 C 300.233 -0.316104 2.0872 0
M  V30 3242 O 299.581 -1.31145 1.87118 0
M  V30 3243 C 299.791 2.1472 2.7513 0
M  V30 3244 C 301.139 2.47637 3.44907 0
M  V30 3245 O 302.163 2.13205 2.85346 0
M  V30 3246 O 301.022 3.06632 4.52371 0
M  V30 3247 H 298.116 0.43416 0.703871 0
M  V30 3248 H 300.662 1.43408 0.907314 0
M  V30 3249 H 299.434 3.1172 2.3653 0
M  V30 3250 H 299.057 1.84905 3.51989 0
M  V30 3251 N 300.054 -1.07777 1.14986 0
M  V30 3252 C 301.331 -1.7699 0.832695 0
M  V30 3253 C 301.711 -2.001 -0.672561 0
M  V30 3254 O 301.059 -1.61598 -1.6155 0
M  V30 3255 C 301.269 -3.08139 1.63863 0
M  V30 3256 C 302.617 -3.8256 1.84208 0
M  V30 3257 O 303.641 -3.17939 1.60603 0
M  V30 3258 O 302.5 -4.98612 2.23714 0
M  V30 3259 H 299.594 -0.768389 0.305791 0
M  V30 3260 H 302.14 -1.14182 1.25541 0
M  V30 3261 H 300.912 -2.86909 2.6608 0
M  V30 3262 H 300.535 -3.78678 1.21197 0
M  V30 3263 N 301.532 -0.945985 -1.26051 0
M  V30 3264 C 302.809 -0.513816 -1.88731 0
M  V30 3265 C 303.189 1.00872 -1.8544 0
M  V30 3266 O 302.537 1.8708 -1.312 0
M  V30 3267 C 302.747 -1.08062 -3.31849 0
M  V30 3268 C 304.095 -1.1522 -4.08668 0
M  V30 3269 O 305.119 -1.03155 -3.40936 0
M  V30 3270 O 303.978 -1.34044 -5.29806 0
M  V30 3271 H 301.072 -0.168193 -0.809716 0
M  V30 3272 H 303.618 -1.03886 -1.34186 0
M  V30 3273 H 302.39 -2.1241 -3.2863 0
M  V30 3274 H 302.013 -0.538307 -3.93939 0
M  V30 3275 N 303.011 1.40521 -0.713556 0
M  V30 3276 C 303.959 2.32549 -0.0485227 0
M  V30 3277 C 304.953 1.51931 0.74922 0
M  V30 3278 O 306.159 1.67745 0.652816 0
M  V30 3279 H 302.534 0.751994 0.00311138 0
M  V30 3280 H 304.505 2.86291 -0.841443 0
M  V30 3281 C 303.254 3.36879 0.860687 0
M  V30 3282 H 302.577 3.98978 0.256246 0
M  V30 3283 H 304.017 4.03772 1.294 0
M  V30 3284 C 302.476 2.72197 1.9852 0
M  V30 3285 O 303.006 2.5837 3.07584 0
M  V30 3286 N 301.212 2.30612 1.76823 0
M  V30 3287 H 300.759 2.42059 0.881217 0
M  V30 3288 H 300.717 1.87672 2.52243 0
M  V30 3289 N 304.489 0.459591 1.5075 0
M  V30 3290 C 305.399 -0.34613 2.32033 0
M  V30 3291 C 306.415 -1.00686 1.41909 0
M  V30 3292 O 307.591 -0.997361 1.7497 0
M  V30 3293 C 304.656 -1.42029 3.16273 0
M  V30 3294 C 303.717 -0.777362 4.22203 0
M  V30 3295 C 302.95 -1.80034 5.02418 0
M  V30 3296 O 303.173 -3.02544 4.83553 0
M  V30 3297 O 302.107 -1.37853 5.85901 0
M  V30 3298 H 305.933 0.318054 3.0203 0
M  V30 3299 H 303.518 0.221663 1.47746 0
M  V30 3300 H 305.4 -2.04275 3.68578 0
M  V30 3301 H 304.075 -2.06815 2.49016 0
M  V30 3302 H 302.982 -0.116256 3.73919 0
M  V30 3303 H 304.315 -0.172634 4.91897 0
M  V30 3304 N 305.967 -1.56429 0.191757 0
M  V30 3305 C 307.244 -1.89224 -0.495332 0
M  V30 3306 C 307.624 -1.10478 -1.79883 0
M  V30 3307 O 306.972 -0.204852 -2.2758 0
M  V30 3308 C 307.182 -3.41548 -0.717367 0
M  V30 3309 C 308.53 -4.11711 -1.03823 0
M  V30 3310 O 309.554 -3.4698 -0.805204 0
M  V30 3311 O 308.413 -5.2611 -1.47887 0
M  V30 3312 H 305.507 -0.785788 -0.25781 0
M  V30 3313 H 308.053 -1.68111 0.231721 0
M  V30 3314 H 306.825 -3.90772 0.203287 0
M  V30 3315 H 306.448 -3.68342 -1.497 0
M  V30 3316 N 307.445 0.0818655 -1.57387 0
M  V30 3317 C 308.355 1.11642 -2.06333 0
M  V30 3318 C 309.371 1.43033 -0.99083 0
M  V30 3319 O 310.547 1.53411 -1.30488 0
M  V30 3320 C 307.612 2.41342 -2.48907 0
M  V30 3321 C 306.673 2.17014 -3.7041 0
M  V30 3322 C 305.906 3.4053 -4.10944 0
M  V30 3323 O 306.129 4.4927 -3.51444 0
M  V30 3324 O 305.063 3.29336 -5.03807 0
M  V30 3325 H 308.889 0.730657 -2.9478 0
M  V30 3326 H 306.474 0.295301 -1.46452 0
M  V30 3327 H 308.356 3.17691 -2.76858 0
M  V30 3328 H 307.031 2.79319 -1.63593 0
M  V30 3329 H 305.938 1.38403 -3.47556 0
M  V30 3330 H 307.271 1.83923 -4.56545 0
M  V30 3331 N 308.923 1.53595 0.353017 0
M  V30 3332 C 309.87 1.80919 1.43308 0
M  V30 3333 C 310.84 0.654288 1.5267 0
M  V30 3334 O 312.025 0.897759 1.6836 0
M  V30 3335 C 309.165 2.01605 2.80089 0
M  V30 3336 C 308.278 3.29321 2.79593 0
M  V30 3337 C 307.413 3.40125 4.0803 0
M  V30 3338 C 306.452 4.61826 4.01725 0
M  V30 3339 N 305.589 4.69716 5.21834 0
M  V30 3340 H 310.429 2.73074 1.19308 0
M  V30 3341 H 307.966 1.35263 0.578131 0
M  V30 3342 H 309.924 2.11586 3.59565 0
M  V30 3343 H 308.554 1.12772 3.0246 0
M  V30 3344 H 307.606 3.28229 1.92276 0
M  V30 3345 H 308.918 4.18884 2.70809 0
M  V30 3346 H 308.072 3.49488 4.95927 0
M  V30 3347 H 306.811 2.48601 4.19582 0
M  V30 3348 H 305.816 4.52552 3.12213 0
M  V30 3349 H 307.041 5.54705 3.91764 0
M  V30 3350 H 304.987 3.81097 5.33948 0
M  V30 3351 H 304.904 5.53202 5.1527 0
M  V30 3352 H 306.172 4.83376 6.11529 0
M  V30 3353 N 310.401 -0.613514 1.45168 0
M  V30 3354 C 311.678 -1.37263 1.39349 0
M  V30 3355 C 312.058 -2.11012 0.0610848 0
M  V30 3356 O 311.406 -2.07502 -0.956825 0
M  V30 3357 C 311.616 -2.3244 2.60332 0
M  V30 3358 C 312.964 -2.9523 3.05163 0
M  V30 3359 O 313.988 -2.42762 2.60663 0
M  V30 3360 O 312.847 -3.90454 3.82372 0
M  V30 3361 H 309.941 -0.615188 0.552696 0
M  V30 3362 H 312.487 -0.637097 1.57287 0
M  V30 3363 H 311.259 -1.77164 3.48896 0
M  V30 3364 H 310.882 -3.13383 2.44698 0
M  V30 3365 N 311.879 -1.3236 -0.855495 0
M  V30 3366 C 312.811 -1.17052 -1.97057 0
M  V30 3367 C 313.824 -0.10574 -1.62456 0
M  V30 3368 O 315.013 -0.354619 -1.74942 0
M  V30 3369 C 312.113 -0.769305 -3.30053 0
M  V30 3370 C 311.286 -1.9222 -3.929 0
M  V30 3371 C 310.345 -1.50466 -5.04228 0
M  V30 3372 O 309.371 -2.21655 -5.24269 0
M  V30 3373 N 310.573 -0.400209 -5.79119 0
M  V30 3374 H 313.338 -2.13103 -2.1073 0
M  V30 3375 H 310.899 -1.24885 -1.0303 0
M  V30 3376 H 312.891 -0.472407 -4.01933 0
M  V30 3377 H 311.461 0.100025 -3.1244 0
M  V30 3378 H 310.681 -2.38563 -3.13817 0
M  V30 3379 H 311.969 -2.69403 -4.31624 0
M  V30 3380 H 311.367 0.192319 -5.65373 0
M  V30 3381 H 309.924 -0.162912 -6.51596 0
M  V30 3382 N 313.357 1.07166 -1.15556 0
M  V30 3383 C 314.634 1.76546 -0.842069 0
M  V30 3384 C 315.014 2.00453 0.661939 0
M  V30 3385 O 314.362 1.62452 1.60691 0
M  V30 3386 C 314.572 3.07266 -1.65495 0
M  V30 3387 C 315.92 3.81578 -1.86234 0
M  V30 3388 O 316.944 3.17083 -1.62287 0
M  V30 3389 O 315.803 4.97419 -2.26355 0
M  V30 3390 H 312.897 0.766756 -0.309862 0
M  V30 3391 H 315.443 1.13514 -1.26145 0
M  V30 3392 H 314.215 2.85494 -2.67598 0
M  V30 3393 H 313.838 3.7803 -1.23203 0
M  V30 3394 N 314.835 0.952656 1.25548 0
M  V30 3395 C 316.112 0.523818 1.88456 0
M  V30 3396 C 316.492 -0.998871 1.85973 0
M  V30 3397 O 315.84 -1.86381 1.3219 0
M  V30 3398 C 316.05 1.0982 3.31271 0
M  V30 3399 C 317.398 1.17385 4.08051 0
M  V30 3400 O 318.422 1.04961 3.40384 0
M  V30 3401 O 317.281 1.36852 5.29088 0
M  V30 3402 H 314.375 0.172485 0.808813 0
M  V30 3403 H 316.921 1.04596 1.33633 0
M  V30 3404 H 315.693 2.1415 3.27499 0
M  V30 3405 H 315.316 0.559191 3.93648 0
M  V30 3406 N 316.313 -1.40141 0.720998 0
M  V30 3407 C 317.59 -1.94677 0.189757 0
M  V30 3408 C 317.97 -1.65879 -1.30566 0
M  V30 3409 O 317.318 -0.979391 -2.06447 0
M  V30 3410 C 317.528 -3.45279 0.508304 0
M  V30 3411 C 318.876 -4.22209 0.449934 0
M  V30 3412 O 319.9 -3.53413 0.444677 0
M  V30 3413 O 318.759 -5.44788 0.432189 0
M  V30 3414 H 315.853 -0.826459 0.0299026 0
M  V30 3415 H 318.399 -1.49719 0.7989 0
M  V30 3416 H 317.171 -3.59619 1.54239 0
M  V30 3417 H 316.794 -3.97386 -0.130525 0
M  V30 3418 N 317.792 -0.46758 -1.50504 0
M  V30 3419 C 318.702 0.33382 -2.32213 0
M  V30 3420 C 319.718 0.999323 -1.42441 0
M  V30 3421 O 320.894 0.988068 -1.75497 0
M  V30 3422 C 317.959 1.4035 -3.17022 0
M  V30 3423 C 317.02 0.754961 -4.2261 0
M  V30 3424 C 316.253 1.77367 -5.03365 0
M  V30 3425 O 316.476 2.99976 -4.8515 0
M  V30 3426 O 315.41 1.34744 -5.86624 0
M  V30 3427 H 319.236 -0.334067 -3.01857 0
M  V30 3428 H 316.821 -0.229496 -1.47627 0
M  V30 3429 H 318.703 2.02318 -3.69656 0
M  V30 3430 H 317.378 2.05492 -2.5011 0
M  V30 3431 H 316.285 0.0964244 -3.73976 0
M  V30 3432 H 317.618 0.146545 -4.91982 0
M  V30 3433 N 319.27 1.56325 -0.20005 0
M  V30 3434 C 320.547 1.89484 0.48529 0
M  V30 3435 C 320.927 1.1143 1.79294 0
M  V30 3436 O 320.275 0.216919 2.27468 0
M  V30 3437 C 320.485 3.41923 0.699243 0
M  V30 3438 C 321.833 4.12256 1.01638 0
M  V30 3439 O 322.857 3.47402 0.786792 0
M  V30 3440 O 321.716 5.26887 1.45095 0
M  V30 3441 H 318.81 0.787144 0.253639 0
M  V30 3442 H 321.356 1.67985 -0.240633 0
M  V30 3443 H 320.128 3.90658 -0.224008 0
M  V30 3444 H 319.751 3.69131 1.47744 0
M  V30 3445 N 320.748 -0.0735177 1.57428 0
M  V30 3446 C 321.996 -0.771472 1.86796 0
M  V30 3447 C 322.317 -1.78201 0.791804 0
M  V30 3448 O 321.587 -1.95074 -0.179718 0
M  V30 3449 H 320.167 -0.28791 0.689287 0
M  V30 3450 H 322.829 -0.0500161 1.94836 0
M  V30 3451 H 321.925 -1.28874 2.8425 0
M  V30 3452 N 322.226 -1.5378 -0.344866 0
M  V30 3453 C 323.173 -1.81676 -1.42346 0
M  V30 3454 C 324.143 -0.662376 -1.52321 0
M  V30 3455 O 325.328 -0.906675 -1.67881 0
M  V30 3456 C 322.468 -2.03087 -2.79015 0
M  V30 3457 C 321.581 -3.30799 -2.77842 0
M  V30 3458 C 320.716 -3.42285 -4.0622 0
M  V30 3459 C 319.755 -4.6395 -3.9927 0
M  V30 3460 N 318.892 -4.72477 -5.19336 0
M  V30 3461 H 323.732 -2.73703 -1.17858 0
M  V30 3462 H 321.269 -1.35568 -0.570949 0
M  V30 3463 H 323.227 -2.1349 -3.58438 0
M  V30 3464 H 321.857 -1.14375 -3.01858 0
M  V30 3465 H 320.909 -3.29244 -1.90533 0
M  V30 3466 H 322.221 -4.20314 -2.68584 0
M  V30 3467 H 321.375 -3.52113 -4.94066 0
M  V30 3468 H 320.114 -2.50823 -4.18258 0
M  V30 3469 H 319.119 -4.54201 -3.09809 0
M  V30 3470 H 320.344 -5.56775 -3.88817 0
M  V30 3471 H 318.29 -3.83924 -5.3192 0
M  V30 3472 H 318.207 -5.55927 -5.12329 0
M  V30 3473 H 319.475 -4.86613 -6.08957 0
M  V30 3474 N 323.704 0.605807 -1.45491 0
M  V30 3475 C 324.952 1.36207 -1.49305 0
M  V30 3476 C 325.273 1.94519 -0.136863 0
M  V30 3477 O 324.543 1.77261 0.833983 0
M  V30 3478 H 323.123 0.50565 -0.549843 0
M  V30 3479 H 325.785 0.711239 -1.81459 0
M  V30 3480 H 324.881 2.18058 -2.23287 0
M  V30 3481 N 325.182 1.32811 0.848464 0
M  V30 3482 C 326.129 1.22265 1.95755 0
M  V30 3483 C 327.099 0.103413 1.65778 0
M  V30 3484 O 328.284 0.280033 1.88734 0
M  V30 3485 C 325.424 0.958014 3.31536 0
M  V30 3486 C 324.537 2.16262 3.73971 0
M  V30 3487 C 323.672 1.83295 4.98575 0
M  V30 3488 C 322.711 3.00041 5.33518 0
M  V30 3489 N 321.848 2.67125 6.49299 0
M  V30 3490 H 326.688 2.17128 2.04107 0
M  V30 3491 H 324.225 1.07982 0.998913 0
M  V30 3492 H 326.183 0.785052 4.09747 0
M  V30 3493 H 324.813 0.046159 3.22767 0
M  V30 3494 H 323.865 2.44565 2.91362 0
M  V30 3495 H 325.177 3.03572 3.95785 0
M  V30 3496 H 324.331 1.62586 5.84509 0
M  V30 3497 H 323.07 0.932078 4.7871 0
M  V30 3498 H 322.075 3.21374 4.46093 0
M  V30 3499 H 323.3 3.90869 5.55336 0
M  V30 3500 H 321.246 1.79586 6.3094 0
M  V30 3501 H 321.163 3.47965 6.71161 0
M  V30 3502 H 322.431 2.49861 7.3837 0
M  V30 3503 N 326.66 -1.06551 1.16123 0
M  V30 3504 C 327.607 -2.13961 0.865414 0
M  V30 3505 C 328.577 -1.65066 -0.185055 0
M  V30 3506 O 329.762 -1.90732 -0.05083 0
M  V30 3507 C 326.902 -3.43113 0.369776 0
M  V30 3508 C 326.015 -4.05756 1.48276 0
M  V30 3509 C 325.15 -5.22773 0.942414 0
M  V30 3510 C 324.189 -5.77395 2.03179 0
M  V30 3511 N 323.326 -6.85731 1.50721 0
M  V30 3512 H 328.166 -2.38605 1.78527 0
M  V30 3513 H 325.703 -1.17072 0.890646 0
M  V30 3514 H 327.661 -4.17151 0.0640643 0
M  V30 3515 H 326.291 -3.18695 -0.513143 0
M  V30 3516 H 325.343 -3.29292 1.9045 0
M  V30 3517 H 326.655 -4.42351 2.30493 0
M  V30 3518 H 325.809 -6.03827 0.589729 0
M  V30 3519 H 324.548 -4.87618 0.0895191 0
M  V30 3520 H 323.553 -4.94981 2.3932 0
M  V30 3521 H 324.778 -6.14603 2.8886 0
M  V30 3522 H 322.724 -6.52499 0.676811 0
M  V30 3523 H 322.641 -7.21254 2.26557 0
M  V30 3524 H 323.909 -7.7047 1.18303 0
M  V30 3525 N 328.138 -0.959301 -1.25041 0
M  V30 3526 C 329.085 -0.482057 -2.2571 0
M  V30 3527 C 330.055 0.467939 -1.59372 0
M  V30 3528 O 331.24 0.380159 -1.86974 0
M  V30 3529 C 328.38 0.229623 -3.44335 0
M  V30 3530 C 327.493 -0.758156 -4.25295 0
M  V30 3531 C 326.628 -0.0234403 -5.31195 0
M  V30 3532 C 325.667 -1.00184 -6.03846 0
M  V30 3533 N 324.804 -0.29769 -7.01469 0
M  V30 3534 H 329.644 -1.34538 -2.65901 0
M  V30 3535 H 327.181 -0.674592 -1.3072 0
M  V30 3536 H 329.139 0.658856 -4.11965 0
M  V30 3537 H 327.769 1.05696 -3.05005 0
M  V30 3538 H 326.821 -1.30586 -3.57284 0
M  V30 3539 H 328.133 -1.50458 -4.75567 0
M  V30 3540 H 327.287 0.464201 -6.04922 0
M  V30 3541 H 326.026 0.755741 -4.81809 0
M  V30 3542 H 325.031 -1.50044 -5.2893 0
M  V30 3543 H 326.256 -1.78133 -6.55321 0
M  V30 3544 H 324.202 0.462668 -6.54366 0
M  V30 3545 H 324.119 -0.983128 -7.4958 0
M  V30 3546 H 325.387 0.16826 -7.79318 0
M  V30 3547 N 329.616 1.39756 -0.72842 0
M  V30 3548 C 330.546 2.33289 -0.0991354 0
M  V30 3549 C 331.527 1.53568 0.731489 0
M  V30 3550 O 332.712 1.81987 0.677807 0
M  V30 3551 C 329.842 3.3763 0.813834 0
M  V30 3552 C 328.796 4.2791 0.0878663 0
M  V30 3553 C 328.122 5.22894 1.11741 0
M  V30 3554 C 329.422 5.11314 -1.06563 0
M  V30 3555 H 331.116 2.86163 -0.880408 0
M  V30 3556 H 328.662 1.37591 -0.424819 0
M  V30 3557 H 330.615 4.0201 1.26355 0
M  V30 3558 H 329.339 2.83181 1.62715 0
M  V30 3559 H 327.998 3.65 -0.342159 0
M  V30 3560 H 327.646 4.64744 1.92412 0
M  V30 3561 H 327.346 5.84143 0.636477 0
M  V30 3562 H 328.87 5.90151 1.56697 0
M  V30 3563 H 330.284 5.69076 -0.694671 0
M  V30 3564 H 328.681 5.81671 -1.47577 0
M  V30 3565 H 329.751 4.46534 -1.89038 0
M  V30 3566 N 331.094 0.475555 1.50254 0
M  V30 3567 C 332.319 -0.0777042 2.07254 0
M  V30 3568 C 332.744 -1.3235 1.3366 0
M  V30 3569 O 332.102 -1.77152 0.385597 0
M  V30 3570 C 332.15 -0.340169 3.58992 0
M  V30 3571 O 331.254 -1.41982 3.87188 0
M  V30 3572 H 330.595 0.0149556 0.663832 0
M  V30 3573 H 333.125 0.667878 1.93392 0
M  V30 3574 H 333.135 -0.579332 4.03866 0
M  V30 3575 H 331.81 0.570167 4.11973 0
M  V30 3576 H 330.387 -1.16762 3.54148 0
M  V30 3577 N 332.573 -1.56217 0.208337 0
M  V30 3578 C 333.798 -2.02782 -0.435222 0
M  V30 3579 C 334.223 -1.08738 -1.53485 0
M  V30 3580 O 333.581 -0.0731855 -1.81152 0
M  V30 3581 C 333.629 -3.47687 -0.956335 0
M  V30 3582 O 332.733 -3.56773 -2.06849 0
M  V30 3583 H 332.074 -0.656403 -0.100158 0
M  V30 3584 H 334.604 -2.02033 0.3231 0
M  V30 3585 H 334.614 -3.87745 -1.26955 0
M  V30 3586 H 333.289 -4.15624 -0.15143 0
M  V30 3587 H 331.866 -3.28597 -1.76292 0
M  V30 3588 N 334.051 0.0651679 -1.57465 0
M  V30 3589 C 334.998 1.07675 -2.04144 0
M  V30 3590 C 335.968 1.38071 -0.923335 0
M  V30 3591 O 337.153 1.49026 -1.19146 0
M  V30 3592 C 334.293 2.38337 -2.49579 0
M  V30 3593 C 333.406 2.14413 -3.75035 0
M  V30 3594 C 332.541 3.38686 -4.09225 0
M  V30 3595 C 331.58 3.10156 -5.27702 0
M  V30 3596 N 330.717 4.26778 -5.57499 0
M  V30 3597 H 335.557 0.671716 -2.90331 0
M  V30 3598 H 333.094 0.3201 -1.43575 0
M  V30 3599 H 335.052 3.14632 -2.73975 0
M  V30 3600 H 333.682 2.7663 -1.6636 0
M  V30 3601 H 332.734 1.2878 -3.57939 0
M  V30 3602 H 334.046 1.89344 -4.61466 0
M  V30 3603 H 333.2 4.23373 -4.34558 0
M  V30 3604 H 331.939 3.66837 -3.21374 0
M  V30 3605 H 330.944 2.23866 -5.02159 0
M  V30 3606 H 332.169 2.8332 -6.17176 0
M  V30 3607 H 330.115 4.54948 -4.72608 0
M  V30 3608 H 330.032 4.05005 -6.38362 0
M  V30 3609 H 331.3 5.12443 -5.87386 0
M  V30 3610 N 335.529 1.53961 0.336706 0
M  V30 3611 C 336.757 1.75483 1.09605 0
M  V30 3612 C 337.172 0.4972 1.82136 0
M  V30 3613 O 336.529 -0.53149 1.74589 0
M  V30 3614 C 336.58 2.93943 2.10428 0
M  V30 3615 O 336.301 4.14842 1.40846 0
M  V30 3616 C 337.802 3.27571 2.98684 0
M  V30 3617 H 335.022 0.586166 0.326574 0
M  V30 3618 H 337.566 2.00808 0.38683 0
M  V30 3619 H 335.721 2.70929 2.76905 0
M  V30 3620 H 336.135 4.81383 2.08255 0
M  V30 3621 H 337.609 4.13791 3.6535 0
M  V30 3622 H 338.086 2.44168 3.65074 0
M  V30 3623 H 338.692 3.52615 2.37787 0
M  V30 3624 N 337.007 -0.598083 1.45811 0
M  V30 3625 C 337.954 -1.7082 1.55207 0
M  V30 3626 C 338.924 -1.61278 0.39732 0
M  V30 3627 O 340.109 -1.80717 0.612038 0
M  V30 3628 C 337.249 -3.09144 1.53376 0
M  V30 3629 C 336.362 -3.29423 2.79472 0
M  V30 3630 C 335.497 -4.57907 2.69248 0
M  V30 3631 C 334.536 -4.71476 3.90354 0
M  V30 3632 N 333.673 -5.9127 3.78608 0
M  V30 3633 H 338.513 -1.62125 2.50039 0
M  V30 3634 H 336.05 -0.790389 1.24062 0
M  V30 3635 H 338.008 -3.89186 1.50301 0
M  V30 3636 H 336.638 -3.16773 0.620876 0
M  V30 3637 H 335.69 -2.43091 2.92594 0
M  V30 3638 H 337.002 -3.3532 3.69272 0
M  V30 3639 H 336.156 -5.46157 2.64192 0
M  V30 3640 H 334.895 -4.54423 1.77063 0
M  V30 3641 H 333.9 -3.81648 3.95759 0
M  V30 3642 H 335.125 -4.76751 4.83617 0
M  V30 3643 H 333.071 -5.88813 2.89199 0
M  V30 3644 H 332.988 -5.98369 4.6205 0
M  V30 3645 H 334.256 -6.81992 3.77501 0
M  V30 3646 N 338.485 -1.33259 -0.841409 0
M  V30 3647 C 339.71 -1.2775 -1.63385 0
M  V30 3648 C 340.135 0.149188 -1.87507 0
M  V30 3649 O 339.493 1.10498 -1.43736 0
M  V30 3650 C 339.541 -2.05571 -2.96265 0
M  V30 3651 O 338.645 -1.41257 -3.87453 0
M  V30 3652 H 337.986 -0.439627 -0.497618 0
M  V30 3653 H 340.516 -1.75782 -1.04699 0
M  V30 3654 H 340.526 -2.16241 -3.45982 0
M  V30 3655 H 339.201 -3.09309 -2.7803 0
M  V30 3656 H 337.778 -1.39217 -3.45938 0
M  V30 3657 N 339.963 1.05934 -1.16686 0
M  V30 3658 C 340.91 2.13499 -0.876748 0
M  V30 3659 C 341.88 1.65162 0.176299 0
M  V30 3660 O 343.065 1.90757 0.0407143 0
M  V30 3661 C 340.205 3.42912 -0.387967 0
M  V30 3662 C 339.318 4.04964 -1.50426 0
M  V30 3663 C 338.453 5.22266 -0.970125 0
M  V30 3664 C 337.492 5.76309 -2.06238 0
M  V30 3665 N 336.629 6.84922 -1.54356 0
M  V30 3666 H 341.469 2.37654 -1.7979 0
M  V30 3667 H 339.006 1.16598 -0.896843 0
M  V30 3668 H 340.964 4.17111 -0.086186 0
M  V30 3669 H 339.594 3.18963 0.496235 0
M  V30 3670 H 338.646 3.28277 -1.92193 0
M  V30 3671 H 339.958 4.41122 -2.32836 0
M  V30 3672 H 339.112 6.03506 -0.621743 0
M  V30 3673 H 337.851 4.87564 -0.115377 0
M  V30 3674 H 336.856 4.93704 -2.41942 0
M  V30 3675 H 338.081 6.13062 -2.92115 0
M  V30 3676 H 336.027 6.52131 -0.711406 0
M  V30 3677 H 335.944 7.20043 -2.30379 0
M  V30 3678 H 337.212 7.69832 -1.22387 0
M  V30 3679 N 341.441 0.965919 1.2453 0
M  V30 3680 C 342.388 0.49402 2.25451 0
M  V30 3681 C 343.358 -0.45948 1.59618 0
M  V30 3682 O 344.543 -0.370238 1.87173 0
M  V30 3683 C 341.683 -0.211359 3.44452 0
M  V30 3684 C 340.796 0.7807 4.24887 0
M  V30 3685 C 339.931 0.0516105 5.31175 0
M  V30 3686 C 338.97 1.03385 6.03306 0
M  V30 3687 N 338.107 0.334887 7.01301 0
M  V30 3688 H 342.947 1.35946 2.65184 0
M  V30 3689 H 340.484 0.681515 1.3036 0
M  V30 3690 H 342.442 -0.637 4.12308 0
M  V30 3691 H 341.072 -1.04077 3.05562 0
M  V30 3692 H 340.124 1.32479 3.56586 0
M  V30 3693 H 341.436 1.52978 4.74762 0
M  V30 3694 H 340.59 -0.432114 6.05159 0
M  V30 3695 H 339.329 -0.730179 4.82203 0
M  V30 3696 H 338.334 1.52847 5.28127 0
M  V30 3697 H 339.559 1.81606 6.54367 0
M  V30 3698 H 337.505 -0.427959 6.54603 0
M  V30 3699 H 337.422 1.02287 7.49048 0
M  V30 3700 H 338.69 -0.126928 7.79397 0
M  V30 3701 N 342.919 -1.39368 0.735821 0
M  V30 3702 C 344.167 -2.00101 0.283562 0
M  V30 3703 C 344.488 -1.5868 -1.13338 0
M  V30 3704 O 343.758 -0.835423 -1.77193 0
M  V30 3705 H 342.338 -0.740024 0.101851 0
M  V30 3706 H 345 -1.70404 0.945962 0
M  V30 3707 H 344.096 -3.10323 0.332604 0
M  V30 3708 N 344.397 -0.483516 -1.5 0
M  V30 3709 C 345.344 0.304164 -2.28787 0
M  V30 3710 C 346.314 0.976114 -1.34392 0
M  V30 3711 O 347.499 0.986156 -1.63339 0
M  V30 3712 C 344.639 1.37298 -3.16612 0
M  V30 3713 C 343.752 0.714561 -4.26049 0
M  V30 3714 C 342.887 1.76232 -5.01114 0
M  V30 3715 C 341.926 1.08483 -6.0241 0
M  V30 3716 N 341.063 2.076 -6.70706 0
M  V30 3717 H 345.903 -0.373981 -2.95644 0
M  V30 3718 H 343.44 -0.196275 -1.45785 0
M  V30 3719 H 345.398 2.00445 -3.65893 0
M  V30 3720 H 344.028 2.02012 -2.51776 0
M  V30 3721 H 343.08 -0.0297798 -3.80388 0
M  V30 3722 H 344.392 0.180383 -4.98474 0
M  V30 3723 H 343.546 2.46929 -5.54176 0
M  V30 3724 H 342.285 2.33033 -4.28424 0
M  V30 3725 H 341.29 0.363545 -5.48597 0
M  V30 3726 H 342.515 0.523551 -6.77079 0
M  V30 3727 H 340.461 2.63394 -6.00799 0
M  V30 3728 H 340.378 1.59201 -7.39047 0
M  V30 3729 H 341.646 2.77639 -7.2838 0
M  V30 3730 N 345.875 1.56104 -0.216619 0
M  V30 3731 C 346.785 2.23694 0.706982 0
M  V30 3732 C 347.801 1.24295 1.21765 0
M  V30 3733 O 348.977 1.57094 1.2603 0
M  V30 3734 C 346.042 2.8998 1.90033 0
M  V30 3735 C 345.103 4.04708 1.43213 0
M  V30 3736 C 344.336 4.67824 2.56859 0
M  V30 3737 O 344.559 4.29913 3.74874 0
M  V30 3738 O 343.493 5.56905 2.28343 0
M  V30 3739 H 347.319 3.03272 0.161235 0
M  V30 3740 H 344.904 1.49394 0.0136177 0
M  V30 3741 H 346.786 3.31837 2.59735 0
M  V30 3742 H 345.461 2.13365 2.43428 0
M  V30 3743 H 344.368 3.6743 0.70327 0
M  V30 3744 H 345.701 4.83051 0.944615 0
M  V30 3745 N 347.353 -0.0568162 1.57498 0
M  V30 3746 C 348.3 -1.06591 2.04712 0
M  V30 3747 C 349.27 -1.3758 0.930644 0
M  V30 3748 O 350.455 -1.48392 1.19935 0
M  V30 3749 C 347.595 -2.3701 2.50839 0
M  V30 3750 C 346.708 -2.12421 3.76167 0
M  V30 3751 C 345.843 -3.36511 4.11015 0
M  V30 3752 C 344.882 -3.07353 5.2934 0
M  V30 3753 N 344.019 -4.23816 5.59754 0
M  V30 3754 H 348.859 -0.65631 2.90683 0
M  V30 3755 H 346.396 -0.312481 1.43743 0
M  V30 3756 H 348.354 -3.13175 2.7564 0
M  V30 3757 H 346.984 -2.75744 1.67825 0
M  V30 3758 H 346.036 -1.2688 3.58616 0
M  V30 3759 H 347.348 -1.86894 4.62463 0
M  V30 3760 H 346.502 -4.21062 4.36797 0
M  V30 3761 H 345.241 -3.65128 3.23315 0
M  V30 3762 H 344.246 -2.212 5.03339 0
M  V30 3763 H 345.471 -2.80043 6.1867 0
M  V30 3764 H 343.417 -4.52436 4.75014 0
M  V30 3765 H 343.334 -4.01614 6.40501 0
M  V30 3766 H 344.602 -5.0932 5.90096 0
M  V30 3767 N 348.832 -1.54138 -0.328536 0
M  V30 3768 C 349.779 -1.83176 -1.40411 0
M  V30 3769 C 350.749 -0.678494 -1.5161 0
M  V30 3770 O 351.934 -0.92443 -1.6691 0
M  V30 3771 C 349.074 -2.06035 -2.76846 0
M  V30 3772 C 348.187 -3.33727 -2.74318 0
M  V30 3773 C 347.322 -3.46574 -4.02567 0
M  V30 3774 C 346.361 -4.68159 -3.94327 0
M  V30 3775 N 345.498 -4.77959 -5.14296 0
M  V30 3776 H 350.338 -2.74938 -1.14948 0
M  V30 3777 H 347.875 -1.36166 -0.556538 0
M  V30 3778 H 349.833 -2.1728 -3.56153 0
M  V30 3779 H 348.463 -1.1757 -3.00628 0
M  V30 3780 H 347.515 -3.31246 -1.8703 0
M  V30 3781 H 348.827 -4.23139 -2.64111 0
M  V30 3782 H 347.981 -3.57333 -4.90304 0
M  V30 3783 H 346.72 -2.55245 -4.15574 0
M  V30 3784 H 345.725 -4.57461 -3.04974 0
M  V30 3785 H 346.95 -5.60868 -3.82889 0
M  V30 3786 H 344.896 -3.89544 -5.27818 0
M  V30 3787 H 344.813 -5.6133 -5.06404 0
M  V30 3788 H 346.081 -4.93044 -6.03761 0
M  V30 3789 N 350.31 0.590341 -1.46126 0
M  V30 3790 C 351.22 1.72793 -1.58681 0
M  V30 3791 C 352.236 1.67516 -0.470566 0
M  V30 3792 O 353.412 1.87562 -0.733642 0
M  V30 3793 C 350.477 3.09287 -1.5666 0
M  V30 3794 C 349.538 3.25886 -2.79458 0
M  V30 3795 C 348.771 4.55869 -2.77524 0
M  V30 3796 O 348.994 5.3928 -1.85832 0
M  V30 3797 O 347.928 4.75552 -3.68964 0
M  V30 3798 H 351.754 1.65149 -2.54872 0
M  V30 3799 H 349.339 0.756486 -1.28832 0
M  V30 3800 H 351.221 3.90577 -1.58202 0
M  V30 3801 H 349.896 3.17385 -0.636271 0
M  V30 3802 H 348.803 2.44119 -2.83472 0
M  V30 3803 H 350.136 3.22675 -3.71674 0
M  V30 3804 N 351.788 1.33704 0.83433 0
M  V30 3805 C 352.698 1.26382 1.97648 0
M  V30 3806 C 353.714 0.173548 1.73132 0
M  V30 3807 O 354.89 0.397962 1.97429 0
M  V30 3808 C 351.955 1.00769 3.31733 0
M  V30 3809 C 351.016 2.1884 3.69334 0
M  V30 3810 C 350.249 1.9444 4.9702 0
M  V30 3811 O 350.472 0.896961 5.63303 0
M  V30 3812 O 349.406 2.81093 5.32231 0
M  V30 3813 H 353.232 2.22444 2.06767 0
M  V30 3814 H 350.817 1.13795 0.968037 0
M  V30 3815 H 352.699 0.882186 4.12062 0
M  V30 3816 H 351.374 0.0773783 3.23608 0
M  V30 3817 H 350.281 2.36946 2.89495 0
M  V30 3818 H 351.614 3.10221 3.82131 0
M  V30 3819 N 353.266 -1.05314 1.17247 0
M  V30 3820 C 354.213 -2.13031 0.888058 0
M  V30 3821 C 355.183 -1.65253 -0.167537 0
M  V30 3822 O 356.368 -1.90775 -0.0305974 0
M  V30 3823 C 353.508 -3.42702 0.406147 0
M  V30 3824 C 352.621 -4.04161 1.52572 0
M  V30 3825 C 351.756 -5.21744 0.997808 0
M  V30 3826 C 350.795 -5.75207 2.09291 0
M  V30 3827 N 349.932 -6.84094 1.57986 0
M  V30 3828 H 354.772 -2.36698 1.81048 0
M  V30 3829 H 352.309 -1.16121 0.903013 0
M  V30 3830 H 354.267 -4.17059 0.108305 0
M  V30 3831 H 352.897 -3.19222 -0.479313 0
M  V30 3832 H 351.949 -3.27253 1.93931 0
M  V30 3833 H 353.261 -4.39881 2.35172 0
M  V30 3834 H 352.415 -6.03168 0.653739 0
M  V30 3835 H 351.154 -4.87495 0.141232 0
M  V30 3836 H 350.159 -4.92414 2.44557 0
M  V30 3837 H 351.384 -6.11505 2.95362 0
M  V30 3838 H 349.33 -6.51745 0.74598 0
M  V30 3839 H 349.247 -7.18811 2.34195 0
M  V30 3840 H 350.515 -7.69172 1.26468 0
M  V30 3841 N 354.744 -0.972509 -1.24016 0
M  V30 3842 C 355.654 -0.5143 -2.28893 0
M  V30 3843 C 356.67 0.427078 -1.68677 0
M  V30 3844 O 357.846 0.298939 -1.99169 0
M  V30 3845 C 354.911 0.183598 -3.46214 0
M  V30 3846 C 353.972 -0.798202 -4.21814 0
M  V30 3847 C 353.205 -0.133514 -5.33533 0
M  V30 3848 O 353.428 1.07714 -5.60137 0
M  V30 3849 O 352.362 -0.828103 -5.96176 0
M  V30 3850 H 356.188 -1.38629 -2.70214 0
M  V30 3851 H 353.773 -0.739769 -1.29799 0
M  V30 3852 H 355.655 0.575433 -4.17453 0
M  V30 3853 H 354.33 1.03048 -3.0686 0
M  V30 3854 H 353.237 -1.24059 -3.52931 0
M  V30 3855 H 354.57 -1.61364 -4.64997 0
M  V30 3856 N 356.222 1.38976 -0.743202 0
M  V30 3857 C 357.499 1.94351 -0.220705 0
M  V30 3858 C 357.879 1.67935 1.2791 0
M  V30 3859 O 357.227 1.01211 2.04862 0
M  V30 3860 C 357.437 3.44426 -0.563171 0
M  V30 3861 C 358.785 4.2144 -0.517046 0
M  V30 3862 O 359.809 3.52661 -0.500846 0
M  V30 3863 O 358.668 5.44032 -0.518806 0
M  V30 3864 H 355.762 0.825879 -0.043047 0
M  V30 3865 H 358.308 1.48429 -0.822618 0
M  V30 3866 H 357.08 3.5712 -1.59941 0
M  V30 3867 H 356.703 3.97543 0.0672883 0
M  V30 3868 N 357.7 0.491464 1.49741 0
M  V30 3869 C 358.93 -0.0534375 2.06531 0
M  V30 3870 C 359.338 -1.32233 1.35318 0
M  V30 3871 O 358.681 -1.78781 0.422243 0
M  V30 3872 C 358.743 -0.387034 3.57411 0
M  V30 3873 C 358.407 0.782764 4.50246 0
M  V30 3874 C 359.404 1.67059 4.92329 0
M  V30 3875 C 357.089 0.978866 4.9267 0
M  V30 3876 C 359.083 2.73874 5.75562 0
M  V30 3877 C 356.77 2.05022 5.75682 0
M  V30 3878 C 357.768 2.92851 6.17031 0
M  V30 3879 O 357.456 3.98138 6.98385 0
M  V30 3880 H 357.188 0.0129324 0.675876 0
M  V30 3881 H 359.742 0.685238 1.93633 0
M  V30 3882 H 357.972 -1.17918 3.68283 0
M  V30 3883 H 359.661 -0.869419 3.96479 0
M  V30 3884 H 360.427 1.53086 4.60206 0
M  V30 3885 H 356.306 0.304646 4.59992 0
M  V30 3886 H 359.85 3.42458 6.07757 0
M  V30 3887 H 355.747 2.18993 6.07217 0
M  V30 3888 H 356.515 3.95374 7.16674 0
M  V30 3889 N 359.178 -1.55987 0.224894 0
M  V30 3890 C 360.455 -1.90232 -0.455083 0
M  V30 3891 C 360.835 -1.14269 -1.77499 0
M  V30 3892 O 360.183 -0.253079 -2.27094 0
M  V30 3893 C 360.393 -3.42993 -0.644758 0
M  V30 3894 C 361.741 -4.13821 -0.950669 0
M  V30 3895 O 362.765 -3.4861 -0.731423 0
M  V30 3896 O 361.624 -5.29128 -1.36695 0
M  V30 3897 H 358.718 -0.79108 -0.241084 0
M  V30 3898 H 361.264 -1.67581 0.267327 0
M  V30 3899 H 360.036 -3.90252 0.28613 0
M  V30 3900 H 359.659 -3.71434 -1.41853 0
M  V30 3901 N 360.656 0.0484629 -1.57525 0
M  V30 3902 C 361.933 0.777447 -1.79486 0
M  V30 3903 C 362.313 1.94597 -0.818251 0
M  V30 3904 O 361.661 2.28047 0.143767 0
M  V30 3905 C 361.871 1.22864 -3.26658 0
M  V30 3906 C 363.219 1.65251 -3.91123 0
M  V30 3907 O 364.243 1.32372 -3.3069 0
M  V30 3908 O 363.102 2.26207 -4.97486 0
M  V30 3909 H 360.196 0.374357 -0.737419 0
M  V30 3910 H 362.742 0.0267359 -1.69679 0
M  V30 3911 H 361.514 0.393589 -3.89316 0
M  V30 3912 H 361.137 2.03996 -3.41279 0
M  V30 3913 N 362.134 1.5431 0.320358 0
M  V30 3914 C 363.411 1.63322 1.07635 0
M  V30 3915 C 363.791 0.46912 2.05821 0
M  V30 3916 O 363.139 -0.536274 2.22118 0
M  V30 3917 C 363.349 3.00465 1.77544 0
M  V30 3918 C 364.697 3.56621 2.30449 0
M  V30 3919 O 365.721 3.02791 1.87606 0
M  V30 3920 O 364.58 4.5083 3.08892 0
M  V30 3921 H 361.674 0.661502 0.496331 0
M  V30 3922 H 364.22 1.66656 0.319992 0
M  V30 3923 H 362.992 3.76629 1.06143 0
M  V30 3924 H 362.615 3.00824 2.59982 0
M  V30 3925 N 363.613 -0.582584 1.46437 0
M  V30 3926 C 364.561 -1.71272 1.5738 0
M  V30 3927 C 365.555 -1.63524 0.44229 0
M  V30 3928 O 366.761 -1.69016 0.619166 0
M  V30 3929 H 363.136 -0.566273 0.494813 0
M  V30 3930 H 365.107 -1.59174 2.52401 0
M  V30 3931 C 363.856 -3.09658 1.58136 0
M  V30 3932 H 363.179 -3.16291 2.44541 0
M  V30 3933 H 364.619 -3.88494 1.69847 0
M  V30 3934 C 363.078 -3.3547 0.310026 0
M  V30 3935 O 363.608 -3.97199 -0.599683 0
M  V30 3936 N 361.814 -2.89925 0.197901 0
M  V30 3937 H 361.361 -2.39873 0.93909 0
M  V30 3938 H 361.319 -3.07568 -0.65185 0
M  V30 3939 N 365.091 -1.34144 -0.827227 0
M  V30 3940 C 366.368 -1.16844 -1.56865 0
M  V30 3941 C 366.748 0.260654 -2.09485 0
M  V30 3942 O 366.096 1.26138 -1.9053 0
M  V30 3943 C 366.306 -2.21939 -2.6934 0
M  V30 3944 C 367.654 -2.56695 -3.3822 0
M  V30 3945 O 368.678 -2.20695 -2.79593 0
M  V30 3946 O 367.537 -3.18518 -4.44082 0
M  V30 3947 H 364.631 -0.452669 -0.692112 0
M  V30 3948 H 367.177 -1.45763 -0.868973 0
M  V30 3949 H 365.949 -3.17882 -2.28182 0
M  V30 3950 H 365.572 -1.94172 -3.46962 0
M  V30 3951 N 366.569 1.04691 -1.17803 0
M  V30 3952 C 367.479 2.16057 -0.914151 0
M  V30 3953 C 368.495 1.73589 0.119503 0
M  V30 3954 O 369.671 2.01308 -0.0609468 0
M  V30 3955 C 366.736 3.4394 -0.436603 0
M  V30 3956 C 365.797 4.00825 -1.53746 0
M  V30 3957 C 365.03 5.22604 -1.0826 0
M  V30 3958 O 365.253 5.70367 0.0612244 0
M  V30 3959 O 364.187 5.7186 -1.87775 0
M  V30 3960 H 368.013 2.41169 -1.84584 0
M  V30 3961 H 365.598 1.1453 -0.959334 0
M  V30 3962 H 367.48 4.21024 -0.178057 0
M  V30 3963 H 366.155 3.20316 0.466869 0
M  V30 3964 H 365.062 3.25158 -1.84995 0
M  V30 3965 H 366.395 4.28778 -2.41683 0
M  V30 3966 N 368.047 0.979072 1.23499 0
M  V30 3967 C 368.957 0.526431 2.28617 0
M  V30 3968 C 369.973 -0.418126 1.68901 0
M  V30 3969 O 371.149 -0.288372 1.99325 0
M  V30 3970 C 368.214 -0.165235 3.46306 0
M  V30 3971 C 367.275 0.82056 4.21385 0
M  V30 3972 C 366.508 0.161807 5.33455 0
M  V30 3973 O 366.731 -1.04742 5.60701 0
M  V30 3974 O 365.665 0.859708 5.95729 0
M  V30 3975 H 369.491 1.4006 2.69475 0
M  V30 3976 H 367.076 0.746643 1.29405 0
M  V30 3977 H 368.958 -0.553287 4.17752 0
M  V30 3978 H 367.633 -1.01419 3.07402 0
M  V30 3979 H 366.54 1.25929 3.52268 0
M  V30 3980 H 367.873 1.63828 4.64135 0
M  V30 3981 N 369.525 -1.3858 0.750561 0
M  V30 3982 C 370.472 -2.30483 0.120835 0
M  V30 3983 C 371.442 -1.50022 -0.712923 0
M  V30 3984 O 372.627 -1.78662 -0.669676 0
M  V30 3985 C 369.767 -3.36431 -0.768666 0
M  V30 3986 C 368.88 -4.31927 0.0793922 0
M  V30 3987 C 368.015 -5.24944 -0.81283 0
M  V30 3988 C 367.054 -6.12088 0.0390447 0
M  V30 3989 N 366.191 -6.97412 -0.809969 0
M  V30 3990 H 371.031 -2.83761 0.91015 0
M  V30 3991 H 368.568 -1.39707 0.460463 0
M  V30 3992 H 370.526 -3.96462 -1.29898 0
M  V30 3993 H 369.156 -2.8457 -1.5238 0
M  V30 3994 H 368.208 -3.73382 0.727303 0
M  V30 3995 H 369.52 -4.93319 0.737401 0
M  V30 3996 H 368.674 -5.90078 -1.41042 0
M  V30 3997 H 367.413 -4.63911 -1.50458 0
M  V30 3998 H 366.418 -5.45952 0.649328 0
M  V30 3999 H 367.643 -6.75189 0.727809 0
M  V30 4000 H 365.589 -6.38931 -1.48672 0
M  V30 4001 H 365.506 -7.55712 -0.208789 0
M  V30 4002 H 366.774 -7.66959 -1.39263 0
M  V30 4003 N 371.003 -0.499398 -1.49478 0
M  V30 4004 C 371.913 0.284489 -2.32869 0
M  V30 4005 C 372.929 0.968885 -1.44529 0
M  V30 4006 O 374.105 0.95062 -1.77553 0
M  V30 4007 C 371.17 1.33594 -3.19928 0
M  V30 4008 C 370.231 0.665149 -4.24116 0
M  V30 4009 C 369.464 1.6665 -5.07014 0
M  V30 4010 O 369.687 2.89618 -4.91404 0
M  V30 4011 O 368.621 1.22271 -5.8935 0
M  V30 4012 H 372.447 -0.39802 -3.01081 0
M  V30 4013 H 370.032 -0.260758 -1.47107 0
M  V30 4014 H 371.914 1.94431 -3.73864 0
M  V30 4015 H 370.589 2.0014 -2.54412 0
M  V30 4016 H 369.496 0.0170769 -3.74096 0
M  V30 4017 H 370.829 0.0421555 -4.92182 0
M  V30 4018 N 372.481 1.55866 -0.233164 0
M  V30 4019 C 373.758 1.90471 0.444988 0
M  V30 4020 C 374.138 1.15209 1.7689 0
M  V30 4021 O 373.486 0.265119 2.26957 0
M  V30 4022 C 373.696 3.4333 0.626559 0
M  V30 4023 C 375.044 4.14319 0.92871 0
M  V30 4024 O 376.068 3.48993 0.712926 0
M  V30 4025 O 374.927 5.29846 1.33887 0
M  V30 4026 H 372.021 0.792347 0.236885 0
M  V30 4027 H 374.567 1.67437 -0.276211 0
M  V30 4028 H 373.339 3.90095 -0.306822 0
M  V30 4029 H 372.962 3.72181 1.39881 0
M  V30 4030 N 373.959 -0.0401083 1.57549 0
M  V30 4031 C 374.869 -1.06133 2.0922 0
M  V30 4032 C 375.885 -1.40356 1.0284 0
M  V30 4033 O 377.061 -1.49897 1.34509 0
M  V30 4034 C 374.126 -2.34658 2.55218 0
M  V30 4035 C 373.187 -2.07117 3.76033 0
M  V30 4036 C 372.42 -3.29514 4.19829 0
M  V30 4037 O 372.643 -4.39794 3.63232 0
M  V30 4038 O 371.577 -3.15863 5.12362 0
M  V30 4039 H 375.403 -0.652244 2.96613 0
M  V30 4040 H 372.988 -0.256368 1.47184 0
M  V30 4041 H 374.87 -3.10239 2.85184 0
M  V30 4042 H 373.545 -2.74883 1.70941 0
M  V30 4043 H 372.452 -1.29139 3.51104 0
M  V30 4044 H 373.785 -1.71754 4.61261 0
M  V30 4045 N 375.437 -1.54477 -0.31217 0
M  V30 4046 C 376.4 -1.83923 -1.36766 0
M  V30 4047 C 377.4 -0.711563 -1.44199 0
M  V30 4048 O 378.59 -0.979866 -1.44029 0
M  V30 4049 C 375.722 -2.0095 -2.75376 0
M  V30 4050 H 376.915 -2.78239 -1.11906 0
M  V30 4051 H 374.468 -1.46369 -0.548257 0
M  V30 4052 H 375.203 -1.08883 -3.05475 0
M  V30 4053 H 374.988 -2.83018 -2.71373 0
M  V30 4054 H 376.478 -2.2514 -3.51713 0
M  V30 4055 N 376.915 0.57481 -1.46744 0
M  V30 4056 C 378.192 1.3352 -1.4294 0
M  V30 4057 C 378.572 2.10775 -0.117009 0
M  V30 4058 O 377.92 2.09966 0.901474 0
M  V30 4059 C 378.13 2.25456 -2.66403 0
M  V30 4060 C 379.478 2.87035 -3.12883 0
M  V30 4061 O 380.502 2.35766 -2.67007 0
M  V30 4062 O 379.361 3.80179 -3.92589 0
M  V30 4063 H 376.455 0.600318 -0.568812 0
M  V30 4064 H 379.001 0.595171 -1.58921 0
M  V30 4065 H 377.773 1.67851 -3.53471 0
M  V30 4066 H 377.396 3.06785 -2.52921 0
M  V30 4067 N 378.394 1.34581 0.820102 0
M  V30 4068 C 379.671 1.17675 1.56244 0
M  V30 4069 C 380.051 -0.249541 2.0962 0
M  V30 4070 O 379.399 -1.25125 1.91196 0
M  V30 4071 C 379.609 2.23364 2.6816 0
M  V30 4072 C 380.957 2.58485 3.36854 0
M  V30 4073 O 381.981 2.22175 2.78418 0
M  V30 4074 O 380.84 3.20868 4.42386 0
M  V30 4075 H 377.934 0.456333 0.689702 0
M  V30 4076 H 380.48 1.46222 0.861231 0
M  V30 4077 H 379.252 3.19087 2.26493 0
M  V30 4078 H 378.875 1.96009 3.45928 0
M  V30 4079 N 379.872 -1.04064 1.18357 0
M  V30 4080 C 381.149 -1.74252 0.888581 0
M  V30 4081 C 381.529 -2.02138 -0.60856 0
M  V30 4082 O 380.877 -1.66656 -1.56327 0
M  V30 4083 C 381.087 -3.0277 1.73584 0
M  V30 4084 C 382.435 -3.76506 1.96286 0
M  V30 4085 O 383.459 -3.12668 1.70637 0
M  V30 4086 O 382.318 -4.91243 2.39464 0
M  V30 4087 H 379.412 -0.758271 0.330082 0
M  V30 4088 H 381.958 -1.1013 1.2911 0
M  V30 4089 H 380.73 -2.78299 2.75073 0
M  V30 4090 H 380.353 -3.74631 1.33183 0
M  V30 4091 N 381.35 -0.985608 -1.22978 0
M  V30 4092 C 382.298 -0.522631 -2.26652 0
M  V30 4093 C 383.292 0.422998 -1.64034 0
M  V30 4094 O 384.498 0.296319 -1.77544 0
M  V30 4095 H 380.873 -0.150597 -0.736766 0
M  V30 4096 H 382.844 -1.40863 -2.63059 0
M  V30 4097 C 381.593 0.154238 -3.47358 0
M  V30 4098 H 380.916 -0.564329 -3.95797 0
M  V30 4099 H 382.356 0.441744 -4.21693 0
M  V30 4100 C 380.815 1.38719 -3.07016 0
M  V30 4101 O 381.345 2.48307 -3.15764 0
M  V30 4102 N 379.551 1.25975 -2.61875 0
M  V30 4103 H 379.098 0.368068 -2.54957 0
M  V30 4104 H 379.056 2.08578 -2.3525 0
M  V30 4105 N 382.828 1.3818 -0.7579 0
M  V30 4106 C 384.105 1.94106 -0.241306 0
M  V30 4107 C 384.485 1.69282 1.26122 0
M  V30 4108 O 383.833 1.03378 2.03777 0
M  V30 4109 C 384.043 3.43809 -0.59967 0
M  V30 4110 C 385.391 4.20868 -0.561717 0
M  V30 4111 O 386.415 3.5211 -0.538222 0
M  V30 4112 O 385.274 5.43451 -0.576478 0
M  V30 4113 H 382.368 0.825376 -0.0518042 0
M  V30 4114 H 384.914 1.47548 -0.838315 0
M  V30 4115 H 383.686 3.55403 -1.6372 0
M  V30 4116 H 383.309 3.97592 0.0251197 0
M  V30 4117 N 384.306 0.507319 1.49211 0
M  V30 4118 C 385.583 -0.0982702 1.95353 0
M  V30 4119 C 385.963 -1.53516 1.449 0
M  V30 4120 O 385.311 -2.18594 0.66551 0
M  V30 4121 C 385.521 -0.00440283 3.49 0
M  V30 4122 C 386.869 -0.175147 4.24239 0
M  V30 4123 O 387.893 -0.0792891 3.56112 0
M  V30 4124 O 386.752 -0.37276 5.45227 0
M  V30 4125 H 383.846 -0.0918236 0.821887 0
M  V30 4126 H 386.392 0.570307 1.5983 0
M  V30 4127 H 385.164 0.997402 3.78375 0
M  V30 4128 H 384.787 -0.712845 3.91158 0
M  V30 4129 N 385.784 -1.5574 0.241426 0
M  V30 4130 C 387.061 -1.90704 -0.434881 0
M  V30 4131 C 387.441 -1.16145 -1.76277 0
M  V30 4132 O 386.789 -0.277152 -2.26813 0
M  V30 4133 C 386.999 -3.43657 -0.608343 0
M  V30 4134 C 388.347 -4.14806 -0.906725 0
M  V30 4135 O 389.371 -3.49366 -0.694408 0
M  V30 4136 O 388.23 -5.30548 -1.31075 0
M  V30 4137 H 385.324 -0.793592 -0.23268 0
M  V30 4138 H 387.87 -1.67288 0.285086 0
M  V30 4139 H 386.642 -3.89927 0.327505 0
M  V30 4140 H 386.265 -3.72918 -1.37906 0
M  V30 4141 N 387.262 0.0317525 -1.57568 0
M  V30 4142 C 388.539 0.758366 -1.803 0
M  V30 4143 C 388.919 1.93718 -0.838845 0
M  V30 4144 O 388.267 2.28187 0.119571 0
M  V30 4145 C 388.477 1.19392 -3.27943 0
M  V30 4146 C 389.825 1.61094 -3.92854 0
M  V30 4147 O 390.849 1.28857 -3.32076 0
M  V30 4148 O 389.708 2.20918 -4.99858 0
M  V30 4149 H 386.802 0.366514 -0.741348 0
M  V30 4150 H 389.348 0.00873765 -1.69698 0
M  V30 4151 H 388.12 0.352275 -3.89711 0
M  V30 4152 H 387.743 2.00365 -3.43424 0
M  V30 4153 N 388.74 1.54641 0.303973 0
M  V30 4154 C 390.017 1.64455 1.05896 0
M  V30 4155 C 390.397 0.490923 2.05312 0
M  V30 4156 O 389.745 -0.512685 2.22674 0
M  V30 4157 C 389.955 3.02331 1.74347 0
M  V30 4158 C 391.303 3.59045 2.26653 0
M  V30 4159 O 392.327 3.04764 1.84384 0
M  V30 4160 O 391.186 4.54081 3.04093 0
M  V30 4161 H 388.28 0.666729 0.489287 0
M  V30 4162 H 390.826 1.66986 0.302298 0
M  V30 4163 H 389.598 3.77734 1.02142 0
M  V30 4164 H 389.221 3.03565 2.56777 0
M  V30 4165 N 390.218 -0.567019 1.47046 0
M  V30 4166 C 391.495 -1.3276 1.43646 0
M  V30 4167 C 391.875 -2.1071 0.128186 0
M  V30 4168 O 391.223 -2.10441 -0.890326 0
M  V30 4169 C 391.433 -2.2404 2.67595 0
M  V30 4170 C 392.781 -2.85372 3.14401 0
M  V30 4171 O 393.805 -2.34346 2.68254 0
M  V30 4172 O 392.664 -3.78091 3.946 0
M  V30 4173 H 389.758 -0.597293 0.571988 0
M  V30 4174 H 392.304 -0.586735 1.59234 0
M  V30 4175 H 391.076 -1.65975 3.54356 0
M  V30 4176 H 390.699 -3.05439 2.54544 0
M  V30 4177 N 391.696 -1.35014 -0.812953 0
M  V30 4178 C 392.921 -1.31187 -1.60639 0
M  V30 4179 C 393.346 0.109382 -1.87782 0
M  V30 4180 O 392.704 1.07424 -1.46047 0
M  V30 4181 C 392.752 -2.11809 -2.91838 0
M  V30 4182 O 391.856 -1.49444 -3.8437 0
M  V30 4183 H 391.197 -0.450084 -0.488181 0
M  V30 4184 H 393.727 -1.77963 -1.00947 0
M  V30 4185 H 393.737 -2.23531 -3.41318 0
M  V30 4186 H 392.412 -3.15137 -2.71407 0
M  V30 4187 H 390.989 -1.46524 -3.42907 0
M  V30 4188 N 393.175 1.03435 -1.18907 0
M  V30 4189 C 394.452 1.73778 -0.89781 0
M  V30 4190 C 394.832 2.02458 0.597832 0
M  V30 4191 O 394.18 1.67482 1.55441 0
M  V30 4192 C 394.39 3.01845 -1.75187 0
M  V30 4193 C 395.738 3.7546 -1.9828 0
M  V30 4194 O 396.762 3.11759 -1.72293 0
M  V30 4195 O 395.621 4.89966 -2.42065 0
M  V30 4196 H 392.715 0.75651 -0.334098 0
M  V30 4197 H 395.261 1.09444 -1.29693 0
M  V30 4198 H 394.033 2.76836 -2.76545 0
M  V30 4199 H 393.656 3.73919 -1.35167 0
M  V30 4200 N 394.653 0.992116 1.22453 0
M  V30 4201 C 395.93 0.583508 1.86694 0
M  V30 4202 C 396.31 -0.9392 1.89056 0
M  V30 4203 O 395.658 -1.82081 1.38053 0
M  V30 4204 C 395.868 1.20304 3.2761 0
M  V30 4205 C 397.216 1.30308 4.0411 0
M  V30 4206 O 398.24 1.15737 3.36873 0
M  V30 4207 O 397.099 1.53615 5.24466 0
M  V30 4208 H 394.193 0.198129 0.802916 0
M  V30 4209 H 396.739 1.08794 1.30238 0
M  V30 4210 H 395.511 2.24461 3.2052 0
M  V30 4211 H 395.134 0.684144 3.9167 0
M  V30 4212 N 396.131 -1.37776 0.765217 0
M  V30 4213 C 397.377 -2.00604 0.336066 0
M  V30 4214 C 397.732 -1.59657 -1.07366 0
M  V30 4215 O 397.025 -0.829565 -1.7271 0
M  V30 4216 C 397.219 -3.5504 0.410053 0
M  V30 4217 C 397.048 -4.10985 1.82542 0
M  V30 4218 C 395.818 -4.42229 2.44461 0
M  V30 4219 C 398.016 -4.32438 2.78392 0
M  V30 4220 N 395.998 -4.8385 3.77839 0
M  V30 4221 C 397.369 -4.76596 3.96556 0
M  V30 4222 C 399.424 -4.14559 2.75764 0
M  V30 4223 C 398.127 -5.04748 5.12466 0
M  V30 4224 C 400.153 -4.43843 3.90842 0
M  V30 4225 C 399.515 -4.88235 5.07746 0
M  V30 4226 H 395.614 -0.763325 0.169881 0
M  V30 4227 H 398.198 -1.67197 0.997656 0
M  V30 4228 H 396.369 -3.87769 -0.221325 0
M  V30 4229 H 398.101 -4.0468 -0.0405285 0
M  V30 4230 H 394.856 -4.31079 1.96131 0
M  V30 4231 H 395.28 -5.08979 4.46396 0
M  V30 4232 H 399.922 -3.79415 1.86558 0
M  V30 4233 H 397.64 -5.38783 6.02277 0
M  V30 4234 H 401.226 -4.31603 3.90141 0
M  V30 4235 H 400.106 -5.10461 5.95315 0
M  V30 4236 N 397.609 -0.515225 -1.4894 0
M  V30 4237 C 398.834 0.022727 -2.07388 0
M  V30 4238 C 399.259 1.2876 -1.37122 0
M  V30 4239 O 398.617 1.76067 -0.432431 0
M  V30 4240 C 398.665 0.244869 -3.59768 0
M  V30 4241 O 397.769 1.31667 -3.90817 0
M  V30 4242 H 397.11 -0.0325506 -0.663202 0
M  V30 4243 H 399.64 -0.718918 -1.91553 0
M  V30 4244 H 399.65 0.47205 -4.0526 0
M  V30 4245 H 398.325 -0.679194 -4.10317 0
M  V30 4246 H 396.902 1.07331 -3.5712 0
M  V30 4247 N 399.087 1.5561 -0.249682 0
M  V30 4248 C 400.317 2.03116 0.377803 0
M  V30 4249 C 400.725 1.12822 1.51881 0
M  V30 4250 O 400.068 0.13562 1.83199 0
M  V30 4251 C 400.13 3.46866 0.944693 0
M  V30 4252 C 399.794 4.56955 -0.0644259 0
M  V30 4253 C 400.791 5.12485 -0.874957 0
M  V30 4254 C 398.476 5.01936 -0.19132 0
M  V30 4255 C 400.47 6.11491 -1.79881 0
M  V30 4256 C 398.157 6.00773 -1.11868 0
M  V30 4257 C 399.155 6.5543 -1.92095 0
M  V30 4258 O 398.843 7.5234 -2.83267 0
M  V30 4259 H 398.575 0.669489 0.0935961 0
M  V30 4260 H 401.129 2.02004 -0.371966 0
M  V30 4261 H 399.359 3.45136 1.74407 0
M  V30 4262 H 401.048 3.77856 1.48255 0
M  V30 4263 H 401.814 4.78564 -0.787523 0
M  V30 4264 H 397.693 4.59055 0.423072 0
M  V30 4265 H 401.237 6.54078 -2.42543 0
M  V30 4266 H 397.134 6.34114 -1.20703 0
M  V30 4267 H 397.902 7.69966 -2.7766 0
M  V30 4268 N 400.565 -0.0233959 1.57583 0
M  V30 4269 C 401.79 -0.728376 1.94189 0
M  V30 4270 C 402.215 -1.67793 0.850119 0
M  V30 4271 O 401.573 -1.80262 -0.19371 0
M  V30 4272 C 401.621 -1.45669 3.29868 0
M  V30 4273 O 400.725 -2.57013 3.22518 0
M  V30 4274 H 400.066 -0.195493 0.63457 0
M  V30 4275 H 402.596 0.0228214 2.04587 0
M  V30 4276 H 402.606 -1.82535 3.6489 0
M  V30 4277 H 401.281 -0.760314 4.08891 0
M  V30 4278 H 399.858 -2.22648 2.99136 0
M  V30 4279 N 402.043 -1.548 -0.295768 0
M  V30 4280 C 402.953 -1.89177 -1.38742 0
M  V30 4281 C 403.969 -0.786481 -1.55211 0
M  V30 4282 O 405.145 -1.08344 -1.69775 0
M  V30 4283 C 402.21 -2.13663 -2.73036 0
M  V30 4284 C 401.271 -3.37349 -2.65508 0
M  V30 4285 C 400.504 -3.60658 -3.93398 0
M  V30 4286 O 400.727 -2.86882 -4.93006 0
M  V30 4287 O 399.661 -4.54179 -3.94975 0
M  V30 4288 H 403.487 -2.82059 -1.12589 0
M  V30 4289 H 401.072 -1.41056 -0.492295 0
M  V30 4290 H 402.954 -2.3094 -3.52484 0
M  V30 4291 H 401.629 -1.23967 -2.99022 0
M  V30 4292 H 400.536 -3.25431 -1.84514 0
M  V30 4293 H 401.869 -4.27192 -2.44474 0
M  V30 4294 N 403.521 0.559213 -1.47345 0
M  V30 4295 C 404.798 1.31997 -1.44348 0
M  V30 4296 C 405.178 2.1064 -0.139358 0
M  V30 4297 O 404.526 2.1091 0.879153 0
M  V30 4298 C 404.736 2.22618 -2.68779 0
M  V30 4299 C 406.084 2.83701 -3.1591 0
M  V30 4300 O 407.108 2.32921 -2.69493 0
M  V30 4301 O 405.967 3.75993 -3.966 0
M  V30 4302 H 403.061 0.594251 -0.575147 0
M  V30 4303 H 405.607 0.578282 -1.59543 0
M  V30 4304 H 404.379 1.64093 -3.55231 0
M  V30 4305 H 404.002 3.04085 -2.5616 0
M  V30 4306 N 404.999 1.35443 0.805782 0
M  V30 4307 C 406.276 1.19325 1.54987 0
M  V30 4308 C 406.656 -0.227294 2.09873 0
M  V30 4309 O 406.004 -1.2309 1.92512 0
M  V30 4310 C 406.214 2.26196 2.65775 0
M  V30 4311 C 407.562 2.62043 3.34094 0
M  V30 4312 O 408.586 2.25115 2.76046 0
M  V30 4313 O 407.445 3.25542 4.38958 0
M  V30 4314 H 404.539 0.463623 0.684823 0
M  V30 4315 H 407.085 1.47127 0.845674 0
M  V30 4316 H 405.857 3.21471 2.23096 0
M  V30 4317 H 405.48 1.99667 3.43829 0
M  V30 4318 N 406.477 -1.02803 1.19454 0
M  V30 4319 C 407.425 -2.13213 0.929673 0
M  V30 4320 C 408.419 -1.69011 -0.114806 0
M  V30 4321 O 409.625 -1.79967 0.0345147 0
M  V30 4322 H 406 -0.69662 0.28324 0
M  V30 4323 H 407.971 -2.32744 1.86743 0
M  V30 4324 C 406.72 -3.4429 0.485797 0
M  V30 4325 H 406.043 -3.7872 1.28105 0
M  V30 4326 H 407.483 -4.22638 0.339582 0
M  V30 4327 C 405.942 -3.27258 -0.800244 0
M  V30 4328 O 406.472 -3.55967 -1.86146 0
M  V30 4329 N 404.678 -2.80545 -0.75781 0
M  V30 4330 H 404.225 -2.57382 0.106039 0
M  V30 4331 H 404.183 -2.6953 -1.61867 0
M  V30 4332 N 407.956 -0.998596 -1.21925 0
M  V30 4333 C 409.186 -0.695276 -1.94549 0
M  V30 4334 C 409.594 0.745079 -1.73911 0
M  V30 4335 O 408.937 1.51507 -1.03881 0
M  V30 4336 C 408.999 -0.928485 -3.47303 0
M  V30 4337 C 408.663 -2.35443 -3.91683 0
M  V30 4338 C 409.66 -3.33428 -3.98901 0
M  V30 4339 C 407.345 -2.69038 -4.24174 0
M  V30 4340 C 409.339 -4.63079 -4.37992 0
M  V30 4341 C 407.026 -3.98906 -4.62944 0
M  V30 4342 C 408.024 -4.95738 -4.69822 0
M  V30 4343 O 407.712 -6.23285 -5.07711 0
M  V30 4344 H 407.444 -0.255902 -0.625692 0
M  V30 4345 H 409.998 -1.33767 -1.5587 0
M  V30 4346 H 408.228 -0.228917 -3.86022 0
M  V30 4347 H 409.917 -0.619539 -4.01144 0
M  V30 4348 H 410.683 -3.08807 -3.73983 0
M  V30 4349 H 406.562 -1.94367 -4.18022 0
M  V30 4350 H 410.106 -5.38658 -4.43275 0
M  V30 4351 H 406.003 -4.23314 -4.87314 0
M  V30 4352 H 406.771 -6.27306 -5.25766 0
M  V30 4353 N 409.434 1.37368 -0.772513 0
M  V30 4354 C 410.397 2.28601 -0.165541 0
M  V30 4355 C 411.397 1.48062 0.627238 0
M  V30 4356 O 412.587 1.68268 0.450715 0
M  V30 4357 C 409.719 3.32023 0.772897 0
M  V30 4358 H 410.912 2.83787 -0.969787 0
M  V30 4359 H 408.465 1.46647 -0.540775 0
M  V30 4360 H 409.2 2.81962 1.60212 0
M  V30 4361 H 408.985 3.91555 0.206585 0
M  V30 4362 H 410.475 4.00197 1.19298 0
M  V30 4363 N 410.912 0.523116 1.48665 0
M  V30 4364 C 412.137 -0.0117284 2.07397 0
M  V30 4365 C 412.562 -1.28031 1.37803 0
M  V30 4366 O 411.92 -1.75836 0.441762 0
M  V30 4367 C 411.968 -0.225786 3.59892 0
M  V30 4368 O 411.072 -1.29592 3.91509 0
M  V30 4369 H 410.413 0.0360673 0.66302 0
M  V30 4370 H 412.943 0.729066 1.9117 0
M  V30 4371 H 412.953 -0.450552 4.05505 0
M  V30 4372 H 411.628 0.700944 4.09951 0
M  V30 4373 H 410.205 -1.05436 3.57684 0
M  V30 4374 N 412.39 -1.55475 0.257931 0
M  V30 4375 C 413.667 -1.91155 -0.414629 0
M  V30 4376 C 414.047 -1.18008 -1.75035 0
M  V30 4377 O 413.395 -0.301193 -2.26506 0
M  V30 4378 C 413.605 -3.44283 -0.571859 0
M  V30 4379 C 414.953 -4.15744 -0.862678 0
M  V30 4380 O 415.977 -3.50083 -0.657314 0
M  V30 4381 O 414.836 -5.31909 -1.2544 0
M  V30 4382 H 411.93 -0.796016 -0.22425 0
M  V30 4383 H 414.476 -1.66976 0.302814 0
M  V30 4384 H 413.248 -3.89558 0.368844 0
M  V30 4385 H 412.871 -3.7436 -1.33943 0
M  V30 4386 N 413.868 0.0150385 -1.57593 0
M  V30 4387 C 414.778 1.02791 -2.10882 0
M  V30 4388 C 415.794 1.38702 -1.0506 0
M  V30 4389 O 416.97 1.47739 -1.36877 0
M  V30 4390 C 414.035 2.30568 -2.58919 0
M  V30 4391 C 413.096 2.01108 -3.79281 0
M  V30 4392 C 412.329 3.22794 -4.25018 0
M  V30 4393 O 412.552 4.33959 -3.70183 0
M  V30 4394 O 411.486 3.07672 -5.17322 0
M  V30 4395 H 415.312 0.604973 -2.97613 0
M  V30 4396 H 412.897 0.23292 -1.47573 0
M  V30 4397 H 414.779 3.05662 -2.90084 0
M  V30 4398 H 413.454 2.72129 -1.75293 0
M  V30 4399 H 412.361 1.23537 -3.53114 0
M  V30 4400 H 413.694 1.64394 -4.63935 0
M  V30 4401 N 415.346 1.54954 0.287554 0
M  V30 4402 C 416.256 1.8991 1.37736 0
M  V30 4403 C 417.272 0.794701 1.54792 0
M  V30 4404 O 418.448 1.09243 1.69198 0
M  V30 4405 C 415.513 2.15108 2.71899 0
M  V30 4406 C 414.574 3.38752 2.63715 0
M  V30 4407 C 413.807 3.62739 3.91479 0
M  V30 4408 O 414.03 2.89492 4.91478 0
M  V30 4409 O 412.964 4.56267 3.92561 0
M  V30 4410 H 416.79 2.82652 1.11092 0
M  V30 4411 H 414.375 1.41315 0.484807 0
M  V30 4412 H 416.257 2.32806 3.51254 0
M  V30 4413 H 414.932 1.25551 2.9836 0
M  V30 4414 H 413.839 3.26405 1.82786 0
M  V30 4415 H 415.172 4.28483 2.42205 0
M  V30 4416 N 416.824 -0.551391 1.4764 0
M  V30 4417 C 418.101 -1.31229 1.45046 0
M  V30 4418 C 418.481 -2.10563 0.150527 0
M  V30 4419 O 417.829 -2.11374 -0.867956 0
M  V30 4420 C 418.039 -2.21189 2.69956 0
M  V30 4421 C 419.387 -2.82021 3.1741 0
M  V30 4422 O 420.411 -2.31488 2.70724 0
M  V30 4423 O 419.27 -3.73885 3.98588 0
M  V30 4424 H 416.364 -0.591193 0.578291 0
M  V30 4425 H 418.91 -0.569813 1.59847 0
M  V30 4426 H 417.682 -1.62207 3.56096 0
M  V30 4427 H 417.305 -3.02722 2.57769 0
M  V30 4428 N 418.302 -1.35869 -0.798587 0
M  V30 4429 C 419.579 -1.20145 -1.54352 0
M  V30 4430 C 419.959 0.216161 -2.0999 0
M  V30 4431 O 419.307 1.22068 -1.93162 0
M  V30 4432 C 419.517 -2.27602 -2.64572 0
M  V30 4433 C 420.865 -2.63811 -3.32699 0
M  V30 4434 O 421.889 -2.26576 -2.74849 0
M  V30 4435 O 420.748 -3.27866 -4.37226 0
M  V30 4436 H 417.842 -0.467248 -0.682355 0
M  V30 4437 H 420.388 -1.47574 -0.837859 0
M  V30 4438 H 419.16 -3.2265 -2.21388 0
M  V30 4439 H 418.783 -2.01488 -3.42766 0
M  V30 4440 N 419.78 1.02168 -1.19998 0
M  V30 4441 C 420.727 2.10601 -0.944228 0
M  V30 4442 C 421.697 1.65639 0.123664 0
M  V30 4443 O 422.882 1.9079 -0.0199941 0
M  V30 4444 C 420.022 3.41504 -0.496865 0
M  V30 4445 C 419.135 3.99973 -1.63234 0
M  V30 4446 C 418.27 5.18915 -1.13579 0
M  V30 4447 C 417.309 5.69456 -2.24468 0
M  V30 4448 N 416.446 6.79665 -1.76068 0
M  V30 4449 H 421.286 2.31814 -1.8726 0
M  V30 4450 H 418.823 1.13686 -0.933483 0
M  V30 4451 H 420.781 4.16626 -0.218843 0
M  V30 4452 H 419.411 3.2038 0.394508 0
M  V30 4453 H 418.463 3.21997 -2.0254 0
M  V30 4454 H 419.775 4.33492 -2.46752 0
M  V30 4455 H 418.929 6.01222 -0.813429 0
M  V30 4456 H 417.668 4.8695 -0.270434 0
M  V30 4457 H 416.673 4.85757 -2.57526 0
M  V30 4458 H 417.898 6.03459 -3.11472 0
M  V30 4459 H 415.844 6.49538 -0.918516 0
M  V30 4460 H 415.761 7.12349 -2.5317 0
M  V30 4461 H 417.029 7.65549 -1.46817 0
M  V30 4462 N 421.258 1.00505 1.21394 0
M  V30 4463 C 422.486 0.706609 1.9446 0
M  V30 4464 C 422.901 -0.73081 1.74082 0
M  V30 4465 O 422.258 -1.49446 1.04747 0
M  V30 4466 C 422.309 1.01824 3.46863 0
M  V30 4467 O 422.03 2.39919 3.66566 0
M  V30 4468 C 423.531 0.739216 4.37093 0
M  V30 4469 H 420.751 0.260394 0.618414 0
M  V30 4470 H 423.295 1.34311 1.54211 0
M  V30 4471 H 421.45 0.427343 3.85036 0
M  V30 4472 H 421.864 2.50784 4.6066 0
M  V30 4473 H 423.338 1.00744 5.42729 0
M  V30 4474 H 423.815 -0.326746 4.37983 0
M  V30 4475 H 424.421 1.31173 4.04566 0
M  V30 4476 N 422.737 -1.36956 0.779787 0
M  V30 4477 C 423.684 -2.30175 0.169697 0
M  V30 4478 C 424.654 -1.51501 -0.68094 0
M  V30 4479 O 425.839 -1.80042 -0.631629 0
M  V30 4480 C 422.979 -3.37985 -0.697131 0
M  V30 4481 C 422.092 -4.31661 0.170992 0
M  V30 4482 C 421.227 -5.2655 -0.701298 0
M  V30 4483 C 420.266 -6.11867 0.168869 0
M  V30 4484 N 419.403 -6.98973 -0.661855 0
M  V30 4485 H 424.243 -2.81767 0.970135 0
M  V30 4486 H 421.78 -1.38699 0.489994 0
M  V30 4487 H 423.738 -3.99128 -1.2146 0
M  V30 4488 H 422.368 -2.87739 -1.46309 0
M  V30 4489 H 421.42 -3.71756 0.80634 0
M  V30 4490 H 422.732 -4.91644 0.841875 0
M  V30 4491 H 421.886 -5.92937 -1.28494 0
M  V30 4492 H 420.625 -4.66998 -1.40584 0
M  V30 4493 H 419.63 -5.44452 0.764986 0
M  V30 4494 H 420.855 -6.73493 0.870863 0
M  V30 4495 H 418.801 -6.41941 -1.35086 0
M  V30 4496 H 418.718 -7.55984 -0.0484447 0
M  V30 4497 H 419.986 -7.6974 -1.22963 0
M  V30 4498 N 424.215 -0.530993 -1.48385 0
M  V30 4499 C 425.163 0.244595 -2.3131 0
M  V30 4500 C 426.157 0.93451 -1.41291 0
M  V30 4501 O 427.363 0.85878 -1.58193 0
M  V30 4502 H 423.738 0.0977472 -0.74562 0
M  V30 4503 H 425.709 -0.474369 -2.94605 0
M  V30 4504 C 424.458 1.2779 -3.23365 0
M  V30 4505 H 423.781 0.756439 -3.92579 0
M  V30 4506 H 425.221 1.79198 -3.84271 0
M  V30 4507 C 423.68 2.31205 -2.45042 0
M  V30 4508 O 424.21 3.37661 -2.17596 0
M  V30 4509 N 422.416 2.04446 -2.0652 0
M  V30 4510 H 421.963 1.17891 -2.2904 0
M  V30 4511 H 421.921 2.73861 -1.54427 0
M  V30 4512 N 425.693 1.55336 -0.266172 0
M  V30 4513 C 426.656 2.20878 0.612001 0
M  V30 4514 C 427.656 1.18388 1.08816 0
M  V30 4515 O 428.846 1.4335 0.989774 0
M  V30 4516 C 425.978 2.86765 1.84332 0
M  V30 4517 H 427.171 2.99873 0.0398718 0
M  V30 4518 H 424.724 1.56291 -0.0167309 0
M  V30 4519 H 425.459 2.11759 2.45619 0
M  V30 4520 H 425.244 3.61862 1.5099 0
M  V30 4521 H 426.734 3.36867 2.46801 0
M  V30 4522 N 427.171 -0.0066808 1.57599 0
M  V30 4523 C 428.104 -1.03397 2.03431 0
M  V30 4524 C 429.082 -1.33872 0.922877 0
M  V30 4525 O 430.266 -1.4615 1.19048 0
M  V30 4526 C 427.393 -2.36325 2.42628 0
M  V30 4527 C 426.439 -2.21557 3.64438 0
M  V30 4528 S 427.272 -1.54789 5.12641 0
M  V30 4529 C 428.428 -2.8916 5.55101 0
M  V30 4530 H 428.661 -0.643687 2.90248 0
M  V30 4531 H 426.194 -0.217349 1.52863 0
M  V30 4532 H 428.152 -3.12759 2.65879 0
M  V30 4533 H 426.813 -2.72495 1.56222 0
M  V30 4534 H 426.006 -3.1974 3.89592 0
M  V30 4535 H 425.608 -1.53267 3.41153 0
M  V30 4536 H 427.9 -3.8547 5.57153 0
M  V30 4537 H 428.843 -2.68713 6.55133 0
M  V30 4538 H 429.251 -2.92762 4.82649 0
M  V30 4539 N 428.649 -1.55105 -0.279332 0
M  V30 4540 C 429.874 -1.7976 -1.03446 0
M  V30 4541 C 430.299 -0.565952 -1.79384 0
M  V30 4542 O 429.657 0.484259 -1.74713 0
M  V30 4543 C 429.705 -3.0179 -1.97371 0
M  V30 4544 O 428.809 -2.76432 -3.06038 0
M  V30 4545 H 428.15 -0.594334 -0.29608 0
M  V30 4546 H 430.68 -2.02235 -0.310165 0
M  V30 4547 H 430.69 -3.30351 -2.39441 0
M  V30 4548 H 429.365 -3.91085 -1.4151 0
M  V30 4549 H 427.942 -2.58949 -2.68328 0
M  V30 4550 N 430.127 0.543554 -1.4793 0
M  V30 4551 C 431.074 1.64942 -1.6144 0
M  V30 4552 C 432.044 1.59692 -0.456903 0
M  V30 4553 O 433.229 1.78321 -0.678688 0
M  V30 4554 C 430.369 3.03238 -1.64744 0
M  V30 4555 C 429.482 3.18823 -2.91506 0
M  V30 4556 C 428.617 4.47599 -2.86057 0
M  V30 4557 C 427.656 4.56664 -4.07584 0
M  V30 4558 N 426.793 5.76811 -4.00292 0
M  V30 4559 H 431.633 1.52733 -2.55884 0
M  V30 4560 H 429.17 0.7438 -1.2691 0
M  V30 4561 H 431.128 3.83339 -1.64641 0
M  V30 4562 H 429.758 3.1425 -0.738017 0
M  V30 4563 H 428.81 2.32064 -3.01414 0
M  V30 4564 H 430.122 3.21384 -3.81463 0
M  V30 4565 H 429.276 5.35975 -2.84281 0
M  V30 4566 H 428.015 4.47538 -1.93807 0
M  V30 4567 H 427.02 3.66697 -4.09651 0
M  V30 4568 H 428.245 4.58474 -5.00978 0
M  V30 4569 H 426.191 5.77673 -3.10853 0
M  V30 4570 H 426.108 5.80808 -4.8394 0
M  V30 4571 H 427.376 6.67512 -4.02553 0
M  V30 4572 N 431.605 1.3629 0.791371 0
M  V30 4573 C 432.851 1.31613 1.5508 0
M  V30 4574 C 433.206 -0.104372 1.92117 0
M  V30 4575 O 432.499 -1.05845 1.5971 0
M  V30 4576 C 432.693 2.17068 2.8393 0
M  V30 4577 C 432.522 3.67285 2.59484 0
M  V30 4578 C 431.292 4.36469 2.54604 0
M  V30 4579 C 433.49 4.60595 2.28816 0
M  V30 4580 N 431.472 5.7234 2.22036 0
M  V30 4581 C 432.843 5.847 2.06218 0
M  V30 4582 C 434.898 4.4918 2.14806 0
M  V30 4583 C 433.601 6.98671 1.71028 0
M  V30 4584 C 435.627 5.63017 1.81014 0
M  V30 4585 C 434.989 6.86159 1.59263 0
M  V30 4586 H 431.088 0.536878 0.568582 0
M  V30 4587 H 433.672 1.71323 0.925007 0
M  V30 4588 H 431.843 1.79605 3.44378 0
M  V30 4589 H 433.575 2.03795 3.49642 0
M  V30 4590 H 430.33 3.89249 2.69782 0
M  V30 4591 H 430.754 6.44093 2.08503 0
M  V30 4592 H 435.396 3.54564 2.30313 0
M  V30 4593 H 433.114 7.9324 1.54259 0
M  V30 4594 H 436.7 5.56146 1.70861 0
M  V30 4595 H 435.58 7.72753 1.335 0
M  V30 4596 N 433.083 -1.0153 1.20538 0
M  V30 4597 C 434.331 -1.74803 1.01432 0
M  V30 4598 C 434.652 -1.8963 -0.454456 0
M  V30 4599 O 433.922 -1.43975 -1.32846 0
M  V30 4600 H 432.502 -0.647598 0.372324 0
M  V30 4601 H 435.164 -1.22402 1.5167 0
M  V30 4602 H 434.26 -2.75114 1.47373 0
M  V30 4603 N 434.561 -1.01147 -1.20859 0
M  V30 4604 C 435.491 -0.597663 -2.25722 0
M  V30 4605 C 436.472 0.384744 -1.65692 0
M  V30 4606 O 437.657 0.271303 -1.92296 0
M  V30 4607 C 434.787 0.0700149 -3.47229 0
M  V30 4608 C 433.741 -0.832843 -4.19819 0
M  V30 4609 C 433.067 -0.0312202 -5.34691 0
M  V30 4610 C 434.367 -2.1385 -4.76514 0
M  V30 4611 H 436.061 -1.47423 -2.60589 0
M  V30 4612 H 433.607 -0.710301 -1.25263 0
M  V30 4613 H 435.56 0.37103 -4.19763 0
M  V30 4614 H 434.284 0.981259 -3.11511 0
M  V30 4615 H 432.943 -1.11778 -3.49144 0
M  V30 4616 H 432.591 0.881515 -4.95215 0
M  V30 4617 H 432.291 -0.632434 -5.84187 0
M  V30 4618 H 433.815 0.26346 -6.10031 0
M  V30 4619 H 435.229 -1.9002 -5.40893 0
M  V30 4620 H 433.626 -2.69012 -5.36426 0
M  V30 4621 H 434.696 -2.80495 -3.95538 0
M  V30 4622 N 436.039 1.36541 -0.78704 0
M  V30 4623 C 436.986 2.30082 -0.181901 0
M  V30 4624 C 437.956 1.5186 0.672896 0
M  V30 4625 O 439.141 1.80374 0.622072 0
M  V30 4626 C 436.281 3.3835 0.679197 0
M  V30 4627 C 435.394 4.31565 -0.193882 0
M  V30 4628 C 434.529 5.26915 0.673364 0
M  V30 4629 C 433.568 6.11769 -0.201315 0
M  V30 4630 N 432.705 6.99315 0.624777 0
M  V30 4631 H 437.545 2.81248 -0.985064 0
M  V30 4632 H 435.082 1.38437 -0.497342 0
M  V30 4633 H 437.04 3.99767 1.19341 0
M  V30 4634 H 435.67 2.8851 1.44781 0
M  V30 4635 H 434.722 3.71323 -0.826044 0
M  V30 4636 H 436.034 4.91191 -0.867937 0
M  V30 4637 H 435.188 5.9361 1.25348 0
M  V30 4638 H 433.927 4.67737 1.38105 0
M  V30 4639 H 432.932 5.44039 -0.793849 0
M  V30 4640 H 434.157 6.73022 -0.906568 0
M  V30 4641 H 432.103 6.42648 1.3168 0
M  V30 4642 H 432.02 7.56 0.00835237 0
M  V30 4643 H 433.288 7.70382 1.18879 0
M  V30 4644 N 437.518 0.538854 1.48102 0
M  V30 4645 C 438.746 0.0123136 2.06896 0
M  V30 4646 C 439.161 -1.27312 1.39417 0
M  V30 4647 O 438.518 -1.75949 0.484582 0
M  V30 4648 C 438.569 -0.206118 3.60912 0
M  V30 4649 O 438.29 1.0284 4.25859 0
M  V30 4650 C 439.791 -0.772033 4.36526 0
M  V30 4651 H 437.011 0.0375239 0.66995 0
M  V30 4652 H 439.555 0.747032 1.90367 0
M  V30 4653 H 437.71 -0.89091 3.77017 0
M  V30 4654 H 438.124 0.814654 5.18135 0
M  V30 4655 H 439.598 -0.874251 5.45033 0
M  V30 4656 H 440.075 -1.77904 4.01555 0
M  V30 4657 H 440.681 -0.123526 4.25121 0
M  V30 4658 N 438.996 -1.55193 0.274407 0
M  V30 4659 C 440.221 -2.04446 -0.348824 0
M  V30 4660 C 440.646 -1.15149 -1.48735 0
M  V30 4661 O 440.004 -0.149952 -1.80679 0
M  V30 4662 C 440.052 -3.51431 -0.808009 0
M  V30 4663 O 439.156 -3.65225 -1.91531 0
M  V30 4664 H 438.497 -0.66006 -0.0722276 0
M  V30 4665 H 441.027 -2.00481 0.408498 0
M  V30 4666 H 441.037 -3.92781 -1.10395 0
M  V30 4667 H 439.712 -4.15892 0.0249865 0
M  V30 4668 H 438.289 -3.35778 -1.62196 0
M  V30 4669 N 440.474 -0.00167713 -1.576 0
M  V30 4670 C 441.702 0.693759 -1.94922 0
M  V30 4671 C 442.117 1.67215 -0.876626 0
M  V30 4672 O 441.474 1.81929 0.144279 0
M  V30 4673 C 441.525 1.42416 -3.32265 0
M  V30 4674 O 441.246 0.485014 -4.35407 0
M  V30 4675 C 442.747 2.21395 -3.84056 0
M  V30 4676 H 439.967 0.193118 -0.642609 0
M  V30 4677 H 442.511 -0.0532952 -2.04431 0
M  V30 4678 H 440.666 2.12284 -3.24059 0
M  V30 4679 H 441.08 1.00053 -5.14868 0
M  V30 4680 H 442.554 2.67996 -4.82578 0
M  V30 4681 H 443.031 3.04142 -3.16851 0
M  V30 4682 H 443.637 1.56542 -3.95443 0
M  V30 4683 N 441.952 1.55251 0.271103 0
M  V30 4684 C 442.899 1.88261 1.33516 0
M  V30 4685 C 443.869 0.734296 1.48988 0
M  V30 4686 O 445.054 0.985741 1.63364 0
M  V30 4687 C 442.194 2.16168 2.69008 0
M  V30 4688 C 441.307 3.43678 2.61743 0
M  V30 4689 C 440.442 3.61276 3.89427 0
M  V30 4690 C 439.481 4.82472 3.7668 0
M  V30 4691 N 438.618 4.96717 4.96202 0
M  V30 4692 H 443.458 2.79015 1.04665 0
M  V30 4693 H 440.995 1.38137 0.505618 0
M  V30 4694 H 442.953 2.30349 3.47844 0
M  V30 4695 H 441.583 1.28646 2.96057 0
M  V30 4696 H 440.635 3.37959 1.74607 0
M  V30 4697 H 441.947 4.3265 2.48224 0
M  V30 4698 H 441.101 3.75284 4.76704 0
M  V30 4699 H 439.84 2.70492 4.05814 0
M  V30 4700 H 438.845 4.68465 2.87786 0
M  V30 4701 H 440.07 5.74692 3.61809 0
M  V30 4702 H 438.016 4.08865 5.12997 0
M  V30 4703 H 437.933 5.79738 4.85222 0
M  V30 4704 H 439.201 5.15113 5.85046 0
M  V30 4705 N 443.43 -0.535701 1.48216 0
M  V30 4706 C 444.676 -1.29375 1.56173 0
M  V30 4707 C 445.009 -1.92804 0.232429 0
M  V30 4708 O 444.284 -1.78992 -0.761048 0
M  V30 4709 C 444.567 -2.38747 2.69577 0
M  V30 4710 C 444.42 -1.80046 4.12193 0
M  V30 4711 C 445.739 -3.40551 2.78771 0
M  V30 4712 H 442.858 -0.469027 0.568491 0
M  V30 4713 H 445.5 -0.597358 1.80365 0
M  V30 4714 H 443.65 -2.98147 2.4908 0
M  V30 4715 H 445.322 -1.24742 4.44114 0
M  V30 4716 H 443.565 -1.10609 4.19462 0
M  V30 4717 H 444.236 -2.59212 4.87353 0
M  V30 4718 H 446.712 -2.91099 2.97322 0
M  V30 4719 H 445.588 -4.1448 3.59857 0
M  V30 4720 H 445.849 -4.00746 1.86696 0
M  V30 4721 N 444.908 -1.36708 -0.784132 0
M  V30 4722 C 445.818 -1.3363 -1.92822 0
M  V30 4723 C 446.834 -0.237686 -1.72369 0
M  V30 4724 O 448.01 -0.470962 -1.95816 0
M  V30 4725 C 445.075 -1.13011 -3.27764 0
M  V30 4726 C 444.136 -2.32397 -3.60957 0
M  V30 4727 C 443.369 -2.12752 -4.89461 0
M  V30 4728 O 443.592 -1.10541 -5.59586 0
M  V30 4729 O 442.526 -3.00653 -5.21432 0
M  V30 4730 H 446.352 -2.29964 -1.98369 0
M  V30 4731 H 443.937 -1.1731 -0.925136 0
M  V30 4732 H 445.819 -1.03451 -4.08504 0
M  V30 4733 H 444.494 -0.19743 -3.23097 0
M  V30 4734 H 443.401 -2.47527 -2.80502 0
M  V30 4735 H 444.734 -3.2419 -3.70354 0
M  V30 4736 N 446.386 1.0089 -1.21074 0
M  V30 4737 C 447.333 2.09588 -0.966512 0
M  V30 4738 C 448.303 1.65761 0.106089 0
M  V30 4739 O 449.488 1.90758 -0.0402287 0
M  V30 4740 C 446.628 3.40958 -0.533058 0
M  V30 4741 C 445.741 3.9822 -1.67467 0
M  V30 4742 C 444.876 5.17682 -1.19076 0
M  V30 4743 C 443.915 5.67043 -2.30496 0
M  V30 4744 N 443.052 6.77759 -1.83267 0
M  V30 4745 H 447.892 2.29815 -1.89708 0
M  V30 4746 H 445.429 1.12689 -0.945489 0
M  V30 4747 H 447.387 4.1637 -0.263019 0
M  V30 4748 H 446.017 3.20781 0.360505 0
M  V30 4749 H 445.069 3.1983 -2.05944 0
M  V30 4750 H 446.381 4.3085 -2.51336 0
M  V30 4751 H 445.535 6.00326 -0.877151 0
M  V30 4752 H 444.274 4.86635 -0.322066 0
M  V30 4753 H 443.279 4.82999 -2.62664 0
M  V30 4754 H 444.504 6.00121 -3.17855 0
M  V30 4755 H 442.45 6.48527 -0.987356 0
M  V30 4756 H 442.367 7.09624 -2.60711 0
M  V30 4757 H 443.635 7.63949 -1.54928 0
M  V30 4758 N 447.864 1.01787 1.20321 0
M  V30 4759 C 448.811 0.589197 2.23153 0
M  V30 4760 C 449.781 -0.391367 1.61423 0
M  V30 4761 O 450.966 -0.290518 1.88575 0
M  V30 4762 C 448.106 -0.0650747 3.45039 0
M  V30 4763 C 447.219 0.960207 4.21194 0
M  V30 4764 C 446.354 0.276854 5.30478 0
M  V30 4765 C 445.393 1.2888 5.98378 0
M  V30 4766 N 444.53 0.632031 6.99249 0
M  V30 4767 H 449.37 1.47071 2.59179 0
M  V30 4768 H 446.907 0.736192 1.27352 0
M  V30 4769 H 448.865 -0.461552 4.14639 0
M  V30 4770 H 447.495 -0.910233 3.09701 0
M  V30 4771 H 446.547 1.47484 3.50646 0
M  V30 4772 H 447.859 1.72977 4.67847 0
M  V30 4773 H 447.013 -0.175056 6.06447 0
M  V30 4774 H 445.752 -0.525004 4.84866 0
M  V30 4775 H 444.757 1.75109 5.21169 0
M  V30 4776 H 445.982 2.09196 6.46076 0
M  V30 4777 H 443.928 -0.149935 6.55829 0
M  V30 4778 H 443.845 1.33964 7.44036 0
M  V30 4779 H 445.113 0.203755 7.79234 0
M  V30 4780 N 449.342 -1.36122 0.79427 0
M  V30 4781 C 450.289 -2.29982 0.194101 0
M  V30 4782 C 451.259 -1.52214 -0.664833 0
M  V30 4783 O 452.444 -1.80702 -0.612498 0
M  V30 4784 C 449.584 -3.38706 -0.661244 0
M  V30 4785 C 448.697 -4.31456 0.216766 0
M  V30 4786 C 447.832 -5.27265 -0.645411 0
M  V30 4787 C 446.871 -6.11653 0.233756 0
M  V30 4788 N 446.008 -6.99636 -0.587682 0
M  V30 4789 H 450.848 -2.80722 0.999965 0
M  V30 4790 H 448.385 -1.38172 0.504677 0
M  V30 4791 H 450.343 -4.00394 -1.17219 0
M  V30 4792 H 448.973 -2.89274 -1.43249 0
M  V30 4793 H 448.025 -3.7088 0.845724 0
M  V30 4794 H 449.337 -4.90724 0.893973 0
M  V30 4795 H 448.491 -5.94266 -1.22198 0
M  V30 4796 H 447.23 -4.68463 -1.35623 0
M  V30 4797 H 446.235 -5.4361 0.82269 0
M  V30 4798 H 447.46 -6.72531 0.942247 0
M  V30 4799 H 445.406 -6.43337 -1.2827 0
M  V30 4800 H 445.323 -7.55993 0.0317402 0
M  V30 4801 H 446.591 -7.71001 -1.14792 0
M  V30 4802 N 450.82 -0.546701 -1.47814 0
M  V30 4803 C 452.048 -0.0232857 -2.06887 0
M  V30 4804 C 452.463 1.26571 -1.4009 0
M  V30 4805 O 451.82 1.7569 -0.493906 0
M  V30 4806 C 451.871 0.186975 -3.61016 0
M  V30 4807 O 451.592 -1.05097 -4.25307 0
M  V30 4808 C 453.093 0.748872 -4.36929 0
M  V30 4809 H 450.313 -0.0410763 -0.669742 0
M  V30 4810 H 452.857 -0.757117 -1.89968 0
M  V30 4811 H 451.012 0.870903 -3.77484 0
M  V30 4812 H 451.426 -0.842121 -5.17695 0
M  V30 4813 H 452.9 0.845334 -5.45489 0
M  V30 4814 H 453.377 1.75772 -4.02493 0
M  V30 4815 H 453.983 0.100979 -4.2518 0
M  V30 4816 N 452.299 1.55045 -0.282633 0
M  V30 4817 C 453.545 2.00056 0.332481 0
M  V30 4818 C 453.878 1.1708 1.54939 0
M  V30 4819 O 453.153 0.2427 1.9298 0
M  V30 4820 C 453.436 3.53086 0.70725 0
M  V30 4821 C 453.289 4.46813 -0.517521 0
M  V30 4822 C 454.608 4.12245 1.54084 0
M  V30 4823 H 451.727 0.727268 0.119373 0
M  V30 4824 H 454.369 1.85932 -0.391076 0
M  V30 4825 H 452.519 3.65253 1.32372 0
M  V30 4826 H 454.191 4.46579 -1.15607 0
M  V30 4827 H 452.434 4.18163 -1.1542 0
M  V30 4828 H 453.105 5.51595 -0.211426 0
M  V30 4829 H 455.581 4.03401 1.02013 0
M  V30 4830 H 454.457 5.19515 1.77186 0
M  V30 4831 H 454.718 3.62951 2.52427 0
M  V30 4832 N 453.777 0.010035 1.57597 0
M  V30 4833 C 454.724 -0.978122 2.09049 0
M  V30 4834 C 455.694 -1.33509 0.988159 0
M  V30 4835 O 456.879 -1.43172 1.26121 0
M  V30 4836 C 454.019 -2.26158 2.60666 0
M  V30 4837 C 453.132 -1.96275 3.84838 0
M  V30 4838 C 452.267 -3.18776 4.24918 0
M  V30 4839 C 451.306 -2.84625 5.41899 0
M  V30 4840 N 450.443 -3.99693 5.77226 0
M  V30 4841 H 455.283 -0.532431 2.93205 0
M  V30 4842 H 452.82 -0.251234 1.44939 0
M  V30 4843 H 454.778 -3.01202 2.88675 0
M  V30 4844 H 453.408 -2.68378 1.79369 0
M  V30 4845 H 452.46 -1.11555 3.63675 0
M  V30 4846 H 453.772 -1.67111 4.69974 0
M  V30 4847 H 452.926 -4.02157 4.54262 0
M  V30 4848 H 451.665 -3.51087 3.38511 0
M  V30 4849 H 450.67 -1.99653 5.12268 0
M  V30 4850 H 451.895 -2.53551 6.29991 0
M  V30 4851 H 449.841 -4.31882 4.93776 0
M  V30 4852 H 449.758 -3.74087 6.56959 0
M  V30 4853 H 451.026 -4.83834 6.11167 0
M  V30 4854 N 455.255 -1.55392 -0.262866 0
M  V30 4855 C 456.187 -1.85392 -1.34768 0
M  V30 4856 C 457.2 -0.739069 -1.45057 0
M  V30 4857 O 458.389 -1.01703 -1.46693 0
M  V30 4858 C 455.489 -2.01088 -2.72795 0
M  V30 4859 C 454.662 -3.31828 -2.84972 0
M  V30 4860 C 453.721 -3.37464 -4.03738 0
M  V30 4861 O 452.747 -4.10778 -3.94018 0
M  V30 4862 N 453.949 -2.65599 -5.16176 0
M  V30 4863 H 456.714 -2.79029 -1.09375 0
M  V30 4864 H 454.275 -1.55434 -0.452981 0
M  V30 4865 H 456.267 -2.02217 -3.50557 0
M  V30 4866 H 454.837 -1.1427 -2.90966 0
M  V30 4867 H 454.057 -3.43152 -1.94012 0
M  V30 4868 H 455.345 -4.18032 -2.90045 0
M  V30 4869 H 454.743 -2.05736 -5.26962 0
M  V30 4870 H 453.3 -2.72439 -5.92132 0
M  V30 4871 N 456.733 0.527833 -1.48498 0
M  V30 4872 C 457.68 1.6322 -1.6318 0
M  V30 4873 C 458.65 1.59199 -0.473815 0
M  V30 4874 O 459.835 1.77591 -0.697563 0
M  V30 4875 C 456.975 3.01474 -1.67951 0
M  V30 4876 C 456.088 3.15713 -2.94871 0
M  V30 4877 C 455.223 4.44539 -2.90789 0
M  V30 4878 C 454.262 4.52315 -4.12404 0
M  V30 4879 N 453.399 5.72533 -4.06387 0
M  V30 4880 H 458.239 1.50011 -2.57489 0
M  V30 4881 H 455.776 0.730298 -1.27691 0
M  V30 4882 H 457.734 3.81572 -1.68698 0
M  V30 4883 H 456.364 3.1345 -0.771306 0
M  V30 4884 H 455.416 2.28854 -3.03859 0
M  V30 4885 H 456.728 3.1732 -3.8485 0
M  V30 4886 H 455.882 5.3293 -2.89949 0
M  V30 4887 H 454.621 4.45457 -1.98542 0
M  V30 4888 H 453.626 3.62331 -4.13517 0
M  V30 4889 H 454.851 4.53134 -5.05812 0
M  V30 4890 H 452.797 5.74344 -3.16962 0
M  V30 4891 H 452.714 5.75643 -4.90073 0
M  V30 4892 H 453.982 6.63204 -4.0961 0
M  V30 4893 N 458.211 1.37122 0.776871 0
M  V30 4894 C 459.158 1.3247 1.88998 0
M  V30 4895 C 460.128 0.191143 1.64997 0
M  V30 4896 O 461.313 0.379683 1.86984 0
M  V30 4897 C 458.453 1.13241 3.25992 0
M  V30 4898 C 457.566 2.35782 3.61982 0
M  V30 4899 C 456.701 2.09465 4.88158 0
M  V30 4900 C 455.74 3.279 5.16864 0
M  V30 4901 N 454.877 3.01167 6.34226 0
M  V30 4902 H 459.717 2.27642 1.9231 0
M  V30 4903 H 457.254 1.13125 0.94027 0
M  V30 4904 H 459.212 1.00115 4.0501 0
M  V30 4905 H 457.842 0.217186 3.22069 0
M  V30 4906 H 456.894 2.59666 2.77989 0
M  V30 4907 H 458.206 3.24125 3.79137 0
M  V30 4908 H 457.36 1.93341 5.75069 0
M  V30 4909 H 456.099 1.18452 4.73097 0
M  V30 4910 H 455.104 3.44569 4.2843 0
M  V30 4911 H 456.329 4.19757 5.33836 0
M  V30 4912 H 454.275 2.12779 6.20533 0
M  V30 4913 H 454.192 3.83052 6.51772 0
M  V30 4914 H 455.46 2.88649 7.24087 0
M  V30 4915 N 459.689 -1.00246 1.21608 0
M  V30 4916 C 460.935 -1.74319 1.03638 0
M  V30 4917 C 461.268 -1.89408 -0.428749 0
M  V30 4918 O 460.543 -1.43026 -1.3181 0
M  V30 4919 C 460.826 -3.15431 1.73711 0
M  V30 4920 C 460.679 -3.08049 3.27759 0
M  V30 4921 C 461.998 -4.14407 1.48173 0
M  V30 4922 H 459.117 -0.632741 0.377899 0
M  V30 4923 H 461.759 -1.16853 1.49818 0
M  V30 4924 H 459.909 -3.64493 1.34452 0
M  V30 4925 H 461.581 -2.66681 3.76403 0
M  V30 4926 H 459.824 -2.45088 3.57931 0
M  V30 4927 H 460.495 -4.07862 3.71958 0
M  V30 4928 H 462.971 -3.74061 1.82258 0
M  V30 4929 H 461.847 -5.11279 1.99713 0
M  V30 4930 H 462.108 -4.40174 0.412273 0
M  V30 4931 N 461.167 -1.02423 -1.1978 0
M  V30 4932 C 462.114 -0.601023 -2.22837 0
M  V30 4933 C 463.084 0.382801 -1.61629 0
M  V30 4934 O 464.269 0.280514 -1.88727 0
M  V30 4935 C 461.409 0.0467755 -3.45068 0
M  V30 4936 C 460.522 -0.98253 -4.20678 0
M  V30 4937 C 459.657 -0.304982 -5.30324 0
M  V30 4938 C 458.696 -1.32052 -5.97686 0
M  V30 4939 N 457.833 -0.669105 -6.98904 0
M  V30 4940 H 462.673 -1.48444 -2.58396 0
M  V30 4941 H 460.21 -0.742936 -1.2696 0
M  V30 4942 H 462.168 0.439556 -4.14878 0
M  V30 4943 H 460.798 0.893796 -3.10179 0
M  V30 4944 H 459.85 -1.49341 -3.49859 0
M  V30 4945 H 461.162 -1.75455 -4.66923 0
M  V30 4946 H 460.316 0.142893 -6.06532 0
M  V30 4947 H 459.055 0.499283 -4.85138 0
M  V30 4948 H 458.06 -1.7787 -5.20233 0
M  V30 4949 H 459.285 -2.1262 -6.44957 0
M  V30 4950 H 457.231 0.115152 -6.55899 0
M  V30 4951 H 457.148 -1.37908 -7.43315 0
M  V30 4952 H 458.416 -0.245076 -7.79115 0
M  V30 4953 N 462.645 1.35699 -0.801477 0
M  V30 4954 C 463.592 2.29876 -0.206294 0
M  V30 4955 C 464.562 1.52565 0.656752 0
M  V30 4956 O 465.747 1.81024 0.602906 0
M  V30 4957 C 462.887 3.39052 0.643272 0
M  V30 4958 C 462 4.31335 -0.239644 0
M  V30 4959 C 461.135 5.27599 0.61744 0
M  V30 4960 C 460.174 6.11521 -0.26619 0
M  V30 4961 N 459.311 6.99938 0.550571 0
M  V30 4962 H 464.151 2.80187 -1.01484 0
M  V30 4963 H 461.688 1.37902 -0.511997 0
M  V30 4964 H 463.646 4.0101 1.15094 0
M  V30 4965 H 462.276 2.9003 1.41713 0
M  V30 4966 H 461.328 3.70426 -0.865381 0
M  V30 4967 H 462.64 4.90243 -0.919985 0
M  V30 4968 H 461.794 5.94906 1.19045 0
M  V30 4969 H 460.533 4.69176 1.33137 0
M  V30 4970 H 459.538 5.43166 -0.851507 0
M  V30 4971 H 460.763 6.72022 -0.9779 0
M  V30 4972 H 458.709 6.44008 1.24856 0
M  V30 4973 H 458.626 7.55966 -0.071832 0
M  V30 4974 H 459.894 7.71599 1.10702 0
M  V30 4975 N 464.123 0.554532 1.47522 0
M  V30 4976 C 465.033 -0.197865 2.33764 0
M  V30 4977 C 466.049 -0.914576 1.48025 0
M  V30 4978 O 467.225 -0.884067 1.80959 0
M  V30 4979 C 464.29 -1.21628 3.24665 0
M  V30 4980 C 463.351 -0.507283 4.26292 0
M  V30 4981 C 462.584 -1.47718 5.1285 0
M  V30 4982 O 462.807 -2.7118 5.01814 0
M  V30 4983 O 461.741 -1.00313 5.93482 0
M  V30 4984 H 465.567 0.50949 2.99396 0
M  V30 4985 H 463.152 0.315176 1.46038 0
M  V30 4986 H 465.034 -1.80421 3.80823 0
M  V30 4987 H 463.709 -1.9056 2.61665 0
M  V30 4988 H 462.616 0.121778 3.73902 0
M  V30 4989 H 463.949 0.140544 4.91999 0
M  V30 4990 N 465.601 -1.54893 0.290851 0
M  V30 4991 C 466.826 -2.04804 -0.32712 0
M  V30 4992 C 467.251 -1.16721 -1.47506 0
M  V30 4993 O 466.609 -0.169107 -1.8051 0
M  V30 4994 C 466.657 -3.52268 -0.770689 0
M  V30 4995 O 465.761 -3.67236 -1.87647 0
M  V30 4996 H 465.102 -0.660789 -0.0652227 0
M  V30 4997 H 467.632 -2.00036 0.429739 0
M  V30 4998 H 467.642 -3.9393 -1.06223 0
M  V30 4999 H 466.317 -4.15843 0.069096 0
M  V30 5000 H 464.894 -3.37479 -1.58626 0
M  V30 5001 N 467.08 -0.0183926 -1.57589 0
M  V30 5002 C 468.308 0.673046 -1.95647 0
M  V30 5003 C 468.723 1.66275 -0.894312 0
M  V30 5004 O 468.08 1.82072 0.124975 0
M  V30 5005 C 468.131 1.38884 -3.33756 0
M  V30 5006 O 467.852 0.438806 -4.35897 0
M  V30 5007 C 469.353 2.1731 -3.86383 0
M  V30 5008 H 466.573 0.186292 -0.644621 0
M  V30 5009 H 469.117 -0.0749748 -2.04363 0
M  V30 5010 H 467.272 2.08835 -3.26293 0
M  V30 5011 H 467.686 0.945869 -5.15901 0
M  V30 5012 H 469.16 2.62863 -4.85394 0
M  V30 5013 H 469.637 3.00764 -3.20059 0
M  V30 5014 H 470.243 1.52339 -3.97081 0
M  V30 5015 N 468.558 1.5553 0.254621 0
M  V30 5016 C 469.505 1.89666 1.31512 0
M  V30 5017 C 470.475 0.750057 1.482 0
M  V30 5018 O 471.66 1.00301 1.62309 0
M  V30 5019 C 468.8 2.19009 2.667 0
M  V30 5020 C 467.913 3.46435 2.58083 0
M  V30 5021 C 467.048 3.65386 3.85573 0
M  V30 5022 C 466.087 4.8644 3.71541 0
M  V30 5023 N 465.224 5.01952 4.90906 0
M  V30 5024 H 470.064 2.80109 1.017 0
M  V30 5025 H 467.601 1.38666 0.490938 0
M  V30 5026 H 469.559 2.34025 3.45381 0
M  V30 5027 H 468.189 1.31779 2.94676 0
M  V30 5028 H 467.241 3.39792 1.71013 0
M  V30 5029 H 468.553 4.35258 2.43622 0
M  V30 5030 H 467.707 3.80319 4.72697 0
M  V30 5031 H 466.446 2.74781 4.02922 0
M  V30 5032 H 465.451 4.71491 2.82801 0
M  V30 5033 H 466.676 5.78497 3.55694 0
M  V30 5034 H 464.622 4.14283 5.08631 0
M  V30 5035 H 464.539 5.84851 4.79046 0
M  V30 5036 H 465.807 5.21289 5.7955 0
M  V30 5037 N 470.036 -0.519951 1.48776 0
M  V30 5038 C 470.983 -1.62352 1.64044 0
M  V30 5039 C 471.953 -1.58945 0.482251 0
M  V30 5040 O 473.138 -1.77219 0.706971 0
M  V30 5041 C 470.278 -3.00579 1.69547 0
M  V30 5042 C 469.391 -3.14145 2.96541 0
M  V30 5043 C 468.526 -4.42991 2.93142 0
M  V30 5044 C 467.565 -4.50122 4.14797 0
M  V30 5045 N 466.702 -5.7037 4.09418 0
M  V30 5046 H 471.542 -1.48643 2.58281 0
M  V30 5047 H 469.079 -0.723516 1.28077 0
M  V30 5048 H 471.037 -3.80671 1.70719 0
M  V30 5049 H 469.667 -3.13036 0.787918 0
M  V30 5050 H 468.719 -2.27239 3.05068 0
M  V30 5051 H 470.031 -3.15275 3.86527 0
M  V30 5052 H 469.185 -5.31385 2.92772 0
M  V30 5053 H 467.924 -4.44398 2.00902 0
M  V30 5054 H 466.929 -3.60133 4.15433 0
M  V30 5055 H 468.154 -4.50445 5.08208 0
M  V30 5056 H 466.1 -5.72655 3.20004 0
M  V30 5057 H 466.017 -5.73036 4.93119 0
M  V30 5058 H 467.285 -6.61023 4.13121 0
M  V30 5059 N 471.514 -1.37532 -0.769588 0
M  V30 5060 C 472.424 -1.35668 -1.91393 0
M  V30 5061 C 473.44 -0.255954 -1.72107 0
M  V30 5062 O 474.616 -0.491704 -1.95305 0
M  V30 5063 C 471.681 -1.16481 -3.26547 0
M  V30 5064 C 470.742 -2.36212 -3.58472 0
M  V30 5065 C 469.975 -2.17932 -4.87177 0
M  V30 5066 O 470.198 -1.1647 -5.58382 0
M  V30 5067 O 469.132 -3.06167 -5.18214 0
M  V30 5068 H 472.958 -2.32055 -1.95918 0
M  V30 5069 H 470.543 -1.18284 -0.912641 0
M  V30 5070 H 472.425 -1.07778 -4.07384 0
M  V30 5071 H 471.1 -0.231687 -3.2287 0
M  V30 5072 H 470.007 -2.50488 -2.77861 0
M  V30 5073 H 471.34 -3.281 -3.66894 0
M  V30 5074 N 472.992 0.995999 -1.22138 0
M  V30 5075 C 473.902 2.11985 -1.00496 0
M  V30 5076 C 474.918 1.7394 0.0457701 0
M  V30 5077 O 476.094 2.00868 -0.146273 0
M  V30 5078 C 473.159 3.41779 -0.582086 0
M  V30 5079 C 472.22 3.93943 -1.70608 0
M  V30 5080 C 471.453 5.17542 -1.30328 0
M  V30 5081 O 471.676 5.70114 -0.180743 0
M  V30 5082 O 470.61 5.63382 -2.11861 0
M  V30 5083 H 474.436 2.33123 -1.94647 0
M  V30 5084 H 472.021 1.10358 -1.00705 0
M  V30 5085 H 473.903 4.1989 -0.356467 0
M  V30 5086 H 472.578 3.22007 0.330592 0
M  V30 5087 H 471.485 3.17019 -1.98619 0
M  V30 5088 H 472.818 4.18141 -2.59651 0
M  V30 5089 N 474.47 1.03057 1.19235 0
M  V30 5090 C 475.417 0.612832 2.22515 0
M  V30 5091 C 476.387 -0.374224 1.61829 0
M  V30 5092 O 477.572 -0.270501 1.88873 0
M  V30 5093 C 474.712 -0.028475 3.45088 0
M  V30 5094 C 473.825 1.00483 4.20151 0
M  V30 5095 C 472.96 0.333102 5.30155 0
M  V30 5096 C 471.999 1.3522 5.96977 0
M  V30 5097 N 471.136 0.70616 6.9854 0
M  V30 5098 H 475.976 1.49812 2.57605 0
M  V30 5099 H 473.513 0.749658 1.26564 0
M  V30 5100 H 475.471 -0.417548 4.15105 0
M  V30 5101 H 474.101 -0.877334 3.10649 0
M  V30 5102 H 473.153 1.51194 3.49062 0
M  V30 5103 H 474.465 1.77929 4.65986 0
M  V30 5104 H 473.619 -0.110725 6.06599 0
M  V30 5105 H 472.358 -0.473547 4.85396 0
M  V30 5106 H 471.363 1.80627 5.19282 0
M  V30 5107 H 472.588 2.16037 6.4382 0
M  V30 5108 H 470.534 -0.0803667 6.55951 0
M  V30 5109 H 470.451 1.41848 7.42573 0
M  V30 5110 H 471.719 0.286391 7.78974 0
M  V30 5111 N 475.948 -1.35272 0.808662 0
M  V30 5112 C 476.911 -2.28082 0.226093 0
M  V30 5113 C 477.911 -1.49673 -0.587762 0
M  V30 5114 O 479.101 -1.69404 -0.405943 0
M  V30 5115 C 476.233 -3.33955 -0.684596 0
M  V30 5116 H 477.426 -2.81116 1.04469 0
M  V30 5117 H 474.979 -1.45162 0.579466 0
M  V30 5118 H 475.714 -2.86111 -1.5268 0
M  V30 5119 H 475.499 -3.91965 -0.102699 0
M  V30 5120 H 476.989 -4.03219 -1.08646 0
M  V30 5121 N 477.426 -0.562348 -1.47226 0
M  V30 5122 C 478.374 0.195476 -2.31777 0
M  V30 5123 C 479.368 0.90433 -1.43242 0
M  V30 5124 O 480.574 0.825031 -1.59979 0
M  V30 5125 H 476.949 0.0819095 -0.747526 0
M  V30 5126 H 478.92 -0.536753 -2.93533 0
M  V30 5127 C 477.669 1.20902 -3.26003 0
M  V30 5128 H 476.992 0.672997 -3.94095 0
M  V30 5129 H 478.432 1.71006 -3.87986 0
M  V30 5130 C 476.891 2.25955 -2.49891 0
M  V30 5131 O 477.421 3.32969 -2.2471 0
M  V30 5132 N 475.627 2.00019 -2.1081 0
M  V30 5133 H 475.174 1.13006 -2.31489 0
M  V30 5134 H 475.132 2.70523 -1.60201 0
M  V30 5135 N 478.904 1.54736 -0.299062 0
M  V30 5136 C 480.32 1.59507 0.0543849 0
M  V30 5137 C 480.52 1.31606 1.52585 0
M  V30 5138 O 479.576 1.08853 2.27832 0
M  V30 5139 C 480.889 2.98751 -0.34181 0
M  V30 5140 C 482.437 3.1165 -0.290414 0
M  V30 5141 C 482.912 4.53199 -0.661402 0
M  V30 5142 N 484.403 4.59114 -0.613863 0
M  V30 5143 C 485.138 5.66709 -0.873417 0
M  V30 5144 N 484.634 6.82349 -1.19884 0
M  V30 5145 N 486.427 5.56369 -0.800608 0
M  V30 5146 H 478.578 1.71133 -1.25806 0
M  V30 5147 H 480.841 0.799186 -0.509908 0
M  V30 5148 H 480.547 3.24085 -1.36608 0
M  V30 5149 H 480.421 3.75961 0.305508 0
M  V30 5150 H 482.808 2.86066 0.724605 0
M  V30 5151 H 482.889 2.366 -0.972327 0
M  V30 5152 H 482.533 4.79513 -1.67422 0
M  V30 5153 H 482.463 5.26583 0.0425612 0
M  V30 5154 H 484.954 3.76053 -0.3732 0
M  V30 5155 H 485.267 7.60326 -1.38291 0
M  V30 5156 H 483.612 6.83906 -1.23685 0
M  V30 5157 H 486.803 4.64904 -0.546045 0
M  V30 5158 H 486.976 6.40139 -1.00626 0
M  V30 5159 N 480.382 0.0267497 1.57577 0
M  V30 5160 C 481.628 -0.653371 1.91987 0
M  V30 5161 C 481.961 -1.71915 0.903263 0
M  V30 5162 O 481.236 -1.94358 -0.0743387 0
M  V30 5163 C 481.519 -1.272 3.36886 0
M  V30 5164 C 481.372 -0.215938 4.49281 0
M  V30 5165 C 482.691 -2.19069 3.81703 0
M  V30 5166 H 479.81 -0.236047 0.698177 0
M  V30 5167 H 482.452 0.0835236 1.89816 0
M  V30 5168 H 480.602 -1.90005 3.38866 0
M  V30 5169 H 482.274 0.41449 4.59434 0
M  V30 5170 H 480.517 0.458855 4.31366 0
M  V30 5171 H 481.188 -0.688347 5.47691 0
M  V30 5172 H 483.664 -1.66253 3.81444 0
M  V30 5173 H 482.54 -2.59307 4.83788 0
M  V30 5174 H 482.801 -3.08087 3.17072 0
M  V30 5175 N 481.861 -1.55662 -0.24637 0
M  V30 5176 C 483.107 -1.77782 -0.975779 0
M  V30 5177 C 483.44 -0.592103 -1.84953 0
M  V30 5178 O 482.715 0.409588 -1.90138 0
M  V30 5179 C 482.998 -3.09788 -1.83584 0
M  V30 5180 C 482.851 -4.38764 -0.990241 0
M  V30 5181 C 484.17 -3.38029 -2.81823 0
M  V30 5182 H 481.289 -0.646789 -0.353317 0
M  V30 5183 H 483.931 -1.88398 -0.246248 0
M  V30 5184 H 482.081 -3.00869 -2.45784 0
M  V30 5185 H 483.753 -4.59675 -0.386897 0
M  V30 5186 H 481.996 -4.32798 -0.294626 0
M  V30 5187 H 482.667 -5.27514 -1.62584 0
M  V30 5188 H 485.143 -3.46915 -2.2976 0
M  V30 5189 H 484.019 -4.3161 -3.39122 0
M  V30 5190 H 484.28 -2.58968 -3.58313 0
M  V30 5191 N 483.339 0.512053 -1.4905 0
M  V30 5192 C 484.249 1.64139 -1.67617 0
M  V30 5193 C 485.265 1.64786 -0.558701 0
M  V30 5194 O 486.441 1.8341 -0.832034 0
M  V30 5195 C 483.506 3.00548 -1.72835 0
M  V30 5196 C 482.567 3.10615 -2.96339 0
M  V30 5197 C 481.8 4.40517 -3.01298 0
M  V30 5198 O 482.023 5.28671 -2.14157 0
M  V30 5199 O 480.957 4.55325 -3.93653 0
M  V30 5200 H 484.783 1.51407 -2.63267 0
M  V30 5201 H 482.368 0.687131 -1.32661 0
M  V30 5202 H 484.25 3.81641 -1.78683 0
M  V30 5203 H 482.925 3.13566 -0.803616 0
M  V30 5204 H 481.832 2.2875 -2.96014 0
M  V30 5205 H 483.165 3.0252 -3.88256 0
M  V30 5206 N 484.817 1.37938 0.762283 0
M  V30 5207 C 486.094 1.24196 1.51112 0
M  V30 5208 C 486.474 -0.160409 2.1049 0
M  V30 5209 O 485.822 -1.16904 1.96331 0
M  V30 5210 C 486.032 2.34537 2.58445 0
M  V30 5211 C 487.38 2.7254 3.25588 0
M  V30 5212 O 488.404 2.33783 2.68745 0
M  V30 5213 O 487.263 3.39343 4.28379 0
M  V30 5214 H 484.357 0.485175 0.669727 0
M  V30 5215 H 486.903 1.49743 0.798438 0
M  V30 5216 H 485.675 3.28406 2.12756 0
M  V30 5217 H 485.298 2.10505 3.37303 0
M  V30 5218 N 486.295 -0.989507 1.22664 0
M  V30 5219 C 487.52 -1.77031 1.08051 0
M  V30 5220 C 487.945 -1.84535 -0.364483 0
M  V30 5221 O 487.303 -1.3003 -1.2634 0
M  V30 5222 C 487.351 -3.18 1.70024 0
M  V30 5223 O 486.455 -4.01161 0.956216 0
M  V30 5224 H 485.796 -0.545008 0.379292 0
M  V30 5225 H 488.326 -1.24277 1.62531 0
M  V30 5226 H 488.336 -3.68616 1.74888 0
M  V30 5227 H 487.011 -3.11853 2.75174 0
M  V30 5228 H 485.588 -3.59687 0.98384 0
M  V30 5229 N 487.773 -1.03688 -1.18687 0
M  V30 5230 C 488.705 -0.582696 -2.21669 0
M  V30 5231 C 489.718 0.345656 -1.59088 0
M  V30 5232 O 490.907 0.140776 -1.77944 0
M  V30 5233 C 488.007 0.169204 -3.38477 0
M  V30 5234 C 487.18 -0.766079 -4.30639 0
M  V30 5235 C 486.239 -0.0581541 -5.26168 0
M  V30 5236 O 485.265 -0.687346 -5.65035 0
M  V30 5237 N 486.467 1.20981 -5.67753 0
M  V30 5238 H 489.232 -1.46843 -2.61261 0
M  V30 5239 H 486.793 -0.916896 -1.33434 0
M  V30 5240 H 488.785 0.652543 -3.99405 0
M  V30 5241 H 487.355 0.956435 -2.97609 0
M  V30 5242 H 486.575 -1.42935 -3.67373 0
M  V30 5243 H 487.863 -1.40146 -4.89118 0
M  V30 5244 H 487.261 1.74159 -5.38224 0
M  V30 5245 H 485.818 1.6375 -6.30896 0
M  V30 5246 N 489.251 1.34841 -0.815825 0
M  V30 5247 C 490.476 2.03261 -0.41226 0
M  V30 5248 C 490.901 1.61055 0.971751 0
M  V30 5249 O 490.259 0.7917 1.63101 0
M  V30 5250 C 490.307 3.56914 -0.514289 0
M  V30 5251 O 489.411 4.09728 0.468675 0
M  V30 5252 H 488.752 0.641664 -0.170771 0
M  V30 5253 H 491.282 1.72241 -1.10427 0
M  V30 5254 H 491.292 4.06156 -0.387457 0
M  V30 5255 H 489.967 3.86982 -1.52375 0
M  V30 5256 H 488.544 3.71681 0.301316 0
M  V30 5257 N 490.729 0.570148 1.46925 0
M  V30 5258 C 491.692 -0.159933 2.28641 0
M  V30 5259 C 492.692 -0.830638 1.37685 0
M  V30 5260 O 493.882 -0.684516 1.60187 0
M  V30 5261 C 491.014 -1.2354 3.17727 0
M  V30 5262 H 492.207 0.558035 2.94662 0
M  V30 5263 H 489.76 0.327603 1.52828 0
M  V30 5264 H 490.495 -1.98535 2.56426 0
M  V30 5265 H 490.28 -0.759125 3.84681 0
M  V30 5266 H 491.77 -1.74782 3.79264 0
M  V30 5267 N 492.207 -1.54576 0.307264 0
M  V30 5268 C 493.154 -2.23751 -0.56604 0
M  V30 5269 C 494.124 -1.22235 -1.12462 0
M  V30 5270 O 495.309 -1.50873 -1.16799 0
M  V30 5271 C 492.449 -2.98661 -1.72903 0
M  V30 5272 C 491.562 -4.14963 -1.20124 0
M  V30 5273 C 490.697 -4.77441 -2.3286 0
M  V30 5274 C 489.736 -5.85875 -1.77247 0
M  V30 5275 N 488.873 -6.42282 -2.8358 0
M  V30 5276 H 493.713 -2.97984 0.0304578 0
M  V30 5277 H 491.25 -1.47076 0.0268015 0
M  V30 5278 H 493.208 -3.40329 -2.41313 0
M  V30 5279 H 491.838 -2.26793 -2.29706 0
M  V30 5280 H 490.89 -3.78193 -0.409198 0
M  V30 5281 H 492.202 -4.93066 -0.754171 0
M  V30 5282 H 491.356 -5.21993 -3.09205 0
M  V30 5283 H 490.095 -3.98684 -2.80896 0
M  V30 5284 H 489.1 -5.40741 -0.993926 0
M  V30 5285 H 490.325 -6.6652 -1.30107 0
M  V30 5286 H 488.271 -5.66406 -3.30939 0
M  V30 5287 H 488.188 -7.1575 -2.43388 0
M  V30 5288 H 489.456 -6.91492 -3.59804 0
M  V30 5289 N 493.685 -0.035106 -1.57561 0
M  V30 5290 C 494.633 0.962707 -2.11742 0
M  V30 5291 C 495.627 1.33296 -1.0454 0
M  V30 5292 O 496.833 1.31449 -1.22968 0
M  V30 5293 H 493.208 0.32826 -0.676572 0
M  V30 5294 H 495.179 0.48048 -2.94506 0
M  V30 5295 C 493.928 2.23388 -2.66445 0
M  V30 5296 H 493.251 1.95774 -3.48587 0
M  V30 5297 H 494.691 2.91402 -3.07995 0
M  V30 5298 C 493.15 2.96769 -1.59467 0
M  V30 5299 O 493.68 3.89105 -0.998 0
M  V30 5300 N 491.886 2.59212 -1.31369 0
M  V30 5301 H 491.433 1.84202 -1.80076 0
M  V30 5302 H 491.391 3.08618 -0.600173 0
M  V30 5303 N 495.163 1.55791 0.238111 0
M  V30 5304 C 496.11 1.9105 1.29493 0
M  V30 5305 C 497.08 0.765733 1.47397 0
M  V30 5306 O 498.265 1.02017 1.61236 0
M  V30 5307 C 495.405 2.21826 2.64362 0
M  V30 5308 C 494.518 3.49153 2.54394 0
M  V30 5309 C 493.653 3.69455 3.81676 0
M  V30 5310 C 492.692 4.90353 3.66361 0
M  V30 5311 N 491.829 5.07131 4.85554 0
M  V30 5312 H 496.669 2.81172 0.987233 0
M  V30 5313 H 494.206 1.39179 0.476203 0
M  V30 5314 H 496.164 2.37675 3.4288 0
M  V30 5315 H 494.794 1.34897 2.93262 0
M  V30 5316 H 493.846 3.41587 1.67399 0
M  V30 5317 H 495.158 4.37818 2.38991 0
M  V30 5318 H 494.312 3.85311 4.68636 0
M  V30 5319 H 493.051 2.7904 3.99985 0
M  V30 5320 H 492.056 4.74464 2.77784 0
M  V30 5321 H 493.281 5.82237 3.49538 0
M  V30 5322 H 491.227 4.19654 5.04209 0
M  V30 5323 H 491.144 5.89899 4.72816 0
M  V30 5324 H 492.412 5.27407 5.73988 0
M  V30 5325 N 496.642 -0.504142 1.49319 0
M  V30 5326 C 497.89 -1.25598 1.58334 0
M  V30 5327 C 498.211 -1.93114 0.270538 0
M  V30 5328 O 497.481 -1.82585 -0.709891 0
M  V30 5329 H 496.061 -0.466571 0.58337 0
M  V30 5330 H 498.723 -0.584547 1.85928 0
M  V30 5331 H 497.819 -2.02159 2.37778 0
M  V30 5332 N 498.12 -1.38341 -0.754957 0
M  V30 5333 C 499.35 -1.37504 -1.54195 0
M  V30 5334 C 499.758 0.0373787 -1.89163 0
M  V30 5335 O 499.101 1.01402 -1.53178 0
M  V30 5336 C 499.163 -2.16488 -2.87008 0
M  V30 5337 C 498.827 -3.65311 -2.74585 0
M  V30 5338 C 499.824 -4.58834 -2.44474 0
M  V30 5339 C 497.509 -4.08649 -2.9208 0
M  V30 5340 C 499.503 -5.93675 -2.32011 0
M  V30 5341 C 497.19 -5.43571 -2.79237 0
M  V30 5342 C 498.188 -6.35898 -2.49245 0
M  V30 5343 O 497.876 -7.68338 -2.36458 0
M  V30 5344 H 497.608 -0.472159 -0.483779 0
M  V30 5345 H 500.162 -1.82515 -0.94221 0
M  V30 5346 H 498.392 -1.66194 -3.49166 0
M  V30 5347 H 500.081 -2.08076 -3.4851 0
M  V30 5348 H 500.847 -4.26657 -2.30627 0
M  V30 5349 H 496.726 -3.37134 -3.14422 0
M  V30 5350 H 500.27 -6.65706 -2.08522 0
M  V30 5351 H 496.167 -5.75345 -2.92657 0
M  V30 5352 H 496.935 -7.78845 -2.5168 0
M  V30 5353 N 499.598 0.982988 -1.23187 0
M  V30 5354 C 500.561 2.05649 -1.01198 0
M  V30 5355 C 501.561 1.6078 0.0252464 0
M  V30 5356 O 502.751 1.72878 -0.214243 0
M  V30 5357 C 499.883 3.36744 -0.530656 0
M  V30 5358 H 501.076 2.2659 -1.96461 0
M  V30 5359 H 498.629 1.15602 -1.05195 0
M  V30 5360 H 499.364 3.21492 0.425873 0
M  V30 5361 H 499.149 3.7065 -1.2791 0
M  V30 5362 H 500.639 4.15705 -0.397366 0
M  V30 5363 N 501.076 1.04316 1.18135 0
M  V30 5364 C 501.986 0.646876 2.25505 0
M  V30 5365 C 503.002 -0.328008 1.7088 0
M  V30 5366 O 504.178 -0.182309 2.00573 0
M  V30 5367 C 501.243 0.0185664 3.46695 0
M  V30 5368 C 500.304 1.04277 4.16443 0
M  V30 5369 C 499.537 0.444352 5.31847 0
M  V30 5370 O 499.76 -0.748735 5.65465 0
M  V30 5371 O 498.694 1.17428 5.90334 0
M  V30 5372 H 502.52 1.54147 2.61672 0
M  V30 5373 H 500.105 0.814188 1.25265 0
M  V30 5374 H 501.987 -0.331068 4.20097 0
M  V30 5375 H 500.662 -0.849814 3.12346 0
M  V30 5376 H 499.569 1.44425 3.45098 0
M  V30 5377 H 500.902 1.882 4.54798 0
M  V30 5378 N 502.554 -1.34406 0.822964 0
M  V30 5379 C 503.484 -2.32052 0.259608 0
M  V30 5380 C 504.465 -1.58243 -0.623961 0
M  V30 5381 O 505.65 -1.86224 -0.55083 0
M  V30 5382 C 502.78 -3.42434 -0.579314 0
M  V30 5383 C 501.734 -4.27499 0.20712 0
M  V30 5384 C 501.06 -5.29349 -0.754547 0
M  V30 5385 C 502.36 -5.02758 1.41533 0
M  V30 5386 H 504.054 -2.79418 1.07545 0
M  V30 5387 H 501.6 -1.34338 0.518593 0
M  V30 5388 H 503.553 -4.0976 -0.983612 0
M  V30 5389 H 502.277 -2.93717 -1.4282 0
M  V30 5390 H 500.936 -3.61776 0.592787 0
M  V30 5391 H 500.584 -4.76895 -1.59939 0
M  V30 5392 H 500.284 -5.8714 -0.232561 0
M  V30 5393 H 501.808 -5.99544 -1.1567 0
M  V30 5394 H 503.222 -5.62938 1.08504 0
M  V30 5395 H 501.619 -5.70123 1.87296 0
M  V30 5396 H 502.689 -4.32451 2.1935 0
M  V30 5397 N 504.032 -0.577932 -1.46621 0
M  V30 5398 C 504.962 0.145917 -2.33044 0
M  V30 5399 C 505.943 0.888412 -1.45056 0
M  V30 5400 O 507.128 0.864812 -1.73881 0
M  V30 5401 C 504.258 1.16322 -3.27241 0
M  V30 5402 C 503.212 0.535868 -4.24632 0
M  V30 5403 C 502.538 1.65929 -5.08303 0
M  V30 5404 C 503.838 -0.523861 -5.19666 0
M  V30 5405 H 505.532 -0.575636 -2.93814 0
M  V30 5406 H 503.078 -0.278272 -1.41286 0
M  V30 5407 H 505.031 1.67793 -3.86553 0
M  V30 5408 H 503.755 1.91498 -2.64567 0
M  V30 5409 H 502.414 0.0422759 -3.66576 0
M  V30 5410 H 502.062 2.40061 -4.42018 0
M  V30 5411 H 501.762 1.2452 -5.74255 0
M  V30 5412 H 503.286 2.17686 -5.70478 0
M  V30 5413 H 504.7 -0.0944059 -5.73222 0
M  V30 5414 H 503.097 -0.858 -5.93935 0
M  V30 5415 H 504.167 -1.41197 -4.63887 0
M  V30 5416 N 505.51 1.54411 -0.315457 0
M  V30 5417 C 506.735 2.05299 0.294496 0
M  V30 5418 C 507.16 1.19052 1.4563 0
M  V30 5419 O 506.518 0.197804 1.80218 0
M  V30 5420 C 506.566 3.5345 0.714549 0
M  V30 5421 O 505.67 3.70175 1.81781 0
M  V30 5422 H 505.011 0.661743 0.0547019 0
M  V30 5423 H 507.541 1.99327 -0.461508 0
M  V30 5424 H 507.551 3.9557 0.999426 0
M  V30 5425 H 506.226 4.1568 -0.135244 0
M  V30 5426 H 504.803 3.3996 1.53236 0
M  V30 5427 N 506.988 0.0434614 1.5754 0
M  V30 5428 C 508.216 -0.641835 1.96693 0
M  V30 5429 C 508.631 -1.64832 0.920652 0
M  V30 5430 O 507.988 -1.82247 -0.095993 0
M  V30 5431 C 508.039 -1.33557 3.35924 0
M  V30 5432 O 507.76 -0.369403 4.3654 0
M  V30 5433 C 509.261 -2.11135 3.89791 0
M  V30 5434 H 506.481 -0.176013 0.647503 0
M  V30 5435 H 509.025 0.107478 2.04217 0
M  V30 5436 H 507.18 -2.03617 3.29574 0
M  V30 5437 H 507.594 -0.863674 5.1734 0
M  V30 5438 H 509.068 -2.55107 4.89514 0
M  V30 5439 H 509.545 -2.95634 3.24803 0
M  V30 5440 H 510.151 -1.46002 3.99454 0
M  V30 5441 N 508.466 -1.55915 -0.229846 0
M  V30 5442 C 509.413 -1.91734 -1.28478 0
M  V30 5443 C 510.383 -0.773539 -1.46988 0
M  V30 5444 O 511.568 -1.02871 -1.60693 0
M  V30 5445 C 508.708 -2.23224 -2.63182 0
M  V30 5446 C 507.821 -3.50497 -2.52539 0
M  V30 5447 C 506.956 -3.71474 -3.79711 0
M  V30 5448 C 505.995 -4.92289 -3.63755 0
M  V30 5449 N 505.132 -5.09698 -4.82858 0
M  V30 5450 H 509.972 -2.81692 -0.972308 0
M  V30 5451 H 507.509 -1.39429 -0.468815 0
M  V30 5452 H 509.467 -2.3949 -3.41614 0
M  V30 5453 H 508.097 -1.36451 -2.92542 0
M  V30 5454 H 507.149 -3.4247 -1.65585 0
M  V30 5455 H 508.461 -4.39079 -2.36666 0
M  V30 5456 H 507.615 -3.87791 -4.66586 0
M  V30 5457 H 506.354 -2.81157 -3.985 0
M  V30 5458 H 505.359 -4.7593 -2.75264 0
M  V30 5459 H 506.584 -5.84083 -3.46445 0
M  V30 5460 H 504.53 -4.22322 -5.01976 0
M  V30 5461 H 504.447 -5.92399 -4.69681 0
M  V30 5462 H 505.715 -5.30443 -5.71183 0
M  V30 5463 N 509.944 0.496216 -1.49584 0
M  V30 5464 C 510.892 1.61805 -1.67098 0
M  V30 5465 C 511.886 1.60667 -0.536877 0
M  V30 5466 O 513.092 1.65118 -0.716654 0
M  V30 5467 H 509.467 0.53646 -0.526986 0
M  V30 5468 H 511.438 1.44187 -2.61252 0
M  V30 5469 C 510.187 2.99912 -1.75921 0
M  V30 5470 H 509.51 3.01496 -2.62565 0
M  V30 5471 H 510.95 3.77931 -1.92209 0
M  V30 5472 C 509.409 3.33092 -0.505088 0
M  V30 5473 O 509.939 4.00019 0.367085 0
M  V30 5474 N 508.145 2.88278 -0.366599 0
M  V30 5475 H 507.692 2.33989 -1.07735 0
M  V30 5476 H 507.65 3.10846 0.47142 0
M  V30 5477 N 511.423 1.38739 0.74761 0
M  V30 5478 C 512.353 1.39173 1.87492 0
M  V30 5479 C 513.334 0.256794 1.6815 0
M  V30 5480 O 514.519 0.460762 1.88655 0
M  V30 5481 C 511.649 1.22197 3.25093 0
M  V30 5482 C 510.603 2.32957 3.59047 0
M  V30 5483 C 509.929 2.01082 4.95449 0
M  V30 5484 C 511.229 3.75237 3.6331 0
M  V30 5485 H 512.923 2.3351 1.87386 0
M  V30 5486 H 510.469 1.12399 0.900134 0
M  V30 5487 H 512.422 1.21124 4.03617 0
M  V30 5488 H 511.146 0.243241 3.25693 0
M  V30 5489 H 509.805 2.33226 2.82845 0
M  V30 5490 H 509.453 1.01678 4.92616 0
M  V30 5491 H 509.153 2.75267 5.19136 0
M  V30 5492 H 510.677 2.01638 5.76346 0
M  V30 5493 H 512.091 3.76966 4.31937 0
M  V30 5494 H 510.488 4.48677 3.98509 0
M  V30 5495 H 511.558 4.07122 2.634 0
M  V30 5496 N 512.901 -0.976442 1.23707 0
M  V30 5497 C 514.129 -1.75341 1.09833 0
M  V30 5498 C 514.544 -1.8553 -0.349885 0
M  V30 5499 O 513.901 -1.33732 -1.24185 0
M  V30 5500 C 513.952 -3.17833 1.72233 0
M  V30 5501 O 513.673 -3.08167 3.11391 0
M  V30 5502 C 515.174 -4.11906 1.63853 0
M  V30 5503 H 512.394 -0.550137 0.384175 0
M  V30 5504 H 514.938 -1.2265 1.63638 0
M  V30 5505 H 513.093 -3.67538 1.22452 0
M  V30 5506 H 513.507 -3.97897 3.41729 0
M  V30 5507 H 514.981 -5.09579 2.12211 0
M  V30 5508 H 515.458 -4.35109 0.598092 0
M  V30 5509 H 516.064 -3.68107 2.13019 0
M  V30 5510 N 514.379 -1.04941 -1.1758 0
M  V30 5511 C 515.289 -0.658826 -2.25159 0
M  V30 5512 C 516.305 0.318941 -1.71052 0
M  V30 5513 O 517.481 0.171669 -2.00667 0
M  V30 5514 C 514.546 -0.0369522 -3.4668 0
M  V30 5515 C 513.607 -1.06484 -4.15884 0
M  V30 5516 C 512.84 -0.472551 -5.31604 0
M  V30 5517 O 513.063 0.718736 -5.65854 0
M  V30 5518 O 511.997 -1.20557 -5.89703 0
M  V30 5519 H 515.823 -1.55533 -2.60851 0
M  V30 5520 H 513.408 -0.820819 -1.24832 0
M  V30 5521 H 515.29 0.308784 -4.20267 0
M  V30 5522 H 513.965 0.833238 -3.12792 0
M  V30 5523 H 512.872 -1.46253 -3.44327 0
M  V30 5524 H 514.205 -1.9061 -4.53794 0
M  V30 5525 N 515.857 1.33968 -0.830081 0
M  V30 5526 C 517.134 1.92554 -0.343858 0
M  V30 5527 C 517.514 1.7573 1.16971 0
M  V30 5528 O 516.862 1.14035 1.98011 0
M  V30 5529 C 517.072 3.40147 -0.781073 0
M  V30 5530 C 518.42 4.17299 -0.78402 0
M  V30 5531 O 519.444 3.48762 -0.724112 0
M  V30 5532 O 518.303 5.39631 -0.863739 0
M  V30 5533 H 515.397 0.821469 -0.0954827 0
M  V30 5534 H 517.943 1.42897 -0.915348 0
M  V30 5535 H 516.715 3.46225 -1.82329 0
M  V30 5536 H 516.338 3.97166 -0.18567 0
M  V30 5537 N 517.335 0.585699 1.46312 0
M  V30 5538 C 518.581 0.0725284 2.0267 0
M  V30 5539 C 518.914 -1.28523 1.45586 0
M  V30 5540 O 518.189 -1.84283 0.622101 0
M  V30 5541 C 518.472 0.0099788 3.60099 0
M  V30 5542 C 518.325 1.39685 4.27561 0
M  V30 5543 C 519.644 -0.689117 4.34671 0
M  V30 5544 H 516.763 0.0278307 0.736474 0
M  V30 5545 H 519.405 0.753472 1.74421 0
M  V30 5546 H 517.555 -0.56992 3.84297 0
M  V30 5547 H 519.227 2.02215 4.14617 0
M  V30 5548 H 517.47 1.96374 3.86807 0
M  V30 5549 H 518.141 1.30553 5.36339 0
M  V30 5550 H 520.617 -0.196446 4.15636 0
M  V30 5551 H 519.493 -0.701921 5.44393 0
M  V30 5552 H 519.754 -1.75101 4.05946 0
M  V30 5553 N 518.813 -1.54241 0.323641 0
M  V30 5554 C 520.062 -1.9975 -0.279806 0
M  V30 5555 C 520.375 -1.2156 -1.5324 0
M  V30 5556 O 521.581 -1.57447 -2.21185 0
M  V30 5557 C 520.037 -3.55686 -0.549115 0
M  V30 5558 C 519.645 -4.4271 0.686432 0
M  V30 5559 C 521.389 -4.09663 -1.11251 0
M  V30 5560 C 519.296 -5.90119 0.389022 0
M  V30 5561 H 518.226 -0.746177 -0.10833 0
M  V30 5562 H 520.877 -1.78248 0.435877 0
M  V30 5563 H 519.259 -3.73176 -1.32499 0
M  V30 5564 H 520.433 -4.36996 1.46188 0
M  V30 5565 H 518.748 -3.99623 1.17005 0
M  V30 5566 H 521.345 -5.17386 -1.34965 0
M  V30 5567 H 521.688 -3.61651 -2.06191 0
M  V30 5568 H 522.221 -3.95806 -0.39782 0
M  V30 5569 H 518.96 -6.42326 1.30759 0
M  V30 5570 H 518.48 -5.98785 -0.348722 0
M  V30 5571 H 520.159 -6.47 -0.0011164 0
M  V30 5572 N 520.291 -0.0518155 -1.57515 0
M  V30 5573 C 521.707 0.304735 -1.56664 0
M  V30 5574 C 521.907 1.71395 -1.05953 0
M  V30 5575 O 520.963 2.42123 -0.716414 0
M  V30 5576 C 522.276 0.132614 -3.00407 0
M  V30 5577 C 523.824 0.20367 -3.12337 0
M  V30 5578 C 524.299 0.0600706 -4.57961 0
M  V30 5579 N 525.79 0.116326 -4.63054 0
M  V30 5580 C 526.525 0.0293363 -5.73392 0
M  V30 5581 N 526.021 -0.110038 -6.92713 0
M  V30 5582 N 527.814 0.0849651 -5.62036 0
M  V30 5583 H 519.965 -0.973056 -1.888 0
M  V30 5584 H 522.228 -0.377781 -0.869474 0
M  V30 5585 H 521.934 -0.839019 -3.41546 0
M  V30 5586 H 521.808 0.893376 -3.66468 0
M  V30 5587 H 524.195 1.16578 -2.71097 0
M  V30 5588 H 524.276 -0.587857 -2.48954 0
M  V30 5589 H 523.92 -0.898715 -4.99886 0
M  V30 5590 H 523.85 0.87075 -5.19351 0
M  V30 5591 H 526.341 0.22327 -3.7724 0
M  V30 5592 H 526.654 -0.169104 -7.72615 0
M  V30 5593 H 524.999 -0.145132 -6.94848 0
M  V30 5594 H 528.19 0.192411 -4.67704 0
M  V30 5595 H 528.363 0.0137131 -6.47999 0
M  V30 5596 N 521.769 1.56035 0.221574 0
M  V30 5597 C 522.679 1.95581 1.29558 0
M  V30 5598 C 523.695 0.859639 1.51282 0
M  V30 5599 O 524.871 1.16321 1.64413 0
M  V30 5600 C 521.936 2.26447 2.62531 0
M  V30 5601 C 520.997 3.49632 2.4911 0
M  V30 5602 C 520.23 3.79017 3.75742 0
M  V30 5603 O 520.453 3.10077 4.78757 0
M  V30 5604 O 519.387 4.72507 3.72855 0
M  V30 5605 H 523.213 2.8711 0.990035 0
M  V30 5606 H 520.798 1.43244 0.424434 0
M  V30 5607 H 522.68 2.47494 3.41064 0
M  V30 5608 H 521.355 1.38092 2.92766 0
M  V30 5609 H 520.262 3.33864 1.68777 0
M  V30 5610 H 521.595 4.3837 2.23814 0
M  V30 5611 N 523.247 -0.488276 1.49845 0
M  V30 5612 C 524.663 -0.820566 1.3689 0
M  V30 5613 C 524.863 -1.97248 0.411752 0
M  V30 5614 O 523.919 -2.52042 -0.151931 0
M  V30 5615 C 525.232 -1.1488 2.77891 0
M  V30 5616 C 526.78 -1.25626 2.86683 0
M  V30 5617 C 527.255 -1.61772 4.28479 0
M  V30 5618 N 528.746 -1.68797 4.31349 0
M  V30 5619 C 529.481 -1.98235 5.38043 0
M  V30 5620 N 528.977 -2.2581 6.54967 0
M  V30 5621 N 530.77 -1.99593 5.2547 0
M  V30 5622 H 522.921 0.271123 2.10662 0
M  V30 5623 H 525.184 0.058735 0.946179 0
M  V30 5624 H 524.89 -0.375614 3.49688 0
M  V30 5625 H 524.764 -2.08919 3.14058 0
M  V30 5626 H 527.151 -2.02014 2.15114 0
M  V30 5627 H 527.232 -0.296072 2.54081 0
M  V30 5628 H 526.876 -0.859295 5.00578 0
M  V30 5629 H 526.806 -2.58912 4.58554 0
M  V30 5630 H 529.297 -1.49595 3.4703 0
M  V30 5631 H 529.61 -2.47497 7.32096 0
M  V30 5632 H 527.955 -2.23239 6.58171 0
M  V30 5633 H 531.146 -1.77535 4.33127 0
M  V30 5634 H 531.319 -2.222 6.08713 0
M  V30 5635 N 524.725 -1.39134 -0.740242 0
M  V30 5636 C 525.971 -1.36273 -1.50192 0
M  V30 5637 C 526.304 0.0430136 -1.94152 0
M  V30 5638 O 525.579 1.00691 -1.66408 0
M  V30 5639 C 525.862 -2.33041 -2.74525 0
M  V30 5640 C 525.715 -3.82535 -2.36617 0
M  V30 5641 C 527.034 -2.27723 -3.76604 0
M  V30 5642 H 524.153 -0.496323 -0.544823 0
M  V30 5643 H 526.795 -1.70085 -0.846815 0
M  V30 5644 H 524.945 -2.04337 -3.30422 0
M  V30 5645 H 526.617 -4.21967 -1.86391 0
M  V30 5646 H 524.86 -3.99565 -1.68909 0
M  V30 5647 H 525.531 -4.45723 -3.2563 0
M  V30 5648 H 528.007 -2.53091 -3.30279 0
M  V30 5649 H 526.883 -2.97519 -4.61274 0
M  V30 5650 H 527.144 -1.28049 -4.2315 0
M  V30 5651 N 526.204 0.969867 -1.24223 0
M  V30 5652 C 527.151 2.06407 -1.0327 0
M  V30 5653 C 528.121 1.66014 0.0533 0
M  V30 5654 O 529.306 1.90533 -0.100896 0
M  V30 5655 C 526.446 3.3909 -0.641262 0
M  V30 5656 C 525.559 3.9269 -1.80051 0
M  V30 5657 C 524.694 5.13631 -1.35486 0
M  V30 5658 C 523.733 5.59423 -2.48419 0
M  V30 5659 N 522.87 6.71586 -2.04737 0
M  V30 5660 H 527.71 2.23663 -1.96923 0
M  V30 5661 H 525.247 1.09624 -0.980862 0
M  V30 5662 H 527.205 4.15323 -0.395351 0
M  V30 5663 H 525.835 3.21765 0.258269 0
M  V30 5664 H 524.887 3.13116 -2.16014 0
M  V30 5665 H 526.199 4.22636 -2.64916 0
M  V30 5666 H 525.353 5.97231 -1.0677 0
M  V30 5667 H 524.092 4.85364 -0.476722 0
M  V30 5668 H 523.097 4.74398 -2.77897 0
M  V30 5669 H 524.322 5.89705 -3.36786 0
M  V30 5670 H 522.268 6.45058 -1.19318 0
M  V30 5671 H 522.185 7.0097 -2.83156 0
M  V30 5672 H 523.453 7.58633 -1.79154 0
M  V30 5673 N 527.682 1.05563 1.17022 0
M  V30 5674 C 528.612 0.681026 2.23348 0
M  V30 5675 C 529.593 -0.322983 1.67005 0
M  V30 5676 O 530.778 -0.199746 1.9317 0
M  V30 5677 C 527.908 0.0589053 3.4725 0
M  V30 5678 C 526.862 0.988082 4.16438 0
M  V30 5679 C 526.188 0.229646 5.34207 0
M  V30 5680 C 527.488 2.31388 4.68249 0
M  V30 5681 H 529.182 1.56993 2.54938 0
M  V30 5682 H 526.728 0.756302 1.2254 0
M  V30 5683 H 528.681 -0.214982 4.20851 0
M  V30 5684 H 527.405 -0.864968 3.14938 0
M  V30 5685 H 526.064 1.24659 3.44754 0
M  V30 5686 H 525.712 -0.697111 4.98146 0
M  V30 5687 H 525.412 0.848815 5.81437 0
M  V30 5688 H 526.936 -0.0368694 6.10589 0
M  V30 5689 H 528.35 2.09964 5.33468 0
M  V30 5690 H 526.747 2.88736 5.26072 0
M  V30 5691 H 527.817 2.94982 3.84855 0
M  V30 5692 N 529.16 -1.33526 0.837174 0
M  V30 5693 C 530.406 -1.9813 0.432704 0
M  V30 5694 C 530.739 -1.66168 -1.00508 0
M  V30 5695 O 530.014 -0.94069 -1.70239 0
M  V30 5696 C 530.297 -3.54151 0.651834 0
M  V30 5697 C 530.15 -3.95806 2.13676 0
M  V30 5698 C 531.469 -4.39993 0.0968937 0
M  V30 5699 H 528.588 -0.719713 0.15869 0
M  V30 5700 H 531.23 -1.58193 1.05237 0
M  V30 5701 H 529.38 -3.88301 0.124369 0
M  V30 5702 H 531.052 -3.71921 2.72896 0
M  V30 5703 H 529.295 -3.45599 2.62191 0
M  V30 5704 H 529.966 -5.0447 2.24084 0
M  V30 5705 H 532.442 -4.12479 0.547733 0
M  V30 5706 H 531.318 -5.48186 0.279917 0
M  V30 5707 H 531.579 -4.3066 -0.9992 0
M  V30 5708 N 530.638 -0.59345 -1.46 0
M  V30 5709 C 531.887 -0.0808084 -2.01538 0
M  V30 5710 C 532.2 1.29112 -1.46934 0
M  V30 5711 O 533.406 1.8957 -1.94359 0
M  V30 5712 C 531.862 -0.0938311 -3.59778 0
M  V30 5713 C 531.47 -1.46474 -4.23379 0
M  V30 5714 C 533.214 0.364306 -4.22934 0
M  V30 5715 C 531.121 -1.4349 -5.73729 0
M  V30 5716 H 530.051 -0.0264407 -0.753536 0
M  V30 5717 H 532.702 -0.746689 -1.67621 0
M  V30 5718 H 531.084 0.638427 -3.9082 0
M  V30 5719 H 532.258 -2.21758 -4.03931 0
M  V30 5720 H 530.573 -1.86379 -3.7236 0
M  V30 5721 H 533.17 0.405584 -5.3316 0
M  V30 5722 H 533.513 1.38409 -3.92618 0
M  V30 5723 H 534.046 -0.31423 -3.96557 0
M  V30 5724 H 530.785 -2.43184 -6.08722 0
M  V30 5725 H 530.305 -0.724431 -5.95409 0
M  V30 5726 H 531.984 -1.15243 -6.36654 0
M  V30 5727 N 532.116 1.54067 -0.331816 0
M  V30 5728 C 533.026 2.28322 0.539104 0
M  V30 5729 C 534.042 1.32985 1.1221 0
M  V30 5730 O 535.218 1.6601 1.1403 0
M  V30 5731 C 532.283 3.03277 1.68 0
M  V30 5732 C 531.344 4.14216 1.12798 0
M  V30 5733 C 530.577 4.85588 2.2145 0
M  V30 5734 O 530.8 4.56536 3.41952 0
M  V30 5735 O 529.734 5.72309 1.86404 0
M  V30 5736 H 533.56 3.03632 -0.0641692 0
M  V30 5737 H 531.145 1.49083 -0.0972365 0
M  V30 5738 H 533.027 3.50189 2.34405 0
M  V30 5739 H 531.702 2.30834 2.2693 0
M  V30 5740 H 530.609 3.71635 0.428782 0
M  V30 5741 H 531.942 4.88727 0.583698 0
M  V30 5742 N 533.594 0.0601682 1.57485 0
M  V30 5743 C 534.541 -0.91112 2.12055 0
M  V30 5744 C 535.511 -1.30298 1.03013 0
M  V30 5745 O 536.696 -1.39087 1.30612 0
M  V30 5746 C 533.836 -2.1775 2.67729 0
M  V30 5747 C 532.949 -1.83933 3.90887 0
M  V30 5748 C 532.084 -3.05096 4.34845 0
M  V30 5749 C 531.123 -2.67241 5.5068 0
M  V30 5750 N 530.26 -3.81127 5.8965 0
M  V30 5751 H 535.1 -0.43888 2.9475 0
M  V30 5752 H 532.637 -0.204995 1.45665 0
M  V30 5753 H 534.595 -2.91866 2.98111 0
M  V30 5754 H 533.225 -2.62535 1.87816 0
M  V30 5755 H 532.277 -0.999287 3.6704 0
M  V30 5756 H 533.589 -1.52074 4.75052 0
M  V30 5757 H 532.743 -3.87502 4.66827 0
M  V30 5758 H 531.482 -3.40139 3.49509 0
M  V30 5759 H 530.487 -1.83254 5.18361 0
M  V30 5760 H 531.712 -2.3338 6.37738 0
M  V30 5761 H 529.658 -4.15954 5.07266 0
M  V30 5762 H 529.575 -3.52997 6.68528 0
M  V30 5763 H 530.843 -4.64145 6.2625 0
M  V30 5764 N 535.072 -1.5615 -0.213296 0
M  V30 5765 C 536.488 -1.49327 -0.56336 0
M  V30 5766 C 536.688 -0.756826 -1.86747 0
M  V30 5767 O 535.744 -0.299866 -2.50713 0
M  V30 5768 C 537.057 -2.9392 -0.634944 0
M  V30 5769 C 538.605 -3.04487 -0.725013 0
M  V30 5770 C 539.08 -4.50456 -0.82787 0
M  V30 5771 N 540.571 -4.54533 -0.891876 0
M  V30 5772 C 541.306 -5.64766 -0.991315 0
M  V30 5773 N 540.802 -6.84733 -1.05419 0
M  V30 5774 N 542.595 -5.52637 -1.02709 0
M  V30 5775 H 534.746 -2.02453 0.642366 0
M  V30 5776 H 537.009 -0.920548 0.226487 0
M  V30 5777 H 536.715 -3.50783 0.253859 0
M  V30 5778 H 536.589 -3.46274 -1.49579 0
M  V30 5779 H 538.976 -2.47685 -1.60425 0
M  V30 5780 H 539.057 -2.55289 0.161669 0
M  V30 5781 H 538.701 -5.07878 0.0469464 0
M  V30 5782 H 538.631 -4.97369 -1.73009 0
M  V30 5783 H 541.122 -3.68141 -0.85327 0
M  V30 5784 H 541.435 -7.64493 -1.13007 0
M  V30 5785 H 539.78 -6.87427 -1.02318 0
M  V30 5786 H 542.971 -4.5784 -0.974687 0
M  V30 5787 H 543.144 -6.38576 -1.10113 0
M  V30 5788 N 536.55 0.480323 -1.50102 0
M  V30 5789 C 537.798 1.23063 -1.60312 0
M  V30 5790 C 538.119 1.92659 -0.301226 0
M  V30 5791 O 537.389 1.83691 0.680753 0
M  V30 5792 H 535.969 0.457231 -0.590719 0
M  V30 5793 H 538.631 0.554893 -1.86834 0
M  V30 5794 H 537.727 1.9835 -2.40964 0
M  V30 5795 N 538.028 1.39524 0.732853 0
M  V30 5796 C 539.444 1.21176 1.03868 0
M  V30 5797 C 539.644 0.0748448 2.01361 0
M  V30 5798 O 538.7 -0.57281 2.45917 0
M  V30 5799 C 540.013 2.54667 1.59892 0
M  V30 5800 C 541.561 2.6153 1.71962 0
M  V30 5801 C 542.036 3.95248 2.31394 0
M  V30 5802 N 543.527 3.96899 2.38801 0
M  V30 5803 C 544.262 4.97138 2.85729 0
M  V30 5804 N 543.758 6.07775 3.32537 0
M  V30 5805 N 545.551 4.84516 2.84957 0
M  V30 5806 H 537.702 2.12225 0.086304 0
M  V30 5807 H 539.965 0.942614 0.100907 0
M  V30 5808 H 539.671 3.38423 0.95721 0
M  V30 5809 H 539.545 2.74538 2.58668 0
M  V30 5810 H 541.932 1.78156 2.35254 0
M  V30 5811 H 542.013 2.45507 0.718327 0
M  V30 5812 H 541.657 4.79054 1.68729 0
M  V30 5813 H 541.587 4.08593 3.32204 0
M  V30 5814 H 544.078 3.16998 2.05719 0
M  V30 5815 H 544.391 6.8017 3.66862 0
M  V30 5816 H 542.736 6.11366 3.30541 0
M  V30 5817 H 545.927 3.97185 2.47713 0
M  V30 5818 H 546.1 5.62783 3.21215 0
M  V30 5819 N 539.506 -0.963266 1.24736 0
M  V30 5820 C 540.453 -2.05857 1.04363 0
M  V30 5821 C 541.423 -1.6604 -0.0444951 0
M  V30 5822 O 542.608 -1.90477 0.110999 0
M  V30 5823 C 539.748 -3.38745 0.659235 0
M  V30 5824 C 538.861 -3.9173 1.82131 0
M  V30 5825 C 537.996 -5.12906 1.38208 0
M  V30 5826 C 537.035 -5.58098 2.51382 0
M  V30 5827 N 536.172 -6.7049 2.08295 0
M  V30 5828 H 541.012 -2.22616 1.98107 0
M  V30 5829 H 538.549 -1.09103 0.986661 0
M  V30 5830 H 540.507 -4.15107 0.417371 0
M  V30 5831 H 539.137 -3.21898 -0.241201 0
M  V30 5832 H 538.189 -3.11966 2.17672 0
M  V30 5833 H 539.501 -4.21225 2.67153 0
M  V30 5834 H 538.655 -5.96657 1.09935 0
M  V30 5835 H 537.394 -4.85105 0.502456 0
M  V30 5836 H 536.399 -4.72917 2.80409 0
M  V30 5837 H 537.624 -5.87911 3.39909 0
M  V30 5838 H 535.57 -6.44416 1.22737 0
M  V30 5839 H 535.487 -6.99458 2.86869 0
M  V30 5840 H 536.755 -7.57672 1.83175 0
M  V30 5841 N 540.985 -1.06182 -1.16461 0
M  V30 5842 C 542.233 -0.776326 -1.86595 0
M  V30 5843 C 542.554 0.69921 -1.82033 0
M  V30 5844 O 541.824 1.50579 -1.2531 0
M  V30 5845 H 540.404 -0.284184 -0.690832 0
M  V30 5846 H 543.066 -1.34308 -1.41235 0
M  V30 5847 H 542.162 -1.10022 -2.92064 0
M  V30 5848 N 542.463 1.3308 -0.844243 0
M  V30 5849 C 543.393 2.3161 -0.296493 0
M  V30 5850 C 544.374 1.59215 0.598707 0
M  V30 5851 O 545.559 1.87077 0.521134 0
M  V30 5852 C 542.689 3.43313 0.524762 0
M  V30 5853 C 541.643 4.27115 -0.275106 0
M  V30 5854 C 540.969 5.30483 0.670236 0
M  V30 5855 C 542.269 5.00443 -1.49514 0
M  V30 5856 H 543.963 2.77672 -1.11976 0
M  V30 5857 H 541.509 1.33496 -0.539899 0
M  V30 5858 H 543.462 4.11273 0.918298 0
M  V30 5859 H 542.186 2.95952 1.3813 0
M  V30 5860 H 540.845 3.60787 -0.650267 0
M  V30 5861 H 540.493 4.79379 1.52332 0
M  V30 5862 H 540.193 5.87435 0.139123 0
M  V30 5863 H 541.717 6.01308 1.06117 0
M  V30 5864 H 543.131 5.61141 -1.17447 0
M  V30 5865 H 541.528 5.67071 -1.96343 0
M  V30 5866 H 542.598 4.28906 -2.26202 0
M  V30 5867 N 543.941 0.601185 1.45683 0
M  V30 5868 C 545.218 0.0261659 1.95582 0
M  V30 5869 C 545.598 -1.4399 1.5437 0
M  V30 5870 O 544.946 -2.13919 0.80318 0
M  V30 5871 C 545.156 0.217557 3.48321 0
M  V30 5872 C 546.504 0.0950076 4.24494 0
M  V30 5873 O 547.528 0.147345 3.55895 0
M  V30 5874 O 546.387 -0.025261 5.46494 0
M  V30 5875 H 543.481 -0.0393688 0.826062 0
M  V30 5876 H 546.027 0.670798 1.55879 0
M  V30 5877 H 544.799 1.23601 3.71266 0
M  V30 5878 H 544.422 -0.46264 3.94899 0
M  V30 5879 N 545.419 -1.53889 0.339982 0
M  V30 5880 C 546.366 -2.24902 -0.518452 0
M  V30 5881 C 547.336 -1.24593 -1.09844 0
M  V30 5882 O 548.521 -1.53317 -1.13572 0
M  V30 5883 C 545.661 -3.02262 -1.66529 0
M  V30 5884 C 544.774 -4.17418 -1.11295 0
M  V30 5885 C 543.909 -4.82273 -2.2268 0
M  V30 5886 C 542.948 -5.89503 -1.6478 0
M  V30 5887 N 542.085 -6.48153 -2.69893 0
M  V30 5888 H 546.925 -2.97853 0.0936579 0
M  V30 5889 H 544.462 -1.46986 0.0579924 0
M  V30 5890 H 546.42 -3.45371 -2.3404 0
M  V30 5891 H 545.05 -2.31614 -2.24844 0
M  V30 5892 H 544.102 -3.78976 -0.328886 0
M  V30 5893 H 545.414 -4.94554 -0.649414 0
M  V30 5894 H 544.568 -5.28435 -2.98063 0
M  V30 5895 H 543.307 -4.04552 -2.72376 0
M  V30 5896 H 542.312 -5.42728 -0.879004 0
M  V30 5897 H 543.537 -6.6913 -1.1594 0
M  V30 5898 H 541.483 -5.73298 -3.1885 0
M  V30 5899 H 541.4 -7.20752 -2.28151 0
M  V30 5900 H 542.668 -6.98968 -3.45056 0
M  V30 5901 N 546.897 -0.0685191 -1.57451 0
M  V30 5902 C 547.847 0.909895 -2.09057 0
M  V30 5903 C 548.831 1.26088 -0.999528 0
M  V30 5904 O 550.023 1.24041 -1.26265 0
M  V30 5905 C 547.152 2.17863 -2.65312 0
M  V30 5906 C 546.238 1.85427 -3.81415 0
M  V30 5907 N 546.629 1.23426 -4.9051 0
M  V30 5908 C 544.927 2.15196 -3.90649 0
M  V30 5909 C 545.628 1.09008 -5.71395 0
M  V30 5910 N 544.604 1.59871 -5.1956 0
M  V30 5911 H 548.406 0.426145 -2.90794 0
M  V30 5912 H 545.92 0.135462 -1.61834 0
M  V30 5913 H 547.917 2.88872 -3.00597 0
M  V30 5914 H 546.577 2.66829 -1.85021 0
M  V30 5915 H 547.588 0.904305 -5.09944 0
M  V30 5916 H 544.265 2.66562 -3.21327 0
M  V30 5917 H 545.655 0.607305 -6.6915 0
M  V30 5918 N 548.375 1.56261 0.205012 0
M  V30 5919 C 549.285 1.96944 1.27476 0
M  V30 5920 C 550.301 0.875636 1.50362 0
M  V30 5921 O 551.477 1.18058 1.6317 0
M  V30 5922 C 548.542 2.29219 2.60115 0
M  V30 5923 C 547.603 3.52255 2.45387 0
M  V30 5924 C 546.836 3.8298 3.71701 0
M  V30 5925 O 547.059 3.15138 4.75441 0
M  V30 5926 O 545.993 4.76435 3.67823 0
M  V30 5927 H 549.819 2.88144 0.959527 0
M  V30 5928 H 547.404 1.43686 0.409217 0
M  V30 5929 H 549.286 2.51098 3.3842 0
M  V30 5930 H 547.961 1.4119 2.91285 0
M  V30 5931 H 546.868 3.35635 1.65227 0
M  V30 5932 H 548.201 4.40719 2.19152 0
M  V30 5933 N 549.853 -0.472356 1.50355 0
M  V30 5934 C 550.803 -1.56809 1.65514 0
M  V30 5935 C 551.787 -1.5261 0.509801 0
M  V30 5936 O 552.979 -1.59655 0.764145 0
M  V30 5937 C 550.108 -2.9526 1.75146 0
M  V30 5938 C 549.194 -3.04348 2.95353 0
M  V30 5939 N 549.585 -2.83253 4.19048 0
M  V30 5940 C 547.883 -3.35482 2.93884 0
M  V30 5941 C 548.584 -2.97273 5.00003 0
M  V30 5942 N 547.56 -3.27418 4.33934 0
M  V30 5943 H 551.362 -1.39197 2.58846 0
M  V30 5944 H 548.876 -0.67906 1.47521 0
M  V30 5945 H 550.873 -3.74044 1.8411 0
M  V30 5946 H 549.533 -3.1392 0.829717 0
M  V30 5947 H 550.544 -2.5886 4.48567 0
M  V30 5948 H 547.221 -3.60138 2.11204 0
M  V30 5949 H 548.611 -2.85214 6.08361 0
M  V30 5950 N 551.331 -1.39911 -0.725443 0
M  V30 5951 C 552.58 -1.36963 -1.48068 0
M  V30 5952 C 552.893 0.0284478 -1.95579 0
M  V30 5953 O 554.099 0.180535 -2.70899 0
M  V30 5954 C 552.555 -2.40664 -2.67598 0
M  V30 5955 C 552.163 -3.86234 -2.26997 0
M  V30 5956 C 553.907 -2.46807 -3.45379 0
M  V30 5957 C 551.814 -4.81554 -3.43307 0
M  V30 5958 H 550.744 -0.509223 -0.556065 0
M  V30 5959 H 553.395 -1.65602 -0.790454 0
M  V30 5960 H 551.777 -2.05109 -3.38742 0
M  V30 5961 H 552.951 -4.3088 -1.63337 0
M  V30 5962 H 551.266 -3.83475 -1.62284 0
M  V30 5963 H 553.863 -3.15213 -4.31909 0
M  V30 5964 H 554.206 -1.49552 -3.8851 0
M  V30 5965 H 554.739 -2.81303 -2.81271 0
M  V30 5966 H 551.478 -5.80106 -3.05217 0
M  V30 5967 H 550.998 -4.4158 -4.05915 0
M  V30 5968 H 552.677 -5.0091 -4.0951 0
M  V30 5969 N 552.809 0.956637 -1.25245 0
M  V30 5970 C 553.757 2.0743 -1.0524 0
M  V30 5971 C 554.751 1.69392 0.0160725 0
M  V30 5972 O 555.957 1.7946 -0.139382 0
M  V30 5973 H 552.332 0.678921 -0.323373 0
M  V30 5974 H 554.303 2.2146 -1.99995 0
M  V30 5975 C 553.052 3.40872 -0.685702 0
M  V30 5976 H 552.375 3.70607 -1.49968 0
M  V30 5977 H 553.815 4.19939 -0.585415 0
M  V30 5978 C 552.274 3.31367 0.608082 0
M  V30 5979 O 552.804 3.66214 1.65076 0
M  V30 5980 N 551.01 2.84486 0.592955 0
M  V30 5981 H 550.557 2.56326 -0.25592 0
M  V30 5982 H 550.515 2.78509 1.45877 0
M  V30 5983 N 554.287 1.06798 1.15896 0
M  V30 5984 C 555.536 0.782796 1.8589 0
M  V30 5985 C 555.849 -0.693498 1.82893 0
M  V30 5986 O 557.055 -1.09325 2.48516 0
M  V30 5987 C 555.511 1.3502 3.33613 0
M  V30 5988 C 555.119 2.8571 3.45071 0
M  V30 5989 C 556.863 1.14278 4.08829 0
M  V30 5990 C 554.77 3.35669 4.86909 0
M  V30 5991 H 553.7 0.289149 0.696354 0
M  V30 5992 H 556.351 1.28734 1.30766 0
M  V30 5993 H 554.733 0.773407 3.88374 0
M  V30 5994 H 555.907 3.49385 3.00445 0
M  V30 5995 H 554.222 3.05178 2.83294 0
M  V30 5996 H 556.819 1.49087 5.13495 0
M  V30 5997 H 557.162 0.0814575 4.1622 0
M  V30 5998 H 557.695 1.68563 3.60321 0
M  V30 5999 H 554.434 4.41302 4.84698 0
M  V30 6000 H 553.954 2.76745 5.32139 0
M  V30 6001 H 555.633 3.31296 5.55745 0
M  V30 6002 N 555.766 -1.3263 0.851289 0
M  V30 6003 C 556.696 -2.31449 0.308771 0
M  V30 6004 C 557.677 -1.59531 -0.590255 0
M  V30 6005 O 558.862 -1.87351 -0.511205 0
M  V30 6006 C 555.992 -3.43586 -0.506548 0
M  V30 6007 C 554.946 -4.26963 0.297753 0
M  V30 6008 C 554.272 -5.30831 -0.642094 0
M  V30 6009 C 555.572 -4.99643 1.52166 0
M  V30 6010 H 557.266 -2.77074 1.13447 0
M  V30 6011 H 554.812 -1.33207 0.546971 0
M  V30 6012 H 556.765 -4.11754 -0.896474 0
M  V30 6013 H 555.489 -2.96681 -1.36558 0
M  V30 6014 H 554.148 -3.60437 0.669391 0
M  V30 6015 H 553.796 -4.8018 -1.49788 0
M  V30 6016 H 553.496 -5.87501 -0.107968 0
M  V30 6017 H 555.02 -6.01862 -1.02927 0
M  V30 6018 H 556.434 -5.6051 1.20421 0
M  V30 6019 H 554.831 -5.66022 1.99347 0
M  V30 6020 H 555.901 -4.27701 2.28474 0
M  V30 6021 N 557.244 -0.608902 -1.45362 0
M  V30 6022 C 558.469 -0.10921 -2.07112 0
M  V30 6023 C 558.894 1.19779 -1.45033 0
M  V30 6024 O 558.252 1.72961 -0.543527 0
M  V30 6025 C 558.3 0.0155745 -3.60597 0
M  V30 6026 O 557.404 1.06546 -3.98399 0
M  V30 6027 H 556.745 -0.0746619 -0.659789 0
M  V30 6028 H 559.275 -0.839283 -1.86594 0
M  V30 6029 H 559.285 0.213364 -4.07442 0
M  V30 6030 H 557.96 -0.938765 -4.05167 0
M  V30 6031 H 556.537 0.844024 -3.63223 0
M  V30 6032 N 558.722 1.53707 -0.348139 0
M  V30 6033 C 559.669 2.25173 0.506518 0
M  V30 6034 C 560.639 1.25174 1.09182 0
M  V30 6035 O 561.824 1.53917 1.12757 0
M  V30 6036 C 558.964 3.03141 1.64923 0
M  V30 6037 C 558.077 4.18002 1.0908 0
M  V30 6038 C 557.212 4.83447 2.20119 0
M  V30 6039 C 556.251 5.90369 1.61651 0
M  V30 6040 N 555.388 6.49575 2.66451 0
M  V30 6041 H 560.228 2.97799 -0.109452 0
M  V30 6042 H 557.765 1.46953 -0.0657866 0
M  V30 6043 H 559.723 3.46607 2.32205 0
M  V30 6044 H 558.353 2.32803 2.23612 0
M  V30 6045 H 557.405 3.79145 0.308783 0
M  V30 6046 H 558.717 4.94892 0.623178 0
M  V30 6047 H 557.871 5.30008 2.95257 0
M  V30 6048 H 556.61 4.05991 2.70227 0
M  V30 6049 H 555.615 5.43186 0.850209 0
M  V30 6050 H 556.84 6.69735 1.1239 0
M  V30 6051 H 554.786 5.74981 3.15805 0
M  V30 6052 H 554.703 7.21952 2.24325 0
M  V30 6053 H 555.971 7.00789 3.41344 0
M  V30 6054 N 560.2 0.0768682 1.57412 0
M  V30 6055 C 561.13 -0.886026 2.16037 0
M  V30 6056 C 562.111 -1.30691 1.08876 0
M  V30 6057 O 563.296 -1.37705 1.36934 0
M  V30 6058 C 560.426 -2.1518 2.72608 0
M  V30 6059 C 559.38 -1.87015 3.8498 0
M  V30 6060 C 558.706 -3.20266 4.28175 0
M  V30 6061 C 560.006 -1.17143 5.08994 0
M  V30 6062 H 561.7 -0.397642 2.96748 0
M  V30 6063 H 559.246 -0.189823 1.42743 0
M  V30 6064 H 561.199 -2.82962 3.12266 0
M  V30 6065 H 559.923 -2.66269 1.89125 0
M  V30 6066 H 558.582 -1.21636 3.45833 0
M  V30 6067 H 558.23 -3.69207 3.41607 0
M  V30 6068 H 557.93 -3.0221 5.03927 0
M  V30 6069 H 559.454 -3.89237 4.70454 0
M  V30 6070 H 560.868 -1.75003 5.45937 0
M  V30 6071 H 559.265 -1.09328 5.90057 0
M  V30 6072 H 560.335 -0.151295 4.84664 0
M  V30 6073 N 561.678 -1.56367 -0.196722 0
M  V30 6074 C 562.918 -1.82315 -0.92415 0
M  V30 6075 C 563.282 -0.654117 -1.80514 0
M  V30 6076 O 564.483 -0.79345 -2.56823 0
M  V30 6077 C 562.754 -3.13279 -1.72021 0
M  V30 6078 S 564.313 -3.60627 -2.49988 0
M  V30 6079 H 561.131 -0.639862 -0.309997 0
M  V30 6080 H 563.733 -1.94597 -0.187684 0
M  V30 6081 H 562.437 -3.96379 -1.06358 0
M  V30 6082 H 561.968 -3.03871 -2.49852 0
M  V30 6083 H 563.983 -3.25934 -3.74141 0
M  V30 6084 N 563.156 0.464375 -1.50603 0
M  V30 6085 C 564.066 1.58723 -1.72754 0
M  V30 6086 C 565.082 1.62925 -0.610844 0
M  V30 6087 O 566.258 1.8067 -0.889963 0
M  V30 6088 C 563.323 2.94897 -1.82309 0
M  V30 6089 C 562.384 3.0103 -3.06071 0
M  V30 6090 C 561.617 4.30708 -3.1516 0
M  V30 6091 O 561.84 5.2159 -2.30868 0
M  V30 6092 O 560.774 4.42571 -4.0794 0
M  V30 6093 H 564.6 1.42954 -2.67951 0
M  V30 6094 H 562.185 0.644579 -1.3478 0
M  V30 6095 H 564.067 3.75764 -1.90735 0
M  V30 6096 H 562.742 3.10851 -0.902967 0
M  V30 6097 H 561.649 2.19217 -3.03142 0
M  V30 6098 H 562.982 2.90014 -3.97684 0
M  V30 6099 N 564.634 1.40294 0.718013 0
M  V30 6100 C 565.883 1.37746 1.4734 0
M  V30 6101 C 566.196 -0.0180754 1.95592 0
M  V30 6102 O 567.402 -0.166166 2.70991 0
M  V30 6103 C 565.858 2.4208 2.66318 0
M  V30 6104 C 565.466 3.87432 2.24945 0
M  V30 6105 C 567.21 2.48635 3.44065 0
M  V30 6106 C 565.117 4.83368 3.40748 0
M  V30 6107 H 564.047 0.512165 0.553356 0
M  V30 6108 H 566.698 1.66019 0.781661 0
M  V30 6109 H 565.08 2.06903 3.3765 0
M  V30 6110 H 566.254 4.3174 1.6105 0
M  V30 6111 H 564.569 3.8433 1.60249 0
M  V30 6112 H 567.166 3.17499 4.30231 0
M  V30 6113 H 567.509 1.51611 3.87711 0
M  V30 6114 H 568.042 2.82791 2.79775 0
M  V30 6115 H 564.781 5.81716 3.02136 0
M  V30 6116 H 564.301 4.43726 4.03568 0
M  V30 6117 H 565.98 5.03074 4.06848 0
M  V30 6118 N 566.112 -0.949982 1.2575 0
M  V30 6119 C 567.075 -2.02894 1.06615 0
M  V30 6120 C 568.075 -1.60791 0.0173905 0
M  V30 6121 O 569.265 -1.72249 0.260003 0
M  V30 6122 C 566.397 -3.35219 0.619751 0
M  V30 6123 H 567.59 -2.21302 2.02399 0
M  V30 6124 H 565.143 -1.12772 1.08223 0
M  V30 6125 H 565.878 -3.22508 -0.340486 0
M  V30 6126 H 565.663 -3.67129 1.37692 0
M  V30 6127 H 567.153 -4.14505 0.507443 0
M  V30 6128 N 567.59 -1.07411 -1.15328 0
M  V30 6129 C 568.537 -0.694995 -2.20087 0
M  V30 6130 C 569.507 0.313904 -1.63107 0
M  V30 6131 O 570.692 0.200216 -1.89747 0
M  V30 6132 C 567.832 -0.0996218 -3.44956 0
M  V30 6133 C 566.945 -1.16007 -4.16133 0
M  V30 6134 C 566.08 -0.529636 -5.28553 0
M  V30 6135 C 565.119 -1.57283 -5.91548 0
M  V30 6136 N 564.256 -0.964932 -6.95438 0
M  V30 6137 H 569.096 -1.5927 -2.51867 0
M  V30 6138 H 566.633 -0.796115 -1.23695 0
M  V30 6139 H 568.591 0.263197 -4.16369 0
M  V30 6140 H 567.221 0.761435 -3.13691 0
M  V30 6141 H 566.273 -1.64045 -3.4321 0
M  V30 6142 H 567.585 -1.95101 -4.59061 0
M  V30 6143 H 566.739 -0.114487 -6.06592 0
M  V30 6144 H 565.478 0.29307 -4.86819 0
M  V30 6145 H 564.483 -1.99775 -5.12221 0
M  V30 6146 H 565.708 -2.39783 -6.35359 0
M  V30 6147 H 563.654 -0.16314 -6.55797 0
M  V30 6148 H 563.571 -1.69311 -7.36797 0
M  V30 6149 H 564.839 -0.575305 -7.77374 0
M  V30 6150 N 569.068 1.32177 -0.85831 0
M  V30 6151 C 570.296 2.01313 -0.477582 0
M  V30 6152 C 570.711 1.6449 0.926736 0
M  V30 6153 O 570.068 0.868096 1.60531 0
M  V30 6154 C 570.119 3.56293 -0.611337 0
M  V30 6155 O 569.84 3.91794 -1.96034 0
M  V30 6156 C 571.341 4.42702 -0.230093 0
M  V30 6157 H 568.561 0.644323 -0.187322 0
M  V30 6158 H 571.105 1.68674 -1.15626 0
M  V30 6159 H 569.26 3.87395 0.0196494 0
M  V30 6160 H 569.674 4.86513 -1.95973 0
M  V30 6161 H 571.148 5.50727 -0.374674 0
M  V30 6162 H 571.625 4.3129 0.829779 0
M  V30 6163 H 572.231 4.16997 -0.836302 0
M  V30 6164 N 570.547 0.616602 1.45037 0
M  V30 6165 C 571.796 0.112861 2.01384 0
M  V30 6166 C 572.109 -1.26758 1.48969 0
M  V30 6167 O 573.315 -1.86454 1.9735 0
M  V30 6168 C 571.771 0.151057 3.59583 0
M  V30 6169 C 571.379 1.53191 4.20995 0
M  V30 6170 C 573.123 -0.296974 4.2346 0
M  V30 6171 C 571.03 1.526 5.71373 0
M  V30 6172 H 569.96 0.0384254 0.75302 0
M  V30 6173 H 572.611 0.773262 1.66412 0
M  V30 6174 H 570.993 -0.57617 3.91786 0
M  V30 6175 H 572.167 2.28156 4.00352 0
M  V30 6176 H 570.482 1.92279 3.69348 0
M  V30 6177 H 573.079 -0.320712 5.33737 0
M  V30 6178 H 573.422 -1.32145 3.9477 0
M  V30 6179 H 573.955 0.377279 3.96007 0
M  V30 6180 H 570.694 2.52837 6.04776 0
M  V30 6181 H 570.214 0.819064 5.94181 0
M  V30 6182 H 571.893 1.25357 6.3474 0
M  V30 6183 N 572.025 -1.5352 0.356285 0
M  V30 6184 C 573.25 -2.06007 -0.239961 0
M  V30 6185 C 573.675 -1.22872 -1.42422 0
M  V30 6186 O 573.033 -0.245516 -1.7963 0
M  V30 6187 C 573.081 -3.5522 -0.620587 0
M  V30 6188 O 572.185 -3.74864 -1.71902 0
M  V30 6189 H 571.526 -0.662961 -0.0371377 0
M  V30 6190 H 574.056 -1.98033 0.514194 0
M  V30 6191 H 574.066 -3.98081 -0.894197 0
M  V30 6192 H 572.741 -4.15175 0.245407 0
M  V30 6193 H 571.318 -3.43904 -1.44169 0
M  V30 6194 N 573.503 -0.0852151 -1.57369 0
M  V30 6195 C 574.731 0.58946 -1.98325 0
M  V30 6196 C 575.146 1.62333 -0.96403 0
M  V30 6197 O 574.503 1.82438 0.0476395 0
M  V30 6198 C 574.554 1.24604 -3.39347 0
M  V30 6199 O 574.275 0.253532 -4.37366 0
M  V30 6200 C 575.776 2.00726 -3.95252 0
M  V30 6201 H 572.996 0.158783 -0.651942 0
M  V30 6202 H 575.54 -0.161584 -2.03861 0
M  V30 6203 H 573.695 1.94808 -3.34856 0
M  V30 6204 H 574.109 0.726207 -5.19448 0
M  V30 6205 H 575.583 2.42039 -4.96106 0
M  V30 6206 H 576.06 2.86919 -3.32527 0
M  V30 6207 H 576.666 1.3536 -4.03185 0
M  V30 6208 N 574.981 1.5647 0.188427 0
M  V30 6209 C 575.913 1.91611 1.25769 0
M  V30 6210 C 576.926 0.807436 1.41366 0
M  V30 6211 O 578.115 1.08586 1.41673 0
M  V30 6212 C 575.215 2.13874 2.6289 0
M  V30 6213 C 574.388 3.45047 2.68815 0
M  V30 6214 C 573.447 3.56342 3.87178 0
M  V30 6215 O 572.473 4.29109 3.73971 0
M  V30 6216 N 573.675 2.89924 5.02916 0
M  V30 6217 H 576.44 2.8393 0.959373 0
M  V30 6218 H 574.001 1.57418 0.378306 0
M  V30 6219 H 575.993 2.18713 3.4051 0
M  V30 6220 H 574.563 1.28022 2.85183 0
M  V30 6221 H 573.783 3.52017 1.77419 0
M  V30 6222 H 575.071 4.31395 2.6977 0
M  V30 6223 H 574.469 2.30644 5.16546 0
M  V30 6224 H 573.026 3.0038 5.78459 0
M  V30 6225 N 576.459 -0.456382 1.50847 0
M  V30 6226 C 577.684 -1.2349 1.66628 0
M  V30 6227 C 578.109 -1.84715 0.355254 0
M  V30 6228 O 577.467 -1.67961 -0.682559 0
M  V30 6229 C 577.515 -2.30865 2.77009 0
M  V30 6230 O 576.619 -3.35882 2.39285 0
M  V30 6231 H 575.96 -0.36266 0.556214 0
M  V30 6232 H 578.49 -0.541374 1.97308 0
M  V30 6233 H 578.5 -2.75949 3.00526 0
M  V30 6234 H 577.175 -1.85677 3.72152 0
M  V30 6235 H 575.752 -2.96406 2.26269 0
M  V30 6236 N 577.937 -1.40673 -0.710563 0
M  V30 6237 C 579.167 -1.4234 -1.49742 0
M  V30 6238 C 579.575 -0.022821 -1.89186 0
M  V30 6239 O 578.918 0.964773 -1.56326 0
M  V30 6240 C 578.98 -2.25509 -2.79975 0
M  V30 6241 C 578.644 -3.73862 -2.62824 0
M  V30 6242 C 579.641 -4.66379 -2.29752 0
M  V30 6243 C 577.326 -4.17735 -2.78932 0
M  V30 6244 C 579.32 -6.00756 -2.13006 0
M  V30 6245 C 577.007 -5.5218 -2.61802 0
M  V30 6246 C 578.005 -6.43505 -2.28888 0
M  V30 6247 O 577.693 -7.75472 -2.11894 0
M  V30 6248 H 577.425 -0.487311 -0.468513 0
M  V30 6249 H 579.979 -1.8542 -0.883668 0
M  V30 6250 H 578.209 -1.77218 -3.43701 0
M  V30 6251 H 579.898 -2.19058 -3.41714 0
M  V30 6252 H 580.664 -4.33778 -2.16936 0
M  V30 6253 H 576.543 -3.46967 -3.03537 0
M  V30 6254 H 580.087 -6.72003 -1.87237 0
M  V30 6255 H 575.984 -5.84365 -2.74204 0
M  V30 6256 H 576.752 -7.86458 -2.26775 0
M  V30 6257 N 579.415 0.9433 -1.26252 0
M  V30 6258 C 580.664 1.68369 -1.11062 0
M  V30 6259 C 580.977 1.92514 0.346104 0
M  V30 6260 O 582.183 2.64358 0.618646 0
M  V30 6261 C 580.639 3.03171 -1.93946 0
M  V30 6262 C 580.247 2.86782 -3.4418 0
M  V30 6263 C 581.991 3.80916 -1.87359 0
M  V30 6264 C 579.898 4.17044 -4.19319 0
M  V30 6265 H 578.828 0.631469 -0.412023 0
M  V30 6266 H 581.479 1.04922 -1.50544 0
M  V30 6267 H 579.861 3.67587 -1.47296 0
M  V30 6268 H 581.035 2.31229 -3.98585 0
M  V30 6269 H 579.35 2.22482 -3.51981 0
M  V30 6270 H 581.947 4.77417 -2.40784 0
M  V30 6271 H 582.29 4.07658 -0.843857 0
M  V30 6272 H 582.823 3.2327 -2.31821 0
M  V30 6273 H 579.562 3.95487 -5.22753 0
M  V30 6274 H 579.082 4.72319 -3.69696 0
M  V30 6275 H 580.761 4.85513 -4.27651 0
M  V30 6276 N 580.893 1.08022 1.14757 0
M  V30 6277 C 581.803 0.718292 2.23333 0
M  V30 6278 C 582.819 -0.273477 1.71837 0
M  V30 6279 O 583.995 -0.118406 2.01052 0
M  V30 6280 C 581.06 0.128855 3.4646 0
M  V30 6281 C 580.121 1.17473 4.12915 0
M  V30 6282 C 579.354 0.61333 5.30164 0
M  V30 6283 O 579.577 -0.568458 5.6756 0
M  V30 6284 O 578.511 1.3615 5.86299 0
M  V30 6285 H 582.337 1.62394 2.56636 0
M  V30 6286 H 579.922 0.853628 1.22611 0
M  V30 6287 H 581.804 -0.197249 4.20938 0
M  V30 6288 H 580.479 -0.750014 3.14891 0
M  V30 6289 H 579.386 1.5533 3.40328 0
M  V30 6290 H 580.719 2.02574 4.48581 0
M  V30 6291 N 582.371 -1.3172 0.865308 0
M  V30 6292 C 583.617 -1.97168 0.474633 0
M  V30 6293 C 583.95 -1.68263 -0.969604 0
M  V30 6294 O 583.225 -0.976588 -1.68205 0
M  V30 6295 C 583.508 -3.52689 0.726808 0
M  V30 6296 C 583.361 -3.91185 2.22024 0
M  V30 6297 C 584.68 -4.39689 0.190201 0
M  V30 6298 H 581.799 -0.716185 0.17392 0
M  V30 6299 H 584.441 -1.55925 1.08569 0
M  V30 6300 H 582.591 -3.8795 0.206705 0
M  V30 6301 H 584.263 -3.66049 2.80724 0
M  V30 6302 H 582.506 -3.3996 2.69462 0
M  V30 6303 H 583.177 -4.99604 2.34735 0
M  V30 6304 H 585.653 -4.11225 0.635103 0
M  V30 6305 H 584.529 -5.47469 0.396132 0
M  V30 6306 H 584.79 -4.32683 -0.907625 0
M  V30 6307 N 583.85 -0.624285 -1.44708 0
M  V30 6308 C 584.779 0.0717025 -2.3339 0
M  V30 6309 C 585.76 0.841814 -1.47809 0
M  V30 6310 O 586.946 0.809056 -1.76544 0
M  V30 6311 C 584.076 1.05852 -3.30776 0
M  V30 6312 C 583.029 0.400503 -4.26122 0
M  V30 6313 C 582.356 1.49674 -5.13324 0
M  V30 6314 C 583.656 -0.688924 -5.17737 0
M  V30 6315 H 585.35 -0.668819 -2.91834 0
M  V30 6316 H 582.896 -0.32308 -1.40329 0
M  V30 6317 H 584.849 1.5541 -3.91696 0
M  V30 6318 H 583.572 1.82984 -2.70526 0
M  V30 6319 H 582.231 -0.0743687 -3.66525 0
M  V30 6320 H 581.88 2.25877 -4.49431 0
M  V30 6321 H 581.58 1.06188 -5.77926 0
M  V30 6322 H 583.104 1.99427 -5.77115 0
M  V30 6323 H 584.518 -0.276724 -5.72632 0
M  V30 6324 H 582.915 -1.04652 -5.90904 0
M  V30 6325 H 583.985 -1.55884 -4.5916 0
M  V30 6326 N 585.328 1.53329 -0.364422 0
M  V30 6327 C 586.238 2.29414 0.490552 0
M  V30 6328 C 587.254 1.35335 1.09363 0
M  V30 6329 O 588.43 1.68391 1.10483 0
M  V30 6330 C 585.495 3.06772 1.61529 0
M  V30 6331 C 584.556 4.16516 1.03986 0
M  V30 6332 C 583.789 4.90176 2.111 0
M  V30 6333 O 584.012 4.63687 3.32191 0
M  V30 6334 O 582.946 5.76134 1.74222 0
M  V30 6335 H 586.772 3.03428 -0.12856 0
M  V30 6336 H 584.357 1.48843 -0.128837 0
M  V30 6337 H 586.239 3.55082 2.26924 0
M  V30 6338 H 584.914 2.35596 2.21983 0
M  V30 6339 H 583.821 3.7246 0.349856 0
M  V30 6340 H 585.154 4.89855 0.4799 0
M  V30 6341 N 586.806 0.0935595 1.57322 0
M  V30 6342 C 587.756 -0.876521 2.10478 0
M  V30 6343 C 588.74 -1.24482 1.01946 0
M  V30 6344 O 589.932 -1.22016 1.28223 0
M  V30 6345 C 587.061 -2.13615 2.68745 0
M  V30 6346 C 586.147 -1.79335 3.84317 0
M  V30 6347 N 586.538 -1.15606 4.92411 0
M  V30 6348 C 584.836 -2.08954 3.94023 0
M  V30 6349 C 585.537 -0.999036 5.73057 0
M  V30 6350 N 584.513 -1.51585 5.22037 0
M  V30 6351 H 588.315 -0.379829 2.91435 0
M  V30 6352 H 585.829 -0.109699 1.62029 0
M  V30 6353 H 587.826 -2.84053 3.05155 0
M  V30 6354 H 586.486 -2.63851 1.89242 0
M  V30 6355 H 587.497 -0.823063 5.11318 0
M  V30 6356 H 584.174 -2.61416 3.25527 0
M  V30 6357 H 585.564 -0.500772 6.70031 0
M  V30 6358 N 588.284 -1.56567 -0.180126 0
M  V30 6359 C 589.214 -1.98753 -1.22553 0
M  V30 6360 C 590.195 -0.86175 -1.46656 0
M  V30 6361 O 591.38 -1.12719 -1.58139 0
M  V30 6362 C 588.51 -2.33988 -2.56645 0
M  V30 6363 C 587.464 -3.49445 -2.47128 0
M  V30 6364 C 586.79 -3.70397 -3.8563 0
M  V30 6365 C 588.09 -4.83171 -1.98352 0
M  V30 6366 H 589.784 -2.86332 -0.874896 0
M  V30 6367 H 587.33 -1.37757 -0.419414 0
M  V30 6368 H 589.283 -2.62097 -3.29974 0
M  V30 6369 H 588.007 -1.43309 -2.93479 0
M  V30 6370 H 586.666 -3.2145 -1.76254 0
M  V30 6371 H 586.314 -2.77023 -4.19842 0
M  V30 6372 H 586.014 -4.48077 -3.80132 0
M  V30 6373 H 587.538 -4.00897 -4.60558 0
M  V30 6374 H 588.952 -5.10213 -2.61449 0
M  V30 6375 H 587.349 -5.64425 -2.03823 0
M  V30 6376 H 588.419 -4.75753 -0.937402 0
M  V30 6377 N 589.762 0.448376 -1.51087 0
M  V30 6378 C 591.011 1.19561 -1.62444 0
M  V30 6379 C 591.324 1.92602 -0.341151 0
M  V30 6380 O 592.53 2.69439 -0.333936 0
M  V30 6381 C 590.986 2.17373 -2.8684 0
M  V30 6382 C 590.594 1.5003 -4.22131 0
M  V30 6383 C 592.338 2.92597 -3.0755 0
M  V30 6384 C 590.245 2.46262 -5.37689 0
M  V30 6385 H 589.175 0.449975 -0.605011 0
M  V30 6386 H 591.826 0.463735 -1.77544 0
M  V30 6387 H 590.208 2.93948 -2.65349 0
M  V30 6388 H 591.382 0.790886 -4.53962 0
M  V30 6389 H 589.697 0.870011 -4.0721 0
M  V30 6390 H 592.294 3.64663 -3.91056 0
M  V30 6391 H 592.637 3.53306 -2.20183 0
M  V30 6392 H 593.17 2.23131 -3.29329 0
M  V30 6393 H 589.909 1.90258 -6.27281 0
M  V30 6394 H 589.429 3.15289 -5.10248 0
M  V30 6395 H 591.108 3.07623 -5.6919 0
M  V30 6396 N 591.24 1.41047 0.703093 0
M  V30 6397 C 592.188 1.42494 1.83843 0
M  V30 6398 C 593.182 0.303885 1.66652 0
M  V30 6399 O 594.388 0.475544 1.73605 0
M  V30 6400 H 590.763 0.445685 0.605697 0
M  V30 6401 H 592.734 2.38194 1.79739 0
M  V30 6402 C 591.483 1.31666 3.21807 0
M  V30 6403 H 590.806 2.17212 3.35647 0
M  V30 6404 H 592.246 1.36738 4.01346 0
M  V30 6405 C 590.705 0.0281828 3.36888 0
M  V30 6406 O 591.235 -0.929995 3.90786 0
M  V30 6407 N 589.441 -0.0454322 2.90564 0
M  V30 6408 H 588.988 0.735046 2.4689 0
M  V30 6409 H 588.946 -0.906968 3.01034 0
M  V30 6410 N 592.718 -0.936591 1.26751 0
M  V30 6411 C 593.648 -2.05315 1.11212 0
M  V30 6412 C 594.629 -1.70092 0.0160262 0
M  V30 6413 O 595.814 -1.93279 0.188894 0
M  V30 6414 C 592.944 -3.39123 0.749171 0
M  V30 6415 C 591.898 -3.88425 1.79751 0
M  V30 6416 C 591.224 -5.18936 1.28876 0
M  V30 6417 C 592.524 -4.12798 3.19992 0
M  V30 6418 H 594.218 -2.18573 2.04613 0
M  V30 6419 H 591.764 -1.05027 0.985159 0
M  V30 6420 H 593.717 -4.16704 0.627323 0
M  V30 6421 H 592.441 -3.25855 -0.220543 0
M  V30 6422 H 591.1 -3.13028 1.90811 0
M  V30 6423 H 590.748 -5.02051 0.308757 0
M  V30 6424 H 590.448 -5.52892 1.98958 0
M  V30 6425 H 591.972 -5.99096 1.17967 0
M  V30 6426 H 593.386 -4.80977 3.11983 0
M  V30 6427 H 591.783 -4.58044 3.87705 0
M  V30 6428 H 592.853 -3.18412 3.65707 0
M  V30 6429 N 594.196 -1.08629 -1.14182 0
M  V30 6430 C 595.106 -0.730126 -2.22949 0
M  V30 6431 C 596.122 0.26436 -1.7198 0
M  V30 6432 O 597.298 0.107742 -2.01112 0
M  V30 6433 C 594.363 -0.147227 -3.46387 0
M  V30 6434 C 593.424 -1.19662 -4.12286 0
M  V30 6435 C 592.657 -0.641437 -5.29831 0
M  V30 6436 O 592.88 0.538351 -5.67854 0
M  V30 6437 O 591.814 -1.39257 -5.85569 0
M  V30 6438 H 595.64 -1.63753 -2.55771 0
M  V30 6439 H 593.225 -0.860118 -1.22157 0
M  V30 6440 H 595.107 0.174923 -4.21037 0
M  V30 6441 H 593.782 0.733304 -3.15285 0
M  V30 6442 H 592.689 -1.57133 -3.395 0
M  V30 6443 H 594.022 -2.0495 -4.475 0
M  V30 6444 N 595.674 1.31259 -0.872281 0
M  V30 6445 C 596.921 1.96622 -0.484365 0
M  V30 6446 C 597.249 1.68939 0.963841 0
M  V30 6447 O 596.504 0.97974 1.6941 0
M  V30 6448 C 596.803 3.50659 -0.690889 0
M  V30 6449 C 596.469 3.98366 -2.11224 0
M  V30 6450 C 595.131 4.11104 -2.50094 0
M  V30 6451 C 597.483 4.23425 -3.0391 0
M  V30 6452 C 594.811 4.46254 -3.80887 0
M  V30 6453 C 597.163 4.60039 -4.3422 0
M  V30 6454 C 595.827 4.70984 -4.73001 0
M  V30 6455 H 595.097 0.71949 -0.177242 0
M  V30 6456 H 597.744 1.56353 -1.10571 0
M  V30 6457 H 596.049 3.91798 0.0135782 0
M  V30 6458 H 597.746 3.99284 -0.370534 0
M  V30 6459 H 594.336 3.88949 -1.80047 0
M  V30 6460 H 598.52 4.13075 -2.75104 0
M  V30 6461 H 593.776 4.52926 -4.10692 0
M  V30 6462 H 597.95 4.78381 -5.06088 0
M  V30 6463 H 595.577 4.97977 -5.7439 0
M  V30 6464 N 597.152 0.631951 1.44375 0
M  V30 6465 C 598.429 0.067646 1.95483 0
M  V30 6466 C 598.809 -1.40683 1.57389 0
M  V30 6467 O 598.157 -2.12167 0.848375 0
M  V30 6468 C 598.367 0.291392 3.47781 0
M  V30 6469 C 599.715 0.185028 4.24197 0
M  V30 6470 O 600.739 0.222803 3.55503 0
M  V30 6471 O 599.598 0.0906642 5.46425 0
M  V30 6472 H 596.692 -0.0218379 0.826712 0
M  V30 6473 H 599.238 0.703711 1.54421 0
M  V30 6474 H 598.01 1.31449 3.68561 0
M  V30 6475 H 597.633 -0.378772 3.95792 0
M  V30 6476 N 598.631 -1.53133 0.372548 0
M  V30 6477 C 599.877 -2.01654 -0.215277 0
M  V30 6478 C 600.21 -1.25914 -1.47849 0
M  V30 6479 O 599.485 -0.3548 -1.91237 0
M  V30 6480 C 599.768 -3.56609 -0.500187 0
M  V30 6481 C 599.621 -4.43036 0.777145 0
M  V30 6482 C 600.94 -4.20528 -1.29786 0
M  V30 6483 H 598.059 -0.732991 -0.0767686 0
M  V30 6484 H 600.701 -1.83335 0.498814 0
M  V30 6485 H 598.851 -3.7235 -1.10852 0
M  V30 6486 H 600.523 -4.39079 1.41447 0
M  V30 6487 H 598.766 -4.10723 1.39604 0
M  V30 6488 H 599.437 -5.49424 0.532662 0
M  V30 6489 H 601.913 -4.08663 -0.783198 0
M  V30 6490 H 600.789 -5.28962 -1.46596 0
M  V30 6491 H 601.05 -3.77051 -2.30836 0
M  V30 6492 N 600.109 -0.101901 -1.5727 0
M  V30 6493 C 601.355 0.561027 -1.94885 0
M  V30 6494 C 601.688 1.6741 -0.984258 0
M  V30 6495 O 600.963 1.94491 -0.0184767 0
M  V30 6496 C 601.246 1.10982 -3.42571 0
M  V30 6497 C 601.099 0.00133418 -4.498 0
M  V30 6498 C 602.418 2.00608 -3.9172 0
M  V30 6499 H 599.537 0.202467 -0.708644 0
M  V30 6500 H 602.179 -0.173992 -1.89202 0
M  V30 6501 H 600.329 1.73621 -3.47546 0
M  V30 6502 H 602.001 -0.63322 -4.56933 0
M  V30 6503 H 600.244 -0.664143 -4.28686 0
M  V30 6504 H 600.915 0.426253 -5.50352 0
M  V30 6505 H 603.391 1.47864 -3.88941 0
M  V30 6506 H 602.267 2.3593 -4.95609 0
M  V30 6507 H 602.528 2.92608 -3.3141 0
M  V30 6508 N 601.587 1.56661 0.17182 0
M  V30 6509 C 602.812 1.86459 0.908165 0
M  V30 6510 C 603.237 0.688181 1.75059 0
M  V30 6511 O 602.595 -0.362753 1.77634 0
M  V30 6512 C 602.643 3.14669 1.76112 0
M  V30 6513 O 601.747 2.96858 2.86268 0
M  V30 6514 H 601.088 0.613318 0.254434 0
M  V30 6515 H 603.618 2.03892 0.170113 0
M  V30 6516 H 603.628 3.46061 2.16115 0
M  V30 6517 H 602.303 3.99905 1.14233 0
M  V30 6518 H 600.88 2.76819 2.49852 0
M  V30 6519 N 603.065 -0.440357 1.51323 0
M  V30 6520 C 604.29 -1.21716 1.67928 0
M  V30 6521 C 604.715 -1.84328 0.374826 0
M  V30 6522 O 604.073 -1.68675 -0.664706 0
M  V30 6523 C 604.121 -2.27914 2.79442 0
M  V30 6524 O 603.225 -3.33325 2.42834 0
M  V30 6525 H 602.566 -0.35674 0.560029 0
M  V30 6526 H 605.096 -0.520417 1.97871 0
M  V30 6527 H 605.106 -2.72746 3.03436 0
M  V30 6528 H 603.781 -1.8172 3.741 0
M  V30 6529 H 602.358 -2.9399 2.294 0
M  V30 6530 N 604.543 -1.41418 -0.695603 0
M  V30 6531 C 605.789 -1.40982 -1.4578 0
M  V30 6532 C 606.122 -0.0187763 -1.94191 0
M  V30 6533 O 605.397 0.95346 -1.69527 0
M  V30 6534 C 605.68 -2.41657 -2.66972 0
M  V30 6535 C 605.533 -3.89869 -2.24327 0
M  V30 6536 C 606.852 -2.39589 -3.69168 0
M  V30 6537 H 603.971 -0.513405 -0.528757 0
M  V30 6538 H 606.613 -1.72693 -0.792275 0
M  V30 6539 H 604.763 -2.14746 -3.23754 0
M  V30 6540 H 606.435 -4.27683 -1.72872 0
M  V30 6541 H 604.678 -4.04737 -1.56111 0
M  V30 6542 H 605.349 -4.55857 -3.11285 0
M  V30 6543 H 607.825 -2.63471 -3.2206 0
M  V30 6544 H 606.701 -3.12044 -4.51575 0
M  V30 6545 H 606.962 -1.41447 -4.18862 0
M  V30 6546 N 606.021 0.929856 -1.27246 0
M  V30 6547 C 607.251 1.70895 -1.16096 0
M  V30 6548 C 607.659 1.87039 0.285122 0
M  V30 6549 O 607.002 1.38557 1.20614 0
M  V30 6550 C 607.064 3.12919 -1.7698 0
M  V30 6551 C 606.728 3.2012 -3.26148 0
M  V30 6552 C 607.725 3.02533 -4.22812 0
M  V30 6553 C 605.41 3.43148 -3.66817 0
M  V30 6554 C 607.404 3.07861 -5.58122 0
M  V30 6555 C 605.091 3.48109 -5.02258 0
M  V30 6556 C 606.089 3.30483 -5.97721 0
M  V30 6557 O 605.777 3.35175 -7.30694 0
M  V30 6558 H 605.509 0.54152 -0.404639 0
M  V30 6559 H 608.063 1.17342 -1.68582 0
M  V30 6560 H 606.293 3.67945 -1.18969 0
M  V30 6561 H 607.982 3.72787 -1.60576 0
M  V30 6562 H 608.748 2.84586 -3.92728 0
M  V30 6563 H 604.627 3.55918 -2.9299 0
M  V30 6564 H 608.171 2.94021 -6.32612 0
M  V30 6565 H 604.068 3.65579 -5.31998 0
M  V30 6566 H 604.836 3.51644 -7.39114 0
M  V30 6567 N 607.499 1.09233 1.13605 0
M  V30 6568 C 608.727 0.848908 1.88683 0
M  V30 6569 C 609.142 -0.599667 1.79024 0
M  V30 6570 O 608.499 -1.41265 1.15544 0
M  V30 6571 C 608.55 1.27273 3.38355 0
M  V30 6572 O 608.271 2.66449 3.47759 0
M  V30 6573 C 609.772 1.0614 4.30406 0
M  V30 6574 H 606.992 0.305549 0.597395 0
M  V30 6575 H 609.536 1.4538 1.43823 0
M  V30 6576 H 607.691 0.711776 3.80805 0
M  V30 6577 H 608.105 2.84264 4.40788 0
M  V30 6578 H 609.579 1.40725 5.33761 0
M  V30 6579 H 610.056 -0.000960332 4.392 0
M  V30 6580 H 610.662 1.60821 3.93722 0
M  V30 6581 N 608.977 -1.30795 0.87923 0
M  V30 6582 C 610.207 -2.00237 0.50881 0
M  V30 6583 C 610.615 -1.66115 -0.905682 0
M  V30 6584 O 609.958 -0.89138 -1.60624 0
M  V30 6585 C 610.02 -3.54508 0.597003 0
M  V30 6586 C 609.684 -4.12131 1.97477 0
M  V30 6587 C 610.681 -4.28552 2.94346 0
M  V30 6588 C 608.366 -4.47644 2.2786 0
M  V30 6589 C 610.36 -4.79689 4.19735 0
M  V30 6590 C 608.047 -4.98481 3.53496 0
M  V30 6591 C 609.045 -5.14456 4.49248 0
M  V30 6592 O 608.733 -5.64199 5.72656 0
M  V30 6593 H 608.465 -0.647026 0.195788 0
M  V30 6594 H 611.019 -1.67785 1.1848 0
M  V30 6595 H 609.249 -3.86461 -0.135945 0
M  V30 6596 H 610.938 -4.05198 0.238684 0
M  V30 6597 H 611.704 -4.01424 2.72183 0
M  V30 6598 H 607.583 -4.34481 1.54102 0
M  V30 6599 H 611.127 -4.92073 4.9448 0
M  V30 6600 H 607.024 -5.25044 3.75498 0
M  V30 6601 H 607.792 -5.82551 5.74957 0
M  V30 6602 N 610.455 -0.639598 -1.44038 0
M  V30 6603 C 611.388 0.109736 -2.27936 0
M  V30 6604 C 612.366 0.843095 -1.39035 0
M  V30 6605 O 613.55 0.845456 -1.68476 0
M  V30 6606 C 610.677 1.16173 -3.18153 0
M  V30 6607 C 609.723 0.527954 -4.2322 0
M  V30 6608 S 610.556 -0.688318 -5.31058 0
M  V30 6609 C 611.712 0.363481 -6.24844 0
M  V30 6610 H 611.945 -0.601986 -2.91142 0
M  V30 6611 H 609.478 -0.42802 -1.48349 0
M  V30 6612 H 611.436 1.76372 -3.7068 0
M  V30 6613 H 610.097 1.84569 -2.54151 0
M  V30 6614 H 609.29 1.32054 -4.86393 0
M  V30 6615 H 608.892 0.000396444 -3.74 0
M  V30 6616 H 611.184 1.23362 -6.66174 0
M  V30 6617 H 612.127 -0.23288 -7.07717 0
M  V30 6618 H 612.535 0.693179 -5.60228 0
M  V30 6619 N 611.933 1.52934 -0.380664 0
M  V30 6620 C 613.158 2.06363 0.207157 0
M  V30 6621 C 613.583 1.25122 1.4045 0
M  V30 6622 O 612.941 0.274062 1.79217 0
M  V30 6623 C 612.989 3.56162 0.563996 0
M  V30 6624 O 612.093 3.77552 1.65917 0
M  V30 6625 H 611.434 0.663468 0.0265859 0
M  V30 6626 H 613.964 1.9719 -0.545635 0
M  V30 6627 H 613.974 3.99453 0.830752 0
M  V30 6628 H 612.649 4.14732 -0.311427 0
M  V30 6629 H 611.226 3.46154 1.3868 0
M  V30 6630 N 613.412 0.11024 1.57214 0
M  V30 6631 C 614.659 -0.54987 1.94891 0
M  V30 6632 C 614.987 -1.67243 0.992984 0
M  V30 6633 O 614.242 -1.95694 0.0152703 0
M  V30 6634 C 614.541 -1.13102 3.39032 0
M  V30 6635 C 614.207 -0.130713 4.5071 0
M  V30 6636 C 612.869 0.14437 4.80983 0
M  V30 6637 C 615.221 0.551472 5.18274 0
M  V30 6638 C 612.549 1.10807 5.76141 0
M  V30 6639 C 614.901 1.50375 6.14467 0
M  V30 6640 C 613.565 1.78691 6.43138 0
M  V30 6641 H 612.835 -0.201212 0.713158 0
M  V30 6642 H 615.482 0.189288 1.90562 0
M  V30 6643 H 613.787 -1.94675 3.40013 0
M  V30 6644 H 615.484 -1.64973 3.65493 0
M  V30 6645 H 612.074 -0.355301 4.27125 0
M  V30 6646 H 616.258 0.35211 4.95049 0
M  V30 6647 H 611.514 1.3343 5.96663 0
M  V30 6648 H 615.688 2.03808 6.65909 0
M  V30 6649 H 613.315 2.53522 7.1668 0
M  V30 6650 N 614.89 -1.56749 -0.16351 0
M  V30 6651 C 615.838 -1.97939 -1.22159 0
M  V30 6652 C 616.832 -0.869288 -1.45395 0
M  V30 6653 O 618.038 -1.05443 -1.45883 0
M  V30 6654 H 614.413 -0.629869 -0.410815 0
M  V30 6655 H 616.384 -2.86115 -0.847381 0
M  V30 6656 C 615.133 -2.36206 -2.55151 0
M  V30 6657 H 614.456 -3.2117 -2.38097 0
M  V30 6658 H 615.896 -2.68863 -3.27854 0
M  V30 6659 C 614.355 -1.20841 -3.14482 0
M  V30 6660 O 614.885 -0.500258 -3.98573 0
M  V30 6661 N 613.091 -0.976943 -2.73686 0
M  V30 6662 H 612.638 -1.55457 -2.05404 0
M  V30 6663 H 612.596 -0.206912 -3.13718 0
M  V30 6664 N 616.368 0.432326 -1.51554 0
M  V30 6665 C 617.617 1.17831 -1.63703 0
M  V30 6666 C 617.93 1.92229 -0.36156 0
M  V30 6667 O 619.136 2.69069 -0.362495 0
M  V30 6668 C 617.592 2.14318 -2.89129 0
M  V30 6669 C 617.2 1.45544 -4.23699 0
M  V30 6670 C 618.944 2.89319 -3.10636 0
M  V30 6671 C 616.851 2.40545 -5.4027 0
M  V30 6672 H 615.781 0.443533 -0.60975 0
M  V30 6673 H 618.432 0.444878 -1.78026 0
M  V30 6674 H 616.814 2.91117 -2.68452 0
M  V30 6675 H 617.988 0.742693 -4.54775 0
M  V30 6676 H 616.303 0.826772 -4.0811 0
M  V30 6677 H 618.9 3.60495 -3.94902 0
M  V30 6678 H 619.243 3.50951 -2.23918 0
M  V30 6679 H 619.776 2.19625 -3.31677 0
M  V30 6680 H 616.515 1.83594 -6.29264 0
M  V30 6681 H 616.035 3.09859 -5.13563 0
M  V30 6682 H 617.714 3.01569 -5.72421 0
M  V30 6683 N 617.846 1.41785 0.688094 0
M  V30 6684 C 619.092 1.42753 1.4489 0
M  V30 6685 C 619.447 0.0384235 1.92362 0
M  V30 6686 O 618.74 -0.937066 1.67122 0
M  V30 6687 C 618.934 2.37532 2.67046 0
M  V30 6688 C 618.763 3.85521 2.31525 0
M  V30 6689 C 617.533 4.54152 2.21527 0
M  V30 6690 C 619.731 4.76299 1.94019 0
M  V30 6691 N 617.713 5.87233 1.78969 0
M  V30 6692 C 619.084 5.98386 1.62279 0
M  V30 6693 C 621.139 4.63877 1.80895 0
M  V30 6694 C 619.842 7.09433 1.18732 0
M  V30 6695 C 621.868 5.74893 1.38752 0
M  V30 6696 C 621.23 6.96083 1.07927 0
M  V30 6697 H 617.329 0.577575 0.527192 0
M  V30 6698 H 619.913 1.77713 0.795375 0
M  V30 6699 H 618.084 2.04656 3.30107 0
M  V30 6700 H 619.816 2.29169 3.33562 0
M  V30 6701 H 616.571 4.08188 2.40166 0
M  V30 6702 H 616.995 6.57785 1.60151 0
M  V30 6703 H 621.637 3.70671 2.03378 0
M  V30 6704 H 619.355 8.02497 0.949937 0
M  V30 6705 H 622.941 5.67287 1.29136 0
M  V30 6706 H 621.821 7.80527 0.758111 0
M  V30 6707 N 619.324 -0.923095 1.27737 0
M  V30 6708 C 620.272 -2.04567 1.10703 0
M  V30 6709 C 621.266 -1.69375 0.0288445 0
M  V30 6710 O 622.472 -1.79027 0.186913 0
M  V30 6711 H 618.847 -0.670109 0.34126 0
M  V30 6712 H 620.818 -2.1608 2.05796 0
M  V30 6713 C 619.567 -3.38934 0.775837 0
M  V30 6714 H 618.89 -3.66501 1.59741 0
M  V30 6715 H 620.33 -4.18239 0.696548 0
M  V30 6716 C 618.789 -3.32863 -0.520012 0
M  V30 6717 O 619.319 -3.70462 -1.55308 0
M  V30 6718 N 617.525 -2.85958 -0.51732 0
M  V30 6719 H 617.072 -2.55557 0.32379 0
M  V30 6720 H 617.03 -2.82279 -1.38441 0
M  V30 6721 N 620.802 -1.09834 -1.13024 0
M  V30 6722 C 621.749 -0.741522 -2.18564 0
M  V30 6723 C 622.719 0.279236 -1.63736 0
M  V30 6724 O 623.904 0.159923 -1.90129 0
M  V30 6725 C 621.044 -0.17277 -3.44667 0
M  V30 6726 C 620.157 -1.24808 -4.13578 0
M  V30 6727 C 619.292 -0.641631 -5.27311 0
M  V30 6728 C 618.331 -1.69795 -5.88078 0
M  V30 6729 N 617.468 -1.11223 -6.93234 0
M  V30 6730 H 622.308 -1.64576 -2.48432 0
M  V30 6731 H 619.845 -0.822174 -1.21978 0
M  V30 6732 H 621.803 0.17482 -4.16834 0
M  V30 6733 H 620.433 0.694725 -3.15235 0
M  V30 6734 H 619.485 -1.71288 -3.39653 0
M  V30 6735 H 620.797 -2.04795 -4.54819 0
M  V30 6736 H 619.951 -0.243128 -6.06213 0
M  V30 6737 H 618.69 0.189742 -4.87331 0
M  V30 6738 H 617.695 -2.10595 -5.07868 0
M  V30 6739 H 618.92 -2.53206 -6.3013 0
M  V30 6740 H 616.866 -0.302208 -6.55304 0
M  V30 6741 H 616.783 -1.84901 -7.3304 0
M  V30 6742 H 618.051 -0.740068 -7.75979 0
M  V30 6743 N 622.28 1.30327 -0.886154 0
M  V30 6744 C 623.526 1.96388 -0.505941 0
M  V30 6745 C 623.859 1.69784 0.942712 0
M  V30 6746 O 623.134 1.00322 1.6663 0
M  V30 6747 C 623.417 3.51488 -0.782826 0
M  V30 6748 C 623.27 3.87603 -2.28219 0
M  V30 6749 C 624.589 4.39331 -0.260128 0
M  V30 6750 H 621.708 0.713327 -0.185292 0
M  V30 6751 H 624.35 1.54178 -1.11036 0
M  V30 6752 H 622.5 3.87572 -0.268399 0
M  V30 6753 H 624.172 3.61537 -2.86512 0
M  V30 6754 H 622.415 3.3563 -2.74837 0
M  V30 6755 H 623.086 4.95806 -2.42653 0
M  V30 6756 H 625.562 4.10162 -0.700444 0
M  V30 6757 H 624.438 5.46769 -0.483179 0
M  V30 6758 H 624.699 4.34072 0.838674 0
M  V30 6759 N 623.758 0.647228 1.43697 0
M  V30 6760 C 625.005 0.158188 2.01881 0
M  V30 6761 C 625.333 -1.22573 1.51017 0
M  V30 6762 O 624.588 -1.83086 0.69122 0
M  V30 6763 C 624.887 0.111481 3.57226 0
M  V30 6764 C 624.553 1.43633 4.27411 0
M  V30 6765 C 623.215 1.79915 4.463 0
M  V30 6766 C 625.567 2.31011 4.67208 0
M  V30 6767 C 622.895 3.03251 5.02251 0
M  V30 6768 C 625.247 3.53633 5.24525 0
M  V30 6769 C 623.911 3.90118 5.41631 0
M  V30 6770 H 623.181 0.0578851 0.738736 0
M  V30 6771 H 625.828 0.836746 1.72252 0
M  V30 6772 H 624.133 -0.650507 3.86362 0
M  V30 6773 H 625.83 -0.283682 3.99995 0
M  V30 6774 H 622.42 1.14403 4.1305 0
M  V30 6775 H 626.604 2.04272 4.52313 0
M  V30 6776 H 621.86 3.31575 5.13681 0
M  V30 6777 H 626.034 4.21561 5.5431 0
M  V30 6778 H 623.661 4.85768 5.84751 0
M  V30 6779 N 625.236 -1.5273 0.388769 0
M  V30 6780 C 626.183 -2.26437 -0.446639 0
M  V30 6781 C 627.153 -1.28025 -1.05824 0
M  V30 6782 O 628.338 -1.56852 -1.08637 0
M  V30 6783 C 625.478 -3.07407 -1.56828 0
M  V30 6784 C 624.591 -4.20747 -0.979589 0
M  V30 6785 C 623.726 -4.89113 -2.07224 0
M  V30 6786 C 622.765 -5.94447 -1.45942 0
M  V30 6787 N 621.902 -6.56411 -2.49135 0
M  V30 6788 H 626.742 -2.97404 0.18837 0
M  V30 6789 H 624.279 -1.46727 0.104725 0
M  V30 6790 H 626.237 -3.52642 -2.22934 0
M  V30 6791 H 624.867 -2.3865 -2.17361 0
M  V30 6792 H 623.919 -3.7983 -0.208151 0
M  V30 6793 H 625.231 -4.9637 -0.491747 0
M  V30 6794 H 624.385 -5.3765 -2.81101 0
M  V30 6795 H 623.124 -4.13013 -2.59368 0
M  V30 6796 H 622.129 -5.4525 -0.705894 0
M  V30 6797 H 623.354 -6.7248 -0.945932 0
M  V30 6798 H 621.3 -5.83152 -3.00449 0
M  V30 6799 H 621.217 -7.27645 -2.05105 0
M  V30 6800 H 622.485 -7.09592 -3.22644 0
M  V30 6801 N 626.714 -0.118576 -1.57153 0
M  V30 6802 C 627.944 0.546466 -1.99242 0
M  V30 6803 C 628.352 1.60791 -0.997148 0
M  V30 6804 O 627.695 1.83691 0.0181745 0
M  V30 6805 C 627.757 1.23167 -3.37743 0
M  V30 6806 C 627.421 0.318226 -4.55891 0
M  V30 6807 C 628.418 -0.442988 -5.18009 0
M  V30 6808 C 626.103 0.229421 -5.01776 0
M  V30 6809 C 628.097 -1.28074 -6.244 0
M  V30 6810 C 625.784 -0.611966 -6.08028 0
M  V30 6811 C 626.782 -1.36568 -6.69207 0
M  V30 6812 O 626.47 -2.1931 -7.73407 0
M  V30 6813 H 626.202 0.149297 -0.659307 0
M  V30 6814 H 628.756 -0.201603 -2.04408 0
M  V30 6815 H 626.986 2.0268 -3.29329 0
M  V30 6816 H 628.675 1.79358 -3.64123 0
M  V30 6817 H 629.441 -0.38425 -4.83475 0
M  V30 6818 H 625.32 0.805771 -4.53903 0
M  V30 6819 H 628.864 -1.86952 -6.72082 0
M  V30 6820 H 624.761 -0.6721 -6.41991 0
M  V30 6821 H 625.529 -2.12247 -7.90502 0
M  V30 6822 N 628.193 1.56834 0.155195 0
M  V30 6823 C 629.439 1.83169 0.870467 0
M  V30 6824 C 629.772 0.698929 1.81187 0
M  V30 6825 O 629.047 -0.298035 1.92203 0
M  V30 6826 C 629.33 3.19965 1.65211 0
M  V30 6827 C 629.183 4.43792 0.732744 0
M  V30 6828 C 630.502 3.53885 2.61636 0
M  V30 6829 H 627.621 0.666288 0.315006 0
M  V30 6830 H 630.263 1.89513 0.135988 0
M  V30 6831 H 628.413 3.14687 2.27825 0
M  V30 6832 H 630.085 4.61148 0.118236 0
M  V30 6833 H 628.328 4.3378 0.0417906 0
M  V30 6834 H 628.999 5.36095 1.31552 0
M  V30 6835 H 631.475 3.5972 2.09143 0
M  V30 6836 H 630.351 4.50648 3.13381 0
M  V30 6837 H 630.612 2.79418 3.42605 0
M  V30 6838 N 629.671 -0.424282 1.51781 0
M  V30 6839 C 630.581 -1.54087 1.76902 0
M  V30 6840 C 631.597 -1.61249 0.653826 0
M  V30 6841 O 632.773 -1.78247 0.937552 0
M  V30 6842 C 629.838 -2.8996 1.90063 0
M  V30 6843 C 628.899 -2.92809 3.13945 0
M  V30 6844 C 628.132 -4.22201 3.26469 0
M  V30 6845 O 628.355 -5.15286 2.44616 0
M  V30 6846 O 627.289 -4.31599 4.1953 0
M  V30 6847 H 631.115 -1.358 2.71647 0
M  V30 6848 H 628.7 -0.608618 1.36441 0
M  V30 6849 H 630.582 -3.70575 2.0063 0
M  V30 6850 H 629.257 -3.08347 0.985067 0
M  V30 6851 H 628.164 -2.11102 3.08847 0
M  V30 6852 H 629.497 -2.79369 4.05233 0
M  V30 6853 N 631.149 -1.42148 -0.680565 0
M  V30 6854 C 632.079 -1.4796 -1.80638 0
M  V30 6855 C 633.06 -0.336728 -1.66734 0
M  V30 6856 O 634.245 -0.550247 -1.86242 0
M  V30 6857 C 631.375 -1.37569 -3.18892 0
M  V30 6858 C 630.329 -2.49823 -3.47524 0
M  V30 6859 C 629.655 -2.24491 -4.85291 0
M  V30 6860 C 630.955 -3.92144 -3.44994 0
M  V30 6861 H 632.649 -2.42184 -1.76032 0
M  V30 6862 H 630.195 -1.16566 -0.845481 0
M  V30 6863 H 632.148 -1.40243 -3.97379 0
M  V30 6864 H 630.872 -0.398357 -3.24162 0
M  V30 6865 H 629.531 -2.46455 -2.71395 0
M  V30 6866 H 629.179 -1.25066 -4.87204 0
M  V30 6867 H 628.879 -2.99722 -5.05411 0
M  V30 6868 H 630.403 -2.28906 -5.66069 0
M  V30 6869 H 631.817 -3.97145 -4.13459 0
M  V30 6870 H 630.214 -4.67179 -3.76648 0
M  V30 6871 H 631.284 -4.19225 -2.43676 0
M  V30 6872 N 632.627 0.916307 -1.28225 0
M  V30 6873 C 633.876 1.65975 -1.14608 0
M  V30 6874 C 634.189 1.93204 0.305191 0
M  V30 6875 O 635.395 2.65611 0.562432 0
M  V30 6876 C 633.851 2.98989 -2.00333 0
M  V30 6877 C 633.459 2.79417 -3.50186 0
M  V30 6878 C 635.203 3.76856 -1.95397 0
M  V30 6879 C 633.11 4.08056 -4.28071 0
M  V30 6880 H 632.04 0.622587 -0.425324 0
M  V30 6881 H 634.691 1.01705 -1.52736 0
M  V30 6882 H 633.073 3.6438 -1.5506 0
M  V30 6883 H 634.247 2.22723 -4.034 0
M  V30 6884 H 632.562 2.14966 -3.56621 0
M  V30 6885 H 635.159 4.72203 -2.50856 0
M  V30 6886 H 635.502 4.05776 -0.930137 0
M  V30 6887 H 636.035 3.1828 -2.38626 0
M  V30 6888 H 632.774 3.8431 -5.31024 0
M  V30 6889 H 632.294 4.64371 -3.79631 0
M  V30 6890 H 633.973 4.76333 -4.37854 0
M  V30 6891 N 634.105 1.10431 1.1244 0
M  V30 6892 C 635.035 0.775143 2.20258 0
M  V30 6893 C 636.016 -0.25186 1.68225 0
M  V30 6894 O 637.201 -0.117637 1.93843 0
M  V30 6895 C 634.331 0.206133 3.46688 0
M  V30 6896 C 633.285 1.16382 4.11873 0
M  V30 6897 C 632.611 0.456014 5.32752 0
M  V30 6898 C 633.911 2.5104 4.58013 0
M  V30 6899 H 635.605 1.67665 2.4805 0
M  V30 6900 H 633.151 0.807595 1.19222 0
M  V30 6901 H 635.104 -0.036291 4.21384 0
M  V30 6902 H 633.828 -0.730614 3.18323 0
M  V30 6903 H 632.487 1.39169 3.39157 0
M  V30 6904 H 632.135 -0.485203 5.00654 0
M  V30 6905 H 631.835 1.09466 5.77314 0
M  V30 6906 H 633.359 0.222135 6.10196 0
M  V30 6907 H 634.773 2.32401 5.24083 0
M  V30 6908 H 633.17 3.10789 5.13352 0
M  V30 6909 H 634.24 3.11039 3.71998 0
M  V30 6910 N 635.583 -1.29855 0.893053 0
M  V30 6911 C 636.86 -1.90694 0.435336 0
M  V30 6912 C 637.24 -1.8111 -1.08454 0
M  V30 6913 O 636.588 -1.23352 -1.92345 0
M  V30 6914 C 636.798 -3.36033 0.942472 0
M  V30 6915 C 638.146 -4.13083 0.982226 0
M  V30 6916 O 639.17 -3.4491 0.889686 0
M  V30 6917 O 638.029 -5.34896 1.12022 0
M  V30 6918 H 635.123 -0.815978 0.134567 0
M  V30 6919 H 637.669 -1.38367 0.982484 0
M  V30 6920 H 636.441 -3.37132 1.9864 0
M  V30 6921 H 636.064 -3.95828 0.374952 0
M  V30 6922 N 637.061 -0.65484 -1.43351 0
M  V30 6923 C 638.31 -0.166215 -2.01014 0
M  V30 6924 C 638.623 1.22764 -1.52278 0
M  V30 6925 O 639.829 1.81156 -2.02224 0
M  V30 6926 C 638.285 -0.246341 -3.59056 0
M  V30 6927 C 637.893 -1.64299 -4.16785 0
M  V30 6928 C 639.637 0.184597 -4.24098 0
M  V30 6929 C 637.544 -1.67695 -5.67126 0
M  V30 6930 H 636.474 -0.0583769 -0.751737 0
M  V30 6931 H 639.125 -0.817111 -1.64303 0
M  V30 6932 H 637.507 0.472092 -3.93176 0
M  V30 6933 H 638.681 -2.3869 -3.94162 0
M  V30 6934 H 636.996 -2.02004 -3.6412 0
M  V30 6935 H 639.593 0.179088 -5.344 0
M  V30 6936 H 639.936 1.21632 -3.98135 0
M  V30 6937 H 640.469 -0.482141 -3.94867 0
M  V30 6938 H 637.208 -2.68783 -5.9786 0
M  V30 6939 H 636.728 -0.976313 -5.91801 0
M  V30 6940 H 638.407 -1.42142 -6.31193 0
M  V30 6941 N 638.539 1.52521 -0.396863 0
M  V30 6942 C 639.469 2.29582 0.425941 0
M  V30 6943 C 640.45 1.33281 1.05689 0
M  V30 6944 O 641.635 1.62181 1.06823 0
M  V30 6945 C 638.765 3.10821 1.54943 0
M  V30 6946 C 637.719 4.15069 1.04413 0
M  V30 6947 C 637.045 4.84578 2.26028 0
M  V30 6948 C 638.345 5.22191 0.106767 0
M  V30 6949 H 640.039 2.98612 -0.217045 0
M  V30 6950 H 637.585 1.43611 -0.105826 0
M  V30 6951 H 639.538 3.63492 2.13193 0
M  V30 6952 H 638.262 2.39538 2.22011 0
M  V30 6953 H 636.921 3.63389 0.484118 0
M  V30 6954 H 636.569 4.09835 2.91623 0
M  V30 6955 H 636.269 5.55043 1.92876 0
M  V30 6956 H 637.793 5.40056 2.84906 0
M  V30 6957 H 639.207 5.70176 0.597685 0
M  V30 6958 H 637.604 5.99947 -0.135352 0
M  V30 6959 H 638.674 4.77531 -0.842134 0
M  V30 6960 N 640.017 0.126909 1.57088 0
M  V30 6961 C 641.266 -0.529024 1.94639 0
M  V30 6962 C 641.579 -1.67323 1.01304 0
M  V30 6963 O 642.785 -2.39245 1.28352 0
M  V30 6964 C 641.241 -0.992483 3.45945 0
M  V30 6965 C 640.849 0.123691 4.47829 0
M  V30 6966 C 642.593 -1.61934 3.924 0
M  V30 6967 C 640.5 -0.356911 5.90322 0
M  V30 6968 H 639.43 -0.201397 0.726605 0
M  V30 6969 H 642.081 0.208032 1.82317 0
M  V30 6970 H 640.463 -1.7842 3.53528 0
M  V30 6971 H 641.637 0.900168 4.51922 0
M  V30 6972 H 639.952 0.657699 4.11173 0
M  V30 6973 H 642.549 -1.9902 4.96281 0
M  V30 6974 H 642.892 -2.50075 3.32819 0
M  V30 6975 H 643.425 -0.892894 3.8765 0
M  V30 6976 H 640.164 0.488636 6.53676 0
M  V30 6977 H 639.684 -1.0997 5.89633 0
M  V30 6978 H 641.363 -0.815547 6.41839 0
M  V30 6979 N 641.495 -1.56914 -0.146875 0
M  V30 6980 C 642.427 -1.94878 -1.20645 0
M  V30 6981 C 643.44 -0.844633 -1.39175 0
M  V30 6982 O 644.629 -1.12304 -1.38744 0
M  V30 6983 C 641.729 -2.20769 -2.57127 0
M  V30 6984 C 640.902 -3.52053 -2.59572 0
M  V30 6985 C 639.961 -3.66482 -3.77594 0
M  V30 6986 O 638.987 -4.38873 -3.62462 0
M  V30 6987 N 640.189 -3.03156 -4.95052 0
M  V30 6988 H 642.954 -2.86374 -0.883757 0
M  V30 6989 H 640.515 -1.58366 -0.336436 0
M  V30 6990 H 642.507 -2.27664 -3.34591 0
M  V30 6991 H 641.077 -1.35538 -2.81688 0
M  V30 6992 H 640.297 -3.56598 -1.68023 0
M  V30 6993 H 641.585 -4.38396 -2.58238 0
M  V30 6994 H 640.983 -2.44258 -5.10249 0
M  V30 6995 H 639.54 -3.15611 -5.70292 0
M  V30 6996 N 642.974 0.416227 -1.52004 0
M  V30 6997 C 643.922 1.5272 -1.7544 0
M  V30 6998 C 644.916 1.57596 -0.621289 0
M  V30 6999 O 646.122 1.61087 -0.803172 0
M  V30 7000 H 642.497 0.507772 -0.554682 0
M  V30 7001 H 644.468 1.30136 -2.68528 0
M  V30 7002 C 643.217 2.90165 -1.91571 0
M  V30 7003 H 642.54 2.87154 -2.78178 0
M  V30 7004 H 643.98 3.67211 -2.11972 0
M  V30 7005 C 642.439 3.29947 -0.680942 0
M  V30 7006 O 642.969 4.01403 0.154527 0
M  V30 7007 N 641.175 2.8593 -0.518894 0
M  V30 7008 H 640.722 2.2795 -1.19986 0
M  V30 7009 H 640.68 3.12907 0.305985 0
M  V30 7010 N 644.452 1.42507 0.673017 0
M  V30 7011 C 645.362 1.4853 1.81593 0
M  V30 7012 C 646.378 0.373907 1.69935 0
M  V30 7013 O 647.554 0.625078 1.91454 0
M  V30 7014 C 644.619 1.387 3.17747 0
M  V30 7015 C 643.68 2.60346 3.41348 0
M  V30 7016 C 642.913 2.50975 4.71007 0
M  V30 7017 O 643.136 1.54659 5.49033 0
M  V30 7018 O 642.07 3.41138 4.95892 0
M  V30 7019 H 645.896 2.45001 1.79467 0
M  V30 7020 H 643.481 1.2429 0.82899 0
M  V30 7021 H 645.363 1.35586 3.98992 0
M  V30 7022 H 644.038 0.453555 3.20507 0
M  V30 7023 H 642.945 2.69034 2.59945 0
M  V30 7024 H 644.278 3.52595 3.43421 0
M  V30 7025 N 645.93 -0.909495 1.28709 0
M  V30 7026 C 646.878 -2.03381 1.12866 0
M  V30 7027 C 647.872 -1.69335 0.0468074 0
M  V30 7028 O 649.078 -1.78819 0.205891 0
M  V30 7029 H 645.453 -0.666452 0.348348 0
M  V30 7030 H 647.424 -2.13885 2.08077 0
M  V30 7031 C 646.173 -3.38092 0.811742 0
M  V30 7032 H 645.496 -3.64786 1.63619 0
M  V30 7033 H 646.936 -4.17477 0.740869 0
M  V30 7034 C 645.395 -3.33395 -0.484679 0
M  V30 7035 O 645.925 -3.72089 -1.5137 0
M  V30 7036 N 644.131 -2.86491 -0.486961 0
M  V30 7037 H 643.678 -2.55199 0.350877 0
M  V30 7038 H 643.636 -2.83731 -1.3544 0
M  V30 7039 N 647.408 -1.11026 -1.11852 0
M  V30 7040 C 648.655 -0.85646 -1.83497 0
M  V30 7041 C 648.983 0.617938 -1.84423 0
M  V30 7042 O 648.238 1.47194 -1.28966 0
M  V30 7043 C 648.537 -1.35777 -3.30604 0
M  V30 7044 C 648.203 -2.84465 -3.49843 0
M  V30 7045 C 646.865 -3.25068 -3.54802 0
M  V30 7046 C 649.217 -3.80251 -3.56453 0
M  V30 7047 C 646.545 -4.60194 -3.63921 0
M  V30 7048 C 648.897 -5.15188 -3.67102 0
M  V30 7049 C 647.561 -5.55356 -3.70319 0
M  V30 7050 H 646.831 -0.313401 -0.671462 0
M  V30 7051 H 649.478 -1.38792 -1.31943 0
M  V30 7052 H 647.783 -0.746455 -3.84624 0
M  V30 7053 H 649.48 -1.13779 -3.8452 0
M  V30 7054 H 646.07 -2.52054 -3.46651 0
M  V30 7055 H 650.254 -3.49986 -3.51886 0
M  V30 7056 H 645.51 -4.90728 -3.64686 0
M  V30 7057 H 649.684 -5.89248 -3.71159 0
M  V30 7058 H 647.311 -6.60054 -3.77138 0
M  V30 7059 N 648.886 1.2938 -0.899927 0
M  V30 7060 C 650.116 1.99402 -0.540601 0
M  V30 7061 C 650.524 1.67534 0.87914 0
M  V30 7062 O 649.867 0.916821 1.59186 0
M  V30 7063 C 649.929 3.53514 -0.653326 0
M  V30 7064 C 649.593 4.08937 -2.04009 0
M  V30 7065 C 650.59 4.23815 -3.01126 0
M  V30 7066 C 648.275 4.43962 -2.34953 0
M  V30 7067 C 650.269 4.72951 -4.27313 0
M  V30 7068 C 647.956 4.92795 -3.61382 0
M  V30 7069 C 648.954 5.07244 -4.57376 0
M  V30 7070 O 648.642 5.55017 -5.8156 0
M  V30 7071 H 648.374 0.64383 -0.206057 0
M  V30 7072 H 650.928 1.65878 -1.21134 0
M  V30 7073 H 649.158 3.86628 0.0744449 0
M  V30 7074 H 650.847 4.04767 -0.303118 0
M  V30 7075 H 651.613 3.97043 -2.78535 0
M  V30 7076 H 647.492 4.31974 -1.60994 0
M  V30 7077 H 651.036 4.84144 -5.02245 0
M  V30 7078 H 646.933 5.19004 -3.83804 0
M  V30 7079 H 647.701 5.73331 -5.84153 0
M  V30 7080 N 650.364 0.662433 1.43002 0
M  V30 7081 C 651.294 -0.00979809 2.33498 0
M  V30 7082 C 652.275 -0.802329 1.49989 0
M  V30 7083 O 653.46 -0.761964 1.78627 0
M  V30 7084 C 650.59 -0.970446 3.33466 0
M  V30 7085 C 649.544 -0.287383 4.27034 0
M  V30 7086 C 648.87 -1.36012 5.17112 0
M  V30 7087 C 650.17 0.82595 5.15728 0
M  V30 7088 H 651.864 0.745959 2.89958 0
M  V30 7089 H 649.41 0.360172 1.39423 0
M  V30 7090 H 651.363 -1.44971 3.95679 0
M  V30 7091 H 650.087 -1.75748 2.75282 0
M  V30 7092 H 648.746 0.17152 3.66199 0
M  V30 7093 H 648.394 -2.13882 4.55262 0
M  V30 7094 H 648.094 -0.908276 5.80538 0
M  V30 7095 H 649.618 -1.84056 5.82199 0
M  V30 7096 H 651.032 0.42845 5.71697 0
M  V30 7097 H 649.429 1.20282 5.87922 0
M  V30 7098 H 650.499 1.68003 4.54866 0
M  V30 7099 N 651.842 -1.52309 0.404946 0
M  V30 7100 C 653.088 -2.02065 -0.172455 0
M  V30 7101 C 653.421 -1.29022 -1.45145 0
M  V30 7102 O 652.696 -0.395284 -1.90441 0
M  V30 7103 C 652.979 -3.5759 -0.424433 0
M  V30 7104 C 652.832 -4.41287 0.870945 0
M  V30 7105 C 654.151 -4.23186 -1.20837 0
M  V30 7106 H 651.27 -0.734454 -0.0612035 0
M  V30 7107 H 653.912 -1.82236 0.53759 0
M  V30 7108 H 652.062 -3.74617 -1.02929 0
M  V30 7109 H 653.734 -4.3598 1.50729 0
M  V30 7110 H 651.977 -4.07669 1.48284 0
M  V30 7111 H 652.648 -5.48171 0.649083 0
M  V30 7112 H 655.124 -4.10232 -0.696338 0
M  V30 7113 H 654 -5.31953 -1.35343 0
M  V30 7114 H 654.261 -3.81862 -2.22786 0
M  V30 7115 N 653.32 -0.135238 -1.57019 0
M  V30 7116 C 654.545 0.529343 -2.00531 0
M  V30 7117 C 654.97 1.58391 -1.01459 0
M  V30 7118 O 654.328 1.81296 0.0113986 0
M  V30 7119 C 654.376 1.11748 -3.42848 0
M  V30 7120 O 653.48 2.23267 -3.46736 0
M  V30 7121 H 652.821 0.130669 -0.651016 0
M  V30 7122 H 655.351 -0.228503 -2.0332 0
M  V30 7123 H 655.361 1.44905 -3.81401 0
M  V30 7124 H 654.036 0.345147 -4.14465 0
M  V30 7125 H 652.613 1.91428 -3.20015 0
M  V30 7126 N 654.798 1.5699 0.138552 0
M  V30 7127 C 656.047 1.82998 0.848205 0
M  V30 7128 C 656.36 0.717829 1.81952 0
M  V30 7129 O 657.566 0.863756 2.57394 0
M  V30 7130 C 656.022 3.24379 1.55904 0
M  V30 7131 C 655.63 4.43552 0.62971 0
M  V30 7132 C 657.374 3.59654 2.25498 0
M  V30 7133 C 655.281 5.75957 1.34266 0
M  V30 7134 H 654.211 0.682495 0.320495 0
M  V30 7135 H 656.862 1.83222 0.100924 0
M  V30 7136 H 655.244 3.18567 2.35226 0
M  V30 7137 H 656.418 4.6062 -0.128882 0
M  V30 7138 H 654.733 4.16379 0.0417526 0
M  V30 7139 H 657.33 4.55837 2.79493 0
M  V30 7140 H 657.673 2.86124 3.02388 0
M  V30 7141 H 658.206 3.67164 1.53087 0
M  V30 7142 H 654.945 6.52604 0.615441 0
M  V30 7143 H 654.465 5.62811 2.07375 0
M  V30 7144 H 656.144 6.19046 1.88126 0
M  V30 7145 N 656.276 -0.40816 1.52223 0
M  V30 7146 C 657.224 -1.51788 1.76248 0
M  V30 7147 C 658.218 -1.57264 0.629638 0
M  V30 7148 O 659.424 -1.60659 0.811704 0
M  V30 7149 H 655.799 -0.504823 0.557367 0
M  V30 7150 H 657.77 -1.2871 2.69214 0
M  V30 7151 C 656.519 -2.89145 1.93107 0
M  V30 7152 H 655.842 -2.85674 2.79697 0
M  V30 7153 H 657.282 -3.66082 2.13916 0
M  V30 7154 C 655.741 -3.29581 0.698431 0
M  V30 7155 O 656.271 -4.01479 -0.133238 0
M  V30 7156 N 654.477 -2.85651 0.53405 0
M  V30 7157 H 654.024 -2.2731 1.21194 0
M  V30 7158 H 653.982 -3.13065 -0.289387 0
M  V30 7159 N 657.755 -1.42862 -0.66545 0
M  V30 7160 C 659.004 -1.43119 -1.42126 0
M  V30 7161 C 659.317 -0.0545297 -1.95524 0
M  V30 7162 O 660.523 0.0654747 -2.71421 0
M  V30 7163 C 658.979 -2.51797 -2.5715 0
M  V30 7164 C 658.587 -3.95514 -2.10411 0
M  V30 7165 C 660.331 -2.61233 -3.346 0
M  V30 7166 C 658.238 -4.95682 -3.22573 0
M  V30 7167 H 657.168 -0.532349 -0.533966 0
M  V30 7168 H 659.819 -1.68806 -0.719506 0
M  V30 7169 H 658.201 -2.19292 -3.29738 0
M  V30 7170 H 659.375 -4.3742 -1.44915 0
M  V30 7171 H 657.69 -3.90012 -1.45874 0
M  V30 7172 H 660.287 -3.33248 -4.18151 0
M  V30 7173 H 660.63 -1.65896 -3.81817 0
M  V30 7174 H 661.163 -2.9298 -2.69087 0
M  V30 7175 H 657.902 -5.92529 -2.80338 0
M  V30 7176 H 657.422 -4.58399 -3.86821 0
M  V30 7177 H 659.101 -5.17828 -3.87896 0
M  V30 7178 N 659.233 0.902656 -1.29189 0
M  V30 7179 C 660.196 1.98797 -1.14071 0
M  V30 7180 C 661.196 1.60615 -0.0770549 0
M  V30 7181 O 662.386 1.71165 -0.323753 0
M  V30 7182 C 659.518 3.32688 -0.743739 0
M  V30 7183 H 660.711 2.13637 -2.10473 0
M  V30 7184 H 658.264 1.08678 -1.12334 0
M  V30 7185 H 658.999 3.23549 0.220554 0
M  V30 7186 H 658.784 3.61765 -1.51223 0
M  V30 7187 H 660.274 4.12337 -0.660935 0
M  V30 7188 N 660.711 1.11618 1.11262 0
M  V30 7189 C 661.621 0.78898 2.20935 0
M  V30 7190 C 662.637 -0.21867 1.7262 0
M  V30 7191 O 663.813 -0.0543826 2.01327 0
M  V30 7192 C 660.878 0.239014 3.45875 0
M  V30 7193 C 659.939 1.3055 4.08968 0
M  V30 7194 C 659.172 0.781687 5.27944 0
M  V30 7195 O 659.395 -0.387605 5.69082 0
M  V30 7196 O 658.329 1.54734 5.81671 0
M  V30 7197 H 662.155 1.70477 2.51339 0
M  V30 7198 H 659.74 0.892203 1.19834 0
M  V30 7199 H 661.622 -0.0632312 4.21353 0
M  V30 7200 H 660.297 -0.649454 3.17118 0
M  V30 7201 H 659.204 1.66079 3.35214 0
M  V30 7202 H 660.537 2.16743 4.41909 0
M  V30 7203 N 662.189 -1.289 0.906776 0
M  V30 7204 C 663.099 -2.31256 0.394707 0
M  V30 7205 C 664.115 -1.66231 -0.514121 0
M  V30 7206 O 665.291 -1.97347 -0.401994 0
M  V30 7207 C 662.356 -3.44792 -0.363191 0
M  V30 7208 C 661.417 -4.25391 0.578012 0
M  V30 7209 C 660.65 -5.33506 -0.143811 0
M  V30 7210 O 660.873 -5.53786 -1.36665 0
M  V30 7211 O 659.807 -5.99673 0.5173 0
M  V30 7212 H 663.633 -2.77051 1.24405 0
M  V30 7213 H 661.218 -1.33466 0.671346 0
M  V30 7214 H 663.1 -4.139 -0.791503 0
M  V30 7215 H 661.775 -3.01093 -1.18848 0
M  V30 7216 H 660.682 -3.58899 1.05558 0
M  V30 7217 H 662.015 -4.72752 1.36992 0
M  V30 7218 N 663.667 -0.670007 -1.42649 0
M  V30 7219 C 664.916 -0.187526 -2.00826 0
M  V30 7220 C 665.229 1.21142 -1.53571 0
M  V30 7221 O 666.435 1.79001 -2.04134 0
M  V30 7222 C 664.891 -0.284409 -3.58774 0
M  V30 7223 C 664.499 -1.6871 -4.15019 0
M  V30 7224 C 666.243 0.139605 -4.2427 0
M  V30 7225 C 664.15 -1.73701 -5.65316 0
M  V30 7226 H 663.08 -0.0663468 -0.751075 0
M  V30 7227 H 665.731 -0.834492 -1.63427 0
M  V30 7228 H 664.113 0.430364 -3.93655 0
M  V30 7229 H 665.287 -2.42857 -3.91608 0
M  V30 7230 H 663.602 -2.05855 -3.61957 0
M  V30 7231 H 666.199 0.122398 -5.3456 0
M  V30 7232 H 666.542 1.17403 -3.99402 0
M  V30 7233 H 667.075 -0.523995 -3.94334 0
M  V30 7234 H 663.814 -2.75109 -5.94975 0
M  V30 7235 H 663.334 -1.03903 -5.90732 0
M  V30 7236 H 665.013 -1.48829 -6.2965 0
M  V30 7237 N 665.145 1.52092 -0.413018 0
M  V30 7238 C 666.373 2.06274 0.160881 0
M  V30 7239 C 666.788 1.28273 1.38533 0
M  V30 7240 O 666.145 0.33563 1.79387 0
M  V30 7241 C 666.196 3.57921 0.507443 0
M  V30 7242 O 665.917 4.32971 -0.668388 0
M  V30 7243 C 667.418 4.28533 1.13465 0
M  V30 7244 H 664.638 0.67074 0.0186759 0
M  V30 7245 H 667.182 1.95951 -0.585092 0
M  V30 7246 H 665.337 3.68238 1.20331 0
M  V30 7247 H 665.751 5.23135 -0.378169 0
M  V30 7248 H 667.225 5.35804 1.32732 0
M  V30 7249 H 667.702 3.85258 2.10886 0
M  V30 7250 H 668.308 4.22595 0.478876 0
M  V30 7251 N 666.623 0.143563 1.56945 0
M  V30 7252 C 667.533 -0.810562 2.20152 0
M  V30 7253 C 668.549 -1.27431 1.1848 0
M  V30 7254 O 669.725 -1.33221 1.51044 0
M  V30 7255 C 666.79 -2.03353 2.80799 0
M  V30 7256 C 665.851 -1.61936 3.97587 0
M  V30 7257 C 665.084 -2.78403 4.55332 0
M  V30 7258 O 665.307 -3.94521 4.11958 0
M  V30 7259 O 664.241 -2.54073 5.45647 0
M  V30 7260 H 668.067 -0.30253 3.02189 0
M  V30 7261 H 665.652 -0.0832925 1.49168 0
M  V30 7262 H 667.534 -2.74932 3.19359 0
M  V30 7263 H 666.209 -2.53116 2.01777 0
M  V30 7264 H 665.116 -0.873904 3.6375 0
M  V30 7265 H 666.449 -1.16892 4.78118 0
M  V30 7266 N 668.101 -1.57061 -0.130224 0
M  V30 7267 C 669.011 -2.02802 -1.17934 0
M  V30 7268 C 670.027 -0.946378 -1.46013 0
M  V30 7269 O 671.203 -1.25708 -1.57351 0
M  V30 7270 C 668.268 -2.41368 -2.48882 0
M  V30 7271 C 667.329 -3.63561 -2.28301 0
M  V30 7272 C 666.562 -4.00279 -3.53005 0
M  V30 7273 O 666.785 -3.37463 -4.59864 0
M  V30 7274 O 665.719 -4.93441 -3.44673 0
M  V30 7275 H 669.545 -2.92394 -0.820958 0
M  V30 7276 H 667.13 -1.45475 -0.340197 0
M  V30 7277 H 669.012 -2.66958 -3.26054 0
M  V30 7278 H 667.687 -1.54926 -2.84217 0
M  V30 7279 H 666.594 -3.43136 -1.49025 0
M  V30 7280 H 667.927 -4.50673 -1.97875 0
M  V30 7281 N 669.579 0.400081 -1.52437 0
M  V30 7282 C 670.807 1.16768 -1.70801 0
M  V30 7283 C 671.222 1.84036 -0.421462 0
M  V30 7284 O 670.579 1.72242 0.603228 0
M  V30 7285 C 670.63 2.22403 -2.8499 0
M  V30 7286 O 670.351 1.57879 -4.08663 0
M  V30 7287 C 671.852 3.11974 -3.1494 0
M  V30 7288 H 669.072 0.350533 -0.57216 0
M  V30 7289 H 671.616 0.469534 -1.99037 0
M  V30 7290 H 669.771 2.87871 -2.59247 0
M  V30 7291 H 670.185 2.27982 -4.7236 0
M  V30 7292 H 671.659 3.82148 -3.9833 0
M  V30 7293 H 672.136 3.74858 -2.28863 0
M  V30 7294 H 672.742 2.52165 -3.42481 0
M  V30 7295 N 671.057 1.43213 0.657864 0
M  V30 7296 C 672.285 1.48015 1.44566 0
M  V30 7297 C 672.7 0.0965951 1.88553 0
M  V30 7298 O 672.057 -0.892221 1.59203 0
M  V30 7299 C 672.108 2.42199 2.68369 0
M  V30 7300 O 671.829 3.75173 2.26223 0
M  V30 7301 C 673.33 2.56195 3.61772 0
M  V30 7302 H 670.55 0.502861 0.444266 0
M  V30 7303 H 673.094 1.87907 0.806917 0
M  V30 7304 H 671.249 2.05514 3.28394 0
M  V30 7305 H 671.663 4.25776 3.06293 0
M  V30 7306 H 673.137 3.26182 4.4532 0
M  V30 7307 H 673.614 1.60534 4.0881 0
M  V30 7308 H 674.22 2.93671 3.07632 0
M  V30 7309 N 672.536 -0.895792 1.29666 0
M  V30 7310 C 673.484 -2.02173 1.15017 0
M  V30 7311 C 674.478 -1.69276 0.0647651 0
M  V30 7312 O 675.684 -1.7859 0.224846 0
M  V30 7313 H 672.059 -0.662719 0.355397 0
M  V30 7314 H 674.03 -2.11666 2.10334 0
M  V30 7315 C 672.779 -3.37212 0.847555 0
M  V30 7316 H 672.102 -3.6303 1.67479 0
M  V30 7317 H 673.542 -4.16668 0.785106 0
M  V30 7318 C 672.001 -3.33891 -0.44929 0
M  V30 7319 O 672.531 -3.73673 -1.47415 0
M  V30 7320 N 670.737 -2.86991 -0.456547 0
M  V30 7321 H 670.284 -2.54813 0.377925 0
M  V30 7322 H 670.242 -2.85152 -1.32423 0
M  V30 7323 N 674.014 -1.12206 -1.10668 0
M  V30 7324 C 674.924 -0.800686 -2.20513 0
M  V30 7325 C 675.94 0.209512 -1.72734 0
M  V30 7326 O 677.116 0.043705 -2.01353 0
M  V30 7327 C 674.181 -0.257353 -3.45744 0
M  V30 7328 C 673.242 -1.32718 -4.0827 0
M  V30 7329 C 672.475 -0.809674 -5.27522 0
M  V30 7330 O 672.698 0.35742 -5.69279 0
M  V30 7331 O 671.632 -1.57816 -5.80842 0
M  V30 7332 H 675.458 -1.71807 -2.50432 0
M  V30 7333 H 673.043 -0.898546 -1.19359 0
M  V30 7334 H 674.925 0.0408849 -4.2138 0
M  V30 7335 H 673.6 0.632627 -3.17458 0
M  V30 7336 H 672.507 -1.67855 -3.34329 0
M  V30 7337 H 673.84 -2.19083 -4.40753 0
M  V30 7338 N 675.492 1.28418 -0.913599 0
M  V30 7339 C 676.439 2.27301 -0.400373 0
M  V30 7340 C 677.409 1.57582 0.52509 0
M  V30 7341 O 678.594 1.85482 0.447318 0
M  V30 7342 C 675.734 3.43284 0.35361 0
M  V30 7343 C 674.847 4.27752 -0.604341 0
M  V30 7344 C 673.982 5.30934 0.168075 0
M  V30 7345 C 673.021 6.07065 -0.783499 0
M  V30 7346 N 672.158 7.02086 -0.0446112 0
M  V30 7347 H 676.998 2.70579 -1.24865 0
M  V30 7348 H 674.535 1.33067 -0.627028 0
M  V30 7349 H 676.493 4.09322 0.806945 0
M  V30 7350 H 675.123 3.00997 1.16623 0
M  V30 7351 H 674.175 3.61759 -1.17621 0
M  V30 7352 H 675.487 4.80682 -1.33216 0
M  V30 7353 H 674.641 6.02855 0.681979 0
M  V30 7354 H 673.38 4.78771 0.928947 0
M  V30 7355 H 672.385 5.33995 -1.30878 0
M  V30 7356 H 673.61 6.61317 -1.54392 0
M  V30 7357 H 671.556 6.52273 0.698272 0
M  V30 7358 H 671.473 7.52637 -0.712258 0
M  V30 7359 H 672.741 7.78205 0.449102 0
M  V30 7360 N 676.97 0.677563 1.42291 0
M  V30 7361 C 677.88 0.000962654 2.346 0
M  V30 7362 C 678.896 -0.785833 1.55244 0
M  V30 7363 O 680.072 -0.727523 1.87801 0
M  V30 7364 C 677.137 -0.936746 3.33805 0
M  V30 7365 C 676.198 -0.144173 4.29058 0
M  V30 7366 C 675.431 -1.03722 5.23524 0
M  V30 7367 O 675.654 -2.27675 5.22992 0
M  V30 7368 O 674.588 -0.496542 5.99848 0
M  V30 7369 H 678.414 0.761397 2.94001 0
M  V30 7370 H 675.999 0.43781 1.42841 0
M  V30 7371 H 677.881 -1.47497 3.94744 0
M  V30 7372 H 676.556 -1.67698 2.76874 0
M  V30 7373 H 675.463 0.438224 3.71524 0
M  V30 7374 H 676.796 0.55701 4.89038 0
M  V30 7375 N 678.448 -1.51871 0.421078 0
M  V30 7376 C 679.395 -2.27334 -0.398508 0
M  V30 7377 C 680.365 -1.30241 -1.03085 0
M  V30 7378 O 681.55 -1.59121 -1.05285 0
M  V30 7379 C 678.69 -3.10664 -1.50272 0
M  V30 7380 C 677.803 -4.2273 -0.890122 0
M  V30 7381 C 676.938 -4.93399 -1.96803 0
M  V30 7382 C 675.977 -5.97409 -1.333 0
M  V30 7383 N 675.114 -6.61548 -2.35156 0
M  V30 7384 H 679.954 -2.96938 0.251411 0
M  V30 7385 H 677.491 -1.46472 0.135825 0
M  V30 7386 H 679.449 -3.57292 -2.15403 0
M  V30 7387 H 678.079 -2.43207 -2.1225 0
M  V30 7388 H 677.131 -3.80186 -0.127537 0
M  V30 7389 H 678.443 -4.97302 -0.386349 0
M  V30 7390 H 677.597 -5.43491 -2.69633 0
M  V30 7391 H 676.336 -4.18421 -2.50549 0
M  V30 7392 H 675.341 -5.46624 -0.59008 0
M  V30 7393 H 676.566 -6.74335 -0.803076 0
M  V30 7394 H 674.512 -5.89394 -2.88012 0
M  V30 7395 H 674.429 -7.31832 -1.89624 0
M  V30 7396 H 675.697 -7.16276 -3.0752 0
M  V30 7397 N 679.926 -0.151884 -1.56866 0
M  V30 7398 C 681.175 0.497992 -1.95456 0
M  V30 7399 C 681.488 1.6569 -1.03953 0
M  V30 7400 O 682.694 2.37173 -1.32142 0
M  V30 7401 C 681.15 0.93732 -3.4748 0
M  V30 7402 C 680.758 -0.194921 -4.47576 0
M  V30 7403 C 682.502 1.55671 -3.94926 0
M  V30 7404 C 680.409 0.26295 -5.90815 0
M  V30 7405 H 679.339 0.189811 -0.729717 0
M  V30 7406 H 681.99 -0.237011 -1.81963 0
M  V30 7407 H 680.372 1.72773 -3.56322 0
M  V30 7408 H 681.546 -0.971951 -4.50433 0
M  V30 7409 H 679.861 -0.72303 -4.10075 0
M  V30 7410 H 682.458 1.91099 -4.99385 0
M  V30 7411 H 682.801 2.44748 -3.36755 0
M  V30 7412 H 683.334 0.831109 -3.89021 0
M  V30 7413 H 680.073 -0.592568 -6.52816 0
M  V30 7414 H 679.593 1.00575 -5.91308 0
M  V30 7415 H 681.272 0.713333 -6.43056 0
M  V30 7416 N 681.404 1.57128 0.121893 0
M  V30 7417 C 682.653 1.83888 0.828748 0
M  V30 7418 C 682.966 0.737087 1.81181 0
M  V30 7419 O 684.172 0.891007 2.56463 0
M  V30 7420 C 682.628 3.26014 1.52455 0
M  V30 7421 C 682.236 4.44195 0.58263 0
M  V30 7422 C 683.98 3.62025 2.21671 0
M  V30 7423 C 681.887 5.77349 1.28149 0
M  V30 7424 H 680.817 0.685856 0.313238 0
M  V30 7425 H 683.468 1.83319 0.0814851 0
M  V30 7426 H 681.85 3.21044 2.31834 0
M  V30 7427 H 683.024 4.60457 -0.177729 0
M  V30 7428 H 681.339 4.164 -0.00241228 0
M  V30 7429 H 683.936 4.58776 2.74643 0
M  V30 7430 H 684.279 2.89315 2.99337 0
M  V30 7431 H 684.812 3.68767 1.49184 0
M  V30 7432 H 681.551 6.53221 0.546189 0
M  V30 7433 H 681.071 5.64978 2.01394 0
M  V30 7434 H 682.75 6.21006 1.81549 0
M  V30 7435 N 682.882 -0.391992 1.52647 0
M  V30 7436 C 683.829 -1.47866 1.77213 0
M  V30 7437 C 684.799 -1.54286 0.615223 0
M  V30 7438 O 685.984 -1.7059 0.854622 0
M  V30 7439 C 683.124 -2.85129 1.94411 0
M  V30 7440 C 682.237 -2.87883 3.22098 0
M  V30 7441 C 681.372 -4.16553 3.29631 0
M  V30 7442 C 680.411 -4.13348 4.51453 0
M  V30 7443 N 679.548 -5.33619 4.56284 0
M  V30 7444 H 684.388 -1.26219 2.6995 0
M  V30 7445 H 681.925 -0.612367 1.33748 0
M  V30 7446 H 683.883 -3.64833 2.02367 0
M  V30 7447 H 682.513 -3.05232 1.05038 0
M  V30 7448 H 681.565 -2.00567 3.23229 0
M  V30 7449 H 682.877 -2.81382 4.11856 0
M  V30 7450 H 682.031 -5.0466 3.36753 0
M  V30 7451 H 680.77 -4.25773 2.37842 0
M  V30 7452 H 679.775 -3.23629 4.44459 0
M  V30 7453 H 681 -4.05754 5.44555 0
M  V30 7454 H 678.946 -5.43474 3.67385 0
M  V30 7455 H 678.863 -5.29182 5.3991 0
M  V30 7456 H 680.131 -6.23632 4.67657 0
M  V30 7457 N 684.36 -1.4356 -0.65026 0
M  V30 7458 C 685.585 -1.48995 -1.44275 0
M  V30 7459 C 686.01 -0.109954 -1.87778 0
M  V30 7460 O 685.368 0.896926 -1.57559 0
M  V30 7461 C 685.416 -2.44341 -2.65198 0
M  V30 7462 O 684.52 -1.93172 -3.6436 0
M  V30 7463 H 683.861 -0.503852 -0.432469 0
M  V30 7464 H 686.391 -1.88504 -0.795446 0
M  V30 7465 H 686.401 -2.61743 -3.12977 0
M  V30 7466 H 685.076 -3.44588 -2.32877 0
M  V30 7467 H 683.653 -1.85445 -3.23519 0
M  V30 7468 N 685.838 0.888903 -1.30139 0
M  V30 7469 C 687.078 1.65456 -1.20015 0
M  V30 7470 C 687.442 1.90467 0.242148 0
M  V30 7471 O 688.643 2.6472 0.466561 0
M  V30 7472 C 686.914 2.96071 -2.00191 0
M  V30 7473 S 688.473 3.87055 -2.06721 0
M  V30 7474 H 685.291 0.567927 -0.427761 0
M  V30 7475 H 687.893 1.05539 -1.64565 0
M  V30 7476 H 686.597 2.7559 -3.04103 0
M  V30 7477 H 686.128 3.61023 -1.56288 0
M  V30 7478 H 688.143 4.81676 -1.19174 0
M  V30 7479 N 687.317 1.12792 1.10072 0
M  V30 7480 C 688.264 0.79921 2.16521 0
M  V30 7481 C 689.234 -0.235726 1.64419 0
M  V30 7482 O 690.419 -0.109457 1.90486 0
M  V30 7483 C 687.559 0.264091 3.44088 0
M  V30 7484 C 686.672 1.35729 4.10124 0
M  V30 7485 C 685.807 0.781212 5.25424 0
M  V30 7486 C 684.846 1.85327 5.8337 0
M  V30 7487 N 683.983 1.29564 6.90042 0
M  V30 7488 H 688.823 1.71105 2.43981 0
M  V30 7489 H 686.36 0.854225 1.19756 0
M  V30 7490 H 688.318 -0.0642423 4.17151 0
M  V30 7491 H 686.948 -0.610901 3.16967 0
M  V30 7492 H 686 1.80234 3.34993 0
M  V30 7493 H 687.312 2.16782 4.4923 0
M  V30 7494 H 686.466 0.403769 6.05355 0
M  V30 7495 H 685.205 -0.0604686 4.87663 0
M  V30 7496 H 684.21 2.23986 5.02106 0
M  V30 7497 H 685.435 2.69824 6.23195 0
M  V30 7498 H 683.381 0.475844 6.54272 0
M  V30 7499 H 683.298 2.04271 7.2788 0
M  V30 7500 H 684.566 0.945545 7.73744 0
M  V30 7501 N 688.795 -1.27931 0.920396 0
M  V30 7502 C 690.023 -1.98805 0.573087 0
M  V30 7503 C 690.438 -1.68724 -0.847201 0
M  V30 7504 O 689.795 -0.943699 -1.56207 0
M  V30 7505 C 689.846 -3.52971 0.780633 0
M  V30 7506 O 689.567 -3.81994 2.14504 0
M  V30 7507 C 691.068 -4.411 0.44105 0
M  V30 7508 H 688.288 -0.634651 0.21785 0
M  V30 7509 H 690.832 -1.62965 1.23542 0
M  V30 7510 H 688.987 -3.87048 0.165204 0
M  V30 7511 H 689.401 -4.76609 2.18962 0
M  V30 7512 H 690.875 -5.48312 0.637006 0
M  V30 7513 H 691.352 -4.34758 -0.62306 0
M  V30 7514 H 691.958 -4.12532 1.0343 0
M  V30 7515 N 690.273 -0.685099 -1.4193 0
M  V30 7516 C 691.203 -0.0273506 -2.33484 0
M  V30 7517 C 692.184 0.778366 -1.51246 0
M  V30 7518 O 693.369 0.733449 -1.79817 0
M  V30 7519 C 690.499 0.917272 -3.34968 0
M  V30 7520 C 689.453 0.21941 -4.27437 0
M  V30 7521 C 688.779 1.27768 -5.1921 0
M  V30 7522 C 690.079 -0.907894 -5.14349 0
M  V30 7523 H 691.773 -0.791994 -2.88735 0
M  V30 7524 H 689.319 -0.382308 -1.38832 0
M  V30 7525 H 691.272 1.38657 -3.97935 0
M  V30 7526 H 689.996 1.71346 -2.78043 0
M  V30 7527 H 688.655 -0.229757 -3.65879 0
M  V30 7528 H 688.303 2.06612 -4.58607 0
M  V30 7529 H 688.003 0.815803 -5.81909 0
M  V30 7530 H 689.527 1.7477 -5.85054 0
M  V30 7531 H 690.941 -0.519348 -5.70943 0
M  V30 7532 H 689.338 -1.2962 -5.85934 0
M  V30 7533 H 690.408 -1.75218 -4.52136 0
M  V30 7534 N 691.751 1.51645 -0.429126 0
M  V30 7535 C 693 2.01203 0.141538 0
M  V30 7536 C 693.313 1.31828 1.44502 0
M  V30 7537 O 694.519 1.7231 2.09813 0
M  V30 7538 C 692.975 3.58624 0.302786 0
M  V30 7539 C 692.583 4.3693 -0.989775 0
M  V30 7540 C 694.327 4.16353 0.827661 0
M  V30 7541 C 692.234 5.86037 -0.794619 0
M  V30 7542 H 691.164 0.751867 0.05667 0
M  V30 7543 H 693.815 1.74822 -0.557633 0
M  V30 7544 H 692.197 3.81417 1.06476 0
M  V30 7545 H 693.371 4.25887 -1.75945 0
M  V30 7546 H 691.686 3.90614 -1.44256 0
M  V30 7547 H 694.283 5.25455 0.990026 0
M  V30 7548 H 694.626 3.74995 1.80787 0
M  V30 7549 H 695.159 3.97606 0.124213 0
M  V30 7550 H 691.898 6.31792 -1.74697 0
M  V30 7551 H 691.418 5.99765 -0.0645968 0
M  V30 7552 H 693.097 6.45471 -0.444591 0
M  V30 7553 N 693.229 0.160201 1.56784 0
M  V30 7554 C 694.454 -0.497373 2.01348 0
M  V30 7555 C 694.879 -1.56757 1.03966 0
M  V30 7556 O 694.237 -1.81292 0.0174455 0
M  V30 7557 C 694.285 -1.0628 3.44582 0
M  V30 7558 O 693.389 -2.17723 3.50244 0
M  V30 7559 H 692.73 -0.120295 0.653012 0
M  V30 7560 H 695.26 0.260821 2.02931 0
M  V30 7561 H 695.27 -1.38819 3.83658 0
M  V30 7562 H 693.945 -0.279166 4.14962 0
M  V30 7563 H 692.522 -1.86313 3.2302 0
M  V30 7564 N 694.707 -1.5719 -0.113559 0
M  V30 7565 C 695.954 -1.85138 -0.820382 0
M  V30 7566 C 696.282 -0.74608 -1.79622 0
M  V30 7567 O 695.537 0.262077 -1.93937 0
M  V30 7568 C 695.836 -3.19593 -1.59984 0
M  V30 7569 C 695.502 -4.44315 -0.767809 0
M  V30 7570 C 694.164 -4.78179 -0.538379 0
M  V30 7571 C 696.516 -5.2086 -0.188203 0
M  V30 7572 C 693.844 -5.86028 0.28082 0
M  V30 7573 C 696.196 -6.29572 0.618217 0
M  V30 7574 C 694.86 -6.61964 0.857912 0
M  V30 7575 H 694.13 -0.677467 -0.300199 0
M  V30 7576 H 696.777 -1.91322 -0.0825443 0
M  V30 7577 H 695.082 -3.0901 -2.40874 0
M  V30 7578 H 696.779 -3.3844 -2.1508 0
M  V30 7579 H 693.369 -4.17786 -0.956724 0
M  V30 7580 H 697.553 -4.95045 -0.352658 0
M  V30 7581 H 692.809 -6.09547 0.475693 0
M  V30 7582 H 696.983 -6.88064 1.0743 0
M  V30 7583 H 694.61 -7.45365 1.49451 0
M  V30 7584 N 696.185 0.383891 -1.52853 0
M  V30 7585 C 697.115 1.47559 -1.80965 0
M  V30 7586 C 698.096 1.5669 -0.661986 0
M  V30 7587 O 699.281 1.71556 -0.910072 0
M  V30 7588 C 696.411 2.85114 -1.98312 0
M  V30 7589 C 695.365 2.9082 -3.14019 0
M  V30 7590 C 694.691 4.30873 -3.16627 0
M  V30 7591 C 695.991 2.60001 -4.52986 0
M  V30 7592 H 697.685 1.24283 -2.72386 0
M  V30 7593 H 695.231 0.596445 -1.31067 0
M  V30 7594 H 697.184 3.61496 -2.16561 0
M  V30 7595 H 695.908 3.09738 -1.03585 0
M  V30 7596 H 694.567 2.16886 -2.9556 0
M  V30 7597 H 694.215 4.52545 -2.19573 0
M  V30 7598 H 693.915 4.3561 -3.94357 0
M  V30 7599 H 695.439 5.09154 -3.37038 0
M  V30 7600 H 696.853 3.261 -4.71521 0
M  V30 7601 H 695.25 2.76081 -5.32822 0
M  V30 7602 H 696.32 1.5532 -4.59351 0
M  V30 7603 N 697.663 1.43903 0.642637 0
M  V30 7604 C 698.626 1.49538 1.73698 0
M  V30 7605 C 699.626 0.378776 1.56275 0
M  V30 7606 O 700.816 0.64095 1.6198 0
M  V30 7607 C 697.948 1.35821 3.12675 0
M  V30 7608 H 699.141 2.47008 1.70079 0
M  V30 7609 H 696.694 1.30824 0.85526 0
M  V30 7610 H 697.429 0.393994 3.21898 0
M  V30 7611 H 697.214 2.16776 3.26727 0
M  V30 7612 H 698.704 1.4272 3.92455 0
M  V30 7613 N 699.141 -0.881989 1.30609 0
M  V30 7614 C 700.088 -1.98803 1.17244 0
M  V30 7615 C 701.058 -1.65987 0.0611905 0
M  V30 7616 O 702.243 -1.89385 0.231911 0
M  V30 7617 C 699.383 -3.33867 0.87333 0
M  V30 7618 C 698.496 -3.79354 2.06675 0
M  V30 7619 C 697.631 -5.03078 1.70547 0
M  V30 7620 C 696.67 -5.40981 2.86366 0
M  V30 7621 N 695.807 -6.55886 2.50514 0
M  V30 7622 H 700.647 -2.09566 2.11863 0
M  V30 7623 H 698.184 -1.02607 1.05405 0
M  V30 7624 H 700.142 -4.11612 0.680519 0
M  V30 7625 H 698.772 -3.2278 -0.0359983 0
M  V30 7626 H 697.824 -2.97492 2.37071 0
M  V30 7627 H 699.136 -4.03382 2.93401 0
M  V30 7628 H 698.29 -5.88457 1.47658 0
M  V30 7629 H 697.029 -4.80927 0.809947 0
M  V30 7630 H 696.034 -4.54127 3.09917 0
M  V30 7631 H 697.259 -5.65104 3.76609 0
M  V30 7632 H 695.205 -6.35306 1.63471 0
M  V30 7633 H 695.122 -6.79799 3.30771 0
M  V30 7634 H 696.39 -7.44489 2.30989 0
M  V30 7635 N 700.619 -1.13374 -1.09472 0
M  V30 7636 C 701.549 -0.833268 -2.18126 0
M  V30 7637 C 702.53 0.207169 -1.68834 0
M  V30 7638 O 703.715 0.0662012 -1.94087 0
M  V30 7639 C 700.845 -0.297979 -3.46019 0
M  V30 7640 C 699.799 -1.27261 -4.08642 0
M  V30 7641 C 699.125 -0.597104 -5.31356 0
M  V30 7642 C 700.425 -2.63095 -4.51197 0
M  V30 7643 H 702.119 -1.74182 -2.43518 0
M  V30 7644 H 699.665 -0.838921 -1.17039 0
M  V30 7645 H 701.618 -0.0754444 -4.21332 0
M  V30 7646 H 700.342 0.645959 -3.20148 0
M  V30 7647 H 699.001 -1.48113 -3.35348 0
M  V30 7648 H 698.649 0.352293 -5.01765 0
M  V30 7649 H 698.349 -1.24734 -5.74208 0
M  V30 7650 H 699.873 -0.38384 -6.09392 0
M  V30 7651 H 701.287 -2.46214 -5.17737 0
M  V30 7652 H 699.684 -3.2429 -5.04932 0
M  V30 7653 H 700.754 -3.20793 -3.6362 0
M  V30 7654 N 702.098 1.27442 -0.927168 0
M  V30 7655 C 703.375 1.89473 -0.485742 0
M  V30 7656 C 703.755 1.83922 1.03614 0
M  V30 7657 O 703.103 1.28409 1.89007 0
M  V30 7658 C 703.313 3.33417 -1.03123 0
M  V30 7659 C 704.661 4.10333 -1.0914 0
M  V30 7660 O 705.685 3.4243 -0.98082 0
M  V30 7661 O 704.544 5.31737 -1.26165 0
M  V30 7662 H 701.638 0.812124 -0.156154 0
M  V30 7663 H 704.184 1.35713 -1.01882 0
M  V30 7664 H 702.956 3.31747 -2.07508 0
M  V30 7665 H 702.579 3.94695 -0.479767 0
M  V30 7666 N 703.576 0.692616 1.41565 0
M  V30 7667 C 704.853 0.150496 1.9502 0
M  V30 7668 C 705.233 -1.33881 1.63215 0
M  V30 7669 O 704.581 -2.08378 0.937598 0
M  V30 7670 C 704.791 0.438636 3.46233 0
M  V30 7671 C 706.139 0.364777 4.2303 0
M  V30 7672 O 707.163 0.373383 3.54238 0
M  V30 7673 O 706.022 0.32234 5.45549 0
M  V30 7674 H 703.116 0.0132454 0.826894 0
M  V30 7675 H 705.662 0.768574 1.51298 0
M  V30 7676 H 704.434 1.46962 3.62654 0
M  V30 7677 H 704.057 -0.210562 3.97042 0
M  V30 7678 N 705.054 -1.51416 0.437162 0
M  V30 7679 C 705.964 -2.31493 -0.380537 0
M  V30 7680 C 706.98 -1.40399 -1.02782 0
M  V30 7681 O 708.156 -1.73471 -1.02323 0
M  V30 7682 C 705.221 -3.1413 -1.46709 0
M  V30 7683 C 704.282 -4.21003 -0.839953 0
M  V30 7684 C 703.515 -4.9969 -1.87473 0
M  V30 7685 O 703.738 -4.79008 -3.09689 0
M  V30 7686 O 702.672 -5.8379 -1.46536 0
M  V30 7687 H 706.498 -3.02469 0.273183 0
M  V30 7688 H 704.083 -1.48059 0.199706 0
M  V30 7689 H 705.965 -3.65505 -2.09724 0
M  V30 7690 H 704.64 -2.45919 -2.10489 0
M  V30 7691 H 703.547 -3.73706 -0.171752 0
M  V30 7692 H 704.88 -4.91587 -0.245638 0
M  V30 7693 N 706.532 -0.168513 -1.56696 0
M  V30 7694 C 707.462 0.758563 -2.20835 0
M  V30 7695 C 708.443 1.24121 -1.1631 0
M  V30 7696 O 709.628 1.29487 -1.4473 0
M  V30 7697 C 706.758 1.9892 -2.8469 0
M  V30 7698 C 705.712 1.64252 -3.95228 0
M  V30 7699 C 705.038 2.94757 -4.46119 0
M  V30 7700 C 706.338 0.872675 -5.14958 0
M  V30 7701 H 708.032 0.223953 -2.98561 0
M  V30 7702 H 705.578 0.106277 -1.43607 0
M  V30 7703 H 707.531 2.64275 -3.28233 0
M  V30 7704 H 706.255 2.5479 -2.04327 0
M  V30 7705 H 704.914 1.01266 -3.52336 0
M  V30 7706 H 704.562 3.48662 -3.62552 0
M  V30 7707 H 704.262 2.72316 -5.2069 0
M  V30 7708 H 705.786 3.61147 -4.92347 0
M  V30 7709 H 707.2 1.42875 -5.55211 0
M  V30 7710 H 705.597 0.747402 -5.95428 0
M  V30 7711 H 706.667 -0.131535 -4.84722 0
M  V30 7712 N 708.01 1.57248 0.105221 0
M  V30 7713 C 708.94 2.04374 1.12931 0
M  V30 7714 C 709.921 0.93074 1.42377 0
M  V30 7715 O 711.106 1.20136 1.52581 0
M  V30 7716 C 708.236 2.45967 2.45189 0
M  V30 7717 C 707.19 3.60838 2.30174 0
M  V30 7718 C 706.516 3.88374 3.67518 0
M  V30 7719 C 707.816 4.92084 1.75073 0
M  V30 7720 H 709.51 2.9018 0.737287 0
M  V30 7721 H 707.056 1.39601 0.353211 0
M  V30 7722 H 709.009 2.77542 3.17094 0
M  V30 7723 H 707.733 1.57148 2.86308 0
M  V30 7724 H 706.392 3.29493 1.60716 0
M  V30 7725 H 706.04 2.96739 4.06147 0
M  V30 7726 H 705.74 4.65703 3.58321 0
M  V30 7727 H 707.264 4.22415 4.40906 0
M  V30 7728 H 708.678 5.22106 2.36809 0
M  V30 7729 H 707.075 5.73507 1.76662 0
M  V30 7730 H 708.145 4.79684 0.709347 0
M  V30 7731 N 709.488 -0.375779 1.53054 0
M  V30 7732 C 710.435 -1.45978 1.78771 0
M  V30 7733 C 711.405 -1.53625 0.631552 0
M  V30 7734 O 712.59 -1.69674 0.872667 0
M  V30 7735 C 709.73 -2.8305 1.97425 0
M  V30 7736 C 708.843 -2.84451 3.25134 0
M  V30 7737 C 707.978 -4.13034 3.34031 0
M  V30 7738 C 707.017 -4.08536 4.55812 0
M  V30 7739 N 706.154 -5.2875 4.61918 0
M  V30 7740 H 710.994 -1.23349 2.71273 0
M  V30 7741 H 708.531 -0.598147 1.3439 0
M  V30 7742 H 710.489 -3.62666 2.06225 0
M  V30 7743 H 709.119 -3.04101 1.0827 0
M  V30 7744 H 708.171 -1.97127 3.25338 0
M  V30 7745 H 709.483 -2.76998 4.14818 0
M  V30 7746 H 708.637 -5.0106 3.42087 0
M  V30 7747 H 707.376 -4.23226 2.42345 0
M  V30 7748 H 706.381 -3.18897 4.47867 0
M  V30 7749 H 707.606 -3.99955 5.48828 0
M  V30 7750 H 705.552 -5.39547 3.73129 0
M  V30 7751 H 705.469 -5.23426 5.45492 0
M  V30 7752 H 706.737 -6.18637 4.74245 0
M  V30 7753 N 710.966 -1.44241 -0.634997 0
M  V30 7754 C 711.929 -1.50457 -1.72903 0
M  V30 7755 C 712.929 -0.387058 -1.56072 0
M  V30 7756 O 714.119 -0.649531 -1.61638 0
M  V30 7757 C 711.251 -1.37477 -3.1195 0
M  V30 7758 H 712.444 -2.47907 -1.68767 0
M  V30 7759 H 709.997 -1.31276 -0.84831 0
M  V30 7760 H 710.732 -0.41106 -3.21684 0
M  V30 7761 H 710.517 -2.18506 -3.25573 0
M  V30 7762 H 712.007 -1.44799 -3.91692 0
M  V30 7763 N 712.444 0.87505 -1.31075 0
M  V30 7764 C 713.374 1.99775 -1.20881 0
M  V30 7765 C 714.355 1.69822 -0.0971612 0
M  V30 7766 O 715.54 1.92158 -0.280895 0
M  V30 7767 C 712.67 3.35163 -0.910118 0
M  V30 7768 C 711.624 3.79406 -1.98078 0
M  V30 7769 C 710.95 5.12197 -1.53488 0
M  V30 7770 C 712.25 3.97061 -3.39323 0
M  V30 7771 H 713.944 2.08562 -2.14808 0
M  V30 7772 H 711.49 1.00207 -1.03415 0
M  V30 7773 H 713.443 4.13237 -0.825423 0
M  V30 7774 H 712.167 3.26536 0.064822 0
M  V30 7775 H 710.826 3.03568 -2.05528 0
M  V30 7776 H 710.474 5.00007 -0.547941 0
M  V30 7777 H 710.174 5.4277 -2.2511 0
M  V30 7778 H 711.698 5.92785 -1.46417 0
M  V30 7779 H 713.112 4.65545 -3.34576 0
M  V30 7780 H 711.509 4.39025 -4.09118 0
M  V30 7781 H 712.579 3.00601 -3.80483 0
M  V30 7782 N 713.922 1.13953 1.08869 0
M  V30 7783 C 714.852 0.844824 2.17681 0
M  V30 7784 C 715.833 -0.198213 1.68941 0
M  V30 7785 O 717.018 -0.0559073 1.9412 0
M  V30 7786 C 714.148 0.316325 3.45856 0
M  V30 7787 C 713.102 1.29426 4.07962 0
M  V30 7788 C 712.428 0.625275 5.31031 0
M  V30 7789 C 713.728 2.65484 4.49795 0
M  V30 7790 H 715.422 1.75471 2.42591 0
M  V30 7791 H 712.968 0.845116 1.16592 0
M  V30 7792 H 714.921 0.0977876 4.21287 0
M  V30 7793 H 713.645 -0.628972 3.20486 0
M  V30 7794 H 712.304 1.49889 3.34558 0
M  V30 7795 H 711.952 -0.325678 5.01945 0
M  V30 7796 H 711.652 1.27777 5.73539 0
M  V30 7797 H 713.176 0.416152 6.0918 0
M  V30 7798 H 714.59 2.48957 5.16424 0
M  V30 7799 H 712.987 3.26963 5.03205 0
M  V30 7800 H 714.057 3.22717 3.61914 0
M  V30 7801 N 715.4 -1.26948 0.933913 0
M  V30 7802 C 716.63 -1.97898 0.593279 0
M  V30 7803 C 717.038 -1.69806 -0.834412 0
M  V30 7804 O 716.381 -0.958704 -1.56699 0
M  V30 7805 C 716.443 -3.51657 0.746825 0
M  V30 7806 C 716.107 -4.03384 2.14779 0
M  V30 7807 C 717.104 -4.15682 3.12257 0
M  V30 7808 C 714.789 -4.37577 2.46641 0
M  V30 7809 C 716.783 -4.61455 4.39702 0
M  V30 7810 C 714.47 -4.8304 3.7432 0
M  V30 7811 C 715.468 -4.94939 4.70664 0
M  V30 7812 O 715.156 -5.39403 5.96071 0
M  V30 7813 H 714.888 -0.63814 0.223055 0
M  V30 7814 H 717.442 -1.62608 1.2549 0
M  V30 7815 H 715.672 -3.8669 0.0280889 0
M  V30 7816 H 717.361 -4.03821 0.410328 0
M  V30 7817 H 718.127 -3.89519 2.88964 0
M  V30 7818 H 714.006 -4.27554 1.72391 0
M  V30 7819 H 717.55 -4.70658 5.14905 0
M  V30 7820 H 713.447 -5.08646 3.97429 0
M  V30 7821 H 714.215 -5.57641 5.99148 0
M  V30 7822 N 716.879 -0.700114 -1.41195 0
M  V30 7823 C 718.128 -0.230082 -2.00383 0
M  V30 7824 C 718.441 1.17857 -1.56106 0
M  V30 7825 O 719.647 1.74631 -2.07885 0
M  V30 7826 C 718.103 -0.360447 -3.5809 0
M  V30 7827 C 717.711 -1.77475 -4.11347 0
M  V30 7828 C 719.455 0.0495799 -4.24471 0
M  V30 7829 C 717.362 -1.85653 -5.61504 0
M  V30 7830 H 716.292 -0.0822633 -0.749499 0
M  V30 7831 H 718.943 -0.868969 -1.6162 0
M  V30 7832 H 717.325 0.346768 -3.94479 0
M  V30 7833 H 718.499 -2.51109 -3.86369 0
M  V30 7834 H 716.814 -2.13486 -3.57509 0
M  V30 7835 H 719.411 0.00898219 -5.34699 0
M  V30 7836 H 719.754 1.08904 -4.01803 0
M  V30 7837 H 720.287 -0.607521 -3.93134 0
M  V30 7838 H 717.026 -2.87667 -5.89006 0
M  V30 7839 H 716.546 -1.1641 -5.88395 0
M  V30 7840 H 718.225 -1.62151 -6.26351 0
M  V30 7841 N 718.357 1.51182 -0.445186 0
M  V30 7842 C 719.634 1.9478 0.178965 0
M  V30 7843 C 720.014 1.38428 1.59376 0
M  V30 7844 O 719.362 0.574552 2.21159 0
M  V30 7845 C 719.572 3.48683 0.148711 0
M  V30 7846 C 720.92 4.23152 0.35042 0
M  V30 7847 O 721.944 3.55479 0.226474 0
M  V30 7848 O 720.803 5.4322 0.597893 0
M  V30 7849 H 717.897 0.817387 0.12573 0
M  V30 7850 H 720.443 1.62051 -0.503729 0
M  V30 7851 H 719.215 3.82176 -0.84009 0
M  V30 7852 H 718.838 3.87875 0.873979 0
M  V30 7853 N 719.835 0.176821 1.56605 0
M  V30 7854 C 721.081 -0.467406 1.9734 0
M  V30 7855 C 721.414 -1.62523 1.06301 0
M  V30 7856 O 720.689 -1.94182 0.11125 0
M  V30 7857 C 720.972 -0.945106 3.47476 0
M  V30 7858 C 720.825 0.213273 4.49294 0
M  V30 7859 C 722.144 -1.8169 4.00845 0
M  V30 7860 H 719.263 -0.168426 0.717497 0
M  V30 7861 H 721.905 0.264065 1.88156 0
M  V30 7862 H 720.055 -1.56841 3.55434 0
M  V30 7863 H 721.727 0.850508 4.53392 0
M  V30 7864 H 719.97 0.867918 4.25029 0
M  V30 7865 H 720.641 -0.163187 5.51759 0
M  V30 7866 H 723.117 -1.29139 3.95553 0
M  V30 7867 H 721.993 -2.12015 5.06301 0
M  V30 7868 H 722.254 -2.76463 3.44994 0
M  V30 7869 N 721.313 -1.57302 -0.09688 0
M  V30 7870 C 722.245 -1.98618 -1.14384 0
M  V30 7871 C 723.258 -0.888483 -1.36418 0
M  V30 7872 O 724.447 -1.16661 -1.35101 0
M  V30 7873 C 721.547 -2.28838 -2.49973 0
M  V30 7874 C 720.72 -3.60132 -2.48241 0
M  V30 7875 C 719.779 -3.7831 -3.65743 0
M  V30 7876 O 718.805 -4.50183 -3.48316 0
M  V30 7877 N 720.007 -3.18752 -4.85157 0
M  V30 7878 H 722.772 -2.8904 -0.792202 0
M  V30 7879 H 720.333 -1.59356 -0.285883 0
M  V30 7880 H 722.325 -2.38193 -3.27179 0
M  V30 7881 H 720.895 -1.44431 -2.77233 0
M  V30 7882 H 720.115 -3.61763 -1.56593 0
M  V30 7883 H 721.403 -4.46389 -2.4416 0
M  V30 7884 H 720.801 -2.60368 -5.0222 0
M  V30 7885 H 719.358 -3.33595 -5.59962 0
M  V30 7886 N 722.791 0.367657 -1.53252 0
M  V30 7887 C 724.019 1.13119 -1.73239 0
M  V30 7888 C 724.434 1.831 -0.460404 0
M  V30 7889 O 723.791 1.73483 0.566557 0
M  V30 7890 C 723.842 2.16308 -2.89643 0
M  V30 7891 O 723.563 1.49175 -4.1192 0
M  V30 7892 C 725.064 3.05224 -3.21486 0
M  V30 7893 H 722.284 0.338318 -0.579467 0
M  V30 7894 H 724.828 0.42721 -1.99988 0
M  V30 7895 H 722.983 2.82307 -2.65295 0
M  V30 7896 H 723.397 2.17912 -4.7709 0
M  V30 7897 H 724.871 3.73613 -4.06346 0
M  V30 7898 H 725.348 3.69919 -2.36763 0
M  V30 7899 H 725.954 2.44843 -3.47753 0
M  V30 7900 N 724.269 1.44576 0.627338 0
M  V30 7901 C 725.179 1.54232 1.76776 0
M  V30 7902 C 726.195 0.427782 1.6866 0
M  V30 7903 O 727.371 0.685671 1.89369 0
M  V30 7904 C 724.436 1.48738 3.13174 0
M  V30 7905 C 723.497 2.71074 3.32893 0
M  V30 7906 C 722.73 2.65832 4.62784 0
M  V30 7907 O 722.953 1.72048 5.43834 0
M  V30 7908 O 721.887 3.56742 4.84787 0
M  V30 7909 H 725.713 2.50586 1.71582 0
M  V30 7910 H 723.298 1.26865 0.789028 0
M  V30 7911 H 725.18 1.48211 3.94476 0
M  V30 7912 H 723.855 0.555292 3.18902 0
M  V30 7913 H 722.762 2.77168 2.51254 0
M  V30 7914 H 724.095 3.63342 3.32029 0
M  V30 7915 N 725.747 -0.868086 1.31537 0
M  V30 7916 C 726.657 -2.00801 1.21311 0
M  V30 7917 C 727.673 -1.73518 0.129431 0
M  V30 7918 O 728.849 -1.98378 0.347588 0
M  V30 7919 C 725.914 -3.3419 0.922935 0
M  V30 7920 C 724.975 -3.74783 2.0937 0
M  V30 7921 C 724.208 -5.01807 1.81728 0
M  V30 7922 O 724.431 -5.65404 0.753313 0
M  V30 7923 O 723.365 -5.39213 2.67457 0
M  V30 7924 H 727.191 -2.12361 2.17109 0
M  V30 7925 H 724.776 -0.996684 1.11295 0
M  V30 7926 H 726.658 -4.14174 0.777033 0
M  V30 7927 H 725.333 -3.237 -0.00500301 0
M  V30 7928 H 724.24 -2.95432 2.29501 0
M  V30 7929 H 725.573 -3.89902 3.00396 0
M  V30 7930 N 727.225 -1.14528 -1.08264 0
M  V30 7931 C 728.455 -0.936604 -1.8415 0
M  V30 7932 C 728.863 0.518298 -1.81962 0
M  V30 7933 O 728.206 1.37096 -1.22272 0
M  V30 7934 C 728.268 -1.36182 -3.32708 0
M  V30 7935 C 727.932 -2.83257 -3.58629 0
M  V30 7936 C 728.929 -3.81366 -3.5335 0
M  V30 7937 C 726.614 -3.20704 -3.86593 0
M  V30 7938 C 728.608 -5.14929 -3.75668 0
M  V30 7939 C 726.295 -4.54443 -4.08564 0
M  V30 7940 C 727.293 -5.51365 -4.03095 0
M  V30 7941 O 726.981 -6.8269 -4.24488 0
M  V30 7942 H 726.713 -0.333254 -0.588148 0
M  V30 7943 H 729.267 -1.5247 -1.3763 0
M  V30 7944 H 727.497 -0.717063 -3.79994 0
M  V30 7945 H 729.186 -1.12372 -3.90035 0
M  V30 7946 H 729.952 -3.53781 -3.31759 0
M  V30 7947 H 725.831 -2.45857 -3.89969 0
M  V30 7948 H 729.375 -5.90568 -3.71315 0
M  V30 7949 H 725.272 -4.81747 -4.29639 0
M  V30 7950 H 726.04 -6.8897 -4.41886 0
M  V30 7951 N 728.703 1.26451 -0.940633 0
M  V30 7952 C 730.119 1.4608 -0.642859 0
M  V30 7953 C 730.319 1.84765 0.803998 0
M  V30 7954 O 729.375 1.96902 1.58069 0
M  V30 7955 C 730.688 2.54359 -1.60381 0
M  V30 7956 C 732.236 2.6821 -1.61345 0
M  V30 7957 C 732.711 3.79659 -2.56169 0
M  V30 7958 N 734.202 3.87051 -2.54452 0
M  V30 7959 C 734.937 4.72739 -3.24507 0
M  V30 7960 N 734.433 5.6282 -4.03987 0
M  V30 7961 N 736.226 4.66581 -3.13462 0
M  V30 7962 H 728.377 0.996289 -1.87584 0
M  V30 7963 H 730.64 0.498921 -0.80609 0
M  V30 7964 H 730.346 2.32758 -2.6366 0
M  V30 7965 H 730.22 3.52005 -1.35545 0
M  V30 7966 H 732.607 2.89184 -0.587913 0
M  V30 7967 H 732.688 1.7101 -1.90235 0
M  V30 7968 H 732.332 3.59438 -3.58841 0
M  V30 7969 H 732.262 4.76315 -2.2457 0
M  V30 7970 H 734.753 3.22649 -1.96739 0
M  V30 7971 H 735.066 6.25095 -4.54396 0
M  V30 7972 H 733.411 5.62574 -4.08088 0
M  V30 7973 H 736.602 3.9521 -2.50852 0
M  V30 7974 H 736.775 5.33141 -3.68327 0
M  V30 7975 N 730.181 0.707592 1.40822 0
M  V30 7976 C 731.128 0.0499029 2.30746 0
M  V30 7977 C 732.098 -0.758718 1.47759 0
M  V30 7978 O 733.283 -0.724299 1.76518 0
M  V30 7979 C 730.423 -0.871756 3.33908 0
M  V30 7980 C 729.536 -0.0534655 4.31967 0
M  V30 7981 C 728.671 -0.973869 5.22197 0
M  V30 7982 C 727.71 -0.149194 6.11918 0
M  V30 7983 N 726.847 -1.02404 6.94592 0
M  V30 7984 H 731.687 0.822461 2.86426 0
M  V30 7985 H 729.224 0.417285 1.41057 0
M  V30 7986 H 731.182 -1.42028 3.9228 0
M  V30 7987 H 729.812 -1.61058 2.7975 0
M  V30 7988 H 728.864 0.612142 3.75442 0
M  V30 7989 H 730.176 0.585354 4.95353 0
M  V30 7990 H 729.33 -1.59121 5.85462 0
M  V30 7991 H 728.069 -1.64652 4.59065 0
M  V30 7992 H 727.074 0.481137 5.47691 0
M  V30 7993 H 728.299 0.519841 6.77107 0
M  V30 7994 H 726.245 -1.6825 6.34057 0
M  V30 7995 H 726.162 -0.441076 7.54712 0
M  V30 7996 H 727.43 -1.62782 7.62314 0
M  V30 7997 N 731.66 -1.50943 0.453197 0
M  V30 7998 C 733.076 -1.59245 0.106342 0
M  V30 7999 C 733.276 -1.46287 -1.38572 0
M  V30 8000 O 732.332 -1.31219 -2.15726 0
M  V30 8001 C 733.645 -2.93797 0.640595 0
M  V30 8002 C 735.193 -3.07148 0.602435 0
M  V30 8003 C 735.668 -4.44247 1.11393 0
M  V30 8004 N 737.159 -4.50611 1.07258 0
M  V30 8005 C 737.894 -5.55049 1.43905 0
M  V30 8006 N 737.39 -6.66828 1.87914 0
M  V30 8007 N 739.183 -5.45494 1.35621 0
M  V30 8008 H 731.334 -1.5761 1.42382 0
M  V30 8009 H 733.597 -0.74384 0.587713 0
M  V30 8010 H 733.303 -3.087 1.68515 0
M  V30 8011 H 733.177 -3.77127 0.0742272 0
M  V30 8012 H 735.564 -2.91903 -0.433171 0
M  V30 8013 H 735.645 -2.25619 1.20539 0
M  V30 8014 H 735.289 -4.60239 2.14808 0
M  V30 8015 H 735.219 -5.2434 0.487353 0
M  V30 8016 H 737.71 -3.70391 0.749585 0
M  V30 8017 H 738.023 -7.42558 2.14072 0
M  V30 8018 H 736.368 -6.67995 1.91853 0
M  V30 8019 H 739.559 -4.57053 1.01093 0
M  V30 8020 H 739.732 -6.2677 1.64508 0
M  V30 8021 N 733.138 -0.185124 -1.56509 0
M  V30 8022 C 734.068 0.735098 -2.21627 0
M  V30 8023 C 735.049 1.2288 -1.1762 0
M  V30 8024 O 736.234 1.27945 -1.46095 0
M  V30 8025 C 733.364 1.95889 -2.86783 0
M  V30 8026 C 732.318 1.6005 -3.96948 0
M  V30 8027 C 731.644 2.90009 -4.4922 0
M  V30 8028 C 732.944 0.818008 -5.15855 0
M  V30 8029 H 734.638 0.192274 -2.98782 0
M  V30 8030 H 732.184 0.0910393 -1.43712 0
M  V30 8031 H 734.137 2.60779 -3.31017 0
M  V30 8032 H 732.861 2.52608 -2.07018 0
M  V30 8033 H 731.52 0.975237 -3.5339 0
M  V30 8034 H 731.168 3.44797 -3.6623 0
M  V30 8035 H 730.868 2.66778 -5.23549 0
M  V30 8036 H 732.392 3.55904 -4.9615 0
M  V30 8037 H 733.806 1.36979 -5.56695 0
M  V30 8038 H 732.203 0.684207 -5.96187 0
M  V30 8039 H 733.273 -0.182939 -4.84555 0
M  V30 8040 N 734.616 1.57351 0.0885366 0
M  V30 8041 C 735.864 1.86051 0.789262 0
M  V30 8042 C 736.185 0.774763 1.78948 0
M  V30 8043 O 735.455 -0.198324 1.94894 0
M  V30 8044 H 734.035 0.686508 0.294475 0
M  V30 8045 H 736.697 1.94779 0.0686055 0
M  V30 8046 H 735.793 2.83007 1.31581 0
M  V30 8047 N 736.094 -0.359525 1.53444 0
M  V30 8048 C 737.041 -1.44073 1.8031 0
M  V30 8049 C 738.011 -1.52946 0.647811 0
M  V30 8050 O 739.196 -1.68739 0.890614 0
M  V30 8051 C 736.336 -2.80941 2.00416 0
M  V30 8052 C 735.449 -2.80986 3.28132 0
M  V30 8053 C 734.584 -4.09468 3.38393 0
M  V30 8054 C 733.623 -4.03679 4.60119 0
M  V30 8055 N 732.76 -5.23821 4.675 0
M  V30 8056 H 737.6 -1.20464 2.72566 0
M  V30 8057 H 735.137 -0.583859 1.35017 0
M  V30 8058 H 737.095 -3.60459 2.1006 0
M  V30 8059 H 735.725 -3.02936 1.11489 0
M  V30 8060 H 734.777 -1.93666 3.27411 0
M  V30 8061 H 736.089 -2.72583 4.17732 0
M  V30 8062 H 735.243 -4.97404 3.47382 0
M  V30 8063 H 733.982 -4.20632 2.4682 0
M  V30 8064 H 732.987 -3.14129 4.51224 0
M  V30 8065 H 734.212 -3.94112 5.5304 0
M  V30 8066 H 732.158 -5.35559 3.7883 0
M  V30 8067 H 732.075 -5.17611 5.51013 0
M  V30 8068 H 733.343 -6.13572 4.8078 0
M  V30 8069 N 737.572 -1.44907 -0.619662 0
M  V30 8070 C 738.8 -1.51795 -1.40591 0
M  V30 8071 C 739.215 -0.146553 -1.8823 0
M  V30 8072 O 738.572 0.849698 -1.61513 0
M  V30 8073 C 738.623 -2.49229 -2.61853 0
M  V30 8074 O 738.344 -3.81039 -2.16197 0
M  V30 8075 C 739.845 -2.65696 -3.54853 0
M  V30 8076 H 737.065 -0.514463 -0.430777 0
M  V30 8077 H 739.609 -1.8998 -0.756813 0
M  V30 8078 H 737.764 -2.14149 -3.2283 0
M  V30 8079 H 738.178 -4.33747 -2.94896 0
M  V30 8080 H 739.652 -3.37874 -4.36515 0
M  V30 8081 H 740.129 -1.71316 -4.0441 0
M  V30 8082 H 740.735 -3.01724 -2.99737 0
M  V30 8083 N 739.05 0.861098 -1.31996 0
M  V30 8084 C 740.299 1.60965 -1.21545 0
M  V30 8085 C 740.612 1.94325 0.222972 0
M  V30 8086 O 741.818 2.67757 0.449272 0
M  V30 8087 C 740.274 2.90223 -2.12834 0
M  V30 8088 C 739.882 2.64313 -3.61722 0
M  V30 8089 C 741.626 3.68229 -2.11205 0
M  V30 8090 C 739.533 3.89532 -4.44993 0
M  V30 8091 H 738.463 0.603988 -0.451348 0
M  V30 8092 H 741.114 0.951358 -1.56912 0
M  V30 8093 H 739.496 3.57475 -1.70375 0
M  V30 8094 H 740.67 2.05413 -4.12483 0
M  V30 8095 H 738.985 1.99647 -3.65418 0
M  V30 8096 H 741.582 4.61138 -2.70658 0
M  V30 8097 H 741.925 4.01466 -1.1014 0
M  V30 8098 H 742.458 3.07873 -2.51911 0
M  V30 8099 H 739.197 3.61441 -5.46846 0
M  V30 8100 H 738.717 4.47851 -3.98985 0
M  V30 8101 H 740.396 4.57334 -4.57663 0
M  V30 8102 N 740.528 1.15101 1.07655 0
M  V30 8103 C 741.478 0.813448 2.12995 0
M  V30 8104 C 742.462 -0.200899 1.59641 0
M  V30 8105 O 743.654 -0.00209918 1.77 0
M  V30 8106 C 740.783 0.301078 3.41977 0
M  V30 8107 C 739.869 1.3454 4.02194 0
M  V30 8108 N 740.26 2.55181 4.36711 0
M  V30 8109 C 738.558 1.19742 4.29625 0
M  V30 8110 C 739.259 3.22094 4.84387 0
M  V30 8111 N 738.235 2.49486 4.82968 0
M  V30 8112 H 742.037 1.73105 2.37511 0
M  V30 8113 H 739.551 1.03601 1.25063 0
M  V30 8114 H 741.548 0.040914 4.1688 0
M  V30 8115 H 740.208 -0.610629 3.18907 0
M  V30 8116 H 741.219 2.92349 4.27496 0
M  V30 8117 H 737.896 0.345353 4.16069 0
M  V30 8118 H 739.286 4.24996 5.20411 0
M  V30 8119 N 742.006 -1.2595 0.947325 0
M  V30 8120 C 742.939 -2.24559 0.406009 0
M  V30 8121 C 743.917 -1.54441 -0.508598 0
M  V30 8122 O 745.101 -1.83181 -0.444644 0
M  V30 8123 C 742.228 -3.36136 -0.415987 0
M  V30 8124 C 741.274 -4.24245 0.437969 0
M  V30 8125 S 742.107 -5.01948 1.86572 0
M  V30 8126 C 743.263 -6.16997 1.05194 0
M  V30 8127 H 743.496 -2.70128 1.24171 0
M  V30 8128 H 741.029 -1.34912 0.750874 0
M  V30 8129 H 742.987 -4.00861 -0.88433 0
M  V30 8130 H 741.648 -2.89167 -1.22643 0
M  V30 8131 H 740.841 -5.03634 -0.192127 0
M  V30 8132 H 740.443 -3.64416 0.841235 0
M  V30 8133 H 742.735 -6.76848 0.297126 0
M  V30 8134 H 743.678 -6.84324 1.8195 0
M  V30 8135 H 744.086 -5.61458 0.585294 0
M  V30 8136 N 743.484 -0.715051 -1.40445 0
M  V30 8137 C 744.733 -0.251322 -2.00128 0
M  V30 8138 C 745.046 1.16194 -1.57347 0
M  V30 8139 O 746.252 1.72416 -2.09726 0
M  V30 8140 C 744.708 -0.398407 -3.57688 0
M  V30 8141 C 744.316 -1.81828 -4.09442 0
M  V30 8142 C 746.06 0.00455625 -4.245 0
M  V30 8143 C 743.967 -1.91598 -5.59503 0
M  V30 8144 H 742.897 -0.0902081 -0.748584 0
M  V30 8145 H 745.548 -0.886062 -1.6069 0
M  V30 8146 H 743.93 0.304908 -3.94824 0
M  V30 8147 H 745.104 -2.55193 -3.83684 0
M  V30 8148 H 743.419 -2.17266 -3.55225 0
M  V30 8149 H 746.016 -0.0477303 -5.34679 0
M  V30 8150 H 746.359 1.04636 -4.02935 0
M  V30 8151 H 746.892 -0.649184 -3.92467 0
M  V30 8152 H 743.631 -2.93898 -5.85922 0
M  V30 8153 H 743.151 -1.22644 -5.87127 0
M  V30 8154 H 744.83 -1.68785 -6.24596 0
M  V30 8155 N 744.962 1.50701 -0.461195 0
M  V30 8156 C 746.21 2.01867 0.0970051 0
M  V30 8157 C 746.531 1.34591 1.41104 0
M  V30 8158 O 745.801 0.488041 1.89723 0
M  V30 8159 H 744.381 0.74599 0.0388392 0
M  V30 8160 H 747.043 1.85129 -0.609357 0
M  V30 8161 H 746.139 3.11051 0.255688 0
M  V30 8162 N 746.441 0.193421 1.56409 0
M  V30 8163 C 747.371 -0.723334 2.22014 0
M  V30 8164 C 748.352 -1.22254 1.1827 0
M  V30 8165 O 749.537 -1.27168 1.46771 0
M  V30 8166 C 746.667 -1.94366 2.87818 0
M  V30 8167 C 745.621 -1.57943 3.97791 0
M  V30 8168 C 744.947 -2.87623 4.50752 0
M  V30 8169 C 746.247 -0.790639 5.16281 0
M  V30 8170 H 747.941 -0.176426 2.9888 0
M  V30 8171 H 745.487 -0.0834166 1.43758 0
M  V30 8172 H 747.44 -2.5902 3.32396 0
M  V30 8173 H 746.164 -2.51507 2.08355 0
M  V30 8174 H 744.823 -0.956482 3.53903 0
M  V30 8175 H 744.471 -3.4285 3.68053 0
M  V30 8176 H 744.171 -2.63998 5.24956 0
M  V30 8177 H 745.695 -3.53268 4.9803 0
M  V30 8178 H 747.109 -1.34024 5.57414 0
M  V30 8179 H 745.506 -0.65258 5.96541 0
M  V30 8180 H 746.576 0.208633 4.84451 0
M  V30 8181 N 747.919 -1.57396 -0.0801906 0
M  V30 8182 C 748.849 -2.06145 -1.09665 0
M  V30 8183 C 749.83 -0.953273 -1.40878 0
M  V30 8184 O 751.015 -1.22548 -1.50651 0
M  V30 8185 C 748.145 -2.49836 -2.41245 0
M  V30 8186 C 747.099 -3.64454 -2.24405 0
M  V30 8187 C 746.425 -3.94172 -3.61293 0
M  V30 8188 C 747.725 -4.94807 -1.67223 0
M  V30 8189 H 749.419 -2.91316 -0.691028 0
M  V30 8190 H 746.965 -1.40145 -0.330957 0
M  V30 8191 H 748.918 -2.82552 -3.12638 0
M  V30 8192 H 747.642 -1.61683 -2.83771 0
M  V30 8193 H 746.301 -3.32008 -1.55454 0
M  V30 8194 H 745.949 -3.03163 -4.01374 0
M  V30 8195 H 745.649 -4.71345 -3.50867 0
M  V30 8196 H 747.173 -4.29376 -4.3413 0
M  V30 8197 H 748.587 -5.25807 -2.28472 0
M  V30 8198 H 746.984 -5.76245 -1.67515 0
M  V30 8199 H 748.054 -4.80751 -0.632944 0
M  V30 8200 N 749.397 0.351382 -1.53633 0
M  V30 8201 C 750.344 1.43115 -1.81071 0
M  V30 8202 C 751.314 1.52601 -0.655913 0
M  V30 8203 O 752.499 1.68264 -0.89955 0
M  V30 8204 C 749.639 2.79874 -2.01903 0
M  V30 8205 C 748.752 2.79242 -3.29618 0
M  V30 8206 C 747.887 4.07667 -3.40559 0
M  V30 8207 C 746.926 4.01233 -4.62254 0
M  V30 8208 N 746.063 5.21334 -4.70271 0
M  V30 8209 H 750.903 1.19017 -2.73201 0
M  V30 8210 H 748.44 0.576691 -1.35324 0
M  V30 8211 H 750.398 3.5934 -2.11969 0
M  V30 8212 H 749.028 3.0234 -1.13094 0
M  V30 8213 H 748.08 1.91927 -3.28433 0
M  V30 8214 H 749.392 2.70363 -4.19172 0
M  V30 8215 H 748.546 4.95555 -3.50015 0
M  V30 8216 H 747.285 4.19317 -2.49047 0
M  V30 8217 H 746.29 3.11732 -4.52884 0
M  V30 8218 H 747.515 3.91173 -5.55122 0
M  V30 8219 H 745.461 5.33543 -3.81665 0
M  V30 8220 H 745.378 5.14681 -5.5375 0
M  V30 8221 H 746.646 6.11014 -4.84027 0
M  V30 8222 N 750.875 1.45233 0.611969 0
M  V30 8223 C 751.822 1.5357 1.72293 0
M  V30 8224 C 752.792 0.381912 1.6165 0
M  V30 8225 O 753.977 0.594765 1.81293 0
M  V30 8226 C 751.117 1.50419 3.10593 0
M  V30 8227 C 750.23 2.76316 3.32074 0
M  V30 8228 C 749.365 2.64866 4.60456 0
M  V30 8229 C 748.404 3.85838 4.7518 0
M  V30 8230 N 747.541 3.72949 5.94856 0
M  V30 8231 H 752.381 2.4848 1.64504 0
M  V30 8232 H 749.918 1.23302 0.802191 0
M  V30 8233 H 751.876 1.4658 3.90602 0
M  V30 8234 H 750.506 0.590621 3.17351 0
M  V30 8235 H 749.558 2.90261 2.45872 0
M  V30 8236 H 750.87 3.66055 3.38829 0
M  V30 8237 H 750.024 2.58969 5.48653 0
M  V30 8238 H 748.763 1.72719 4.56092 0
M  V30 8239 H 747.768 3.92099 3.85407 0
M  V30 8240 H 748.993 4.79045 4.81344 0
M  V30 8241 H 746.939 2.83567 5.91545 0
M  V30 8242 H 746.856 4.56319 6.02751 0
M  V30 8243 H 748.124 3.70976 6.85563 0
M  V30 8244 N 752.353 -0.854086 1.3245 0
M  V30 8245 C 753.601 -1.60513 1.228 0
M  V30 8246 C 753.922 -1.93865 -0.210073 0
M  V30 8247 O 753.192 -1.59673 -1.13496 0
M  V30 8248 H 751.772 -0.595099 0.451516 0
M  V30 8249 H 754.434 -1.0216 1.6598 0
M  V30 8250 H 753.53 -2.54182 1.81102 0
M  V30 8251 N 753.831 -1.1567 -1.07043 0
M  V30 8252 C 755.061 -0.956083 -1.83146 0
M  V30 8253 C 755.469 0.498969 -1.82502 0
M  V30 8254 O 754.812 1.35791 -1.23719 0
M  V30 8255 C 754.874 -1.39704 -3.31245 0
M  V30 8256 C 754.538 -2.87045 -3.55604 0
M  V30 8257 C 755.535 -3.85092 -3.49285 0
M  V30 8258 C 753.22 -3.24787 -3.8317 0
M  V30 8259 C 755.214 -5.18885 -3.70185 0
M  V30 8260 C 752.901 -4.58751 -4.03721 0
M  V30 8261 C 753.899 -5.55609 -3.97224 0
M  V30 8262 O 753.587 -6.87154 -4.17223 0
M  V30 8263 H 753.319 -0.339473 -0.58458 0
M  V30 8264 H 755.873 -1.53922 -1.36005 0
M  V30 8265 H 754.103 -0.757326 -3.79212 0
M  V30 8266 H 755.792 -1.16503 -3.88821 0
M  V30 8267 H 756.558 -3.5728 -3.27988 0
M  V30 8268 H 752.437 -2.49979 -3.87339 0
M  V30 8269 H 755.981 -5.94473 -3.6503 0
M  V30 8270 H 751.878 -4.86277 -4.24505 0
M  V30 8271 H 752.646 -6.93618 -4.34553 0
M  V30 8272 N 755.309 1.25446 -0.953992 0
M  V30 8273 C 756.257 2.27909 -0.46478 0
M  V30 8274 C 757.251 1.62904 0.464607 0
M  V30 8275 O 758.457 1.76733 0.341407 0
M  V30 8276 H 754.832 0.74036 -0.131798 0
M  V30 8277 H 756.803 2.66559 -1.34122 0
M  V30 8278 C 755.552 3.46853 0.242589 0
M  V30 8279 H 754.875 3.97105 -0.463418 0
M  V30 8280 H 756.315 4.20432 0.548919 0
M  V30 8281 C 754.774 3.03386 1.46487 0
M  V30 8282 O 755.304 3.09342 2.56262 0
M  V30 8283 N 753.51 2.58584 1.32599 0
M  V30 8284 H 753.057 2.53938 0.432834 0
M  V30 8285 H 753.015 2.29866 2.14497 0
M  V30 8286 N 756.787 0.722489 1.40064 0
M  V30 8287 C 758.017 0.274439 2.04769 0
M  V30 8288 C 758.425 -1.09125 1.54559 0
M  V30 8289 O 757.768 -1.69834 0.700149 0
M  V30 8290 C 757.83 0.184091 3.59028 0
M  V30 8291 C 757.494 1.48619 4.32159 0
M  V30 8292 C 758.491 2.42947 4.59644 0
M  V30 8293 C 756.176 1.74703 4.7094 0
M  V30 8294 C 758.17 3.616 5.24904 0
M  V30 8295 C 755.857 2.93636 5.3593 0
M  V30 8296 C 756.855 3.86907 5.62843 0
M  V30 8297 O 756.543 5.03753 6.26489 0
M  V30 8298 H 756.275 0.119847 0.665292 0
M  V30 8299 H 758.829 0.983352 1.80331 0
M  V30 8300 H 757.059 -0.580821 3.82313 0
M  V30 8301 H 758.748 -0.230306 4.05246 0
M  V30 8302 H 759.514 2.24062 4.30141 0
M  V30 8303 H 755.393 1.02955 4.49356 0
M  V30 8304 H 758.937 4.34418 5.45827 0
M  V30 8305 H 754.834 3.12428 5.64853 0
M  V30 8306 H 755.602 5.03922 6.44984 0
M  V30 8307 N 758.265 -1.50454 0.469181 0
M  V30 8308 C 759.511 -2.02615 -0.0865971 0
M  V30 8309 C 759.844 -1.35062 -1.39542 0
M  V30 8310 O 759.119 -0.475701 -1.88593 0
M  V30 8311 C 759.402 -3.59068 -0.272385 0
M  V30 8312 C 759.255 -4.37196 1.05733 0
M  V30 8313 C 760.574 -4.2793 -1.0278 0
M  V30 8314 H 757.693 -0.736389 -0.0299977 0
M  V30 8315 H 760.335 -1.79792 0.614399 0
M  V30 8316 H 758.485 -3.78646 -0.869471 0
M  V30 8317 H 760.157 -4.29195 1.69084 0
M  V30 8318 H 758.4 -4.01013 1.65442 0
M  V30 8319 H 759.071 -5.44924 0.880997 0
M  V30 8320 H 761.547 -4.12816 -0.521718 0
M  V30 8321 H 760.423 -5.37214 -1.12659 0
M  V30 8322 H 760.684 -3.90968 -2.0639 0
M  V30 8323 N 759.743 -0.201713 -1.56304 0
M  V30 8324 C 760.69 0.716499 -2.19397 0
M  V30 8325 C 761.66 1.20494 -1.14326 0
M  V30 8326 O 762.845 1.26763 -1.42604 0
M  V30 8327 C 759.985 1.92762 -2.86246 0
M  V30 8328 C 759.098 1.47993 -4.0586 0
M  V30 8329 C 758.233 2.64706 -4.60547 0
M  V30 8330 C 757.272 2.16576 -5.72504 0
M  V30 8331 N 756.409 3.26491 -6.21569 0
M  V30 8332 H 761.249 0.171724 -2.97505 0
M  V30 8333 H 758.786 0.073016 -1.46919 0
M  V30 8334 H 760.744 2.6384 -3.23178 0
M  V30 8335 H 759.374 2.44559 -2.10691 0
M  V30 8336 H 758.426 0.66477 -3.74546 0
M  V30 8337 H 759.738 1.08686 -4.86815 0
M  V30 8338 H 758.892 3.43898 -4.99819 0
M  V30 8339 H 757.631 3.0729 -3.78713 0
M  V30 8340 H 756.636 1.3584 -5.32755 0
M  V30 8341 H 757.861 1.75015 -6.56161 0
M  V30 8342 H 755.807 3.68594 -5.42655 0
M  V30 8343 H 755.724 2.91374 -6.97594 0
M  V30 8344 H 756.992 4.05877 -6.65495 0
M  V30 8345 N 761.222 1.57436 0.0718424 0
M  V30 8346 C 762.462 1.89082 0.776351 0
M  V30 8347 C 762.826 0.795494 1.74745 0
M  V30 8348 O 764.027 0.995025 2.49705 0
M  V30 8349 C 762.298 3.25958 1.46582 0
M  V30 8350 S 763.857 3.79352 2.2054 0
M  V30 8351 H 760.675 0.662472 0.25817 0
M  V30 8352 H 763.277 1.95473 0.0324536 0
M  V30 8353 H 761.981 4.03577 0.745237 0
M  V30 8354 H 761.512 3.22764 2.24915 0
M  V30 8355 H 763.527 3.54634 3.47058 0
M  V30 8356 N 762.7 -0.34323 1.53817 0
M  V30 8357 C 763.63 -1.42709 1.84814 0
M  V30 8358 C 764.611 -1.5488 0.703297 0
M  V30 8359 O 765.796 -1.69082 0.955237 0
M  V30 8360 C 762.926 -2.79756 2.05801 0
M  V30 8361 C 761.88 -2.82392 3.21619 0
M  V30 8362 C 761.206 -4.22326 3.2794 0
M  V30 8363 C 762.506 -2.479 4.59721 0
M  V30 8364 H 764.2 -1.17018 2.75585 0
M  V30 8365 H 761.746 -0.561485 1.32602 0
M  V30 8366 H 763.699 -3.55627 2.26069 0
M  V30 8367 H 762.423 -3.06883 1.11761 0
M  V30 8368 H 761.082 -2.08974 3.01207 0
M  V30 8369 H 760.73 -4.46564 2.31494 0
M  V30 8370 H 760.43 -4.25001 4.05768 0
M  V30 8371 H 761.954 -5.00039 3.50419 0
M  V30 8372 H 763.368 -3.13484 4.80001 0
M  V30 8373 H 761.765 -2.61857 5.39954 0
M  V30 8374 H 762.835 -1.43087 4.63308 0
M  V30 8375 N 764.178 -1.45556 -0.604258 0
M  V30 8376 C 765.125 -1.54482 -1.71476 0
M  V30 8377 C 766.095 -0.390479 -1.61445 0
M  V30 8378 O 767.28 -0.604371 -1.80975 0
M  V30 8379 C 764.42 -1.52064 -3.09791 0
M  V30 8380 C 763.533 -2.78073 -3.30604 0
M  V30 8381 C 762.668 -2.67304 -4.59044 0
M  V30 8382 C 761.707 -3.88352 -4.73127 0
M  V30 8383 N 760.844 -3.76098 -5.9287 0
M  V30 8384 H 765.684 -2.49349 -1.63184 0
M  V30 8385 H 763.221 -1.23725 -0.795641 0
M  V30 8386 H 765.179 -1.48649 -3.89819 0
M  V30 8387 H 763.809 -0.607442 -3.17033 0
M  V30 8388 H 762.861 -2.91561 -2.44329 0
M  V30 8389 H 764.173 -3.67847 -3.36883 0
M  V30 8390 H 763.327 -2.61875 -5.47272 0
M  V30 8391 H 762.066 -1.75135 -4.55169 0
M  V30 8392 H 761.071 -3.94137 -3.83322 0
M  V30 8393 H 762.296 -4.81591 -4.78797 0
M  V30 8394 H 760.242 -2.867 -5.90033 0
M  V30 8395 H 760.159 -4.59509 -6.00323 0
M  V30 8396 H 761.427 -3.74607 -6.83586 0
M  V30 8397 N 765.656 0.84705 -1.32902 0
M  V30 8398 C 766.604 1.97765 -1.22441 0
M  V30 8399 C 767.598 1.68919 -0.127546 0
M  V30 8400 O 768.804 1.77633 -0.290973 0
M  V30 8401 H 765.179 0.649072 -0.379748 0
M  V30 8402 H 767.15 2.03713 -2.18044 0
M  V30 8403 C 765.899 3.33834 -0.972125 0
M  V30 8404 H 765.222 3.56564 -1.80837 0
M  V30 8405 H 766.662 4.13467 -0.939209 0
M  V30 8406 C 765.121 3.35328 0.325059 0
M  V30 8407 O 765.651 3.78887 1.33445 0
M  V30 8408 N 763.857 2.88488 0.349718 0
M  V30 8409 H 763.404 2.53234 -0.472236 0
M  V30 8410 H 763.362 2.8987 1.21748 0
M  V30 8411 N 767.134 1.16236 1.06428 0
M  V30 8412 C 768.067 0.81119 2.13295 0
M  V30 8413 C 769.045 -0.216555 1.61151 0
M  V30 8414 O 770.229 -0.100949 1.88229 0
M  V30 8415 C 767.356 0.207901 3.38061 0
M  V30 8416 C 766.402 1.20904 4.09004 0
M  V30 8417 S 767.235 2.75513 4.59187 0
M  V30 8418 C 768.391 2.1663 5.87216 0
M  V30 8419 H 768.624 1.71632 2.42755 0
M  V30 8420 H 766.157 0.985693 1.18842 0
M  V30 8421 H 768.115 -0.133715 4.10282 0
M  V30 8422 H 766.776 -0.67497 3.06762 0
M  V30 8423 H 765.969 0.735326 4.98607 0
M  V30 8424 H 765.571 1.49567 3.42791 0
M  V30 8425 H 767.863 1.53413 6.59902 0
M  V30 8426 H 768.806 3.04437 6.39315 0
M  V30 8427 H 769.214 1.60565 5.41183 0
M  V30 8428 N 768.612 -1.24939 0.960631 0
M  V30 8429 C 770.023 -1.74701 0.658529 0
M  V30 8430 C 770.374 -1.77967 -0.825959 0
M  V30 8431 O 769.499 -1.40444 -1.64634 0
M  V30 8432 C 770.094 -3.17263 1.18867 0
M  V30 8433 C 768.653 -3.64561 0.936614 0
M  V30 8434 C 767.8 -2.43423 1.32817 0
M  V30 8435 H 770.751 -1.10741 1.13676 0
M  V30 8436 H 770.772 -3.76481 0.551589 0
M  V30 8437 H 770.284 -3.14854 2.26912 0
M  V30 8438 H 768.385 -3.72378 -0.128608 0
M  V30 8439 H 768.498 -4.52392 1.57729 0
M  V30 8440 H 766.862 -2.43513 0.746548 0
M  V30 8441 H 767.645 -2.437 2.41796 0
M  V30 8442 N 770.09 -0.729906 -1.39679 0
M  V30 8443 C 771.367 -0.202149 -1.94553 0
M  V30 8444 C 771.747 1.29507 -1.66707 0
M  V30 8445 O 771.095 2.05819 -0.992517 0
M  V30 8446 C 771.305 -0.530279 -3.44948 0
M  V30 8447 C 772.653 -0.476808 -4.21914 0
M  V30 8448 O 773.677 -0.467171 -3.53123 0
M  V30 8449 O 772.536 -0.466869 -5.44502 0
M  V30 8450 H 769.63 -0.0351644 -0.826252 0
M  V30 8451 H 772.176 -0.808417 -1.49207 0
M  V30 8452 H 770.948 -1.56526 -3.5863 0
M  V30 8453 H 770.571 0.10522 -3.97461 0
M  V30 8454 N 771.568 1.50203 -0.477153 0
M  V30 8455 C 772.498 2.31517 0.303646 0
M  V30 8456 C 773.479 1.38696 0.984753 0
M  V30 8457 O 774.664 1.67615 0.980758 0
M  V30 8458 C 771.794 3.18598 1.38249 0
M  V30 8459 C 770.748 4.2002 0.822645 0
M  V30 8460 C 770.074 4.95878 2.00024 0
M  V30 8461 C 771.374 5.22023 -0.170185 0
M  V30 8462 H 773.068 2.97042 -0.375027 0
M  V30 8463 H 770.614 1.42848 -0.181802 0
M  V30 8464 H 772.567 3.74282 1.93625 0
M  V30 8465 H 771.291 2.5097 2.09002 0
M  V30 8466 H 769.95 3.65445 0.290813 0
M  V30 8467 H 769.598 4.24717 2.69489 0
M  V30 8468 H 769.298 5.64487 1.63183 0
M  V30 8469 H 770.822 5.54399 2.55878 0
M  V30 8470 H 772.236 5.72543 0.294606 0
M  V30 8471 H 770.633 5.98386 -0.453181 0
M  V30 8472 H 771.703 4.72396 -1.09408 0
M  V30 8473 N 773.046 0.209999 1.56195 0
M  V30 8474 C 774.009 -0.691232 2.18528 0
M  V30 8475 C 775.009 -1.13013 1.14388 0
M  V30 8476 O 776.199 -1.04081 1.39688 0
M  V30 8477 C 773.331 -1.94551 2.79934 0
M  V30 8478 H 774.524 -0.147953 2.99535 0
M  V30 8479 H 772.077 -0.0396243 1.5625 0
M  V30 8480 H 772.812 -2.53094 2.02766 0
M  V30 8481 H 772.597 -1.63938 3.56184 0
M  V30 8482 H 774.087 -2.58785 3.2775 0
M  V30 8483 N 774.524 -1.57472 -0.0634922 0
M  V30 8484 C 775.773 -1.86837 -0.759928 0
M  V30 8485 C 776.086 -0.803823 -1.7832 0
M  V30 8486 O 777.292 -0.985578 -2.52979 0
M  V30 8487 C 775.748 -3.31448 -1.4025 0
M  V30 8488 C 775.356 -4.46052 -0.417368 0
M  V30 8489 C 777.1 -3.70003 -2.08082 0
M  V30 8490 C 775.007 -5.81707 -1.06633 0
M  V30 8491 H 773.937 -0.697009 -0.287567 0
M  V30 8492 H 776.588 -1.83495 -0.0133914 0
M  V30 8493 H 774.97 -3.29427 -2.19759 0
M  V30 8494 H 776.144 -4.5948 0.348503 0
M  V30 8495 H 774.459 -4.16104 0.156955 0
M  V30 8496 H 777.056 -4.68653 -2.57426 0
M  V30 8497 H 777.399 -3.00226 -2.88393 0
M  V30 8498 H 777.932 -3.7405 -1.35394 0
M  V30 8499 H 774.671 -6.54798 -0.303374 0
M  V30 8500 H 774.191 -5.72064 -1.80286 0
M  V30 8501 H 775.87 -6.27317 -1.58376 0
M  V30 8502 N 776.003 0.335068 -1.53997 0
M  V30 8503 C 776.953 1.4127 -1.7896 0
M  V30 8504 C 777.937 1.474 -0.64513 0
M  V30 8505 O 779.129 1.52127 -0.904785 0
M  V30 8506 C 776.258 2.78292 -2.01018 0
M  V30 8507 C 775.344 2.7652 -3.21555 0
M  V30 8508 N 775.735 2.44374 -4.42849 0
M  V30 8509 C 774.033 3.0766 -3.22895 0
M  V30 8510 C 774.734 2.51049 -5.24737 0
M  V30 8511 N 773.71 2.8702 -4.6165 0
M  V30 8512 H 777.512 1.15327 -2.70327 0
M  V30 8513 H 775.026 0.543483 -1.53036 0
M  V30 8514 H 777.023 3.55949 -2.17039 0
M  V30 8515 H 775.683 3.05175 -1.10898 0
M  V30 8516 H 776.694 2.17422 -4.70051 0
M  V30 8517 H 773.371 3.3966 -2.42771 0
M  V30 8518 H 774.761 2.29283 -6.31569 0
M  V30 8519 N 777.481 1.45874 0.596531 0
M  V30 8520 C 778.73 1.49737 1.35135 0
M  V30 8521 C 779.043 0.147755 1.95041 0
M  V30 8522 O 780.249 0.0640984 2.71424 0
M  V30 8523 C 778.705 2.6378 2.44843 0
M  V30 8524 C 778.313 4.05102 1.91301 0
M  V30 8525 C 780.057 2.769 3.21755 0
M  V30 8526 C 777.964 5.10508 2.98557 0
M  V30 8527 H 776.894 0.557219 0.507959 0
M  V30 8528 H 779.545 1.72046 0.638147 0
M  V30 8529 H 777.927 2.34774 3.189 0
M  V30 8530 H 779.101 4.43836 1.2388 0
M  V30 8531 H 777.416 3.96528 1.271 0
M  V30 8532 H 780.013 3.52819 4.01775 0
M  V30 8533 H 780.356 1.83924 3.73467 0
M  V30 8534 H 780.889 3.05485 2.54802 0
M  V30 8535 H 777.628 6.0523 2.51749 0
M  V30 8536 H 777.148 4.76332 3.6451 0
M  V30 8537 H 778.827 5.35745 3.62748 0
M  V30 8538 N 778.959 -0.83999 1.33349 0
M  V30 8539 C 780.184 -1.63249 1.27924 0
M  V30 8540 C 780.609 -1.87523 -0.147193 0
M  V30 8541 O 779.967 -1.43853 -1.10345 0
M  V30 8542 C 780.015 -2.96046 2.05886 0
M  V30 8543 O 779.119 -3.87303 1.4167 0
M  V30 8544 H 778.46 -0.49715 0.440157 0
M  V30 8545 H 780.99 -1.04512 1.75893 0
M  V30 8546 H 781 -3.45752 2.16609 0
M  V30 8547 H 779.675 -2.77701 3.09605 0
M  V30 8548 H 778.252 -3.45789 1.39585 0
M  V30 8549 N 780.437 -1.16799 -1.0581 0
M  V30 8550 C 781.662 -0.977402 -1.82925 0
M  V30 8551 C 782.087 0.469514 -1.82146 0
M  V30 8552 O 781.445 1.33576 -1.22585 0
M  V30 8553 C 781.493 -1.51543 -3.27211 0
M  V30 8554 O 780.597 -0.725021 -4.05977 0
M  V30 8555 H 779.938 -0.347474 -0.565825 0
M  V30 8556 H 782.468 -1.55151 -1.33376 0
M  V30 8557 H 782.478 -1.53502 -3.78023 0
M  V30 8558 H 781.153 -2.56872 -3.27093 0
M  V30 8559 H 779.73 -0.77634 -3.64729 0
M  V30 8560 N 781.915 1.24427 -0.967243 0
M  V30 8561 C 783.331 1.44684 -0.6737 0
M  V30 8562 C 783.531 1.86429 0.764625 0
M  V30 8563 O 782.587 2.00211 1.53857 0
M  V30 8564 C 783.9 2.509 -1.6574 0
M  V30 8565 C 785.448 2.64728 -1.66998 0
M  V30 8566 C 785.923 3.7414 -2.64165 0
M  V30 8567 N 787.414 3.81567 -2.62604 0
M  V30 8568 C 788.149 4.6575 -3.34462 0
M  V30 8569 N 787.645 5.54124 -4.15835 0
M  V30 8570 N 789.438 4.59827 -3.23288 0
M  V30 8571 H 781.589 0.956276 -1.89655 0
M  V30 8572 H 783.852 0.48171 -0.816492 0
M  V30 8573 H 783.558 2.27113 -2.68538 0
M  V30 8574 H 783.432 3.4905 -1.42981 0
M  V30 8575 H 785.819 2.87872 -0.649121 0
M  V30 8576 H 785.9 1.66936 -1.93819 0
M  V30 8577 H 785.544 3.51745 -3.66384 0
M  V30 8578 H 785.474 4.71444 -2.34623 0
M  V30 8579 H 787.965 3.18403 -2.03539 0
M  V30 8580 H 788.278 6.15316 -4.67553 0
M  V30 8581 H 786.623 5.53791 -4.19929 0
M  V30 8582 H 789.814 3.898 -2.59179 0
M  V30 8583 H 789.987 5.25208 -3.79553 0
M  V30 8584 N 783.393 0.737304 1.3929 0
M  V30 8585 C 784.642 0.283129 1.99703 0
M  V30 8586 C 784.955 -1.13677 1.59176 0
M  V30 8587 O 786.161 -1.69058 2.12442 0
M  V30 8588 C 784.617 0.455262 3.57009 0
M  V30 8589 C 784.225 1.88319 4.06497 0
M  V30 8590 C 785.969 0.0629786 4.24453 0
M  V30 8591 C 783.876 2.00475 5.56385 0
M  V30 8592 H 782.806 0.102106 0.747054 0
M  V30 8593 H 785.457 0.911515 1.5926 0
M  V30 8594 H 783.839 -0.242057 3.9526 0
M  V30 8595 H 785.013 2.61265 3.79575 0
M  V30 8596 H 783.328 2.2289 3.51723 0
M  V30 8597 H 785.925 0.132787 5.34535 0
M  V30 8598 H 786.268 -0.982128 4.04549 0
M  V30 8599 H 786.801 0.71154 3.91385 0
M  V30 8600 H 783.54 3.03182 5.81172 0
M  V30 8601 H 783.06 1.31969 5.85102 0
M  V30 8602 H 784.739 1.787 6.21832 0
M  V30 8603 N 784.871 -1.49948 0.485112 0
M  V30 8604 C 785.801 -2.31675 -0.291364 0
M  V30 8605 C 786.782 -1.39216 -0.977383 0
M  V30 8606 O 787.967 -1.68133 -0.971855 0
M  V30 8607 C 785.097 -3.19326 -1.36558 0
M  V30 8608 C 784.051 -4.2045 -0.800359 0
M  V30 8609 C 783.377 -4.96931 -1.97391 0
M  V30 8610 C 784.677 -5.21925 0.197867 0
M  V30 8611 H 786.371 -2.96839 0.390775 0
M  V30 8612 H 783.917 -1.42749 0.189375 0
M  V30 8613 H 785.87 -3.75304 -1.91638 0
M  V30 8614 H 784.594 -2.52074 -2.07668 0
M  V30 8615 H 783.253 -3.65594 -0.271428 0
M  V30 8616 H 782.901 -4.26141 -2.67232 0
M  V30 8617 H 782.601 -5.65344 -1.60187 0
M  V30 8618 H 784.125 -5.55749 -2.52935 0
M  V30 8619 H 785.539 -5.72691 -0.264239 0
M  V30 8620 H 783.936 -5.98138 0.484908 0
M  V30 8621 H 785.006 -4.71809 1.11912 0
M  V30 8622 N 786.349 -0.21828 -1.56081 0
M  V30 8623 C 787.259 0.704602 -2.23769 0
M  V30 8624 C 788.275 1.21633 -1.24425 0
M  V30 8625 O 789.451 1.25862 -1.57228 0
M  V30 8626 C 786.516 1.89725 -2.90182 0
M  V30 8627 C 785.577 1.42782 -4.0486 0
M  V30 8628 C 784.81 2.56361 -4.68097 0
M  V30 8629 O 785.033 3.74417 -4.30312 0
M  V30 8630 O 783.967 2.2775 -5.57148 0
M  V30 8631 H 787.793 0.158007 -3.03289 0
M  V30 8632 H 785.378 0.0120279 -1.49395 0
M  V30 8633 H 787.26 2.59382 -3.32113 0
M  V30 8634 H 785.935 2.432 -2.13624 0
M  V30 8635 H 784.842 0.699359 -3.67505 0
M  V30 8636 H 786.175 0.939474 -4.83151 0
M  V30 8637 N 787.827 1.57504 0.0551401 0
M  V30 8638 C 788.777 2.0128 1.071 0
M  V30 8639 C 789.761 0.897592 1.33537 0
M  V30 8640 O 790.953 1.16151 1.33558 0
M  V30 8641 C 788.082 2.47414 2.37994 0
M  V30 8642 C 787.168 3.65703 2.14761 0
M  V30 8643 N 787.559 4.79323 1.61504 0
M  V30 8644 C 785.857 3.72574 2.45162 0
M  V30 8645 C 786.558 5.61089 1.53472 0
M  V30 8646 N 785.534 5.05426 2.00114 0
M  V30 8647 H 789.336 2.86558 0.652829 0
M  V30 8648 H 786.85 1.60274 0.26193 0
M  V30 8649 H 788.847 2.77023 3.11551 0
M  V30 8650 H 787.507 1.6353 2.80514 0
M  V30 8651 H 788.518 5.01284 1.30134 0
M  V30 8652 H 785.195 2.99439 2.90934 0
M  V30 8653 H 786.585 6.62328 1.13008 0
M  V30 8654 N 789.305 -0.326896 1.54172 0
M  V30 8655 C 790.238 -1.42591 1.78166 0
M  V30 8656 C 791.216 -1.49837 0.631484 0
M  V30 8657 O 792.4 -1.67298 0.868544 0
M  V30 8658 C 789.527 -2.8071 1.89524 0
M  V30 8659 C 788.573 -2.91012 3.11792 0
M  V30 8660 S 789.406 -2.55763 4.70474 0
M  V30 8661 C 790.562 -3.9596 4.84733 0
M  V30 8662 H 790.795 -1.22024 2.71104 0
M  V30 8663 H 788.328 -0.523539 1.45253 0
M  V30 8664 H 790.286 -3.60276 1.96753 0
M  V30 8665 H 788.947 -2.98562 0.975696 0
M  V30 8666 H 788.14 -3.92258 3.16464 0
M  V30 8667 H 787.742 -2.19414 3.02876 0
M  V30 8668 H 790.034 -4.90676 4.67166 0
M  V30 8669 H 790.977 -3.96273 5.86833 0
M  V30 8670 H 791.385 -3.8476 4.13062 0
M  V30 8671 N 790.784 -1.46188 -0.588786 0
M  V30 8672 C 792.014 -1.54519 -1.3714 0
M  V30 8673 C 792.422 -0.183075 -1.88312 0
M  V30 8674 O 791.765 0.828815 -1.6394 0
M  V30 8675 C 791.827 -2.48426 -2.59856 0
M  V30 8676 C 791.491 -3.94791 -2.30193 0
M  V30 8677 C 792.488 -4.84173 -1.894 0
M  V30 8678 C 790.173 -4.39872 -2.42525 0
M  V30 8679 C 792.167 -6.16647 -1.61325 0
M  V30 8680 C 789.854 -5.72381 -2.14063 0
M  V30 8681 C 790.852 -6.60589 -1.73527 0
M  V30 8682 O 790.54 -7.9064 -1.4541 0
M  V30 8683 H 790.272 -0.525264 -0.425527 0
M  V30 8684 H 792.826 -1.92242 -0.723344 0
M  V30 8685 H 791.056 -2.05709 -3.27446 0
M  V30 8686 H 792.745 -2.4723 -3.21919 0
M  V30 8687 H 793.511 -4.50603 -1.79393 0
M  V30 8688 H 789.39 -3.71444 -2.7304 0
M  V30 8689 H 792.934 -6.85454 -1.29611 0
M  V30 8690 H 788.831 -6.05501 -2.23693 0
M  V30 8691 H 789.599 -8.02847 -1.59306 0
M  V30 8692 N 792.262 0.832906 -1.33792 0
M  V30 8693 C 793.492 1.61813 -1.28453 0
M  V30 8694 C 793.9 1.88639 0.145595 0
M  V30 8695 O 793.243 1.47122 1.10004 0
M  V30 8696 C 793.305 2.98929 -1.99704 0
M  V30 8697 C 792.969 2.95045 -3.48995 0
M  V30 8698 C 793.966 2.70337 -4.44088 0
M  V30 8699 C 791.651 3.14993 -3.91261 0
M  V30 8700 C 793.645 2.65612 -5.79421 0
M  V30 8701 C 791.332 3.09893 -5.26697 0
M  V30 8702 C 792.33 2.85235 -6.20588 0
M  V30 8703 O 792.018 2.8005 -7.53543 0
M  V30 8704 H 791.75 0.510013 -0.443693 0
M  V30 8705 H 794.304 1.04514 -1.76822 0
M  V30 8706 H 792.534 3.58106 -1.45935 0
M  V30 8707 H 794.223 3.59849 -1.87786 0
M  V30 8708 H 794.989 2.54671 -4.12756 0
M  V30 8709 H 790.868 3.33204 -3.18584 0
M  V30 8710 H 794.412 2.46285 -6.52679 0
M  V30 8711 H 790.309 3.2511 -5.5765 0
M  V30 8712 H 791.077 2.95849 -7.63162 0
M  V30 8713 N 793.74 1.17359 1.05189 0
M  V30 8714 C 794.687 0.890325 2.12936 0
M  V30 8715 C 795.657 -0.165779 1.65271 0
M  V30 8716 O 796.842 -0.0285672 1.90779 0
M  V30 8717 C 793.982 0.409793 3.42658 0
M  V30 8718 C 793.095 1.53002 4.03998 0
M  V30 8719 C 792.23 1.00336 5.21638 0
M  V30 8720 C 791.269 2.09903 5.74984 0
M  V30 8721 N 790.406 1.58714 6.83926 0
M  V30 8722 H 795.246 1.81299 2.36505 0
M  V30 8723 H 792.783 0.904249 1.16025 0
M  V30 8724 H 794.741 0.112743 4.17048 0
M  V30 8725 H 793.371 -0.475915 3.19272 0
M  V30 8726 H 792.423 1.9428 3.27047 0
M  V30 8727 H 793.735 2.3564 4.39631 0
M  V30 8728 H 792.889 0.660158 6.03098 0
M  V30 8729 H 791.628 0.14642 4.8748 0
M  V30 8730 H 790.633 2.45081 4.92154 0
M  V30 8731 H 791.858 2.96013 6.1119 0
M  V30 8732 H 789.804 0.752915 6.51665 0
M  V30 8733 H 789.721 2.34959 7.18561 0
M  V30 8734 H 790.989 1.27287 7.69037 0
M  V30 8735 N 795.218 -1.23913 0.973828 0
M  V30 8736 C 796.629 -1.73992 0.677021 0
M  V30 8737 C 796.98 -1.78833 -0.807036 0
M  V30 8738 O 796.105 -1.42183 -1.63135 0
M  V30 8739 C 796.7 -3.15985 1.22226 0
M  V30 8740 C 795.259 -3.63547 0.975228 0
M  V30 8741 C 794.406 -2.42001 1.35392 0
M  V30 8742 H 797.357 -1.09529 1.14844 0
M  V30 8743 H 797.378 -3.75875 0.591489 0
M  V30 8744 H 796.89 -3.12429 2.30238 0
M  V30 8745 H 794.991 -3.72493 -0.0891047 0
M  V30 8746 H 795.104 -4.50693 1.62518 0
M  V30 8747 H 793.468 -2.42708 0.772334 0
M  V30 8748 H 794.251 -2.41122 2.44367 0
M  V30 8749 N 796.696 -0.74468 -1.38897 0
M  V30 8750 C 797.606 -0.112892 -2.34328 0
M  V30 8751 C 798.622 0.71087 -1.58816 0
M  V30 8752 O 799.798 0.637092 -1.91058 0
M  V30 8753 C 796.863 0.776417 -3.37894 0
M  V30 8754 C 795.924 -0.0606999 -4.29257 0
M  V30 8755 C 795.157 0.786258 -5.27877 0
M  V30 8756 O 795.38 2.02463 -5.33259 0
M  V30 8757 O 794.314 0.209781 -6.01534 0
M  V30 8758 H 798.14 -0.900801 -2.90033 0
M  V30 8759 H 795.725 -0.505462 -1.4059 0
M  V30 8760 H 797.607 1.28496 -4.01331 0
M  V30 8761 H 796.282 1.54297 -2.84559 0
M  V30 8762 H 795.189 -0.614984 -3.69011 0
M  V30 8763 H 796.522 -0.789702 -4.85824 0
M  V30 8764 N 798.174 1.49689 -0.493057 0
M  V30 8765 C 799.107 2.25712 0.336062 0
M  V30 8766 C 800.085 1.29953 0.977294 0
M  V30 8767 O 801.269 1.59225 1.00895 0
M  V30 8768 C 798.396 3.0501 1.47263 0
M  V30 8769 C 797.442 4.15863 0.946575 0
M  V30 8770 S 798.275 5.35272 -0.156323 0
M  V30 8771 C 799.431 6.18123 0.983601 0
M  V30 8772 H 799.664 2.95688 -0.309215 0
M  V30 8773 H 797.197 1.51872 -0.278238 0
M  V30 8774 H 799.155 3.51284 2.12391 0
M  V30 8775 H 797.816 2.34519 2.08949 0
M  V30 8776 H 797.009 4.70834 1.7981 0
M  V30 8777 H 796.611 3.72139 0.372647 0
M  V30 8778 H 798.903 6.50588 1.89056 0
M  V30 8779 H 799.846 7.06521 0.472687 0
M  V30 8780 H 800.254 5.50547 1.24735 0
M  V30 8781 N 799.652 0.226554 1.55963 0
M  V30 8782 C 800.582 -0.676079 2.23498 0
M  V30 8783 C 801.563 -1.19718 1.20837 0
M  V30 8784 O 802.748 -1.24027 1.49436 0
M  V30 8785 C 799.878 -1.88217 2.91876 0
M  V30 8786 C 798.832 -1.4947 4.01052 0
M  V30 8787 C 798.158 -2.77997 4.56751 0
M  V30 8788 C 799.458 -0.680951 5.17842 0
M  V30 8789 H 801.152 -0.112989 2.99187 0
M  V30 8790 H 798.698 -0.0529046 1.43903 0
M  V30 8791 H 800.651 -2.51911 3.37815 0
M  V30 8792 H 799.375 -2.47031 2.13643 0
M  V30 8793 H 798.034 -0.881199 3.55852 0
M  V30 8794 H 797.682 -3.34966 3.75243 0
M  V30 8795 H 797.382 -2.52803 5.30438 0
M  V30 8796 H 798.906 -3.42625 5.05411 0
M  V30 8797 H 800.32 -1.22171 5.60131 0
M  V30 8798 H 798.717 -0.525898 5.97791 0
M  V30 8799 H 799.787 0.311346 4.83899 0
M  V30 8800 N 801.13 -1.57531 -0.0467866 0
M  V30 8801 C 802.377 -1.88451 -0.74112 0
M  V30 8802 C 802.705 -0.821592 -1.76296 0
M  V30 8803 O 801.96 0.179585 -1.94874 0
M  V30 8804 C 802.259 -3.26091 -1.46285 0
M  V30 8805 C 801.925 -4.47171 -0.578669 0
M  V30 8806 C 800.587 -4.80032 -0.335083 0
M  V30 8807 C 802.939 -5.2119 0.0328809 0
M  V30 8808 C 800.267 -5.84309 0.529121 0
M  V30 8809 C 802.619 -6.26383 0.884684 0
M  V30 8810 C 801.283 -6.57729 1.1379 0
M  V30 8811 H 800.553 -0.68959 -0.271195 0
M  V30 8812 H 803.2 -1.915 -0.00132378 0
M  V30 8813 H 801.505 -3.18948 -2.27551 0
M  V30 8814 H 803.202 -3.47258 -2.00532 0
M  V30 8815 H 799.792 -4.21467 -0.778666 0
M  V30 8816 H 803.976 -4.96096 -0.142375 0
M  V30 8817 H 799.232 -6.06981 0.733794 0
M  V30 8818 H 803.406 -6.82888 1.36516 0
M  V30 8819 H 801.033 -7.38355 1.80929 0
M  V30 8820 N 802.608 0.318715 -1.54344 0
M  V30 8821 C 803.555 1.39242 -1.84066 0
M  V30 8822 C 804.525 1.51175 -0.688134 0
M  V30 8823 O 805.71 1.66318 -0.935039 0
M  V30 8824 C 802.85 2.75528 -2.07794 0
M  V30 8825 C 801.963 2.72187 -3.35467 0
M  V30 8826 C 801.098 4.00352 -3.4913 0
M  V30 8827 C 800.137 3.91338 -4.7066 0
M  V30 8828 N 799.274 5.11242 -4.81224 0
M  V30 8829 H 804.114 1.13196 -2.75664 0
M  V30 8830 H 801.651 0.547857 -1.36517 0
M  V30 8831 H 803.609 3.54763 -2.19543 0
M  V30 8832 H 802.239 2.99873 -1.19482 0
M  V30 8833 H 801.291 1.84917 -3.3243 0
M  V30 8834 H 802.603 2.61411 -4.24812 0
M  V30 8835 H 801.757 4.88019 -3.60448 0
M  V30 8836 H 800.496 4.1394 -2.57886 0
M  V30 8837 H 799.501 3.02055 -4.59394 0
M  V30 8838 H 800.726 3.7931 -5.63294 0
M  V30 8839 H 798.672 5.25327 -3.92897 0
M  V30 8840 H 798.589 5.0282 -5.64543 0
M  V30 8841 H 799.857 6.0061 -4.96879 0
M  V30 8842 N 804.086 1.46499 0.581025 0
M  V30 8843 C 805.018 1.53225 1.70455 0
M  V30 8844 C 806.031 0.420443 1.57277 0
M  V30 8845 O 807.22 0.688888 1.64671 0
M  V30 8846 C 804.32 1.39803 3.08721 0
M  V30 8847 C 803.493 2.65132 3.47884 0
M  V30 8848 C 802.552 2.45886 4.65217 0
M  V30 8849 O 801.578 3.19615 4.70993 0
M  V30 8850 N 802.78 1.5216 5.60203 0
M  V30 8851 H 805.545 2.50098 1.65139 0
M  V30 8852 H 803.106 1.42576 0.76705 0
M  V30 8853 H 805.098 1.24697 3.8501 0
M  V30 8854 H 803.668 0.51104 3.08394 0
M  V30 8855 H 802.888 2.95169 2.61284 0
M  V30 8856 H 804.176 3.48385 3.70817 0
M  V30 8857 H 803.574 0.913646 5.58273 0
M  V30 8858 H 802.131 1.43017 6.35916 0
M  V30 8859 N 805.565 -0.825799 1.34232 0
M  V30 8860 C 806.814 -1.57686 1.2577 0
M  V30 8861 C 807.127 -1.94848 -0.171372 0
M  V30 8862 O 808.333 -2.68854 -0.378123 0
M  V30 8863 C 806.789 -2.84478 2.20454 0
M  V30 8864 C 806.397 -2.54629 3.68603 0
M  V30 8865 C 808.141 -3.625 2.20893 0
M  V30 8866 C 806.048 -3.77597 4.55164 0
M  V30 8867 H 804.978 -0.591809 0.467203 0
M  V30 8868 H 807.629 -0.909421 1.59379 0
M  V30 8869 H 806.011 -3.52832 1.79793 0
M  V30 8870 H 807.185 -1.94404 4.17784 0
M  V30 8871 H 805.5 -1.89888 3.70582 0
M  V30 8872 H 808.097 -4.538 2.82789 0
M  V30 8873 H 808.44 -3.98404 1.20746 0
M  V30 8874 H 808.973 -3.01086 2.59985 0
M  V30 8875 H 805.712 -3.46815 5.56237 0
M  V30 8876 H 805.232 -4.37116 4.10719 0
M  V30 8877 H 806.911 -4.45039 4.69627 0
M  V30 8878 N 807.043 -1.17915 -1.04565 0
M  V30 8879 C 808.289 -0.982872 -1.78076 0
M  V30 8880 C 808.644 0.482843 -1.86243 0
M  V30 8881 O 807.937 1.35383 -1.3558 0
M  V30 8882 C 808.131 -1.56528 -3.213 0
M  V30 8883 C 807.96 -3.0861 -3.27093 0
M  V30 8884 C 806.73 -3.77389 -3.36014 0
M  V30 8885 C 808.928 -4.06146 -3.15515 0
M  V30 8886 N 806.91 -5.1702 -3.31004 0
M  V30 8887 C 808.281 -5.32268 -3.17948 0
M  V30 8888 C 810.336 -3.97732 -2.99522 0
M  V30 8889 C 809.039 -6.50951 -3.06031 0
M  V30 8890 C 811.065 -5.16007 -2.88948 0
M  V30 8891 C 810.427 -6.41018 -2.9202 0
M  V30 8892 H 806.526 -0.413617 -0.66366 0
M  V30 8893 H 809.11 -1.49607 -1.24603 0
M  V30 8894 H 807.281 -1.07833 -3.73131 0
M  V30 8895 H 809.013 -1.30501 -3.83082 0
M  V30 8896 H 805.768 -3.28098 -3.41538 0
M  V30 8897 H 806.192 -5.90031 -3.31952 0
M  V30 8898 H 810.834 -3.01919 -2.95981 0
M  V30 8899 H 808.552 -7.46968 -3.08326 0
M  V30 8900 H 812.138 -5.11283 -2.77635 0
M  V30 8901 H 811.018 -7.30999 -2.83919 0
M  V30 8902 N 808.521 1.23394 -0.980386 0
M  V30 8903 C 809.749 1.95844 -0.667286 0
M  V30 8904 C 810.164 1.72574 0.765735 0
M  V30 8905 O 809.521 1.01715 1.51526 0
M  V30 8906 C 809.572 3.48844 -0.948151 0
M  V30 8907 O 809.293 3.71325 -2.32485 0
M  V30 8908 C 810.794 4.38494 -0.651002 0
M  V30 8909 H 808.014 0.623535 -0.247882 0
M  V30 8910 H 810.558 1.56885 -1.31176 0
M  V30 8911 H 808.713 3.85819 -0.349681 0
M  V30 8912 H 809.127 4.65619 -2.41452 0
M  V30 8913 H 810.601 5.44648 -0.897887 0
M  V30 8914 H 811.078 4.37236 0.414922 0
M  V30 8915 H 811.684 4.07127 -1.22995 0
M  V30 8916 N 809.999 0.752036 1.385 0
M  V30 8917 C 811.229 0.317812 2.04141 0
M  V30 8918 C 811.637 -1.05822 1.56839 0
M  V30 8919 O 810.98 -1.68311 0.736016 0
M  V30 8920 C 811.042 0.260205 3.58557 0
M  V30 8921 C 810.706 1.57753 4.28909 0
M  V30 8922 C 811.703 2.52642 4.54387 0
M  V30 8923 C 809.388 1.84653 4.67128 0
M  V30 8924 C 811.382 3.72653 5.17116 0
M  V30 8925 C 809.069 3.04938 5.29581 0
M  V30 8926 C 810.067 3.98759 5.54509 0
M  V30 8927 O 809.755 5.16929 6.15662 0
M  V30 8928 H 809.487 0.133931 0.6626 0
M  V30 8929 H 812.041 1.02138 1.78205 0
M  V30 8930 H 810.271 -0.499596 3.83459 0
M  V30 8931 H 811.96 -0.144295 4.05643 0
M  V30 8932 H 812.726 2.33135 4.25292 0
M  V30 8933 H 808.605 1.12464 4.47071 0
M  V30 8934 H 812.149 4.45898 5.36489 0
M  V30 8935 H 808.046 3.24339 5.58099 0
M  V30 8936 H 808.814 5.1749 6.3415 0
M  V30 8937 N 811.477 -1.49425 0.500989 0
M  V30 8938 C 812.407 -2.31971 -0.266775 0
M  V30 8939 C 813.388 -1.40245 -0.962563 0
M  V30 8940 O 814.573 -1.69154 -0.953968 0
M  V30 8941 C 811.703 -3.20757 -1.33163 0
M  V30 8942 C 810.657 -4.21275 -0.75572 0
M  V30 8943 C 809.983 -4.98997 -1.92109 0
M  V30 8944 C 811.283 -5.21686 0.253213 0
M  V30 8945 H 812.977 -2.96408 0.422237 0
M  V30 8946 H 810.523 -1.4254 0.204505 0
M  V30 8947 H 812.476 -3.77315 -1.87646 0
M  V30 8948 H 811.2 -2.54263 -2.04983 0
M  V30 8949 H 809.859 -3.65861 -0.232637 0
M  V30 8950 H 809.507 -4.28951 -2.62698 0
M  V30 8951 H 809.207 -5.67011 -1.54182 0
M  V30 8952 H 810.731 -5.584 -2.47026 0
M  V30 8953 H 812.145 -5.72939 -0.203483 0
M  V30 8954 H 810.542 -5.9759 0.548322 0
M  V30 8955 H 811.612 -4.70596 1.16909 0
M  V30 8956 N 812.955 -0.234822 -1.55841 0
M  V30 8957 C 813.888 0.710134 -2.16869 0
M  V30 8958 C 814.866 1.18155 -1.11706 0
M  V30 8959 O 816.05 1.26188 -1.40032 0
M  V30 8960 C 813.177 1.96368 -2.75966 0
M  V30 8961 C 812.223 1.63114 -3.94076 0
M  V30 8962 S 813.056 0.744307 -5.30302 0
M  V30 8963 C 814.212 2.00712 -5.92845 0
M  V30 8964 H 814.445 0.19146 -2.96683 0
M  V30 8965 H 811.978 -0.0193854 -1.54388 0
M  V30 8966 H 813.936 2.68338 -3.10653 0
M  V30 8967 H 812.597 2.45347 -1.96121 0
M  V30 8968 H 811.79 2.56285 -4.33975 0
M  V30 8969 H 811.392 0.991967 -3.60605 0
M  V30 8970 H 813.684 2.9557 -6.09627 0
M  V30 8971 H 814.627 1.65182 -6.88564 0
M  V30 8972 H 815.035 2.1537 -5.21801 0
M  V30 8973 N 814.433 1.57553 0.0384317 0
M  V30 8974 C 815.381 2.07021 1.06043 0
M  V30 8975 C 816.375 0.982078 1.38028 0
M  V30 8976 O 817.581 1.16702 1.37042 0
M  V30 8977 H 813.956 0.660522 0.359464 0
M  V30 8978 H 815.927 2.91944 0.617339 0
M  V30 8979 C 814.676 2.55734 2.35574 0
M  V30 8980 H 813.999 3.39074 2.11822 0
M  V30 8981 H 815.439 2.94066 3.05452 0
M  V30 8982 C 813.898 1.45449 3.03885 0
M  V30 8983 O 814.428 0.815402 3.93337 0
M  V30 8984 N 812.634 1.19134 2.65058 0
M  V30 8985 H 812.181 1.71288 1.92401 0
M  V30 8986 H 812.139 0.455554 3.11082 0
M  V30 8987 N 815.911 -0.310526 1.54511 0
M  V30 8988 C 817.159 -1.04484 1.72996 0
M  V30 8989 C 817.48 -1.88118 0.513479 0
M  V30 8990 O 816.75 -1.90119 -0.472384 0
M  V30 8991 H 815.33 -0.388747 0.637875 0
M  V30 8992 H 817.992 -0.343811 1.91844 0
M  V30 8993 H 817.088 -1.70341 2.61515 0
M  V30 8994 N 817.389 -1.46805 -0.573248 0
M  V30 8995 C 818.336 -1.58084 -1.68161 0
M  V30 8996 C 819.306 -0.424636 -1.6058 0
M  V30 8997 O 820.491 -0.642623 -1.79652 0
M  V30 8998 C 817.631 -1.58601 -3.06496 0
M  V30 8999 C 816.744 -2.85023 -3.24632 0
M  V30 9000 C 815.879 -2.76981 -4.53271 0
M  V30 9001 C 814.918 -3.983 -4.64783 0
M  V30 9002 N 814.055 -3.88589 -5.84759 0
M  V30 9003 H 818.895 -2.52755 -1.57858 0
M  V30 9004 H 816.432 -1.25385 -0.769218 0
M  V30 9005 H 818.39 -1.56885 -3.86579 0
M  V30 9006 H 817.02 -0.674553 -3.15673 0
M  V30 9007 H 816.072 -2.96678 -2.38089 0
M  V30 9008 H 817.384 -3.7491 -3.29004 0
M  V30 9009 H 816.538 -2.73424 -5.41594 0
M  V30 9010 H 815.277 -1.84751 -4.51352 0
M  V30 9011 H 814.282 -4.02179 -3.74876 0
M  V30 9012 H 815.507 -4.91639 -4.68474 0
M  V30 9013 H 813.453 -2.99151 -5.83819 0
M  V30 9014 H 813.37 -4.7214 -5.90441 0
M  V30 9015 H 814.638 -3.89022 -6.75486 0
M  V30 9016 N 818.867 0.818669 -1.34668 0
M  V30 9017 C 819.777 1.9616 -1.2868 0
M  V30 9018 C 820.793 1.72918 -0.193742 0
M  V30 9019 O 821.969 1.96951 -0.420975 0
M  V30 9020 C 819.034 3.30534 -1.04633 0
M  V30 9021 C 818.095 3.66755 -2.23136 0
M  V30 9022 C 817.328 4.94717 -2.00227 0
M  V30 9023 O 817.551 5.62218 -0.96264 0
M  V30 9024 O 816.485 5.28915 -2.87286 0
M  V30 9025 H 820.311 2.04157 -2.24842 0
M  V30 9026 H 817.896 0.954691 -1.14917 0
M  V30 9027 H 819.778 4.11005 -0.930216 0
M  V30 9028 H 818.453 3.23495 -0.115139 0
M  V30 9029 H 817.36 2.8671 -2.40308 0
M  V30 9030 H 818.693 3.78484 -3.1466 0
M  V30 9031 N 820.346 1.18468 1.03938 0
M  V30 9032 C 821.279 0.856251 2.11527 0
M  V30 9033 C 822.257 -0.182323 1.61575 0
M  V30 9034 O 823.441 -0.061 1.88401 0
M  V30 9035 C 820.568 0.279562 3.37544 0
M  V30 9036 C 819.614 1.29552 4.06348 0
M  V30 9037 S 820.447 2.85191 4.5324 0
M  V30 9038 C 821.603 2.29037 5.82489 0
M  V30 9039 H 821.836 1.76742 2.39059 0
M  V30 9040 H 819.369 1.01068 1.16725 0
M  V30 9041 H 821.327 -0.0466579 4.10473 0
M  V30 9042 H 819.988 -0.60975 3.08125 0
M  V30 9043 H 819.181 0.840922 4.96935 0
M  V30 9044 H 818.783 1.56804 3.39541 0
M  V30 9045 H 821.075 1.67376 6.565 0
M  V30 9046 H 822.018 3.17929 6.32714 0
M  V30 9047 H 822.426 1.72009 5.37655 0
M  V30 9048 N 821.824 -1.22873 0.986916 0
M  V30 9049 C 822.754 -2.2688 0.552064 0
M  V30 9050 C 823.735 -1.64883 -0.418048 0
M  V30 9051 O 824.92 -1.9171 -0.30999 0
M  V30 9052 C 822.05 -3.47018 -0.139959 0
M  V30 9053 C 821.004 -4.21411 0.748091 0
M  V30 9054 C 820.33 -5.34645 -0.0765132 0
M  V30 9055 C 821.63 -4.80726 2.04206 0
M  V30 9056 H 823.324 -2.63507 1.42143 0
M  V30 9057 H 820.87 -1.26668 0.68492 0
M  V30 9058 H 822.823 -4.18931 -0.455527 0
M  V30 9059 H 821.547 -3.0947 -1.04382 0
M  V30 9060 H 820.206 -3.51325 1.04721 0
M  V30 9061 H 819.854 -4.93339 -0.981109 0
M  V30 9062 H 819.554 -5.85342 0.514606 0
M  V30 9063 H 821.078 -6.09377 -0.386313 0
M  V30 9064 H 822.492 -5.44612 1.79083 0
M  V30 9065 H 820.889 -5.41737 2.5815 0
M  V30 9066 H 821.959 -4.01109 2.72469 0
M  V30 9067 N 823.302 -0.75937 -1.38099 0
M  V30 9068 C 824.527 -0.327859 -2.04792 0
M  V30 9069 C 824.952 1.03752 -1.56899 0
M  V30 9070 O 824.31 1.66235 -0.723581 0
M  V30 9071 C 824.358 -0.366264 -3.58735 0
M  V30 9072 O 823.462 0.637697 -4.0744 0
M  V30 9073 H 822.803 -0.144092 -0.648177 0
M  V30 9074 H 825.333 -1.03211 -1.7666 0
M  V30 9075 H 825.343 -0.219179 -4.07411 0
M  V30 9076 H 824.018 -1.36243 -3.92951 0
M  V30 9077 H 822.595 0.454749 -3.70117 0
M  V30 9078 N 824.78 1.49157 -0.508906 0
M  V30 9079 C 826.057 1.95363 0.0961913 0
M  V30 9080 C 826.437 1.45064 1.53362 0
M  V30 9081 O 825.785 0.667835 2.18523 0
M  V30 9082 C 825.995 3.49 0.000688881 0
M  V30 9083 C 827.343 4.24257 0.170632 0
M  V30 9084 O 828.367 3.5612 0.0754994 0
M  V30 9085 O 827.226 5.45267 0.366957 0
M  V30 9086 H 824.32 0.821984 0.0909489 0
M  V30 9087 H 826.866 1.59769 -0.572007 0
M  V30 9088 H 825.638 3.78269 -1.00143 0
M  V30 9089 H 825.261 3.91233 0.708682 0
M  V30 9090 N 826.258 0.243083 1.55714 0
M  V30 9091 C 827.483 -0.389944 2.03701 0
M  V30 9092 C 827.908 -1.51025 1.12129 0
M  V30 9093 O 827.266 -1.80944 0.11352 0
M  V30 9094 C 827.314 -0.878649 3.49731 0
M  V30 9095 O 826.418 -1.98851 3.61292 0
M  V30 9096 H 825.759 -0.0855115 0.658471 0
M  V30 9097 H 828.289 0.368023 2.01263 0
M  V30 9098 H 828.299 -1.18287 3.90477 0
M  V30 9099 H 826.974 -0.0588107 4.15858 0
M  V30 9100 H 825.551 -1.68928 3.32442 0
M  V30 9101 N 827.736 -1.57571 -0.0300757 0
M  V30 9102 C 828.666 -2.0953 -1.03051 0
M  V30 9103 C 829.647 -0.99761 -1.37774 0
M  V30 9104 O 830.832 -1.27279 -1.46676 0
M  V30 9105 C 827.962 -2.57385 -2.33174 0
M  V30 9106 C 826.916 -3.71409 -2.12696 0
M  V30 9107 C 826.242 -4.05467 -3.4857 0
M  V30 9108 C 827.542 -4.99877 -1.51396 0
M  V30 9109 H 829.236 -2.93367 -0.597999 0
M  V30 9110 H 826.782 -1.41127 -0.286203 0
M  V30 9111 H 828.735 -2.92355 -3.03491 0
M  V30 9112 H 827.459 -1.70629 -2.78484 0
M  V30 9113 H 826.118 -3.36786 -1.44813 0
M  V30 9114 H 825.766 -3.15779 -3.91526 0
M  V30 9115 H 825.466 -4.82269 -3.35694 0
M  V30 9116 H 826.99 -4.4297 -4.2025 0
M  V30 9117 H 828.404 -5.3281 -2.11629 0
M  V30 9118 H 826.801 -5.81283 -1.49098 0
M  V30 9119 H 827.871 -4.82522 -0.479676 0
M  V30 9120 N 829.214 0.302327 -1.54673 0
M  V30 9121 C 830.162 1.39286 -1.86285 0
M  V30 9122 C 831.156 1.52553 -0.736478 0
M  V30 9123 O 832.362 1.54686 -0.92045 0
M  V30 9124 H 828.737 0.465228 -0.590819 0
M  V30 9125 H 830.708 1.09859 -2.77441 0
M  V30 9126 C 829.457 2.75155 -2.12567 0
M  V30 9127 H 828.78 2.65728 -2.98712 0
M  V30 9128 H 830.22 3.50476 -2.38627 0
M  V30 9129 C 828.679 3.23987 -0.923813 0
M  V30 9130 O 829.209 4.01443 -0.143649 0
M  V30 9131 N 827.415 2.81293 -0.72956 0
M  V30 9132 H 826.962 2.18421 -1.36565 0
M  V30 9133 H 826.92 3.14315 0.0730351 0
M  V30 9134 N 830.692 1.47107 0.565454 0
M  V30 9135 C 831.64 1.59368 1.69424 0
M  V30 9136 C 832.634 0.461344 1.62997 0
M  V30 9137 O 833.84 0.638849 1.68282 0
M  V30 9138 H 830.215 0.501387 0.560459 0
M  V30 9139 H 832.186 2.54242 1.56217 0
M  V30 9140 C 830.935 1.61739 3.07792 0
M  V30 9141 H 830.258 2.48215 3.13416 0
M  V30 9142 H 831.698 1.7437 3.86486 0
M  V30 9143 C 830.157 0.349156 3.35086 0
M  V30 9144 O 830.687 -0.553287 3.97871 0
M  V30 9145 N 828.893 0.231723 2.89675 0
M  V30 9146 H 828.44 0.967021 2.3876 0
M  V30 9147 H 828.398 -0.615911 3.08308 0
M  V30 9148 N 832.17 -0.811516 1.35101 0
M  V30 9149 C 833.395 -1.60499 1.31358 0
M  V30 9150 C 833.82 -1.87793 -0.107383 0
M  V30 9151 O 833.178 -1.46161 -1.07268 0
M  V30 9152 C 833.226 -2.91612 2.12119 0
M  V30 9153 O 832.33 -3.84211 1.49853 0
M  V30 9154 H 831.671 -0.487702 0.450603 0
M  V30 9155 H 834.201 -1.00758 1.7807 0
M  V30 9156 H 834.211 -3.4108 2.23894 0
M  V30 9157 H 832.886 -2.71071 3.15426 0
M  V30 9158 H 831.463 -3.42751 1.46889 0
M  V30 9159 N 833.648 -1.19017 -1.03309 0
M  V30 9160 C 834.596 -0.920627 -2.13605 0
M  V30 9161 C 835.59 0.121969 -1.6896 0
M  V30 9162 O 836.796 -0.0268854 -1.7998 0
M  V30 9163 H 833.171 -0.280284 -0.697814 0
M  V30 9164 H 835.142 -1.85755 -2.33533 0
M  V30 9165 C 833.891 -0.471198 -3.44492 0
M  V30 9166 H 833.214 -1.26499 -3.7926 0
M  V30 9167 H 834.654 -0.321663 -4.22778 0
M  V30 9168 C 833.113 0.81411 -3.26916 0
M  V30 9169 O 833.643 1.87654 -3.55175 0
M  V30 9170 N 831.849 0.769695 -2.80221 0
M  V30 9171 H 831.396 -0.0951278 -2.57424 0
M  V30 9172 H 831.354 1.63008 -2.68842 0
M  V30 9173 N 835.127 1.22348 -0.993418 0
M  V30 9174 C 836.075 2.26315 -0.537052 0
M  V30 9175 C 837.069 1.643 0.412545 0
M  V30 9176 O 838.275 1.77729 0.285008 0
M  V30 9177 H 834.65 0.735792 -0.155286 0
M  V30 9178 H 836.621 2.62157 -1.42535 0
M  V30 9179 C 835.37 3.47449 0.132118 0
M  V30 9180 H 834.693 3.9543 -0.589519 0
M  V30 9181 H 836.133 4.21965 0.414884 0
M  V30 9182 C 834.592 3.07893 1.36761 0
M  V30 9183 O 835.122 3.17338 2.46291 0
M  V30 9184 N 833.328 2.62672 1.24305 0
M  V30 9185 H 832.875 2.55186 0.351826 0
M  V30 9186 H 832.833 2.36574 2.07076 0
M  V30 9187 N 836.605 0.766683 1.37694 0
M  V30 9188 C 837.854 0.325425 1.99057 0
M  V30 9189 C 838.167 -1.10275 1.61551 0
M  V30 9190 O 839.373 -1.64513 2.1598 0
M  V30 9191 C 837.829 0.530886 3.55963 0
M  V30 9192 C 837.437 1.96899 4.02411 0
M  V30 9193 C 839.181 0.152997 4.24224 0
M  V30 9194 C 837.088 2.12232 5.52007 0
M  V30 9195 H 836.018 0.117929 0.744721 0
M  V30 9196 H 838.669 0.945091 1.5729 0
M  V30 9197 H 837.051 -0.158162 3.95684 0
M  V30 9198 H 838.225 2.69258 3.73948 0
M  V30 9199 H 836.54 2.303 3.46916 0
M  V30 9200 H 839.137 0.24614 5.34133 0
M  V30 9201 H 839.48 -0.896096 4.06541 0
M  V30 9202 H 840.013 0.794398 3.89787 0
M  V30 9203 H 836.752 3.15442 5.7461 0
M  V30 9204 H 836.272 1.4435 5.82171 0
M  V30 9205 H 837.951 1.9185 6.17902 0
M  V30 9206 N 838.083 -1.48885 0.516809 0
M  V30 9207 C 839.046 -2.27916 -0.242256 0
M  V30 9208 C 840.046 -1.34601 -0.879735 0
M  V30 9209 O 841.236 -1.57616 -0.74182 0
M  V30 9210 C 838.368 -3.13067 -1.34914 0
M  V30 9211 H 839.561 -2.96483 0.451444 0
M  V30 9212 H 837.114 -1.5391 0.272294 0
M  V30 9213 H 837.849 -2.49102 -2.07651 0
M  V30 9214 H 837.634 -3.81695 -0.897313 0
M  V30 9215 H 839.124 -3.72716 -1.88341 0
M  V30 9216 N 839.561 -0.251338 -1.55583 0
M  V30 9217 C 840.786 0.379136 -2.03905 0
M  V30 9218 C 841.211 1.50428 -1.12929 0
M  V30 9219 O 840.569 1.80882 -0.123114 0
M  V30 9220 C 840.617 0.86009 -3.50193 0
M  V30 9221 O 839.721 1.96932 -3.62342 0
M  V30 9222 H 839.062 0.0820183 -0.658915 0
M  V30 9223 H 841.592 -0.378692 -2.01065 0
M  V30 9224 H 841.602 1.16214 -3.91099 0
M  V30 9225 H 840.277 0.0367559 -4.15884 0
M  V30 9226 H 838.854 1.67163 -3.33333 0
M  V30 9227 N 841.039 1.57585 0.0217189 0
M  V30 9228 C 841.986 2.07036 1.02004 0
M  V30 9229 C 842.956 0.96106 1.35473 0
M  V30 9230 O 844.141 1.23211 1.45684 0
M  V30 9231 C 841.281 2.56056 2.31364 0
M  V30 9232 C 840.394 3.80805 2.03989 0
M  V30 9233 C 839.529 4.18409 3.27272 0
M  V30 9234 C 838.568 5.36055 2.95486 0
M  V30 9235 N 837.705 5.69056 4.11242 0
M  V30 9236 H 842.545 2.92073 0.591396 0
M  V30 9237 H 840.082 1.44403 0.280384 0
M  V30 9238 H 842.04 2.82548 3.06957 0
M  V30 9239 H 840.67 1.73925 2.71937 0
M  V30 9240 H 839.722 3.61354 1.1886 0
M  V30 9241 H 841.034 4.66512 1.76546 0
M  V30 9242 H 840.188 4.46068 4.11228 0
M  V30 9243 H 838.927 3.31369 3.57835 0
M  V30 9244 H 837.932 5.08142 2.09933 0
M  V30 9245 H 839.157 6.24755 2.66193 0
M  V30 9246 H 837.103 4.84974 4.41742 0
M  V30 9247 H 837.02 6.49288 3.87247 0
M  V30 9248 H 838.288 6.01295 4.96049 0
M  V30 9249 N 842.517 -0.29412 1.54831 0
M  V30 9250 C 843.427 -1.3854 1.89325 0
M  V30 9251 C 844.443 -1.55127 0.788133 0
M  V30 9252 O 845.619 -1.6966 1.08524 0
M  V30 9253 C 842.684 -2.72809 2.13954 0
M  V30 9254 C 841.745 -2.65148 3.37631 0
M  V30 9255 C 840.978 -3.93014 3.61076 0
M  V30 9256 O 841.201 -4.927 2.87406 0
M  V30 9257 O 840.135 -3.94491 4.54599 0
M  V30 9258 H 843.961 -1.12289 2.82179 0
M  V30 9259 H 841.546 -0.490793 1.41108 0
M  V30 9260 H 843.428 -3.52238 2.31315 0
M  V30 9261 H 842.103 -2.9889 1.24285 0
M  V30 9262 H 841.01 -1.84168 3.25627 0
M  V30 9263 H 842.343 -2.4402 4.27452 0
M  V30 9264 N 843.995 -1.47404 -0.557645 0
M  V30 9265 C 845.272 -1.44488 -1.31843 0
M  V30 9266 C 845.652 -0.1416 -2.10625 0
M  V30 9267 O 845 0.876908 -2.11004 0
M  V30 9268 C 845.21 -2.69016 -2.22331 0
M  V30 9269 C 846.558 -3.16212 -2.83364 0
M  V30 9270 O 847.582 -2.69741 -2.32634 0
M  V30 9271 O 846.441 -3.96999 -3.75571 0
M  V30 9272 H 843.535 -0.57578 -0.593639 0
M  V30 9273 H 846.081 -1.59605 -0.576584 0
M  V30 9274 H 844.853 -3.55406 -1.63715 0
M  V30 9275 H 844.476 -2.56484 -3.03812 0
M  V30 9276 N 845.473 0.80434 -1.35529 0
M  V30 9277 C 846.721 1.55845 -1.28673 0
M  V30 9278 C 847.042 1.94511 0.137976 0
M  V30 9279 O 846.312 1.63775 1.07492 0
M  V30 9280 H 844.892 0.577931 -0.473291 0
M  V30 9281 H 847.554 0.959293 -1.69657 0
M  V30 9282 H 846.65 2.47285 -1.90411 0
M  V30 9283 N 846.951 1.19563 1.02676 0
M  V30 9284 C 847.883 0.893054 2.11086 0
M  V30 9285 C 848.896 -0.115101 1.62393 0
M  V30 9286 O 850.085 0.11459 1.78132 0
M  V30 9287 C 847.185 0.315533 3.37428 0
M  V30 9288 C 846.358 1.37276 4.153 0
M  V30 9289 C 845.417 0.808398 5.19953 0
M  V30 9290 O 844.443 1.48661 5.49444 0
M  V30 9291 N 845.645 -0.387253 5.79207 0
M  V30 9292 H 848.41 1.82622 2.37633 0
M  V30 9293 H 845.971 1.09792 1.18984 0
M  V30 9294 H 847.963 -0.0759166 4.04629 0
M  V30 9295 H 846.533 -0.521961 3.08211 0
M  V30 9296 H 845.753 1.93897 3.43217 0
M  V30 9297 H 847.041 2.08509 4.64114 0
M  V30 9298 H 846.439 -0.955725 5.57568 0
M  V30 9299 H 844.996 -0.720457 6.47806 0
M  V30 9300 N 848.429 -1.21819 0.999893 0
M  V30 9301 C 849.677 -1.90375 0.678351 0
M  V30 9302 C 849.998 -1.78155 -0.792824 0
M  V30 9303 O 849.268 -1.17319 -1.56885 0
M  V30 9304 H 847.848 -0.704661 0.247915 0
M  V30 9305 H 850.51 -1.48021 1.2679 0
M  V30 9306 H 849.606 -2.97385 0.947023 0
M  V30 9307 N 849.908 -0.773975 -1.37286 0
M  V30 9308 C 850.855 -0.159938 -2.30245 0
M  V30 9309 C 851.825 0.687356 -1.51211 0
M  V30 9310 O 853.01 0.639255 -1.79773 0
M  V30 9311 C 850.15 0.711452 -3.37687 0
M  V30 9312 C 849.263 -0.152692 -4.3173 0
M  V30 9313 C 848.398 0.723613 -5.26248 0
M  V30 9314 C 847.437 -0.14293 -6.11933 0
M  V30 9315 N 846.574 0.691479 -6.98687 0
M  V30 9316 H 851.414 -0.958182 -2.82175 0
M  V30 9317 H 848.951 -0.48411 -1.38906 0
M  V30 9318 H 850.909 1.2315 -3.9861 0
M  V30 9319 H 849.539 1.47528 -2.87116 0
M  V30 9320 H 848.591 -0.790574 -3.72094 0
M  V30 9321 H 849.903 -0.821027 -4.91997 0
M  V30 9322 H 849.057 1.31006 -5.92387 0
M  V30 9323 H 847.796 1.42562 -4.66398 0
M  V30 9324 H 846.801 -0.7419 -5.44771 0
M  V30 9325 H 848.026 -0.842305 -6.73856 0
M  V30 9326 H 845.972 1.37806 -6.41362 0
M  V30 9327 H 845.889 0.0804911 -7.55957 0
M  V30 9328 H 847.157 1.26225 -7.69212 0
M  V30 9329 N 851.386 1.48609 -0.524698 0
M  V30 9330 C 852.333 2.29539 0.240956 0
M  V30 9331 C 853.303 1.37033 0.938681 0
M  V30 9332 O 854.488 1.65996 0.940737 0
M  V30 9333 C 851.628 3.20278 1.28514 0
M  V30 9334 C 850.741 4.27858 0.596798 0
M  V30 9335 C 849.876 5.05784 1.62346 0
M  V30 9336 C 848.915 6.05173 0.918287 0
M  V30 9337 N 848.052 6.76176 1.89025 0
M  V30 9338 H 852.892 2.945 -0.455368 0
M  V30 9339 H 850.429 1.45188 -0.236403 0
M  V30 9340 H 852.387 3.71281 1.90279 0
M  V30 9341 H 851.017 2.57251 1.94992 0
M  V30 9342 H 850.069 3.80162 -0.134668 0
M  V30 9343 H 851.381 4.98782 0.0428506 0
M  V30 9344 H 850.535 5.60775 2.31553 0
M  V30 9345 H 849.274 4.34687 2.2113 0
M  V30 9346 H 848.279 5.49391 0.21212 0
M  V30 9347 H 849.504 6.78265 0.336633 0
M  V30 9348 H 847.45 6.07834 2.46726 0
M  V30 9349 H 847.367 7.43157 1.3876 0
M  V30 9350 H 848.635 7.35759 2.57446 0
M  V30 9351 N 852.864 0.259585 1.55447 0
M  V30 9352 C 853.811 -0.634578 2.21905 0
M  V30 9353 C 854.781 -1.16168 1.18719 0
M  V30 9354 O 855.966 -1.21383 1.4721 0
M  V30 9355 C 853.106 -1.82005 2.93203 0
M  V30 9356 C 852.219 -1.32828 4.11073 0
M  V30 9357 C 851.354 -2.47431 4.70055 0
M  V30 9358 C 850.393 -1.95179 5.80148 0
M  V30 9359 N 849.53 -3.03197 6.33258 0
M  V30 9360 H 854.37 -0.0611886 2.97937 0
M  V30 9361 H 851.907 -0.0184378 1.47088 0
M  V30 9362 H 853.865 -2.51664 3.32748 0
M  V30 9363 H 852.495 -2.36571 2.19622 0
M  V30 9364 H 851.547 -0.525301 3.76756 0
M  V30 9365 H 852.859 -0.905435 4.90513 0
M  V30 9366 H 852.013 -3.25111 5.12238 0
M  V30 9367 H 850.752 -2.93023 3.89857 0
M  V30 9368 H 849.757 -1.15974 5.37429 0
M  V30 9369 H 850.982 -1.50541 6.62204 0
M  V30 9370 H 848.928 -3.48199 5.55961 0
M  V30 9371 H 848.845 -2.65282 7.07928 0
M  V30 9372 H 850.113 -3.80898 6.80101 0
M  V30 9373 N 854.342 -1.57594 -0.0133615 0
M  V30 9374 C 855.289 -2.07574 -1.00905 0
M  V30 9375 C 856.259 -0.968231 -1.34961 0
M  V30 9376 O 857.444 -1.23981 -1.45028 0
M  V30 9377 C 854.584 -2.5728 -2.30002 0
M  V30 9378 C 853.697 -3.81881 -2.01967 0
M  V30 9379 C 852.832 -4.20139 -3.25049 0
M  V30 9380 C 851.871 -5.37614 -2.92639 0
M  V30 9381 N 851.008 -5.71229 -4.08218 0
M  V30 9382 H 855.848 -2.92382 -0.575899 0
M  V30 9383 H 853.385 -1.4455 -0.272722 0
M  V30 9384 H 855.343 -2.84171 -3.05454 0
M  V30 9385 H 853.973 -1.75365 -2.71011 0
M  V30 9386 H 853.025 -3.61979 -1.16942 0
M  V30 9387 H 854.337 -4.67441 -1.74069 0
M  V30 9388 H 853.491 -4.48242 -4.08857 0
M  V30 9389 H 852.23 -3.33262 -3.56073 0
M  V30 9390 H 851.235 -5.09248 -2.07235 0
M  V30 9391 H 852.46 -6.26157 -2.62876 0
M  V30 9392 H 850.406 -4.8731 -4.39164 0
M  V30 9393 H 850.323 -6.51333 -3.83799 0
M  V30 9394 H 851.591 -6.03917 -4.92854 0
M  V30 9395 N 855.82 0.285905 -1.54985 0
M  V30 9396 C 857.236 0.632405 -1.46536 0
M  V30 9397 C 857.436 1.90074 -0.668888 0
M  V30 9398 O 856.492 2.51839 -0.182586 0
M  V30 9399 C 857.805 0.771361 -2.90638 0
M  V30 9400 C 859.353 0.866262 -3.00774 0
M  V30 9401 C 859.828 1.0371 -4.46103 0
M  V30 9402 N 861.319 1.10294 -4.49877 0
M  V30 9403 C 862.054 1.25369 -5.59527 0
M  V30 9404 N 861.55 1.37246 -6.7907 0
M  V30 9405 N 863.343 1.28377 -5.47244 0
M  V30 9406 H 855.494 -0.547226 -2.0523 0
M  V30 9407 H 857.757 -0.183298 -0.930111 0
M  V30 9408 H 857.463 -0.0899485 -3.51585 0
M  V30 9409 H 857.337 1.65569 -3.3892 0
M  V30 9410 H 859.724 1.71805 -2.39931 0
M  V30 9411 H 859.805 -0.0424049 -2.55765 0
M  V30 9412 H 859.449 0.190021 -5.07544 0
M  V30 9413 H 859.379 1.96022 -4.88757 0
M  V30 9414 H 861.87 1.02407 -3.6376 0
M  V30 9415 H 862.183 1.48546 -7.58389 0
M  V30 9416 H 860.528 1.34274 -6.81906 0
M  V30 9417 H 863.719 1.1872 -4.52795 0
M  V30 9418 H 863.892 1.39782 -6.32744 0
M  V30 9419 N 857.298 1.47698 0.54982 0
M  V30 9420 C 858.547 1.53961 1.30303 0
M  V30 9421 C 858.86 0.209731 1.94472 0
M  V30 9422 O 860.066 0.150418 2.71083 0
M  V30 9423 C 858.522 2.71436 2.36328 0
M  V30 9424 C 858.13 4.10983 1.78316 0
M  V30 9425 C 859.874 2.86996 3.12783 0
M  V30 9426 C 857.781 5.19747 2.82164 0
M  V30 9427 H 856.711 0.573098 0.489975 0
M  V30 9428 H 859.362 1.73989 0.583089 0
M  V30 9429 H 857.744 2.44801 3.11269 0
M  V30 9430 H 858.918 4.47552 1.09697 0
M  V30 9431 H 857.233 4.00371 1.1442 0
M  V30 9432 H 859.83 3.65422 3.90347 0
M  V30 9433 H 860.173 1.95712 3.67427 0
M  V30 9434 H 860.706 3.13436 2.44954 0
M  V30 9435 H 857.445 6.12932 2.32366 0
M  V30 9436 H 856.965 4.87688 3.49171 0
M  V30 9437 H 858.644 5.47014 3.4552 0
M  V30 9438 N 858.776 -0.797141 1.35954 0
M  V30 9439 C 860.053 -1.54224 1.2031 0
M  V30 9440 C 860.433 -2.10013 -0.213926 0
M  V30 9441 O 859.781 -1.93292 -1.21862 0
M  V30 9442 C 859.991 -2.6433 2.27883 0
M  V30 9443 C 861.339 -3.32418 2.64165 0
M  V30 9444 O 862.363 -2.74607 2.26868 0
M  V30 9445 O 861.222 -4.36876 3.28331 0
M  V30 9446 H 858.316 -0.681857 0.467974 0
M  V30 9447 H 860.862 -0.836288 1.47663 0
M  V30 9448 H 859.634 -2.21044 3.22885 0
M  V30 9449 H 859.257 -3.42551 2.01853 0
M  V30 9450 N 860.254 -1.20106 -1.0204 0
M  V30 9451 C 861.202 -0.943231 -2.12617 0
M  V30 9452 C 862.196 0.104042 -1.6908 0
M  V30 9453 O 863.402 -0.0459732 -1.79941 0
M  V30 9454 H 859.777 -0.28767 -0.694802 0
M  V30 9455 H 861.748 -1.88221 -2.3155 0
M  V30 9456 C 860.497 -0.50771 -3.43973 0
M  V30 9457 H 859.82 -1.30514 -3.77897 0
M  V30 9458 H 861.26 -0.366486 -4.22413 0
M  V30 9459 C 859.719 0.77939 -3.27761 0
M  V30 9460 O 860.249 1.83876 -3.57145 0
M  V30 9461 N 858.455 0.739931 -2.81022 0
M  V30 9462 H 858.002 -0.122426 -2.57309 0
M  V30 9463 H 857.96 1.60147 -2.70556 0
M  V30 9464 N 861.732 1.21287 -1.00634 0
M  V30 9465 C 863.009 1.86 -0.605257 0
M  V30 9466 C 863.389 1.90139 0.917072 0
M  V30 9467 O 862.737 1.40169 1.80458 0
M  V30 9468 C 862.947 3.26183 -1.24119 0
M  V30 9469 C 864.295 4.02562 -1.35015 0
M  V30 9470 O 865.319 3.35499 -1.19661 0
M  V30 9471 O 864.178 5.22638 -1.59726 0
M  V30 9472 H 861.272 0.800549 -0.207486 0
M  V30 9473 H 863.818 1.28959 -1.10307 0
M  V30 9474 H 862.59 3.17878 -2.28186 0
M  V30 9475 H 862.213 3.90845 -0.729807 0
M  V30 9476 N 863.21 0.781244 1.36873 0
M  V30 9477 C 864.14 0.188128 2.32741 0
M  V30 9478 C 865.121 -0.672326 1.56249 0
M  V30 9479 O 866.306 -0.607835 1.84442 0
M  V30 9480 C 863.436 -0.684341 3.40491 0
M  V30 9481 C 862.39 0.0755641 4.27933 0
M  V30 9482 C 861.716 -0.916968 5.26779 0
M  V30 9483 C 863.016 1.26006 5.06873 0
M  V30 9484 H 864.71 0.989016 2.82593 0
M  V30 9485 H 862.256 0.477038 1.35869 0
M  V30 9486 H 864.209 -1.10915 4.06541 0
M  V30 9487 H 862.933 -1.51785 2.89187 0
M  V30 9488 H 861.592 0.481258 3.63427 0
M  V30 9489 H 861.24 -1.74528 4.71751 0
M  V30 9490 H 860.94 -0.413 5.86147 0
M  V30 9491 H 862.464 -1.34052 5.95703 0
M  V30 9492 H 863.878 0.911425 5.66009 0
M  V30 9493 H 862.275 1.69676 5.75613 0
M  V30 9494 H 863.345 2.05948 4.38991 0
M  V30 9495 N 864.689 -1.48329 0.532571 0
M  V30 9496 C 865.936 -2.025 -0.000582356 0
M  V30 9497 C 866.264 -1.40942 -1.34036 0
M  V30 9498 O 865.519 -0.545545 -1.87942 0
M  V30 9499 C 865.818 -3.57 -0.168943 0
M  V30 9500 C 865.484 -4.37357 1.0968 0
M  V30 9501 C 864.146 -4.59033 1.44369 0
M  V30 9502 C 866.498 -4.83882 1.93669 0
M  V30 9503 C 863.826 -5.24481 2.62939 0
M  V30 9504 C 866.178 -5.50637 3.11419 0
M  V30 9505 C 864.842 -5.70551 3.46451 0
M  V30 9506 H 864.112 -0.741 -0.000213099 0
M  V30 9507 H 866.759 -1.78282 0.699117 0
M  V30 9508 H 865.064 -3.80072 -0.951429 0
M  V30 9509 H 866.761 -3.9654 -0.596422 0
M  V30 9510 H 863.351 -4.20748 0.816655 0
M  V30 9511 H 867.535 -4.66936 1.6818 0
M  V30 9512 H 862.791 -5.38096 2.9028 0
M  V30 9513 H 866.965 -5.85655 3.76803 0
M  V30 9514 H 864.592 -6.21037 4.38425 0
M  V30 9515 N 866.167 -0.267825 -1.55308 0
M  V30 9516 C 867.444 0.402449 -1.91415 0
M  V30 9517 C 867.824 1.7428 -1.1912 0
M  V30 9518 O 867.172 2.2631 -0.315609 0
M  V30 9519 C 867.382 0.549926 -3.4464 0
M  V30 9520 C 868.73 0.836188 -4.16285 0
M  V30 9521 O 869.754 0.635009 -3.50494 0
M  V30 9522 O 868.613 1.22051 -5.32697 0
M  V30 9523 H 865.707 0.219177 -0.797427 0
M  V30 9524 H 868.253 -0.313439 -1.6678 0
M  V30 9525 H 867.025 -0.393641 -3.89315 0
M  V30 9526 H 866.648 1.31556 -3.75205 0
M  V30 9527 N 867.645 1.57599 0.00500368 0
M  V30 9528 C 868.555 2.11532 1.01446 0
M  V30 9529 C 869.571 1.05941 1.3803 0
M  V30 9530 O 870.747 1.37815 1.46864 0
M  V30 9531 C 867.812 2.60382 2.28915 0
M  V30 9532 C 866.873 3.80554 1.98689 0
M  V30 9533 C 866.106 4.27064 3.20081 0
M  V30 9534 O 866.329 3.72939 4.31593 0
M  V30 9535 O 865.263 5.1927 3.04371 0
M  V30 9536 H 869.089 2.97993 0.586011 0
M  V30 9537 H 866.674 1.47718 0.223519 0
M  V30 9538 H 868.556 2.92024 3.03809 0
M  V30 9539 H 867.231 1.77022 2.71007 0
M  V30 9540 H 866.138 3.53893 1.21286 0
M  V30 9541 H 867.471 4.64972 1.61437 0
M  V30 9542 N 869.123 -0.277682 1.55134 0
M  V30 9543 C 870.07 -1.34313 1.87693 0
M  V30 9544 C 871.04 -1.49298 0.727973 0
M  V30 9545 O 872.225 -1.6378 0.978807 0
M  V30 9546 C 869.365 -2.69922 2.15026 0
M  V30 9547 C 868.478 -2.63197 3.42565 0
M  V30 9548 C 867.613 -3.90955 3.59622 0
M  V30 9549 C 866.652 -3.78722 4.8087 0
M  V30 9550 N 865.789 -4.98303 4.94609 0
M  V30 9551 H 870.629 -1.05847 2.78569 0
M  V30 9552 H 868.166 -0.511469 1.37922 0
M  V30 9553 H 870.124 -3.48817 2.28872 0
M  V30 9554 H 868.754 -2.966 1.2739 0
M  V30 9555 H 867.806 -1.76038 3.37216 0
M  V30 9556 H 869.118 -2.50056 4.31594 0
M  V30 9557 H 868.272 -4.78291 3.7326 0
M  V30 9558 H 867.011 -4.06957 2.6877 0
M  V30 9559 H 866.016 -2.89769 4.67241 0
M  V30 9560 H 867.241 -3.64242 5.73153 0
M  V30 9561 H 865.187 -5.14725 4.06687 0
M  V30 9562 H 865.104 -4.87675 5.77676 0
M  V30 9563 H 866.372 -5.87225 5.12628 0
M  V30 9564 N 870.601 -1.47988 -0.541979 0
M  V30 9565 C 871.531 -1.64503 -1.65713 0
M  V30 9566 C 872.512 -0.494116 -1.62765 0
M  V30 9567 O 873.697 -0.725256 -1.80149 0
M  V30 9568 C 870.827 -1.67337 -3.04328 0
M  V30 9569 C 869.781 -2.81809 -3.2213 0
M  V30 9570 C 869.107 -2.69724 -4.61685 0
M  V30 9571 C 870.407 -4.23241 -3.06046 0
M  V30 9572 H 872.101 -2.5786 -1.52147 0
M  V30 9573 H 869.647 -1.24094 -0.730529 0
M  V30 9574 H 871.6 -1.77481 -3.82202 0
M  V30 9575 H 870.324 -0.705514 -3.18889 0
M  V30 9576 H 868.983 -2.71201 -2.46669 0
M  V30 9577 H 868.631 -1.70934 -4.73065 0
M  V30 9578 H 868.331 -3.4653 -4.74543 0
M  V30 9579 H 869.855 -2.81818 -5.41674 0
M  V30 9580 H 871.269 -4.34746 -3.73723 0
M  V30 9581 H 869.666 -5.00952 -3.30405 0
M  V30 9582 H 870.736 -4.40543 -2.02609 0
M  V30 9583 N 872.079 0.78992 -1.36375 0
M  V30 9584 C 873.328 1.54296 -1.29906 0
M  V30 9585 C 873.641 1.95234 0.119651 0
M  V30 9586 O 874.847 2.69762 0.306708 0
M  V30 9587 C 873.303 2.78533 -2.27919 0
M  V30 9588 C 872.911 2.44767 -3.75224 0
M  V30 9589 C 874.655 3.56516 -2.30427 0
M  V30 9590 C 872.562 3.65397 -4.65015 0
M  V30 9591 H 871.492 0.579214 -0.482729 0
M  V30 9592 H 874.143 0.866845 -1.61735 0
M  V30 9593 H 872.525 3.47941 -1.89084 0
M  V30 9594 H 873.699 1.83259 -4.22792 0
M  V30 9595 H 872.014 1.79996 -3.75487 0
M  V30 9596 H 874.611 4.46143 -2.94722 0
M  V30 9597 H 874.954 3.95063 -1.31266 0
M  V30 9598 H 875.487 2.94087 -2.67876 0
M  V30 9599 H 872.226 3.31946 -5.65236 0
M  V30 9600 H 871.746 4.26072 -4.22164 0
M  V30 9601 H 873.425 4.32431 -4.81261 0
M  V30 9602 N 873.557 1.20646 1.01402 0
M  V30 9603 C 874.505 0.954493 2.12114 0
M  V30 9604 C 875.499 -0.0950737 1.69133 0
M  V30 9605 O 876.705 0.0555153 1.79914 0
M  V30 9606 H 873.08 0.29135 0.693267 0
M  V30 9607 H 875.051 1.89447 2.30548 0
M  V30 9608 C 873.8 0.525944 3.43699 0
M  V30 9609 H 873.123 1.32516 3.772 0
M  V30 9610 H 874.563 0.388883 4.22213 0
M  V30 9611 C 873.022 -0.761997 3.28169 0
M  V30 9612 O 873.552 -1.81979 3.58115 0
M  V30 9613 N 871.758 -0.725017 2.8141 0
M  V30 9614 H 871.305 0.13607 2.5724 0
M  V30 9615 H 871.263 -1.5871 2.71401 0
M  V30 9616 N 875.035 -1.20752 1.01276 0
M  V30 9617 C 875.983 -2.25432 0.572989 0
M  V30 9618 C 876.977 -1.64935 -0.386354 0
M  V30 9619 O 878.183 -1.7816 -0.256696 0
M  V30 9620 H 874.558 -0.733229 0.166972 0
M  V30 9621 H 876.529 -2.59856 1.46687 0
M  V30 9622 C 875.278 -3.47615 -0.0768249 0
M  V30 9623 H 874.601 -3.94442 0.652354 0
M  V30 9624 H 876.041 -4.22572 -0.3477 0
M  V30 9625 C 874.5 -3.1003 -1.31845 0
M  V30 9626 O 875.03 -3.21216 -2.41211 0
M  V30 9627 N 873.236 -2.64616 -1.20111 0
M  V30 9628 H 872.783 -2.55714 -0.311184 0
M  V30 9629 H 872.741 -2.39838 -2.03286 0
M  V30 9630 N 876.513 -0.788492 -1.36457 0
M  V30 9631 C 877.79 -0.284484 -1.9352 0
M  V30 9632 C 878.17 1.2232 -1.7205 0
M  V30 9633 O 877.518 2.01424 -1.07892 0
M  V30 9634 C 877.728 -0.676106 -3.42388 0
M  V30 9635 C 879.076 -0.655327 -4.19512 0
M  V30 9636 O 880.1 -0.616523 -3.50824 0
M  V30 9637 O 878.959 -0.697391 -5.42032 0
M  V30 9638 H 876.053 -0.0701769 -0.824017 0
M  V30 9639 H 878.599 -0.870974 -1.45644 0
M  V30 9640 H 877.371 -1.71596 -3.51668 0
M  V30 9641 H 876.994 -0.0634517 -3.97549 0
M  V30 9642 N 877.991 1.48044 -0.54043 0
M  V30 9643 C 879.216 2.07396 -0.0124765 0
M  V30 9644 C 879.641 1.39288 1.26414 0
M  V30 9645 O 878.999 0.462252 1.75308 0
M  V30 9646 C 879.047 3.60131 0.18377 0
M  V30 9647 O 878.151 3.92995 1.25014 0
M  V30 9648 H 877.492 0.662554 -0.0438026 0
M  V30 9649 H 880.022 1.90306 -0.751327 0
M  V30 9650 H 880.032 4.06003 0.403197 0
M  V30 9651 H 878.707 4.09105 -0.74874 0
M  V30 9652 H 877.284 3.5889 1.01254 0
M  V30 9653 N 879.47 0.276058 1.55163 0
M  V30 9654 C 880.719 -0.341098 1.98795 0
M  V30 9655 C 881.032 -1.56905 1.16791 0
M  V30 9656 O 882.238 -2.25922 1.50571 0
M  V30 9657 C 880.694 -0.658231 3.5383 0
M  V30 9658 C 880.302 0.549972 4.44611 0
M  V30 9659 C 882.046 -1.23796 4.06048 0
M  V30 9660 C 879.953 0.207373 5.91036 0
M  V30 9661 H 878.883 -0.131224 0.742493 0
M  V30 9662 H 881.534 0.380858 1.79504 0
M  V30 9663 H 879.916 -1.43911 3.68925 0
M  V30 9664 H 881.09 1.32681 4.41285 0
M  V30 9665 H 879.405 1.04661 4.03032 0
M  V30 9666 H 882.002 -1.50811 5.12991 0
M  V30 9667 H 882.345 -2.17214 3.55139 0
M  V30 9668 H 882.878 -0.519345 3.94395 0
M  V30 9669 H 879.617 1.10946 6.46043 0
M  V30 9670 H 879.137 -0.532687 5.9743 0
M  V30 9671 H 880.816 -0.200072 6.46691 0
M  V30 9672 N 880.948 -1.576 0.00335426 0
M  V30 9673 C 881.896 -2.09759 -1.00517 0
M  V30 9674 C 882.89 -1.01833 -1.35375 0
M  V30 9675 O 884.096 -1.20294 -1.339 0
M  V30 9676 H 880.471 -0.669821 -0.341825 0
M  V30 9677 H 882.442 -2.93478 -0.539718 0
M  V30 9678 C 881.191 -2.6189 -2.28711 0
M  V30 9679 H 880.514 -3.44571 -2.02758 0
M  V30 9680 H 881.954 -3.02061 -2.97548 0
M  V30 9681 C 880.413 -1.53455 -2.99922 0
M  V30 9682 O 880.943 -0.919402 -3.91037 0
M  V30 9683 N 879.149 -1.2612 -2.61806 0
M  V30 9684 H 878.696 -1.76329 -1.87792 0
M  V30 9685 H 878.654 -0.537872 -3.09765 0
M  V30 9686 N 882.426 0.269451 -1.5528 0
M  V30 9687 C 883.837 0.840233 -1.66724 0
M  V30 9688 C 884.188 1.86909 -0.596621 0
M  V30 9689 O 883.313 2.14817 0.261246 0
M  V30 9690 C 883.908 1.5308 -3.02245 0
M  V30 9691 C 882.467 2.04957 -3.15705 0
M  V30 9692 C 881.614 0.892838 -2.62533 0
M  V30 9693 H 884.565 0.0457236 -1.58634 0
M  V30 9694 H 884.586 2.39792 -2.95432 0
M  V30 9695 H 884.098 0.781741 -3.80145 0
M  V30 9696 H 882.199 2.82813 -2.42585 0
M  V30 9697 H 882.312 2.26244 -4.22316 0
M  V30 9698 H 880.676 1.28719 -2.19781 0
M  V30 9699 H 881.459 0.157229 -3.4294 0
M  V30 9700 N 883.904 1.48273 0.534124 0
M  V30 9701 C 885.315 1.49667 1.1161 0
M  V30 9702 C 885.666 0.264139 1.94414 0
M  V30 9703 O 884.791 -0.629084 2.07054 0
M  V30 9704 C 885.386 2.71191 2.03079 0
M  V30 9705 C 883.945 2.7547 2.56502 0
M  V30 9706 C 883.092 2.43119 1.33373 0
M  V30 9707 H 886.043 1.55449 0.319578 0
M  V30 9708 H 886.064 2.49473 2.87304 0
M  V30 9709 H 885.576 3.60879 1.42785 0
M  V30 9710 H 883.677 1.89979 3.20529 0
M  V30 9711 H 883.79 3.76787 2.95919 0
M  V30 9712 H 882.154 1.94187 1.64813 0
M  V30 9713 H 882.937 3.35044 0.748375 0
M  V30 9714 N 885.382 -0.782676 1.36792 0
M  V30 9715 C 886.329 -1.89558 1.31667 0
M  V30 9716 C 887.299 -1.65076 0.184147 0
M  V30 9717 O 888.484 -1.87143 0.371753 0
M  V30 9718 C 885.624 -3.26469 1.11858 0
M  V30 9719 C 884.737 -3.62978 2.34245 0
M  V30 9720 C 883.872 -4.89041 2.07394 0
M  V30 9721 C 882.911 -5.18249 3.25706 0
M  V30 9722 N 882.048 -6.35497 2.98476 0
M  V30 9723 H 886.888 -1.93274 2.26824 0
M  V30 9724 H 884.425 -0.945057 1.12726 0
M  V30 9725 H 886.383 -4.05431 0.983968 0
M  V30 9726 H 885.013 -3.22158 0.203531 0
M  V30 9727 H 884.065 -2.79087 2.58485 0
M  V30 9728 H 885.377 -3.80507 3.22514 0
M  V30 9729 H 884.531 -5.75883 1.90901 0
M  V30 9730 H 883.27 -4.73594 1.16446 0
M  V30 9731 H 882.275 -4.29887 3.4275 0
M  V30 9732 H 883.5 -5.35611 4.1749 0
M  V30 9733 H 881.446 -6.21429 2.10146 0
M  V30 9734 H 881.363 -6.5339 3.80286 0
M  V30 9735 H 882.631 -7.25304 2.85577 0
M  V30 9736 N 886.86 -1.21182 -1.00761 0
M  V30 9737 C 888.109 -1.02166 -1.73911 0
M  V30 9738 C 888.422 0.445638 -1.90456 0
M  V30 9739 O 889.628 0.755132 -2.60787 0
M  V30 9740 C 888.084 -1.77936 -3.12837 0
M  V30 9741 C 887.692 -3.28819 -3.04273 0
M  V30 9742 C 889.436 -1.67319 -3.90134 0
M  V30 9743 C 887.343 -3.97089 -4.38262 0
M  V30 9744 H 886.273 -0.378665 -0.652019 0
M  V30 9745 H 888.924 -1.44891 -1.12601 0
M  V30 9746 H 887.306 -1.28003 -3.74742 0
M  V30 9747 H 888.48 -3.86035 -2.51622 0
M  V30 9748 H 886.795 -3.39949 -2.40465 0
M  V30 9749 H 889.392 -2.15659 -4.8928 0
M  V30 9750 H 889.735 -0.630959 -4.11491 0
M  V30 9751 H 890.268 -2.14716 -3.34876 0
M  V30 9752 H 887.007 -5.01503 -4.22107 0
M  V30 9753 H 886.527 -3.44662 -4.90885 0
M  V30 9754 H 888.206 -4.01854 -5.07072 0
M  V30 9755 N 888.338 1.20213 -1.01915 0
M  V30 9756 C 889.587 1.88968 -0.705261 0
M  V30 9757 C 889.9 1.79869 0.768531 0
M  V30 9758 O 891.106 2.43783 1.19508 0
M  V30 9759 C 889.562 3.38911 -1.21109 0
M  V30 9760 C 889.17 3.5659 -2.71197 0
M  V30 9761 C 890.914 4.13204 -0.97275 0
M  V30 9762 C 888.821 5.00372 -3.15248 0
M  V30 9763 H 887.751 0.707715 -0.260107 0
M  V30 9764 H 890.402 1.35977 -1.23217 0
M  V30 9765 H 888.784 3.9124 -0.612152 0
M  V30 9766 H 889.958 3.14635 -3.36662 0
M  V30 9767 H 888.273 2.95671 -2.93202 0
M  V30 9768 H 890.87 5.19221 -1.27726 0
M  V30 9769 H 891.213 4.16201 0.09072 0
M  V30 9770 H 891.746 3.66983 -1.5352 0
M  V30 9771 H 888.485 5.02532 -4.20882 0
M  V30 9772 H 888.005 5.43127 -2.54505 0
M  V30 9773 H 889.684 5.68969 -3.08032 0
M  V30 9774 N 889.816 0.795718 1.36037 0
M  V30 9775 C 890.726 0.199784 2.33748 0
M  V30 9776 C 891.742 -0.651436 1.61345 0
M  V30 9777 O 892.918 -0.565743 1.93291 0
M  V30 9778 C 889.983 -0.650475 3.40543 0
M  V30 9779 C 889.044 0.219974 4.28736 0
M  V30 9780 C 888.277 -0.589798 5.30431 0
M  V30 9781 O 888.5 -1.82532 5.40406 0
M  V30 9782 O 887.434 0.0136187 6.01898 0
M  V30 9783 H 891.26 1.00782 2.8649 0
M  V30 9784 H 888.845 0.557293 1.38617 0
M  V30 9785 H 890.727 -1.13512 4.05824 0
M  V30 9786 H 889.402 -1.4363 2.9009 0
M  V30 9787 H 888.309 0.751516 3.66474 0
M  V30 9788 H 889.642 0.969468 4.82558 0
M  V30 9789 N 891.294 -1.47756 0.548274 0
M  V30 9790 C 892.204 -2.33678 -0.207773 0
M  V30 9791 C 893.22 -1.47636 -0.920843 0
M  V30 9792 O 894.396 -1.80583 -0.89173 0
M  V30 9793 C 891.461 -3.24147 -1.23003 0
M  V30 9794 C 890.522 -4.26073 -0.52535 0
M  V30 9795 C 889.755 -5.12219 -1.4989 0
M  V30 9796 O 889.978 -5.0066 -2.73305 0
M  V30 9797 O 888.912 -5.93051 -1.02828 0
M  V30 9798 H 892.738 -2.99609 0.496794 0
M  V30 9799 H 890.323 -1.4617 0.308982 0
M  V30 9800 H 892.205 -3.80055 -1.82034 0
M  V30 9801 H 890.88 -2.60855 -1.91668 0
M  V30 9802 H 889.787 -3.7395 0.105927 0
M  V30 9803 H 891.12 -4.92054 0.119686 0
M  V30 9804 N 892.772 -0.284283 -1.55015 0
M  V30 9805 C 894.002 0.332465 -2.03907 0
M  V30 9806 C 894.41 1.49331 -1.16177 0
M  V30 9807 O 893.753 1.82851 -0.176395 0
M  V30 9808 C 893.815 0.867193 -3.48884 0
M  V30 9809 C 893.479 -0.166198 -4.56698 0
M  V30 9810 C 894.476 -0.988898 -5.10408 0
M  V30 9811 C 892.161 -0.303081 -5.01385 0
M  V30 9812 C 894.155 -1.93458 -6.07333 0
M  V30 9813 C 891.842 -1.25223 -5.98133 0
M  V30 9814 C 892.84 -2.06647 -6.50988 0
M  V30 9815 O 892.528 -2.99955 -7.45843 0
M  V30 9816 H 892.26 0.0786597 -0.671408 0
M  V30 9817 H 894.814 -0.416871 -2.01125 0
M  V30 9818 H 893.044 1.66676 -3.48935 0
M  V30 9819 H 894.733 1.39802 -3.81065 0
M  V30 9820 H 895.499 -0.89393 -4.76691 0
M  V30 9821 H 891.378 0.320711 -4.59883 0
M  V30 9822 H 894.922 -2.57053 -6.48513 0
M  V30 9823 H 890.819 -1.34798 -6.31268 0
M  V30 9824 H 891.587 -2.94742 -7.6359 0
M  V30 9825 N 894.251 1.57596 -0.0117121 0
M  V30 9826 C 895.497 1.91355 0.671661 0
M  V30 9827 C 895.83 0.886818 1.72769 0
M  V30 9828 O 895.105 -0.0928813 1.94278 0
M  V30 9829 C 895.388 3.35657 1.30409 0
M  V30 9830 C 895.241 4.49055 0.2588 0
M  V30 9831 C 896.56 3.79595 2.22701 0
M  V30 9832 H 893.679 0.695893 0.242698 0
M  V30 9833 H 896.321 1.89887 -0.0654071 0
M  V30 9834 H 894.471 3.37038 1.9323 0
M  V30 9835 H 896.143 4.59809 -0.370631 0
M  V30 9836 H 894.386 4.31785 -0.417672 0
M  V30 9837 H 895.057 5.4701 0.740578 0
M  V30 9838 H 897.533 3.7984 1.69885 0
M  V30 9839 H 896.409 4.81292 2.63912 0
M  V30 9840 H 896.67 3.14118 3.11098 0
M  V30 9841 N 895.729 -0.261212 1.5542 0
M  V30 9842 C 896.959 -1.00769 1.80358 0
M  V30 9843 C 897.367 -1.79991 0.583085 0
M  V30 9844 O 896.71 -1.77911 -0.457534 0
M  V30 9845 C 896.772 -2.00463 2.9842 0
M  V30 9846 C 896.436 -1.4007 4.35005 0
M  V30 9847 C 897.433 -0.810388 5.13545 0
M  V30 9848 C 895.118 -1.42436 4.81682 0
M  V30 9849 C 897.112 -0.251784 6.36903 0
M  V30 9850 C 894.799 -0.861897 6.04991 0
M  V30 9851 C 895.797 -0.276622 6.8244 0
M  V30 9852 O 895.485 0.277194 8.03422 0
M  V30 9853 H 895.217 -0.302839 0.604371 0
M  V30 9854 H 897.771 -0.293763 2.03288 0
M  V30 9855 H 896.001 -2.75648 2.71211 0
M  V30 9856 H 897.69 -2.61336 3.10577 0
M  V30 9857 H 898.456 -0.784719 4.7861 0
M  V30 9858 H 894.335 -1.8693 4.214 0
M  V30 9859 H 897.879 0.205678 6.97297 0
M  V30 9860 H 893.776 -0.884846 6.39407 0
M  V30 9861 H 894.544 0.167682 8.18328 0
M  V30 9862 N 897.207 -1.48554 -0.526253 0
M  V30 9863 C 898.117 -1.66044 -1.65731 0
M  V30 9864 C 899.133 -0.542951 -1.65312 0
M  V30 9865 O 900.309 -0.814495 -1.84195 0
M  V30 9866 C 897.374 -1.69959 -3.02184 0
M  V30 9867 C 896.435 -2.93362 -3.13428 0
M  V30 9868 C 895.668 -2.97081 -4.43372 0
M  V30 9869 O 895.891 -2.09103 -5.3069 0
M  V30 9870 O 894.825 -3.8929 -4.59061 0
M  V30 9871 H 898.651 -2.61811 -1.53912 0
M  V30 9872 H 896.236 -1.31999 -0.699759 0
M  V30 9873 H 898.118 -1.75033 -3.83329 0
M  V30 9874 H 896.793 -0.773658 -3.14319 0
M  V30 9875 H 895.7 -2.93818 -2.31564 0
M  V30 9876 H 897.033 -3.85352 -3.06211 0
M  V30 9877 N 898.685 0.775411 -1.37205 0
M  V30 9878 C 899.934 1.52909 -1.31536 0
M  V30 9879 C 900.247 1.9535 0.0989374 0
M  V30 9880 O 901.453 2.70072 0.278079 0
M  V30 9881 C 899.909 2.761 -2.30861 0
M  V30 9882 C 899.517 2.40773 -3.77799 0
M  V30 9883 C 901.261 3.54052 -2.34195 0
M  V30 9884 C 899.168 3.60444 -4.68865 0
M  V30 9885 H 898.098 0.574061 -0.488845 0
M  V30 9886 H 900.749 0.849642 -1.62645 0
M  V30 9887 H 899.131 3.45916 -1.92764 0
M  V30 9888 H 900.305 1.78764 -4.24712 0
M  V30 9889 H 898.62 1.76004 -3.77375 0
M  V30 9890 H 901.217 4.42992 -2.99437 0
M  V30 9891 H 901.56 3.93649 -1.35449 0
M  V30 9892 H 902.093 2.91229 -2.7098 0
M  V30 9893 H 898.832 3.25932 -5.68725 0
M  V30 9894 H 898.352 4.21571 -4.26659 0
M  V30 9895 H 900.031 4.27302 -4.85821 0
M  V30 9896 N 900.163 1.21714 1.00117 0
M  V30 9897 C 901.41 1.0367 1.73951 0
M  V30 9898 C 901.738 -0.429289 1.89703 0
M  V30 9899 O 900.993 -1.33475 1.43119 0
M  V30 9900 C 901.292 1.68345 3.15269 0
M  V30 9901 C 900.958 3.18214 3.19454 0
M  V30 9902 C 899.62 3.59109 3.20303 0
M  V30 9903 C 901.972 4.14179 3.16394 0
M  V30 9904 C 899.3 4.94467 3.15783 0
M  V30 9905 C 901.652 5.49502 3.13416 0
M  V30 9906 C 900.316 5.8979 3.12577 0
M  V30 9907 H 899.586 0.379355 0.63653 0
M  V30 9908 H 902.233 1.51361 1.17312 0
M  V30 9909 H 900.538 1.12957 3.75164 0
M  V30 9910 H 902.235 1.51882 3.71124 0
M  V30 9911 H 898.825 2.85646 3.19538 0
M  V30 9912 H 903.009 3.83607 3.14895 0
M  V30 9913 H 898.265 5.24923 3.13473 0
M  V30 9914 H 902.439 6.23595 3.10003 0
M  V30 9915 H 900.066 6.94643 3.08829 0
M  V30 9916 N 901.641 -1.19671 1.02551 0
M  V30 9917 C 902.551 -2.26441 0.613329 0
M  V30 9918 C 903.567 -1.70375 -0.353339 0
M  V30 9919 O 904.743 -2.0028 -0.212064 0
M  V30 9920 C 901.808 -3.46684 -0.0329028 0
M  V30 9921 C 900.869 -4.17945 0.980837 0
M  V30 9922 C 900.102 -5.32448 0.36535 0
M  V30 9923 O 900.325 -5.64291 -0.832596 0
M  V30 9924 O 899.259 -5.92012 1.08652 0
M  V30 9925 H 903.085 -2.63932 1.50246 0
M  V30 9926 H 900.67 -1.2646 0.795502 0
M  V30 9927 H 902.552 -4.1956 -0.393395 0
M  V30 9928 H 901.227 -3.1105 -0.896089 0
M  V30 9929 H 900.134 -3.47204 1.39286 0
M  V30 9930 H 901.467 -4.57542 1.81428 0
M  V30 9931 N 903.119 -0.802921 -1.35613 0
M  V30 9932 C 904.366 -0.381576 -1.98872 0
M  V30 9933 C 904.694 1.0503 -1.63704 0
M  V30 9934 O 903.949 1.7427 -0.890418 0
M  V30 9935 C 904.248 -0.507806 -3.53774 0
M  V30 9936 C 903.914 -1.90245 -4.088 0
M  V30 9937 C 902.576 -2.28401 -4.2354 0
M  V30 9938 C 904.928 -2.81504 -4.3864 0
M  V30 9939 C 902.256 -3.57192 -4.65436 0
M  V30 9940 C 904.608 -4.09737 -4.81973 0
M  V30 9941 C 903.272 -4.47897 -4.94919 0
M  V30 9942 H 902.542 -0.139629 -0.727726 0
M  V30 9943 H 905.189 -1.023 -1.61886 0
M  V30 9944 H 903.494 0.21708 -3.91198 0
M  V30 9945 H 905.191 -0.162625 -4.0067 0
M  V30 9946 H 901.781 -1.596 -3.97776 0
M  V30 9947 H 905.965 -2.53276 -4.26808 0
M  V30 9948 H 901.221 -3.86611 -4.73648 0
M  V30 9949 H 905.395 -4.80555 -5.04024 0
M  V30 9950 H 903.022 -5.47747 -5.27141 0
M  V30 9951 N 904.597 1.47463 -0.556102 0
M  V30 9952 C 905.845 2.02075 -0.0315712 0
M  V30 9953 C 906.166 1.43292 1.32259 0
M  V30 9954 O 905.436 0.60771 1.86236 0
M  V30 9955 H 904.016 0.74695 -0.0086816 0
M  V30 9956 H 906.678 1.80879 -0.725859 0
M  V30 9957 H 905.774 3.12047 0.0573538 0
M  V30 9958 N 906.075 0.2925 1.54862 0
M  V30 9959 C 907.303 -0.322113 2.04377 0
M  V30 9960 C 907.718 -1.48164 1.17016 0
M  V30 9961 O 907.075 -1.81466 0.19395 0
M  V30 9962 C 907.126 -0.786506 3.5284 0
M  V30 9963 O 906.847 0.326863 4.36879 0
M  V30 9964 C 908.348 -1.46715 4.18318 0
M  V30 9965 H 905.568 -0.0712074 0.667211 0
M  V30 9966 H 908.112 0.429657 1.99935 0
M  V30 9967 H 906.267 -1.48832 3.5767 0
M  V30 9968 H 906.681 -0.0331558 5.2449 0
M  V30 9969 H 908.155 -1.74333 5.23748 0
M  V30 9970 H 908.632 -2.40443 3.67538 0
M  V30 9971 H 909.238 -0.808735 4.1754 0
M  V30 9972 N 907.553 -1.57587 0.0200696 0
M  V30 9973 C 908.5 -2.09667 -0.964791 0
M  V30 9974 C 909.47 -0.99664 -1.32877 0
M  V30 9975 O 910.655 -1.2703 -1.42366 0
M  V30 9976 C 907.795 -2.62101 -2.24493 0
M  V30 9977 C 906.908 -3.8608 -1.93821 0
M  V30 9978 C 906.043 -4.26939 -3.16064 0
M  V30 9979 C 905.082 -5.43701 -2.81169 0
M  V30 9980 N 904.219 -5.79759 -3.9601 0
M  V30 9981 H 909.059 -2.93538 -0.513751 0
M  V30 9982 H 906.596 -1.45096 -0.242 0
M  V30 9983 H 908.554 -2.90587 -2.99358 0
M  V30 9984 H 907.184 -1.81074 -2.6723 0
M  V30 9985 H 906.236 -3.64378 -1.09237 0
M  V30 9986 H 907.548 -4.71028 -1.64115 0
M  V30 9987 H 906.702 -4.56814 -3.99257 0
M  V30 9988 H 905.441 -3.40739 -3.48924 0
M  V30 9989 H 904.446 -5.13529 -1.96387 0
M  V30 9990 H 905.671 -6.31593 -2.49535 0
M  V30 9991 H 903.617 -4.96516 -4.28729 0
M  V30 9992 H 903.534 -6.59327 -3.69896 0
M  V30 9993 H 904.802 -6.14235 -4.79933 0
M  V30 9994 N 909.032 0.252966 -1.55557 0
M  V30 9995 C 909.964 1.33585 -1.86246 0
M  V30 9996 C 910.977 1.44584 -0.748291 0
M  V30 9997 O 912.166 1.46042 -1.02635 0
M  V30 9998 C 909.266 2.71509 -2.02821 0
M  V30 9999 C 908.439 2.82853 -3.33636 0
M  V30 10000 C 907.498 4.01581 -3.40028 0
M  V30 10001 O 906.524 3.91394 -4.13278 0
M  V30 10002 N 907.726 5.14474 -2.6888 0
M  V30 10003 H 910.491 1.07596 -2.7972 0
M  V30 10004 H 908.052 0.443075 -1.55719 0
M  V30 10005 H 910.044 3.49262 -2.04445 0
M  V30 10006 H 908.614 2.90232 -1.1612 0
M  V30 10007 H 907.834 1.91823 -3.4438 0
M  V30 10008 H 909.122 2.87378 -4.19871 0
M  V30 10009 H 908.52 5.25641 -2.09087 0
M  V30 10010 H 907.077 5.90385 -2.76204 0
M  V30 10011 N 910.51 1.48831 0.518367 0
M  V30 10012 C 911.442 1.60317 1.63802 0
M  V30 10013 C 912.455 0.486771 1.55352 0
M  V30 10014 O 913.644 0.758111 1.61601 0
M  V30 10015 C 910.744 1.52771 3.02513 0
M  V30 10016 C 909.917 2.79649 3.36326 0
M  V30 10017 C 908.976 2.65396 4.54369 0
M  V30 10018 O 908.002 3.39304 4.57013 0
M  V30 10019 N 909.204 1.75784 5.53245 0
M  V30 10020 H 911.969 2.56878 1.54383 0
M  V30 10021 H 909.53 1.45701 0.705889 0
M  V30 10022 H 911.522 1.40914 3.79375 0
M  V30 10023 H 910.092 0.641381 3.05949 0
M  V30 10024 H 909.312 3.05985 2.48529 0
M  V30 10025 H 910.6 3.63799 3.55707 0
M  V30 10026 H 909.998 1.14961 5.53896 0
M  V30 10027 H 908.555 1.69859 6.29278 0
M  V30 10028 N 911.988 -0.768124 1.37614 0
M  V30 10029 C 912.935 -1.88151 1.33671 0
M  V30 10030 C 913.905 -1.64871 0.201645 0
M  V30 10031 O 915.09 -1.86739 0.391582 0
M  V30 10032 C 912.23 -3.25264 1.15314 0
M  V30 10033 C 911.343 -3.60473 2.38082 0
M  V30 10034 C 910.478 -4.86814 2.12569 0
M  V30 10035 C 909.517 -5.14765 3.31184 0
M  V30 10036 N 908.654 -6.32295 3.052 0
M  V30 10037 H 913.494 -1.90857 2.28862 0
M  V30 10038 H 911.031 -0.933048 1.13722 0
M  V30 10039 H 912.989 -4.04364 1.02691 0
M  V30 10040 H 911.619 -3.21924 0.237689 0
M  V30 10041 H 910.671 -2.7633 2.61431 0
M  V30 10042 H 911.983 -3.77065 3.26532 0
M  V30 10043 H 911.137 -5.73826 1.96999 0
M  V30 10044 H 909.876 -4.72333 1.21462 0
M  V30 10045 H 908.881 -4.26227 3.4729 0
M  V30 10046 H 910.106 -5.31153 4.23147 0
M  V30 10047 H 908.052 -6.19166 2.16726 0
M  V30 10048 H 907.969 -6.4932 3.87195 0
M  V30 10049 H 909.237 -7.22234 2.93254 0
M  V30 10050 N 913.466 -1.22244 -0.994698 0
M  V30 10051 C 914.712 -1.04746 -1.73655 0
M  V30 10052 C 915.045 0.41668 -1.89677 0
M  V30 10053 O 914.32 1.30897 -1.43862 0
M  V30 10054 C 914.603 -1.75716 -3.14318 0
M  V30 10055 C 914.456 -3.29714 -3.05955 0
M  V30 10056 C 915.775 -1.50809 -4.13455 0
M  V30 10057 H 912.894 -0.381921 -0.630322 0
M  V30 10058 H 915.536 -1.50559 -1.15897 0
M  V30 10059 H 913.686 -1.3677 -3.63629 0
M  V30 10060 H 915.358 -3.78093 -2.64279 0
M  V30 10061 H 913.601 -3.59484 -2.42804 0
M  V30 10062 H 914.272 -3.74547 -4.05485 0
M  V30 10063 H 916.748 -1.84636 -3.72892 0
M  V30 10064 H 915.624 -2.02964 -5.09997 0
M  V30 10065 H 915.885 -0.440292 -4.39902 0
M  V30 10066 N 914.944 1.19125 -1.03184 0
M  V30 10067 C 915.891 2.2245 -0.6152 0
M  V30 10068 C 916.861 1.61869 0.372502 0
M  V30 10069 O 918.046 1.88901 0.268491 0
M  V30 10070 C 915.186 3.45091 0.0248027 0
M  V30 10071 C 914.299 4.20044 -1.0093 0
M  V30 10072 C 913.434 5.30119 -0.338744 0
M  V30 10073 C 912.473 5.96833 -1.35855 0
M  V30 10074 N 911.61 6.98464 -0.713594 0
M  V30 10075 H 916.45 2.57445 -1.50086 0
M  V30 10076 H 913.987 1.26485 -0.751005 0
M  V30 10077 H 915.945 4.15149 0.413131 0
M  V30 10078 H 914.575 3.10742 0.874028 0
M  V30 10079 H 913.627 3.48901 -1.51566 0
M  V30 10080 H 914.939 4.65796 -1.78425 0
M  V30 10081 H 914.093 6.0661 0.104269 0
M  V30 10082 H 912.832 4.85446 0.468382 0
M  V30 10083 H 911.837 5.1909 -1.81179 0
M  V30 10084 H 913.062 6.4359 -2.16722 0
M  V30 10085 H 911.008 6.55959 0.0733863 0
M  V30 10086 H 910.925 7.42422 -1.42638 0
M  V30 10087 H 912.193 7.78943 -0.294681 0
M  V30 10088 N 916.422 0.810101 1.35185 0
M  V30 10089 C 917.385 0.22852 2.28058 0
M  V30 10090 C 918.385 -0.586168 1.49735 0
M  V30 10091 O 919.575 -0.40414 1.69447 0
M  V30 10092 C 916.707 -0.681041 3.34028 0
M  V30 10093 H 917.9 1.04768 2.81005 0
M  V30 10094 H 915.453 0.58101 1.451 0
M  V30 10095 H 916.188 -1.52375 2.86273 0
M  V30 10096 H 915.973 -0.0985276 3.91976 0
M  V30 10097 H 917.463 -1.08217 4.03335 0
M  V30 10098 N 917.9 -1.47166 0.563914 0
M  V30 10099 C 918.83 -2.32894 -0.168148 0
M  V30 10100 C 919.811 -1.44202 -0.902214 0
M  V30 10101 O 920.996 -1.73048 -0.881365 0
M  V30 10102 C 918.126 -3.26116 -1.19439 0
M  V30 10103 C 917.08 -4.24101 -0.576363 0
M  V30 10104 C 916.406 -5.06696 -1.70772 0
M  V30 10105 C 917.706 -5.20142 0.47425 0
M  V30 10106 H 919.4 -2.9435 0.547573 0
M  V30 10107 H 916.946 -1.41545 0.264778 0
M  V30 10108 H 918.899 -3.84935 -1.71474 0
M  V30 10109 H 917.623 -2.62728 -1.94014 0
M  V30 10110 H 916.282 -3.66519 -0.0772534 0
M  V30 10111 H 915.93 -4.39707 -2.44268 0
M  V30 10112 H 915.63 -5.7304 -1.29994 0
M  V30 10113 H 917.154 -5.68375 -2.2312 0
M  V30 10114 H 918.568 -5.73286 0.0397035 0
M  V30 10115 H 916.965 -5.94726 0.801287 0
M  V30 10116 H 918.035 -4.65214 1.36764 0
M  V30 10117 N 919.378 -0.300708 -1.54705 0
M  V30 10118 C 920.308 0.568675 -2.26469 0
M  V30 10119 C 921.289 1.13817 -1.26411 0
M  V30 10120 O 922.474 1.16756 -1.55183 0
M  V30 10121 C 919.604 1.74077 -3.00524 0
M  V30 10122 C 918.558 1.30165 -4.07727 0
M  V30 10123 C 917.884 2.55888 -4.69495 0
M  V30 10124 C 919.184 0.433106 -5.20501 0
M  V30 10125 H 920.878 -0.0298851 -2.99385 0
M  V30 10126 H 918.424 -0.0158135 -1.43991 0
M  V30 10127 H 920.377 2.35506 -3.49449 0
M  V30 10128 H 919.101 2.36556 -2.25186 0
M  V30 10129 H 917.76 0.710414 -3.59651 0
M  V30 10130 H 917.408 3.16681 -3.90797 0
M  V30 10131 H 917.108 2.27207 -5.41895 0
M  V30 10132 H 918.632 3.18121 -5.21183 0
M  V30 10133 H 920.046 0.95307 -5.65322 0
M  V30 10134 H 918.443 0.240085 -5.9962 0
M  V30 10135 H 919.513 -0.541866 -4.81863 0
M  V30 10136 N 920.856 1.57574 -0.0284266 0
M  V30 10137 C 921.788 2.07079 0.982391 0
M  V30 10138 C 922.801 0.994078 1.28926 0
M  V30 10139 O 923.99 1.27028 1.25404 0
M  V30 10140 C 921.09 2.47978 2.30998 0
M  V30 10141 C 920.263 3.7872 2.18838 0
M  V30 10142 C 919.322 4.06177 3.34524 0
M  V30 10143 O 918.348 4.76438 3.11441 0
M  V30 10144 N 919.55 3.56297 4.58293 0
M  V30 10145 H 922.315 2.94421 0.560011 0
M  V30 10146 H 919.876 1.61124 0.158347 0
M  V30 10147 H 921.868 2.63439 3.07216 0
M  V30 10148 H 920.438 1.66005 2.64879 0
M  V30 10149 H 919.658 3.73062 1.27351 0
M  V30 10150 H 920.946 4.6438 2.07915 0
M  V30 10151 H 920.344 2.99453 4.79942 0
M  V30 10152 H 918.901 3.77038 5.31682 0
M  V30 10153 N 922.334 -0.244713 1.55689 0
M  V30 10154 C 923.264 -1.30667 1.93516 0
M  V30 10155 C 924.245 -1.50094 0.800371 0
M  V30 10156 O 925.43 -1.62665 1.06083 0
M  V30 10157 C 922.56 -2.66101 2.23176 0
M  V30 10158 C 921.514 -2.61366 3.38927 0
M  V30 10159 C 920.84 -4.00616 3.54134 0
M  V30 10160 C 922.14 -2.18161 4.74555 0
M  V30 10161 H 923.834 -0.992546 2.82469 0
M  V30 10162 H 921.38 -0.476018 1.35905 0
M  V30 10163 H 923.333 -3.4053 2.48228 0
M  V30 10164 H 922.057 -2.99154 1.31051 0
M  V30 10165 H 920.716 -1.89395 3.13887 0
M  V30 10166 H 920.364 -4.30938 2.59426 0
M  V30 10167 H 920.064 -3.98335 4.31975 0
M  V30 10168 H 921.588 -4.76741 3.8151 0
M  V30 10169 H 923.002 -2.82323 4.98965 0
M  V30 10170 H 921.399 -2.26988 5.55515 0
M  V30 10171 H 922.469 -1.13333 4.7147 0
M  V30 10172 N 923.813 -1.49104 -0.510467 0
M  V30 10173 C 925.038 -1.62068 -1.29417 0
M  V30 10174 C 925.463 -0.288432 -1.85875 0
M  V30 10175 O 924.821 0.742667 -1.65391 0
M  V30 10176 C 924.869 -2.68506 -2.40701 0
M  V30 10177 O 923.973 -2.27021 -3.4429 0
M  V30 10178 H 923.314 -0.542778 -0.382476 0
M  V30 10179 H 925.844 -1.95228 -0.612154 0
M  V30 10180 H 925.854 -2.90383 -2.86604 0
M  V30 10181 H 924.529 -3.65216 -1.98973 0
M  V30 10182 H 923.106 -2.15436 -3.04371 0
M  V30 10183 N 925.291 0.760815 -1.38019 0
M  V30 10184 C 926.521 1.54776 -1.3685 0
M  V30 10185 C 926.929 1.89146 0.0453971 0
M  V30 10186 O 926.272 1.52746 1.0205 0
M  V30 10187 C 926.334 2.87923 -2.15269 0
M  V30 10188 C 925.998 2.76131 -3.64144 0
M  V30 10189 C 926.995 2.46417 -4.57794 0
M  V30 10190 C 924.68 2.9381 -4.07408 0
M  V30 10191 C 926.674 2.34525 -5.92686 0
M  V30 10192 C 924.361 2.81539 -5.42383 0
M  V30 10193 C 925.359 2.51938 -6.34836 0
M  V30 10194 O 925.047 2.39713 -7.67329 0
M  V30 10195 H 924.779 0.485776 -0.470104 0
M  V30 10196 H 927.333 0.949939 -1.82113 0
M  V30 10197 H 925.563 3.49867 -1.64712 0
M  V30 10198 H 927.252 3.49389 -2.06596 0
M  V30 10199 H 928.018 2.32433 -4.25676 0
M  V30 10200 H 923.897 3.15849 -3.35799 0
M  V30 10201 H 927.441 2.11342 -6.64816 0
M  V30 10202 H 923.338 2.95093 -5.741 0
M  V30 10203 H 924.106 2.5498 -7.77771 0
M  V30 10204 N 926.769 1.22769 0.988202 0
M  V30 10205 C 927.717 0.999271 2.10041 0
M  V30 10206 C 928.711 -0.0591767 1.69297 0
M  V30 10207 O 929.917 0.0936653 1.79756 0
M  V30 10208 H 926.292 0.30599 0.686931 0
M  V30 10209 H 928.263 1.94294 2.26478 0
M  V30 10210 C 927.012 0.59873 3.42506 0
M  V30 10211 H 926.335 1.40487 3.74304 0
M  V30 10212 H 927.775 0.478353 4.21293 0
M  V30 10213 C 926.234 -0.692216 3.29712 0
M  V30 10214 O 926.764 -1.74342 3.61895 0
M  V30 10215 N 924.97 -0.665163 2.82885 0
M  V30 10216 H 924.517 0.190604 2.56894 0
M  V30 10217 H 924.475 -1.52917 2.74706 0
M  V30 10218 N 928.247 -1.18576 1.03814 0
M  V30 10219 C 929.194 -2.2212 0.626988 0
M  V30 10220 C 930.164 -1.62064 -0.363912 0
M  V30 10221 O 931.349 -1.89041 -0.258469 0
M  V30 10222 C 928.489 -3.45099 -0.00650133 0
M  V30 10223 C 927.602 -4.19503 1.03156 0
M  V30 10224 C 926.737 -5.29932 0.366852 0
M  V30 10225 C 925.776 -5.96104 1.39018 0
M  V30 10226 N 924.913 -6.98076 0.750625 0
M  V30 10227 H 929.753 -2.56646 1.51449 0
M  V30 10228 H 927.29 -1.26084 0.757702 0
M  V30 10229 H 929.248 -4.15363 -0.391108 0
M  V30 10230 H 927.878 -3.11201 -0.857536 0
M  V30 10231 H 926.93 -3.48092 1.53414 0
M  V30 10232 H 928.242 -4.64843 1.80893 0
M  V30 10233 H 927.396 -6.06657 -0.0720979 0
M  V30 10234 H 926.135 -4.85687 -0.442631 0
M  V30 10235 H 925.14 -5.18122 1.8393 0
M  V30 10236 H 926.365 -6.42432 2.20132 0
M  V30 10237 H 924.311 -6.55989 -0.0385981 0
M  V30 10238 H 924.228 -7.41655 1.46574 0
M  V30 10239 H 925.496 -7.78776 0.335986 0
M  V30 10240 N 929.725 -0.817259 -1.34754 0
M  V30 10241 C 930.95 -0.414423 -2.03217 0
M  V30 10242 C 931.375 0.970037 -1.61158 0
M  V30 10243 O 930.733 1.63016 -0.793436 0
M  V30 10244 C 930.781 -0.518087 -3.56859 0
M  V30 10245 O 929.885 0.464314 -4.09778 0
M  V30 10246 H 929.226 -0.171454 -0.641482 0
M  V30 10247 H 931.756 -1.10611 -1.72123 0
M  V30 10248 H 931.766 -0.391779 -4.06115 0
M  V30 10249 H 930.441 -1.52786 -3.86819 0
M  V30 10250 H 929.018 0.297361 -3.71712 0
M  V30 10251 N 931.203 1.46865 -0.571711 0
M  V30 10252 C 932.133 2.3298 0.155795 0
M  V30 10253 C 933.114 1.44678 0.894553 0
M  V30 10254 O 934.299 1.73513 0.872176 0
M  V30 10255 C 931.429 3.26745 1.17708 0
M  V30 10256 C 930.383 4.24401 0.553863 0
M  V30 10257 C 929.709 5.07595 1.68083 0
M  V30 10258 C 931.009 5.19884 -0.501827 0
M  V30 10259 H 932.703 2.94056 -0.563176 0
M  V30 10260 H 930.249 1.41402 -0.27228 0
M  V30 10261 H 932.202 3.85838 1.6943 0
M  V30 10262 H 930.926 2.63753 1.92618 0
M  V30 10263 H 929.585 3.66554 0.057815 0
M  V30 10264 H 929.233 4.40996 2.41933 0
M  V30 10265 H 928.933 5.73722 1.26953 0
M  V30 10266 H 930.457 5.6955 2.20103 0
M  V30 10267 H 931.871 5.73257 -0.0701057 0
M  V30 10268 H 930.268 5.94293 -0.832815 0
M  V30 10269 H 931.338 4.64482 -1.39229 0
M  V30 10270 N 932.681 0.308908 1.54543 0
M  V30 10271 C 933.911 -0.299983 2.04411 0
M  V30 10272 C 934.319 -1.47463 1.18538 0
M  V30 10273 O 933.662 -1.82547 0.205463 0
M  V30 10274 C 933.724 -0.811579 3.50219 0
M  V30 10275 C 933.388 0.238834 4.56375 0
M  V30 10276 C 934.385 1.06997 5.08771 0
M  V30 10277 C 932.07 0.382808 5.00839 0
M  V30 10278 C 934.064 2.03096 6.04178 0
M  V30 10279 C 931.751 1.34723 5.96065 0
M  V30 10280 C 932.749 2.16978 6.47618 0
M  V30 10281 O 932.437 3.11783 7.40977 0
M  V30 10282 H 932.169 -0.0679682 0.672574 0
M  V30 10283 H 934.723 0.448815 2.00437 0
M  V30 10284 H 932.953 -1.61104 3.51543 0
M  V30 10285 H 934.642 -1.33721 3.83241 0
M  V30 10286 H 935.408 0.969654 4.75208 0
M  V30 10287 H 931.287 -0.247507 4.60335 0
M  V30 10288 H 934.831 2.67338 6.44342 0
M  V30 10289 H 930.728 1.44824 6.29044 0
M  V30 10290 H 931.496 3.06853 7.58804 0
M  V30 10291 N 934.159 -1.57557 0.0367827 0
M  V30 10292 C 935.436 -1.83427 -0.679261 0
M  V30 10293 C 935.816 -0.922274 -1.89888 0
M  V30 10294 O 935.164 0.02025 -2.28491 0
M  V30 10295 C 935.374 -3.32823 -1.05022 0
M  V30 10296 C 936.722 -3.99486 -1.43861 0
M  V30 10297 O 937.746 -3.37364 -1.14297 0
M  V30 10298 O 936.605 -5.0899 -1.98977 0
M  V30 10299 H 933.699 -0.756581 -0.333936 0
M  V30 10300 H 936.245 -1.69575 0.0650494 0
M  V30 10301 H 935.017 -3.90874 -0.182509 0
M  V30 10302 H 934.64 -3.5181 -1.85244 0
M  V30 10303 N 935.637 0.236453 -1.55816 0
M  V30 10304 C 936.547 1.31418 -1.94336 0
M  V30 10305 C 937.563 1.52095 -0.845164 0
M  V30 10306 O 938.739 1.65515 -1.14746 0
M  V30 10307 C 935.804 2.6468 -2.23932 0
M  V30 10308 C 934.865 2.52435 -3.47239 0
M  V30 10309 C 934.098 3.79342 -3.75414 0
M  V30 10310 O 934.321 4.81694 -3.05495 0
M  V30 10311 O 933.255 3.77347 -4.68927 0
M  V30 10312 H 937.081 1.01739 -2.86152 0
M  V30 10313 H 934.666 0.438084 -1.42833 0
M  V30 10314 H 936.548 3.4341 -2.44228 0
M  V30 10315 H 935.223 2.94071 -1.35292 0
M  V30 10316 H 934.13 1.71955 -3.32238 0
M  V30 10317 H 935.463 2.27987 -4.36214 0
M  V30 10318 N 937.115 1.49373 0.502552 0
M  V30 10319 C 938.345 1.62252 1.27898 0
M  V30 10320 C 938.753 0.292555 1.86924 0
M  V30 10321 O 938.096 -0.731823 1.68493 0
M  V30 10322 C 938.158 2.63153 2.4493 0
M  V30 10323 C 937.822 4.07541 2.06784 0
M  V30 10324 C 938.819 4.94392 1.60849 0
M  V30 10325 C 936.504 4.53263 2.16466 0
M  V30 10326 C 938.498 6.25003 1.25098 0
M  V30 10327 C 936.185 5.83888 1.80327 0
M  V30 10328 C 937.183 6.69582 1.34718 0
M  V30 10329 O 936.871 7.97773 0.990661 0
M  V30 10330 H 936.603 0.54918 0.394179 0
M  V30 10331 H 939.157 1.96132 0.610031 0
M  V30 10332 H 937.387 2.2445 3.14895 0
M  V30 10333 H 939.076 2.65578 3.06957 0
M  V30 10334 H 939.842 4.60296 1.52816 0
M  V30 10335 H 935.721 3.86731 2.50919 0
M  V30 10336 H 939.265 6.91844 0.894269 0
M  V30 10337 H 935.162 6.17513 1.8801 0
M  V30 10338 H 935.93 8.1077 1.12227 0
M  V30 10339 N 938.594 -0.753485 1.38421 0
M  V30 10340 C 939.524 -1.8808 1.38377 0
M  V30 10341 C 940.505 -1.68258 0.249664 0
M  V30 10342 O 941.69 -1.88848 0.45276 0
M  V30 10343 C 938.82 -3.25608 1.20818 0
M  V30 10344 C 937.774 -3.60032 2.31433 0
M  V30 10345 C 937.1 -4.96297 1.9898 0
M  V30 10346 C 938.4 -3.64898 3.73694 0
M  V30 10347 H 940.094 -1.88375 2.32713 0
M  V30 10348 H 937.64 -0.90489 1.12017 0
M  V30 10349 H 939.593 -4.04127 1.19412 0
M  V30 10350 H 938.317 -3.25793 0.229433 0
M  V30 10351 H 936.976 -2.83831 2.32025 0
M  V30 10352 H 936.624 -4.93043 0.995889 0
M  V30 10353 H 936.324 -5.20298 2.73063 0
M  V30 10354 H 937.848 -5.77196 1.99193 0
M  V30 10355 H 939.262 -4.33531 3.75132 0
M  V30 10356 H 937.659 -4.00407 4.46983 0
M  V30 10357 H 938.729 -2.65124 4.06002 0
M  V30 10358 N 940.072 -1.23292 -0.981677 0
M  V30 10359 C 940.982 -1.02964 -2.10798 0
M  V30 10360 C 941.998 0.0254674 -1.73981 0
M  V30 10361 O 943.174 -0.169706 -2.00684 0
M  V30 10362 C 940.239 -0.621934 -3.41076 0
M  V30 10363 C 939.3 -1.75194 -3.91926 0
M  V30 10364 C 938.533 -1.36359 -5.15986 0
M  V30 10365 O 938.756 -0.247265 -5.69864 0
M  V30 10366 O 937.69 -2.18421 -5.60871 0
M  V30 10367 H 941.516 -1.97354 -2.30836 0
M  V30 10368 H 939.101 -1.01986 -1.09175 0
M  V30 10369 H 940.983 -0.405446 -4.19445 0
M  V30 10370 H 939.658 0.29299 -3.22371 0
M  V30 10371 H 938.565 -2.02305 -3.1468 0
M  V30 10372 H 939.898 -2.64513 -4.15083 0
M  V30 10373 N 941.55 1.18024 -1.04442 0
M  V30 10374 C 942.513 2.19992 -0.643136 0
M  V30 10375 C 943.513 1.57949 0.301444 0
M  V30 10376 O 944.703 1.73986 0.0863341 0
M  V30 10377 C 941.835 3.40853 0.0565208 0
M  V30 10378 H 943.028 2.57008 -1.54554 0
M  V30 10379 H 940.581 1.31974 -0.837408 0
M  V30 10380 H 941.316 3.09373 0.972553 0
M  V30 10381 H 941.101 3.87128 -0.622439 0
M  V30 10382 H 942.591 4.16344 0.323652 0
M  V30 10383 N 943.028 0.824394 1.34319 0
M  V30 10384 C 943.975 0.245282 2.29493 0
M  V30 10385 C 944.945 -0.630762 1.53657 0
M  V30 10386 O 946.13 -0.572094 1.82021 0
M  V30 10387 C 943.27 -0.585631 3.40095 0
M  V30 10388 C 942.383 0.312821 4.30866 0
M  V30 10389 C 941.518 -0.527801 5.28571 0
M  V30 10390 C 940.557 0.369946 6.10981 0
M  V30 10391 N 939.694 -0.43169 7.00772 0
M  V30 10392 H 944.534 1.06225 2.78425 0
M  V30 10393 H 942.071 0.53533 1.37013 0
M  V30 10394 H 944.029 -1.08271 4.02906 0
M  V30 10395 H 942.659 -1.3677 2.92393 0
M  V30 10396 H 941.711 0.928129 3.68904 0
M  V30 10397 H 943.023 1.00306 4.8861 0
M  V30 10398 H 942.177 -1.0893 5.96841 0
M  V30 10399 H 940.916 -1.25154 4.71368 0
M  V30 10400 H 939.921 0.943577 5.41643 0
M  V30 10401 H 941.146 1.09182 6.70266 0
M  V30 10402 H 939.092 -1.13908 6.46035 0
M  V30 10403 H 939.009 0.200133 7.55735 0
M  V30 10404 H 940.277 -0.975894 7.73367 0
M  V30 10405 N 944.506 -1.46559 0.579492 0
M  V30 10406 C 945.416 -2.34066 -0.15816 0
M  V30 10407 C 946.432 -1.49556 -0.88932 0
M  V30 10408 O 947.608 -1.82434 -0.853226 0
M  V30 10409 C 944.673 -3.26683 -1.161 0
M  V30 10410 C 943.734 -4.27092 -0.434855 0
M  V30 10411 C 942.967 -5.15283 -1.38992 0
M  V30 10412 O 943.19 -5.06345 -2.62623 0
M  V30 10413 O 942.124 -5.95099 -0.902253 0
M  V30 10414 H 945.95 -2.98488 0.560234 0
M  V30 10415 H 943.535 -1.45482 0.339918 0
M  V30 10416 H 945.417 -3.8383 -1.73932 0
M  V30 10417 H 944.092 -2.64862 -1.86091 0
M  V30 10418 H 942.999 -3.73641 0.185224 0
M  V30 10419 H 944.332 -4.9169 0.224031 0
M  V30 10420 N 945.984 -0.3171 -1.54377 0
M  V30 10421 C 946.914 0.544623 -2.2706 0
M  V30 10422 C 947.895 1.12469 -1.27611 0
M  V30 10423 O 949.08 1.15103 -1.56413 0
M  V30 10424 C 946.21 1.70879 -3.02353 0
M  V30 10425 C 945.164 1.25833 -4.09084 0
M  V30 10426 C 944.49 2.50894 -4.72182 0
M  V30 10427 C 945.79 0.377876 -5.20931 0
M  V30 10428 H 947.484 -0.0616372 -2.99337 0
M  V30 10429 H 945.03 -0.0310848 -1.43966 0
M  V30 10430 H 946.983 2.31787 -3.51927 0
M  V30 10431 H 945.707 2.34155 -2.27682 0
M  V30 10432 H 944.366 0.672228 -3.60384 0
M  V30 10433 H 944.014 3.12518 -3.94134 0
M  V30 10434 H 943.714 2.21447 -5.44275 0
M  V30 10435 H 945.238 3.12575 -5.24528 0
M  V30 10436 H 946.652 0.893056 -5.66302 0
M  V30 10437 H 945.049 0.176474 -5.9984 0
M  V30 10438 H 946.119 -0.592943 -4.81261 0
M  V30 10439 N 947.462 1.57535 -0.0451378 0
M  V30 10440 C 948.392 2.14208 0.929372 0
M  V30 10441 C 949.373 1.06221 1.32858 0
M  V30 10442 O 950.558 1.34132 1.40436 0
M  V30 10443 C 947.688 2.68217 2.20629 0
M  V30 10444 C 946.642 3.81134 1.94734 0
M  V30 10445 C 945.968 4.21636 3.28828 0
M  V30 10446 C 947.268 5.06531 1.27374 0
M  V30 10447 H 948.962 2.95886 0.457348 0
M  V30 10448 H 946.508 1.42332 0.218544 0
M  V30 10449 H 948.461 3.06502 2.89196 0
M  V30 10450 H 947.185 1.83722 2.70026 0
M  V30 10451 H 945.844 3.43312 1.28579 0
M  V30 10452 H 945.492 3.34099 3.76014 0
M  V30 10453 H 945.192 4.97736 3.12302 0
M  V30 10454 H 946.716 4.62516 3.98637 0
M  V30 10455 H 948.13 5.423 1.85967 0
M  V30 10456 H 946.527 5.87735 1.21194 0
M  V30 10457 H 947.597 4.84261 0.248913 0
M  V30 10458 N 948.94 -0.228186 1.55939 0
M  V30 10459 C 949.888 -1.30239 1.92719 0
M  V30 10460 C 950.882 -1.48865 0.808424 0
M  V30 10461 O 952.088 -1.50118 0.993204 0
M  V30 10462 H 948.463 -0.436509 0.612343 0
M  V30 10463 H 950.434 -0.964965 2.82367 0
M  V30 10464 C 949.183 -2.647 2.25453 0
M  V30 10465 H 948.506 -2.51173 3.1105 0
M  V30 10466 H 949.946 -3.38691 2.55077 0
M  V30 10467 C 948.405 -3.1921 1.07734 0
M  V30 10468 O 948.935 -4.00301 0.335019 0
M  V30 10469 N 947.141 -2.77492 0.862938 0
M  V30 10470 H 946.688 -2.11657 1.4683 0
M  V30 10471 H 946.646 -3.14306 0.0770119 0
M  V30 10472 N 950.418 -1.49637 -0.494624 0
M  V30 10473 C 951.664 -1.59681 -1.25019 0
M  V30 10474 C 951.997 -0.285511 -1.9209 0
M  V30 10475 O 951.272 0.711398 -1.81023 0
M  V30 10476 C 951.555 -2.76058 -2.31222 0
M  V30 10477 C 951.408 -4.17002 -1.68611 0
M  V30 10478 C 952.727 -2.88056 -3.32734 0
M  V30 10479 H 949.846 -0.581209 -0.453172 0
M  V30 10480 H 952.488 -1.81944 -0.547391 0
M  V30 10481 H 950.638 -2.57207 -2.91164 0
M  V30 10482 H 952.31 -4.47385 -1.12447 0
M  V30 10483 H 950.553 -4.22352 -0.989991 0
M  V30 10484 H 951.224 -4.94316 -2.45674 0
M  V30 10485 H 953.7 -3.05237 -2.82789 0
M  V30 10486 H 952.576 -3.71151 -4.04399 0
M  V30 10487 H 952.837 -1.97676 -3.95445 0
M  V30 10488 N 951.896 0.746133 -1.38819 0
M  V30 10489 C 952.859 1.84167 -1.36437 0
M  V30 10490 C 953.859 1.58626 -0.263499 0
M  V30 10491 O 955.049 1.66233 -0.520801 0
M  V30 10492 C 952.181 3.21769 -1.12596 0
M  V30 10493 H 953.374 1.87684 -2.33912 0
M  V30 10494 H 950.927 0.948625 -1.24221 0
M  V30 10495 H 951.662 3.23917 -0.15758 0
M  V30 10496 H 951.447 3.41702 -1.92307 0
M  V30 10497 H 952.937 4.0184 -1.13643 0
M  V30 10498 N 953.375 1.23811 0.975125 0
M  V30 10499 C 954.323 1.02149 2.0897 0
M  V30 10500 C 955.317 -0.0412172 1.6935 0
M  V30 10501 O 956.523 0.112726 1.79647 0
M  V30 10502 H 952.898 0.313259 0.683647 0
M  V30 10503 H 954.869 1.96686 2.24404 0
M  V30 10504 C 953.618 0.635023 3.41852 0
M  V30 10505 H 952.941 1.44449 3.72793 0
M  V30 10506 H 954.381 0.52301 4.20762 0
M  V30 10507 C 952.84 -0.657207 3.30428 0
M  V30 10508 O 953.37 -1.70494 3.63723 0
M  V30 10509 N 951.576 -0.635122 2.83575 0
M  V30 10510 H 951.123 0.21784 2.56677 0
M  V30 10511 H 951.081 -1.49995 2.76313 0
M  V30 10512 N 954.853 -1.17469 1.05066 0
M  V30 10513 C 956.099 -1.87976 0.761113 0
M  V30 10514 C 956.432 -1.80756 -0.709995 0
M  V30 10515 O 955.707 -1.21469 -1.51906 0
M  V30 10516 C 955.99 -3.38055 1.2406 0
M  V30 10517 C 955.843 -3.54032 2.77455 0
M  V30 10518 C 957.162 -4.32036 0.838612 0
M  V30 10519 H 954.281 -0.682573 0.277963 0
M  V30 10520 H 956.923 -1.38147 1.30443 0
M  V30 10521 H 955.073 -3.80622 0.778388 0
M  V30 10522 H 956.745 -3.20489 3.3179 0
M  V30 10523 H 954.988 -2.96352 3.16793 0
M  V30 10524 H 955.659 -4.59377 3.06066 0
M  V30 10525 H 958.135 -3.97303 1.23651 0
M  V30 10526 H 957.011 -5.35583 1.20173 0
M  V30 10527 H 957.272 -4.41349 -0.257498 0
M  V30 10528 N 956.331 -0.831506 -1.3388 0
M  V30 10529 C 957.281 -0.231656 -2.2682 0
M  V30 10530 C 958.265 0.609075 -1.48926 0
M  V30 10531 O 959.457 0.462249 -1.70857 0
M  V30 10532 C 956.586 0.59846 -3.38043 0
M  V30 10533 C 955.672 -0.253372 -4.23342 0
M  V30 10534 N 956.063 -1.32854 -4.8804 0
M  V30 10535 C 954.361 -0.0391537 -4.45983 0
M  V30 10536 C 955.062 -1.85069 -5.51475 0
M  V30 10537 N 954.038 -1.15327 -5.31226 0
M  V30 10538 H 957.84 -1.05396 -2.74352 0
M  V30 10539 H 955.354 -0.675195 -1.47699 0
M  V30 10540 H 957.351 1.04443 -4.03605 0
M  V30 10541 H 956.011 1.41882 -2.92061 0
M  V30 10542 H 957.022 -1.71139 -4.88806 0
M  V30 10543 H 953.699 0.748356 -4.10738 0
M  V30 10544 H 955.089 -2.75065 -6.13016 0
M  V30 10545 N 957.809 1.4625 -0.587256 0
M  V30 10546 C 958.719 2.34147 0.145744 0
M  V30 10547 C 959.735 1.50026 0.881376 0
M  V30 10548 O 960.911 1.82884 0.843539 0
M  V30 10549 C 957.976 3.27294 1.14366 0
M  V30 10550 C 957.037 4.27317 0.412199 0
M  V30 10551 C 956.27 5.16013 1.36257 0
M  V30 10552 O 956.493 5.0773 2.59934 0
M  V30 10553 O 955.427 5.95569 0.870681 0
M  V30 10554 H 959.253 2.98187 -0.576055 0
M  V30 10555 H 956.838 1.45299 -0.347628 0
M  V30 10556 H 958.72 3.84747 1.71894 0
M  V30 10557 H 957.395 2.65845 1.84684 0
M  V30 10558 H 956.302 3.73538 -0.205036 0
M  V30 10559 H 957.635 4.91564 -0.250104 0
M  V30 10560 N 959.287 0.325282 1.54207 0
M  V30 10561 C 960.217 -0.532574 2.27345 0
M  V30 10562 C 961.198 -1.11791 1.28206 0
M  V30 10563 O 962.383 -1.14272 1.57021 0
M  V30 10564 C 959.513 -1.69274 3.03255 0
M  V30 10565 C 958.467 -1.23662 4.09746 0
M  V30 10566 C 957.793 -2.48386 4.73506 0
M  V30 10567 C 959.093 -0.350244 5.21124 0
M  V30 10568 H 960.787 0.0775108 2.993 0
M  V30 10569 H 958.333 0.0387193 1.43948 0
M  V30 10570 H 960.286 -2.29917 3.53152 0
M  V30 10571 H 959.01 -2.32944 2.28921 0
M  V30 10572 H 957.669 -0.653106 3.60735 0
M  V30 10573 H 957.317 -3.10424 3.95786 0
M  V30 10574 H 957.017 -2.18558 5.45441 0
M  V30 10575 H 958.541 -3.09789 5.26178 0
M  V30 10576 H 959.955 -0.863011 5.66767 0
M  V30 10577 H 958.352 -0.14466 5.99926 0
M  V30 10578 H 959.422 0.618457 4.8094 0
M  V30 10579 N 960.765 -1.57509 0.0534917 0
M  V30 10580 C 961.728 -2.10563 -0.905307 0
M  V30 10581 C 962.728 -1.02571 -1.23838 0
M  V30 10582 O 963.918 -1.28635 -1.17468 0
M  V30 10583 C 961.05 -2.5918 -2.21447 0
M  V30 10584 H 962.243 -2.96575 -0.445354 0
M  V30 10585 H 959.796 -1.55079 -0.194947 0
M  V30 10586 H 960.531 -1.76568 -2.72019 0
M  V30 10587 H 960.316 -3.38098 -1.98575 0
M  V30 10588 H 961.806 -3.00365 -2.90122 0
M  V30 10589 N 962.243 0.219913 -1.56058 0
M  V30 10590 C 963.176 1.29978 -1.87566 0
M  V30 10591 C 964.154 1.45131 -0.733203 0
M  V30 10592 O 965.338 1.60917 -0.981729 0
M  V30 10593 C 962.465 2.66988 -2.08411 0
M  V30 10594 C 961.511 2.68842 -3.31099 0
M  V30 10595 S 962.344 2.22745 -4.86975 0
M  V30 10596 C 963.5 3.61627 -5.10859 0
M  V30 10597 H 963.733 1.03059 -2.78866 0
M  V30 10598 H 961.266 0.422233 -1.48514 0
M  V30 10599 H 963.224 3.45866 -2.21104 0
M  V30 10600 H 961.885 2.91131 -1.17905 0
M  V30 10601 H 961.078 3.69526 -3.42734 0
M  V30 10602 H 960.68 1.98028 -3.17271 0
M  V30 10603 H 962.972 4.57328 -4.99857 0
M  V30 10604 H 963.915 3.54906 -6.12737 0
M  V30 10605 H 964.323 3.55391 -4.38586 0
M  V30 10606 N 963.721 1.49897 0.486681 0
M  V30 10607 C 964.669 1.68125 1.60738 0
M  V30 10608 C 965.663 0.547097 1.60322 0
M  V30 10609 O 966.869 0.727153 1.64659 0
M  V30 10610 H 963.244 0.530391 0.533094 0
M  V30 10611 H 965.215 2.62165 1.42521 0
M  V30 10612 C 963.964 1.77827 2.98786 0
M  V30 10613 H 963.287 2.6448 2.99818 0
M  V30 10614 H 964.727 1.94611 3.76699 0
M  V30 10615 C 963.186 0.526287 3.32764 0
M  V30 10616 O 963.716 -0.341607 4.00245 0
M  V30 10617 N 961.922 0.384947 2.88039 0
M  V30 10618 H 961.469 1.09222 2.33299 0
M  V30 10619 H 961.427 -0.451618 3.11139 0
M  V30 10620 N 965.199 -0.738761 1.39212 0
M  V30 10621 C 966.424 -1.5331 1.39681 0
M  V30 10622 C 966.849 -1.88098 -0.00768715 0
M  V30 10623 O 966.207 -1.51642 -0.993699 0
M  V30 10624 C 966.255 -2.79958 2.27279 0
M  V30 10625 O 965.359 -3.75727 1.70008 0
M  V30 10626 H 964.7 -0.463131 0.475821 0
M  V30 10627 H 967.23 -0.911768 1.83161 0
M  V30 10628 H 967.24 -3.28732 2.41659 0
M  V30 10629 H 965.915 -2.5397 3.29351 0
M  V30 10630 H 964.492 -3.34483 1.64851 0
M  V30 10631 N 966.677 -1.24326 -0.968545 0
M  V30 10632 C 967.954 -0.990459 -1.68669 0
M  V30 10633 C 968.334 0.487487 -2.05394 0
M  V30 10634 O 967.682 1.46158 -1.75642 0
M  V30 10635 C 967.892 -1.91251 -2.91931 0
M  V30 10636 C 969.24 -2.18291 -3.6419 0
M  V30 10637 O 970.264 -1.88897 -3.01987 0
M  V30 10638 O 969.123 -2.68204 -4.76161 0
M  V30 10639 H 966.217 -0.374515 -0.737338 0
M  V30 10640 H 968.763 -1.35421 -1.02271 0
M  V30 10641 H 967.535 -2.9111 -2.61478 0
M  V30 10642 H 967.158 -1.55188 -3.66064 0
M  V30 10643 N 968.156 1.1691 -1.05688 0
M  V30 10644 C 969.405 1.86629 -0.765022 0
M  V30 10645 C 969.718 1.82223 0.710918 0
M  V30 10646 O 970.924 2.47462 1.11691 0
M  V30 10647 C 969.38 3.34886 -1.3183 0
M  V30 10648 C 968.988 3.47781 -2.82404 0
M  V30 10649 C 970.732 4.099 -1.10372 0
M  V30 10650 C 968.639 4.9009 -3.31008 0
M  V30 10651 H 967.569 0.699082 -0.282491 0
M  V30 10652 H 970.22 1.31989 -1.27481 0
M  V30 10653 H 968.602 3.89094 -0.736312 0
M  V30 10654 H 969.776 3.03765 -3.46502 0
M  V30 10655 H 968.091 2.86193 -3.02461 0
M  V30 10656 H 970.688 5.14894 -1.4418 0
M  V30 10657 H 971.031 4.16279 -0.0417372 0
M  V30 10658 H 971.564 3.61913 -1.65117 0
M  V30 10659 H 968.303 4.88887 -4.36657 0
M  V30 10660 H 967.823 5.34756 -2.71655 0
M  V30 10661 H 969.502 5.58881 -3.25977 0
M  V30 10662 N 969.634 0.838594 1.33437 0
M  V30 10663 C 970.566 0.229006 2.28053 0
M  V30 10664 C 971.579 -0.590103 1.51729 0
M  V30 10665 O 972.768 -0.417218 1.73556 0
M  V30 10666 C 969.868 -0.696251 3.31671 0
M  V30 10667 C 969.041 0.0834606 4.3732 0
M  V30 10668 C 968.1 -0.765097 5.20608 0
M  V30 10669 O 967.126 -0.2044 5.68833 0
M  V30 10670 N 968.328 -2.08249 5.4186 0
M  V30 10671 H 971.093 1.04196 2.81004 0
M  V30 10672 H 968.654 0.697031 1.46127 0
M  V30 10673 H 970.646 -1.26889 3.84293 0
M  V30 10674 H 969.216 -1.40992 2.78998 0
M  V30 10675 H 968.436 0.837481 3.85201 0
M  V30 10676 H 969.724 0.619613 5.05013 0
M  V30 10677 H 969.122 -2.56156 5.04381 0
M  V30 10678 H 967.679 -2.60362 5.97541 0
M  V30 10679 N 971.112 -1.45937 0.595003 0
M  V30 10680 C 972.34 -2.06698 0.091293 0
M  V30 10681 C 972.755 -1.44176 -1.21897 0
M  V30 10682 O 972.112 -0.551402 -1.73971 0
M  V30 10683 C 972.163 -3.61436 -0.0681801 0
M  V30 10684 O 971.884 -4.21622 1.19023 0
M  V30 10685 C 973.385 -4.39155 -0.604814 0
M  V30 10686 H 970.605 -0.668029 0.0630737 0
M  V30 10687 H 973.149 -1.87376 0.819165 0
M  V30 10688 H 971.304 -3.80143 -0.746324 0
M  V30 10689 H 971.718 -5.14647 1.01187 0
M  V30 10690 H 973.192 -5.47973 -0.665532 0
M  V30 10691 H 973.669 -4.08055 -1.62444 0
M  V30 10692 H 974.275 -4.25282 0.0388658 0
M  V30 10693 N 972.59 -0.333456 -1.54032 0
M  V30 10694 C 973.522 0.562174 -2.22199 0
M  V30 10695 C 974.535 1.07202 -1.22522 0
M  V30 10696 O 975.724 0.983897 -1.48935 0
M  V30 10697 C 972.824 1.78525 -2.88066 0
M  V30 10698 C 971.997 1.41242 -4.13968 0
M  V30 10699 C 971.056 2.49408 -4.63338 0
M  V30 10700 O 970.082 2.13138 -5.27789 0
M  V30 10701 N 971.284 3.805 -4.38406 0
M  V30 10702 H 974.049 -0.0215629 -2.99692 0
M  V30 10703 H 971.61 -0.157111 -1.61136 0
M  V30 10704 H 973.602 2.50298 -3.18014 0
M  V30 10705 H 972.172 2.2766 -2.14219 0
M  V30 10706 H 971.392 0.525887 -3.90676 0
M  V30 10707 H 972.68 1.13916 -4.95884 0
M  V30 10708 H 972.078 4.12761 -3.86839 0
M  V30 10709 H 970.635 4.48474 -4.72984 0
M  V30 10710 N 974.068 1.57479 -0.061844 0
M  V30 10711 C 975.317 1.92285 0.609055 0
M  V30 10712 C 975.63 0.942983 1.71369 0
M  V30 10713 O 976.836 1.18349 2.44348 0
M  V30 10714 C 975.292 3.41545 1.13468 0
M  V30 10715 C 974.9 4.47958 0.0615926 0
M  V30 10716 C 976.644 3.85368 1.78022 0
M  V30 10717 C 974.551 5.88341 0.600705 0
M  V30 10718 H 973.481 0.717656 0.23127 0
M  V30 10719 H 976.132 1.83021 -0.132466 0
M  V30 10720 H 974.514 3.45848 1.92886 0
M  V30 10721 H 975.688 4.55258 -0.712527 0
M  V30 10722 H 974.003 4.13541 -0.487116 0
M  V30 10723 H 976.6 4.87627 2.19371 0
M  V30 10724 H 976.943 3.22193 2.63623 0
M  V30 10725 H 977.476 3.83626 1.05242 0
M  V30 10726 H 974.215 6.55138 -0.217922 0
M  V30 10727 H 973.735 5.84581 1.34257 0
M  V30 10728 H 975.414 6.37918 1.08025 0
M  V30 10729 N 975.546 -0.211634 1.56173 0
M  V30 10730 C 976.476 -1.26533 1.96244 0
M  V30 10731 C 977.457 -1.48362 0.832028 0
M  V30 10732 O 978.642 -1.60378 1.0951 0
M  V30 10733 C 975.772 -2.61307 2.2877 0
M  V30 10734 C 974.726 -2.54119 3.44395 0
M  V30 10735 C 974.052 -3.93014 3.62552 0
M  V30 10736 C 975.352 -2.08046 4.79076 0
M  V30 10737 H 977.046 -0.932407 2.84511 0
M  V30 10738 H 974.592 -0.447084 1.36884 0
M  V30 10739 H 976.545 -3.35188 2.55396 0
M  V30 10740 H 975.269 -2.96307 1.37367 0
M  V30 10741 H 973.928 -1.82694 3.17834 0
M  V30 10742 H 973.576 -4.25338 2.68508 0
M  V30 10743 H 973.276 -3.89083 4.40327 0
M  V30 10744 H 974.8 -4.68542 3.91537 0
M  V30 10745 H 976.214 -2.71676 5.04842 0
M  V30 10746 H 974.611 -2.15154 5.60204 0
M  V30 10747 H 975.681 -1.03306 4.73768 0
M  V30 10748 N 977.024 -1.50153 -0.478725 0
M  V30 10749 C 978.254 -1.64266 -1.253 0
M  V30 10750 C 978.662 -0.322256 -1.86435 0
M  V30 10751 O 978.005 0.704925 -1.69636 0
M  V30 10752 C 978.067 -2.67017 -2.40712 0
M  V30 10753 C 977.731 -4.10779 -2.00274 0
M  V30 10754 C 978.728 -4.96889 -1.52963 0
M  V30 10755 C 976.413 -4.5665 -2.09228 0
M  V30 10756 C 978.407 -6.26914 -1.15139 0
M  V30 10757 C 976.094 -5.86683 -1.71015 0
M  V30 10758 C 977.092 -6.71641 -1.24048 0
M  V30 10759 O 976.78 -7.99248 -0.863617 0
M  V30 10760 H 976.512 -0.555382 -0.385392 0
M  V30 10761 H 979.066 -1.97078 -0.578751 0
M  V30 10762 H 977.296 -2.29432 -3.11284 0
M  V30 10763 H 978.985 -2.70428 -3.02694 0
M  V30 10764 H 979.751 -4.62669 -1.45474 0
M  V30 10765 H 975.63 -3.90674 -2.44735 0
M  V30 10766 H 979.174 -6.93179 -0.784089 0
M  V30 10767 H 975.071 -6.20426 -1.78162 0
M  V30 10768 H 975.839 -8.12452 -0.993139 0
M  V30 10769 N 978.502 0.731368 -1.39602 0
M  V30 10770 C 979.45 1.86676 -1.38761 0
M  V30 10771 C 980.444 1.6723 -0.270247 0
M  V30 10772 O 981.65 1.74528 -0.440471 0
M  V30 10773 H 978.025 0.614553 -0.433391 0
M  V30 10774 H 979.996 1.84501 -2.34525 0
M  V30 10775 C 978.745 3.24394 -1.25155 0
M  V30 10776 H 978.068 3.39955 -2.10406 0
M  V30 10777 H 979.508 4.04019 -1.28625 0
M  V30 10778 C 977.967 3.36877 0.0396976 0
M  V30 10779 O 978.497 3.88833 1.00854 0
M  V30 10780 N 976.703 2.90414 0.103965 0
M  V30 10781 H 976.25 2.48321 -0.685155 0
M  V30 10782 H 976.208 2.99146 0.967435 0
M  V30 10783 N 979.98 1.24838 0.961938 0
M  V30 10784 C 981.396 1.01502 1.23165 0
M  V30 10785 C 981.596 -0.272651 1.99647 0
M  V30 10786 O 980.652 -0.987297 2.32398 0
M  V30 10787 C 981.965 2.23366 2.01316 0
M  V30 10788 C 983.513 2.28051 2.14387 0
M  V30 10789 C 983.988 3.49552 2.95935 0
M  V30 10790 N 985.479 3.49904 3.03515 0
M  V30 10791 C 986.214 4.40577 3.66987 0
M  V30 10792 N 985.71 5.41512 4.3213 0
M  V30 10793 N 987.503 4.28275 3.64056 0
M  V30 10794 H 979.654 2.07576 0.450086 0
M  V30 10795 H 981.917 0.911205 0.261551 0
M  V30 10796 H 981.623 3.16913 1.5251 0
M  V30 10797 H 981.497 2.25949 3.02038 0
M  V30 10798 H 983.884 1.35032 2.62393 0
M  V30 10799 H 983.965 2.29491 1.12994 0
M  V30 10800 H 983.609 4.42889 2.4862 0
M  V30 10801 H 983.539 3.45357 3.97538 0
M  V30 10802 H 986.03 2.76885 2.57183 0
M  V30 10803 H 986.343 6.06924 4.78396 0
M  V30 10804 H 984.688 5.45393 4.3078 0
M  V30 10805 H 987.879 3.48653 3.12344 0
M  V30 10806 H 988.052 4.99138 4.13237 0
M  V30 10807 N 981.458 -1.16348 1.06306 0
M  V30 10808 C 982.406 -2.22799 0.668087 0
M  V30 10809 C 983.4 -1.66426 -0.316051 0
M  V30 10810 O 984.606 -1.79089 -0.180902 0
M  V30 10811 H 980.981 -0.725487 0.19792 0
M  V30 10812 H 982.952 -2.53401 1.57577 0
M  V30 10813 C 981.701 -3.47628 0.0706797 0
M  V30 10814 H 981.024 -3.9132 0.819064 0
M  V30 10815 H 982.464 -4.23666 -0.16816 0
M  V30 10816 C 980.923 -3.15343 -1.18577 0
M  V30 10817 O 981.453 -3.31158 -2.27371 0
M  V30 10818 N 979.659 -2.69472 -1.08779 0
M  V30 10819 H 979.206 -2.56803 -0.202447 0
M  V30 10820 H 979.164 -2.48244 -1.92931 0
M  V30 10821 N 982.937 -0.845659 -1.3299 0
M  V30 10822 C 983.867 -0.298957 -2.31578 0
M  V30 10823 C 984.848 0.597012 -1.59279 0
M  V30 10824 O 986.033 0.519142 -1.87132 0
M  V30 10825 C 983.163 0.521109 -3.43368 0
M  V30 10826 C 982.117 -0.279651 -4.27085 0
M  V30 10827 C 981.443 0.664591 -5.30554 0
M  V30 10828 C 982.743 -1.50046 -5.00283 0
M  V30 10829 H 984.437 -1.12272 -2.77552 0
M  V30 10830 H 981.983 -0.54132 -1.33438 0
M  V30 10831 H 983.936 0.913921 -4.1137 0
M  V30 10832 H 982.66 1.37815 -2.96099 0
M  V30 10833 H 981.319 -0.654106 -3.60717 0
M  V30 10834 H 980.967 1.51822 -4.79541 0
M  V30 10835 H 980.667 0.132871 -5.8745 0
M  V30 10836 H 982.191 1.05477 -6.01421 0
M  V30 10837 H 983.605 -1.18044 -5.61016 0
M  V30 10838 H 982.002 -1.96946 -5.66862 0
M  V30 10839 H 983.072 -2.26659 -4.28665 0
M  V30 10840 N 984.415 1.45619 -0.602734 0
M  V30 10841 C 985.664 2.01483 -0.0936395 0
M  V30 10842 C 985.977 1.47753 1.28173 0
M  V30 10843 O 987.183 1.95562 1.88329 0
M  V30 10844 C 985.639 3.59711 -0.116738 0
M  V30 10845 C 985.247 4.22437 -1.49166 0
M  V30 10846 C 986.991 4.23157 0.337368 0
M  V30 10847 C 984.898 5.72803 -1.47141 0
M  V30 10848 H 983.828 0.753353 -0.0312382 0
M  V30 10849 H 986.479 1.67142 -0.757347 0
M  V30 10850 H 984.861 3.91218 0.613529 0
M  V30 10851 H 986.035 4.02511 -2.24325 0
M  V30 10852 H 984.35 3.71166 -1.88746 0
M  V30 10853 H 986.947 5.33407 0.371628 0
M  V30 10854 H 987.29 3.93491 1.35906 0
M  V30 10855 H 987.823 3.96349 -0.339474 0
M  V30 10856 H 984.562 6.07161 -2.47055 0
M  V30 10857 H 984.082 5.94936 -0.762329 0
M  V30 10858 H 985.761 6.35907 -1.19294 0
M  V30 10859 N 985.893 0.34162 1.53853 0
M  V30 10860 C 986.825 -0.550383 2.22494 0
M  V30 10861 C 987.838 -1.0655 1.23089 0
M  V30 10862 O 989.027 -0.975985 1.49455 0
M  V30 10863 C 986.127 -1.76995 2.89009 0
M  V30 10864 C 985.3 -1.39045 4.14711 0
M  V30 10865 C 984.359 -2.46947 4.64654 0
M  V30 10866 O 983.385 -2.10336 5.28912 0
M  V30 10867 N 984.587 -3.7817 4.40418 0
M  V30 10868 H 987.352 0.037456 2.99677 0
M  V30 10869 H 984.913 0.165654 1.6105 0
M  V30 10870 H 986.905 -2.48608 3.19337 0
M  V30 10871 H 985.475 -2.2652 2.15424 0
M  V30 10872 H 984.695 -0.505161 3.9095 0
M  V30 10873 H 985.983 -1.11284 4.96481 0
M  V30 10874 H 985.381 -4.10704 3.89023 0
M  V30 10875 H 983.938 -4.45959 4.75356 0
M  V30 10876 N 987.371 -1.57444 0.0701946 0
M  V30 10877 C 988.301 -2.15659 -0.895176 0
M  V30 10878 C 989.282 -1.08321 -1.31151 0
M  V30 10879 O 990.467 -1.36349 -1.38284 0
M  V30 10880 C 987.597 -2.71693 -2.16334 0
M  V30 10881 C 986.551 -3.84183 -1.88645 0
M  V30 10882 C 985.877 -4.26814 -3.22078 0
M  V30 10883 C 987.177 -5.08493 -1.19299 0
M  V30 10884 H 988.871 -2.96576 -0.410217 0
M  V30 10885 H 986.417 -1.42662 -0.195872 0
M  V30 10886 H 988.37 -3.11064 -2.84284 0
M  V30 10887 H 987.094 -1.87994 -2.67069 0
M  V30 10888 H 985.753 -3.45314 -1.23101 0
M  V30 10889 H 985.401 -3.40039 -3.70651 0
M  V30 10890 H 985.101 -5.02642 -3.04344 0
M  V30 10891 H 986.625 -4.68799 -3.91228 0
M  V30 10892 H 988.039 -5.4519 -1.77316 0
M  V30 10893 H 986.436 -5.89588 -1.11828 0
M  V30 10894 H 987.506 -4.84595 -0.171839 0
M  V30 10895 N 988.849 0.203349 -1.56283 0
M  V30 10896 C 990.097 0.923183 -1.79782 0
M  V30 10897 C 990.418 1.84134 -0.64185 0
M  V30 10898 O 989.688 1.92922 0.340292 0
M  V30 10899 H 988.268 0.343881 -0.66314 0
M  V30 10900 H 990.93 0.210837 -1.93756 0
M  V30 10901 H 990.026 1.51921 -2.72629 0
M  V30 10902 N 990.327 1.50405 0.470755 0
M  V30 10903 C 991.257 1.72222 1.57676 0
M  V30 10904 C 992.238 0.57121 1.60222 0
M  V30 10905 O 993.423 0.810381 1.76484 0
M  V30 10906 C 990.553 1.81666 2.95998 0
M  V30 10907 C 989.507 2.96857 3.08318 0
M  V30 10908 C 988.833 2.91445 4.4829 0
M  V30 10909 C 990.133 4.37361 2.85504 0
M  V30 10910 H 991.827 2.64825 1.39671 0
M  V30 10911 H 989.373 1.27438 0.67049 0
M  V30 10912 H 991.326 1.95514 3.73299 0
M  V30 10913 H 990.05 0.856856 3.1516 0
M  V30 10914 H 988.709 2.82661 2.33449 0
M  V30 10915 H 988.357 1.93309 4.64371 0
M  V30 10916 H 988.057 3.68776 4.57469 0
M  V30 10917 H 989.581 3.07341 5.27611 0
M  V30 10918 H 990.995 4.52081 3.52555 0
M  V30 10919 H 989.392 5.16145 3.06127 0
M  V30 10920 H 990.462 4.49708 1.81359 0
M  V30 10921 N 991.805 -0.723954 1.39988 0
M  V30 10922 C 993.045 -1.49624 1.39255 0
M  V30 10923 C 993.409 -1.91998 -0.00860198 0
M  V30 10924 O 994.61 -2.6843 -0.141002 0
M  V30 10925 C 992.881 -2.69514 2.34728 0
M  V30 10926 S 994.44 -3.59027 2.5228 0
M  V30 10927 H 991.258 -0.511661 0.493685 0
M  V30 10928 H 993.86 -0.847322 1.76184 0
M  V30 10929 H 992.564 -2.36541 3.35375 0
M  V30 10930 H 992.095 -3.39325 1.99053 0
M  V30 10931 H 994.11 -4.63597 1.76896 0
M  V30 10932 N 993.283 -1.25346 -0.955304 0
M  V30 10933 C 994.246 -1.05754 -2.03344 0
M  V30 10934 C 995.246 -0.0105743 -1.60797 0
M  V30 10935 O 996.436 -0.252699 -1.72357 0
M  V30 10936 C 993.568 -0.605536 -3.35479 0
M  V30 10937 H 994.761 -2.01459 -2.22158 0
M  V30 10938 H 992.314 -1.07744 -1.1323 0
M  V30 10939 H 993.049 0.354154 -3.2236 0
M  V30 10940 H 992.834 -1.36134 -3.67709 0
M  V30 10941 H 994.324 -0.489867 -4.14717 0
M  V30 10942 N 994.761 1.15782 -1.06922 0
M  V30 10943 C 996.008 1.86465 -0.789752 0
M  V30 10944 C 996.336 1.82075 0.684022 0
M  V30 10945 O 995.591 1.23576 1.51748 0
M  V30 10946 C 995.89 3.35284 -1.2377 0
M  V30 10947 C 995.556 3.59871 -2.71668 0
M  V30 10948 C 994.218 3.6629 -3.12066 0
M  V30 10949 C 996.57 3.69929 -3.67154 0
M  V30 10950 C 993.898 3.80275 -4.46775 0
M  V30 10951 C 996.25 3.85436 -5.01619 0
M  V30 10952 C 994.914 3.901 -5.41644 0
M  V30 10953 H 994.184 0.682324 -0.288991 0
M  V30 10954 H 996.831 1.36861 -1.33945 0
M  V30 10955 H 995.136 3.87065 -0.607309 0
M  V30 10956 H 996.833 3.88371 -0.998431 0
M  V30 10957 H 993.423 3.55512 -2.39393 0
M  V30 10958 H 997.607 3.64274 -3.37073 0
M  V30 10959 H 992.863 3.8214 -4.77262 0
M  V30 10960 H 997.037 3.92161 -5.75485 0
M  V30 10961 H 994.664 4.00688 -6.46029 0
M  V30 10962 N 996.239 0.8527 1.3254 0
M  V30 10963 C 997.655 0.542298 1.50104 0
M  V30 10964 C 997.855 -0.927465 1.78886 0
M  V30 10965 O 996.911 -1.7106 1.85728 0
M  V30 10966 C 998.224 1.4276 2.64651 0
M  V30 10967 C 999.772 1.42782 2.78536 0
M  V30 10968 C 1000.25 2.29828 3.9616 0
M  V30 10969 N 1001.74 2.27613 4.03418 0
M  V30 10970 C 1002.47 2.91696 4.93661 0
M  V30 10971 N 1001.97 3.64883 5.88925 0
M  V30 10972 N 1003.76 2.81094 4.86768 0
M  V30 10973 H 995.913 1.80395 1.12123 0
M  V30 10974 H 998.176 0.770394 0.552446 0
M  V30 10975 H 997.882 2.47266 2.50105 0
M  V30 10976 H 997.756 1.11358 3.60388 0
M  V30 10977 H 1000.14 0.390417 2.92506 0
M  V30 10978 H 1000.22 1.78198 1.83519 0
M  V30 10979 H 999.868 3.33635 3.82949 0
M  V30 10980 H 999.798 1.91746 4.9045 0
M  V30 10981 H 1002.29 1.74402 3.3525 0
M  V30 10982 H 1002.6 4.10952 6.54476 0
M  V30 10983 H 1000.95 3.68991 5.88957 0
M  V30 10984 H 1004.14 2.23469 4.11314 0
M  V30 10985 H 1004.31 3.31318 5.56895 0
M  V30 10986 N 997.718 -1.45297 0.610449 0
M  V30 10987 C 998.668 -2.27639 -0.128194 0
M  V30 10988 C 999.652 -1.37485 -0.835861 0
M  V30 10989 O 1000.84 -1.61454 -0.725378 0
M  V30 10990 C 997.973 -3.24413 -1.123 0
M  V30 10991 C 997.059 -4.22055 -0.416029 0
M  V30 10992 N 997.45 -5.02867 0.543921 0
M  V30 10993 C 995.748 -4.41041 -0.663208 0
M  V30 10994 C 996.449 -5.73728 0.959731 0
M  V30 10995 N 995.425 -5.42756 0.302873 0
M  V30 10996 H 999.227 -2.8752 0.609056 0
M  V30 10997 H 996.741 -1.56484 0.434338 0
M  V30 10998 H 998.738 -3.82139 -1.6666 0
M  V30 10999 H 997.398 -2.66092 -1.86078 0
M  V30 11000 H 998.409 -5.09649 0.920799 0
M  V30 11001 H 995.086 -3.93842 -1.38544 0
M  V30 11002 H 996.476 -6.48666 1.75163 0
M  V30 11003 N 999.196 -0.349774 -1.5367 0
M  V30 11004 C 1000.44 0.244343 -2.00617 0
M  V30 11005 C 1000.76 1.50567 -1.23914 0
M  V30 11006 O 1000.03 1.92784 -0.348016 0
M  V30 11007 H 998.615 0.0932792 -0.741153 0
M  V30 11008 H 1001.28 -0.472367 -1.89089 0
M  V30 11009 H 1000.37 0.482433 -3.08349 0
M  V30 11010 N 1000.67 1.57404 -0.0785433 0
M  V30 11011 C 1001.62 2.13104 0.88631 0
M  V30 11012 C 1002.59 1.04527 1.29086 0
M  V30 11013 O 1003.78 1.32226 1.37553 0
M  V30 11014 C 1000.92 2.70252 2.14611 0
M  V30 11015 C 1000.03 3.93007 1.79358 0
M  V30 11016 C 999.164 4.38376 3 0
M  V30 11017 C 998.203 5.53761 2.60796 0
M  V30 11018 N 997.34 5.94058 3.74219 0
M  V30 11019 H 1002.18 2.95243 0.404452 0
M  V30 11020 H 999.717 1.45894 0.187982 0
M  V30 11021 H 1001.67 3.01497 2.88367 0
M  V30 11022 H 1000.3 1.90868 2.60326 0
M  V30 11023 H 999.357 3.68181 0.956384 0
M  V30 11024 H 1000.67 4.76795 1.4652 0
M  V30 11025 H 999.823 4.71317 3.82027 0
M  V30 11026 H 998.562 3.53455 3.36037 0
M  V30 11027 H 997.567 5.20464 1.77192 0
M  V30 11028 H 998.792 6.40419 2.25922 0
M  V30 11029 H 996.738 5.12085 4.10005 0
M  V30 11030 H 996.655 6.72602 3.45171 0
M  V30 11031 H 997.923 6.31624 4.56805 0
M  V30 11032 N 1002.15 -0.195058 1.56388 0
M  V30 11033 C 1003.4 -0.913626 1.79821 0
M  V30 11034 C 1003.71 -1.84422 0.651767 0
M  V30 11035 O 1004.92 -2.6034 0.770402 0
M  V30 11036 C 1003.38 -1.67497 3.18548 0
M  V30 11037 C 1002.98 -0.789205 4.40994 0
M  V30 11038 C 1004.73 -2.38318 3.5129 0
M  V30 11039 C 1002.63 -1.54942 5.70742 0
M  V30 11040 H 1001.56 -0.344891 0.670497 0
M  V30 11041 H 1004.22 -0.166912 1.82739 0
M  V30 11042 H 1002.6 -2.46557 3.0988 0
M  V30 11043 H 1003.77 -0.0372595 4.60785 0
M  V30 11044 H 1002.09 -0.191834 4.15958 0
M  V30 11045 H 1004.68 -2.95745 4.45465 0
M  V30 11046 H 1005.03 -3.12507 2.75037 0
M  V30 11047 H 1005.56 -1.66224 3.61406 0
M  V30 11048 H 1002.3 -0.85031 6.49962 0
M  V30 11049 H 1001.82 -2.2753 5.54969 0
M  V30 11050 H 1003.5 -2.1032 6.11861 0
M  V30 11051 N 1003.63 -1.50653 -0.462772 0
M  V30 11052 C 1004.86 -1.65586 -1.23551 0
M  V30 11053 C 1005.27 -0.342012 -1.86083 0
M  V30 11054 O 1004.61 0.686893 -1.70374 0
M  V30 11055 C 1004.67 -2.69555 -2.37867 0
M  V30 11056 C 1004.34 -4.1288 -1.95906 0
M  V30 11057 C 1005.33 -4.98483 -1.47685 0
M  V30 11058 C 1003.02 -4.58843 -2.04373 0
M  V30 11059 C 1005.01 -6.281 -1.08484 0
M  V30 11060 C 1002.7 -5.88464 -1.64783 0
M  V30 11061 C 1003.7 -6.72918 -1.16918 0
M  V30 11062 O 1003.39 -8.00119 -0.778798 0
M  V30 11063 H 1003.12 -0.559438 -0.37948 0
M  V30 11064 H 1005.67 -1.9768 -0.557816 0
M  V30 11065 H 1003.9 -2.3272 -3.08834 0
M  V30 11066 H 1005.59 -2.73624 -2.99808 0
M  V30 11067 H 1006.36 -4.64186 -1.40558 0
M  V30 11068 H 1002.24 -3.93247 -2.40577 0
M  V30 11069 H 1005.78 -6.93972 -0.710524 0
M  V30 11070 H 1001.68 -6.22281 -1.71571 0
M  V30 11071 H 1002.44 -8.1346 -0.906911 0
M  V30 11072 N 1005.11 0.71652 -1.4037 0
M  V30 11073 C 1006.02 1.86074 -1.42876 0
M  V30 11074 C 1007.03 1.71005 -0.321475 0
M  V30 11075 O 1008.21 1.93286 -0.565909 0
M  V30 11076 C 1005.28 3.21862 -1.28863 0
M  V30 11077 C 1004.34 3.49193 -2.49726 0
M  V30 11078 C 1003.57 4.78502 -2.36372 0
M  V30 11079 O 1003.79 5.53529 -1.37703 0
M  V30 11080 O 1002.73 5.06147 -3.25728 0
M  V30 11081 H 1006.55 1.86916 -2.39366 0
M  V30 11082 H 1004.14 0.866818 -1.21683 0
M  V30 11083 H 1006.02 4.02972 -1.23253 0
M  V30 11084 H 1004.69 3.2175 -0.354783 0
M  V30 11085 H 1003.6 2.68095 -2.60913 0
M  V30 11086 H 1004.93 3.54101 -3.41868 0
M  V30 11087 N 1006.59 1.25851 0.948643 0
M  V30 11088 C 1007.55 1.0683 2.0278 0
M  V30 11089 C 1008.55 0.0191016 1.60789 0
M  V30 11090 O 1009.74 0.261836 1.72221 0
M  V30 11091 C 1006.87 0.623318 3.35153 0
M  V30 11092 H 1008.06 2.02635 2.21086 0
M  V30 11093 H 1005.62 1.08343 1.12657 0
M  V30 11094 H 1006.35 -0.337053 3.22544 0
M  V30 11095 H 1006.14 1.38082 3.66982 0
M  V30 11096 H 1007.63 0.511854 4.14451 0
M  V30 11097 N 1008.06 -1.15214 1.07534 0
M  V30 11098 C 1009.01 -2.18022 0.667108 0
M  V30 11099 C 1010 -1.57911 -0.308714 0
M  V30 11100 O 1011.19 -1.76578 -0.122147 0
M  V30 11101 C 1008.32 -3.43232 0.0684348 0
M  V30 11102 C 1007.41 -4.10393 1.06951 0
M  V30 11103 N 1007.8 -4.53013 2.24973 0
M  V30 11104 C 1006.09 -4.36758 0.903262 0
M  V30 11105 C 1006.8 -5.05118 2.88498 0
M  V30 11106 N 1005.77 -4.98777 2.16153 0
M  V30 11107 H 1009.57 -2.48706 1.56597 0
M  V30 11108 H 1007.09 -1.31801 0.948796 0
M  V30 11109 H 1009.08 -4.16197 -0.241934 0
M  V30 11110 H 1007.74 -3.14031 -0.825525 0
M  V30 11111 H 1008.76 -4.4634 2.6268 0
M  V30 11112 H 1005.43 -4.17453 0.0623543 0
M  V30 11113 H 1006.82 -5.48039 3.8872 0
M  V30 11114 N 1009.54 -0.859717 -1.32086 0
M  V30 11115 C 1010.78 -0.471939 -1.98877 0
M  V30 11116 C 1011.15 0.955689 -1.66525 0
M  V30 11117 O 1012.35 1.44829 -2.26447 0
M  V30 11118 C 1010.62 -0.710016 -3.50276 0
M  V30 11119 S 1012.18 -0.420566 -4.3678 0
M  V30 11120 H 1009 -0.176588 -0.688722 0
M  V30 11121 H 1011.6 -1.11352 -1.60689 0
M  V30 11122 H 1010.3 -1.74803 -3.71311 0
M  V30 11123 H 1009.83 -0.0550429 -3.93361 0
M  V30 11124 H 1011.85 0.751362 -4.90478 0
M  V30 11125 N 1011.02 1.44971 -0.618145 0
M  V30 11126 C 1012.26 2.04044 -0.120625 0
M  V30 11127 C 1012.62 1.47472 1.22947 0
M  V30 11128 O 1013.83 1.97965 1.81834 0
M  V30 11129 C 1012.1 3.57279 -0.0930863 0
M  V30 11130 S 1013.66 4.37468 0.341705 0
M  V30 11131 H 1010.47 0.708891 -0.0547272 0
M  V30 11132 H 1013.08 1.77535 -0.818621 0
M  V30 11133 H 1011.78 3.95961 -1.07903 0
M  V30 11134 H 1011.31 3.88378 0.62657 0
M  V30 11135 H 1013.33 4.70073 1.58888 0
M  V30 11136 N 1012.5 0.357919 1.53482 0
M  V30 11137 C 1013.43 -0.484231 2.28424 0
M  V30 11138 C 1014.41 -1.09046 1.30548 0
M  V30 11139 O 1015.59 -1.10916 1.59409 0
M  V30 11140 C 1012.72 -1.62803 3.06778 0
M  V30 11141 C 1011.68 -1.14943 4.12277 0
M  V30 11142 C 1011 -2.38287 4.78669 0
M  V30 11143 C 1012.3 -0.239627 5.2175 0
M  V30 11144 H 1014 0.140979 2.99068 0
M  V30 11145 H 1011.54 0.069244 1.43833 0
M  V30 11146 H 1013.5 -2.22374 3.57949 0
M  V30 11147 H 1012.22 -2.28036 2.3381 0
M  V30 11148 H 1010.88 -0.576442 3.6204 0
M  V30 11149 H 1010.53 -3.01959 4.02281 0
M  V30 11150 H 1010.23 -2.06939 5.49955 0
M  V30 11151 H 1011.75 -2.98558 5.32631 0
M  V30 11152 H 1013.17 -0.742597 5.6847 0
M  V30 11153 H 1011.56 -0.0173747 6.00097 0
M  V30 11154 H 1012.63 0.720333 4.7952 0
M  V30 11155 N 1013.98 -1.5736 0.0868897 0
M  V30 11156 C 1014.91 -2.09211 -0.911382 0
M  V30 11157 C 1015.89 -1.00072 -1.28157 0
M  V30 11158 O 1017.07 -1.27514 -1.38825 0
M  V30 11159 C 1014.2 -2.56229 -2.21504 0
M  V30 11160 C 1013.24 -3.76948 -1.99531 0
M  V30 11161 S 1014.08 -5.20926 -1.24083 0
M  V30 11162 C 1015.23 -5.71288 -2.55697 0
M  V30 11163 H 1015.47 -2.93557 -0.470245 0
M  V30 11164 H 1013 -1.53883 -0.126218 0
M  V30 11165 H 1014.96 -2.83978 -2.96424 0
M  V30 11166 H 1013.62 -1.72123 -2.6274 0
M  V30 11167 H 1012.81 -4.07887 -2.96048 0
M  V30 11168 H 1012.41 -3.4965 -1.32744 0
M  V30 11169 H 1014.71 -5.79054 -3.51714 0
M  V30 11170 H 1015.65 -6.6993 -2.29347 0
M  V30 11171 H 1016.06 -4.99178 -2.63594 0
M  V30 11172 N 1015.45 0.186762 -1.56489 0
M  V30 11173 C 1016.36 1.25169 -1.98419 0
M  V30 11174 C 1017.38 1.49329 -0.893124 0
M  V30 11175 O 1018.56 1.61781 -1.19954 0
M  V30 11176 C 1015.62 2.57422 -2.32239 0
M  V30 11177 C 1014.68 2.4126 -3.55095 0
M  V30 11178 C 1013.92 3.67206 -3.87292 0
M  V30 11179 O 1014.14 4.71731 -3.20665 0
M  V30 11180 O 1013.07 3.62238 -4.80695 0
M  V30 11181 H 1016.9 0.925834 -2.89244 0
M  V30 11182 H 1014.48 0.392421 -1.44154 0
M  V30 11183 H 1016.37 3.35466 -2.5503 0
M  V30 11184 H 1015.04 2.89618 -1.44579 0
M  V30 11185 H 1013.95 1.61299 -3.37541 0
M  V30 11186 H 1015.28 2.13994 -4.43247 0
M  V30 11187 N 1016.93 1.50896 0.454776 0
M  V30 11188 C 1018.18 1.61936 1.20248 0
M  V30 11189 C 1018.49 0.332983 1.92745 0
M  V30 11190 O 1019.7 0.322512 2.69578 0
M  V30 11191 C 1018.16 2.85916 2.18587 0
M  V30 11192 C 1017.76 4.21492 1.51818 0
M  V30 11193 C 1019.51 3.06307 2.93898 0
M  V30 11194 C 1017.42 5.3664 2.48539 0
M  V30 11195 H 1016.35 0.603098 0.452536 0
M  V30 11196 H 1019 1.77345 0.471257 0
M  V30 11197 H 1017.38 2.64101 2.95071 0
M  V30 11198 H 1018.55 4.53623 0.810123 0
M  V30 11199 H 1016.87 4.06837 0.887265 0
M  V30 11200 H 1019.46 3.89507 3.66317 0
M  V30 11201 H 1019.81 2.18683 3.54236 0
M  V30 11202 H 1020.34 3.2838 2.24525 0
M  V30 11203 H 1017.08 6.26469 1.92916 0
M  V30 11204 H 1016.6 5.08907 3.17449 0
M  V30 11205 H 1018.28 5.67881 3.10033 0
M  V30 11206 N 1018.41 -0.709066 1.40748 0
M  V30 11207 C 1019.65 -1.48139 1.40834 0
M  V30 11208 C 1020.01 -1.91996 0.0117625 0
M  V30 11209 O 1021.22 -2.68564 -0.112524 0
M  V30 11210 C 1019.49 -2.67009 2.37573 0
M  V30 11211 S 1021.05 -3.56331 2.56073 0
M  V30 11212 H 1017.86 -0.506396 0.499084 0
M  V30 11213 H 1020.47 -0.828588 1.77072 0
M  V30 11214 H 1019.17 -2.32971 3.37865 0
M  V30 11215 H 1018.7 -3.37195 2.02641 0
M  V30 11216 H 1020.72 -4.61695 1.81803 0
M  V30 11217 N 1019.89 -1.26353 -0.941956 0
M  V30 11218 C 1021.11 -1.14731 -1.72776 0
M  V30 11219 C 1021.54 0.293766 -1.85792 0
M  V30 11220 O 1020.9 1.21284 -1.34759 0
M  V30 11221 C 1020.95 -1.82041 -3.11277 0
M  V30 11222 O 1020.05 -1.10867 -3.97218 0
M  V30 11223 H 1019.39 -0.399823 -0.53013 0
M  V30 11224 H 1021.92 -1.67157 -1.17981 0
M  V30 11225 H 1021.93 -1.88834 -3.61671 0
M  V30 11226 H 1020.61 -2.86879 -3.0112 0
M  V30 11227 H 1019.18 -1.12044 -3.55669 0
M  V30 11228 N 1021.37 1.14642 -1.08144 0
M  V30 11229 C 1022.3 2.19283 -0.6669 0
M  V30 11230 C 1023.31 1.60292 0.284668 0
M  V30 11231 O 1024.5 1.78352 0.0727383 0
M  V30 11232 C 1021.6 3.38877 0.0398572 0
M  V30 11233 C 1020.77 4.274 -0.929929 0
M  V30 11234 C 1019.83 5.25562 -0.258991 0
M  V30 11235 O 1018.86 5.61999 -0.902563 0
M  V30 11236 N 1020.06 5.71958 0.992177 0
M  V30 11237 H 1022.83 2.55464 -1.5671 0
M  V30 11238 H 1020.39 1.29836 -0.96717 0
M  V30 11239 H 1022.38 4.01605 0.499583 0
M  V30 11240 H 1020.95 3.01043 0.842118 0
M  V30 11241 H 1020.17 3.61649 -1.56857 0
M  V30 11242 H 1021.46 4.83411 -1.58717 0
M  V30 11243 H 1020.86 5.44481 1.53484 0
M  V30 11244 H 1019.41 6.36687 1.39544 0
M  V30 11245 N 1022.85 0.866709 1.31628 0
M  V30 11246 C 1023.79 0.309128 2.30537 0
M  V30 11247 C 1024.79 -0.574028 1.59378 0
M  V30 11248 O 1025.99 -0.460491 1.7401 0
M  V30 11249 H 1022.37 0.081279 0.747595 0
M  V30 11250 H 1024.34 1.15734 2.75042 0
M  V30 11251 C 1023.09 -0.477287 3.44409 0
M  V30 11252 H 1022.41 0.19301 3.99334 0
M  V30 11253 H 1023.85 -0.832818 4.1574 0
M  V30 11254 C 1022.31 -1.66727 2.92752 0
M  V30 11255 O 1022.84 -2.76654 2.91248 0
M  V30 11256 N 1021.05 -1.49833 2.48995 0
M  V30 11257 H 1020.59 -0.604073 2.50417 0
M  V30 11258 H 1020.55 -2.29594 2.14788 0
M  V30 11259 N 1024.32 -1.44642 0.625825 0
M  V30 11260 C 1025.27 -2.30653 -0.082259 0
M  V30 11261 C 1026.24 -1.43174 -0.842052 0
M  V30 11262 O 1027.43 -1.72082 -0.824151 0
M  V30 11263 C 1024.57 -3.2837 -1.06146 0
M  V30 11264 C 1023.68 -4.30953 -0.300638 0
M  V30 11265 C 1022.81 -5.15766 -1.27118 0
M  V30 11266 C 1021.85 -6.10061 -0.499215 0
M  V30 11267 N 1020.99 -6.87591 -1.41995 0
M  V30 11268 H 1025.83 -2.90664 0.657161 0
M  V30 11269 H 1023.37 -1.43215 0.335859 0
M  V30 11270 H 1025.32 -3.83507 -1.6425 0
M  V30 11271 H 1023.95 -2.70072 -1.76807 0
M  V30 11272 H 1023.01 -3.78331 0.396234 0
M  V30 11273 H 1024.32 -4.97892 0.300851 0
M  V30 11274 H 1023.47 -5.75394 -1.92372 0
M  V30 11275 H 1022.21 -4.48888 -1.9066 0
M  V30 11276 H 1021.22 -5.49547 0.166848 0
M  V30 11277 H 1022.44 -6.78973 0.131409 0
M  V30 11278 H 1020.39 -6.23387 -2.04267 0
M  V30 11279 H 1020.3 -7.5095 -0.872354 0
M  V30 11280 H 1021.57 -7.51746 -2.0615 0
M  V30 11281 N 1025.8 -0.366053 -1.5329 0
M  V30 11282 C 1026.75 0.496656 -2.22525 0
M  V30 11283 C 1027.74 1.0483 -1.22063 0
M  V30 11284 O 1028.93 0.978266 -1.47509 0
M  V30 11285 C 1026.06 1.63559 -3.01833 0
M  V30 11286 C 1025.14 1.0968 -4.09672 0
M  V30 11287 N 1025.53 0.28104 -5.05019 0
M  V30 11288 C 1023.83 1.37157 -4.24387 0
M  V30 11289 C 1024.53 -0.0140071 -5.81698 0
M  V30 11290 N 1023.51 0.583743 -5.40457 0
M  V30 11291 H 1027.31 -0.133408 -2.93597 0
M  V30 11292 H 1024.82 -0.174095 -1.61464 0
M  V30 11293 H 1026.82 2.26582 -3.49952 0
M  V30 11294 H 1025.48 2.26871 -2.32292 0
M  V30 11295 H 1026.49 -0.0797947 -5.17839 0
M  V30 11296 H 1023.17 2.00743 -3.66072 0
M  V30 11297 H 1024.56 -0.673508 -6.68516 0
M  V30 11298 N 1027.28 1.57312 -0.0952337 0
M  V30 11299 C 1028.23 2.14032 0.863657 0
M  V30 11300 C 1029.2 1.0589 1.27971 0
M  V30 11301 O 1030.38 1.33678 1.36143 0
M  V30 11302 C 1027.52 2.72513 2.11733 0
M  V30 11303 C 1026.63 3.94887 1.7518 0
M  V30 11304 C 1025.77 4.41533 2.95334 0
M  V30 11305 C 1024.81 5.56496 2.54908 0
M  V30 11306 N 1023.95 5.97993 3.67897 0
M  V30 11307 H 1028.79 2.95655 0.373115 0
M  V30 11308 H 1026.32 1.46085 0.172497 0
M  V30 11309 H 1028.28 3.04539 2.85153 0
M  V30 11310 H 1026.91 1.93618 2.58287 0
M  V30 11311 H 1025.96 3.69175 0.917279 0
M  V30 11312 H 1027.27 4.78322 1.41455 0
M  V30 11313 H 1026.43 4.75343 3.77007 0
M  V30 11314 H 1025.17 3.56999 3.3227 0
M  V30 11315 H 1024.17 5.22314 1.71662 0
M  V30 11316 H 1025.4 6.42779 2.19117 0
M  V30 11317 H 1023.34 5.16405 4.04551 0
M  V30 11318 H 1023.26 6.76225 3.38018 0
M  V30 11319 H 1024.53 6.36434 4.5008 0
M  V30 11320 N 1028.76 -0.17846 1.56586 0
M  V30 11321 C 1029.67 -1.24115 1.9908 0
M  V30 11322 C 1030.68 -1.48854 0.901031 0
M  V30 11323 O 1031.86 -1.61142 1.2081 0
M  V30 11324 C 1028.92 -2.56187 2.33601 0
M  V30 11325 C 1027.99 -2.39373 3.56369 0
M  V30 11326 C 1027.22 -3.65147 3.89234 0
M  V30 11327 O 1027.44 -4.70024 3.23162 0
M  V30 11328 O 1026.38 -3.59683 4.82609 0
M  V30 11329 H 1030.2 -0.910482 2.89731 0
M  V30 11330 H 1027.79 -0.38477 1.4436 0
M  V30 11331 H 1029.67 -3.34109 2.56806 0
M  V30 11332 H 1028.34 -2.88847 1.46113 0
M  V30 11333 H 1027.25 -1.59506 3.38391 0
M  V30 11334 H 1028.58 -2.1164 4.44375 0
M  V30 11335 N 1030.24 -1.51135 -0.446768 0
M  V30 11336 C 1031.17 -1.74709 -1.54916 0
M  V30 11337 C 1032.15 -0.596628 -1.59293 0
M  V30 11338 O 1033.33 -0.838356 -1.75172 0
M  V30 11339 C 1030.46 -1.86353 -2.9307 0
M  V30 11340 C 1029.42 -3.01725 -3.03556 0
M  V30 11341 C 1028.74 -2.9854 -4.43597 0
M  V30 11342 C 1030.04 -4.41848 -2.7851 0
M  V30 11343 H 1031.74 -2.67014 -1.3544 0
M  V30 11344 H 1029.28 -1.28489 -0.650131 0
M  V30 11345 H 1031.23 -2.01428 -3.70141 0
M  V30 11346 H 1029.96 -0.906887 -3.13756 0
M  V30 11347 H 1028.62 -2.86339 -2.28922 0
M  V30 11348 H 1028.27 -2.00673 -4.61237 0
M  V30 11349 H 1027.97 -3.76008 -4.51544 0
M  V30 11350 H 1029.49 -3.15696 -5.22655 0
M  V30 11351 H 1030.9 -4.57633 -3.45319 0
M  V30 11352 H 1029.3 -5.2095 -2.97877 0
M  V30 11353 H 1030.37 -4.52536 -1.74182 0
M  V30 11354 N 1031.71 0.701592 -1.41122 0
M  V30 11355 C 1032.96 1.45722 -1.39456 0
M  V30 11356 C 1033.28 1.95599 -0.00475228 0
M  V30 11357 O 1034.48 2.71166 0.134529 0
M  V30 11358 C 1032.94 2.63475 -2.45172 0
M  V30 11359 C 1032.55 2.20409 -3.90031 0
M  V30 11360 C 1034.29 3.4114 -2.52633 0
M  V30 11361 C 1032.2 3.35084 -4.87312 0
M  V30 11362 H 1031.13 0.547341 -0.518588 0
M  V30 11363 H 1033.78 0.762233 -1.6692 0
M  V30 11364 H 1032.16 3.35212 -2.10829 0
M  V30 11365 H 1033.33 1.56 -4.3359 0
M  V30 11366 H 1031.65 1.55752 -3.86174 0
M  V30 11367 H 1034.25 4.26496 -3.22498 0
M  V30 11368 H 1034.59 3.85915 -1.56125 0
M  V30 11369 H 1035.12 2.76456 -2.86037 0
M  V30 11370 H 1031.86 2.95327 -5.85203 0
M  V30 11371 H 1031.38 3.98362 -4.48406 0
M  V30 11372 H 1033.06 4.00949 -5.07788 0
M  V30 11373 N 1033.19 1.2685 0.935242 0
M  V30 11374 C 1034.15 1.08975 2.01636 0
M  V30 11375 C 1035.15 0.0361543 1.60759 0
M  V30 11376 O 1036.34 0.280087 1.71934 0
M  V30 11377 C 1033.48 0.658831 3.34473 0
M  V30 11378 H 1034.67 2.04968 2.18925 0
M  V30 11379 H 1032.22 1.09531 1.11501 0
M  V30 11380 H 1032.96 -0.302824 3.22883 0
M  V30 11381 H 1032.74 1.41967 3.65497 0
M  V30 11382 H 1034.23 0.555783 4.13885 0
M  V30 11383 N 1034.67 -1.14067 1.0875 0
M  V30 11384 C 1035.6 -2.18926 0.67852 0
M  V30 11385 C 1036.62 -1.60441 -0.276163 0
M  V30 11386 O 1037.8 -1.78388 -0.0632788 0
M  V30 11387 C 1034.9 -3.38893 -0.0218852 0
M  V30 11388 C 1034.08 -4.26901 0.952582 0
M  V30 11389 C 1033.14 -5.25418 0.286859 0
M  V30 11390 O 1032.16 -5.61512 0.932354 0
M  V30 11391 N 1033.36 -5.72476 -0.961831 0
M  V30 11392 H 1036.13 -2.54629 1.58063 0
M  V30 11393 H 1033.69 -1.29321 0.974042 0
M  V30 11394 H 1035.68 -4.01864 -0.478278 0
M  V30 11395 H 1034.25 -3.01486 -0.826141 0
M  V30 11396 H 1033.47 -3.60812 1.58772 0
M  V30 11397 H 1034.76 -4.82563 1.61279 0
M  V30 11398 H 1034.16 -5.45287 -1.50594 0
M  V30 11399 H 1032.72 -6.37418 -1.36166 0
M  V30 11400 N 1036.15 -0.873678 -1.31166 0
M  V30 11401 C 1037.4 -0.485497 -1.96182 0
M  V30 11402 C 1037.72 0.96621 -1.69379 0
M  V30 11403 O 1036.99 1.67783 -1.01121 0
M  V30 11404 H 1035.57 -0.176547 -0.725838 0
M  V30 11405 H 1038.23 -1.11428 -1.59906 0
M  V30 11406 H 1037.33 -0.646325 -3.05334 0
M  V30 11407 N 1037.63 1.44308 -0.633487 0
M  V30 11408 C 1038.88 2.01239 -0.136356 0
M  V30 11409 C 1039.19 1.50438 1.25011 0
M  V30 11410 O 1040.39 1.99513 1.84138 0
M  V30 11411 C 1038.85 3.59382 -0.193011 0
M  V30 11412 C 1038.46 4.19178 -1.58093 0
M  V30 11413 C 1040.2 4.23778 0.247534 0
M  V30 11414 C 1038.11 5.69553 -1.59258 0
M  V30 11415 H 1037.04 0.752521 -0.0472109 0
M  V30 11416 H 1039.69 1.65498 -0.79263 0
M  V30 11417 H 1038.07 3.92432 0.530408 0
M  V30 11418 H 1039.25 3.97662 -2.32813 0
M  V30 11419 H 1037.56 3.67079 -1.96576 0
M  V30 11420 H 1040.16 5.34075 0.258401 0
M  V30 11421 H 1040.5 3.96285 1.27529 0
M  V30 11422 H 1041.03 3.9554 -0.423469 0
M  V30 11423 H 1037.77 6.01784 -2.59878 0
M  V30 11424 H 1037.29 5.93185 -0.888352 0
M  V30 11425 H 1038.97 6.33234 -1.32756 0
M  V30 11426 N 1039.1 0.374177 1.53094 0
M  V30 11427 C 1040.33 -0.215903 2.06273 0
M  V30 11428 C 1040.75 -1.40979 1.24526 0
M  V30 11429 O 1040.11 -1.79331 0.266462 0
M  V30 11430 C 1040.16 -0.579089 3.5592 0
M  V30 11431 O 1039.26 -1.67516 3.76845 0
M  V30 11432 H 1038.61 -0.0293981 0.663349 0
M  V30 11433 H 1041.14 0.537271 1.9742 0
M  V30 11434 H 1041.15 -0.847678 3.99097 0
M  V30 11435 H 1039.82 0.293843 4.14861 0
M  V30 11436 H 1038.4 -1.40146 3.45563 0
M  V30 11437 N 1040.58 -1.57259 0.103575 0
M  V30 11438 C 1041.53 -2.15727 -0.869739 0
M  V30 11439 C 1042.52 -1.10236 -1.28625 0
M  V30 11440 O 1043.73 -1.28567 -1.25979 0
M  V30 11441 H 1040.11 -0.690204 -0.298535 0
M  V30 11442 H 1042.08 -2.96317 -0.351984 0
M  V30 11443 C 1040.83 -2.75905 -2.11593 0
M  V30 11444 H 1040.15 -3.56768 -1.80434 0
M  V30 11445 H 1041.59 -3.20373 -2.77736 0
M  V30 11446 C 1040.05 -1.72218 -2.89556 0
M  V30 11447 O 1040.58 -1.16623 -3.84398 0
M  V30 11448 N 1038.78 -1.42514 -2.53255 0
M  V30 11449 H 1038.33 -1.87914 -1.76198 0
M  V30 11450 H 1038.29 -0.733782 -3.05717 0
M  V30 11451 N 1042.06 0.170153 -1.56679 0
M  V30 11452 C 1042.99 1.21285 -1.9953 0
M  V30 11453 C 1043.97 1.46104 -0.871071 0
M  V30 11454 O 1045.16 1.57419 -1.13724 0
M  V30 11455 C 1042.29 2.5515 -2.35618 0
M  V30 11456 C 1041.24 2.44898 -3.51011 0
M  V30 11457 C 1040.57 3.83263 -3.72845 0
M  V30 11458 C 1041.87 1.95271 -4.84424 0
M  V30 11459 H 1043.56 0.856646 -2.86883 0
M  V30 11460 H 1041.11 0.410634 -1.38021 0
M  V30 11461 H 1043.06 3.28299 -2.64193 0
M  V30 11462 H 1041.78 2.92561 -1.45175 0
M  V30 11463 H 1040.44 1.74203 -3.22566 0
M  V30 11464 H 1040.09 4.18069 -2.79691 0
M  V30 11465 H 1039.79 3.77272 -4.50488 0
M  V30 11466 H 1041.31 4.57996 -4.03822 0
M  V30 11467 H 1042.73 2.58195 -5.11867 0
M  V30 11468 H 1041.13 2.00225 -5.65712 0
M  V30 11469 H 1042.2 0.90709 -4.7634 0
M  V30 11470 N 1043.54 1.5137 0.438746 0
M  V30 11471 C 1044.49 1.72582 1.53245 0
M  V30 11472 C 1045.46 0.567488 1.56105 0
M  V30 11473 O 1046.64 0.80176 1.73137 0
M  V30 11474 C 1043.78 1.85551 2.90972 0
M  V30 11475 C 1042.89 3.13094 2.97652 0
M  V30 11476 C 1042.03 3.16666 4.26493 0
M  V30 11477 C 1041.07 4.38529 4.27035 0
M  V30 11478 N 1040.2 4.39659 5.47398 0
M  V30 11479 H 1045.04 2.65941 1.3446 0
M  V30 11480 H 1042.58 1.31801 0.653206 0
M  V30 11481 H 1044.54 1.91053 3.70884 0
M  V30 11482 H 1043.17 0.956025 3.08318 0
M  V30 11483 H 1042.22 3.16909 2.10412 0
M  V30 11484 H 1043.53 4.03009 2.93914 0
M  V30 11485 H 1042.69 3.21075 5.14777 0
M  V30 11486 H 1041.43 2.24637 4.32885 0
M  V30 11487 H 1040.43 4.34297 3.37144 0
M  V30 11488 H 1041.66 5.31821 4.22307 0
M  V30 11489 H 1039.6 3.50499 5.54514 0
M  V30 11490 H 1039.52 5.23382 5.45534 0
M  V30 11491 H 1040.79 4.48259 6.37718 0
M  V30 11492 N 1045.02 -0.694098 1.41492 0
M  V30 11493 C 1045.96 -1.82932 1.43662 0
M  V30 11494 C 1046.96 -1.66455 0.31449 0
M  V30 11495 O 1048.16 -1.73298 0.486589 0
M  V30 11496 H 1044.54 -0.602847 0.449533 0
M  V30 11497 H 1046.51 -1.78218 2.39334 0
M  V30 11498 C 1045.26 -3.20962 1.33712 0
M  V30 11499 H 1044.58 -3.34257 2.19345 0
M  V30 11500 H 1046.02 -4.00467 1.39291 0
M  V30 11501 C 1044.48 -3.36863 0.0496332 0
M  V30 11502 O 1045.01 -3.91371 -0.905093 0
M  V30 11503 N 1043.22 -2.90588 -0.0269299 0
M  V30 11504 H 1042.76 -2.46417 0.750752 0
M  V30 11505 H 1042.72 -3.01605 -0.887781 0
M  V30 11506 N 1046.49 -1.27344 -0.928501 0
M  V30 11507 C 1047.43 -1.05797 -2.03322 0
M  V30 11508 C 1048.44 -0.0143086 -1.62794 0
M  V30 11509 O 1049.63 -0.25578 -1.76658 0
M  V30 11510 C 1046.73 -0.582673 -3.33853 0
M  V30 11511 C 1045.9 -1.69844 -4.03078 0
M  V30 11512 C 1044.96 -1.21902 -5.11885 0
M  V30 11513 O 1043.99 -1.91853 -5.35893 0
M  V30 11514 N 1045.19 -0.0742392 -5.80453 0
M  V30 11515 H 1047.95 -2.00928 -2.22369 0
M  V30 11516 H 1045.51 -1.189 -1.09883 0
M  V30 11517 H 1047.51 -0.245862 -4.03952 0
M  V30 11518 H 1046.08 0.27539 -3.11385 0
M  V30 11519 H 1045.3 -2.20557 -3.26723 0
M  V30 11520 H 1046.58 -2.4473 -4.46077 0
M  V30 11521 H 1045.98 0.509631 -5.634 0
M  V30 11522 H 1044.54 0.203399 -6.51483 0
M  V30 11523 N 1047.97 1.13488 -1.09353 0
M  V30 11524 C 1048.88 2.2248 -0.744307 0
M  V30 11525 C 1049.9 1.72145 0.253404 0
M  V30 11526 O 1051.07 2.01176 0.0949339 0
M  V30 11527 C 1048.14 3.46286 -0.16928 0
M  V30 11528 C 1047.2 4.11516 -1.22284 0
M  V30 11529 C 1046.43 5.29412 -0.675161 0
M  V30 11530 O 1046.66 5.68185 0.502182 0
M  V30 11531 O 1045.59 5.8467 -1.42983 0
M  V30 11532 H 1049.42 2.54723 -1.65378 0
M  V30 11533 H 1047 1.21607 -0.867879 0
M  V30 11534 H 1048.88 4.2114 0.14811 0
M  V30 11535 H 1047.56 3.15745 0.713214 0
M  V30 11536 H 1046.47 3.38492 -1.59292 0
M  V30 11537 H 1047.8 4.46186 -2.07796 0
M  V30 11538 N 1049.45 0.880621 1.30701 0
M  V30 11539 C 1050.4 0.342397 2.28246 0
M  V30 11540 C 1051.37 -0.565023 1.56194 0
M  V30 11541 O 1052.55 -0.494377 1.84284 0
M  V30 11542 C 1049.69 -0.440859 3.42272 0
M  V30 11543 C 1048.81 0.495284 4.29151 0
M  V30 11544 C 1047.94 -0.303141 5.30334 0
M  V30 11545 C 1046.98 0.628751 6.08862 0
M  V30 11546 N 1046.12 -0.13408 7.01972 0
M  V30 11547 H 1050.96 1.17938 2.73669 0
M  V30 11548 H 1048.49 0.59296 1.34619 0
M  V30 11549 H 1050.45 -0.910854 4.07135 0
M  V30 11550 H 1049.08 -1.24245 2.97931 0
M  V30 11551 H 1048.13 1.08376 3.64635 0
M  V30 11552 H 1049.45 1.2094 4.83916 0
M  V30 11553 H 1048.6 -0.835181 6.00924 0
M  V30 11554 H 1047.34 -1.05049 4.76252 0
M  V30 11555 H 1046.34 1.17246 5.37153 0
M  V30 11556 H 1047.57 1.37512 6.65032 0
M  V30 11557 H 1045.52 -0.864046 6.50285 0
M  V30 11558 H 1045.43 0.520486 7.54206 0
M  V30 11559 H 1046.7 -0.647005 7.7681 0
M  V30 11560 N 1050.93 -1.4397 0.641131 0
M  V30 11561 C 1052.16 -2.06303 0.157006 0
M  V30 11562 C 1052.57 -1.47981 -1.17248 0
M  V30 11563 O 1051.93 -0.606471 -1.72128 0
M  V30 11564 C 1051.98 -3.6147 0.0468425 0
M  V30 11565 O 1051.7 -4.17622 1.32376 0
M  V30 11566 C 1053.2 -4.40857 -0.464795 0
M  V30 11567 H 1050.42 -0.665684 0.0842946 0
M  V30 11568 H 1052.97 -1.84675 0.878363 0
M  V30 11569 H 1051.12 -3.82325 -0.625006 0
M  V30 11570 H 1051.54 -5.11167 1.17509 0
M  V30 11571 H 1053.01 -5.49813 -0.490862 0
M  V30 11572 H 1053.49 -4.13016 -1.4938 0
M  V30 11573 H 1054.09 -4.24943 0.174146 0
M  V30 11574 N 1052.41 -0.382291 -1.52893 0
M  V30 11575 C 1053.34 0.447829 -2.29165 0
M  V30 11576 C 1054.32 1.06956 -1.32267 0
M  V30 11577 O 1055.5 1.08365 -1.61154 0
M  V30 11578 C 1052.63 1.57902 -3.09329 0
M  V30 11579 C 1051.59 1.08369 -4.14053 0
M  V30 11580 C 1050.91 2.30641 -4.82399 0
M  V30 11581 C 1052.21 0.156591 -5.22065 0
M  V30 11582 H 1053.91 -0.188541 -2.98806 0
M  V30 11583 H 1051.45 -0.0921179 -1.43705 0
M  V30 11584 H 1053.41 2.16652 -3.61442 0
M  V30 11585 H 1052.13 2.24287 -2.37409 0
M  V30 11586 H 1050.79 0.518772 -3.62911 0
M  V30 11587 H 1050.44 2.9552 -4.07034 0
M  V30 11588 H 1050.14 1.98163 -5.53177 0
M  V30 11589 H 1051.66 2.90047 -5.37313 0
M  V30 11590 H 1053.08 0.652065 -5.6958 0
M  V30 11591 H 1051.47 -0.0780978 -6.00049 0
M  V30 11592 H 1052.54 -0.796529 -4.78313 0
M  V30 11593 N 1053.89 1.57202 -0.111913 0
M  V30 11594 C 1054.8 2.18475 0.854753 0
M  V30 11595 C 1055.81 1.15888 1.29792 0
M  V30 11596 O 1056.99 1.48329 1.36237 0
M  V30 11597 C 1054.05 2.76645 2.0897 0
M  V30 11598 C 1053.11 3.94244 1.69913 0
M  V30 11599 C 1052.35 4.49631 2.8752 0
M  V30 11600 O 1052.57 4.03926 4.02741 0
M  V30 11601 O 1051.5 5.40417 2.65015 0
M  V30 11602 H 1055.33 3.01519 0.363352 0
M  V30 11603 H 1052.91 1.4897 0.113329 0
M  V30 11604 H 1054.8 3.13755 2.81311 0
M  V30 11605 H 1053.47 1.96637 2.5713 0
M  V30 11606 H 1052.38 3.61915 0.947013 0
M  V30 11607 H 1053.71 4.75666 1.26501 0
M  V30 11608 N 1055.36 -0.161842 1.56767 0
M  V30 11609 C 1056.3 -1.22499 1.93718 0
M  V30 11610 C 1057.31 -1.39975 0.831314 0
M  V30 11611 O 1058.5 -1.3981 1.10975 0
M  V30 11612 C 1055.6 -2.59222 2.18306 0
M  V30 11613 C 1054.77 -2.6292 3.4956 0
M  V30 11614 C 1053.83 -3.81074 3.62863 0
M  V30 11615 O 1052.86 -3.66633 4.35395 0
M  V30 11616 N 1054.06 -4.97923 2.98418 0
M  V30 11617 H 1056.82 -0.911043 2.85517 0
M  V30 11618 H 1054.38 -0.351533 1.58038 0
M  V30 11619 H 1056.38 -3.36749 2.24461 0
M  V30 11620 H 1054.95 -2.82969 1.32844 0
M  V30 11621 H 1054.17 -1.71418 3.54978 0
M  V30 11622 H 1055.45 -2.62409 4.35911 0
M  V30 11623 H 1054.85 -5.12557 2.39378 0
M  V30 11624 H 1053.41 -5.73277 3.10155 0
M  V30 11625 N 1056.84 -1.516 -0.430713 0
M  V30 11626 C 1057.75 -1.76247 -1.54836 0
M  V30 11627 C 1058.77 -0.646985 -1.61524 0
M  V30 11628 O 1059.94 -0.929987 -1.78643 0
M  V30 11629 C 1057.01 -1.88833 -2.90763 0
M  V30 11630 C 1056.07 -3.12701 -2.94137 0
M  V30 11631 C 1055.3 -3.24676 -4.23581 0
M  V30 11632 O 1055.53 -2.42429 -5.16318 0
M  V30 11633 O 1054.46 -4.17697 -4.33374 0
M  V30 11634 H 1058.29 -2.71069 -1.3695 0
M  V30 11635 H 1055.87 -1.36182 -0.614396 0
M  V30 11636 H 1057.75 -1.99057 -3.71422 0
M  V30 11637 H 1056.43 -0.971987 -3.08762 0
M  V30 11638 H 1055.33 -3.0795 -2.1241 0
M  V30 11639 H 1056.67 -4.04045 -2.81084 0
M  V30 11640 N 1058.32 0.686584 -1.41858 0
M  V30 11641 C 1059.74 0.998283 -1.24525 0
M  V30 11642 C 1059.94 2.01006 -0.141007 0
M  V30 11643 O 1058.99 2.47667 0.491648 0
M  V30 11644 C 1060.3 1.51432 -2.59786 0
M  V30 11645 C 1061.85 1.6327 -2.67043 0
M  V30 11646 C 1062.33 2.18274 -4.02642 0
M  V30 11647 N 1063.82 2.25622 -4.04535 0
M  V30 11648 C 1064.55 2.69229 -5.06264 0
M  V30 11649 N 1064.05 3.12375 -6.1838 0
M  V30 11650 N 1065.84 2.68873 -4.93623 0
M  V30 11651 H 1057.99 0.0164825 -2.12394 0
M  V30 11652 H 1060.26 0.0698613 -0.945422 0
M  V30 11653 H 1059.96 0.845426 -3.41388 0
M  V30 11654 H 1059.84 2.49502 -2.82894 0
M  V30 11655 H 1062.22 2.29269 -1.85794 0
M  V30 11656 H 1062.3 0.637221 -2.47736 0
M  V30 11657 H 1061.95 1.52887 -4.84343 0
M  V30 11658 H 1061.88 3.18591 -4.19294 0
M  V30 11659 H 1064.37 1.95186 -3.23591 0
M  V30 11660 H 1064.68 3.44301 -6.91864 0
M  V30 11661 H 1063.03 3.10262 -6.21902 0
M  V30 11662 H 1066.22 2.34521 -4.05114 0
M  V30 11663 H 1066.39 3.02539 -5.7304 0
M  V30 11664 N 1059.8 1.27835 0.921735 0
M  V30 11665 C 1060.76 1.11108 2.00469 0
M  V30 11666 C 1061.76 0.053203 1.60712 0
M  V30 11667 O 1062.95 0.298308 1.71627 0
M  V30 11668 C 1060.08 0.694269 3.33755 0
M  V30 11669 H 1061.28 2.07279 2.16738 0
M  V30 11670 H 1058.83 1.10708 1.10333 0
M  V30 11671 H 1059.56 -0.268561 3.23186 0
M  V30 11672 H 1059.35 1.45836 3.6397 0
M  V30 11673 H 1060.84 0.59965 4.13272 0
M  V30 11674 N 1061.28 -1.12907 1.09954 0
M  V30 11675 C 1062.19 -2.22082 0.756095 0
M  V30 11676 C 1063.2 -1.72277 -0.244272 0
M  V30 11677 O 1064.38 -2.01224 -0.0842637 0
M  V30 11678 C 1061.44 -3.46192 0.187642 0
M  V30 11679 C 1060.5 -4.10861 1.24465 0
M  V30 11680 C 1059.74 -5.29047 0.703227 0
M  V30 11681 O 1059.96 -5.68443 -0.472043 0
M  V30 11682 O 1058.89 -5.83904 1.46082 0
M  V30 11683 H 1062.72 -2.53842 1.66727 0
M  V30 11684 H 1060.3 -1.21145 0.874316 0
M  V30 11685 H 1062.19 -4.21212 -0.125774 0
M  V30 11686 H 1060.86 -3.16119 -0.696459 0
M  V30 11687 H 1059.77 -3.37643 1.61085 0
M  V30 11688 H 1061.1 -4.45078 2.10159 0
M  V30 11689 N 1062.75 -0.88754 -1.30232 0
M  V30 11690 C 1063.7 -0.354497 -2.28061 0
M  V30 11691 C 1064.67 0.556732 -1.56492 0
M  V30 11692 O 1065.86 0.484597 -1.84543 0
M  V30 11693 C 1063 0.422701 -3.42501 0
M  V30 11694 C 1062.11 -0.518036 -4.28883 0
M  V30 11695 C 1061.24 0.275011 -5.30488 0
M  V30 11696 C 1060.28 -0.661032 -6.0852 0
M  V30 11697 N 1059.42 0.0968509 -7.02033 0
M  V30 11698 H 1064.26 -1.19388 -2.73039 0
M  V30 11699 H 1061.8 -0.600091 -1.34303 0
M  V30 11700 H 1063.75 0.889249 -4.07613 0
M  V30 11701 H 1062.38 1.22664 -2.98586 0
M  V30 11702 H 1061.44 -1.10308 -3.64055 0
M  V30 11703 H 1062.75 -1.23504 -4.83268 0
M  V30 11704 H 1061.9 0.803301 -6.01358 0
M  V30 11705 H 1060.64 1.02522 -4.76802 0
M  V30 11706 H 1059.65 -1.20093 -5.36524 0
M  V30 11707 H 1060.87 -1.41037 -6.64293 0
M  V30 11708 H 1058.82 0.829548 -6.50734 0
M  V30 11709 H 1058.73 -0.560476 -7.5392 0
M  V30 11710 H 1060 0.6058 -7.77142 0
M  V30 11711 N 1064.23 1.43628 -0.648757 0
M  V30 11712 C 1065.65 1.56442 -0.315921 0
M  V30 11713 C 1065.85 1.63322 1.18018 0
M  V30 11714 O 1064.9 1.58585 1.96487 0
M  V30 11715 C 1066.22 2.82751 -1.02335 0
M  V30 11716 C 1067.77 2.96488 -1.00318 0
M  V30 11717 C 1068.24 4.25623 -1.69142 0
M  V30 11718 N 1069.73 4.32477 -1.65885 0
M  V30 11719 C 1070.47 5.31154 -2.16016 0
M  V30 11720 N 1069.96 6.36135 -2.74415 0
M  V30 11721 N 1071.76 5.22778 -2.06541 0
M  V30 11722 H 1063.91 1.37405 -1.61968 0
M  V30 11723 H 1066.17 0.65962 -0.680886 0
M  V30 11724 H 1065.88 2.83714 -2.07844 0
M  V30 11725 H 1065.75 3.72836 -0.572114 0
M  V30 11726 H 1068.14 2.95068 0.0434919 0
M  V30 11727 H 1068.22 2.07704 -1.49307 0
M  V30 11728 H 1067.86 4.27804 -2.73763 0
M  V30 11729 H 1067.79 5.13296 -1.17622 0
M  V30 11730 H 1070.28 3.57232 -1.23264 0
M  V30 11731 H 1070.6 7.07743 -3.10355 0
M  V30 11732 H 1068.94 6.36771 -2.78474 0
M  V30 11733 H 1072.13 4.39678 -1.60625 0
M  V30 11734 H 1072.3 5.99523 -2.45919 0
M  V30 11735 N 1065.71 0.390394 1.52688 0
M  V30 11736 C 1067.13 0.0404028 1.59549 0
M  V30 11737 C 1067.33 -1.44503 1.40432 0
M  V30 11738 O 1066.38 -2.20968 1.22187 0
M  V30 11739 C 1067.7 0.518561 2.96195 0
M  V30 11740 C 1069.24 0.474913 3.09376 0
M  V30 11741 C 1069.72 0.929278 4.48473 0
M  V30 11742 N 1071.21 0.885335 4.5466 0
M  V30 11743 C 1071.94 1.2083 5.60524 0
M  V30 11744 N 1071.44 1.6018 6.74028 0
M  V30 11745 N 1073.23 1.12949 5.50635 0
M  V30 11746 H 1065.38 1.35743 1.63363 0
M  V30 11747 H 1067.65 0.556453 0.767505 0
M  V30 11748 H 1067.35 1.55606 3.15404 0
M  V30 11749 H 1067.23 -0.081779 3.77111 0
M  V30 11750 H 1069.61 -0.553503 2.89863 0
M  V30 11751 H 1069.7 1.11107 2.3041 0
M  V30 11752 H 1069.34 1.95593 4.68728 0
M  V30 11753 H 1069.27 0.270121 5.25907 0
M  V30 11754 H 1071.76 0.595787 3.73174 0
M  V30 11755 H 1072.07 1.83184 7.50775 0
M  V30 11756 H 1070.42 1.64067 6.75357 0
M  V30 11757 H 1073.61 0.821074 4.60843 0
M  V30 11758 H 1073.78 1.3845 6.33037 0
M  V30 11759 N 1067.19 -1.57141 0.120249 0
M  V30 11760 C 1068.12 -2.18398 -0.826112 0
M  V30 11761 C 1069.1 -1.12439 -1.27638 0
M  V30 11762 O 1070.28 -1.40679 -1.33877 0
M  V30 11763 C 1067.41 -2.78438 -2.0758 0
M  V30 11764 C 1066.37 -3.89991 -1.76327 0
M  V30 11765 C 1065.69 -4.36844 -3.08336 0
M  V30 11766 C 1066.99 -5.12031 -1.03062 0
M  V30 11767 H 1068.69 -2.97731 -0.315656 0
M  V30 11768 H 1066.23 -1.43213 -0.150387 0
M  V30 11769 H 1068.19 -3.19951 -2.74243 0
M  V30 11770 H 1066.91 -1.96396 -2.60953 0
M  V30 11771 H 1065.57 -3.49055 -1.12053 0
M  V30 11772 H 1065.22 -3.51659 -3.59646 0
M  V30 11773 H 1064.92 -5.1207 -2.88199 0
M  V30 11774 H 1066.44 -4.81009 -3.76116 0
M  V30 11775 H 1067.86 -5.50555 -1.59881 0
M  V30 11776 H 1066.25 -5.92848 -0.930146 0
M  V30 11777 H 1067.32 -4.84897 -0.017582 0
M  V30 11778 N 1068.67 0.153526 -1.5685 0
M  V30 11779 C 1069.6 1.19162 -2.00805 0
M  V30 11780 C 1070.58 1.45172 -0.886518 0
M  V30 11781 O 1071.76 1.56203 -1.15387 0
M  V30 11782 C 1068.89 2.52637 -2.38311 0
M  V30 11783 C 1067.85 2.41161 -3.53589 0
M  V30 11784 C 1067.17 3.79287 -3.76889 0
M  V30 11785 C 1068.47 1.90122 -4.86468 0
M  V30 11786 H 1070.17 0.82617 -2.87776 0
M  V30 11787 H 1067.71 0.395972 -1.38449 0
M  V30 11788 H 1069.67 3.25478 -2.6766 0
M  V30 11789 H 1068.39 2.91005 -1.4827 0
M  V30 11790 H 1067.05 1.70772 -3.24395 0
M  V30 11791 H 1066.7 4.15079 -2.84109 0
M  V30 11792 H 1066.4 3.72472 -4.54465 0
M  V30 11793 H 1067.92 4.53687 -4.08657 0
M  V30 11794 H 1069.33 2.52752 -5.14577 0
M  V30 11795 H 1067.73 1.94214 -5.67804 0
M  V30 11796 H 1068.8 0.856517 -4.77275 0
M  V30 11797 N 1070.14 1.51827 0.422667 0
M  V30 11798 C 1071.37 1.69337 1.19748 0
M  V30 11799 C 1071.79 0.396312 1.83878 0
M  V30 11800 O 1071.15 -0.644976 1.6944 0
M  V30 11801 C 1071.2 2.82082 2.24637 0
M  V30 11802 O 1070.3 2.46708 3.30468 0
M  V30 11803 H 1069.65 0.564154 0.35018 0
M  V30 11804 H 1072.18 1.98465 0.497289 0
M  V30 11805 H 1072.19 3.06599 2.69186 0
M  V30 11806 H 1070.86 3.76195 1.77341 0
M  V30 11807 H 1069.44 2.32815 2.91293 0
M  V30 11808 N 1071.62 -0.679052 1.4222 0
M  V30 11809 C 1072.85 -1.46534 1.45641 0
M  V30 11810 C 1073.26 -1.89088 0.0649574 0
M  V30 11811 O 1072.6 -1.58436 -0.929712 0
M  V30 11812 C 1072.67 -2.74882 2.3169 0
M  V30 11813 C 1072.33 -2.5443 3.79624 0
M  V30 11814 C 1073.33 -2.19307 4.71382 0
M  V30 11815 C 1071.01 -2.69557 4.23845 0
M  V30 11816 C 1073.01 -1.99571 6.05351 0
M  V30 11817 C 1070.69 -2.49437 5.57875 0
M  V30 11818 C 1071.69 -2.14497 6.48444 0
M  V30 11819 O 1071.38 -1.94567 7.79999 0
M  V30 11820 H 1071.11 -0.457542 0.497626 0
M  V30 11821 H 1073.66 -0.842145 1.87342 0
M  V30 11822 H 1071.89 -3.39669 1.8483 0
M  V30 11823 H 1073.58 -3.3675 2.26615 0
M  V30 11824 H 1074.35 -2.0722 4.38503 0
M  V30 11825 H 1070.23 -2.95733 3.53642 0
M  V30 11826 H 1073.77 -1.72222 6.76007 0
M  V30 11827 H 1069.67 -2.61119 5.90328 0
M  V30 11828 H 1070.44 -2.092 7.91314 0
M  V30 11829 N 1073.1 -1.28322 -0.914942 0
M  V30 11830 C 1074.05 -1.08788 -2.00373 0
M  V30 11831 C 1075.03 -0.0118996 -1.60896 0
M  V30 11832 O 1076.23 -0.231902 -1.75474 0
M  V30 11833 C 1073.36 -0.750508 -3.34996 0
M  V30 11834 C 1072.44 -1.86527 -3.80879 0
M  V30 11835 N 1072.83 -3.10672 -3.99145 0
M  V30 11836 C 1071.13 -1.75485 -4.10026 0
M  V30 11837 C 1071.83 -3.833 -4.37557 0
M  V30 11838 N 1070.81 -3.11141 -4.45749 0
M  V30 11839 H 1074.61 -2.02984 -2.12544 0
M  V30 11840 H 1072.12 -1.19224 -1.1027 0
M  V30 11841 H 1074.12 -0.591644 -4.1268 0
M  V30 11842 H 1072.78 0.183696 -3.2418 0
M  V30 11843 H 1073.79 -3.46295 -3.85097 0
M  V30 11844 H 1070.47 -0.89234 -4.07852 0
M  V30 11845 H 1071.86 -4.90061 -4.59662 0
M  V30 11846 N 1074.58 1.12322 -1.10551 0
M  V30 11847 C 1075.51 2.17221 -0.699299 0
M  V30 11848 C 1076.49 1.59809 0.299973 0
M  V30 11849 O 1077.67 1.87451 0.198589 0
M  V30 11850 C 1074.8 3.38685 -0.0320136 0
M  V30 11851 C 1073.85 4.14732 -0.99495 0
M  V30 11852 S 1074.68 4.72879 -2.51288 0
M  V30 11853 C 1075.84 5.97676 -1.85834 0
M  V30 11854 H 1076.07 2.51342 -1.5879 0
M  V30 11855 H 1073.6 1.23802 -0.92263 0
M  V30 11856 H 1075.56 4.09034 0.346656 0
M  V30 11857 H 1074.22 3.02842 0.833407 0
M  V30 11858 H 1073.41 5.01754 -0.475331 0
M  V30 11859 H 1073.02 3.50098 -1.31559 0
M  V30 11860 H 1075.31 6.6698 -1.18927 0
M  V30 11861 H 1076.25 6.54266 -2.70817 0
M  V30 11862 H 1076.66 5.48793 -1.32237 0
M  V30 11863 N 1076.06 0.894434 1.2976 0
M  V30 11864 C 1077.01 0.339611 2.25457 0
M  V30 11865 C 1077.99 -0.537326 1.51663 0
M  V30 11866 O 1079.18 -0.380204 1.72868 0
M  V30 11867 C 1076.31 -0.436494 3.40514 0
M  V30 11868 C 1075.4 0.455065 4.21651 0
M  V30 11869 N 1075.79 1.55988 4.81146 0
M  V30 11870 C 1074.09 0.251893 4.45288 0
M  V30 11871 C 1074.79 2.1117 5.42017 0
M  V30 11872 N 1073.76 1.40541 5.25118 0
M  V30 11873 H 1077.57 1.18365 2.69011 0
M  V30 11874 H 1075.08 0.744895 1.44309 0
M  V30 11875 H 1077.08 -0.850678 4.08129 0
M  V30 11876 H 1075.74 -1.27786 2.98498 0
M  V30 11877 H 1076.75 1.94266 4.80084 0
M  V30 11878 H 1073.42 -0.551536 4.13841 0
M  V30 11879 H 1074.81 3.04 5.99194 0
M  V30 11880 N 1077.53 -1.43282 0.656365 0
M  V30 11881 C 1078.78 -2.00996 0.168354 0
M  V30 11882 C 1079.1 -1.52408 -1.22601 0
M  V30 11883 O 1080.3 -2.02417 -1.80941 0
M  V30 11884 C 1078.76 -3.5903 0.250161 0
M  V30 11885 C 1078.37 -4.1661 1.64742 0
M  V30 11886 C 1080.11 -4.24118 -0.180084 0
M  V30 11887 C 1078.02 -5.66948 1.68299 0
M  V30 11888 H 1076.95 -0.751674 0.0591769 0
M  V30 11889 H 1079.6 -1.64216 0.818859 0
M  V30 11890 H 1077.98 -3.93226 -0.467908 0
M  V30 11891 H 1079.15 -3.93908 2.3911 0
M  V30 11892 H 1077.47 -3.63905 2.02391 0
M  V30 11893 H 1080.07 -5.34419 -0.173401 0
M  V30 11894 H 1080.41 -3.98264 -1.21208 0
M  V30 11895 H 1080.94 -3.94816 0.486343 0
M  V30 11896 H 1077.68 -5.97573 2.69419 0
M  V30 11897 H 1077.2 -5.91697 0.98261 0
M  V30 11898 H 1078.88 -6.31041 1.42813 0
M  V30 11899 N 1079.01 -0.398486 -1.52479 0
M  V30 11900 C 1080.24 0.183059 -2.06591 0
M  V30 11901 C 1080.66 1.3898 -1.26753 0
M  V30 11902 O 1080.02 1.78885 -0.294959 0
M  V30 11903 C 1080.07 0.522392 -3.56796 0
M  V30 11904 O 1079.17 1.61499 -3.79462 0
M  V30 11905 H 1078.51 0.0188411 -0.663733 0
M  V30 11906 H 1081.04 -0.56861 -1.9654 0
M  V30 11907 H 1081.05 0.784078 -4.00395 0
M  V30 11908 H 1079.73 -0.359807 -4.14341 0
M  V30 11909 H 1078.31 1.3463 -3.47749 0
M  V30 11910 N 1080.49 1.57075 -0.12858 0
M  V30 11911 C 1081.74 1.94695 0.526952 0
M  V30 11912 C 1082.05 1.01482 1.67215 0
M  V30 11913 O 1083.26 1.28606 2.39108 0
M  V30 11914 C 1081.72 3.4605 0.988801 0
M  V30 11915 C 1081.32 4.47816 -0.128457 0
M  V30 11916 C 1083.07 3.92572 1.61517 0
M  V30 11917 C 1080.97 5.9036 0.350628 0
M  V30 11918 H 1079.9 0.726819 0.200623 0
M  V30 11919 H 1082.56 1.82295 -0.209972 0
M  V30 11920 H 1080.94 3.53718 1.78043 0
M  V30 11921 H 1082.11 4.51826 -0.904976 0
M  V30 11922 H 1080.43 4.11103 -0.662075 0
M  V30 11923 H 1083.02 4.96493 1.98491 0
M  V30 11924 H 1083.37 3.33085 2.49721 0
M  V30 11925 H 1083.9 3.87744 0.888768 0
M  V30 11926 H 1080.64 6.53624 -0.495592 0
M  V30 11927 H 1080.16 5.89749 1.09342 0
M  V30 11928 H 1081.84 6.41926 0.808717 0
M  V30 11929 N 1081.97 -0.145205 1.5693 0
M  V30 11930 C 1082.88 -1.19864 2.01667 0
M  V30 11931 C 1083.9 -1.46909 0.932402 0
M  V30 11932 O 1085.07 -1.58543 1.24201 0
M  V30 11933 C 1082.14 -2.51174 2.38982 0
M  V30 11934 C 1081.2 -2.3176 3.61366 0
M  V30 11935 C 1080.43 -3.56809 3.96892 0
M  V30 11936 O 1080.65 -4.63063 3.33059 0
M  V30 11937 O 1079.59 -3.49366 4.9013 0
M  V30 11938 H 1083.41 -0.848821 2.91597 0
M  V30 11939 H 1081 -0.354063 1.45144 0
M  V30 11940 H 1082.88 -3.28587 2.63835 0
M  V30 11941 H 1081.56 -2.85683 1.52207 0
M  V30 11942 H 1080.46 -1.52293 3.41698 0
M  V30 11943 H 1081.8 -2.02167 4.48764 0
M  V30 11944 N 1083.45 -1.52049 -0.414609 0
M  V30 11945 C 1084.38 -1.77956 -1.51175 0
M  V30 11946 C 1085.36 -0.630282 -1.57992 0
M  V30 11947 O 1086.54 -0.875324 -1.73354 0
M  V30 11948 C 1083.67 -1.92527 -2.89051 0
M  V30 11949 C 1082.63 -3.08096 -2.97087 0
M  V30 11950 C 1081.95 -3.07882 -4.37164 0
M  V30 11951 C 1083.25 -4.47656 -2.69075 0
M  V30 11952 H 1084.95 -2.69827 -1.29746 0
M  V30 11953 H 1082.49 -1.29839 -0.62273 0
M  V30 11954 H 1084.45 -2.09234 -3.65786 0
M  V30 11955 H 1083.17 -0.973235 -3.11762 0
M  V30 11956 H 1081.83 -2.91131 -2.22797 0
M  V30 11957 H 1081.48 -2.10411 -4.56877 0
M  V30 11958 H 1081.18 -3.85501 -4.43467 0
M  V30 11959 H 1082.7 -3.26712 -5.15841 0
M  V30 11960 H 1084.12 -4.64855 -3.35534 0
M  V30 11961 H 1082.51 -5.27151 -2.8676 0
M  V30 11962 H 1083.58 -4.56129 -1.64544 0
M  V30 11963 N 1084.93 0.6715 -1.42579 0
M  V30 11964 C 1086.17 1.42731 -1.42516 0
M  V30 11965 C 1086.49 1.95545 -0.0462407 0
M  V30 11966 O 1087.69 2.71391 0.0769798 0
M  V30 11967 C 1086.15 2.58215 -2.50705 0
M  V30 11968 C 1085.76 2.12086 -3.94618 0
M  V30 11969 C 1087.5 3.35705 -2.59813 0
M  V30 11970 C 1085.41 3.24672 -4.9431 0
M  V30 11971 H 1084.34 0.536218 -0.530081 0
M  V30 11972 H 1086.99 0.726655 -1.68499 0
M  V30 11973 H 1085.37 3.30665 -2.17892 0
M  V30 11974 H 1086.55 1.46768 -4.36802 0
M  V30 11975 H 1084.86 1.47526 -3.89391 0
M  V30 11976 H 1087.46 4.1956 -3.31472 0
M  V30 11977 H 1087.8 3.82517 -1.64276 0
M  V30 11978 H 1088.33 2.70326 -2.91836 0
M  V30 11979 H 1085.07 2.82848 -5.91335 0
M  V30 11980 H 1084.59 3.88761 -4.56755 0
M  V30 11981 H 1086.27 3.90088 -5.16179 0
M  V30 11982 N 1086.4 1.28806 0.908124 0
M  V30 11983 C 1087.31 1.15079 2.04436 0
M  V30 11984 C 1088.33 0.076012 1.73834 0
M  V30 11985 O 1089.51 0.286421 1.99353 0
M  V30 11986 C 1086.57 0.819733 3.3687 0
M  V30 11987 C 1085.63 1.97746 3.81045 0
M  V30 11988 C 1084.86 1.66211 5.07158 0
M  V30 11989 O 1085.09 0.579092 5.67453 0
M  V30 11990 O 1084.02 2.5075 5.47182 0
M  V30 11991 H 1087.85 2.10477 2.18937 0
M  V30 11992 H 1085.43 1.08177 1.03044 0
M  V30 11993 H 1087.31 0.649304 4.16368 0
M  V30 11994 H 1085.99 -0.10454 3.23531 0
M  V30 11995 H 1084.9 2.20308 3.02349 0
M  V30 11996 H 1086.23 2.88264 3.98955 0
M  V30 11997 N 1087.88 -1.11734 1.11145 0
M  V30 11998 C 1089.12 -1.85039 0.868318 0
M  V30 11999 C 1089.49 -1.82538 -0.595294 0
M  V30 12000 O 1090.69 -2.5126 -0.955071 0
M  V30 12001 C 1088.96 -3.28381 1.4107 0
M  V30 12002 S 1090.52 -4.18973 1.3041 0
M  V30 12003 H 1087.33 -0.638114 0.313578 0
M  V30 12004 H 1089.94 -1.34548 1.41835 0
M  V30 12005 H 1088.64 -3.27764 2.46979 0
M  V30 12006 H 1088.17 -3.83939 0.857576 0
M  V30 12007 H 1090.19 -4.95483 0.266605 0
M  V30 12008 N 1089.36 -0.901303 -1.29284 0
M  V30 12009 C 1090.61 -0.528826 -1.95784 0
M  V30 12010 C 1090.94 0.922833 -1.70873 0
M  V30 12011 O 1090.21 1.65448 -1.0226 0
M  V30 12012 C 1090.5 -0.823793 -3.50551 0
M  V30 12013 C 1090.35 -2.32727 -3.84913 0
M  V30 12014 C 1091.67 -0.311382 -4.38997 0
M  V30 12015 H 1088.79 -0.193604 -0.711116 0
M  V30 12016 H 1091.43 -1.12828 -1.52872 0
M  V30 12017 H 1089.58 -0.313612 -3.87232 0
M  V30 12018 H 1091.25 -2.90712 -3.58168 0
M  V30 12019 H 1089.49 -2.78735 -3.32399 0
M  V30 12020 H 1090.17 -2.48423 -4.9294 0
M  V30 12021 H 1092.64 -0.748265 -4.09317 0
M  V30 12022 H 1091.52 -0.546957 -5.46168 0
M  V30 12023 H 1091.78 0.787959 -4.35021 0
M  V30 12024 N 1090.84 1.42931 -0.663954 0
M  V30 12025 C 1091.79 2.32577 0.03287 0
M  V30 12026 C 1092.78 1.49217 0.801918 0
M  V30 12027 O 1093.99 1.65358 0.711106 0
M  V30 12028 H 1090.36 0.751424 0.0294198 0
M  V30 12029 H 1092.33 2.89059 -0.740763 0
M  V30 12030 C 1091.08 3.33661 0.978025 0
M  V30 12031 H 1090.4 3.97837 0.395681 0
M  V30 12032 H 1091.84 3.98997 1.43448 0
M  V30 12033 C 1090.3 2.65085 2.07922 0
M  V30 12034 O 1090.83 2.4745 3.16435 0
M  V30 12035 N 1089.04 2.24285 1.84783 0
M  V30 12036 H 1088.59 2.38827 0.965368 0
M  V30 12037 H 1088.54 1.78732 2.58655 0
M  V30 12038 N 1092.32 0.406567 1.52266 0
M  V30 12039 C 1093.26 -0.43489 2.28498 0
M  V30 12040 C 1094.26 -1.04806 1.33086 0
M  V30 12041 O 1095.46 -0.986557 1.50556 0
M  V30 12042 H 1091.84 -0.159023 0.734994 0
M  V30 12043 H 1093.81 0.229316 2.97518 0
M  V30 12044 C 1092.56 -1.54073 3.117 0
M  V30 12045 H 1091.88 -1.07824 3.84986 0
M  V30 12046 H 1093.32 -2.10337 3.6815 0
M  V30 12047 C 1091.78 -2.50662 2.251 0
M  V30 12048 O 1092.31 -3.54486 1.88951 0
M  V30 12049 N 1090.52 -2.20811 1.8892 0
M  V30 12050 H 1090.06 -1.36413 2.18516 0
M  V30 12051 H 1090.02 -2.85684 1.3127 0
M  V30 12052 N 1093.79 -1.57004 0.136909 0
M  V30 12053 C 1095.04 -1.94972 -0.51662 0
M  V30 12054 C 1095.36 -1.02367 -1.66674 0
M  V30 12055 O 1096.56 -1.29873 -2.38423 0
M  V30 12056 C 1095.02 -3.4657 -0.970435 0
M  V30 12057 C 1094.63 -4.47741 0.152204 0
M  V30 12058 C 1096.37 -3.93423 -1.59432 0
M  V30 12059 C 1094.28 -5.90537 -0.319315 0
M  V30 12060 H 1093.21 -0.727873 -0.196766 0
M  V30 12061 H 1095.86 -1.82181 0.219637 0
M  V30 12062 H 1094.24 -3.54657 -1.76165 0
M  V30 12063 H 1095.41 -4.5134 0.928925 0
M  V30 12064 H 1093.73 -4.10746 0.683867 0
M  V30 12065 H 1096.33 -4.97539 -1.95856 0
M  V30 12066 H 1096.67 -3.34404 -2.47951 0
M  V30 12067 H 1097.2 -3.8821 -0.868193 0
M  V30 12068 H 1093.94 -6.53352 0.530248 0
M  V30 12069 H 1093.46 -5.90321 -1.06213 0
M  V30 12070 H 1095.14 -6.42346 -0.774662 0
M  V30 12071 N 1095.27 0.136881 -1.57004 0
M  V30 12072 C 1096.51 0.853873 -1.8571 0
M  V30 12073 C 1096.88 1.77885 -0.722556 0
M  V30 12074 O 1098.08 2.53606 -0.89092 0
M  V30 12075 C 1096.35 1.59935 -3.19618 0
M  V30 12076 S 1097.91 2.36038 -3.69908 0
M  V30 12077 H 1094.73 0.285342 -0.65123 0
M  V30 12078 H 1097.33 0.113254 -1.95172 0
M  V30 12079 H 1096.03 0.91148 -4.0015 0
M  V30 12080 H 1095.56 2.38069 -3.13188 0
M  V30 12081 H 1097.58 3.61425 -3.3998 0
M  V30 12082 N 1096.75 1.52266 0.40654 0
M  V30 12083 C 1097.71 1.75168 1.47814 0
M  V30 12084 C 1098.71 0.621575 1.48301 0
M  V30 12085 O 1099.9 0.889476 1.4978 0
M  V30 12086 C 1097.04 1.83642 2.87208 0
M  V30 12087 H 1098.23 2.70834 1.28798 0
M  V30 12088 H 1095.78 1.42722 0.637196 0
M  V30 12089 H 1096.52 0.898994 3.1159 0
M  V30 12090 H 1096.3 2.65801 2.88257 0
M  V30 12091 H 1097.79 2.03093 3.64888 0
M  V30 12092 N 1098.23 -0.663929 1.42933 0
M  V30 12093 C 1099.16 -1.78876 1.41699 0
M  V30 12094 C 1100.14 -1.60174 0.27981 0
M  V30 12095 O 1101.32 -1.82502 0.471735 0
M  V30 12096 C 1098.45 -3.1603 1.2183 0
M  V30 12097 C 1097.5 -3.53457 2.38685 0
M  V30 12098 S 1098.33 -3.54648 4.01229 0
M  V30 12099 C 1099.49 -4.94477 3.83723 0
M  V30 12100 H 1099.72 -1.7965 2.36882 0
M  V30 12101 H 1097.25 -0.835596 1.29835 0
M  V30 12102 H 1099.21 -3.95193 1.11054 0
M  V30 12103 H 1097.87 -3.1283 0.282139 0
M  V30 12104 H 1097.06 -4.53178 2.20559 0
M  V30 12105 H 1096.67 -2.81681 2.46032 0
M  V30 12106 H 1098.96 -5.82851 3.45386 0
M  V30 12107 H 1099.9 -5.17652 4.83158 0
M  V30 12108 H 1100.31 -4.67507 3.16382 0
M  V30 12109 N 1099.71 -1.29285 -0.901281 0
M  V30 12110 C 1100.64 -1.16832 -2.0217 0
M  V30 12111 C 1101.62 -0.0629265 -1.69984 0
M  V30 12112 O 1102.8 -0.242123 -1.92685 0
M  V30 12113 C 1099.93 -0.842406 -3.36929 0
M  V30 12114 C 1098.89 -1.90394 -3.8332 0
M  V30 12115 C 1098.21 -1.43138 -5.15185 0
M  V30 12116 C 1099.51 -3.31254 -4.03817 0
M  V30 12117 H 1101.21 -2.10562 -2.12847 0
M  V30 12118 H 1098.75 -1.01375 -1.0227 0
M  V30 12119 H 1100.71 -0.741999 -4.14816 0
M  V30 12120 H 1099.43 0.130598 -3.26339 0
M  V30 12121 H 1098.09 -1.99371 -3.07647 0
M  V30 12122 H 1097.74 -0.447091 -5.01009 0
M  V30 12123 H 1097.44 -2.14129 -5.47195 0
M  V30 12124 H 1098.96 -1.34444 -5.95615 0
M  V30 12125 H 1100.37 -3.25129 -4.72191 0
M  V30 12126 H 1098.77 -4.00189 -4.47178 0
M  V30 12127 H 1099.84 -3.74349 -3.08206 0
M  V30 12128 N 1101.18 1.11143 -1.11736 0
M  V30 12129 C 1102.11 2.19339 -0.800795 0
M  V30 12130 C 1103.1 1.68508 0.23221 0
M  V30 12131 O 1104.28 1.93967 0.0950063 0
M  V30 12132 C 1101.41 3.46424 -0.246579 0
M  V30 12133 C 1100.36 4.10487 -1.21181 0
M  V30 12134 C 1099.69 5.32183 -0.518158 0
M  V30 12135 C 1100.99 4.55052 -2.56368 0
M  V30 12136 H 1102.68 2.46077 -1.70548 0
M  V30 12137 H 1100.23 1.18271 -0.821454 0
M  V30 12138 H 1102.18 4.21398 -0.0128889 0
M  V30 12139 H 1100.91 3.19154 0.693415 0
M  V30 12140 H 1099.57 3.3751 -1.43118 0
M  V30 12141 H 1099.21 5.01187 0.426742 0
M  V30 12142 H 1098.91 5.75997 -1.16196 0
M  V30 12143 H 1100.44 6.09895 -0.293333 0
M  V30 12144 H 1101.85 5.21335 -2.38501 0
M  V30 12145 H 1100.25 5.0969 -3.16758 0
M  V30 12146 H 1101.32 3.68343 -3.1536 0
M  V30 12147 N 1102.66 0.908147 1.28804 0
M  V30 12148 C 1103.57 0.397167 2.31214 0
M  V30 12149 C 1104.59 -0.512352 1.66286 0
M  V30 12150 O 1105.76 -0.399893 1.9739 0
M  V30 12151 C 1102.83 -0.359522 3.44831 0
M  V30 12152 C 1101.89 0.582539 4.25329 0
M  V30 12153 C 1101.12 -0.138133 5.33521 0
M  V30 12154 O 1101.35 -1.36076 5.53931 0
M  V30 12155 O 1100.28 0.523682 5.99618 0
M  V30 12156 H 1104.11 1.247 2.76918 0
M  V30 12157 H 1101.69 0.672766 1.33395 0
M  V30 12158 H 1103.57 -0.787098 4.13984 0
M  V30 12159 H 1102.25 -1.18528 3.01219 0
M  V30 12160 H 1101.16 1.0594 3.58786 0
M  V30 12161 H 1102.49 1.37495 4.72605 0
M  V30 12162 N 1104.14 -1.42577 0.671525 0
M  V30 12163 C 1105.39 -2.01882 0.192716 0
M  V30 12164 C 1105.72 -1.52959 -1.19654 0
M  V30 12165 O 1104.99 -0.730404 -1.80265 0
M  V30 12166 C 1105.28 -3.59404 0.223734 0
M  V30 12167 C 1105.13 -4.18514 1.64821 0
M  V30 12168 C 1106.45 -4.37996 -0.429858 0
M  V30 12169 H 1103.57 -0.733523 0.0715026 0
M  V30 12170 H 1106.21 -1.69641 0.855689 0
M  V30 12171 H 1104.36 -3.87003 -0.340776 0
M  V30 12172 H 1106.03 -4.01881 2.26472 0
M  V30 12173 H 1104.28 -3.74467 2.1899 0
M  V30 12174 H 1104.95 -5.27643 1.62162 0
M  V30 12175 H 1107.42 -4.16069 0.0506433 0
M  V30 12176 H 1106.3 -5.476 -0.377503 0
M  V30 12177 H 1106.56 -4.15625 -1.50693 0
M  V30 12178 N 1105.62 -0.414636 -1.52048 0
M  V30 12179 C 1107.03 0.0537107 -1.86623 0
M  V30 12180 C 1107.38 1.43955 -1.3331 0
M  V30 12181 O 1106.51 2.05616 -0.674606 0
M  V30 12182 C 1107.1 0.104241 -3.3864 0
M  V30 12183 C 1105.66 0.516936 -3.72833 0
M  V30 12184 C 1104.81 -0.305042 -2.75617 0
M  V30 12185 H 1107.76 -0.631469 -1.45596 0
M  V30 12186 H 1107.78 0.918395 -3.6925 0
M  V30 12187 H 1107.29 -0.904523 -3.77412 0
M  V30 12188 H 1105.39 1.53214 -3.39641 0
M  V30 12189 H 1105.5 0.2575 -4.78408 0
M  V30 12190 H 1103.87 0.233416 -2.53628 0
M  V30 12191 H 1104.65 -1.31226 -3.1723 0
M  V30 12192 N 1107.1 1.56929 -0.145233 0
M  V30 12193 C 1108.04 2.17958 0.812237 0
M  V30 12194 C 1109.04 1.13608 1.25657 0
M  V30 12195 O 1110.24 1.31861 1.22526 0
M  V30 12196 H 1106.62 0.697876 0.28013 0
M  V30 12197 H 1108.59 2.97146 0.273297 0
M  V30 12198 C 1107.34 2.81418 2.04203 0
M  V30 12199 H 1106.66 3.61427 1.70911 0
M  V30 12200 H 1108.1 3.27624 2.69144 0
M  V30 12201 C 1106.56 1.79835 2.84888 0
M  V30 12202 O 1107.09 1.26773 3.81171 0
M  V30 12203 N 1105.3 1.49179 2.49387 0
M  V30 12204 H 1104.84 1.9252 1.71154 0
M  V30 12205 H 1104.8 0.81458 3.03664 0
M  V30 12206 N 1108.58 -0.128553 1.57075 0
M  V30 12207 C 1109.51 -1.15953 2.02675 0
M  V30 12208 C 1110.49 -1.43743 0.909501 0
M  V30 12209 O 1111.67 -1.54348 1.17857 0
M  V30 12210 C 1108.8 -2.48813 2.423 0
M  V30 12211 C 1107.76 -2.35506 3.57381 0
M  V30 12212 C 1107.08 -3.73243 3.82875 0
M  V30 12213 C 1108.38 -1.82359 4.89431 0
M  V30 12214 H 1110.08 -0.780283 2.89054 0
M  V30 12215 H 1107.62 -0.373896 1.39061 0
M  V30 12216 H 1109.57 -3.21179 2.72804 0
M  V30 12217 H 1108.3 -2.88609 1.52881 0
M  V30 12218 H 1106.96 -1.6559 3.27071 0
M  V30 12219 H 1106.61 -4.10507 2.90677 0
M  V30 12220 H 1106.31 -3.65195 4.60333 0
M  V30 12221 H 1107.83 -4.47128 4.15823 0
M  V30 12222 H 1109.24 -2.44533 5.18533 0
M  V30 12223 H 1107.64 -1.85156 5.70822 0
M  V30 12224 H 1108.71 -0.780478 4.78578 0
M  V30 12225 N 1110.05 -1.5248 -0.398459 0
M  V30 12226 C 1111.02 -1.75949 -1.46883 0
M  V30 12227 C 1112.02 -0.629431 -1.47969 0
M  V30 12228 O 1113.21 -0.897407 -1.49306 0
M  V30 12229 C 1110.34 -1.85162 -2.8623 0
M  V30 12230 H 1111.53 -2.71513 -1.2736 0
M  V30 12231 H 1109.08 -1.43058 -0.629619 0
M  V30 12232 H 1109.82 -0.915505 -3.11109 0
M  V30 12233 H 1109.6 -2.67326 -2.86844 0
M  V30 12234 H 1111.09 -2.05025 -3.63805 0
M  V30 12235 N 1111.53 0.65634 -1.43283 0
M  V30 12236 C 1112.48 1.76934 -1.48199 0
M  V30 12237 C 1113.45 1.62748 -0.332023 0
M  V30 12238 O 1114.63 1.83036 -0.538735 0
M  V30 12239 C 1111.77 3.15072 -1.40797 0
M  V30 12240 C 1110.89 3.40414 -2.65974 0
M  V30 12241 C 1110.02 4.68383 -2.50582 0
M  V30 12242 C 1109.06 4.8682 -3.71043 0
M  V30 12243 N 1108.2 6.06043 -3.5448 0
M  V30 12244 H 1113.04 1.72067 -2.43304 0
M  V30 12245 H 1110.57 0.839728 -1.20777 0
M  V30 12246 H 1112.53 3.94925 -1.345 0
M  V30 12247 H 1111.16 3.19017 -0.492754 0
M  V30 12248 H 1110.21 2.54681 -2.82563 0
M  V30 12249 H 1111.53 3.49925 -3.55463 0
M  V30 12250 H 1110.68 5.56357 -2.41975 0
M  V30 12251 H 1109.42 4.61187 -1.58612 0
M  V30 12252 H 1108.42 3.97282 -3.80062 0
M  V30 12253 H 1109.65 4.95847 -4.64017 0
M  V30 12254 H 1107.6 5.99985 -2.65242 0
M  V30 12255 H 1107.51 6.16498 -4.37568 0
M  V30 12256 H 1108.78 6.96647 -3.49719 0
M  V30 12257 N 1113.01 1.29761 0.894412 0
M  V30 12258 C 1113.96 1.15232 2.0205 0
M  V30 12259 C 1114.95 0.0665664 1.69269 0
M  V30 12260 O 1116.16 0.226746 1.78566 0
M  V30 12261 H 1112.53 0.356102 0.662341 0
M  V30 12262 H 1114.5 2.10559 2.11442 0
M  V30 12263 C 1113.25 0.851143 3.37121 0
M  V30 12264 H 1112.58 1.67865 3.62852 0
M  V30 12265 H 1114.02 0.78954 4.16584 0
M  V30 12266 C 1112.47 -0.445737 3.33938 0
M  V30 12267 O 1113 -1.47017 3.7383 0
M  V30 12268 N 1111.21 -0.453493 2.8704 0
M  V30 12269 H 1110.76 0.380636 2.54772 0
M  V30 12270 H 1110.72 -1.32119 2.85293 0
M  V30 12271 N 1114.49 -1.10549 1.12324 0
M  V30 12272 C 1115.72 -1.8627 0.900618 0
M  V30 12273 C 1116.13 -1.80609 -0.550069 0
M  V30 12274 O 1115.49 -1.19396 -1.38025 0
M  V30 12275 C 1115.54 -3.34716 1.36556 0
M  V30 12276 O 1115.26 -3.40279 2.75938 0
M  V30 12277 C 1116.76 -4.27315 1.17969 0
M  V30 12278 H 1113.98 -0.588741 0.321908 0
M  V30 12279 H 1116.52 -1.39759 1.49291 0
M  V30 12280 H 1114.68 -3.78697 0.81652 0
M  V30 12281 H 1115.09 -4.32781 2.96312 0
M  V30 12282 H 1116.57 -5.29677 1.55391 0
M  V30 12283 H 1117.04 -4.39036 0.120158 0
M  V30 12284 H 1117.65 -3.89137 1.71617 0
M  V30 12285 N 1115.97 -0.914965 -1.28321 0
M  V30 12286 C 1117.2 -0.563835 -1.98757 0
M  V30 12287 C 1117.6 0.859528 -1.68549 0
M  V30 12288 O 1116.95 1.58105 -0.935336 0
M  V30 12289 C 1117.01 -0.694539 -3.52727 0
M  V30 12290 C 1116.67 -2.08767 -4.06528 0
M  V30 12291 C 1117.67 -3.06052 -4.20272 0
M  V30 12292 C 1115.35 -2.40118 -4.4119 0
M  V30 12293 C 1117.35 -4.32803 -4.67932 0
M  V30 12294 C 1115.04 -3.67108 -4.88544 0
M  V30 12295 C 1116.03 -4.63265 -5.01871 0
M  V30 12296 O 1115.72 -5.87997 -5.48192 0
M  V30 12297 H 1115.45 -0.213557 -0.641381 0
M  V30 12298 H 1118.01 -1.23062 -1.64453 0
M  V30 12299 H 1116.24 0.0293186 -3.86689 0
M  V30 12300 H 1117.93 -0.350335 -4.04385 0
M  V30 12301 H 1118.69 -2.8315 -3.93765 0
M  V30 12302 H 1114.57 -1.66025 -4.30066 0
M  V30 12303 H 1118.12 -5.07861 -4.78249 0
M  V30 12304 H 1114.01 -3.89834 -5.14489 0
M  V30 12305 H 1114.78 -5.90804 -5.66474 0
M  V30 12306 N 1117.44 1.42219 -0.679077 0
M  V30 12307 C 1118.35 2.346 -0.00345919 0
M  V30 12308 C 1119.37 1.55327 0.784181 0
M  V30 12309 O 1120.55 1.87878 0.725524 0
M  V30 12310 C 1117.61 3.33905 0.933194 0
M  V30 12311 C 1116.67 4.29073 0.139607 0
M  V30 12312 C 1115.9 5.23634 1.03165 0
M  V30 12313 O 1116.13 5.23234 2.27119 0
M  V30 12314 O 1115.06 5.99901 0.490159 0
M  V30 12315 H 1118.89 2.9392 -0.764525 0
M  V30 12316 H 1116.47 1.42794 -0.439329 0
M  V30 12317 H 1118.35 3.949 1.47077 0
M  V30 12318 H 1117.03 2.77052 1.67404 0
M  V30 12319 H 1115.94 3.71478 -0.442177 0
M  V30 12320 H 1117.27 4.88979 -0.562214 0
M  V30 12321 N 1118.92 0.422693 1.51826 0
M  V30 12322 C 1120.15 -0.15017 2.06856 0
M  V30 12323 C 1120.57 -1.36946 1.28948 0
M  V30 12324 O 1119.93 -1.78393 0.32338 0
M  V30 12325 C 1119.98 -0.465563 3.57582 0
M  V30 12326 O 1119.08 -1.55442 3.81984 0
M  V30 12327 H 1118.42 -0.00827931 0.663948 0
M  V30 12328 H 1120.95 0.599806 1.95611 0
M  V30 12329 H 1120.96 -0.720279 4.01592 0
M  V30 12330 H 1119.64 0.425679 4.13716 0
M  V30 12331 H 1118.21 -1.29081 3.49846 0
M  V30 12332 N 1120.4 -1.5685 0.153553 0
M  V30 12333 C 1121.35 -2.1709 -0.783626 0
M  V30 12334 C 1122.32 -1.10567 -1.23952 0
M  V30 12335 O 1123.5 -1.38638 -1.31088 0
M  V30 12336 C 1120.64 -2.80183 -2.01473 0
M  V30 12337 C 1119.75 -4.01117 -1.60403 0
M  V30 12338 C 1118.89 -4.5219 -2.78743 0
M  V30 12339 C 1117.93 -5.65574 -2.34079 0
M  V30 12340 N 1117.07 -6.11235 -3.4545 0
M  V30 12341 H 1121.91 -2.96836 -0.263127 0
M  V30 12342 H 1119.44 -1.46625 -0.11816 0
M  V30 12343 H 1121.4 -3.14912 -2.73654 0
M  V30 12344 H 1120.03 -2.03071 -2.50923 0
M  V30 12345 H 1119.08 -3.72325 -0.779631 0
M  V30 12346 H 1120.39 -4.83243 -1.23605 0
M  V30 12347 H 1119.55 -4.89008 -3.59105 0
M  V30 12348 H 1118.29 -3.69085 -3.18791 0
M  V30 12349 H 1117.29 -5.28326 -1.52158 0
M  V30 12350 H 1118.52 -6.50468 -1.95109 0
M  V30 12351 H 1116.46 -5.31064 -3.85106 0
M  V30 12352 H 1116.38 -6.88304 -3.12687 0
M  V30 12353 H 1117.65 -6.527 -4.26149 0
M  V30 12354 N 1121.88 0.120221 -1.57141 0
M  V30 12355 C 1122.82 1.14751 -2.00252 0
M  V30 12356 C 1123.79 1.41217 -0.874462 0
M  V30 12357 O 1124.98 1.53104 -1.13859 0
M  V30 12358 C 1122.12 2.46923 -2.41087 0
M  V30 12359 C 1121.23 2.27403 -3.67303 0
M  V30 12360 C 1120.37 3.52797 -3.97125 0
M  V30 12361 C 1119.41 3.28429 -5.16528 0
M  V30 12362 N 1118.54 4.46022 -5.42226 0
M  V30 12363 H 1123.38 0.772884 -2.87803 0
M  V30 12364 H 1120.92 0.370137 -1.42367 0
M  V30 12365 H 1122.88 3.24025 -2.62799 0
M  V30 12366 H 1121.51 2.82281 -1.5658 0
M  V30 12367 H 1120.56 1.41224 -3.53214 0
M  V30 12368 H 1121.87 2.05373 -4.54558 0
M  V30 12369 H 1121.03 4.38318 -4.19479 0
M  V30 12370 H 1119.77 3.77857 -3.08343 0
M  V30 12371 H 1118.77 2.41299 -4.94019 0
M  V30 12372 H 1120 3.0474 -6.06886 0
M  V30 12373 H 1117.94 4.71205 -4.56401 0
M  V30 12374 H 1117.86 4.27092 -6.23802 0
M  V30 12375 H 1119.13 5.3268 -5.69098 0
M  V30 12376 N 1123.36 1.52689 0.390367 0
M  V30 12377 C 1124.63 1.58246 1.14968 0
M  V30 12378 C 1125.01 0.374808 2.07746 0
M  V30 12379 O 1124.36 -0.636969 2.19442 0
M  V30 12380 C 1124.57 2.92059 1.91056 0
M  V30 12381 C 1125.92 3.45745 2.46466 0
M  V30 12382 O 1126.94 2.93924 2.01214 0
M  V30 12383 O 1125.8 4.3628 3.29122 0
M  V30 12384 H 1122.9 0.638189 0.52597 0
M  V30 12385 H 1125.44 1.65024 0.39563 0
M  V30 12386 H 1124.21 3.71399 1.23201 0
M  V30 12387 H 1123.84 2.8866 2.73425 0
M  V30 12388 N 1124.83 -0.648732 1.43629 0
M  V30 12389 C 1126.08 -1.40446 1.44768 0
M  V30 12390 C 1126.4 -1.95447 0.0773445 0
M  V30 12391 O 1127.6 -2.71479 -0.0337942 0
M  V30 12392 C 1126.06 -2.54194 2.54781 0
M  V30 12393 C 1125.67 -2.05781 3.97942 0
M  V30 12394 C 1127.41 -3.31529 2.65121 0
M  V30 12395 C 1125.32 -3.16767 4.99412 0
M  V30 12396 H 1124.25 -0.527717 0.538545 0
M  V30 12397 H 1126.9 -0.699756 1.69634 0
M  V30 12398 H 1125.28 -3.27156 2.23125 0
M  V30 12399 H 1126.45 -1.398 4.39081 0
M  V30 12400 H 1124.77 -1.41312 3.91688 0
M  V30 12401 H 1127.37 -4.14233 3.38105 0
M  V30 12402 H 1127.71 -3.79855 1.70341 0
M  V30 12403 H 1128.24 -2.65649 2.961 0
M  V30 12404 H 1124.98 -2.73404 5.9576 0
M  V30 12405 H 1124.5 -3.81445 4.62882 0
M  V30 12406 H 1126.18 -3.81827 5.22319 0
M  V30 12407 N 1126.31 -1.30234 -0.887518 0
M  V30 12408 C 1127.56 -1.18277 -1.63381 0
M  V30 12409 C 1127.87 0.262079 -1.93836 0
M  V30 12410 O 1129.08 0.503127 -2.66797 0
M  V30 12411 C 1127.54 -2.06944 -2.94452 0
M  V30 12412 C 1127.14 -3.56323 -2.71547 0
M  V30 12413 C 1128.89 -2.03743 -3.7241 0
M  V30 12414 C 1126.8 -4.37054 -3.98419 0
M  V30 12415 H 1125.73 -0.439087 -0.612959 0
M  V30 12416 H 1128.38 -1.54964 -0.982779 0
M  V30 12417 H 1126.76 -1.63138 -3.60835 0
M  V30 12418 H 1127.93 -4.08261 -2.13681 0
M  V30 12419 H 1126.25 -3.61321 -2.06969 0
M  V30 12420 H 1128.84 -2.61312 -4.66497 0
M  V30 12421 H 1129.19 -1.02029 -4.03603 0
M  V30 12422 H 1129.72 -2.45657 -3.12886 0
M  V30 12423 H 1126.46 -5.39453 -3.72385 0
M  V30 12424 H 1125.98 -3.89881 -4.55799 0
M  V30 12425 H 1127.66 -4.48356 -4.66462 0
M  V30 12426 N 1127.79 1.09952 -1.12909 0
M  V30 12427 C 1129.02 1.8633 -0.910821 0
M  V30 12428 C 1129.44 1.80335 0.534874 0
M  V30 12429 O 1128.8 1.1769 1.37908 0
M  V30 12430 C 1128.85 3.32462 -1.39648 0
M  V30 12431 O 1127.95 4.08327 -0.578192 0
M  V30 12432 H 1127.29 0.577984 -0.32685 0
M  V30 12433 H 1129.82 1.38883 -1.50242 0
M  V30 12434 H 1129.83 3.83311 -1.39774 0
M  V30 12435 H 1128.51 3.36141 -2.44913 0
M  V30 12436 H 1127.08 3.67291 -0.644347 0
M  V30 12437 N 1129.27 0.921757 1.27833 0
M  V30 12438 C 1130.68 0.621102 1.47019 0
M  V30 12439 C 1130.88 -0.831338 1.83551 0
M  V30 12440 O 1129.94 -1.60974 1.94534 0
M  V30 12441 C 1131.25 1.56588 2.56712 0
M  V30 12442 C 1132.8 1.57346 2.70576 0
M  V30 12443 C 1133.28 2.50505 3.8342 0
M  V30 12444 N 1134.77 2.48678 3.90786 0
M  V30 12445 C 1135.5 3.17454 4.77505 0
M  V30 12446 N 1135 3.95588 5.68755 0
M  V30 12447 N 1136.79 3.06501 4.71183 0
M  V30 12448 H 1128.94 1.86085 1.02403 0
M  V30 12449 H 1131.21 0.798595 0.510833 0
M  V30 12450 H 1130.91 2.60175 2.36647 0
M  V30 12451 H 1130.79 1.30305 3.53978 0
M  V30 12452 H 1133.17 0.544919 2.90025 0
M  V30 12453 H 1133.25 1.87675 1.73815 0
M  V30 12454 H 1132.9 3.53466 3.64725 0
M  V30 12455 H 1132.83 2.17474 4.79596 0
M  V30 12456 H 1135.32 1.91928 3.25534 0
M  V30 12457 H 1135.63 4.45066 6.31772 0
M  V30 12458 H 1133.98 3.99692 5.6857 0
M  V30 12459 H 1137.17 2.44958 3.9889 0
M  V30 12460 H 1137.34 3.60372 5.3855 0
M  V30 12461 N 1130.75 -1.41857 0.686609 0
M  V30 12462 C 1131.68 -2.29188 -0.0234289 0
M  V30 12463 C 1132.69 -1.44311 -0.753541 0
M  V30 12464 O 1133.88 -1.67908 -0.605734 0
M  V30 12465 C 1130.98 -3.21991 -1.05713 0
M  V30 12466 C 1130.15 -4.35581 -0.398453 0
M  V30 12467 C 1129.21 -5.09022 -1.33354 0
M  V30 12468 O 1128.24 -5.63126 -0.829334 0
M  V30 12469 N 1129.44 -5.15643 -2.66632 0
M  V30 12470 H 1132.21 -2.90766 0.726295 0
M  V30 12471 H 1129.77 -1.52912 0.531937 0
M  V30 12472 H 1131.76 -3.6799 -1.68421 0
M  V30 12473 H 1130.33 -2.61782 -1.70847 0
M  V30 12474 H 1129.55 -3.92079 0.408358 0
M  V30 12475 H 1130.84 -5.08765 0.0599239 0
M  V30 12476 H 1130.23 -4.73118 -3.10122 0
M  V30 12477 H 1128.79 -5.65248 -3.24558 0
M  V30 12478 N 1132.22 -0.430739 -1.51599 0
M  V30 12479 C 1133.47 0.137929 -2.0203 0
M  V30 12480 C 1133.8 1.43287 -1.31526 0
M  V30 12481 O 1133.05 1.9121 -0.416814 0
M  V30 12482 C 1133.35 0.410694 -3.55032 0
M  V30 12483 C 1133.02 -0.797634 -4.43789 0
M  V30 12484 C 1131.68 -1.12902 -4.67768 0
M  V30 12485 C 1134.03 -1.60403 -4.95904 0
M  V30 12486 C 1131.36 -2.2676 -5.41107 0
M  V30 12487 C 1133.71 -2.73354 -5.70491 0
M  V30 12488 C 1132.38 -3.06955 -5.92735 0
M  V30 12489 H 1131.65 0.0504718 -0.739279 0
M  V30 12490 H 1134.29 -0.576585 -1.82614 0
M  V30 12491 H 1132.6 1.20703 -3.72744 0
M  V30 12492 H 1134.3 0.864006 -3.91581 0
M  V30 12493 H 1130.89 -0.529397 -4.25318 0
M  V30 12494 H 1135.07 -1.36122 -4.77268 0
M  V30 12495 H 1130.33 -2.53114 -5.56546 0
M  V30 12496 H 1134.5 -3.36213 -6.09864 0
M  V30 12497 H 1132.13 -3.95293 -6.49344 0
M  V30 12498 N 1133.7 1.56767 -0.161869 0
M  V30 12499 C 1135.12 1.58412 0.194403 0
M  V30 12500 C 1135.32 1.17682 1.63564 0
M  V30 12501 O 1134.37 0.884024 2.36519 0
M  V30 12502 C 1135.69 3.00599 -0.0778438 0
M  V30 12503 C 1137.24 3.12996 -0.015307 0
M  V30 12504 C 1137.71 4.57259 -0.260418 0
M  V30 12505 N 1139.2 4.62733 -0.207863 0
M  V30 12506 C 1139.94 5.72193 -0.371821 0
M  V30 12507 N 1139.43 6.90246 -0.594318 0
M  V30 12508 N 1141.23 5.61253 -0.308384 0
M  V30 12509 H 1133.38 1.81531 -1.10274 0
M  V30 12510 H 1135.64 0.840919 -0.437675 0
M  V30 12511 H 1135.35 3.3484 -1.07587 0
M  V30 12512 H 1135.22 3.71819 0.634845 0
M  V30 12513 H 1137.61 2.78588 0.97329 0
M  V30 12514 H 1137.69 2.44232 -0.760559 0
M  V30 12515 H 1137.33 4.92375 -1.24618 0
M  V30 12516 H 1137.26 5.2417 0.505334 0
M  V30 12517 H 1139.75 3.77878 -0.0411541 0
M  V30 12518 H 1140.07 7.6954 -0.70913 0
M  V30 12519 H 1138.41 6.92131 -0.630819 0
M  V30 12520 H 1141.6 4.67905 -0.135217 0
M  V30 12521 H 1141.77 6.46507 -0.439592 0
M  V30 12522 N 1135.18 -0.111886 1.57202 0
M  V30 12523 C 1136.6 -0.465629 1.52657 0
M  V30 12524 C 1136.8 -1.81463 0.875989 0
M  V30 12525 O 1135.85 -2.4825 0.461345 0
M  V30 12526 C 1137.17 -0.443571 2.9741 0
M  V30 12527 C 1138.71 -0.52662 3.08538 0
M  V30 12528 C 1139.19 -0.53488 4.54866 0
M  V30 12529 N 1140.68 -0.596117 4.59348 0
M  V30 12530 C 1141.41 -0.624073 5.69994 0
M  V30 12531 N 1140.91 -0.609245 6.90116 0
M  V30 12532 N 1142.7 -0.667619 5.58121 0
M  V30 12533 H 1134.85 0.771925 1.97876 0
M  V30 12534 H 1137.12 0.285534 0.903977 0
M  V30 12535 H 1136.82 0.480138 3.48407 0
M  V30 12536 H 1136.7 -1.26876 3.55221 0
M  V30 12537 H 1139.08 -1.44075 2.57539 0
M  V30 12538 H 1139.17 0.326396 2.53709 0
M  V30 12539 H 1138.81 0.375233 5.06512 0
M  V30 12540 H 1138.74 -1.40488 5.07514 0
M  V30 12541 H 1141.23 -0.613452 3.72888 0
M  V30 12542 H 1141.54 -0.633396 7.702 0
M  V30 12543 H 1139.89 -0.576557 6.92604 0
M  V30 12544 H 1143.08 -0.676616 4.63184 0
M  V30 12545 H 1143.25 -0.685938 6.44359 0
M  V30 12546 N 1136.66 -1.52894 -0.382264 0
M  V30 12547 C 1137.91 -1.68266 -1.12663 0
M  V30 12548 C 1138.23 -0.425974 -1.89778 0
M  V30 12549 O 1137.49 0.59178 -1.86538 0
M  V30 12550 C 1137.79 -2.87309 -2.12576 0
M  V30 12551 C 1137.45 -4.24484 -1.52067 0
M  V30 12552 C 1136.12 -4.6179 -1.35292 0
M  V30 12553 C 1138.47 -5.09858 -1.08138 0
M  V30 12554 C 1135.8 -5.82123 -0.731449 0
M  V30 12555 C 1138.15 -6.30822 -0.473986 0
M  V30 12556 C 1136.81 -6.66854 -0.293585 0
M  V30 12557 H 1136.08 -0.615728 -0.412262 0
M  V30 12558 H 1138.73 -1.8705 -0.410425 0
M  V30 12559 H 1137.03 -2.62968 -2.90439 0
M  V30 12560 H 1138.73 -2.96397 -2.70092 0
M  V30 12561 H 1135.32 -3.951 -1.66114 0
M  V30 12562 H 1139.5 -4.816 -1.19898 0
M  V30 12563 H 1134.76 -6.08643 -0.579938 0
M  V30 12564 H 1138.93 -6.96287 -0.125324 0
M  V30 12565 H 1136.56 -7.59962 0.190054 0
M  V30 12566 N 1138.14 0.641106 -1.43971 0
M  V30 12567 C 1139.07 1.76489 -1.52885 0
M  V30 12568 C 1140.05 1.65742 -0.38258 0
M  V30 12569 O 1141.23 1.84653 -0.601397 0
M  V30 12570 C 1138.36 3.14977 -1.4631 0
M  V30 12571 C 1137.32 3.40502 -2.59311 0
M  V30 12572 C 1136.64 4.78916 -2.37789 0
M  V30 12573 C 1137.94 3.34048 -4.01509 0
M  V30 12574 H 1139.64 1.69286 -2.46946 0
M  V30 12575 H 1137.18 0.813015 -1.18853 0
M  V30 12576 H 1139.14 3.9336 -1.51149 0
M  V30 12577 H 1137.86 3.2294 -0.487599 0
M  V30 12578 H 1136.52 2.64495 -2.53846 0
M  V30 12579 H 1136.17 4.8357 -1.38454 0
M  V30 12580 H 1135.87 4.96954 -3.13545 0
M  V30 12581 H 1137.39 5.59541 -2.4443 0
M  V30 12582 H 1138.81 4.0235 -4.08396 0
M  V30 12583 H 1137.2 3.63622 -4.77388 0
M  V30 12584 H 1138.27 2.32022 -4.25786 0
M  V30 12585 N 1139.62 1.30703 0.880598 0
M  V30 12586 C 1140.89 1.1043 1.61445 0
M  V30 12587 C 1141.27 -0.344837 2.08264 0
M  V30 12588 O 1140.62 -1.33711 1.85293 0
M  V30 12589 C 1140.83 2.10908 2.78063 0
M  V30 12590 C 1142.18 2.42861 3.48287 0
M  V30 12591 O 1143.2 2.09252 2.88257 0
M  V30 12592 O 1142.06 3.00369 4.56553 0
M  V30 12593 H 1139.16 0.424419 0.709787 0
M  V30 12594 H 1141.7 1.42144 0.926991 0
M  V30 12595 H 1140.47 3.08431 2.40803 0
M  V30 12596 H 1140.1 1.80036 3.54503 0
M  V30 12597 N 1141.09 -1.09351 1.1349 0
M  V30 12598 C 1142.34 -1.80915 0.89177 0
M  V30 12599 C 1142.66 -1.86688 -0.5837 0
M  V30 12600 O 1143.86 -2.54568 -0.943788 0
M  V30 12601 C 1142.32 -3.25009 1.54587 0
M  V30 12602 C 1141.93 -3.27501 3.05691 0
M  V30 12603 C 1143.67 -4.01323 1.38346 0
M  V30 12604 C 1141.58 -4.66123 3.63983 0
M  V30 12605 H 1140.51 -0.677961 0.329978 0
M  V30 12606 H 1143.16 -1.22893 1.3627 0
M  V30 12607 H 1141.54 -3.83098 1.0026 0
M  V30 12608 H 1142.71 -2.79174 3.66604 0
M  V30 12609 H 1141.03 -2.64677 3.21457 0
M  V30 12610 H 1143.63 -5.03739 1.79307 0
M  V30 12611 H 1143.97 -4.15003 0.328404 0
M  V30 12612 H 1144.5 -3.49679 1.89656 0
M  V30 12613 H 1141.24 -4.57646 4.69298 0
M  V30 12614 H 1140.76 -5.14772 3.07848 0
M  V30 12615 H 1142.44 -5.35097 3.63703 0
M  V30 12616 N 1142.57 -0.928524 -1.27343 0
M  V30 12617 C 1143.8 -0.584884 -1.98148 0
M  V30 12618 C 1144.21 0.841603 -1.69451 0
M  V30 12619 O 1143.55 1.57104 -0.952053 0
M  V30 12620 C 1143.61 -0.731911 -3.51971 0
M  V30 12621 C 1143.28 -2.13067 -4.04291 0
M  V30 12622 C 1144.28 -3.10492 -4.17002 0
M  V30 12623 C 1141.96 -2.44784 -4.38619 0
M  V30 12624 C 1143.95 -4.37742 -4.63315 0
M  V30 12625 C 1141.64 -3.72269 -4.84622 0
M  V30 12626 C 1142.64 -4.68562 -4.9693 0
M  V30 12627 O 1142.33 -5.93779 -5.41924 0
M  V30 12628 H 1142.06 -0.220347 -0.63908 0
M  V30 12629 H 1144.61 -1.24799 -1.63139 0
M  V30 12630 H 1142.84 -0.0116966 -3.86698 0
M  V30 12631 H 1144.53 -0.393206 -4.03991 0
M  V30 12632 H 1145.3 -2.8731 -3.9074 0
M  V30 12633 H 1141.18 -1.70577 -4.28281 0
M  V30 12634 H 1144.72 -5.12905 -4.72836 0
M  V30 12635 H 1140.62 -3.95269 -5.10326 0
M  V30 12636 H 1141.39 -5.96779 -5.60176 0
M  V30 12637 N 1144.05 1.41491 -0.694123 0
M  V30 12638 C 1145.33 1.95004 -0.152571 0
M  V30 12639 C 1145.71 1.63357 1.33707 0
M  V30 12640 O 1145.05 0.939815 2.08278 0
M  V30 12641 C 1145.26 3.46186 -0.44232 0
M  V30 12642 C 1146.61 4.22991 -0.369279 0
M  V30 12643 O 1147.64 3.54198 -0.377152 0
M  V30 12644 O 1146.5 5.45514 -0.328145 0
M  V30 12645 H 1143.59 0.826879 -0.0141253 0
M  V30 12646 H 1146.14 1.51216 -0.770183 0
M  V30 12647 H 1144.91 3.62497 -1.47348 0
M  V30 12648 H 1144.53 3.97064 0.206337 0
M  V30 12649 N 1145.53 0.438773 1.51369 0
M  V30 12650 C 1146.47 -0.37195 2.27783 0
M  V30 12651 C 1147.44 -1.01558 1.31435 0
M  V30 12652 O 1148.63 -1.03421 1.60339 0
M  V30 12653 C 1145.77 -1.46636 3.12397 0
M  V30 12654 C 1144.88 -0.840727 4.2374 0
M  V30 12655 C 1144.02 -1.91031 4.95662 0
M  V30 12656 C 1143.06 -1.26318 5.98924 0
M  V30 12657 N 1142.19 -2.27419 6.64248 0
M  V30 12658 H 1147.03 0.286048 2.96624 0
M  V30 12659 H 1144.57 0.152909 1.46303 0
M  V30 12660 H 1146.53 -2.11219 3.59781 0
M  V30 12661 H 1145.16 -2.09397 2.45668 0
M  V30 12662 H 1144.21 -0.0831588 3.80309 0
M  V30 12663 H 1145.52 -0.328285 4.97719 0
M  V30 12664 H 1144.68 -2.63272 5.46601 0
M  V30 12665 H 1143.42 -2.45649 4.21317 0
M  V30 12666 H 1142.42 -0.526246 5.47276 0
M  V30 12667 H 1143.65 -0.724324 6.75226 0
M  V30 12668 H 1141.59 -2.81114 5.92715 0
M  V30 12669 H 1141.51 -1.81071 7.33996 0
M  V30 12670 H 1142.78 -2.99139 7.19817 0
M  V30 12671 N 1147.01 -1.56678 0.170181 0
M  V30 12672 C 1147.94 -2.15083 -0.791961 0
M  V30 12673 C 1148.95 -1.10612 -1.19452 0
M  V30 12674 O 1150.14 -1.37803 -1.13457 0
M  V30 12675 C 1147.24 -2.67769 -2.07733 0
M  V30 12676 C 1146.41 -3.96885 -1.83851 0
M  V30 12677 C 1145.47 -4.34646 -2.96596 0
M  V30 12678 O 1144.5 -5.02543 -2.67281 0
M  V30 12679 N 1145.7 -3.96112 -4.24353 0
M  V30 12680 H 1148.46 -2.98268 -0.292658 0
M  V30 12681 H 1146.03 -1.61895 -0.0126383 0
M  V30 12682 H 1148.02 -2.90029 -2.8225 0
M  V30 12683 H 1146.59 -1.89179 -2.48858 0
M  V30 12684 H 1145.81 -3.83013 -0.932452 0
M  V30 12685 H 1147.1 -4.81213 -1.65261 0
M  V30 12686 H 1146.49 -3.41448 -4.51032 0
M  V30 12687 H 1145.05 -4.23375 -4.95577 0
M  V30 12688 N 1148.48 0.103547 -1.57259 0
M  V30 12689 C 1149.73 0.807231 -1.84842 0
M  V30 12690 C 1150.05 1.80308 -0.758181 0
M  V30 12691 O 1151.25 2.55406 -0.920877 0
M  V30 12692 C 1149.71 1.4864 -3.27771 0
M  V30 12693 C 1149.32 0.53075 -4.44845 0
M  V30 12694 C 1151.06 2.17431 -3.64587 0
M  V30 12695 C 1148.97 1.21403 -5.78805 0
M  V30 12696 H 1147.9 0.305212 -0.689465 0
M  V30 12697 H 1150.55 0.0600855 -1.83402 0
M  V30 12698 H 1148.93 2.28071 -3.23728 0
M  V30 12699 H 1150.1 -0.231455 -4.60218 0
M  V30 12700 H 1148.42 -0.0510078 -4.16369 0
M  V30 12701 H 1151.02 2.6927 -4.6195 0
M  V30 12702 H 1151.36 2.9594 -2.92789 0
M  V30 12703 H 1151.89 1.4487 -3.70483 0
M  V30 12704 H 1148.63 0.469918 -6.53813 0
M  V30 12705 H 1148.15 1.94787 -5.6729 0
M  V30 12706 H 1149.83 1.74289 -6.23083 0
M  V30 12707 N 1149.96 1.53094 0.37415 0
M  V30 12708 C 1151.21 1.68861 1.11769 0
M  V30 12709 C 1151.54 0.436032 1.89549 0
M  V30 12710 O 1150.79 -0.581879 1.86849 0
M  V30 12711 C 1151.09 2.88432 2.11049 0
M  V30 12712 C 1150.76 4.25284 1.49814 0
M  V30 12713 C 1149.42 4.62501 1.32841 0
M  V30 12714 C 1151.77 5.10425 1.05433 0
M  V30 12715 C 1149.1 5.82502 0.700567 0
M  V30 12716 C 1151.45 6.31064 0.440525 0
M  V30 12717 C 1150.11 6.67 0.258216 0
M  V30 12718 H 1149.38 0.617906 0.40899 0
M  V30 12719 H 1152.03 1.87265 0.4005 0
M  V30 12720 H 1150.34 2.64505 2.8904 0
M  V30 12721 H 1152.03 2.97825 2.68517 0
M  V30 12722 H 1148.62 3.95976 1.64016 0
M  V30 12723 H 1152.81 4.82229 1.17342 0
M  V30 12724 H 1148.06 6.08942 0.547652 0
M  V30 12725 H 1152.24 6.96344 0.0883962 0
M  V30 12726 H 1149.86 7.59851 -0.230354 0
M  V30 12727 N 1151.44 -0.633461 1.44309 0
M  V30 12728 C 1152.39 -1.76674 1.51292 0
M  V30 12729 C 1153.38 -1.64972 0.384807 0
M  V30 12730 O 1154.59 -1.71079 0.559653 0
M  V30 12731 H 1150.96 -0.583238 0.474697 0
M  V30 12732 H 1152.93 -1.67907 2.46678 0
M  V30 12733 C 1151.68 -3.15002 1.47205 0
M  V30 12734 H 1151.01 -3.24653 2.33325 0
M  V30 12735 H 1152.45 -3.94199 1.56151 0
M  V30 12736 C 1150.9 -3.3635 0.192464 0
M  V30 12737 O 1151.43 -3.94857 -0.738285 0
M  V30 12738 N 1149.64 -2.9044 0.0963424 0
M  V30 12739 H 1149.19 -2.43011 0.85459 0
M  V30 12740 H 1149.15 -3.05099 -0.759061 0
M  V30 12741 N 1152.92 -1.31168 -0.873655 0
M  V30 12742 C 1153.87 -1.18432 -2.00191 0
M  V30 12743 C 1154.86 -0.0934873 -1.69142 0
M  V30 12744 O 1156.07 -0.255126 -1.78183 0
M  V30 12745 H 1152.44 -0.366594 -0.656592 0
M  V30 12746 H 1154.41 -2.13896 -2.08065 0
M  V30 12747 C 1153.16 -0.904668 -3.35725 0
M  V30 12748 H 1152.48 -1.73617 -3.60135 0
M  V30 12749 H 1153.92 -0.855715 -4.15275 0
M  V30 12750 C 1152.38 0.392554 -3.34605 0
M  V30 12751 O 1152.91 1.41052 -3.76121 0
M  V30 12752 N 1151.12 0.40777 -2.87725 0
M  V30 12753 H 1150.67 -0.42112 -2.54134 0
M  V30 12754 H 1150.62 1.27564 -2.87358 0
M  V30 12755 N 1154.4 1.08748 -1.14068 0
M  V30 12756 C 1155.81 1.62551 -0.918379 0
M  V30 12757 C 1156.16 1.8852 0.543583 0
M  V30 12758 O 1155.28 1.64007 1.41176 0
M  V30 12759 C 1155.88 2.95309 -1.66066 0
M  V30 12760 C 1154.44 3.4591 -1.48403 0
M  V30 12761 C 1153.58 2.20204 -1.6854 0
M  V30 12762 H 1156.54 0.920196 -1.29298 0
M  V30 12763 H 1156.56 3.63587 -1.12181 0
M  V30 12764 H 1156.07 2.76377 -2.72465 0
M  V30 12765 H 1154.17 3.69953 -0.443353 0
M  V30 12766 H 1154.28 4.2289 -2.25169 0
M  V30 12767 H 1152.65 2.29203 -1.11077 0
M  V30 12768 H 1153.43 2.03783 -2.76274 0
M  V30 12769 N 1155.87 0.935264 1.26849 0
M  V30 12770 C 1157.29 0.623198 1.75992 0
M  V30 12771 C 1157.64 -0.861647 1.76267 0
M  V30 12772 O 1156.76 -1.6743 1.37099 0
M  V30 12773 C 1157.36 1.12451 3.19594 0
M  V30 12774 C 1155.92 0.862974 3.66374 0
M  V30 12775 C 1155.06 1.27886 2.4605 0
M  V30 12776 H 1158.01 1.11422 1.13008 0
M  V30 12777 H 1158.03 0.475626 3.77516 0
M  V30 12778 H 1157.55 2.20522 3.19361 0
M  V30 12779 H 1155.65 -0.203606 3.72043 0
M  V30 12780 H 1155.76 1.48582 4.55478 0
M  V30 12781 H 1154.12 0.697335 2.44968 0
M  V30 12782 H 1154.91 2.36837 2.48522 0
M  V30 12783 N 1157.35 -1.41121 0.701616 0
M  V30 12784 C 1158.26 -2.34565 0.0407815 0
M  V30 12785 C 1159.28 -1.56555 -0.75937 0
M  V30 12786 O 1160.45 -1.89008 -0.695542 0
M  V30 12787 C 1157.52 -3.35347 -0.879954 0
M  V30 12788 C 1156.58 -4.29241 -0.0713279 0
M  V30 12789 C 1155.81 -5.25209 -0.948211 0
M  V30 12790 O 1156.04 -5.26781 -2.18766 0
M  V30 12791 O 1154.97 -6.00605 -0.394657 0
M  V30 12792 H 1158.8 -2.92666 0.811188 0
M  V30 12793 H 1156.38 -1.42077 0.461991 0
M  V30 12794 H 1158.26 -3.9719 -1.40776 0
M  V30 12795 H 1156.94 -2.7968 -1.62975 0
M  V30 12796 H 1155.85 -3.70727 0.50122 0
M  V30 12797 H 1157.18 -4.88022 0.639935 0
M  V30 12798 N 1158.83 -0.446794 -1.51134 0
M  V30 12799 C 1159.78 0.374154 -2.29571 0
M  V30 12800 C 1160.77 1.01241 -1.35818 0
M  V30 12801 O 1161.98 0.946293 -1.53119 0
M  V30 12802 H 1158.35 0.13948 -0.738951 0
M  V30 12803 H 1160.32 -0.308117 -2.96805 0
M  V30 12804 C 1159.07 1.45754 -3.15675 0
M  V30 12805 H 1158.4 0.975787 -3.87709 0
M  V30 12806 H 1159.84 2.00502 -3.73597 0
M  V30 12807 C 1158.3 2.44606 -2.31667 0
M  V30 12808 O 1158.83 3.49352 -1.98284 0
M  V30 12809 N 1157.03 2.15725 -1.94708 0
M  V30 12810 H 1156.58 1.30572 -2.22056 0
M  V30 12811 H 1156.54 2.82103 -1.38798 0
M  V30 12812 N 1160.31 1.56586 -0.178487 0
M  V30 12813 C 1161.26 2.19631 0.765822 0
M  V30 12814 C 1162.25 1.16247 1.23219 0
M  V30 12815 O 1163.46 1.34431 1.19701 0
M  V30 12816 H 1159.83 0.703661 0.265264 0
M  V30 12817 H 1161.8 2.97659 0.210207 0
M  V30 12818 C 1160.55 2.85686 1.98188 0
M  V30 12819 H 1159.87 3.64971 1.63206 0
M  V30 12820 H 1161.31 3.33259 2.62134 0
M  V30 12821 C 1159.77 1.85837 2.81009 0
M  V30 12822 O 1160.3 1.3483 3.78396 0
M  V30 12823 N 1158.51 1.54435 2.46167 0
M  V30 12824 H 1158.06 1.96107 1.67032 0
M  V30 12825 H 1158.01 0.878808 3.01868 0
M  V30 12826 N 1161.79 -0.095206 1.57312 0
M  V30 12827 C 1162.73 -1.11551 2.02052 0
M  V30 12828 C 1163.7 -1.39808 0.896818 0
M  V30 12829 O 1164.89 -1.51273 1.1628 0
M  V30 12830 C 1162.03 -2.43056 2.44985 0
M  V30 12831 C 1161.14 -2.21531 3.70875 0
M  V30 12832 C 1160.28 -3.46434 4.02687 0
M  V30 12833 C 1159.32 -3.2017 5.21687 0
M  V30 12834 N 1158.45 -4.37339 5.49253 0
M  V30 12835 H 1163.29 -0.727 2.88996 0
M  V30 12836 H 1160.83 -0.347441 1.42938 0
M  V30 12837 H 1162.79 -3.19803 2.67921 0
M  V30 12838 H 1161.42 -2.79754 1.61051 0
M  V30 12839 H 1160.47 -1.35587 3.55416 0
M  V30 12840 H 1161.78 -1.98116 4.57768 0
M  V30 12841 H 1160.94 -4.31589 4.26399 0
M  V30 12842 H 1159.67 -3.72904 3.14315 0
M  V30 12843 H 1158.68 -2.33409 4.97796 0
M  V30 12844 H 1159.9 -2.95047 6.11657 0
M  V30 12845 H 1157.85 -4.63885 4.6384 0
M  V30 12846 H 1157.77 -4.17114 6.30517 0
M  V30 12847 H 1159.04 -5.23559 5.775 0
M  V30 12848 N 1163.26 -1.53291 -0.366026 0
M  V30 12849 C 1164.17 -1.82656 -1.47221 0
M  V30 12850 C 1165.19 -0.71491 -1.58635 0
M  V30 12851 O 1166.37 -1.00492 -1.74538 0
M  V30 12852 C 1163.43 -2.00995 -2.82492 0
M  V30 12853 C 1162.49 -3.24895 -2.8061 0
M  V30 12854 C 1161.73 -3.4235 -4.09429 0
M  V30 12855 O 1161.95 -2.6411 -5.05571 0
M  V30 12856 O 1160.88 -4.35702 -4.15268 0
M  V30 12857 H 1164.71 -2.76634 -1.2533 0
M  V30 12858 H 1162.29 -1.38665 -0.556084 0
M  V30 12859 H 1164.18 -2.14632 -3.62645 0
M  V30 12860 H 1162.85 -1.10207 -3.04362 0
M  V30 12861 H 1161.76 -3.16682 -1.99157 0
M  V30 12862 H 1163.09 -4.15604 -2.63694 0
M  V30 12863 N 1164.74 0.6258 -1.44643 0
M  V30 12864 C 1165.99 1.38125 -1.46984 0
M  V30 12865 C 1166.3 1.95299 -0.108429 0
M  V30 12866 O 1167.51 2.71498 -0.00940005 0
M  V30 12867 C 1165.97 2.50108 -2.58793 0
M  V30 12868 C 1165.57 1.99424 -4.01166 0
M  V30 12869 C 1167.32 3.27269 -2.70361 0
M  V30 12870 C 1165.23 3.08781 -5.04389 0
M  V30 12871 H 1164.16 0.519083 -0.546872 0
M  V30 12872 H 1166.81 0.67268 -1.70726 0
M  V30 12873 H 1165.19 3.23565 -2.28302 0
M  V30 12874 H 1166.36 1.32797 -4.4125 0
M  V30 12875 H 1164.68 1.35063 -3.93887 0
M  V30 12876 H 1167.27 4.08802 -3.44652 0
M  V30 12877 H 1167.62 3.77097 -1.76362 0
M  V30 12878 H 1168.15 2.60905 -3.00289 0
M  V30 12879 H 1164.89 2.63891 -6.00035 0
M  V30 12880 H 1164.41 3.74033 -4.68892 0
M  V30 12881 H 1166.09 3.73469 -5.28328 0
M  V30 12882 N 1166.22 1.31629 0.866686 0
M  V30 12883 C 1167.47 1.20861 1.61479 0
M  V30 12884 C 1167.78 -0.231208 1.94229 0
M  V30 12885 O 1168.99 -0.460618 2.67564 0
M  V30 12886 C 1167.44 2.11602 2.91123 0
M  V30 12887 C 1167.05 3.60598 2.65844 0
M  V30 12888 C 1168.8 2.09642 3.69121 0
M  V30 12889 C 1166.7 4.43337 3.91415 0
M  V30 12890 H 1165.63 0.448783 0.605896 0
M  V30 12891 H 1168.28 1.56507 0.958001 0
M  V30 12892 H 1166.67 1.68858 3.58194 0
M  V30 12893 H 1167.84 4.11609 2.07159 0
M  V30 12894 H 1166.16 3.64568 2.01194 0
M  V30 12895 H 1168.75 2.68701 4.62281 0
M  V30 12896 H 1169.1 1.08438 4.01929 0
M  V30 12897 H 1169.63 2.50603 3.08938 0
M  V30 12898 H 1166.37 5.45309 3.63756 0
M  V30 12899 H 1165.89 3.97083 4.49539 0
M  V30 12900 H 1167.57 4.5572 4.5927 0
M  V30 12901 N 1167.7 -1.08142 1.14644 0
M  V30 12902 C 1168.95 -1.79959 0.910908 0
M  V30 12903 C 1169.26 -1.87296 -0.563866 0
M  V30 12904 O 1170.47 -2.55555 -0.916735 0
M  V30 12905 C 1168.92 -3.23351 1.58025 0
M  V30 12906 C 1168.53 -3.2424 3.09148 0
M  V30 12907 C 1170.28 -3.99834 1.42595 0
M  V30 12908 C 1168.18 -4.62236 3.68906 0
M  V30 12909 H 1167.11 -0.674423 0.33715 0
M  V30 12910 H 1169.76 -1.21441 1.37566 0
M  V30 12911 H 1168.15 -3.82013 1.04318 0
M  V30 12912 H 1169.32 -2.75269 3.69545 0
M  V30 12913 H 1167.63 -2.61253 3.24246 0
M  V30 12914 H 1170.23 -5.01809 1.8464 0
M  V30 12915 H 1170.57 -4.14631 0.372402 0
M  V30 12916 H 1171.11 -3.47648 1.93354 0
M  V30 12917 H 1167.85 -4.52642 4.74126 0
M  V30 12918 H 1167.37 -5.11477 3.1329 0
M  V30 12919 H 1169.05 -5.3121 3.69358 0
M  V30 12920 N 1169.18 -0.941978 -1.26351 0
M  V30 12921 C 1170.11 -0.469913 -2.28723 0
M  V30 12922 C 1171.09 0.477218 -1.63269 0
M  V30 12923 O 1172.27 0.378902 -1.90468 0
M  V30 12924 C 1169.4 0.264971 -3.46288 0
M  V30 12925 C 1168.36 -0.595682 -4.23834 0
M  V30 12926 C 1167.68 0.269208 -5.34022 0
M  V30 12927 C 1168.98 -1.86743 -4.87775 0
M  V30 12928 H 1170.68 -1.32551 -2.6846 0
M  V30 12929 H 1168.22 -0.638809 -1.29055 0
M  V30 12930 H 1170.18 0.606259 -4.17016 0
M  V30 12931 H 1168.9 1.15471 -3.05506 0
M  V30 12932 H 1167.56 -0.919875 -3.54872 0
M  V30 12933 H 1167.21 1.15832 -4.89481 0
M  V30 12934 H 1166.91 -0.30325 -5.86817 0
M  V30 12935 H 1168.43 0.605748 -6.07588 0
M  V30 12936 H 1169.85 -1.59333 -5.50714 0
M  V30 12937 H 1168.24 -2.38452 -5.50691 0
M  V30 12938 H 1169.31 -2.57831 -4.10671 0
M  V30 12939 N 1170.66 1.40747 -0.709091 0
M  V30 12940 C 1171.62 2.29118 -0.0611607 0
M  V30 12941 C 1172.62 1.45049 0.694081 0
M  V30 12942 O 1173.81 1.66039 0.526952 0
M  V30 12943 C 1170.94 3.28154 0.923447 0
M  V30 12944 H 1172.13 2.87913 -0.839413 0
M  V30 12945 H 1169.69 1.4896 -0.473363 0
M  V30 12946 H 1170.42 2.74366 1.72899 0
M  V30 12947 H 1170.21 3.90207 0.384862 0
M  V30 12948 H 1171.7 3.94343 1.37417 0
M  V30 12949 N 1172.13 0.454803 1.50895 0
M  V30 12950 C 1173.36 -0.103936 2.06639 0
M  V30 12951 C 1173.78 -1.34943 1.32044 0
M  V30 12952 O 1173.13 -1.78393 0.384972 0
M  V30 12953 C 1173.18 -0.408546 3.59184 0
M  V30 12954 O 1172.91 0.787535 4.30963 0
M  V30 12955 C 1174.41 -1.01605 4.31499 0
M  V30 12956 H 1171.63 -0.000171839 0.671 0
M  V30 12957 H 1174.17 0.638907 1.94263 0
M  V30 12958 H 1172.33 -1.1013 3.71416 0
M  V30 12959 H 1172.74 0.52229 5.21893 0
M  V30 12960 H 1174.21 -1.17906 5.39261 0
M  V30 12961 H 1174.69 -2.00182 3.90927 0
M  V30 12962 H 1175.3 -0.362155 4.23755 0
M  V30 12963 N 1173.61 -1.56489 0.186789 0
M  V30 12964 C 1174.56 -2.18703 -0.737402 0
M  V30 12965 C 1175.53 -1.13171 -1.21579 0
M  V30 12966 O 1176.71 -1.41388 -1.28118 0
M  V30 12967 C 1173.85 -2.84394 -1.95484 0
M  V30 12968 C 1172.97 -4.04429 -1.51859 0
M  V30 12969 C 1172.1 -4.58001 -2.69089 0
M  V30 12970 C 1171.14 -5.70412 -2.22029 0
M  V30 12971 N 1170.28 -6.18425 -3.32407 0
M  V30 12972 H 1175.12 -2.97327 -0.200105 0
M  V30 12973 H 1172.65 -1.46842 -0.087032 0
M  V30 12974 H 1174.61 -3.20646 -2.66912 0
M  V30 12975 H 1173.24 -2.08347 -2.46559 0
M  V30 12976 H 1172.29 -3.73895 -0.70048 0
M  V30 12977 H 1173.61 -4.85756 -1.13327 0
M  V30 12978 H 1172.76 -4.96515 -3.48652 0
M  V30 12979 H 1171.5 -3.75764 -3.1089 0
M  V30 12980 H 1170.5 -5.31434 -1.40918 0
M  V30 12981 H 1171.73 -6.54461 -1.81268 0
M  V30 12982 H 1169.68 -5.39113 -3.73755 0
M  V30 12983 H 1169.59 -6.94782 -2.98017 0
M  V30 12984 H 1170.86 -6.61592 -4.12209 0
M  V30 12985 N 1175.09 0.086862 -1.5736 0
M  V30 12986 C 1176.04 1.11134 -1.99081 0
M  V30 12987 C 1177.02 1.35318 -0.870506 0
M  V30 12988 O 1178.22 1.35871 -1.13437 0
M  V30 12989 C 1175.34 2.42931 -2.42569 0
M  V30 12990 C 1174.43 2.22085 -3.61302 0
M  V30 12991 N 1174.82 1.71128 -4.75971 0
M  V30 12992 C 1173.12 2.52619 -3.67559 0
M  V30 12993 C 1173.82 1.64745 -5.57883 0
M  V30 12994 N 1172.8 2.10257 -5.01291 0
M  V30 12995 H 1176.6 0.710431 -2.85184 0
M  V30 12996 H 1174.11 0.294168 -1.59714 0
M  V30 12997 H 1176.11 3.17069 -2.7069 0
M  V30 12998 H 1174.77 2.83751 -1.57846 0
M  V30 12999 H 1175.78 1.40207 -4.9856 0
M  V30 13000 H 1172.46 2.96908 -2.93516 0
M  V30 13001 H 1173.85 1.26329 -6.59917 0
M  V30 13002 N 1176.57 1.53483 0.357892 0
M  V30 13003 C 1177.5 1.83444 1.44466 0
M  V30 13004 C 1178.48 0.688486 1.55544 0
M  V30 13005 O 1179.66 0.93906 1.69986 0
M  V30 13006 C 1176.79 2.03122 2.81707 0
M  V30 13007 C 1175.75 3.1891 2.85448 0
M  V30 13008 C 1175.07 3.23895 4.25436 0
M  V30 13009 C 1176.37 4.57334 2.52275 0
M  V30 13010 H 1178.07 2.74456 1.19642 0
M  V30 13011 H 1175.61 1.3206 0.574112 0
M  V30 13012 H 1177.57 2.22666 3.57768 0
M  V30 13013 H 1176.29 1.08827 3.07935 0
M  V30 13014 H 1174.95 2.99199 2.11838 0
M  V30 13015 H 1174.6 2.27223 4.48753 0
M  V30 13016 H 1174.3 4.01694 4.28854 0
M  V30 13017 H 1175.82 3.45632 5.0336 0
M  V30 13018 H 1177.24 4.76988 3.1805 0
M  V30 13019 H 1175.63 5.37431 2.66998 0
M  V30 13020 H 1176.7 4.61921 1.47501 0
M  V30 13021 N 1178.05 -0.61812 1.44973 0
M  V30 13022 C 1178.98 -1.74299 1.48837 0
M  V30 13023 C 1179.99 -1.58296 0.38028 0
M  V30 13024 O 1181.18 -1.66371 0.646757 0
M  V30 13025 C 1178.28 -3.12179 1.31901 0
M  V30 13026 C 1177.45 -3.54519 2.56193 0
M  V30 13027 C 1176.51 -4.71324 2.33966 0
M  V30 13028 O 1175.54 -4.78975 3.07525 0
M  V30 13029 N 1176.74 -5.63894 1.37854 0
M  V30 13030 H 1179.5 -1.7145 2.45815 0
M  V30 13031 H 1177.07 -0.803087 1.40578 0
M  V30 13032 H 1179.06 -3.88059 1.14858 0
M  V30 13033 H 1177.63 -3.09595 0.43239 0
M  V30 13034 H 1176.85 -2.68711 2.88423 0
M  V30 13035 H 1178.14 -3.79563 3.38835 0
M  V30 13036 H 1177.53 -5.60418 0.771273 0
M  V30 13037 H 1176.09 -6.3935 1.26787 0
M  V30 13038 N 1179.52 -1.32087 -0.859693 0
M  V30 13039 C 1180.47 -1.20601 -1.96784 0
M  V30 13040 C 1181.44 -0.089355 -1.65859 0
M  V30 13041 O 1182.63 -0.264022 -1.88964 0
M  V30 13042 C 1179.77 -0.929872 -3.32336 0
M  V30 13043 C 1178.88 -2.13084 -3.75791 0
M  V30 13044 C 1178.01 -1.79061 -5.00111 0
M  V30 13045 C 1177.05 -2.95507 -5.36043 0
M  V30 13046 N 1176.19 -2.61611 -6.5154 0
M  V30 13047 H 1181.03 -2.1539 -2.0594 0
M  V30 13048 H 1178.57 -1.07131 -1.00803 0
M  V30 13049 H 1180.52 -0.750285 -4.10398 0
M  V30 13050 H 1179.15 -0.0187929 -3.22795 0
M  V30 13051 H 1178.21 -2.42086 -2.93425 0
M  V30 13052 H 1179.52 -3.00205 -3.98344 0
M  V30 13053 H 1178.67 -1.57625 -5.85866 0
M  V30 13054 H 1177.41 -0.891459 -4.79483 0
M  V30 13055 H 1176.42 -3.17581 -4.48801 0
M  V30 13056 H 1177.64 -3.86147 -5.5863 0
M  V30 13057 H 1175.59 -1.74231 -6.32439 0
M  V30 13058 H 1175.5 -3.42262 -6.74087 0
M  V30 13059 H 1176.77 -2.43592 -7.40461 0
M  V30 13060 N 1181 1.07532 -1.15215 0
M  V30 13061 C 1182.25 1.79737 -0.924062 0
M  V30 13062 C 1182.57 1.87072 0.550356 0
M  V30 13063 O 1181.84 1.37029 1.4 0
M  V30 13064 H 1180.42 0.665704 -0.338891 0
M  V30 13065 H 1183.08 1.29961 -1.45245 0
M  V30 13066 H 1182.18 2.82256 -1.33184 0
M  V30 13067 N 1182.48 0.948665 1.2585 0
M  V30 13068 C 1183.43 0.455115 2.28104 0
M  V30 13069 C 1184.42 -0.471508 1.62706 0
M  V30 13070 O 1185.63 -0.348895 1.76586 0
M  V30 13071 H 1182 0.128659 0.740912 0
M  V30 13072 H 1183.97 1.32991 2.67125 0
M  V30 13073 C 1182.72 -0.25729 3.46747 0
M  V30 13074 H 1182.05 0.44658 3.97298 0
M  V30 13075 H 1183.49 -0.566736 4.20195 0
M  V30 13076 C 1181.95 -1.47772 3.02762 0
M  V30 13077 O 1182.48 -2.57571 3.08253 0
M  V30 13078 N 1180.68 -1.33694 2.5802 0
M  V30 13079 H 1180.23 -0.443595 2.53752 0
M  V30 13080 H 1180.19 -2.1547 2.28954 0
M  V30 13081 N 1183.96 -1.40369 0.716545 0
M  V30 13082 C 1185.2 -2.01657 0.265674 0
M  V30 13083 C 1185.56 -1.55803 -1.12886 0
M  V30 13084 O 1184.85 -0.76863 -1.75507 0
M  V30 13085 C 1185.05 -3.56257 0.285583 0
M  V30 13086 C 1184.88 -4.1712 1.68051 0
M  V30 13087 C 1183.65 -4.50512 2.28839 0
M  V30 13088 C 1185.84 -4.41913 2.63092 0
M  V30 13089 N 1183.83 -4.96774 3.60679 0
M  V30 13090 C 1185.2 -4.90179 3.79638 0
M  V30 13091 C 1187.25 -4.23953 2.61091 0
M  V30 13092 C 1185.95 -5.22369 4.94493 0
M  V30 13093 C 1187.98 -4.57246 3.75074 0
M  V30 13094 C 1187.34 -5.05701 4.90353 0
M  V30 13095 H 1183.44 -0.768801 0.14307 0
M  V30 13096 H 1186.03 -1.70585 0.938548 0
M  V30 13097 H 1184.2 -3.86757 -0.35686 0
M  V30 13098 H 1185.93 -4.0429 -0.182091 0
M  V30 13099 H 1182.68 -4.37678 1.80929 0
M  V30 13100 H 1183.11 -5.24286 4.28315 0
M  V30 13101 H 1187.75 -3.8571 1.73169 0
M  V30 13102 H 1185.47 -5.59526 5.83058 0
M  V30 13103 H 1189.05 -4.44989 3.74802 0
M  V30 13104 H 1187.93 -5.30977 5.77091 0
M  V30 13105 N 1185.44 -0.462799 -1.50652 0
M  V30 13106 C 1186.38 0.335664 -2.28346 0
M  V30 13107 C 1187.35 0.994541 -1.33034 0
M  V30 13108 O 1188.54 1.00857 -1.61964 0
M  V30 13109 C 1185.68 1.41648 -3.1469 0
M  V30 13110 C 1184.79 0.773207 -4.25024 0
M  V30 13111 C 1183.93 1.83121 -4.98638 0
M  V30 13112 C 1182.97 1.16774 -6.00858 0
M  V30 13113 N 1182.1 2.16823 -6.67782 0
M  V30 13114 H 1186.94 -0.333202 -2.96131 0
M  V30 13115 H 1184.48 -0.176166 -1.46041 0
M  V30 13116 H 1186.44 2.05468 -3.63096 0
M  V30 13117 H 1185.07 2.05462 -2.48968 0
M  V30 13118 H 1184.12 0.0226444 -3.80393 0
M  V30 13119 H 1185.43 0.249061 -4.98178 0
M  V30 13120 H 1184.59 2.54543 -5.5072 0
M  V30 13121 H 1183.32 2.38915 -4.25172 0
M  V30 13122 H 1182.33 0.439112 -5.48044 0
M  V30 13123 H 1183.55 0.616809 -6.76293 0
M  V30 13124 H 1181.5 2.71649 -5.97112 0
M  V30 13125 H 1181.42 1.69371 -7.36783 0
M  V30 13126 H 1182.69 2.8765 -7.24484 0
M  V30 13127 N 1186.91 1.56388 -0.195085 0
M  V30 13128 C 1187.84 2.22091 0.720971 0
M  V30 13129 C 1188.83 1.184 1.22128 0
M  V30 13130 O 1190.01 1.46907 1.27012 0
M  V30 13131 C 1187.14 2.88025 1.94059 0
M  V30 13132 C 1186.09 3.97959 1.5752 0
M  V30 13133 C 1185.42 4.51058 2.87143 0
M  V30 13134 C 1186.72 5.16365 0.785145 0
M  V30 13135 H 1188.41 2.98898 0.173245 0
M  V30 13136 H 1185.96 1.43767 0.0818868 0
M  V30 13137 H 1187.91 3.32671 2.58666 0
M  V30 13138 H 1186.64 2.08623 2.51285 0
M  V30 13139 H 1185.3 3.54004 0.952715 0
M  V30 13140 H 1184.94 3.68418 3.42458 0
M  V30 13141 H 1184.64 5.25237 2.63439 0
M  V30 13142 H 1186.17 4.98406 3.52738 0
M  V30 13143 H 1187.58 5.57556 1.33431 0
M  V30 13144 H 1185.98 5.9661 0.646231 0
M  V30 13145 H 1187.05 4.84428 -0.213789 0
M  V30 13146 N 1188.39 -0.0785156 1.57404 0
M  V30 13147 C 1189.63 -0.784359 1.88752 0
M  V30 13148 C 1190 -1.75081 0.788079 0
M  V30 13149 O 1191.2 -2.50125 0.984431 0
M  V30 13150 C 1189.47 -1.47962 3.25334 0
M  V30 13151 S 1191.03 -2.22146 3.78413 0
M  V30 13152 H 1187.85 -0.260976 0.661372 0
M  V30 13153 H 1190.45 -0.0407396 1.95458 0
M  V30 13154 H 1189.15 -0.762338 4.03257 0
M  V30 13155 H 1188.68 -2.26281 3.21808 0
M  V30 13156 H 1190.7 -3.48558 3.5316 0
M  V30 13157 N 1189.87 -1.5367 -0.349747 0
M  V30 13158 C 1191.11 -1.72329 -1.09919 0
M  V30 13159 C 1191.47 -0.473178 -1.86078 0
M  V30 13160 O 1192.68 -0.53669 -2.63388 0
M  V30 13161 C 1190.95 -2.94817 -2.02034 0
M  V30 13162 S 1192.51 -3.34257 -2.84285 0
M  V30 13163 H 1189.32 -0.606225 -0.3715 0
M  V30 13164 H 1191.93 -1.91803 -0.378399 0
M  V30 13165 H 1190.63 -3.83979 -1.44874 0
M  V30 13166 H 1190.16 -2.7779 -2.78561 0
M  V30 13167 H 1192.18 -2.87506 -4.04419 0
M  V30 13168 N 1191.35 0.610423 -1.45298 0
M  V30 13169 C 1192.26 1.74964 -1.56285 0
M  V30 13170 C 1193.27 1.68149 -0.447436 0
M  V30 13171 O 1194.45 1.88556 -0.707725 0
M  V30 13172 C 1191.52 3.11417 -1.52383 0
M  V30 13173 C 1190.58 3.29707 -2.7494 0
M  V30 13174 C 1189.81 4.5965 -2.71215 0
M  V30 13175 O 1190.03 5.41789 -1.78383 0
M  V30 13176 O 1188.97 4.80591 -3.62375 0
M  V30 13177 H 1192.79 1.68646 -2.52571 0
M  V30 13178 H 1190.38 0.774168 -1.27777 0
M  V30 13179 H 1192.26 3.9272 -1.52805 0
M  V30 13180 H 1190.93 3.18232 -0.592472 0
M  V30 13181 H 1189.84 2.48003 -2.80081 0
M  V30 13182 H 1191.17 3.27766 -3.67192 0
M  V30 13183 N 1192.83 1.32541 0.852676 0
M  V30 13184 C 1193.77 1.21643 1.96142 0
M  V30 13185 C 1194.74 0.0981496 1.6581 0
M  V30 13186 O 1195.93 0.27404 1.88822 0
M  V30 13187 C 1193.07 0.947483 3.31838 0
M  V30 13188 C 1192.18 2.15074 3.74656 0
M  V30 13189 C 1191.32 1.81711 4.99154 0
M  V30 13190 C 1190.36 2.98346 5.34468 0
M  V30 13191 N 1189.49 2.65062 6.50143 0
M  V30 13192 H 1194.33 2.16479 2.04795 0
M  V30 13193 H 1191.87 1.07664 1.00234 0
M  V30 13194 H 1193.83 0.772038 4.09994 0
M  V30 13195 H 1192.46 0.0359112 3.2278 0
M  V30 13196 H 1191.51 2.43639 2.92137 0
M  V30 13197 H 1192.82 3.02314 3.96747 0
M  V30 13198 H 1191.98 1.60729 5.85022 0
M  V30 13199 H 1190.71 0.916875 4.79004 0
M  V30 13200 H 1189.72 3.19956 4.47111 0
M  V30 13201 H 1190.94 3.89104 5.56574 0
M  V30 13202 H 1188.89 1.77582 6.31507 0
M  V30 13203 H 1188.81 3.45832 6.72262 0
M  V30 13204 H 1190.08 2.47516 7.39159 0
M  V30 13205 N 1194.3 -1.0692 1.15784 0
M  V30 13206 C 1195.55 -1.78983 0.929944 0
M  V30 13207 C 1195.87 -1.87884 -0.543969 0
M  V30 13208 O 1197.07 -2.56513 -0.889578 0
M  V30 13209 C 1195.53 -3.21657 1.61446 0
M  V30 13210 C 1195.14 -3.20943 3.12569 0
M  V30 13211 C 1196.88 -3.98299 1.46828 0
M  V30 13212 C 1194.79 -4.58298 3.73788 0
M  V30 13213 H 1193.72 -0.670809 0.344284 0
M  V30 13214 H 1196.37 -1.19975 1.38846 0
M  V30 13215 H 1194.75 -3.80885 1.08364 0
M  V30 13216 H 1195.92 -2.71334 3.72444 0
M  V30 13217 H 1194.24 -2.57799 3.26999 0
M  V30 13218 H 1196.84 -4.99822 1.89952 0
M  V30 13219 H 1197.18 -4.14213 0.416358 0
M  V30 13220 H 1197.71 -3.45577 1.97031 0
M  V30 13221 H 1194.45 -4.47588 4.789 0
M  V30 13222 H 1193.97 -5.08126 3.18698 0
M  V30 13223 H 1195.65 -5.27262 3.74972 0
M  V30 13224 N 1195.78 -0.955326 -1.25345 0
M  V30 13225 C 1197.03 -0.610484 -1.93079 0
M  V30 13226 C 1197.36 0.852591 -1.74817 0
M  V30 13227 O 1196.61 1.6272 -1.08723 0
M  V30 13228 C 1196.91 -0.916173 -3.45458 0
M  V30 13229 C 1196.58 -2.36539 -3.83875 0
M  V30 13230 C 1195.24 -2.76152 -3.94073 0
M  V30 13231 C 1197.59 -3.30652 -4.02888 0
M  V30 13232 C 1194.92 -4.08944 -4.20692 0
M  V30 13233 C 1197.27 -4.63057 -4.31 0
M  V30 13234 C 1195.94 -5.02464 -4.39415 0
M  V30 13235 H 1195.21 -0.223392 -0.706525 0
M  V30 13236 H 1197.85 -1.20449 -1.48877 0
M  V30 13237 H 1196.16 -0.23978 -3.91066 0
M  V30 13238 H 1197.85 -0.627929 -3.96053 0
M  V30 13239 H 1194.44 -2.04819 -3.76493 0
M  V30 13240 H 1198.63 -3.01237 -3.94423 0
M  V30 13241 H 1193.88 -4.39118 -4.25423 0
M  V30 13242 H 1198.06 -5.3596 -4.44657 0
M  V30 13243 H 1195.69 -6.05386 -4.59795 0
M  V30 13244 N 1197.26 1.39987 -0.723979 0
M  V30 13245 C 1198.49 2.0556 -0.275634 0
M  V30 13246 C 1198.91 1.54207 1.07711 0
M  V30 13247 O 1198.27 0.681041 1.68022 0
M  V30 13248 C 1198.32 3.59551 -0.27485 0
M  V30 13249 O 1197.42 4.05685 0.741182 0
M  V30 13250 H 1196.76 0.651634 -0.12755 0
M  V30 13251 H 1199.29 1.79229 -0.986814 0
M  V30 13252 H 1199.3 4.07837 -0.115425 0
M  V30 13253 H 1197.98 3.96291 -1.26198 0
M  V30 13254 H 1196.55 3.6884 0.548795 0
M  V30 13255 N 1198.74 0.470782 1.50404 0
M  V30 13256 C 1199.67 -0.313458 2.31386 0
M  V30 13257 C 1200.65 -0.990623 1.38278 0
M  V30 13258 O 1201.84 -0.987854 1.67198 0
M  V30 13259 C 1198.97 -1.39599 3.18009 0
M  V30 13260 C 1197.92 -0.840443 4.19667 0
M  V30 13261 C 1197.25 -2.02124 4.95025 0
M  V30 13262 C 1198.55 0.148055 5.2209 0
M  V30 13263 H 1200.24 0.362432 2.97198 0
M  V30 13264 H 1197.79 0.175745 1.42924 0
M  V30 13265 H 1199.74 -1.9521 3.73458 0
M  V30 13266 H 1198.46 -2.10064 2.50081 0
M  V30 13267 H 1197.12 -0.306302 3.65318 0
M  V30 13268 H 1196.77 -2.71286 4.23571 0
M  V30 13269 H 1196.47 -1.65574 5.6379 0
M  V30 13270 H 1197.99 -2.58226 5.5331 0
M  V30 13271 H 1199.41 -0.318874 5.72413 0
M  V30 13272 H 1197.8 0.427811 5.98573 0
M  V30 13273 H 1198.87 1.07404 4.72855 0
M  V30 13274 N 1200.22 -1.56282 0.203376 0
M  V30 13275 C 1201.44 -2.02643 -0.441658 0
M  V30 13276 C 1201.87 -1.0825 -1.5383 0
M  V30 13277 O 1201.23 -0.0674337 -1.81175 0
M  V30 13278 C 1201.27 -3.47382 -0.967369 0
M  V30 13279 O 1200.38 -3.56115 -2.07981 0
M  V30 13280 H 1199.72 -0.656081 -0.102242 0
M  V30 13281 H 1202.25 -2.02134 0.316684 0
M  V30 13282 H 1202.26 -3.8734 -1.28186 0
M  V30 13283 H 1200.93 -4.15574 -0.164625 0
M  V30 13284 H 1199.51 -3.28035 -1.77334 0
M  V30 13285 N 1201.7 0.070167 -1.57444 0
M  V30 13286 C 1202.94 0.767842 -1.86513 0
M  V30 13287 C 1203.26 1.78659 -0.796257 0
M  V30 13288 O 1204.46 2.53395 -0.974845 0
M  V30 13289 C 1202.92 1.41654 -3.30851 0
M  V30 13290 C 1202.53 0.436273 -4.45871 0
M  V30 13291 C 1204.27 2.09649 -3.69117 0
M  V30 13292 C 1202.18 1.09098 -5.8125 0
M  V30 13293 H 1201.11 0.290519 -0.695784 0
M  V30 13294 H 1203.76 0.0211697 -1.83488 0
M  V30 13295 H 1202.14 2.21153 -3.28493 0
M  V30 13296 H 1203.32 -0.329022 -4.59624 0
M  V30 13297 H 1201.63 -0.139314 -4.16167 0
M  V30 13298 H 1204.23 2.59411 -4.67558 0
M  V30 13299 H 1204.57 2.89663 -2.99 0
M  V30 13300 H 1205.1 1.36979 -3.73472 0
M  V30 13301 H 1201.84 0.331128 -6.54663 0
M  V30 13302 H 1201.36 1.8271 -5.71294 0
M  V30 13303 H 1203.04 1.61034 -6.2664 0
M  V30 13304 N 1203.17 1.53854 0.341593 0
M  V30 13305 C 1204.42 1.72388 1.07954 0
M  V30 13306 C 1204.77 0.482184 1.8626 0
M  V30 13307 O 1204.07 -0.525232 1.8426 0
M  V30 13308 C 1204.26 2.92844 2.04884 0
M  V30 13309 C 1204.09 4.28609 1.36105 0
M  V30 13310 C 1202.86 4.93068 1.10508 0
M  V30 13311 C 1205.06 5.08254 0.786255 0
M  V30 13312 N 1203.04 6.12702 0.383319 0
M  V30 13313 C 1204.41 6.19693 0.195147 0
M  V30 13314 C 1206.47 4.93134 0.687293 0
M  V30 13315 C 1205.17 7.17661 -0.485298 0
M  V30 13316 C 1207.2 5.91396 0.0205841 0
M  V30 13317 C 1206.56 7.02174 -0.559545 0
M  V30 13318 H 1202.66 0.683826 0.37935 0
M  V30 13319 H 1205.24 1.91288 0.36289 0
M  V30 13320 H 1203.41 2.7544 2.73838 0
M  V30 13321 H 1205.14 3.00088 2.71531 0
M  V30 13322 H 1201.9 4.52659 1.39271 0
M  V30 13323 H 1202.32 6.7699 0.0371033 0
M  V30 13324 H 1206.96 4.07653 1.12155 0
M  V30 13325 H 1204.68 8.02714 -0.931438 0
M  V30 13326 H 1208.27 5.81774 -0.0553832 0
M  V30 13327 H 1207.15 7.76904 -1.06726 0
M  V30 13328 N 1204.65 -0.602709 1.4562 0
M  V30 13329 C 1206.06 -1.1847 1.44297 0
M  V30 13330 C 1206.41 -1.95434 0.17316 0
M  V30 13331 O 1205.54 -2.03894 -0.724986 0
M  V30 13332 C 1206.13 -2.15508 2.61422 0
M  V30 13333 C 1204.69 -2.69073 2.63204 0
M  V30 13334 C 1203.84 -1.44568 2.36633 0
M  V30 13335 H 1206.79 -0.391745 1.53789 0
M  V30 13336 H 1206.81 -2.98628 2.35799 0
M  V30 13337 H 1206.32 -1.59464 3.53826 0
M  V30 13338 H 1204.42 -3.29042 1.7482 0
M  V30 13339 H 1204.54 -3.13173 3.62573 0
M  V30 13340 H 1202.9 -1.73692 1.86287 0
M  V30 13341 H 1203.68 -0.903852 3.31188 0
M  V30 13342 N 1206.13 -1.32992 -0.845635 0
M  V30 13343 C 1207.08 -1.22682 -1.95494 0
M  V30 13344 C 1208.05 -0.106942 -1.65755 0
M  V30 13345 O 1209.23 -0.28405 -1.88674 0
M  V30 13346 C 1206.37 -0.965068 -3.31331 0
M  V30 13347 C 1205.48 -2.17058 -3.7351 0
M  V30 13348 C 1204.62 -1.84355 -4.98183 0
M  V30 13349 C 1203.66 -3.01176 -5.32878 0
M  V30 13350 N 1202.8 -2.68506 -6.48729 0
M  V30 13351 H 1207.64 -2.17562 -2.03644 0
M  V30 13352 H 1205.17 -1.08194 -0.996613 0
M  V30 13353 H 1207.13 -0.793771 -4.09579 0
M  V30 13354 H 1205.76 -0.0530285 -3.22756 0
M  V30 13355 H 1204.81 -2.45185 -2.90841 0
M  V30 13356 H 1206.12 -3.04413 -3.95138 0
M  V30 13357 H 1205.28 -1.6383 -5.84162 0
M  V30 13358 H 1204.02 -0.942264 -4.78511 0
M  V30 13359 H 1203.02 -3.22323 -4.45408 0
M  V30 13360 H 1204.25 -3.9205 -5.54503 0
M  V30 13361 H 1202.19 -1.80929 -6.30556 0
M  V30 13362 H 1202.11 -3.49392 -6.70419 0
M  V30 13363 H 1203.38 -2.51432 -7.37836 0
M  V30 13364 N 1207.61 1.06304 -1.1635 0
M  V30 13365 C 1208.85 1.79101 -0.94494 0
M  V30 13366 C 1209.18 1.87217 0.527251 0
M  V30 13367 O 1208.44 1.35992 1.40729 0
M  V30 13368 C 1208.74 3.23589 -1.51741 0
M  V30 13369 C 1208.4 3.35552 -3.0119 0
M  V30 13370 C 1207.06 3.38525 -3.41986 0
M  V30 13371 C 1209.42 3.37482 -3.97184 0
M  V30 13372 C 1206.74 3.41042 -4.77396 0
M  V30 13373 C 1209.1 3.41537 -5.3248 0
M  V30 13374 C 1207.76 3.42792 -5.72757 0
M  V30 13375 H 1207.03 0.655377 -0.345778 0
M  V30 13376 H 1209.68 1.25017 -1.45062 0
M  V30 13377 H 1207.98 3.80525 -0.933164 0
M  V30 13378 H 1209.68 3.78512 -1.32399 0
M  V30 13379 H 1206.27 3.33944 -2.68662 0
M  V30 13380 H 1210.45 3.34397 -3.66732 0
M  V30 13381 H 1205.71 3.40317 -5.07931 0
M  V30 13382 H 1209.88 3.41977 -6.0665 0
M  V30 13383 H 1207.51 3.44495 -6.77663 0
M  V30 13384 N 1209.09 0.96196 1.24836 0
M  V30 13385 C 1210.5 0.660388 1.7463 0
M  V30 13386 C 1210.85 -0.824064 1.78055 0
M  V30 13387 O 1209.97 -1.64485 1.40619 0
M  V30 13388 C 1210.57 1.19205 3.17137 0
M  V30 13389 C 1209.13 0.940493 3.64461 0
M  V30 13390 C 1208.27 1.33076 2.43282 0
M  V30 13391 H 1211.22 1.13794 1.1062 0
M  V30 13392 H 1211.25 0.555595 3.76422 0
M  V30 13393 H 1210.76 2.27247 3.14612 0
M  V30 13394 H 1208.86 -0.124645 3.72391 0
M  V30 13395 H 1208.97 1.5821 4.52224 0
M  V30 13396 H 1207.34 0.749139 2.43434 0
M  V30 13397 H 1208.12 2.42055 2.43442 0
M  V30 13398 N 1210.56 -1.39601 0.731392 0
M  V30 13399 C 1211.84 -1.94531 0.20422 0
M  V30 13400 C 1212.22 -1.66845 -1.29329 0
M  V30 13401 O 1211.57 -0.994706 -2.05713 0
M  V30 13402 C 1211.78 -3.44891 0.53395 0
M  V30 13403 C 1213.13 -4.21863 0.481298 0
M  V30 13404 O 1214.15 -3.53073 0.470929 0
M  V30 13405 O 1213.01 -5.44452 0.472663 0
M  V30 13406 H 1210.1 -0.826214 0.0360436 0
M  V30 13407 H 1212.65 -1.49121 0.810005 0
M  V30 13408 H 1211.42 -3.58463 1.56907 0
M  V30 13409 H 1211.04 -3.97472 -0.10099 0
M  V30 13410 N 1212.04 -0.478751 -1.50152 0
M  V30 13411 C 1212.99 0.311426 -2.28689 0
M  V30 13412 C 1213.96 0.980375 -1.34082 0
M  V30 13413 O 1215.14 0.991337 -1.63025 0
M  V30 13414 C 1212.28 1.38302 -3.16175 0
M  V30 13415 C 1211.4 0.728084 -4.2582 0
M  V30 13416 C 1210.53 1.77822 -5.00552 0
M  V30 13417 C 1209.57 1.10395 -6.02063 0
M  V30 13418 N 1208.71 2.09728 -6.70044 0
M  V30 13419 H 1213.55 -0.364592 -2.95761 0
M  V30 13420 H 1211.09 -0.191645 -1.45846 0
M  V30 13421 H 1213.04 2.01606 -3.65255 0
M  V30 13422 H 1211.67 2.0281 -2.51133 0
M  V30 13423 H 1210.73 -0.0177026 -3.80396 0
M  V30 13424 H 1212.04 0.196209 -4.98414 0
M  V30 13425 H 1211.19 2.48687 -5.53389 0
M  V30 13426 H 1209.93 2.34392 -4.27682 0
M  V30 13427 H 1208.94 0.38096 -5.48479 0
M  V30 13428 H 1210.16 0.545045 -6.76909 0
M  V30 13429 H 1208.11 2.65301 -5.9996 0
M  V30 13430 H 1208.02 1.61546 -7.38538 0
M  V30 13431 H 1209.29 2.7995 -7.27495 0
M  V30 13432 N 1213.52 1.56172 -0.211661 0
M  V30 13433 C 1214.43 2.23468 0.714081 0
M  V30 13434 C 1215.45 1.23908 1.22159 0
M  V30 13435 O 1216.62 1.56693 1.26528 0
M  V30 13436 C 1213.69 2.89375 1.90953 0
M  V30 13437 C 1212.75 4.04251 1.44497 0
M  V30 13438 C 1211.98 4.67006 2.58343 0
M  V30 13439 O 1212.2 4.28721 3.76237 0
M  V30 13440 O 1211.14 5.56177 2.3011 0
M  V30 13441 H 1214.96 3.03219 0.170862 0
M  V30 13442 H 1212.55 1.49389 0.0183607 0
M  V30 13443 H 1214.43 3.3101 2.60787 0
M  V30 13444 H 1213.11 2.12591 2.44104 0
M  V30 13445 H 1212.01 3.67205 0.714932 0
M  V30 13446 H 1213.35 4.82748 0.959947 0
M  V30 13447 N 1215 -0.0618163 1.57479 0
M  V30 13448 C 1215.95 -1.0724 2.04373 0
M  V30 13449 C 1216.92 -1.37875 0.926271 0
M  V30 13450 O 1218.1 -1.48772 1.19463 0
M  V30 13451 C 1215.24 -2.37805 2.50085 0
M  V30 13452 C 1214.35 -2.13614 3.7549 0
M  V30 13453 C 1213.49 -3.37814 4.09945 0
M  V30 13454 C 1212.53 -3.09032 5.28361 0
M  V30 13455 N 1211.66 -4.25591 5.58406 0
M  V30 13456 H 1216.5 -0.665536 2.90473 0
M  V30 13457 H 1214.04 -0.317043 1.43643 0
M  V30 13458 H 1216 -3.14048 2.74644 0
M  V30 13459 H 1214.63 -2.76275 1.66948 0
M  V30 13460 H 1213.68 -1.28017 3.58212 0
M  V30 13461 H 1214.99 -1.88361 4.61867 0
M  V30 13462 H 1214.15 -4.22447 4.35458 0
M  V30 13463 H 1212.89 -3.66153 3.22154 0
M  V30 13464 H 1211.89 -2.22797 5.02635 0
M  V30 13465 H 1213.12 -2.82006 6.17778 0
M  V30 13466 H 1211.06 -4.53941 4.73575 0
M  V30 13467 H 1210.98 -4.03646 6.39223 0
M  V30 13468 H 1212.25 -5.11191 5.88476 0
M  V30 13469 N 1216.48 -1.54033 -0.333429 0
M  V30 13470 C 1217.72 -1.72019 -1.07411 0
M  V30 13471 C 1218.06 -0.487265 -1.87988 0
M  V30 13472 O 1217.33 0.515757 -1.87537 0
M  V30 13473 C 1217.61 -2.98986 -2.00698 0
M  V30 13474 C 1217.47 -4.32509 -1.23517 0
M  V30 13475 C 1218.79 -3.21663 -3.00368 0
M  V30 13476 H 1215.9 -0.625919 -0.389094 0
M  V30 13477 H 1218.55 -1.86717 -0.351697 0
M  V30 13478 H 1216.7 -2.86586 -2.62298 0
M  V30 13479 H 1218.37 -4.56775 -0.644522 0
M  V30 13480 H 1216.61 -4.3046 -0.537298 0
M  V30 13481 H 1217.28 -5.17547 -1.91962 0
M  V30 13482 H 1219.76 -3.33459 -2.48886 0
M  V30 13483 H 1218.63 -4.11877 -3.62834 0
M  V30 13484 H 1218.9 -2.3843 -3.72295 0
M  V30 13485 N 1217.95 0.594978 -1.45938 0
M  V30 13486 C 1218.89 1.71909 -1.51591 0
M  V30 13487 C 1219.9 1.57671 -0.405416 0
M  V30 13488 O 1221.09 1.65321 -0.673144 0
M  V30 13489 C 1218.19 3.10041 -1.3685 0
M  V30 13490 C 1217.36 3.50399 -2.61801 0
M  V30 13491 C 1216.42 4.67542 -2.41435 0
M  V30 13492 O 1215.45 4.74022 -3.15106 0
M  V30 13493 N 1216.65 5.6163 -1.46808 0
M  V30 13494 H 1219.41 1.67518 -2.48511 0
M  V30 13495 H 1216.97 0.78062 -1.41838 0
M  V30 13496 H 1218.97 3.86183 -1.21017 0
M  V30 13497 H 1217.54 3.08868 -0.481589 0
M  V30 13498 H 1216.76 2.64088 -2.92662 0
M  V30 13499 H 1218.04 3.74125 -3.44831 0
M  V30 13500 H 1217.44 5.5912 -0.860333 0
M  V30 13501 H 1216 6.37252 -1.36942 0
M  V30 13502 N 1219.43 1.33438 0.838571 0
M  V30 13503 C 1220.38 1.23698 1.96981 0
M  V30 13504 C 1221.37 0.138299 1.68835 0
M  V30 13505 O 1222.58 0.302278 1.77444 0
M  V30 13506 H 1218.96 0.383874 0.646641 0
M  V30 13507 H 1220.93 2.19337 2.02321 0
M  V30 13508 C 1219.68 0.993362 3.33208 0
M  V30 13509 H 1219 1.83104 3.55405 0
M  V30 13510 H 1220.44 0.965517 4.1286 0
M  V30 13511 C 1218.9 -0.303701 3.35528 0
M  V30 13512 O 1219.43 -1.3103 3.79729 0
M  V30 13513 N 1217.63 -0.331342 2.88705 0
M  V30 13514 H 1217.18 0.488351 2.52929 0
M  V30 13515 H 1217.14 -1.199 2.9064 0
M  V30 13516 N 1220.91 -1.05686 1.16912 0
M  V30 13517 C 1222.16 -1.77987 0.948875 0
M  V30 13518 C 1222.47 -1.8845 -0.524011 0
M  V30 13519 O 1223.68 -2.57442 -0.862322 0
M  V30 13520 C 1222.13 -3.19927 1.64848 0
M  V30 13521 C 1221.74 -3.1761 3.15956 0
M  V30 13522 C 1223.49 -3.96719 1.51044 0
M  V30 13523 C 1221.39 -4.54307 3.78628 0
M  V30 13524 H 1220.32 -0.667119 0.35138 0
M  V30 13525 H 1222.97 -1.18496 1.40111 0
M  V30 13526 H 1221.36 -3.79714 1.12397 0
M  V30 13527 H 1222.53 -2.67369 3.75301 0
M  V30 13528 H 1220.85 -2.54317 3.29715 0
M  V30 13529 H 1223.44 -4.97779 1.95243 0
M  V30 13530 H 1223.79 -4.13748 0.460268 0
M  V30 13531 H 1224.32 -3.43468 2.00685 0
M  V30 13532 H 1221.06 -4.42484 4.8362 0
M  V30 13533 H 1220.58 -5.04717 3.24069 0
M  V30 13534 H 1222.26 -5.23255 3.80543 0
M  V30 13535 N 1222.39 -0.968567 -1.24324 0
M  V30 13536 C 1223.32 -0.518323 -2.27674 0
M  V30 13537 C 1224.3 0.442479 -1.64244 0
M  V30 13538 O 1225.48 0.338416 -1.91229 0
M  V30 13539 C 1222.61 0.191459 -3.46772 0
M  V30 13540 C 1221.57 -0.685449 -4.22476 0
M  V30 13541 C 1220.89 0.155873 -5.34473 0
M  V30 13542 C 1222.19 -1.97047 -4.83704 0
M  V30 13543 H 1223.89 -1.38215 -2.65588 0
M  V30 13544 H 1221.43 -0.66604 -1.27671 0
M  V30 13545 H 1223.39 0.517667 -4.18208 0
M  V30 13546 H 1222.11 1.08965 -3.07887 0
M  V30 13547 H 1220.77 -0.994942 -3.52841 0
M  V30 13548 H 1220.42 1.05424 -4.91828 0
M  V30 13549 H 1220.12 -0.427655 -5.86042 0
M  V30 13550 H 1221.64 0.476733 -6.08736 0
M  V30 13551 H 1223.06 -1.70979 -5.4721 0
M  V30 13552 H 1221.45 -2.50079 -5.45509 0
M  V30 13553 H 1222.52 -2.66484 -4.0511 0
M  V30 13554 N 1223.87 1.39211 -0.738786 0
M  V30 13555 C 1224.81 2.30578 -0.10129 0
M  V30 13556 C 1225.78 1.49412 0.725616 0
M  V30 13557 O 1226.97 1.78087 0.684799 0
M  V30 13558 C 1224.11 3.35767 0.797161 0
M  V30 13559 C 1223.22 4.31979 -0.0427701 0
M  V30 13560 C 1222.36 5.24236 0.857306 0
M  V30 13561 C 1221.4 6.12099 0.0128501 0
M  V30 13562 N 1220.53 6.96701 0.869067 0
M  V30 13563 H 1225.37 2.84522 -0.88606 0
M  V30 13564 H 1222.91 1.40093 -0.448602 0
M  V30 13565 H 1224.87 3.95347 1.33255 0
M  V30 13566 H 1223.5 2.83268 1.54787 0
M  V30 13567 H 1222.55 3.73986 -0.695622 0
M  V30 13568 H 1223.86 4.93927 -0.69555 0
M  V30 13569 H 1223.02 5.88861 1.4604 0
M  V30 13570 H 1221.75 4.62619 1.54386 0
M  V30 13571 H 1220.76 5.46483 -0.603018 0
M  V30 13572 H 1221.98 6.75781 -0.67054 0
M  V30 13573 H 1219.93 6.37647 1.54084 0
M  V30 13574 H 1219.85 7.55507 0.272852 0
M  V30 13575 H 1221.12 7.65751 1.4576 0
M  V30 13576 N 1225.34 0.486708 1.49896 0
M  V30 13577 C 1226.25 -0.304222 2.32619 0
M  V30 13578 C 1227.27 -0.981103 1.43702 0
M  V30 13579 O 1228.45 -0.965639 1.76741 0
M  V30 13580 C 1225.51 -1.36301 3.18783 0
M  V30 13581 C 1224.57 -0.701082 4.23537 0
M  V30 13582 C 1223.81 -1.70943 5.05583 0
M  V30 13583 O 1224.03 -2.93773 4.88931 0
M  V30 13584 O 1222.96 -1.27263 5.88292 0
M  V30 13585 H 1226.79 0.37248 3.01407 0
M  V30 13586 H 1224.37 0.248277 1.47323 0
M  V30 13587 H 1226.26 -1.97594 3.72202 0
M  V30 13588 H 1224.93 -2.0229 2.52706 0
M  V30 13589 H 1223.84 -0.0487926 3.74068 0
M  V30 13590 H 1225.17 -0.0838817 4.92129 0
M  V30 13591 N 1226.82 -1.56058 0.219941 0
M  V30 13592 C 1227.77 -2.20218 -0.690846 0
M  V30 13593 C 1228.74 -1.15725 -1.19151 0
M  V30 13594 O 1229.93 -1.44073 -1.2509 0
M  V30 13595 C 1227.07 -2.88477 -1.89408 0
M  V30 13596 C 1226.18 -4.07559 -1.43246 0
M  V30 13597 C 1225.31 -4.63605 -2.59314 0
M  V30 13598 C 1224.35 -5.74993 -2.0988 0
M  V30 13599 N 1223.49 -6.25337 -3.19214 0
M  V30 13600 H 1228.33 -2.97685 -0.136992 0
M  V30 13601 H 1225.87 -1.46994 -0.055865 0
M  V30 13602 H 1227.82 -3.26235 -2.60051 0
M  V30 13603 H 1226.45 -2.1353 -2.42084 0
M  V30 13604 H 1225.51 -3.75297 -0.621013 0
M  V30 13605 H 1226.82 -4.8805 -1.02997 0
M  V30 13606 H 1225.97 -5.03798 -3.38041 0
M  V30 13607 H 1224.71 -3.82274 -3.0285 0
M  V30 13608 H 1223.72 -5.34304 -1.29613 0
M  V30 13609 H 1224.94 -6.58158 -1.67345 0
M  V30 13610 H 1222.89 -5.4692 -3.62236 0
M  V30 13611 H 1222.8 -7.00947 -2.83213 0
M  V30 13612 H 1224.07 -6.70187 -3.98083 0
M  V30 13613 N 1228.3 0.053464 -1.57509 0
M  V30 13614 C 1229.55 0.748016 -1.87317 0
M  V30 13615 C 1229.86 1.77805 -0.815161 0
M  V30 13616 O 1231.07 2.52347 -1.00167 0
M  V30 13617 C 1229.53 1.38137 -3.32334 0
M  V30 13618 C 1229.13 0.388958 -4.46308 0
M  V30 13619 C 1230.88 2.05722 -3.7132 0
M  V30 13620 C 1228.78 1.02927 -5.82374 0
M  V30 13621 H 1227.71 0.283123 -0.698826 0
M  V30 13622 H 1230.37 0.00170723 -1.835 0
M  V30 13623 H 1228.75 2.17656 -3.3082 0
M  V30 13624 H 1229.92 -0.377752 -4.59249 0
M  V30 13625 H 1228.24 -0.183447 -4.15996 0
M  V30 13626 H 1230.83 2.54437 -4.70283 0
M  V30 13627 H 1231.18 2.86475 -3.02056 0
M  V30 13628 H 1231.71 1.3301 -3.74904 0
M  V30 13629 H 1228.45 0.261674 -6.54977 0
M  V30 13630 H 1227.97 1.7664 -5.732 0
M  V30 13631 H 1229.65 1.54378 -6.28312 0
M  V30 13632 N 1229.78 1.54207 0.325255 0
M  V30 13633 C 1230.73 1.83474 1.40021 0
M  V30 13634 C 1231.7 0.681719 1.51466 0
M  V30 13635 O 1232.88 0.92798 1.66713 0
M  V30 13636 C 1230.02 2.06624 2.76407 0
M  V30 13637 C 1229.13 3.3431 2.73607 0
M  V30 13638 C 1228.27 3.4743 4.01828 0
M  V30 13639 C 1227.31 4.68997 3.93329 0
M  V30 13640 N 1226.45 4.79052 5.13277 0
M  V30 13641 H 1231.29 2.75182 1.14363 0
M  V30 13642 H 1228.82 1.36284 0.553639 0
M  V30 13643 H 1230.78 2.18037 3.5569 0
M  V30 13644 H 1229.41 1.18209 3.00377 0
M  V30 13645 H 1228.46 3.31643 1.86324 0
M  V30 13646 H 1229.77 4.237 2.6321 0
M  V30 13647 H 1228.93 3.58376 4.89542 0
M  V30 13648 H 1227.67 2.56128 4.1503 0
M  V30 13649 H 1226.67 4.58109 3.04 0
M  V30 13650 H 1227.9 5.61681 3.81695 0
M  V30 13651 H 1225.84 3.90666 5.26988 0
M  V30 13652 H 1225.76 5.62406 5.05208 0
M  V30 13653 H 1227.03 4.94328 6.02711 0
M  V30 13654 N 1231.26 -0.58723 1.46251 0
M  V30 13655 C 1232.19 -1.71103 1.52501 0
M  V30 13656 C 1233.2 -1.57454 0.413772 0
M  V30 13657 O 1234.39 -1.64962 0.681902 0
M  V30 13658 C 1231.49 -3.0931 1.38493 0
M  V30 13659 C 1230.66 -3.49005 2.63655 0
M  V30 13660 C 1229.72 -4.66255 2.43911 0
M  V30 13661 O 1228.75 -4.72344 3.17616 0
M  V30 13662 N 1229.95 -5.60843 1.49784 0
M  V30 13663 H 1232.72 -1.66198 2.49396 0
M  V30 13664 H 1230.28 -0.773087 1.4225 0
M  V30 13665 H 1232.27 -3.85535 1.23064 0
M  V30 13666 H 1230.84 -3.08608 0.497963 0
M  V30 13667 H 1230.06 -2.62533 2.94058 0
M  V30 13668 H 1231.35 -3.72291 3.4681 0
M  V30 13669 H 1230.75 -5.58656 0.889972 0
M  V30 13670 H 1229.3 -6.36517 1.4032 0
M  V30 13671 N 1232.74 -1.33881 -0.831482 0
M  V30 13672 C 1233.65 -1.26802 -1.97379 0
M  V30 13673 C 1234.66 -0.177233 -1.73095 0
M  V30 13674 O 1235.84 -0.402163 -1.97344 0
M  V30 13675 C 1232.9 -1.01474 -3.31517 0
M  V30 13676 C 1231.96 -2.19626 -3.68867 0
M  V30 13677 C 1231.2 -1.95497 -4.96605 0
M  V30 13678 O 1231.42 -0.908948 -5.63111 0
M  V30 13679 O 1230.35 -2.82226 -5.31632 0
M  V30 13680 H 1234.18 -2.22883 -2.06293 0
M  V30 13681 H 1231.76 -1.14001 -0.965613 0
M  V30 13682 H 1233.65 -0.890954 -4.11874 0
M  V30 13683 H 1232.32 -0.0842656 -3.2359 0
M  V30 13684 H 1231.23 -2.37561 -2.88991 0
M  V30 13685 H 1232.56 -3.11034 -3.81469 0
M  V30 13686 N 1234.21 1.05064 -1.1747 0
M  V30 13687 C 1235.18 2.1101 -0.89485 0
M  V30 13688 C 1236.18 1.60384 0.11553 0
M  V30 13689 O 1237.37 1.73808 -0.116785 0
M  V30 13690 C 1234.5 3.39194 -0.340642 0
M  V30 13691 H 1235.69 2.37269 -1.83421 0
M  V30 13692 H 1233.24 1.21329 -0.985343 0
M  V30 13693 H 1233.98 3.18591 0.605808 0
M  V30 13694 H 1233.76 3.77251 -1.06885 0
M  V30 13695 H 1235.25 4.17281 -0.163204 0
M  V30 13696 N 1235.69 0.975146 1.23809 0
M  V30 13697 C 1236.62 0.45593 2.23599 0
M  V30 13698 C 1237.6 -0.474069 1.55536 0
M  V30 13699 O 1238.79 -0.40373 1.84126 0
M  V30 13700 C 1235.91 -0.341008 3.36979 0
M  V30 13701 C 1234.96 0.532362 4.23164 0
M  V30 13702 S 1235.79 1.97706 4.97667 0
M  V30 13703 C 1236.95 1.18912 6.145 0
M  V30 13704 H 1237.18 1.30157 2.67295 0
M  V30 13705 H 1234.71 0.78074 1.33206 0
M  V30 13706 H 1236.67 -0.794817 4.02732 0
M  V30 13707 H 1235.33 -1.16171 2.91827 0
M  V30 13708 H 1234.53 -0.0798928 5.03937 0
M  V30 13709 H 1234.13 0.922202 3.62452 0
M  V30 13710 H 1236.42 0.447823 6.76018 0
M  V30 13711 H 1237.36 1.97148 6.80102 0
M  V30 13712 H 1237.77 0.710216 5.60014 0
M  V30 13713 N 1237.17 -1.38817 0.746158 0
M  V30 13714 C 1238.59 -1.53894 0.42294 0
M  V30 13715 C 1238.79 -1.71064 -1.06486 0
M  V30 13716 O 1237.84 -1.71744 -1.85095 0
M  V30 13717 C 1239.15 -2.75029 1.2157 0
M  V30 13718 C 1240.7 -2.88873 1.20504 0
M  V30 13719 C 1241.18 -4.1296 1.9806 0
M  V30 13720 N 1242.67 -4.20022 1.95283 0
M  V30 13721 C 1243.4 -5.15011 2.52093 0
M  V30 13722 N 1242.9 -6.1572 3.17586 0
M  V30 13723 N 1244.69 -5.07308 2.42064 0
M  V30 13724 H 1236.84 -1.25921 1.71049 0
M  V30 13725 H 1239.11 -0.611148 0.724708 0
M  V30 13726 H 1238.81 -2.68722 2.26895 0
M  V30 13727 H 1238.69 -3.68009 0.827593 0
M  V30 13728 H 1241.07 -2.94667 0.159877 0
M  V30 13729 H 1241.15 -1.96925 1.63261 0
M  V30 13730 H 1240.8 -4.07929 3.02583 0
M  V30 13731 H 1240.73 -5.03974 1.52702 0
M  V30 13732 H 1243.22 -3.47892 1.4758 0
M  V30 13733 H 1243.53 -6.84682 3.58373 0
M  V30 13734 H 1241.88 -6.16075 3.21678 0
M  V30 13735 H 1245.07 -4.27569 1.90532 0
M  V30 13736 H 1245.24 -5.81158 2.86635 0
M  V30 13737 N 1238.65 -0.49465 -1.49636 0
M  V30 13738 C 1239.88 0.0491129 -2.06842 0
M  V30 13739 C 1240.29 1.31395 -1.35576 0
M  V30 13740 O 1239.65 1.7731 -0.432135 0
M  V30 13741 C 1239.7 0.313171 -3.60141 0
M  V30 13742 O 1239.42 -0.90152 -4.28724 0
M  V30 13743 C 1240.92 0.901284 -4.34041 0
M  V30 13744 H 1238.14 -0.0176186 -0.670769 0
M  V30 13745 H 1240.68 -0.690188 -1.92501 0
M  V30 13746 H 1238.84 1.00244 -3.74206 0
M  V30 13747 H 1239.25 -0.660477 -5.20325 0
M  V30 13748 H 1240.73 1.03567 -5.42197 0
M  V30 13749 H 1241.2 1.89746 -3.96097 0
M  V30 13750 H 1241.81 0.249677 -4.24566 0
M  V30 13751 N 1240.13 1.55939 -0.228214 0
M  V30 13752 C 1241.36 2.02576 0.405759 0
M  V30 13753 C 1241.76 1.10718 1.53422 0
M  V30 13754 O 1241.11 0.110361 1.83368 0
M  V30 13755 C 1241.17 3.45531 0.992405 0
M  V30 13756 C 1240.83 4.57 -0.00144674 0
M  V30 13757 C 1241.83 5.13642 -0.804248 0
M  V30 13758 C 1239.51 5.02152 -0.12213 0
M  V30 13759 C 1241.51 6.13912 -1.71437 0
M  V30 13760 C 1239.2 6.02258 -1.03578 0
M  V30 13761 C 1240.19 6.58015 -1.83044 0
M  V30 13762 O 1239.88 7.56172 -2.72872 0
M  V30 13763 H 1239.61 0.668136 0.102813 0
M  V30 13764 H 1242.17 2.02497 -0.344092 0
M  V30 13765 H 1240.4 3.427 1.79147 0
M  V30 13766 H 1242.09 3.75777 1.53448 0
M  V30 13767 H 1242.85 4.79603 -0.721497 0
M  V30 13768 H 1238.73 4.58428 0.486294 0
M  V30 13769 H 1242.28 6.57359 -2.33506 0
M  V30 13770 H 1238.17 6.35718 -1.11952 0
M  V30 13771 H 1238.94 7.73719 -2.67022 0
M  V30 13772 N 1241.6 -0.0451101 1.57535 0
M  V30 13773 C 1242.85 -0.738072 1.87711 0
M  V30 13774 C 1243.17 -1.7737 0.824579 0
M  V30 13775 O 1244.37 -2.51812 1.01503 0
M  V30 13776 C 1242.83 -1.36373 3.33062 0
M  V30 13777 C 1242.44 -0.365283 4.46508 0
M  V30 13778 C 1244.18 -2.0375 3.72406 0
M  V30 13779 C 1242.09 -0.998371 5.82912 0
M  V30 13780 H 1241.02 -0.279413 0.700317 0
M  V30 13781 H 1243.67 0.00802425 1.83498 0
M  V30 13782 H 1242.05 -2.15899 3.31969 0
M  V30 13783 H 1243.22 0.402102 4.59042 0
M  V30 13784 H 1241.54 0.205505 4.15893 0
M  V30 13785 H 1244.14 -2.51939 4.71625 0
M  V30 13786 H 1244.48 -2.84869 3.03571 0
M  V30 13787 H 1245.01 -1.3102 3.75604 0
M  V30 13788 H 1241.75 -0.226935 6.55107 0
M  V30 13789 H 1241.27 -1.73598 5.74129 0
M  V30 13790 H 1242.95 -1.51044 6.29122 0
M  V30 13791 N 1243.08 -1.54377 -0.317073 0
M  V30 13792 C 1244.33 -1.72893 -1.05424 0
M  V30 13793 C 1244.66 -0.506082 -1.87801 0
M  V30 13794 O 1243.91 0.51213 -1.8888 0
M  V30 13795 C 1244.21 -2.96066 -2.00199 0
M  V30 13796 C 1243.88 -4.30551 -1.33927 0
M  V30 13797 C 1242.54 -4.67112 -1.15584 0
M  V30 13798 C 1244.89 -5.13986 -0.864158 0
M  V30 13799 C 1242.22 -5.84701 -0.483892 0
M  V30 13800 C 1244.57 -6.32264 -0.206006 0
M  V30 13801 C 1243.24 -6.67499 -0.0104849 0
M  V30 13802 H 1242.51 -0.63266 -0.385776 0
M  V30 13803 H 1245.15 -1.88623 -0.330722 0
M  V30 13804 H 1243.46 -2.7505 -2.79024 0
M  V30 13805 H 1245.15 -3.07586 -2.57278 0
M  V30 13806 H 1241.74 -4.0179 -1.49207 0
M  V30 13807 H 1245.93 -4.86252 -0.993635 0
M  V30 13808 H 1241.18 -6.10555 -0.32127 0
M  V30 13809 H 1245.36 -6.96192 0.170108 0
M  V30 13810 H 1242.99 -7.58472 0.512209 0
M  V30 13811 N 1244.56 0.579466 -1.4656 0
M  V30 13812 C 1245.98 0.903163 -1.31587 0
M  V30 13813 C 1246.18 1.99406 -0.28972 0
M  V30 13814 O 1245.23 2.50632 0.30658 0
M  V30 13815 C 1246.55 1.31745 -2.70303 0
M  V30 13816 C 1248.09 1.43012 -2.78418 0
M  V30 13817 C 1248.57 1.87805 -4.17724 0
M  V30 13818 N 1250.06 1.94993 -4.20157 0
M  V30 13819 C 1250.79 2.30934 -5.2484 0
M  V30 13820 N 1250.29 2.65645 -6.39847 0
M  V30 13821 N 1252.08 2.31517 -5.12207 0
M  V30 13822 H 1244.23 -0.141111 -2.11931 0
M  V30 13823 H 1246.5 -0.000460304 -0.948 0
M  V30 13824 H 1246.2 0.589864 -3.46718 0
M  V30 13825 H 1246.08 2.2783 -3.00622 0
M  V30 13826 H 1248.46 2.14856 -2.02289 0
M  V30 13827 H 1248.55 0.451701 -2.5178 0
M  V30 13828 H 1248.19 1.16539 -4.94349 0
M  V30 13829 H 1248.12 2.86611 -4.41771 0
M  V30 13830 H 1250.61 1.70645 -3.37178 0
M  V30 13831 H 1250.92 2.92032 -7.15498 0
M  V30 13832 H 1249.27 2.63276 -6.43204 0
M  V30 13833 H 1252.46 2.03824 -4.21394 0
M  V30 13834 H 1252.63 2.59199 -5.93902 0
M  V30 13835 N 1246.04 1.3432 0.824371 0
M  V30 13836 C 1247.27 1.29481 1.60992 0
M  V30 13837 C 1247.68 -0.133581 1.88728 0
M  V30 13838 O 1247.02 -1.09065 1.4782 0
M  V30 13839 C 1247.08 2.01604 2.97651 0
M  V30 13840 C 1246.75 3.50866 2.92817 0
M  V30 13841 C 1247.74 4.458 2.67504 0
M  V30 13842 C 1245.43 3.93258 3.12495 0
M  V30 13843 C 1247.42 5.81101 2.61918 0
M  V30 13844 C 1245.11 5.28659 3.06533 0
M  V30 13845 C 1246.11 6.22392 2.81278 0
M  V30 13846 O 1245.79 7.55311 2.75246 0
M  V30 13847 H 1245.53 0.446931 0.507177 0
M  V30 13848 H 1248.08 1.77484 1.03386 0
M  V30 13849 H 1246.31 1.48212 3.5717 0
M  V30 13850 H 1248 1.90073 3.58646 0
M  V30 13851 H 1248.77 4.1437 2.52037 0
M  V30 13852 H 1244.64 3.20699 3.31169 0
M  V30 13853 H 1248.19 6.54233 2.42125 0
M  V30 13854 H 1244.09 5.59709 3.21553 0
M  V30 13855 H 1244.85 7.6503 2.90984 0
M  V30 13856 N 1247.52 -1.0444 1.18026 0
M  V30 13857 C 1248.77 -1.7697 0.9677 0
M  V30 13858 C 1249.08 -1.88995 -0.503994 0
M  V30 13859 O 1250.28 -2.58342 -0.834968 0
M  V30 13860 C 1248.74 -3.1816 1.68232 0
M  V30 13861 C 1248.35 -3.14241 3.19307 0
M  V30 13862 C 1250.09 -3.95095 1.55244 0
M  V30 13863 C 1248 -4.50266 3.83425 0
M  V30 13864 H 1246.93 -0.663355 0.358436 0
M  V30 13865 H 1249.58 -1.17003 1.4136 0
M  V30 13866 H 1247.96 -3.78501 1.16418 0
M  V30 13867 H 1249.14 -2.63373 3.78115 0
M  V30 13868 H 1247.45 -2.50805 3.32394 0
M  V30 13869 H 1250.05 -4.95681 2.00511 0
M  V30 13870 H 1250.39 -4.13236 0.504125 0
M  V30 13871 H 1250.92 -3.4132 2.04317 0
M  V30 13872 H 1247.66 -4.37329 4.88286 0
M  V30 13873 H 1247.18 -5.01251 3.29404 0
M  V30 13874 H 1248.86 -5.1919 3.86071 0
M  V30 13875 N 1248.99 -0.981699 -1.2329 0
M  V30 13876 C 1250.22 -0.669025 -1.96313 0
M  V30 13877 C 1250.64 0.757624 -1.72168 0
M  V30 13878 O 1250 1.51626 -0.993942 0
M  V30 13879 C 1250.05 -0.966875 -3.47396 0
M  V30 13880 O 1249.15 -0.0595933 -4.12357 0
M  V30 13881 H 1248.5 -0.251493 -0.61453 0
M  V30 13882 H 1251.03 -1.31564 -1.56691 0
M  V30 13883 H 1251.04 -0.904112 -3.97857 0
M  V30 13884 H 1249.71 -2.00651 -3.64296 0
M  V30 13885 H 1248.29 -0.176878 -3.7248 0
M  V30 13886 N 1250.47 1.3842 -0.753509 0
M  V30 13887 C 1251.72 1.99359 -0.306416 0
M  V30 13888 C 1252.03 1.60492 1.11811 0
M  V30 13889 O 1253.24 2.14401 1.66567 0
M  V30 13890 C 1251.7 3.56453 -0.496895 0
M  V30 13891 C 1251.3 4.04272 -1.9305 0
M  V30 13892 C 1253.05 4.24351 -0.11251 0
M  V30 13893 C 1250.96 5.54007 -2.06955 0
M  V30 13894 H 1249.89 0.745812 -0.110818 0
M  V30 13895 H 1252.54 1.58185 -0.930039 0
M  V30 13896 H 1250.92 3.95515 0.195912 0
M  V30 13897 H 1252.09 3.765 -2.65677 0
M  V30 13898 H 1250.41 3.49098 -2.26979 0
M  V30 13899 H 1253 5.34344 -0.195161 0
M  V30 13900 H 1253.35 4.05668 0.934849 0
M  V30 13901 H 1253.88 3.90528 -0.757168 0
M  V30 13902 H 1250.62 5.77594 -3.09944 0
M  V30 13903 H 1250.14 5.83522 -1.38788 0
M  V30 13904 H 1251.82 6.19704 -1.85945 0
M  V30 13905 N 1251.95 0.502579 1.49372 0
M  V30 13906 C 1253.18 -0.0380876 2.06565 0
M  V30 13907 C 1253.59 -1.31224 1.36297 0
M  V30 13908 O 1252.93 -1.78463 0.435517 0
M  V30 13909 C 1252.99 -0.360462 3.57688 0
M  V30 13910 C 1252.66 0.816203 4.49652 0
M  V30 13911 C 1253.65 1.70713 4.91073 0
M  V30 13912 C 1251.34 1.01545 4.91929 0
M  V30 13913 C 1253.33 2.78144 5.73511 0
M  V30 13914 C 1251.02 2.09294 5.74142 0
M  V30 13915 C 1252.02 2.97428 6.14838 0
M  V30 13916 O 1251.71 4.03317 6.95407 0
M  V30 13917 H 1251.44 0.0179548 0.675762 0
M  V30 13918 H 1253.99 0.699609 1.93118 0
M  V30 13919 H 1252.22 -1.15177 3.69149 0
M  V30 13920 H 1253.91 -0.839931 3.97115 0
M  V30 13921 H 1254.68 1.56502 4.59056 0
M  V30 13922 H 1250.56 0.338822 4.59753 0
M  V30 13923 H 1254.1 3.46965 6.05195 0
M  V30 13924 H 1250 2.235 6.05572 0
M  V30 13925 H 1250.77 4.00689 7.13716 0
M  V30 13926 N 1253.43 -1.55816 0.23648 0
M  V30 13927 C 1254.34 -2.24576 -0.678439 0
M  V30 13928 C 1255.35 -1.25836 -1.20172 0
M  V30 13929 O 1256.53 -1.58686 -1.24019 0
M  V30 13930 C 1253.6 -2.92376 -1.86325 0
M  V30 13931 C 1252.66 -4.06499 -1.38047 0
M  V30 13932 C 1251.89 -4.71057 -2.50881 0
M  V30 13933 O 1252.11 -4.34652 -3.69369 0
M  V30 13934 O 1251.05 -5.59768 -2.21232 0
M  V30 13935 H 1254.87 -3.03452 -0.122601 0
M  V30 13936 H 1252.46 -1.49399 0.00540803 0
M  V30 13937 H 1254.34 -3.35117 -2.55488 0
M  V30 13938 H 1253.01 -2.16448 -2.40691 0
M  V30 13939 H 1251.92 -3.68296 -0.656422 0
M  V30 13940 H 1253.25 -4.84214 -0.883024 0
M  V30 13941 N 1254.91 0.036755 -1.57557 0
M  V30 13942 C 1256.13 0.744813 -1.93565 0
M  V30 13943 C 1256.56 1.68508 -0.835863 0
M  V30 13944 O 1255.91 1.80091 0.208986 0
M  V30 13945 C 1255.96 1.48461 -3.28621 0
M  V30 13946 O 1255.07 2.59739 -3.20327 0
M  V30 13947 H 1254.41 0.200866 -0.632889 0
M  V30 13948 H 1256.94 -0.00547543 -2.04599 0
M  V30 13949 H 1256.95 1.85622 -3.63329 0
M  V30 13950 H 1255.62 0.794953 -4.08232 0
M  V30 13951 H 1254.2 2.25176 -2.97237 0
M  V30 13952 N 1256.39 1.54543 0.308881 0
M  V30 13953 C 1257.63 1.73449 1.04506 0
M  V30 13954 C 1257.96 0.516034 1.8753 0
M  V30 13955 O 1257.22 -0.502106 1.89149 0
M  V30 13956 C 1257.51 2.97124 1.98626 0
M  V30 13957 C 1257.18 4.31256 1.31641 0
M  V30 13958 C 1255.84 4.67719 1.13105 0
M  V30 13959 C 1258.19 5.14437 0.836888 0
M  V30 13960 C 1255.52 5.84949 0.452878 0
M  V30 13961 C 1257.87 6.32365 0.172473 0
M  V30 13962 C 1256.54 6.67495 -0.0249143 0
M  V30 13963 H 1255.81 0.634697 0.382415 0
M  V30 13964 H 1258.46 1.88795 0.320714 0
M  V30 13965 H 1256.76 2.76526 2.77562 0
M  V30 13966 H 1258.46 3.08946 2.55643 0
M  V30 13967 H 1255.05 4.02576 1.47074 0
M  V30 13968 H 1259.23 4.86772 0.967834 0
M  V30 13969 H 1254.49 6.10717 0.288886 0
M  V30 13970 H 1258.66 6.96092 -0.207027 0
M  V30 13971 H 1256.29 7.5819 -0.552425 0
M  V30 13972 N 1257.86 -0.571685 1.46866 0
M  V30 13973 C 1259.09 -1.36008 1.56578 0
M  V30 13974 C 1259.51 -1.86909 0.211326 0
M  V30 13975 O 1258.87 -1.62179 -0.810421 0
M  V30 13976 C 1258.92 -2.51598 2.58323 0
M  V30 13977 O 1258.02 -3.53383 2.1259 0
M  V30 13978 H 1257.36 -0.404593 0.526498 0
M  V30 13979 H 1259.89 -0.692357 1.92529 0
M  V30 13980 H 1259.9 -2.98366 2.78283 0
M  V30 13981 H 1258.58 -2.13904 3.56676 0
M  V30 13982 H 1257.16 -3.13019 2.02666 0
M  V30 13983 N 1259.34 -1.34755 -0.817236 0
M  V30 13984 C 1260.59 -1.26771 -1.56882 0
M  V30 13985 C 1260.9 0.158962 -1.94953 0
M  V30 13986 O 1262.11 0.360996 -2.69089 0
M  V30 13987 C 1260.57 -2.22261 -2.83069 0
M  V30 13988 C 1260.17 -3.70216 -2.52277 0
M  V30 13989 C 1261.92 -2.23197 -3.61086 0
M  V30 13990 C 1259.82 -4.57559 -3.74691 0
M  V30 13991 H 1258.75 -0.470961 -0.588822 0
M  V30 13992 H 1261.41 -1.59955 -0.899254 0
M  V30 13993 H 1259.79 -1.82036 -3.5168 0
M  V30 13994 H 1260.96 -4.19014 -1.9174 0
M  V30 13995 H 1259.28 -3.71784 -1.87525 0
M  V30 13996 H 1261.87 -2.85673 -4.5199 0
M  V30 13997 H 1262.22 -1.2328 -3.97628 0
M  V30 13998 H 1262.75 -2.61897 -2.99424 0
M  V30 13999 H 1259.49 -5.58434 -3.43267 0
M  V30 14000 H 1259.01 -4.13494 -4.34491 0
M  V30 14001 H 1260.69 -4.72451 -4.42039 0
M  V30 14002 N 1260.82 1.03812 -1.18578 0
M  V30 14003 C 1262.1 1.74062 -0.892288 0
M  V30 14004 C 1262.48 2.02267 0.604256 0
M  V30 14005 O 1261.82 1.66988 1.55972 0
M  V30 14006 C 1262.03 3.024 -1.74228 0
M  V30 14007 C 1263.38 3.76088 -1.97087 0
M  V30 14008 O 1264.41 3.12305 -1.71302 0
M  V30 14009 O 1263.27 4.90732 -2.40509 0
M  V30 14010 H 1260.36 0.757567 -0.331695 0
M  V30 14011 H 1262.91 1.09855 -1.29345 0
M  V30 14012 H 1261.68 2.77713 -2.75665 0
M  V30 14013 H 1261.3 3.74346 -1.3398 0
M  V30 14014 N 1262.3 0.988223 1.22768 0
M  V30 14015 C 1263.23 0.492919 2.23837 0
M  V30 14016 C 1264.24 -0.409467 1.57567 0
M  V30 14017 O 1265.43 -0.21235 1.77232 0
M  V30 14018 C 1262.53 -0.305428 3.37521 0
M  V30 14019 C 1261.7 0.591966 4.33376 0
M  V30 14020 C 1260.76 -0.15387 5.25975 0
M  V30 14021 O 1259.79 0.459153 5.67345 0
M  V30 14022 N 1260.99 -1.43756 5.62418 0
M  V30 14023 H 1263.76 1.36199 2.66965 0
M  V30 14024 H 1261.32 0.862395 1.3702 0
M  V30 14025 H 1263.31 -0.812921 3.96451 0
M  V30 14026 H 1261.88 -1.07556 2.93514 0
M  V30 14027 H 1261.1 1.28019 3.72833 0
M  V30 14028 H 1262.39 1.20327 4.94367 0
M  V30 14029 H 1261.79 -1.95701 5.30771 0
M  V30 14030 H 1260.34 -1.89034 6.23786 0
M  V30 14031 N 1263.78 -1.38018 0.760839 0
M  V30 14032 C 1264.71 -2.32995 0.153557 0
M  V30 14033 C 1265.69 -1.55234 -0.695448 0
M  V30 14034 O 1266.87 -1.8352 -0.635148 0
M  V30 14035 C 1264 -3.39437 -0.734811 0
M  V30 14036 C 1262.96 -4.27998 0.0120287 0
M  V30 14037 C 1262.28 -5.25359 -0.995067 0
M  V30 14038 C 1263.58 -5.08687 1.18468 0
M  V30 14039 H 1265.28 -2.8403 0.946956 0
M  V30 14040 H 1262.82 -1.36562 0.456816 0
M  V30 14041 H 1264.77 -4.0485 -1.16938 0
M  V30 14042 H 1263.5 -2.86901 -1.56061 0
M  V30 14043 H 1262.16 -3.64102 0.427254 0
M  V30 14044 H 1261.81 -4.69108 -1.81512 0
M  V30 14045 H 1261.51 -5.85469 -0.499969 0
M  V30 14046 H 1263.03 -5.93648 -1.4288 0
M  V30 14047 H 1264.44 -5.67299 0.8273 0
M  V30 14048 H 1262.84 -5.78068 1.61112 0
M  V30 14049 H 1263.91 -4.42 1.99409 0
M  V30 14050 N 1265.25 -0.510493 -1.49103 0
M  V30 14051 C 1266.49 0.0288873 -2.0438 0
M  V30 14052 C 1266.86 1.334 -1.38088 0
M  V30 14053 O 1268.06 1.95821 -1.8414 0
M  V30 14054 C 1266.33 0.168392 -3.57003 0
M  V30 14055 S 1267.89 0.660651 -4.33798 0
M  V30 14056 H 1264.71 -0.00274928 -0.710995 0
M  V30 14057 H 1267.31 -0.686622 -1.83046 0
M  V30 14058 H 1266.01 -0.786627 -4.02791 0
M  V30 14059 H 1265.54 0.908861 -3.82757 0
M  V30 14060 H 1267.56 1.92833 -4.57198 0
M  V30 14061 N 1266.73 1.55688 -0.24474 0
M  V30 14062 C 1267.98 1.99186 0.381167 0
M  V30 14063 C 1268.31 1.13266 1.57748 0
M  V30 14064 O 1267.59 0.195568 1.93514 0
M  V30 14065 C 1267.87 3.51257 0.793142 0
M  V30 14066 C 1267.72 4.47942 -0.408409 0
M  V30 14067 C 1269.04 4.08365 1.64091 0
M  V30 14068 H 1266.16 0.724141 0.137073 0
M  V30 14069 H 1268.8 1.8683 -0.345619 0
M  V30 14070 H 1266.95 3.61917 1.4124 0
M  V30 14071 H 1268.62 4.49265 -1.04682 0
M  V30 14072 H 1266.87 4.20854 -1.05189 0
M  V30 14073 H 1267.54 5.51946 -0.0768531 0
M  V30 14074 H 1270.01 4.00794 1.1182 0
M  V30 14075 H 1268.89 5.1504 1.89802 0
M  V30 14076 H 1269.15 3.56687 2.61202 0
M  V30 14077 N 1268.21 -0.0283989 1.57574 0
M  V30 14078 C 1269.14 -1.06191 2.01987 0
M  V30 14079 C 1270.12 -1.35131 0.90434 0
M  V30 14080 O 1271.3 -1.47777 1.17023 0
M  V30 14081 C 1268.43 -2.39646 2.39348 0
M  V30 14082 C 1267.48 -2.26558 3.6135 0
M  V30 14083 S 1268.31 -1.61839 5.10459 0
M  V30 14084 C 1269.47 -2.96783 5.51063 0
M  V30 14085 H 1269.7 -0.683625 2.89333 0
M  V30 14086 H 1267.23 -0.238394 1.52548 0
M  V30 14087 H 1269.19 -3.16394 2.61544 0
M  V30 14088 H 1267.85 -2.74622 1.52452 0
M  V30 14089 H 1267.04 -3.25079 3.85149 0
M  V30 14090 H 1266.65 -1.57954 3.39008 0
M  V30 14091 H 1268.94 -3.93111 5.51788 0
M  V30 14092 H 1269.88 -2.77716 6.51367 0
M  V30 14093 H 1270.29 -2.99386 4.78569 0
M  V30 14094 N 1269.69 -1.54705 -0.300681 0
M  V30 14095 C 1270.93 -1.74001 -1.03585 0
M  V30 14096 C 1271.26 -0.525972 -1.87253 0
M  V30 14097 O 1270.52 0.492068 -1.89413 0
M  V30 14098 C 1270.82 -2.98173 -1.97047 0
M  V30 14099 C 1270.48 -4.31948 -1.29352 0
M  V30 14100 C 1269.14 -4.68312 -1.10623 0
M  V30 14101 C 1271.5 -5.14874 -0.809594 0
M  V30 14102 C 1268.82 -5.85181 -0.42185 0
M  V30 14103 C 1271.18 -6.32447 -0.138935 0
M  V30 14104 C 1269.84 -6.67473 0.0603129 0
M  V30 14105 H 1269.11 -0.636716 -0.379044 0
M  V30 14106 H 1271.76 -1.88963 -0.310697 0
M  V30 14107 H 1270.06 -2.77994 -2.76091 0
M  V30 14108 H 1271.76 -3.10297 -2.54001 0
M  V30 14109 H 1268.35 -4.0335 -1.44937 0
M  V30 14110 H 1272.53 -4.87278 -0.942006 0
M  V30 14111 H 1267.79 -6.10862 -0.256494 0
M  V30 14112 H 1271.96 -6.95973 0.243939 0
M  V30 14113 H 1269.59 -7.57887 0.592626 0
M  V30 14114 N 1271.17 0.563888 -1.47167 0
M  V30 14115 C 1272.44 1.32454 -1.43928 0
M  V30 14116 C 1272.82 2.10683 -0.13267 0
M  V30 14117 O 1272.17 2.1063 0.885845 0
M  V30 14118 C 1272.38 2.2347 -2.68071 0
M  V30 14119 C 1273.73 2.84702 -3.15008 0
M  V30 14120 O 1274.75 2.33775 -2.68752 0
M  V30 14121 O 1273.61 3.77251 -3.95404 0
M  V30 14122 H 1270.71 0.596074 -0.573258 0
M  V30 14123 H 1273.25 0.583345 -1.59359 0
M  V30 14124 H 1272.02 1.6522 -3.54708 0
M  V30 14125 H 1271.65 3.04897 -2.55193 0
M  V30 14126 N 1272.64 1.35187 0.810078 0
M  V30 14127 C 1273.57 1.30481 1.93641 0
M  V30 14128 C 1274.56 0.179875 1.69146 0
M  V30 14129 O 1275.74 0.374284 1.90559 0
M  V30 14130 C 1272.87 1.07251 3.30325 0
M  V30 14131 C 1271.82 2.16348 3.69293 0
M  V30 14132 C 1271.15 1.78288 5.04101 0
M  V30 14133 C 1272.45 3.58285 3.80038 0
M  V30 14134 H 1274.14 2.24725 1.97836 0
M  V30 14135 H 1271.69 1.08179 0.950436 0
M  V30 14136 H 1273.64 1.02599 4.08719 0
M  V30 14137 H 1272.37 0.0945203 3.26463 0
M  V30 14138 H 1271.03 2.2009 2.93182 0
M  V30 14139 H 1270.67 0.791163 4.96739 0
M  V30 14140 H 1270.37 2.51315 5.31144 0
M  V30 14141 H 1271.9 1.75155 5.84938 0
M  V30 14142 H 1273.31 3.56884 4.48672 0
M  V30 14143 H 1271.71 4.30044 4.18548 0
M  V30 14144 H 1272.78 3.94691 2.81685 0
M  V30 14145 N 1274.12 -1.03182 1.19127 0
M  V30 14146 C 1275.07 -2.13507 0.922899 0
M  V30 14147 C 1276.06 -1.68973 -0.120171 0
M  V30 14148 O 1277.27 -1.79977 0.0288007 0
M  V30 14149 H 1273.65 -0.697516 0.281027 0
M  V30 14150 H 1275.62 -2.33335 1.86003 0
M  V30 14151 C 1274.37 -3.44442 0.474864 0
M  V30 14152 H 1273.69 -3.79125 1.26902 0
M  V30 14153 H 1275.13 -4.22744 0.326162 0
M  V30 14154 C 1273.59 -3.27002 -0.81063 0
M  V30 14155 O 1274.12 -3.55374 -1.87276 0
M  V30 14156 N 1272.32 -2.80303 -0.766713 0
M  V30 14157 H 1271.87 -2.57414 0.0978672 0
M  V30 14158 H 1271.83 -2.69015 -1.62721 0
M  V30 14159 N 1275.6 -0.99472 -1.22242 0
M  V30 14160 C 1276.53 -0.504783 -2.23572 0
M  V30 14161 C 1277.55 0.401105 -1.57781 0
M  V30 14162 O 1278.73 0.202948 -1.77343 0
M  V30 14163 C 1275.83 0.287524 -3.37678 0
M  V30 14164 C 1275.01 -0.614941 -4.33056 0
M  V30 14165 C 1274.07 0.125974 -5.26049 0
M  V30 14166 O 1273.09 -0.489234 -5.67094 0
M  V30 14167 N 1274.29 1.40772 -5.63173 0
M  V30 14168 H 1277.06 -1.37612 -2.66238 0
M  V30 14169 H 1274.62 -0.86965 -1.3656 0
M  V30 14170 H 1276.61 0.791884 -3.96877 0
M  V30 14171 H 1275.18 1.05998 -2.9408 0
M  V30 14172 H 1274.4 -1.29994 -3.72149 0
M  V30 14173 H 1275.69 -1.22947 -4.93722 0
M  V30 14174 H 1275.09 1.92884 -5.31801 0
M  V30 14175 H 1273.65 1.85723 -6.2478 0
M  V30 14176 N 1277.08 1.37613 -0.768148 0
M  V30 14177 C 1278.03 2.3218 -0.13974 0
M  V30 14178 C 1279.02 1.54754 0.689023 0
M  V30 14179 O 1280.23 1.70177 0.586489 0
M  V30 14180 H 1276.6 0.751536 -0.0264001 0
M  V30 14181 H 1278.57 2.82768 -0.953139 0
M  V30 14182 C 1277.32 3.39997 0.727829 0
M  V30 14183 H 1276.64 3.99676 0.0994851 0
M  V30 14184 H 1278.08 4.08538 1.13456 0
M  V30 14185 C 1276.54 2.79778 1.87686 0
M  V30 14186 O 1277.07 2.70241 2.97208 0
M  V30 14187 N 1275.28 2.37373 1.67637 0
M  V30 14188 H 1274.83 2.4533 0.785552 0
M  V30 14189 H 1274.78 1.97426 2.44684 0
M  V30 14190 N 1278.56 0.518393 1.4883 0
M  V30 14191 C 1279.8 -0.0199348 2.0279 0
M  V30 14192 C 1280.14 -1.35026 1.39576 0
M  V30 14193 O 1279.41 -1.86927 0.537449 0
M  V30 14194 C 1279.69 -0.154184 3.5977 0
M  V30 14195 C 1279.55 1.2005 4.33484 0
M  V30 14196 C 1280.87 -0.886547 4.31078 0
M  V30 14197 H 1277.98 -0.00577061 0.736977 0
M  V30 14198 H 1280.63 0.673178 1.77675 0
M  V30 14199 H 1278.78 -0.74451 3.81299 0
M  V30 14200 H 1280.45 1.83104 4.23404 0
M  V30 14201 H 1278.69 1.78537 3.95357 0
M  V30 14202 H 1279.36 1.05968 5.41733 0
M  V30 14203 H 1281.84 -0.385711 4.14308 0
M  V30 14204 H 1280.71 -0.949355 5.40628 0
M  V30 14205 H 1280.98 -1.93424 3.97542 0
M  V30 14206 N 1280.03 -1.55556 0.252993 0
M  V30 14207 C 1281.28 -1.99385 -0.370599 0
M  V30 14208 C 1281.61 -1.14101 -1.57145 0
M  V30 14209 O 1280.89 -0.205828 -1.93408 0
M  V30 14210 C 1281.17 -3.51672 -0.774503 0
M  V30 14211 C 1281.02 -4.47719 0.432159 0
M  V30 14212 C 1282.34 -4.0923 -1.61923 0
M  V30 14213 H 1279.46 -0.724858 -0.133231 0
M  V30 14214 H 1282.1 -1.86644 0.355522 0
M  V30 14215 H 1280.25 -3.62661 -1.39318 0
M  V30 14216 H 1281.93 -4.48704 1.07063 0
M  V30 14217 H 1280.17 -4.2029 1.07419 0
M  V30 14218 H 1280.84 -5.51898 0.106123 0
M  V30 14219 H 1283.32 -4.01381 -1.09693 0
M  V30 14220 H 1282.19 -5.16039 -1.87068 0
M  V30 14221 H 1282.45 -3.58067 -2.59307 0
M  V30 14222 N 1281.51 0.0200419 -1.57587 0
M  V30 14223 C 1282.46 1.0259 -2.03615 0
M  V30 14224 C 1283.45 1.31504 -0.927116 0
M  V30 14225 O 1284.64 1.30938 -1.19098 0
M  V30 14226 C 1281.77 2.32424 -2.52654 0
M  V30 14227 C 1280.85 2.06561 -3.70396 0
M  V30 14228 N 1281.24 1.50787 -4.82801 0
M  V30 14229 C 1279.54 2.36802 -3.77943 0
M  V30 14230 C 1280.24 1.40935 -5.64369 0
M  V30 14231 N 1279.22 1.88806 -5.09758 0
M  V30 14232 H 1283.02 0.588835 -2.87941 0
M  V30 14233 H 1280.54 0.226163 -1.60817 0
M  V30 14234 H 1282.53 3.05303 -2.83894 0
M  V30 14235 H 1281.19 2.76801 -1.69738 0
M  V30 14236 H 1282.2 1.18935 -5.04058 0
M  V30 14237 H 1278.88 2.84192 -3.05845 0
M  V30 14238 H 1280.27 0.982261 -6.64681 0
M  V30 14239 N 1282.99 1.54862 0.292472 0
M  V30 14240 C 1284.22 1.78877 1.04966 0
M  V30 14241 C 1284.64 0.550724 1.79857 0
M  V30 14242 O 1284 -0.499054 1.74296 0
M  V30 14243 C 1284.05 3.00106 1.99922 0
M  V30 14244 O 1283.15 2.73827 3.0837 0
M  V30 14245 H 1282.49 0.591802 0.301108 0
M  V30 14246 H 1285.02 2.01965 0.3273 0
M  V30 14247 H 1285.03 3.28309 2.42233 0
M  V30 14248 H 1283.71 3.89872 1.44821 0
M  V30 14249 H 1282.28 2.56665 2.70513 0
M  V30 14250 N 1284.47 -0.556076 1.47464 0
M  V30 14251 C 1285.72 -1.30955 1.53407 0
M  V30 14252 C 1286.03 -1.94559 0.201485 0
M  V30 14253 O 1287.24 -2.71144 0.138925 0
M  V30 14254 C 1285.69 -2.37476 2.70431 0
M  V30 14255 C 1285.3 -1.80057 4.10224 0
M  V30 14256 C 1287.04 -3.13997 2.85668 0
M  V30 14257 C 1284.95 -2.84365 5.18547 0
M  V30 14258 H 1283.88 -0.4924 0.571015 0
M  V30 14259 H 1286.53 -0.590459 1.73741 0
M  V30 14260 H 1284.91 -3.12304 2.43479 0
M  V30 14261 H 1286.09 -1.11593 4.47083 0
M  V30 14262 H 1284.4 -1.16116 3.99882 0
M  V30 14263 H 1287 -3.91892 3.63764 0
M  V30 14264 H 1287.34 -3.68253 1.94153 0
M  V30 14265 H 1287.88 -2.46281 3.12395 0
M  V30 14266 H 1284.62 -2.34963 6.11942 0
M  V30 14267 H 1284.14 -3.51235 4.86203 0
M  V30 14268 H 1285.81 -3.47836 5.45545 0
M  V30 14269 N 1285.95 -1.35615 -0.802897 0
M  V30 14270 C 1286.88 -1.31506 -1.92947 0
M  V30 14271 C 1287.86 -0.188843 -1.69048 0
M  V30 14272 O 1289.04 -0.384384 -1.90358 0
M  V30 14273 C 1286.17 -1.09001 -3.29752 0
M  V30 14274 C 1285.13 -2.18303 -3.68141 0
M  V30 14275 C 1284.45 -1.80959 -5.03148 0
M  V30 14276 C 1285.75 -3.60296 -3.78132 0
M  V30 14277 H 1287.45 -2.25771 -1.96642 0
M  V30 14278 H 1284.99 -1.08682 -0.944685 0
M  V30 14279 H 1286.95 -1.04766 -4.08169 0
M  V30 14280 H 1285.67 -0.111832 -3.26408 0
M  V30 14281 H 1284.33 -2.21642 -2.92011 0
M  V30 14282 H 1283.98 -0.817495 -4.96312 0
M  V30 14283 H 1283.68 -2.54129 -5.29804 0
M  V30 14284 H 1285.2 -1.78255 -5.84001 0
M  V30 14285 H 1286.62 -3.59259 -4.46773 0
M  V30 14286 H 1285.01 -4.32258 -4.16261 0
M  V30 14287 H 1286.08 -3.9618 -2.79588 0
M  V30 14288 N 1287.43 1.02549 -1.19673 0
M  V30 14289 C 1288.65 1.8016 -1.02748 0
M  V30 14290 C 1289.08 1.83372 0.419105 0
M  V30 14291 O 1288.43 1.26222 1.30144 0
M  V30 14292 C 1288.48 3.22907 -1.60509 0
M  V30 14293 O 1287.59 4.03823 -0.836702 0
M  V30 14294 H 1286.93 0.556027 -0.362946 0
M  V30 14295 H 1289.46 1.29047 -1.5877 0
M  V30 14296 H 1289.47 3.73646 -1.63868 0
M  V30 14297 H 1288.14 3.19885 -2.65794 0
M  V30 14298 H 1286.72 3.6245 -0.876626 0
M  V30 14299 N 1288.9 1.00119 1.21713 0
M  V30 14300 C 1289.85 0.558388 2.23943 0
M  V30 14301 C 1290.82 -0.413576 1.60869 0
M  V30 14302 O 1292.01 -0.316478 1.88157 0
M  V30 14303 C 1289.15 -0.112618 3.44916 0
M  V30 14304 C 1288.26 0.902071 4.22477 0
M  V30 14305 C 1287.39 0.203722 5.30809 0
M  V30 14306 C 1286.43 1.20622 6.00097 0
M  V30 14307 N 1285.57 0.535607 7.00054 0
M  V30 14308 H 1290.41 1.43486 2.61182 0
M  V30 14309 H 1287.95 0.718572 1.28355 0
M  V30 14310 H 1289.9 -0.51865 4.13964 0
M  V30 14311 H 1288.53 -0.952827 3.08417 0
M  V30 14312 H 1287.59 1.42637 3.52645 0
M  V30 14313 H 1288.9 1.66513 4.70186 0
M  V30 14314 H 1288.05 -0.258614 6.06149 0
M  V30 14315 H 1286.79 -0.591773 4.84096 0
M  V30 14316 H 1285.8 1.6791 5.23532 0
M  V30 14317 H 1287.02 2.00273 6.48897 0
M  V30 14318 H 1284.97 -0.2403 6.5556 0
M  V30 14319 H 1284.88 1.23698 7.45812 0
M  V30 14320 H 1286.15 0.0963489 7.7944 0
M  V30 14321 N 1290.38 -1.37203 0.775435 0
M  V30 14322 C 1291.31 -2.27933 0.110444 0
M  V30 14323 C 1292.29 -1.46513 -0.705179 0
M  V30 14324 O 1293.48 -1.7584 -0.679154 0
M  V30 14325 C 1290.6 -3.27868 -0.84971 0
M  V30 14326 C 1289.65 -4.26338 -0.117627 0
M  V30 14327 S 1290.48 -5.21952 1.19691 0
M  V30 14328 C 1291.64 -6.25438 0.240393 0
M  V30 14329 H 1291.87 -2.83985 0.879766 0
M  V30 14330 H 1289.4 -1.43533 0.568996 0
M  V30 14331 H 1291.36 -3.85952 -1.39827 0
M  V30 14332 H 1290.02 -2.70756 -1.59217 0
M  V30 14333 H 1289.22 -4.96855 -0.845639 0
M  V30 14334 H 1288.82 -3.72263 0.360041 0
M  V30 14335 H 1291.11 -6.74962 -0.585867 0
M  V30 14336 H 1292.05 -7.02178 0.913846 0
M  V30 14337 H 1292.46 -5.64301 -0.150043 0
M  V30 14338 N 1291.86 -0.526279 -1.48553 0
M  V30 14339 C 1292.79 0.2857 -2.26404 0
M  V30 14340 C 1293.77 0.948104 -1.32098 0
M  V30 14341 O 1294.95 0.973228 -1.61433 0
M  V30 14342 C 1292.08 1.40432 -3.08215 0
M  V30 14343 C 1291.13 0.853705 -4.17869 0
M  V30 14344 S 1291.96 -0.275518 -5.34791 0
M  V30 14345 C 1293.12 0.845667 -6.20161 0
M  V30 14346 H 1293.35 -0.375004 -2.94925 0
M  V30 14347 H 1290.88 -0.311999 -1.51215 0
M  V30 14348 H 1292.84 2.04513 -3.55928 0
M  V30 14349 H 1291.5 2.03673 -2.39115 0
M  V30 14350 H 1290.69 1.69278 -4.74722 0
M  V30 14351 H 1290.3 0.289659 -3.72877 0
M  V30 14352 H 1292.59 1.74517 -6.54637 0
M  V30 14353 H 1293.53 0.315189 -7.07398 0
M  V30 14354 H 1293.94 1.1244 -5.53188 0
M  V30 14355 N 1293.34 1.5542 -0.261239 0
M  V30 14356 C 1294.59 1.9846 0.360052 0
M  V30 14357 C 1294.9 1.15288 1.58013 0
M  V30 14358 O 1296.11 1.48408 2.27348 0
M  V30 14359 C 1294.56 3.53185 0.691964 0
M  V30 14360 C 1294.17 4.45116 -0.507521 0
M  V30 14361 C 1295.91 4.04848 1.27665 0
M  V30 14362 C 1293.82 5.91207 -0.150966 0
M  V30 14363 H 1292.75 0.741207 0.138303 0
M  V30 14364 H 1295.4 1.79859 -0.363712 0
M  V30 14365 H 1293.78 3.67535 1.47425 0
M  V30 14366 H 1294.96 4.42531 -1.28465 0
M  V30 14367 H 1293.27 4.04013 -1.0081 0
M  V30 14368 H 1295.87 5.11529 1.55699 0
M  V30 14369 H 1296.21 3.5305 2.20593 0
M  V30 14370 H 1296.75 3.93882 0.556955 0
M  V30 14371 H 1293.48 6.47072 -1.04776 0
M  V30 14372 H 1293 5.96894 0.589671 0
M  V30 14373 H 1294.68 6.4647 0.261772 0
M  V30 14374 N 1294.82 -0.0116844 1.57596 0
M  V30 14375 C 1295.76 -1.02514 2.08791 0
M  V30 14376 C 1296.76 -1.36341 1.00536 0
M  V30 14377 O 1297.96 -1.35042 1.19011 0
M  V30 14378 H 1294.34 -0.348201 0.666528 0
M  V30 14379 H 1296.31 -0.567698 2.9295 0
M  V30 14380 C 1295.06 -2.312 2.59696 0
M  V30 14381 H 1294.38 -2.06036 3.42621 0
M  V30 14382 H 1295.82 -3.00417 2.99208 0
M  V30 14383 C 1294.28 -3.01372 1.50586 0
M  V30 14384 O 1294.81 -3.91896 0.882046 0
M  V30 14385 N 1293.02 -2.62997 1.23616 0
M  V30 14386 H 1292.56 -1.89466 1.74529 0
M  V30 14387 H 1292.52 -3.10264 0.508289 0
M  V30 14388 N 1296.29 -1.55015 -0.284256 0
M  V30 14389 C 1297.23 -1.83517 -1.3731 0
M  V30 14390 C 1298.24 -0.719009 -1.46062 0
M  V30 14391 O 1299.43 -0.996719 -1.4808 0
M  V30 14392 C 1296.53 -1.97309 -2.7554 0
M  V30 14393 C 1295.7 -3.2787 -2.89517 0
M  V30 14394 C 1294.76 -3.31868 -4.08351 0
M  V30 14395 O 1293.79 -4.05309 -3.99642 0
M  V30 14396 N 1294.99 -2.5846 -5.19787 0
M  V30 14397 H 1297.75 -2.77495 -1.1321 0
M  V30 14398 H 1295.31 -1.54795 -0.474359 0
M  V30 14399 H 1297.31 -1.97367 -3.53311 0
M  V30 14400 H 1295.88 -1.10249 -2.92513 0
M  V30 14401 H 1295.1 -3.40445 -1.98722 0
M  V30 14402 H 1296.38 -4.13996 -2.95779 0
M  V30 14403 H 1295.78 -1.98455 -5.29747 0
M  V30 14404 H 1294.34 -2.64253 -5.9583 0
M  V30 14405 N 1297.77 0.548248 -1.47757 0
M  V30 14406 C 1298.68 1.68178 -1.63565 0
M  V30 14407 C 1299.7 1.661 -0.518351 0
M  V30 14408 O 1300.87 1.85384 -0.787061 0
M  V30 14409 C 1297.94 3.04673 -1.65454 0
M  V30 14410 C 1297 3.17749 -2.88677 0
M  V30 14411 C 1296.23 4.47733 -2.90466 0
M  V30 14412 O 1296.46 5.33736 -2.01201 0
M  V30 14413 O 1295.39 4.64789 -3.82433 0
M  V30 14414 H 1299.22 1.57781 -2.59497 0
M  V30 14415 H 1296.8 0.719277 -1.30946 0
M  V30 14416 H 1298.68 3.85885 -1.69324 0
M  V30 14417 H 1297.36 3.15433 -0.726912 0
M  V30 14418 H 1296.26 2.359 -2.90348 0
M  V30 14419 H 1297.6 3.11897 -3.80763 0
M  V30 14420 N 1299.25 1.36039 0.795694 0
M  V30 14421 C 1300.5 1.29251 1.54845 0
M  V30 14422 C 1300.81 -0.127926 1.95181 0
M  V30 14423 O 1302.02 -0.318141 2.6963 0
M  V30 14424 C 1300.47 2.26736 2.79497 0
M  V30 14425 C 1300.08 3.74183 2.46355 0
M  V30 14426 C 1301.83 2.28913 3.5749 0
M  V30 14427 C 1299.73 4.63462 3.67365 0
M  V30 14428 H 1298.66 0.48027 0.581255 0
M  V30 14429 H 1301.31 1.61366 0.873693 0
M  V30 14430 H 1299.7 1.87608 3.4874 0
M  V30 14431 H 1300.87 4.22011 1.8505 0
M  V30 14432 H 1299.18 3.7472 1.81586 0
M  V30 14433 H 1301.78 2.92828 4.47388 0
M  V30 14434 H 1302.12 1.2959 3.95616 0
M  V30 14435 H 1302.66 2.66627 2.9522 0
M  V30 14436 H 1299.4 5.63824 3.34339 0
M  V30 14437 H 1298.92 4.20354 4.27858 0
M  V30 14438 H 1300.6 4.79424 4.34467 0
M  V30 14439 N 1300.73 -1.01913 1.20215 0
M  V30 14440 C 1302.14 -1.5692 1.01159 0
M  V30 14441 C 1302.49 -1.91368 -0.432746 0
M  V30 14442 O 1301.62 -1.71959 -1.31374 0
M  V30 14443 C 1302.21 -2.85125 1.83001 0
M  V30 14444 C 1300.77 -3.36669 1.68318 0
M  V30 14445 C 1299.92 -2.10003 1.81091 0
M  V30 14446 H 1302.87 -0.843246 1.34443 0
M  V30 14447 H 1302.89 -3.56428 1.33188 0
M  V30 14448 H 1302.4 -2.60021 2.88116 0
M  V30 14449 H 1300.5 -3.66739 0.658292 0
M  V30 14450 H 1300.61 -4.09042 2.49442 0
M  V30 14451 H 1298.98 -2.22337 1.24252 0
M  V30 14452 H 1299.76 -1.87329 2.87685 0
M  V30 14453 N 1302.21 -1.00763 -1.2118 0
M  V30 14454 C 1303.17 -0.575183 -2.21865 0
M  V30 14455 C 1304.17 0.349871 -1.56948 0
M  V30 14456 O 1305.36 0.139795 -1.73638 0
M  V30 14457 C 1302.49 0.161308 -3.40518 0
M  V30 14458 H 1303.68 -1.46578 -2.61639 0
M  V30 14459 H 1301.24 -0.79643 -1.34487 0
M  V30 14460 H 1301.97 1.06723 -3.06236 0
M  V30 14461 H 1301.76 -0.503101 -3.88859 0
M  V30 14462 H 1303.25 0.451527 -4.15152 0
M  V30 14463 N 1303.68 1.3679 -0.7827 0
M  V30 14464 C 1304.93 1.99417 -0.352011 0
M  V30 14465 C 1305.26 1.62127 1.07448 0
M  V30 14466 O 1304.51 0.864449 1.75573 0
M  V30 14467 C 1304.81 3.54489 -0.455232 0
M  V30 14468 C 1304.48 4.11579 -1.84156 0
M  V30 14469 C 1303.14 4.26884 -2.22089 0
M  V30 14470 C 1305.49 4.4277 -2.74962 0
M  V30 14471 C 1302.82 4.70688 -3.50243 0
M  V30 14472 C 1305.17 4.88003 -4.02537 0
M  V30 14473 C 1303.84 5.01513 -4.40501 0
M  V30 14474 H 1303.11 0.729718 -0.12881 0
M  V30 14475 H 1305.75 1.63386 -0.998856 0
M  V30 14476 H 1304.06 3.90833 0.275129 0
M  V30 14477 H 1305.76 4.00867 -0.103127 0
M  V30 14478 H 1302.35 4.00102 -1.53677 0
M  V30 14479 H 1306.53 4.30521 -2.46912 0
M  V30 14480 H 1301.79 4.79335 -3.79537 0
M  V30 14481 H 1305.96 5.11102 -4.73019 0
M  V30 14482 H 1303.59 5.35214 -5.39861 0
M  V30 14483 N 1305.16 0.53415 1.48272 0
M  V30 14484 C 1306.41 0.00971554 2.03398 0
M  V30 14485 C 1306.76 -1.316 1.40353 0
M  V30 14486 O 1306.06 -1.83786 0.541589 0
M  V30 14487 C 1306.25 -0.165144 3.57018 0
M  V30 14488 C 1306.08 1.14208 4.34956 0
M  V30 14489 C 1304.85 1.70309 4.75734 0
M  V30 14490 C 1307.05 2.05371 4.71516 0
M  V30 14491 N 1305.03 2.95276 5.38224 0
M  V30 14492 C 1306.4 3.14915 5.34068 0
M  V30 14493 C 1308.46 2.05647 4.53447 0
M  V30 14494 C 1307.16 4.24804 5.8046 0
M  V30 14495 C 1309.18 3.14533 5.00823 0
M  V30 14496 C 1308.55 4.22795 5.63404 0
M  V30 14497 H 1304.65 0.0451562 0.780695 0
M  V30 14498 H 1307.23 0.71635 1.81043 0
M  V30 14499 H 1305.4 -0.840869 3.79189 0
M  V30 14500 H 1307.13 -0.68956 3.98782 0
M  V30 14501 H 1303.89 1.24395 4.56971 0
M  V30 14502 H 1304.31 3.58911 5.74031 0
M  V30 14503 H 1308.95 1.23239 4.0444 0
M  V30 14504 H 1306.67 5.07987 6.2847 0
M  V30 14505 H 1310.26 3.15806 4.88629 0
M  V30 14506 H 1309.14 5.05661 5.99397 0
M  V30 14507 N 1306.64 -1.55279 0.269478 0
M  V30 14508 C 1307.59 -2.23723 -0.636468 0
M  V30 14509 C 1308.58 -1.23234 -1.16232 0
M  V30 14510 O 1309.79 -1.41181 -1.1166 0
M  V30 14511 H 1306.16 -0.71793 -0.223788 0
M  V30 14512 H 1308.13 -2.98378 -0.0363057 0
M  V30 14513 C 1306.88 -2.96755 -1.81195 0
M  V30 14514 H 1306.21 -3.73865 -1.4165 0
M  V30 14515 H 1307.65 -3.47975 -2.42258 0
M  V30 14516 C 1306.11 -2.01905 -2.69696 0
M  V30 14517 O 1306.64 -1.56662 -3.69892 0
M  V30 14518 N 1304.84 -1.68524 -2.36744 0
M  V30 14519 H 1304.39 -2.05512 -1.55314 0
M  V30 14520 H 1304.35 -1.05331 -2.96231 0
M  V30 14521 N 1308.12 0.00332656 -1.576 0
M  V30 14522 C 1309.03 1.01221 -2.1164 0
M  V30 14523 C 1310.04 1.37918 -1.06088 0
M  V30 14524 O 1311.22 1.46717 -1.37971 0
M  V30 14525 C 1308.29 2.28638 -2.60626 0
M  V30 14526 C 1307.35 1.98284 -3.80765 0
M  V30 14527 C 1306.58 3.19626 -4.27405 0
M  V30 14528 O 1306.8 4.31196 -3.73398 0
M  V30 14529 O 1305.74 3.03819 -5.19594 0
M  V30 14530 H 1309.56 0.582839 -2.98055 0
M  V30 14531 H 1307.15 0.221947 -1.47742 0
M  V30 14532 H 1309.03 3.03498 -2.92347 0
M  V30 14533 H 1307.7 2.70819 -1.7731 0
M  V30 14534 H 1306.61 1.2091 -3.54022 0
M  V30 14535 H 1307.94 1.60942 -4.65144 0
M  V30 14536 N 1309.6 1.55164 0.276031 0
M  V30 14537 C 1310.82 1.7998 1.03063 0
M  V30 14538 C 1311.25 0.569769 1.79263 0
M  V30 14539 O 1310.6 -0.48054 1.74816 0
M  V30 14540 C 1310.65 3.02209 1.96728 0
M  V30 14541 O 1309.76 2.77083 3.05449 0
M  V30 14542 H 1309.1 0.594963 0.294814 0
M  V30 14543 H 1311.63 2.02301 0.305861 0
M  V30 14544 H 1311.64 3.3086 2.38738 0
M  V30 14545 H 1310.31 3.91386 1.40677 0
M  V30 14546 H 1308.89 2.5952 2.67776 0
M  V30 14547 N 1311.07 -0.540404 1.48045 0
M  V30 14548 C 1312.3 -1.32656 1.59427 0
M  V30 14549 C 1312.72 -1.86419 0.250924 0
M  V30 14550 O 1312.08 -1.63861 -0.775838 0
M  V30 14551 C 1312.13 -2.46062 2.63602 0
M  V30 14552 O 1311.23 -3.48794 2.20038 0
M  V30 14553 H 1310.58 -0.393334 0.534962 0
M  V30 14554 H 1313.11 -0.651363 1.93955 0
M  V30 14555 H 1313.12 -2.92396 2.84549 0
M  V30 14556 H 1311.79 -2.06291 3.61133 0
M  V30 14557 H 1310.37 -3.0865 2.0926 0
M  V30 14558 N 1312.55 -1.36459 -0.788468 0
M  V30 14559 C 1313.5 -1.30863 -1.90115 0
M  V30 14560 C 1314.47 -0.177148 -1.65153 0
M  V30 14561 O 1315.65 -0.363817 -1.87299 0
M  V30 14562 C 1312.79 -1.10473 -3.2694 0
M  V30 14563 C 1311.91 -2.32704 -3.63968 0
M  V30 14564 C 1311.04 -2.05319 -4.89916 0
M  V30 14565 C 1310.08 -3.23506 -5.19625 0
M  V30 14566 N 1309.22 -2.9578 -6.36756 0
M  V30 14567 H 1314.06 -2.26003 -1.94233 0
M  V30 14568 H 1311.6 -1.12324 -0.949827 0
M  V30 14569 H 1313.55 -0.966773 -4.05844 0
M  V30 14570 H 1312.18 -0.189873 -3.22241 0
M  V30 14571 H 1311.24 -2.573 -2.8018 0
M  V30 14572 H 1312.55 -3.20899 -3.81871 0
M  V30 14573 H 1311.7 -1.88459 -5.76687 0
M  V30 14574 H 1310.44 -1.14437 -4.74084 0
M  V30 14575 H 1309.45 -3.40924 -4.31336 0
M  V30 14576 H 1310.67 -4.15216 -5.37376 0
M  V30 14577 H 1308.62 -2.0751 -6.22315 0
M  V30 14578 H 1308.53 -3.77513 -6.54996 0
M  V30 14579 H 1309.8 -2.825 -7.26508 0
M  V30 14580 N 1314.03 1.01274 -1.20754 0
M  V30 14581 C 1315.28 1.74932 -1.02005 0
M  V30 14582 C 1315.61 1.89285 0.447372 0
M  V30 14583 O 1314.86 1.41838 1.34835 0
M  V30 14584 C 1315.16 3.16862 -1.65329 0
M  V30 14585 C 1314.83 3.22476 -3.15151 0
M  V30 14586 C 1313.49 3.23715 -3.56036 0
M  V30 14587 C 1315.84 3.20332 -4.11141 0
M  V30 14588 C 1313.17 3.20487 -4.91431 0
M  V30 14589 C 1315.52 3.18646 -5.46487 0
M  V30 14590 C 1314.18 3.18191 -5.8678 0
M  V30 14591 H 1313.45 0.640121 -0.373264 0
M  V30 14592 H 1316.1 1.18751 -1.50234 0
M  V30 14593 H 1314.41 3.76225 -1.09372 0
M  V30 14594 H 1316.1 3.72556 -1.48333 0
M  V30 14595 H 1312.69 3.22249 -2.82584 0
M  V30 14596 H 1316.88 3.18541 -3.80585 0
M  V30 14597 H 1312.13 3.18468 -5.21908 0
M  V30 14598 H 1316.31 3.1594 -6.20609 0
M  V30 14599 H 1313.93 3.15443 -6.91664 0
M  V30 14600 N 1315.51 1.01404 1.20644 0
M  V30 14601 C 1316.76 0.697244 1.89265 0
M  V30 14602 C 1317.07 -0.776149 1.79542 0
M  V30 14603 O 1318.28 -1.2054 2.43274 0
M  V30 14604 C 1316.73 1.19672 3.39421 0
M  V30 14605 C 1316.34 2.69683 3.57736 0
M  V30 14606 C 1318.09 0.955225 4.13613 0
M  V30 14607 C 1315.99 3.13124 5.01704 0
M  V30 14608 H 1314.92 0.257105 0.708811 0
M  V30 14609 H 1317.57 1.22639 1.36499 0
M  V30 14610 H 1315.96 0.595562 3.91496 0
M  V30 14611 H 1317.13 3.35326 3.16059 0
M  V30 14612 H 1315.44 2.91946 2.96911 0
M  V30 14613 H 1318.04 1.25524 5.19757 0
M  V30 14614 H 1318.38 -0.108362 4.16159 0
M  V30 14615 H 1318.92 1.51962 3.67631 0
M  V30 14616 H 1315.66 4.18748 5.04311 0
M  V30 14617 H 1315.18 2.522 5.44201 0
M  V30 14618 H 1316.86 3.05617 5.70269 0
M  V30 14619 N 1316.99 -1.36373 0.789944 0
M  V30 14620 C 1317.92 -2.32616 0.202944 0
M  V30 14621 C 1318.9 -1.56674 -0.662364 0
M  V30 14622 O 1320.08 -1.84826 -0.596078 0
M  V30 14623 C 1317.21 -3.4092 -0.662646 0
M  V30 14624 C 1316.17 -4.27877 0.102811 0
M  V30 14625 C 1315.49 -5.27352 -0.883407 0
M  V30 14626 C 1316.79 -5.0606 1.29231 0
M  V30 14627 H 1318.49 -2.81958 1.00699 0
M  V30 14628 H 1316.03 -1.35562 0.48568 0
M  V30 14629 H 1317.99 -4.07239 -1.08324 0
M  V30 14630 H 1316.71 -2.90147 -1.4994 0
M  V30 14631 H 1315.37 -3.63114 0.504389 0
M  V30 14632 H 1315.02 -4.72853 -1.71521 0
M  V30 14633 H 1314.72 -5.86398 -0.375669 0
M  V30 14634 H 1316.24 -5.96545 -1.30256 0
M  V30 14635 H 1317.66 -5.65417 0.947446 0
M  V30 14636 H 1316.05 -5.74521 1.73338 0
M  V30 14637 H 1317.12 -4.37671 2.08739 0
M  V30 14638 N 1318.47 -0.542005 -1.47987 0
M  V30 14639 C 1319.71 -0.010246 -2.01697 0
M  V30 14640 C 1320.03 1.34173 -1.42327 0
M  V30 14641 O 1321.23 1.96254 -1.87607 0
M  V30 14642 C 1319.69 0.0321032 -3.59886 0
M  V30 14643 C 1319.3 -1.31571 -4.28244 0
M  V30 14644 C 1321.04 0.512056 -4.214 0
M  V30 14645 C 1318.95 -1.23329 -5.78398 0
M  V30 14646 H 1317.88 -6.02097e-05 -0.754 0
M  V30 14647 H 1320.53 -0.687586 -1.70131 0
M  V30 14648 H 1318.91 0.774774 -3.88347 0
M  V30 14649 H 1320.09 -2.07489 -4.11442 0
M  V30 14650 H 1318.4 -1.73237 -3.78653 0
M  V30 14651 H 1321 0.591875 -5.31414 0
M  V30 14652 H 1321.34 1.52061 -3.87535 0
M  V30 14653 H 1321.87 -0.175293 -3.97414 0
M  V30 14654 H 1318.61 -2.21737 -6.16857 0
M  V30 14655 H 1318.13 -0.51567 -5.97579 0
M  V30 14656 H 1319.81 -0.928975 -6.40296 0
M  V30 14657 N 1319.94 1.55134 -0.277709 0
M  V30 14658 C 1321.17 2.04519 0.344472 0
M  V30 14659 C 1321.59 1.15466 1.4849 0
M  V30 14660 O 1320.95 0.153798 1.80646 0
M  V30 14661 C 1321 3.51602 0.800527 0
M  V30 14662 O 1320.1 3.65632 1.90754 0
M  V30 14663 H 1319.44 0.660212 0.0708226 0
M  V30 14664 H 1321.97 2.00393 -0.412764 0
M  V30 14665 H 1321.98 3.93015 1.09559 0
M  V30 14666 H 1320.66 4.15886 -0.033838 0
M  V30 14667 H 1319.24 3.36122 1.61481 0
M  V30 14668 N 1321.42 0.00503138 1.57599 0
M  V30 14669 C 1322.37 -0.984754 2.08737 0
M  V30 14670 C 1323.34 -1.33822 0.983915 0
M  V30 14671 O 1324.52 -1.43572 1.25665 0
M  V30 14672 C 1321.66 -2.26984 2.59946 0
M  V30 14673 C 1320.78 -1.97496 3.84212 0
M  V30 14674 C 1319.91 -3.20123 4.23904 0
M  V30 14675 C 1318.95 -2.86344 5.40993 0
M  V30 14676 N 1318.09 -4.01524 5.75954 0
M  V30 14677 H 1322.93 -0.541737 2.93034 0
M  V30 14678 H 1320.46 -0.255834 1.44858 0
M  V30 14679 H 1322.42 -3.02117 2.87717 0
M  V30 14680 H 1321.05 -2.68946 1.78516 0
M  V30 14681 H 1320.1 -1.12709 3.63319 0
M  V30 14682 H 1321.42 -1.68602 4.69441 0
M  V30 14683 H 1320.57 -4.03598 4.52983 0
M  V30 14684 H 1319.31 -3.5216 3.37394 0
M  V30 14685 H 1318.31 -2.01278 5.11632 0
M  V30 14686 H 1319.54 -2.5555 6.29183 0
M  V30 14687 H 1317.49 -4.33447 4.92402 0
M  V30 14688 H 1317.4 -3.76171 6.55768 0
M  V30 14689 H 1318.67 -4.85772 6.09628 0
M  V30 14690 N 1322.9 -1.55308 -0.267798 0
M  V30 14691 C 1324.15 -1.7642 -1.00019 0
M  V30 14692 C 1324.48 -0.566559 -1.85752 0
M  V30 14693 O 1323.75 0.435752 -1.89556 0
M  V30 14694 C 1324.04 -3.07229 -1.87836 0
M  V30 14695 C 1323.89 -4.37358 -1.05061 0
M  V30 14696 C 1325.21 -3.34113 -2.86455 0
M  V30 14697 H 1322.33 -0.641859 -0.362197 0
M  V30 14698 H 1324.97 -1.8804 -0.272188 0
M  V30 14699 H 1323.12 -2.97454 -2.49907 0
M  V30 14700 H 1324.79 -4.59098 -0.450208 0
M  V30 14701 H 1323.03 -4.32351 -0.354242 0
M  V30 14702 H 1323.71 -5.25223 -1.69838 0
M  V30 14703 H 1326.18 -3.43715 -2.34519 0
M  V30 14704 H 1325.06 -4.26896 -3.45038 0
M  V30 14705 H 1325.32 -2.54005 -3.61848 0
M  V30 14706 N 1324.38 0.532545 -1.4833 0
M  V30 14707 C 1325.33 1.65832 -1.63103 0
M  V30 14708 C 1326.32 1.61929 -0.497538 0
M  V30 14709 O 1327.53 1.66817 -0.676176 0
M  V30 14710 H 1323.9 0.549152 -0.513748 0
M  V30 14711 H 1325.87 1.50515 -2.57658 0
M  V30 14712 C 1324.62 3.04113 -1.68555 0
M  V30 14713 H 1323.94 3.07809 -2.55135 0
M  V30 14714 H 1325.38 3.82506 -1.82936 0
M  V30 14715 C 1323.84 3.34225 -0.423711 0
M  V30 14716 O 1324.37 3.99005 0.464523 0
M  V30 14717 N 1322.58 2.89087 -0.296192 0
M  V30 14718 H 1322.13 2.36547 -1.01997 0
M  V30 14719 H 1322.08 3.09604 0.547082 0
M  V30 14720 N 1325.86 1.36875 0.78122 0
M  V30 14721 C 1327.27 1.28236 1.35692 0
M  V30 14722 C 1327.62 -0.0742286 1.9606 0
M  V30 14723 O 1326.74 -0.97588 1.93146 0
M  V30 14724 C 1327.34 2.32215 2.46702 0
M  V30 14725 C 1325.9 2.2724 3.00065 0
M  V30 14726 C 1325.04 2.16553 1.73206 0
M  V30 14727 H 1327.99 1.47634 0.582217 0
M  V30 14728 H 1328.02 1.96333 3.25935 0
M  V30 14729 H 1327.53 3.30938 2.02735 0
M  V30 14730 H 1325.63 1.3201 3.48431 0
M  V30 14731 H 1325.74 3.20267 3.56323 0
M  V30 14732 H 1324.11 1.62941 1.95761 0
M  V30 14733 H 1324.89 3.17176 1.31356 0
M  V30 14734 N 1327.33 -1.00632 1.21289 0
M  V30 14735 C 1328.56 -1.77967 1.05524 0
M  V30 14736 C 1328.98 -1.84621 -0.395023 0
M  V30 14737 O 1328.33 -1.30664 -1.27409 0
M  V30 14738 C 1328.38 -3.21939 1.64432 0
M  V30 14739 O 1328.11 -3.15669 3.03784 0
M  V30 14740 C 1329.61 -4.1578 1.5376 0
M  V30 14741 H 1326.83 -0.559341 0.370646 0
M  V30 14742 H 1329.37 -1.26604 1.60598 0
M  V30 14743 H 1327.53 -3.70415 1.13453 0
M  V30 14744 H 1327.94 -4.06112 3.31924 0
M  V30 14745 H 1329.41 -5.14602 1.99722 0
M  V30 14746 H 1329.89 -4.36438 0.491811 0
M  V30 14747 H 1330.5 -3.73192 2.0398 0
M  V30 14748 N 1328.81 -1.02043 -1.20104 0
M  V30 14749 C 1330.04 -0.731315 -1.93544 0
M  V30 14750 C 1330.45 0.708582 -1.74999 0
M  V30 14751 O 1329.81 1.481 -1.06642 0
M  V30 14752 C 1329.86 -1.06233 -3.45538 0
M  V30 14753 O 1329.58 -2.44568 -3.63481 0
M  V30 14754 C 1331.08 -0.794818 -4.36116 0
M  V30 14755 H 1328.3 -0.268248 -0.615048 0
M  V30 14756 H 1330.85 -1.36264 -1.52488 0
M  V30 14757 H 1329 -0.476341 -3.8446 0
M  V30 14758 H 1329.42 -2.5663 -4.57429 0
M  V30 14759 H 1330.89 -1.07647 -5.41402 0
M  V30 14760 H 1331.37 0.270944 -4.38363 0
M  V30 14761 H 1331.97 -1.36314 -4.02863 0
M  V30 14762 N 1330.29 1.35952 -0.797165 0
M  V30 14763 C 1331.22 2.32506 -0.215277 0
M  V30 14764 C 1332.2 1.57023 0.654046 0
M  V30 14765 O 1333.39 1.85139 0.586268 0
M  V30 14766 C 1330.52 3.41266 0.644557 0
M  V30 14767 C 1329.47 4.27816 -0.125501 0
M  V30 14768 C 1328.8 5.27813 0.855428 0
M  V30 14769 C 1330.1 5.05367 -1.31913 0
M  V30 14770 H 1331.79 2.8142 -1.02193 0
M  V30 14771 H 1329.34 1.35303 -0.492862 0
M  V30 14772 H 1331.29 4.07808 1.06163 0
M  V30 14773 H 1330.01 2.90938 1.484 0
M  V30 14774 H 1328.67 3.62841 -0.523639 0
M  V30 14775 H 1328.32 4.73755 1.69011 0
M  V30 14776 H 1328.02 5.86589 0.344566 0
M  V30 14777 H 1329.54 5.97227 1.2709 0
M  V30 14778 H 1330.96 5.64907 -0.977418 0
M  V30 14779 H 1329.36 5.73593 -1.76382 0
M  V30 14780 H 1330.43 4.36558 -2.11057 0
M  V30 14781 N 1331.77 0.549846 1.47697 0
M  V30 14782 C 1332.7 -0.239345 2.27947 0
M  V30 14783 C 1333.71 -0.886206 1.36566 0
M  V30 14784 O 1334.9 -0.761298 1.61451 0
M  V30 14785 C 1332 -1.35591 3.10593 0
M  V30 14786 C 1331.18 -0.807234 4.29887 0
M  V30 14787 C 1330.23 -1.80738 4.94187 0
M  V30 14788 O 1329.26 -1.35641 5.52802 0
M  V30 14789 N 1330.46 -3.14046 4.88216 0
M  V30 14790 H 1333.23 0.449001 2.96318 0
M  V30 14791 H 1330.79 0.385443 1.57245 0
M  V30 14792 H 1332.78 -2.02356 3.50477 0
M  V30 14793 H 1331.35 -1.94761 2.44514 0
M  V30 14794 H 1330.57 0.0369877 3.94183 0
M  V30 14795 H 1331.86 -0.419877 5.07065 0
M  V30 14796 H 1331.26 -3.53335 4.41781 0
M  V30 14797 H 1329.81 -3.7639 5.32141 0
M  V30 14798 N 1333.25 -1.54984 0.285932 0
M  V30 14799 C 1334.19 -2.24385 -0.612703 0
M  V30 14800 C 1335.19 -1.24459 -1.14918 0
M  V30 14801 O 1336.39 -1.42357 -1.10156 0
M  V30 14802 H 1332.77 -0.720263 -0.21616 0
M  V30 14803 H 1334.74 -2.984 -0.00465668 0
M  V30 14804 C 1333.49 -2.98661 -1.78037 0
M  V30 14805 H 1332.81 -3.75347 -1.37676 0
M  V30 14806 H 1334.25 -3.50525 -2.38554 0
M  V30 14807 C 1332.71 -2.04754 -2.67539 0
M  V30 14808 O 1333.24 -1.60577 -3.68209 0
M  V30 14809 N 1331.45 -1.71026 -2.34944 0
M  V30 14810 H 1330.99 -2.07148 -1.53126 0
M  V30 14811 H 1330.95 -1.08467 -2.95097 0
M  V30 14812 N 1334.72 -0.0133892 -1.57594 0
M  V30 14813 C 1335.65 0.972341 -2.12292 0
M  V30 14814 C 1336.64 1.34971 -1.03522 0
M  V30 14815 O 1337.82 1.4311 -1.31275 0
M  V30 14816 C 1334.95 2.25988 -2.63717 0
M  V30 14817 C 1333.9 2.02373 -3.77133 0
M  V30 14818 C 1333.23 3.37256 -4.14925 0
M  V30 14819 C 1334.53 1.37553 -5.03861 0
M  V30 14820 H 1336.22 0.516869 -2.94905 0
M  V30 14821 H 1333.77 0.247176 -1.41863 0
M  V30 14822 H 1335.72 2.95313 -3.00613 0
M  V30 14823 H 1334.45 2.73672 -1.78244 0
M  V30 14824 H 1333.11 1.3547 -3.40651 0
M  V30 14825 H 1332.75 3.82669 -3.26456 0
M  V30 14826 H 1332.45 3.22267 -4.91343 0
M  V30 14827 H 1333.98 4.07875 -4.5439 0
M  V30 14828 H 1335.39 1.96855 -5.38443 0
M  V30 14829 H 1333.79 1.33011 -5.85174 0
M  V30 14830 H 1334.86 0.346429 -4.83661 0
M  V30 14831 N 1336.2 1.55448 0.259558 0
M  V30 14832 C 1337.17 1.88459 1.30445 0
M  V30 14833 C 1338.17 0.760096 1.41701 0
M  V30 14834 O 1339.36 1.02819 1.4062 0
M  V30 14835 C 1336.49 2.10181 2.68397 0
M  V30 14836 H 1337.68 2.81877 1.02398 0
M  V30 14837 H 1335.23 1.48145 0.498262 0
M  V30 14838 H 1335.97 1.19189 3.01603 0
M  V30 14839 H 1335.75 2.92066 2.6161 0
M  V30 14840 H 1337.24 2.36947 3.43869 0
M  V30 14841 N 1337.68 -0.524672 1.4861 0
M  V30 14842 C 1338.61 -1.63782 1.66426 0
M  V30 14843 C 1339.59 -1.62177 0.513077 0
M  V30 14844 O 1340.78 -1.7929 0.74623 0
M  V30 14845 C 1337.91 -3.02354 1.70877 0
M  V30 14846 C 1336.86 -3.18819 2.85549 0
M  V30 14847 C 1336.19 -4.58506 2.75094 0
M  V30 14848 C 1337.49 -3.01086 4.26784 0
M  V30 14849 H 1339.18 -1.49127 2.59618 0
M  V30 14850 H 1336.73 -0.715997 1.24938 0
M  V30 14851 H 1338.68 -3.80105 1.81929 0
M  V30 14852 H 1337.4 -3.18044 0.742682 0
M  V30 14853 H 1336.06 -2.43487 2.74061 0
M  V30 14854 H 1335.71 -4.71038 1.76443 0
M  V30 14855 H 1335.41 -4.70466 3.52044 0
M  V30 14856 H 1336.93 -5.38348 2.88121 0
M  V30 14857 H 1338.35 -3.68624 4.39077 0
M  V30 14858 H 1336.75 -3.24536 5.04774 0
M  V30 14859 H 1337.82 -1.97454 4.42877 0
M  V30 14860 N 1339.16 -1.37287 -0.77395 0
M  V30 14861 C 1340.11 -1.32872 -1.88716 0
M  V30 14862 C 1341.08 -0.194655 -1.64955 0
M  V30 14863 O 1342.26 -0.383662 -1.86903 0
M  V30 14864 C 1339.4 -1.13934 -3.2575 0
M  V30 14865 C 1338.51 -2.36552 -3.61479 0
M  V30 14866 C 1337.65 -2.10504 -4.87711 0
M  V30 14867 C 1336.69 -3.28999 -5.16165 0
M  V30 14868 N 1335.82 -3.02517 -6.33584 0
M  V30 14869 H 1340.66 -2.28051 -1.91825 0
M  V30 14870 H 1338.2 -1.13325 -0.93786 0
M  V30 14871 H 1340.16 -1.00976 -4.04796 0
M  V30 14872 H 1338.79 -0.22404 -3.22022 0
M  V30 14873 H 1337.84 -2.60257 -2.77435 0
M  V30 14874 H 1339.15 -3.24931 -3.78446 0
M  V30 14875 H 1338.31 -1.94564 -5.74656 0
M  V30 14876 H 1337.05 -1.19459 -4.72843 0
M  V30 14877 H 1336.05 -3.4548 -4.27696 0
M  V30 14878 H 1337.28 -4.20892 -5.32942 0
M  V30 14879 H 1335.22 -2.14099 -6.20079 0
M  V30 14880 H 1335.14 -3.84439 -6.50955 0
M  V30 14881 H 1336.41 -2.9019 -7.23471 0
M  V30 14882 N 1340.64 0.999871 -1.21821 0
M  V30 14883 C 1341.57 2.10708 -1.00621 0
M  V30 14884 C 1342.55 1.69954 0.0705417 0
M  V30 14885 O 1343.73 1.9399 -0.0903042 0
M  V30 14886 C 1340.86 3.42496 -0.575646 0
M  V30 14887 C 1339.82 3.97068 -1.59754 0
M  V30 14888 C 1339.14 5.24822 -1.02304 0
M  V30 14889 C 1340.44 4.28545 -2.98574 0
M  V30 14890 H 1342.14 2.28701 -1.93226 0
M  V30 14891 H 1339.68 1.09903 -0.930443 0
M  V30 14892 H 1341.64 4.19357 -0.414481 0
M  V30 14893 H 1340.36 3.2431 0.386059 0
M  V30 14894 H 1339.02 3.22332 -1.74636 0
M  V30 14895 H 1338.67 5.02972 -0.0529016 0
M  V30 14896 H 1338.37 5.62299 -1.70567 0
M  V30 14897 H 1339.89 6.04322 -0.873312 0
M  V30 14898 H 1341.3 4.96229 -2.87106 0
M  V30 14899 H 1339.7 4.77178 -3.63897 0
M  V30 14900 H 1340.77 3.36607 -3.49032 0
M  V30 14901 N 1342.11 1.02678 1.19562 0
M  V30 14902 C 1343.08 0.610407 2.20922 0
M  V30 14903 C 1344.08 -0.324858 1.57484 0
M  V30 14904 O 1345.27 -0.112153 1.73839 0
M  V30 14905 C 1342.4 -0.107115 3.40732 0
M  V30 14906 H 1343.59 1.50722 2.59274 0
M  V30 14907 H 1341.15 0.817725 1.33203 0
M  V30 14908 H 1341.88 -1.01837 3.07896 0
M  V30 14909 H 1341.67 0.564901 3.88009 0
M  V30 14910 H 1343.16 -0.385423 4.15818 0
M  V30 14911 N 1343.59 -1.35528 0.804364 0
M  V30 14912 C 1344.5 -2.33616 0.214663 0
M  V30 14913 C 1345.52 -1.61757 -0.64115 0
M  V30 14914 O 1346.69 -1.93647 -0.553424 0
M  V30 14915 C 1343.76 -3.40951 -0.628778 0
M  V30 14916 C 1342.82 -4.28587 0.247269 0
M  V30 14917 C 1342.05 -5.30796 -0.556012 0
M  V30 14918 O 1342.28 -5.41557 -1.79088 0
M  V30 14919 O 1341.21 -6.01878 0.0519437 0
M  V30 14920 H 1345.04 -2.85843 1.02605 0
M  V30 14921 H 1342.62 -1.38259 0.566108 0
M  V30 14922 H 1344.5 -4.06538 -1.10926 0
M  V30 14923 H 1343.18 -2.90999 -1.4178 0
M  V30 14924 H 1342.09 -3.65988 0.774835 0
M  V30 14925 H 1343.42 -4.81931 1.00017 0
M  V30 14926 N 1345.07 -0.557671 -1.47404 0
M  V30 14927 C 1346.02 0.202834 -2.31714 0
M  V30 14928 C 1347.01 0.908873 -1.42954 0
M  V30 14929 O 1348.22 0.830106 -1.59716 0
M  V30 14930 H 1344.59 0.0842824 -0.747262 0
M  V30 14931 H 1346.57 -0.527431 -2.93702 0
M  V30 14932 C 1345.31 1.21937 -3.25617 0
M  V30 14933 H 1344.64 0.685506 -3.93879 0
M  V30 14934 H 1346.08 1.72237 -3.87441 0
M  V30 14935 C 1344.54 2.26748 -2.49173 0
M  V30 14936 O 1345.07 3.33681 -2.23651 0
M  V30 14937 N 1343.27 2.00687 -2.10174 0
M  V30 14938 H 1342.82 1.13741 -2.3113 0
M  V30 14939 H 1342.78 2.71031 -1.59342 0
M  V30 14940 N 1346.55 1.54831 -0.294147 0
M  V30 14941 C 1347.8 2.00298 0.317605 0
M  V30 14942 C 1348.13 1.18228 1.54064 0
M  V30 14943 O 1347.4 0.257034 1.92794 0
M  V30 14944 C 1347.69 3.53602 0.680991 0
M  V30 14945 C 1347.54 4.46416 -0.550711 0
M  V30 14946 C 1348.86 4.13379 1.51016 0
M  V30 14947 H 1345.98 0.728135 0.113965 0
M  V30 14948 H 1348.62 1.85636 -0.404883 0
M  V30 14949 H 1346.77 3.66227 1.29654 0
M  V30 14950 H 1348.44 4.45707 -1.18922 0
M  V30 14951 H 1346.68 4.17294 -1.18524 0
M  V30 14952 H 1347.36 5.51423 -0.252412 0
M  V30 14953 H 1349.83 4.04148 0.99012 0
M  V30 14954 H 1348.71 5.20818 1.73321 0
M  V30 14955 H 1348.97 3.64817 2.49722 0
M  V30 14956 N 1348.03 0.0217466 1.57585 0
M  V30 14957 C 1348.98 -0.980624 2.10918 0
M  V30 14958 C 1349.97 -1.34178 1.03406 0
M  V30 14959 O 1351.18 -1.32487 1.21849 0
M  V30 14960 H 1347.55 -0.333984 0.673764 0
M  V30 14961 H 1349.52 -0.505431 2.94088 0
M  V30 14962 C 1348.27 -2.25639 2.64542 0
M  V30 14963 H 1347.59 -1.98722 3.46914 0
M  V30 14964 H 1349.03 -2.94003 3.05513 0
M  V30 14965 C 1347.49 -2.98111 1.56945 0
M  V30 14966 O 1348.02 -3.89937 0.964975 0
M  V30 14967 N 1346.23 -2.60316 1.29166 0
M  V30 14968 H 1345.78 -1.85722 1.78508 0
M  V30 14969 H 1345.73 -3.09116 0.573987 0
M  V30 14970 N 1349.51 -1.55583 -0.251311 0
M  V30 14971 C 1350.42 -1.93073 -1.33266 0
M  V30 14972 C 1351.43 -0.830612 -1.52895 0
M  V30 14973 O 1352.61 -1.13162 -1.66602 0
M  V30 14974 C 1349.67 -2.21396 -2.66805 0
M  V30 14975 C 1348.73 -3.44815 -2.55737 0
M  V30 14976 C 1347.97 -3.71777 -3.82907 0
M  V30 14977 O 1348.19 -3.00884 -4.84587 0
M  V30 14978 O 1347.12 -4.65305 -3.81805 0
M  V30 14979 H 1350.95 -2.85168 -1.04465 0
M  V30 14980 H 1348.53 -1.42408 -0.451693 0
M  V30 14981 H 1350.42 -2.4094 -3.45725 0
M  V30 14982 H 1349.09 -1.3248 -2.95348 0
M  V30 14983 H 1348 -3.30582 -1.75118 0
M  V30 14984 H 1349.33 -4.34019 -2.32139 0
M  V30 14985 N 1350.98 0.516783 -1.48886 0
M  V30 14986 C 1352.23 1.27375 -1.57808 0
M  V30 14987 C 1352.56 1.92492 -0.256963 0
M  V30 14988 O 1351.84 1.79947 0.738193 0
M  V30 14989 C 1352.12 2.35295 -2.72595 0
M  V30 14990 C 1351.97 1.74783 -4.14453 0
M  V30 14991 C 1353.29 3.36973 -2.83085 0
M  V30 14992 H 1350.41 0.46175 -0.574418 0
M  V30 14993 H 1353.05 0.57434 -1.81111 0
M  V30 14994 H 1351.2 2.94951 -2.52857 0
M  V30 14995 H 1352.88 1.19076 -4.45666 0
M  V30 14996 H 1351.12 1.05258 -4.20836 0
M  V30 14997 H 1351.79 2.52985 -4.90615 0
M  V30 14998 H 1354.27 2.87289 -3.01005 0
M  V30 14999 H 1353.14 4.09864 -3.65106 0
M  V30 15000 H 1353.4 3.98336 -1.91784 0
M  V30 15001 N 1352.46 1.37696 0.766659 0
M  V30 15002 C 1353.39 1.28241 1.88758 0
M  V30 15003 C 1354.37 0.161948 1.61791 0
M  V30 15004 O 1355.56 0.337034 1.85462 0
M  V30 15005 C 1352.68 0.983972 3.24092 0
M  V30 15006 C 1351.73 2.12202 3.69963 0
M  V30 15007 S 1352.56 3.74225 3.83035 0
M  V30 15008 C 1353.72 3.46542 5.2121 0
M  V30 15009 H 1353.95 2.23113 1.96489 0
M  V30 15010 H 1351.48 1.23378 0.92829 0
M  V30 15011 H 1353.44 0.818612 4.02255 0
M  V30 15012 H 1352.1 0.0526544 3.14056 0
M  V30 15013 H 1351.3 1.86834 4.68091 0
M  V30 15014 H 1350.9 2.24778 2.98916 0
M  V30 15015 H 1353.19 3.01845 6.06544 0
M  V30 15016 H 1354.13 4.44016 5.51593 0
M  V30 15017 H 1354.54 2.81353 4.89388 0
M  V30 15018 N 1353.94 -0.993397 1.22349 0
M  V30 15019 C 1354.85 -2.11771 1.00947 0
M  V30 15020 C 1355.87 -1.73949 -0.0420679 0
M  V30 15021 O 1357.04 -2.00837 0.150548 0
M  V30 15022 C 1354.11 -3.41654 0.589359 0
M  V30 15023 C 1353.17 -3.93579 1.71446 0
M  V30 15024 C 1352.4 -5.17264 1.3143 0
M  V30 15025 O 1352.62 -5.70074 0.192876 0
M  V30 15026 O 1351.56 -5.62929 2.13059 0
M  V30 15027 H 1355.38 -2.32708 1.95142 0
M  V30 15028 H 1352.97 -1.10144 1.00939 0
M  V30 15029 H 1354.85 -4.19813 0.365403 0
M  V30 15030 H 1353.53 -3.22077 -0.323738 0
M  V30 15031 H 1352.43 -3.16596 1.99294 0
M  V30 15032 H 1353.77 -4.17588 2.6054 0
M  V30 15033 N 1355.42 -1.03311 -1.19015 0
M  V30 15034 C 1356.35 -0.575655 -2.21853 0
M  V30 15035 C 1357.36 0.350705 -1.58978 0
M  V30 15036 O 1358.55 0.146425 -1.77898 0
M  V30 15037 C 1355.65 0.179949 -3.38422 0
M  V30 15038 C 1354.82 -0.752403 -4.3088 0
M  V30 15039 C 1353.88 -0.0414484 -5.26184 0
M  V30 15040 O 1352.91 -0.669403 -5.6525 0
M  V30 15041 N 1354.11 1.22783 -5.67366 0
M  V30 15042 H 1356.88 -1.46013 -2.61726 0
M  V30 15043 H 1354.44 -0.912655 -1.33724 0
M  V30 15044 H 1356.43 0.66522 -3.99195 0
M  V30 15045 H 1355 0.965879 -2.97304 0
M  V30 15046 H 1354.22 -1.41768 -3.67825 0
M  V30 15047 H 1355.51 -1.38592 -4.89561 0
M  V30 15048 H 1354.91 1.75867 -5.37668 0
M  V30 15049 H 1353.46 1.65752 -6.30372 0
M  V30 15050 N 1356.9 1.35099 -0.81154 0
M  V30 15051 C 1357.84 2.31618 -0.213536 0
M  V30 15052 C 1358.84 1.56868 0.63944 0
M  V30 15053 O 1360.04 1.71957 0.532051 0
M  V30 15054 H 1356.42 0.750316 -0.0502963 0
M  V30 15055 H 1358.39 2.79593 -1.04262 0
M  V30 15056 C 1357.14 3.4214 0.619293 0
M  V30 15057 H 1356.46 3.9979 -0.0277192 0
M  V30 15058 H 1357.9 4.11941 1.00401 0
M  V30 15059 C 1356.36 2.85607 1.7869 0
M  V30 15060 O 1356.89 2.7956 2.8846 0
M  V30 15061 N 1355.1 2.42587 1.6 0
M  V30 15062 H 1354.64 2.47705 0.707105 0
M  V30 15063 H 1354.6 2.0511 2.38279 0
M  V30 15064 N 1358.37 0.56548 1.47106 0
M  V30 15065 C 1359.28 -0.180488 2.33905 0
M  V30 15066 C 1360.3 -0.90355 1.48701 0
M  V30 15067 O 1361.48 -0.870595 1.81611 0
M  V30 15068 C 1358.54 -1.19212 3.2556 0
M  V30 15069 C 1357.6 -0.475589 4.26658 0
M  V30 15070 C 1356.83 -1.43902 5.13934 0
M  V30 15071 O 1357.06 -2.67443 5.03816 0
M  V30 15072 O 1355.99 -0.958998 5.94211 0
M  V30 15073 H 1359.82 0.531726 2.99009 0
M  V30 15074 H 1357.4 0.32602 1.45799 0
M  V30 15075 H 1359.28 -1.77586 3.82153 0
M  V30 15076 H 1357.96 -1.8861 2.63074 0
M  V30 15077 H 1356.87 0.149561 3.73801 0
M  V30 15078 H 1358.2 0.177103 4.91881 0
M  V30 15079 N 1359.85 -1.54672 0.302354 0
M  V30 15080 C 1360.78 -2.2653 -0.566265 0
M  V30 15081 C 1361.76 -1.26532 -1.13682 0
M  V30 15082 O 1362.95 -1.55307 -1.1659 0
M  V30 15083 C 1360.08 -3.00709 -1.73757 0
M  V30 15084 C 1359.03 -4.07865 -1.29731 0
M  V30 15085 C 1358.36 -4.69767 -2.55388 0
M  V30 15086 C 1359.66 -5.20547 -0.427567 0
M  V30 15087 H 1361.35 -2.99382 0.033071 0
M  V30 15088 H 1358.9 -1.4399 0.0173458 0
M  V30 15089 H 1360.85 -3.497 -2.35134 0
M  V30 15090 H 1359.58 -2.25437 -2.36317 0
M  V30 15091 H 1358.23 -3.59726 -0.706586 0
M  V30 15092 H 1357.88 -3.91134 -3.16265 0
M  V30 15093 H 1357.58 -5.42137 -2.26631 0
M  V30 15094 H 1359.11 -5.21521 -3.17566 0
M  V30 15095 H 1360.52 -5.65424 -0.947053 0
M  V30 15096 H 1358.92 -5.99645 -0.233704 0
M  V30 15097 H 1359.99 -4.81805 0.546993 0
M  V30 15098 N 1361.33 -0.0301034 -1.57571 0
M  V30 15099 C 1362.29 0.936465 -2.09196 0
M  V30 15100 C 1363.29 1.25347 -1.00722 0
M  V30 15101 O 1364.48 1.19364 -1.26877 0
M  V30 15102 C 1361.62 2.2527 -2.55864 0
M  V30 15103 H 1362.81 0.489332 -2.95881 0
M  V30 15104 H 1360.36 0.217948 -1.54773 0
M  V30 15105 H 1361.1 2.7461 -1.72511 0
M  V30 15106 H 1360.88 2.03573 -3.35113 0
M  V30 15107 H 1362.37 2.94549 -2.96025 0
M  V30 15108 N 1362.81 1.55714 0.243056 0
M  V30 15109 C 1363.74 1.93655 1.30461 0
M  V30 15110 C 1364.72 0.801968 1.50008 0
M  V30 15111 O 1365.9 1.06256 1.62552 0
M  V30 15112 C 1363.03 2.23459 2.65863 0
M  V30 15113 C 1361.99 3.39205 2.61006 0
M  V30 15114 C 1361.31 3.5456 4.00239 0
M  V30 15115 C 1362.61 4.74787 2.17656 0
M  V30 15116 H 1364.31 2.82575 0.98954 0
M  V30 15117 H 1361.85 1.35955 0.474572 0
M  V30 15118 H 1363.81 2.48591 3.40266 0
M  V30 15119 H 1362.53 1.31369 2.99014 0
M  V30 15120 H 1361.19 3.14088 1.89061 0
M  V30 15121 H 1360.84 2.59884 4.30661 0
M  V30 15122 H 1360.54 4.32399 3.97876 0
M  V30 15123 H 1362.06 3.82017 4.76335 0
M  V30 15124 H 1363.48 4.99266 2.81792 0
M  V30 15125 H 1361.87 5.55756 2.26397 0
M  V30 15126 H 1362.94 4.7159 1.12831 0
M  V30 15127 N 1364.29 -0.50888 1.49158 0
M  V30 15128 C 1365.23 -1.63216 1.6572 0
M  V30 15129 C 1366.23 -1.61117 0.523236 0
M  V30 15130 O 1367.43 -1.6572 0.702629 0
M  V30 15131 H 1363.81 -0.540909 0.522419 0
M  V30 15132 H 1365.78 -1.46397 2.6002 0
M  V30 15133 C 1364.53 -3.01393 1.73372 0
M  V30 15134 H 1363.85 -3.03711 2.6 0
M  V30 15135 H 1365.29 -3.79547 1.88998 0
M  V30 15136 C 1363.75 -3.33509 0.47683 0
M  V30 15137 O 1364.28 -3.99694 -0.400986 0
M  V30 15138 N 1362.49 -2.88579 0.342145 0
M  V30 15139 H 1362.03 -2.34894 1.05747 0
M  V30 15140 H 1361.99 -3.10435 -0.497757 0
M  V30 15141 N 1365.76 -1.381 -0.759346 0
M  V30 15142 C 1366.7 -1.29241 -1.88075 0
M  V30 15143 C 1367.68 -0.170526 -1.61703 0
M  V30 15144 O 1368.86 -0.346865 -1.85281 0
M  V30 15145 C 1365.99 -1.00115 -3.23566 0
M  V30 15146 C 1365.03 -2.14161 -3.68832 0
M  V30 15147 S 1365.87 -3.76251 -3.81045 0
M  V30 15148 C 1367.02 -3.49301 -5.19365 0
M  V30 15149 H 1367.25 -2.24152 -1.95303 0
M  V30 15150 H 1364.79 -1.23869 -0.921734 0
M  V30 15151 H 1366.75 -0.839934 -4.01815 0
M  V30 15152 H 1365.41 -0.0693088 -3.14024 0
M  V30 15153 H 1364.6 -1.89313 -4.67094 0
M  V30 15154 H 1364.2 -2.2636 -2.9772 0
M  V30 15155 H 1366.49 -3.05058 -6.04935 0
M  V30 15156 H 1367.44 -4.46935 -5.49231 0
M  V30 15157 H 1367.84 -2.83944 -4.87889 0
M  V30 15158 N 1367.24 0.986894 -1.22875 0
M  V30 15159 C 1368.19 2.07811 -1.00416 0
M  V30 15160 C 1369.16 1.65925 0.0761734 0
M  V30 15161 O 1370.34 1.90654 -0.0746294 0
M  V30 15162 C 1367.48 3.39941 -0.594471 0
M  V30 15163 C 1366.6 3.95134 -1.74622 0
M  V30 15164 C 1365.73 5.1545 -1.28394 0
M  V30 15165 C 1364.77 5.62794 -2.40686 0
M  V30 15166 N 1363.91 6.74343 -1.95462 0
M  V30 15167 H 1368.75 2.26356 -1.93822 0
M  V30 15168 H 1366.29 1.10966 -0.965661 0
M  V30 15169 H 1368.24 4.15828 -0.338078 0
M  V30 15170 H 1366.87 3.21379 0.302587 0
M  V30 15171 H 1365.93 3.16064 -2.11679 0
M  V30 15172 H 1367.24 4.26247 -2.59066 0
M  V30 15173 H 1366.39 5.98646 -0.98529 0
M  V30 15174 H 1365.13 4.85975 -0.409789 0
M  V30 15175 H 1364.14 4.78182 -2.71333 0
M  V30 15176 H 1365.36 5.9429 -3.28627 0
M  V30 15177 H 1363.31 6.46641 -1.10417 0
M  V30 15178 H 1363.22 7.04806 -2.73469 0
M  V30 15179 H 1364.49 7.6103 -1.68683 0
M  V30 15180 N 1368.72 1.0394 1.18466 0
M  V30 15181 C 1369.67 0.623063 2.241 0
M  V30 15182 C 1370.66 -0.349518 1.65755 0
M  V30 15183 O 1371.87 -0.216947 1.78688 0
M  V30 15184 H 1368.24 0.183263 0.729327 0
M  V30 15185 H 1370.21 1.52439 2.56524 0
M  V30 15186 C 1368.96 0.000626805 3.477 0
M  V30 15187 H 1368.29 0.740056 3.92891 0
M  V30 15188 H 1369.73 -0.253484 4.23242 0
M  V30 15189 C 1368.19 -1.24907 3.1289 0
M  V30 15190 O 1368.72 -2.33996 3.2651 0
M  V30 15191 N 1366.92 -1.14187 2.67226 0
M  V30 15192 H 1366.47 -0.254146 2.56343 0
M  V30 15193 H 1366.43 -1.97893 2.44307 0
M  V30 15194 N 1370.2 -1.34667 0.818693 0
M  V30 15195 C 1371.61 -1.80839 0.46414 0
M  V30 15196 C 1371.96 -1.67902 -1.01506 0
M  V30 15197 O 1371.09 -1.21658 -1.78964 0
M  V30 15198 C 1371.68 -3.28331 0.835698 0
M  V30 15199 C 1370.24 -3.72599 0.533575 0
M  V30 15200 C 1369.39 -2.56452 1.05487 0
M  V30 15201 H 1372.34 -1.22474 1.00925 0
M  V30 15202 H 1372.36 -3.8025 0.13785 0
M  V30 15203 H 1371.87 -3.37715 1.91233 0
M  V30 15204 H 1369.97 -3.68756 -0.533819 0
M  V30 15205 H 1370.08 -4.66891 1.07468 0
M  V30 15206 H 1368.45 -2.50201 0.476612 0
M  V30 15207 H 1369.23 -2.68608 2.13786 0
M  V30 15208 N 1371.68 -0.573274 -1.46804 0
M  V30 15209 C 1372.62 0.165358 -2.30207 0
M  V30 15210 C 1373.59 0.89312 -1.40045 0
M  V30 15211 O 1374.78 0.885653 -1.68999 0
M  V30 15212 C 1371.92 1.17915 -3.2433 0
M  V30 15213 C 1371.03 0.455805 -4.29589 0
M  V30 15214 C 1370.17 1.45629 -5.10848 0
M  V30 15215 C 1369.21 0.718822 -6.07865 0
M  V30 15216 N 1368.34 1.66691 -6.82025 0
M  V30 15217 H 1373.18 -0.551947 -2.92844 0
M  V30 15218 H 1370.72 -0.28401 -1.44332 0
M  V30 15219 H 1372.68 1.77969 -3.77337 0
M  V30 15220 H 1371.31 1.86429 -2.63523 0
M  V30 15221 H 1370.36 -0.259584 -3.79513 0
M  V30 15222 H 1371.67 -0.121161 -4.98653 0
M  V30 15223 H 1370.83 2.1299 -5.68084 0
M  V30 15224 H 1369.56 2.06718 -4.41723 0
M  V30 15225 H 1368.57 0.0313773 -5.49791 0
M  V30 15226 H 1369.79 0.113452 -6.79005 0
M  V30 15227 H 1367.74 2.26608 -6.15617 0
M  V30 15228 H 1367.66 1.14251 -7.47317 0
M  V30 15229 H 1368.93 2.33117 -7.43826 0
M  V30 15230 N 1373.15 1.5451 -0.310553 0
M  V30 15231 C 1374.4 2.00326 0.295904 0
M  V30 15232 C 1374.73 1.19887 1.53158 0
M  V30 15233 O 1373.98 0.265615 1.93889 0
M  V30 15234 C 1374.28 3.5072 0.68779 0
M  V30 15235 C 1373.95 4.48677 -0.447229 0
M  V30 15236 C 1372.61 4.7518 -0.758796 0
M  V30 15237 C 1374.96 5.06953 -1.21028 0
M  V30 15238 C 1372.29 5.5722 -1.83637 0
M  V30 15239 C 1374.64 5.90167 -2.27784 0
M  V30 15240 C 1373.31 6.14977 -2.59537 0
M  V30 15241 H 1372.58 0.733046 0.108279 0
M  V30 15242 H 1375.22 1.86572 -0.431633 0
M  V30 15243 H 1373.53 3.62133 1.49556 0
M  V30 15244 H 1375.23 3.83602 1.16836 0
M  V30 15245 H 1371.82 4.28159 -0.1943 0
M  V30 15246 H 1376 4.86471 -0.98283 0
M  V30 15247 H 1371.26 5.74678 -2.08699 0
M  V30 15248 H 1375.43 6.34347 -2.87362 0
M  V30 15249 H 1373.06 6.78338 -3.43165 0
M  V30 15250 N 1374.63 0.0384594 1.57553 0
M  V30 15251 C 1375.57 -0.975285 2.06309 0
M  V30 15252 C 1376.54 -1.31174 0.96084 0
M  V30 15253 O 1377.73 -1.4268 1.23185 0
M  V30 15254 C 1374.86 -2.29279 2.49297 0
M  V30 15255 C 1373.9 -2.11028 3.70634 0
M  V30 15256 S 1374.73 -1.40043 5.16864 0
M  V30 15257 C 1375.89 -2.73143 5.63155 0
M  V30 15258 H 1376.12 -0.560293 2.91973 0
M  V30 15259 H 1373.66 -0.173479 1.53422 0
M  V30 15260 H 1375.61 -3.05016 2.74728 0
M  V30 15261 H 1374.28 -2.67909 1.63962 0
M  V30 15262 H 1373.47 -3.08451 3.9859 0
M  V30 15263 H 1373.07 -1.43433 3.45403 0
M  V30 15264 H 1375.36 -3.69354 5.67965 0
M  V30 15265 H 1376.31 -2.49839 6.6256 0
M  V30 15266 H 1376.71 -2.78819 4.90836 0
M  V30 15267 N 1376.11 -1.55841 -0.234795 0
M  V30 15268 C 1377.36 -1.78238 -0.961116 0
M  V30 15269 C 1377.69 -0.604919 -1.84854 0
M  V30 15270 O 1376.94 0.411289 -1.91329 0
M  V30 15271 C 1377.24 -3.06262 -1.84223 0
M  V30 15272 C 1376.91 -4.37045 -1.10916 0
M  V30 15273 C 1375.57 -4.72582 -0.906606 0
M  V30 15274 C 1377.92 -5.17844 -0.59049 0
M  V30 15275 C 1375.25 -5.86444 -0.173275 0
M  V30 15276 C 1377.6 -6.32468 0.129433 0
M  V30 15277 C 1376.26 -6.66616 0.343357 0
M  V30 15278 H 1375.53 -0.652219 -0.351697 0
M  V30 15279 H 1378.18 -1.9011 -0.230272 0
M  V30 15280 H 1376.49 -2.89454 -2.64052 0
M  V30 15281 H 1378.18 -3.20791 -2.40612 0
M  V30 15282 H 1374.77 -4.09134 -1.27699 0
M  V30 15283 H 1378.96 -4.90835 -0.734487 0
M  V30 15284 H 1374.21 -6.114 0.00282409 0
M  V30 15285 H 1378.39 -6.94312 0.538905 0
M  V30 15286 H 1376.01 -7.54691 0.913538 0
M  V30 15287 N 1377.59 0.500963 -1.49426 0
M  V30 15288 C 1378.52 1.62019 -1.60701 0
M  V30 15289 C 1379.5 1.56072 -0.456092 0
M  V30 15290 O 1380.68 1.76128 -0.671642 0
M  V30 15291 C 1377.81 3.00532 -1.56199 0
M  V30 15292 C 1376.86 3.2474 -2.76489 0
M  V30 15293 S 1377.69 3.07859 -4.38159 0
M  V30 15294 C 1378.85 4.48767 -4.36301 0
M  V30 15295 H 1379.08 1.5221 -2.55381 0
M  V30 15296 H 1376.61 0.686122 -1.38317 0
M  V30 15297 H 1378.57 3.80402 -1.54287 0
M  V30 15298 H 1377.23 3.07757 -0.628067 0
M  V30 15299 H 1376.42 4.25858 -2.69558 0
M  V30 15300 H 1376.03 2.52593 -2.75813 0
M  V30 15301 H 1378.32 5.40854 -4.08023 0
M  V30 15302 H 1379.26 4.60748 -5.37696 0
M  V30 15303 H 1379.67 4.29448 -3.6638 0
M  V30 15304 N 1379.07 1.38501 0.752011 0
M  V30 15305 C 1380 1.31746 1.87551 0
M  V30 15306 C 1381.01 0.229386 1.61176 0
M  V30 15307 O 1382.2 0.487066 1.71726 0
M  V30 15308 C 1379.3 1.01889 3.23221 0
M  V30 15309 C 1378.47 2.21637 3.77088 0
M  V30 15310 C 1377.53 1.885 4.91278 0
M  V30 15311 O 1376.56 2.61011 5.05828 0
M  V30 15312 N 1377.76 0.840909 5.74377 0
M  V30 15313 H 1380.53 2.28561 1.93856 0
M  V30 15314 H 1378.09 1.32383 0.932013 0
M  V30 15315 H 1380.08 0.777704 3.97157 0
M  V30 15316 H 1378.65 0.138658 3.12292 0
M  V30 15317 H 1377.87 2.61812 2.947 0
M  V30 15318 H 1379.16 3.01551 4.0981 0
M  V30 15319 H 1378.56 0.23962 5.65192 0
M  V30 15320 H 1377.11 0.659604 6.48454 0
M  V30 15321 N 1380.55 -0.980364 1.23396 0
M  V30 15322 C 1381.46 -2.10688 1.03188 0
M  V30 15323 C 1382.47 -1.73984 -0.0236159 0
M  V30 15324 O 1383.65 -2.00666 0.171841 0
M  V30 15325 C 1380.71 -3.4101 0.625563 0
M  V30 15326 C 1379.77 -3.91739 1.75611 0
M  V30 15327 C 1379.01 -5.15841 1.36908 0
M  V30 15328 O 1379.23 -5.69837 0.253329 0
M  V30 15329 O 1378.16 -5.60638 2.19018 0
M  V30 15330 H 1381.99 -2.30626 1.97599 0
M  V30 15331 H 1379.57 -1.09067 1.02102 0
M  V30 15332 H 1381.46 -4.19402 0.409909 0
M  V30 15333 H 1380.13 -3.22402 -0.28956 0
M  V30 15334 H 1379.04 -3.14464 2.0264 0
M  V30 15335 H 1380.37 -4.14801 2.64955 0
M  V30 15336 N 1382.02 -1.04567 -1.17913 0
M  V30 15337 C 1383.44 -0.76584 -1.40025 0
M  V30 15338 C 1383.64 0.642484 -1.90983 0
M  V30 15339 O 1382.7 1.40589 -2.0974 0
M  V30 15340 C 1384.01 -1.81616 -2.39658 0
M  V30 15341 C 1385.56 -1.83765 -2.53376 0
M  V30 15342 C 1386.03 -2.87803 -3.56277 0
M  V30 15343 N 1387.52 -2.86726 -3.63789 0
M  V30 15344 C 1388.26 -3.63876 -4.4315 0
M  V30 15345 N 1387.75 -4.50793 -5.26077 0
M  V30 15346 N 1389.55 -3.52344 -4.37962 0
M  V30 15347 H 1381.7 -1.95442 -0.831647 0
M  V30 15348 H 1383.96 -0.84593 -0.42791 0
M  V30 15349 H 1383.67 -2.8266 -2.09275 0
M  V30 15350 H 1383.54 -1.65251 -3.39075 0
M  V30 15351 H 1385.93 -0.833896 -2.83073 0
M  V30 15352 H 1386.01 -2.04208 -1.54055 0
M  V30 15353 H 1385.65 -3.88361 -3.2732 0
M  V30 15354 H 1385.58 -2.64614 -4.55288 0
M  V30 15355 H 1388.07 -2.237 -3.04576 0
M  V30 15356 H 1388.39 -5.0636 -5.83798 0
M  V30 15357 H 1386.73 -4.54858 -5.2548 0
M  V30 15358 H 1389.92 -2.8384 -3.72226 0
M  V30 15359 H 1390.1 -4.12718 -4.99568 0
M  V30 15360 N 1383.5 1.34231 -0.825823 0
M  V30 15361 C 1384.92 1.51166 -0.511945 0
M  V30 15362 C 1385.12 1.76981 0.963318 0
M  V30 15363 O 1384.17 1.82243 1.74767 0
M  V30 15364 C 1385.49 2.67474 -1.37399 0
M  V30 15365 C 1387.03 2.81356 -1.37141 0
M  V30 15366 C 1387.51 4.0071 -2.218 0
M  V30 15367 N 1389 4.07922 -2.19439 0
M  V30 15368 C 1389.74 4.99438 -2.81691 0
M  V30 15369 N 1389.23 5.96157 -3.52944 0
M  V30 15370 N 1391.02 4.92332 -2.7123 0
M  V30 15371 H 1383.18 1.15734 -1.78099 0
M  V30 15372 H 1385.44 0.567856 -0.759107 0
M  V30 15373 H 1385.14 2.55036 -2.42176 0
M  V30 15374 H 1385.02 3.62558 -1.04075 0
M  V30 15375 H 1387.41 2.93233 -0.331405 0
M  V30 15376 H 1387.49 1.87072 -1.74464 0
M  V30 15377 H 1387.13 3.89593 -3.25852 0
M  V30 15378 H 1387.06 4.94213 -1.81826 0
M  V30 15379 H 1389.55 3.38695 -1.67612 0
M  V30 15380 H 1389.86 6.62623 -3.97682 0
M  V30 15381 H 1388.21 5.96272 -3.5705 0
M  V30 15382 H 1391.4 4.15733 -2.15137 0
M  V30 15383 H 1391.57 5.63458 -3.20031 0
M  V30 15384 N 1384.98 0.581051 1.46498 0
M  V30 15385 C 1386.21 0.0715652 2.06776 0
M  V30 15386 C 1386.62 -1.23267 1.43006 0
M  V30 15387 O 1385.98 -1.74489 0.534776 0
M  V30 15388 C 1386.03 -0.102666 3.61354 0
M  V30 15389 O 1385.75 1.14995 4.22739 0
M  V30 15390 C 1387.25 -0.646692 4.38558 0
M  V30 15391 H 1384.47 0.0566964 0.6686 0
M  V30 15392 H 1387.02 0.801248 1.8815 0
M  V30 15393 H 1385.17 -0.782564 3.79414 0
M  V30 15394 H 1385.59 0.962718 5.15589 0
M  V30 15395 H 1387.06 -0.717791 5.47313 0
M  V30 15396 H 1387.54 -1.6633 4.06486 0
M  V30 15397 H 1388.14 -0.00171739 4.253 0
M  V30 15398 N 1386.46 -1.54343 0.318742 0
M  V30 15399 C 1387.39 -2.21652 -0.583351 0
M  V30 15400 C 1388.4 -1.21494 -1.08366 0
M  V30 15401 O 1389.59 -1.4799 -0.998064 0
M  V30 15402 C 1386.69 -2.86349 -1.81266 0
M  V30 15403 C 1385.86 -4.12601 -1.45186 0
M  V30 15404 C 1384.92 -4.60937 -2.53818 0
M  V30 15405 O 1383.95 -5.25731 -2.18164 0
M  V30 15406 N 1385.15 -4.34755 -3.84667 0
M  V30 15407 H 1387.92 -2.99699 -0.00703539 0
M  V30 15408 H 1385.48 -1.61278 0.141728 0
M  V30 15409 H 1387.47 -3.15611 -2.53321 0
M  V30 15410 H 1386.04 -2.12037 -2.29693 0
M  V30 15411 H 1385.26 -3.90157 -0.563143 0
M  V30 15412 H 1386.55 -4.94774 -1.18642 0
M  V30 15413 H 1385.95 -3.82883 -4.16434 0
M  V30 15414 H 1384.5 -4.68683 -4.52967 0
M  V30 15415 N 1387.94 -0.0468143 -1.5753 0
M  V30 15416 C 1388.87 0.96433 -2.06823 0
M  V30 15417 C 1389.85 1.30663 -0.967783 0
M  V30 15418 O 1391.03 1.42025 -1.2394 0
M  V30 15419 C 1388.16 2.27954 -2.50509 0
M  V30 15420 C 1387.2 2.0906 -3.71748 0
M  V30 15421 S 1388.04 1.373 -5.17599 0
M  V30 15422 C 1389.19 2.70153 -5.64596 0
M  V30 15423 H 1389.43 0.544801 -2.92266 0
M  V30 15424 H 1386.96 0.16534 -1.53512 0
M  V30 15425 H 1388.92 3.03555 -2.76342 0
M  V30 15426 H 1387.58 2.67036 -1.65381 0
M  V30 15427 H 1386.77 3.06333 -4.0022 0
M  V30 15428 H 1386.37 1.41599 -3.46158 0
M  V30 15429 H 1388.66 3.66337 -5.69915 0
M  V30 15430 H 1389.61 2.46322 -6.63876 0
M  V30 15431 H 1390.02 2.76212 -4.92308 0
M  V30 15432 N 1389.41 1.55964 0.226527 0
M  V30 15433 C 1390.36 1.92007 1.28069 0
M  V30 15434 C 1391.33 0.776666 1.46823 0
M  V30 15435 O 1392.52 1.03213 1.60474 0
M  V30 15436 C 1389.66 2.23784 2.62707 0
M  V30 15437 C 1388.77 3.51034 2.51792 0
M  V30 15438 C 1387.9 3.72281 3.7892 0
M  V30 15439 C 1386.94 4.93062 3.62707 0
M  V30 15440 N 1386.08 5.10725 4.81772 0
M  V30 15441 H 1390.92 2.81898 0.96631 0
M  V30 15442 H 1388.46 1.39529 0.465847 0
M  V30 15443 H 1390.42 2.40217 3.41104 0
M  V30 15444 H 1389.05 1.37073 2.92251 0
M  V30 15445 H 1388.1 3.42822 1.64856 0
M  V30 15446 H 1389.41 4.39582 2.35731 0
M  V30 15447 H 1388.56 3.88783 4.6576 0
M  V30 15448 H 1387.3 2.82004 3.97901 0
M  V30 15449 H 1386.31 4.76515 2.7425 0
M  V30 15450 H 1387.53 5.84819 3.45201 0
M  V30 15451 H 1385.48 4.2339 5.01076 0
M  V30 15452 H 1385.4 5.93397 4.68419 0
M  V30 15453 H 1386.66 5.31658 5.70053 0
M  V30 15454 N 1390.89 -0.493031 1.4969 0
M  V30 15455 C 1391.8 -1.61991 1.69694 0
M  V30 15456 C 1392.82 -1.64061 0.579641 0
M  V30 15457 O 1393.99 -1.82335 0.855323 0
M  V30 15458 C 1391.06 -2.98323 1.76648 0
M  V30 15459 C 1390.12 -3.06816 3.00271 0
M  V30 15460 C 1389.35 -4.36644 3.06883 0
M  V30 15461 O 1389.58 -5.25901 2.20872 0
M  V30 15462 O 1388.51 -4.50275 3.99419 0
M  V30 15463 H 1392.34 -1.48042 2.65174 0
M  V30 15464 H 1389.92 -0.670182 1.33525 0
M  V30 15465 H 1391.8 -3.79335 1.83529 0
M  V30 15466 H 1390.48 -3.12517 0.843482 0
M  V30 15467 H 1389.39 -2.24962 2.98903 0
M  V30 15468 H 1390.72 -2.97551 3.92077 0
M  V30 15469 N 1392.37 -1.38898 -0.744656 0
M  V30 15470 C 1393.28 -1.39098 -1.88915 0
M  V30 15471 C 1394.3 -0.286956 -1.71617 0
M  V30 15472 O 1395.47 -0.526852 -1.94387 0
M  V30 15473 C 1392.54 -1.22352 -3.24393 0
M  V30 15474 C 1391.6 -2.4264 -3.54153 0
M  V30 15475 C 1390.83 -2.26683 -4.83167 0
M  V30 15476 O 1391.05 -1.26523 -5.56191 0
M  V30 15477 O 1389.99 -3.15464 -5.12607 0
M  V30 15478 H 1393.81 -2.35551 -1.91701 0
M  V30 15479 H 1391.4 -1.19911 -0.891158 0
M  V30 15480 H 1393.28 -1.15109 -4.05374 0
M  V30 15481 H 1391.96 -0.289886 -3.22399 0
M  V30 15482 H 1390.86 -2.55459 -2.73298 0
M  V30 15483 H 1392.2 -3.34664 -3.60917 0
M  V30 15484 N 1393.85 0.973806 -1.23914 0
M  V30 15485 C 1394.8 2.06734 -1.02614 0
M  V30 15486 C 1395.77 1.65997 0.0585705 0
M  V30 15487 O 1396.95 1.90564 -0.0948467 0
M  V30 15488 C 1394.09 3.39292 -0.630493 0
M  V30 15489 C 1393.2 3.9326 -1.78803 0
M  V30 15490 C 1392.34 5.14059 -1.33854 0
M  V30 15491 C 1391.38 5.60209 -2.46642 0
M  V30 15492 N 1390.51 6.72232 -2.02603 0
M  V30 15493 H 1395.35 2.24287 -1.96212 0
M  V30 15494 H 1392.89 1.09935 -0.977376 0
M  V30 15495 H 1394.85 4.15446 -0.382163 0
M  V30 15496 H 1393.48 3.21682 0.268483 0
M  V30 15497 H 1392.53 3.13801 -2.15019 0
M  V30 15498 H 1393.84 4.23475 -2.63573 0
M  V30 15499 H 1393 5.97567 -1.04873 0
M  V30 15500 H 1391.74 4.85513 -0.46131 0
M  V30 15501 H 1390.74 4.75278 -2.7639 0
M  V30 15502 H 1391.97 5.90771 -3.34912 0
M  V30 15503 H 1389.91 6.45433 -1.17269 0
M  V30 15504 H 1389.83 7.01865 -2.80929 0
M  V30 15505 H 1391.1 7.59198 -1.76745 0
M  V30 15506 N 1395.33 1.05191 1.17357 0
M  V30 15507 C 1396.55 0.782343 1.92079 0
M  V30 15508 C 1396.98 -0.655957 1.76292 0
M  V30 15509 O 1396.33 -1.45573 1.08065 0
M  V30 15510 C 1396.38 1.16777 3.41168 0
M  V30 15511 O 1395.49 0.299908 4.11308 0
M  V30 15512 H 1394.83 0.286894 0.598822 0
M  V30 15513 H 1397.36 1.40476 1.48754 0
M  V30 15514 H 1397.37 1.13454 3.91909 0
M  V30 15515 H 1396.04 2.2155 3.51978 0
M  V30 15516 H 1394.62 0.393744 3.70815 0
M  V30 15517 N 1396.8 -1.33791 0.83293 0
M  V30 15518 C 1397.75 -2.31249 0.250357 0
M  V30 15519 C 1398.75 -1.57865 -0.614403 0
M  V30 15520 O 1399.95 -1.72782 -0.504627 0
M  V30 15521 H 1396.33 -0.749421 0.0622268 0
M  V30 15522 H 1398.3 -2.77899 1.08697 0
M  V30 15523 C 1397.05 -3.43082 -0.564783 0
M  V30 15524 H 1396.37 -3.99696 0.0913189 0
M  V30 15525 H 1397.81 -4.13486 -0.938351 0
M  V30 15526 C 1396.27 -2.88414 -1.74124 0
M  V30 15527 O 1396.8 -2.84113 -2.83976 0
M  V30 15528 N 1395.01 -2.45101 -1.56121 0
M  V30 15529 H 1394.55 -2.48799 -0.667607 0
M  V30 15530 H 1394.51 -2.08875 -2.34986 0
M  V30 15531 N 1398.28 -0.588812 -1.46187 0
M  V30 15532 C 1399.53 -0.0851986 -2.03221 0
M  V30 15533 C 1399.88 1.26301 -1.45141 0
M  V30 15534 O 1399.18 1.8165 -0.609427 0
M  V30 15535 C 1399.37 0.0325249 -3.57385 0
M  V30 15536 C 1399.2 -1.30272 -4.30418 0
M  V30 15537 C 1397.97 -1.87848 -4.69085 0
M  V30 15538 C 1400.17 -2.2273 -4.63569 0
M  V30 15539 N 1398.15 -3.15048 -5.26894 0
M  V30 15540 C 1399.52 -3.34519 -5.22012 0
M  V30 15541 C 1401.58 -2.22334 -4.45502 0
M  V30 15542 C 1400.28 -4.46054 -5.64294 0
M  V30 15543 C 1402.3 -3.32904 -4.88804 0
M  V30 15544 C 1401.67 -4.43414 -5.47324 0
M  V30 15545 H 1397.77 -0.0741 -0.778481 0
M  V30 15546 H 1400.35 -0.783049 -1.78259 0
M  V30 15547 H 1398.52 0.699556 -3.82048 0
M  V30 15548 H 1400.25 0.54108 -4.01067 0
M  V30 15549 H 1397.01 -1.4127 -4.5204 0
M  V30 15550 H 1397.43 -3.79969 -5.60315 0
M  V30 15551 H 1402.07 -1.38165 -3.99588 0
M  V30 15552 H 1399.79 -5.30963 -6.09183 0
M  V30 15553 H 1403.38 -3.33723 -4.76571 0
M  V30 15554 H 1402.26 -5.27559 -5.80216 0
M  V30 15555 N 1399.76 1.54172 -0.326923 0
M  V30 15556 C 1400.99 2.05044 0.276508 0
M  V30 15557 C 1401.4 1.20288 1.45521 0
M  V30 15558 O 1400.76 0.234324 1.80989 0
M  V30 15559 C 1400.81 3.54505 0.707714 0
M  V30 15560 O 1400.53 4.36042 -0.424098 0
M  V30 15561 C 1402.03 4.21482 1.3736 0
M  V30 15562 H 1399.25 0.668632 0.0563273 0
M  V30 15563 H 1401.8 1.98929 -0.474087 0
M  V30 15564 H 1399.95 3.60896 1.40828 0
M  V30 15565 H 1400.37 5.24433 -0.0836846 0
M  V30 15566 H 1401.84 5.27501 1.62623 0
M  V30 15567 H 1402.32 3.72802 2.32196 0
M  V30 15568 H 1402.92 4.19238 0.715526 0
M  V30 15569 N 1401.24 0.0551678 1.57503 0
M  V30 15570 C 1402.17 -0.947102 2.08717 0
M  V30 15571 C 1403.18 -1.2722 1.01582 0
M  V30 15572 O 1404.37 -1.23229 1.29139 0
M  V30 15573 C 1401.47 -2.26756 2.51863 0
M  V30 15574 C 1400.65 -2.12378 3.8238 0
M  V30 15575 C 1399.7 -3.27582 4.11797 0
M  V30 15576 O 1398.73 -3.03309 4.81656 0
M  V30 15577 N 1399.93 -4.5218 3.64024 0
M  V30 15578 H 1402.7 -0.509957 2.9533 0
M  V30 15579 H 1400.26 -0.130976 1.61369 0
M  V30 15580 H 1402.25 -3.02701 2.68616 0
M  V30 15581 H 1400.82 -2.62024 1.70477 0
M  V30 15582 H 1400.04 -1.21 3.7517 0
M  V30 15583 H 1401.33 -2.00003 4.67842 0
M  V30 15584 H 1400.73 -4.7479 3.07556 0
M  V30 15585 H 1399.28 -5.25206 3.86008 0
M  V30 15586 N 1402.72 -1.56081 -0.218252 0
M  V30 15587 C 1403.66 -1.92684 -1.27049 0
M  V30 15588 C 1404.63 -0.784441 -1.46409 0
M  V30 15589 O 1405.82 -1.04062 -1.59924 0
M  V30 15590 C 1402.96 -2.25174 -2.61516 0
M  V30 15591 C 1402.07 -3.52364 -2.49927 0
M  V30 15592 C 1401.21 -3.74286 -3.7694 0
M  V30 15593 C 1400.25 -4.94979 -3.60087 0
M  V30 15594 N 1399.38 -5.13273 -4.79057 0
M  V30 15595 H 1404.22 -2.82406 -0.951347 0
M  V30 15596 H 1401.76 -1.39774 -0.458441 0
M  V30 15597 H 1403.72 -2.42022 -3.39825 0
M  V30 15598 H 1402.35 -1.38621 -2.9152 0
M  V30 15599 H 1401.4 -3.43691 -1.63036 0
M  V30 15600 H 1402.71 -4.40826 -2.33397 0
M  V30 15601 H 1401.87 -3.91248 -4.63692 0
M  V30 15602 H 1400.6 -2.84111 -3.96399 0
M  V30 15603 H 1399.61 -4.77963 -2.71719 0
M  V30 15604 H 1400.83 -5.86641 -3.42095 0
M  V30 15605 H 1398.78 -4.26041 -4.98824 0
M  V30 15606 H 1398.7 -5.95873 -4.65265 0
M  V30 15607 H 1399.97 -5.34673 -5.67226 0
M  V30 15608 N 1404.2 0.485086 -1.49949 0
M  V30 15609 C 1405.14 1.5848 -1.67788 0
M  V30 15610 C 1406.11 1.57776 -0.519216 0
M  V30 15611 O 1407.3 1.75521 -0.748141 0
M  V30 15612 C 1404.44 2.9654 -1.76516 0
M  V30 15613 C 1403.55 3.07139 -3.03792 0
M  V30 15614 C 1402.69 4.36029 -3.03401 0
M  V30 15615 C 1401.72 4.40318 -4.2519 0
M  V30 15616 N 1400.86 5.60659 -4.22618 0
M  V30 15617 H 1405.7 1.42575 -2.6168 0
M  V30 15618 H 1403.24 0.693426 -1.29731 0
M  V30 15619 H 1405.2 3.76583 -1.79557 0
M  V30 15620 H 1403.83 3.11112 -0.860764 0
M  V30 15621 H 1402.88 2.20057 -3.10289 0
M  V30 15622 H 1404.19 3.06167 -3.9378 0
M  V30 15623 H 1403.34 5.24407 -3.05094 0
M  V30 15624 H 1402.08 4.39588 -2.11219 0
M  V30 15625 H 1401.09 3.50339 -4.23725 0
M  V30 15626 H 1402.31 4.38461 -5.18583 0
M  V30 15627 H 1400.26 5.6503 -3.33282 0
M  V30 15628 H 1400.18 5.61371 -5.06359 0
M  V30 15629 H 1401.44 6.51201 -4.28436 0
M  V30 15630 N 1405.67 1.39291 0.737279 0
M  V30 15631 C 1406.92 1.36121 1.49384 0
M  V30 15632 C 1407.24 -0.0429406 1.94953 0
M  V30 15633 O 1406.51 -0.993756 1.68823 0
M  V30 15634 H 1405.09 0.500916 0.554159 0
M  V30 15635 H 1407.75 1.74134 0.875402 0
M  V30 15636 H 1406.85 2.02246 2.37704 0
M  V30 15637 N 1407.15 -0.967221 1.24429 0
M  V30 15638 C 1408.43 -1.68564 0.992253 0
M  V30 15639 C 1408.81 -2.05446 -0.485301 0
M  V30 15640 O 1408.16 -1.75798 -1.45971 0
M  V30 15641 C 1408.37 -2.91728 1.91562 0
M  V30 15642 C 1409.71 -3.63957 2.18678 0
M  V30 15643 O 1410.74 -3.01786 1.89219 0
M  V30 15644 O 1409.6 -4.75875 2.68711 0
M  V30 15645 H 1406.69 -0.736939 0.375299 0
M  V30 15646 H 1409.24 -1.02127 1.35529 0
M  V30 15647 H 1408.01 -2.61168 2.91388 0
M  V30 15648 H 1407.63 -3.65898 1.55577 0
M  V30 15649 N 1408.63 -1.05812 -1.16797 0
M  V30 15650 C 1409.56 -0.622584 -2.20582 0
M  V30 15651 C 1410.57 0.316905 -1.59686 0
M  V30 15652 O 1411.76 0.108657 -1.78169 0
M  V30 15653 C 1408.86 0.108124 -3.38727 0
M  V30 15654 C 1408.04 -0.84363 -4.29187 0
M  V30 15655 C 1407.1 -0.15305 -5.25977 0
M  V30 15656 O 1406.12 -0.78915 -5.63703 0
M  V30 15657 N 1407.32 1.10721 -5.69843 0
M  V30 15658 H 1410.09 -1.51532 -2.5857 0
M  V30 15659 H 1407.65 -0.940815 -1.31758 0
M  V30 15660 H 1409.64 0.580395 -4.00517 0
M  V30 15661 H 1408.21 0.902599 -2.99286 0
M  V30 15662 H 1407.43 -1.49538 -3.64735 0
M  V30 15663 H 1408.72 -1.48946 -4.86511 0
M  V30 15664 H 1408.12 1.64423 -5.41278 0
M  V30 15665 H 1406.67 1.52344 -6.33746 0
M  V30 15666 N 1410.11 1.33347 -0.840014 0
M  V30 15667 C 1411.05 2.29191 -0.272048 0
M  V30 15668 C 1412.02 1.54383 0.612787 0
M  V30 15669 O 1413.21 1.82676 0.550812 0
M  V30 15670 C 1410.35 3.40755 0.545901 0
M  V30 15671 C 1409.46 4.30471 -0.363084 0
M  V30 15672 C 1408.6 5.29151 0.466078 0
M  V30 15673 C 1407.64 6.10508 -0.441225 0
M  V30 15674 N 1406.77 7.01228 0.349877 0
M  V30 15675 H 1411.61 2.77166 -1.09467 0
M  V30 15676 H 1409.15 1.36379 -0.551284 0
M  V30 15677 H 1411.11 4.04142 1.03562 0
M  V30 15678 H 1409.74 2.9397 1.33348 0
M  V30 15679 H 1408.79 3.67795 -0.971119 0
M  V30 15680 H 1410.1 4.87406 -1.06002 0
M  V30 15681 H 1409.26 5.98072 1.01957 0
M  V30 15682 H 1408 4.72796 1.19644 0
M  V30 15683 H 1407 5.40504 -1.00672 0
M  V30 15684 H 1408.23 6.68946 -1.16997 0
M  V30 15685 H 1406.17 6.4732 1.0636 0
M  V30 15686 H 1406.09 7.5545 -0.288317 0
M  V30 15687 H 1407.36 7.74453 0.885573 0
M  V30 15688 N 1411.59 0.596556 1.45873 0
M  V30 15689 C 1412.82 0.093357 2.06389 0
M  V30 15690 C 1413.22 -1.2229 1.44367 0
M  V30 15691 O 1412.57 -1.75332 0.548131 0
M  V30 15692 C 1412.63 -0.132256 3.59257 0
M  V30 15693 C 1412.29 1.10051 4.43551 0
M  V30 15694 C 1413.29 2.01598 4.79223 0
M  V30 15695 C 1410.97 1.32625 4.84475 0
M  V30 15696 C 1412.97 3.14054 5.54661 0
M  V30 15697 C 1410.66 2.45384 5.5967 0
M  V30 15698 C 1411.65 3.35927 5.94678 0
M  V30 15699 O 1411.34 4.46726 6.6835 0
M  V30 15700 H 1411.07 0.0608944 0.673252 0
M  V30 15701 H 1413.63 0.821009 1.88278 0
M  V30 15702 H 1411.86 -0.914678 3.75727 0
M  V30 15703 H 1413.55 -0.585681 4.01652 0
M  V30 15704 H 1414.31 1.85379 4.48174 0
M  V30 15705 H 1410.19 0.630522 4.56668 0
M  V30 15706 H 1413.74 3.8475 5.81904 0
M  V30 15707 H 1409.63 2.6156 5.90133 0
M  V30 15708 H 1410.4 4.45268 6.86789 0
M  V30 15709 N 1413.06 -1.53996 0.335095 0
M  V30 15710 C 1414 -2.22258 -0.559809 0
M  V30 15711 C 1415.01 -1.22636 -1.07071 0
M  V30 15712 O 1416.2 -1.4904 -0.982312 0
M  V30 15713 C 1413.3 -2.88256 -1.78218 0
M  V30 15714 C 1412.47 -4.14118 -1.40801 0
M  V30 15715 C 1411.53 -4.63603 -2.48915 0
M  V30 15716 O 1410.56 -5.28015 -2.12576 0
M  V30 15717 N 1411.76 -4.3881 -3.80034 0
M  V30 15718 H 1414.52 -2.9969 0.0247521 0
M  V30 15719 H 1412.08 -1.61119 0.158826 0
M  V30 15720 H 1414.08 -3.1828 -2.4996 0
M  V30 15721 H 1412.65 -2.14461 -2.27431 0
M  V30 15722 H 1411.87 -3.90732 -0.521729 0
M  V30 15723 H 1413.15 -4.96005 -1.13388 0
M  V30 15724 H 1412.55 -3.87278 -4.12349 0
M  V30 15725 H 1411.11 -4.73461 -4.47971 0
M  V30 15726 N 1414.54 -0.0635198 -1.57472 0
M  V30 15727 C 1415.49 0.906604 -2.12248 0
M  V30 15728 C 1416.46 1.30078 -1.0329 0
M  V30 15729 O 1417.64 1.38809 -1.30907 0
M  V30 15730 C 1414.78 2.1718 -2.68192 0
M  V30 15731 C 1413.9 1.831 -3.91278 0
M  V30 15732 C 1413.03 3.0417 -4.35493 0
M  V30 15733 C 1412.07 2.66069 -5.51248 0
M  V30 15734 N 1411.21 3.79871 -5.9046 0
M  V30 15735 H 1416.05 0.432606 -2.94843 0
M  V30 15736 H 1413.58 0.201895 -1.45708 0
M  V30 15737 H 1415.54 2.91231 -2.98732 0
M  V30 15738 H 1414.17 2.62135 -1.88375 0
M  V30 15739 H 1413.22 0.991473 -3.67252 0
M  V30 15740 H 1414.54 1.51063 -4.75375 0
M  V30 15741 H 1413.69 3.86507 -4.6765 0
M  V30 15742 H 1412.43 3.39395 -3.50232 0
M  V30 15743 H 1411.43 1.82151 -5.1875 0
M  V30 15744 H 1412.66 2.32023 -6.38234 0
M  V30 15745 H 1410.61 4.14873 -5.0815 0
M  V30 15746 H 1410.52 3.51573 -6.69277 0
M  V30 15747 H 1411.79 4.62811 -6.27237 0
M  V30 15748 N 1416.02 1.56195 0.209972 0
M  V30 15749 C 1416.97 1.94226 1.27981 0
M  V30 15750 C 1417.96 0.825742 1.47912 0
M  V30 15751 O 1419.17 1.01066 1.48949 0
M  V30 15752 H 1415.54 0.617395 0.429333 0
M  V30 15753 H 1417.51 2.83474 0.931946 0
M  V30 15754 C 1416.26 2.28527 2.62051 0
M  V30 15755 H 1415.59 3.1396 2.47526 0
M  V30 15756 H 1417.03 2.59012 3.35692 0
M  V30 15757 C 1415.48 1.11452 3.17931 0
M  V30 15758 O 1416.01 0.381713 3.99882 0
M  V30 15759 N 1414.22 0.895263 2.76466 0
M  V30 15760 H 1413.77 1.4929 2.09929 0
M  V30 15761 H 1413.73 0.113688 3.14194 0
M  V30 15762 N 1417.5 -0.477127 1.50204 0
M  V30 15763 C 1418.73 -1.25126 1.64399 0
M  V30 15764 C 1419.14 -1.86401 0.32424 0
M  V30 15765 O 1418.48 -1.69711 -0.703119 0
M  V30 15766 C 1418.54 -2.40428 2.67273 0
M  V30 15767 C 1418.2 -1.99837 4.10992 0
M  V30 15768 C 1419.2 -1.52435 4.97051 0
M  V30 15769 C 1416.89 -2.08742 4.56872 0
M  V30 15770 C 1418.88 -1.14472 6.27037 0
M  V30 15771 C 1416.57 -1.70391 5.86865 0
M  V30 15772 C 1417.57 -1.23333 6.71772 0
M  V30 15773 O 1417.25 -0.855111 7.99339 0
M  V30 15774 H 1416.99 -0.384801 0.555791 0
M  V30 15775 H 1419.54 -0.576654 1.97139 0
M  V30 15776 H 1417.77 -3.1104 2.29763 0
M  V30 15777 H 1419.46 -3.02406 2.7075 0
M  V30 15778 H 1420.22 -1.44981 4.62823 0
M  V30 15779 H 1416.1 -2.44319 3.90934 0
M  V30 15780 H 1419.65 -0.776712 6.93263 0
M  V30 15781 H 1415.54 -1.77501 6.20615 0
M  V30 15782 H 1416.31 -0.984492 8.12558 0
M  V30 15783 N 1418.98 -1.3968 -0.729882 0
M  V30 15784 C 1419.92 -1.3896 -1.86528 0
M  V30 15785 C 1420.92 -0.272027 -1.67202 0
M  V30 15786 O 1422.12 -0.442328 -1.74481 0
M  V30 15787 H 1418.5 -0.434045 -0.614092 0
M  V30 15788 H 1420.47 -2.34721 -1.84252 0
M  V30 15789 C 1419.22 -1.255 -3.24261 0
M  V30 15790 H 1418.54 -2.10767 -3.39731 0
M  V30 15791 H 1419.98 -1.29054 -4.03882 0
M  V30 15792 C 1418.44 0.0361127 -3.36881 0
M  V30 15793 O 1418.97 1.0044 -3.8894 0
M  V30 15794 N 1417.18 0.100874 -2.90425 0
M  V30 15795 H 1416.72 -0.687797 -2.48248 0
M  V30 15796 H 1416.68 0.964251 -2.99248 0
M  V30 15797 N 1420.45 0.960609 -1.2494 0
M  V30 15798 C 1421.39 2.05948 -1.00588 0
M  V30 15799 C 1422.4 1.62777 0.0271261 0
M  V30 15800 O 1423.59 1.77252 -0.210739 0
M  V30 15801 C 1420.69 3.35228 -0.497521 0
M  V30 15802 C 1419.86 4.0727 -1.59531 0
M  V30 15803 C 1418.92 5.14822 -1.08836 0
M  V30 15804 O 1417.95 5.40602 -1.78153 0
M  V30 15805 N 1419.15 5.80453 0.0735067 0
M  V30 15806 H 1421.91 2.27411 -1.95204 0
M  V30 15807 H 1419.47 1.12874 -1.16065 0
M  V30 15808 H 1421.47 4.04447 -0.142979 0
M  V30 15809 H 1420.04 3.10583 0.354546 0
M  V30 15810 H 1419.26 3.32231 -2.12171 0
M  V30 15811 H 1420.54 4.52161 -2.33299 0
M  V30 15812 H 1419.94 5.6192 0.652848 0
M  V30 15813 H 1418.5 6.50754 0.369132 0
M  V30 15814 N 1421.93 1.0643 1.16234 0
M  V30 15815 C 1422.88 0.676311 2.20669 0
M  V30 15816 C 1423.85 -0.327721 1.62835 0
M  V30 15817 O 1425.03 -0.216296 1.8957 0
M  V30 15818 C 1422.17 0.0703726 3.45028 0
M  V30 15819 C 1421.29 1.12475 4.17101 0
M  V30 15820 C 1420.42 0.484806 5.28983 0
M  V30 15821 C 1419.46 1.52262 5.9286 0
M  V30 15822 N 1418.6 0.905938 6.96231 0
M  V30 15823 H 1423.44 1.57129 2.53209 0
M  V30 15824 H 1420.98 0.7856 1.24365 0
M  V30 15825 H 1422.93 -0.298488 4.16131 0
M  V30 15826 H 1421.56 -0.788002 3.13034 0
M  V30 15827 H 1420.62 1.6113 3.44589 0
M  V30 15828 H 1421.93 1.91202 4.60698 0
M  V30 15829 H 1421.08 0.0630553 6.06667 0
M  V30 15830 H 1419.82 -0.334332 4.86553 0
M  V30 15831 H 1418.83 1.95425 5.13896 0
M  V30 15832 H 1420.05 2.34388 6.37369 0
M  V30 15833 H 1418 0.107536 6.55912 0
M  V30 15834 H 1417.91 1.63058 7.38206 0
M  V30 15835 H 1419.18 0.509378 7.77834 0
M  V30 15836 N 1423.41 -1.329 0.847073 0
M  V30 15837 C 1424.36 -2.29044 0.284199 0
M  V30 15838 C 1425.33 -1.54706 -0.604591 0
M  V30 15839 O 1426.51 -1.82966 -0.541116 0
M  V30 15840 C 1423.65 -3.4104 -0.527822 0
M  V30 15841 C 1422.77 -4.30273 0.385907 0
M  V30 15842 C 1421.9 -5.29391 -0.438009 0
M  V30 15843 C 1420.94 -6.10265 0.473596 0
M  V30 15844 N 1420.08 -7.01403 -0.312684 0
M  V30 15845 H 1424.92 -2.76582 1.10935 0
M  V30 15846 H 1422.45 -1.36085 0.558508 0
M  V30 15847 H 1424.41 -4.04686 -1.01417 0
M  V30 15848 H 1423.04 -2.94673 -1.31787 0
M  V30 15849 H 1422.09 -3.67275 0.99061 0
M  V30 15850 H 1423.41 -4.86837 1.08585 0
M  V30 15851 H 1422.56 -5.98604 -0.987842 0
M  V30 15852 H 1421.3 -4.73424 -1.17135 0
M  V30 15853 H 1420.3 -5.39963 1.03537 0
M  V30 15854 H 1421.53 -6.68316 1.20543 0
M  V30 15855 H 1419.47 -6.47875 -1.02926 0
M  V30 15856 H 1419.39 -7.55286 0.328376 0
M  V30 15857 H 1420.66 -7.74912 -0.844489 0
M  V30 15858 N 1424.89 -0.604284 -1.45555 0
M  V30 15859 C 1425.84 0.129013 -2.32242 0
M  V30 15860 C 1426.83 0.862933 -1.45773 0
M  V30 15861 O 1428.04 0.778874 -1.62276 0
M  V30 15862 H 1424.41 0.0604661 -0.749565 0
M  V30 15863 H 1426.38 -0.620603 -2.91875 0
M  V30 15864 C 1425.13 1.11516 -3.29332 0
M  V30 15865 H 1424.45 0.559849 -3.95861 0
M  V30 15866 H 1425.89 1.59824 -3.92724 0
M  V30 15867 C 1424.35 2.18706 -2.5626 0
M  V30 15868 O 1424.88 3.26397 -2.34154 0
M  V30 15869 N 1423.09 1.93899 -2.16452 0
M  V30 15870 H 1422.64 1.0633 -2.34631 0
M  V30 15871 H 1422.59 2.65824 -1.67884 0
M  V30 15872 N 1426.37 1.53816 -0.343257 0
M  V30 15873 C 1427.33 2.23654 0.501161 0
M  V30 15874 C 1428.33 1.23664 1.02781 0
M  V30 15875 O 1429.52 1.48104 0.917103 0
M  V30 15876 C 1426.65 2.95596 1.69812 0
M  V30 15877 H 1427.84 2.997 -0.109626 0
M  V30 15878 H 1425.4 1.56013 -0.0946011 0
M  V30 15879 H 1426.13 2.23736 2.34761 0
M  V30 15880 H 1425.92 3.68938 1.32768 0
M  V30 15881 H 1427.41 3.48748 2.29706 0
M  V30 15882 N 1427.84 0.0718701 1.57436 0
M  V30 15883 C 1428.79 -0.905443 2.0925 0
M  V30 15884 C 1429.78 -1.25875 1.00221 0
M  V30 15885 O 1430.97 -1.23771 1.26529 0
M  V30 15886 C 1428.1 -2.17298 2.65775 0
M  V30 15887 C 1427.19 -1.84614 3.81809 0
M  V30 15888 N 1427.58 -1.22381 4.90771 0
M  V30 15889 C 1425.87 -2.14364 3.91106 0
M  V30 15890 C 1426.58 -1.07791 5.71626 0
M  V30 15891 N 1425.55 -1.58764 5.19899 0
M  V30 15892 H 1429.35 -0.419955 2.90884 0
M  V30 15893 H 1426.87 -0.132017 1.61863 0
M  V30 15894 H 1428.86 -2.88231 3.01211 0
M  V30 15895 H 1427.52 -2.66434 1.85588 0
M  V30 15896 H 1428.54 -0.89345 5.10135 0
M  V30 15897 H 1425.21 -2.65877 3.21894 0
M  V30 15898 H 1426.6 -0.593061 6.69278 0
M  V30 15899 N 1429.32 -1.56304 -0.201686 0
M  V30 15900 C 1430.55 -1.84074 -0.938103 0
M  V30 15901 C 1430.96 -0.651377 -1.77634 0
M  V30 15902 O 1430.3 0.389278 -1.79528 0
M  V30 15903 C 1430.37 -3.05856 -1.88924 0
M  V30 15904 C 1430.03 -4.40036 -1.2336 0
M  V30 15905 C 1431.03 -5.16265 -0.613737 0
M  V30 15906 C 1428.71 -4.86768 -1.23942 0
M  V30 15907 C 1430.71 -6.37399 -0.00844569 0
M  V30 15908 C 1428.39 -6.07841 -0.630296 0
M  V30 15909 C 1429.39 -6.82998 -0.0158799 0
M  V30 15910 O 1429.08 -8.01778 0.58372 0
M  V30 15911 H 1428.81 -0.615492 -0.279545 0
M  V30 15912 H 1431.36 -2.04262 -0.215938 0
M  V30 15913 H 1429.59 -2.81536 -2.65093 0
M  V30 15914 H 1431.28 -3.20328 -2.49289 0
M  V30 15915 H 1432.05 -4.81257 -0.601424 0
M  V30 15916 H 1427.93 -4.2823 -1.70705 0
M  V30 15917 H 1431.47 -6.96003 0.47174 0
M  V30 15918 H 1427.37 -6.42319 -0.640089 0
M  V30 15919 H 1428.14 -8.17091 0.479979 0
M  V30 15920 N 1430.8 0.469154 -1.50455 0
M  V30 15921 C 1431.75 1.56691 -1.6946 0
M  V30 15922 C 1432.72 1.57217 -0.535921 0
M  V30 15923 O 1433.9 1.74717 -0.766715 0
M  V30 15924 C 1431.04 2.94651 -1.79651 0
M  V30 15925 C 1430.16 3.03899 -3.07033 0
M  V30 15926 C 1429.29 4.32786 -3.08009 0
M  V30 15927 C 1428.33 4.35784 -4.29836 0
M  V30 15928 N 1427.47 5.56145 -4.28541 0
M  V30 15929 H 1432.31 1.39791 -2.63178 0
M  V30 15930 H 1429.84 0.679628 -1.30459 0
M  V30 15931 H 1431.8 3.74658 -1.83541 0
M  V30 15932 H 1430.43 3.10182 -0.893713 0
M  V30 15933 H 1429.48 2.16754 -3.12605 0
M  V30 15934 H 1430.8 3.01974 -3.97005 0
M  V30 15935 H 1429.95 5.21141 -3.10639 0
M  V30 15936 H 1428.69 4.37323 -2.1587 0
M  V30 15937 H 1427.69 3.45825 -4.27417 0
M  V30 15938 H 1428.92 4.32937 -5.23204 0
M  V30 15939 H 1426.86 5.61464 -3.39256 0
M  V30 15940 H 1426.78 5.55969 -5.12284 0
M  V30 15941 H 1428.05 6.4662 -4.35319 0
M  V30 15942 N 1432.28 1.40065 0.722464 0
M  V30 15943 C 1433.23 1.39784 1.83655 0
M  V30 15944 C 1434.2 0.255743 1.64119 0
M  V30 15945 O 1435.38 0.452766 1.8535 0
M  V30 15946 C 1432.52 1.25946 3.21297 0
M  V30 15947 C 1431.63 2.49805 3.52451 0
M  V30 15948 C 1430.77 2.2846 4.79562 0
M  V30 15949 C 1429.81 3.4793 5.03598 0
M  V30 15950 N 1428.94 3.25823 6.21919 0
M  V30 15951 H 1433.78 2.35013 1.83229 0
M  V30 15952 H 1431.32 1.16728 0.895154 0
M  V30 15953 H 1433.28 1.15931 4.00769 0
M  V30 15954 H 1431.91 0.343402 3.20968 0
M  V30 15955 H 1430.96 2.70375 2.67585 0
M  V30 15956 H 1432.27 3.38753 3.66126 0
M  V30 15957 H 1431.43 2.15758 5.67039 0
M  V30 15958 H 1430.17 1.36926 4.68084 0
M  V30 15959 H 1429.17 3.61116 4.14579 0
M  V30 15960 H 1430.4 4.40382 5.16953 0
M  V30 15961 H 1428.34 2.36965 6.11705 0
M  V30 15962 H 1428.26 4.08333 6.36239 0
M  V30 15963 H 1429.53 3.16841 7.12202 0
M  V30 15964 N 1433.76 -0.95397 1.25448 0
M  V30 15965 C 1434.71 -2.07206 1.05681 0
M  V30 15966 C 1435.7 -1.69395 -0.0124672 0
M  V30 15967 O 1436.91 -1.79429 0.143201 0
M  V30 15968 H 1433.28 -0.678231 0.324817 0
M  V30 15969 H 1435.25 -2.21034 2.00466 0
M  V30 15970 C 1434 -3.40725 0.692955 0
M  V30 15971 H 1433.32 -3.70287 1.50756 0
M  V30 15972 H 1434.76 -4.19814 0.594351 0
M  V30 15973 C 1433.22 -3.31495 -0.601028 0
M  V30 15974 O 1433.75 -3.66565 -1.64296 0
M  V30 15975 N 1431.96 -2.84612 -0.586899 0
M  V30 15976 H 1431.51 -2.56271 0.261375 0
M  V30 15977 H 1431.46 -2.78819 -1.45284 0
M  V30 15978 N 1435.24 -1.07045 -1.15668 0
M  V30 15979 C 1436.47 -0.811567 -1.89992 0
M  V30 15980 C 1436.87 0.638628 -1.78096 0
M  V30 15981 O 1436.22 1.44953 -1.12846 0
M  V30 15982 C 1436.28 -1.13665 -3.41058 0
M  V30 15983 C 1435.94 -2.58681 -3.7674 0
M  V30 15984 C 1436.94 -3.56923 -3.78023 0
M  V30 15985 C 1434.62 -2.94178 -4.07142 0
M  V30 15986 C 1436.62 -4.88699 -4.09209 0
M  V30 15987 C 1434.31 -4.26152 -4.37993 0
M  V30 15988 C 1435.3 -5.23222 -4.39007 0
M  V30 15989 O 1434.99 -6.52826 -4.6912 0
M  V30 15990 H 1434.72 -0.293243 -0.609085 0
M  V30 15991 H 1437.28 -1.42941 -1.47502 0
M  V30 15992 H 1435.51 -0.461762 -3.83933 0
M  V30 15993 H 1437.2 -0.860808 -3.96667 0
M  V30 15994 H 1437.96 -3.30842 -3.54639 0
M  V30 15995 H 1433.84 -2.19272 -4.05513 0
M  V30 15996 H 1437.39 -5.6446 -4.09915 0
M  V30 15997 H 1433.28 -4.51988 -4.60844 0
M  V30 15998 H 1434.05 -6.5793 -4.86898 0
M  V30 15999 N 1436.71 1.32449 -0.85411 0
M  V30 16000 C 1437.66 2.2889 -0.296341 0
M  V30 16001 C 1438.63 1.55024 0.596378 0
M  V30 16002 O 1439.82 1.8325 0.531406 0
M  V30 16003 C 1436.96 3.41315 0.509729 0
M  V30 16004 C 1436.07 4.30062 -0.40872 0
M  V30 16005 C 1435.2 5.29616 0.409928 0
M  V30 16006 C 1434.24 6.10005 -0.505953 0
M  V30 16007 N 1433.38 7.01559 0.275483 0
M  V30 16008 H 1438.22 2.75989 -1.12401 0
M  V30 16009 H 1435.76 1.35787 -0.565717 0
M  V30 16010 H 1437.71 4.05218 0.992697 0
M  V30 16011 H 1436.34 2.95367 1.30223 0
M  V30 16012 H 1435.4 3.66745 -1.01007 0
M  V30 16013 H 1436.71 4.86255 -1.11165 0
M  V30 16014 H 1435.86 5.99119 0.956083 0
M  V30 16015 H 1434.6 4.74039 1.14623 0
M  V30 16016 H 1433.61 5.39406 -1.064 0
M  V30 16017 H 1434.83 6.67667 -1.24086 0
M  V30 16018 H 1432.78 6.48412 0.994887 0
M  V30 16019 H 1432.69 7.55102 -0.368426 0
M  V30 16020 H 1433.96 7.75349 0.803382 0
M  V30 16021 N 1438.19 0.611994 1.45232 0
M  V30 16022 C 1439.47 0.0407 1.95558 0
M  V30 16023 C 1439.85 -1.42839 1.55436 0
M  V30 16024 O 1439.2 -2.13316 0.819055 0
M  V30 16025 C 1439.41 0.243436 3.4815 0
M  V30 16026 C 1440.75 0.126551 4.24411 0
M  V30 16027 O 1441.78 0.17379 3.55776 0
M  V30 16028 O 1440.64 0.0153526 5.46498 0
M  V30 16029 H 1437.73 -0.0332288 0.826332 0
M  V30 16030 H 1440.28 0.682364 1.55377 0
M  V30 16031 H 1439.05 1.26357 3.70337 0
M  V30 16032 H 1438.67 -0.43328 3.95232 0
M  V30 16033 N 1439.67 -1.53632 0.351409 0
M  V30 16034 C 1440.62 -2.26782 -0.516983 0
M  V30 16035 C 1441.61 -1.29222 -1.09536 0
M  V30 16036 O 1442.82 -1.46901 -1.04019 0
M  V30 16037 H 1439.19 -0.728783 -0.185417 0
M  V30 16038 H 1441.16 -2.98151 0.121909 0
M  V30 16039 C 1439.91 -3.05943 -1.6521 0
M  V30 16040 H 1439.24 -3.80848 -1.21633 0
M  V30 16041 H 1440.68 -3.60328 -2.23472 0
M  V30 16042 C 1439.13 -2.15917 -2.58614 0
M  V30 16043 O 1439.66 -1.76049 -3.61067 0
M  V30 16044 N 1437.87 -1.80837 -2.27478 0
M  V30 16045 H 1437.42 -2.13456 -1.44202 0
M  V30 16046 H 1437.38 -1.20886 -2.90231 0
M  V30 16047 N 1441.15 -0.0802183 -1.57396 0
M  V30 16048 C 1442.1 0.901668 -2.14412 0
M  V30 16049 C 1443.09 1.30247 -1.08314 0
M  V30 16050 O 1444.3 1.27873 -1.26682 0
M  V30 16051 H 1440.67 0.308748 -0.685696 0
M  V30 16052 H 1442.64 0.395934 -2.95762 0
M  V30 16053 C 1441.39 2.15665 -2.72734 0
M  V30 16054 H 1440.71 1.8571 -3.54051 0
M  V30 16055 H 1442.15 2.82461 -3.16214 0
M  V30 16056 C 1440.61 2.9208 -1.67901 0
M  V30 16057 O 1441.14 3.86087 -1.10903 0
M  V30 16058 N 1439.35 2.55343 -1.38739 0
M  V30 16059 H 1438.9 1.78969 -1.85278 0
M  V30 16060 H 1438.85 3.06773 -0.688317 0
M  V30 16061 N 1442.63 1.56409 0.193394 0
M  V30 16062 C 1443.59 1.93822 1.22334 0
M  V30 16063 C 1444.59 0.819513 1.3835 0
M  V30 16064 O 1445.78 1.0869 1.36132 0
M  V30 16065 C 1442.91 2.21375 2.59241 0
M  V30 16066 H 1444.1 2.85967 0.903502 0
M  V30 16067 H 1441.66 1.50125 0.43498 0
M  V30 16068 H 1442.39 1.31874 2.96277 0
M  V30 16069 H 1442.18 3.02899 2.48988 0
M  V30 16070 H 1443.67 2.51319 3.33509 0
M  V30 16071 N 1444.1 -0.461169 1.50702 0
M  V30 16072 C 1445.05 -1.57861 1.70829 0
M  V30 16073 C 1446.05 -1.59371 0.57423 0
M  V30 16074 O 1447.25 -1.63401 0.754996 0
M  V30 16075 H 1443.63 -0.524015 0.539363 0
M  V30 16076 H 1445.6 -1.3805 2.64546 0
M  V30 16077 C 1444.35 -2.95724 1.82873 0
M  V30 16078 H 1443.67 -2.95285 2.6953 0
M  V30 16079 H 1445.11 -3.73342 2.00977 0
M  V30 16080 C 1443.57 -3.31823 0.582691 0
M  V30 16081 O 1444.1 -4.00767 -0.273623 0
M  V30 16082 N 1442.3 -2.87344 0.433781 0
M  V30 16083 H 1441.85 -2.31411 1.13166 0
M  V30 16084 H 1441.81 -3.11861 -0.398743 0
M  V30 16085 N 1445.58 -1.40446 -0.715026 0
M  V30 16086 C 1446.53 -1.40756 -1.82911 0
M  V30 16087 C 1447.5 -0.264443 -1.63981 0
M  V30 16088 O 1448.68 -0.462589 -1.85107 0
M  V30 16089 C 1445.82 -1.27648 -3.20624 0
M  V30 16090 C 1444.94 -2.5167 -3.51121 0
M  V30 16091 C 1444.07 -2.31 -4.78344 0
M  V30 16092 C 1443.11 -3.50596 -5.01746 0
M  V30 16093 N 1442.25 -3.29117 -6.20183 0
M  V30 16094 H 1447.09 -2.35981 -1.8198 0
M  V30 16095 H 1444.62 -1.17201 -0.888951 0
M  V30 16096 H 1446.58 -1.18054 -4.00149 0
M  V30 16097 H 1445.21 -0.360419 -3.20782 0
M  V30 16098 H 1444.26 -2.7179 -2.66147 0
M  V30 16099 H 1445.58 -3.4069 -3.64324 0
M  V30 16100 H 1444.73 -2.18763 -5.65887 0
M  V30 16101 H 1443.47 -1.39406 -4.67351 0
M  V30 16102 H 1442.47 -3.63309 -4.12658 0
M  V30 16103 H 1443.7 -4.43117 -5.14611 0
M  V30 16104 H 1441.65 -2.40206 -6.1044 0
M  V30 16105 H 1441.56 -4.11702 -6.34064 0
M  V30 16106 H 1442.83 -3.20614 -7.10512 0
M  V30 16107 N 1447.06 0.947303 -1.25952 0
M  V30 16108 C 1448.01 2.06642 -1.06779 0
M  V30 16109 C 1449 1.694 0.00348362 0
M  V30 16110 O 1450.21 1.79351 -0.152715 0
M  V30 16111 H 1446.58 0.676499 -0.32841 0
M  V30 16112 H 1448.55 2.19968 -2.01635 0
M  V30 16113 C 1447.3 3.40353 -0.711015 0
M  V30 16114 H 1446.63 3.69483 -1.52718 0
M  V30 16115 H 1448.07 4.19493 -0.616606 0
M  V30 16116 C 1446.52 3.3181 0.58344 0
M  V30 16117 O 1447.05 3.67431 1.6235 0
M  V30 16118 N 1445.26 2.84919 0.571797 0
M  V30 16119 H 1444.81 2.56128 -0.274962 0
M  V30 16120 H 1444.77 2.79586 1.43803 0
M  V30 16121 N 1448.54 1.07657 1.15099 0
M  V30 16122 C 1449.77 0.821631 1.89559 0
M  V30 16123 C 1450.18 -0.629174 1.78432 0
M  V30 16124 O 1449.52 -1.44353 1.13613 0
M  V30 16125 C 1449.58 1.15473 3.4045 0
M  V30 16126 C 1449.25 2.60675 3.75363 0
M  V30 16127 C 1450.24 3.58923 3.76125 0
M  V30 16128 C 1447.93 2.96333 4.05576 0
M  V30 16129 C 1449.92 4.90863 4.06611 0
M  V30 16130 C 1447.61 4.28469 4.35727 0
M  V30 16131 C 1448.61 5.25543 4.36226 0
M  V30 16132 O 1448.29 6.55305 4.65651 0
M  V30 16133 H 1448.03 0.296469 0.607521 0
M  V30 16134 H 1450.58 1.43722 1.46742 0
M  V30 16135 H 1448.81 0.482117 3.83683 0
M  V30 16136 H 1450.5 0.881832 3.96205 0
M  V30 16137 H 1451.27 3.32718 3.52879 0
M  V30 16138 H 1447.14 2.2142 4.04344 0
M  V30 16139 H 1450.69 5.66626 4.06916 0
M  V30 16140 H 1446.59 4.54425 4.58441 0
M  V30 16141 H 1447.35 6.60503 4.83402 0
M  V30 16142 N 1450.02 -1.31994 0.861122 0
M  V30 16143 C 1450.96 -2.28729 0.308476 0
M  V30 16144 C 1451.93 -1.55338 -0.588148 0
M  V30 16145 O 1453.12 -1.8353 -0.52168 0
M  V30 16146 C 1450.26 -3.4158 -0.491621 0
M  V30 16147 C 1449.37 -4.29839 0.431522 0
M  V30 16148 C 1448.51 -5.29826 -0.381836 0
M  V30 16149 C 1447.55 -6.09728 0.538296 0
M  V30 16150 N 1446.68 -7.01696 -0.238274 0
M  V30 16151 H 1451.52 -2.75389 1.13863 0
M  V30 16152 H 1449.06 -1.35485 0.572911 0
M  V30 16153 H 1451.02 -4.05738 -0.971193 0
M  V30 16154 H 1449.65 -2.96054 -1.28654 0
M  V30 16155 H 1448.7 -3.66204 1.02951 0
M  V30 16156 H 1450.01 -4.85658 1.13742 0
M  V30 16157 H 1449.17 -5.99618 -0.924297 0
M  V30 16158 H 1447.9 -4.7464 -1.12107 0
M  V30 16159 H 1446.91 -5.38834 1.09259 0
M  V30 16160 H 1448.13 -6.67 1.27625 0
M  V30 16161 H 1446.08 -6.4893 -0.960486 0
M  V30 16162 H 1446 -7.54896 0.408466 0
M  V30 16163 H 1447.27 -7.75764 -0.762252 0
M  V30 16164 N 1451.49 -0.619688 -1.44906 0
M  V30 16165 C 1452.44 0.0920359 -2.30616 0
M  V30 16166 C 1453.41 0.848114 -1.42815 0
M  V30 16167 O 1454.6 0.831439 -1.71732 0
M  V30 16168 C 1451.74 1.07537 -3.27917 0
M  V30 16169 C 1450.85 0.318904 -4.30821 0
M  V30 16170 C 1449.98 1.29303 -5.15222 0
M  V30 16171 C 1449.02 0.525071 -6.09844 0
M  V30 16172 N 1448.16 1.44909 -6.86983 0
M  V30 16173 H 1453 -0.644834 -2.9094 0
M  V30 16174 H 1450.54 -0.329785 -1.43356 0
M  V30 16175 H 1452.5 1.65874 -3.82808 0
M  V30 16176 H 1451.13 1.7795 -2.6932 0
M  V30 16177 H 1450.18 -0.380192 -3.78495 0
M  V30 16178 H 1451.49 -0.279742 -4.98015 0
M  V30 16179 H 1450.64 1.94809 -5.74573 0
M  V30 16180 H 1449.38 1.92561 -4.48076 0
M  V30 16181 H 1448.39 -0.14355 -5.49613 0
M  V30 16182 H 1449.61 -0.102625 -6.79022 0
M  V30 16183 H 1447.56 2.06908 -6.22515 0
M  V30 16184 H 1447.48 0.90418 -7.50574 0
M  V30 16185 H 1448.74 2.09335 -7.50866 0
M  V30 16186 N 1452.97 1.53444 -0.359552 0
M  V30 16187 C 1453.92 2.27053 0.504949 0
M  V30 16188 C 1454.91 1.29801 1.08849 0
M  V30 16189 O 1456.12 1.47451 1.03239 0
M  V30 16190 H 1452.5 0.729756 0.181549 0
M  V30 16191 H 1454.47 2.98082 -0.137719 0
M  V30 16192 C 1453.22 3.06815 1.63585 0
M  V30 16193 H 1452.54 3.81488 1.19611 0
M  V30 16194 H 1453.98 3.61508 2.21558 0
M  V30 16195 C 1452.44 2.17286 2.57466 0
M  V30 16196 O 1452.97 1.77961 3.60129 0
M  V30 16197 N 1451.17 1.82041 2.26516 0
M  V30 16198 H 1450.72 2.14218 1.43068 0
M  V30 16199 H 1450.68 1.22423 2.89586 0
M  V30 16200 O 1454.49 0.228504 1.59875 0
M  V30 16201 H 1455.18 -0.350657 1.905 0
M  V30 END ATOM
M  V30 BEGIN BOND
M  V30 END BOND
M  V30 END CTAB
M  END
$$$$
