drugbank_target|Q9ZHG9 L-cysteine/cystine lyase C-DES (DB02761; DB04467)
 OpenBabel12092120253D

  0  0  0     0  0            999 V3000
M  V30 BEGIN CTAB
M  V30 COUNTS 6028 6107 0 0 0
M  V30 BEGIN ATOM
M  V30 1 H -0.908 1.98254 -0.117106 0
M  V30 2 N 0 1.576 0 0
M  V30 3 C 0.933 2.03868 1.02534 0
M  V30 4 C 1.911 0.928543 1.3348 0
M  V30 5 O 3.095 1.19667 1.45644 0
M  V30 6 C 0.222 2.43627 2.35294 0
M  V30 7 C -0.732 3.65373 2.2001 0
M  V30 8 S 0.101 5.13292 1.52614 0
M  V30 9 C 1.257 5.56322 2.86805 0
M  V30 10 H 1.49 2.90518 0.631377 0
M  V30 11 H -0.977 1.52953 0.210867 0
M  V30 12 H 0.981 2.67203 3.11629 0
M  V30 13 H -0.358 1.57376 2.7183 0
M  V30 14 H -1.165 3.90944 3.18086 0
M  V30 15 H -1.563 3.418 1.51819 0
M  V30 16 H 0.729 5.58782 3.83104 0
M  V30 17 H 1.672 6.56266 2.65933 0
M  V30 18 H 2.08 4.83886 2.90714 0
M  V30 19 N 1.4781 -0.272755 1.55222 0
M  V30 20 C 2.4411 -1.32041 1.87344 0
M  V30 21 C 3.4411 -1.42342 0.74803 0
M  V30 22 O 4.6311 -1.41488 1.0162 0
M  V30 23 C 1.7631 -2.70173 2.07893 0
M  V30 24 H 2.9561 -1.04789 2.80997 0
M  V30 25 H 0.5091 -0.51083 1.47717 0
M  V30 26 H 1.2441 -3.02605 1.16622 0
M  V30 27 H 1.0291 -2.64082 2.89833 0
M  V30 28 H 2.5191 -3.45869 2.34017 0
M  V30 29 N 2.9562 -1.48159 -0.537278 0
M  V30 30 C 4.2332 -1.46291 -1.29839 0
M  V30 31 C 4.6132 -0.170613 -2.10409 0
M  V30 32 O 3.9612 0.847746 -2.12192 0
M  V30 33 C 4.1712 -2.72055 -2.18603 0
M  V30 34 C 5.5192 -3.20087 -2.7898 0
M  V30 35 O 6.5432 -2.72921 -2.28894 0
M  V30 36 O 5.4022 -4.02138 -3.70064 0
M  V30 37 H 2.4962 -0.583906 -0.585647 0
M  V30 38 H 5.0422 -1.60384 -0.554534 0
M  V30 39 H 3.8142 -3.57628 -1.58801 0
M  V30 40 H 3.4372 -2.60646 -3.00249 0
M  V30 41 N 4.4343 0.785586 -1.36625 0
M  V30 42 C 5.8453 1.36101 -1.27803 0
M  V30 43 C 6.1963 1.96035 0.0804875 0
M  V30 44 O 5.3213 1.92834 0.982042 0
M  V30 45 C 5.9163 2.47442 -2.31426 0
M  V30 46 C 4.4753 3.00789 -2.26281 0
M  V30 47 C 3.6223 1.73896 -2.15999 0
M  V30 48 H 6.5733 0.586928 -1.47448 0
M  V30 49 H 6.5943 3.2656 -1.95291 0
M  V30 50 H 6.1063 2.03791 -3.30289 0
M  V30 51 H 4.2073 3.48851 -1.30896 0
M  V30 52 H 4.3203 3.57343 -3.19128 0
M  V30 53 H 2.6843 1.9628 -1.62316 0
M  V30 54 H 3.4673 1.32368 -3.16755 0
M  V30 55 N 5.9124 1.20967 1.01018 0
M  V30 56 C 7.1584 1.02526 1.74975 0
M  V30 57 C 7.4914 -0.4408 1.89131 0
M  V30 58 O 6.7664 -1.32718 1.42184 0
M  V30 59 C 7.0494 1.71699 3.1653 0
M  V30 60 C 6.9024 3.25791 3.10129 0
M  V30 61 C 8.2214 1.45531 4.15342 0
M  V30 62 H 5.3404 0.373863 0.635134 0
M  V30 63 H 7.9824 1.49071 1.17805 0
M  V30 64 H 6.1324 1.32128 3.65341 0
M  V30 65 H 7.8044 3.74697 2.69072 0
M  V30 66 H 6.0474 3.56363 2.47362 0
M  V30 67 H 6.7184 3.69353 4.10222 0
M  V30 68 H 9.1944 1.79872 3.75213 0
M  V30 69 H 8.0704 1.96453 5.1254 0
M  V30 70 H 8.3314 0.384237 4.40427 0
M  V30 71 N 7.3905 -1.2043 1.01659 0
M  V30 72 C 8.3385 -2.25249 0.580143 0
M  V30 73 C 9.3325 -1.65057 -0.381115 0
M  V30 74 O 10.5385 -1.78241 -0.251039 0
M  V30 75 H 6.9135 -0.732695 0.169299 0
M  V30 76 H 8.8845 -2.59389 1.47512 0
M  V30 77 C 7.6335 -3.47638 -0.065788 0
M  V30 78 H 6.9565 -3.94233 0.664874 0
M  V30 79 H 8.3965 -4.2268 -0.334282 0
M  V30 80 C 6.8555 -3.10447 -1.3086 0
M  V30 81 O 7.3855 -3.21981 -2.4019 0
M  V30 82 N 5.5915 -2.64996 -1.1927 0
M  V30 83 H 5.1385 -2.55811 -0.303064 0
M  V30 84 H 5.0965 -2.40482 -2.02523 0
M  V30 85 N 8.8686 -0.792821 -1.36206 0
M  V30 86 C 9.7986 -0.207853 -2.32573 0
M  V30 87 C 10.7796 0.659055 -1.56813 0
M  V30 88 O 11.9646 0.592176 -1.84951 0
M  V30 89 C 9.0946 0.655449 -3.41059 0
M  V30 90 C 8.0486 -0.111842 -4.27854 0
M  V30 91 C 7.3746 0.872274 -5.27537 0
M  V30 92 C 8.6746 -1.30299 -5.05786 0
M  V30 93 H 10.3686 -1.01294 -2.81744 0
M  V30 94 H 7.9146 -0.48854 -1.3546 0
M  V30 95 H 9.8676 1.07464 -4.07467 0
M  V30 96 H 8.5916 1.49328 -2.90463 0
M  V30 97 H 7.2506 -0.512053 -3.63006 0
M  V30 98 H 6.8986 1.70523 -4.73214 0
M  V30 99 H 6.5986 0.363291 -5.86476 0
M  V30 100 H 8.1226 1.28996 -5.96818 0
M  V30 101 H 9.5366 -0.959379 -5.65216 0
M  V30 102 H 7.9336 -1.7455 -5.74154 0
M  V30 103 H 9.0036 -2.09663 -4.37229 0
M  V30 104 N 10.3467 1.47872 -0.545128 0
M  V30 105 C 11.5957 2.01695 -0.0145033 0
M  V30 106 C 11.9087 1.42609 1.33873 0
M  V30 107 O 13.1147 1.88021 1.95858 0
M  V30 108 C 11.5707 3.59892 0.0245068 0
M  V30 109 C 11.1787 4.27966 -1.32475 0
M  V30 110 C 12.9227 4.21507 0.50316 0
M  V30 111 C 10.8297 5.78136 -1.2455 0
M  V30 112 H 9.7597 0.753998 -0.00165172 0
M  V30 113 H 12.4107 1.69985 -0.691175 0
M  V30 114 H 10.7927 3.88509 0.766575 0
M  V30 115 H 11.9667 4.11003 -2.08357 0
M  V30 116 H 10.2817 3.78286 -1.74036 0
M  V30 117 H 12.8787 5.31538 0.580656 0
M  V30 118 H 13.2217 3.87855 1.51243 0
M  V30 119 H 13.7547 3.97376 -0.183681 0
M  V30 120 H 10.4937 6.16388 -2.23039 0
M  V30 121 H 10.0137 5.97469 -0.528282 0
M  V30 122 H 11.6927 6.40099 -0.942488 0
M  V30 123 N 11.8248 0.280983 1.55075 0
M  V30 124 C 13.2358 -0.215629 1.85451 0
M  V30 125 C 13.5868 -1.54991 1.203 0
M  V30 126 O 12.7118 -2.10699 0.493435 0
M  V30 127 C 13.3068 -0.398026 3.36454 0
M  V30 128 C 11.8658 -0.838866 3.66933 0
M  V30 129 C 11.0128 0.064458 2.77225 0
M  V30 130 H 13.9638 0.502601 1.50531 0
M  V30 131 H 13.9848 -1.23569 3.59876 0
M  V30 132 H 13.4968 0.573241 3.83843 0
M  V30 133 H 11.5978 -1.8214 3.25048 0
M  V30 134 H 11.7108 -0.672123 4.74362 0
M  V30 135 H 10.0748 -0.452863 2.50642 0
M  V30 136 H 10.8578 1.03172 3.2743 0
M  V30 137 N 13.3029 -1.57598 0.00835791 0
M  V30 138 C 14.5799 -1.82172 -0.712235 0
M  V30 139 C 14.9599 -0.887873 -1.9152 0
M  V30 140 O 14.3079 0.06146 -2.28417 0
M  V30 141 C 14.5179 -3.30875 -1.11008 0
M  V30 142 C 15.8659 -3.96826 -1.51044 0
M  V30 143 O 16.8899 -3.35248 -1.20364 0
M  V30 144 O 15.7489 -5.05318 -2.08125 0
M  V30 145 H 12.8429 -0.750435 -0.347529 0
M  V30 146 H 15.3889 -1.69665 0.0344523 0
M  V30 147 H 14.1609 -3.90481 -0.252982 0
M  V30 148 H 13.7839 -3.48412 -1.9156 0
M  V30 149 N 14.781 0.264519 -1.55364 0
M  V30 150 C 16.197 0.61215 -1.47394 0
M  V30 151 C 16.397 1.89134 -0.695018 0
M  V30 152 O 15.453 2.51563 -0.217275 0
M  V30 153 C 16.766 0.731235 -2.91674 0
M  V30 154 C 18.314 0.82473 -3.01939 0
M  V30 155 C 18.789 0.975522 -4.4749 0
M  V30 156 N 20.28 1.04083 -4.51354 0
M  V30 157 C 21.015 1.17646 -5.61201 0
M  V30 158 N 20.511 1.27874 -6.80896 0
M  V30 159 N 22.304 1.20823 -5.48961 0
M  V30 160 H 14.455 -0.575456 -2.04456 0
M  V30 161 H 16.718 -0.196099 -0.927496 0
M  V30 162 H 16.424 -0.138392 -3.51428 0
M  V30 163 H 16.298 1.60883 -3.41169 0
M  V30 164 H 18.685 1.68482 -2.42276 0
M  V30 165 H 18.766 -0.0776479 -2.55682 0
M  V30 166 H 18.41 0.120058 -5.07758 0
M  V30 167 H 18.34 1.89268 -4.91412 0
M  V30 168 H 20.831 0.973846 -3.65136 0
M  V30 169 H 21.144 1.38081 -7.60364 0
M  V30 170 H 19.489 1.24863 -6.83692 0
M  V30 171 H 22.68 1.12469 -4.54388 0
M  V30 172 H 22.853 1.31049 -6.3461 0
M  V30 173 N 16.2591 1.48442 0.529413 0
M  V30 174 C 17.2091 1.59407 1.63014 0
M  V30 175 C 18.1931 0.451166 1.54445 0
M  V30 176 O 19.3851 0.702635 1.62456 0
M  V30 177 C 16.5141 1.63746 3.01732 0
M  V30 178 C 15.6001 2.83518 3.15402 0
M  V30 179 N 15.9911 4.07929 2.99045 0
M  V30 180 C 14.2891 2.80862 3.46457 0
M  V30 181 C 14.9901 4.8829 3.16146 0
M  V30 182 N 13.9661 4.21117 3.43746 0
M  V30 183 H 17.7681 2.53343 1.48978 0
M  V30 184 H 15.2821 1.44821 0.734885 0
M  V30 185 H 17.2791 1.69695 3.80801 0
M  V30 186 H 15.9391 0.709264 3.16859 0
M  V30 187 H 16.9501 4.38357 2.75796 0
M  V30 188 H 13.6271 1.97301 3.67938 0
M  V30 189 H 15.0171 5.97028 3.08232 0
M  V30 190 N 17.7372 -0.778329 1.37039 0
M  V30 191 C 18.6692 -1.90034 1.2814 0
M  V30 192 C 19.6822 -1.61585 0.198558 0
M  V30 193 O 20.8712 -1.72625 0.454175 0
M  V30 194 C 17.9712 -3.25108 0.956968 0
M  V30 195 C 17.1442 -3.81253 2.14394 0
M  V30 196 C 16.2032 -4.94789 1.79082 0
M  V30 197 O 15.2292 -5.10721 2.51301 0
M  V30 198 N 16.4312 -5.75878 0.731043 0
M  V30 199 H 19.1962 -1.98186 2.24816 0
M  V30 200 H 16.7572 -0.957129 1.30578 0
M  V30 201 H 18.7492 -3.9857 0.701701 0
M  V30 202 H 17.3192 -3.125 0.0789812 0
M  V30 203 H 16.5392 -2.99647 2.56135 0
M  V30 204 H 17.8272 -4.15495 2.93668 0
M  V30 205 H 17.2252 -5.65547 0.131618 0
M  V30 206 H 15.7822 -6.49596 0.535622 0
M  V30 207 N 19.2153 -1.21501 -1.00376 0
M  V30 208 C 20.4623 -1.03299 -1.74171 0
M  V30 209 C 20.7903 0.433326 -1.89612 0
M  V30 210 O 20.0453 1.33779 -1.42834 0
M  V30 211 C 20.3443 -1.67673 -3.15627 0
M  V30 212 C 20.0103 -3.17533 -3.2013 0
M  V30 213 C 18.6723 -3.58427 -3.21067 0
M  V30 214 C 21.0243 -4.13504 -3.17275 0
M  V30 215 C 18.3523 -4.93794 -3.16835 0
M  V30 216 C 20.7043 -5.48834 -3.14585 0
M  V30 217 C 19.3683 -5.89123 -3.13831 0
M  V30 218 H 18.6383 -0.377999 -0.637336 0
M  V30 219 H 21.2853 -1.51111 -1.17634 0
M  V30 220 H 19.5903 -1.12158 -3.75404 0
M  V30 221 H 21.2873 -1.51091 -3.71446 0
M  V30 222 H 17.8773 -2.84965 -3.20145 0
M  V30 223 H 22.0613 -3.82936 -3.15711 0
M  V30 224 H 17.3173 -5.24255 -3.1459 0
M  V30 225 H 21.4913 -6.22934 -3.1133 0
M  V30 226 H 19.1183 -6.93984 -3.10307 0
M  V30 227 N 20.6934 1.19889 -1.02296 0
M  V30 228 C 22.1044 1.71124 -0.746568 0
M  V30 229 C 22.4554 1.81939 0.734335 0
M  V30 230 O 21.5804 1.48639 1.57275 0
M  V30 231 C 22.1754 3.10804 -1.34857 0
M  V30 232 C 20.7344 3.59323 -1.1209 0
M  V30 233 C 19.8814 2.3635 -1.45031 0
M  V30 234 H 22.8324 1.04813 -1.19163 0
M  V30 235 H 22.8534 3.73186 -0.742437 0
M  V30 236 H 22.3654 3.029 -2.42638 0
M  V30 237 H 20.4664 3.7255 -0.0610337 0
M  V30 238 H 20.5794 4.4378 -1.80544 0
M  V30 239 H 18.9434 2.39399 -0.869487 0
M  V30 240 H 19.7264 2.31081 -2.53883 0
M  V30 241 N 22.1715 0.800033 1.35784 0
M  V30 242 C 23.4195 0.376597 1.9856 0
M  V30 243 C 23.7405 -1.05812 1.63795 0
M  V30 244 O 23.0105 -1.73103 0.917171 0
M  V30 245 H 21.5905 0.136261 0.734467 0
M  V30 246 H 24.2525 1.02442 1.65806 0
M  V30 247 H 23.3485 0.477002 3.08433 0
M  V30 248 N 23.6496 -1.47581 0.552962 0
M  V30 249 C 24.5796 -2.32762 -0.185451 0
M  V30 250 C 25.5606 -1.43527 -0.912905 0
M  V30 251 O 26.7456 -1.72388 -0.894201 0
M  V30 252 C 23.8756 -3.25219 -1.21859 0
M  V30 253 C 22.8296 -4.23661 -0.607864 0
M  V30 254 C 22.1556 -5.05413 -1.74533 0
M  V30 255 C 23.4556 -5.20481 0.435582 0
M  V30 256 H 25.1496 -2.94749 0.525684 0
M  V30 257 H 22.6956 -1.41738 0.254251 0
M  V30 258 H 24.6486 -3.8365 -1.7433 0
M  V30 259 H 23.3726 -2.61279 -1.95961 0
M  V30 260 H 22.0316 -3.66451 -0.104489 0
M  V30 261 H 21.6796 -4.3788 -2.47529 0
M  V30 262 H 21.3796 -5.72059 -1.34249 0
M  V30 263 H 22.9036 -5.66701 -2.27338 0
M  V30 264 H 24.3176 -5.733 -0.00290157 0
M  V30 265 H 22.7146 -5.95305 0.757067 0
M  V30 266 H 23.7846 -4.66217 1.33303 0
M  V30 267 N 25.1277 -0.289203 -1.54924 0
M  V30 268 C 26.0907 0.579144 -2.21762 0
M  V30 269 C 27.0907 1.07047 -1.1999 0
M  V30 270 O 28.2807 0.968384 -1.44803 0
M  V30 271 C 25.4127 1.80055 -2.8947 0
M  V30 272 H 26.6057 -0.00464908 -2.999 0
M  V30 273 H 24.1587 -0.0399306 -1.56249 0
M  V30 274 H 24.8937 2.42449 -2.15381 0
M  V30 275 H 24.6787 1.45602 -3.64064 0
M  V30 276 H 26.1687 2.41773 -3.40493 0
M  V30 277 N 26.6058 1.57591 -0.0167156 0
M  V30 278 C 27.5538 2.10604 0.987353 0
M  V30 279 C 28.5478 1.02977 1.34507 0
M  V30 280 O 29.7538 1.21425 1.32875 0
M  V30 281 H 26.1288 0.672695 0.336134 0
M  V30 282 H 28.0998 2.93925 0.514817 0
M  V30 283 C 26.8488 2.6382 2.26483 0
M  V30 284 H 26.1718 3.46278 1.99829 0
M  V30 285 H 27.6118 3.04573 2.94977 0
M  V30 286 C 26.0708 1.55992 2.9861 0
M  V30 287 O 26.6008 0.952521 3.90243 0
M  V30 288 N 24.8068 1.28335 2.60727 0
M  V30 289 H 24.3538 1.77914 1.86291 0
M  V30 290 H 24.3118 0.564115 3.09298 0
M  V30 291 N 28.0839 -0.256276 1.55502 0
M  V30 292 C 29.0309 -1.31714 1.89526 0
M  V30 293 C 30.0009 -1.4828 0.748479 0
M  V30 294 O 31.1859 -1.62416 1.00128 0
M  V30 295 C 28.3259 -2.66933 2.18725 0
M  V30 296 C 27.4389 -2.58452 3.4616 0
M  V30 297 C 26.5739 -3.85961 3.64976 0
M  V30 298 C 25.6129 -3.72059 4.86044 0
M  V30 299 N 24.7499 -4.9144 5.01429 0
M  V30 300 H 29.5899 -1.01998 2.80001 0
M  V30 301 H 27.1269 -0.492413 1.38613 0
M  V30 302 H 29.0849 -3.4563 2.33657 0
M  V30 303 H 27.7149 -2.94816 1.31466 0
M  V30 304 H 26.7669 -1.71374 3.3961 0
M  V30 305 H 28.0789 -2.44085 4.34999 0
M  V30 306 H 27.2329 -4.73101 3.79816 0
M  V30 307 H 25.9719 -4.03215 2.74353 0
M  V30 308 H 24.9769 -2.83302 4.7119 0
M  V30 309 H 26.2019 -3.56309 5.78118 0
M  V30 310 H 24.1479 -5.09072 4.13741 0
M  V30 311 H 24.0649 -4.79668 5.84341 0
M  V30 312 H 25.3329 -5.80104 5.20672 0
M  V30 313 N 29.562 -1.4872 -0.521534 0
M  V30 314 C 30.79 -1.60843 -1.30142 0
M  V30 315 C 31.205 -0.271897 -1.86832 0
M  V30 316 O 30.562 0.739969 -1.66825 0
M  V30 317 C 30.613 -2.66155 -2.4463 0
M  V30 318 O 30.334 -3.94623 -1.90275 0
M  V30 319 C 31.835 -2.88795 -3.36322 0
M  V30 320 H 29.055 -0.542075 -0.395468 0
M  V30 321 H 31.599 -1.94609 -0.628285 0
M  V30 322 H 29.754 -2.35224 -3.07812 0
M  V30 323 H 30.168 -4.52468 -2.65279 0
M  V30 324 H 31.642 -3.66264 -4.12983 0
M  V30 325 H 32.119 -1.97934 -3.9207 0
M  V30 326 H 32.725 -3.21063 -2.78924 0
M  V30 327 N 31.0401 0.771051 -1.3745 0
M  V30 328 C 32.2701 1.55789 -1.35696 0
M  V30 329 C 32.6781 1.89107 0.0594523 0
M  V30 330 O 32.0211 1.51984 1.03183 0
M  V30 331 C 32.0831 2.89515 -2.13123 0
M  V30 332 C 31.7471 2.78829 -3.62082 0
M  V30 333 C 32.7441 2.49812 -4.5595 0
M  V30 334 C 30.4291 2.9683 -4.05213 0
M  V30 335 C 32.4231 2.38923 -5.90927 0
M  V30 336 C 30.1101 2.85562 -5.40276 0
M  V30 337 C 31.1081 2.56649 -6.32946 0
M  V30 338 O 30.7961 2.45408 -7.65526 0
M  V30 339 H 30.5281 0.489257 -0.466481 0
M  V30 340 H 33.0821 0.963446 -1.81403 0
M  V30 341 H 31.3121 3.51081 -1.62107 0
M  V30 342 H 33.0011 3.50915 -2.03994 0
M  V30 343 H 33.7671 2.3559 -4.23937 0
M  V30 344 H 29.6461 3.18335 -3.33442 0
M  V30 345 H 33.1901 2.16277 -6.63227 0
M  V30 346 H 29.0871 2.99351 -5.71891 0
M  V30 347 H 29.8551 2.60753 -7.75855 0
M  V30 348 N 32.5182 1.22032 0.997298 0
M  V30 349 C 33.7652 1.04222 1.73621 0
M  V30 350 C 34.0932 -0.423264 1.89839 0
M  V30 351 O 33.3482 -1.3302 1.43542 0
M  V30 352 C 33.6472 1.69345 3.14733 0
M  V30 353 C 33.3132 3.19226 3.18442 0
M  V30 354 C 31.9752 3.60124 3.19161 0
M  V30 355 C 34.3272 4.15181 3.15078 0
M  V30 356 C 31.6552 4.95467 3.14212 0
M  V30 357 C 34.0072 5.50495 3.1167 0
M  V30 358 C 32.6712 5.90779 3.10703 0
M  V30 359 H 31.9412 0.381374 0.635323 0
M  V30 360 H 34.5882 1.51732 1.16831 0
M  V30 361 H 32.8932 1.14147 3.74803 0
M  V30 362 H 34.5902 1.53059 3.7064 0
M  V30 363 H 31.1802 2.86659 3.18629 0
M  V30 364 H 35.3642 3.84605 3.13676 0
M  V30 365 H 30.6202 5.25916 3.11805 0
M  V30 366 H 34.7942 6.24576 3.08022 0
M  V30 367 H 32.4212 6.9562 3.06622 0
M  V30 368 N 33.9963 -1.19345 1.0293 0
M  V30 369 C 34.9443 -2.24621 0.604001 0
M  V30 370 C 35.9383 -1.65452 -0.363587 0
M  V30 371 O 37.1443 -1.78497 -0.23212 0
M  V30 372 H 33.5193 -0.730858 0.177061 0
M  V30 373 H 35.4903 -2.5781 1.50255 0
M  V30 374 C 34.2393 -3.47688 -0.0289127 0
M  V30 375 H 33.5623 -3.93505 0.706651 0
M  V30 376 H 35.0023 -4.23011 -0.289432 0
M  V30 377 C 33.4613 -3.11817 -1.2756 0
M  V30 378 O 33.9913 -3.2451 -2.36762 0
M  V30 379 N 32.1973 -2.66246 -1.16453 0
M  V30 380 H 31.7443 -2.56118 -0.275914 0
M  V30 381 H 31.7023 -2.42617 -1.99961 0
M  V30 382 N 35.4744 -0.807222 -1.35358 0
M  V30 383 C 36.7214 -0.387888 -1.9875 0
M  V30 384 C 37.0494 1.04509 -1.64037 0
M  V30 385 O 36.3044 1.73986 -0.895946 0
M  V30 386 C 36.6034 -0.519036 -3.53611 0
M  V30 387 C 36.2694 -1.91542 -4.08194 0
M  V30 388 C 34.9314 -2.29745 -4.22813 0
M  V30 389 C 37.2834 -2.82896 -4.37744 0
M  V30 390 C 34.6114 -3.58668 -4.643 0
M  V30 391 C 36.9634 -4.11265 -4.8067 0
M  V30 392 C 35.6274 -4.49466 -4.93494 0
M  V30 393 H 34.8974 -0.141938 -0.727279 0
M  V30 394 H 37.5444 -1.02814 -1.6156 0
M  V30 395 H 35.8494 0.204658 -3.91265 0
M  V30 396 H 37.5464 -0.175345 -4.00616 0
M  V30 397 H 34.1364 -1.60862 -3.97268 0
M  V30 398 H 38.3204 -2.54629 -4.26002 0
M  V30 399 H 33.5764 -3.88113 -4.72418 0
M  V30 400 H 37.7504 -4.82153 -5.02496 0
M  V30 401 H 35.3774 -5.49418 -5.25399 0
M  V30 402 N 36.9525 1.47285 -0.560781 0
M  V30 403 C 38.2005 2.02064 -0.0379868 0
M  V30 404 C 38.5215 1.43711 1.31803 0
M  V30 405 O 37.7915 0.61362 1.86042 0
M  V30 406 H 36.3715 0.746918 -0.0110531 0
M  V30 407 H 39.0335 1.80648 -0.731598 0
M  V30 408 H 38.1295 3.12064 0.0474463 0
M  V30 409 N 38.4306 0.297415 1.54768 0
M  V30 410 C 39.6786 -0.312295 1.99673 0
M  V30 411 C 39.9996 -1.54686 1.18732 0
M  V30 412 O 39.2696 -1.93854 0.282382 0
M  V30 413 H 37.8496 -0.118381 0.73756 0
M  V30 414 H 40.5116 0.407915 1.90583 0
M  V30 415 H 39.6076 -0.586813 3.06534 0
M  V30 416 N 39.9087 -1.5758 0.0250728 0
M  V30 417 C 40.8407 -2.06869 -0.986796 0
M  V30 418 C 41.8537 -0.991332 -1.29137 0
M  V30 419 O 43.0427 -1.26761 -1.25674 0
M  V30 420 C 40.1427 -2.47486 -2.31525 0
M  V30 421 C 39.3157 -3.78253 -2.19643 0
M  V30 422 C 38.3747 -4.05464 -3.35388 0
M  V30 423 O 37.4007 -4.75774 -3.12454 0
M  V30 424 N 38.6027 -3.55321 -4.59051 0
M  V30 425 H 41.3677 -2.94302 -0.566276 0
M  V30 426 H 38.9287 -1.6109 -0.161776 0
M  V30 427 H 40.9207 -2.62785 -3.07776 0
M  V30 428 H 39.4907 -1.65441 -2.65232 0
M  V30 429 H 38.7107 -3.7279 -1.28144 0
M  V30 430 H 39.9987 -4.63936 -2.08903 0
M  V30 431 H 39.3967 -2.98431 -4.80578 0
M  V30 432 H 37.9537 -3.75905 -5.32483 0
M  V30 433 N 41.3868 0.248026 -1.55636 0
M  V30 434 C 42.6348 0.974295 -1.77065 0
M  V30 435 C 42.9558 1.85897 -0.588849 0
M  V30 436 O 42.2258 1.91868 0.395407 0
M  V30 437 H 40.8058 0.362733 -0.653019 0
M  V30 438 H 43.4678 0.266244 -1.93073 0
M  V30 439 H 42.5638 1.59667 -2.68166 0
M  V30 440 N 42.8649 1.48995 0.513639 0
M  V30 441 C 44.1139 1.57093 1.2651 0
M  V30 442 C 44.4269 0.257091 1.93903 0
M  V30 443 O 45.6329 0.216478 2.70636 0
M  V30 444 C 44.0889 2.77118 2.29638 0
M  V30 445 C 43.6969 4.15209 1.68241 0
M  V30 446 C 45.4409 2.94538 3.05692 0
M  V30 447 C 43.3479 5.26474 2.69406 0
M  V30 448 H 42.2779 0.584876 0.475854 0
M  V30 449 H 44.9289 1.7536 0.540487 0
M  V30 450 H 43.3109 2.52319 3.05207 0
M  V30 451 H 44.4849 4.50094 0.987505 0
M  V30 452 H 42.7999 4.03042 1.04623 0
M  V30 453 H 45.3969 3.74832 3.8132 0
M  V30 454 H 45.7399 2.04614 3.62545 0
M  V30 455 H 46.2729 3.19316 2.37238 0
M  V30 456 H 43.0119 6.18417 2.17351 0
M  V30 457 H 42.5319 4.96058 3.37175 0
M  V30 458 H 44.2109 5.55277 3.32078 0
M  V30 459 N 44.343 -0.763751 1.37857 0
M  V30 460 C 45.273 -1.89103 1.36975 0
M  V30 461 C 46.254 -1.68439 0.237152 0
M  V30 462 O 47.439 -1.8918 0.438713 0
M  V30 463 C 44.569 -3.26496 1.18395 0
M  V30 464 C 43.523 -3.61741 2.28751 0
M  V30 465 C 42.849 -4.97762 1.95286 0
M  V30 466 C 44.149 -3.67665 3.70972 0
M  V30 467 H 45.843 -1.90099 2.31307 0
M  V30 468 H 43.389 -0.91319 1.11341 0
M  V30 469 H 45.342 -4.05003 1.16406 0
M  V30 470 H 44.066 -3.25955 0.205215 0
M  V30 471 H 42.725 -2.85547 2.29909 0
M  V30 472 H 42.373 -4.93769 0.959221 0
M  V30 473 H 42.073 -5.22313 2.69189 0
M  V30 474 H 43.597 -5.7866 1.94898 0
M  V30 475 H 45.011 -4.36307 3.719 0
M  V30 476 H 43.408 -4.03718 4.43995 0
M  V30 477 H 44.478 -2.68134 4.0402 0
M  V30 478 N 45.8211 -1.22559 -0.990812 0
M  V30 479 C 47.2321 -1.04791 -1.54518 0
M  V30 480 C 47.5831 0.387998 -1.92325 0
M  V30 481 O 46.7081 1.27328 -1.74976 0
M  V30 482 C 47.3031 -1.896 -2.80779 0
M  V30 483 C 45.8621 -1.76124 -3.32652 0
M  V30 484 C 45.0091 -1.8594 -2.05722 0
M  V30 485 H 47.9601 -1.36374 -0.811662 0
M  V30 486 H 47.9811 -1.41464 -3.53225 0
M  V30 487 H 47.4931 -2.94101 -2.53231 0
M  V30 488 H 45.5941 -0.743643 -3.65104 0
M  V30 489 H 45.7071 -2.58913 -4.03114 0
M  V30 490 H 44.0711 -1.29403 -2.19379 0
M  V30 491 H 44.8541 -2.91976 -1.80568 0
M  V30 492 N 47.2992 1.18797 -1.03562 0
M  V30 493 C 48.5272 1.92599 -0.755869 0
M  V30 494 C 48.9422 1.75886 0.686271 0
M  V30 495 O 48.2992 1.08517 1.46732 0
M  V30 496 C 48.3502 3.44159 -1.10619 0
M  V30 497 O 48.0712 3.60341 -2.4917 0
M  V30 498 C 49.5722 4.3507 -0.850214 0
M  V30 499 H 46.7922 0.611587 -0.276048 0
M  V30 500 H 49.3362 1.50742 -1.38192 0
M  V30 501 H 47.4912 3.83823 -0.525194 0
M  V30 502 H 47.9052 4.54128 -2.62427 0
M  V30 503 H 49.3792 5.39989 -1.14523 0
M  V30 504 H 49.8562 4.38673 0.215176 0
M  V30 505 H 50.4622 4.01097 -1.41426 0
M  V30 506 N 48.7773 0.814389 1.34928 0
M  V30 507 C 50.0233 0.399013 1.98836 0
M  V30 508 C 50.3563 -1.03314 1.64438 0
M  V30 509 O 49.6313 -1.71811 0.911659 0
M  V30 510 C 49.9143 0.591629 3.55207 0
M  V30 511 C 49.7673 2.06928 3.99376 0
M  V30 512 C 51.0863 0.022199 4.40094 0
M  V30 513 H 48.2053 0.146451 0.722303 0
M  V30 514 H 50.8473 1.02537 1.59957 0
M  V30 515 H 48.9973 0.0584441 3.88456 0
M  V30 516 H 50.6693 2.66544 3.76499 0
M  V30 517 H 48.9123 2.56287 3.49999 0
M  V30 518 H 49.5833 2.1549 5.08201 0
M  V30 519 H 52.0593 0.477643 4.13349 0
M  V30 520 H 50.9353 0.186832 5.48582 0
M  V30 521 H 51.1963 -1.07215 4.28902 0
M  V30 522 N 50.2554 -1.46986 0.568584 0
M  V30 523 C 51.2184 -2.28624 -0.162366 0
M  V30 524 C 52.2184 -1.37596 -0.832103 0
M  V30 525 O 53.4084 -1.60115 -0.68622 0
M  V30 526 C 50.5404 -3.17596 -1.23878 0
M  V30 527 H 51.7334 -2.94722 0.554899 0
M  V30 528 H 49.2864 -1.52863 0.325976 0
M  V30 529 H 50.0214 -2.56214 -1.98808 0
M  V30 530 H 49.8064 -3.846 -0.763219 0
M  V30 531 H 51.2964 -3.79078 -1.75185 0
M  V30 532 N 51.7335 -0.305618 -1.54608 0
M  V30 533 C 52.6635 0.561482 -2.26649 0
M  V30 534 C 53.6445 1.13415 -1.26772 0
M  V30 535 O 54.8295 1.16262 -1.55553 0
M  V30 536 C 51.9595 1.73122 -3.01075 0
M  V30 537 C 50.9135 1.2887 -4.08138 0
M  V30 538 C 50.2395 2.54396 -4.70305 0
M  V30 539 C 51.5395 0.416578 -5.20636 0
M  V30 540 H 53.2335 -0.0393902 -2.99374 0
M  V30 541 H 50.7795 -0.020385 -1.43986 0
M  V30 542 H 52.7325 2.34396 -3.50195 0
M  V30 543 H 51.4565 2.3584 -2.25936 0
M  V30 544 H 50.1155 0.698991 -3.59875 0
M  V30 545 H 49.7635 3.15439 -3.918 0
M  V30 546 H 49.4635 2.25486 -5.42614 0
M  V30 547 H 50.9875 3.16464 -5.2219 0
M  V30 548 H 52.4015 0.935116 -5.65622 0
M  V30 549 H 50.7985 0.221046 -5.99693 0
M  V30 550 H 51.8685 -0.557162 -4.81688 0
M  V30 551 N 53.2116 1.57565 -0.0334293 0
M  V30 552 C 54.1216 2.13943 0.962572 0
M  V30 553 C 55.1376 1.09276 1.35406 0
M  V30 554 O 56.3136 1.41355 1.4346 0
M  V30 555 C 53.3786 2.65887 2.22497 0
M  V30 556 C 52.4396 3.85286 1.8935 0
M  V30 557 C 51.6726 4.34743 3.09571 0
M  V30 558 O 51.8956 3.83352 4.22371 0
M  V30 559 O 50.8296 5.26538 2.91618 0
M  V30 560 H 54.6556 2.99333 0.513169 0
M  V30 561 H 52.2406 1.4822 0.18743 0
M  V30 562 H 54.1226 2.99346 2.96598 0
M  V30 563 H 52.7976 1.83578 2.6661 0
M  V30 564 H 51.7046 3.56746 1.1262 0
M  V30 565 H 53.0376 4.68771 1.5005 0
M  V30 566 N 54.6897 -0.239769 1.55765 0
M  V30 567 C 55.6527 -1.28038 1.90103 0
M  V30 568 C 56.6527 -1.40723 0.778055 0
M  V30 569 O 57.8427 -1.39301 1.04599 0
M  V30 570 C 54.9747 -2.65702 2.13577 0
M  V30 571 H 56.1677 -0.988048 2.83157 0
M  V30 572 H 53.7207 -0.479382 1.48767 0
M  V30 573 H 54.4557 -3.00063 1.23015 0
M  V30 574 H 54.2407 -2.57875 2.95369 0
M  V30 575 H 55.7307 -3.40828 2.41301 0
M  V30 576 N 56.1678 -1.49265 -0.50573 0
M  V30 577 C 57.4168 -1.57761 -1.25675 0
M  V30 578 C 57.7298 -0.267371 -1.93764 0
M  V30 579 O 58.9358 -0.230827 -2.70517 0
M  V30 580 C 57.3918 -2.78332 -2.28165 0
M  V30 581 C 56.9998 -4.16096 -1.66037 0
M  V30 582 C 58.7438 -2.96155 -3.04125 0
M  V30 583 C 56.6508 -5.27895 -2.6661 0
M  V30 584 H 55.5808 -0.587391 -0.472745 0
M  V30 585 H 58.2318 -1.75644 -0.53118 0
M  V30 586 H 56.6138 -2.53934 -3.03865 0
M  V30 587 H 57.7878 -4.50612 -0.963622 0
M  V30 588 H 56.1028 -4.03591 -1.02484 0
M  V30 589 H 58.6998 -3.76849 -3.79327 0
M  V30 590 H 59.0428 -2.06534 -3.61455 0
M  V30 591 H 59.5758 -3.2057 -2.35541 0
M  V30 592 H 56.3148 -6.1956 -2.14068 0
M  V30 593 H 55.8348 -4.97839 -3.34539 0
M  V30 594 H 57.5138 -5.57031 -3.29129 0
M  V30 595 N 57.6459 0.756429 -1.3826 0
M  V30 596 C 58.8739 1.54565 -1.3754 0
M  V30 597 C 59.2889 1.88767 0.0355331 0
M  V30 598 O 58.6459 1.52572 1.0014 0
M  V30 599 C 58.6969 2.84654 -2.22833 0
M  V30 600 O 58.4179 2.51912 -3.5843 0
M  V30 601 C 59.9189 3.78807 -2.30261 0
M  V30 602 H 57.1389 0.478353 -0.470553 0
M  V30 603 H 59.6829 0.936381 -1.81803 0
M  V30 604 H 57.8379 3.41965 -1.8204 0
M  V30 605 H 58.2519 3.35325 -4.03308 0
M  V30 606 H 59.7259 4.67045 -2.94233 0
M  V30 607 H 60.2029 4.19038 -1.31545 0
M  V30 608 H 60.8089 3.2742 -2.71433 0
M  V30 609 N 59.124 1.23083 0.984299 0
M  V30 610 C 60.087 1.00979 2.05757 0
M  V30 611 C 61.087 -0.0269573 1.60777 0
M  V30 612 O 62.277 0.212403 1.729 0
M  V30 613 C 59.409 0.527072 3.36801 0
M  V30 614 H 60.602 1.9622 2.26799 0
M  V30 615 H 58.155 1.05072 1.15714 0
M  V30 616 H 58.89 -0.429294 3.21446 0
M  V30 617 H 58.675 1.27515 3.70786 0
M  V30 618 H 60.165 0.392942 4.15747 0
M  V30 619 N 60.6021 -1.18246 1.0419 0
M  V30 620 C 61.5351 -2.20746 0.578474 0
M  V30 621 C 62.5131 -1.57912 -0.387624 0
M  V30 622 O 63.6971 -1.86071 -0.301634 0
M  V30 623 C 60.8241 -3.38346 -0.154762 0
M  V30 624 C 59.8701 -4.19587 0.764782 0
M  V30 625 S 60.7031 -4.86014 2.24835 0
M  V30 626 C 61.8591 -6.07012 1.526 0
M  V30 627 H 62.0921 -2.59715 1.44691 0
M  V30 628 H 59.6251 -1.287 0.85297 0
M  V30 629 H 61.5831 -4.065 -0.571641 0
M  V30 630 H 60.2441 -2.97786 -0.999105 0
M  V30 631 H 59.4371 -5.03611 0.197976 0
M  V30 632 H 59.0391 -3.56818 1.12057 0
M  V30 633 H 61.3311 -6.72523 0.819733 0
M  V30 634 H 62.2741 -6.68202 2.34333 0
M  V30 635 H 62.6821 -5.55249 1.01779 0
M  V30 636 N 62.0802 -0.821533 -1.34494 0
M  V30 637 C 63.3102 -0.421272 -2.02259 0
M  V30 638 C 63.7182 0.977047 -1.6202 0
M  V30 639 O 63.0612 1.64348 -0.820703 0
M  V30 640 C 63.1232 -0.44231 -3.56769 0
M  V30 641 C 62.7872 -1.79372 -4.20327 0
M  V30 642 C 63.7842 -2.75435 -4.40944 0
M  V30 643 C 61.4692 -2.08182 -4.57127 0
M  V30 644 C 63.4632 -3.98482 -4.97484 0
M  V30 645 C 61.1502 -3.31489 -5.13379 0
M  V30 646 C 62.1482 -4.26457 -5.33501 0
M  V30 647 O 61.8362 -5.47585 -5.88562 0
M  V30 648 H 61.5682 -0.167473 -0.654927 0
M  V30 649 H 64.1222 -1.11073 -1.72777 0
M  V30 650 H 62.3522 0.303836 -3.85505 0
M  V30 651 H 64.0412 -0.0622925 -4.05852 0
M  V30 652 H 64.8072 -2.54473 -4.12878 0
M  V30 653 H 60.6862 -1.35066 -4.4077 0
M  V30 654 H 64.2302 -4.72618 -5.13106 0
M  V30 655 H 60.1272 -3.52316 -5.40873 0
M  V30 656 H 60.8952 -5.49086 -6.06998 0
M  V30 657 N 63.5583 1.46682 -0.576371 0
M  V30 658 C 64.8063 2.02013 -0.0594163 0
M  V30 659 C 65.1273 1.45101 1.30271 0
M  V30 660 O 64.3973 0.633317 1.8538 0
M  V30 661 H 62.9773 0.746759 -0.0189745 0
M  V30 662 H 65.6393 1.79862 -0.750717 0
M  V30 663 H 64.7353 3.12097 0.014345 0
M  V30 664 N 65.0364 0.313813 1.54444 0
M  V30 665 C 66.2664 -0.293491 2.04505 0
M  V30 666 C 66.6744 -1.47086 1.19005 0
M  V30 667 O 66.0174 -1.82481 0.211257 0
M  V30 668 C 66.0794 -0.800455 3.50475 0
M  V30 669 C 65.7434 0.253322 4.56297 0
M  V30 670 C 66.7404 1.08612 5.08428 0
M  V30 671 C 64.4254 0.398708 5.00715 0
M  V30 672 C 66.4194 2.05013 6.0353 0
M  V30 673 C 64.1064 1.36614 5.95634 0
M  V30 674 C 65.1044 2.19033 6.46926 0
M  V30 675 O 64.7924 3.14134 7.39983 0
M  V30 676 H 64.5244 -0.0658325 0.672787 0
M  V30 677 H 67.0784 0.455177 2.00293 0
M  V30 678 H 65.3084 -1.59987 3.52053 0
M  V30 679 H 66.9974 -1.32504 3.83663 0
M  V30 680 H 67.7634 0.984736 4.74898 0
M  V30 681 H 63.6424 -0.23289 4.60411 0
M  V30 682 H 67.1864 2.69382 6.4349 0
M  V30 683 H 63.0834 1.4682 6.28581 0
M  V30 684 H 63.8514 3.0926 7.57826 0
M  V30 685 N 66.5145 -1.57545 0.0417849 0
M  V30 686 C 67.4445 -2.14009 -0.933929 0
M  V30 687 C 68.4255 -1.05938 -1.33083 0
M  V30 688 O 69.6105 -1.33833 -1.40721 0
M  V30 689 C 66.7405 -2.67747 -2.21199 0
M  V30 690 C 65.6945 -3.80718 -1.95544 0
M  V30 691 C 65.0205 -4.20935 -3.29724 0
M  V30 692 C 66.3205 -5.06258 -1.28452 0
M  V30 693 H 68.0145 -2.95788 -0.463645 0
M  V30 694 H 65.5605 -1.42285 -0.221573 0
M  V30 695 H 67.5135 -3.05886 -2.89848 0
M  V30 696 H 66.2375 -1.83147 -2.70416 0
M  V30 697 H 64.8965 -3.43037 -1.2931 0
M  V30 698 H 64.5445 -3.33298 -3.76724 0
M  V30 699 H 64.2445 -4.9707 -3.13361 0
M  V30 700 H 65.7685 -4.61666 -3.9962 0
M  V30 701 H 67.1825 -5.41903 -1.8712 0
M  V30 702 H 65.5795 -5.87475 -1.22445 0
M  V30 703 H 66.6495 -4.84207 -0.259219 0
M  V30 704 N 67.9926 0.231505 -1.5589 0
M  V30 705 C 68.9246 1.31006 -1.8807 0
M  V30 706 C 69.9376 1.43539 -0.768145 0
M  V30 707 O 71.1266 1.44614 -1.04638 0
M  V30 708 C 68.2266 2.68688 -2.06543 0
M  V30 709 C 67.3996 2.78228 -3.37502 0
M  V30 710 C 66.4586 3.96857 -3.4553 0
M  V30 711 O 65.4846 3.85662 -4.18633 0
M  V30 712 N 66.6866 5.1072 -2.75944 0
M  V30 713 H 69.4516 1.03731 -2.81176 0
M  V30 714 H 67.0126 0.421573 -1.56315 0
M  V30 715 H 69.0046 3.46412 -2.09239 0
M  V30 716 H 67.5746 2.88605 -1.20109 0
M  V30 717 H 66.7946 1.87059 -3.46991 0
M  V30 718 H 68.0826 2.81564 -4.23791 0
M  V30 719 H 67.4806 5.2271 -2.16311 0
M  V30 720 H 66.0376 5.86523 -2.84314 0
M  V30 721 N 69.4707 1.49531 0.497807 0
M  V30 722 C 70.3807 1.69176 1.62532 0
M  V30 723 C 71.3967 0.5744 1.64246 0
M  V30 724 O 72.5727 0.849497 1.82608 0
M  V30 725 C 69.6377 1.75695 2.98885 0
M  V30 726 C 68.6987 2.9929 3.07773 0
M  V30 727 C 67.9317 3.05488 4.37622 0
M  V30 728 O 68.1547 2.19192 5.26603 0
M  V30 729 O 67.0887 3.9798 4.51548 0
M  V30 730 H 70.9147 2.647 1.48887 0
M  V30 731 H 68.4997 1.3331 0.674441 0
M  V30 732 H 70.3817 1.82317 3.79919 0
M  V30 733 H 69.0567 0.8335 3.12785 0
M  V30 734 H 67.9637 2.98183 2.25915 0
M  V30 735 H 69.2967 3.91125 2.98801 0
M  V30 736 N 70.9488 -0.749086 1.3866 0
M  V30 737 C 71.8968 -1.88428 1.36373 0
M  V30 738 C 72.8908 -1.67561 0.248929 0
M  V30 739 O 74.0968 -1.75074 0.41821 0
M  V30 740 H 70.4718 -0.620023 0.42553 0
M  V30 741 H 72.4428 -1.87473 2.32156 0
M  V30 742 C 71.1918 -3.25961 1.21014 0
M  V30 743 H 70.5148 -3.42607 2.06059 0
M  V30 744 H 71.9548 -4.05625 1.23469 0
M  V30 745 C 70.4138 -3.36799 -0.0825941 0
M  V30 746 O 70.9438 -3.87517 -1.05797 0
M  V30 747 N 69.1498 -2.90258 -0.140939 0
M  V30 748 H 68.6968 -2.49174 0.653477 0
M  V30 749 H 68.6548 -2.97889 -1.00545 0
M  V30 750 N 72.4269 -1.23603 -0.977757 0
M  V30 751 C 73.6749 -1.06759 -1.71601 0
M  V30 752 C 73.9959 0.395929 -1.90938 0
M  V30 753 O 73.2659 1.28356 -1.47992 0
M  V30 754 H 71.8459 -0.392062 -0.635843 0
M  V30 755 H 74.5079 -1.55362 -1.1768 0
M  V30 756 H 73.6039 -1.55763 -2.70452 0
M  V30 757 N 73.905 1.17692 -1.04816 0
M  V30 758 C 75.316 1.69501 -0.782698 0
M  V30 759 C 75.667 1.83456 0.695577 0
M  V30 760 O 74.792 1.51942 1.54086 0
M  V30 761 C 75.387 3.07874 -1.41419 0
M  V30 762 C 73.946 3.56864 -1.19686 0
M  V30 763 C 73.093 2.3322 -1.50012 0
M  V30 764 H 76.044 1.02262 -1.2136 0
M  V30 765 H 76.065 3.71528 -0.821428 0
M  V30 766 H 75.577 2.97685 -2.49009 0
M  V30 767 H 73.678 3.72337 -0.140043 0
M  V30 768 H 73.791 4.39851 -1.89916 0
M  V30 769 H 72.155 2.37501 -0.920071 0
M  V30 770 H 72.938 2.25644 -2.58727 0
M  V30 771 N 75.3831 0.828654 1.34056 0
M  V30 772 C 76.6301 0.419458 1.98108 0
M  V30 773 C 76.9581 -1.01886 1.65679 0
M  V30 774 O 76.2131 -1.72539 0.923512 0
M  V30 775 C 76.5121 0.575226 3.52741 0
M  V30 776 C 76.1781 1.98012 4.05095 0
M  V30 777 C 74.8401 2.36442 4.19104 0
M  V30 778 C 77.1921 2.89824 4.33188 0
M  V30 779 C 74.5201 3.66009 4.58535 0
M  V30 780 C 76.8721 4.1886 4.74066 0
M  V30 781 C 75.5361 4.5726 4.86281 0
M  V30 782 H 74.8061 0.153491 0.724929 0
M  V30 783 H 77.4531 1.05371 1.59904 0
M  V30 784 H 75.7581 -0.142385 3.91541 0
M  V30 785 H 77.4551 0.239057 4.00287 0
M  V30 786 H 74.0451 1.67162 3.94658 0
M  V30 787 H 78.2291 2.61375 4.21897 0
M  V30 788 H 73.4851 3.95579 4.66184 0
M  V30 789 H 77.6591 4.90086 4.94761 0
M  V30 790 H 75.2861 5.57707 5.16592 0
M  V30 791 N 76.8612 -1.46375 0.584142 0
M  V30 792 C 78.0862 -2.07268 0.0740405 0
M  V30 793 C 78.5112 -1.42979 -1.22223 0
M  V30 794 O 77.8692 -0.514092 -1.73859 0
M  V30 795 C 77.9172 -3.60518 -0.0767769 0
M  V30 796 O 77.0212 -3.96533 -1.13292 0
M  V30 797 H 76.3622 -0.660961 0.0634524 0
M  V30 798 H 78.8922 -1.87991 0.807492 0
M  V30 799 H 78.9022 -4.07021 -0.282489 0
M  V30 800 H 77.5772 -4.06702 0.86986 0
M  V30 801 H 76.1542 -3.61738 -0.905553 0
M  V30 802 N 78.3393 -0.321999 -1.54275 0
M  V30 803 C 79.5883 0.281931 -1.9972 0
M  V30 804 C 79.9013 1.53369 -1.21397 0
M  V30 805 O 81.1073 2.21352 -1.57211 0
M  V30 806 C 79.5633 0.5529 -3.55628 0
M  V30 807 C 79.1713 -0.681721 -4.42783 0
M  V30 808 C 80.9153 1.11687 -4.09544 0
M  V30 809 C 78.8223 -0.382742 -5.9016 0
M  V30 810 H 77.7523 0.109124 -0.746062 0
M  V30 811 H 80.4033 -0.43398 -1.78294 0
M  V30 812 H 78.7853 1.32896 -3.73035 0
M  V30 813 H 79.9593 -1.45723 -4.37151 0
M  V30 814 H 78.2743 -1.1658 -3.99748 0
M  V30 815 H 80.8713 1.35515 -5.17242 0
M  V30 816 H 81.2143 2.06575 -3.61431 0
M  V30 817 H 81.7473 0.402032 -3.95763 0
M  V30 818 H 78.4863 -1.30076 -6.42464 0
M  V30 819 H 78.0063 0.355094 -5.98748 0
M  V30 820 H 79.6853 0.00800157 -6.47 0
M  V30 821 N 79.8174 1.5752 -0.0501392 0
M  V30 822 C 80.7804 2.1037 0.909786 0
M  V30 823 C 81.7804 1.02308 1.24056 0
M  V30 824 O 82.9704 1.28385 1.17741 0
M  V30 825 C 80.1024 2.58708 2.21998 0
M  V30 826 H 81.2954 2.96479 0.451665 0
M  V30 827 H 78.8484 1.55038 0.198248 0
M  V30 828 H 79.5834 1.75989 2.72394 0
M  V30 829 H 79.3684 3.37675 1.99295 0
M  V30 830 H 80.8584 2.99747 2.9076 0
M  V30 831 N 81.2955 -0.223234 1.56011 0
M  V30 832 C 82.2585 -1.26014 1.9145 0
M  V30 833 C 83.2585 -1.3989 0.792937 0
M  V30 834 O 84.4485 -1.38184 1.0607 0
M  V30 835 C 81.5805 -2.63422 2.16383 0
M  V30 836 H 82.7735 -0.95796 2.84189 0
M  V30 837 H 80.3265 -0.463576 1.49267 0
M  V30 838 H 81.0615 -2.98741 1.2619 0
M  V30 839 H 80.8465 -2.54728 2.98088 0
M  V30 840 H 82.3365 -3.38249 2.44903 0
M  V30 841 N 82.7736 -1.49793 -0.48987 0
M  V30 842 C 83.7216 -1.67783 -1.61095 0
M  V30 843 C 84.7156 -0.543683 -1.60438 0
M  V30 844 O 85.9216 -0.723647 -1.64813 0
M  V30 845 H 82.2966 -0.529255 -0.534222 0
M  V30 846 H 84.2676 -2.61861 -1.43078 0
M  V30 847 C 83.0166 -1.77191 -2.99164 0
M  V30 848 H 82.3396 -2.63841 -3.0038 0
M  V30 849 H 83.7796 -1.93809 -3.77113 0
M  V30 850 C 82.2386 -0.519203 -3.32875 0
M  V30 851 O 82.7686 0.350124 -4.00171 0
M  V30 852 N 80.9746 -0.378816 -2.8812 0
M  V30 853 H 80.5216 -1.08725 -2.33531 0
M  V30 854 H 80.4796 0.458239 -3.11043 0
M  V30 855 N 84.2517 0.741722 -1.39055 0
M  V30 856 C 85.1837 1.8657 -1.33133 0
M  V30 857 C 86.1967 1.61001 -0.241329 0
M  V30 858 O 87.3857 1.7136 -0.499784 0
M  V30 859 C 84.4857 3.22457 -1.04283 0
M  V30 860 C 83.6587 3.75435 -2.24427 0
M  V30 861 C 82.7177 4.89867 -1.92138 0
M  V30 862 O 81.7437 5.03879 -2.64754 0
M  V30 863 N 82.9457 5.73738 -0.88347 0
M  V30 864 H 85.7107 1.92156 -2.29991 0
M  V30 865 H 83.2717 0.922172 -1.3307 0
M  V30 866 H 85.2637 3.9657 -0.807128 0
M  V30 867 H 83.8337 3.12181 -0.161807 0
M  V30 868 H 83.0537 2.92751 -2.6399 0
M  V30 869 H 84.3417 4.07563 -3.04581 0
M  V30 870 H 83.7397 5.64999 -0.281517 0
M  V30 871 H 82.2967 6.47947 -0.707662 0
M  V30 872 N 85.7298 1.2412 0.971189 0
M  V30 873 C 86.6798 0.997551 2.05019 0
M  V30 874 C 87.6638 -0.0597747 1.60789 0
M  V30 875 O 88.8558 0.153516 1.76333 0
M  V30 876 C 85.9848 0.600557 3.38006 0
M  V30 877 C 85.0708 1.69377 3.88809 0
M  V30 878 N 85.4618 2.92586 4.12586 0
M  V30 879 C 83.7598 1.57048 4.17435 0
M  V30 880 C 84.4608 3.63431 4.54195 0
M  V30 881 N 83.4368 2.90979 4.59165 0
M  V30 882 H 87.2388 1.93316 2.21374 0
M  V30 883 H 84.7528 1.14194 1.1547 0
M  V30 884 H 86.7498 0.40725 4.14906 0
M  V30 885 H 85.4098 -0.327903 3.2304 0
M  V30 886 H 86.4208 3.288 4.00139 0
M  V30 887 H 83.0978 0.709798 4.11422 0
M  V30 888 H 84.4878 4.69102 4.81033 0
M  V30 889 N 87.2079 -1.17134 1.05439 0
M  V30 890 C 88.4569 -1.86791 0.761049 0
M  V30 891 C 88.7699 -1.82072 -0.714795 0
M  V30 892 O 89.9759 -2.47223 -1.12218 0
M  V30 893 C 88.4319 -3.35166 1.31117 0
M  V30 894 C 88.0399 -3.48381 2.81664 0
M  V30 895 C 89.7839 -4.10134 1.09499 0
M  V30 896 C 87.6909 -4.90793 3.29964 0
M  V30 897 H 86.6209 -0.699681 0.281002 0
M  V30 898 H 89.2719 -1.3226 1.27199 0
M  V30 899 H 87.6539 -3.8925 0.72803 0
M  V30 900 H 88.8279 -3.04502 3.45855 0
M  V30 901 H 87.1429 -2.86836 3.01851 0
M  V30 902 H 89.7399 -5.152 1.43084 0
M  V30 903 H 90.0829 -4.16287 0.0328772 0
M  V30 904 H 90.6159 -3.62264 1.64346 0
M  V30 905 H 87.3549 -4.89816 4.35616 0
M  V30 906 H 86.8749 -5.35333 2.70516 0
M  V30 907 H 88.5539 -5.59573 3.24787 0
M  V30 908 N 88.686 -0.835752 -1.33615 0
M  V30 909 C 89.618 -0.224151 -2.28101 0
M  V30 910 C 90.631 0.593331 -1.51603 0
M  V30 911 O 91.82 0.420911 -1.73466 0
M  V30 912 C 88.92 0.703309 -3.31522 0
M  V30 913 C 88.093 -0.0741528 -4.37337 0
M  V30 914 C 87.152 0.776176 -5.20444 0
M  V30 915 O 86.178 0.216506 -5.68788 0
M  V30 916 N 87.38 2.09401 -5.41416 0
M  V30 917 H 90.145 -1.03598 -2.81225 0
M  V30 918 H 87.706 -0.69392 -1.46275 0
M  V30 919 H 89.698 1.27707 -3.84022 0
M  V30 920 H 88.268 1.41585 -2.78698 0
M  V30 921 H 87.488 -0.82928 -3.85378 0
M  V30 922 H 88.776 -0.608863 -5.05144 0
M  V30 923 H 88.174 2.57229 -5.03835 0
M  V30 924 H 86.731 2.61633 -5.96985 0
M  V30 925 N 90.1641 1.46063 -0.591896 0
M  V30 926 C 91.0961 2.28539 0.174001 0
M  V30 927 C 92.1091 1.39047 0.846753 0
M  V30 928 O 93.2981 1.63564 0.714774 0
M  V30 929 C 90.3981 3.14347 1.26645 0
M  V30 930 C 89.5711 4.32021 0.683856 0
M  V30 931 C 88.6301 4.99157 1.66518 0
M  V30 932 O 87.6561 5.56458 1.19763 0
M  V30 933 N 88.8581 4.97005 2.99943 0
M  V30 934 H 91.6231 2.94911 -0.533633 0
M  V30 935 H 89.1841 1.56077 -0.430294 0
M  V30 936 H 91.1761 3.56125 1.92242 0
M  V30 937 H 89.7461 2.49988 1.87682 0
M  V30 938 H 88.9661 3.93915 -0.1498 0
M  V30 939 H 90.2541 5.08059 0.274567 0
M  V30 940 H 89.6521 4.51714 3.40545 0
M  V30 941 H 88.2091 5.42696 3.61004 0
M  V30 942 N 91.6422 0.330177 1.54103 0
M  V30 943 C 92.5722 -0.525353 2.27513 0
M  V30 944 C 93.5532 -1.11383 1.2856 0
M  V30 945 O 94.7382 -1.13773 1.57383 0
M  V30 946 C 91.8682 -1.6831 3.03791 0
M  V30 947 C 90.8222 -1.2236 4.10137 0
M  V30 948 C 90.1482 -2.46882 4.74293 0
M  V30 949 C 91.4482 -0.333697 5.21233 0
M  V30 950 H 93.1422 0.087013 2.99274 0
M  V30 951 H 90.6882 0.0432893 1.43935 0
M  V30 952 H 92.6412 -2.28795 3.5388 0
M  V30 953 H 91.3652 -2.32216 2.29659 0
M  V30 954 H 90.0242 -0.64165 3.60941 0
M  V30 955 H 89.6722 -3.09165 3.96769 0
M  V30 956 H 89.3722 -2.16825 5.46133 0
M  V30 957 H 90.8962 -3.08117 5.27159 0
M  V30 958 H 92.3102 -0.845013 5.67038 0
M  V30 959 H 90.7072 -0.125612 5.99969 0
M  V30 960 H 91.7772 0.633724 4.80741 0
M  V30 961 N 93.1203 -1.57491 0.0584922 0
M  V30 962 C 94.3693 -1.92155 -0.613146 0
M  V30 963 C 94.6823 -0.939334 -1.71569 0
M  V30 964 O 95.8883 -1.17829 -2.44599 0
M  V30 965 C 94.3443 -3.41303 -1.14195 0
M  V30 966 C 93.9523 -4.47944 -0.0711265 0
M  V30 967 C 95.6963 -3.84988 -1.78841 0
M  V30 968 C 93.6033 -5.88212 -0.613225 0
M  V30 969 H 92.5333 -0.717162 -0.232796 0
M  V30 970 H 95.1843 -1.83049 0.12857 0
M  V30 971 H 93.5663 -3.45437 -1.93621 0
M  V30 972 H 94.7403 -4.55408 0.702836 0
M  V30 973 H 93.0553 -4.13644 0.478313 0
M  V30 974 H 95.6523 -4.87159 -2.20408 0
M  V30 975 H 95.9953 -3.21632 -2.64308 0
M  V30 976 H 96.5283 -3.83401 -1.06059 0
M  V30 977 H 93.2673 -6.55183 0.203978 0
M  V30 978 H 92.7873 -5.84294 -1.35501 0
M  V30 979 H 94.4663 -6.37687 -1.09383 0
M  V30 980 N 94.5984 0.214957 -1.56127 0
M  V30 981 C 95.5614 1.24997 -1.92116 0
M  V30 982 C 96.5614 1.39467 -0.800344 0
M  V30 983 O 97.7514 1.37619 -1.06802 0
M  V30 984 C 94.8834 2.62271 -2.17777 0
M  V30 985 H 96.0764 0.942875 -2.84693 0
M  V30 986 H 93.6294 0.455654 -1.49511 0
M  V30 987 H 94.3644 2.98068 -1.27773 0
M  V30 988 H 94.1494 2.53143 -2.99434 0
M  V30 989 H 95.6394 3.36946 -2.46693 0
M  V30 990 N 96.0765 1.50051 0.48192 0
M  V30 991 C 97.0085 1.64263 1.59844 0
M  V30 992 C 98.0215 0.52451 1.54119 0
M  V30 993 O 99.2105 0.797293 1.59704 0
M  V30 994 C 96.3105 1.60102 2.98698 0
M  V30 995 C 95.4835 2.87767 3.29407 0
M  V30 996 C 94.5425 2.76397 4.47762 0
M  V30 997 O 93.5685 3.50348 4.48603 0
M  V30 998 N 94.7705 1.89222 5.48794 0
M  V30 999 H 97.5355 2.60566 1.48073 0
M  V30 1000 H 95.0965 1.47379 0.670149 0
M  V30 1001 H 97.0885 1.50123 3.75826 0
M  V30 1002 H 95.6585 0.715798 3.04294 0
M  V30 1003 H 94.8785 3.11954 2.40994 0
M  V30 1004 H 96.1665 3.72365 3.4673 0
M  V30 1005 H 95.5645 1.28434 5.50928 0
M  V30 1006 H 94.1215 1.85154 6.24949 0
M  V30 1007 N 97.5546 -0.734337 1.39446 0
M  V30 1008 C 98.4846 -1.86155 1.40955 0
M  V30 1009 C 99.4656 -1.67898 0.272827 0
M  V30 1010 O 100.651 -1.88207 0.478743 0
M  V30 1011 C 97.7806 -3.23912 1.25294 0
M  V30 1012 C 96.7346 -3.56808 2.36373 0
M  V30 1013 C 96.0606 -4.93508 2.058 0
M  V30 1014 C 97.3606 -3.59713 3.78687 0
M  V30 1015 H 99.0546 -1.8515 2.35287 0
M  V30 1016 H 96.6006 -0.889367 1.13253 0
M  V30 1017 H 98.5536 -4.02443 1.2497 0
M  V30 1018 H 97.2776 -3.25446 0.274308 0
M  V30 1019 H 95.9366 -2.80606 2.35914 0
M  V30 1020 H 95.5846 -4.91623 1.06374 0
M  V30 1021 H 95.2846 -5.16486 2.80208 0
M  V30 1022 H 96.8086 -5.74396 2.07128 0
M  V30 1023 H 98.2226 -4.2832 3.81071 0
M  V30 1024 H 96.6196 -3.94209 4.52459 0
M  V30 1025 H 97.6896 -2.59504 4.09617 0
M  V30 1026 N 99.0327 -1.24633 -0.964593 0
M  V30 1027 C 100.449 -1.01239 -1.2338 0
M  V30 1028 C 100.649 0.2769 -1.99588 0
M  V30 1029 O 99.7047 0.992241 -2.32187 0
M  V30 1030 C 101.018 -2.22937 -2.01791 0
M  V30 1031 C 102.566 -2.27594 -2.14872 0
M  V30 1032 C 103.041 -3.48921 -2.96678 0
M  V30 1033 N 104.532 -3.49257 -3.04259 0
M  V30 1034 C 105.267 -4.39795 -3.67924 0
M  V30 1035 N 104.763 -5.40591 -4.33281 0
M  V30 1036 N 106.556 -4.275 -3.64966 0
M  V30 1037 H 98.7067 -2.0748 -0.454502 0
M  V30 1038 H 100.97 -0.910647 -0.26349 0
M  V30 1039 H 100.676 -3.16587 -1.53184 0
M  V30 1040 H 100.55 -2.25306 -3.02518 0
M  V30 1041 H 102.937 -1.34473 -2.6268 0
M  V30 1042 H 103.018 -2.2925 -1.13482 0
M  V30 1043 H 102.662 -4.42359 -2.49562 0
M  V30 1044 H 102.592 -3.4451 -3.98272 0
M  V30 1045 H 105.083 -2.76337 -2.57771 0
M  V30 1046 H 105.396 -6.05904 -4.79687 0
M  V30 1047 H 103.741 -5.44475 -4.3194 0
M  V30 1048 H 106.932 -3.47987 -3.13086 0
M  V30 1049 H 107.105 -4.98258 -4.14298 0
M  V30 1050 N 100.511 1.16574 -1.06058 0
M  V30 1051 C 101.443 2.2045 -0.627239 0
M  V30 1052 C 102.456 1.59752 0.313534 0
M  V30 1053 O 103.645 1.78192 0.104896 0
M  V30 1054 C 100.745 3.3875 0.100974 0
M  V30 1055 C 99.9178 4.29008 -0.852687 0
M  V30 1056 C 98.9768 5.25944 -0.164152 0
M  V30 1057 O 98.0028 5.63535 -0.801047 0
M  V30 1058 N 99.2048 5.70075 1.09518 0
M  V30 1059 H 101.97 2.58249 -1.52077 0
M  V30 1060 H 99.5308 1.3156 -0.943594 0
M  V30 1061 H 101.523 4.00638 0.57194 0
M  V30 1062 H 100.093 2.99476 0.89628 0
M  V30 1063 H 99.3128 3.64419 -1.50308 0
M  V30 1064 H 100.601 4.86195 -1.49972 0
M  V30 1065 H 99.9988 5.41624 1.6328 0
M  V30 1066 H 98.5558 6.34067 1.51006 0
M  V30 1067 N 101.989 0.842826 1.3317 0
M  V30 1068 C 102.952 0.284065 2.27433 0
M  V30 1069 C 103.952 -0.54948 1.5112 0
M  V30 1070 O 105.142 -0.362699 1.70382 0
M  V30 1071 C 102.274 -0.599384 3.35589 0
M  V30 1072 H 103.467 1.11589 2.78366 0
M  V30 1073 H 101.02 0.616221 1.4364 0
M  V30 1074 H 101.755 -1.45349 2.89904 0
M  V30 1075 H 101.54 -0.00291266 3.921 0
M  V30 1076 H 103.03 -0.983488 4.05854 0
M  V30 1077 N 103.467 -1.45747 0.599634 0
M  V30 1078 C 104.397 -2.33235 -0.111306 0
M  V30 1079 C 105.378 -1.46359 -0.866781 0
M  V30 1080 O 106.563 -1.75146 -0.838904 0
M  V30 1081 C 103.693 -3.28932 -1.11451 0
M  V30 1082 C 102.647 -4.25381 -0.472772 0
M  V30 1083 C 101.973 -5.1071 -1.58365 0
M  V30 1084 C 103.273 -5.18831 0.600948 0
M  V30 1085 H 104.967 -2.92927 0.61919 0
M  V30 1086 H 102.513 -1.40857 0.299215 0
M  V30 1087 H 104.466 -3.89002 -1.62036 0
M  V30 1088 H 103.19 -2.67381 -1.8755 0
M  V30 1089 H 101.849 -3.66598 0.0121472 0
M  V30 1090 H 101.497 -4.45533 -2.33473 0
M  V30 1091 H 101.197 -5.7604 -1.15982 0
M  V30 1092 H 102.721 -5.73647 -2.09194 0
M  V30 1093 H 104.135 -5.73019 0.179491 0
M  V30 1094 H 102.532 -5.92595 0.946076 0
M  V30 1095 H 103.602 -4.6174 1.48068 0
M  V30 1096 N 104.945 -0.338344 -1.53925 0
M  V30 1097 C 105.908 0.508299 -2.23493 0
M  V30 1098 C 106.908 1.03175 -1.23335 0
M  V30 1099 O 108.098 0.921826 -1.47811 0
M  V30 1100 C 105.23 1.70754 -2.95052 0
M  V30 1101 H 106.423 -0.100058 -2.99733 0
M  V30 1102 H 103.976 -0.0896198 -1.56043 0
M  V30 1103 H 104.711 2.35474 -2.22986 0
M  V30 1104 H 104.496 1.33946 -3.68512 0
M  V30 1105 H 105.986 2.30818 -3.48013 0
M  V30 1106 N 106.423 1.57458 -0.0668435 0
M  V30 1107 C 107.333 2.15937 0.916975 0
M  V30 1108 C 108.349 1.12123 1.33058 0
M  V30 1109 O 109.525 1.44366 1.40429 0
M  V30 1110 C 106.59 2.70547 2.16807 0
M  V30 1111 C 105.651 3.89215 1.81135 0
M  V30 1112 C 104.884 4.41211 3.0028 0
M  V30 1113 O 105.107 3.92225 4.14144 0
M  V30 1114 O 104.041 5.32605 2.80384 0
M  V30 1115 H 107.867 3.00354 0.449561 0
M  V30 1116 H 105.452 1.48584 0.155949 0
M  V30 1117 H 107.334 3.0557 2.90181 0
M  V30 1118 H 106.009 1.89192 2.62656 0
M  V30 1119 H 104.916 3.59054 1.05028 0
M  V30 1120 H 106.249 4.71848 1.40073 0
M  V30 1121 N 107.901 -0.206675 1.56239 0
M  V30 1122 C 109.129 -0.945345 1.8404 0
M  V30 1123 C 109.544 -1.77336 0.647885 0
M  V30 1124 O 108.901 -1.78425 -0.383511 0
M  V30 1125 C 108.952 -1.8509 3.10522 0
M  V30 1126 O 108.673 -1.05634 4.25174 0
M  V30 1127 C 110.174 -2.70222 3.51418 0
M  V30 1128 H 107.394 -0.276372 0.61144 0
M  V30 1129 H 109.938 -0.217417 2.03341 0
M  V30 1130 H 108.093 -2.53259 2.93153 0
M  V30 1131 H 108.507 -1.67238 4.97124 0
M  V30 1132 H 109.981 -3.29438 4.42916 0
M  V30 1133 H 110.458 -3.43358 2.73864 0
M  V30 1134 H 111.064 -2.07443 3.71278 0
M  V30 1135 N 109.379 -1.50304 -0.473955 0
M  V30 1136 C 110.626 -1.6115 -1.22625 0
M  V30 1137 C 110.954 -0.310517 -1.92005 0
M  V30 1138 O 110.209 0.703419 -1.82621 0
M  V30 1139 C 110.508 -2.73938 -2.29549 0
M  V30 1140 C 110.174 -4.14519 -1.7744 0
M  V30 1141 C 108.836 -4.5277 -1.62949 0
M  V30 1142 C 111.188 -5.02392 -1.3875 0
M  V30 1143 C 108.516 -5.76639 -1.08187 0
M  V30 1144 C 110.868 -6.26805 -0.854309 0
M  V30 1145 C 109.532 -6.63861 -0.696011 0
M  V30 1146 H 108.802 -0.589691 -0.448715 0
M  V30 1147 H 111.449 -1.84228 -0.522705 0
M  V30 1148 H 109.754 -2.44937 -3.05799 0
M  V30 1149 H 111.451 -2.79534 -2.87509 0
M  V30 1150 H 108.041 -3.8434 -1.89685 0
M  V30 1151 H 112.225 -4.73474 -1.4878 0
M  V30 1152 H 107.481 -6.04027 -0.946666 0
M  V30 1153 H 111.655 -6.94258 -0.545843 0
M  V30 1154 H 109.282 -7.59722 -0.26952 0
M  V30 1155 N 110.857 0.726932 -1.39834 0
M  V30 1156 C 111.805 1.86235 -1.39353 0
M  V30 1157 C 112.799 1.67144 -0.275555 0
M  V30 1158 O 114.005 1.74387 -0.44601 0
M  V30 1159 H 110.38 0.613174 -0.43534 0
M  V30 1160 H 112.351 1.83756 -2.35109 0
M  V30 1161 C 111.1 3.23995 -1.26185 0
M  V30 1162 H 110.423 3.39285 -2.11484 0
M  V30 1163 H 111.863 4.03609 -1.29907 0
M  V30 1164 C 110.322 3.36888 0.0290018 0
M  V30 1165 O 110.852 3.89152 0.99619 0
M  V30 1166 N 109.058 2.90446 0.0947437 0
M  V30 1167 H 108.605 2.48102 -0.693035 0
M  V30 1168 H 108.563 2.99451 0.957932 0
M  V30 1169 N 112.336 1.25143 0.95797 0
M  V30 1170 C 113.582 1.09855 1.70469 0
M  V30 1171 C 113.915 -0.360187 1.90831 0
M  V30 1172 O 113.19 -1.26568 1.47685 0
M  V30 1173 C 113.473 1.8497 3.08963 0
M  V30 1174 C 113.326 3.38652 2.96032 0
M  V30 1175 C 114.645 1.63016 4.08795 0
M  V30 1176 H 111.764 0.400465 0.618706 0
M  V30 1177 H 114.406 1.53933 1.11376 0
M  V30 1178 H 112.556 1.47505 3.59409 0
M  V30 1179 H 114.228 3.85772 2.52938 0
M  V30 1180 H 112.471 3.66534 2.32025 0
M  V30 1181 H 113.142 3.8642 3.94187 0
M  V30 1182 H 115.618 1.95625 3.67247 0
M  V30 1183 H 114.494 2.18015 5.03747 0
M  V30 1184 H 114.755 0.570692 4.38401 0
M  V30 1185 N 113.814 -1.1601 1.06675 0
M  V30 1186 C 115.091 -1.82679 0.699114 0
M  V30 1187 C 115.471 -1.94559 -0.819137 0
M  V30 1188 O 114.819 -1.49169 -1.73092 0
M  V30 1189 C 115.029 -3.19445 1.40555 0
M  V30 1190 C 116.377 -3.95171 1.55323 0
M  V30 1191 O 117.401 -3.28976 1.36577 0
M  V30 1192 O 116.26 -5.13833 1.86112 0
M  V30 1193 H 113.354 -0.788954 0.247951 0
M  V30 1194 H 115.9 -1.23179 1.16726 0
M  V30 1195 H 114.672 -3.05856 2.44065 0
M  V30 1196 H 114.295 -3.86625 0.927733 0
M  V30 1197 N 115.292 -0.849877 -1.32721 0
M  V30 1198 C 116.703 -0.506188 -1.79707 0
M  V30 1199 C 117.054 0.975627 -1.70223 0
M  V30 1200 O 116.179 1.76078 -1.25799 0
M  V30 1201 C 116.774 -0.912044 -3.26293 0
M  V30 1202 C 115.333 -0.620326 -3.71253 0
M  V30 1203 C 114.48 -1.11439 -2.53922 0
M  V30 1204 H 117.431 -1.03754 -1.20087 0
M  V30 1205 H 117.452 -0.226493 -3.79825 0
M  V30 1206 H 116.964 -1.99057 -3.33164 0
M  V30 1207 H 115.065 0.447674 -3.69901 0
M  V30 1208 H 115.178 -1.18327 -4.64258 0
M  V30 1209 H 113.542 -0.534834 -2.49021 0
M  V30 1210 H 114.325 -2.19992 -2.6355 0
M  V30 1211 N 116.77 1.45427 -0.607355 0
M  V30 1212 C 117.718 2.32269 0.12411 0
M  V30 1213 C 118.712 1.45955 0.859854 0
M  V30 1214 O 119.918 1.6244 0.775447 0
M  V30 1215 H 116.293 0.749691 0.0588839 0
M  V30 1216 H 118.264 2.91743 -0.626762 0
M  V30 1217 C 117.013 3.29567 1.1082 0
M  V30 1218 H 116.336 3.95978 0.551492 0
M  V30 1219 H 117.776 3.93061 1.58995 0
M  V30 1220 C 116.235 2.56722 2.18164 0
M  V30 1221 O 116.765 2.34842 3.25902 0
M  V30 1222 N 114.971 2.16861 1.93442 0
M  V30 1223 H 114.518 2.34855 1.05834 0
M  V30 1224 H 114.476 1.68444 2.65469 0
M  V30 1225 N 118.248 0.346503 1.53744 0
M  V30 1226 C 119.476 -0.25041 2.05379 0
M  V30 1227 C 119.891 -1.43979 1.22129 0
M  V30 1228 O 119.248 -1.80677 0.257321 0
M  V30 1229 C 119.299 -0.662575 3.55376 0
M  V30 1230 O 119.02 0.479515 4.35468 0
M  V30 1231 C 120.521 -1.31989 4.23195 0
M  V30 1232 H 117.741 -0.0478198 0.669294 0
M  V30 1233 H 120.285 0.499346 1.9831 0
M  V30 1234 H 118.44 -1.36227 3.62658 0
M  V30 1235 H 118.854 0.15037 5.24284 0
M  V30 1236 H 120.328 -1.55902 5.29527 0
M  V30 1237 H 120.805 -2.27436 3.75725 0
M  V30 1238 H 121.411 -0.662154 4.20114 0
M  V30 1239 N 119.726 -1.57421 0.075193 0
M  V30 1240 C 120.975 -1.92794 -0.592731 0
M  V30 1241 C 121.288 -0.957478 -1.70563 0
M  V30 1242 O 122.494 -1.20417 -2.43335 0
M  V30 1243 C 120.95 -3.42495 -1.10569 0
M  V30 1244 C 120.558 -4.47994 -0.0236121 0
M  V30 1245 C 122.302 -3.86864 -1.74748 0
M  V30 1246 C 120.209 -5.88829 -0.550803 0
M  V30 1247 H 119.139 -0.719591 -0.225177 0
M  V30 1248 H 121.79 -1.82902 0.147978 0
M  V30 1249 H 120.172 -3.47471 -1.89947 0
M  V30 1250 H 121.346 -4.54637 0.751099 0
M  V30 1251 H 119.661 -4.13113 0.522159 0
M  V30 1252 H 122.258 -4.8947 -2.15229 0
M  V30 1253 H 122.601 -3.24417 -2.60882 0
M  V30 1254 H 123.134 -3.84504 -1.01986 0
M  V30 1255 H 119.873 -6.54929 0.273457 0
M  V30 1256 H 119.393 -5.85698 -1.29296 0
M  V30 1257 H 121.072 -6.38811 -1.02613 0
M  V30 1258 N 121.204 0.198386 -1.56346 0
M  V30 1259 C 122.432 0.935572 -1.84539 0
M  V30 1260 C 122.847 1.76989 -0.657281 0
M  V30 1261 O 122.204 1.78626 0.374043 0
M  V30 1262 C 122.255 1.8344 -3.11499 0
M  V30 1263 O 121.976 1.03377 -4.25728 0
M  V30 1264 C 123.477 2.68355 -3.52846 0
M  V30 1265 H 120.697 0.273126 -0.612897 0
M  V30 1266 H 123.241 0.20663 -2.03453 0
M  V30 1267 H 121.396 2.51701 -2.94492 0
M  V30 1268 H 121.81 1.64599 -4.98003 0
M  V30 1269 H 123.284 3.27085 -4.44657 0
M  V30 1270 H 123.761 3.41901 -2.75681 0
M  V30 1271 H 124.367 2.05471 -3.72373 0
M  V30 1272 N 122.682 1.50554 0.465978 0
M  V30 1273 C 123.931 1.61038 1.21448 0
M  V30 1274 C 124.244 0.31865 1.92987 0
M  V30 1275 O 125.45 0.302469 2.6981 0
M  V30 1276 C 123.906 2.84283 2.20706 0
M  V30 1277 C 123.514 4.20352 1.54946 0
M  V30 1278 C 125.258 3.04115 2.96166 0
M  V30 1279 C 123.165 5.34778 2.5252 0
M  V30 1280 H 122.095 0.599718 0.457005 0
M  V30 1281 H 124.746 1.7699 0.484424 0
M  V30 1282 H 123.128 2.61901 2.97025 0
M  V30 1283 H 124.302 4.53008 0.843811 0
M  V30 1284 H 122.617 4.06167 0.917475 0
M  V30 1285 H 125.214 3.86774 3.69202 0
M  V30 1286 H 125.557 2.16045 3.55852 0
M  V30 1287 H 126.09 3.26702 2.26959 0
M  V30 1288 H 122.829 6.25018 1.97566 0
M  V30 1289 H 122.349 5.06534 3.21222 0
M  V30 1290 H 124.028 5.65561 3.14245 0
M  V30 1291 N 124.16 -0.719506 1.40217 0
M  V30 1292 C 125.388 -1.50864 1.41589 0
M  V30 1293 C 125.803 -1.88794 0.0145275 0
M  V30 1294 O 125.16 -1.55174 -0.960594 0
M  V30 1295 C 125.211 -2.78646 2.30302 0
M  V30 1296 O 124.932 -2.42321 3.64983 0
M  V30 1297 C 126.433 -3.72569 2.40224 0
M  V30 1298 H 123.653 -0.465709 0.48307 0
M  V30 1299 H 126.197 -0.88785 1.84221 0
M  V30 1300 H 124.352 -3.37019 1.91042 0
M  V30 1301 H 124.766 -3.24514 4.12057 0
M  V30 1302 H 126.24 -4.5908 3.06512 0
M  V30 1303 H 126.717 -4.15403 1.42608 0
M  V30 1304 H 127.323 -3.20109 2.80019 0
M  V30 1305 N 125.638 -1.25649 -0.95132 0
M  V30 1306 C 126.915 -1.01361 -1.67288 0
M  V30 1307 C 127.295 0.459135 -2.06046 0
M  V30 1308 O 126.643 1.43723 -1.7764 0
M  V30 1309 C 126.853 -1.95256 -2.89268 0
M  V30 1310 C 128.201 -2.23289 -3.61147 0
M  V30 1311 O 129.225 -1.93041 -2.99355 0
M  V30 1312 O 128.084 -2.74741 -4.72419 0
M  V30 1313 H 125.178 -0.38464 -0.732107 0
M  V30 1314 H 127.724 -1.36817 -1.00395 0
M  V30 1315 H 126.496 -2.94685 -2.57442 0
M  V30 1316 H 126.119 -1.60218 -3.6389 0
M  V30 1317 N 127.117 1.15442 -1.07289 0
M  V30 1318 C 128.065 2.22225 -0.686952 0
M  V30 1319 C 129.059 1.66688 0.30193 0
M  V30 1320 O 130.265 1.79236 0.165712 0
M  V30 1321 H 126.64 0.723783 -0.204064 0
M  V30 1322 H 128.611 2.52056 -1.5972 0
M  V30 1323 C 127.36 3.47556 -0.100149 0
M  V30 1324 H 126.683 3.90612 -0.852211 0
M  V30 1325 H 128.123 4.23794 0.132235 0
M  V30 1326 C 126.582 3.16337 1.159 0
M  V30 1327 O 127.112 3.33074 2.24555 0
M  V30 1328 N 125.318 2.70385 1.06491 0
M  V30 1329 H 124.865 2.56966 0.180668 0
M  V30 1330 H 124.823 2.49871 1.90819 0
M  V30 1331 N 128.595 0.856903 1.32268 0
M  V30 1332 C 129.841 0.462069 1.97466 0
M  V30 1333 C 130.174 -0.980298 1.67642 0
M  V30 1334 O 129.449 -1.68824 0.965858 0
M  V30 1335 C 129.732 0.704336 3.53145 0
M  V30 1336 C 129.585 2.19529 3.9259 0
M  V30 1337 C 130.904 0.1622 4.39801 0
M  V30 1338 H 128.023 0.169357 0.717278 0
M  V30 1339 H 130.665 1.07574 1.56614 0
M  V30 1340 H 128.815 0.181999 3.88073 0
M  V30 1341 H 130.487 2.78387 3.67829 0
M  V30 1342 H 128.73 2.67292 3.41668 0
M  V30 1343 H 129.401 2.31549 5.01088 0
M  V30 1344 H 131.877 0.608905 4.11621 0
M  V30 1345 H 130.753 0.361265 5.4771 0
M  V30 1346 H 131.014 -0.935158 4.32096 0
M  V30 1347 N 130.073 -1.45103 0.615059 0
M  V30 1348 C 131.301 -2.06553 0.11977 0
M  V30 1349 C 131.716 -1.45842 -1.19898 0
M  V30 1350 O 131.073 -0.575325 -1.73194 0
M  V30 1351 C 131.124 -3.61495 -0.018364 0
M  V30 1352 O 130.845 -4.19942 1.24822 0
M  V30 1353 C 132.346 -4.39947 -0.544237 0
M  V30 1354 H 129.566 -0.667096 0.0722739 0
M  V30 1355 H 132.11 -1.8623 0.84491 0
M  V30 1356 H 130.265 -3.81135 -0.693865 0
M  V30 1357 H 130.679 -5.13204 1.0827 0
M  V30 1358 H 132.153 -5.48838 -0.589953 0
M  V30 1359 H 132.63 -4.10255 -1.56805 0
M  V30 1360 H 133.236 -4.25188 0.0974703 0
M  V30 1361 N 131.551 -0.354651 -1.53558 0
M  V30 1362 C 132.779 0.239515 -2.05509 0
M  V30 1363 C 133.194 1.4333 -1.2289 0
M  V30 1364 O 132.551 1.80538 -0.266899 0
M  V30 1365 C 132.602 0.643719 -3.55723 0
M  V30 1366 O 132.323 -0.502602 -4.35207 0
M  V30 1367 C 133.824 1.29743 -4.23889 0
M  V30 1368 H 131.044 0.0442697 -0.669538 0
M  V30 1369 H 133.588 -0.509856 -1.98042 0
M  V30 1370 H 131.743 1.34302 -3.63376 0
M  V30 1371 H 132.157 -0.178172 -5.24197 0
M  V30 1372 H 133.631 1.53091 -5.30346 0
M  V30 1373 H 134.108 2.25441 -3.76926 0
M  V30 1374 H 134.714 0.639865 -4.20459 0
M  V30 1375 N 133.029 1.57378 -0.0835403 0
M  V30 1376 C 134.277 1.93547 0.581718 0
M  V30 1377 C 134.598 0.96524 1.69435 0
M  V30 1378 O 133.868 0.0153369 1.95894 0
M  V30 1379 H 132.448 0.714521 0.217874 0
M  V30 1380 H 135.11 1.94366 -0.144158 0
M  V30 1381 H 134.206 2.95665 0.999423 0
M  V30 1382 N 134.507 -0.190092 1.56449 0
M  V30 1383 C 135.747 -0.916414 1.82705 0
M  V30 1384 C 136.111 -1.80235 0.661763 0
M  V30 1385 O 137.312 -2.56484 0.80433 0
M  V30 1386 C 135.583 -1.70691 3.14005 0
M  V30 1387 S 137.142 -2.48457 3.61683 0
M  V30 1388 H 133.96 -0.307281 0.64117 0
M  V30 1389 H 136.562 -0.179433 1.94675 0
M  V30 1390 H 135.266 -1.04677 3.96826 0
M  V30 1391 H 134.797 -2.48562 3.04927 0
M  V30 1392 H 136.812 -3.72756 3.27517 0
M  V30 1393 N 135.985 -1.50799 -0.457987 0
M  V30 1394 C 137.262 -1.52968 -1.21902 0
M  V30 1395 C 137.642 -0.281906 -2.09209 0
M  V30 1396 O 136.99 0.734076 -2.16388 0
M  V30 1397 C 137.2 -2.8326 -2.03875 0
M  V30 1398 C 138.548 -3.34425 -2.6162 0
M  V30 1399 O 139.572 -2.8467 -2.14106 0
M  V30 1400 O 138.431 -4.21188 -3.48228 0
M  V30 1401 H 135.525 -0.614129 -0.553873 0
M  V30 1402 H 138.071 -1.63098 -0.468739 0
M  V30 1403 H 136.843 -3.65543 -1.39621 0
M  V30 1404 H 136.466 -2.76195 -2.8601 0
M  V30 1405 N 137.463 0.71206 -1.40597 0
M  V30 1406 C 138.712 1.46754 -1.38369 0
M  V30 1407 C 139.025 1.95598 0.0097839 0
M  V30 1408 O 140.231 2.71059 0.154677 0
M  V30 1409 C 138.687 2.65289 -2.43207 0
M  V30 1410 C 138.295 2.23301 -3.88382 0
M  V30 1411 C 140.039 3.43008 -2.50091 0
M  V30 1412 C 137.946 3.38696 -4.84808 0
M  V30 1413 H 136.876 0.55118 -0.514506 0
M  V30 1414 H 139.527 0.774616 -1.66349 0
M  V30 1415 H 137.909 3.36769 -2.08332 0
M  V30 1416 H 139.083 1.59218 -4.32419 0
M  V30 1417 H 137.398 1.58618 -3.85006 0
M  V30 1418 H 139.995 4.28881 -3.1932 0
M  V30 1419 H 140.338 3.87065 -1.53253 0
M  V30 1420 H 140.871 2.78574 -2.83974 0
M  V30 1421 H 137.61 2.99668 -5.82992 0
M  V30 1422 H 137.13 4.01683 -4.45433 0
M  V30 1423 H 138.809 4.04712 -5.04794 0
M  V30 1424 N 138.941 1.26152 0.944643 0
M  V30 1425 C 140.187 1.11657 1.69294 0
M  V30 1426 C 140.52 -0.339926 1.91202 0
M  V30 1427 O 139.795 -1.24994 1.49019 0
M  V30 1428 C 140.078 1.88236 3.06984 0
M  V30 1429 C 139.931 3.41772 2.92424 0
M  V30 1430 C 141.25 1.67343 4.07043 0
M  V30 1431 H 138.369 0.407004 0.614424 0
M  V30 1432 H 141.011 1.55106 1.09737 0
M  V30 1433 H 139.161 1.51308 3.57824 0
M  V30 1434 H 140.833 3.88433 2.48832 0
M  V30 1435 H 139.076 3.68974 2.28124 0
M  V30 1436 H 139.747 3.90579 3.90067 0
M  V30 1437 H 142.223 1.99509 3.65151 0
M  V30 1438 H 141.099 2.23346 5.01406 0
M  V30 1439 H 141.36 0.617158 4.37771 0
M  V30 1440 N 140.419 -1.14872 1.07899 0
M  V30 1441 C 141.349 -2.2193 0.725887 0
M  V30 1442 C 142.33 -1.67622 -0.28927 0
M  V30 1443 O 143.515 -1.93533 -0.160787 0
M  V30 1444 C 140.645 -3.47061 0.128856 0
M  V30 1445 C 139.599 -4.14363 1.07178 0
M  V30 1446 C 138.925 -5.33636 0.337229 0
M  V30 1447 C 140.225 -4.63492 2.40775 0
M  V30 1448 H 141.919 -2.51724 1.62097 0
M  V30 1449 H 139.465 -1.20991 0.780838 0
M  V30 1450 H 141.418 -4.21199 -0.130147 0
M  V30 1451 H 140.142 -3.16617 -0.80134 0
M  V30 1452 H 138.801 -3.42173 1.3158 0
M  V30 1453 H 138.449 -4.99449 -0.596606 0
M  V30 1454 H 138.149 -5.79609 0.965788 0
M  V30 1455 H 139.673 -6.10539 0.0861567 0
M  V30 1456 H 141.087 -5.2913 2.20669 0
M  V30 1457 H 139.484 -5.20148 2.99276 0
M  V30 1458 H 140.554 -3.78834 3.02676 0
M  V30 1459 N 141.898 -0.863906 -1.31812 0
M  V30 1460 C 143.144 -0.481841 -1.9761 0
M  V30 1461 C 143.499 0.954048 -1.6708 0
M  V30 1462 O 142.792 1.66182 -0.953624 0
M  V30 1463 C 142.986 -0.668547 -3.51091 0
M  V30 1464 C 142.815 -2.12103 -3.96538 0
M  V30 1465 C 141.585 -2.76141 -4.23171 0
M  V30 1466 C 143.783 -3.09265 -4.10925 0
M  V30 1467 N 141.765 -4.12205 -4.54929 0
M  V30 1468 C 143.136 -4.30341 -4.46326 0
M  V30 1469 C 145.191 -3.05337 -3.93286 0
M  V30 1470 C 143.894 -5.48 -4.65928 0
M  V30 1471 C 145.92 -4.22248 -4.14078 0
M  V30 1472 C 145.282 -5.42085 -4.49804 0
M  V30 1473 H 141.381 -0.225238 -0.74886 0
M  V30 1474 H 143.965 -1.11723 -1.59455 0
M  V30 1475 H 142.136 -0.0627898 -3.88349 0
M  V30 1476 H 143.868 -0.255467 -4.03893 0
M  V30 1477 H 140.623 -2.27125 -4.15585 0
M  V30 1478 H 141.047 -4.82416 -4.74978 0
M  V30 1479 H 145.689 -2.138 -3.64759 0
M  V30 1480 H 143.407 -6.40059 -4.93305 0
M  V30 1481 H 146.993 -4.20654 -4.01922 0
M  V30 1482 H 145.873 -6.31044 -4.65567 0
M  V30 1483 N 143.376 1.44774 -0.622745 0
M  V30 1484 C 144.624 2.01721 -0.123655 0
M  V30 1485 C 144.945 1.49172 1.25589 0
M  V30 1486 O 144.215 0.691974 1.83272 0
M  V30 1487 H 142.795 0.745777 -0.0427225 0
M  V30 1488 H 145.457 1.77382 -0.807559 0
M  V30 1489 H 144.553 3.11984 -0.0849534 0
M  V30 1490 N 144.854 0.36279 1.53368 0
M  V30 1491 C 145.784 -0.476976 2.28576 0
M  V30 1492 C 146.765 -1.08631 1.30894 0
M  V30 1493 O 147.95 -1.10409 1.59761 0
M  V30 1494 C 145.08 -1.61828 3.07293 0
M  V30 1495 C 144.034 -1.13633 4.1264 0
M  V30 1496 C 143.36 -2.36766 4.79423 0
M  V30 1497 C 144.66 -0.223061 5.21823 0
M  V30 1498 H 146.354 0.150474 2.99022 0
M  V30 1499 H 143.9 0.0738103 1.43811 0
M  V30 1500 H 145.853 -2.21237 3.58653 0
M  V30 1501 H 144.577 -2.27292 2.34533 0
M  V30 1502 H 143.236 -0.564945 3.62221 0
M  V30 1503 H 142.884 -3.0068 4.03238 0
M  V30 1504 H 142.584 -2.05192 5.50609 0
M  V30 1505 H 144.108 -2.96865 5.33576 0
M  V30 1506 H 145.522 -0.724545 5.68703 0
M  V30 1507 H 143.919 0.001678 6.001 0
M  V30 1508 H 144.989 0.735553 4.79289 0
M  V30 1509 N 146.332 -1.57332 0.0918853 0
M  V30 1510 C 147.609 -1.85691 -0.614668 0
M  V30 1511 C 147.989 -0.988146 -1.86545 0
M  V30 1512 O 147.337 -0.0597055 -2.28422 0
M  V30 1513 C 147.547 -3.36294 -0.933126 0
M  V30 1514 C 148.895 -4.04275 -1.29796 0
M  V30 1515 O 149.919 -3.41157 -1.02424 0
M  V30 1516 O 148.778 -5.1564 -1.81047 0
M  V30 1517 H 145.872 -0.767802 -0.307261 0
M  V30 1518 H 148.418 -1.69244 0.12434 0
M  V30 1519 H 147.19 -3.91273 -0.0456404 0
M  V30 1520 H 146.813 -3.58076 -1.72822 0
M  V30 1521 N 147.81 0.181792 -1.56548 0
M  V30 1522 C 149.056 0.896803 -1.82562 0
M  V30 1523 C 149.411 1.80324 -0.670908 0
M  V30 1524 O 148.704 1.8868 0.333235 0
M  V30 1525 C 148.898 1.73728 -3.12335 0
M  V30 1526 C 148.727 0.913714 -4.4032 0
M  V30 1527 C 147.497 0.592903 -5.01809 0
M  V30 1528 C 149.695 0.260164 -5.13642 0
M  V30 1529 N 147.677 -0.247901 -6.13399 0
M  V30 1530 C 149.048 -0.442256 -6.18421 0
M  V30 1531 C 151.103 0.177253 -4.97584 0
M  V30 1532 C 149.806 -1.21971 -7.08883 0
M  V30 1533 C 151.832 -0.586839 -5.88481 0
M  V30 1534 C 151.194 -1.27766 -6.92716 0
M  V30 1535 H 147.293 0.307122 -0.719166 0
M  V30 1536 H 149.877 0.164535 -1.94004 0
M  V30 1537 H 148.048 2.44105 -3.02105 0
M  V30 1538 H 149.78 2.39279 -3.26386 0
M  V30 1539 H 146.535 0.920502 -4.64568 0
M  V30 1540 H 146.959 -0.658304 -6.73792 0
M  V30 1541 H 151.601 0.696993 -4.17015 0
M  V30 1542 H 149.319 -1.75083 -7.88905 0
M  V30 1543 H 152.905 -0.652522 -5.78129 0
M  V30 1544 H 151.785 -1.85943 -7.61836 0
M  V30 1545 N 149.288 1.51039 0.449983 0
M  V30 1546 C 150.238 1.67824 1.54335 0
M  V30 1547 C 151.222 0.5324 1.51836 0
M  V30 1548 O 152.414 0.787762 1.58503 0
M  V30 1549 C 149.543 1.7951 2.92628 0
M  V30 1550 C 148.629 2.99838 2.9993 0
M  V30 1551 N 149.02 4.23207 2.77001 0
M  V30 1552 C 147.318 2.98832 3.31082 0
M  V30 1553 C 148.019 5.04361 2.89818 0
M  V30 1554 N 146.995 4.38746 3.2094 0
M  V30 1555 H 150.797 2.60884 1.35339 0
M  V30 1556 H 148.311 1.48513 0.657085 0
M  V30 1557 H 150.308 1.89642 3.7127 0
M  V30 1558 H 148.968 0.876227 3.12654 0
M  V30 1559 H 149.979 4.5236 2.52172 0
M  V30 1560 H 146.656 2.16527 3.56963 0
M  V30 1561 H 148.046 6.12528 2.76151 0
M  V30 1562 N 150.766 -0.704594 1.40972 0
M  V30 1563 C 151.698 -1.82974 1.38033 0
M  V30 1564 C 152.711 -1.60305 0.283931 0
M  V30 1565 O 153.9 -1.69975 0.545042 0
M  V30 1566 C 151 -3.19578 1.12795 0
M  V30 1567 C 150.173 -3.69352 2.34302 0
M  V30 1568 C 149.232 -4.84601 2.05058 0
M  V30 1569 O 148.258 -4.96682 2.7802 0
M  V30 1570 N 149.46 -5.71194 1.03528 0
M  V30 1571 H 152.225 -1.85991 2.35005 0
M  V30 1572 H 149.786 -0.886567 1.35468 0
M  V30 1573 H 151.778 -3.9429 0.911987 0
M  V30 1574 H 150.348 -3.11642 0.24452 0
M  V30 1575 H 149.568 -2.85649 2.71659 0
M  V30 1576 H 150.856 -3.99345 3.1528 0
M  V30 1577 H 150.254 -5.64054 0.431217 0
M  V30 1578 H 148.811 -6.45843 0.879205 0
M  V30 1579 N 152.244 -1.26651 -0.937939 0
M  V30 1580 C 153.492 -1.12165 -1.68118 0
M  V30 1581 C 153.813 0.334983 -1.92101 0
M  V30 1582 O 153.083 1.23583 -1.52 0
M  V30 1583 H 151.663 -0.412093 -0.623048 0
M  V30 1584 H 154.325 -1.59027 -1.12678 0
M  V30 1585 H 153.421 -1.64289 -2.6536 0
M  V30 1586 N 153.722 1.14298 -1.08507 0
M  V30 1587 C 154.999 1.81544 -0.728088 0
M  V30 1588 C 155.379 1.95838 0.78808 0
M  V30 1589 O 154.727 1.51904 1.70697 0
M  V30 1590 C 154.937 3.17169 -1.45619 0
M  V30 1591 C 156.285 3.9265 -1.61591 0
M  V30 1592 O 157.309 3.26762 -1.41793 0
M  V30 1593 O 156.168 5.10807 -1.94263 0
M  V30 1594 H 153.262 0.78491 -0.260471 0
M  V30 1595 H 155.808 1.21307 -1.18671 0
M  V30 1596 H 154.58 3.01934 -2.489 0
M  V30 1597 H 154.203 3.851 -0.989124 0
M  V30 1598 N 155.201 0.870884 1.31352 0
M  V30 1599 C 156.111 0.330783 2.32256 0
M  V30 1600 C 157.127 -0.559767 1.6475 0
M  V30 1601 O 158.303 -0.456263 1.96164 0
M  V30 1602 C 155.368 -0.458137 3.4366 0
M  V30 1603 C 154.429 0.460482 4.26823 0
M  V30 1604 C 153.662 -0.290881 5.32907 0
M  V30 1605 O 153.885 -1.51885 5.49806 0
M  V30 1606 O 152.819 0.351732 6.00871 0
M  V30 1607 H 156.645 1.16718 2.80376 0
M  V30 1608 H 154.23 0.634285 1.35267 0
M  V30 1609 H 156.112 -0.905343 4.1156 0
M  V30 1610 H 154.787 -1.27106 2.97701 0
M  V30 1611 H 153.694 0.956207 3.61673 0
M  V30 1612 H 155.027 1.23903 4.7635 0
M  V30 1613 N 156.679 -1.44442 0.630414 0
M  V30 1614 C 157.928 -2.01267 0.132073 0
M  V30 1615 C 158.241 -1.50172 -1.25331 0
M  V30 1616 O 159.447 -1.9912 -1.84562 0
M  V30 1617 C 157.903 -3.59422 0.185362 0
M  V30 1618 C 157.511 -4.19514 1.57201 0
M  V30 1619 C 159.255 -4.23724 -0.256553 0
M  V30 1620 C 157.162 -5.69891 1.58045 0
M  V30 1621 H 156.092 -0.752619 0.0456092 0
M  V30 1622 H 158.743 -1.65666 0.789106 0
M  V30 1623 H 157.125 -3.92318 -0.538759 0
M  V30 1624 H 158.299 -3.98156 2.31966 0
M  V30 1625 H 156.614 -3.67496 1.95795 0
M  V30 1626 H 159.211 -5.34019 -0.269767 0
M  V30 1627 H 159.554 -3.96013 -1.28372 0
M  V30 1628 H 160.087 -3.95629 0.41505 0
M  V30 1629 H 156.826 -6.02336 2.58597 0
M  V30 1630 H 156.346 -5.93373 0.875725 0
M  V30 1631 H 158.025 -6.33515 1.31408 0
M  V30 1632 N 158.157 -0.370918 -1.53173 0
M  V30 1633 C 159.087 0.464847 -2.28826 0
M  V30 1634 C 160.068 1.07936 -1.31468 0
M  V30 1635 O 161.253 1.0956 -1.60344 0
M  V30 1636 C 158.383 1.60196 -3.08147 0
M  V30 1637 C 157.337 1.11443 -4.13237 0
M  V30 1638 C 156.663 2.3422 -4.80672 0
M  V30 1639 C 157.963 0.195384 -5.21934 0
M  V30 1640 H 159.657 -0.166329 -2.98938 0
M  V30 1641 H 157.203 -0.0814359 -1.4377 0
M  V30 1642 H 159.156 2.19332 -3.59822 0
M  V30 1643 H 157.88 2.26045 -2.35735 0
M  V30 1644 H 156.539 0.545727 -3.62515 0
M  V30 1645 H 156.187 2.98537 -4.04827 0
M  V30 1646 H 155.887 2.02269 -5.51689 0
M  V30 1647 H 157.411 2.94032 -5.35143 0
M  V30 1648 H 158.825 0.694375 -5.69079 0
M  V30 1649 H 157.222 -0.0335027 -6.00091 0
M  V30 1650 H 158.292 -0.760961 -4.78892 0
M  V30 1651 N 159.635 1.57281 -0.100228 0
M  V30 1652 C 160.565 2.17328 0.853857 0
M  V30 1653 C 161.546 1.10804 1.2906 0
M  V30 1654 O 162.731 1.38963 1.35657 0
M  V30 1655 C 159.861 2.75772 2.11109 0
M  V30 1656 C 158.815 3.87713 1.81279 0
M  V30 1657 C 158.141 4.32882 3.13874 0
M  V30 1658 C 159.441 5.10677 1.09574 0
M  V30 1659 H 161.135 2.97305 0.353545 0
M  V30 1660 H 158.681 1.43009 0.168612 0
M  V30 1661 H 160.634 3.16433 2.78296 0
M  V30 1662 H 159.358 1.93057 2.63432 0
M  V30 1663 H 158.017 3.476 1.16489 0
M  V30 1664 H 157.665 3.47051 3.64095 0
M  V30 1665 H 157.365 5.08358 2.94696 0
M  V30 1666 H 158.889 4.7618 3.82211 0
M  V30 1667 H 160.303 5.48474 1.66879 0
M  V30 1668 H 158.7 5.91615 1.00557 0
M  V30 1669 H 159.77 4.84835 0.0793299 0
M  V30 1670 N 161.113 -0.173488 1.56642 0
M  V30 1671 C 162.341 -0.906095 1.86004 0
M  V30 1672 C 162.756 -1.75921 0.685355 0
M  V30 1673 O 162.113 -1.79198 -0.345578 0
M  V30 1674 C 162.164 -1.78462 3.14378 0
M  V30 1675 O 161.885 -0.965914 4.27319 0
M  V30 1676 C 163.386 -2.62707 3.57071 0
M  V30 1677 H 160.606 -0.263341 0.617165 0
M  V30 1678 H 163.15 -0.174236 2.03756 0
M  V30 1679 H 161.305 -2.46984 2.98459 0
M  V30 1680 H 161.719 -1.56655 5.00559 0
M  V30 1681 H 163.193 -3.19969 4.49804 0
M  V30 1682 H 163.67 -3.37472 2.81086 0
M  V30 1683 H 164.276 -1.99521 3.75595 0
M  V30 1684 N 162.591 -1.51276 -0.441967 0
M  V30 1685 C 163.868 -1.54252 -1.20273 0
M  V30 1686 C 164.248 -0.30408 -2.08898 0
M  V30 1687 O 163.596 0.711084 -2.17154 0
M  V30 1688 C 163.806 -2.85406 -2.00859 0
M  V30 1689 C 165.154 -3.37181 -2.58059 0
M  V30 1690 O 166.178 -2.86925 -2.11074 0
M  V30 1691 O 165.037 -4.24858 -3.43741 0
M  V30 1692 H 162.131 -0.619969 -0.547328 0
M  V30 1693 H 164.677 -1.63586 -0.451413 0
M  V30 1694 H 163.449 -3.67003 -1.35736 0
M  V30 1695 H 163.072 -2.79213 -2.83065 0
M  V30 1696 N 164.069 0.697108 -1.41344 0
M  V30 1697 C 165.309 1.46939 -1.42085 0
M  V30 1698 C 165.673 1.9198 -0.0280397 0
M  V30 1699 O 166.874 2.6865 0.0897504 0
M  V30 1700 C 165.145 2.64985 -2.39828 0
M  V30 1701 S 166.704 3.54147 -2.59085 0
M  V30 1702 H 163.522 0.502146 -0.503359 0
M  V30 1703 H 166.124 0.813546 -1.77769 0
M  V30 1704 H 164.828 2.30098 -3.39828 0
M  V30 1705 H 164.359 3.35464 -2.05493 0
M  V30 1706 H 166.374 4.60137 -1.85711 0
M  V30 1707 N 165.547 1.27147 0.931209 0
M  V30 1708 C 166.457 1.11372 2.06478 0
M  V30 1709 C 167.473 0.044645 1.73943 0
M  V30 1710 O 168.649 0.250417 1.99837 0
M  V30 1711 C 165.714 0.758838 3.38294 0
M  V30 1712 C 164.775 1.90841 3.84549 0
M  V30 1713 C 164.008 1.57036 5.10074 0
M  V30 1714 O 164.231 0.476645 5.68405 0
M  V30 1715 O 163.165 2.40839 5.51616 0
M  V30 1716 H 166.991 2.06493 2.22698 0
M  V30 1717 H 164.576 1.06301 1.04978 0
M  V30 1718 H 166.458 0.574098 4.17471 0
M  V30 1719 H 165.133 -0.162879 3.2329 0
M  V30 1720 H 164.04 2.14819 3.06274 0
M  V30 1721 H 165.373 2.81021 4.04089 0
M  V30 1722 N 167.025 -1.13721 1.09112 0
M  V30 1723 C 167.975 -2.17082 0.697091 0
M  V30 1724 C 168.959 -1.58321 -0.286923 0
M  V30 1725 O 170.151 -1.7673 -0.0978008 0
M  V30 1726 C 167.28 -3.43105 0.115729 0
M  V30 1727 C 166.366 -4.0888 1.12596 0
M  V30 1728 N 166.757 -4.4987 2.31195 0
M  V30 1729 C 165.055 -4.35471 0.963366 0
M  V30 1730 C 165.756 -5.01094 2.95431 0
M  V30 1731 N 164.732 -4.95751 2.23006 0
M  V30 1732 H 168.534 -2.46524 1.6001 0
M  V30 1733 H 166.048 -1.30481 0.966869 0
M  V30 1734 H 168.045 -4.16491 -0.184555 0
M  V30 1735 H 166.705 -3.15138 -0.78217 0
M  V30 1736 H 167.716 -4.42678 2.68806 0
M  V30 1737 H 164.393 -4.17328 0.119878 0
M  V30 1738 H 165.783 -5.4263 3.96236 0
M  V30 1739 N 168.503 -0.877838 -1.30888 0
M  V30 1740 C 169.914 -0.544193 -1.78593 0
M  V30 1741 C 170.265 0.939301 -1.72254 0
M  V30 1742 O 169.39 1.7337 -1.29505 0
M  V30 1743 C 169.985 -0.98105 -3.24285 0
M  V30 1744 C 168.544 -0.698935 -3.69854 0
M  V30 1745 C 167.691 -1.168 -2.51502 0
M  V30 1746 H 170.642 -1.06278 -1.17859 0
M  V30 1747 H 170.663 -0.307009 -3.79259 0
M  V30 1748 H 170.175 -2.06079 -3.28866 0
M  V30 1749 H 168.276 0.369112 -3.70767 0
M  V30 1750 H 168.389 -1.28148 -4.61644 0
M  V30 1751 H 166.753 -0.587535 -2.47831 0
M  V30 1752 H 167.536 -2.25533 -2.58824 0
M  V30 1753 N 169.982 1.44106 -0.638065 0
M  V30 1754 C 171.23 2.01579 -0.145043 0
M  V30 1755 C 171.551 1.50496 1.24 0
M  V30 1756 O 170.821 0.711374 1.82527 0
M  V30 1757 H 169.401 0.745282 -0.05063 0
M  V30 1758 H 172.063 1.76516 -0.826327 0
M  V30 1759 H 171.159 3.11877 -0.118039 0
M  V30 1760 N 171.46 0.379036 1.52974 0
M  V30 1761 C 172.709 -0.207612 2.00629 0
M  V30 1762 C 173.022 -1.48758 1.27006 0
M  V30 1763 O 174.228 -2.15365 1.65318 0
M  V30 1764 C 172.684 -0.42053 3.57435 0
M  V30 1765 C 172.292 0.845587 4.39948 0
M  V30 1766 C 174.036 -0.964102 4.13407 0
M  V30 1767 C 171.943 0.601513 5.88333 0
M  V30 1768 H 170.873 -0.0813591 0.749598 0
M  V30 1769 H 173.524 0.499853 1.76561 0
M  V30 1770 H 171.906 -1.18959 3.7771 0
M  V30 1771 H 173.08 1.61848 4.31442 0
M  V30 1772 H 171.395 1.31336 3.95145 0
M  V30 1773 H 173.992 -1.16225 5.21916 0
M  V30 1774 H 174.335 -1.93019 3.68849 0
M  V30 1775 H 174.868 -0.25487 3.96983 0
M  V30 1776 H 171.607 1.53831 6.37194 0
M  V30 1777 H 171.127 -0.132628 5.99653 0
M  V30 1778 H 172.806 0.232134 6.46583 0
M  V30 1779 N 172.938 -1.57226 0.108567 0
M  V30 1780 C 174.187 -1.94008 -0.551703 0
M  V30 1781 C 174.5 -0.993442 -1.68494 0
M  V30 1782 O 175.706 -1.25551 -2.40726 0
M  V30 1783 C 174.162 -3.44763 -1.03279 0
M  V30 1784 C 173.77 -4.47943 0.0714193 0
M  V30 1785 C 175.514 -3.90483 -1.66503 0
M  V30 1786 C 173.421 -5.89865 -0.425779 0
M  V30 1787 H 172.351 -0.724206 -0.209863 0
M  V30 1788 H 175.002 -1.82547 0.186741 0
M  V30 1789 H 173.384 -3.51422 -1.82533 0
M  V30 1790 H 174.558 -4.52942 0.847365 0
M  V30 1791 H 172.873 -4.11913 0.609669 0
M  V30 1792 H 175.47 -4.93925 -2.04798 0
M  V30 1793 H 175.813 -3.29877 -2.53942 0
M  V30 1794 H 176.346 -3.86581 -0.938074 0
M  V30 1795 H 173.085 -6.54202 0.412316 0
M  V30 1796 H 172.605 -5.88309 -1.16843 0
M  V30 1797 H 174.284 -6.40844 -0.890397 0
M  V30 1798 N 174.416 0.165178 -1.56732 0
M  V30 1799 C 175.379 1.18822 -1.95995 0
M  V30 1800 C 176.379 1.3685 -0.84431 0
M  V30 1801 O 177.569 1.34152 -1.11126 0
M  V30 1802 C 174.701 2.5521 -2.26011 0
M  V30 1803 H 175.894 0.851825 -2.87548 0
M  V30 1804 H 173.447 0.407857 -1.50885 0
M  V30 1805 H 174.182 2.93852 -1.37191 0
M  V30 1806 H 173.967 2.43489 -3.07336 0
M  V30 1807 H 175.457 3.28927 -2.57288 0
M  V30 1808 N 175.894 1.51508 0.433938 0
M  V30 1809 C 177.143 1.63578 1.18005 0
M  V30 1810 C 177.456 0.359514 1.92268 0
M  V30 1811 O 178.662 0.359632 2.69108 0
M  V30 1812 C 177.118 2.88901 2.14626 0
M  V30 1813 C 176.726 4.23544 1.45995 0
M  V30 1814 C 178.47 3.10328 2.89649 0
M  V30 1815 C 176.377 5.40014 2.4112 0
M  V30 1816 H 175.307 0.609277 0.444182 0
M  V30 1817 H 177.958 1.77978 0.446773 0
M  V30 1818 H 176.34 2.68142 2.91403 0
M  V30 1819 H 177.514 4.54696 0.747532 0
M  V30 1820 H 175.829 4.08021 0.831115 0
M  V30 1821 H 178.426 3.94518 3.60915 0
M  V30 1822 H 178.769 2.23544 3.51189 0
M  V30 1823 H 179.302 3.31443 2.19978 0
M  V30 1824 H 176.041 6.29068 1.84264 0
M  V30 1825 H 175.561 5.13233 3.10406 0
M  V30 1826 H 177.24 5.72099 3.02177 0
M  V30 1827 N 177.372 -0.689602 1.41712 0
M  V30 1828 C 178.618 -1.45181 1.41599 0
M  V30 1829 C 178.951 -1.94181 0.0270081 0
M  V30 1830 O 178.226 -1.6993 -0.946265 0
M  V30 1831 C 178.509 -2.65945 2.42787 0
M  V30 1832 C 178.362 -2.22672 3.90816 0
M  V30 1833 C 179.681 -3.68149 2.41151 0
M  V30 1834 H 176.8 -0.526576 0.515642 0
M  V30 1835 H 179.442 -0.784947 1.73028 0
M  V30 1836 H 177.592 -3.2284 2.16116 0
M  V30 1837 H 179.264 -1.71058 4.28412 0
M  V30 1838 H 177.507 -1.54394 4.05395 0
M  V30 1839 H 178.178 -3.0935 4.57172 0
M  V30 1840 H 180.654 -3.2094 2.64834 0
M  V30 1841 H 179.53 -4.50248 3.13955 0
M  V30 1842 H 179.791 -4.18259 1.43221 0
M  V30 1843 N 178.85 -1.27639 -0.924453 0
M  V30 1844 C 179.782 -1.06442 -2.02985 0
M  V30 1845 C 180.795 -0.0194771 -1.62788 0
M  V30 1846 O 181.984 -0.261388 -1.76576 0
M  V30 1847 C 179.084 -0.59327 -3.33667 0
M  V30 1848 C 178.257 -1.71123 -4.02537 0
M  V30 1849 C 177.316 -1.23527 -5.11495 0
M  V30 1850 O 176.342 -1.93553 -5.35281 0
M  V30 1851 N 177.544 -0.0926678 -5.80426 0
M  V30 1852 H 180.309 -2.01633 -2.2173 0
M  V30 1853 H 177.87 -1.19248 -1.09505 0
M  V30 1854 H 179.862 -0.258686 -4.03872 0
M  V30 1855 H 178.432 0.265502 -3.1147 0
M  V30 1856 H 177.652 -2.21593 -3.26022 0
M  V30 1857 H 178.94 -2.46145 -4.45298 0
M  V30 1858 H 178.338 0.491741 -5.63559 0
M  V30 1859 H 176.895 0.182714 -6.51544 0
M  V30 1860 N 180.328 1.1314 -1.09713 0
M  V30 1861 C 181.291 2.16831 -0.742751 0
M  V30 1862 C 182.291 1.59159 0.229129 0
M  V30 1863 O 183.481 1.74199 0.00693237 0
M  V30 1864 C 180.613 3.40756 -0.0989168 0
M  V30 1865 H 181.806 2.49695 -1.66109 0
M  V30 1866 H 179.359 1.2802 -0.896699 0
M  V30 1867 H 180.094 3.13485 0.830514 0
M  V30 1868 H 179.879 3.83888 -0.798265 0
M  V30 1869 H 181.369 4.17386 0.133524 0
M  V30 1870 N 181.806 0.884767 1.30421 0
M  V30 1871 C 183.055 0.499164 1.95426 0
M  V30 1872 C 183.368 -0.95645 1.70621 0
M  V30 1873 O 184.574 -1.44889 2.29607 0
M  V30 1874 C 183.03 0.84177 3.49917 0
M  V30 1875 C 182.638 2.31514 3.83543 0
M  V30 1876 C 184.382 0.525355 4.21237 0
M  V30 1877 C 182.289 2.59939 5.31212 0
M  V30 1878 H 181.219 0.182944 0.73147 0
M  V30 1879 H 183.87 1.07971 1.48373 0
M  V30 1880 H 182.252 0.190311 3.95542 0
M  V30 1881 H 183.426 3.0109 3.48829 0
M  V30 1882 H 181.741 2.59907 3.25326 0
M  V30 1883 H 184.338 0.714762 5.29901 0
M  V30 1884 H 184.681 -0.535222 4.12845 0
M  V30 1885 H 185.214 1.134 3.81294 0
M  V30 1886 H 181.953 3.64736 5.44654 0
M  V30 1887 H 181.473 1.94972 5.67227 0
M  V30 1888 H 183.152 2.45429 5.98643 0
M  V30 1889 N 183.284 -1.43765 0.645699 0
M  V30 1890 C 184.247 -2.29163 -0.0409488 0
M  V30 1891 C 185.247 -1.41813 -0.757996 0
M  V30 1892 O 186.437 -1.63527 -0.600382 0
M  V30 1893 C 183.569 -3.23716 -1.06869 0
M  V30 1894 H 184.762 -2.91366 0.710345 0
M  V30 1895 H 182.315 -1.5092 0.406547 0
M  V30 1896 H 183.05 -2.66393 -1.84947 0
M  V30 1897 H 182.835 -3.88105 -0.558277 0
M  V30 1898 H 184.325 -3.87831 -1.54845 0
M  V30 1899 N 184.763 -0.387143 -1.52771 0
M  V30 1900 C 185.726 0.436939 -2.24997 0
M  V30 1901 C 186.726 0.991991 -1.26555 0
M  V30 1902 O 187.916 0.874335 -1.50669 0
M  V30 1903 C 185.048 1.61281 -3.00335 0
M  V30 1904 H 186.241 -0.195365 -2.99263 0
M  V30 1905 H 183.794 -0.139218 -1.55679 0
M  V30 1906 H 184.529 2.2826 -2.30364 0
M  V30 1907 H 184.314 1.22154 -3.72587 0
M  V30 1908 H 185.804 2.19629 -3.5518 0
M  V30 1909 N 186.241 1.57166 -0.116904 0
M  V30 1910 C 187.657 1.5779 0.239693 0
M  V30 1911 C 187.857 1.1295 1.66867 0
M  V30 1912 O 186.913 0.81592 2.38954 0
M  V30 1913 C 188.226 3.00699 0.00828202 0
M  V30 1914 C 189.774 3.12912 0.0743438 0
M  V30 1915 C 190.249 4.57817 -0.129348 0
M  V30 1916 N 191.74 4.63139 -0.075247 0
M  V30 1917 C 192.475 5.73023 -0.207788 0
M  V30 1918 N 191.971 6.91665 -0.396382 0
M  V30 1919 N 193.764 5.61906 -0.14751 0
M  V30 1920 H 185.915 1.84615 -1.05029 0
M  V30 1921 H 188.178 0.85311 -0.41341 0
M  V30 1922 H 187.884 3.37784 -0.979531 0
M  V30 1923 H 187.758 3.69848 0.741077 0
M  V30 1924 H 190.145 2.75686 1.05268 0
M  V30 1925 H 190.226 2.4631 -0.690297 0
M  V30 1926 H 189.87 4.95742 -1.10465 0
M  V30 1927 H 189.8 5.22507 0.655253 0
M  V30 1928 H 192.291 3.7784 0.0670898 0
M  V30 1929 H 192.604 7.71255 -0.488437 0
M  V30 1930 H 190.949 6.93654 -0.432329 0
M  V30 1931 H 194.14 4.681 -0.00115036 0
M  V30 1932 H 194.313 6.47501 -0.254247 0
M  V30 1933 N 187.719 -0.156864 1.56817 0
M  V30 1934 C 188.966 -0.871125 1.82805 0
M  V30 1935 C 189.294 -1.81611 0.696262 0
M  V30 1936 O 188.549 -1.93141 -0.315459 0
M  V30 1937 C 188.848 -1.68737 3.1506 0
M  V30 1938 C 188.514 -0.890045 4.42028 0
M  V30 1939 C 187.176 -0.670042 4.76512 0
M  V30 1940 C 189.528 -0.331769 5.20143 0
M  V30 1941 C 186.856 0.119104 5.86579 0
M  V30 1942 C 189.208 0.444365 6.31037 0
M  V30 1943 C 187.872 0.675035 6.64078 0
M  V30 1944 H 187.142 -0.318767 0.668931 0
M  V30 1945 H 189.789 -0.135274 1.91022 0
M  V30 1946 H 188.094 -2.49304 3.0225 0
M  V30 1947 H 189.791 -2.24331 3.3238 0
M  V30 1948 H 186.381 -1.07157 4.14988 0
M  V30 1949 H 190.565 -0.489043 4.93885 0
M  V30 1950 H 185.821 0.307417 6.10627 0
M  V30 1951 H 189.995 0.884139 6.90765 0
M  V30 1952 H 187.622 1.28839 7.49203 0
M  V30 1953 N 189.197 -1.51736 -0.425897 0
M  V30 1954 C 190.445 -1.64644 -1.17204 0
M  V30 1955 C 190.766 -0.370486 -1.91448 0
M  V30 1956 O 190.036 0.614088 -1.86026 0
M  V30 1957 H 188.616 -0.606819 -0.435638 0
M  V30 1958 H 191.278 -1.88713 -0.487177 0
M  V30 1959 H 190.374 -2.47958 -1.89534 0
M  V30 1960 N 190.675 0.682077 -1.42076 0
M  V30 1961 C 191.924 1.43786 -1.41451 0
M  V30 1962 C 192.237 1.95574 -0.0317074 0
M  V30 1963 O 193.443 2.71326 0.0971462 0
M  V30 1964 C 191.899 2.60071 -2.48779 0
M  V30 1965 C 191.507 2.15013 -3.93031 0
M  V30 1966 C 193.251 3.37626 -2.57311 0
M  V30 1967 C 191.158 3.28336 -4.91883 0
M  V30 1968 H 190.088 0.540143 -0.526082 0
M  V30 1969 H 192.739 0.739157 -1.67955 0
M  V30 1970 H 191.121 3.32275 -2.15429 0
M  V30 1971 H 192.295 1.5001 -4.35699 0
M  V30 1972 H 190.61 1.50416 -3.88284 0
M  V30 1973 H 193.207 4.22012 -3.28345 0
M  V30 1974 H 193.55 3.83727 -1.61429 0
M  V30 1975 H 194.083 2.72488 -2.89819 0
M  V30 1976 H 190.822 2.87234 -5.89217 0
M  V30 1977 H 190.342 3.92145 -4.53853 0
M  V30 1978 H 192.021 3.93913 -5.13265 0
M  V30 1979 N 192.153 1.28127 0.917671 0
M  V30 1980 C 193.381 1.17892 1.70026 0
M  V30 1981 C 193.796 -0.262958 1.8696 0
M  V30 1982 O 193.153 -1.17811 1.3938 0
M  V30 1983 C 193.204 1.86872 3.09453 0
M  V30 1984 O 192.925 3.25428 2.93306 0
M  V30 1985 C 194.426 1.8289 4.03815 0
M  V30 1986 H 191.646 0.40942 0.531617 0
M  V30 1987 H 194.19 1.69181 1.14883 0
M  V30 1988 H 192.345 1.39464 3.61426 0
M  V30 1989 H 192.759 3.59918 3.81523 0
M  V30 1990 H 194.233 2.35751 4.99125 0
M  V30 1991 H 194.71 0.800412 4.31845 0
M  V30 1992 H 195.316 2.29959 3.57769 0
M  V30 1993 N 193.631 -1.12557 1.10312 0
M  V30 1994 C 194.861 -1.87592 0.865617 0
M  V30 1995 C 195.269 -1.79851 -0.587389 0
M  V30 1996 O 194.612 -1.16949 -1.41664 0
M  V30 1997 C 194.674 -3.37665 1.23381 0
M  V30 1998 C 194.338 -3.69181 2.69359 0
M  V30 1999 C 195.335 -3.67652 3.67597 0
M  V30 2000 C 193.02 -3.98555 3.05711 0
M  V30 2001 C 195.014 -3.95053 5.00212 0
M  V30 2002 C 192.701 -4.25616 4.38514 0
M  V30 2003 C 193.699 -4.23851 5.35574 0
M  V30 2004 O 193.387 -4.50242 6.65986 0
M  V30 2005 H 193.119 -0.600442 0.310557 0
M  V30 2006 H 195.673 -1.4335 1.47105 0
M  V30 2007 H 193.903 -3.82454 0.571467 0
M  V30 2008 H 195.592 -3.94041 0.973994 0
M  V30 2009 H 196.358 -3.45024 3.40857 0
M  V30 2010 H 192.237 -3.99071 2.30789 0
M  V30 2011 H 195.781 -3.93591 5.75962 0
M  V30 2012 H 191.678 -4.47718 4.64994 0
M  V30 2013 H 192.446 -4.67867 6.71597 0
M  V30 2014 N 195.109 -0.891671 -1.2995 0
M  V30 2015 C 196.525 -0.58662 -1.48428 0
M  V30 2016 C 196.725 0.873951 -1.81561 0
M  V30 2017 O 195.781 1.65471 -1.90724 0
M  V30 2018 C 197.094 -1.50553 -2.60296 0
M  V30 2019 C 198.642 -1.50988 -2.74175 0
M  V30 2020 C 199.117 -2.41488 -3.89163 0
M  V30 2021 N 200.608 -2.39489 -3.96483 0
M  V30 2022 C 201.343 -3.06223 -4.84784 0
M  V30 2023 N 200.839 -3.82206 -5.77833 0
M  V30 2024 N 202.632 -2.95421 -4.78208 0
M  V30 2025 H 194.783 -1.83644 -1.06718 0
M  V30 2026 H 197.046 -0.786455 -0.529332 0
M  V30 2027 H 196.752 -2.54581 -2.42654 0
M  V30 2028 H 196.626 -1.22008 -3.56923 0
M  V30 2029 H 199.013 -0.47708 -2.91218 0
M  V30 2030 H 199.094 -1.83567 -1.78148 0
M  V30 2031 H 198.738 -3.44857 -3.72876 0
M  V30 2032 H 198.668 -2.06222 -4.84541 0
M  V30 2033 H 201.159 -1.84278 -3.29924 0
M  V30 2034 H 201.472 -4.302 -6.41988 0
M  V30 2035 H 199.817 -3.86313 -5.77743 0
M  V30 2036 H 203.008 -2.35581 -4.04499 0
M  V30 2037 H 203.181 -3.47704 -5.46814 0
M  V30 2038 N 196.587 1.43421 -0.653314 0
M  V30 2039 C 197.834 2.01812 -0.166745 0
M  V30 2040 C 198.162 1.51535 1.21931 0
M  V30 2041 O 197.417 0.698975 1.82792 0
M  V30 2042 C 197.716 3.57176 -0.126623 0
M  V30 2043 C 197.382 4.26798 -1.45444 0
M  V30 2044 C 196.044 4.45534 -1.81805 0
M  V30 2045 C 198.396 4.66225 -2.32989 0
M  V30 2046 C 195.724 5.00961 -3.05377 0
M  V30 2047 C 198.076 5.23021 -3.55853 0
M  V30 2048 C 196.74 5.39973 -3.9241 0
M  V30 2049 H 196.01 0.738484 -0.0610162 0
M  V30 2050 H 198.657 1.71896 -0.84404 0
M  V30 2051 H 196.962 3.86634 0.634123 0
M  V30 2052 H 198.659 4.00112 0.266723 0
M  V30 2053 H 195.249 4.12561 -1.16153 0
M  V30 2054 H 199.433 4.51443 -2.06187 0
M  V30 2055 H 194.689 5.12271 -3.3375 0
M  V30 2056 H 198.863 5.52518 -4.23907 0
M  V30 2057 H 196.49 5.82687 -4.88242 0
M  V30 2058 N 198.065 0.39524 1.52563 0
M  V30 2059 C 199.312 -0.185044 2.01653 0
M  V30 2060 C 199.64 -1.46317 1.28146 0
M  V30 2061 O 198.895 -1.9213 0.372074 0
M  V30 2062 C 199.194 -0.493444 3.53977 0
M  V30 2063 C 198.86 0.69384 4.4553 0
M  V30 2064 C 197.522 1.01954 4.70275 0
M  V30 2065 C 199.874 1.48785 4.99512 0
M  V30 2066 C 197.202 2.14069 5.46252 0
M  V30 2067 C 199.554 2.59965 5.76716 0
M  V30 2068 C 198.218 2.93037 5.99738 0
M  V30 2069 H 197.488 -0.0677123 0.7379 0
M  V30 2070 H 200.135 0.533807 1.8391 0
M  V30 2071 H 198.44 -1.29369 3.69825 0
M  V30 2072 H 200.137 -0.955163 3.89458 0
M  V30 2073 H 196.727 0.429987 4.26438 0
M  V30 2074 H 200.911 1.24946 4.80315 0
M  V30 2075 H 196.167 2.40056 5.62302 0
M  V30 2076 H 200.341 3.21887 6.17545 0
M  V30 2077 H 197.968 3.8003 6.58393 0
M  V30 2078 N 199.544 -1.57102 0.125237 0
M  V30 2079 C 200.955 -1.82384 -0.399142 0
M  V30 2080 C 201.306 -1.04276 -1.66195 0
M  V30 2081 O 200.431 -0.281269 -2.14564 0
M  V30 2082 C 201.026 -3.30821 -0.730932 0
M  V30 2083 C 199.585 -3.56762 -1.19992 0
M  V30 2084 C 198.732 -2.7649 -0.211792 0
M  V30 2085 H 201.683 -1.54786 0.350277 0
M  V30 2086 H 201.704 -3.4579 -1.58775 0
M  V30 2087 H 201.216 -3.87643 0.188345 0
M  V30 2088 H 199.317 -3.05305 -2.13588 0
M  V30 2089 H 199.43 -4.65317 -1.14093 0
M  V30 2090 H 197.794 -2.4489 -0.700085 0
M  V30 2091 H 198.577 -3.36073 0.700691 0
M  V30 2092 N 201.022 0.148545 -1.56898 0
M  V30 2093 C 202.268 0.862694 -1.83536 0
M  V30 2094 C 202.601 1.80889 -0.706604 0
M  V30 2095 O 201.876 1.92328 0.289885 0
M  V30 2096 C 202.159 1.63853 -3.20662 0
M  V30 2097 C 202.012 0.713925 -4.44098 0
M  V30 2098 C 203.331 2.60133 -3.54991 0
M  V30 2099 H 200.45 0.312179 -0.667618 0
M  V30 2100 H 203.092 0.127953 -1.89569 0
M  V30 2101 H 201.242 2.26489 -3.1565 0
M  V30 2102 H 202.914 0.098686 -4.61194 0
M  V30 2103 H 201.157 0.0234019 -4.33794 0
M  V30 2104 H 201.828 1.29278 -5.36648 0
M  V30 2105 H 204.304 2.07616 -3.60603 0
M  V30 2106 H 203.18 3.11468 -4.51972 0
M  V30 2107 H 203.441 3.41417 -2.80868 0
M  V30 2108 N 202.5 1.5196 0.417844 0
M  V30 2109 C 203.463 1.74065 1.49111 0
M  V30 2110 C 204.463 0.610537 1.48758 0
M  V30 2111 O 205.653 0.87832 1.50437 0
M  V30 2112 C 202.785 1.81502 2.88565 0
M  V30 2113 H 203.978 2.69869 1.30807 0
M  V30 2114 H 201.531 1.42244 0.647785 0
M  V30 2115 H 202.266 0.875813 3.1225 0
M  V30 2116 H 202.051 2.63651 2.90225 0
M  V30 2117 H 203.541 2.00376 3.66387 0
M  V30 2118 N 203.978 -0.674533 1.42435 0
M  V30 2119 C 204.941 -1.76986 1.45632 0
M  V30 2120 C 205.941 -1.5708 0.343871 0
M  V30 2121 O 207.131 -1.63367 0.604709 0
M  V30 2122 C 204.263 -3.15623 1.28822 0
M  V30 2123 H 205.456 -1.75539 2.43158 0
M  V30 2124 H 203.009 -0.884189 1.28887 0
M  V30 2125 H 203.744 -3.22696 0.322193 0
M  V30 2126 H 203.529 -3.31475 2.09444 0
M  V30 2127 H 205.019 -3.95537 1.33942 0
M  V30 2128 N 205.456 -1.28612 -0.910864 0
M  V30 2129 C 206.684 -1.18792 -1.69399 0
M  V30 2130 C 207.099 0.253039 -1.87097 0
M  V30 2131 O 206.456 1.17071 -1.40003 0
M  V30 2132 C 206.507 -1.88511 -3.08457 0
M  V30 2133 O 206.228 -3.26979 -2.91576 0
M  V30 2134 C 207.729 -1.85029 -4.02839 0
M  V30 2135 H 204.949 -0.412233 -0.529438 0
M  V30 2136 H 207.493 -1.69788 -1.13984 0
M  V30 2137 H 205.648 -1.41379 -3.60681 0
M  V30 2138 H 206.062 -3.61936 -3.79608 0
M  V30 2139 H 207.536 -2.38395 -4.97867 0
M  V30 2140 H 208.013 -0.823303 -4.31414 0
M  V30 2141 H 208.619 -2.31853 -3.56545 0
M  V30 2142 N 206.934 1.1197 -1.10907 0
M  V30 2143 C 207.864 2.19928 -0.784473 0
M  V30 2144 C 208.845 1.6833 0.244726 0
M  V30 2145 O 210.03 1.93892 0.109418 0
M  V30 2146 C 207.16 3.46597 -0.220827 0
M  V30 2147 C 206.114 4.11376 -1.18127 0
M  V30 2148 C 205.44 5.32554 -0.478594 0
M  V30 2149 C 206.74 4.56945 -2.52979 0
M  V30 2150 H 208.434 2.47337 -1.68715 0
M  V30 2151 H 205.98 1.18879 -0.812642 0
M  V30 2152 H 207.933 4.21396 0.0184278 0
M  V30 2153 H 206.657 3.1863 0.717113 0
M  V30 2154 H 205.316 3.38564 -1.40606 0
M  V30 2155 H 204.964 5.00856 0.463976 0
M  V30 2156 H 204.664 5.76844 -1.11912 0
M  V30 2157 H 206.188 6.10096 -0.248 0
M  V30 2158 H 207.602 5.23093 -2.3462 0
M  V30 2159 H 205.999 5.1203 -3.12962 0
M  V30 2160 H 207.069 3.70676 -3.12614 0
M  V30 2161 N 208.412 0.89855 1.29475 0
M  V30 2162 C 209.36 0.365253 2.29714 0
M  V30 2163 C 210.354 -0.534993 1.6073 0
M  V30 2164 O 211.56 -0.417921 1.75081 0
M  V30 2165 H 207.935 0.0994853 0.74539 0
M  V30 2166 H 209.906 1.22406 2.72138 0
M  V30 2167 C 208.655 -0.393159 3.4547 0
M  V30 2168 H 207.978 0.290332 3.98744 0
M  V30 2169 H 209.418 -0.731189 4.17648 0
M  V30 2170 C 207.877 -1.59539 2.9673 0
M  V30 2171 O 208.407 -2.69469 2.97908 0
M  V30 2172 N 206.613 -1.43716 2.52575 0
M  V30 2173 H 206.16 -0.542828 2.51816 0
M  V30 2174 H 206.118 -2.24288 2.20323 0
M  V30 2175 N 209.89 -1.43072 0.660911 0
M  V30 2176 C 210.822 -2.29108 -0.0647641 0
M  V30 2177 C 211.835 -1.42928 -0.779448 0
M  V30 2178 O 213.024 -1.66788 -0.635921 0
M  V30 2179 C 210.124 -3.20032 -1.11503 0
M  V30 2180 C 209.297 -4.34792 -0.476955 0
M  V30 2181 C 208.356 -5.06534 -1.42513 0
M  V30 2182 O 207.382 -5.61538 -0.930771 0
M  V30 2183 N 208.584 -5.1075 -2.75889 0
M  V30 2184 H 211.349 -2.92029 0.673731 0
M  V30 2185 H 208.91 -1.53846 0.50427 0
M  V30 2186 H 210.902 -3.64892 -1.75032 0
M  V30 2187 H 209.472 -2.58658 -1.75541 0
M  V30 2188 H 208.692 -3.92752 0.337572 0
M  V30 2189 H 209.98 -5.0879 -0.0318525 0
M  V30 2190 H 209.378 -4.67447 -3.18606 0
M  V30 2191 H 207.935 -5.59302 -3.347 0
M  V30 2192 N 211.368 -0.403325 -1.52352 0
M  V30 2193 C 212.616 0.174003 -2.0135 0
M  V30 2194 C 212.937 1.46139 -1.29106 0
M  V30 2195 O 212.207 1.91448 -0.415253 0
M  V30 2196 H 210.787 0.0672911 -0.743963 0
M  V30 2197 H 213.449 -0.538235 -1.87321 0
M  V30 2198 H 212.545 0.374254 -3.09848 0
M  V30 2199 N 212.846 1.57033 -0.133567 0
M  V30 2200 C 214.123 1.87256 0.56522 0
M  V30 2201 C 214.503 1.03726 1.83859 0
M  V30 2202 O 213.851 0.120247 2.28183 0
M  V30 2203 C 214.061 3.3865 0.843636 0
M  V30 2204 C 215.409 4.07574 1.19032 0
M  V30 2205 O 216.433 3.43752 0.933429 0
M  V30 2206 O 215.292 5.20259 1.67312 0
M  V30 2207 H 212.386 0.775678 0.286796 0
M  V30 2208 H 214.932 1.68855 -0.169168 0
M  V30 2209 H 213.704 3.91257 -0.0581149 0
M  V30 2210 H 213.327 3.62532 1.63268 0
M  V30 2211 N 214.325 -0.140222 1.56975 0
M  V30 2212 C 215.288 -1.15689 1.97861 0
M  V30 2213 C 216.288 -1.3549 0.865974 0
M  V30 2214 O 217.478 -1.32367 1.13246 0
M  V30 2215 C 214.61 -2.51582 2.30042 0
M  V30 2216 H 215.803 -0.805971 2.88867 0
M  V30 2217 H 213.356 -0.383801 1.51515 0
M  V30 2218 H 214.091 -2.91632 1.41849 0
M  V30 2219 H 213.876 -2.38569 3.11171 0
M  V30 2220 H 215.366 -3.24792 2.62488 0
M  V30 2221 N 215.803 -1.52179 -0.40978 0
M  V30 2222 C 216.766 -1.74853 -1.48186 0
M  V30 2223 C 217.766 -0.618417 -1.48433 0
M  V30 2224 O 218.956 -0.886286 -1.49969 0
M  V30 2225 C 216.088 -1.8303 -2.87598 0
M  V30 2226 H 217.281 -2.70559 -1.29374 0
M  V30 2227 H 214.834 -1.42586 -0.640233 0
M  V30 2228 H 215.569 -0.89236 -3.11781 0
M  V30 2229 H 215.354 -2.65187 -2.88822 0
M  V30 2230 H 216.844 -2.02316 -3.65319 0
M  V30 2231 N 217.281 0.66697 -1.42791 0
M  V30 2232 C 218.244 1.76211 -1.46568 0
M  V30 2233 C 219.244 1.56896 -0.352196 0
M  V30 2234 O 220.434 1.63044 -0.613364 0
M  V30 2235 C 217.566 3.14935 -1.30494 0
M  V30 2236 H 218.759 1.74247 -2.44086 0
M  V30 2237 H 216.312 0.877342 -1.29354 0
M  V30 2238 H 217.047 3.2252 -0.339301 0
M  V30 2239 H 216.832 3.30359 -2.11199 0
M  V30 2240 H 218.322 3.94821 -1.36038 0
M  V30 2241 N 218.759 1.29093 0.90403 0
M  V30 2242 C 220.005 1.16986 1.65656 0
M  V30 2243 C 220.338 -0.278925 1.92186 0
M  V30 2244 O 219.613 -1.2019 1.5292 0
M  V30 2245 C 219.896 1.97908 3.0084 0
M  V30 2246 C 219.749 3.50903 2.81403 0
M  V30 2247 C 221.068 1.80208 4.01513 0
M  V30 2248 H 218.187 0.426346 0.601164 0
M  V30 2249 H 220.829 1.58518 1.04747 0
M  V30 2250 H 218.979 1.62616 3.52829 0
M  V30 2251 H 220.651 3.96153 2.36348 0
M  V30 2252 H 218.894 3.76045 2.1627 0
M  V30 2253 H 219.565 4.02791 3.77443 0
M  V30 2254 H 222.041 2.11025 3.58619 0
M  V30 2255 H 220.917 2.39184 4.94047 0
M  V30 2256 H 221.178 0.756119 4.35586 0
M  V30 2257 N 220.237 -1.11381 1.11499 0
M  V30 2258 C 221.167 -2.19509 0.796125 0
M  V30 2259 C 222.148 -1.68458 -0.235796 0
M  V30 2260 O 223.333 -1.93947 -0.0991344 0
M  V30 2261 C 220.463 -3.46475 0.239205 0
M  V30 2262 C 219.417 -4.10744 1.20307 0
M  V30 2263 C 218.743 -5.32293 0.50683 0
M  V30 2264 C 220.043 -4.55597 2.55399 0
M  V30 2265 H 221.737 -2.46439 1.70024 0
M  V30 2266 H 219.283 -1.18446 0.818935 0
M  V30 2267 H 221.236 -4.214 0.00392006 0
M  V30 2268 H 219.96 -3.19006 -0.700206 0
M  V30 2269 H 218.619 -3.37813 1.42399 0
M  V30 2270 H 218.267 -5.01095 -0.437408 0
M  V30 2271 H 217.967 -5.76243 1.1497 0
M  V30 2272 H 219.491 -6.09956 0.280351 0
M  V30 2273 H 220.905 -5.21841 2.37391 0
M  V30 2274 H 219.302 -5.10363 3.15673 0
M  V30 2275 H 220.372 -3.69013 3.14575 0
M  V30 2276 N 221.715 -0.905404 -1.28997 0
M  V30 2277 C 222.678 -0.392253 -2.25819 0
M  V30 2278 C 223.678 0.476753 -1.5357 0
M  V30 2279 O 224.868 0.280994 -1.71919 0
M  V30 2280 C 222 0.438588 -3.38067 0
M  V30 2281 H 223.193 -1.24743 -2.72725 0
M  V30 2282 H 220.746 -0.684051 -1.40536 0
M  V30 2283 H 221.481 1.31352 -2.96508 0
M  V30 2284 H 221.266 -0.184167 -3.91667 0
M  V30 2285 H 222.756 0.78873 -4.10084 0
M  V30 2286 N 223.193 1.4272 -0.668489 0
M  V30 2287 C 224.141 2.32586 0.0254857 0
M  V30 2288 C 225.135 1.49471 0.797176 0
M  V30 2289 O 226.341 1.65583 0.705853 0
M  V30 2290 H 222.716 0.751514 0.0270339 0
M  V30 2291 H 224.687 2.88823 -0.749936 0
M  V30 2292 C 223.436 3.3397 0.967427 0
M  V30 2293 H 222.759 3.97961 0.383048 0
M  V30 2294 H 224.199 3.9945 1.42181 0
M  V30 2295 C 222.658 2.65744 2.0708 0
M  V30 2296 O 223.188 2.48454 3.15648 0
M  V30 2297 N 221.394 2.2487 1.8407 0
M  V30 2298 H 220.941 2.39132 0.95778 0
M  V30 2299 H 220.899 1.79552 2.58086 0
M  V30 2300 N 224.671 0.411399 1.52136 0
M  V30 2301 C 225.621 -0.430376 2.23901 0
M  V30 2302 C 226.605 -1.0116 1.25121 0
M  V30 2303 O 227.797 -0.934044 1.50348 0
M  V30 2304 C 224.926 -1.54527 3.06556 0
M  V30 2305 C 224.012 -0.9747 4.12747 0
M  V30 2306 N 224.403 -0.130991 5.0563 0
M  V30 2307 C 222.701 -1.24497 4.28271 0
M  V30 2308 C 223.402 0.186689 5.814 0
M  V30 2309 N 222.378 -0.42304 5.41951 0
M  V30 2310 H 226.18 0.220509 2.93072 0
M  V30 2311 H 223.694 0.221952 1.60876 0
M  V30 2312 H 225.691 -2.16093 3.56524 0
M  V30 2313 H 224.351 -2.19875 2.38925 0
M  V30 2314 H 225.362 0.23349 5.17373 0
M  V30 2315 H 222.039 -1.89787 3.7187 0
M  V30 2316 H 223.429 0.871673 6.66222 0
M  V30 2317 N 226.149 -1.5696 0.141893 0
M  V30 2318 C 227.079 -2.19516 -0.795936 0
M  V30 2319 C 228.06 -1.14187 -1.26077 0
M  V30 2320 O 229.245 -1.42511 -1.31925 0
M  V30 2321 C 226.375 -2.81272 -2.03723 0
M  V30 2322 C 225.329 -3.92384 -1.70936 0
M  V30 2323 C 224.655 -4.41052 -3.02287 0
M  V30 2324 C 225.955 -5.13403 -0.959954 0
M  V30 2325 H 227.649 -2.98138 -0.274596 0
M  V30 2326 H 225.195 -1.43406 -0.130636 0
M  V30 2327 H 227.148 -3.237 -2.69808 0
M  V30 2328 H 225.872 -1.99973 -2.58221 0
M  V30 2329 H 224.531 -3.50566 -1.07232 0
M  V30 2330 H 224.179 -3.56582 -3.54765 0
M  V30 2331 H 223.879 -5.15993 -2.81114 0
M  V30 2332 H 225.403 -4.86146 -3.69451 0
M  V30 2333 H 226.817 -5.52706 -1.52279 0
M  V30 2334 H 225.214 -5.94073 -0.848357 0
M  V30 2335 H 226.284 -4.84875 0.0492434 0
M  V30 2336 N 227.627 0.131896 -1.57047 0
M  V30 2337 C 228.875 0.840269 -1.83804 0
M  V30 2338 C 229.196 1.81017 -0.72512 0
M  V30 2339 O 228.466 1.94272 0.251995 0
M  V30 2340 H 227.046 0.313294 -0.678127 0
M  V30 2341 H 229.708 0.122294 -1.94516 0
M  V30 2342 H 228.804 1.39335 -2.79271 0
M  V30 2343 N 229.106 1.52395 0.401703 0
M  V30 2344 C 230.517 1.58899 0.980202 0
M  V30 2345 C 230.868 0.434032 1.91339 0
M  V30 2346 O 229.993 -0.444619 2.11783 0
M  V30 2347 C 230.588 2.87994 1.78451 0
M  V30 2348 C 229.147 2.96953 2.31292 0
M  V30 2349 C 228.294 2.53903 1.11483 0
M  V30 2350 H 231.245 1.57657 0.18168 0
M  V30 2351 H 231.266 2.73765 2.64259 0
M  V30 2352 H 230.778 3.72035 1.10506 0
M  V30 2353 H 228.879 2.17422 3.02586 0
M  V30 2354 H 228.992 4.01344 2.61649 0
M  V30 2355 H 227.356 2.07925 1.47104 0
M  V30 2356 H 228.139 3.40326 0.450928 0
M  V30 2357 N 230.584 -0.659388 1.43143 0
M  V30 2358 C 231.531 -1.77249 1.47822 0
M  V30 2359 C 232.501 -1.62818 0.328558 0
M  V30 2360 O 233.686 -1.83151 0.534838 0
M  V30 2361 C 230.826 -3.15371 1.40126 0
M  V30 2362 C 229.939 -3.4098 2.65249 0
M  V30 2363 C 229.074 -4.68915 2.49584 0
M  V30 2364 C 228.113 -4.87608 3.70006 0
M  V30 2365 N 227.25 -6.06796 3.53189 0
M  V30 2366 H 232.09 -1.72584 2.42938 0
M  V30 2367 H 229.627 -0.842297 1.20598 0
M  V30 2368 H 231.585 -3.9521 1.33659 0
M  V30 2369 H 230.215 -3.19121 0.485964 0
M  V30 2370 H 229.267 -2.55282 2.8202 0
M  V30 2371 H 230.579 -3.50681 3.54717 0
M  V30 2372 H 229.733 -5.56871 2.4079 0
M  V30 2373 H 228.472 -4.61524 1.5763 0
M  V30 2374 H 227.477 -3.9809 3.79215 0
M  V30 2375 H 228.702 -4.96834 4.62961 0
M  V30 2376 H 226.648 -6.00549 2.63965 0
M  V30 2377 H 226.565 -6.17428 4.36255 0
M  V30 2378 H 227.833 -6.9739 3.48236 0
M  V30 2379 N 232.062 -1.29571 -0.897171 0
M  V30 2380 C 233.29 -1.20583 -1.68129 0
M  V30 2381 C 233.705 0.233181 -1.87354 0
M  V30 2382 O 233.062 1.15579 -1.41236 0
M  V30 2383 C 233.113 -1.91772 -3.06441 0
M  V30 2384 O 232.834 -3.30053 -2.88091 0
M  V30 2385 C 234.335 -1.89291 -4.00854 0
M  V30 2386 H 231.555 -0.417826 -0.525036 0
M  V30 2387 H 234.099 -1.70987 -1.12177 0
M  V30 2388 H 232.254 -1.45196 -3.59161 0
M  V30 2389 H 232.668 -3.65942 -3.75748 0
M  V30 2390 H 234.142 -2.43662 -4.95311 0
M  V30 2391 H 234.619 -0.869014 -4.30517 0
M  V30 2392 H 235.225 -2.35622 -3.54066 0
M  V30 2393 N 233.54 1.10788 -1.12088 0
M  V30 2394 C 234.956 1.34691 -0.856186 0
M  V30 2395 C 235.156 1.94791 0.515615 0
M  V30 2396 O 234.212 2.18524 1.26505 0
M  V30 2397 C 235.525 2.27208 -1.9697 0
M  V30 2398 C 237.073 2.40755 -2.00016 0
M  V30 2399 C 237.548 3.36598 -3.1059 0
M  V30 2400 N 239.039 3.44164 -3.10008 0
M  V30 2401 C 239.774 4.18284 -3.92206 0
M  V30 2402 N 239.27 4.95322 -4.84384 0
M  V30 2403 N 241.063 4.13865 -3.80357 0
M  V30 2404 H 233.214 0.70144 -2.00483 0
M  V30 2405 H 235.477 0.371405 -0.872217 0
M  V30 2406 H 235.183 1.90251 -2.958 0
M  V30 2407 H 235.057 3.27485 -1.87172 0
M  V30 2408 H 237.444 2.76982 -1.01808 0
M  V30 2409 H 237.525 1.40305 -2.13888 0
M  V30 2410 H 237.169 3.01096 -4.09028 0
M  V30 2411 H 237.099 4.36918 -2.93956 0
M  V30 2412 H 239.59 2.8922 -2.43228 0
M  V30 2413 H 239.903 5.49267 -5.43623 0
M  V30 2414 H 238.248 4.94459 -4.884 0
M  V30 2415 H 241.439 3.52773 -3.07683 0
M  V30 2416 H 241.612 4.71372 -4.44649 0
M  V30 2417 N 235.018 0.912232 1.28515 0
M  V30 2418 C 235.948 0.416403 2.29757 0
M  V30 2419 C 236.929 -0.515194 1.6211 0
M  V30 2420 O 238.114 -0.423253 1.89532 0
M  V30 2421 C 235.244 -0.34572 3.45575 0
M  V30 2422 C 234.198 0.496599 4.25109 0
M  V30 2423 C 233.524 -0.393771 5.33248 0
M  V30 2424 C 234.824 1.75307 4.92001 0
M  V30 2425 H 236.518 1.26249 2.7148 0
M  V30 2426 H 234.064 0.608515 1.30511 0
M  V30 2427 H 236.017 -0.703422 4.15488 0
M  V30 2428 H 234.741 -1.2257 3.02728 0
M  V30 2429 H 233.4 0.8368 3.56922 0
M  V30 2430 H 233.048 -1.27225 4.86644 0
M  V30 2431 H 232.748 0.166209 5.87365 0
M  V30 2432 H 234.272 -0.747389 6.06009 0
M  V30 2433 H 235.686 1.46437 5.54283 0
M  V30 2434 H 234.083 2.25534 5.56106 0
M  V30 2435 H 235.153 2.48176 4.16577 0
M  V30 2436 N 236.496 -1.42363 0.676048 0
M  V30 2437 C 237.742 -2.0182 0.199125 0
M  V30 2438 C 238.075 -1.53339 -1.19168 0
M  V30 2439 O 237.35 -0.736124 -1.80032 0
M  V30 2440 C 237.633 -3.59331 0.235144 0
M  V30 2441 C 237.486 -4.17989 1.66149 0
M  V30 2442 C 238.805 -4.3813 -0.41595 0
M  V30 2443 H 235.924 -0.733293 0.0738311 0
M  V30 2444 H 238.566 -1.69368 0.86107 0
M  V30 2445 H 236.716 -3.87109 -0.328487 0
M  V30 2446 H 238.388 -4.0116 2.27747 0
M  V30 2447 H 236.631 -3.7377 2.20178 0
M  V30 2448 H 237.302 -5.27126 1.63837 0
M  V30 2449 H 239.778 -4.16051 0.0638529 0
M  V30 2450 H 238.654 -5.47717 -0.360115 0
M  V30 2451 H 238.915 -4.16101 -1.49373 0
M  V30 2452 N 237.974 -0.419461 -1.51915 0
M  V30 2453 C 239.223 0.154346 -2.01109 0
M  V30 2454 C 239.536 1.45338 -1.30905 0
M  V30 2455 O 240.742 2.10906 -1.7097 0
M  V30 2456 C 239.198 0.325615 -3.58424 0
M  V30 2457 C 238.806 -0.961934 -4.37551 0
M  V30 2458 C 240.55 0.854155 -4.15818 0
M  V30 2459 C 238.457 -0.757287 -5.86531 0
M  V30 2460 H 237.387 0.0614563 -0.751491 0
M  V30 2461 H 240.038 -0.54649 -1.75173 0
M  V30 2462 H 238.42 1.08903 -3.80731 0
M  V30 2463 H 239.594 -1.7323 -4.26999 0
M  V30 2464 H 237.909 -1.41766 -3.91524 0
M  V30 2465 H 240.506 1.02346 -5.24814 0
M  V30 2466 H 240.849 1.83172 -3.73837 0
M  V30 2467 H 241.382 0.149528 -3.97519 0
M  V30 2468 H 238.121 -1.70671 -6.32892 0
M  V30 2469 H 237.641 -0.0264061 -5.99794 0
M  V30 2470 H 239.32 -0.403482 -6.45741 0
M  V30 2471 N 239.452 1.56882 -0.150215 0
M  V30 2472 C 240.382 2.19935 0.784284 0
M  V30 2473 C 241.363 1.14854 1.25469 0
M  V30 2474 O 242.548 1.43209 1.31168 0
M  V30 2475 C 239.678 2.82349 2.02229 0
M  V30 2476 C 238.632 3.93285 1.68853 0
M  V30 2477 C 237.958 4.42649 2.99944 0
M  V30 2478 C 239.258 5.13904 0.932714 0
M  V30 2479 H 240.952 2.9828 0.258781 0
M  V30 2480 H 238.498 1.43473 0.123029 0
M  V30 2481 H 240.451 3.25126 2.68088 0
M  V30 2482 H 239.175 2.0134 2.57157 0
M  V30 2483 H 237.834 3.5113 1.05371 0
M  V30 2484 H 237.482 3.58458 3.52869 0
M  V30 2485 H 237.182 5.17476 2.78374 0
M  V30 2486 H 238.706 4.88099 3.66868 0
M  V30 2487 H 240.12 5.53506 1.49345 0
M  V30 2488 H 238.517 5.94515 0.81684 0
M  V30 2489 H 239.587 4.84842 -0.0749568 0
M  V30 2490 N 240.93 -0.123565 1.57115 0
M  V30 2491 C 242.155 -0.850398 1.89164 0
M  V30 2492 C 242.58 -1.7286 0.741688 0
M  V30 2493 O 241.938 -1.78665 -0.307958 0
M  V30 2494 C 241.986 -1.66353 3.19936 0
M  V30 2495 O 241.09 -2.77004 3.0552 0
M  V30 2496 H 240.431 -0.235454 0.620852 0
M  V30 2497 H 242.961 -0.107335 2.04318 0
M  V30 2498 H 242.971 -2.05372 3.52543 0
M  V30 2499 H 241.646 -1.01881 4.03228 0
M  V30 2500 H 240.223 -2.41221 2.84371 0
M  V30 2501 N 242.408 -1.52605 -0.393616 0
M  V30 2502 C 243.358 -1.73436 -1.48 0
M  V30 2503 C 244.342 -0.588386 -1.49756 0
M  V30 2504 O 245.534 -0.846047 -1.5547 0
M  V30 2505 C 242.663 -1.90247 -2.85764 0
M  V30 2506 C 241.749 -3.10763 -2.88595 0
M  V30 2507 N 242.14 -4.33196 -2.61103 0
M  V30 2508 C 240.438 -3.10914 -3.19763 0
M  V30 2509 C 241.139 -5.1477 -2.70899 0
M  V30 2510 N 240.115 -4.50356 -3.04435 0
M  V30 2511 H 243.917 -2.65727 -1.25563 0
M  V30 2512 H 241.431 -1.5085 -0.601513 0
M  V30 2513 H 243.428 -2.03291 -3.63976 0
M  V30 2514 H 242.088 -0.991663 -3.09186 0
M  V30 2515 H 243.099 -4.61408 -2.35209 0
M  V30 2516 H 239.776 -2.29626 -3.4868 0
M  V30 2517 H 241.166 -6.22355 -2.53227 0
M  V30 2518 N 243.887 0.651787 -1.4349 0
M  V30 2519 C 244.817 1.77621 -1.51569 0
M  V30 2520 C 245.798 1.66022 -0.370253 0
M  V30 2521 O 246.983 1.85095 -0.587658 0
M  V30 2522 C 244.113 3.16056 -1.43966 0
M  V30 2523 C 243.067 3.4242 -2.56774 0
M  V30 2524 C 242.393 4.8067 -2.34223 0
M  V30 2525 C 243.693 3.37023 -3.99015 0
M  V30 2526 H 245.387 1.71117 -2.45681 0
M  V30 2527 H 242.933 0.821825 -1.18246 0
M  V30 2528 H 244.886 3.94472 -1.48221 0
M  V30 2529 H 243.61 3.23293 -0.463586 0
M  V30 2530 H 242.269 2.66375 -2.51873 0
M  V30 2531 H 241.917 4.84585 -1.34856 0
M  V30 2532 H 241.617 4.9927 -3.09844 0
M  V30 2533 H 243.141 5.61342 -2.40265 0
M  V30 2534 H 244.555 4.05374 -4.05395 0
M  V30 2535 H 242.952 3.67159 -4.74673 0
M  V30 2536 H 244.022 2.3518 -4.2405 0
M  V30 2537 N 245.365 1.30045 0.890287 0
M  V30 2538 C 246.295 1.18541 2.01172 0
M  V30 2539 C 247.276 0.0773356 1.69924 0
M  V30 2540 O 248.461 0.25845 1.92473 0
M  V30 2541 C 245.591 0.870941 3.36202 0
M  V30 2542 C 244.545 1.93637 3.81692 0
M  V30 2543 C 243.871 1.475 5.13953 0
M  V30 2544 C 245.171 3.34666 4.00994 0
M  V30 2545 H 246.865 2.12359 2.11054 0
M  V30 2546 H 244.411 1.02238 1.01407 0
M  V30 2547 H 246.364 0.777141 4.14172 0
M  V30 2548 H 245.088 -0.102926 3.26438 0
M  V30 2549 H 243.747 2.01972 3.05946 0
M  V30 2550 H 243.395 0.489551 5.00612 0
M  V30 2551 H 243.095 2.1876 5.4536 0
M  V30 2552 H 244.619 1.39489 5.94454 0
M  V30 2553 H 246.033 3.2912 4.69417 0
M  V30 2554 H 244.43 4.03966 4.43769 0
M  V30 2555 H 245.5 3.76949 3.05021 0
M  V30 2556 N 246.843 -1.10192 1.12674 0
M  V30 2557 C 248.089 -1.82658 0.894847 0
M  V30 2558 C 248.444 -1.83666 -0.573107 0
M  V30 2559 O 247.737 -1.28816 -1.41835 0
M  V30 2560 C 247.931 -3.28552 1.4067 0
M  V30 2561 C 247.76 -3.41756 2.92289 0
M  V30 2562 C 246.53 -3.54021 3.60551 0
M  V30 2563 C 248.728 -3.34949 3.90274 0
M  V30 2564 N 246.71 -3.55827 5.0026 0
M  V30 2565 C 248.081 -3.43531 5.16127 0
M  V30 2566 C 250.136 -3.18565 3.8265 0
M  V30 2567 C 248.839 -3.37416 6.3525 0
M  V30 2568 C 250.865 -3.13772 5.01299 0
M  V30 2569 C 250.227 -3.22938 6.26012 0
M  V30 2570 H 246.326 -0.683044 0.380756 0
M  V30 2571 H 248.91 -1.31752 1.43351 0
M  V30 2572 H 247.081 -3.77946 0.895055 0
M  V30 2573 H 248.813 -3.88991 1.11661 0
M  V30 2574 H 245.568 -3.57135 3.1105 0
M  V30 2575 H 245.992 -3.60335 5.73138 0
M  V30 2576 H 250.634 -3.10354 2.87124 0
M  V30 2577 H 248.352 -3.44391 7.3104 0
M  V30 2578 H 251.938 -3.02242 4.97133 0
M  V30 2579 H 250.818 -3.19235 7.16281 0
M  V30 2580 N 248.321 -0.919034 -1.28029 0
M  V30 2581 C 249.269 -0.401753 -2.29104 0
M  V30 2582 C 250.263 0.509354 -1.61561 0
M  V30 2583 O 251.469 0.390014 -1.75724 0
M  V30 2584 H 247.844 -0.111331 -0.743713 0
M  V30 2585 H 249.815 -1.2672 -2.70156 0
M  V30 2586 C 248.564 0.338148 -3.46052 0
M  V30 2587 H 247.887 -0.353732 -3.98232 0
M  V30 2588 H 249.327 0.664653 -4.18758 0
M  V30 2589 C 247.786 1.54798 -2.99231 0
M  V30 2590 O 248.316 2.64696 -3.02157 0
M  V30 2591 N 246.522 1.3968 -2.54829 0
M  V30 2592 H 246.069 0.502698 -2.52647 0
M  V30 2593 H 246.027 2.20755 -2.23863 0
M  V30 2594 N 249.799 1.42003 -0.683588 0
M  V30 2595 C 251.027 2.05746 -0.218182 0
M  V30 2596 C 251.442 1.51396 1.12804 0
M  V30 2597 O 250.799 0.657303 1.70252 0
M  V30 2598 C 250.85 3.61171 -0.154131 0
M  V30 2599 O 250.571 4.13508 -1.44716 0
M  V30 2600 C 252.072 4.42042 0.333713 0
M  V30 2601 H 249.292 0.662888 -0.10402 0
M  V30 2602 H 251.836 1.81987 -0.9328 0
M  V30 2603 H 249.991 3.84012 0.511231 0
M  V30 2604 H 250.405 5.07453 -1.32632 0
M  V30 2605 H 251.879 5.51028 0.327423 0
M  V30 2606 H 252.356 4.17269 1.37053 0
M  V30 2607 H 252.962 4.24239 -0.300222 0
M  V30 2608 N 251.277 0.427512 1.51691 0
M  V30 2609 C 252.525 -0.141948 2.01601 0
M  V30 2610 C 252.846 -1.44067 1.31414 0
M  V30 2611 O 252.116 -1.90763 0.445658 0
M  V30 2612 H 250.696 -0.0554468 0.744939 0
M  V30 2613 H 253.358 0.567968 1.86441 0
M  V30 2614 H 252.454 -0.324913 3.10404 0
M  V30 2615 N 252.755 -1.56801 0.158532 0
M  V30 2616 C 253.687 -2.14488 -0.807923 0
M  V30 2617 C 254.7 -1.09721 -1.20271 0
M  V30 2618 O 255.889 -1.36956 -1.14478 0
M  V30 2619 C 252.989 -2.66217 -2.09718 0
M  V30 2620 C 252.162 -3.95507 -1.86796 0
M  V30 2621 C 251.221 -4.3243 -2.99818 0
M  V30 2622 O 250.247 -5.00543 -2.71008 0
M  V30 2623 N 251.449 -3.92947 -4.27285 0
M  V30 2624 H 254.214 -2.98042 -0.314816 0
M  V30 2625 H 251.775 -1.61881 -0.0246692 0
M  V30 2626 H 253.767 -2.87924 -2.84398 0
M  V30 2627 H 252.337 -1.87324 -2.50257 0
M  V30 2628 H 251.557 -3.82309 -0.96089 0
M  V30 2629 H 252.845 -4.79972 -1.68833 0
M  V30 2630 H 252.243 -3.38087 -4.53557 0
M  V30 2631 H 250.8 -4.19681 -4.9871 0
M  V30 2632 N 254.233 0.115231 -1.57178 0
M  V30 2633 C 255.479 0.82357 -1.85325 0
M  V30 2634 C 255.812 1.79349 -0.744814 0
M  V30 2635 O 255.087 1.92899 0.249024 0
M  V30 2636 C 255.37 1.57014 -3.24066 0
M  V30 2637 C 255.223 0.619565 -4.45513 0
M  V30 2638 C 256.542 2.52545 -3.60429 0
M  V30 2639 H 253.661 0.297948 -0.674089 0
M  V30 2640 H 256.303 0.0877138 -1.89797 0
M  V30 2641 H 254.453 2.19742 -3.20383 0
M  V30 2642 H 256.125 0.000837639 -4.613 0
M  V30 2643 H 254.368 -0.0686174 -4.33746 0
M  V30 2644 H 255.039 1.17866 -5.3927 0
M  V30 2645 H 257.515 1.9992 -3.64926 0
M  V30 2646 H 256.391 3.01811 -4.58477 0
M  V30 2647 H 256.652 3.35383 -2.88047 0
M  V30 2648 N 255.711 1.52812 0.385517 0
M  V30 2649 C 256.641 1.80808 1.47752 0
M  V30 2650 C 257.622 0.660318 1.5676 0
M  V30 2651 O 258.807 0.908246 1.71652 0
M  V30 2652 C 255.937 1.98008 2.85324 0
M  V30 2653 C 254.891 3.13709 2.91154 0
M  V30 2654 C 254.217 3.16169 4.31209 0
M  V30 2655 C 255.517 4.52709 2.60483 0
M  V30 2656 H 257.211 2.72253 1.24573 0
M  V30 2657 H 254.757 1.31003 0.597839 0
M  V30 2658 H 256.71 2.16176 3.61726 0
M  V30 2659 H 255.434 1.03255 3.09848 0
M  V30 2660 H 254.093 2.95329 2.17201 0
M  V30 2661 H 253.741 2.19092 4.52778 0
M  V30 2662 H 253.441 3.93894 4.36029 0
M  V30 2663 H 254.965 3.36496 5.09512 0
M  V30 2664 H 256.379 4.71173 3.26602 0
M  V30 2665 H 254.776 5.32528 2.76648 0
M  V30 2666 H 255.846 4.59186 1.55809 0
M  V30 2667 N 257.189 -0.644168 1.43834 0
M  V30 2668 C 258.6 -1.22554 1.40845 0
M  V30 2669 C 258.951 -1.9585 0.117115 0
M  V30 2670 O 258.076 -2.01734 -0.783086 0
M  V30 2671 C 258.671 -2.22907 2.55143 0
M  V30 2672 C 257.23 -2.76501 2.5539 0
M  V30 2673 C 256.377 -1.51287 2.32396 0
M  V30 2674 H 259.328 -0.43563 1.52604 0
M  V30 2675 H 259.349 -3.05259 2.2715 0
M  V30 2676 H 258.861 -1.69533 3.49114 0
M  V30 2677 H 256.962 -3.33914 1.65324 0
M  V30 2678 H 257.075 -3.23429 3.53455 0
M  V30 2679 H 255.439 -1.78957 1.81236 0
M  V30 2680 H 256.222 -0.998336 3.28463 0
M  V30 2681 N 258.668 -1.30515 -0.883378 0
M  V30 2682 C 259.598 -1.19607 -2.00541 0
M  V30 2683 C 260.579 -0.086346 -1.69881 0
M  V30 2684 O 261.764 -0.268654 -1.92333 0
M  V30 2685 C 258.894 -0.888758 -3.35736 0
M  V30 2686 C 257.848 -1.95659 -3.8066 0
M  V30 2687 C 257.174 -1.50224 -5.13164 0
M  V30 2688 C 258.474 -3.36788 -3.99213 0
M  V30 2689 H 260.168 -2.13476 -2.09925 0
M  V30 2690 H 257.714 -1.02775 -1.00863 0
M  V30 2691 H 259.667 -0.799094 -4.13754 0
M  V30 2692 H 258.391 0.0856125 -3.26488 0
M  V30 2693 H 257.05 -2.03591 -3.04871 0
M  V30 2694 H 256.698 -0.516092 -5.00345 0
M  V30 2695 H 256.398 -2.2165 -5.44192 0
M  V30 2696 H 257.922 -1.42639 -5.93706 0
M  V30 2697 H 259.336 -3.31605 -4.67665 0
M  V30 2698 H 257.733 -4.06314 -4.41621 0
M  V30 2699 H 258.803 -3.78561 -3.03017 0
M  V30 2700 N 260.146 1.09593 -1.13257 0
M  V30 2701 C 261.109 2.14359 -0.811358 0
M  V30 2702 C 262.109 1.59808 0.178377 0
M  V30 2703 O 263.299 1.74132 -0.0484911 0
M  V30 2704 C 260.431 3.40269 -0.207276 0
M  V30 2705 H 261.624 2.44284 -1.73969 0
M  V30 2706 H 259.177 1.25102 -0.936973 0
M  V30 2707 H 259.912 3.15969 0.73036 0
M  V30 2708 H 259.697 3.81154 -0.919992 0
M  V30 2709 H 261.187 4.176 0.000667944 0
M  V30 2710 N 261.624 0.925811 1.2754 0
M  V30 2711 C 262.534 0.428993 2.30644 0
M  V30 2712 C 263.55 -0.489387 1.66976 0
M  V30 2713 O 264.726 -0.372653 1.97922 0
M  V30 2714 C 261.791 -0.311967 3.45294 0
M  V30 2715 C 260.852 0.641098 4.24486 0
M  V30 2716 C 260.085 -0.0645955 5.33661 0
M  V30 2717 O 260.308 -1.28429 5.55754 0
M  V30 2718 O 259.242 0.606265 5.98839 0
M  V30 2719 H 263.068 1.28504 2.75173 0
M  V30 2720 H 260.653 0.691086 1.32455 0
M  V30 2721 H 262.535 -0.729972 4.15029 0
M  V30 2722 H 261.21 -1.14365 3.02824 0
M  V30 2723 H 260.117 1.10874 3.57292 0
M  V30 2724 H 261.45 1.43995 4.70666 0
M  V30 2725 N 263.102 -1.41638 0.69111 0
M  V30 2726 C 264.351 -2.00526 0.217318 0
M  V30 2727 C 264.664 -1.55353 -1.18848 0
M  V30 2728 O 265.87 -2.06769 -1.75951 0
M  V30 2729 C 264.326 -3.58313 0.337639 0
M  V30 2730 C 263.934 -4.12469 1.74852 0
M  V30 2731 C 265.678 -4.24431 -0.0766066 0
M  V30 2732 C 263.585 -5.62675 1.82074 0
M  V30 2733 H 262.515 -0.750008 0.0774893 0
M  V30 2734 H 265.166 -1.6217 0.858661 0
M  V30 2735 H 263.548 -3.9425 -0.371879 0
M  V30 2736 H 264.722 -3.8796 2.48644 0
M  V30 2737 H 263.037 -3.58861 2.11205 0
M  V30 2738 H 265.634 -5.34683 -0.0430284 0
M  V30 2739 H 265.977 -4.01101 -1.1146 0
M  V30 2740 H 266.51 -3.93512 0.582476 0
M  V30 2741 H 263.249 -5.90826 2.83911 0
M  V30 2742 H 262.769 -5.89124 1.12661 0
M  V30 2743 H 264.448 -6.27371 1.58159 0
M  V30 2744 N 264.58 -0.43555 -1.51462 0
M  V30 2745 C 265.513 0.421989 -2.24264 0
M  V30 2746 C 266.491 1.02619 -1.26127 0
M  V30 2747 O 267.675 1.069 -1.55257 0
M  V30 2748 C 264.802 1.588 -2.99166 0
M  V30 2749 C 263.848 1.10465 -4.11946 0
M  V30 2750 S 264.681 0.048146 -5.35478 0
M  V30 2751 C 265.837 1.21887 -6.13917 0
M  V30 2752 H 266.07 -0.196102 -2.96653 0
M  V30 2753 H 263.603 -0.220054 -1.52824 0
M  V30 2754 H 265.561 2.25647 -3.42919 0
M  V30 2755 H 264.222 2.1775 -2.26371 0
M  V30 2756 H 263.415 1.97654 -4.63626 0
M  V30 2757 H 263.017 0.51445 -3.70445 0
M  V30 2758 H 265.309 2.13756 -6.42895 0
M  V30 2759 H 266.252 0.742076 -7.04201 0
M  V30 2760 H 266.66 1.45663 -5.45383 0
M  V30 2761 N 266.058 1.56714 -0.166846 0
M  V30 2762 C 267.021 2.16539 0.751232 0
M  V30 2763 C 268.021 1.11228 1.16125 0
M  V30 2764 O 269.211 1.36765 1.07894 0
M  V30 2765 C 266.343 2.74462 2.02196 0
M  V30 2766 H 267.536 2.99013 0.230499 0
M  V30 2767 H 265.089 1.56081 0.0826982 0
M  V30 2768 H 265.824 1.95709 2.58589 0
M  V30 2769 H 265.609 3.51527 1.73698 0
M  V30 2770 H 267.099 3.20489 2.67725 0
M  V30 2771 N 267.536 -0.106894 1.57237 0
M  V30 2772 C 268.782 -0.81373 1.85759 0
M  V30 2773 C 269.115 -1.78952 0.754315 0
M  V30 2774 O 268.39 -1.93029 -0.23879 0
M  V30 2775 C 268.673 -1.55293 3.24894 0
M  V30 2776 C 268.526 -0.595929 4.45835 0
M  V30 2777 C 269.845 -2.5063 3.61763 0
M  V30 2778 H 266.964 -0.294369 0.67566 0
M  V30 2779 H 269.606 -0.0776472 1.89841 0
M  V30 2780 H 267.756 -2.1804 3.21544 0
M  V30 2781 H 269.428 0.0236262 4.61294 0
M  V30 2782 H 267.671 0.0916191 4.33703 0
M  V30 2783 H 268.342 -1.15004 5.39887 0
M  V30 2784 H 270.818 -1.97982 3.65981 0
M  V30 2785 H 269.694 -2.99376 4.60071 0
M  V30 2786 H 269.955 -3.3385 2.89821 0
M  V30 2787 N 269.014 -1.53014 -0.377408 0
M  V30 2788 C 270.254 -1.70318 -1.1301 0
M  V30 2789 C 270.618 -0.439538 -1.86901 0
M  V30 2790 O 271.819 -0.489095 -2.64313 0
M  V30 2791 C 270.09 -2.91125 -2.07319 0
M  V30 2792 S 271.649 -3.29075 -2.90268 0
M  V30 2793 H 268.467 -0.599426 -0.382374 0
M  V30 2794 H 271.069 -1.91089 -0.412933 0
M  V30 2795 H 269.773 -3.81303 -1.51777 0
M  V30 2796 H 269.304 -2.7272 -2.83526 0
M  V30 2797 H 271.319 -2.80165 -4.09539 0
M  V30 2798 N 270.492 0.636531 -1.44174 0
M  V30 2799 C 271.908 0.954104 -1.27941 0
M  V30 2800 C 272.108 2.0039 -0.211248 0
M  V30 2801 O 271.164 2.49236 0.404695 0
M  V30 2802 C 272.477 1.4225 -2.64925 0
M  V30 2803 C 274.025 1.53827 -2.72592 0
M  V30 2804 C 274.5 2.04053 -4.10032 0
M  V30 2805 N 275.991 2.11331 -4.12182 0
M  V30 2806 C 276.726 2.51352 -5.15374 0
M  V30 2807 N 276.222 2.90549 -6.2893 0
M  V30 2808 N 278.015 2.51438 -5.02728 0
M  V30 2809 H 270.166 -0.0578386 -2.12321 0
M  V30 2810 H 272.429 0.0367406 -0.947288 0
M  V30 2811 H 272.135 0.725466 -3.44136 0
M  V30 2812 H 272.009 2.39451 -2.9145 0
M  V30 2813 H 274.396 2.22628 -1.93702 0
M  V30 2814 H 274.477 0.550154 -2.49814 0
M  V30 2815 H 274.121 1.35848 -4.89395 0
M  V30 2816 H 274.051 3.03726 -4.30184 0
M  V30 2817 H 276.542 1.83745 -3.30222 0
M  V30 2818 H 276.855 3.19884 -7.03487 0
M  V30 2819 H 275.2 2.88313 -6.32377 0
M  V30 2820 H 278.391 2.20203 -4.13072 0
M  V30 2821 H 278.564 2.82304 -5.83274 0
M  V30 2822 N 271.97 1.30982 0.876444 0
M  V30 2823 C 273.386 1.09498 1.16113 0
M  V30 2824 C 273.586 -0.13875 2.01022 0
M  V30 2825 O 272.642 -0.829935 2.38471 0
M  V30 2826 C 273.955 2.36308 1.85954 0
M  V30 2827 C 275.503 2.41856 1.98683 0
M  V30 2828 C 275.978 3.6853 2.71937 0
M  V30 2829 N 277.469 3.69387 2.79477 0
M  V30 2830 C 278.204 4.64096 3.36753 0
M  V30 2831 N 277.7 5.69155 3.95012 0
M  V30 2832 N 279.493 4.51626 3.3465 0
M  V30 2833 H 271.644 2.10118 0.310494 0
M  V30 2834 H 273.907 0.926634 0.200131 0
M  V30 2835 H 273.613 3.26388 1.31011 0
M  V30 2836 H 273.487 2.4561 2.86278 0
M  V30 2837 H 275.874 1.52249 2.52793 0
M  V30 2838 H 275.955 2.36523 0.9742 0
M  V30 2839 H 275.599 4.58499 2.18496 0
M  V30 2840 H 275.529 3.71127 3.73593 0
M  V30 2841 H 278.02 2.93438 2.38123 0
M  V30 2842 H 278.333 6.3751 4.36808 0
M  V30 2843 H 276.678 5.72937 3.93406 0
M  V30 2844 H 279.869 3.68728 2.8837 0
M  V30 2845 H 280.042 5.25614 3.7899 0
M  V30 2846 N 273.449 -1.08991 1.13837 0
M  V30 2847 C 274.399 -2.1393 0.788535 0
M  V30 2848 C 275.383 -1.59396 -0.219516 0
M  V30 2849 O 276.575 -1.76985 -0.0227557 0
M  V30 2850 C 273.704 -3.42305 0.261147 0
M  V30 2851 C 272.79 -4.03736 1.29837 0
M  V30 2852 N 273.181 -4.39659 2.50067 0
M  V30 2853 C 271.479 -4.30993 1.1472 0
M  V30 2854 C 272.18 -4.88113 3.16419 0
M  V30 2855 N 271.156 -4.85846 2.43832 0
M  V30 2856 H 274.958 -2.39516 1.70322 0
M  V30 2857 H 272.472 -1.26263 1.02134 0
M  V30 2858 H 274.469 -4.16899 -0.0077405 0
M  V30 2859 H 273.129 -3.18172 -0.647805 0
M  V30 2860 H 274.14 -4.30878 2.8734 0
M  V30 2861 H 270.817 -4.16444 0.296773 0
M  V30 2862 H 272.207 -5.25336 4.18894 0
M  V30 2863 N 274.927 -0.932562 -1.27047 0
M  V30 2864 C 275.859 -0.392734 -2.2581 0
M  V30 2865 C 276.872 0.479241 -1.55586 0
M  V30 2866 O 278.061 0.291078 -1.76111 0
M  V30 2867 C 275.161 0.455456 -3.35826 0
M  V30 2868 C 274.334 -0.398355 -4.35582 0
M  V30 2869 C 273.393 0.387985 -5.24768 0
M  V30 2870 O 272.419 -0.206003 -5.68827 0
M  V30 2871 N 273.621 1.68664 -5.55457 0
M  V30 2872 H 276.386 -1.24173 -2.72766 0
M  V30 2873 H 273.947 -0.800511 -1.40725 0
M  V30 2874 H 275.939 0.988692 -3.92437 0
M  V30 2875 H 274.509 1.20522 -2.88432 0
M  V30 2876 H 273.729 -1.11286 -3.78165 0
M  V30 2877 H 275.017 -0.981889 -4.99236 0
M  V30 2878 H 274.415 2.19147 -5.21528 0
M  V30 2879 H 272.972 2.1663 -6.14748 0
M  V30 2880 N 276.405 1.4127 -0.698611 0
M  V30 2881 C 277.653 2.00782 -0.230409 0
M  V30 2882 C 277.974 1.5562 1.17505 0
M  V30 2883 O 277.244 0.78815 1.79346 0
M  V30 2884 H 275.824 0.742464 -0.0821944 0
M  V30 2885 H 278.486 1.72852 -0.90045 0
M  V30 2886 H 277.582 3.11095 -0.25021 0
M  V30 2887 N 277.883 0.443576 1.51229 0
M  V30 2888 C 278.831 -0.37904 2.29491 0
M  V30 2889 C 279.825 -1.0153 1.35603 0
M  V30 2890 O 281.031 -0.94955 1.52917 0
M  V30 2891 H 277.406 -0.141053 0.738653 0
M  V30 2892 H 279.377 0.301799 2.9687 0
M  V30 2893 C 278.126 -1.46426 3.15364 0
M  V30 2894 H 277.449 -0.984037 3.87501 0
M  V30 2895 H 278.889 -2.01297 3.7317 0
M  V30 2896 C 277.348 -2.45099 2.31146 0
M  V30 2897 O 277.878 -3.49773 1.9754 0
M  V30 2898 N 276.084 -2.16139 1.94249 0
M  V30 2899 H 275.631 -1.31044 2.21777 0
M  V30 2900 H 275.589 -2.82398 1.38198 0
M  V30 2901 N 279.361 -1.56624 0.175154 0
M  V30 2902 C 280.591 -2.01082 -0.474283 0
M  V30 2903 C 280.999 -1.05447 -1.57091 0
M  V30 2904 O 280.342 -0.0480595 -1.83637 0
M  V30 2905 C 280.404 -3.41963 -1.10911 0
M  V30 2906 C 280.068 -4.56742 -0.153666 0
M  V30 2907 C 281.065 -5.16076 0.629448 0
M  V30 2908 C 278.75 -5.02277 -0.0483776 0
M  V30 2909 C 280.744 -6.19377 1.50501 0
M  V30 2910 C 278.431 -6.05427 0.830768 0
M  V30 2911 C 279.429 -6.63849 1.60605 0
M  V30 2912 O 279.117 -7.64998 2.47049 0
M  V30 2913 H 278.849 -0.664261 -0.125432 0
M  V30 2914 H 281.403 -2.03549 0.275163 0
M  V30 2915 H 279.633 -3.36422 -1.90676 0
M  V30 2916 H 281.322 -3.70352 -1.66114 0
M  V30 2917 H 282.088 -4.81776 0.558297 0
M  V30 2918 H 277.967 -4.56513 -0.641611 0
M  V30 2919 H 281.511 -6.64906 2.1106 0
M  V30 2920 H 277.408 -6.39151 0.903107 0
M  V30 2921 H 278.176 -7.82336 2.40607 0
M  V30 2922 N 280.839 0.0985539 -1.57292 0
M  V30 2923 C 282.25 0.653457 -1.74891 0
M  V30 2924 C 282.601 1.7929 -0.796838 0
M  V30 2925 O 281.726 2.16385 0.0254886 0
M  V30 2926 C 282.321 1.19216 -3.17133 0
M  V30 2927 C 280.88 1.69316 -3.36168 0
M  V30 2928 C 280.027 0.601294 -2.70702 0
M  V30 2929 H 282.978 -0.127497 -1.58187 0
M  V30 2930 H 282.999 2.06154 -3.19814 0
M  V30 2931 H 282.511 0.362635 -3.86402 0
M  V30 2932 H 280.612 2.5468 -2.71972 0
M  V30 2933 H 280.725 1.78853 -4.44464 0
M  V30 2934 H 279.089 1.0399 -2.32504 0
M  V30 2935 H 279.872 -0.217592 -3.4261 0
M  V30 2936 N 282.317 1.53212 0.369288 0
M  V30 2937 C 283.563 1.69466 1.11397 0
M  V30 2938 C 283.896 0.443257 1.89074 0
M  V30 2939 O 283.171 -0.559386 1.86282 0
M  V30 2940 C 283.454 2.9422 2.07621 0
M  V30 2941 C 283.307 4.29508 1.33577 0
M  V30 2942 C 284.626 3.14565 3.07794 0
M  V30 2943 H 281.745 0.616667 0.403597 0
M  V30 2944 H 284.387 1.85845 0.395179 0
M  V30 2945 H 282.537 2.80387 2.68916 0
M  V30 2946 H 284.209 4.55147 0.750955 0
M  V30 2947 H 282.452 4.29088 0.637618 0
M  V30 2948 H 283.123 5.12926 2.03989 0
M  V30 2949 H 285.599 3.2756 2.56601 0
M  V30 2950 H 284.475 4.03297 3.72348 0
M  V30 2951 H 284.736 2.29675 3.77759 0
M  V30 2952 N 283.795 -0.628877 1.44509 0
M  V30 2953 C 285.211 -0.947305 1.28446 0
M  V30 2954 C 285.411 -2.00275 0.221872 0
M  V30 2955 O 284.467 -2.49447 -0.391471 0
M  V30 2956 C 285.78 -1.40843 2.65676 0
M  V30 2957 C 287.328 -1.52379 2.73404 0
M  V30 2958 C 287.803 -2.01875 4.11109 0
M  V30 2959 N 289.294 -2.09142 4.13296 0
M  V30 2960 C 290.029 -2.48615 5.16699 0
M  V30 2961 N 289.525 -2.87209 6.30462 0
M  V30 2962 N 291.318 -2.48768 5.04054 0
M  V30 2963 H 283.469 0.0690977 2.12288 0
M  V30 2964 H 285.732 -0.0317164 0.947469 0
M  V30 2965 H 285.438 -0.707206 3.44516 0
M  V30 2966 H 285.312 -2.37902 2.92716 0
M  V30 2967 H 287.699 -2.21598 1.9488 0
M  V30 2968 H 287.78 -0.536898 2.50102 0
M  V30 2969 H 287.424 -1.3325 4.90109 0
M  V30 2970 H 287.354 -3.0144 4.31789 0
M  V30 2971 H 289.845 -1.81991 3.31191 0
M  V30 2972 H 290.158 -3.16149 7.05174 0
M  V30 2973 H 288.503 -2.84955 6.33897 0
M  V30 2974 H 291.694 -2.18009 4.14234 0
M  V30 2975 H 291.867 -2.79207 5.84763 0
M  V30 2976 N 285.273 -1.31445 -0.869486 0
M  V30 2977 C 286.519 -1.21337 -1.62496 0
M  V30 2978 C 286.852 0.227872 -1.92858 0
M  V30 2979 O 286.127 1.16094 -1.56053 0
M  V30 2980 C 286.41 -2.05814 -2.95487 0
M  V30 2981 C 286.263 -3.5824 -2.72 0
M  V30 2982 C 287.582 -1.9079 -3.96594 0
M  V30 2983 H 284.701 -0.442135 -0.589649 0
M  V30 2984 H 287.343 -1.6124 -1.00507 0
M  V30 2985 H 285.493 -1.71913 -3.48394 0
M  V30 2986 H 287.165 -4.0228 -2.25762 0
M  V30 2987 H 285.408 -3.81647 -2.06224 0
M  V30 2988 H 286.079 -4.12657 -3.66631 0
M  V30 2989 H 288.555 -2.20459 -3.52898 0
M  V30 2990 H 287.431 -2.52199 -4.87531 0
M  V30 2991 H 287.692 -0.871341 -4.33428 0
M  V30 2992 N 286.751 1.08385 -1.14413 0
M  V30 2993 C 287.681 2.17321 -0.854044 0
M  V30 2994 C 288.662 1.69024 0.191049 0
M  V30 2995 O 289.847 1.94141 0.0476779 0
M  V30 2996 C 286.977 3.45719 -0.330983 0
M  V30 2997 C 285.931 4.07409 -1.31155 0
M  V30 2998 C 285.257 5.30762 -0.64778 0
M  V30 2999 C 286.557 4.48665 -2.67388 0
M  V30 3000 H 288.251 2.41845 -1.76498 0
M  V30 3001 H 285.797 1.16233 -0.850051 0
M  V30 3002 H 287.75 4.21241 -0.115645 0
M  V30 3003 H 286.474 3.2075 0.615381 0
M  V30 3004 H 285.133 3.33919 -1.51306 0
M  V30 3005 H 284.781 5.02078 0.304398 0
M  V30 3006 H 284.481 5.72992 -1.30207 0
M  V30 3007 H 286.005 6.08998 -0.441972 0
M  V30 3008 H 287.419 5.15364 -2.51143 0
M  V30 3009 H 285.816 5.01814 -3.29093 0
M  V30 3010 H 286.886 3.60543 -3.24248 0
M  V30 3011 N 288.23 0.939286 1.26551 0
M  V30 3012 C 289.476 0.586715 1.94128 0
M  V30 3013 C 289.809 -0.8717 1.73537 0
M  V30 3014 O 289.084 -1.62339 1.07127 0
M  V30 3015 C 289.367 0.927497 3.4795 0
M  V30 3016 C 289.22 2.44052 3.77834 0
M  V30 3017 C 290.539 0.441569 4.37879 0
M  V30 3018 H 287.658 0.21463 0.705055 0
M  V30 3019 H 290.3 1.17316 1.49455 0
M  V30 3020 H 288.45 0.428431 3.8613 0
M  V30 3021 H 290.122 3.01216 3.4938 0
M  V30 3022 H 288.365 2.8848 3.23978 0
M  V30 3023 H 289.036 2.62947 4.85348 0
M  V30 3024 H 291.512 0.869448 4.06915 0
M  V30 3025 H 290.388 0.708856 5.44304 0
M  V30 3026 H 290.649 -0.658467 4.37169 0
M  V30 3027 N 289.708 -1.40897 0.706093 0
M  V30 3028 C 290.985 -1.94868 0.169099 0
M  V30 3029 C 291.365 -1.64485 -1.32318 0
M  V30 3030 O 290.713 -0.95744 -2.07474 0
M  V30 3031 C 290.923 -3.45798 0.471654 0
M  V30 3032 C 292.271 -4.22663 0.405127 0
M  V30 3033 O 293.295 -3.53865 0.407168 0
M  V30 3034 O 292.154 -5.45216 0.374383 0
M  V30 3035 H 289.248 -0.82673 0.0211352 0
M  V30 3036 H 291.794 -1.50558 0.782976 0
M  V30 3037 H 290.566 -3.61235 1.50416 0
M  V30 3038 H 290.189 -3.97225 -0.172666 0
M  V30 3039 N 291.186 -0.45159 -1.50991 0
M  V30 3040 C 292.434 0.109857 -2.01801 0
M  V30 3041 C 292.755 1.41958 -1.3369 0
M  V30 3042 O 292.025 1.9003 -0.475951 0
M  V30 3043 H 290.605 0.0435884 -0.745727 0
M  V30 3044 H 293.267 -0.597557 -1.85514 0
M  V30 3045 H 292.363 0.275489 -3.10882 0
M  V30 3046 N 292.664 1.56529 -0.183458 0
M  V30 3047 C 293.627 2.17324 0.728223 0
M  V30 3048 C 294.627 1.12453 1.14939 0
M  V30 3049 O 295.817 1.37902 1.06437 0
M  V30 3050 C 292.949 2.76591 1.99274 0
M  V30 3051 H 294.142 2.99241 0.198772 0
M  V30 3052 H 291.695 1.5616 0.0661391 0
M  V30 3053 H 292.43 1.98441 2.56499 0
M  V30 3054 H 292.215 3.5335 1.69959 0
M  V30 3055 H 293.705 3.23311 2.6431 0
M  V30 3056 N 294.142 -0.090211 1.57342 0
M  V30 3057 C 295.074 -1.13541 1.99101 0
M  V30 3058 C 296.087 -1.3604 0.894258 0
M  V30 3059 O 297.276 -1.34606 1.17233 0
M  V30 3060 C 294.376 -2.49001 2.29895 0
M  V30 3061 C 293.549 -2.46712 3.61182 0
M  V30 3062 C 292.608 -3.64136 3.79857 0
M  V30 3063 O 291.634 -3.46405 4.51655 0
M  V30 3064 N 292.836 -4.83802 3.20806 0
M  V30 3065 H 295.601 -0.779942 2.89373 0
M  V30 3066 H 293.162 -0.279125 1.59476 0
M  V30 3067 H 295.154 -3.26166 2.39578 0
M  V30 3068 H 293.724 -2.76619 1.45605 0
M  V30 3069 H 292.944 -1.55058 3.62423 0
M  V30 3070 H 294.232 -2.42265 4.4742 0
M  V30 3071 H 293.63 -5.01112 2.62494 0
M  V30 3072 H 292.187 -5.58543 3.35966 0
M  V30 3073 N 295.62 -1.53406 -0.361157 0
M  V30 3074 C 296.845 -1.74024 -1.12829 0
M  V30 3075 C 297.27 -0.470069 -1.82132 0
M  V30 3076 O 296.628 0.57619 -1.719 0
M  V30 3077 C 296.676 -2.90903 -2.13091 0
M  V30 3078 O 295.78 -2.59821 -3.20261 0
M  V30 3079 H 295.121 -0.577804 -0.327168 0
M  V30 3080 H 297.651 -2.00307 -0.41693 0
M  V30 3081 H 297.661 -3.17194 -2.56616 0
M  V30 3082 H 296.336 -3.83034 -1.62042 0
M  V30 3083 H 294.913 -2.44362 -2.81677 0
M  V30 3084 N 297.098 0.621204 -1.44841 0
M  V30 3085 C 298.061 1.71459 -1.521 0
M  V30 3086 C 299.061 1.55696 -0.401933 0
M  V30 3087 O 300.251 1.61011 -0.664925 0
M  V30 3088 C 297.383 3.10624 -1.40447 0
M  V30 3089 H 298.576 1.66394 -2.49506 0
M  V30 3090 H 296.129 0.835745 -1.3208 0
M  V30 3091 H 296.864 3.21277 -0.441737 0
M  V30 3092 H 296.649 3.23473 -2.21602 0
M  V30 3093 H 298.139 3.90293 -1.4853 0
M  V30 3094 N 298.576 1.31904 0.862503 0
M  V30 3095 C 299.824 1.21776 1.61292 0
M  V30 3096 C 300.145 -0.222413 1.93727 0
M  V30 3097 O 299.415 -1.1451 1.58947 0
M  V30 3098 H 297.995 0.447717 0.597962 0
M  V30 3099 H 300.657 1.65326 1.03215 0
M  V30 3100 H 299.753 1.7948 2.5533 0
M  V30 3101 N 300.054 -1.07777 1.14986 0
M  V30 3102 C 301.279 -1.84558 0.946213 0
M  V30 3103 C 301.704 -1.81323 -0.500362 0
M  V30 3104 O 301.062 -1.20301 -1.35637 0
M  V30 3105 C 301.11 -3.29736 1.45968 0
M  V30 3106 O 300.214 -4.07149 0.65601 0
M  V30 3107 H 299.555 -0.571641 0.33782 0
M  V30 3108 H 302.085 -1.35991 1.52865 0
M  V30 3109 H 302.095 -3.80574 1.47063 0
M  V30 3110 H 300.77 -3.31406 2.51283 0
M  V30 3111 H 299.347 -3.65994 0.714322 0
M  V30 3112 N 301.532 -0.945985 -1.26051 0
M  V30 3113 C 302.462 -0.477172 -2.28572 0
M  V30 3114 C 303.443 0.472032 -1.63419 0
M  V30 3115 O 304.628 0.372853 -1.90587 0
M  V30 3116 C 301.758 0.253975 -3.4637 0
M  V30 3117 C 300.712 -0.609135 -4.23643 0
M  V30 3118 C 300.038 0.252252 -5.34105 0
M  V30 3119 C 301.338 -1.8829 -4.8718 0
M  V30 3120 H 303.032 -1.33402 -2.68038 0
M  V30 3121 H 300.578 -0.642904 -1.28852 0
M  V30 3122 H 302.531 0.593016 -4.17207 0
M  V30 3123 H 301.255 1.145 -3.05871 0
M  V30 3124 H 299.914 -0.931138 -3.54578 0
M  V30 3125 H 299.562 1.14278 -4.89846 0
M  V30 3126 H 299.262 -0.32188 -5.86718 0
M  V30 3127 H 300.786 0.586454 -6.07777 0
M  V30 3128 H 302.2 -1.61081 -5.50205 0
M  V30 3129 H 300.597 -2.40199 -5.49931 0
M  V30 3130 H 301.667 -2.59134 -4.09851 0
M  V30 3131 N 303.011 1.40521 -0.713556 0
M  V30 3132 C 304.422 1.83853 -0.324807 0
M  V30 3133 C 304.773 1.59667 1.14021 0
M  V30 3134 O 303.898 1.07649 1.87725 0
M  V30 3135 C 304.493 3.33751 -0.582746 0
M  V30 3136 C 303.052 3.75584 -0.247727 0
M  V30 3137 C 302.199 2.63753 -0.856121 0
M  V30 3138 H 305.15 1.29817 -0.91286 0
M  V30 3139 H 305.171 3.80194 0.152682 0
M  V30 3140 H 304.683 3.51322 -1.64908 0
M  V30 3141 H 302.784 3.63608 0.813624 0
M  V30 3142 H 302.897 4.7373 -0.715307 0
M  V30 3143 H 301.261 2.53108 -0.28432 0
M  V30 3144 H 302.044 2.84137 -1.92668 0
M  V30 3145 N 304.489 0.459591 1.5075 0
M  V30 3146 C 305.419 -0.330644 2.31147 0
M  V30 3147 C 306.4 -1.00087 1.37538 0
M  V30 3148 O 307.585 -1.00025 1.66459 0
M  V30 3149 C 304.715 -1.41958 3.16962 0
M  V30 3150 C 303.669 -0.871608 4.19031 0
M  V30 3151 C 302.995 -2.05797 4.9351 0
M  V30 3152 C 304.295 0.109251 5.22186 0
M  V30 3153 H 305.989 0.340336 2.97459 0
M  V30 3154 H 303.535 0.165119 1.4305 0
M  V30 3155 H 305.488 -1.9798 3.71997 0
M  V30 3156 H 304.212 -2.11917 2.48513 0
M  V30 3157 H 302.871 -0.333442 3.6508 0
M  V30 3158 H 302.519 -2.74427 4.21544 0
M  V30 3159 H 302.219 -1.6976 5.62544 0
M  V30 3160 H 303.743 -2.62331 5.51375 0
M  V30 3161 H 305.157 -0.361405 5.7216 0
M  V30 3162 H 303.554 0.383316 5.98875 0
M  V30 3163 H 304.624 1.03887 4.73641 0
M  V30 3164 N 305.967 -1.56429 0.191757 0
M  V30 3165 C 307.244 -1.89224 -0.495332 0
M  V30 3166 C 307.624 -1.10478 -1.79883 0
M  V30 3167 O 306.972 -0.204852 -2.2758 0
M  V30 3168 C 307.182 -3.41548 -0.717367 0
M  V30 3169 C 308.53 -4.11711 -1.03823 0
M  V30 3170 O 309.554 -3.4698 -0.805204 0
M  V30 3171 O 308.413 -5.2611 -1.47887 0
M  V30 3172 H 305.507 -0.785788 -0.25781 0
M  V30 3173 H 308.053 -1.68111 0.231721 0
M  V30 3174 H 306.825 -3.90772 0.203287 0
M  V30 3175 H 306.448 -3.68342 -1.497 0
M  V30 3176 N 307.445 0.0818655 -1.57387 0
M  V30 3177 C 308.692 0.782914 -1.86753 0
M  V30 3178 C 309.02 1.78082 -0.782118 0
M  V30 3179 O 308.275 1.94426 0.22295 0
M  V30 3180 C 308.574 1.53513 -3.22752 0
M  V30 3181 C 308.24 0.678134 -4.45771 0
M  V30 3182 C 306.902 0.441929 -4.79166 0
M  V30 3183 C 309.254 0.0832243 -5.21134 0
M  V30 3184 C 306.582 -0.398833 -5.85343 0
M  V30 3185 C 308.934 -0.744935 -6.28199 0
M  V30 3186 C 307.598 -0.991107 -6.60101 0
M  V30 3187 H 306.868 0.286489 -0.683378 0
M  V30 3188 H 309.515 0.0439808 -1.91449 0
M  V30 3189 H 307.82 2.34599 -3.138 0
M  V30 3190 H 309.517 2.08218 -3.42705 0
M  V30 3191 H 306.107 0.872357 -4.19628 0
M  V30 3192 H 310.291 0.252847 -4.95655 0
M  V30 3193 H 305.547 -0.598405 -6.08465 0
M  V30 3194 H 309.721 -1.21271 -6.8576 0
M  V30 3195 H 307.348 -1.64437 -7.42202 0
M  V30 3196 N 308.923 1.53595 0.353017 0
M  V30 3197 C 310.148 1.7462 1.11904 0
M  V30 3198 C 310.573 0.479721 1.8188 0
M  V30 3199 O 309.931 -0.567066 1.72204 0
M  V30 3200 C 309.979 2.92029 2.11545 0
M  V30 3201 O 309.083 2.61516 3.18878 0
M  V30 3202 H 308.424 0.579531 0.324099 0
M  V30 3203 H 310.954 2.00525 0.406301 0
M  V30 3204 H 310.964 3.18551 2.5493 0
M  V30 3205 H 309.639 3.83888 1.60008 0
M  V30 3206 H 308.216 2.45852 2.80377 0
M  V30 3207 N 310.401 -0.613514 1.45168 0
M  V30 3208 C 311.817 -0.933629 1.29443 0
M  V30 3209 C 312.017 -2.00028 0.243101 0
M  V30 3210 O 311.073 -2.49848 -0.364992 0
M  V30 3211 C 312.386 -1.38018 2.67155 0
M  V30 3212 C 313.934 -1.49471 2.75004 0
M  V30 3213 C 314.409 -1.97503 4.13227 0
M  V30 3214 N 315.9 -2.04746 4.15491 0
M  V30 3215 C 316.635 -2.43121 5.19307 0
M  V30 3216 N 316.131 -2.80506 6.33473 0
M  V30 3217 N 317.924 -2.43408 5.06664 0
M  V30 3218 H 310.075 0.0916097 2.12202 0
M  V30 3219 H 312.338 -0.0216655 0.947752 0
M  V30 3220 H 312.044 -0.670625 3.45247 0
M  V30 3221 H 311.918 -2.34784 2.95222 0
M  V30 3222 H 314.305 -2.19519 1.9722 0
M  V30 3223 H 314.386 -0.510342 2.50657 0
M  V30 3224 H 314.03 -1.28045 4.91495 0
M  V30 3225 H 313.96 -2.96843 4.34962 0
M  V30 3226 H 316.451 -1.78468 3.33103 0
M  V30 3227 H 316.764 -3.08652 7.08487 0
M  V30 3228 H 315.109 -2.78216 6.36884 0
M  V30 3229 H 318.3 -2.13604 4.16523 0
M  V30 3230 H 318.473 -2.72989 5.87691 0
M  V30 3231 N 311.879 -1.3236 -0.855495 0
M  V30 3232 C 312.809 -1.23833 -1.97958 0
M  V30 3233 C 313.79 -0.122361 -1.69659 0
M  V30 3234 O 314.975 -0.30939 -1.9172 0
M  V30 3235 C 312.105 -0.959772 -3.33775 0
M  V30 3236 C 311.059 -2.03689 -3.76424 0
M  V30 3237 C 310.385 -1.61075 -5.09862 0
M  V30 3238 C 311.685 -3.4518 -3.9198 0
M  V30 3239 H 313.379 -2.1788 -2.0535 0
M  V30 3240 H 310.925 -1.04891 -0.986605 0
M  V30 3241 H 312.878 -0.886678 -4.11966 0
M  V30 3242 H 311.602 0.0163404 -3.26596 0
M  V30 3243 H 310.261 -2.10012 -3.00484 0
M  V30 3244 H 309.909 -0.622107 -4.99138 0
M  V30 3245 H 309.609 -2.33143 -5.39368 0
M  V30 3246 H 311.133 -1.55201 -5.90546 0
M  V30 3247 H 312.547 -3.4145 -4.60526 0
M  V30 3248 H 310.944 -4.1559 -4.32903 0
M  V30 3249 H 312.014 -3.84903 -2.94919 0
M  V30 3250 N 313.357 1.07166 -1.15556 0
M  V30 3251 C 314.267 2.17947 -0.868116 0
M  V30 3252 C 315.283 1.73297 0.156297 0
M  V30 3253 O 316.459 2.01392 -0.0182327 0
M  V30 3254 C 313.524 3.44789 -0.36355 0
M  V30 3255 C 312.585 4.03996 -1.45209 0
M  V30 3256 C 311.818 5.24783 -0.971508 0
M  V30 3257 O 312.041 5.70109 0.182194 0
M  V30 3258 O 310.975 5.75715 -1.75603 0
M  V30 3259 H 314.801 2.4503 -1.79427 0
M  V30 3260 H 312.386 1.16539 -0.934824 0
M  V30 3261 H 314.268 4.21307 -0.0887113 0
M  V30 3262 H 312.943 3.19253 0.534708 0
M  V30 3263 H 311.85 3.29009 -1.78056 0
M  V30 3264 H 313.183 4.33808 -2.32533 0
M  V30 3265 N 314.835 0.952656 1.25548 0
M  V30 3266 C 316.081 0.607272 1.93494 0
M  V30 3267 C 316.414 -0.853245 1.74452 0
M  V30 3268 O 315.689 -1.61194 1.08843 0
M  V30 3269 C 315.972 0.96435 3.46947 0
M  V30 3270 C 315.825 2.48045 3.75225 0
M  V30 3271 C 317.144 0.487987 4.37386 0
M  V30 3272 H 314.263 0.222096 0.702739 0
M  V30 3273 H 316.905 1.18895 1.48203 0
M  V30 3274 H 315.055 0.469361 3.85654 0
M  V30 3275 H 316.727 3.04905 3.46166 0
M  V30 3276 H 314.97 2.919 3.209 0
M  V30 3277 H 315.641 2.6808 4.82532 0
M  V30 3278 H 318.117 0.912558 4.0597 0
M  V30 3279 H 316.993 0.766547 5.43521 0
M  V30 3280 H 317.254 -0.612063 4.37843 0
M  V30 3281 N 316.313 -1.40141 0.720998 0
M  V30 3282 C 317.59 -1.94677 0.189757 0
M  V30 3283 C 317.97 -1.65879 -1.30566 0
M  V30 3284 O 317.318 -0.979391 -2.06447 0
M  V30 3285 C 317.528 -3.45279 0.508304 0
M  V30 3286 C 318.876 -4.22209 0.449934 0
M  V30 3287 O 319.9 -3.53413 0.444677 0
M  V30 3288 O 318.759 -5.44788 0.432189 0
M  V30 3289 H 315.853 -0.826459 0.0299026 0
M  V30 3290 H 318.399 -1.49719 0.7989 0
M  V30 3291 H 317.171 -3.59619 1.54239 0
M  V30 3292 H 316.794 -3.97386 -0.130525 0
M  V30 3293 N 317.792 -0.46758 -1.50504 0
M  V30 3294 C 319.022 0.086288 -2.0642 0
M  V30 3295 C 319.43 1.34369 -1.33197 0
M  V30 3296 O 318.773 1.79431 -0.393747 0
M  V30 3297 C 318.835 0.443846 -3.5675 0
M  V30 3298 C 318.499 -0.711035 -4.51435 0
M  V30 3299 C 319.496 -1.59205 -4.94924 0
M  V30 3300 C 317.181 -0.900363 -4.94165 0
M  V30 3301 C 319.175 -2.64683 -5.79846 0
M  V30 3302 C 316.862 -1.95837 -5.7887 0
M  V30 3303 C 317.86 -2.82997 -6.21612 0
M  V30 3304 O 317.548 -3.86977 -7.0463 0
M  V30 3305 H 317.28 -0.00217814 -0.675996 0
M  V30 3306 H 319.834 -0.654346 -1.94698 0
M  V30 3307 H 318.064 1.23762 -3.6636 0
M  V30 3308 H 319.753 0.932386 -3.95046 0
M  V30 3309 H 320.519 -1.45745 -4.62583 0
M  V30 3310 H 316.398 -0.231427 -4.60419 0
M  V30 3311 H 319.942 -3.32745 -6.13128 0
M  V30 3312 H 315.839 -2.09305 -6.10624 0
M  V30 3313 H 316.607 -3.83923 -7.22873 0
M  V30 3314 N 319.27 1.56325 -0.20005 0
M  V30 3315 C 320.5 2.01811 0.442232 0
M  V30 3316 C 320.908 1.07932 1.55394 0
M  V30 3317 O 320.251 0.0772685 1.83537 0
M  V30 3318 C 320.313 3.43685 1.05457 0
M  V30 3319 C 319.977 4.56928 0.0809833 0
M  V30 3320 C 320.974 5.15009 -0.711471 0
M  V30 3321 C 318.659 5.0229 -0.0315364 0
M  V30 3322 C 320.653 6.16904 -1.60336 0
M  V30 3323 C 318.34 6.04028 -0.926981 0
M  V30 3324 C 319.338 6.6121 -1.71146 0
M  V30 3325 O 319.026 7.60971 -2.59189 0
M  V30 3326 H 318.758 0.666173 0.114848 0
M  V30 3327 H 321.312 2.03085 -0.307511 0
M  V30 3328 H 319.542 3.39413 1.85299 0
M  V30 3329 H 321.231 3.72948 1.60201 0
M  V30 3330 H 321.997 4.80827 -0.634873 0
M  V30 3331 H 317.876 4.57476 0.568902 0
M  V30 3332 H 321.42 6.61464 -2.21611 0
M  V30 3333 H 317.317 6.37634 -1.00468 0
M  V30 3334 H 318.085 7.7841 -2.53023 0
M  V30 3335 N 320.748 -0.0735177 1.57428 0
M  V30 3336 C 321.711 -1.07192 2.02589 0
M  V30 3337 C 322.711 -1.31695 0.922661 0
M  V30 3338 O 323.901 -1.27445 1.18758 0
M  V30 3339 C 321.033 -2.41599 2.40506 0
M  V30 3340 H 322.226 -0.682727 2.92025 0
M  V30 3341 H 319.779 -0.319193 1.53006 0
M  V30 3342 H 320.514 -2.85354 1.5409 0
M  V30 3343 H 320.299 -2.25156 3.21009 0
M  V30 3344 H 321.789 -3.13367 2.76027 0
M  V30 3345 N 322.226 -1.5378 -0.344866 0
M  V30 3346 C 323.473 -1.70963 -1.08526 0
M  V30 3347 C 323.801 -0.472126 -1.88683 0
M  V30 3348 O 323.056 0.546116 -1.87926 0
M  V30 3349 C 323.355 -2.92407 -2.05506 0
M  V30 3350 C 323.021 -4.28066 -1.41671 0
M  V30 3351 C 321.683 -4.64951 -1.2399 0
M  V30 3352 C 324.035 -5.12344 -0.956726 0
M  V30 3353 C 321.363 -5.83733 -0.589277 0
M  V30 3354 C 323.715 -6.3179 -0.320015 0
M  V30 3355 C 322.379 -6.67372 -0.130881 0
M  V30 3356 H 321.649 -0.625598 -0.397124 0
M  V30 3357 H 324.296 -1.87995 -0.36469 0
M  V30 3358 H 322.601 -2.69973 -2.8394 0
M  V30 3359 H 324.298 -3.02895 -2.62784 0
M  V30 3360 H 320.888 -3.99034 -1.56429 0
M  V30 3361 H 325.072 -4.8438 -1.08118 0
M  V30 3362 H 320.328 -6.09877 -0.431344 0
M  V30 3363 H 324.502 -6.96386 0.0445072 0
M  V30 3364 H 322.129 -7.59273 0.375318 0
M  V30 3365 N 323.704 0.605807 -1.45491 0
M  V30 3366 C 324.932 1.39136 -1.5313 0
M  V30 3367 C 325.347 1.88082 -0.164507 0
M  V30 3368 O 324.704 1.62316 0.834247 0
M  V30 3369 C 324.755 2.59463 -2.51716 0
M  V30 3370 O 324.476 2.12551 -3.83084 0
M  V30 3371 C 325.977 3.52301 -2.6907 0
M  V30 3372 H 323.197 0.425849 -0.51855 0
M  V30 3373 H 325.741 0.73865 -1.90694 0
M  V30 3374 H 323.896 3.20772 -2.17219 0
M  V30 3375 H 324.31 2.90744 -4.36541 0
M  V30 3376 H 325.784 4.33271 -3.42024 0
M  V30 3377 H 326.261 4.02757 -1.75167 0
M  V30 3378 H 326.867 2.96845 -3.04571 0
M  V30 3379 N 325.182 1.32811 0.848464 0
M  V30 3380 C 326.43 1.23479 1.59991 0
M  V30 3381 C 326.751 -0.201853 1.93952 0
M  V30 3382 O 326.021 -1.12818 1.60153 0
M  V30 3383 H 324.601 0.454034 0.593179 0
M  V30 3384 H 327.263 1.66412 1.01455 0
M  V30 3385 H 326.359 1.82178 2.53412 0
M  V30 3386 N 326.66 -1.06551 1.16123 0
M  V30 3387 C 327.61 -2.12209 0.833736 0
M  V30 3388 C 328.594 -1.59825 -0.185656 0
M  V30 3389 O 329.786 -1.76994 0.0147906 0
M  V30 3390 C 326.915 -3.41674 0.333697 0
M  V30 3391 C 326.001 -4.00892 1.38372 0
M  V30 3392 N 326.392 -4.34256 2.59337 0
M  V30 3393 C 324.69 -4.28463 1.23836 0
M  V30 3394 C 325.391 -4.81291 3.26701 0
M  V30 3395 N 324.367 -4.80565 2.54083 0
M  V30 3396 H 328.169 -2.35849 1.75364 0
M  V30 3397 H 325.683 -1.24068 1.04789 0
M  V30 3398 H 327.68 -4.16822 0.0806918 0
M  V30 3399 H 326.34 -3.19475 -0.58017 0
M  V30 3400 H 327.351 -4.24687 2.96415 0
M  V30 3401 H 324.028 -4.15721 0.38504 0
M  V30 3402 H 325.418 -5.16332 4.29943 0
M  V30 3403 N 328.138 -0.959301 -1.25041 0
M  V30 3404 C 329.085 -0.482057 -2.2571 0
M  V30 3405 C 330.055 0.467939 -1.59372 0
M  V30 3406 O 331.24 0.380159 -1.86974 0
M  V30 3407 C 328.38 0.229623 -3.44335 0
M  V30 3408 C 327.493 -0.758156 -4.25295 0
M  V30 3409 C 326.628 -0.0234403 -5.31195 0
M  V30 3410 C 325.667 -1.00184 -6.03846 0
M  V30 3411 N 324.804 -0.29769 -7.01469 0
M  V30 3412 H 329.644 -1.34538 -2.65901 0
M  V30 3413 H 327.181 -0.674592 -1.3072 0
M  V30 3414 H 329.139 0.658856 -4.11965 0
M  V30 3415 H 327.769 1.05696 -3.05005 0
M  V30 3416 H 326.821 -1.30586 -3.57284 0
M  V30 3417 H 328.133 -1.50458 -4.75567 0
M  V30 3418 H 327.287 0.464201 -6.04922 0
M  V30 3419 H 326.026 0.755741 -4.81809 0
M  V30 3420 H 325.031 -1.50044 -5.2893 0
M  V30 3421 H 326.256 -1.78133 -6.55321 0
M  V30 3422 H 324.202 0.462668 -6.54366 0
M  V30 3423 H 324.119 -0.983128 -7.4958 0
M  V30 3424 H 325.387 0.16826 -7.79318 0
M  V30 3425 N 329.616 1.39756 -0.72842 0
M  V30 3426 C 330.862 2.01425 -0.282761 0
M  V30 3427 C 331.217 1.56754 1.11561 0
M  V30 3428 O 330.51 0.783482 1.74849 0
M  V30 3429 C 330.704 3.56002 -0.315776 0
M  V30 3430 C 330.533 4.1568 -1.71582 0
M  V30 3431 C 329.303 4.48555 -2.32651 0
M  V30 3432 C 331.501 4.39667 -2.66829 0
M  V30 3433 N 329.483 4.93698 -3.64877 0
M  V30 3434 C 330.854 4.86942 -3.8378 0
M  V30 3435 C 332.909 4.21724 -2.64675 0
M  V30 3436 C 331.612 5.18158 -4.98904 0
M  V30 3437 C 333.638 4.54049 -3.78937 0
M  V30 3438 C 333 5.01525 -4.94623 0
M  V30 3439 H 329.099 0.76756 -0.149583 0
M  V30 3440 H 331.683 1.69784 -0.952976 0
M  V30 3441 H 329.854 3.87046 0.324057 0
M  V30 3442 H 331.586 4.0443 0.147808 0
M  V30 3443 H 328.341 4.36128 -1.84633 0
M  V30 3444 H 328.765 5.20635 -4.32744 0
M  V30 3445 H 333.407 3.84228 -1.76433 0
M  V30 3446 H 331.125 5.54562 -5.87781 0
M  V30 3447 H 334.711 4.41795 -3.78561 0
M  V30 3448 H 333.591 5.26065 -5.81572 0
M  V30 3449 N 331.094 0.475555 1.50254 0
M  V30 3450 C 332.341 -0.0778919 2.0235 0
M  V30 3451 C 332.669 -1.39319 1.35722 0
M  V30 3452 O 331.924 -1.89888 0.473395 0
M  V30 3453 C 332.223 -0.305114 3.56095 0
M  V30 3454 C 331.889 0.92903 4.41225 0
M  V30 3455 C 330.551 1.26739 4.6421 0
M  V30 3456 C 332.903 1.75054 4.90923 0
M  V30 3457 C 330.231 2.42724 5.34137 0
M  V30 3458 C 332.583 2.9017 5.62125 0
M  V30 3459 C 331.247 3.24416 5.83362 0
M  V30 3460 H 330.517 -0.0285027 0.740452 0
M  V30 3461 H 333.164 0.630543 1.80821 0
M  V30 3462 H 331.469 -1.09584 3.76163 0
M  V30 3463 H 333.166 -0.747377 3.93974 0
M  V30 3464 H 329.756 0.655428 4.23559 0
M  V30 3465 H 333.94 1.50231 4.73016 0
M  V30 3466 H 329.196 2.69525 5.48786 0
M  V30 3467 H 333.37 3.54169 5.99614 0
M  V30 3468 H 330.997 4.14396 6.37323 0
M  V30 3469 N 332.573 -1.56217 0.208337 0
M  V30 3470 C 333.536 -2.18455 -0.693557 0
M  V30 3471 C 334.536 -1.14268 -1.13135 0
M  V30 3472 O 335.726 -1.39577 -1.0423 0
M  V30 3473 C 332.858 -2.79727 -1.94848 0
M  V30 3474 H 334.051 -2.99519 -0.15114 0
M  V30 3475 H 331.604 -1.56245 -0.041287 0
M  V30 3476 H 332.339 -2.02497 -2.53309 0
M  V30 3477 H 332.124 -3.56009 -1.64316 0
M  V30 3478 H 333.614 -3.27475 -2.59133 0
M  V30 3479 N 334.051 0.0651679 -1.57465 0
M  V30 3480 C 335.299 0.761555 -1.87202 0
M  V30 3481 C 335.62 1.77778 -0.801243 0
M  V30 3482 O 334.89 1.95166 0.16937 0
M  V30 3483 H 333.47 0.284251 -0.690804 0
M  V30 3484 H 336.132 0.0396827 -1.9486 0
M  V30 3485 H 335.228 1.27365 -2.84929 0
M  V30 3486 N 335.529 1.53961 0.336706 0
M  V30 3487 C 336.94 1.62914 0.911925 0
M  V30 3488 C 337.291 0.514795 1.89326 0
M  V30 3489 O 336.416 -0.354395 2.13478 0
M  V30 3490 C 337.011 2.95304 1.66076 0
M  V30 3491 C 335.57 3.06496 2.18489 0
M  V30 3492 C 334.717 2.58403 1.00613 0
M  V30 3493 H 337.668 1.58285 0.114649 0
M  V30 3494 H 337.689 2.84727 2.5241 0
M  V30 3495 H 337.201 3.76387 0.946276 0
M  V30 3496 H 335.302 2.3006 2.93092 0
M  V30 3497 H 335.415 4.1208 2.44391 0
M  V30 3498 H 333.779 2.13977 1.38152 0
M  V30 3499 H 334.562 3.41932 0.306179 0
M  V30 3500 N 337.007 -0.598083 1.45811 0
M  V30 3501 C 337.97 -1.69018 1.54808 0
M  V30 3502 C 338.97 -1.55037 0.426652 0
M  V30 3503 O 340.16 -1.59932 0.690456 0
M  V30 3504 C 337.292 -3.0835 1.45371 0
M  V30 3505 H 338.485 -1.62403 2.52121 0
M  V30 3506 H 336.038 -0.814626 1.33392 0
M  V30 3507 H 336.773 -3.20534 0.492793 0
M  V30 3508 H 336.558 -3.19907 2.26721 0
M  V30 3509 H 338.048 -3.8788 1.54721 0
M  V30 3510 N 338.485 -1.33259 -0.841409 0
M  V30 3511 C 339.733 -1.24326 -1.59334 0
M  V30 3512 C 340.054 0.191564 -1.94057 0
M  V30 3513 O 339.324 1.11967 -1.60749 0
M  V30 3514 H 337.904 -0.457174 -0.590763 0
M  V30 3515 H 340.566 -1.66947 -1.00571 0
M  V30 3516 H 339.662 -1.8352 -2.52442 0
M  V30 3517 N 339.963 1.05934 -1.16686 0
M  V30 3518 C 341.209 1.79065 -0.95203 0
M  V30 3519 C 341.542 1.87147 0.518629 0
M  V30 3520 O 340.817 1.36574 1.38484 0
M  V30 3521 C 341.1 3.23359 -1.58464 0
M  V30 3522 C 340.953 3.23336 -3.12689 0
M  V30 3523 C 342.272 4.21004 -1.28232 0
M  V30 3524 H 339.391 0.65005 -0.34728 0
M  V30 3525 H 342.033 1.23868 -1.44072 0
M  V30 3526 H 340.183 3.70493 -1.16908 0
M  V30 3527 H 341.855 2.84336 -3.6325 0
M  V30 3528 H 340.098 2.61886 -3.4583 0
M  V30 3529 H 340.769 4.25144 -3.52075 0
M  V30 3530 H 343.245 3.8233 -1.64203 0
M  V30 3531 H 342.121 5.20225 -1.75092 0
M  V30 3532 H 342.382 4.41639 -0.201791 0
M  V30 3533 N 341.441 0.965919 1.2453 0
M  V30 3534 C 342.689 0.625593 1.92174 0
M  V30 3535 C 343.01 -0.841652 1.75901 0
M  V30 3536 O 342.28 -1.60061 1.12948 0
M  V30 3537 H 340.86 0.228388 0.71123 0
M  V30 3538 H 343.522 1.2266 1.51461 0
M  V30 3539 H 342.618 0.864653 2.99884 0
M  V30 3540 N 342.919 -1.39368 0.735821 0
M  V30 3541 C 344.167 -2.00101 0.283562 0
M  V30 3542 C 344.488 -1.5868 -1.13338 0
M  V30 3543 O 343.758 -0.835423 -1.77193 0
M  V30 3544 H 342.338 -0.740024 0.101851 0
M  V30 3545 H 345 -1.70404 0.945962 0
M  V30 3546 H 344.096 -3.10323 0.332604 0
M  V30 3547 N 344.397 -0.483516 -1.5 0
M  V30 3548 C 345.327 0.293829 -2.31644 0
M  V30 3549 C 346.308 0.978864 -1.39112 0
M  V30 3550 O 347.493 0.973644 -1.68029 0
M  V30 3551 C 344.623 1.36897 -3.19181 0
M  V30 3552 C 343.577 0.804833 -4.20365 0
M  V30 3553 C 342.903 1.9792 -4.96721 0
M  V30 3554 C 344.203 -0.192313 -5.21946 0
M  V30 3555 H 345.897 -0.387616 -2.9688 0
M  V30 3556 H 343.443 -0.187856 -1.42769 0
M  V30 3557 H 345.396 1.92037 -3.751 0
M  V30 3558 H 344.12 2.07936 -2.51853 0
M  V30 3559 H 342.779 0.275319 -3.65565 0
M  V30 3560 H 342.427 2.67686 -4.25856 0
M  V30 3561 H 342.127 1.60789 -5.65173 0
M  V30 3562 H 343.651 2.53526 -5.55479 0
M  V30 3563 H 345.065 0.270333 -5.72662 0
M  V30 3564 H 343.462 -0.478543 -5.98189 0
M  V30 3565 H 344.532 -1.11409 -4.71928 0
M  V30 3566 N 345.875 1.56104 -0.216619 0
M  V30 3567 C 347.105 2.02269 0.420802 0
M  V30 3568 C 347.513 1.09575 1.5424 0
M  V30 3569 O 346.856 0.0967308 1.83445 0
M  V30 3570 C 346.918 3.44784 1.01806 0
M  V30 3571 C 346.582 4.56988 0.0325154 0
M  V30 3572 C 347.579 5.14225 -0.766055 0
M  V30 3573 C 345.264 5.02228 -0.0848092 0
M  V30 3574 C 347.258 6.15169 -1.6687 0
M  V30 3575 C 344.945 6.03011 -0.990994 0
M  V30 3576 C 345.943 6.59357 -1.78149 0
M  V30 3577 O 345.631 7.58179 -2.67245 0
M  V30 3578 H 345.363 0.667353 0.107776 0
M  V30 3579 H 347.917 2.02747 -0.329034 0
M  V30 3580 H 346.147 3.41359 1.81689 0
M  V30 3581 H 347.836 3.74626 1.56237 0
M  V30 3582 H 348.602 4.80126 -0.685836 0
M  V30 3583 H 344.481 4.58054 0.520349 0
M  V30 3584 H 348.025 6.59076 -2.28615 0
M  V30 3585 H 343.922 6.36532 -1.07225 0
M  V30 3586 H 344.69 7.75682 -2.61265 0
M  V30 3587 N 347.353 -0.0568162 1.57498 0
M  V30 3588 C 348.602 -0.752001 1.87157 0
M  V30 3589 C 348.915 -1.77978 0.811375 0
M  V30 3590 O 350.121 -2.52559 0.996293 0
M  V30 3591 C 348.577 -1.38844 3.3204 0
M  V30 3592 C 348.185 -0.398456 4.46225 0
M  V30 3593 C 349.929 -2.06512 3.70882 0
M  V30 3594 C 347.836 -1.04166 5.82154 0
M  V30 3595 H 346.766 -0.28461 0.698222 0
M  V30 3596 H 349.417 -0.00561272 1.83499 0
M  V30 3597 H 347.799 -2.1836 3.30356 0
M  V30 3598 H 348.973 0.367977 4.59328 0
M  V30 3599 H 347.288 0.174592 4.16034 0
M  V30 3600 H 349.885 -2.55437 4.6974 0
M  V30 3601 H 350.228 -2.87117 3.01445 0
M  V30 3602 H 350.761 -1.33808 3.7462 0
M  V30 3603 H 347.5 -0.275614 6.5492 0
M  V30 3604 H 347.02 -1.7786 5.72823 0
M  V30 3605 H 348.699 -1.55715 6.27982 0
M  V30 3606 N 348.832 -1.54138 -0.328536 0
M  V30 3607 C 349.782 -1.79557 -1.4051 0
M  V30 3608 C 350.766 -0.651373 -1.47126 0
M  V30 3609 O 351.958 -0.911226 -1.51742 0
M  V30 3610 C 349.087 -2.02196 -2.77438 0
M  V30 3611 C 348.173 -3.22724 -2.75155 0
M  V30 3612 N 348.564 -4.43881 -2.42494 0
M  V30 3613 C 346.862 -3.24196 -3.06289 0
M  V30 3614 C 347.563 -5.25797 -2.48822 0
M  V30 3615 N 346.539 -4.62862 -2.8506 0
M  V30 3616 H 350.341 -2.70814 -1.1418 0
M  V30 3617 H 347.855 -1.53265 -0.536991 0
M  V30 3618 H 349.852 -2.18546 -3.55026 0
M  V30 3619 H 348.512 -1.12191 -3.04702 0
M  V30 3620 H 349.523 -4.70969 -2.15428 0
M  V30 3621 H 346.2 -2.44208 -3.38627 0
M  V30 3622 H 347.59 -6.32535 -2.26603 0
M  V30 3623 N 350.31 0.590341 -1.46126 0
M  V30 3624 C 351.558 1.34616 -1.50742 0
M  V30 3625 C 351.879 1.94363 -0.157486 0
M  V30 3626 O 351.149 1.78136 0.815136 0
M  V30 3627 H 349.729 0.499789 -0.555175 0
M  V30 3628 H 352.391 0.691953 -1.82203 0
M  V30 3629 H 351.487 2.15678 -2.25587 0
M  V30 3630 N 351.788 1.33704 0.83433 0
M  V30 3631 C 353.065 1.16011 1.57483 0
M  V30 3632 C 353.445 -0.27176 2.09343 0
M  V30 3633 O 352.793 -1.27146 1.89858 0
M  V30 3634 C 353.003 2.20507 2.70514 0
M  V30 3635 C 354.351 2.54898 3.39577 0
M  V30 3636 O 355.375 2.19209 2.80759 0
M  V30 3637 O 354.234 3.16158 4.45765 0
M  V30 3638 H 351.328 0.448992 0.694503 0
M  V30 3639 H 353.874 1.453 0.876691 0
M  V30 3640 H 352.646 3.16667 2.29865 0
M  V30 3641 H 352.269 1.92329 3.47987 0
M  V30 3642 N 353.266 -1.05314 1.17247 0
M  V30 3643 C 354.506 -1.79869 0.970898 0
M  V30 3644 C 354.87 -1.85594 -0.491808 0
M  V30 3645 O 356.071 -2.56229 -0.812409 0
M  V30 3646 C 354.342 -3.19937 1.59295 0
M  V30 3647 S 355.901 -4.10986 1.53741 0
M  V30 3648 H 352.719 -0.61949 0.348931 0
M  V30 3649 H 355.321 -1.26368 1.49169 0
M  V30 3650 H 354.025 -3.13372 2.65003 0
M  V30 3651 H 353.556 -3.78515 1.07191 0
M  V30 3652 H 355.571 -4.93203 0.544537 0
M  V30 3653 N 354.744 -0.972509 -1.24016 0
M  V30 3654 C 355.674 -0.525548 -2.27509 0
M  V30 3655 C 356.655 0.437262 -1.64384 0
M  V30 3656 O 357.84 0.332343 -1.91335 0
M  V30 3657 C 354.97 0.180448 -3.46831 0
M  V30 3658 C 353.924 -0.698859 -4.22256 0
M  V30 3659 C 353.25 0.138903 -5.3452 0
M  V30 3660 C 354.55 -1.98582 -4.83076 0
M  V30 3661 H 356.244 -1.39058 -2.65148 0
M  V30 3662 H 353.79 -0.67009 -1.27459 0
M  V30 3663 H 355.743 0.504387 -4.18371 0
M  V30 3664 H 354.467 1.07987 -3.08231 0
M  V30 3665 H 353.126 -1.00614 -3.52523 0
M  V30 3666 H 352.774 1.03862 -4.9216 0
M  V30 3667 H 352.474 -0.446259 -5.85903 0
M  V30 3668 H 353.998 0.457404 -6.08884 0
M  V30 3669 H 355.412 -1.72715 -5.46665 0
M  V30 3670 H 353.809 -2.5181 -5.44713 0
M  V30 3671 H 354.879 -2.67769 -4.04262 0
M  V30 3672 N 356.222 1.38976 -0.743202 0
M  V30 3673 C 357.47 1.99948 -0.29417 0
M  V30 3674 C 357.791 1.59279 1.12495 0
M  V30 3675 O 357.061 0.844808 1.76748 0
M  V30 3676 H 355.641 0.739473 -0.105774 0
M  V30 3677 H 358.303 1.699 -0.954986 0
M  V30 3678 H 357.399 3.10142 -0.349056 0
M  V30 3679 N 357.7 0.491464 1.49741 0
M  V30 3680 C 358.61 -0.296835 2.32715 0
M  V30 3681 C 359.626 -0.976536 1.44013 0
M  V30 3682 O 360.802 -0.960023 1.77047 0
M  V30 3683 C 357.867 -1.35288 3.19215 0
M  V30 3684 C 356.928 -0.687632 4.23757 0
M  V30 3685 C 356.161 -1.69336 5.06123 0
M  V30 3686 O 356.384 -2.92219 4.89861 0
M  V30 3687 O 355.318 -1.25394 5.88693 0
M  V30 3688 H 359.144 0.382048 3.01287 0
M  V30 3689 H 356.729 0.252953 1.47243 0
M  V30 3690 H 358.611 -1.96411 3.72828 0
M  V30 3691 H 357.286 -2.01487 2.53347 0
M  V30 3692 H 356.193 -0.0369159 3.74082 0
M  V30 3693 H 357.526 -0.0682566 4.92153 0
M  V30 3694 N 359.178 -1.55987 0.224894 0
M  V30 3695 C 360.427 -1.97566 -0.406273 0
M  V30 3696 C 360.74 -1.11569 -1.6066 0
M  V30 3697 O 361.946 -1.43062 -2.3075 0
M  V30 3698 C 360.402 -3.51474 -0.774207 0
M  V30 3699 C 360.01 -4.46179 0.403496 0
M  V30 3700 C 361.754 -4.01758 -1.37079 0
M  V30 3701 C 359.661 -5.91399 0.0129412 0
M  V30 3702 H 358.591 -0.737777 -0.155565 0
M  V30 3703 H 361.242 -1.80659 0.321635 0
M  V30 3704 H 359.624 -3.63994 -1.55963 0
M  V30 3705 H 360.798 -4.45409 1.18101 0
M  V30 3706 H 359.113 -4.06255 0.913536 0
M  V30 3707 H 361.71 -5.07756 -1.67596 0
M  V30 3708 H 362.053 -3.47805 -2.28773 0
M  V30 3709 H 362.586 -3.92475 -0.648733 0
M  V30 3710 H 359.325 -6.49341 0.896451 0
M  V30 3711 H 358.845 -5.95356 -0.728821 0
M  V30 3712 H 360.524 -6.45683 -0.412582 0
M  V30 3713 N 360.656 0.0484629 -1.57525 0
M  V30 3714 C 361.604 1.07359 -2.06341 0
M  V30 3715 C 362.598 1.3865 -0.973269 0
M  V30 3716 O 363.804 1.37783 -1.15827 0
M  V30 3717 H 360.179 0.363662 -0.65822 0
M  V30 3718 H 362.15 0.635916 -2.91545 0
M  V30 3719 C 360.899 2.37198 -2.54229 0
M  V30 3720 H 360.222 2.13977 -3.37719 0
M  V30 3721 H 361.662 3.07319 -2.92115 0
M  V30 3722 C 360.121 3.04805 -1.43511 0
M  V30 3723 O 360.651 3.93848 -0.79034 0
M  V30 3724 N 358.857 2.65811 -1.17444 0
M  V30 3725 H 358.404 1.93488 -1.70059 0
M  V30 3726 H 358.362 3.11366 -0.435737 0
M  V30 3727 N 362.134 1.5431 0.320358 0
M  V30 3728 C 363.545 1.63872 0.894594 0
M  V30 3729 C 363.896 0.534847 1.88769 0
M  V30 3730 O 363.021 -0.331732 2.13842 0
M  V30 3731 C 363.616 2.97049 1.62934 0
M  V30 3732 C 362.175 3.08796 2.15226 0
M  V30 3733 C 361.322 2.59456 0.978671 0
M  V30 3734 H 364.273 1.58398 0.0978544 0
M  V30 3735 H 364.294 2.87388 2.49376 0
M  V30 3736 H 363.806 3.7737 0.906302 0
M  V30 3737 H 361.907 2.33156 2.90636 0
M  V30 3738 H 362.02 4.14649 2.40006 0
M  V30 3739 H 360.384 2.1543 1.35875 0
M  V30 3740 H 361.167 3.42237 0.269895 0
M  V30 3741 N 363.613 -0.582584 1.46437 0
M  V30 3742 C 364.841 -1.36682 1.55324 0
M  V30 3743 C 365.256 -1.87796 0.194409 0
M  V30 3744 O 364.613 -1.63623 -0.808318 0
M  V30 3745 C 364.664 -2.55426 2.55812 0
M  V30 3746 O 364.385 -2.0643 3.86417 0
M  V30 3747 C 365.886 -3.47976 2.74641 0
M  V30 3748 H 363.106 -0.417545 0.525259 0
M  V30 3749 H 365.65 -0.708219 1.91845 0
M  V30 3750 H 363.805 -3.17275 2.22295 0
M  V30 3751 H 364.219 -2.83762 4.41111 0
M  V30 3752 H 365.693 -4.27775 3.48874 0
M  V30 3753 H 366.17 -3.99919 1.81553 0
M  V30 3754 H 366.776 -2.91962 3.09255 0
M  V30 3755 N 365.091 -1.34144 -0.827227 0
M  V30 3756 C 366.321 -1.29138 -1.61267 0
M  V30 3757 C 366.729 0.137597 -1.88699 0
M  V30 3758 O 366.072 1.09379 -1.47587 0
M  V30 3759 C 366.134 -2.0097 -2.9808 0
M  V30 3760 C 365.798 -3.50242 -2.93563 0
M  V30 3761 C 366.795 -4.4523 -2.68452 0
M  V30 3762 C 364.48 -3.92592 -3.13331 0
M  V30 3763 C 366.474 -5.80542 -2.63154 0
M  V30 3764 C 364.161 -5.28005 -3.07658 0
M  V30 3765 C 365.159 -6.21792 -2.82602 0
M  V30 3766 O 364.847 -7.54723 -2.76853 0
M  V30 3767 H 364.579 -0.445851 -0.508127 0
M  V30 3768 H 367.133 -1.77263 -1.03763 0
M  V30 3769 H 365.363 -1.47451 -3.57484 0
M  V30 3770 H 367.052 -1.89309 -3.5905 0
M  V30 3771 H 367.818 -4.13832 -2.52919 0
M  V30 3772 H 363.697 -3.19994 -3.31851 0
M  V30 3773 H 367.241 -6.53717 -2.43516 0
M  V30 3774 H 363.138 -5.59023 -3.22743 0
M  V30 3775 H 363.906 -7.64409 -2.92611 0
M  V30 3776 N 366.569 1.04691 -1.17803 0
M  V30 3777 C 367.815 1.78045 -0.970969 0
M  V30 3778 C 368.148 1.87686 0.498751 0
M  V30 3779 O 367.423 1.38035 1.37027 0
M  V30 3780 C 367.706 3.2166 -1.61884 0
M  V30 3781 C 367.559 3.20001 -3.161 0
M  V30 3782 C 368.878 4.1962 -1.3269 0
M  V30 3783 H 365.997 0.64633 -0.354155 0
M  V30 3784 H 368.639 1.22333 -1.45378 0
M  V30 3785 H 366.789 3.69232 -1.20831 0
M  V30 3786 H 368.461 2.80467 -3.66246 0
M  V30 3787 H 366.704 2.58203 -3.48588 0
M  V30 3788 H 367.375 4.21386 -3.56564 0
M  V30 3789 H 369.851 3.80567 -1.68249 0
M  V30 3790 H 368.727 5.18339 -1.80599 0
M  V30 3791 H 368.988 4.414 -0.248622 0
M  V30 3792 N 368.047 0.979072 1.23499 0
M  V30 3793 C 369.295 0.645941 1.91499 0
M  V30 3794 C 369.616 -0.822948 1.76784 0
M  V30 3795 O 368.886 -1.58854 1.14639 0
M  V30 3796 H 367.466 0.235919 0.708767 0
M  V30 3797 H 370.128 1.2426 1.50152 0
M  V30 3798 H 369.224 0.896411 2.9895 0
M  V30 3799 N 369.525 -1.3858 0.750561 0
M  V30 3800 C 370.771 -2.0095 0.31477 0
M  V30 3801 C 371.126 -1.58509 -1.09053 0
M  V30 3802 O 370.419 -0.8112 -1.7358 0
M  V30 3803 C 370.613 -3.55455 0.372373 0
M  V30 3804 C 370.442 -4.12898 1.78173 0
M  V30 3805 C 369.212 -4.44797 2.39757 0
M  V30 3806 C 371.41 -4.35366 2.7379 0
M  V30 3807 N 369.392 -4.87831 3.72685 0
M  V30 3808 C 370.763 -4.80775 3.91478 0
M  V30 3809 C 372.818 -4.1746 2.71351 0
M  V30 3810 C 371.521 -5.10155 5.07084 0
M  V30 3811 C 373.547 -4.47963 3.86113 0
M  V30 3812 C 372.909 -4.93593 5.02539 0
M  V30 3813 H 369.008 -0.765083 0.161776 0
M  V30 3814 H 371.592 -1.68246 0.979867 0
M  V30 3815 H 369.763 -3.87512 -0.26244 0
M  V30 3816 H 371.495 -4.04614 -0.0834479 0
M  V30 3817 H 368.25 -4.33135 1.91548 0
M  V30 3818 H 368.674 -5.13685 4.40972 0
M  V30 3819 H 373.316 -3.81372 1.82524 0
M  V30 3820 H 371.034 -5.45141 5.96529 0
M  V30 3821 H 374.62 -4.35717 3.85542 0
M  V30 3822 H 373.5 -5.16746 5.89867 0
M  V30 3823 N 371.003 -0.499398 -1.49478 0
M  V30 3824 C 372.419 -0.155261 -1.58843 0
M  V30 3825 C 372.619 1.34008 -1.50479 0
M  V30 3826 O 371.675 2.11589 -1.37791 0
M  V30 3827 C 372.988 -0.730636 -2.91689 0
M  V30 3828 C 374.536 -0.696599 -3.0515 0
M  V30 3829 C 375.011 -1.25001 -4.40612 0
M  V30 3830 N 376.502 -1.21064 -4.47099 0
M  V30 3831 C 377.237 -1.60905 -5.50361 0
M  V30 3832 N 376.733 -2.08331 -6.60735 0
M  V30 3833 N 378.526 -1.52331 -5.41065 0
M  V30 3834 H 370.677 -1.47162 -1.53158 0
M  V30 3835 H 372.94 -0.610309 -0.725415 0
M  V30 3836 H 372.646 -1.77928 -3.03372 0
M  V30 3837 H 372.52 -0.190161 -3.7672 0
M  V30 3838 H 374.907 0.343204 -2.93097 0
M  V30 3839 H 374.988 -1.2742 -2.21806 0
M  V30 3840 H 374.632 -2.28859 -4.53416 0
M  V30 3841 H 374.562 -0.64836 -5.22593 0
M  V30 3842 H 377.053 -0.863128 -3.67911 0
M  V30 3843 H 377.366 -2.36805 -7.35624 0
M  V30 3844 H 375.711 -2.12304 -6.6178 0
M  V30 3845 H 378.902 -1.151 -4.53729 0
M  V30 3846 H 379.075 -1.83704 -6.21415 0
M  V30 3847 N 372.481 1.55866 -0.233164 0
M  V30 3848 C 373.706 2.03449 0.402906 0
M  V30 3849 C 374.131 1.11166 1.51736 0
M  V30 3850 O 373.489 0.101996 1.81013 0
M  V30 3851 C 373.537 3.49165 0.9009 0
M  V30 3852 O 372.641 3.60019 2.01147 0
M  V30 3853 H 371.982 0.657913 0.0897025 0
M  V30 3854 H 374.512 2.01493 -0.355201 0
M  V30 3855 H 374.522 3.89716 1.2077 0
M  V30 3856 H 373.197 4.15813 0.0852889 0
M  V30 3857 H 371.774 3.3136 1.71042 0
M  V30 3858 N 373.959 -0.0401083 1.57549 0
M  V30 3859 C 375.208 -0.732108 1.87944 0
M  V30 3860 C 375.521 -1.77107 0.830206 0
M  V30 3861 O 376.727 -2.51488 1.02302 0
M  V30 3862 C 375.183 -1.35315 3.33494 0
M  V30 3863 C 374.791 -0.351105 4.46622 0
M  V30 3864 C 376.535 -2.02566 3.73051 0
M  V30 3865 C 374.442 -0.979859 5.83226 0
M  V30 3866 H 373.372 -0.277188 0.701201 0
M  V30 3867 H 376.023 0.0138501 1.83495 0
M  V30 3868 H 374.405 -2.14844 3.32653 0
M  V30 3869 H 375.579 0.416674 4.58912 0
M  V30 3870 H 373.894 0.218708 4.15825 0
M  V30 3871 H 376.491 -2.50441 4.72423 0
M  V30 3872 H 376.834 -2.83904 3.04474 0
M  V30 3873 H 377.367 -1.29827 3.76018 0
M  V30 3874 H 374.106 -0.206135 6.55176 0
M  V30 3875 H 373.626 -1.71774 5.74677 0
M  V30 3876 H 375.305 -1.49046 6.29599 0
M  V30 3877 N 375.437 -1.54477 -0.31217 0
M  V30 3878 C 376.665 -1.77205 -1.068 0
M  V30 3879 C 377.08 -0.526114 -1.81321 0
M  V30 3880 O 376.437 0.503647 -1.75413 0
M  V30 3881 C 376.488 -2.97253 -2.05725 0
M  V30 3882 O 376.209 -4.1703 -1.34228 0
M  V30 3883 C 377.71 -3.32281 -2.93435 0
M  V30 3884 H 374.93 -0.591287 -0.317208 0
M  V30 3885 H 377.474 -2.01398 -0.354834 0
M  V30 3886 H 375.629 -2.753 -2.72559 0
M  V30 3887 H 376.043 -4.84636 -2.00571 0
M  V30 3888 H 377.517 -4.19551 -3.58721 0
M  V30 3889 H 377.994 -2.49945 -3.61143 0
M  V30 3890 H 378.6 -3.56353 -2.32147 0
M  V30 3891 N 376.915 0.57481 -1.46744 0
M  V30 3892 C 378.145 1.35659 -1.55821 0
M  V30 3893 C 378.553 1.88129 -0.201036 0
M  V30 3894 O 377.896 1.64723 0.813134 0
M  V30 3895 C 377.958 2.57473 -2.50894 0
M  V30 3896 C 377.622 2.26415 -3.9697 0
M  V30 3897 C 378.619 1.84771 -4.85958 0
M  V30 3898 C 376.304 2.38316 -4.42166 0
M  V30 3899 C 378.298 1.55434 -6.18158 0
M  V30 3900 C 375.985 2.08591 -5.74398 0
M  V30 3901 C 376.983 1.67216 -6.62214 0
M  V30 3902 O 376.671 1.37859 -7.91991 0
M  V30 3903 H 376.403 0.420496 -0.529301 0
M  V30 3904 H 378.957 0.704967 -1.92923 0
M  V30 3905 H 377.187 3.25468 -2.08824 0
M  V30 3906 H 378.876 3.19546 -2.50291 0
M  V30 3907 H 379.642 1.75085 -4.52295 0
M  V30 3908 H 375.521 2.69483 -3.74032 0
M  V30 3909 H 379.065 1.23065 -6.86659 0
M  V30 3910 H 374.962 2.17905 -6.07608 0
M  V30 3911 H 375.73 1.51638 -8.04331 0
M  V30 3912 N 378.394 1.34581 0.820102 0
M  V30 3913 C 379.642 1.26845 1.57336 0
M  V30 3914 C 379.963 -0.160667 1.94337 0
M  V30 3915 O 379.233 -1.09396 1.6251 0
M  V30 3916 H 377.813 0.466514 0.583415 0
M  V30 3917 H 380.475 1.68526 0.979027 0
M  V30 3918 H 379.571 1.87513 2.4949 0
M  V30 3919 N 379.872 -1.04064 1.18357 0
M  V30 3920 C 380.835 -2.10243 0.912707 0
M  V30 3921 C 381.835 -1.60477 -0.101928 0
M  V30 3922 O 383.025 -1.73703 0.131517 0
M  V30 3923 C 380.157 -3.38893 0.369387 0
M  V30 3924 H 381.35 -2.35706 1.85426 0
M  V30 3925 H 378.903 -1.20489 0.995594 0
M  V30 3926 H 379.638 -3.19094 -0.578776 0
M  V30 3927 H 379.423 -3.76331 1.1008 0
M  V30 3928 H 380.913 -4.17128 0.198575 0
M  V30 3929 N 381.35 -0.985608 -1.22978 0
M  V30 3930 C 382.297 -0.529825 -2.24636 0
M  V30 3931 C 383.267 0.434028 -1.60329 0
M  V30 3932 O 384.452 0.340414 -1.87739 0
M  V30 3933 C 381.592 0.156533 -3.44745 0
M  V30 3934 C 380.705 -0.848197 -4.23591 0
M  V30 3935 C 379.84 -0.136109 -5.31026 0
M  V30 3936 C 378.879 -1.1297 -6.01585 0
M  V30 3937 N 378.016 -0.446415 -7.00679 0
M  V30 3938 H 382.856 -1.40148 -2.62988 0
M  V30 3939 H 380.393 -0.702168 -1.29259 0
M  V30 3940 H 382.351 0.571324 -4.1327 0
M  V30 3941 H 380.981 0.992025 -3.07179 0
M  V30 3942 H 380.033 -1.38135 -3.54433 0
M  V30 3943 H 381.345 -1.60512 -4.72268 0
M  V30 3944 H 380.499 0.335784 -6.0577 0
M  V30 3945 H 379.238 0.653373 -4.83304 0
M  V30 3946 H 378.243 -1.6123 -5.25628 0
M  V30 3947 H 379.468 -1.91993 -6.51395 0
M  V30 3948 H 377.414 0.323763 -6.55201 0
M  V30 3949 H 377.331 -1.1419 -7.47326 0
M  V30 3950 H 378.599 0.00291697 -7.795 0
M  V30 3951 N 382.828 1.3818 -0.7579 0
M  V30 3952 C 384.076 1.99624 -0.315361 0
M  V30 3953 C 384.397 1.60464 1.10799 0
M  V30 3954 O 383.667 0.863507 1.75842 0
M  V30 3955 H 382.247 0.73831 -0.113611 0
M  V30 3956 H 384.909 1.68878 -0.972952 0
M  V30 3957 H 384.005 3.09754 -0.381931 0
M  V30 3958 N 384.306 0.507319 1.49211 0
M  V30 3959 C 385.216 -0.272136 2.33016 0
M  V30 3960 C 386.232 -0.961206 1.45041 0
M  V30 3961 O 387.408 -0.941191 1.78055 0
M  V30 3962 C 384.473 -1.31895 3.20631 0
M  V30 3963 C 383.534 -0.642648 4.24463 0
M  V30 3964 C 382.767 -1.63959 5.07891 0
M  V30 3965 O 382.99 -2.87007 4.92933 0
M  V30 3966 O 381.924 -1.19143 5.8999 0
M  V30 3967 H 385.75 0.413982 3.00865 0
M  V30 3968 H 383.335 0.268556 1.46966 0
M  V30 3969 H 385.217 -1.92446 3.7489 0
M  V30 3970 H 383.892 -1.98788 2.5547 0
M  V30 3971 H 382.799 0.00276252 3.741 0
M  V30 3972 H 384.132 -0.0160534 4.92197 0
M  V30 3973 N 385.784 -1.5574 0.241426 0
M  V30 3974 C 387.195 -1.84842 -0.262755 0
M  V30 3975 C 387.546 -1.16317 -1.58003 0
M  V30 3976 O 386.671 -0.439653 -2.11887 0
M  V30 3977 C 387.266 -3.35332 -0.483523 0
M  V30 3978 C 385.825 -3.6468 -0.931977 0
M  V30 3979 C 384.972 -2.77299 -0.0061151 0
M  V30 3980 H 387.923 -1.51761 0.464129 0
M  V30 3981 H 387.944 -3.56615 -1.32688 0
M  V30 3982 H 387.456 -3.85178 0.47537 0
M  V30 3983 H 385.557 -3.20307 -1.90353 0
M  V30 3984 H 385.67 -4.72498 -0.792628 0
M  V30 3985 H 384.034 -2.49408 -0.516503 0
M  V30 3986 H 384.817 -3.2995 0.948052 0
M  V30 3987 N 387.262 0.0317525 -1.57568 0
M  V30 3988 C 388.49 0.734949 -1.93407 0
M  V30 3989 C 388.905 1.69036 -0.84096 0
M  V30 3990 O 388.262 1.81582 0.182836 0
M  V30 3991 C 388.313 1.49432 -3.29169 0
M  V30 3992 O 388.034 0.577261 -4.3428 0
M  V30 3993 C 389.535 2.29492 -3.79273 0
M  V30 3994 H 386.755 0.206706 -0.638368 0
M  V30 3995 H 389.299 -0.00992046 -2.04498 0
M  V30 3996 H 387.454 2.1911 -3.19483 0
M  V30 3997 H 387.868 1.10952 -5.1263 0
M  V30 3998 H 389.342 2.78172 -4.76785 0
M  V30 3999 H 389.819 3.10794 -3.10328 0
M  V30 4000 H 390.425 1.64894 -3.92033 0
M  V30 4001 N 388.74 1.54641 0.303973 0
M  V30 4002 C 389.988 1.73437 1.0375 0
M  V30 4003 C 390.309 0.521449 1.87899 0
M  V30 4004 O 389.579 -0.46432 1.90318 0
M  V30 4005 H 388.159 0.639518 0.386039 0
M  V30 4006 H 390.821 1.91988 0.335675 0
M  V30 4007 H 389.917 2.62235 1.69231 0
M  V30 4008 N 390.218 -0.567019 1.47046 0
M  V30 4009 C 391.464 -1.32434 1.54379 0
M  V30 4010 C 391.819 -1.91365 0.199276 0
M  V30 4011 O 391.112 -1.74378 -0.793915 0
M  V30 4012 C 391.306 -2.4623 2.59047 0
M  V30 4013 C 391.135 -1.98448 4.03545 0
M  V30 4014 C 389.905 -1.82741 4.71098 0
M  V30 4015 C 392.103 -1.53477 4.90866 0
M  V30 4016 N 390.085 -1.29196 6.00151 0
M  V30 4017 C 391.456 -1.1163 6.09868 0
M  V30 4018 C 393.511 -1.41438 4.77388 0
M  V30 4019 C 392.214 -0.589425 7.16881 0
M  V30 4020 C 394.24 -0.901528 5.84488 0
M  V30 4021 C 393.602 -0.492932 7.02673 0
M  V30 4022 H 389.701 -0.477005 0.61967 0
M  V30 4023 H 392.285 -0.643856 1.83746 0
M  V30 4024 H 390.456 -3.11821 2.31564 0
M  V30 4025 H 392.188 -3.13213 2.56281 0
M  V30 4026 H 388.943 -2.05162 4.26855 0
M  V30 4027 H 389.367 -1.0454 6.6888 0
M  V30 4028 H 394.009 -1.71643 3.86392 0
M  V30 4029 H 391.727 -0.274994 8.07632 0
M  V30 4030 H 395.313 -0.812071 5.76105 0
M  V30 4031 H 394.193 -0.102227 7.84133 0
M  V30 4032 N 391.696 -1.35014 -0.812953 0
M  V30 4033 C 392.659 -1.27292 -1.90602 0
M  V30 4034 C 393.659 -0.185817 -1.59723 0
M  V30 4035 O 394.849 -0.439102 -1.68575 0
M  V30 4036 C 391.981 -0.967676 -3.26877 0
M  V30 4037 H 393.174 -2.24479 -1.9887 0
M  V30 4038 H 390.727 -1.19446 -1.00808 0
M  V30 4039 H 391.462 0.0005954 -3.243 0
M  V30 4040 H 391.247 -1.75412 -3.50675 0
M  V30 4041 H 392.737 -0.939085 -4.06904 0
M  V30 4042 N 393.175 1.03435 -1.18907 0
M  V30 4043 C 394.085 2.15075 -0.937015 0
M  V30 4044 C 395.101 1.73706 0.101085 0
M  V30 4045 O 396.277 2.01232 -0.0822948 0
M  V30 4046 C 393.342 3.43458 -0.473057 0
M  V30 4047 C 392.403 3.99172 -1.57989 0
M  V30 4048 C 391.636 5.21427 -1.13797 0
M  V30 4049 O 391.859 5.704 0.000725941 0
M  V30 4050 O 390.793 5.69837 -1.9383 0
M  V30 4051 H 394.619 2.39198 -1.87131 0
M  V30 4052 H 392.204 1.13506 -0.971427 0
M  V30 4053 H 394.086 4.20811 -0.222702 0
M  V30 4054 H 392.761 3.20793 0.432869 0
M  V30 4055 H 391.668 3.23178 -1.88433 0
M  V30 4056 H 393.001 4.2619 -2.46217 0
M  V30 4057 N 394.653 0.992116 1.22453 0
M  V30 4058 C 395.901 0.666215 1.90804 0
M  V30 4059 C 396.222 -0.804152 1.77647 0
M  V30 4060 O 395.492 -1.57629 1.16318 0
M  V30 4061 H 394.072 0.243423 0.706225 0
M  V30 4062 H 396.734 1.25845 1.48825 0
M  V30 4063 H 395.83 0.928069 2.97982 0
M  V30 4064 N 396.131 -1.37776 0.765217 0
M  V30 4065 C 397.379 -1.99454 0.325943 0
M  V30 4066 C 397.7 -1.61049 -1.09947 0
M  V30 4067 O 396.97 -0.872821 -1.75381 0
M  V30 4068 H 395.55 -0.737697 0.117525 0
M  V30 4069 H 398.212 -1.68359 0.981895 0
M  V30 4070 H 397.308 -3.09547 0.398353 0
M  V30 4071 N 397.609 -0.515225 -1.4894 0
M  V30 4072 C 398.556 0.255567 -2.29381 0
M  V30 4073 C 399.526 0.947387 -1.36432 0
M  V30 4074 O 400.711 0.951288 -1.65394 0
M  V30 4075 C 397.851 1.30551 -3.19453 0
M  V30 4076 C 396.964 0.624029 -4.27469 0
M  V30 4077 C 396.099 1.65563 -5.0474 0
M  V30 4078 C 395.138 0.956802 -6.04576 0
M  V30 4079 N 394.275 1.93326 -6.74959 0
M  V30 4080 H 399.115 -0.436607 -2.94784 0
M  V30 4081 H 396.652 -0.227154 -1.45336 0
M  V30 4082 H 398.61 1.92639 -3.70062 0
M  V30 4083 H 397.24 1.96626 -2.56004 0
M  V30 4084 H 396.292 -0.110459 -3.8024 0
M  V30 4085 H 397.604 0.0746092 -4.98744 0
M  V30 4086 H 396.758 2.35119 -5.59289 0
M  V30 4087 H 395.497 2.23893 -4.3327 0
M  V30 4088 H 394.502 0.247097 -5.49244 0
M  V30 4089 H 395.727 0.379814 -6.78037 0
M  V30 4090 H 393.673 2.50591 -6.06251 0
M  V30 4091 H 393.59 1.43489 -7.42258 0
M  V30 4092 H 394.858 2.62126 -7.34105 0
M  V30 4093 N 399.087 1.5561 -0.249682 0
M  V30 4094 C 400.503 1.59254 0.105103 0
M  V30 4095 C 400.703 1.26685 1.56694 0
M  V30 4096 O 399.759 1.0155 2.31179 0
M  V30 4097 C 401.072 2.99687 -0.246592 0
M  V30 4098 C 402.62 3.12416 -0.191118 0
M  V30 4099 C 403.095 4.55074 -0.516885 0
M  V30 4100 N 404.586 4.60835 -0.467489 0
M  V30 4101 C 405.321 5.69201 -0.69268 0
M  V30 4102 N 404.817 6.85817 -0.981146 0
M  V30 4103 N 406.61 5.58635 -0.623198 0
M  V30 4104 H 398.761 1.75049 -1.20298 0
M  V30 4105 H 401.024 0.815003 -0.484225 0
M  V30 4106 H 400.73 3.28267 -1.26228 0
M  V30 4107 H 400.604 3.74798 0.424962 0
M  V30 4108 H 402.991 2.83615 0.815247 0
M  V30 4109 H 403.072 2.39573 -0.896563 0
M  V30 4110 H 402.716 4.84596 -1.52082 0
M  V30 4111 H 402.646 5.26181 0.210068 0
M  V30 4112 H 405.137 3.7705 -0.253373 0
M  V30 4113 H 405.45 7.64341 -1.14032 0
M  V30 4114 H 403.795 6.87494 -1.01865 0
M  V30 4115 H 406.986 4.66406 -0.397863 0
M  V30 4116 H 407.159 6.43017 -0.802093 0
M  V30 4117 N 400.565 -0.0233959 1.57583 0
M  V30 4118 C 401.812 -0.713063 1.8953 0
M  V30 4119 C 402.14 -1.75056 0.847673 0
M  V30 4120 O 401.395 -1.95119 -0.150636 0
M  V30 4121 C 401.694 -1.41428 3.28227 0
M  V30 4122 C 401.36 -0.512222 4.47981 0
M  V30 4123 C 400.022 -0.263785 4.80476 0
M  V30 4124 C 402.374 0.110248 5.21083 0
M  V30 4125 C 399.702 0.615804 5.83459 0
M  V30 4126 C 402.054 0.977573 6.25001 0
M  V30 4127 C 400.718 1.23542 6.55968 0
M  V30 4128 H 399.988 -0.260928 0.69354 0
M  V30 4129 H 402.635 0.0271047 1.91481 0
M  V30 4130 H 400.94 -2.22791 3.22291 0
M  V30 4131 H 402.637 -1.95355 3.50196 0
M  V30 4132 H 399.227 -0.716013 4.22577 0
M  V30 4133 H 403.411 -0.0687137 4.96252 0
M  V30 4134 H 398.667 0.82382 6.05824 0
M  V30 4135 H 402.841 1.46638 6.80786 0
M  V30 4136 H 400.468 1.91871 7.35588 0
M  V30 4137 N 402.043 -1.548 -0.295768 0
M  V30 4138 C 402.953 -1.89177 -1.38742 0
M  V30 4139 C 403.969 -0.786481 -1.55211 0
M  V30 4140 O 405.145 -1.08344 -1.69775 0
M  V30 4141 C 402.21 -2.13663 -2.73036 0
M  V30 4142 C 401.271 -3.37349 -2.65508 0
M  V30 4143 C 400.504 -3.60658 -3.93398 0
M  V30 4144 O 400.727 -2.86882 -4.93006 0
M  V30 4145 O 399.661 -4.54179 -3.94975 0
M  V30 4146 H 403.487 -2.82059 -1.12589 0
M  V30 4147 H 401.072 -1.41056 -0.492295 0
M  V30 4148 H 402.954 -2.3094 -3.52484 0
M  V30 4149 H 401.629 -1.23967 -2.99022 0
M  V30 4150 H 400.536 -3.25431 -1.84514 0
M  V30 4151 H 401.869 -4.27192 -2.44474 0
M  V30 4152 N 403.521 0.559213 -1.47345 0
M  V30 4153 C 404.767 1.31843 -1.54095 0
M  V30 4154 C 405.1 1.93149 -0.201726 0
M  V30 4155 O 404.375 1.77759 0.789428 0
M  V30 4156 C 404.658 2.43006 -2.65744 0
M  V30 4157 C 404.511 1.86581 -4.09277 0
M  V30 4158 C 405.83 3.44943 -2.73318 0
M  V30 4159 H 402.949 0.478012 -0.560957 0
M  V30 4160 H 405.591 0.625977 -1.79392 0
M  V30 4161 H 403.741 3.02072 -2.44305 0
M  V30 4162 H 405.413 1.31792 -4.42073 0
M  V30 4163 H 403.656 1.17268 -4.17649 0
M  V30 4164 H 404.327 2.66933 -4.83168 0
M  V30 4165 H 406.803 2.95793 -2.92653 0
M  V30 4166 H 405.679 4.20153 -3.53218 0
M  V30 4167 H 405.94 4.03665 -1.80296 0
M  V30 4168 N 404.999 1.35443 0.805782 0
M  V30 4169 C 405.962 1.28301 1.89925 0
M  V30 4170 C 406.962 0.194285 1.59622 0
M  V30 4171 O 408.152 0.448036 1.6834 0
M  V30 4172 C 405.284 0.984997 3.2636 0
M  V30 4173 H 406.477 2.2553 1.97677 0
M  V30 4174 H 404.03 1.19979 1.00173 0
M  V30 4175 H 404.765 0.016603 3.24296 0
M  V30 4176 H 404.55 1.77269 3.4974 0
M  V30 4177 H 406.04 0.960651 4.064 0
M  V30 4178 N 406.477 -1.02803 1.19454 0
M  V30 4179 C 407.705 -1.79841 1.02297 0
M  V30 4180 C 408.12 -1.83879 -0.428259 0
M  V30 4181 O 407.477 -1.28345 -1.29745 0
M  V30 4182 C 407.528 -3.24852 1.58598 0
M  V30 4183 O 407.249 -3.21097 2.98041 0
M  V30 4184 C 408.75 -4.18485 1.46236 0
M  V30 4185 H 405.97 -0.565936 0.360496 0
M  V30 4186 H 408.514 -1.2948 1.58288 0
M  V30 4187 H 406.669 -3.72401 1.06753 0
M  V30 4188 H 407.083 -4.12033 3.24545 0
M  V30 4189 H 408.557 -5.18121 1.90407 0
M  V30 4190 H 409.034 -4.37254 0.41301 0
M  V30 4191 H 409.64 -3.76811 1.97215 0
M  V30 4192 N 407.956 -0.998596 -1.21925 0
M  V30 4193 C 409.181 -0.696015 -1.95372 0
M  V30 4194 C 409.606 0.733826 -1.73195 0
M  V30 4195 O 408.964 1.50242 -1.01474 0
M  V30 4196 C 409.012 -1.01466 -3.4603 0
M  V30 4197 O 408.116 -0.116415 -4.12236 0
M  V30 4198 H 407.457 -0.259938 -0.611006 0
M  V30 4199 H 409.987 -1.33711 -1.54863 0
M  V30 4200 H 409.997 -0.958855 -3.96573 0
M  V30 4201 H 408.672 -2.05653 -3.61497 0
M  V30 4202 H 407.249 -0.228193 -3.72201 0
M  V30 4203 N 409.434 1.37368 -0.772513 0
M  V30 4204 C 410.397 2.28601 -0.165541 0
M  V30 4205 C 411.397 1.48062 0.627238 0
M  V30 4206 O 412.587 1.68268 0.450715 0
M  V30 4207 C 409.719 3.32023 0.772897 0
M  V30 4208 H 410.912 2.83787 -0.969787 0
M  V30 4209 H 408.465 1.46647 -0.540775 0
M  V30 4210 H 409.2 2.81962 1.60212 0
M  V30 4211 H 408.985 3.91555 0.206585 0
M  V30 4212 H 410.475 4.00197 1.19298 0
M  V30 4213 N 410.912 0.523116 1.48665 0
M  V30 4214 C 412.142 -0.00961724 2.06598 0
M  V30 4215 C 412.55 -1.29333 1.38093 0
M  V30 4216 O 411.893 -1.77846 0.46007 0
M  V30 4217 C 411.955 -0.311135 3.58151 0
M  V30 4218 C 411.619 0.878092 4.48485 0
M  V30 4219 C 412.616 1.77464 4.88674 0
M  V30 4220 C 410.301 1.08315 4.90483 0
M  V30 4221 C 412.295 2.86021 5.69623 0
M  V30 4222 C 409.982 2.17187 5.71203 0
M  V30 4223 C 410.98 3.05873 6.10681 0
M  V30 4224 O 410.668 4.12862 6.89783 0
M  V30 4225 H 410.4 0.0272658 0.67545 0
M  V30 4226 H 412.954 0.726156 1.92136 0
M  V30 4227 H 411.184 -1.10079 3.70701 0
M  V30 4228 H 412.873 -0.785125 3.98234 0
M  V30 4229 H 413.639 1.62813 4.56855 0
M  V30 4230 H 409.518 0.402149 4.59243 0
M  V30 4231 H 413.062 3.55272 6.00356 0
M  V30 4232 H 408.959 2.31824 6.02435 0
M  V30 4233 H 409.727 4.10487 7.08126 0
M  V30 4234 N 412.39 -1.55475 0.257931 0
M  V30 4235 C 413.801 -1.8511 -0.243135 0
M  V30 4236 C 414.152 -1.17986 -1.5676 0
M  V30 4237 O 413.277 -0.462102 -2.11409 0
M  V30 4238 C 413.872 -3.35826 -0.447929 0
M  V30 4239 C 412.431 -3.65647 -0.893245 0
M  V30 4240 C 411.578 -2.7729 0.0232965 0
M  V30 4241 H 414.529 -1.51261 0.480199 0
M  V30 4242 H 414.55 -3.58002 -1.28898 0
M  V30 4243 H 414.062 -3.84652 0.516196 0
M  V30 4244 H 412.163 -3.22308 -1.86945 0
M  V30 4245 H 412.276 -4.73312 -0.742469 0
M  V30 4246 H 410.64 -2.49942 -0.490021 0
M  V30 4247 H 411.423 -3.28926 0.982994 0
M  V30 4248 N 413.868 0.0150385 -1.57593 0
M  V30 4249 C 414.8 1.03912 -2.04291 0
M  V30 4250 C 415.813 1.31618 -0.958146 0
M  V30 4251 O 417.002 1.28859 -1.23522 0
M  V30 4252 C 414.102 2.37749 -2.41514 0
M  V30 4253 C 413.275 2.29198 -3.72541 0
M  V30 4254 C 412.334 3.45598 -3.96797 0
M  V30 4255 O 411.36 3.24461 -4.67668 0
M  V30 4256 N 412.562 4.67945 -3.43523 0
M  V30 4257 H 415.327 0.64099 -2.92765 0
M  V30 4258 H 412.888 0.20272 -1.60626 0
M  V30 4259 H 414.88 3.14364 -2.54867 0
M  V30 4260 H 413.45 2.69357 -1.58637 0
M  V30 4261 H 412.67 1.3759 -3.69408 0
M  V30 4262 H 413.958 2.20642 -4.5847 0
M  V30 4263 H 413.356 4.88017 -2.86104 0
M  V30 4264 H 411.913 5.41878 -3.62232 0
M  V30 4265 N 415.346 1.54954 0.287554 0
M  V30 4266 C 416.576 1.78622 1.03816 0
M  V30 4267 C 416.984 0.552451 1.80955 0
M  V30 4268 O 416.327 -0.487665 1.77109 0
M  V30 4269 C 416.389 2.94975 2.055 0
M  V30 4270 C 416.053 4.32565 1.47433 0
M  V30 4271 C 417.05 5.12096 0.897436 0
M  V30 4272 C 414.735 4.79195 1.50591 0
M  V30 4273 C 416.729 6.36383 0.359851 0
M  V30 4274 C 414.416 6.03441 0.964459 0
M  V30 4275 C 415.414 6.81872 0.392413 0
M  V30 4276 O 415.102 8.03777 -0.140788 0
M  V30 4277 H 414.834 0.599144 0.313053 0
M  V30 4278 H 417.388 2.02761 0.328225 0
M  V30 4279 H 415.618 2.66493 2.80211 0
M  V30 4280 H 417.307 3.06097 2.6657 0
M  V30 4281 H 418.073 4.77209 0.865841 0
M  V30 4282 H 413.952 4.18167 1.94055 0
M  V30 4283 H 417.496 6.97545 -0.0872951 0
M  V30 4284 H 413.393 6.37813 0.993246 0
M  V30 4285 H 414.161 8.18495 -0.0287617 0
M  V30 4286 N 416.824 -0.551391 1.4764 0
M  V30 4287 C 417.787 -1.64007 1.60107 0
M  V30 4288 C 418.787 -1.53601 0.47576 0
M  V30 4289 O 419.977 -1.57655 0.740988 0
M  V30 4290 C 417.109 -3.03569 1.55108 0
M  V30 4291 H 418.302 -1.543 2.57161 0
M  V30 4292 H 415.855 -0.771776 1.35917 0
M  V30 4293 H 416.59 -3.18804 0.594519 0
M  V30 4294 H 416.375 -3.12532 2.36783 0
M  V30 4295 H 417.865 -3.82762 1.66982 0
M  V30 4296 N 418.302 -1.35869 -0.798587 0
M  V30 4297 C 419.55 -1.29332 -1.55298 0
M  V30 4298 C 419.871 0.129729 -1.94568 0
M  V30 4299 O 419.141 1.06796 -1.6423 0
M  V30 4300 H 417.721 -0.475737 -0.57592 0
M  V30 4301 H 420.383 -1.70062 -0.952093 0
M  V30 4302 H 419.479 -1.91458 -2.46476 0
M  V30 4303 N 419.78 1.02168 -1.19998 0
M  V30 4304 C 420.71 2.12488 -0.96804 0
M  V30 4305 C 421.691 1.69799 0.101185 0
M  V30 4306 O 422.876 1.94121 -0.0552993 0
M  V30 4307 C 420.006 3.43479 -0.513776 0
M  V30 4308 C 418.96 3.99884 -1.52566 0
M  V30 4309 C 418.286 5.26582 -0.928214 0
M  V30 4310 C 419.586 4.33861 -2.90795 0
M  V30 4311 H 421.28 2.32149 -1.89069 0
M  V30 4312 H 418.826 1.11564 -0.910468 0
M  V30 4313 H 420.779 4.20036 -0.338774 0
M  V30 4314 H 419.503 3.23561 0.444493 0
M  V30 4315 H 418.162 3.25429 -1.68794 0
M  V30 4316 H 417.81 5.02986 0.0378289 0
M  V30 4317 H 417.51 5.65284 -1.60397 0
M  V30 4318 H 419.034 6.05799 -0.764167 0
M  V30 4319 H 420.448 5.01327 -2.78109 0
M  V30 4320 H 418.845 4.83664 -3.55231 0
M  V30 4321 H 419.915 3.42848 -3.42904 0
M  V30 4322 N 421.258 1.00505 1.21394 0
M  V30 4323 C 422.188 0.585684 2.26035 0
M  V30 4324 C 423.169 -0.393525 1.65485 0
M  V30 4325 O 424.354 -0.281497 1.92149 0
M  V30 4326 C 421.484 -0.0884283 3.47187 0
M  V30 4327 C 420.438 0.810567 4.20254 0
M  V30 4328 C 419.764 0.00286382 5.347 0
M  V30 4329 C 421.064 2.1132 4.77641 0
M  V30 4330 H 422.758 1.46039 2.61368 0
M  V30 4331 H 420.304 0.703648 1.25638 0
M  V30 4332 H 422.257 -0.393286 4.19561 0
M  V30 4333 H 420.981 -0.997766 3.10986 0
M  V30 4334 H 419.64 1.09925 3.49731 0
M  V30 4335 H 419.288 -0.907765 4.94741 0
M  V30 4336 H 418.988 0.601444 5.84514 0
M  V30 4337 H 420.512 -0.295808 6.09883 0
M  V30 4338 H 421.926 1.87148 5.41893 0
M  V30 4339 H 420.323 2.66164 5.37845 0
M  V30 4340 H 421.393 2.78393 3.9702 0
M  V30 4341 N 422.737 -1.36956 0.779787 0
M  V30 4342 C 423.7 -2.2851 0.177662 0
M  V30 4343 C 424.7 -1.48393 -0.619377 0
M  V30 4344 O 425.89 -1.68505 -0.441785 0
M  V30 4345 C 423.022 -3.32428 -0.755279 0
M  V30 4346 H 424.215 -2.83269 0.984823 0
M  V30 4347 H 421.768 -1.46358 0.548544 0
M  V30 4348 H 422.503 -2.82808 -1.58714 0
M  V30 4349 H 422.288 -3.91659 -0.185817 0
M  V30 4350 H 423.778 -4.00824 -1.17174 0
M  V30 4351 N 424.215 -0.530993 -1.48385 0
M  V30 4352 C 425.178 0.220497 -2.28137 0
M  V30 4353 C 426.178 0.866851 -1.35434 0
M  V30 4354 O 427.368 0.726746 -1.58316 0
M  V30 4355 C 424.5 1.31921 -3.1434 0
M  V30 4356 H 425.693 -0.479714 -2.96038 0
M  V30 4357 H 423.246 -0.286968 -1.53643 0
M  V30 4358 H 423.981 2.05264 -2.51072 0
M  V30 4359 H 423.766 0.86085 -3.82533 0
M  V30 4360 H 425.256 1.84776 -3.74497 0
M  V30 4361 N 425.693 1.55336 -0.266172 0
M  V30 4362 C 426.623 2.25146 0.618981 0
M  V30 4363 C 427.604 1.23845 1.16604 0
M  V30 4364 O 428.789 1.52544 1.20183 0
M  V30 4365 C 425.919 2.96572 1.80728 0
M  V30 4366 C 424.873 4.04726 1.39215 0
M  V30 4367 C 424.199 4.63678 2.66283 0
M  V30 4368 C 425.499 5.19407 0.548942 0
M  V30 4369 H 427.193 2.99377 0.0368116 0
M  V30 4370 H 424.739 1.43991 0.0162651 0
M  V30 4371 H 426.692 3.44116 2.43232 0
M  V30 4372 H 425.416 2.19861 2.41514 0
M  V30 4373 H 424.075 3.57979 0.790351 0
M  V30 4374 H 423.723 3.83646 3.25308 0
M  V30 4375 H 423.423 5.367 2.39222 0
M  V30 4376 H 424.947 5.13967 3.29651 0
M  V30 4377 H 426.361 5.63059 1.07876 0
M  V30 4378 H 424.758 5.98936 0.373593 0
M  V30 4379 H 425.828 4.8295 -0.434394 0
M  V30 4380 N 427.171 -0.0066808 1.57599 0
M  V30 4381 C 428.103 -1.02827 2.04839 0
M  V30 4382 C 429.116 -1.31108 0.965113 0
M  V30 4383 O 430.305 -1.28202 1.24203 0
M  V30 4384 C 427.405 -2.36464 2.42771 0
M  V30 4385 C 426.578 -2.27219 3.73751 0
M  V30 4386 C 425.637 -3.43489 3.98625 0
M  V30 4387 O 424.663 -3.21976 4.69382 0
M  V30 4388 N 425.865 -4.66116 3.46 0
M  V30 4389 H 428.63 -0.625455 2.93101 0
M  V30 4390 H 426.191 -0.194198 1.60731 0
M  V30 4391 H 428.183 -3.13008 2.56531 0
M  V30 4392 H 426.753 -2.68512 1.60063 0
M  V30 4393 H 425.973 -1.35629 3.70133 0
M  V30 4394 H 427.261 -2.18208 4.59633 0
M  V30 4395 H 426.659 -4.86493 2.88688 0
M  V30 4396 H 425.216 -5.39949 3.65101 0
M  V30 4397 N 428.649 -1.55105 -0.279332 0
M  V30 4398 C 429.579 -1.90557 -1.34945 0
M  V30 4399 C 430.56 -0.766738 -1.51839 0
M  V30 4400 O 431.745 -1.02434 -1.64988 0
M  V30 4401 C 428.875 -2.17193 -2.71006 0
M  V30 4402 C 427.829 -3.33021 -2.68851 0
M  V30 4403 C 427.155 -3.45123 -4.08405 0
M  V30 4404 C 428.455 -4.69578 -2.28678 0
M  V30 4405 H 430.149 -2.80188 -1.05522 0
M  V30 4406 H 427.695 -1.34811 -0.506173 0
M  V30 4407 H 429.648 -2.40581 -3.45975 0
M  V30 4408 H 428.372 -1.24355 -3.01999 0
M  V30 4409 H 427.031 -3.0959 -1.9634 0
M  V30 4410 H 426.679 -2.49762 -4.3661 0
M  V30 4411 H 426.379 -4.22995 -4.07859 0
M  V30 4412 H 427.903 -3.70796 -4.85121 0
M  V30 4413 H 429.317 -4.92553 -2.93368 0
M  V30 4414 H 427.714 -5.5032 -2.39306 0
M  V30 4415 H 428.784 -4.68828 -1.23807 0
M  V30 4416 N 430.127 0.543554 -1.4793 0
M  V30 4417 C 431.077 1.64527 -1.57844 0
M  V30 4418 C 432.061 1.54869 -0.436408 0
M  V30 4419 O 433.253 1.63119 -0.687101 0
M  V30 4420 C 430.382 3.03281 -1.6086 0
M  V30 4421 C 429.468 3.18093 -2.80495 0
M  V30 4422 N 429.859 3.02923 -4.05057 0
M  V30 4423 C 428.157 3.49121 -2.77543 0
M  V30 4424 C 428.858 3.20791 -4.85251 0
M  V30 4425 N 427.834 3.47749 -4.17818 0
M  V30 4426 H 431.636 1.51388 -2.5191 0
M  V30 4427 H 429.15 0.748671 -1.44113 0
M  V30 4428 H 431.147 3.82403 -1.66054 0
M  V30 4429 H 429.807 3.17521 -0.678996 0
M  V30 4430 H 430.818 2.79966 -4.35705 0
M  V30 4431 H 427.495 3.69804 -1.93781 0
M  V30 4432 H 428.885 3.13915 -5.9406 0
M  V30 4433 N 431.605 1.3629 0.791371 0
M  V30 4434 C 432.537 1.26321 1.91248 0
M  V30 4435 C 433.55 0.18313 1.61767 0
M  V30 4436 O 434.739 0.437682 1.73051 0
M  V30 4437 C 431.839 0.925901 3.26007 0
M  V30 4438 C 431.012 2.10746 3.83281 0
M  V30 4439 C 430.071 1.74352 4.96475 0
M  V30 4440 O 429.097 2.46416 5.13096 0
M  V30 4441 N 430.299 0.676058 5.7655 0
M  V30 4442 H 433.064 2.22915 2.00323 0
M  V30 4443 H 430.625 1.29659 0.969546 0
M  V30 4444 H 432.617 0.663636 3.99222 0
M  V30 4445 H 431.187 0.0491581 3.12561 0
M  V30 4446 H 430.407 2.53264 3.02077 0
M  V30 4447 H 431.695 2.8969 4.18279 0
M  V30 4448 H 431.093 0.0776467 5.65647 0
M  V30 4449 H 429.65 0.473612 6.50077 0
M  V30 4450 N 433.083 -1.0153 1.20538 0
M  V30 4451 C 434.499 -1.27461 0.96051 0
M  V30 4452 C 434.699 -1.98273 -0.359193 0
M  V30 4453 O 433.755 -2.27886 -1.0874 0
M  V30 4454 C 435.068 -2.10837 2.14402 0
M  V30 4455 C 436.616 -2.24099 2.18515 0
M  V30 4456 C 437.091 -3.10852 3.36355 0
M  V30 4457 N 438.582 -3.18441 3.36377 0
M  V30 4458 C 439.317 -3.85795 4.24205 0
M  V30 4459 N 438.813 -4.55264 5.22213 0
M  V30 4460 N 440.606 -3.82331 4.12043 0
M  V30 4461 H 432.757 -0.539907 2.05423 0
M  V30 4462 H 435.02 -0.30092 0.898972 0
M  V30 4463 H 434.726 -1.66144 3.09983 0
M  V30 4464 H 434.6 -3.11576 2.12604 0
M  V30 4465 H 436.987 -2.68016 1.23497 0
M  V30 4466 H 437.068 -1.22865 2.24361 0
M  V30 4467 H 436.712 -2.6764 4.31661 0
M  V30 4468 H 436.642 -4.12177 3.27746 0
M  V30 4469 H 439.133 -2.68978 2.65442 0
M  V30 4470 H 439.446 -5.04331 5.85551 0
M  V30 4471 H 437.791 -4.54085 5.26148 0
M  V30 4472 H 440.982 -3.27207 3.34743 0
M  V30 4473 H 441.155 -4.34547 4.807 0
M  V30 4474 N 434.561 -1.01147 -1.20859 0
M  V30 4475 C 435.493 -0.535546 -2.22855 0
M  V30 4476 C 436.506 0.379323 -1.58319 0
M  V30 4477 O 437.695 0.178489 -1.77605 0
M  V30 4478 C 434.795 0.240962 -3.38042 0
M  V30 4479 C 433.968 -0.674562 -4.32167 0
M  V30 4480 C 433.027 0.053467 -5.26173 0
M  V30 4481 O 432.053 -0.567339 -5.66366 0
M  V30 4482 N 433.255 1.32997 -5.65059 0
M  V30 4483 H 436.02 -1.41268 -2.64317 0
M  V30 4484 H 433.581 -0.888386 -1.35349 0
M  V30 4485 H 435.573 0.737115 -3.97931 0
M  V30 4486 H 434.143 1.01935 -2.95513 0
M  V30 4487 H 433.363 -1.35111 -3.70322 0
M  V30 4488 H 434.651 -1.2974 -4.91981 0
M  V30 4489 H 434.049 1.85536 -5.34409 0
M  V30 4490 H 432.606 1.77095 -6.2728 0
M  V30 4491 N 436.039 1.36541 -0.78704 0
M  V30 4492 C 437.287 1.98911 -0.357633 0
M  V30 4493 C 437.608 1.62778 1.07371 0
M  V30 4494 O 436.878 0.900612 1.73971 0
M  V30 4495 H 435.458 0.735734 -0.129246 0
M  V30 4496 H 438.12 1.66776 -1.00855 0
M  V30 4497 H 437.216 3.08874 -0.447549 0
M  V30 4498 N 437.518 0.538854 1.48102 0
M  V30 4499 C 438.746 0.0123136 2.06896 0
M  V30 4500 C 439.161 -1.27312 1.39417 0
M  V30 4501 O 438.518 -1.75949 0.484582 0
M  V30 4502 C 438.569 -0.206118 3.60912 0
M  V30 4503 O 438.29 1.0284 4.25859 0
M  V30 4504 C 439.791 -0.772033 4.36526 0
M  V30 4505 H 437.011 0.0375239 0.66995 0
M  V30 4506 H 439.555 0.747032 1.90367 0
M  V30 4507 H 437.71 -0.89091 3.77017 0
M  V30 4508 H 438.124 0.814654 5.18135 0
M  V30 4509 H 439.598 -0.874251 5.45033 0
M  V30 4510 H 440.075 -1.77904 4.01555 0
M  V30 4511 H 440.681 -0.123526 4.25121 0
M  V30 4512 N 438.996 -1.55193 0.274407 0
M  V30 4513 C 439.959 -2.212 -0.600279 0
M  V30 4514 C 440.959 -1.18963 -1.08187 0
M  V30 4515 O 442.149 -1.43873 -0.982158 0
M  V30 4516 C 439.281 -2.87739 -1.82809 0
M  V30 4517 H 440.474 -2.9989 -0.0239682 0
M  V30 4518 H 438.027 -1.5628 0.0250192 0
M  V30 4519 H 438.762 -2.13058 -2.44493 0
M  V30 4520 H 438.547 -3.62658 -1.49069 0
M  V30 4521 H 440.037 -3.38171 -2.45011 0
M  V30 4522 N 440.474 -0.00167713 -1.576 0
M  V30 4523 C 441.384 1.00548 -2.1196 0
M  V30 4524 C 442.4 1.3758 -1.06526 0
M  V30 4525 O 443.576 1.46278 -1.38436 0
M  V30 4526 C 440.641 2.27809 -2.6135 0
M  V30 4527 C 439.702 1.97074 -3.81393 0
M  V30 4528 C 438.935 3.18267 -4.28417 0
M  V30 4529 O 439.158 4.30009 -3.74765 0
M  V30 4530 O 438.092 3.02167 -5.20556 0
M  V30 4531 H 441.918 0.573373 -2.98238 0
M  V30 4532 H 439.503 0.217255 -1.47812 0
M  V30 4533 H 441.385 3.02568 -2.93309 0
M  V30 4534 H 440.06 2.70254 -1.78169 0
M  V30 4535 H 438.967 1.19785 -3.54404 0
M  V30 4536 H 440.3 1.59464 -4.65652 0
M  V30 4537 N 441.952 1.55251 0.271103 0
M  V30 4538 C 442.862 1.9136 1.35714 0
M  V30 4539 C 443.878 0.811075 1.5394 0
M  V30 4540 O 445.054 1.11031 1.6803 0
M  V30 4541 C 442.119 2.1798 2.69603 0
M  V30 4542 C 441.18 3.4153 2.60107 0
M  V30 4543 C 440.413 3.66871 3.8761 0
M  V30 4544 O 440.636 2.94689 4.8838 0
M  V30 4545 O 439.57 4.60405 3.87699 0
M  V30 4546 H 443.396 2.83815 1.08088 0
M  V30 4547 H 440.981 1.41821 0.469792 0
M  V30 4548 H 442.863 2.36518 3.48765 0
M  V30 4549 H 441.538 1.28708 2.97012 0
M  V30 4550 H 440.445 3.28325 1.79314 0
M  V30 4551 H 441.778 4.31027 2.37647 0
M  V30 4552 N 443.43 -0.535701 1.48216 0
M  V30 4553 C 444.846 -0.863701 1.3421 0
M  V30 4554 C 445.046 -1.98458 0.34879 0
M  V30 4555 O 444.102 -2.51432 -0.23204 0
M  V30 4556 C 445.415 -1.23662 2.74095 0
M  V30 4557 C 446.963 -1.34683 2.82541 0
M  V30 4558 C 447.438 -1.75322 4.23115 0
M  V30 4559 N 448.929 -1.82434 4.2576 0
M  V30 4560 C 449.664 -2.15252 5.31464 0
M  V30 4561 N 449.16 -2.46533 6.47452 0
M  V30 4562 N 450.953 -2.16209 5.18855 0
M  V30 4563 H 443.104 0.203965 2.11418 0
M  V30 4564 H 445.367 0.0286033 0.947568 0
M  V30 4565 H 445.073 -0.486674 3.48316 0
M  V30 4566 H 444.947 -2.18805 3.07253 0
M  V30 4567 H 447.334 -2.08756 2.08579 0
M  V30 4568 H 447.415 -0.376756 2.5301 0
M  V30 4569 H 447.059 -1.01812 4.97591 0
M  V30 4570 H 446.989 -2.7337 4.50085 0
M  V30 4571 H 449.48 -1.6056 3.42095 0
M  V30 4572 H 449.793 -2.70662 7.23852 0
M  V30 4573 H 448.138 -2.44065 6.50736 0
M  V30 4574 H 451.329 -1.91224 4.2726 0
M  V30 4575 H 451.502 -2.41453 6.01335 0
M  V30 4576 N 444.908 -1.36708 -0.784132 0
M  V30 4577 C 446.138 -1.34203 -1.57077 0
M  V30 4578 C 446.546 0.0774945 -1.89041 0
M  V30 4579 O 445.889 1.04628 -1.50992 0
M  V30 4580 C 445.951 -2.10351 -2.91535 0
M  V30 4581 C 445.615 -3.59405 -2.82272 0
M  V30 4582 C 446.612 -4.53545 -2.54151 0
M  V30 4583 C 444.297 -4.02362 -3.00683 0
M  V30 4584 C 446.291 -5.8862 -2.44551 0
M  V30 4585 C 443.978 -5.37526 -2.90704 0
M  V30 4586 C 444.976 -6.30468 -2.62677 0
M  V30 4587 O 444.664 -7.63149 -2.52702 0
M  V30 4588 H 444.396 -0.461791 -0.493685 0
M  V30 4589 H 446.95 -1.80475 -0.980712 0
M  V30 4590 H 445.18 -1.5875 -3.52612 0
M  V30 4591 H 446.869 -2.00636 -3.52845 0
M  V30 4592 H 447.635 -4.21669 -2.39625 0
M  V30 4593 H 443.514 -3.30389 -3.21503 0
M  V30 4594 H 447.058 -6.61133 -2.22596 0
M  V30 4595 H 442.955 -5.69008 -3.04795 0
M  V30 4596 H 443.723 -7.73331 -2.68144 0
M  V30 4597 N 446.386 1.0089 -1.21074 0
M  V30 4598 C 447.318 2.09737 -0.924291 0
M  V30 4599 C 448.331 1.62546 0.0909809 0
M  V30 4600 O 449.52 1.77942 -0.141021 0
M  V30 4601 C 446.62 3.36922 -0.36559 0
M  V30 4602 C 445.793 4.13216 -1.43426 0
M  V30 4603 C 444.852 5.18696 -0.885496 0
M  V30 4604 O 443.878 5.47176 -1.56801 0
M  V30 4605 N 445.08 5.79718 0.301227 0
M  V30 4606 H 447.845 2.34895 -1.8613 0
M  V30 4607 H 445.406 1.17341 -1.11546 0
M  V30 4608 H 447.398 4.04697 0.0158407 0
M  V30 4609 H 445.968 3.08952 0.476149 0
M  V30 4610 H 445.188 3.40301 -1.9897 0
M  V30 4611 H 446.476 4.60967 -2.15376 0
M  V30 4612 H 445.874 5.58926 0.872849 0
M  V30 4613 H 444.431 6.48804 0.624211 0
M  V30 4614 N 447.864 1.01787 1.20321 0
M  V30 4615 C 448.827 0.593972 2.2137 0
M  V30 4616 C 449.827 -0.336553 1.57239 0
M  V30 4617 O 451.017 -0.125069 1.7375 0
M  V30 4618 C 448.149 -0.132433 3.40643 0
M  V30 4619 H 449.342 1.48791 2.60387 0
M  V30 4620 H 446.895 0.807803 1.33807 0
M  V30 4621 H 447.63 -1.04123 3.0713 0
M  V30 4622 H 447.415 0.53605 3.88418 0
M  V30 4623 H 448.905 -0.416314 4.1552 0
M  V30 4624 N 449.342 -1.36122 0.79427 0
M  V30 4625 C 450.591 -1.98361 0.365464 0
M  V30 4626 C 450.904 -1.6374 -1.06997 0
M  V30 4627 O 452.11 -2.19251 -1.60129 0
M  V30 4628 C 450.566 -3.54821 0.602496 0
M  V30 4629 C 450.174 -3.98362 2.04967 0
M  V30 4630 C 451.918 -4.2383 0.238437 0
M  V30 4631 C 449.825 -5.47619 2.2331 0
M  V30 4632 H 448.755 -0.742193 0.13291 0
M  V30 4633 H 451.406 -1.55354 0.976589 0
M  V30 4634 H 449.788 -3.95922 -0.078409 0
M  V30 4635 H 450.962 -3.68447 2.76737 0
M  V30 4636 H 449.277 -3.42206 2.37243 0
M  V30 4637 H 451.874 -5.33529 0.353705 0
M  V30 4638 H 452.217 -4.08264 -0.814006 0
M  V30 4639 H 452.75 -3.88108 0.872769 0
M  V30 4640 H 449.489 -5.68138 3.26955 0
M  V30 4641 H 449.009 -5.79145 1.5605 0
M  V30 4642 H 450.688 -6.13911 2.0426 0
M  V30 4643 N 450.82 -0.546701 -1.47814 0
M  V30 4644 C 452.06 -0.0209604 -2.04389 0
M  V30 4645 C 452.424 1.29993 -1.413 0
M  V30 4646 O 453.625 1.91273 -1.8886 0
M  V30 4647 C 451.896 0.0812844 -3.57308 0
M  V30 4648 S 453.455 0.55467 -4.3528 0
M  V30 4649 H 450.273 -0.0200865 -0.710716 0
M  V30 4650 H 452.875 -0.731055 -1.81317 0
M  V30 4651 H 451.579 -0.884616 -4.00753 0
M  V30 4652 H 451.11 0.815253 -3.8486 0
M  V30 4653 H 453.125 1.81627 -4.61764 0
M  V30 4654 N 452.299 1.55045 -0.282633 0
M  V30 4655 C 453.231 2.2023 0.634924 0
M  V30 4656 C 454.244 1.18931 1.11172 0
M  V30 4657 O 455.433 1.4562 1.03233 0
M  V30 4658 C 452.533 2.82041 1.87899 0
M  V30 4659 C 451.706 4.091 1.54776 0
M  V30 4660 C 450.765 4.54887 2.64507 0
M  V30 4661 O 449.791 5.20496 2.30375 0
M  V30 4662 N 450.993 4.25659 3.94709 0
M  V30 4663 H 453.758 2.99601 0.0769811 0
M  V30 4664 H 451.319 1.61565 -0.104048 0
M  V30 4665 H 453.311 3.09613 2.60619 0
M  V30 4666 H 451.881 2.06618 2.3458 0
M  V30 4667 H 451.101 3.88736 0.654049 0
M  V30 4668 H 452.389 4.9187 1.30158 0
M  V30 4669 H 451.787 3.7306 4.25256 0
M  V30 4670 H 450.344 4.57984 4.63782 0
M  V30 4671 N 453.777 0.010035 1.57597 0
M  V30 4672 C 455.193 -0.346164 1.55801 0
M  V30 4673 C 455.393 -1.74144 1.01371 0
M  V30 4674 O 454.449 -2.43938 0.651968 0
M  V30 4675 C 455.762 -0.212216 2.9995 0
M  V30 4676 C 457.31 -0.286409 3.11687 0
M  V30 4677 C 457.785 -0.18147 4.5764 0
M  V30 4678 N 459.276 -0.239056 4.62583 0
M  V30 4679 C 460.011 -0.181351 5.73113 0
M  V30 4680 N 459.507 -0.073661 6.92761 0
M  V30 4681 N 461.3 -0.233949 5.61613 0
M  V30 4682 H 453.451 0.922657 1.91313 0
M  V30 4683 H 455.714 0.354595 0.879185 0
M  V30 4684 H 455.42 0.748169 3.4365 0
M  V30 4685 H 455.294 -0.990224 3.6397 0
M  V30 4686 H 457.681 -1.23724 2.67911 0
M  V30 4687 H 457.762 0.521645 2.50425 0
M  V30 4688 H 457.406 0.765863 5.02093 0
M  V30 4689 H 457.336 -1.00814 5.1686 0
M  V30 4690 H 459.827 -0.32321 3.76515 0
M  V30 4691 H 460.14 -0.0358003 7.72792 0
M  V30 4692 H 458.485 -0.0391461 6.94989 0
M  V30 4693 H 461.676 -0.316347 4.6703 0
M  V30 4694 H 461.849 -0.185514 6.47734 0
M  V30 4695 N 455.255 -1.55392 -0.262866 0
M  V30 4696 C 456.48 -1.80847 -1.01533 0
M  V30 4697 C 456.905 -0.584946 -1.78774 0
M  V30 4698 O 456.263 0.465701 -1.75217 0
M  V30 4699 C 456.311 -3.03866 -1.94159 0
M  V30 4700 O 455.415 -2.79662 -3.03089 0
M  V30 4701 H 454.756 -0.597441 -0.289759 0
M  V30 4702 H 457.286 -2.02553 -0.288698 0
M  V30 4703 H 457.296 -3.32872 -2.35924 0
M  V30 4704 H 455.971 -3.92564 -1.37354 0
M  V30 4705 H 454.548 -2.61781 -2.65566 0
M  V30 4706 N 456.733 0.527833 -1.48498 0
M  V30 4707 C 457.643 1.65907 -1.65867 0
M  V30 4708 C 458.659 1.6537 -0.541192 0
M  V30 4709 O 459.835 1.84282 -0.812534 0
M  V30 4710 C 456.9 3.02364 -1.69637 0
M  V30 4711 C 455.961 3.1374 -2.93028 0
M  V30 4712 C 455.194 4.43688 -2.96609 0
M  V30 4713 O 455.417 5.30913 -2.08538 0
M  V30 4714 O 454.351 4.59475 -3.88802 0
M  V30 4715 H 458.177 1.5419 -2.61647 0
M  V30 4716 H 455.762 0.701163 -1.31924 0
M  V30 4717 H 457.644 3.83515 -1.74625 0
M  V30 4718 H 456.319 3.14401 -0.770312 0
M  V30 4719 H 455.226 2.31877 -2.93571 0
M  V30 4720 H 456.559 3.06621 -3.85026 0
M  V30 4721 N 458.211 1.37122 0.776871 0
M  V30 4722 C 459.458 1.32047 1.53524 0
M  V30 4723 C 459.786 -0.0965631 1.9426 0
M  V30 4724 O 459.041 -1.06866 1.63945 0
M  V30 4725 C 459.34 2.20068 2.81611 0
M  V30 4726 C 459.006 3.68423 2.59953 0
M  V30 4727 C 457.668 4.08854 2.53755 0
M  V30 4728 C 460.02 4.62431 2.40431 0
M  V30 4729 C 457.348 5.41417 2.26018 0
M  V30 4730 C 459.7 5.95225 2.14219 0
M  V30 4731 C 458.364 6.34767 2.06462 0
M  V30 4732 H 457.634 0.483196 0.561785 0
M  V30 4733 H 460.281 1.69284 0.895268 0
M  V30 4734 H 458.586 1.75809 3.50141 0
M  V30 4735 H 460.283 2.13458 3.39465 0
M  V30 4736 H 456.873 3.36354 2.65638 0
M  V30 4737 H 461.057 4.32057 2.44213 0
M  V30 4738 H 456.313 5.71022 2.18504 0
M  V30 4739 H 460.487 6.67626 1.98112 0
M  V30 4740 H 458.114 7.37413 1.84733 0
M  V30 4741 N 459.689 -1.00246 1.21608 0
M  V30 4742 C 460.619 -2.10921 1.00172 0
M  V30 4743 C 461.6 -1.69938 -0.0741587 0
M  V30 4744 O 462.785 -1.94009 0.0861753 0
M  V30 4745 C 459.915 -3.42618 0.568355 0
M  V30 4746 C 458.869 -3.97407 1.58909 0
M  V30 4747 C 458.195 -5.25038 1.01187 0
M  V30 4748 C 459.495 -4.2918 2.97661 0
M  V30 4749 H 461.189 -2.29112 1.92739 0
M  V30 4750 H 458.735 -1.10101 0.928102 0
M  V30 4751 H 460.688 -4.19444 0.405555 0
M  V30 4752 H 459.412 -3.24227 -0.392961 0
M  V30 4753 H 458.071 -3.22703 1.73949 0
M  V30 4754 H 457.719 -5.02982 0.0421965 0
M  V30 4755 H 457.419 -5.62661 1.6937 0
M  V30 4756 H 458.943 -6.04507 0.860448 0
M  V30 4757 H 460.357 -4.96839 2.86049 0
M  V30 4758 H 458.754 -4.77952 3.6288 0
M  V30 4759 H 459.824 -3.3735 3.48315 0
M  V30 4760 N 461.167 -1.02423 -1.1978 0
M  V30 4761 C 462.413 -0.72878 -1.89896 0
M  V30 4762 C 462.768 0.734248 -1.77839 0
M  V30 4763 O 462.061 1.52733 -1.15685 0
M  V30 4764 C 462.255 -1.1088 -3.39765 0
M  V30 4765 C 462.084 -2.60722 -3.66407 0
M  V30 4766 C 460.854 -3.27623 -3.84696 0
M  V30 4767 C 463.052 -3.58924 -3.68345 0
M  V30 4768 N 461.034 -4.66617 -3.98926 0
M  V30 4769 C 462.405 -4.83514 -3.8809 0
M  V30 4770 C 464.46 -3.52788 -3.51347 0
M  V30 4771 C 463.163 -6.0271 -3.92598 0
M  V30 4772 C 465.189 -4.71394 -3.5713 0
M  V30 4773 C 464.551 -5.94796 -3.77356 0
M  V30 4774 H 460.65 -0.318473 -0.714212 0
M  V30 4775 H 463.234 -1.3106 -1.43984 0
M  V30 4776 H 461.405 -0.555233 -3.84411 0
M  V30 4777 H 463.137 -0.766082 -3.97383 0
M  V30 4778 H 459.892 -2.7804 -3.83393 0
M  V30 4779 H 460.316 -5.38805 -4.099 0
M  V30 4780 H 464.958 -2.58372 -3.3467 0
M  V30 4781 H 462.676 -6.97499 -4.08069 0
M  V30 4782 H 466.262 -4.6827 -3.45275 0
M  V30 4783 H 465.142 -6.85037 -3.81699 0
M  V30 4784 N 462.645 1.35699 -0.801477 0
M  V30 4785 C 464.061 1.52065 -0.484596 0
M  V30 4786 C 464.261 1.75215 0.995084 0
M  V30 4787 O 463.317 1.79061 1.78026 0
M  V30 4788 C 464.63 2.69908 -1.32552 0
M  V30 4789 C 466.178 2.83784 -1.32044 0
M  V30 4790 C 466.653 4.04646 -2.14536 0
M  V30 4791 N 468.144 4.11814 -2.12046 0
M  V30 4792 C 468.879 5.04437 -2.72636 0
M  V30 4793 N 468.375 6.02426 -3.42133 0
M  V30 4794 N 470.168 4.97144 -2.62305 0
M  V30 4795 H 462.319 1.18928 -1.75983 0
M  V30 4796 H 464.582 0.581455 -0.748741 0
M  V30 4797 H 464.288 2.59363 -2.37537 0
M  V30 4798 H 464.162 3.64376 -0.975181 0
M  V30 4799 H 466.549 2.93783 -0.27846 0
M  V30 4800 H 466.63 1.90188 -1.71062 0
M  V30 4801 H 466.274 3.95407 -3.18772 0
M  V30 4802 H 466.204 4.97413 -1.72882 0
M  V30 4803 H 468.695 3.41664 -1.61476 0
M  V30 4804 H 469.008 6.69688 -3.85666 0
M  V30 4805 H 467.353 6.02615 -3.46237 0
M  V30 4806 H 470.544 4.19546 -2.07603 0
M  V30 4807 H 470.717 5.69138 -3.09815 0
M  V30 4808 N 464.123 0.554532 1.47522 0
M  V30 4809 C 465.371 0.0294208 2.02079 0
M  V30 4810 C 465.692 -1.32411 1.43151 0
M  V30 4811 O 464.962 -1.863 0.605728 0
M  V30 4812 H 463.542 0.00788672 0.746958 0
M  V30 4813 H 466.204 0.723934 1.80956 0
M  V30 4814 H 465.3 -0.0606745 3.12041 0
M  V30 4815 N 465.601 -1.54893 0.290851 0
M  V30 4816 C 466.531 -2.26103 -0.583084 0
M  V30 4817 C 467.512 -1.25684 -1.14619 0
M  V30 4818 O 468.697 -1.54436 -1.17741 0
M  V30 4819 C 465.827 -2.99409 -1.75987 0
M  V30 4820 C 464.781 -4.0689 -1.32758 0
M  V30 4821 C 464.107 -4.67856 -2.58872 0
M  V30 4822 C 465.407 -5.20215 -0.46624 0
M  V30 4823 H 467.101 -2.99398 0.0108214 0
M  V30 4824 H 464.647 -1.43998 0.00664468 0
M  V30 4825 H 466.6 -3.47943 -2.37727 0
M  V30 4826 H 465.324 -2.23675 -2.37985 0
M  V30 4827 H 463.983 -3.59191 -0.733299 0
M  V30 4828 H 463.631 -3.88772 -3.19163 0
M  V30 4829 H 463.331 -5.40438 -2.30653 0
M  V30 4830 H 464.855 -5.19147 -3.21433 0
M  V30 4831 H 466.269 -5.64704 -0.989047 0
M  V30 4832 H 464.666 -5.99455 -0.27826 0
M  V30 4833 H 465.736 -4.82198 0.511173 0
M  V30 4834 N 467.08 -0.0183926 -1.57589 0
M  V30 4835 C 468.028 0.985111 -2.10709 0
M  V30 4836 C 469.022 1.34397 -1.0312 0
M  V30 4837 O 470.228 1.32746 -1.21567 0
M  V30 4838 H 466.603 0.335418 -0.673052 0
M  V30 4839 H 468.574 0.511689 -2.9398 0
M  V30 4840 C 467.323 2.26202 -2.64061 0
M  V30 4841 H 466.646 1.9946 -3.4649 0
M  V30 4842 H 468.086 2.94652 -3.04887 0
M  V30 4843 C 466.545 2.98444 -1.5631 0
M  V30 4844 O 467.075 3.90142 -0.956674 0
M  V30 4845 N 465.281 2.6059 -1.28612 0
M  V30 4846 H 464.828 1.86101 -1.78112 0
M  V30 4847 H 464.786 3.09238 -0.567406 0
M  V30 4848 N 468.558 1.5553 0.254621 0
M  V30 4849 C 469.49 1.86104 1.33783 0
M  V30 4850 C 470.503 0.746752 1.44663 0
M  V30 4851 O 471.692 1.0248 1.46151 0
M  V30 4852 C 468.792 2.02532 2.71724 0
M  V30 4853 C 467.965 3.33335 2.83208 0
M  V30 4854 C 467.024 3.396 4.01943 0
M  V30 4855 O 466.05 4.12862 3.91834 0
M  V30 4856 N 467.252 2.68332 5.1476 0
M  V30 4857 H 470.017 2.79605 1.07893 0
M  V30 4858 H 467.578 1.55672 0.444732 0
M  V30 4859 H 469.57 2.04074 3.4948 0
M  V30 4860 H 468.14 1.15811 2.90356 0
M  V30 4861 H 467.36 3.44176 1.92189 0
M  V30 4862 H 468.648 4.19565 2.87824 0
M  V30 4863 H 468.046 2.08528 5.25864 0
M  V30 4864 H 466.603 2.75575 5.90679 0
M  V30 4865 N 470.036 -0.519951 1.48776 0
M  V30 4866 C 470.966 -1.63253 1.66945 0
M  V30 4867 C 471.947 -1.62014 0.518224 0
M  V30 4868 O 473.132 -1.79053 0.751919 0
M  V30 4869 C 470.262 -3.0181 1.71836 0
M  V30 4870 C 469.216 -3.17911 2.8656 0
M  V30 4871 C 468.542 -4.5763 2.76548 0
M  V30 4872 C 469.842 -2.99729 4.27738 0
M  V30 4873 H 471.536 -1.48302 2.6009 0
M  V30 4874 H 469.082 -0.712026 1.25165 0
M  V30 4875 H 471.035 -3.79525 1.83135 0
M  V30 4876 H 469.759 -3.17806 0.752775 0
M  V30 4877 H 468.418 -2.42616 2.74833 0
M  V30 4878 H 468.066 -4.70476 1.77937 0
M  V30 4879 H 467.766 -4.69346 3.53536 0
M  V30 4880 H 469.29 -5.37431 2.89828 0
M  V30 4881 H 470.704 -3.67228 4.40246 0
M  V30 4882 H 469.101 -3.22932 5.05801 0
M  V30 4883 H 470.171 -1.96047 4.43502 0
M  V30 4884 N 471.514 -1.37532 -0.769588 0
M  V30 4885 C 472.925 -1.29382 -1.346 0
M  V30 4886 C 473.276 0.0576039 -1.96115 0
M  V30 4887 O 472.401 0.95947 -1.93967 0
M  V30 4888 C 472.996 -2.34298 -2.44724 0
M  V30 4889 C 471.555 -2.29776 -2.98128 0
M  V30 4890 C 470.702 -2.18013 -1.71364 0
M  V30 4891 H 473.653 -1.48123 -0.56968 0
M  V30 4892 H 473.674 -1.99089 -3.24259 0
M  V30 4893 H 473.186 -3.32645 -1.99922 0
M  V30 4894 H 471.287 -1.34959 -3.47299 0
M  V30 4895 H 471.4 -3.23276 -3.53595 0
M  V30 4896 H 469.764 -1.64595 -1.94372 0
M  V30 4897 H 470.547 -3.18278 -1.28662 0
M  V30 4898 N 472.992 0.995999 -1.22138 0
M  V30 4899 C 473.942 2.06988 -0.956042 0
M  V30 4900 C 474.926 1.60636 0.0921576 0
M  V30 4901 O 476.118 1.76607 -0.117958 0
M  V30 4902 C 473.247 3.39148 -0.532335 0
M  V30 4903 C 472.333 3.92142 -1.61509 0
M  V30 4904 N 472.724 4.18397 -2.84214 0
M  V30 4905 C 471.022 4.20514 -1.48606 0
M  V30 4906 C 471.723 4.61425 -3.54206 0
M  V30 4907 N 470.699 4.64934 -2.81669 0
M  V30 4908 H 474.501 2.25223 -1.88816 0
M  V30 4909 H 472.015 1.17748 -1.11845 0
M  V30 4910 H 474.012 4.15642 -0.323574 0
M  V30 4911 H 472.672 3.22314 0.392921 0
M  V30 4912 H 473.683 4.06682 -3.20671 0
M  V30 4913 H 470.36 4.12769 -0.626762 0
M  V30 4914 H 471.75 4.90387 -4.59315 0
M  V30 4915 N 474.47 1.03057 1.19235 0
M  V30 4916 C 475.716 0.729098 1.89241 0
M  V30 4917 C 476.049 -0.740573 1.79525 0
M  V30 4918 O 475.324 -1.53946 1.18874 0
M  V30 4919 C 475.607 1.18304 3.40112 0
M  V30 4920 C 475.46 2.71406 3.5869 0
M  V30 4921 C 476.779 0.765161 4.33397 0
M  V30 4922 H 473.898 0.266338 0.687192 0
M  V30 4923 H 476.54 1.28079 1.40341 0
M  V30 4924 H 474.69 0.713672 3.81889 0
M  V30 4925 H 476.362 3.26303 3.26074 0
M  V30 4926 H 474.605 3.11717 3.01687 0
M  V30 4927 H 475.276 2.98225 4.64506 0
M  V30 4928 H 477.752 1.16889 3.99345 0
M  V30 4929 H 476.628 1.11065 5.37546 0
M  V30 4930 H 476.889 -0.332372 4.40849 0
M  V30 4931 N 475.948 -1.35272 0.808662 0
M  V30 4932 C 476.898 -2.27181 0.193124 0
M  V30 4933 C 477.882 -1.47871 -0.634265 0
M  V30 4934 O 479.074 -1.70048 -0.491182 0
M  V30 4935 C 476.203 -3.36979 -0.655751 0
M  V30 4936 C 475.289 -4.23712 0.181481 0
M  V30 4937 N 475.68 -4.90225 1.24551 0
M  V30 4938 C 473.978 -4.45985 -0.0365493 0
M  V30 4939 C 474.679 -5.54537 1.75682 0
M  V30 4940 N 473.655 -5.33107 1.06294 0
M  V30 4941 H 477.457 -2.76101 1.00724 0
M  V30 4942 H 474.971 -1.48823 0.650029 0
M  V30 4943 H 476.968 -4.01774 -1.11279 0
M  V30 4944 H 475.628 -2.89611 -1.46819 0
M  V30 4945 H 476.639 -4.91641 1.62818 0
M  V30 4946 H 473.316 -4.09409 -0.817964 0
M  V30 4947 H 474.706 -6.17597 2.64621 0
M  V30 4948 N 477.426 -0.562348 -1.47226 0
M  V30 4949 C 478.666 -0.0426374 -2.04356 0
M  V30 4950 C 479.03 1.28487 -1.42671 0
M  V30 4951 O 480.231 1.89259 -1.90878 0
M  V30 4952 C 478.502 0.0433826 -3.57374 0
M  V30 4953 S 480.061 0.508472 -4.35844 0
M  V30 4954 H 476.879 -0.0276234 -0.710463 0
M  V30 4955 H 479.481 -0.750245 -1.80531 0
M  V30 4956 H 478.185 -0.927072 -3.99792 0
M  V30 4957 H 477.716 0.774387 -3.85703 0
M  V30 4958 H 479.731 1.76719 -4.63665 0
M  V30 4959 N 478.904 1.54736 -0.299062 0
M  V30 4960 C 479.834 2.26409 0.571085 0
M  V30 4961 C 480.815 1.2629 1.13951 0
M  V30 4962 O 482 1.55059 1.16921 0
M  V30 4963 C 479.13 3.00338 1.74396 0
M  V30 4964 C 478.084 4.07588 1.30599 0
M  V30 4965 C 477.41 4.69222 2.56387 0
M  V30 4966 C 478.71 5.20455 0.438645 0
M  V30 4967 H 480.404 2.99388 -0.0266991 0
M  V30 4968 H 477.95 1.43993 -0.0142812 0
M  V30 4969 H 479.903 3.49198 2.35878 0
M  V30 4970 H 478.627 2.24934 2.36796 0
M  V30 4971 H 477.286 3.59575 0.71424 0
M  V30 4972 H 476.934 3.9046 3.17097 0
M  V30 4973 H 476.634 5.41653 2.27784 0
M  V30 4974 H 478.158 5.20844 3.18675 0
M  V30 4975 H 479.572 5.65221 0.959085 0
M  V30 4976 H 477.969 5.99594 0.246466 0
M  V30 4977 H 479.039 4.8192 -0.536738 0
M  V30 4978 N 480.382 0.0267497 1.57577 0
M  V30 4979 C 481.345 -0.940916 2.08996 0
M  V30 4980 C 482.345 -1.25561 1.00455 0
M  V30 4981 O 483.535 -1.19634 1.26623 0
M  V30 4982 C 480.667 -2.25814 2.55384 0
M  V30 4983 H 481.86 -0.495628 2.95776 0
M  V30 4984 H 479.413 -0.221241 1.54726 0
M  V30 4985 H 480.148 -2.74976 1.71926 0
M  V30 4986 H 479.933 -2.04285 3.34679 0
M  V30 4987 H 481.423 -2.95178 2.95398 0
M  V30 4988 N 481.861 -1.55662 -0.24637 0
M  V30 4989 C 483.089 -1.81575 -0.991876 0
M  V30 4990 C 483.504 -0.602545 -1.78927 0
M  V30 4991 O 482.861 0.428795 -1.77391 0
M  V30 4992 C 482.912 -3.05711 -1.92933 0
M  V30 4993 O 482.633 -4.22348 -1.1642 0
M  V30 4994 C 484.134 -3.44428 -2.79078 0
M  V30 4995 H 481.354 -0.604209 -0.291844 0
M  V30 4996 H 483.898 -2.02722 -0.269095 0
M  V30 4997 H 482.053 -2.86612 -2.60638 0
M  V30 4998 H 482.467 -4.92706 -1.79835 0
M  V30 4999 H 483.941 -4.34388 -3.40603 0
M  V30 5000 H 484.418 -2.65037 -3.50217 0
M  V30 5001 H 485.024 -3.65879 -2.16824 0
M  V30 5002 N 483.339 0.512053 -1.4905 0
M  V30 5003 C 484.564 1.2959 -1.6193 0
M  V30 5004 C 484.989 1.85906 -0.286454 0
M  V30 5005 O 484.347 1.65312 0.744426 0
M  V30 5006 C 484.395 2.40987 -2.68249 0
M  V30 5007 O 483.499 3.44531 -2.26654 0
M  V30 5008 H 482.84 0.383053 -0.542371 0
M  V30 5009 H 485.37 0.614231 -1.95162 0
M  V30 5010 H 485.38 2.86913 -2.90078 0
M  V30 5011 H 484.055 1.99361 -3.65004 0
M  V30 5012 H 482.632 3.046 -2.15112 0
M  V30 5013 N 484.817 1.37938 0.762283 0
M  V30 5014 C 485.78 1.34279 1.85747 0
M  V30 5015 C 486.78 0.244969 1.58923 0
M  V30 5016 O 487.97 0.501365 1.66829 0
M  V30 5017 C 485.102 1.08833 3.23061 0
M  V30 5018 H 486.295 2.31705 1.90401 0
M  V30 5019 H 483.848 1.23105 0.963057 0
M  V30 5020 H 484.583 0.119767 3.24079 0
M  V30 5021 H 484.368 1.88306 3.43923 0
M  V30 5022 H 485.858 1.08946 4.03138 0
M  V30 5023 N 486.295 -0.989507 1.22664 0
M  V30 5024 C 487.706 -1.54406 1.04955 0
M  V30 5025 C 488.057 -1.92366 -0.385951 0
M  V30 5026 O 487.182 -1.75111 -1.27142 0
M  V30 5027 C 487.777 -2.80578 1.89899 0
M  V30 5028 C 486.336 -3.32464 1.76478 0
M  V30 5029 C 485.483 -2.05524 1.86159 0
M  V30 5030 H 488.434 -0.810211 1.3646 0
M  V30 5031 H 488.455 -3.53075 1.4184 0
M  V30 5032 H 487.967 -2.52918 2.94371 0
M  V30 5033 H 486.068 -3.65024 0.747528 0
M  V30 5034 H 486.181 -4.02838 2.59342 0
M  V30 5035 H 484.545 -2.19241 1.29636 0
M  V30 5036 H 485.328 -1.80258 2.92168 0
M  V30 5037 N 487.773 -1.03688 -1.18687 0
M  V30 5038 C 488.705 -0.582696 -2.21669 0
M  V30 5039 C 489.718 0.345656 -1.59088 0
M  V30 5040 O 490.907 0.140776 -1.77944 0
M  V30 5041 C 488.007 0.169204 -3.38477 0
M  V30 5042 C 487.18 -0.766079 -4.30639 0
M  V30 5043 C 486.239 -0.0581541 -5.26168 0
M  V30 5044 O 485.265 -0.687346 -5.65035 0
M  V30 5045 N 486.467 1.20981 -5.67753 0
M  V30 5046 H 489.232 -1.46843 -2.61261 0
M  V30 5047 H 486.793 -0.916896 -1.33434 0
M  V30 5048 H 488.785 0.652543 -3.99405 0
M  V30 5049 H 487.355 0.956435 -2.97609 0
M  V30 5050 H 486.575 -1.42935 -3.67373 0
M  V30 5051 H 487.863 -1.40146 -4.89118 0
M  V30 5052 H 487.261 1.74159 -5.38224 0
M  V30 5053 H 485.818 1.6375 -6.30896 0
M  V30 5054 N 489.251 1.34841 -0.815825 0
M  V30 5055 C 490.214 2.27959 -0.238185 0
M  V30 5056 C 491.214 1.49983 0.579816 0
M  V30 5057 O 492.404 1.69617 0.396953 0
M  V30 5058 C 489.536 3.34314 0.666876 0
M  V30 5059 H 490.729 2.80558 -1.05958 0
M  V30 5060 H 488.282 1.44852 -0.587156 0
M  V30 5061 H 489.017 2.86916 1.5116 0
M  V30 5062 H 488.802 3.92014 0.0819106 0
M  V30 5063 H 490.292 4.0379 1.06506 0
M  V30 5064 N 490.729 0.570148 1.46925 0
M  V30 5065 C 491.977 0.0508523 2.02036 0
M  V30 5066 C 492.298 -1.30885 1.44548 0
M  V30 5067 O 491.568 -1.85647 0.625453 0
M  V30 5068 H 490.148 0.0158088 0.746833 0
M  V30 5069 H 492.81 0.743086 1.80178 0
M  V30 5070 H 491.906 -0.027575 3.12088 0
M  V30 5071 N 492.207 -1.54576 0.307264 0
M  V30 5072 C 493.137 -2.26708 -0.55907 0
M  V30 5073 C 494.118 -1.26893 -1.1328 0
M  V30 5074 O 495.303 -1.55677 -1.16097 0
M  V30 5075 C 492.433 -3.01259 -1.72801 0
M  V30 5076 C 491.387 -4.08275 -1.28435 0
M  V30 5077 C 490.713 -4.70575 -2.53895 0
M  V30 5078 C 492.013 -5.2068 -0.411038 0
M  V30 5079 H 493.707 -2.9937 0.042576 0
M  V30 5080 H 491.253 -1.43983 0.0219173 0
M  V30 5081 H 493.206 -3.50444 -2.34023 0
M  V30 5082 H 491.93 -2.26187 -2.356 0
M  V30 5083 H 490.589 -3.59949 -0.695161 0
M  V30 5084 H 490.237 -3.92136 -3.15021 0
M  V30 5085 H 489.937 -5.42854 -2.24908 0
M  V30 5086 H 491.461 -5.22527 -3.15908 0
M  V30 5087 H 492.875 -5.65721 -0.929097 0
M  V30 5088 H 491.272 -5.99716 -0.214664 0
M  V30 5089 H 492.342 -4.81629 0.562287 0
M  V30 5090 N 493.685 -0.035106 -1.57561 0
M  V30 5091 C 494.931 0.64318 -1.92331 0
M  V30 5092 C 495.264 1.71434 -0.912368 0
M  V30 5093 O 494.539 1.94395 0.0640303 0
M  V30 5094 C 494.822 1.25411 -3.37556 0
M  V30 5095 C 494.675 0.192109 -4.4939 0
M  V30 5096 C 495.994 2.17041 -3.82859 0
M  V30 5097 H 493.113 0.232341 -0.699419 0
M  V30 5098 H 495.755 -0.0935889 -1.89769 0
M  V30 5099 H 493.905 1.88205 -3.39869 0
M  V30 5100 H 495.577 -0.438849 -4.59208 0
M  V30 5101 H 493.82 -0.481725 -4.31117 0
M  V30 5102 H 494.491 0.659292 -5.48049 0
M  V30 5103 H 496.967 1.64228 -3.8232 0
M  V30 5104 H 495.843 2.56738 -4.85157 0
M  V30 5105 H 496.104 3.06401 -3.18702 0
M  V30 5106 N 495.163 1.55791 0.238111 0
M  V30 5107 C 496.388 1.8244 0.986432 0
M  V30 5108 C 496.813 0.613314 1.7782 0
M  V30 5109 O 496.171 -0.437767 1.75935 0
M  V30 5110 C 496.219 3.06917 1.893 0
M  V30 5111 O 495.323 2.84449 2.98601 0
M  V30 5112 H 494.664 0.601975 0.280218 0
M  V30 5113 H 497.194 2.02987 0.256437 0
M  V30 5114 H 497.204 3.36583 2.30598 0
M  V30 5115 H 495.879 3.947 1.31091 0
M  V30 5116 H 494.456 2.65972 2.61368 0
M  V30 5117 N 496.642 -0.504142 1.49319 0
M  V30 5118 C 497.889 -1.25846 1.58647 0
M  V30 5119 C 498.217 -1.92592 0.27177 0
M  V30 5120 O 497.472 -1.81167 -0.74007 0
M  V30 5121 C 497.771 -2.35021 2.69258 0
M  V30 5122 C 497.437 -1.85755 4.1086 0
M  V30 5123 C 496.099 -1.72038 4.49395 0
M  V30 5124 C 498.451 -1.48844 4.99495 0
M  V30 5125 C 495.779 -1.19783 5.74342 0
M  V30 5126 C 498.131 -0.980422 6.24956 0
M  V30 5127 C 496.795 -0.829622 6.62324 0
M  V30 5128 H 496.065 -0.460505 0.580531 0
M  V30 5129 H 498.712 -0.559716 1.83138 0
M  V30 5130 H 497.017 -3.10672 2.38726 0
M  V30 5131 H 498.714 -2.93083 2.73685 0
M  V30 5132 H 495.304 -1.9739 3.80441 0
M  V30 5133 H 499.488 -1.5829 4.70381 0
M  V30 5134 H 494.744 -1.06817 6.01997 0
M  V30 5135 H 498.918 -0.685608 6.93017 0
M  V30 5136 H 496.545 -0.42253 7.59025 0
M  V30 5137 N 498.12 -1.38341 -0.754957 0
M  V30 5138 C 499.348 -1.37704 -1.54419 0
M  V30 5139 C 499.763 0.0335243 -1.8877 0
M  V30 5140 O 499.12 0.999773 -1.52679 0
M  V30 5141 C 499.171 -2.23136 -2.84416 0
M  V30 5142 O 498.892 -3.58697 -2.51531 0
M  V30 5143 C 500.393 -2.30664 -3.78562 0
M  V30 5144 H 497.613 -0.471061 -0.477852 0
M  V30 5145 H 500.157 -1.81902 -0.934446 0
M  V30 5146 H 498.312 -1.82403 -3.41772 0
M  V30 5147 H 498.726 -4.03665 -3.34896 0
M  V30 5148 H 500.2 -2.9473 -4.66732 0
M  V30 5149 H 500.677 -1.3199 -4.18898 0
M  V30 5150 H 501.283 -2.71781 -3.27131 0
M  V30 5151 N 499.598 0.982988 -1.23187 0
M  V30 5152 C 500.844 1.72648 -1.06398 0
M  V30 5153 C 501.177 1.90066 0.398561 0
M  V30 5154 O 500.452 1.45105 1.29518 0
M  V30 5155 C 500.735 3.12627 -1.78707 0
M  V30 5156 C 500.588 3.02795 -3.32618 0
M  V30 5157 C 501.907 4.11997 -1.54747 0
M  V30 5158 H 499.026 0.626649 -0.387918 0
M  V30 5159 H 501.668 1.14455 -1.51658 0
M  V30 5160 H 499.818 3.62308 -1.40234 0
M  V30 5161 H 501.49 2.60659 -3.80598 0
M  V30 5162 H 499.733 2.39362 -3.61785 0
M  V30 5163 H 500.404 4.01893 -3.78399 0
M  V30 5164 H 502.88 3.71114 -1.88186 0
M  V30 5165 H 501.756 5.08037 -2.07821 0
M  V30 5166 H 502.017 4.39462 -0.482249 0
M  V30 5167 N 501.076 1.04316 1.18135 0
M  V30 5168 C 502.353 0.662166 1.84051 0
M  V30 5169 C 502.733 -0.858169 1.9287 0
M  V30 5170 O 502.081 -1.76062 1.45652 0
M  V30 5171 C 502.291 1.3409 3.22212 0
M  V30 5172 C 503.639 1.4733 3.9822 0
M  V30 5173 O 504.663 1.29921 3.31661 0
M  V30 5174 O 503.522 1.75722 5.17479 0
M  V30 5175 H 500.616 0.232005 0.79379 0
M  V30 5176 H 503.162 1.1422 1.25506 0
M  V30 5177 H 501.934 2.37853 3.10711 0
M  V30 5178 H 501.557 0.849649 3.88416 0
M  V30 5179 N 502.554 -1.34406 0.822964 0
M  V30 5180 C 503.779 -2.0304 0.423034 0
M  V30 5181 C 504.204 -1.61568 -0.963196 0
M  V30 5182 O 503.562 -0.800339 -1.62678 0
M  V30 5183 C 503.61 -3.56636 0.53321 0
M  V30 5184 O 502.714 -4.09971 -0.446939 0
M  V30 5185 H 502.055 -0.64075 0.174171 0
M  V30 5186 H 504.585 -1.71653 1.11339 0
M  V30 5187 H 504.595 -4.05945 0.408991 0
M  V30 5188 H 503.27 -3.86168 1.54425 0
M  V30 5189 H 501.847 -3.71835 -0.281601 0
M  V30 5190 N 504.032 -0.577932 -1.46621 0
M  V30 5191 C 505.443 -0.150071 -1.86096 0
M  V30 5192 C 505.794 1.28563 -1.48209 0
M  V30 5193 O 504.919 1.97036 -0.894754 0
M  V30 5194 C 505.514 -0.265576 -3.37758 0
M  V30 5195 C 504.073 0.10738 -3.76247 0
M  V30 5196 C 503.22 -0.603711 -2.70649 0
M  V30 5197 H 506.171 -0.786438 -1.37844 0
M  V30 5198 H 506.192 0.510352 -3.77062 0
M  V30 5199 H 505.704 -1.3106 -3.65301 0
M  V30 5200 H 503.805 1.15272 -3.54321 0
M  V30 5201 H 503.918 -0.26561 -4.78363 0
M  V30 5202 H 502.282 -0.0444884 -2.54661 0
M  V30 5203 H 503.065 -1.65029 -3.01032 0
M  V30 5204 N 505.51 1.54411 -0.315457 0
M  V30 5205 C 506.44 2.27002 0.547039 0
M  V30 5206 C 507.421 1.27492 1.12605 0
M  V30 5207 O 508.606 1.5629 1.15269 0
M  V30 5208 C 505.736 3.02171 1.71201 0
M  V30 5209 C 504.69 4.0895 1.26268 0
M  V30 5210 C 504.016 4.71915 2.51396 0
M  V30 5211 C 505.316 5.20891 0.383419 0
M  V30 5212 H 507.01 2.99343 -0.0584517 0
M  V30 5213 H 504.556 1.4397 -0.0295527 0
M  V30 5214 H 506.509 3.51681 2.32161 0
M  V30 5215 H 505.233 2.27433 2.34397 0
M  V30 5216 H 503.892 3.60312 0.676062 0
M  V30 5217 H 503.54 3.93801 3.12937 0
M  V30 5218 H 503.24 5.44039 2.22026 0
M  V30 5219 H 504.764 5.24195 3.13133 0
M  V30 5220 H 506.178 5.66206 0.899082 0
M  V30 5221 H 504.575 5.99821 0.182857 0
M  V30 5222 H 505.645 4.81324 -0.587821 0
M  V30 5223 N 506.988 0.0434614 1.5754 0
M  V30 5224 C 508.236 -0.630786 1.92004 0
M  V30 5225 C 508.557 -1.71836 0.921807 0
M  V30 5226 O 507.827 -1.9587 -0.034522 0
M  V30 5227 H 506.407 -0.235988 0.708745 0
M  V30 5228 H 509.069 0.0946462 1.9467 0
M  V30 5229 H 508.165 -1.07434 2.93026 0
M  V30 5230 N 508.466 -1.55915 -0.229846 0
M  V30 5231 C 509.416 -1.8813 -1.28807 0
M  V30 5232 C 510.4 -0.743621 -1.42685 0
M  V30 5233 O 511.592 -1.00588 -1.4564 0
M  V30 5234 C 508.721 -2.19431 -2.64017 0
M  V30 5235 C 507.807 -3.39569 -2.54074 0
M  V30 5236 N 508.198 -4.58404 -2.13774 0
M  V30 5237 C 506.496 -3.43019 -2.85051 0
M  V30 5238 C 507.197 -5.40557 -2.1488 0
M  V30 5239 N 506.173 -4.80054 -2.55047 0
M  V30 5240 H 509.975 -2.77527 -0.967261 0
M  V30 5241 H 507.489 -1.5637 -0.438433 0
M  V30 5242 H 509.486 -2.40681 -3.40409 0
M  V30 5243 H 508.146 -1.31341 -2.9695 0
M  V30 5244 H 509.157 -4.83716 -1.8504 0
M  V30 5245 H 505.834 -2.65249 -3.22411 0
M  V30 5246 H 507.224 -6.45666 -1.85918 0
M  V30 5247 N 509.944 0.496216 -1.49584 0
M  V30 5248 C 511.36 0.827814 -1.36453 0
M  V30 5249 C 511.56 1.97464 -0.401285 0
M  V30 5250 O 510.616 2.51958 0.165296 0
M  V30 5251 C 511.929 1.16352 -2.77277 0
M  V30 5252 C 513.477 1.27145 -2.86013 0
M  V30 5253 C 513.952 1.64042 -4.27615 0
M  V30 5254 N 515.443 1.71082 -4.30448 0
M  V30 5255 C 516.178 2.01085 -5.36984 0
M  V30 5256 N 515.674 2.2928 -6.5376 0
M  V30 5257 N 517.467 2.02376 -5.24405 0
M  V30 5258 H 509.618 -0.259947 -2.10803 0
M  V30 5259 H 511.881 -0.0537163 -0.946477 0
M  V30 5260 H 511.587 0.394153 -3.49484 0
M  V30 5261 H 511.461 2.10582 -3.12946 0
M  V30 5262 H 513.848 2.03152 -2.1404 0
M  V30 5263 H 513.929 0.309542 -2.5392 0
M  V30 5264 H 513.573 0.88583 -5.00115 0
M  V30 5265 H 513.503 2.6134 -4.57175 0
M  V30 5266 H 515.994 1.51434 -3.46232 0
M  V30 5267 H 516.307 2.51376 -7.30774 0
M  V30 5268 H 514.652 2.26726 -6.56978 0
M  V30 5269 H 517.843 1.79829 -4.32179 0
M  V30 5270 H 518.016 2.25425 -6.07526 0
M  V30 5271 N 511.423 1.38739 0.74761 0
M  V30 5272 C 512.386 1.36241 1.84312 0
M  V30 5273 C 513.386 0.261811 1.58654 0
M  V30 5274 O 514.576 0.519031 1.66288 0
M  V30 5275 C 511.708 1.12253 3.21888 0
M  V30 5276 H 512.901 2.33712 1.87933 0
M  V30 5277 H 510.454 1.2412 0.949946 0
M  V30 5278 H 511.189 0.154133 3.23934 0
M  V30 5279 H 510.974 1.91943 3.41907 0
M  V30 5280 H 512.464 1.13215 4.0196 0
M  V30 5281 N 512.901 -0.976442 1.23707 0
M  V30 5282 C 514.15 -1.71254 1.06559 0
M  V30 5283 C 514.463 -1.91528 -0.397024 0
M  V30 5284 O 515.669 -2.62625 -0.688518 0
M  V30 5285 C 514.125 -3.08207 1.8584 0
M  V30 5286 C 513.733 -2.95806 3.36456 0
M  V30 5287 C 515.477 -3.85749 1.77194 0
M  V30 5288 C 513.384 -4.28015 4.08114 0
M  V30 5289 H 512.314 -0.642171 0.395136 0
M  V30 5290 H 514.965 -1.08877 1.4771 0
M  V30 5291 H 513.347 -3.71363 1.37498 0
M  V30 5292 H 514.521 -2.41716 3.92314 0
M  V30 5293 H 512.836 -2.31736 3.45959 0
M  V30 5294 H 515.433 -4.83633 2.28041 0
M  V30 5295 H 515.776 -4.09752 0.735477 0
M  V30 5296 H 516.309 -3.29303 2.23169 0
M  V30 5297 H 513.048 -4.09208 5.12083 0
M  V30 5298 H 512.568 -4.81955 3.57043 0
M  V30 5299 H 514.247 -4.96681 4.14629 0
M  V30 5300 N 514.379 -1.04941 -1.1758 0
M  V30 5301 C 515.625 -0.759112 -1.88057 0
M  V30 5302 C 515.958 0.711918 -1.8068 0
M  V30 5303 O 515.233 1.52035 -1.21308 0
M  V30 5304 C 515.516 -1.237 -3.38187 0
M  V30 5305 C 515.369 -2.77078 -3.54327 0
M  V30 5306 C 516.688 -0.834014 -4.32125 0
M  V30 5307 H 513.807 -0.277237 -0.682868 0
M  V30 5308 H 516.449 -1.30296 -1.38286 0
M  V30 5309 H 514.599 -0.774337 -3.80705 0
M  V30 5310 H 516.271 -3.31449 -3.20842 0
M  V30 5311 H 514.514 -3.16477 -2.96689 0
M  V30 5312 H 515.185 -3.05577 -4.59703 0
M  V30 5313 H 517.661 -1.23228 -3.97434 0
M  V30 5314 H 516.537 -1.19603 -5.35711 0
M  V30 5315 H 516.798 0.262195 -4.41322 0
M  V30 5316 N 515.857 1.33968 -0.830081 0
M  V30 5317 C 516.789 2.28194 -0.21448 0
M  V30 5318 C 517.802 1.5135 0.599752 0
M  V30 5319 O 518.991 1.73286 0.42826 0
M  V30 5320 C 516.091 3.31221 0.717356 0
M  V30 5321 C 515.264 4.37365 -0.055613 0
M  V30 5322 C 514.323 5.2011 0.798231 0
M  V30 5323 O 513.349 5.68691 0.240616 0
M  V30 5324 N 514.551 5.40523 2.11695 0
M  V30 5325 H 517.316 2.81662 -1.02405 0
M  V30 5326 H 514.877 1.46568 -0.687713 0
M  V30 5327 H 516.869 3.83477 1.29334 0
M  V30 5328 H 515.439 2.78095 1.42765 0
M  V30 5329 H 514.659 3.85727 -0.812936 0
M  V30 5330 H 515.947 5.05397 -0.587444 0
M  V30 5331 H 515.345 5.0274 2.59363 0
M  V30 5332 H 513.902 5.95871 2.64162 0
M  V30 5333 N 517.335 0.585699 1.46312 0
M  V30 5334 C 518.282 -0.145835 2.30339 0
M  V30 5335 C 519.252 -0.881215 1.40797 0
M  V30 5336 O 520.437 -0.871293 1.69744 0
M  V30 5337 C 517.577 -1.15161 3.25318 0
M  V30 5338 C 516.69 -0.419367 4.2996 0
M  V30 5339 C 515.825 -1.41293 5.12064 0
M  V30 5340 C 514.864 -0.667261 6.08452 0
M  V30 5341 N 514.001 -1.60903 6.83414 0
M  V30 5342 H 518.841 0.576755 2.92365 0
M  V30 5343 H 516.378 0.296237 1.44086 0
M  V30 5344 H 518.336 -1.74763 3.78832 0
M  V30 5345 H 516.966 -1.84188 2.65094 0
M  V30 5346 H 516.018 0.291751 3.7928 0
M  V30 5347 H 517.33 0.163433 4.98532 0
M  V30 5348 H 516.484 -2.08167 5.6987 0
M  V30 5349 H 515.223 -2.02966 4.43459 0
M  V30 5350 H 514.228 0.0152356 5.49798 0
M  V30 5351 H 515.453 -0.0558817 6.79077 0
M  V30 5352 H 513.399 -2.21381 6.17516 0
M  V30 5353 H 513.316 -1.07911 7.48259 0
M  V30 5354 H 514.584 -2.26802 7.45775 0
M  V30 5355 N 518.813 -1.54241 0.323641 0
M  V30 5356 C 519.743 -2.27289 -0.534993 0
M  V30 5357 C 520.724 -1.28087 -1.11927 0
M  V30 5358 O 521.909 -1.56899 -1.14439 0
M  V30 5359 C 519.039 -3.03075 -1.69596 0
M  V30 5360 C 517.993 -4.09614 -1.24098 0
M  V30 5361 C 517.319 -4.73242 -2.4889 0
M  V30 5362 C 518.619 -5.21087 -0.355789 0
M  V30 5363 H 520.313 -2.99308 0.0743257 0
M  V30 5364 H 517.859 -1.43952 0.0371874 0
M  V30 5365 H 519.812 -3.52907 -2.30293 0
M  V30 5366 H 518.536 -2.28673 -2.33187 0
M  V30 5367 H 517.195 -3.60666 -0.656945 0
M  V30 5368 H 516.843 -3.95455 -3.10845 0
M  V30 5369 H 516.543 -5.45209 -2.19138 0
M  V30 5370 H 518.067 -5.25848 -3.10348 0
M  V30 5371 H 519.481 -5.66675 -0.869042 0
M  V30 5372 H 517.878 -5.9991 -0.151045 0
M  V30 5373 H 518.948 -4.81005 0.613339 0
M  V30 5374 N 520.291 -0.0518155 -1.57515 0
M  V30 5375 C 521.201 0.937539 -2.15052 0
M  V30 5376 C 522.217 1.34121 -1.10849 0
M  V30 5377 O 523.393 1.418 -1.4302 0
M  V30 5378 C 520.458 2.19379 -2.68466 0
M  V30 5379 C 519.519 1.84841 -3.87469 0
M  V30 5380 C 518.752 3.04477 -4.38326 0
M  V30 5381 O 518.975 4.17868 -3.88256 0
M  V30 5382 O 517.909 2.85453 -5.29906 0
M  V30 5383 H 521.735 0.478201 -2.99912 0
M  V30 5384 H 519.32 0.17012 -1.48428 0
M  V30 5385 H 521.202 2.93084 -3.02787 0
M  V30 5386 H 519.877 2.64449 -1.86677 0
M  V30 5387 H 518.784 1.08449 -3.58036 0
M  V30 5388 H 520.117 1.44569 -4.7049 0
M  V30 5389 N 521.769 1.56035 0.221574 0
M  V30 5390 C 522.679 1.95581 1.29558 0
M  V30 5391 C 523.695 0.859639 1.51282 0
M  V30 5392 O 524.871 1.16321 1.64413 0
M  V30 5393 C 521.936 2.26447 2.62531 0
M  V30 5394 C 520.997 3.49632 2.4911 0
M  V30 5395 C 520.23 3.79017 3.75742 0
M  V30 5396 O 520.453 3.10077 4.78757 0
M  V30 5397 O 519.387 4.72507 3.72855 0
M  V30 5398 H 523.213 2.8711 0.990035 0
M  V30 5399 H 520.798 1.43244 0.424434 0
M  V30 5400 H 522.68 2.47494 3.41064 0
M  V30 5401 H 521.355 1.38092 2.92766 0
M  V30 5402 H 520.262 3.33864 1.68777 0
M  V30 5403 H 521.595 4.3837 2.23814 0
M  V30 5404 N 523.247 -0.488276 1.49845 0
M  V30 5405 C 524.179 -1.60539 1.63584 0
M  V30 5406 C 525.192 -1.5434 0.517972 0
M  V30 5407 O 526.381 -1.60041 0.790516 0
M  V30 5408 C 523.481 -2.99374 1.58835 0
M  V30 5409 C 522.654 -3.30624 2.86368 0
M  V30 5410 C 521.713 -4.4893 2.74496 0
M  V30 5411 O 520.739 -4.50085 3.48443 0
M  V30 5412 N 521.941 -5.49591 1.86894 0
M  V30 5413 H 524.706 -1.49176 2.59936 0
M  V30 5414 H 522.267 -0.67639 1.47094 0
M  V30 5415 H 524.259 -3.76459 1.48529 0
M  V30 5416 H 522.829 -3.04595 0.702892 0
M  V30 5417 H 522.049 -2.42314 3.1093 0
M  V30 5418 H 523.337 -3.48305 3.70892 0
M  V30 5419 H 522.735 -5.51467 1.26097 0
M  V30 5420 H 521.292 -6.25728 1.82503 0
M  V30 5421 N 524.725 -1.39134 -0.740242 0
M  V30 5422 C 526.141 -1.20623 -1.0451 0
M  V30 5423 C 526.341 -0.0641651 -2.01398 0
M  V30 5424 O 525.397 0.585843 -2.4561 0
M  V30 5425 C 526.71 -2.53815 -1.6124 0
M  V30 5426 C 528.258 -2.60615 -1.73346 0
M  V30 5427 C 528.733 -3.94015 -2.33486 0
M  V30 5428 N 530.224 -3.95627 -2.40902 0
M  V30 5429 C 530.959 -4.95616 -2.88361 0
M  V30 5430 N 530.455 -6.06003 -3.35756 0
M  V30 5431 N 532.248 -4.82998 -2.87523 0
M  V30 5432 H 524.399 -2.12176 -0.0975576 0
M  V30 5433 H 526.662 -0.942066 -0.105904 0
M  V30 5434 H 526.368 -3.37911 -0.975144 0
M  V30 5435 H 526.242 -2.73162 -2.6012 0
M  V30 5436 H 528.629 -1.76906 -2.36195 0
M  V30 5437 H 528.71 -2.45123 -0.731336 0
M  V30 5438 H 528.354 -4.78153 -1.71267 0
M  V30 5439 H 528.284 -4.06825 -3.34366 0
M  V30 5440 H 530.775 -3.15903 -2.07398 0
M  V30 5441 H 531.088 -6.78215 -3.70464 0
M  V30 5442 H 529.433 -6.09604 -3.33778 0
M  V30 5443 H 532.624 -3.95866 -2.49816 0
M  V30 5444 H 532.797 -5.61072 -3.24196 0
M  V30 5445 N 526.204 0.969867 -1.24223 0
M  V30 5446 C 527.453 1.70687 -1.07466 0
M  V30 5447 C 527.766 1.91736 0.386861 0
M  V30 5448 O 528.972 2.62986 0.674581 0
M  V30 5449 C 527.428 3.07217 -1.87472 0
M  V30 5450 C 527.036 2.94018 -3.3802 0
M  V30 5451 C 528.78 3.84804 -1.79237 0
M  V30 5452 C 526.687 4.25844 -4.10379 0
M  V30 5453 H 525.617 0.640067 -0.398536 0
M  V30 5454 H 528.268 1.08092 -1.48285 0
M  V30 5455 H 526.65 3.70628 -1.39466 0
M  V30 5456 H 527.824 2.39632 -3.9359 0
M  V30 5457 H 526.139 2.29898 -3.47183 0
M  V30 5458 H 528.736 4.82417 -2.30603 0
M  V30 5459 H 529.079 4.09356 -0.757197 0
M  V30 5460 H 529.612 3.28115 -2.24912 0
M  V30 5461 H 526.351 4.06486 -5.14246 0
M  V30 5462 H 525.871 4.80054 -3.59594 0
M  V30 5463 H 527.55 4.94475 -4.17257 0
M  V30 5464 N 527.682 1.05563 1.17022 0
M  V30 5465 C 528.912 0.787307 1.91011 0
M  V30 5466 C 529.32 -0.661256 1.77268 0
M  V30 5467 O 528.663 -1.46379 1.10991 0
M  V30 5468 C 528.725 1.09313 3.42478 0
M  V30 5469 C 528.389 2.53863 3.80004 0
M  V30 5470 C 529.386 3.52081 3.82538 0
M  V30 5471 C 527.071 2.88969 4.10855 0
M  V30 5472 C 529.065 4.83449 4.15399 0
M  V30 5473 C 526.752 4.2054 4.43384 0
M  V30 5474 C 527.75 5.17589 4.45635 0
M  V30 5475 O 527.438 6.46799 4.77395 0
M  V30 5476 H 527.17 0.285463 0.61277 0
M  V30 5477 H 529.724 1.41051 1.49311 0
M  V30 5478 H 527.954 0.412833 3.8449 0
M  V30 5479 H 529.643 0.810224 3.97731 0
M  V30 5480 H 530.409 3.26299 3.58823 0
M  V30 5481 H 526.288 2.1409 4.08272 0
M  V30 5482 H 529.832 5.59194 4.1707 0
M  V30 5483 H 525.729 4.46083 4.66563 0
M  V30 5484 H 526.497 6.51677 4.95237 0
M  V30 5485 N 529.16 -1.33526 0.837174 0
M  V30 5486 C 530.09 -2.31764 0.284206 0
M  V30 5487 C 531.071 -1.58896 -0.607142 0
M  V30 5488 O 532.256 -1.86798 -0.531047 0
M  V30 5489 C 529.386 -3.43029 -0.542962 0
M  V30 5490 C 528.34 -4.27255 0.252451 0
M  V30 5491 C 527.666 -5.3012 -0.69836 0
M  V30 5492 C 528.966 -5.01229 1.46858 0
M  V30 5493 H 530.66 -2.78262 1.10502 0
M  V30 5494 H 528.206 -1.3378 0.532812 0
M  V30 5495 H 530.159 -4.1078 -0.940096 0
M  V30 5496 H 528.883 -2.95216 -1.39697 0
M  V30 5497 H 527.542 -3.61127 0.631124 0
M  V30 5498 H 527.19 -4.78564 -1.54872 0
M  V30 5499 H 526.89 -5.87353 -0.170274 0
M  V30 5500 H 528.414 -6.00737 -1.09305 0
M  V30 5501 H 529.828 -5.61756 1.14469 0
M  V30 5502 H 528.225 -5.68104 1.93333 0
M  V30 5503 H 529.295 -4.301 2.23924 0
M  V30 5504 N 530.638 -0.59345 -1.46 0
M  V30 5505 C 532.054 -0.255965 -1.57534 0
M  V30 5506 C 532.254 1.24167 -1.58697 0
M  V30 5507 O 531.31 2.02398 -1.50968 0
M  V30 5508 C 532.623 -0.91466 -2.86451 0
M  V30 5509 C 534.171 -0.889253 -3.00102 0
M  V30 5510 C 534.646 -1.52769 -4.3177 0
M  V30 5511 N 536.137 -1.49253 -4.38495 0
M  V30 5512 C 536.872 -1.9558 -5.39014 0
M  V30 5513 N 536.368 -2.49929 -6.46148 0
M  V30 5514 N 538.161 -1.86432 -5.30282 0
M  V30 5515 H 530.312 -1.56604 -1.43489 0
M  V30 5516 H 532.575 -0.655207 -0.685133 0
M  V30 5517 H 532.281 -1.96861 -2.91442 0
M  V30 5518 H 532.155 -0.429356 -3.74748 0
M  V30 5519 H 534.542 0.156111 -2.94687 0
M  V30 5520 H 534.623 -1.41268 -2.13253 0
M  V30 5521 H 534.267 -2.57231 -4.37944 0
M  V30 5522 H 534.197 -0.979398 -5.17412 0
M  V30 5523 H 536.688 -1.09536 -3.61677 0
M  V30 5524 H 537.001 -2.83109 -7.19075 0
M  V30 5525 H 535.346 -2.53961 -6.46938 0
M  V30 5526 H 538.537 -1.43722 -4.4549 0
M  V30 5527 H 538.71 -2.22852 -6.08474 0
M  V30 5528 N 532.116 1.54067 -0.331816 0
M  V30 5529 C 533.344 2.05131 0.269996 0
M  V30 5530 C 533.759 1.20749 1.45138 0
M  V30 5531 O 533.116 0.240069 1.80914 0
M  V30 5532 C 533.167 3.54728 0.696456 0
M  V30 5533 O 532.888 4.35906 -0.43794 0
M  V30 5534 C 534.389 4.21916 1.36021 0
M  V30 5535 H 531.609 0.668807 0.0542042 0
M  V30 5536 H 534.153 1.98777 -0.4804 0
M  V30 5537 H 532.308 3.61342 1.39681 0
M  V30 5538 H 532.722 5.24404 -0.100334 0
M  V30 5539 H 534.196 5.28015 1.60947 0
M  V30 5540 H 534.673 3.73538 2.31011 0
M  V30 5541 H 535.279 4.19463 0.702212 0
M  V30 5542 N 533.594 0.0601682 1.57485 0
M  V30 5543 C 534.843 -0.611101 1.9222 0
M  V30 5544 C 535.156 -1.71469 0.941159 0
M  V30 5545 O 536.362 -2.44473 1.18089 0
M  V30 5546 C 534.818 -1.13832 3.41424 0
M  V30 5547 C 534.426 -0.0663596 4.47951 0
M  V30 5548 C 536.17 -1.78432 3.85178 0
M  V30 5549 C 534.077 -0.606965 5.88277 0
M  V30 5550 H 533.007 -0.232033 0.71741 0
M  V30 5551 H 535.658 0.130518 1.83035 0
M  V30 5552 H 534.04 -1.93254 3.45643 0
M  V30 5553 H 535.214 0.707682 4.55333 0
M  V30 5554 H 533.529 0.482715 4.13593 0
M  V30 5555 H 536.126 -2.1989 4.87394 0
M  V30 5556 H 536.469 -2.63966 3.21913 0
M  V30 5557 H 537.002 -1.05651 3.83514 0
M  V30 5558 H 533.741 0.21095 6.5516 0
M  V30 5559 H 533.261 -1.34879 5.84438 0
M  V30 5560 H 534.94 -1.08704 6.37803 0
M  V30 5561 N 535.072 -1.5615 -0.213296 0
M  V30 5562 C 536.035 -1.92249 -1.24792 0
M  V30 5563 C 537.035 -0.801828 -1.39382 0
M  V30 5564 O 538.225 -1.06948 -1.37506 0
M  V30 5565 C 535.357 -2.18056 -2.62039 0
M  V30 5566 H 536.55 -2.84793 -0.939845 0
M  V30 5567 H 534.103 -1.49559 -0.454062 0
M  V30 5568 H 534.838 -1.2809 -2.97932 0
M  V30 5569 H 534.623 -2.99703 -2.52825 0
M  V30 5570 H 536.113 -2.47051 -3.36683 0
M  V30 5571 N 536.55 0.480323 -1.50102 0
M  V30 5572 C 537.827 1.24159 -1.51142 0
M  V30 5573 C 538.207 2.09605 -0.250818 0
M  V30 5574 O 537.555 2.15274 0.766118 0
M  V30 5575 C 537.765 2.08057 -2.80202 0
M  V30 5576 C 539.113 2.66556 -3.30504 0
M  V30 5577 O 540.137 2.18308 -2.81461 0
M  V30 5578 O 538.996 3.54442 -4.15973 0
M  V30 5579 H 536.09 0.562928 -0.605839 0
M  V30 5580 H 538.636 0.492899 -1.62384 0
M  V30 5581 H 537.408 1.45032 -3.6343 0
M  V30 5582 H 537.031 2.90079 -2.71919 0
M  V30 5583 N 538.028 1.39524 0.732853 0
M  V30 5584 C 539.439 1.32905 1.31122 0
M  V30 5585 C 539.79 -0.00558708 1.96199 0
M  V30 5586 O 538.915 -0.907706 1.96443 0
M  V30 5587 C 539.51 2.40704 2.38426 0
M  V30 5588 C 538.069 2.37599 2.91931 0
M  V30 5589 C 537.216 2.2248 1.65523 0
M  V30 5590 H 540.167 1.49581 0.530207 0
M  V30 5591 H 540.188 2.07616 3.18867 0
M  V30 5592 H 539.7 3.37829 1.91033 0
M  V30 5593 H 537.801 1.44119 3.43599 0
M  V30 5594 H 537.914 3.32538 3.44899 0
M  V30 5595 H 536.278 1.69691 1.8994 0
M  V30 5596 H 537.061 3.21577 1.20178 0
M  V30 5597 N 539.506 -0.963266 1.24736 0
M  V30 5598 C 540.783 -1.68248 0.9976 0
M  V30 5599 C 541.163 -2.05599 -0.478776 0
M  V30 5600 O 540.511 -1.7626 -1.45412 0
M  V30 5601 C 540.721 -2.91118 1.92487 0
M  V30 5602 C 542.069 -3.63261 2.19833 0
M  V30 5603 O 543.093 -3.01184 1.90176 0
M  V30 5604 O 541.952 -4.75019 2.7022 0
M  V30 5605 H 539.046 -0.735744 0.377637 0
M  V30 5606 H 541.592 -1.01696 1.35853 0
M  V30 5607 H 540.364 -2.60242 2.92215 0
M  V30 5608 H 539.987 -3.65402 1.56738 0
M  V30 5609 N 540.985 -1.06182 -1.16461 0
M  V30 5610 C 542.225 -0.787048 -1.8864 0
M  V30 5611 C 542.589 0.674093 -1.79778 0
M  V30 5612 O 543.79 1.06341 -2.46871 0
M  V30 5613 C 542.061 -1.2666 -3.34203 0
M  V30 5614 S 543.62 -1.12071 -4.24247 0
M  V30 5615 H 540.438 -0.285539 -0.651144 0
M  V30 5616 H 543.04 -1.35851 -1.40587 0
M  V30 5617 H 541.744 -2.32496 -3.38192 0
M  V30 5618 H 541.275 -0.689841 -3.87304 0
M  V30 5619 H 543.29 -0.0509341 -4.96174 0
M  V30 5620 N 542.463 1.3308 -0.844243 0
M  V30 5621 C 543.712 1.96868 -0.438833 0
M  V30 5622 C 544.025 1.67599 1.00846 0
M  V30 5623 O 545.231 2.25043 1.51881 0
M  V30 5624 C 543.687 3.5234 -0.73377 0
M  V30 5625 C 543.295 3.90481 -2.1961 0
M  V30 5626 C 545.039 4.22653 -0.395574 0
M  V30 5627 C 542.946 5.38954 -2.43481 0
M  V30 5628 H 541.876 0.736749 -0.160364 0
M  V30 5629 H 544.527 1.51623 -1.03358 0
M  V30 5630 H 542.909 3.95941 -0.068589 0
M  V30 5631 H 544.083 3.57922 -2.90221 0
M  V30 5632 H 542.398 3.33165 -2.4978 0
M  V30 5633 H 544.995 5.31848 -0.551477 0
M  V30 5634 H 545.338 4.11004 0.661921 0
M  V30 5635 H 545.871 3.84601 -1.01621 0
M  V30 5636 H 542.61 5.55612 -3.47816 0
M  V30 5637 H 542.13 5.72954 -1.77437 0
M  V30 5638 H 543.809 6.05907 -2.26905 0
M  V30 5639 N 543.941 0.601185 1.45683 0
M  V30 5640 C 545.357 0.264315 1.57396 0
M  V30 5641 C 545.557 -1.23324 1.59353 0
M  V30 5642 O 544.613 -2.01594 1.52039 0
M  V30 5643 C 545.926 0.929839 2.85962 0
M  V30 5644 C 547.474 0.905156 2.99626 0
M  V30 5645 C 547.949 1.55057 4.30954 0
M  V30 5646 N 549.44 1.51576 4.37697 0
M  V30 5647 C 550.175 1.98436 5.37969 0
M  V30 5648 N 549.671 2.53352 6.44813 0
M  V30 5649 N 551.464 1.89242 5.29286 0
M  V30 5650 H 543.615 1.57363 1.42656 0
M  V30 5651 H 545.878 0.658831 0.681649 0
M  V30 5652 H 545.584 1.98404 2.90394 0
M  V30 5653 H 545.458 0.449224 3.74515 0
M  V30 5654 H 547.845 -0.14048 2.94765 0
M  V30 5655 H 547.926 1.42397 2.12501 0
M  V30 5656 H 547.57 2.5955 4.36573 0
M  V30 5657 H 547.5 1.00682 5.16886 0
M  V30 5658 H 549.991 1.11452 3.61091 0
M  V30 5659 H 550.304 2.86918 7.17564 0
M  V30 5660 H 548.649 2.57388 6.45582 0
M  V30 5661 H 551.84 1.46083 4.44722 0
M  V30 5662 H 552.013 2.26075 6.07284 0
M  V30 5663 N 545.419 -1.53889 0.339982 0
M  V30 5664 C 546.382 -2.23547 -0.50592 0
M  V30 5665 C 547.382 -1.23445 -1.03044 0
M  V30 5666 O 548.572 -1.47909 -0.920253 0
M  V30 5667 C 545.704 -2.95234 -1.7044 0
M  V30 5668 H 546.897 -2.99722 0.103247 0
M  V30 5669 H 544.45 -1.56033 0.0912804 0
M  V30 5670 H 545.185 -2.23236 -2.35236 0
M  V30 5671 H 544.97 -3.68654 -1.33553 0
M  V30 5672 H 546.46 -3.48258 -2.30447 0
M  V30 5673 N 546.897 -0.0685191 -1.57451 0
M  V30 5674 C 548.137 0.605038 -1.9524 0
M  V30 5675 C 548.501 1.66974 -0.947816 0
M  V30 5676 O 549.702 2.39862 -1.21325 0
M  V30 5677 C 547.973 1.16999 -3.37707 0
M  V30 5678 S 549.532 1.85913 -3.97469 0
M  V30 5679 H 546.35 0.198203 -0.682815 0
M  V30 5680 H 548.952 -0.141594 -1.94987 0
M  V30 5681 H 547.656 0.383205 -4.08607 0
M  V30 5682 H 547.187 1.95305 -3.41496 0
M  V30 5683 H 549.202 3.14128 -3.84107 0
M  V30 5684 N 548.375 1.56261 0.205012 0
M  V30 5685 C 549.615 1.81823 0.933806 0
M  V30 5686 C 549.979 0.644534 1.80858 0
M  V30 5687 O 551.18 0.779819 2.5724 0
M  V30 5688 C 549.451 3.12362 1.7368 0
M  V30 5689 S 551.01 3.59296 2.51897 0
M  V30 5690 H 547.828 0.638209 0.313386 0
M  V30 5691 H 550.43 1.94495 0.198001 0
M  V30 5692 H 549.134 3.95809 1.08459 0
M  V30 5693 H 548.665 3.02542 2.5146 0
M  V30 5694 H 550.68 3.23945 3.75864 0
M  V30 5695 N 549.853 -0.472356 1.50355 0
M  V30 5696 C 550.803 -1.56809 1.65514 0
M  V30 5697 C 551.787 -1.5261 0.509801 0
M  V30 5698 O 552.979 -1.59655 0.764145 0
M  V30 5699 C 550.108 -2.9526 1.75146 0
M  V30 5700 C 549.194 -3.04348 2.95353 0
M  V30 5701 N 549.585 -2.83253 4.19048 0
M  V30 5702 C 547.883 -3.35482 2.93884 0
M  V30 5703 C 548.584 -2.97273 5.00003 0
M  V30 5704 N 547.56 -3.27418 4.33934 0
M  V30 5705 H 551.362 -1.39197 2.58846 0
M  V30 5706 H 548.876 -0.67906 1.47521 0
M  V30 5707 H 550.873 -3.74044 1.8411 0
M  V30 5708 H 549.533 -3.1392 0.829717 0
M  V30 5709 H 550.544 -2.5886 4.48567 0
M  V30 5710 H 547.221 -3.60138 2.11204 0
M  V30 5711 H 548.611 -2.85214 6.08361 0
M  V30 5712 N 551.331 -1.39911 -0.725443 0
M  V30 5713 C 552.561 -1.40744 -1.51244 0
M  V30 5714 C 552.969 -0.00275403 -1.892 0
M  V30 5715 O 552.312 0.981299 -1.55294 0
M  V30 5716 C 552.374 -2.22527 -2.82351 0
M  V30 5717 C 552.038 -3.71053 -2.66774 0
M  V30 5718 C 553.035 -4.63916 -2.34686 0
M  V30 5719 C 550.72 -4.14753 -2.83347 0
M  V30 5720 C 552.714 -5.98463 -2.19366 0
M  V30 5721 C 550.401 -5.49372 -2.67644 0
M  V30 5722 C 551.399 -6.41042 -2.357 0
M  V30 5723 O 551.087 -7.73181 -2.20107 0
M  V30 5724 H 550.819 -0.482314 -0.473655 0
M  V30 5725 H 553.373 -1.84472 -0.903284 0
M  V30 5726 H 551.603 -1.73563 -3.45562 0
M  V30 5727 H 553.292 -2.15421 -3.44018 0
M  V30 5728 H 554.058 -4.31453 -2.21525 0
M  V30 5729 H 549.937 -3.43728 -3.072 0
M  V30 5730 H 553.481 -6.69979 -1.94354 0
M  V30 5731 H 549.378 -5.81424 -2.80387 0
M  V30 5732 H 550.146 -7.84008 -2.35103 0
M  V30 5733 N 552.809 0.956637 -1.25245 0
M  V30 5734 C 554.058 1.69537 -1.0927 0
M  V30 5735 C 554.371 1.92136 0.366503 0
M  V30 5736 O 555.577 2.63687 0.64665 0
M  V30 5737 C 554.033 3.05211 -1.9072 0
M  V30 5738 C 553.641 2.90416 -3.41119 0
M  V30 5739 C 555.385 3.82882 -1.83308 0
M  V30 5740 C 553.292 4.21468 -4.14872 0
M  V30 5741 H 552.222 0.635804 -0.405302 0
M  V30 5742 H 554.873 1.06513 -1.49423 0
M  V30 5743 H 553.255 3.69128 -1.43389 0
M  V30 5744 H 554.429 2.35444 -3.9611 0
M  V30 5745 H 552.744 2.26203 -3.49602 0
M  V30 5746 H 555.341 4.79944 -2.35706 0
M  V30 5747 H 555.684 4.0853 -0.800572 0
M  V30 5748 H 556.217 3.25711 -2.28379 0
M  V30 5749 H 552.956 4.01009 -5.18529 0
M  V30 5750 H 552.476 4.76213 -3.64665 0
M  V30 5751 H 554.155 4.90022 -4.22478 0
M  V30 5752 N 554.287 1.06798 1.15896 0
M  V30 5753 C 555.515 0.808694 1.90441 0
M  V30 5754 C 555.93 -0.637506 1.77711 0
M  V30 5755 O 555.287 -1.43684 1.12522 0
M  V30 5756 C 555.338 1.20068 3.40978 0
M  V30 5757 O 555.059 2.59013 3.53333 0
M  V30 5758 C 556.56 0.96987 4.3256 0
M  V30 5759 H 553.78 0.292809 0.603742 0
M  V30 5760 H 556.324 1.42296 1.46874 0
M  V30 5761 H 554.479 0.630842 3.82229 0
M  V30 5762 H 554.893 2.7485 4.46719 0
M  V30 5763 H 556.367 1.29371 5.36626 0
M  V30 5764 H 556.844 -0.0941209 4.39099 0
M  V30 5765 H 557.45 1.52433 3.97044 0
M  V30 5766 N 555.766 -1.3263 0.851289 0
M  V30 5767 C 557.043 -1.91982 0.374448 0
M  V30 5768 C 557.423 -1.77568 -1.14161 0
M  V30 5769 O 556.771 -1.1717 -1.96172 0
M  V30 5770 C 556.981 -3.38862 0.835088 0
M  V30 5771 C 558.329 -4.15999 0.850309 0
M  V30 5772 O 559.353 -3.47566 0.779505 0
M  V30 5773 O 558.212 -5.38189 0.949481 0
M  V30 5774 H 555.306 -0.819846 0.10854 0
M  V30 5775 H 557.852 -1.41422 0.937966 0
M  V30 5776 H 556.624 -3.43281 1.87814 0
M  V30 5777 H 556.247 -3.96821 0.248833 0
M  V30 5778 N 557.244 -0.608902 -1.45362 0
M  V30 5779 C 558.154 0.110969 -2.34337 0
M  V30 5780 C 559.17 0.859007 -1.51318 0
M  V30 5781 O 560.346 0.816296 -1.84116 0
M  V30 5782 C 557.411 1.09494 -3.28956 0
M  V30 5783 C 556.472 0.348718 -4.27881 0
M  V30 5784 C 555.705 1.28582 -5.17979 0
M  V30 5785 O 555.928 2.52369 -5.11533 0
M  V30 5786 O 554.862 0.782172 -5.96796 0
M  V30 5787 H 558.688 -0.620258 -2.97299 0
M  V30 5788 H 556.273 -0.36916 -1.44767 0
M  V30 5789 H 558.155 1.66163 -3.87257 0
M  V30 5790 H 556.83 1.80717 -2.68557 0
M  V30 5791 H 555.737 -0.260465 -3.73192 0
M  V30 5792 H 557.07 -0.323049 -4.91139 0
M  V30 5793 N 558.722 1.53707 -0.348139 0
M  V30 5794 C 559.632 2.28881 0.514857 0
M  V30 5795 C 560.648 1.34168 1.10793 0
M  V30 5796 O 561.824 1.6721 1.12262 0
M  V30 5797 C 558.889 3.05042 1.64774 0
M  V30 5798 C 557.95 4.15389 1.08398 0
M  V30 5799 C 557.183 4.87909 2.16287 0
M  V30 5800 O 557.406 4.60137 3.3709 0
M  V30 5801 O 556.34 5.74254 1.80323 0
M  V30 5802 H 560.166 3.03547 -0.0963699 0
M  V30 5803 H 557.751 1.48972 -0.113043 0
M  V30 5804 H 559.633 3.52656 2.30677 0
M  V30 5805 H 558.308 2.33228 2.24469 0
M  V30 5806 H 557.215 3.72068 0.389341 0
M  V30 5807 H 558.548 4.89318 0.531829 0
M  V30 5808 N 560.2 0.0768682 1.57412 0
M  V30 5809 C 561.11 -0.903207 2.16516 0
M  V30 5810 C 562.126 -1.32341 1.12968 0
M  V30 5811 O 563.302 -1.39507 1.45258 0
M  V30 5812 C 560.367 -2.1508 2.71922 0
M  V30 5813 C 559.428 -1.78653 3.90361 0
M  V30 5814 C 558.661 -2.97465 4.43114 0
M  V30 5815 O 558.884 -4.11638 3.94854 0
M  V30 5816 O 557.818 -2.76987 5.3438 0
M  V30 5817 H 561.644 -0.430427 3.00634 0
M  V30 5818 H 559.229 -0.146485 1.4868 0
M  V30 5819 H 561.111 -2.8823 3.07411 0
M  V30 5820 H 559.786 -2.61446 1.9086 0
M  V30 5821 H 558.693 -1.0274 3.59716 0
M  V30 5822 H 560.026 -1.37066 4.7273 0
M  V30 5823 N 561.678 -1.56367 -0.196722 0
M  V30 5824 C 562.927 -1.79724 -0.915539 0
M  V30 5825 C 563.24 -0.649804 -1.84491 0
M  V30 5826 O 564.446 -0.767631 -2.60422 0
M  V30 5827 C 562.902 -3.18369 -1.67836 0
M  V30 5828 C 562.51 -4.4091 -0.793897 0
M  V30 5829 C 564.254 -3.51037 -2.38691 0
M  V30 5830 C 562.161 -5.70577 -1.55549 0
M  V30 5831 H 561.091 -0.67013 -0.345604 0
M  V30 5832 H 563.742 -1.82721 -0.168856 0
M  V30 5833 H 562.124 -3.09617 -2.46887 0
M  V30 5834 H 563.298 -4.60781 -0.042163 0
M  V30 5835 H 561.613 -4.15937 -0.19626 0
M  V30 5836 H 564.21 -4.4515 -2.96219 0
M  V30 5837 H 564.553 -2.74704 -3.12799 0
M  V30 5838 H 565.086 -3.61229 -1.66608 0
M  V30 5839 H 561.825 -6.49871 -0.857226 0
M  V30 5840 H 561.345 -5.54726 -2.2812 0
M  V30 5841 H 563.024 -6.11637 -2.10971 0
M  V30 5842 N 563.156 0.464375 -1.50603 0
M  V30 5843 C 564.104 1.58224 -1.70493 0
M  V30 5844 C 565.098 1.59492 -0.570836 0
M  V30 5845 O 566.304 1.63561 -0.751517 0
M  V30 5846 H 562.679 0.525161 -0.538247 0
M  V30 5847 H 564.65 1.38613 -2.64252 0
M  V30 5848 C 563.399 2.96113 -1.82243 0
M  V30 5849 H 562.722 2.95858 -2.68901 0
M  V30 5850 H 564.162 3.73769 -2.00182 0
M  V30 5851 C 562.621 3.31946 -0.575628 0
M  V30 5852 O 563.151 4.00708 0.282152 0
M  V30 5853 N 561.357 2.87436 -0.427665 0
M  V30 5854 H 560.904 2.31652 -1.12674 0
M  V30 5855 H 560.862 3.11776 0.405379 0
M  V30 5856 N 564.634 1.40294 0.718013 0
M  V30 5857 C 565.584 1.36847 1.82365 0
M  V30 5858 C 566.568 0.246424 1.59002 0
M  V30 5859 O 567.76 0.485336 1.70216 0
M  V30 5860 C 564.889 1.23105 3.20469 0
M  V30 5861 C 563.975 2.4008 3.49603 0
M  V30 5862 N 564.366 3.65562 3.49568 0
M  V30 5863 C 562.664 2.33407 3.80049 0
M  V30 5864 C 563.365 4.43015 3.76978 0
M  V30 5865 N 562.341 3.72823 3.95606 0
M  V30 5866 H 566.143 2.31811 1.80668 0
M  V30 5867 H 563.657 1.34031 0.91703 0
M  V30 5868 H 565.654 1.18718 3.9964 0
M  V30 5869 H 564.314 0.291056 3.23393 0
M  V30 5870 H 565.325 3.98756 3.30476 0
M  V30 5871 H 562.002 1.47762 3.90478 0
M  V30 5872 H 563.392 5.51859 3.83276 0
M  V30 5873 N 566.112 -0.949982 1.2575 0
M  V30 5874 C 567.042 -2.06483 1.09028 0
M  V30 5875 C 568.023 -1.701 -0.00201532 0
M  V30 5876 O 569.208 -1.93469 0.168383 0
M  V30 5877 C 566.338 -3.39899 0.71316 0
M  V30 5878 C 565.292 -3.90309 1.75621 0
M  V30 5879 C 564.618 -5.20274 1.23365 0
M  V30 5880 C 565.918 -4.16169 3.15596 0
M  V30 5881 H 567.612 -2.20731 2.02283 0
M  V30 5882 H 565.158 -1.06066 0.973964 0
M  V30 5883 H 567.111 -4.17346 0.58309 0
M  V30 5884 H 565.835 -3.25602 -0.255091 0
M  V30 5885 H 564.494 -3.15035 1.8748 0
M  V30 5886 H 564.142 -5.02351 0.255491 0
M  V30 5887 H 563.842 -5.54971 1.93082 0
M  V30 5888 H 565.366 -6.00314 1.11607 0
M  V30 5889 H 566.78 -4.84259 3.06864 0
M  V30 5890 H 565.177 -4.62131 3.82825 0
M  V30 5891 H 566.247 -3.22273 3.6231 0
M  V30 5892 N 567.59 -1.07411 -1.15328 0
M  V30 5893 C 568.52 -0.716472 -2.22236 0
M  V30 5894 C 569.501 0.296373 -1.67498 0
M  V30 5895 O 570.686 0.168989 -1.93463 0
M  V30 5896 C 567.816 -0.114142 -3.47112 0
M  V30 5897 C 566.77 -1.05421 -4.14814 0
M  V30 5898 C 566.096 -0.314604 -5.33774 0
M  V30 5899 C 567.396 -2.38808 -4.64508 0
M  V30 5900 H 569.09 -1.61029 -2.52408 0
M  V30 5901 H 566.636 -0.775702 -1.21321 0
M  V30 5902 H 568.589 0.148001 -4.2114 0
M  V30 5903 H 567.313 0.814755 -3.16274 0
M  V30 5904 H 565.972 -1.30128 -3.42728 0
M  V30 5905 H 565.62 0.617772 -4.99192 0
M  V30 5906 H 565.32 -0.941209 -5.80013 0
M  V30 5907 H 566.844 -0.0602747 -6.1057 0
M  V30 5908 H 568.258 -2.18424 -5.3006 0
M  V30 5909 H 566.655 -2.97069 -5.21412 0
M  V30 5910 H 567.725 -3.01067 -3.80114 0
M  V30 5911 N 569.068 1.32177 -0.85831 0
M  V30 5912 C 570.031 2.27086 -0.310588 0
M  V30 5913 C 571.031 1.51751 0.531806 0
M  V30 5914 O 572.221 1.70794 0.34279 0
M  V30 5915 C 569.353 3.36266 0.560179 0
M  V30 5916 H 570.546 2.77045 -1.1483 0
M  V30 5917 H 568.099 1.42911 -0.632942 0
M  V30 5918 H 568.834 2.9158 1.41956 0
M  V30 5919 H 568.619 3.92077 -0.0428473 0
M  V30 5920 H 570.109 4.06974 0.936056 0
M  V30 5921 N 570.547 0.616602 1.45037 0
M  V30 5922 C 571.963 0.280994 1.57107 0
M  V30 5923 C 572.163 -1.21627 1.60653 0
M  V30 5924 O 571.219 -1.9997 1.54169 0
M  V30 5925 C 572.532 0.960116 2.8496 0
M  V30 5926 C 574.08 0.936884 2.98649 0
M  V30 5927 C 574.555 1.59619 4.29285 0
M  V30 5928 N 576.046 1.5621 4.36065 0
M  V30 5929 C 576.781 2.04131 5.35834 0
M  V30 5930 N 576.277 2.60177 6.4209 0
M  V30 5931 N 578.07 1.94845 5.27249 0
M  V30 5932 H 570.221 1.58867 1.40979 0
M  V30 5933 H 572.484 0.666024 0.674623 0
M  V30 5934 H 572.19 2.01473 2.88273 0
M  V30 5935 H 572.064 0.488921 3.74018 0
M  V30 5936 H 574.451 -0.109209 2.94898 0
M  V30 5937 H 574.532 1.44643 2.10979 0
M  V30 5938 H 574.176 2.64166 4.33796 0
M  V30 5939 H 574.106 1.06159 5.15789 0
M  V30 5940 H 576.597 1.15276 3.59889 0
M  V30 5941 H 576.91 2.94513 7.1448 0
M  V30 5942 H 575.255 2.64221 6.42816 0
M  V30 5943 H 578.446 1.50792 4.43147 0
M  V30 5944 H 578.619 2.32504 6.04852 0
M  V30 5945 N 572.025 -1.5352 0.356285 0
M  V30 5946 C 572.955 -2.28372 -0.486661 0
M  V30 5947 C 573.936 -1.30432 -1.09185 0
M  V30 5948 O 575.121 -1.59291 -1.11085 0
M  V30 5949 C 572.251 -3.06604 -1.63129 0
M  V30 5950 C 571.205 -4.12154 -1.15381 0
M  V30 5951 C 570.531 -4.78415 -2.38796 0
M  V30 5952 C 571.831 -5.21724 -0.245179 0
M  V30 5953 H 573.525 -2.99083 0.137797 0
M  V30 5954 H 571.071 -1.43841 0.0677134 0
M  V30 5955 H 573.024 -3.57712 -2.22755 0
M  V30 5956 H 571.748 -2.33568 -2.28284 0
M  V30 5957 H 570.407 -3.61978 -0.580294 0
M  V30 5958 H 570.055 -4.01959 -3.02387 0
M  V30 5959 H 569.755 -5.49734 -2.07524 0
M  V30 5960 H 571.279 -5.32313 -2.99125 0
M  V30 5961 H 572.693 -5.68391 -0.748646 0
M  V30 5962 H 571.09 -6.00095 -0.0237608 0
M  V30 5963 H 572.16 -4.79596 0.715229 0
M  V30 5964 N 573.503 -0.0852151 -1.57369 0
M  V30 5965 C 574.466 0.8627 -2.12344 0
M  V30 5966 C 575.466 1.21746 -1.05046 0
M  V30 5967 O 576.656 1.14852 -1.30976 0
M  V30 5968 C 573.788 2.1618 -2.63589 0
M  V30 5969 H 574.981 0.385511 -2.97412 0
M  V30 5970 H 572.534 0.163663 -1.55441 0
M  V30 5971 H 573.269 2.68406 -1.82013 0
M  V30 5972 H 573.054 1.91723 -3.4203 0
M  V30 5973 H 574.544 2.84011 -3.06149 0
M  V30 5974 N 574.981 1.5647 0.188427 0
M  V30 5975 C 576.258 1.71857 0.934058 0
M  V30 5976 C 576.638 0.641867 2.01105 0
M  V30 5977 O 575.986 -0.346098 2.25864 0
M  V30 5978 C 576.196 3.14431 1.5144 0
M  V30 5979 C 577.544 3.74869 1.99396 0
M  V30 5980 O 578.568 3.17601 1.61269 0
M  V30 5981 O 577.427 4.75387 2.69573 0
M  V30 5982 H 574.521 0.701186 0.438483 0
M  V30 5983 H 577.067 1.68768 0.177599 0
M  V30 5984 H 575.839 3.8427 0.738416 0
M  V30 5985 H 575.462 3.21775 2.33552 0
M  V30 5986 N 576.459 -0.456382 1.50847 0
M  V30 5987 C 577.706 -1.20736 1.62571 0
M  V30 5988 C 578.034 -1.9163 0.332904 0
M  V30 5989 O 577.289 -1.8343 -0.682058 0
M  V30 5990 C 577.588 -2.26336 2.76599 0
M  V30 5991 C 577.254 -1.7259 4.16562 0
M  V30 5992 C 575.916 -1.57654 4.54641 0
M  V30 5993 C 578.268 -1.32877 5.03977 0
M  V30 5994 C 575.596 -1.0145 5.77862 0
M  V30 5995 C 577.948 -0.7811 6.27759 0
M  V30 5996 C 576.612 -0.618488 6.64628 0
M  V30 5997 H 575.882 -0.441803 0.594888 0
M  V30 5998 H 578.529 -0.501169 1.84826 0
M  V30 5999 H 576.834 -3.0292 2.48489 0
M  V30 6000 H 578.531 -2.84227 2.82871 0
M  V30 6001 H 575.121 -1.85187 3.86528 0
M  V30 6002 H 579.305 -1.43245 4.75179 0
M  V30 6003 H 574.561 -0.876109 6.0509 0
M  V30 6004 H 578.735 -0.464783 6.94847 0
M  V30 6005 H 576.362 -0.180838 7.59985 0
M  V30 6006 N 577.937 -1.40673 -0.710563 0
M  V30 6007 C 579.185 -1.38947 -1.46759 0
M  V30 6008 C 579.506 0.00572879 -1.94999 0
M  V30 6009 O 578.776 0.961358 -1.70689 0
M  V30 6010 H 577.356 -0.5114 -0.544499 0
M  V30 6011 H 580.018 -1.75773 -0.842012 0
M  V30 6012 H 579.114 -2.06745 -2.33801 0
M  V30 6013 N 579.415 0.9433 -1.26252 0
M  V30 6014 C 580.826 1.50404 -1.10614 0
M  V30 6015 C 581.177 1.93666 0.31429 0
M  V30 6016 O 580.302 1.79709 1.20555 0
M  V30 6017 C 580.897 2.73336 -2.00182 0
M  V30 6018 C 579.456 3.25686 -1.88695 0
M  V30 6019 C 578.603 1.98474 -1.93658 0
M  V30 6020 H 581.554 0.759006 -1.39373 0
M  V30 6021 H 581.575 3.47567 -1.54847 0
M  V30 6022 H 581.087 2.41818 -3.03555 0
M  V30 6023 H 579.188 3.61998 -0.882489 0
M  V30 6024 H 579.301 3.92935 -2.74115 0
M  V30 6025 H 577.665 2.14278 -1.37684 0
M  V30 6026 H 578.448 1.6929 -2.98657 0
M  V30 6027 O 580.932 1.20358 1.07685 0
M  V30 6028 H 581.623 0.957266 1.68393 0
M  V30 END ATOM
M  V30 BEGIN BOND
M  V30 END BOND
M  V30 END CTAB
M  END
$$$$
