drugbank_target|P0A9J6 Ribokinase (DB01936; DB03909; DB04444)
 OpenBabel12092120033D

  0  0  0     0  0            999 V3000
M  V30 BEGIN CTAB
M  V30 COUNTS 4559 4591 0 0 0
M  V30 BEGIN ATOM
M  V30 1 H -0.908 1.98254 -0.117106 0
M  V30 2 N 0 1.576 0 0
M  V30 3 C 0.933 2.03868 1.02534 0
M  V30 4 C 1.911 0.928543 1.3348 0
M  V30 5 O 3.095 1.19667 1.45644 0
M  V30 6 C 0.222 2.43627 2.35294 0
M  V30 7 C -0.732 3.65373 2.2001 0
M  V30 8 S 0.101 5.13292 1.52614 0
M  V30 9 C 1.257 5.56322 2.86805 0
M  V30 10 H 1.49 2.90518 0.631377 0
M  V30 11 H -0.977 1.52953 0.210867 0
M  V30 12 H 0.981 2.67203 3.11629 0
M  V30 13 H -0.358 1.57376 2.7183 0
M  V30 14 H -1.165 3.90944 3.18086 0
M  V30 15 H -1.563 3.418 1.51819 0
M  V30 16 H 0.729 5.58782 3.83104 0
M  V30 17 H 1.672 6.56266 2.65933 0
M  V30 18 H 2.08 4.83886 2.90714 0
M  V30 19 N 1.4781 -0.272755 1.55222 0
M  V30 20 C 2.4101 -1.35946 1.8453 0
M  V30 21 C 3.4231 -1.45525 0.729818 0
M  V30 22 O 4.6121 -1.47337 1.00767 0
M  V30 23 C 1.7121 -2.74069 1.99347 0
M  V30 24 C 0.8851 -2.87079 3.30007 0
M  V30 25 C -0.0559 -4.05879 3.34886 0
M  V30 26 O -1.0299 -3.96626 4.08261 0
M  V30 27 N 0.1721 -5.17857 2.62307 0
M  V30 28 H 2.9371 -1.11149 2.78327 0
M  V30 29 H 0.4981 -0.462869 1.55142 0
M  V30 30 H 2.4901 -3.51838 1.99981 0
M  V30 31 H 1.0601 -2.91688 1.12415 0
M  V30 32 H 0.2801 -1.96193 3.41909 0
M  V30 33 H 1.5681 -2.92701 4.16177 0
M  V30 34 H 0.9661 -5.28261 2.02377 0
M  V30 35 H -0.4769 -5.93855 2.68663 0
M  V30 36 N 2.9562 -1.48159 -0.537278 0
M  V30 37 C 3.9042 -1.62573 -1.66352 0
M  V30 38 C 4.8982 -0.492366 -1.62087 0
M  V30 39 O 6.1042 -0.670847 -1.67032 0
M  V30 40 H 2.4792 -0.511992 -0.550789 0
M  V30 41 H 4.4502 -2.57176 -1.51337 0
M  V30 42 C 3.1992 -1.67583 -3.04649 0
M  V30 43 H 2.5222 -2.54151 -3.08622 0
M  V30 44 H 3.9622 -1.81713 -3.83088 0
M  V30 45 C 2.4212 -0.413039 -3.34358 0
M  V30 46 O 2.9512 0.477259 -3.98855 0
M  V30 47 N 1.1572 -0.286961 -2.8918 0
M  V30 48 H 0.7042 -1.01241 -2.36871 0
M  V30 49 H 0.6622 0.556963 -3.09427 0
M  V30 50 N 4.4343 0.785586 -1.36625 0
M  V30 51 C 5.3973 1.87999 -1.31107 0
M  V30 52 C 6.3973 1.59316 -0.217959 0
M  V30 53 O 7.5873 1.67656 -0.472977 0
M  V30 54 C 4.7193 3.24861 -1.03334 0
M  V30 55 H 5.9123 1.94307 -2.2844 0
M  V30 56 H 3.4653 0.983813 -1.21453 0
M  V30 57 H 4.2003 3.24235 -0.0647432 0
M  V30 58 H 3.9853 3.4707 -1.82441 0
M  V30 59 H 5.4753 4.04929 -1.02088 0
M  V30 60 N 5.9124 1.20967 1.01018 0
M  V30 61 C 7.1604 1.02172 1.74371 0
M  V30 62 C 7.4814 -0.446414 1.89821 0
M  V30 63 O 6.7514 -1.32234 1.44537 0
M  V30 64 H 5.3314 0.375066 0.646014 0
M  V30 65 H 7.9934 1.52187 1.21758 0
M  V30 66 H 7.0894 1.48538 2.74487 0
M  V30 67 N 7.3905 -1.2043 1.01659 0
M  V30 68 C 8.6155 -1.94318 0.724942 0
M  V30 69 C 9.0405 -1.74266 -0.708034 0
M  V30 70 O 8.3985 -1.03694 -1.48719 0
M  V30 71 C 8.4465 -3.44486 1.06591 0
M  V30 72 O 7.5505 -4.12017 0.177599 0
M  V30 73 H 6.8915 -0.60708 0.26898 0
M  V30 74 H 9.4215 -1.52861 1.35995 0
M  V30 75 H 9.4315 -3.95106 1.01762 0
M  V30 76 H 8.1065 -3.58404 2.10997 0
M  V30 77 H 6.6835 -3.71821 0.283421 0
M  V30 78 N 8.8686 -0.792821 -1.36206 0
M  V30 79 C 9.7986 -0.207853 -2.32573 0
M  V30 80 C 10.7796 0.659055 -1.56813 0
M  V30 81 O 11.9646 0.592176 -1.84951 0
M  V30 82 C 9.0946 0.655449 -3.41059 0
M  V30 83 C 8.0486 -0.111842 -4.27854 0
M  V30 84 C 7.3746 0.872274 -5.27537 0
M  V30 85 C 8.6746 -1.30299 -5.05786 0
M  V30 86 H 10.3686 -1.01294 -2.81744 0
M  V30 87 H 7.9146 -0.48854 -1.3546 0
M  V30 88 H 9.8676 1.07464 -4.07467 0
M  V30 89 H 8.5916 1.49328 -2.90463 0
M  V30 90 H 7.2506 -0.512053 -3.63006 0
M  V30 91 H 6.8986 1.70523 -4.73214 0
M  V30 92 H 6.5986 0.363291 -5.86476 0
M  V30 93 H 8.1226 1.28996 -5.96818 0
M  V30 94 H 9.5366 -0.959379 -5.65216 0
M  V30 95 H 7.9336 -1.7455 -5.74154 0
M  V30 96 H 9.0036 -2.09663 -4.37229 0
M  V30 97 N 10.3467 1.47872 -0.545128 0
M  V30 98 C 11.5927 2.02793 -0.0166104 0
M  V30 99 C 11.9257 1.41987 1.32489 0
M  V30 100 O 11.2007 0.571045 1.85928 0
M  V30 101 C 11.4837 3.59989 0.0893294 0
M  V30 102 C 11.3367 4.3125 -1.27841 0
M  V30 103 C 12.6557 4.32606 0.808724 0
M  V30 104 H 9.7747 0.736962 -0.00751035 0
M  V30 105 H 12.4167 1.76433 -0.705085 0
M  V30 106 H 10.5667 3.82579 0.675681 0
M  V30 107 H 12.2387 4.20035 -1.90704 0
M  V30 108 H 10.4817 3.92076 -1.85632 0
M  V30 109 H 11.1527 5.39736 -1.15713 0
M  V30 110 H 13.6287 4.14936 0.310992 0
M  V30 111 H 12.5047 5.42251 0.851782 0
M  V30 112 H 12.7657 4.00963 1.86229 0
M  V30 113 N 11.8248 0.280983 1.55075 0
M  V30 114 C 13.0708 -0.33461 2.00021 0
M  V30 115 C 13.4038 -1.55063 1.16915 0
M  V30 116 O 12.6788 -1.93006 0.240646 0
M  V30 117 C 12.9618 -0.711007 3.53011 0
M  V30 118 C 12.8148 0.512766 4.46868 0
M  V30 119 C 14.1338 -1.54522 4.12081 0
M  V30 120 H 11.2528 -0.120147 0.727141 0
M  V30 121 H 13.8948 0.389097 1.85973 0
M  V30 122 H 12.0448 -1.32761 3.65112 0
M  V30 123 H 13.7168 1.15131 4.46702 0
M  V30 124 H 11.9598 1.14975 4.18286 0
M  V30 125 H 12.6308 0.205556 5.51617 0
M  V30 126 H 15.1068 -1.02442 4.03293 0
M  V30 127 H 13.9828 -1.77739 5.19327 0
M  V30 128 H 14.2438 -2.52813 3.62682 0
M  V30 129 N 13.3029 -1.57598 0.00835791 0
M  V30 130 C 14.2329 -2.1198 -0.979113 0
M  V30 131 C 15.2139 -1.03091 -1.35301 0
M  V30 132 O 16.3989 -1.30818 -1.43528 0
M  V30 133 C 13.5289 -2.62995 -2.26828 0
M  V30 134 C 12.4829 -3.76485 -2.03576 0
M  V30 135 C 11.8089 -4.13846 -3.38579 0
M  V30 136 C 13.1089 -5.0342 -1.39161 0
M  V30 137 H 14.8029 -2.94738 -0.526281 0
M  V30 138 H 12.3489 -1.41783 -0.251704 0
M  V30 139 H 14.3019 -2.99669 -2.96271 0
M  V30 140 H 13.0259 -1.7737 -2.7424 0
M  V30 141 H 11.6849 -3.40217 -1.36557 0
M  V30 142 H 11.3329 -3.25232 -3.83709 0
M  V30 143 H 11.0329 -4.90312 -3.23834 0
M  V30 144 H 12.5569 -4.53086 -4.09323 0
M  V30 145 H 13.9709 -5.37812 -1.98573 0
M  V30 146 H 12.3679 -5.84746 -1.34878 0
M  V30 147 H 13.4379 -4.83548 -0.361868 0
M  V30 148 N 14.781 0.264519 -1.55364 0
M  V30 149 C 16.029 0.993021 -1.76021 0
M  V30 150 C 16.35 1.86511 -0.569099 0
M  V30 151 O 15.62 1.91438 0.415735 0
M  V30 152 H 14.2 0.369639 -0.649135 0
M  V30 153 H 16.862 0.286707 -1.9278 0
M  V30 154 H 15.958 1.62502 -2.66457 0
M  V30 155 N 16.2591 1.48442 0.529413 0
M  V30 156 C 17.4841 1.60406 1.31471 0
M  V30 157 C 17.9091 0.264738 1.86228 0
M  V30 158 O 17.2671 -0.763668 1.64432 0
M  V30 159 C 17.3151 2.65419 2.44101 0
M  V30 160 O 16.4191 2.22618 3.47153 0
M  V30 161 H 15.7601 0.537863 0.389357 0
M  V30 162 H 18.2901 1.94432 0.636965 0
M  V30 163 H 18.3001 2.86709 2.90279 0
M  V30 164 H 16.9751 3.62652 2.03608 0
M  V30 165 H 15.5521 2.11543 3.0709 0
M  V30 166 N 17.7372 -0.778329 1.37039 0
M  V30 167 C 18.9862 -1.53189 1.3121 0
M  V30 168 C 19.2992 -1.95328 -0.103095 0
M  V30 169 O 20.5052 -2.70012 -0.283826 0
M  V30 170 C 18.9612 -2.76591 2.30272 0
M  V30 171 C 18.5692 -2.41577 3.77286 0
M  V30 172 C 20.3132 -3.5455 2.33441 0
M  V30 173 C 18.2202 -3.61441 4.68096 0
M  V30 174 H 17.1502 -0.5751 0.487622 0
M  V30 175 H 19.8012 -0.853101 1.62464 0
M  V30 176 H 18.1832 -3.46326 1.92027 0
M  V30 177 H 19.3572 -1.79668 4.2433 0
M  V30 178 H 17.6722 -1.76806 3.76999 0
M  V30 179 H 20.2692 -4.43628 2.98493 0
M  V30 180 H 20.6122 -3.93936 1.34611 0
M  V30 181 H 21.1452 -2.91805 2.7036 0
M  V30 182 H 17.8842 -3.27142 5.6803 0
M  V30 183 H 17.4042 -4.22478 4.25761 0
M  V30 184 H 19.0832 -4.28335 4.8491 0
M  V30 185 N 19.2153 -1.21501 -1.00376 0
M  V30 186 C 20.1633 -0.972442 -2.11297 0
M  V30 187 C 21.1573 0.080731 -1.69208 0
M  V30 188 O 22.3633 -0.0707666 -1.79861 0
M  V30 189 H 18.7383 -0.297218 -0.690772 0
M  V30 190 H 20.7093 -1.91394 -2.28934 0
M  V30 191 C 19.4583 -0.555065 -3.43241 0
M  V30 192 H 18.7813 -1.35709 -3.76062 0
M  V30 193 H 20.2213 -0.424664 -4.21868 0
M  V30 194 C 18.6803 0.734147 -3.28804 0
M  V30 195 O 19.2103 1.78937 -3.59645 0
M  V30 196 N 17.4163 0.701133 -2.82015 0
M  V30 197 H 16.9633 -0.157874 -2.57116 0
M  V30 198 H 16.9213 1.56403 -2.72737 0
M  V30 199 N 20.6934 1.19889 -1.02296 0
M  V30 200 C 21.6564 2.21116 -0.603351 0
M  V30 201 C 22.6564 1.5738 0.329884 0
M  V30 202 O 23.8464 1.73802 0.117702 0
M  V30 203 C 20.9784 3.40696 0.117992 0
M  V30 204 H 22.1714 2.59754 -1.49893 0
M  V30 205 H 19.7244 1.33463 -0.813468 0
M  V30 206 H 20.4594 3.07569 1.0282 0
M  V30 207 H 20.2444 3.88188 -0.552511 0
M  V30 208 H 21.7344 4.15692 0.398696 0
M  V30 209 N 22.1715 0.800033 1.35784 0
M  V30 210 C 23.4485 0.30088 1.93272 0
M  V30 211 C 23.8285 -1.20857 1.73081 0
M  V30 212 O 23.1765 -2.00502 1.09596 0
M  V30 213 C 23.3865 0.70511 3.41803 0
M  V30 214 C 24.7345 0.690871 4.18942 0
M  V30 215 O 25.7585 0.646244 3.50289 0
M  V30 216 O 24.6175 0.74332 5.41421 0
M  V30 217 H 21.7115 0.0771605 0.823393 0
M  V30 218 H 24.2575 0.88329 1.449 0
M  V30 219 H 23.0295 1.74571 3.50201 0
M  V30 220 H 22.6525 0.0971541 3.97481 0
M  V30 221 N 23.6496 -1.47581 0.552962 0
M  V30 222 C 24.5996 -2.26961 -0.217423 0
M  V30 223 C 25.5836 -1.34099 -0.889168 0
M  V30 224 O 26.7756 -1.58483 -0.788176 0
M  V30 225 C 23.9046 -3.19756 -1.24944 0
M  V30 226 C 22.9906 -4.20097 -0.581327 0
M  V30 227 N 23.3816 -5.04614 0.346171 0
M  V30 228 C 21.6796 -4.38099 -0.835767 0
M  V30 229 C 22.3806 -5.77052 0.733854 0
M  V30 230 N 21.3566 -5.43526 0.0896567 0
M  V30 231 H 25.1586 -2.89688 0.495761 0
M  V30 232 H 22.6726 -1.58068 0.372597 0
M  V30 233 H 24.6696 -3.75305 -1.81527 0
M  V30 234 H 23.3296 -2.58585 -1.96376 0
M  V30 235 H 24.3406 -5.12869 0.720098 0
M  V30 236 H 21.0176 -3.88102 -1.53892 0
M  V30 237 H 22.4076 -6.5504 1.49574 0
M  V30 238 N 25.1277 -0.289203 -1.54924 0
M  V30 239 C 26.3767 0.324231 -1.99077 0
M  V30 240 C 26.6897 1.5591 -1.18117 0
M  V30 241 O 27.8957 2.24637 -1.52481 0
M  V30 242 C 26.3517 0.628209 -3.54375 0
M  V30 243 C 25.9597 -0.587647 -4.44129 0
M  V30 244 C 27.7037 1.20349 -4.07083 0
M  V30 245 C 25.6107 -0.257475 -5.90839 0
M  V30 246 H 24.5407 0.124924 -0.743579 0
M  V30 247 H 27.1917 -0.396063 -1.79175 0
M  V30 248 H 25.5737 1.40778 -3.70132 0
M  V30 249 H 26.7477 -1.36418 -4.40144 0
M  V30 250 H 25.0627 -1.08074 -4.0213 0
M  V30 251 H 27.6597 1.46456 -5.14252 0
M  V30 252 H 28.0027 2.14195 -3.56968 0
M  V30 253 H 28.5357 0.485889 -3.94821 0
M  V30 254 H 25.2747 -1.16419 -6.45079 0
M  V30 255 H 24.7947 0.482018 -5.9786 0
M  V30 256 H 26.4737 0.145238 -6.46837 0
M  V30 257 N 26.6058 1.57591 -0.0167156 0
M  V30 258 C 27.5358 2.12496 0.967858 0
M  V30 259 C 28.5168 1.03807 1.34752 0
M  V30 260 O 29.7018 1.31577 1.42833 0
M  V30 261 C 26.8318 2.64194 2.25431 0
M  V30 262 C 25.7858 3.77559 2.01576 0
M  V30 263 C 25.1118 4.15636 3.36379 0
M  V30 264 C 26.4118 5.04151 1.36489 0
M  V30 265 H 28.1058 2.95013 0.510643 0
M  V30 266 H 25.6518 1.41915 0.244181 0
M  V30 267 H 27.6048 3.01236 2.94678 0
M  V30 268 H 26.3288 1.78821 2.73296 0
M  V30 269 H 24.9878 3.40937 1.34751 0
M  V30 270 H 24.6358 3.27263 3.81979 0
M  V30 271 H 24.3358 4.92022 3.21229 0
M  V30 272 H 25.8598 4.5525 4.06915 0
M  V30 273 H 27.2738 5.38857 1.95718 0
M  V30 274 H 25.6708 5.85453 1.31776 0
M  V30 275 H 26.7408 4.83733 0.336219 0
M  V30 276 N 28.0839 -0.256276 1.55502 0
M  V30 277 C 29.0319 -1.33694 1.90338 0
M  V30 278 C 30.0259 -1.50299 0.781441 0
M  V30 279 O 31.2319 -1.51885 0.965966 0
M  V30 280 H 27.6069 -0.447483 0.60437 0
M  V30 281 H 29.5779 -1.01574 2.8058 0
M  V30 282 C 28.3269 -2.68724 2.20642 0
M  V30 283 H 27.6499 -2.56743 3.06469 0
M  V30 284 H 29.0899 -3.43237 2.48926 0
M  V30 285 C 27.5489 -3.21101 1.01959 0
M  V30 286 O 28.0789 -4.0084 0.262762 0
M  V30 287 N 26.2849 -2.79003 0.812746 0
M  V30 288 H 25.8319 -2.14271 1.42989 0
M  V30 289 H 25.7899 -3.14393 0.0203076 0
M  V30 290 N 29.562 -1.4872 -0.521534 0
M  V30 291 C 30.492 -1.66771 -1.63431 0
M  V30 292 C 31.473 -0.516499 -1.62069 0
M  V30 293 O 32.658 -0.750013 -1.79132 0
M  V30 294 C 29.788 -1.71515 -3.01993 0
M  V30 295 C 28.742 -2.86222 -3.18216 0
M  V30 296 C 28.068 -2.76061 -4.57924 0
M  V30 297 C 29.368 -4.27419 -3.00184 0
M  V30 298 H 31.062 -2.59932 -1.48579 0
M  V30 299 H 28.608 -1.25089 -0.713358 0
M  V30 300 H 30.561 -1.82731 -3.7972 0
M  V30 301 H 29.285 -0.749393 -3.17886 0
M  V30 302 H 27.944 -2.74575 -2.42908 0
M  V30 303 H 27.592 -1.77437 -4.70665 0
M  V30 304 H 27.292 -3.53037 -4.69722 0
M  V30 305 H 28.816 -2.89256 -5.37739 0
M  V30 306 H 30.23 -4.39855 -3.67697 0
M  V30 307 H 28.627 -5.05458 -3.2347 0
M  V30 308 H 29.697 -4.43293 -1.96518 0
M  V30 309 N 31.0401 0.771051 -1.3745 0
M  V30 310 C 31.9721 1.89352 -1.29146 0
M  V30 311 C 32.9851 1.61477 -0.207124 0
M  V30 312 O 34.1741 1.72382 -0.463324 0
M  V30 313 C 31.2741 3.24596 -0.974195 0
M  V30 314 C 30.4471 3.80111 -2.16413 0
M  V30 315 C 29.5061 4.93832 -1.81703 0
M  V30 316 O 28.5321 5.09382 -2.54006 0
M  V30 317 N 29.7341 5.75483 -0.761573 0
M  V30 318 H 32.4991 1.96991 -2.25864 0
M  V30 319 H 30.0601 0.950191 -1.31084 0
M  V30 320 H 32.0521 3.98193 -0.722828 0
M  V30 321 H 30.6221 3.12454 -0.0955527 0
M  V30 322 H 29.8421 2.98284 -2.57721 0
M  V30 323 H 31.1301 4.13932 -2.95867 0
M  V30 324 H 30.5281 5.65469 -0.161609 0
M  V30 325 H 29.0851 6.49302 -0.570064 0
M  V30 326 N 32.5182 1.22032 0.997298 0
M  V30 327 C 33.7432 1.06921 1.77715 0
M  V30 328 C 34.1682 -0.376226 1.84299 0
M  V30 329 O 33.5262 -1.27165 1.29223 0
M  V30 330 C 33.5742 1.67996 3.19076 0
M  V30 331 O 32.6782 0.930653 4.01762 0
M  V30 332 H 32.0192 0.375814 0.547412 0
M  V30 333 H 34.5492 1.61737 1.25309 0
M  V30 334 H 34.5592 1.72538 3.69723 0
M  V30 335 H 33.2342 2.73182 3.13599 0
M  V30 336 H 31.8112 0.960917 3.60307 0
M  V30 337 N 33.9963 -1.19345 1.0293 0
M  V30 338 C 35.2433 -1.89038 0.726008 0
M  V30 339 C 35.5713 -1.79649 -0.745427 0
M  V30 340 O 34.8263 -1.18354 -1.55855 0
M  V30 341 C 35.1253 -3.39292 1.12319 0
M  V30 342 C 34.7913 -3.68885 2.59297 0
M  V30 343 C 33.4533 -3.76671 2.99453 0
M  V30 344 C 35.8053 -3.82178 3.54386 0
M  V30 345 C 33.1333 -3.9522 4.33611 0
M  V30 346 C 35.4853 -4.0224 4.88248 0
M  V30 347 C 34.1493 -4.08259 5.28092 0
M  V30 348 H 33.4193 -0.691739 0.265665 0
M  V30 349 H 36.0663 -1.41328 1.29223 0
M  V30 350 H 34.3713 -3.88903 0.475584 0
M  V30 351 H 36.0683 -3.91536 0.866037 0
M  V30 352 H 32.6583 -3.63433 2.27189 0
M  V30 353 H 36.8423 -3.75505 3.24514 0
M  V30 354 H 32.0983 -3.98119 4.64016 0
M  V30 355 H 36.2723 -4.11468 5.61843 0
M  V30 356 H 33.8993 -4.22384 6.32057 0
M  V30 357 N 35.4744 -0.807222 -1.35358 0
M  V30 358 C 36.8854 -0.44876 -1.81226 0
M  V30 359 C 37.2364 1.02929 -1.67033 0
M  V30 360 O 36.3614 1.79991 -1.20133 0
M  V30 361 C 36.9564 -0.807774 -3.2903 0
M  V30 362 C 35.5154 -0.501901 -3.73039 0
M  V30 363 C 34.6624 -1.03304 -2.57339 0
M  V30 364 H 37.6134 -0.998808 -1.23327 0
M  V30 365 H 37.6344 -0.10554 -3.80354 0
M  V30 366 H 37.1464 -1.88357 -3.39328 0
M  V30 367 H 35.2474 0.565128 -3.68289 0
M  V30 368 H 35.3604 -1.03497 -4.67787 0
M  V30 369 H 33.7244 -0.455339 -2.50597 0
M  V30 370 H 34.5074 -2.11496 -2.70415 0
M  V30 371 N 36.9525 1.47285 -0.560781 0
M  V30 372 C 38.1805 2.06855 -0.0430262 0
M  V30 373 C 38.5955 1.41291 1.25229 0
M  V30 374 O 37.9525 0.510648 1.7521 0
M  V30 375 C 38.0035 3.61178 0.152518 0
M  V30 376 O 37.7245 4.24285 -1.0915 0
M  V30 377 C 39.2255 4.37624 0.707145 0
M  V30 378 H 36.4455 0.669319 -0.0474652 0
M  V30 379 H 38.9895 1.89237 -0.77521 0
M  V30 380 H 37.1445 3.78298 0.834843 0
M  V30 381 H 37.5585 5.16868 -0.891482 0
M  V30 382 H 39.0325 5.46271 0.793244 0
M  V30 383 H 39.5095 4.04152 1.71923 0
M  V30 384 H 40.1155 4.25257 0.0604027 0
M  V30 385 N 38.4306 0.297415 1.54768 0
M  V30 386 C 39.8416 -0.195947 1.85669 0
M  V30 387 C 40.1926 -1.53707 1.21937 0
M  V30 388 O 39.3176 -2.10164 0.515754 0
M  V30 389 C 39.9126 -0.362318 3.36857 0
M  V30 390 C 38.4716 -0.799901 3.67802 0
M  V30 391 C 37.6186 0.0938578 2.77141 0
M  V30 392 H 40.5696 0.518538 1.4999 0
M  V30 393 H 40.5906 -1.19745 3.61167 0
M  V30 394 H 40.1026 0.613921 3.83214 0
M  V30 395 H 38.2036 -1.78682 3.26961 0
M  V30 396 H 38.3166 -0.621773 4.75048 0
M  V30 397 H 36.6806 -0.426254 2.51108 0
M  V30 398 H 37.4636 1.06639 3.26318 0
M  V30 399 N 39.9087 -1.5758 0.0250728 0
M  V30 400 C 41.1567 -1.91255 -0.653151 0
M  V30 401 C 41.4777 -0.901691 -1.729 0
M  V30 402 O 40.7477 0.0573785 -1.95816 0
M  V30 403 H 39.3277 -0.705942 -0.244243 0
M  V30 404 H 41.9897 -1.94767 0.0719209 0
M  V30 405 H 41.0857 -2.91752 -1.10847 0
M  V30 406 N 41.3868 0.248026 -1.55636 0
M  V30 407 C 42.2968 1.32859 -1.93354 0
M  V30 408 C 43.3128 1.52719 -0.833838 0
M  V30 409 O 44.4888 1.66363 -1.13513 0
M  V30 410 C 41.5538 2.66337 -2.21958 0
M  V30 411 C 40.6148 2.55008 -3.45354 0
M  V30 412 C 39.8478 3.82121 -3.72584 0
M  V30 413 O 40.0708 4.83951 -3.01907 0
M  V30 414 O 39.0048 3.80822 -4.6611 0
M  V30 415 H 42.8308 1.03862 -2.85388 0
M  V30 416 H 40.4158 0.448686 -1.42503 0
M  V30 417 H 42.2978 3.45216 -2.4167 0
M  V30 418 H 40.9728 2.95068 -1.33103 0
M  V30 419 H 39.8798 1.7442 -3.30951 0
M  V30 420 H 41.2128 2.31222 -4.34508 0
M  V30 421 N 42.8649 1.48995 0.513639 0
M  V30 422 C 44.0929 1.61531 1.29288 0
M  V30 423 C 44.5079 0.281801 1.86685 0
M  V30 424 O 43.8649 -0.731111 1.67215 0
M  V30 425 C 43.9159 2.67449 2.43215 0
M  V30 426 O 43.6369 3.95626 1.88179 0
M  V30 427 C 45.1379 2.90575 3.34785 0
M  V30 428 H 42.3579 0.544165 0.392588 0
M  V30 429 H 44.9019 1.9494 0.617956 0
M  V30 430 H 43.0569 2.36853 3.0656 0
M  V30 431 H 43.4709 4.53868 2.62876 0
M  V30 432 H 44.9449 3.68449 4.11035 0
M  V30 433 H 45.4219 2.00011 3.91015 0
M  V30 434 H 46.0279 3.22538 2.77218 0
M  V30 435 N 44.343 -0.763751 1.37857 0
M  V30 436 C 45.589 -1.52483 1.33704 0
M  V30 437 C 45.922 -1.94051 -0.0759612 0
M  V30 438 O 45.197 -1.64675 -1.03501 0
M  V30 439 C 45.48 -2.78441 2.28348 0
M  V30 440 C 45.333 -2.43075 3.78463 0
M  V30 441 C 46.652 -3.80415 2.21298 0
M  V30 442 H 43.771 -0.553169 0.487005 0
M  V30 443 H 46.413 -0.875562 1.68624 0
M  V30 444 H 44.563 -3.33842 1.987 0
M  V30 445 H 46.235 -1.93527 4.18742 0
M  V30 446 H 44.478 -1.75666 3.96641 0
M  V30 447 H 45.149 -3.33149 4.40132 0
M  V30 448 H 47.625 -3.34527 2.47449 0
M  V30 449 H 46.501 -4.66257 2.89647 0
M  V30 450 H 46.762 -4.25262 1.20849 0
M  V30 451 N 45.8211 -1.22559 -0.990812 0
M  V30 452 C 47.0491 -1.07779 -1.76611 0
M  V30 453 C 47.4641 0.371513 -1.85109 0
M  V30 454 O 46.8211 1.25737 -1.32274 0
M  V30 455 C 46.8721 -1.68512 -3.19822 0
M  V30 456 O 46.5931 -3.07774 -3.1178 0
M  V30 457 C 48.0941 -1.59035 -4.13791 0
M  V30 458 H 45.3141 -0.377729 -0.554583 0
M  V30 459 H 47.8581 -1.62195 -1.24551 0
M  V30 460 H 46.0131 -1.18154 -3.68942 0
M  V30 461 H 46.4271 -3.37062 -4.01858 0
M  V30 462 H 47.9011 -2.0625 -5.1202 0
M  V30 463 H 48.3781 -0.547273 -4.35777 0
M  V30 464 H 48.9841 -2.08709 -3.70568 0
M  V30 465 N 47.2992 1.18797 -1.03562 0
M  V30 466 C 48.5472 1.88278 -0.734569 0
M  V30 467 C 48.8682 1.8043 0.739586 0
M  V30 468 O 48.1382 1.21925 1.53333 0
M  V30 469 H 46.7182 0.696991 -0.268725 0
M  V30 470 H 49.3802 1.44192 -1.31129 0
M  V30 471 H 48.4762 2.94443 -1.03489 0
M  V30 472 N 48.7773 0.814389 1.34928 0
M  V30 473 C 49.7253 0.218424 2.31572 0
M  V30 474 C 50.7193 -0.636128 1.57002 0
M  V30 475 O 51.9253 -0.52842 1.72069 0
M  V30 476 H 48.3003 0.0518799 0.750208 0
M  V30 477 H 50.2713 1.04852 2.79372 0
M  V30 478 C 49.0203 -0.61207 3.4227 0
M  V30 479 H 48.3433 0.0361578 3.99784 0
M  V30 480 H 49.7833 -0.995317 4.12152 0
M  V30 481 C 48.2423 -1.78087 2.85984 0
M  V30 482 O 48.7723 -2.8787 2.80168 0
M  V30 483 N 46.9783 -1.59488 2.42924 0
M  V30 484 H 46.5253 -0.701874 2.47854 0
M  V30 485 H 46.4833 -2.37846 2.05613 0
M  V30 486 N 50.2554 -1.46986 0.568584 0
M  V30 487 C 51.2054 -2.27179 -0.193339 0
M  V30 488 C 52.1894 -1.35035 -0.874895 0
M  V30 489 O 53.3814 -1.5931 -0.771322 0
M  V30 490 C 50.5104 -3.21063 -1.21546 0
M  V30 491 C 49.5964 -4.2069 -0.536738 0
M  V30 492 N 49.9874 -5.04218 0.399673 0
M  V30 493 C 48.2854 -4.38961 -0.789254 0
M  V30 494 C 48.9864 -5.76242 0.795017 0
M  V30 495 N 47.9624 -5.434 0.1473 0
M  V30 496 H 51.7644 -2.89146 0.526458 0
M  V30 497 H 49.2784 -1.57664 0.389342 0
M  V30 498 H 51.2754 -3.77209 -1.77536 0
M  V30 499 H 49.9354 -2.60654 -1.93623 0
M  V30 500 H 50.9464 -5.12077 0.774454 0
M  V30 501 H 47.6234 -3.89713 -1.49767 0
M  V30 502 H 49.0134 -6.53417 1.56513 0
M  V30 503 N 51.7335 -0.305618 -1.54608 0
M  V30 504 C 52.9635 0.304333 -2.04346 0
M  V30 505 C 53.3715 1.47715 -1.18224 0
M  V30 506 O 52.7145 1.82591 -0.201577 0
M  V30 507 C 52.7765 0.819031 -3.50046 0
M  V30 508 C 52.4405 -0.22912 -4.56425 0
M  V30 509 C 53.4375 -1.05914 -5.08997 0
M  V30 510 C 51.1225 -0.372148 -5.0092 0
M  V30 511 C 53.1165 -2.01809 -6.04609 0
M  V30 512 C 50.8035 -1.33454 -5.9635 0
M  V30 513 C 51.8015 -2.15599 -6.48079 0
M  V30 514 O 51.4895 -3.10205 -7.41639 0
M  V30 515 H 51.2215 0.0693996 -0.672428 0
M  V30 516 H 53.7755 -0.444548 -2.00532 0
M  V30 517 H 52.0055 1.61852 -3.51199 0
M  V30 518 H 53.6945 1.34537 -3.82955 0
M  V30 519 H 54.4605 -0.959538 -4.75413 0
M  V30 520 H 50.3395 0.257304 -4.60281 0
M  V30 521 H 53.8835 -2.65966 -6.44909 0
M  V30 522 H 49.7805 -1.43485 -6.29351 0
M  V30 523 H 50.5485 -3.05237 -7.59455 0
M  V30 524 N 53.2116 1.57565 -0.0334293 0
M  V30 525 C 54.1436 2.0739 0.975811 0
M  V30 526 C 55.1566 0.998166 1.2861 0
M  V30 527 O 56.3456 1.27426 1.25 0
M  V30 528 C 53.4456 2.4871 2.30209 0
M  V30 529 C 52.6186 3.79413 2.17634 0
M  V30 530 C 51.6776 4.07237 3.33233 0
M  V30 531 O 50.7036 4.77425 3.09927 0
M  V30 532 N 51.9056 3.5775 4.5716 0
M  V30 533 H 54.6706 2.94598 0.55066 0
M  V30 534 H 52.2316 1.61173 0.15323 0
M  V30 535 H 54.2236 2.64413 3.06378 0
M  V30 536 H 52.7936 1.66845 2.64351 0
M  V30 537 H 52.0136 3.73465 1.26165 0
M  V30 538 H 53.3016 4.65038 2.0644 0
M  V30 539 H 52.6996 3.00976 4.78989 0
M  V30 540 H 51.2566 3.78724 5.30482 0
M  V30 541 N 54.6897 -0.239769 1.55765 0
M  V30 542 C 55.9357 -0.968234 1.78194 0
M  V30 543 C 56.2687 -1.84701 0.599938 0
M  V30 544 O 55.5437 -1.9031 -0.401524 0
M  V30 545 C 55.8267 -1.8227 3.10564 0
M  V30 546 C 55.6797 -0.971633 4.3918 0
M  V30 547 C 56.9987 -2.80388 3.39221 0
M  V30 548 H 54.1177 -0.350572 0.648281 0
M  V30 549 H 56.7597 -0.238259 1.885 0
M  V30 550 H 54.9097 -2.44507 3.01908 0
M  V30 551 H 56.5817 -0.367408 4.59835 0
M  V30 552 H 54.8247 -0.276276 4.32919 0
M  V30 553 H 55.4957 -1.60346 5.28198 0
M  V30 554 H 57.9717 -2.28287 3.47885 0
M  V30 555 H 56.8477 -3.3729 4.33044 0
M  V30 556 H 57.1087 -3.57212 2.60484 0
M  V30 557 N 56.1678 -1.49265 -0.50573 0
M  V30 558 C 57.1308 -1.65075 -1.59006 0
M  V30 559 C 58.1308 -0.522768 -1.52065 0
M  V30 560 O 59.3208 -0.789117 -1.55302 0
M  V30 561 C 56.4528 -1.64369 -2.98656 0
M  V30 562 H 57.6458 -2.61784 -1.46319 0
M  V30 563 H 55.1988 -1.38226 -0.729616 0
M  V30 564 H 55.9338 -0.692272 -3.16825 0
M  V30 565 H 55.7188 -2.46282 -3.05103 0
M  V30 566 H 57.2088 -1.78674 -3.77446 0
M  V30 567 N 57.6459 0.756429 -1.3826 0
M  V30 568 C 58.8929 1.51547 -1.34312 0
M  V30 569 C 59.2209 1.94382 0.0677144 0
M  V30 570 O 58.4759 1.65514 1.04421 0
M  V30 571 C 58.7749 2.78313 -2.24224 0
M  V30 572 C 58.4409 2.54455 -3.72241 0
M  V30 573 C 57.1029 2.47657 -4.12576 0
M  V30 574 C 59.4549 2.3354 -4.65949 0
M  V30 575 C 56.7829 2.17956 -5.44713 0
M  V30 576 C 59.1349 2.05359 -5.9834 0
M  V30 577 C 57.7989 1.97016 -6.37762 0
M  V30 578 H 57.0689 0.55455 -0.491482 0
M  V30 579 H 59.7159 0.870039 -1.70595 0
M  V30 580 H 58.0209 3.47492 -1.80987 0
M  V30 581 H 59.7179 3.36259 -2.18474 0
M  V30 582 H 56.3079 2.60616 -3.40261 0
M  V30 583 H 60.4919 2.37772 -4.35635 0
M  V30 584 H 55.7479 2.10003 -5.74203 0
M  V30 585 H 59.9219 1.88179 -6.70494 0
M  V30 586 H 57.5489 1.73766 -7.40074 0
M  V30 587 N 59.124 1.23083 0.984299 0
M  V30 588 C 60.372 1.05848 1.72165 0
M  V30 589 C 60.693 -0.406049 1.90726 0
M  V30 590 O 59.963 -1.29139 1.47309 0
M  V30 591 H 58.543 0.388685 0.637913 0
M  V30 592 H 61.205 1.54736 1.18503 0
M  V30 593 H 60.301 1.54327 2.71274 0
M  V30 594 N 60.6021 -1.18246 1.0419 0
M  V30 595 C 61.8501 -1.87886 0.744543 0
M  V30 596 C 62.1711 -1.8082 -0.730006 0
M  V30 597 O 61.4411 -1.22736 -1.52685 0
M  V30 598 H 60.0211 -0.695556 0.272417 0
M  V30 599 H 62.6831 -1.43494 1.31892 0
M  V30 600 H 61.7791 -2.9389 1.05049 0
M  V30 601 N 62.0802 -0.821533 -1.34494 0
M  V30 602 C 63.0272 -0.240397 -2.29545 0
M  V30 603 C 63.9972 0.634031 -1.53523 0
M  V30 604 O 65.1822 0.575966 -1.81899 0
M  V30 605 C 62.3222 0.592869 -3.39969 0
M  V30 606 C 61.4352 -0.30365 -4.30932 0
M  V30 607 C 60.5702 0.539049 -5.28458 0
M  V30 608 C 59.6092 -0.356942 -6.11058 0
M  V30 609 N 58.7462 0.446603 -7.00678 0
M  V30 610 H 63.5862 -1.05632 -2.7865 0
M  V30 611 H 61.1232 -0.532413 -1.37127 0
M  V30 612 H 63.0812 1.09129 -4.02675 0
M  V30 613 H 61.7112 1.37392 -2.92102 0
M  V30 614 H 60.7632 -0.920276 -3.691 0
M  V30 615 H 62.0752 -0.992661 -4.88823 0
M  V30 616 H 61.2292 1.102 -5.96608 0
M  V30 617 H 59.9682 1.26157 -4.71101 0
M  V30 618 H 58.9732 -0.932047 -5.41842 0
M  V30 619 H 60.1982 -1.07755 -6.70497 0
M  V30 620 H 58.1442 1.15282 -6.45791 0
M  V30 621 H 58.0612 -0.184048 -7.55776 0
M  V30 622 H 59.3292 0.992352 -7.73158 0
M  V30 623 N 63.5583 1.46682 -0.576371 0
M  V30 624 C 64.8063 2.02013 -0.0594163 0
M  V30 625 C 65.1273 1.45101 1.30271 0
M  V30 626 O 64.3973 0.633317 1.8538 0
M  V30 627 H 62.9773 0.746759 -0.0189745 0
M  V30 628 H 65.6393 1.79862 -0.750717 0
M  V30 629 H 64.7353 3.12097 0.014345 0
M  V30 630 N 65.0364 0.313813 1.54444 0
M  V30 631 C 65.9994 -0.54379 2.22656 0
M  V30 632 C 66.9994 -1.05124 1.21678 0
M  V30 633 O 68.1894 -0.945225 1.46325 0
M  V30 634 C 65.3214 -1.75427 2.92298 0
M  V30 635 H 66.5144 0.0523599 2.99854 0
M  V30 636 H 64.0674 0.0647834 1.56166 0
M  V30 637 H 64.8024 -2.38991 2.19211 0
M  V30 638 H 64.5874 -1.39791 3.66334 0
M  V30 639 H 66.0774 -2.36325 3.44297 0
M  V30 640 N 66.5145 -1.57545 0.0417849 0
M  V30 641 C 67.4625 -2.12148 -0.953723 0
M  V30 642 C 68.4565 -1.05104 -1.32852 0
M  V30 643 O 69.6625 -1.23524 -1.30927 0
M  V30 644 H 66.0375 -0.677957 -0.325389 0
M  V30 645 H 68.0085 -2.94707 -0.467991 0
M  V30 646 C 66.7575 -2.6739 -2.22257 0
M  V30 647 H 66.0805 -3.49413 -1.94295 0
M  V30 648 H 67.5205 -3.09227 -2.90094 0
M  V30 649 C 65.9795 -1.60723 -2.96091 0
M  V30 650 O 66.5095 -1.01449 -3.88679 0
M  V30 651 N 64.7155 -1.32466 -2.58652 0
M  V30 652 H 64.2625 -1.80856 -1.83437 0
M  V30 653 H 64.2205 -0.61325 -3.08361 0
M  V30 654 N 67.9926 0.231505 -1.5589 0
M  V30 655 C 68.9246 1.31006 -1.8807 0
M  V30 656 C 69.9376 1.43539 -0.768145 0
M  V30 657 O 71.1266 1.44614 -1.04638 0
M  V30 658 C 68.2266 2.68688 -2.06543 0
M  V30 659 C 67.3996 2.78228 -3.37502 0
M  V30 660 C 66.4586 3.96857 -3.4553 0
M  V30 661 O 65.4846 3.85662 -4.18633 0
M  V30 662 N 66.6866 5.1072 -2.75944 0
M  V30 663 H 69.4516 1.03731 -2.81176 0
M  V30 664 H 67.0126 0.421573 -1.56315 0
M  V30 665 H 69.0046 3.46412 -2.09239 0
M  V30 666 H 67.5746 2.88605 -1.20109 0
M  V30 667 H 66.7946 1.87059 -3.46991 0
M  V30 668 H 68.0826 2.81564 -4.23791 0
M  V30 669 H 67.4806 5.2271 -2.16311 0
M  V30 670 H 66.0376 5.86523 -2.84314 0
M  V30 671 N 69.4707 1.49531 0.497807 0
M  V30 672 C 70.4337 1.65916 1.58128 0
M  V30 673 C 71.4337 0.530825 1.51786 0
M  V30 674 O 72.6237 0.797342 1.54881 0
M  V30 675 C 69.7557 1.65951 2.9778 0
M  V30 676 H 70.9487 2.62556 1.44929 0
M  V30 677 H 68.5017 1.38611 0.722275 0
M  V30 678 H 69.2367 0.709065 3.16453 0
M  V30 679 H 69.0217 2.47897 3.03792 0
M  V30 680 H 70.5117 1.80673 3.76493 0
M  V30 681 N 70.9488 -0.749086 1.3866 0
M  V30 682 C 72.1948 -1.51056 1.35314 0
M  V30 683 C 72.5278 -1.94121 -0.0553751 0
M  V30 684 O 71.8028 -1.65763 -1.01749 0
M  V30 685 C 72.0858 -2.76003 2.31288 0
M  V30 686 C 71.9388 -2.39047 3.8102 0
M  V30 687 C 73.2578 -3.78046 2.2532 0
M  V30 688 H 70.3768 -0.547972 0.492844 0
M  V30 689 H 73.0188 -0.857628 1.69543 0
M  V30 690 H 71.1688 -3.31716 2.02229 0
M  V30 691 H 72.8408 -1.89074 4.20771 0
M  V30 692 H 71.0838 -1.71449 3.98482 0
M  V30 693 H 71.7548 -3.28462 4.4364 0
M  V30 694 H 74.2308 -3.31884 2.50983 0
M  V30 695 H 73.1068 -4.63159 2.94576 0
M  V30 696 H 73.3678 -4.23957 1.25352 0
M  V30 697 N 72.4269 -1.23603 -0.977757 0
M  V30 698 C 73.3899 -1.02069 -2.05218 0
M  V30 699 C 74.3899 0.0184305 -1.60789 0
M  V30 700 O 75.5799 -0.221569 -1.72785 0
M  V30 701 C 72.7119 -0.544926 -3.36517 0
M  V30 702 H 73.9049 -1.9742 -2.25755 0
M  V30 703 H 71.4579 -1.05684 -1.15155 0
M  V30 704 H 72.1929 0.412241 -3.21669 0
M  V30 705 H 71.9779 -1.2948 -3.70105 0
M  V30 706 H 73.4679 -0.414985 -4.15533 0
M  V30 707 N 73.905 1.17692 -1.04816 0
M  V30 708 C 74.868 2.19787 -0.650117 0
M  V30 709 C 75.868 1.58044 0.296427 0
M  V30 710 O 77.058 1.74012 0.0808097 0
M  V30 711 C 74.19 3.40869 0.0456987 0
M  V30 712 H 75.383 2.56516 -1.5537 0
M  V30 713 H 72.936 1.31708 -0.841594 0
M  V30 714 H 73.671 3.09681 0.962726 0
M  V30 715 H 73.456 3.86928 -0.634727 0
M  V30 716 H 74.946 4.16445 0.310432 0
M  V30 717 N 75.3831 0.828654 1.34056 0
M  V30 718 C 76.6311 0.41863 1.97717 0
M  V30 719 C 76.9521 -1.02314 1.66002 0
M  V30 720 O 76.2221 -1.71119 0.953683 0
M  V30 721 H 74.8021 0.151809 0.731412 0
M  V30 722 H 77.4641 1.05936 1.63596 0
M  V30 723 H 76.5601 0.542318 3.07352 0
M  V30 724 N 76.8612 -1.46375 0.584142 0
M  V30 725 C 78.2772 -1.57694 0.245929 0
M  V30 726 C 78.4772 -1.57903 -1.25175 0
M  V30 727 O 77.5332 -1.49676 -2.03355 0
M  V30 728 C 78.8462 -2.87028 0.896402 0
M  V30 729 C 80.3942 -3.00662 0.870127 0
M  V30 730 C 80.8692 -4.32734 1.50017 0
M  V30 731 N 82.3602 -4.39436 1.46458 0
M  V30 732 C 83.0952 -5.40248 1.92144 0
M  V30 733 N 82.5912 -6.47726 2.4581 0
M  V30 734 N 84.3842 -5.31459 1.83052 0
M  V30 735 H 76.5352 -1.44483 1.55687 0
M  V30 736 H 78.7982 -0.689291 0.650831 0
M  V30 737 H 78.5042 -2.9269 1.95002 0
M  V30 738 H 78.3782 -3.75014 0.405486 0
M  V30 739 H 80.7652 -2.94581 -0.174871 0
M  V30 740 H 80.8462 -2.14148 1.39908 0
M  V30 741 H 80.4902 -4.39573 2.54437 0
M  V30 742 H 80.4202 -5.18025 0.946432 0
M  V30 743 H 82.9112 -3.62367 1.07231 0
M  V30 744 H 83.2242 -7.20863 2.78525 0
M  V30 745 H 81.5692 -6.48542 2.49836 0
M  V30 746 H 84.7602 -4.46396 1.40883 0
M  V30 747 H 84.9332 -6.09881 2.18973 0
M  V30 748 N 78.3393 -0.321999 -1.54275 0
M  V30 749 C 79.5643 0.285791 -2.05422 0
M  V30 750 C 79.9893 1.45124 -1.19669 0
M  V30 751 O 79.3473 1.80132 -0.205441 0
M  V30 752 C 79.3953 0.69956 -3.53749 0
M  V30 753 O 78.4993 1.8021 -3.70942 0
M  V30 754 H 77.8403 0.0518962 -0.661969 0
M  V30 755 H 80.3703 -0.469954 -1.9913 0
M  V30 756 H 80.3803 0.982649 -3.9599 0
M  V30 757 H 79.0553 -0.152864 -4.15619 0
M  V30 758 H 77.6323 1.51794 -3.40607 0
M  V30 759 N 79.8174 1.5752 -0.0501392 0
M  V30 760 C 81.0654 1.9227 0.622642 0
M  V30 761 C 81.3864 0.929083 1.71444 0
M  V30 762 O 80.6564 -0.0262186 1.95882 0
M  V30 763 H 79.2364 0.709739 0.232981 0
M  V30 764 H 81.8984 1.94628 -0.102898 0
M  V30 765 H 80.9944 2.93479 1.06191 0
M  V30 766 N 81.2955 -0.223234 1.56011 0
M  V30 767 C 82.2585 -1.26014 1.9145 0
M  V30 768 C 83.2585 -1.3989 0.792937 0
M  V30 769 O 84.4485 -1.38184 1.0607 0
M  V30 770 C 81.5805 -2.63422 2.16383 0
M  V30 771 H 82.7735 -0.95796 2.84189 0
M  V30 772 H 80.3265 -0.463576 1.49267 0
M  V30 773 H 81.0615 -2.98741 1.2619 0
M  V30 774 H 80.8465 -2.54728 2.98088 0
M  V30 775 H 82.3365 -3.38249 2.44903 0
M  V30 776 N 82.7736 -1.49793 -0.48987 0
M  V30 777 C 83.7216 -1.67783 -1.61095 0
M  V30 778 C 84.7156 -0.543683 -1.60438 0
M  V30 779 O 85.9216 -0.723647 -1.64813 0
M  V30 780 H 82.2966 -0.529255 -0.534222 0
M  V30 781 H 84.2676 -2.61861 -1.43078 0
M  V30 782 C 83.0166 -1.77191 -2.99164 0
M  V30 783 H 82.3396 -2.63841 -3.0038 0
M  V30 784 H 83.7796 -1.93809 -3.77113 0
M  V30 785 C 82.2386 -0.519203 -3.32875 0
M  V30 786 O 82.7686 0.350124 -4.00171 0
M  V30 787 N 80.9746 -0.378816 -2.8812 0
M  V30 788 H 80.5216 -1.08725 -2.33531 0
M  V30 789 H 80.4796 0.458239 -3.11043 0
M  V30 790 N 84.2517 0.741722 -1.39055 0
M  V30 791 C 85.5007 1.49656 -1.35225 0
M  V30 792 C 85.8137 1.95533 0.0512708 0
M  V30 793 O 87.0197 2.7067 0.212138 0
M  V30 794 C 85.4757 2.70389 -2.37525 0
M  V30 795 C 85.0837 2.31489 -3.83558 0
M  V30 796 C 86.8277 3.48236 -2.42759 0
M  V30 797 C 84.7347 3.48903 -4.77515 0
M  V30 798 H 83.6647 0.56197 -0.502699 0
M  V30 799 H 86.3157 0.809727 -1.64668 0
M  V30 800 H 84.6977 3.41113 -2.01142 0
M  V30 801 H 85.8717 1.68354 -4.28945 0
M  V30 802 H 84.1867 1.66749 -3.81554 0
M  V30 803 H 86.7837 4.35558 -3.1015 0
M  V30 804 H 87.1267 3.90229 -1.45008 0
M  V30 805 H 87.6597 2.84535 -2.78002 0
M  V30 806 H 84.3987 3.11966 -5.76504 0
M  V30 807 H 83.9187 4.11041 -4.36813 0
M  V30 808 H 85.5977 4.15328 -4.96096 0
M  V30 809 N 85.7298 1.2412 0.971189 0
M  V30 810 C 86.6928 1.03156 2.04674 0
M  V30 811 C 87.6928 -0.00990322 1.60797 0
M  V30 812 O 88.8828 0.230729 1.72665 0
M  V30 813 C 86.0148 0.562765 3.36223 0
M  V30 814 H 87.2078 1.98614 2.24705 0
M  V30 815 H 84.7608 1.06293 1.14593 0
M  V30 816 H 85.4958 -0.395176 3.21883 0
M  V30 817 H 85.2808 1.31441 3.69413 0
M  V30 818 H 86.7708 0.437015 4.15307 0
M  V30 819 N 87.2079 -1.17134 1.05439 0
M  V30 820 C 88.4549 -1.87456 0.765942 0
M  V30 821 C 88.7829 -1.81189 -0.707153 0
M  V30 822 O 88.0379 -1.21633 -1.5331 0
M  V30 823 C 88.3369 -3.36833 1.19491 0
M  V30 824 C 88.0029 -3.63301 2.67063 0
M  V30 825 C 86.6649 -3.70234 3.07376 0
M  V30 826 C 89.0169 -3.74575 3.62413 0
M  V30 827 C 86.3449 -3.85933 4.41896 0
M  V30 828 C 88.6969 -3.91793 4.9667 0
M  V30 829 C 87.3609 -3.96966 5.36633 0
M  V30 830 H 86.6309 -0.685948 0.280278 0
M  V30 831 H 89.2779 -1.38556 1.32192 0
M  V30 832 H 87.5829 -3.87807 0.557969 0
M  V30 833 H 89.2799 -3.89611 0.948893 0
M  V30 834 H 85.8699 -3.58532 2.34846 0
M  V30 835 H 90.0539 -3.68537 3.32406 0
M  V30 836 H 85.3099 -3.88187 4.72357 0
M  V30 837 H 89.4839 -3.99458 5.70444 0
M  V30 838 H 87.1109 -4.08883 6.40874 0
M  V30 839 N 88.686 -0.835752 -1.33615 0
M  V30 840 C 89.935 -0.426289 -1.97144 0
M  V30 841 C 90.248 1.01912 -1.66953 0
M  V30 842 O 91.454 1.53311 -2.24072 0
M  V30 843 C 89.91 -0.711321 -3.52801 0
M  V30 844 C 89.518 -2.1712 -3.91871 0
M  V30 845 C 91.262 -0.368654 -4.22896 0
M  V30 846 C 89.169 -2.40044 -5.40493 0
M  V30 847 H 88.099 -0.15567 -0.737755 0
M  V30 848 H 90.75 -1.0239 -1.52278 0
M  V30 849 H 89.132 -0.0433766 -3.95976 0
M  V30 850 H 90.306 -2.87936 -3.59763 0
M  V30 851 H 88.621 -2.47654 -3.34749 0
M  V30 852 H 91.218 -0.517601 -5.32189 0
M  V30 853 H 91.561 0.688078 -4.10574 0
M  V30 854 H 92.094 -0.991702 -3.8524 0
M  V30 855 H 88.833 -3.44271 -5.57815 0
M  V30 856 H 88.353 -1.73785 -5.74072 0
M  V30 857 H 90.032 -2.23042 -6.0734 0
M  V30 858 N 90.1641 1.46063 -0.591896 0
M  V30 859 C 91.1271 2.28854 0.125973 0
M  V30 860 C 92.1271 1.38903 0.810107 0
M  V30 861 O 93.3171 1.61186 0.66066 0
M  V30 862 C 90.4491 3.19526 1.1881 0
M  V30 863 H 91.6421 2.93802 -0.601717 0
M  V30 864 H 89.1951 1.52325 -0.350254 0
M  V30 865 H 89.9301 2.59345 1.94707 0
M  V30 866 H 89.7151 3.85766 0.701936 0
M  V30 867 H 91.2051 3.81817 1.69132 0
M  V30 868 N 91.6422 0.330177 1.54103 0
M  V30 869 C 92.8822 -0.270916 2.02597 0
M  V30 870 C 93.2462 -1.48826 1.21304 0
M  V30 871 O 94.4472 -2.16266 1.59633 0
M  V30 872 C 92.7182 -0.590328 3.52491 0
M  V30 873 S 94.2772 -1.17014 4.2291 0
M  V30 874 H 91.0952 -0.0815379 0.706309 0
M  V30 875 H 93.6972 0.464835 1.89893 0
M  V30 876 H 92.4012 0.303691 4.09275 0
M  V30 877 H 91.9322 -1.3561 3.69288 0
M  V30 878 H 93.9472 -2.45662 4.3112 0
M  V30 879 N 93.1203 -1.57491 0.0584922 0
M  V30 880 C 94.3483 -1.97296 -0.623037 0
M  V30 881 C 94.7633 -0.936338 -1.63946 0
M  V30 882 O 94.1203 0.0785981 -1.82331 0
M  V30 883 C 94.1713 -3.37183 -1.30345 0
M  V30 884 O 93.8923 -4.36872 -0.32773 0
M  V30 885 C 95.3933 -3.91788 -2.07406 0
M  V30 886 H 92.6133 -0.649153 -0.169826 0
M  V30 887 H 95.1573 -2.04106 0.12696 0
M  V30 888 H 93.3123 -3.31502 -2.00463 0
M  V30 889 H 93.7263 -5.18141 -0.814269 0
M  V30 890 H 95.2003 -4.91926 -2.50425 0
M  V30 891 H 95.6773 -3.27609 -2.92521 0
M  V30 892 H 96.2833 -4.00829 -1.42184 0
M  V30 893 N 94.5984 0.214957 -1.56127 0
M  V30 894 C 95.8464 0.936518 -1.79091 0
M  V30 895 C 96.1674 1.84606 -0.628148 0
M  V30 896 O 95.4374 1.92664 0.35462 0
M  V30 897 H 94.0174 0.3488 -0.660566 0
M  V30 898 H 96.6794 0.22523 -1.93594 0
M  V30 899 H 95.7754 1.53943 -2.71492 0
M  V30 900 N 96.0765 1.50051 0.48192 0
M  V30 901 C 97.3535 1.51009 1.2432 0
M  V30 902 C 97.7335 0.248587 2.09631 0
M  V30 903 O 97.0815 -0.768409 2.15192 0
M  V30 904 C 97.2915 2.79981 2.08355 0
M  V30 905 C 98.6395 3.3022 2.66908 0
M  V30 906 O 99.6635 2.81228 2.18607 0
M  V30 907 O 98.5225 4.15595 3.54884 0
M  V30 908 H 95.6165 0.605239 0.563573 0
M  V30 909 H 98.1625 1.62332 0.494627 0
M  V30 910 H 96.9345 3.63275 1.45419 0
M  V30 911 H 96.5575 2.7161 2.90368 0
M  V30 912 N 97.5546 -0.734337 1.39446 0
M  V30 913 C 98.8316 -1.48579 1.27215 0
M  V30 914 C 99.2116 -2.1077 -0.117968 0
M  V30 915 O 98.5596 -1.98646 -1.12924 0
M  V30 916 C 98.7696 -2.53667 2.39696 0
M  V30 917 C 100.118 -3.20031 2.79044 0
M  V30 918 O 101.142 -2.6398 2.39151 0
M  V30 919 O 100.001 -4.21455 3.47905 0
M  V30 920 H 97.0946 -0.659816 0.49857 0
M  V30 921 H 99.6406 -0.768106 1.51322 0
M  V30 922 H 98.4126 -2.06096 3.32626 0
M  V30 923 H 98.0356 -3.32994 2.17258 0
M  V30 924 N 99.0327 -1.24633 -0.964593 0
M  V30 925 C 100.258 -1.11596 -1.74818 0
M  V30 926 C 100.683 0.32723 -1.85232 0
M  V30 927 O 100.041 1.23695 -1.32549 0
M  V30 928 C 100.089 -1.76397 -3.1451 0
M  V30 929 O 99.1927 -1.03685 -3.99153 0
M  V30 930 H 98.5337 -0.390196 -0.537255 0
M  V30 931 H 101.064 -1.65002 -1.20977 0
M  V30 932 H 101.074 -1.8228 -3.65018 0
M  V30 933 H 99.7487 -2.81401 -3.06246 0
M  V30 934 H 98.3257 -1.05611 -3.57632 0
M  V30 935 N 100.511 1.16574 -1.06058 0
M  V30 936 C 101.76 1.86385 -0.770944 0
M  V30 937 C 102.073 1.82448 0.705129 0
M  V30 938 O 103.279 2.47815 1.10905 0
M  V30 939 C 101.735 3.34466 -1.32893 0
M  V30 940 C 101.343 3.46883 -2.83507 0
M  V30 941 C 103.087 4.09548 -1.11672 0
M  V30 942 C 100.994 4.89036 -3.32562 0
M  V30 943 H 99.9238 0.698181 -0.284709 0
M  V30 944 H 102.575 1.31583 -1.27899 0
M  V30 945 H 100.957 3.88859 -0.748662 0
M  V30 946 H 102.131 3.02663 -3.47465 0
M  V30 947 H 100.446 2.85232 -3.03368 0
M  V30 948 H 103.043 5.14434 -1.45814 0
M  V30 949 H 103.386 4.16264 -0.0549535 0
M  V30 950 H 103.919 3.61387 -1.66265 0
M  V30 951 H 100.658 4.87499 -4.38207 0
M  V30 952 H 100.178 5.3389 -2.73351 0
M  V30 953 H 101.857 5.57843 -3.2775 0
M  V30 954 N 101.989 0.842826 1.3317 0
M  V30 955 C 103.237 0.439577 1.97262 0
M  V30 956 C 103.558 -1.00548 1.67078 0
M  V30 957 O 102.828 -1.70098 0.971779 0
M  V30 958 H 101.408 0.159558 0.72976 0
M  V30 959 H 104.07 1.07665 1.62463 0
M  V30 960 H 103.166 0.574886 3.0676 0
M  V30 961 N 103.467 -1.45747 0.599634 0
M  V30 962 C 104.377 -2.34262 -0.125888 0
M  V30 963 C 105.393 -1.50768 -0.868625 0
M  V30 964 O 106.569 -1.83592 -0.828003 0
M  V30 965 C 103.634 -3.28252 -1.11587 0
M  V30 966 C 102.695 -4.27651 -0.375956 0
M  V30 967 C 101.928 -5.1715 -1.31877 0
M  V30 968 O 102.151 -5.09916 -2.55621 0
M  V30 969 O 101.085 -5.96286 -0.820157 0
M  V30 970 H 104.911 -2.97688 0.601315 0
M  V30 971 H 102.496 -1.44999 0.359934 0
M  V30 972 H 104.378 -3.86191 -1.68626 0
M  V30 973 H 103.053 -2.67401 -1.82424 0
M  V30 974 H 101.96 -3.7335 0.236698 0
M  V30 975 H 103.293 -4.91334 0.29177 0
M  V30 976 N 104.945 -0.338344 -1.53925 0
M  V30 977 C 106.17 0.263987 -2.05713 0
M  V30 978 C 106.595 1.43847 -1.21201 0
M  V30 979 O 105.953 1.79904 -0.224535 0
M  V30 980 C 106.001 0.662 -3.54471 0
M  V30 981 O 105.105 1.76265 -3.72833 0
M  V30 982 H 104.446 0.0448722 -0.662482 0
M  V30 983 H 106.976 -0.491048 -1.9862 0
M  V30 984 H 106.986 0.940594 -3.9701 0
M  V30 985 H 105.661 -0.196937 -4.15433 0
M  V30 986 H 104.238 1.48173 -3.42198 0
M  V30 987 N 106.423 1.57458 -0.0668435 0
M  V30 988 C 107.669 1.93587 0.6043 0
M  V30 989 C 108.002 0.946722 1.69561 0
M  V30 990 O 107.277 -0.0248516 1.94484 0
M  V30 991 C 107.56 3.40014 1.18585 0
M  V30 992 C 107.413 4.49685 0.101529 0
M  V30 993 C 108.732 3.87154 2.09284 0
M  V30 994 H 105.851 0.703958 0.218202 0
M  V30 995 H 108.493 1.89542 -0.131804 0
M  V30 996 H 106.643 3.43592 1.81319 0
M  V30 997 H 108.315 4.5823 -0.531279 0
M  V30 998 H 106.558 4.30059 -0.568487 0
M  V30 999 H 107.229 5.49266 0.54874 0
M  V30 1000 H 109.705 3.85551 1.56491 0
M  V30 1001 H 108.581 4.90231 2.46911 0
M  V30 1002 H 108.842 3.2481 2.99918 0
M  V30 1003 N 107.901 -0.206675 1.56239 0
M  V30 1004 C 109.317 -0.557025 1.49564 0
M  V30 1005 C 109.517 -1.86424 0.764735 0
M  V30 1006 O 108.573 -2.50584 0.310491 0
M  V30 1007 C 109.886 -0.622478 2.94186 0
M  V30 1008 C 111.434 -0.712099 3.04792 0
M  V30 1009 C 111.909 -0.808767 4.50803 0
M  V30 1010 N 113.4 -0.8726 4.54907 0
M  V30 1011 C 114.135 -0.967365 5.65181 0
M  V30 1012 N 113.631 -1.02515 6.85173 0
M  V30 1013 N 115.424 -1.00366 5.53067 0
M  V30 1014 H 107.575 0.650943 2.02179 0
M  V30 1015 H 109.838 0.230387 0.919579 0
M  V30 1016 H 109.544 0.268727 3.50672 0
M  V30 1017 H 109.418 -1.4811 3.46905 0
M  V30 1018 H 111.805 -1.59374 2.48363 0
M  V30 1019 H 111.886 0.172489 2.55218 0
M  V30 1020 H 111.53 0.0684754 5.07854 0
M  V30 1021 H 111.46 -1.70899 4.98098 0
M  V30 1022 H 113.951 -0.837657 3.68499 0
M  V30 1023 H 114.264 -1.09765 7.64965 0
M  V30 1024 H 112.609 -0.994026 6.87855 0
M  V30 1025 H 115.8 -0.95527 4.58249 0
M  V30 1026 H 115.973 -1.07405 6.39037 0
M  V30 1027 N 109.379 -1.50304 -0.473955 0
M  V30 1028 C 110.311 -1.65109 -1.58971 0
M  V30 1029 C 111.324 -0.532676 -1.53839 0
M  V30 1030 O 112.513 -0.805751 -1.59279 0
M  V30 1031 C 109.613 -1.61684 -2.97845 0
M  V30 1032 C 108.786 -2.8951 -3.27876 0
M  V30 1033 C 107.845 -2.78768 -4.4629 0
M  V30 1034 O 106.871 -3.52722 -4.46739 0
M  V30 1035 N 108.073 -1.9213 -5.47783 0
M  V30 1036 H 110.838 -2.61347 -1.46689 0
M  V30 1037 H 108.399 -1.47732 -0.662324 0
M  V30 1038 H 110.391 -1.52114 -3.75024 0
M  V30 1039 H 108.961 -0.731925 -3.03911 0
M  V30 1040 H 108.181 -3.13228 -2.39336 0
M  V30 1041 H 109.469 -3.74199 -3.4475 0
M  V30 1042 H 108.867 -1.31353 -5.50239 0
M  V30 1043 H 107.424 -1.88466 -6.23958 0
M  V30 1044 N 110.857 0.726932 -1.39834 0
M  V30 1045 C 111.789 1.85147 -1.35104 0
M  V30 1046 C 112.802 1.60736 -0.258392 0
M  V30 1047 O 113.991 1.70821 -0.517931 0
M  V30 1048 C 111.091 3.21332 -1.07697 0
M  V30 1049 C 110.264 3.73033 -2.28396 0
M  V30 1050 C 109.323 4.87802 -1.97322 0
M  V30 1051 O 108.349 5.01043 -2.70083 0
M  V30 1052 N 109.551 5.72768 -0.944273 0
M  V30 1053 H 112.316 1.89706 -2.32017 0
M  V30 1054 H 109.877 0.908006 -1.3404 0
M  V30 1055 H 111.869 3.95691 -0.849144 0
M  V30 1056 H 110.439 3.11992 -0.194909 0
M  V30 1057 H 109.659 2.89934 -2.6708 0
M  V30 1058 H 110.947 4.0431 -3.08887 0
M  V30 1059 H 110.345 5.64669 -0.341427 0
M  V30 1060 H 108.902 6.4716 -0.776346 0
M  V30 1061 N 112.336 1.25143 0.95797 0
M  V30 1062 C 113.266 1.07711 2.07173 0
M  V30 1063 C 114.247 -0.0128462 1.70095 0
M  V30 1064 O 115.432 0.156061 1.93572 0
M  V30 1065 C 112.562 0.691503 3.40346 0
M  V30 1066 C 111.516 1.73132 3.9142 0
M  V30 1067 C 110.842 1.20049 5.21049 0
M  V30 1068 C 112.142 3.1294 4.1817 0
M  V30 1069 H 113.836 2.00873 2.22014 0
M  V30 1070 H 111.382 0.967191 1.06684 0
M  V30 1071 H 113.335 0.556505 4.17709 0
M  V30 1072 H 112.059 -0.275819 3.25433 0
M  V30 1073 H 110.718 1.8547 3.16222 0
M  V30 1074 H 110.366 0.223499 5.02503 0
M  V30 1075 H 110.066 1.89545 5.56189 0
M  V30 1076 H 111.59 1.07782 6.01012 0
M  V30 1077 H 113.004 3.03775 4.86203 0
M  V30 1078 H 111.401 3.79875 4.64559 0
M  V30 1079 H 112.471 3.6025 3.24573 0
M  V30 1080 N 113.814 -1.1601 1.06675 0
M  V30 1081 C 114.777 -2.18724 0.685001 0
M  V30 1082 C 115.777 -1.58496 -0.271246 0
M  V30 1083 O 116.967 -1.74119 -0.0531156 0
M  V30 1084 C 114.099 -3.40899 0.00853648 0
M  V30 1085 H 115.292 -2.54011 1.59431 0
M  V30 1086 H 112.845 -1.30352 0.862441 0
M  V30 1087 H 113.58 -3.11173 -0.913337 0
M  V30 1088 H 113.365 -3.8587 0.696204 0
M  V30 1089 H 114.855 -4.16886 -0.24414 0
M  V30 1090 N 115.292 -0.849877 -1.32721 0
M  V30 1091 C 116.52 -0.464754 -2.01613 0
M  V30 1092 C 116.935 0.937191 -1.63897 0
M  V30 1093 O 116.292 1.61081 -0.857856 0
M  V30 1094 C 116.343 -0.588638 -3.56675 0
M  V30 1095 O 116.064 -1.93535 -3.93034 0
M  V30 1096 C 117.565 -0.2019 -4.4284 0
M  V30 1097 H 114.785 -0.183215 -0.645502 0
M  V30 1098 H 117.329 -1.1455 -1.69407 0
M  V30 1099 H 115.484 0.0443159 -3.87375 0
M  V30 1100 H 115.898 -1.92871 -4.87751 0
M  V30 1101 H 117.372 -0.339599 -5.50954 0
M  V30 1102 H 117.849 0.857224 -4.30753 0
M  V30 1103 H 118.455 -0.809733 -4.17521 0
M  V30 1104 N 116.77 1.45427 -0.607355 0
M  V30 1105 C 118.047 1.9557 -0.0344566 0
M  V30 1106 C 118.427 1.54979 1.43334 0
M  V30 1107 O 117.775 0.812241 2.13576 0
M  V30 1108 C 117.985 3.48226 -0.232321 0
M  V30 1109 C 119.333 4.2445 -0.113001 0
M  V30 1110 O 120.357 3.55829 -0.162431 0
M  V30 1111 O 119.216 5.465 0.00209442 0
M  V30 1112 H 116.31 0.826222 0.0358667 0
M  V30 1113 H 118.856 1.55594 -0.6774 0
M  V30 1114 H 117.628 3.70739 -1.25174 0
M  V30 1115 H 117.251 3.95092 0.445896 0
M  V30 1116 N 118.248 0.346503 1.53744 0
M  V30 1117 C 119.196 -0.52422 2.26616 0
M  V30 1118 C 120.19 -1.09948 1.28871 0
M  V30 1119 O 121.396 -1.04488 1.46568 0
M  V30 1120 H 117.771 -0.187743 0.728187 0
M  V30 1121 H 119.742 0.11239 2.98188 0
M  V30 1122 C 118.491 -1.66186 3.05414 0
M  V30 1123 H 117.814 -1.22848 3.80458 0
M  V30 1124 H 119.254 -2.24622 3.59612 0
M  V30 1125 C 117.713 -2.59302 2.1509 0
M  V30 1126 O 118.243 -3.61628 1.74895 0
M  V30 1127 N 116.449 -2.28055 1.8011 0
M  V30 1128 H 115.996 -1.44883 2.12994 0
M  V30 1129 H 115.954 -2.90615 1.19958 0
M  V30 1130 N 119.726 -1.57421 0.075193 0
M  V30 1131 C 120.975 -1.92794 -0.592731 0
M  V30 1132 C 121.288 -0.957478 -1.70563 0
M  V30 1133 O 122.494 -1.20417 -2.43335 0
M  V30 1134 C 120.95 -3.42495 -1.10569 0
M  V30 1135 C 120.558 -4.47994 -0.0236121 0
M  V30 1136 C 122.302 -3.86864 -1.74748 0
M  V30 1137 C 120.209 -5.88829 -0.550803 0
M  V30 1138 H 119.139 -0.719591 -0.225177 0
M  V30 1139 H 121.79 -1.82902 0.147978 0
M  V30 1140 H 120.172 -3.47471 -1.89947 0
M  V30 1141 H 121.346 -4.54637 0.751099 0
M  V30 1142 H 119.661 -4.13113 0.522159 0
M  V30 1143 H 122.258 -4.8947 -2.15229 0
M  V30 1144 H 122.601 -3.24417 -2.60882 0
M  V30 1145 H 123.134 -3.84504 -1.01986 0
M  V30 1146 H 119.873 -6.54929 0.273457 0
M  V30 1147 H 119.393 -5.85698 -1.29296 0
M  V30 1148 H 121.072 -6.38811 -1.02613 0
M  V30 1149 N 121.204 0.198386 -1.56346 0
M  V30 1150 C 122.481 0.944982 -1.71258 0
M  V30 1151 C 122.861 2.0151 -0.629048 0
M  V30 1152 O 122.209 2.25639 0.360473 0
M  V30 1153 C 122.419 1.5344 -3.1346 0
M  V30 1154 C 123.767 2.01778 -3.73591 0
M  V30 1155 O 124.791 1.63288 -3.16568 0
M  V30 1156 O 123.65 2.72594 -4.73661 0
M  V30 1157 H 120.744 0.442939 -0.69838 0
M  V30 1158 H 123.29 0.188342 -1.68652 0
M  V30 1159 H 122.062 0.762869 -3.83792 0
M  V30 1160 H 121.685 2.35596 -3.20282 0
M  V30 1161 N 122.682 1.50554 0.465978 0
M  V30 1162 C 123.931 1.61038 1.21448 0
M  V30 1163 C 124.244 0.31865 1.92987 0
M  V30 1164 O 125.45 0.302469 2.6981 0
M  V30 1165 C 123.906 2.84283 2.20706 0
M  V30 1166 C 123.514 4.20352 1.54946 0
M  V30 1167 C 125.258 3.04115 2.96166 0
M  V30 1168 C 123.165 5.34778 2.5252 0
M  V30 1169 H 122.095 0.599718 0.457005 0
M  V30 1170 H 124.746 1.7699 0.484424 0
M  V30 1171 H 123.128 2.61901 2.97025 0
M  V30 1172 H 124.302 4.53008 0.843811 0
M  V30 1173 H 122.617 4.06167 0.917475 0
M  V30 1174 H 125.214 3.86774 3.69202 0
M  V30 1175 H 125.557 2.16045 3.55852 0
M  V30 1176 H 126.09 3.26702 2.26959 0
M  V30 1177 H 122.829 6.25018 1.97566 0
M  V30 1178 H 122.349 5.06534 3.21222 0
M  V30 1179 H 124.028 5.65561 3.14245 0
M  V30 1180 N 124.16 -0.719506 1.40217 0
M  V30 1181 C 125.388 -1.50864 1.41589 0
M  V30 1182 C 125.803 -1.88794 0.0145275 0
M  V30 1183 O 125.16 -1.55174 -0.960594 0
M  V30 1184 C 125.211 -2.78646 2.30302 0
M  V30 1185 O 124.932 -2.42321 3.64983 0
M  V30 1186 C 126.433 -3.72569 2.40224 0
M  V30 1187 H 123.653 -0.465709 0.48307 0
M  V30 1188 H 126.197 -0.88785 1.84221 0
M  V30 1189 H 124.352 -3.37019 1.91042 0
M  V30 1190 H 124.766 -3.24514 4.12057 0
M  V30 1191 H 126.24 -4.5908 3.06512 0
M  V30 1192 H 126.717 -4.15403 1.42608 0
M  V30 1193 H 127.323 -3.20109 2.80019 0
M  V30 1194 N 125.638 -1.25649 -0.95132 0
M  V30 1195 C 127.049 -1.09654 -1.51106 0
M  V30 1196 C 127.4 0.326615 -1.93462 0
M  V30 1197 O 126.525 1.21697 -1.78938 0
M  V30 1198 C 127.12 -1.98437 -2.74605 0
M  V30 1199 C 125.679 -1.86618 -3.2688 0
M  V30 1200 C 124.826 -1.9239 -1.99703 0
M  V30 1201 H 127.777 -1.38887 -0.767865 0
M  V30 1202 H 127.798 -1.5263 -3.48546 0
M  V30 1203 H 127.31 -3.02009 -2.43746 0
M  V30 1204 H 125.411 -0.859421 -3.62553 0
M  V30 1205 H 125.524 -2.71607 -3.94673 0
M  V30 1206 H 123.888 -1.36317 -2.15151 0
M  V30 1207 H 124.671 -2.97573 -1.71188 0
M  V30 1208 N 127.117 1.15442 -1.07289 0
M  V30 1209 C 128.363 1.86489 -0.796846 0
M  V30 1210 C 128.696 1.82078 0.675371 0
M  V30 1211 O 127.971 1.24346 1.4956 0
M  V30 1212 C 128.254 3.35626 -1.30489 0
M  V30 1213 C 128.107 3.48673 -2.84161 0
M  V30 1214 C 129.426 4.30357 -0.920907 0
M  V30 1215 H 126.545 0.677144 -0.290939 0
M  V30 1216 H 129.187 1.35633 -1.33056 0
M  V30 1217 H 127.337 3.79068 -0.850883 0
M  V30 1218 H 129.009 3.14099 -3.37846 0
M  V30 1219 H 127.252 2.90253 -3.22391 0
M  V30 1220 H 127.923 4.53453 -3.14777 0
M  V30 1221 H 130.399 3.94871 -1.3121 0
M  V30 1222 H 129.275 5.33193 -1.30372 0
M  V30 1223 H 129.536 4.4176 0.173226 0
M  V30 1224 N 128.595 0.856903 1.32268 0
M  V30 1225 C 129.82 0.474569 2.01897 0
M  V30 1226 C 130.245 -0.921766 1.63967 0
M  V30 1227 O 129.603 -1.60589 0.84148 0
M  V30 1228 C 129.651 0.623799 3.55164 0
M  V30 1229 O 128.755 -0.342459 4.10976 0
M  V30 1230 H 128.096 0.190422 0.63611 0
M  V30 1231 H 130.626 1.15672 1.68764 0
M  V30 1232 H 130.636 0.512169 4.04773 0
M  V30 1233 H 129.311 1.64202 3.82113 0
M  V30 1234 H 127.888 -0.18688 3.72431 0
M  V30 1235 N 130.073 -1.45103 0.615059 0
M  V30 1236 C 131.319 -2.02483 0.113347 0
M  V30 1237 C 131.652 -1.48146 -1.25564 0
M  V30 1238 O 130.927 -0.659104 -1.82992 0
M  V30 1239 C 131.21 -3.60005 0.0825278 0
M  V30 1240 C 131.063 -4.2466 1.48271 0
M  V30 1241 C 132.382 -4.35972 -0.601401 0
M  V30 1242 H 129.501 -0.735764 0.0426632 0
M  V30 1243 H 132.143 -1.72868 0.788461 0
M  V30 1244 H 130.293 -3.85367 -0.492378 0
M  V30 1245 H 131.965 -4.10458 2.10527 0
M  V30 1246 H 130.208 -3.82772 2.04127 0
M  V30 1247 H 130.879 -5.336 1.41332 0
M  V30 1248 H 133.355 -4.15947 -0.112666 0
M  V30 1249 H 132.231 -5.45697 -0.592097 0
M  V30 1250 H 132.492 -4.09391 -1.66887 0
M  V30 1251 N 131.551 -0.354651 -1.53558 0
M  V30 1252 C 132.8 0.239504 -2.00273 0
M  V30 1253 C 133.113 1.50759 -1.24623 0
M  V30 1254 O 134.319 2.17968 -1.61871 0
M  V30 1255 C 132.775 0.477341 -3.5672 0
M  V30 1256 C 132.383 -0.775488 -4.41237 0
M  V30 1257 C 134.127 1.02975 -4.11821 0
M  V30 1258 C 132.034 -0.507838 -5.89216 0
M  V30 1259 H 130.964 0.0932743 -0.748208 0
M  V30 1260 H 133.615 -0.471701 -1.77334 0
M  V30 1261 H 131.997 1.24953 -3.7577 0
M  V30 1262 H 133.171 -1.54963 -4.33962 0
M  V30 1263 H 131.486 -1.25033 -3.97185 0
M  V30 1264 H 134.083 1.24513 -5.2 0
M  V30 1265 H 134.426 1.98862 -3.65731 0
M  V30 1266 H 134.959 0.317994 -3.96527 0
M  V30 1267 H 131.698 -1.43674 -6.39561 0
M  V30 1268 H 131.218 0.228011 -5.99366 0
M  V30 1269 H 132.897 -0.129238 -6.46871 0
M  V30 1270 N 133.029 1.57378 -0.0835403 0
M  V30 1271 C 133.976 2.13384 0.879539 0
M  V30 1272 C 134.946 1.04936 1.28754 0
M  V30 1273 O 136.131 1.32662 1.37133 0
M  V30 1274 C 133.271 2.70932 2.13752 0
M  V30 1275 C 132.384 3.93575 1.7811 0
M  V30 1276 C 131.519 4.39326 2.98607 0
M  V30 1277 C 130.558 5.54587 2.59037 0
M  V30 1278 N 129.695 5.95243 3.72331 0
M  V30 1279 H 134.535 2.9537 0.395076 0
M  V30 1280 H 132.072 1.45953 0.183349 0
M  V30 1281 H 134.03 3.02411 2.87408 0
M  V30 1282 H 132.66 1.91693 2.59718 0
M  V30 1283 H 131.712 3.68483 0.94469 0
M  V30 1284 H 133.024 4.77258 1.45005 0
M  V30 1285 H 132.178 4.72528 3.80529 0
M  V30 1286 H 130.917 3.5452 3.34913 0
M  V30 1287 H 129.922 5.21024 1.75539 0
M  V30 1288 H 131.147 6.41133 2.23887 0
M  V30 1289 H 129.093 5.13385 4.08378 0
M  V30 1290 H 129.01 6.73694 3.43034 0
M  V30 1291 H 130.278 6.33072 4.54797 0
M  V30 1292 N 134.507 -0.190092 1.56449 0
M  V30 1293 C 135.755 -0.907908 1.80559 0
M  V30 1294 C 136.076 -1.83583 0.657438 0
M  V30 1295 O 135.346 -1.93203 -0.323924 0
M  V30 1296 H 133.926 -0.338247 0.666032 0
M  V30 1297 H 136.588 -0.194403 1.93928 0
M  V30 1298 H 135.684 -1.49604 2.73907 0
M  V30 1299 N 135.985 -1.50799 -0.457987 0
M  V30 1300 C 136.895 -1.73426 -1.57989 0
M  V30 1301 C 137.911 -0.617745 -1.62665 0
M  V30 1302 O 139.087 -0.897614 -1.80291 0
M  V30 1303 C 136.152 -1.83557 -2.94122 0
M  V30 1304 C 135.213 -3.07345 -2.99729 0
M  V30 1305 C 134.446 -3.16983 -4.29368 0
M  V30 1306 O 134.669 -2.33077 -5.20607 0
M  V30 1307 O 133.603 -4.09812 -4.40837 0
M  V30 1308 H 137.429 -2.68555 -1.41817 0
M  V30 1309 H 135.014 -1.35052 -0.638859 0
M  V30 1310 H 136.896 -1.92326 -3.74952 0
M  V30 1311 H 135.571 -0.916137 -3.10465 0
M  V30 1312 H 134.478 -3.04068 -2.1793 0
M  V30 1313 H 135.811 -3.9891 -2.88326 0
M  V30 1314 N 137.463 0.71206 -1.40597 0
M  V30 1315 C 138.688 1.50617 -1.42581 0
M  V30 1316 C 139.113 1.88079 -0.0282102 0
M  V30 1317 O 138.471 1.53511 0.964579 0
M  V30 1318 C 138.519 2.7557 -2.3258 0
M  V30 1319 O 137.623 3.72414 -1.77148 0
M  V30 1320 H 136.964 0.453966 -0.484573 0
M  V30 1321 H 139.494 0.876649 -1.84868 0
M  V30 1322 H 139.504 3.2406 -2.47889 0
M  V30 1323 H 138.179 2.47639 -3.34138 0
M  V30 1324 H 136.756 3.31276 -1.71204 0
M  V30 1325 N 138.941 1.26152 0.944643 0
M  V30 1326 C 140.169 1.14259 1.72489 0
M  V30 1327 C 140.584 -0.302555 1.8636 0
M  V30 1328 O 139.941 -1.20741 1.36849 0
M  V30 1329 C 139.992 1.80266 3.13347 0
M  V30 1330 O 139.713 3.19133 3.00143 0
M  V30 1331 C 141.214 1.74283 4.07603 0
M  V30 1332 H 138.434 0.398051 0.540181 0
M  V30 1333 H 140.978 1.66706 1.18446 0
M  V30 1334 H 139.133 1.31766 3.64303 0
M  V30 1335 H 139.547 3.51744 3.89071 0
M  V30 1336 H 141.021 2.25111 5.04013 0
M  V30 1337 H 141.498 0.708631 4.33446 0
M  V30 1338 H 142.104 2.22319 3.62567 0
M  V30 1339 N 140.419 -1.14872 1.07899 0
M  V30 1340 C 141.667 -1.85422 0.803941 0
M  V30 1341 C 141.988 -1.83051 -0.67211 0
M  V30 1342 O 141.258 -1.27532 -1.48703 0
M  V30 1343 H 139.838 -0.686537 0.294408 0
M  V30 1344 H 142.5 -1.39226 1.3639 0
M  V30 1345 H 141.596 -2.90399 1.14346 0
M  V30 1346 N 141.898 -0.863906 -1.31812 0
M  V30 1347 C 143.144 -0.472535 -1.97218 0
M  V30 1348 C 143.477 0.971394 -1.68159 0
M  V30 1349 O 142.752 1.68309 -0.974798 0
M  V30 1350 C 143.035 -0.723054 -3.52766 0
M  V30 1351 C 142.888 -2.21608 -3.91421 0
M  V30 1352 C 144.207 -0.185522 -4.39709 0
M  V30 1353 H 141.326 -0.173158 -0.71637 0
M  V30 1354 H 143.968 -1.08403 -1.56041 0
M  V30 1355 H 142.118 -0.202577 -3.87971 0
M  V30 1356 H 143.79 -2.80334 -3.66347 0
M  V30 1357 H 142.033 -2.691 -3.40246 0
M  V30 1358 H 142.704 -2.34203 -4.99853 0
M  V30 1359 H 145.18 -0.630726 -4.11292 0
M  V30 1360 H 144.056 -0.390306 -5.47511 0
M  V30 1361 H 144.317 0.912229 -4.32586 0
M  V30 1362 N 143.376 1.44774 -0.622745 0
M  V30 1363 C 144.339 2.29069 0.0774015 0
M  V30 1364 C 145.339 1.4059 0.780461 0
M  V30 1365 O 146.529 1.62551 0.626322 0
M  V30 1366 C 143.661 3.21974 1.12006 0
M  V30 1367 H 144.854 2.92459 -0.663901 0
M  V30 1368 H 142.407 1.51548 -0.382486 0
M  V30 1369 H 143.142 2.63417 1.89162 0
M  V30 1370 H 142.927 3.87168 0.619951 0
M  V30 1371 H 144.417 3.85318 1.60995 0
M  V30 1372 N 144.854 0.36279 1.53368 0
M  V30 1373 C 145.784 -0.476976 2.28576 0
M  V30 1374 C 146.765 -1.08631 1.30894 0
M  V30 1375 O 147.95 -1.10409 1.59761 0
M  V30 1376 C 145.08 -1.61828 3.07293 0
M  V30 1377 C 144.034 -1.13633 4.1264 0
M  V30 1378 C 143.36 -2.36766 4.79423 0
M  V30 1379 C 144.66 -0.223061 5.21823 0
M  V30 1380 H 146.354 0.150474 2.99022 0
M  V30 1381 H 143.9 0.0738103 1.43811 0
M  V30 1382 H 145.853 -2.21237 3.58653 0
M  V30 1383 H 144.577 -2.27292 2.34533 0
M  V30 1384 H 143.236 -0.564945 3.62221 0
M  V30 1385 H 142.884 -3.0068 4.03238 0
M  V30 1386 H 142.584 -2.05192 5.50609 0
M  V30 1387 H 144.108 -2.96865 5.33576 0
M  V30 1388 H 145.522 -0.724545 5.68703 0
M  V30 1389 H 143.919 0.001678 6.001 0
M  V30 1390 H 144.989 0.735553 4.79289 0
M  V30 1391 N 146.332 -1.57332 0.0918853 0
M  V30 1392 C 147.581 -1.93412 -0.572249 0
M  V30 1393 C 147.894 -0.975515 -1.69538 0
M  V30 1394 O 149.1 -1.22991 -2.42045 0
M  V30 1395 C 147.556 -3.43648 -1.0693 0
M  V30 1396 C 147.164 -4.47994 0.0239049 0
M  V30 1397 C 148.908 -3.88695 -1.70635 0
M  V30 1398 C 146.815 -5.89381 -0.488319 0
M  V30 1399 H 145.745 -0.721939 -0.217532 0
M  V30 1400 H 148.396 -1.82735 0.167369 0
M  V30 1401 H 146.778 -3.49466 -1.8625 0
M  V30 1402 H 147.952 -4.53815 0.799277 0
M  V30 1403 H 146.267 -4.12536 0.565946 0
M  V30 1404 H 148.864 -4.91725 -2.10025 0
M  V30 1405 H 149.207 -3.27166 -2.57426 0
M  V30 1406 H 149.74 -3.85564 -0.979023 0
M  V30 1407 H 146.479 -6.54602 0.342906 0
M  V30 1408 H 145.999 -5.87037 -1.23077 0
M  V30 1409 H 147.678 -6.39863 -0.958317 0
M  V30 1410 N 147.81 0.181792 -1.56548 0
M  V30 1411 C 149.057 0.900097 -1.81396 0
M  V30 1412 C 149.385 1.82695 -0.667281 0
M  V30 1413 O 148.64 1.92614 0.346146 0
M  V30 1414 C 148.939 1.73728 -3.12335 0
M  V30 1415 C 148.605 0.960255 -4.40556 0
M  V30 1416 C 147.267 0.745766 -4.75386 0
M  V30 1417 C 149.619 0.414477 -5.19549 0
M  V30 1418 C 146.947 -0.0257694 -5.86694 0
M  V30 1419 C 149.299 -0.343916 -6.31664 0
M  V30 1420 C 147.963 -0.569301 -6.65068 0
M  V30 1421 H 147.233 0.329369 -0.663775 0
M  V30 1422 H 149.88 0.165647 -1.90782 0
M  V30 1423 H 148.185 2.54081 -2.98245 0
M  V30 1424 H 149.882 2.29591 -3.28769 0
M  V30 1425 H 146.472 1.13746 -4.13231 0
M  V30 1426 H 150.656 0.567554 -4.93044 0
M  V30 1427 H 145.912 -0.210233 -6.11038 0
M  V30 1428 H 150.086 -0.774133 -6.92084 0
M  V30 1429 H 147.713 -1.16903 -7.51158 0
M  V30 1430 N 149.288 1.51039 0.449983 0
M  V30 1431 C 150.534 1.63322 1.20223 0
M  V30 1432 C 150.867 0.34241 1.91158 0
M  V30 1433 O 150.142 -0.657344 1.83055 0
M  V30 1434 C 150.425 2.82801 2.22925 0
M  V30 1435 C 150.278 4.21823 1.56157 0
M  V30 1436 C 151.597 2.97807 3.24035 0
M  V30 1437 H 148.716 0.594407 0.435718 0
M  V30 1438 H 151.358 1.83489 0.493136 0
M  V30 1439 H 149.508 2.65738 2.834 0
M  V30 1440 H 151.18 4.50526 0.991162 0
M  V30 1441 H 149.423 4.25105 0.864172 0
M  V30 1442 H 150.094 5.01391 2.30891 0
M  V30 1443 H 152.57 3.13497 2.73603 0
M  V30 1444 H 151.446 3.82992 3.93202 0
M  V30 1445 H 151.707 2.09328 3.89402 0
M  V30 1446 N 150.766 -0.704594 1.40972 0
M  V30 1447 C 151.714 -1.83994 1.42299 0
M  V30 1448 C 152.708 -1.66684 0.302111 0
M  V30 1449 O 153.914 -1.73655 0.473697 0
M  V30 1450 H 150.289 -0.606171 0.44504 0
M  V30 1451 H 152.26 -1.79992 2.38003 0
M  V30 1452 C 151.009 -3.21946 1.31323 0
M  V30 1453 H 150.332 -3.35878 2.16855 0
M  V30 1454 H 151.772 -4.01491 1.36311 0
M  V30 1455 C 150.231 -3.36891 0.0245977 0
M  V30 1456 O 150.761 -3.90687 -0.934153 0
M  V30 1457 N 148.967 -2.90559 -0.0485243 0
M  V30 1458 H 148.514 -2.46968 0.732419 0
M  V30 1459 H 148.472 -3.00937 -0.910171 0
M  V30 1460 N 152.244 -1.26651 -0.937939 0
M  V30 1461 C 153.492 -1.12165 -1.68118 0
M  V30 1462 C 153.813 0.334983 -1.92101 0
M  V30 1463 O 153.083 1.23583 -1.52 0
M  V30 1464 H 151.663 -0.412093 -0.623048 0
M  V30 1465 H 154.325 -1.59027 -1.12678 0
M  V30 1466 H 153.421 -1.64289 -2.6536 0
M  V30 1467 N 153.722 1.14298 -1.08507 0
M  V30 1468 C 154.632 2.23027 -0.727753 0
M  V30 1469 C 155.648 1.71952 0.26619 0
M  V30 1470 O 156.824 2.011 0.109882 0
M  V30 1471 C 153.889 3.46403 -0.143541 0
M  V30 1472 C 152.95 4.12413 -1.19223 0
M  V30 1473 C 152.183 5.29899 -0.635798 0
M  V30 1474 O 152.406 5.67796 0.544393 0
M  V30 1475 O 151.34 5.85717 -1.38634 0
M  V30 1476 H 155.166 2.55945 -1.63481 0
M  V30 1477 H 152.751 1.22248 -0.858817 0
M  V30 1478 H 154.633 4.21018 0.179404 0
M  V30 1479 H 153.308 3.15206 0.736659 0
M  V30 1480 H 152.215 3.39667 -1.56772 0
M  V30 1481 H 153.548 4.47718 -2.04474 0
M  V30 1482 N 155.201 0.870884 1.31352 0
M  V30 1483 C 156.449 0.48132 1.96285 0
M  V30 1484 C 156.77 -0.969813 1.69173 0
M  V30 1485 O 156.04 -1.67998 1.00764 0
M  V30 1486 H 154.62 0.175002 0.726212 0
M  V30 1487 H 157.282 1.11087 1.60143 0
M  V30 1488 H 156.378 0.639825 3.05471 0
M  V30 1489 N 156.679 -1.44442 0.630414 0
M  V30 1490 C 157.589 -2.34476 -0.0761693 0
M  V30 1491 C 158.605 -1.52576 -0.836449 0
M  V30 1492 O 159.781 -1.85307 -0.788874 0
M  V30 1493 C 156.846 -3.30545 -1.04599 0
M  V30 1494 C 155.907 -4.28352 -0.28516 0
M  V30 1495 C 155.14 -5.19831 -1.20878 0
M  V30 1496 O 155.363 -5.15223 -2.44747 0
M  V30 1497 O 154.297 -5.97892 -0.693491 0
M  V30 1498 H 158.123 -2.96345 0.664324 0
M  V30 1499 H 155.708 -1.44203 0.39061 0
M  V30 1500 H 157.59 -3.89681 -1.60396 0
M  V30 1501 H 156.265 -2.7121 -1.76711 0
M  V30 1502 H 155.172 -3.72764 0.315837 0
M  V30 1503 H 156.505 -4.90605 0.395924 0
M  V30 1504 N 158.157 -0.370918 -1.53173 0
M  V30 1505 C 159.105 0.488101 -2.27421 0
M  V30 1506 C 160.099 1.07884 -1.30604 0
M  V30 1507 O 161.305 1.02143 -1.48212 0
M  V30 1508 H 157.68 0.176134 -0.731082 0
M  V30 1509 H 159.651 -0.159815 -2.97972 0
M  V30 1510 C 158.4 1.61306 -3.08019 0
M  V30 1511 H 157.723 1.1678 -3.82364 0
M  V30 1512 H 159.163 2.18872 -3.63141 0
M  V30 1513 C 157.622 2.55848 -2.19188 0
M  V30 1514 O 158.152 3.58799 -1.80626 0
M  V30 1515 N 156.358 2.2516 -1.83715 0
M  V30 1516 H 155.905 1.41476 -2.15273 0
M  V30 1517 H 155.863 2.8867 -1.24567 0
M  V30 1518 N 159.635 1.57281 -0.100228 0
M  V30 1519 C 160.881 1.94826 0.563101 0
M  V30 1520 C 161.214 0.982475 1.67514 0
M  V30 1521 O 160.489 0.0164069 1.94493 0
M  V30 1522 C 160.772 3.42453 1.11346 0
M  V30 1523 C 160.625 4.498 0.00612081 0
M  V30 1524 C 161.944 3.91506 2.01024 0
M  V30 1525 H 159.063 0.708428 0.203221 0
M  V30 1526 H 161.705 1.8922 -0.171979 0
M  V30 1527 H 159.855 3.47361 1.7399 0
M  V30 1528 H 161.527 4.57 -0.628357 0
M  V30 1529 H 159.77 4.28756 -0.659581 0
M  V30 1530 H 160.441 5.50306 0.432109 0
M  V30 1531 H 162.917 3.88784 1.48278 0
M  V30 1532 H 161.793 4.95358 2.36457 0
M  V30 1533 H 162.054 3.31099 2.92961 0
M  V30 1534 N 161.113 -0.173488 1.56642 0
M  V30 1535 C 162.362 -0.888758 1.81063 0
M  V30 1536 C 162.675 -1.83506 0.67712 0
M  V30 1537 O 163.881 -2.59254 0.806206 0
M  V30 1538 C 162.337 -1.63091 3.20826 0
M  V30 1539 C 161.945 -0.728357 4.4204 0
M  V30 1540 C 163.689 -2.33454 3.54541 0
M  V30 1541 C 161.596 -1.47062 5.72823 0
M  V30 1542 H 160.526 -0.335618 0.675186 0
M  V30 1543 H 163.177 -0.141712 1.82952 0
M  V30 1544 H 161.559 -2.42263 3.13248 0
M  V30 1545 H 162.733 0.0262449 4.60793 0
M  V30 1546 H 161.048 -0.134492 4.16183 0
M  V30 1547 H 163.645 -2.89578 4.49498 0
M  V30 1548 H 163.988 -3.08687 2.79317 0
M  V30 1549 H 164.521 -1.61227 3.63663 0
M  V30 1550 H 161.26 -0.760658 6.51072 0
M  V30 1551 H 160.78 -2.1986 5.58052 0
M  V30 1552 H 162.459 -2.01868 6.14702 0
M  V30 1553 N 162.591 -1.51276 -0.441967 0
M  V30 1554 C 163.839 -1.63392 -1.18943 0
M  V30 1555 C 164.16 -0.350159 -1.9183 0
M  V30 1556 O 163.43 0.633784 -1.85364 0
M  V30 1557 H 162.01 -0.602164 -0.442049 0
M  V30 1558 H 164.672 -1.88186 -0.507165 0
M  V30 1559 H 163.768 -2.45934 -1.92154 0
M  V30 1560 N 164.069 0.697108 -1.41344 0
M  V30 1561 C 165.318 1.45279 -1.39918 0
M  V30 1562 C 165.631 1.95597 -0.0109624 0
M  V30 1563 O 166.837 2.71208 0.125919 0
M  V30 1564 C 165.293 2.62695 -2.46007 0
M  V30 1565 C 164.901 2.19169 -3.90729 0
M  V30 1566 C 166.645 3.40336 -2.53715 0
M  V30 1567 C 164.552 3.33535 -4.88373 0
M  V30 1568 H 163.482 0.545692 -0.520323 0
M  V30 1569 H 166.133 0.756929 -1.67161 0
M  V30 1570 H 164.515 3.34541 -2.11892 0
M  V30 1571 H 165.689 1.54623 -4.34083 0
M  V30 1572 H 164.004 1.54525 -3.86666 0
M  V30 1573 H 166.601 4.2547 -3.2385 0
M  V30 1574 H 166.944 3.85418 -1.5735 0
M  V30 1575 H 167.477 2.75546 -2.86913 0
M  V30 1576 H 164.216 2.93468 -5.86137 0
M  V30 1577 H 163.736 3.96936 -4.49668 0
M  V30 1578 H 165.415 3.99335 -5.09059 0
M  V30 1579 N 165.547 1.27147 0.931209 0
M  V30 1580 C 166.497 1.06227 2.01742 0
M  V30 1581 C 167.481 -0.00859065 1.60898 0
M  V30 1582 O 168.673 0.209537 1.75755 0
M  V30 1583 C 165.802 0.707787 3.35924 0
M  V30 1584 C 164.888 1.81661 3.83223 0
M  V30 1585 N 165.279 3.05564 4.03069 0
M  V30 1586 C 163.577 1.70249 4.12227 0
M  V30 1587 C 164.278 3.77697 4.42403 0
M  V30 1588 N 163.254 3.0544 4.49675 0
M  V30 1589 H 167.056 2.00261 2.15111 0
M  V30 1590 H 164.57 1.1781 1.11779 0
M  V30 1591 H 166.567 0.539043 4.134 0
M  V30 1592 H 165.227 -0.224964 3.2392 0
M  V30 1593 H 166.238 3.41363 3.89476 0
M  V30 1594 H 162.915 0.840329 4.08956 0
M  V30 1595 H 164.305 4.84168 4.65866 0
M  V30 1596 N 167.025 -1.13721 1.09112 0
M  V30 1597 C 167.988 -2.17222 0.731241 0
M  V30 1598 C 168.988 -1.59035 -0.237566 0
M  V30 1599 O 170.178 -1.74192 -0.0161704 0
M  V30 1600 C 167.31 -3.40804 0.0808443 0
M  V30 1601 H 168.503 -2.50573 1.64783 0
M  V30 1602 H 166.056 -1.28493 0.889897 0
M  V30 1603 H 166.791 -3.1304 -0.847127 0
M  V30 1604 H 166.576 -3.84306 0.777896 0
M  V30 1605 H 168.066 -4.1731 -0.155657 0
M  V30 1606 N 168.503 -0.877838 -1.30888 0
M  V30 1607 C 169.751 -0.491723 -1.96027 0
M  V30 1608 C 170.072 0.960827 -1.69685 0
M  V30 1609 O 169.342 1.67462 -1.01654 0
M  V30 1610 H 167.922 -0.17885 -0.725273 0
M  V30 1611 H 170.584 -1.11935 -1.59551 0
M  V30 1612 H 169.68 -0.656016 -3.05128 0
M  V30 1613 N 169.982 1.44106 -0.638065 0
M  V30 1614 C 170.945 2.29138 0.0531013 0
M  V30 1615 C 171.945 1.41409 0.765506 0
M  V30 1616 O 173.135 1.63206 0.609046 0
M  V30 1617 C 170.267 3.23144 1.08584 0
M  V30 1618 H 171.46 2.91739 -0.694883 0
M  V30 1619 H 169.013 1.51134 -0.398538 0
M  V30 1620 H 169.748 2.65408 1.86357 0
M  V30 1621 H 169.533 3.87804 0.578852 0
M  V30 1622 H 171.023 3.87004 1.56899 0
M  V30 1623 N 171.46 0.379036 1.52974 0
M  V30 1624 C 172.408 -0.476033 2.27677 0
M  V30 1625 C 173.402 -1.0719 1.31174 0
M  V30 1626 O 174.608 -1.01355 1.48752 0
M  V30 1627 H 170.983 -0.172255 0.732006 0
M  V30 1628 H 172.954 0.175615 2.97883 0
M  V30 1629 C 171.703 -1.5967 3.0887 0
M  V30 1630 H 171.026 -1.1475 3.82978 0
M  V30 1631 H 172.466 -2.16943 3.64296 0
M  V30 1632 C 170.925 -2.54682 2.20542 0
M  V30 1633 O 171.455 -3.57836 1.82527 0
M  V30 1634 N 169.661 -2.24183 1.84907 0
M  V30 1635 H 169.208 -1.40333 2.1602 0
M  V30 1636 H 169.166 -2.88006 1.26096 0
M  V30 1637 N 172.938 -1.57226 0.108567 0
M  V30 1638 C 173.901 -2.13602 -0.831082 0
M  V30 1639 C 174.901 -1.06841 -1.20173 0
M  V30 1640 O 176.091 -1.32666 -1.12895 0
M  V30 1641 C 173.223 -2.66769 -2.12243 0
M  V30 1642 H 174.416 -2.97951 -0.341317 0
M  V30 1643 H 171.969 -1.55667 -0.14057 0
M  V30 1644 H 172.704 -1.85977 -2.65675 0
M  V30 1645 H 172.489 -3.44839 -1.86625 0
M  V30 1646 H 173.979 -3.10332 -2.79435 0
M  V30 1647 N 174.416 0.165178 -1.56732 0
M  V30 1648 C 175.379 1.18822 -1.95995 0
M  V30 1649 C 176.379 1.3685 -0.84431 0
M  V30 1650 O 177.569 1.34152 -1.11126 0
M  V30 1651 C 174.701 2.5521 -2.26011 0
M  V30 1652 H 175.894 0.851825 -2.87548 0
M  V30 1653 H 173.447 0.407857 -1.50885 0
M  V30 1654 H 174.182 2.93852 -1.37191 0
M  V30 1655 H 173.967 2.43489 -3.07336 0
M  V30 1656 H 175.457 3.28927 -2.57288 0
M  V30 1657 N 175.894 1.51508 0.433938 0
M  V30 1658 C 176.824 1.76016 1.53429 0
M  V30 1659 C 177.805 0.610112 1.58782 0
M  V30 1660 O 178.99 0.853177 1.74455 0
M  V30 1661 C 176.12 1.88831 2.9148 0
M  V30 1662 C 175.074 3.04288 3.00987 0
M  V30 1663 C 174.4 3.0229 4.4105 0
M  V30 1664 C 175.7 4.44193 2.74754 0
M  V30 1665 H 177.394 2.68152 1.33171 0
M  V30 1666 H 174.94 1.29035 0.639214 0
M  V30 1667 H 176.893 2.04559 3.6842 0
M  V30 1668 H 175.617 0.933455 3.12976 0
M  V30 1669 H 174.276 2.8827 2.26486 0
M  V30 1670 H 173.924 2.04576 4.59519 0
M  V30 1671 H 173.624 3.79822 4.4834 0
M  V30 1672 H 175.148 3.20116 5.1996 0
M  V30 1673 H 176.562 4.60544 3.41426 0
M  V30 1674 H 174.959 5.23457 2.9345 0
M  V30 1675 H 176.029 4.53996 1.70339 0
M  V30 1676 N 177.372 -0.689602 1.41712 0
M  V30 1677 C 178.597 -1.48329 1.44959 0
M  V30 1678 C 179.022 -1.8801 0.0581283 0
M  V30 1679 O 178.38 -1.55026 -0.940035 0
M  V30 1680 C 178.428 -2.71835 2.36935 0
M  V30 1681 O 177.532 -3.69549 1.8305 0
M  V30 1682 H 176.873 -0.446199 0.491734 0
M  V30 1683 H 179.403 -0.847127 1.86239 0
M  V30 1684 H 179.413 -3.20076 2.53013 0
M  V30 1685 H 178.088 -2.42291 3.38035 0
M  V30 1686 H 176.665 -3.2851 1.76452 0
M  V30 1687 N 178.85 -1.27639 -0.924453 0
M  V30 1688 C 180.261 -1.12834 -1.48746 0
M  V30 1689 C 180.612 0.285505 -1.94112 0
M  V30 1690 O 179.737 1.17874 -1.81479 0
M  V30 1691 C 180.332 -2.04217 -2.70334 0
M  V30 1692 C 178.891 -1.93509 -3.22848 0
M  V30 1693 C 178.038 -1.96583 -1.95577 0
M  V30 1694 H 180.989 -1.40484 -0.738233 0
M  V30 1695 H 181.01 -1.59989 -3.4523 0
M  V30 1696 H 180.522 -3.07111 -2.37285 0
M  V30 1697 H 178.623 -0.936131 -3.60649 0
M  V30 1698 H 178.736 -2.79917 -3.88823 0
M  V30 1699 H 177.1 -1.4085 -2.12211 0
M  V30 1700 H 177.883 -3.01137 -1.64837 0
M  V30 1701 N 180.328 1.1314 -1.09713 0
M  V30 1702 C 181.291 2.16831 -0.742751 0
M  V30 1703 C 182.291 1.59159 0.229129 0
M  V30 1704 O 183.481 1.74199 0.00693237 0
M  V30 1705 C 180.613 3.40756 -0.0989168 0
M  V30 1706 H 181.806 2.49695 -1.66109 0
M  V30 1707 H 179.359 1.2802 -0.896699 0
M  V30 1708 H 180.094 3.13485 0.830514 0
M  V30 1709 H 179.879 3.83888 -0.798265 0
M  V30 1710 H 181.369 4.17386 0.133524 0
M  V30 1711 N 181.806 0.884767 1.30421 0
M  V30 1712 C 182.736 0.367574 2.30589 0
M  V30 1713 C 183.717 -0.549464 1.60981 0
M  V30 1714 O 184.902 -0.46336 1.88591 0
M  V30 1715 C 182.032 -0.418944 3.44764 0
M  V30 1716 C 180.986 0.406316 4.26067 0
M  V30 1717 C 180.312 -0.506793 5.32293 0
M  V30 1718 C 181.612 1.64832 4.95608 0
M  V30 1719 H 183.306 1.20462 2.74097 0
M  V30 1720 H 180.852 0.580695 1.31772 0
M  V30 1721 H 182.805 -0.791395 4.13902 0
M  V30 1722 H 181.529 -1.28964 3.0006 0
M  V30 1723 H 180.188 0.760903 3.58617 0
M  V30 1724 H 179.836 -1.37519 4.83836 0
M  V30 1725 H 179.536 0.0415828 5.87585 0
M  V30 1726 H 181.06 -0.875764 6.04287 0
M  V30 1727 H 182.474 1.34646 5.57264 0
M  V30 1728 H 180.871 2.13688 5.60765 0
M  V30 1729 H 181.941 2.39284 4.21748 0
M  V30 1730 N 183.284 -1.43765 0.645699 0
M  V30 1731 C 184.53 -2.02197 0.156271 0
M  V30 1732 C 184.863 -1.50776 -1.22393 0
M  V30 1733 O 184.138 -0.697771 -1.81553 0
M  V30 1734 C 184.421 -3.59749 0.158872 0
M  V30 1735 C 184.274 -4.21419 1.57245 0
M  V30 1736 C 185.593 -4.37149 -0.50879 0
M  V30 1737 H 182.712 -0.734694 0.0582602 0
M  V30 1738 H 185.354 -1.71157 0.824951 0
M  V30 1739 H 183.504 -3.86325 -0.410525 0
M  V30 1740 H 185.176 -4.059 2.19186 0
M  V30 1741 H 183.419 -3.78356 2.122 0
M  V30 1742 H 184.09 -5.30482 1.52619 0
M  V30 1743 H 186.566 -4.16093 -0.024412 0
M  V30 1744 H 185.442 -5.4683 -0.476213 0
M  V30 1745 H 185.703 -4.12839 -1.58165 0
M  V30 1746 N 184.763 -0.387143 -1.52771 0
M  V30 1747 C 185.673 0.456442 -2.30117 0
M  V30 1748 C 186.689 1.07342 -1.36944 0
M  V30 1749 O 187.865 1.07971 -1.70013 0
M  V30 1750 C 184.93 1.56957 -3.09136 0
M  V30 1751 C 183.991 0.977916 -4.18014 0
M  V30 1752 C 183.224 2.038 -4.93256 0
M  V30 1753 O 183.447 3.25271 -4.68567 0
M  V30 1754 O 182.381 1.6565 -5.78657 0
M  V30 1755 H 186.207 -0.17359 -3.03203 0
M  V30 1756 H 183.792 -0.150919 -1.48636 0
M  V30 1757 H 185.674 2.21628 -3.58412 0
M  V30 1758 H 184.349 2.18461 -2.38865 0
M  V30 1759 H 183.256 0.294525 -3.72939 0
M  V30 1760 H 184.589 0.407128 -4.90513 0
M  V30 1761 N 186.241 1.57166 -0.116904 0
M  V30 1762 C 187.204 2.14039 0.819742 0
M  V30 1763 C 188.204 1.07477 1.19605 0
M  V30 1764 O 189.394 1.33263 1.1219 0
M  V30 1765 C 186.526 2.67891 2.10826 0
M  V30 1766 H 187.719 2.98128 0.325511 0
M  V30 1767 H 185.272 1.55739 0.132312 0
M  V30 1768 H 186.007 1.87384 2.64685 0
M  V30 1769 H 185.792 3.45823 1.84793 0
M  V30 1770 H 187.282 3.11809 2.77785 0
M  V30 1771 N 187.719 -0.156864 1.56817 0
M  V30 1772 C 188.651 -1.21883 1.94106 0
M  V30 1773 C 189.664 -1.3971 0.835754 0
M  V30 1774 O 190.853 -1.39457 1.11418 0
M  V30 1775 C 187.953 -2.58527 2.19127 0
M  V30 1776 C 187.126 -2.61809 3.50393 0
M  V30 1777 C 186.185 -3.7992 3.64071 0
M  V30 1778 O 185.211 -3.65249 4.36557 0
M  V30 1779 N 186.413 -4.96973 2.99997 0
M  V30 1780 H 189.178 -0.901974 2.85805 0
M  V30 1781 H 186.739 -0.346513 1.58148 0
M  V30 1782 H 188.731 -3.36034 2.25529 0
M  V30 1783 H 187.301 -2.82545 1.33742 0
M  V30 1784 H 186.521 -1.7029 3.5552 0
M  V30 1785 H 187.809 -2.61024 4.36742 0
M  V30 1786 H 187.207 -5.11794 2.41004 0
M  V30 1787 H 185.764 -5.7229 3.11974 0
M  V30 1788 N 189.197 -1.51736 -0.425897 0
M  V30 1789 C 190.613 -1.40166 -0.76326 0
M  V30 1790 C 190.813 -0.492962 -1.95377 0
M  V30 1791 O 189.869 0.0475815 -2.52455 0
M  V30 1792 C 191.182 -2.82403 -1.03291 0
M  V30 1793 C 192.73 -2.91632 -1.13665 0
M  V30 1794 C 193.205 -4.34801 -1.43916 0
M  V30 1795 N 194.696 -4.3796 -1.50816 0
M  V30 1796 C 195.431 -5.4578 -1.75817 0
M  V30 1797 N 194.927 -6.63744 -1.98534 0
M  V30 1798 N 196.72 -5.33274 -1.77694 0
M  V30 1799 H 188.871 -2.09361 0.358 0
M  V30 1800 H 191.134 -0.942941 0.0978094 0
M  V30 1801 H 190.84 -3.50943 -0.230696 0
M  V30 1802 H 190.714 -3.22428 -1.95754 0
M  V30 1803 H 193.101 -2.23284 -1.92947 0
M  V30 1804 H 193.182 -2.55088 -0.190756 0
M  V30 1805 H 192.826 -5.03703 -0.65157 0
M  V30 1806 H 192.756 -4.68868 -2.39729 0
M  V30 1807 H 195.247 -3.52919 -1.35118 0
M  V30 1808 H 195.56 -7.41704 -2.17013 0
M  V30 1809 H 193.905 -6.66839 -1.95832 0
M  V30 1810 H 197.096 -4.40098 -1.59473 0
M  V30 1811 H 197.269 -6.1738 -1.9684 0
M  V30 1812 N 190.675 0.682077 -1.42076 0
M  V30 1813 C 191.585 1.82535 -1.47371 0
M  V30 1814 C 192.601 1.7017 -0.363079 0
M  V30 1815 O 193.777 1.91848 -0.612875 0
M  V30 1816 C 190.842 3.18624 -1.36674 0
M  V30 1817 C 189.903 3.42999 -2.58167 0
M  V30 1818 C 189.136 4.72595 -2.4797 0
M  V30 1819 O 189.359 5.50006 -1.5116 0
M  V30 1820 O 188.293 4.98054 -3.37974 0
M  V30 1821 H 192.119 1.81023 -2.43853 0
M  V30 1822 H 189.704 0.836887 -1.2376 0
M  V30 1823 H 191.586 3.99847 -1.33043 0
M  V30 1824 H 190.261 3.20789 -0.433138 0
M  V30 1825 H 189.168 2.61653 -2.67373 0
M  V30 1826 H 190.501 3.45659 -3.50401 0
M  V30 1827 N 192.153 1.28127 0.917671 0
M  V30 1828 C 193.569 1.05749 1.19538 0
M  V30 1829 C 193.769 -0.202633 2.00479 0
M  V30 1830 O 192.825 -0.905382 2.3571 0
M  V30 1831 C 194.138 2.30273 1.93378 0
M  V30 1832 C 195.686 2.35412 2.06277 0
M  V30 1833 C 196.161 3.59692 2.83524 0
M  V30 1834 N 197.652 3.60309 2.91087 0
M  V30 1835 C 198.387 4.53147 3.51348 0
M  V30 1836 N 197.883 5.563 4.12919 0
M  V30 1837 N 199.676 4.40751 3.48849 0
M  V30 1838 H 191.827 2.09024 0.377184 0
M  V30 1839 H 194.09 0.919798 0.22951 0
M  V30 1840 H 193.796 3.22055 1.41328 0
M  V30 1841 H 193.67 2.36378 2.93947 0
M  V30 1842 H 196.057 1.4413 2.57508 0
M  V30 1843 H 196.138 2.33304 1.04895 0
M  V30 1844 H 195.782 4.51316 2.32973 0
M  V30 1845 H 195.712 3.59054 3.85211 0
M  V30 1846 H 198.203 2.85714 2.47338 0
M  V30 1847 H 198.516 6.2329 4.56869 0
M  V30 1848 H 196.861 5.60131 4.11435 0
M  V30 1849 H 200.052 3.59367 2.99955 0
M  V30 1850 H 200.225 5.13291 3.9552 0
M  V30 1851 N 193.631 -1.12557 1.10312 0
M  V30 1852 C 194.88 -1.83395 0.839588 0
M  V30 1853 C 195.193 -1.84939 -0.636929 0
M  V30 1854 O 196.399 -2.51761 -1.01631 0
M  V30 1855 C 194.855 -3.29303 1.45215 0
M  V30 1856 C 194.463 -3.36122 2.96186 0
M  V30 1857 C 196.207 -4.05121 1.26796 0
M  V30 1858 C 194.114 -4.76357 3.50483 0
M  V30 1859 H 193.044 -0.687133 0.310425 0
M  V30 1860 H 195.695 -1.26746 1.32694 0
M  V30 1861 H 194.077 -3.85812 0.892469 0
M  V30 1862 H 195.251 -2.89559 3.58458 0
M  V30 1863 H 193.566 -2.73776 3.13745 0
M  V30 1864 H 196.163 -5.08668 1.64806 0
M  V30 1865 H 196.506 -4.15773 0.209409 0
M  V30 1866 H 197.039 -3.54967 1.79563 0
M  V30 1867 H 193.778 -4.70899 4.55998 0
M  V30 1868 H 193.298 -5.23377 2.92978 0
M  V30 1869 H 194.977 -5.45294 3.48228 0
M  V30 1870 N 195.109 -0.891671 -1.2995 0
M  V30 1871 C 196.072 -0.36828 -2.26222 0
M  V30 1872 C 197.072 0.493014 -1.53056 0
M  V30 1873 O 198.262 0.299213 -1.71611 0
M  V30 1874 C 195.394 0.47442 -3.37583 0
M  V30 1875 H 196.587 -1.21844 -2.74033 0
M  V30 1876 H 194.14 -0.669107 -1.41254 0
M  V30 1877 H 194.875 1.34489 -2.95099 0
M  V30 1878 H 194.66 -0.142615 -3.91841 0
M  V30 1879 H 196.15 0.83218 -4.09224 0
M  V30 1880 N 196.587 1.43421 -0.653314 0
M  V30 1881 C 197.535 2.32546 0.0501531 0
M  V30 1882 C 198.529 1.48617 0.812985 0
M  V30 1883 O 199.735 1.64825 0.723375 0
M  V30 1884 H 196.11 0.751185 0.0350032 0
M  V30 1885 H 198.081 2.89602 -0.719261 0
M  V30 1886 C 196.83 3.32925 1.00279 0
M  V30 1887 H 196.153 3.97532 0.425236 0
M  V30 1888 H 197.593 3.9792 1.46409 0
M  V30 1889 C 196.052 2.63532 2.09886 0
M  V30 1890 O 196.582 2.45092 3.18265 0
M  V30 1891 N 194.788 2.22905 1.86445 0
M  V30 1892 H 194.335 2.38103 0.98309 0
M  V30 1893 H 194.293 1.76805 2.59976 0
M  V30 1894 N 198.065 0.39524 1.52563 0
M  V30 1895 C 199.028 -0.425001 2.25225 0
M  V30 1896 C 200.028 -0.985266 1.27079 0
M  V30 1897 O 201.218 -0.866332 1.5113 0
M  V30 1898 C 198.35 -1.59686 3.01186 0
M  V30 1899 H 199.543 0.211233 2.99155 0
M  V30 1900 H 197.096 0.147472 1.55603 0
M  V30 1901 H 197.831 -2.27035 2.31572 0
M  V30 1902 H 197.616 -1.20176 3.73229 0
M  V30 1903 H 199.106 -2.17743 3.5634 0
M  V30 1904 N 199.544 -1.57102 0.125237 0
M  V30 1905 C 200.769 -2.0019 -0.542101 0
M  V30 1906 C 201.194 -1.00449 -1.59034 0
M  V30 1907 O 200.552 0.0229423 -1.81285 0
M  V30 1908 C 200.6 -3.42129 -1.13929 0
M  V30 1909 O 199.704 -3.45307 -2.2547 0
M  V30 1910 H 199.045 -0.650171 -0.134812 0
M  V30 1911 H 201.575 -2.03461 0.215553 0
M  V30 1912 H 201.585 -3.80471 -1.4733 0
M  V30 1913 H 200.26 -4.14237 -0.371531 0
M  V30 1914 H 198.837 -3.1879 -1.93462 0
M  V30 1915 N 201.022 0.148545 -1.56898 0
M  V30 1916 C 201.985 1.16736 -1.97244 0
M  V30 1917 C 202.985 1.35947 -0.858777 0
M  V30 1918 O 204.175 1.32966 -1.12542 0
M  V30 1919 C 201.307 2.52798 -2.28705 0
M  V30 1920 H 202.5 0.821279 -2.88435 0
M  V30 1921 H 200.053 0.391831 -1.51309 0
M  V30 1922 H 200.788 2.92381 -1.403 0
M  V30 1923 H 200.573 2.40216 -3.09901 0
M  V30 1924 H 202.063 3.26179 -2.60762 0
M  V30 1925 N 202.5 1.5196 0.417844 0
M  V30 1926 C 203.43 1.77634 1.51554 0
M  V30 1927 C 204.411 0.626918 1.58126 0
M  V30 1928 O 205.596 0.871632 1.7354 0
M  V30 1929 C 202.726 1.91911 2.8946 0
M  V30 1930 C 201.68 3.07463 2.97743 0
M  V30 1931 C 201.006 3.06951 4.37819 0
M  V30 1932 C 202.306 4.47082 2.70027 0
M  V30 1933 H 204 2.6955 1.3032 0
M  V30 1934 H 201.546 1.29706 0.625492 0
M  V30 1935 H 203.499 2.08455 3.6623 0
M  V30 1936 H 202.223 0.966598 3.11969 0
M  V30 1937 H 200.882 2.90656 2.23416 0
M  V30 1938 H 200.53 2.09438 4.57323 0
M  V30 1939 H 200.23 3.84556 4.44286 0
M  V30 1940 H 201.754 3.25613 5.16535 0
M  V30 1941 H 203.168 4.6414 3.36522 0
M  V30 1942 H 201.565 5.2654 2.87881 0
M  V30 1943 H 202.635 4.55777 1.65514 0
M  V30 1944 N 203.978 -0.674533 1.42435 0
M  V30 1945 C 204.908 -1.80009 1.48724 0
M  V30 1946 C 205.889 -1.6659 0.343793 0
M  V30 1947 O 207.074 -1.86007 0.558137 0
M  V30 1948 C 204.204 -3.18306 1.38919 0
M  V30 1949 C 203.158 -3.46461 2.51294 0
M  V30 1950 C 202.484 -4.84335 2.26547 0
M  V30 1951 C 203.784 -3.43328 3.93603 0
M  V30 1952 H 205.478 -1.75004 2.42928 0
M  V30 1953 H 203.024 -0.840533 1.16923 0
M  V30 1954 H 204.977 -3.9678 1.41927 0
M  V30 1955 H 203.701 -3.2399 0.412094 0
M  V30 1956 H 202.36 -2.70348 2.47604 0
M  V30 1957 H 202.008 -4.86669 1.2713 0
M  V30 1958 H 201.708 -5.04136 3.01861 0
M  V30 1959 H 203.232 -5.65094 2.31304 0
M  V30 1960 H 204.646 -4.11772 3.98894 0
M  V30 1961 H 203.043 -3.74664 4.68771 0
M  V30 1962 H 204.113 -2.41897 4.20255 0
M  V30 1963 N 205.456 -1.28612 -0.910864 0
M  V30 1964 C 206.389 -1.07109 -2.01502 0
M  V30 1965 C 207.367 0.013706 -1.62594 0
M  V30 1966 O 208.551 -0.134796 -1.88017 0
M  V30 1967 C 205.678 -0.628255 -3.32822 0
M  V30 1968 C 204.724 -1.71012 -3.90714 0
M  V30 1969 S 205.557 -3.30676 -4.21205 0
M  V30 1970 C 206.713 -2.88234 -5.55583 0
M  V30 1971 H 206.946 -2.00591 -2.19432 0
M  V30 1972 H 204.479 -1.12633 -1.05609 0
M  V30 1973 H 206.437 -0.37946 -4.08742 0
M  V30 1974 H 205.098 0.28678 -3.12788 0
M  V30 1975 H 204.291 -1.35195 -4.85529 0
M  V30 1976 H 203.893 -1.91186 -3.21441 0
M  V30 1977 H 206.185 -2.34584 -6.35591 0
M  V30 1978 H 207.128 -3.81857 -5.96314 0
M  V30 1979 H 207.536 -2.26862 -5.16908 0
M  V30 1980 N 206.934 1.1197 -1.10907 0
M  V30 1981 C 207.866 2.17592 -0.720175 0
M  V30 1982 C 208.879 1.60938 0.245495 0
M  V30 1983 O 210.068 1.78476 0.0292245 0
M  V30 1984 C 207.168 3.38873 -0.0427917 0
M  V30 1985 C 206.341 4.25006 -1.03388 0
M  V30 1986 C 205.4 5.24774 -0.387075 0
M  V30 1987 O 204.426 5.59631 -1.03934 0
M  V30 1988 N 205.628 5.74208 0.852407 0
M  V30 1989 H 208.393 2.51567 -1.62893 0
M  V30 1990 H 205.954 1.27439 -0.998543 0
M  V30 1991 H 207.946 4.02703 0.401501 0
M  V30 1992 H 206.516 3.03007 0.768456 0
M  V30 1993 H 205.736 3.57716 -1.65629 0
M  V30 1994 H 207.024 4.79397 -1.70458 0
M  V30 1995 H 206.422 5.48062 1.40161 0
M  V30 1996 H 204.979 6.39901 1.23977 0
M  V30 1997 N 208.412 0.89855 1.29475 0
M  V30 1998 C 209.342 0.39201 2.30186 0
M  V30 1999 C 210.323 -0.532359 1.61555 0
M  V30 2000 O 211.508 -0.443331 1.89072 0
M  V30 2001 C 208.638 -0.382353 3.45189 0
M  V30 2002 C 207.592 0.451483 4.25612 0
M  V30 2003 C 206.918 -0.450307 5.328 0
M  V30 2004 C 208.218 1.70079 4.93832 0
M  V30 2005 H 209.912 1.23362 2.72804 0
M  V30 2006 H 207.458 0.594638 1.31149 0
M  V30 2007 H 209.411 -0.747451 4.14718 0
M  V30 2008 H 208.135 -1.25774 3.01411 0
M  V30 2009 H 206.794 0.798897 3.57789 0
M  V30 2010 H 206.442 -1.32379 4.85268 0
M  V30 2011 H 206.142 0.103902 5.87508 0
M  V30 2012 H 207.666 -0.811623 6.05182 0
M  V30 2013 H 209.08 1.40549 5.55805 0
M  V30 2014 H 207.477 2.19623 5.58467 0
M  V30 2015 H 208.547 2.43744 4.19186 0
M  V30 2016 N 209.89 -1.43072 0.660911 0
M  V30 2017 C 210.8 -2.34585 -0.0264163 0
M  V30 2018 C 211.816 -1.54316 -0.803898 0
M  V30 2019 O 212.992 -1.86939 -0.749391 0
M  V30 2020 C 210.057 -3.32689 -0.975639 0
M  V30 2021 C 209.118 -4.2886 -0.194236 0
M  V30 2022 C 208.351 -5.22278 -1.09825 0
M  V30 2023 O 208.574 -5.20299 -2.33763 0
M  V30 2024 O 207.508 -5.99228 -0.566513 0
M  V30 2025 H 211.334 -2.94869 0.727034 0
M  V30 2026 H 208.919 -1.43342 0.42111 0
M  V30 2027 H 210.801 -3.92995 -1.52094 0
M  V30 2028 H 209.476 -2.74898 -1.70918 0
M  V30 2029 H 208.383 -3.72011 0.394835 0
M  V30 2030 H 209.716 -4.89655 0.499899 0
M  V30 2031 N 211.368 -0.403325 -1.52352 0
M  V30 2032 C 212.593 0.176499 -2.06648 0
M  V30 2033 C 213.018 1.38577 -1.27193 0
M  V30 2034 O 212.376 1.7879 -0.300637 0
M  V30 2035 C 212.424 0.511061 -3.5696 0
M  V30 2036 O 211.528 1.60294 -3.79973 0
M  V30 2037 H 210.869 0.0167337 -0.663789 0
M  V30 2038 H 213.399 -0.574848 -1.96359 0
M  V30 2039 H 213.409 0.771362 -4.00642 0
M  V30 2040 H 212.084 -0.37296 -4.14224 0
M  V30 2041 H 210.661 1.33526 -3.48174 0
M  V30 2042 N 212.846 1.57033 -0.133567 0
M  V30 2043 C 214.257 1.82593 0.389464 0
M  V30 2044 C 214.608 1.05156 1.6564 0
M  V30 2045 O 213.733 0.292644 2.14412 0
M  V30 2046 C 214.328 3.31204 0.713377 0
M  V30 2047 C 212.887 3.57393 1.18098 0
M  V30 2048 C 212.034 2.76598 0.197126 0
M  V30 2049 H 214.985 1.54598 -0.358481 0
M  V30 2050 H 215.006 3.46627 1.56939 0
M  V30 2051 H 214.518 3.87537 -0.2089 0
M  V30 2052 H 212.619 3.06433 2.11966 0
M  V30 2053 H 212.732 4.65915 1.11624 0
M  V30 2054 H 211.096 2.45257 0.687088 0
M  V30 2055 H 211.879 3.35697 -0.718504 0
M  V30 2056 N 214.325 -0.140222 1.56975 0
M  V30 2057 C 215.255 -1.17456 2.01808 0
M  V30 2058 C 216.236 -1.44415 0.898794 0
M  V30 2059 O 217.421 -1.5522 1.16707 0
M  V30 2060 C 214.551 -2.50607 2.40444 0
M  V30 2061 C 213.505 -2.38155 3.55621 0
M  V30 2062 C 212.831 -3.76078 3.80091 0
M  V30 2063 C 214.131 -1.85991 4.88062 0
M  V30 2064 H 215.825 -0.801743 2.88466 0
M  V30 2065 H 213.371 -0.38422 1.38779 0
M  V30 2066 H 215.324 -3.23197 2.7041 0
M  V30 2067 H 214.048 -2.89737 1.50732 0
M  V30 2068 H 212.707 -1.68016 3.25832 0
M  V30 2069 H 212.355 -4.12656 2.87618 0
M  V30 2070 H 212.055 -3.68606 4.57606 0
M  V30 2071 H 213.579 -4.50206 4.12488 0
M  V30 2072 H 214.993 -2.4838 5.16701 0
M  V30 2073 H 213.39 -1.89393 5.6943 0
M  V30 2074 H 214.46 -0.816023 4.77984 0
M  V30 2075 N 215.803 -1.52179 -0.40978 0
M  V30 2076 C 216.713 -1.78364 -1.52392 0
M  V30 2077 C 217.729 -0.669183 -1.60617 0
M  V30 2078 O 218.905 -0.954518 -1.77344 0
M  V30 2079 C 215.97 -1.92822 -2.88133 0
M  V30 2080 C 215.031 -3.16725 -2.898 0
M  V30 2081 C 214.264 -3.30483 -4.19067 0
M  V30 2082 O 214.487 -2.49522 -5.12928 0
M  V30 2083 O 213.421 -4.2363 -4.27576 0
M  V30 2084 H 217.247 -2.72931 -1.33201 0
M  V30 2085 H 214.832 -1.37016 -0.59557 0
M  V30 2086 H 216.714 -2.04157 -3.68643 0
M  V30 2087 H 215.389 -1.01444 -3.07393 0
M  V30 2088 H 214.296 -3.10848 -2.08146 0
M  V30 2089 H 215.629 -4.07881 -2.75489 0
M  V30 2090 N 217.281 0.66697 -1.42791 0
M  V30 2091 C 218.506 1.46004 -1.47301 0
M  V30 2092 C 218.931 1.87894 -0.0880317 0
M  V30 2093 O 218.289 1.56502 0.915253 0
M  V30 2094 C 218.337 2.68031 -2.41229 0
M  V30 2095 O 217.441 3.6659 -1.88906 0
M  V30 2096 H 216.782 0.43832 -0.49877 0
M  V30 2097 H 219.312 0.817391 -1.87563 0
M  V30 2098 H 219.322 3.1601 -2.58073 0
M  V30 2099 H 217.997 2.36883 -3.41847 0
M  V30 2100 H 216.574 3.25661 -1.81656 0
M  V30 2101 N 218.759 1.29093 0.90403 0
M  V30 2102 C 220.005 1.16986 1.65656 0
M  V30 2103 C 220.338 -0.278925 1.92186 0
M  V30 2104 O 219.613 -1.2019 1.5292 0
M  V30 2105 C 219.896 1.97908 3.0084 0
M  V30 2106 C 219.749 3.50903 2.81403 0
M  V30 2107 C 221.068 1.80208 4.01513 0
M  V30 2108 H 218.187 0.426346 0.601164 0
M  V30 2109 H 220.829 1.58518 1.04747 0
M  V30 2110 H 218.979 1.62616 3.52829 0
M  V30 2111 H 220.651 3.96153 2.36348 0
M  V30 2112 H 218.894 3.76045 2.1627 0
M  V30 2113 H 219.565 4.02791 3.77443 0
M  V30 2114 H 222.041 2.11025 3.58619 0
M  V30 2115 H 220.917 2.39184 4.94047 0
M  V30 2116 H 221.178 0.756119 4.35586 0
M  V30 2117 N 220.237 -1.11381 1.11499 0
M  V30 2118 C 221.17 -2.16621 0.71769 0
M  V30 2119 C 222.148 -1.60058 -0.286413 0
M  V30 2120 O 223.332 -1.87613 -0.182689 0
M  V30 2121 C 220.459 -3.38646 0.0607265 0
M  V30 2122 C 219.505 -4.13874 1.03008 0
M  V30 2123 S 220.338 -4.70731 2.55289 0
M  V30 2124 C 221.494 -5.96079 1.90895 0
M  V30 2125 H 221.727 -2.49987 1.60915 0
M  V30 2126 H 219.26 -1.23015 0.933092 0
M  V30 2127 H 221.218 -4.09313 -0.311965 0
M  V30 2128 H 219.879 -3.03537 -0.807702 0
M  V30 2129 H 219.072 -5.01333 0.517853 0
M  V30 2130 H 218.674 -3.4897 1.34522 0
M  V30 2131 H 220.966 -6.65948 1.24577 0
M  V30 2132 H 221.909 -6.51946 2.76354 0
M  V30 2133 H 222.317 -5.47652 1.36885 0
M  V30 2134 N 221.715 -0.905404 -1.28997 0
M  V30 2135 C 222.678 -0.392253 -2.25819 0
M  V30 2136 C 223.678 0.476753 -1.5357 0
M  V30 2137 O 224.868 0.280994 -1.71919 0
M  V30 2138 C 222 0.438588 -3.38067 0
M  V30 2139 H 223.193 -1.24743 -2.72725 0
M  V30 2140 H 220.746 -0.684051 -1.40536 0
M  V30 2141 H 221.481 1.31352 -2.96508 0
M  V30 2142 H 221.266 -0.184167 -3.91667 0
M  V30 2143 H 222.756 0.78873 -4.10084 0
M  V30 2144 N 223.193 1.4272 -0.668489 0
M  V30 2145 C 224.156 2.292 0.00448567 0
M  V30 2146 C 225.156 1.43001 0.735339 0
M  V30 2147 O 226.346 1.64461 0.57429 0
M  V30 2148 C 223.478 3.25375 1.01705 0
M  V30 2149 H 224.671 2.90199 -0.756608 0
M  V30 2150 H 222.224 1.50254 -0.430506 0
M  V30 2151 H 222.959 2.69301 1.80686 0
M  V30 2152 H 222.744 3.88944 0.496463 0
M  V30 2153 H 224.234 3.90245 1.48655 0
M  V30 2154 N 224.671 0.411399 1.52136 0
M  V30 2155 C 225.634 -0.401089 2.25663 0
M  V30 2156 C 226.634 -0.971732 1.28117 0
M  V30 2157 O 227.824 -0.850254 1.52041 0
M  V30 2158 C 224.956 -1.56483 3.02863 0
M  V30 2159 H 226.149 0.24295 2.98914 0
M  V30 2160 H 223.702 0.163968 1.55438 0
M  V30 2161 H 224.437 -2.24567 2.33967 0
M  V30 2162 H 224.222 -1.16211 3.74483 0
M  V30 2163 H 225.712 -2.13951 3.58629 0
M  V30 2164 N 226.149 -1.5696 0.141893 0
M  V30 2165 C 227.096 -2.16501 -0.799737 0
M  V30 2166 C 228.066 -1.09643 -1.24771 0
M  V30 2167 O 229.251 -1.3766 -1.32115 0
M  V30 2168 C 226.391 -2.78679 -2.03549 0
M  V30 2169 C 225.504 -3.99914 -1.6338 0
M  V30 2170 C 224.639 -4.50106 -2.82096 0
M  V30 2171 C 223.678 -5.63819 -2.38275 0
M  V30 2172 N 222.815 -6.08651 -3.49983 0
M  V30 2173 H 227.655 -2.96632 -0.285179 0
M  V30 2174 H 225.192 -1.46533 -0.129053 0
M  V30 2175 H 227.15 -3.1287 -2.75986 0
M  V30 2176 H 225.78 -2.012 -2.52425 0
M  V30 2177 H 224.832 -3.71735 -0.807279 0
M  V30 2178 H 226.144 -4.82311 -1.27192 0
M  V30 2179 H 225.298 -4.86325 -3.62729 0
M  V30 2180 H 224.037 -3.66706 -3.21525 0
M  V30 2181 H 223.042 -5.2718 -1.56081 0
M  V30 2182 H 224.267 -6.49 -1.99938 0
M  V30 2183 H 222.213 -5.28188 -3.89042 0
M  V30 2184 H 222.13 -6.85961 -3.17794 0
M  V30 2185 H 223.398 -6.49515 -4.30988 0
M  V30 2186 N 227.627 0.131896 -1.57047 0
M  V30 2187 C 228.876 0.84044 -1.83356 0
M  V30 2188 C 229.189 1.81646 -0.725535 0
M  V30 2189 O 230.395 2.57025 -0.874659 0
M  V30 2190 C 228.851 1.54528 -3.25037 0
M  V30 2191 C 228.459 0.610902 -4.43815 0
M  V30 2192 C 230.203 2.23972 -3.60606 0
M  V30 2193 C 228.11 1.31823 -5.76521 0
M  V30 2194 H 227.04 0.317599 -0.683847 0
M  V30 2195 H 229.691 0.0931561 -1.83263 0
M  V30 2196 H 228.073 2.33873 -3.19561 0
M  V30 2197 H 229.247 -0.148407 -4.60561 0
M  V30 2198 H 227.562 0.0241016 -4.16393 0
M  V30 2199 H 230.159 2.77558 -4.57018 0
M  V30 2200 H 230.502 3.01173 -2.87403 0
M  V30 2201 H 231.035 1.51529 -3.6781 0
M  V30 2202 H 227.774 0.587771 -6.52859 0
M  V30 2203 H 227.294 2.04987 -5.63685 0
M  V30 2204 H 228.973 1.855 -6.19838 0
M  V30 2205 N 229.106 1.52395 0.401703 0
M  V30 2206 C 230.069 1.75636 1.47257 0
M  V30 2207 C 231.069 0.62628 1.48103 0
M  V30 2208 O 232.259 0.894227 1.49497 0
M  V30 2209 C 229.391 1.84553 2.86624 0
M  V30 2210 H 230.584 2.71241 1.27938 0
M  V30 2211 H 228.137 1.42923 0.632662 0
M  V30 2212 H 228.872 0.908882 3.11303 0
M  V30 2213 H 228.657 2.66715 2.87412 0
M  V30 2214 H 230.147 2.04251 3.64241 0
M  V30 2215 N 230.584 -0.659388 1.43143 0
M  V30 2216 C 231.534 -1.7655 1.44271 0
M  V30 2217 C 232.518 -1.57847 0.311961 0
M  V30 2218 O 233.71 -1.68064 0.555306 0
M  V30 2219 C 230.839 -3.15104 1.36251 0
M  V30 2220 C 229.925 -3.39377 2.54331 0
M  V30 2221 N 230.316 -3.34153 3.79704 0
M  V30 2222 C 228.614 -3.70072 2.48922 0
M  V30 2223 C 229.315 -3.58337 4.58225 0
M  V30 2224 N 228.291 -3.79851 3.88863 0
M  V30 2225 H 232.093 -1.70928 2.39083 0
M  V30 2226 H 229.607 -0.860823 1.37708 0
M  V30 2227 H 231.604 -3.94389 1.35141 0
M  V30 2228 H 230.264 -3.21913 0.424531 0
M  V30 2229 H 231.275 -3.13704 4.1208 0
M  V30 2230 H 227.952 -3.84034 1.63781 0
M  V30 2231 H 229.342 -3.60129 5.67236 0
M  V30 2232 N 232.062 -1.29571 -0.897171 0
M  V30 2233 C 232.994 -1.10724 -2.00681 0
M  V30 2234 C 234.007 -0.0540026 -1.6271 0
M  V30 2235 O 235.196 -0.298783 -1.75982 0
M  V30 2236 C 232.296 -0.663912 -3.32333 0
M  V30 2237 C 231.469 -1.79622 -3.98816 0
M  V30 2238 C 230.528 -1.34349 -5.0876 0
M  V30 2239 O 229.554 -2.04864 -5.31055 0
M  V30 2240 N 230.756 -0.215764 -5.80099 0
M  V30 2241 H 233.521 -2.06291 -2.17403 0
M  V30 2242 H 231.082 -1.21544 -1.06951 0
M  V30 2243 H 233.074 -0.344295 -4.03233 0
M  V30 2244 H 231.644 0.199375 -3.11964 0
M  V30 2245 H 230.864 -2.28459 -3.21248 0
M  V30 2246 H 232.152 -2.55535 -4.39976 0
M  V30 2247 H 231.55 0.372091 -5.64475 0
M  V30 2248 H 230.107 0.0444707 -6.51785 0
M  V30 2249 N 233.54 1.10788 -1.12088 0
M  V30 2250 C 234.488 2.19111 -0.780587 0
M  V30 2251 C 235.482 1.67818 0.230961 0
M  V30 2252 O 236.688 1.79777 0.0895427 0
M  V30 2253 H 233.063 0.714477 -0.234578 0
M  V30 2254 H 235.034 2.45055 -1.70266 0
M  V30 2255 C 233.783 3.46818 -0.24747 0
M  V30 2256 H 233.106 3.86646 -1.01712 0
M  V30 2257 H 234.546 4.23973 -0.0476291 0
M  V30 2258 C 233.005 3.20968 1.02378 0
M  V30 2259 O 233.535 3.42298 2.10226 0
M  V30 2260 N 231.741 2.74658 0.949271 0
M  V30 2261 H 231.288 2.57501 0.0715173 0
M  V30 2262 H 231.246 2.57739 1.80049 0
M  V30 2263 N 235.018 0.912232 1.28515 0
M  V30 2264 C 235.965 0.397954 2.27343 0
M  V30 2265 C 236.935 -0.526766 1.57526 0
M  V30 2266 O 238.12 -0.449292 1.85435 0
M  V30 2267 C 235.26 -0.357263 3.43246 0
M  V30 2268 C 234.373 0.599788 4.27816 0
M  V30 2269 C 233.508 -0.173725 5.30916 0
M  V30 2270 C 232.547 0.777039 6.07148 0
M  V30 2271 N 231.684 0.0371398 7.0209 0
M  V30 2272 H 236.524 1.24577 2.70711 0
M  V30 2273 H 234.061 0.625612 1.33133 0
M  V30 2274 H 236.019 -0.8113 4.09236 0
M  V30 2275 H 234.649 -1.16943 3.00872 0
M  V30 2276 H 233.701 1.17235 3.61884 0
M  V30 2277 H 235.013 1.32704 4.80823 0
M  V30 2278 H 234.167 -0.688394 6.02782 0
M  V30 2279 H 232.906 -0.934041 4.78672 0
M  V30 2280 H 231.911 1.3031 5.34134 0
M  V30 2281 H 233.136 1.53689 6.61481 0
M  V30 2282 H 231.082 -0.705213 6.52198 0
M  V30 2283 H 230.999 0.704249 7.52713 0
M  V30 2284 H 232.267 -0.457383 7.78157 0
M  V30 2285 N 236.496 -1.42363 0.676048 0
M  V30 2286 C 237.724 -2.05859 0.207268 0
M  V30 2287 C 238.139 -1.50796 -1.13605 0
M  V30 2288 O 237.496 -0.648265 -1.70598 0
M  V30 2289 C 237.547 -3.61248 0.134975 0
M  V30 2290 O 237.268 -4.1427 1.42521 0
M  V30 2291 C 238.769 -4.41859 -0.357151 0
M  V30 2292 H 235.989 -0.663431 0.100503 0
M  V30 2293 H 238.533 -1.82479 0.923136 0
M  V30 2294 H 236.688 -3.83735 -0.531588 0
M  V30 2295 H 237.102 -5.0815 1.29939 0
M  V30 2296 H 238.576 -5.50847 -0.356641 0
M  V30 2297 H 239.053 -4.16536 -1.39264 0
M  V30 2298 H 239.659 -4.24392 0.27772 0
M  V30 2299 N 237.974 -0.419461 -1.51915 0
M  V30 2300 C 239.223 0.154346 -2.01109 0
M  V30 2301 C 239.536 1.45338 -1.30905 0
M  V30 2302 O 240.742 2.10906 -1.7097 0
M  V30 2303 C 239.198 0.325615 -3.58424 0
M  V30 2304 C 238.806 -0.961934 -4.37551 0
M  V30 2305 C 240.55 0.854155 -4.15818 0
M  V30 2306 C 238.457 -0.757287 -5.86531 0
M  V30 2307 H 237.387 0.0614563 -0.751491 0
M  V30 2308 H 240.038 -0.54649 -1.75173 0
M  V30 2309 H 238.42 1.08903 -3.80731 0
M  V30 2310 H 239.594 -1.7323 -4.26999 0
M  V30 2311 H 237.909 -1.41766 -3.91524 0
M  V30 2312 H 240.506 1.02346 -5.24814 0
M  V30 2313 H 240.849 1.83172 -3.73837 0
M  V30 2314 H 241.382 0.149528 -3.97519 0
M  V30 2315 H 238.121 -1.70671 -6.32892 0
M  V30 2316 H 237.641 -0.0264061 -5.99794 0
M  V30 2317 H 239.32 -0.403482 -6.45741 0
M  V30 2318 N 239.452 1.56882 -0.150215 0
M  V30 2319 C 240.698 1.96518 0.500834 0
M  V30 2320 C 241.031 1.03527 1.64304 0
M  V30 2321 O 240.306 0.0782751 1.94342 0
M  V30 2322 C 240.589 3.45822 1.00395 0
M  V30 2323 C 240.442 4.49591 -0.136983 0
M  V30 2324 C 241.761 3.97704 1.88467 0
M  V30 2325 H 238.88 0.714535 0.18058 0
M  V30 2326 H 241.522 1.88577 -0.232091 0
M  V30 2327 H 239.672 3.5272 1.62851 0
M  V30 2328 H 241.344 4.5477 -0.77343 0
M  V30 2329 H 239.587 4.26441 -0.795652 0
M  V30 2330 H 240.258 5.51402 0.256815 0
M  V30 2331 H 242.734 3.93304 1.35834 0
M  V30 2332 H 241.61 5.0263 2.20578 0
M  V30 2333 H 241.871 3.40252 2.82279 0
M  V30 2334 N 240.93 -0.123565 1.57115 0
M  V30 2335 C 241.893 -1.13583 1.99076 0
M  V30 2336 C 242.893 -1.34564 0.880296 0
M  V30 2337 O 244.083 -1.31158 1.14644 0
M  V30 2338 C 241.215 -2.49128 2.32698 0
M  V30 2339 H 242.408 -0.775287 2.89706 0
M  V30 2340 H 239.961 -0.36771 1.51913 0
M  V30 2341 H 240.696 -2.90111 1.44934 0
M  V30 2342 H 240.481 -2.35255 3.13684 0
M  V30 2343 H 241.971 -3.2199 2.65918 0
M  V30 2344 N 242.408 -1.52605 -0.393616 0
M  V30 2345 C 243.338 -1.80022 -1.48709 0
M  V30 2346 C 244.319 -0.651995 -1.57108 0
M  V30 2347 O 245.504 -0.89913 -1.72132 0
M  V30 2348 C 242.634 -1.96492 -2.86371 0
M  V30 2349 C 241.588 -3.12161 -2.92813 0
M  V30 2350 C 240.914 -3.13877 -4.3288 0
M  V30 2351 C 242.214 -4.51322 -2.6288 0
M  V30 2352 H 243.908 -2.71589 -1.26015 0
M  V30 2353 H 241.454 -1.30684 -0.604778 0
M  V30 2354 H 243.407 -2.14255 -3.62867 0
M  V30 2355 H 242.131 -1.01611 -3.10391 0
M  V30 2356 H 240.79 -2.94173 -2.18764 0
M  V30 2357 H 240.438 -2.16687 -4.53933 0
M  V30 2358 H 240.138 -3.91576 -4.38112 0
M  V30 2359 H 241.662 -3.33789 -5.1129 0
M  V30 2360 H 243.076 -4.69435 -3.29096 0
M  V30 2361 H 241.473 -5.31053 -2.79468 0
M  V30 2362 H 242.543 -4.58353 -1.58242 0
M  V30 2363 N 243.887 0.651787 -1.4349 0
M  V30 2364 C 244.835 1.78586 -1.49029 0
M  V30 2365 C 245.829 1.65448 -0.363767 0
M  V30 2366 O 247.035 1.71777 -0.537821 0
M  V30 2367 H 243.41 0.589236 -0.467231 0
M  V30 2368 H 245.381 1.71035 -2.44519 0
M  V30 2369 C 244.13 3.16851 -1.43181 0
M  V30 2370 H 243.453 3.27598 -2.29171 0
M  V30 2371 H 244.893 3.96156 -1.51118 0
M  V30 2372 C 243.352 3.36568 -0.149616 0
M  V30 2373 O 243.882 3.93885 0.788509 0
M  V30 2374 N 242.088 2.90539 -0.0593484 0
M  V30 2375 H 241.635 2.4408 -0.823575 0
M  V30 2376 H 241.593 3.04108 0.797853 0
M  V30 2377 N 245.365 1.30045 0.890287 0
M  V30 2378 C 246.776 1.16738 1.45702 0
M  V30 2379 C 247.127 -0.233939 1.948 0
M  V30 2380 O 246.252 -1.13021 1.84541 0
M  V30 2381 C 246.847 2.11313 2.64825 0
M  V30 2382 C 245.406 2.02001 3.17604 0
M  V30 2383 C 244.553 2.01699 1.90296 0
M  V30 2384 H 247.504 1.42392 0.700726 0
M  V30 2385 H 247.525 1.69086 3.40867 0
M  V30 2386 H 247.037 3.13294 2.2906 0
M  V30 2387 H 245.138 1.03142 3.5804 0
M  V30 2388 H 245.251 2.90128 3.81264 0
M  V30 2389 H 243.615 1.46427 2.08402 0
M  V30 2390 H 244.398 3.05402 1.56795 0
M  V30 2391 N 246.843 -1.10192 1.12674 0
M  V30 2392 C 247.806 -2.14786 0.799979 0
M  V30 2393 C 248.806 -1.59711 -0.18685 0
M  V30 2394 O 249.996 -1.74156 0.0392558 0
M  V30 2395 C 247.128 -3.40374 0.189228 0
M  V30 2396 H 248.321 -2.45203 1.72671 0
M  V30 2397 H 245.874 -1.25597 0.930326 0
M  V30 2398 H 246.609 -3.15577 -0.747107 0
M  V30 2399 H 246.394 -3.81637 0.899766 0
M  V30 2400 H 247.884 -4.17594 -0.0228143 0
M  V30 2401 N 248.321 -0.919034 -1.28029 0
M  V30 2402 C 249.732 -0.600735 -1.76771 0
M  V30 2403 C 250.083 0.884024 -1.75156 0
M  V30 2404 O 249.208 1.69163 -1.34956 0
M  V30 2405 C 249.803 -1.08372 -3.21 0
M  V30 2406 C 248.362 -0.816248 -3.67443 0
M  V30 2407 C 247.509 -1.24742 -2.47658 0
M  V30 2408 H 250.46 -1.09974 -1.14418 0
M  V30 2409 H 250.481 -0.427512 -3.78091 0
M  V30 2410 H 249.993 -2.16437 -3.22144 0
M  V30 2411 H 248.094 0.250968 -3.71754 0
M  V30 2412 H 248.207 -1.4277 -4.57333 0
M  V30 2413 H 246.571 -0.666083 -2.45836 0
M  V30 2414 H 247.354 -2.33653 -2.51518 0
M  V30 2415 N 249.799 1.42003 -0.683588 0
M  V30 2416 C 250.762 2.29191 -0.0198243 0
M  V30 2417 C 251.762 1.43773 0.72013 0
M  V30 2418 O 252.952 1.65061 0.556815 0
M  V30 2419 C 250.084 3.26435 0.982487 0
M  V30 2420 H 251.277 2.8938 -0.787345 0
M  V30 2421 H 248.83 1.49789 -0.446418 0
M  V30 2422 H 249.565 2.71203 1.77819 0
M  V30 2423 H 249.35 3.89449 0.455182 0
M  V30 2424 H 250.84 3.918 1.44508 0
M  V30 2425 N 251.277 0.427512 1.51691 0
M  V30 2426 C 252.693 0.0792977 1.59403 0
M  V30 2427 C 252.893 -1.41035 1.43914 0
M  V30 2428 O 251.949 -2.17922 1.27539 0
M  V30 2429 C 253.262 0.590636 2.94842 0
M  V30 2430 C 254.81 0.550215 3.08126 0
M  V30 2431 C 255.285 1.03836 4.46074 0
M  V30 2432 N 256.776 0.995943 4.52366 0
M  V30 2433 C 257.511 1.34463 5.57411 0
M  V30 2434 N 257.007 1.76569 6.69922 0
M  V30 2435 N 258.8 1.26343 5.47717 0
M  V30 2436 H 250.951 1.39687 1.60004 0
M  V30 2437 H 253.214 0.575003 0.753708 0
M  V30 2438 H 252.92 1.63251 3.11516 0
M  V30 2439 H 252.794 0.0102061 3.77199 0
M  V30 2440 H 255.181 -0.482654 2.91126 0
M  V30 2441 H 255.262 1.16693 2.27632 0
M  V30 2442 H 254.906 2.06965 4.63819 0
M  V30 2443 H 254.836 0.398286 5.25092 0
M  V30 2444 H 257.327 0.68661 3.7161 0
M  V30 2445 H 257.64 2.01438 7.46085 0
M  V30 2446 H 255.985 1.80488 6.71155 0
M  V30 2447 H 259.176 0.933209 4.58703 0
M  V30 2448 H 259.349 1.53846 6.29472 0
M  V30 2449 N 252.755 -1.56801 0.158532 0
M  V30 2450 C 253.665 -2.20916 -0.789518 0
M  V30 2451 C 254.681 -1.1969 -1.26294 0
M  V30 2452 O 255.857 -1.52308 -1.31773 0
M  V30 2453 C 252.922 -2.82727 -2.00665 0
M  V30 2454 C 251.983 -3.99114 -1.58134 0
M  V30 2455 C 251.216 -4.57968 -2.74045 0
M  V30 2456 O 251.439 -4.15704 -3.90572 0
M  V30 2457 O 250.373 -5.48047 -2.48855 0
M  V30 2458 H 254.199 -3.02464 -0.273681 0
M  V30 2459 H 251.784 -1.4924 -0.0690548 0
M  V30 2460 H 253.666 -3.21968 -2.71872 0
M  V30 2461 H 252.341 -2.04184 -2.51179 0
M  V30 2462 H 251.248 -3.64567 -0.839155 0
M  V30 2463 H 252.581 -4.79212 -1.12325 0
M  V30 2464 N 254.233 0.115231 -1.57178 0
M  V30 2465 C 255.163 1.1423 -2.03651 0
M  V30 2466 C 256.144 1.42967 -0.921655 0
M  V30 2467 O 257.329 1.53343 -1.19162 0
M  V30 2468 C 254.459 2.4675 -2.44401 0
M  V30 2469 C 253.413 2.32467 -3.59365 0
M  V30 2470 C 252.739 3.69984 -3.86026 0
M  V30 2471 C 254.039 1.78203 -4.90959 0
M  V30 2472 H 255.733 0.755749 -2.89705 0
M  V30 2473 H 253.279 0.362093 -1.39373 0
M  V30 2474 H 255.232 3.18854 -2.75517 0
M  V30 2475 H 253.956 2.87302 -1.55322 0
M  V30 2476 H 252.615 1.62811 -3.28463 0
M  V30 2477 H 252.263 4.08028 -2.94147 0
M  V30 2478 H 251.963 3.61279 -4.63412 0
M  V30 2479 H 253.487 4.43587 -4.19599 0
M  V30 2480 H 254.901 2.40128 -5.20587 0
M  V30 2481 H 253.298 1.8031 -5.72371 0
M  V30 2482 H 254.368 0.739876 -4.79222 0
M  V30 2483 N 255.711 1.52812 0.385517 0
M  V30 2484 C 257.122 1.5993 0.963293 0
M  V30 2485 C 257.473 0.454302 1.90868 0
M  V30 2486 O 256.598 -0.422132 2.12243 0
M  V30 2487 C 257.193 2.89871 1.75387 0
M  V30 2488 C 255.752 2.99389 2.28129 0
M  V30 2489 C 254.899 2.55071 1.08783 0
M  V30 2490 H 257.85 1.5784 0.164948 0
M  V30 2491 H 257.871 2.76553 2.61341 0
M  V30 2492 H 257.383 3.73186 1.06554 0
M  V30 2493 H 255.484 2.20619 3.00263 0
M  V30 2494 H 255.597 4.04096 2.57377 0
M  V30 2495 H 253.961 2.09473 1.4489 0
M  V30 2496 H 254.744 3.40785 0.414807 0
M  V30 2497 N 257.189 -0.644168 1.43834 0
M  V30 2498 C 258.466 -1.40188 1.36406 0
M  V30 2499 C 258.846 -2.11094 0.0163124 0
M  V30 2500 O 258.194 -2.05426 -1.00062 0
M  V30 2501 C 258.404 -2.3791 2.55343 0
M  V30 2502 C 259.752 -3.01637 2.98832 0
M  V30 2503 O 260.776 -2.48237 2.55455 0
M  V30 2504 O 259.635 -3.98477 3.74003 0
M  V30 2505 H 256.729 -0.626773 0.539523 0
M  V30 2506 H 259.275 -0.670317 1.559 0
M  V30 2507 H 258.047 -1.84525 3.4506 0
M  V30 2508 H 257.67 -3.18503 2.37995 0
M  V30 2509 N 258.668 -1.30515 -0.883378 0
M  V30 2510 C 259.578 -1.18959 -2.02203 0
M  V30 2511 C 260.594 -0.109172 -1.73657 0
M  V30 2512 O 261.77 -0.324413 -1.9877 0
M  V30 2513 C 258.835 -0.883871 -3.35244 0
M  V30 2514 C 257.896 -2.04982 -3.77201 0
M  V30 2515 C 257.129 -1.75859 -5.03894 0
M  V30 2516 O 257.352 -0.687276 -5.66244 0
M  V30 2517 O 256.286 -2.61146 -5.42297 0
M  V30 2518 H 260.112 -2.14616 -2.1488 0
M  V30 2519 H 257.697 -1.10124 -1.0096 0
M  V30 2520 H 259.579 -0.728644 -4.15053 0
M  V30 2521 H 258.254 0.0427798 -3.23672 0
M  V30 2522 H 257.161 -2.26038 -2.9809 0
M  V30 2523 H 258.494 -2.95825 -3.93381 0
M  V30 2524 N 260.146 1.09593 -1.13257 0
M  V30 2525 C 261.076 2.18214 -0.830946 0
M  V30 2526 C 262.057 1.68812 0.208966 0
M  V30 2527 O 263.242 1.9408 0.0682666 0
M  V30 2528 C 260.372 3.46051 -0.294296 0
M  V30 2529 C 259.326 4.08778 -1.26826 0
M  V30 2530 C 258.652 5.31419 -0.591449 0
M  V30 2531 C 259.952 4.51476 -2.62615 0
M  V30 2532 H 261.646 2.43703 -1.73923 0
M  V30 2533 H 259.192 1.17128 -0.837675 0
M  V30 2534 H 261.145 4.2134 -0.0709606 0
M  V30 2535 H 259.869 3.20079 0.649366 0
M  V30 2536 H 258.528 3.35505 -1.47756 0
M  V30 2537 H 258.176 5.01727 0.357633 0
M  V30 2538 H 257.876 5.74341 -1.24123 0
M  V30 2539 H 259.4 6.09433 -0.377355 0
M  V30 2540 H 260.814 5.17999 -2.45663 0
M  V30 2541 H 259.211 5.05277 -3.23752 0
M  V30 2542 H 260.281 3.63962 -3.20406 0
M  V30 2543 N 261.624 0.925811 1.2754 0
M  V30 2544 C 262.554 0.440748 2.29303 0
M  V30 2545 C 263.535 -0.497971 1.62648 0
M  V30 2546 O 264.72 -0.403126 1.8997 0
M  V30 2547 C 261.85 -0.309048 3.45922 0
M  V30 2548 C 260.804 0.54166 4.24559 0
M  V30 2549 C 260.13 -0.337191 5.33636 0
M  V30 2550 C 261.43 1.80516 4.90114 0
M  V30 2551 H 263.124 1.29121 2.70126 0
M  V30 2552 H 260.67 0.622323 1.29858 0
M  V30 2553 H 262.623 -0.659315 4.1621 0
M  V30 2554 H 261.347 -1.19352 3.04011 0
M  V30 2555 H 260.006 0.874609 3.56014 0
M  V30 2556 H 259.654 -1.22056 4.87966 0
M  V30 2557 H 259.354 0.228497 5.87156 0
M  V30 2558 H 260.878 -0.683072 6.06767 0
M  V30 2559 H 262.292 1.52307 5.52698 0
M  V30 2560 H 260.689 2.3142 5.53683 0
M  V30 2561 H 261.759 2.52581 4.13921 0
M  V30 2562 N 263.102 -1.41638 0.69111 0
M  V30 2563 C 264.065 -2.29178 0.0319786 0
M  V30 2564 C 265.065 -1.44153 -0.712496 0
M  V30 2565 O 266.255 -1.65354 -0.548053 0
M  V30 2566 C 263.387 -3.26952 -0.965161 0
M  V30 2567 H 264.58 -2.88959 0.802681 0
M  V30 2568 H 262.133 -1.4955 0.454356 0
M  V30 2569 H 262.868 -2.72142 -1.76378 0
M  V30 2570 H 262.653 -3.89685 -0.434522 0
M  V30 2571 H 264.143 -3.92561 -1.42428 0
M  V30 2572 N 264.58 -0.43555 -1.51462 0
M  V30 2573 C 265.51 0.367376 -2.30592 0
M  V30 2574 C 266.491 1.02263 -1.35928 0
M  V30 2575 O 267.676 1.02661 -1.64847 0
M  V30 2576 C 264.806 1.46983 -3.14664 0
M  V30 2577 C 263.76 0.938161 -4.17591 0
M  V30 2578 C 263.086 2.13622 -4.90173 0
M  V30 2579 C 264.386 -0.0261621 -5.22293 0
M  V30 2580 H 266.08 -0.292969 -2.97963 0
M  V30 2581 H 263.626 -0.14234 -1.43295 0
M  V30 2582 H 265.579 2.03873 -3.688 0
M  V30 2583 H 264.303 2.15843 -2.4511 0
M  V30 2584 H 262.962 0.391481 -3.64504 0
M  V30 2585 H 262.61 2.81098 -4.17124 0
M  V30 2586 H 262.31 1.78688 -5.59772 0
M  V30 2587 H 263.834 2.7107 -5.47132 0
M  V30 2588 H 265.248 0.452384 -5.71512 0
M  V30 2589 H 263.645 -0.287992 -5.99409 0
M  V30 2590 H 264.715 -0.963391 -4.75233 0
M  V30 2591 N 266.058 1.56714 -0.166846 0
M  V30 2592 C 267.304 1.97039 0.479962 0
M  V30 2593 C 267.637 1.05264 1.63197 0
M  V30 2594 O 266.912 0.0988833 1.94248 0
M  V30 2595 C 267.195 3.46867 0.967212 0
M  V30 2596 C 267.048 4.49421 -0.18466 0
M  V30 2597 C 268.367 3.9968 1.84238 0
M  V30 2598 H 265.486 0.71641 0.172992 0
M  V30 2599 H 268.128 1.8832 -0.252079 0
M  V30 2600 H 266.278 3.54428 1.59101 0
M  V30 2601 H 267.95 4.53924 -0.821621 0
M  V30 2602 H 266.193 4.25573 -0.840837 0
M  V30 2603 H 266.864 5.51644 0.198317 0
M  V30 2604 H 269.34 3.94723 1.31655 0
M  V30 2605 H 268.216 5.04941 2.15234 0
M  V30 2606 H 268.477 3.43226 2.78654 0
M  V30 2607 N 267.536 -0.106894 1.57237 0
M  V30 2608 C 268.813 -0.843526 1.76477 0
M  V30 2609 C 269.193 -1.97499 0.745464 0
M  V30 2610 O 268.541 -2.27357 -0.228306 0
M  V30 2611 C 268.751 -1.34903 3.21873 0
M  V30 2612 C 270.099 -1.79654 3.8472 0
M  V30 2613 O 271.123 -1.44554 3.2555 0
M  V30 2614 O 269.982 -2.44515 4.88748 0
M  V30 2615 H 267.076 -0.401468 0.723016 0
M  V30 2616 H 269.622 -0.0896927 1.69463 0
M  V30 2617 H 268.394 -0.53781 3.87586 0
M  V30 2618 H 268.017 -2.16522 3.33473 0
M  V30 2619 N 269.014 -1.53014 -0.377408 0
M  V30 2620 C 270.263 -1.67845 -1.11853 0
M  V30 2621 C 270.576 -0.430625 -1.90801 0
M  V30 2622 O 271.782 -0.459261 -2.67587 0
M  V30 2623 C 270.238 -2.96668 -2.03756 0
M  V30 2624 C 269.846 -4.28671 -1.30175 0
M  V30 2625 C 271.59 -3.20865 -2.77932 0
M  V30 2626 C 269.497 -5.48591 -2.20911 0
M  V30 2627 H 268.427 -0.625343 -0.421263 0
M  V30 2628 H 271.078 -1.79514 -0.380409 0
M  V30 2629 H 269.46 -2.78773 -2.8125 0
M  V30 2630 H 270.634 -4.57157 -0.578259 0
M  V30 2631 H 268.949 -4.10825 -0.679108 0
M  V30 2632 H 271.546 -4.07642 -3.46024 0
M  V30 2633 H 271.889 -2.36424 -3.4265 0
M  V30 2634 H 272.422 -3.39379 -2.07525 0
M  V30 2635 H 269.161 -6.35474 -1.6079 0
M  V30 2636 H 268.681 -5.244 -2.91144 0
M  V30 2637 H 270.36 -5.8292 -2.80736 0
M  V30 2638 N 270.492 0.636531 -1.44174 0
M  V30 2639 C 271.741 1.39213 -1.45954 0
M  V30 2640 C 272.054 1.95374 -0.0939119 0
M  V30 2641 O 273.26 2.71498 0.0107767 0
M  V30 2642 C 271.716 2.52025 -2.56927 0
M  V30 2643 C 271.324 2.024 -3.99673 0
M  V30 2644 C 273.068 3.29269 -2.67922 0
M  V30 2645 C 270.975 3.12521 -5.0208 0
M  V30 2646 H 269.905 0.523132 -0.542999 0
M  V30 2647 H 272.556 0.685349 -1.70221 0
M  V30 2648 H 270.938 3.25253 -2.25891 0
M  V30 2649 H 272.112 1.36073 -4.40251 0
M  V30 2650 H 270.427 1.37987 -3.92872 0
M  V30 2651 H 273.024 4.11352 -3.41605 0
M  V30 2652 H 273.367 3.78397 -1.73555 0
M  V30 2653 H 273.9 2.63129 -2.98342 0
M  V30 2654 H 270.639 2.68343 -5.98057 0
M  V30 2655 H 270.159 3.77507 -4.66099 0
M  V30 2656 H 271.838 3.77385 -5.25538 0
M  V30 2657 N 271.97 1.30982 0.876444 0
M  V30 2658 C 273.198 1.23242 1.6619 0
M  V30 2659 C 273.613 -0.203345 1.87702 0
M  V30 2660 O 272.97 -1.13317 1.43057 0
M  V30 2661 C 273.021 1.96623 3.03351 0
M  V30 2662 O 272.742 3.34594 2.82804 0
M  V30 2663 C 274.243 1.95644 3.97792 0
M  V30 2664 H 271.463 0.426126 0.518322 0
M  V30 2665 H 274.007 1.7275 1.09442 0
M  V30 2666 H 272.162 1.50892 3.56806 0
M  V30 2667 H 272.576 3.71873 3.69879 0
M  V30 2668 H 274.05 2.51511 4.91372 0
M  V30 2669 H 274.527 0.937395 4.2908 0
M  V30 2670 H 275.133 2.41225 3.50272 0
M  V30 2671 N 273.449 -1.08991 1.13837 0
M  V30 2672 C 274.86 -1.62746 0.914917 0
M  V30 2673 C 275.211 -1.88403 -0.547594 0
M  V30 2674 O 274.336 -1.63706 -1.41525 0
M  V30 2675 C 274.931 -2.95662 1.65437 0
M  V30 2676 C 273.49 -3.46225 1.47666 0
M  V30 2677 C 272.637 -2.20562 1.6807 0
M  V30 2678 H 275.588 -0.922946 1.29102 0
M  V30 2679 H 275.609 -3.63825 1.11407 0
M  V30 2680 H 275.121 -2.76956 2.71877 0
M  V30 2681 H 273.222 -3.70046 0.435478 0
M  V30 2682 H 273.335 -4.23368 2.24268 0
M  V30 2683 H 271.699 -2.29439 1.10589 0
M  V30 2684 H 272.482 -2.0437 2.7584 0
M  V30 2685 N 274.927 -0.932562 -1.27047 0
M  V30 2686 C 275.875 -0.42603 -2.28665 0
M  V30 2687 C 276.869 0.49219 -1.62092 0
M  V30 2688 O 278.075 0.371355 -1.76128 0
M  V30 2689 H 274.45 -0.119213 -0.742491 0
M  V30 2690 H 276.421 -1.29579 -2.68797 0
M  V30 2691 C 275.17 0.301426 -3.46391 0
M  V30 2692 H 274.493 -0.39595 -3.97834 0
M  V30 2693 H 275.933 0.6202 -4.1944 0
M  V30 2694 C 274.392 1.51616 -3.00856 0
M  V30 2695 O 274.922 2.61476 -3.04948 0
M  V30 2696 N 273.128 1.36969 -2.56296 0
M  V30 2697 H 272.675 0.475873 -2.53166 0
M  V30 2698 H 272.633 2.18368 -2.26192 0
M  V30 2699 N 276.405 1.4127 -0.698611 0
M  V30 2700 C 277.315 2.34573 -0.0357891 0
M  V30 2701 C 278.331 1.56393 0.762701 0
M  V30 2702 O 279.507 1.8886 0.699564 0
M  V30 2703 C 276.572 3.35159 0.887089 0
M  V30 2704 C 275.633 4.29225 0.0804634 0
M  V30 2705 C 274.866 5.25006 0.959387 0
M  V30 2706 O 275.089 5.26314 2.19886 0
M  V30 2707 O 274.023 6.00519 0.407439 0
M  V30 2708 H 277.849 2.92838 -0.804957 0
M  V30 2709 H 275.434 1.42175 -0.458966 0
M  V30 2710 H 277.316 3.9689 1.41621 0
M  V30 2711 H 275.991 2.79333 1.6357 0
M  V30 2712 H 274.898 3.70833 -0.493328 0
M  V30 2713 H 276.231 4.88157 -0.629547 0
M  V30 2714 N 277.883 0.443576 1.51229 0
M  V30 2715 C 279.111 -0.11929 2.06556 0
M  V30 2716 C 279.526 -1.35921 1.31038 0
M  V30 2717 O 278.883 -1.78675 0.371704 0
M  V30 2718 C 278.934 -0.435228 3.5887 0
M  V30 2719 O 278.655 0.755486 4.31537 0
M  V30 2720 C 280.156 -1.04808 4.30732 0
M  V30 2721 H 277.376 -0.0051584 0.67098 0
M  V30 2722 H 279.92 0.624453 1.94733 0
M  V30 2723 H 278.075 -1.12887 3.70588 0
M  V30 2724 H 278.489 0.483491 5.22267 0
M  V30 2725 H 279.963 -1.2191 5.3837 0
M  V30 2726 H 280.44 -2.03081 3.89429 0
M  V30 2727 H 281.046 -0.393637 4.23474 0
M  V30 2728 N 279.361 -1.56624 0.175154 0
M  V30 2729 C 280.271 -2.21741 -0.766042 0
M  V30 2730 C 281.287 -1.21023 -1.25018 0
M  V30 2731 O 282.463 -1.53697 -1.3015 0
M  V30 2732 C 279.528 -2.84839 -1.97655 0
M  V30 2733 C 278.589 -4.00769 -1.53892 0
M  V30 2734 C 277.822 -4.60849 -2.69173 0
M  V30 2735 O 278.045 -4.19823 -3.86141 0
M  V30 2736 O 276.979 -5.50655 -2.43028 0
M  V30 2737 H 280.805 -3.02738 -0.241585 0
M  V30 2738 H 278.39 -1.49305 -0.053222 0
M  V30 2739 H 280.272 -3.24834 -2.68442 0
M  V30 2740 H 278.947 -2.06836 -2.48999 0
M  V30 2741 H 277.854 -3.65436 -0.80044 0
M  V30 2742 H 279.187 -4.80376 -1.07236 0
M  V30 2743 N 280.839 0.0985539 -1.57292 0
M  V30 2744 C 281.802 1.10402 -2.00858 0
M  V30 2745 C 282.802 1.33146 -0.901593 0
M  V30 2746 O 283.992 1.29318 -1.16716 0
M  V30 2747 C 281.124 2.45394 -2.36632 0
M  V30 2748 H 282.317 0.729099 -2.90902 0
M  V30 2749 H 279.87 0.343495 -1.52479 0
M  V30 2750 H 280.605 2.87769 -1.49531 0
M  V30 2751 H 280.39 2.30235 -3.17387 0
M  V30 2752 H 281.88 3.17718 -2.71007 0
M  V30 2753 N 282.317 1.53212 0.369288 0
M  V30 2754 C 283.227 1.82342 1.47609 0
M  V30 2755 C 284.243 0.711532 1.58787 0
M  V30 2756 O 285.419 1.0012 1.74751 0
M  V30 2757 C 282.484 2.00393 2.8292 0
M  V30 2758 C 281.545 3.24297 2.81301 0
M  V30 2759 C 280.778 3.41478 4.10157 0
M  V30 2760 O 281.001 2.63033 5.06132 0
M  V30 2761 O 279.935 4.34817 4.16194 0
M  V30 2762 H 283.761 2.76366 1.25918 0
M  V30 2763 H 281.346 1.38547 0.559034 0
M  V30 2764 H 283.228 2.13859 3.63101 0
M  V30 2765 H 281.903 1.09559 3.04596 0
M  V30 2766 H 280.81 3.16257 1.99831 0
M  V30 2767 H 282.143 4.15041 2.64578 0
M  V30 2768 N 283.795 -0.628877 1.44509 0
M  V30 2769 C 284.742 -1.74074 1.51549 0
M  V30 2770 C 285.712 -1.62084 0.363021 0
M  V30 2771 O 286.897 -1.81975 0.573567 0
M  V30 2772 C 284.037 -3.12328 1.46784 0
M  V30 2773 C 283.15 -3.35277 2.72422 0
M  V30 2774 C 282.285 -4.63515 2.59475 0
M  V30 2775 C 281.324 -4.7965 3.80266 0
M  V30 2776 N 280.461 -5.99168 3.65981 0
M  V30 2777 H 285.301 -1.67392 2.46544 0
M  V30 2778 H 282.838 -0.816527 1.22357 0
M  V30 2779 H 284.796 -3.92286 1.42012 0
M  V30 2780 H 283.426 -3.18018 0.553544 0
M  V30 2781 H 282.478 -2.49242 2.87372 0
M  V30 2782 H 283.79 -3.43078 3.62076 0
M  V30 2783 H 282.944 -5.51638 2.52548 0
M  V30 2784 H 281.683 -4.58076 1.67384 0
M  V30 2785 H 280.688 -3.89957 3.87574 0
M  V30 2786 H 281.913 -4.86902 4.73395 0
M  V30 2787 H 279.859 -5.94814 2.76644 0
M  V30 2788 H 279.776 -6.08035 4.49254 0
M  V30 2789 H 281.044 -6.89846 3.6295 0
M  V30 2790 N 285.273 -1.31445 -0.869486 0
M  V30 2791 C 286.203 -1.21727 -1.99261 0
M  V30 2792 C 287.184 -0.104359 -1.6978 0
M  V30 2793 O 288.369 -0.289038 -1.92037 0
M  V30 2794 C 285.499 -0.924317 -3.34774 0
M  V30 2795 C 284.453 -1.99685 -3.78563 0
M  V30 2796 C 283.779 -1.55658 -5.11541 0
M  V30 2797 C 285.079 -3.41003 -3.95619 0
M  V30 2798 H 286.773 -2.1569 -2.07649 0
M  V30 2799 H 284.319 -1.03839 -0.997675 0
M  V30 2800 H 286.272 -0.842934 -4.12883 0
M  V30 2801 H 284.996 0.0509793 -3.2656 0
M  V30 2802 H 283.655 -2.06813 -3.02694 0
M  V30 2803 H 283.303 -0.569132 -4.9977 0
M  V30 2804 H 283.003 -2.27409 -5.41811 0
M  V30 2805 H 284.527 -1.48928 -5.92159 0
M  V30 2806 H 285.941 -3.36547 -4.64122 0
M  V30 2807 H 284.338 -4.10975 -4.37286 0
M  V30 2808 H 285.408 -3.81754 -2.98985 0
M  V30 2809 N 286.751 1.08385 -1.14413 0
M  V30 2810 C 287.979 1.84517 -0.936001 0
M  V30 2811 C 288.394 1.81626 0.515503 0
M  V30 2812 O 287.751 1.22008 1.35721 0
M  V30 2813 C 287.802 3.32049 -1.42918 0
M  V30 2814 O 287.523 3.34951 -2.82381 0
M  V30 2815 C 289.024 4.24986 -1.26103 0
M  V30 2816 H 286.244 0.582491 -0.333084 0
M  V30 2817 H 288.788 1.36885 -1.5193 0
M  V30 2818 H 286.943 3.7707 -0.888641 0
M  V30 2819 H 287.357 4.27048 -3.04517 0
M  V30 2820 H 288.831 5.26615 -1.6547 0
M  V30 2821 H 289.308 4.38726 -0.20392 0
M  V30 2822 H 289.914 3.85791 -1.79012 0
M  V30 2823 N 288.23 0.939286 1.26551 0
M  V30 2824 C 289.478 0.58469 1.93457 0
M  V30 2825 C 289.799 -0.878774 1.74076 0
M  V30 2826 O 289.069 -1.62421 1.09528 0
M  V30 2827 H 287.649 0.21325 0.715914 0
M  V30 2828 H 290.311 1.1942 1.54029 0
M  V30 2829 H 289.407 0.800849 3.0165 0
M  V30 2830 N 289.708 -1.40897 0.706093 0
M  V30 2831 C 290.957 -2.00284 0.238574 0
M  V30 2832 C 291.27 -1.56604 -1.17194 0
M  V30 2833 O 292.476 -2.08624 -1.73748 0
M  V30 2834 C 290.932 -3.57934 0.375623 0
M  V30 2835 C 290.54 -4.10591 1.79217 0
M  V30 2836 C 292.284 -4.24488 -0.0315857 0
M  V30 2837 C 290.191 -5.60712 1.88032 0
M  V30 2838 H 289.121 -0.749144 0.0854398 0
M  V30 2839 H 291.772 -1.61251 0.875813 0
M  V30 2840 H 290.154 -3.94622 -0.330042 0
M  V30 2841 H 291.328 -3.85301 2.52745 0
M  V30 2842 H 289.643 -3.56601 2.15 0
M  V30 2843 H 292.24 -5.34698 0.0136842 0
M  V30 2844 H 292.583 -4.02261 -1.072 0
M  V30 2845 H 293.116 -3.92873 0.624181 0
M  V30 2846 H 289.855 -5.87781 2.90161 0
M  V30 2847 H 289.375 -5.87896 1.18903 0
M  V30 2848 H 291.054 -6.25658 1.64805 0
M  V30 2849 N 291.186 -0.45159 -1.50991 0
M  V30 2850 C 292.602 -0.104647 -1.59257 0
M  V30 2851 C 292.802 1.38728 -1.4614 0
M  V30 2852 O 291.858 2.15866 -1.30989 0
M  V30 2853 C 293.171 -0.637468 -2.93865 0
M  V30 2854 C 294.719 -0.599166 -3.07212 0
M  V30 2855 C 295.194 -1.1092 -4.44366 0
M  V30 2856 N 296.685 -1.06778 -4.50725 0
M  V30 2857 C 297.42 -1.43314 -5.55201 0
M  V30 2858 N 296.916 -1.87204 -6.67028 0
M  V30 2859 N 298.709 -1.3504 -5.45638 0
M  V30 2860 H 290.86 -1.42214 -1.57762 0
M  V30 2861 H 293.123 -0.586921 -0.744465 0
M  V30 2862 H 292.829 -1.68187 -3.08879 0
M  V30 2863 H 292.703 -0.0702139 -3.77135 0
M  V30 2864 H 295.09 0.436277 -2.91857 0
M  V30 2865 H 295.171 -1.20299 -2.25747 0
M  V30 2866 H 294.815 -2.14318 -4.60467 0
M  V30 2867 H 294.745 -0.481773 -5.24392 0
M  V30 2868 H 297.236 -0.745643 -3.70471 0
M  V30 2869 H 297.549 -2.13282 -7.42786 0
M  V30 2870 H 295.894 -1.91142 -6.68199 0
M  V30 2871 H 299.085 -1.00607 -4.57161 0
M  V30 2872 H 299.258 -1.63841 -6.26945 0
M  V30 2873 N 292.664 1.56529 -0.183458 0
M  V30 2874 C 293.91 1.97537 0.459036 0
M  V30 2875 C 294.243 1.06989 1.62071 0
M  V30 2876 O 293.518 0.11948 1.94133 0
M  V30 2877 C 293.801 3.47874 0.930368 0
M  V30 2878 C 293.654 4.492 -0.232317 0
M  V30 2879 C 294.973 4.01612 1.79989 0
M  V30 2880 H 292.092 0.718204 0.165383 0
M  V30 2881 H 294.734 1.88042 -0.272038 0
M  V30 2882 H 292.884 3.56095 1.55333 0
M  V30 2883 H 294.556 4.53027 -0.86972 0
M  V30 2884 H 292.799 4.24657 -0.885928 0
M  V30 2885 H 293.47 5.51823 0.139796 0
M  V30 2886 H 295.946 3.96097 1.27461 0
M  V30 2887 H 294.822 5.07195 2.09867 0
M  V30 2888 H 295.083 3.46163 2.74998 0
M  V30 2889 N 294.142 -0.090211 1.57342 0
M  V30 2890 C 295.052 -1.12735 2.05738 0
M  V30 2891 C 296.068 -1.43557 0.983231 0
M  V30 2892 O 297.244 -1.54101 1.29672 0
M  V30 2893 C 294.309 -2.42659 2.47624 0
M  V30 2894 C 293.37 -2.18975 3.69254 0
M  V30 2895 C 292.603 -3.42704 4.09133 0
M  V30 2896 O 292.826 -4.51127 3.49057 0
M  V30 2897 O 291.76 -3.32003 5.02053 0
M  V30 2898 H 295.586 -0.746279 2.94388 0
M  V30 2899 H 293.171 -0.303064 1.46294 0
M  V30 2900 H 295.053 -3.19155 2.7517 0
M  V30 2901 H 293.728 -2.80182 1.62109 0
M  V30 2902 H 292.635 -1.40244 3.46818 0
M  V30 2903 H 293.968 -1.86342 4.55563 0
M  V30 2904 N 295.62 -1.53406 -0.361157 0
M  V30 2905 C 296.568 -1.80832 -1.46296 0
M  V30 2906 C 297.562 -0.677699 -1.55253 0
M  V30 2907 O 298.768 -0.860723 -1.58087 0
M  V30 2908 H 295.143 -0.572627 -0.487445 0
M  V30 2909 H 297.114 -2.73045 -1.20371 0
M  V30 2910 C 295.863 -2.01907 -2.8307 0
M  V30 2911 H 295.186 -2.88349 -2.76938 0
M  V30 2912 H 296.626 -2.25072 -3.59331 0
M  V30 2913 C 295.085 -0.799449 -3.27277 0
M  V30 2914 O 295.615 0.00971761 -4.01699 0
M  V30 2915 N 293.821 -0.621637 -2.83873 0
M  V30 2916 H 293.368 -1.28126 -2.23476 0
M  V30 2917 H 293.326 0.19298 -3.13807 0
M  V30 2918 N 297.098 0.621204 -1.44841 0
M  V30 2919 C 298.375 1.38 -1.38619 0
M  V30 2920 C 298.755 2.11041 -0.0498935 0
M  V30 2921 O 298.103 2.06992 0.967816 0
M  V30 2922 C 298.313 2.33817 -2.59096 0
M  V30 2923 C 299.661 2.96844 -3.03593 0
M  V30 2924 O 300.685 2.44141 -2.59371 0
M  V30 2925 O 299.544 3.92476 -3.80296 0
M  V30 2926 H 296.638 0.61811 -0.549426 0
M  V30 2927 H 299.184 0.645429 -1.56947 0
M  V30 2928 H 297.956 1.79012 -3.47952 0
M  V30 2929 H 297.579 3.14676 -2.43032 0
M  V30 2930 N 298.576 1.31904 0.862503 0
M  V30 2931 C 299.486 1.22161 2.00285 0
M  V30 2932 C 300.502 0.136785 1.73462 0
M  V30 2933 O 301.678 0.355994 1.98229 0
M  V30 2934 C 298.743 0.937093 3.33796 0
M  V30 2935 C 297.804 2.10957 3.73893 0
M  V30 2936 C 297.037 1.83853 5.01033 0
M  V30 2937 O 297.26 0.777274 5.65079 0
M  V30 2938 O 296.194 2.69741 5.38074 0
M  V30 2939 H 300.02 2.18008 2.11439 0
M  V30 2940 H 297.605 1.11716 0.991957 0
M  V30 2941 H 299.487 0.794583 4.13841 0
M  V30 2942 H 298.162 0.00871894 3.23699 0
M  V30 2943 H 297.069 2.30752 2.94456 0
M  V30 2944 H 298.402 3.02046 3.88625 0
M  V30 2945 N 300.054 -1.07777 1.14986 0
M  V30 2946 C 301.331 -1.7699 0.832695 0
M  V30 2947 C 301.711 -2.001 -0.672561 0
M  V30 2948 O 301.059 -1.61598 -1.6155 0
M  V30 2949 C 301.269 -3.08139 1.63863 0
M  V30 2950 C 302.617 -3.8256 1.84208 0
M  V30 2951 O 303.641 -3.17939 1.60603 0
M  V30 2952 O 302.5 -4.98612 2.23714 0
M  V30 2953 H 299.594 -0.768389 0.305791 0
M  V30 2954 H 302.14 -1.14182 1.25541 0
M  V30 2955 H 300.912 -2.86909 2.6608 0
M  V30 2956 H 300.535 -3.78678 1.21197 0
M  V30 2957 N 301.532 -0.945985 -1.26051 0
M  V30 2958 C 302.495 -0.463897 -2.24456 0
M  V30 2959 C 303.495 0.427655 -1.55009 0
M  V30 2960 O 304.685 0.226157 -1.72726 0
M  V30 2961 C 301.817 0.330812 -3.39291 0
M  V30 2962 H 303.01 -1.33357 -2.68619 0
M  V30 2963 H 300.563 -0.728416 -1.38289 0
M  V30 2964 H 301.298 1.21852 -3.00537 0
M  V30 2965 H 301.083 -0.308679 -3.90883 0
M  V30 2966 H 302.573 0.657865 -4.12386 0
M  V30 2967 N 303.011 1.40521 -0.713556 0
M  V30 2968 C 303.974 2.29098 -0.0684347 0
M  V30 2969 C 304.974 1.45268 0.689472 0
M  V30 2970 O 306.164 1.66205 0.521677 0
M  V30 2971 C 303.296 3.28446 0.913024 0
M  V30 2972 H 304.489 2.87645 -0.84855 0
M  V30 2973 H 302.042 1.48809 -0.47809 0
M  V30 2974 H 302.777 2.74913 1.72027 0
M  V30 2975 H 302.562 3.90327 0.372472 0
M  V30 2976 H 304.052 3.94777 1.36165 0
M  V30 2977 N 304.489 0.459591 1.5075 0
M  V30 2978 C 305.436 -0.340524 2.28274 0
M  V30 2979 C 306.406 -0.997371 1.32822 0
M  V30 2980 O 307.591 -1.01202 1.61749 0
M  V30 2981 C 304.731 -1.42317 3.14388 0
M  V30 2982 C 303.844 -0.782251 4.24859 0
M  V30 2983 C 302.979 -1.84182 4.98247 0
M  V30 2984 C 302.018 -1.18053 6.00608 0
M  V30 2985 N 301.155 -2.18244 6.67319 0
M  V30 2986 H 305.995 0.326899 2.96202 0
M  V30 2987 H 303.532 0.173057 1.46078 0
M  V30 2988 H 305.49 -2.06241 3.62658 0
M  V30 2989 H 304.12 -2.05992 2.4853 0
M  V30 2990 H 303.172 -0.0307404 3.80388 0
M  V30 2991 H 304.484 -0.259663 4.98124 0
M  V30 2992 H 303.638 -2.55714 5.50177 0
M  V30 2993 H 302.377 -2.39819 4.24662 0
M  V30 2994 H 301.382 -0.450776 5.47949 0
M  V30 2995 H 302.607 -0.631202 6.7616 0
M  V30 2996 H 300.553 -2.72919 5.96533 0
M  V30 2997 H 300.47 -1.70938 7.36421 0
M  V30 2998 H 301.738 -2.89191 7.23871 0
M  V30 2999 N 305.967 -1.56429 0.191757 0
M  V30 3000 C 306.93 -2.17707 -0.716688 0
M  V30 3001 C 307.93 -1.13061 -1.14341 0
M  V30 3002 O 309.12 -1.38464 -1.05704 0
M  V30 3003 C 306.252 -2.77644 -1.97804 0
M  V30 3004 H 307.445 -2.99342 -0.1829 0
M  V30 3005 H 304.998 -1.56193 -0.0578566 0
M  V30 3006 H 305.733 -1.99799 -2.55443 0
M  V30 3007 H 305.518 -3.54246 -1.68083 0
M  V30 3008 H 307.008 -3.24708 -2.62592 0
M  V30 3009 N 307.445 0.0818655 -1.57387 0
M  V30 3010 C 308.408 1.08265 -2.02018 0
M  V30 3011 C 309.408 1.32183 -0.915664 0
M  V30 3012 O 310.598 1.28073 -1.18081 0
M  V30 3013 C 307.73 2.42871 -2.39221 0
M  V30 3014 H 308.923 0.698204 -2.91659 0
M  V30 3015 H 306.476 0.327303 -1.52835 0
M  V30 3016 H 307.211 2.86167 -1.52575 0
M  V30 3017 H 306.996 2.26855 -3.19811 0
M  V30 3018 H 308.486 3.14826 -2.74362 0
M  V30 3019 N 308.923 1.53595 0.353017 0
M  V30 3020 C 309.855 1.77219 1.45348 0
M  V30 3021 C 310.868 0.65324 1.49119 0
M  V30 3022 O 312.057 0.929775 1.52373 0
M  V30 3023 C 309.157 1.84841 2.84055 0
M  V30 3024 C 308.33 3.14649 3.03833 0
M  V30 3025 C 307.389 3.13351 4.22727 0
M  V30 3026 O 306.415 3.87107 4.17297 0
M  V30 3027 N 307.617 2.35052 5.30783 0
M  V30 3028 H 310.382 2.72178 1.25457 0
M  V30 3029 H 307.943 1.52528 0.542833 0
M  V30 3030 H 309.935 1.81435 3.61751 0
M  V30 3031 H 308.505 0.971114 2.97133 0
M  V30 3032 H 307.725 3.31256 2.13689 0
M  V30 3033 H 309.013 4.00411 3.13925 0
M  V30 3034 H 308.411 1.74663 5.38061 0
M  V30 3035 H 306.968 2.37453 6.07009 0
M  V30 3036 N 310.401 -0.613514 1.45168 0
M  V30 3037 C 311.647 -1.37471 1.49096 0
M  V30 3038 C 311.98 -1.93765 0.129901 0
M  V30 3039 O 311.255 -1.74707 -0.854858 0
M  V30 3040 C 311.538 -2.52701 2.56542 0
M  V30 3041 C 311.391 -2.01643 4.0207 0
M  V30 3042 C 312.71 -3.54849 2.60327 0
M  V30 3043 H 309.829 -0.498502 0.54283 0
M  V30 3044 H 312.471 -0.692125 1.76945 0
M  V30 3045 H 310.621 -3.10931 2.32926 0
M  V30 3046 H 312.293 -1.48108 4.36877 0
M  V30 3047 H 310.536 -1.32688 4.13009 0
M  V30 3048 H 311.207 -2.84681 4.72928 0
M  V30 3049 H 313.683 -3.0645 2.81474 0
M  V30 3050 H 312.559 -4.32973 3.37381 0
M  V30 3051 H 312.82 -4.10079 1.6519 0
M  V30 3052 N 311.879 -1.3236 -0.855495 0
M  V30 3053 C 312.809 -1.23833 -1.97958 0
M  V30 3054 C 313.79 -0.122361 -1.69659 0
M  V30 3055 O 314.975 -0.30939 -1.9172 0
M  V30 3056 C 312.105 -0.959772 -3.33775 0
M  V30 3057 C 311.059 -2.03689 -3.76424 0
M  V30 3058 C 310.385 -1.61075 -5.09862 0
M  V30 3059 C 311.685 -3.4518 -3.9198 0
M  V30 3060 H 313.379 -2.1788 -2.0535 0
M  V30 3061 H 310.925 -1.04891 -0.986605 0
M  V30 3062 H 312.878 -0.886678 -4.11966 0
M  V30 3063 H 311.602 0.0163404 -3.26596 0
M  V30 3064 H 310.261 -2.10012 -3.00484 0
M  V30 3065 H 309.909 -0.622107 -4.99138 0
M  V30 3066 H 309.609 -2.33143 -5.39368 0
M  V30 3067 H 311.133 -1.55201 -5.90546 0
M  V30 3068 H 312.547 -3.4145 -4.60526 0
M  V30 3069 H 310.944 -4.1559 -4.32903 0
M  V30 3070 H 312.014 -3.84903 -2.94919 0
M  V30 3071 N 313.357 1.07166 -1.15556 0
M  V30 3072 C 314.307 2.12649 -0.82247 0
M  V30 3073 C 315.291 1.59725 0.194129 0
M  V30 3074 O 316.483 1.76999 -0.00540402 0
M  V30 3075 C 313.612 3.41847 -0.315572 0
M  V30 3076 C 312.698 4.0162 -1.36244 0
M  V30 3077 N 313.089 4.35625 -2.5703 0
M  V30 3078 C 311.387 4.29114 -1.21562 0
M  V30 3079 C 312.088 4.83017 -3.24144 0
M  V30 3080 N 311.064 4.81906 -2.51531 0
M  V30 3081 H 314.866 2.36776 -1.74111 0
M  V30 3082 H 312.38 1.24622 -1.0413 0
M  V30 3083 H 314.377 4.16859 -0.0585855 0
M  V30 3084 H 313.037 3.19163 0.597105 0
M  V30 3085 H 314.048 4.26253 -2.94158 0
M  V30 3086 H 310.725 4.15919 -0.362988 0
M  V30 3087 H 312.115 5.18605 -4.27198 0
M  V30 3088 N 314.835 0.952656 1.25548 0
M  V30 3089 C 315.745 0.47782 2.29682 0
M  V30 3090 C 316.761 -0.453859 1.67977 0
M  V30 3091 O 317.937 -0.330587 1.98668 0
M  V30 3092 C 315.002 -0.238655 3.45878 0
M  V30 3093 C 314.063 0.730994 4.23031 0
M  V30 3094 C 313.296 0.0486165 5.33678 0
M  V30 3095 O 313.519 -1.16612 5.58353 0
M  V30 3096 O 312.453 0.733152 5.97418 0
M  V30 3097 H 316.279 1.34312 2.72386 0
M  V30 3098 H 313.864 0.719026 1.30959 0
M  V30 3099 H 315.746 -0.641774 4.16484 0
M  V30 3100 H 314.421 -1.07916 3.05181 0
M  V30 3101 H 313.328 1.18428 3.5486 0
M  V30 3102 H 314.661 1.53946 4.67506 0
M  V30 3103 N 316.313 -1.40141 0.720998 0
M  V30 3104 C 317.26 -2.30688 0.071919 0
M  V30 3105 C 318.23 -1.48476 -0.744584 0
M  V30 3106 O 319.415 -1.77201 -0.707423 0
M  V30 3107 C 316.555 -3.34724 -0.839855 0
M  V30 3108 C 315.668 -4.31998 -0.0122438 0
M  V30 3109 C 314.803 -5.23102 -0.923995 0
M  V30 3110 C 313.842 -6.12033 -0.0907969 0
M  V30 3111 N 312.979 -6.95537 -0.957718 0
M  V30 3112 H 317.819 -2.85628 0.849755 0
M  V30 3113 H 315.356 -1.40653 0.430726 0
M  V30 3114 H 317.314 -3.93618 -1.38279 0
M  V30 3115 H 315.944 -2.81274 -1.58381 0
M  V30 3116 H 314.996 -3.74841 0.64794 0
M  V30 3117 H 316.308 -4.94772 0.632595 0
M  V30 3118 H 315.462 -5.86953 -1.53527 0
M  V30 3119 H 314.201 -4.60615 -1.60264 0
M  V30 3120 H 313.206 -5.47207 0.533377 0
M  V30 3121 H 314.431 -6.76581 0.584428 0
M  V30 3122 H 312.377 -6.35633 -1.62192 0
M  V30 3123 H 312.294 -7.55099 -0.36904 0
M  V30 3124 H 313.562 -7.63832 -1.555 0
M  V30 3125 N 317.792 -0.46758 -1.50504 0
M  V30 3126 C 319.04 0.0884469 -2.01906 0
M  V30 3127 C 319.361 1.40532 -1.35188 0
M  V30 3128 O 318.631 1.89515 -0.496079 0
M  V30 3129 H 317.211 0.0356765 -0.746148 0
M  V30 3130 H 319.873 -0.6172 -1.84869 0
M  V30 3131 H 318.969 0.2425 -3.11156 0
M  V30 3132 N 319.27 1.56325 -0.20005 0
M  V30 3133 C 320.519 1.96895 0.437652 0
M  V30 3134 C 320.832 1.08999 1.62415 0
M  V30 3135 O 322.038 1.39372 2.32997 0
M  V30 3136 C 320.494 3.50198 0.830025 0
M  V30 3137 C 320.102 4.46765 -0.332461 0
M  V30 3138 C 321.846 3.99526 1.43453 0
M  V30 3139 C 319.753 5.91344 0.0811468 0
M  V30 3140 H 318.683 0.735209 0.167282 0
M  V30 3141 H 321.334 1.81148 -0.292853 0
M  V30 3142 H 319.716 3.61467 1.61734 0
M  V30 3143 H 320.89 4.47231 -1.11 0
M  V30 3144 H 319.205 4.07657 -0.848789 0
M  V30 3145 H 321.802 5.05025 1.75652 0
M  V30 3146 H 322.145 3.44122 2.34277 0
M  V30 3147 H 322.678 3.91393 0.71109 0
M  V30 3148 H 319.417 6.50685 -0.793033 0
M  V30 3149 H 318.937 5.94121 0.823445 0
M  V30 3150 H 320.616 6.44945 0.515252 0
M  V30 3151 N 320.748 -0.0735177 1.57428 0
M  V30 3152 C 322.164 -0.428264 1.53747 0
M  V30 3153 C 322.364 -1.79272 0.91998 0
M  V30 3154 O 321.42 -2.47051 0.521745 0
M  V30 3155 C 322.733 -0.370914 2.98404 0
M  V30 3156 C 324.281 -0.451224 3.0973 0
M  V30 3157 C 324.756 -0.4238 4.56035 0
M  V30 3158 N 326.247 -0.483925 4.60665 0
M  V30 3159 C 326.982 -0.484891 5.71346 0
M  V30 3160 N 326.478 -0.440775 6.91396 0
M  V30 3161 N 328.271 -0.531319 5.59583 0
M  V30 3162 H 320.422 0.819949 1.95935 0
M  V30 3163 H 322.685 0.307493 0.896745 0
M  V30 3164 H 322.391 0.564956 3.47133 0
M  V30 3165 H 322.265 -1.18176 3.5821 0
M  V30 3166 H 324.652 -1.37752 2.60976 0
M  V30 3167 H 324.733 0.388167 2.52838 0
M  V30 3168 H 324.377 0.498638 5.05446 0
M  V30 3169 H 324.307 -1.2807 5.10789 0
M  V30 3170 H 326.798 -0.522338 3.74273 0
M  V30 3171 H 327.111 -0.44539 7.71515 0
M  V30 3172 H 325.456 -0.40749 6.93804 0
M  V30 3173 H 328.647 -0.563464 4.64696 0
M  V30 3174 H 328.82 -0.528603 6.4584 0
M  V30 3175 N 322.226 -1.5378 -0.344866 0
M  V30 3176 C 323.454 -1.74899 -1.10534 0
M  V30 3177 C 323.869 -0.487534 -1.82397 0
M  V30 3178 O 323.226 0.540741 -1.74305 0
M  V30 3179 C 323.277 -2.92822 -2.11984 0
M  V30 3180 O 322.998 -4.14089 -1.43044 0
M  V30 3181 C 324.499 -3.25982 -3.00417 0
M  V30 3182 H 321.719 -0.584426 -0.329678 0
M  V30 3183 H 324.263 -2.006 -0.397474 0
M  V30 3184 H 322.418 -2.69457 -2.78338 0
M  V30 3185 H 322.832 -4.80272 -2.10805 0
M  V30 3186 H 324.306 -4.11848 -3.67539 0
M  V30 3187 H 324.783 -2.42228 -3.66363 0
M  V30 3188 H 325.389 -3.51349 -2.39654 0
M  V30 3189 N 323.704 0.605807 -1.45491 0
M  V30 3190 C 324.95 1.36679 -1.49823 0
M  V30 3191 C 325.283 1.93693 -0.140175 0
M  V30 3192 O 324.558 1.75158 0.845581 0
M  V30 3193 C 324.841 2.51337 -2.57879 0
M  V30 3194 C 324.694 1.99508 -4.03134 0
M  V30 3195 C 326.013 3.53463 -2.62205 0
M  V30 3196 H 323.132 0.495617 -0.545466 0
M  V30 3197 H 325.774 0.682732 -1.7731 0
M  V30 3198 H 323.924 3.09691 -2.34571 0
M  V30 3199 H 325.596 1.45789 -4.37656 0
M  V30 3200 H 323.839 1.30496 -4.13707 0
M  V30 3201 H 324.51 2.82169 -4.74431 0
M  V30 3202 H 326.986 3.04953 -2.83095 0
M  V30 3203 H 325.862 4.31178 -3.39672 0
M  V30 3204 H 326.123 4.09197 -1.67363 0
M  V30 3205 N 325.182 1.32811 0.848464 0
M  V30 3206 C 326.112 1.24882 1.97299 0
M  V30 3207 C 327.093 0.131357 1.69592 0
M  V30 3208 O 328.278 0.319553 1.91553 0
M  V30 3209 C 325.408 0.97746 3.33261 0
M  V30 3210 C 324.362 2.05682 3.75338 0
M  V30 3211 C 323.688 1.63777 5.09 0
M  V30 3212 C 324.988 3.47254 3.90144 0
M  V30 3213 H 326.682 2.18966 2.04191 0
M  V30 3214 H 324.228 1.05413 0.981029 0
M  V30 3215 H 326.181 0.908513 4.1149 0
M  V30 3216 H 324.905 0.000980011 3.266 0
M  V30 3217 H 323.564 2.11603 2.99366 0
M  V30 3218 H 323.212 0.648569 4.98801 0
M  V30 3219 H 322.912 2.36 5.38124 0
M  V30 3220 H 324.436 1.5833 5.89715 0
M  V30 3221 H 325.85 3.43888 4.58709 0
M  V30 3222 H 324.247 4.1788 4.30693 0
M  V30 3223 H 325.317 3.86462 2.92874 0
M  V30 3224 N 326.66 -1.06551 1.16123 0
M  V30 3225 C 327.909 -1.78687 0.935622 0
M  V30 3226 C 328.222 -1.88056 -0.538001 0
M  V30 3227 O 329.428 -2.56794 -0.88143 0
M  V30 3228 C 327.884 -3.21143 1.62466 0
M  V30 3229 C 327.492 -3.19949 3.13587 0
M  V30 3230 C 329.236 -3.9783 1.48092 0
M  V30 3231 C 327.143 -4.57108 3.75241 0
M  V30 3232 H 326.073 -0.669712 0.346412 0
M  V30 3233 H 328.724 -1.19534 1.39226 0
M  V30 3234 H 327.106 -3.80539 1.09572 0
M  V30 3235 H 328.28 -2.70151 3.73303 0
M  V30 3236 H 326.595 -2.5676 3.27816 0
M  V30 3237 H 329.192 -4.99217 1.91538 0
M  V30 3238 H 329.535 -4.14078 0.429507 0
M  V30 3239 H 330.068 -3.4495 1.98127 0
M  V30 3240 H 326.807 -4.46065 4.80319 0
M  V30 3241 H 326.327 -5.07111 3.20309 0
M  V30 3242 H 328.006 -5.26069 3.76644 0
M  V30 3243 N 328.138 -0.959301 -1.25041 0
M  V30 3244 C 329.366 -0.633949 -1.96948 0
M  V30 3245 C 329.781 0.794916 -1.7125 0
M  V30 3246 O 329.138 1.53231 -0.991287 0
M  V30 3247 C 329.189 -0.888805 -3.50403 0
M  V30 3248 O 328.91 -2.26149 -3.75218 0
M  V30 3249 C 330.411 -0.576482 -4.39536 0
M  V30 3250 H 327.631 -0.237263 -0.627652 0
M  V30 3251 H 330.175 -1.28495 -1.59089 0
M  V30 3252 H 328.33 -0.284145 -3.86357 0
M  V30 3253 H 328.744 -2.33514 -4.6965 0
M  V30 3254 H 330.218 -0.805314 -5.46094 0
M  V30 3255 H 330.695 0.489075 -4.36468 0
M  V30 3256 H 331.301 -1.16067 -4.09156 0
M  V30 3257 N 329.616 1.39756 -0.72842 0
M  V30 3258 C 330.546 2.33289 -0.0991354 0
M  V30 3259 C 331.527 1.53568 0.731489 0
M  V30 3260 O 332.712 1.81987 0.677807 0
M  V30 3261 C 329.842 3.3763 0.813834 0
M  V30 3262 C 328.796 4.2791 0.0878663 0
M  V30 3263 C 328.122 5.22894 1.11741 0
M  V30 3264 C 329.422 5.11314 -1.06563 0
M  V30 3265 H 331.116 2.86163 -0.880408 0
M  V30 3266 H 328.662 1.37591 -0.424819 0
M  V30 3267 H 330.615 4.0201 1.26355 0
M  V30 3268 H 329.339 2.83181 1.62715 0
M  V30 3269 H 327.998 3.65 -0.342159 0
M  V30 3270 H 327.646 4.64744 1.92412 0
M  V30 3271 H 327.346 5.84143 0.636477 0
M  V30 3272 H 328.87 5.90151 1.56697 0
M  V30 3273 H 330.284 5.69076 -0.694671 0
M  V30 3274 H 328.681 5.81671 -1.47577 0
M  V30 3275 H 329.751 4.46534 -1.89038 0
M  V30 3276 N 331.094 0.475555 1.50254 0
M  V30 3277 C 332.342 -0.077738 2.0195 0
M  V30 3278 C 332.663 -1.39813 1.35931 0
M  V30 3279 O 331.933 -1.89249 0.506123 0
M  V30 3280 H 330.513 -0.031719 0.746326 0
M  V30 3281 H 333.175 0.626995 1.84539 0
M  V30 3282 H 332.271 -0.225995 3.11281 0
M  V30 3283 N 332.573 -1.56217 0.208337 0
M  V30 3284 C 333.798 -2.02782 -0.435222 0
M  V30 3285 C 334.223 -1.08738 -1.53485 0
M  V30 3286 O 333.581 -0.0731855 -1.81152 0
M  V30 3287 C 333.629 -3.47687 -0.956335 0
M  V30 3288 O 332.733 -3.56773 -2.06849 0
M  V30 3289 H 332.074 -0.656403 -0.100158 0
M  V30 3290 H 334.604 -2.02033 0.3231 0
M  V30 3291 H 334.614 -3.87745 -1.26955 0
M  V30 3292 H 333.289 -4.15624 -0.15143 0
M  V30 3293 H 331.866 -3.28597 -1.76292 0
M  V30 3294 N 334.051 0.0651679 -1.57465 0
M  V30 3295 C 335.467 0.420105 -1.53972 0
M  V30 3296 C 335.667 1.78782 -0.929474 0
M  V30 3297 O 334.723 2.46771 -0.534839 0
M  V30 3298 C 336.036 0.355084 -2.98596 0
M  V30 3299 C 337.584 0.434792 -3.09965 0
M  V30 3300 C 338.059 0.399609 -4.56253 0
M  V30 3301 N 339.55 0.459488 -4.60915 0
M  V30 3302 C 340.285 0.454584 -5.71595 0
M  V30 3303 N 339.781 0.404102 -6.9162 0
M  V30 3304 N 341.574 0.501635 -5.59857 0
M  V30 3305 H 333.725 -0.830328 -1.95498 0
M  V30 3306 H 335.988 -0.312244 -0.895102 0
M  V30 3307 H 335.694 -0.583357 -3.46828 0
M  V30 3308 H 335.568 1.16275 -3.58831 0
M  V30 3309 H 337.955 1.36366 -2.61703 0
M  V30 3310 H 338.036 -0.40157 -2.52628 0
M  V30 3311 H 337.68 -0.525436 -5.05175 0
M  V30 3312 H 337.61 1.25359 -5.11461 0
M  V30 3313 H 340.101 0.502482 -3.74544 0
M  V30 3314 H 340.414 0.404468 -7.71741 0
M  V30 3315 H 338.759 0.37069 -6.94011 0
M  V30 3316 H 341.95 0.538812 -4.64989 0
M  V30 3317 H 342.123 0.494345 -6.46112 0
M  V30 3318 N 335.529 1.53961 0.336706 0
M  V30 3319 C 336.777 1.71197 1.07405 0
M  V30 3320 C 337.098 0.481475 1.88962 0
M  V30 3321 O 336.368 -0.504585 1.8929 0
M  V30 3322 H 334.948 0.631185 0.399517 0
M  V30 3323 H 337.61 1.91232 0.376323 0
M  V30 3324 H 336.706 2.58587 1.74755 0
M  V30 3325 N 337.007 -0.598083 1.45811 0
M  V30 3326 C 338.253 -1.35882 1.50545 0
M  V30 3327 C 338.586 -1.93616 0.150445 0
M  V30 3328 O 337.861 -1.75604 -0.83628 0
M  V30 3329 C 338.144 -2.49966 2.59208 0
M  V30 3330 C 337.997 -1.97367 4.04186 0
M  V30 3331 C 339.316 -3.52068 2.64076 0
M  V30 3332 H 336.435 -0.492717 0.548087 0
M  V30 3333 H 339.077 -0.673319 1.77669 0
M  V30 3334 H 337.227 -3.08443 2.3621 0
M  V30 3335 H 338.899 -1.43466 4.38423 0
M  V30 3336 H 337.142 -1.283 4.14393 0
M  V30 3337 H 337.813 -2.79649 4.75921 0
M  V30 3338 H 340.289 -3.03448 2.84708 0
M  V30 3339 H 339.165 -4.2937 3.41954 0
M  V30 3340 H 339.426 -4.08304 1.69531 0
M  V30 3341 N 338.485 -1.33259 -0.841409 0
M  V30 3342 C 339.731 -1.25766 -1.59857 0
M  V30 3343 C 340.086 0.175602 -1.91597 0
M  V30 3344 O 339.379 1.117 -1.55672 0
M  V30 3345 C 339.573 -2.06381 -2.9179 0
M  V30 3346 C 339.402 -3.57401 -2.72937 0
M  V30 3347 C 338.172 -4.26718 -2.70628 0
M  V30 3348 C 340.37 -4.51786 -2.45753 0
M  V30 3349 N 338.352 -5.63705 -2.43125 0
M  V30 3350 C 339.723 -5.76643 -2.27777 0
M  V30 3351 C 341.778 -4.40898 -2.31329 0
M  V30 3352 C 340.481 -6.91842 -1.96841 0
M  V30 3353 C 342.507 -5.55911 -2.01786 0
M  V30 3354 C 341.869 -6.79776 -1.8462 0
M  V30 3355 H 337.968 -0.515406 -0.588117 0
M  V30 3356 H 340.552 -1.67772 -0.987955 0
M  V30 3357 H 338.723 -1.667 -3.50807 0
M  V30 3358 H 340.455 -1.90678 -3.56965 0
M  V30 3359 H 337.21 -3.78968 -2.84043 0
M  V30 3360 H 337.634 -6.35911 -2.32265 0
M  V30 3361 H 342.276 -3.45772 -2.43314 0
M  V30 3362 H 339.994 -7.86968 -1.83594 0
M  V30 3363 H 343.58 -5.49421 -1.91384 0
M  V30 3364 H 342.46 -7.67266 -1.62088 0
M  V30 3365 N 339.963 1.05934 -1.16686 0
M  V30 3366 C 340.926 2.11669 -0.879144 0
M  V30 3367 C 341.926 1.60294 0.127445 0
M  V30 3368 O 343.116 1.7389 -0.103865 0
M  V30 3369 C 340.248 3.39438 -0.315425 0
M  V30 3370 H 341.441 2.38626 -1.81653 0
M  V30 3371 H 338.994 1.22058 -0.976299 0
M  V30 3372 H 339.729 3.18132 0.629468 0
M  V30 3373 H 339.514 3.78034 -1.04079 0
M  V30 3374 H 341.004 4.17391 -0.132189 0
M  V30 3375 N 341.441 0.965919 1.2453 0
M  V30 3376 C 342.666 0.643971 1.97149 0
M  V30 3377 C 343.091 -0.779487 1.71189 0
M  V30 3378 O 342.449 -1.5288 0.974553 0
M  V30 3379 C 342.497 0.922557 3.48599 0
M  V30 3380 O 341.601 0.00707672 4.12399 0
M  V30 3381 H 340.942 0.243647 0.617683 0
M  V30 3382 H 343.472 1.29558 1.58353 0
M  V30 3383 H 343.482 0.853373 3.98976 0
M  V30 3384 H 342.157 1.95996 3.66822 0
M  V30 3385 H 340.734 0.12943 3.72675 0
M  V30 3386 N 342.919 -1.39368 0.735821 0
M  V30 3387 C 344.165 -2.00794 0.284544 0
M  V30 3388 C 344.498 -1.58255 -1.12557 0
M  V30 3389 O 343.773 -0.811819 -1.76748 0
M  V30 3390 C 344.056 -3.58011 0.387337 0
M  V30 3391 C 343.909 -4.10566 1.83728 0
M  V30 3392 C 345.228 -4.395 -0.22975 0
M  V30 3393 H 342.347 -0.729501 0.104866 0
M  V30 3394 H 344.989 -1.65564 0.93213 0
M  V30 3395 H 343.139 -3.88154 -0.164006 0
M  V30 3396 H 344.811 -3.91139 2.44556 0
M  V30 3397 H 343.054 -3.64095 2.35833 0
M  V30 3398 H 343.725 -5.19702 1.86047 0
M  V30 3399 H 346.201 -4.15406 0.240257 0
M  V30 3400 H 345.077 -5.48752 -0.127485 0
M  V30 3401 H 345.338 -4.22062 -1.3159 0
M  V30 3402 N 344.397 -0.483516 -1.5 0
M  V30 3403 C 345.345 0.318061 -2.30415 0
M  V30 3404 C 346.339 0.978988 -1.38247 0
M  V30 3405 O 347.545 0.908673 -1.55381 0
M  V30 3406 H 343.92 0.121419 -0.742133 0
M  V30 3407 H 345.891 -0.380403 -2.95965 0
M  V30 3408 C 344.64 1.38013 -3.19136 0
M  V30 3409 H 343.963 0.880952 -3.89973 0
M  V30 3410 H 345.403 1.91332 -3.78375 0
M  V30 3411 C 343.862 2.38884 -2.37563 0
M  V30 3412 O 344.392 3.44412 -2.06744 0
M  V30 3413 N 342.598 2.10912 -1.99911 0
M  V30 3414 H 342.145 1.25118 -2.25174 0
M  V30 3415 H 342.103 2.78635 -1.45636 0
M  V30 3416 N 345.875 1.56104 -0.216619 0
M  V30 3417 C 347.123 1.97781 0.415593 0
M  V30 3418 C 347.444 1.10536 1.60645 0
M  V30 3419 O 346.714 0.181303 1.95059 0
M  V30 3420 H 345.294 0.730415 0.156534 0
M  V30 3421 H 347.956 1.92445 -0.308366 0
M  V30 3422 H 347.052 3.03072 0.74525 0
M  V30 3423 N 347.353 -0.0568162 1.57498 0
M  V30 3424 C 348.263 -1.08346 2.08083 0
M  V30 3425 C 349.279 -1.41439 1.01346 0
M  V30 3426 O 350.455 -1.51316 1.32912 0
M  V30 3427 C 347.52 -2.37352 2.52715 0
M  V30 3428 C 346.581 -2.11093 3.73816 0
M  V30 3429 C 345.814 -3.33949 4.1631 0
M  V30 3430 O 346.037 -4.43622 3.58547 0
M  V30 3431 O 344.971 -3.21279 5.08983 0
M  V30 3432 H 348.797 -0.683667 2.95905 0
M  V30 3433 H 346.382 -0.271965 1.46904 0
M  V30 3434 H 348.264 -3.13246 2.81877 0
M  V30 3435 H 346.939 -2.76681 1.68016 0
M  V30 3436 H 345.846 -1.32856 3.49714 0
M  V30 3437 H 347.179 -1.76637 4.59413 0
M  V30 3438 N 348.832 -1.54138 -0.328536 0
M  V30 3439 C 350.08 -1.71765 -1.06496 0
M  V30 3440 C 350.401 -0.49149 -1.88704 0
M  V30 3441 O 349.671 0.494539 -1.89555 0
M  V30 3442 H 348.251 -0.633295 -0.396164 0
M  V30 3443 H 350.913 -1.91429 -0.366176 0
M  V30 3444 H 350.009 -2.5951 -1.73381 0
M  V30 3445 N 350.31 0.590341 -1.46126 0
M  V30 3446 C 351.242 1.71427 -1.52136 0
M  V30 3447 C 352.255 1.57542 -0.41042 0
M  V30 3448 O 353.444 1.65106 -0.678389 0
M  V30 3449 C 350.544 3.09605 -1.37834 0
M  V30 3450 C 349.717 3.49566 -2.62912 0
M  V30 3451 C 348.776 4.66773 -2.42918 0
M  V30 3452 O 347.802 4.73019 -3.1661 0
M  V30 3453 N 349.004 5.61161 -1.4859 0
M  V30 3454 H 351.769 1.66728 -2.49042 0
M  V30 3455 H 349.33 0.776113 -1.42085 0
M  V30 3456 H 351.322 3.85796 -1.22243 0
M  V30 3457 H 349.892 3.08714 -0.491393 0
M  V30 3458 H 349.112 2.63158 -2.93499 0
M  V30 3459 H 350.4 3.73028 -3.46017 0
M  V30 3460 H 349.798 5.58844 -0.87808 0
M  V30 3461 H 348.355 6.36814 -1.38965 0
M  V30 3462 N 351.788 1.33704 0.83433 0
M  V30 3463 C 353.204 1.13137 1.12571 0
M  V30 3464 C 353.404 -0.0747261 2.01361 0
M  V30 3465 O 352.46 -0.753647 2.4099 0
M  V30 3466 C 353.773 2.42105 1.78342 0
M  V30 3467 C 355.321 2.48054 1.90888 0
M  V30 3468 C 355.796 3.76995 2.60075 0
M  V30 3469 N 357.287 3.78092 2.67584 0
M  V30 3470 C 358.022 4.74574 3.21818 0
M  V30 3471 N 357.518 5.81434 3.76705 0
M  V30 3472 N 359.311 4.62044 3.20112 0
M  V30 3473 H 351.462 2.11 0.243489 0
M  V30 3474 H 353.725 0.932532 0.17055 0
M  V30 3475 H 353.431 3.30391 1.20561 0
M  V30 3476 H 353.305 2.54594 2.7832 0
M  V30 3477 H 355.692 1.60215 2.47821 0
M  V30 3478 H 355.773 2.39502 0.898459 0
M  V30 3479 H 355.417 4.65219 2.03799 0
M  V30 3480 H 355.347 3.82825 3.61597 0
M  V30 3481 H 357.838 3.00865 2.28667 0
M  V30 3482 H 358.151 6.51084 4.16305 0
M  V30 3483 H 356.496 5.85163 3.7498 0
M  V30 3484 H 359.687 3.77716 2.76493 0
M  V30 3485 H 359.86 5.37406 3.62076 0
M  V30 3486 N 353.266 -1.05314 1.17247 0
M  V30 3487 C 354.512 -1.78557 0.961513 0
M  V30 3488 C 354.845 -1.87419 -0.508697 0
M  V30 3489 O 354.12 -1.37307 -1.37757 0
M  V30 3490 C 354.403 -3.22514 1.60176 0
M  V30 3491 C 354.256 -3.21673 3.14399 0
M  V30 3492 C 355.575 -4.20318 1.30463 0
M  V30 3493 H 352.694 -0.6482 0.350723 0
M  V30 3494 H 355.336 -1.23102 1.44727 0
M  V30 3495 H 353.486 -3.69867 1.18871 0
M  V30 3496 H 355.158 -2.82405 3.64753 0
M  V30 3497 H 353.401 -2.60048 3.47214 0
M  V30 3498 H 354.072 -4.23271 3.54324 0
M  V30 3499 H 356.548 -3.81454 1.66229 0
M  V30 3500 H 355.424 -5.19289 1.77848 0
M  V30 3501 H 355.685 -4.41526 0.22521 0
M  V30 3502 N 354.744 -0.972509 -1.24016 0
M  V30 3503 C 356.155 -0.67517 -1.74064 0
M  V30 3504 C 356.506 0.808939 -1.78747 0
M  V30 3505 O 355.631 1.63286 -1.42009 0
M  V30 3506 C 356.226 -1.21889 -3.16115 0
M  V30 3507 C 354.785 -0.971358 -3.6365 0
M  V30 3508 C 353.932 -1.35134 -2.42145 0
M  V30 3509 H 356.883 -1.14727 -1.09651 0
M  V30 3510 H 356.904 -0.587489 -3.75937 0
M  V30 3511 H 356.416 -2.29906 -3.12674 0
M  V30 3512 H 354.517 0.0930686 -3.72484 0
M  V30 3513 H 354.63 -1.62039 -4.50866 0
M  V30 3514 H 352.994 -0.769751 -2.4279 0
M  V30 3515 H 353.777 -2.4411 -2.41381 0
M  V30 3516 N 356.222 1.38976 -0.743202 0
M  V30 3517 C 357.47 1.99948 -0.29417 0
M  V30 3518 C 357.791 1.59279 1.12495 0
M  V30 3519 O 357.061 0.844808 1.76748 0
M  V30 3520 H 355.641 0.739473 -0.105774 0
M  V30 3521 H 358.303 1.699 -0.954986 0
M  V30 3522 H 357.399 3.10142 -0.349056 0
M  V30 3523 N 357.7 0.491464 1.49741 0
M  V30 3524 C 358.947 -0.0564256 2.02421 0
M  V30 3525 C 359.275 -1.37872 1.37192 0
M  V30 3526 O 358.53 -1.89375 0.493508 0
M  V30 3527 C 358.829 -0.267329 3.56399 0
M  V30 3528 C 358.495 0.975775 4.40215 0
M  V30 3529 C 357.157 1.31655 4.62839 0
M  V30 3530 C 359.509 1.80251 4.89039 0
M  V30 3531 C 356.837 2.48375 5.31532 0
M  V30 3532 C 359.189 2.96116 5.59015 0
M  V30 3533 C 357.853 3.30585 5.79888 0
M  V30 3534 H 357.123 -0.0206476 0.740712 0
M  V30 3535 H 359.77 0.649686 1.80143 0
M  V30 3536 H 358.075 -1.05588 3.77304 0
M  V30 3537 H 359.772 -0.705549 3.94744 0
M  V30 3538 H 356.362 0.700315 4.2284 0
M  V30 3539 H 360.546 1.55239 4.71396 0
M  V30 3540 H 355.802 2.7533 5.45897 0
M  V30 3541 H 359.976 3.60509 5.95824 0
M  V30 3542 H 357.603 4.21132 6.32892 0
M  V30 3543 N 359.178 -1.55987 0.224894 0
M  V30 3544 C 360.594 -1.59066 -0.130426 0
M  V30 3545 C 360.794 -1.24176 -1.5869 0
M  V30 3546 O 359.85 -0.978592 -2.32766 0
M  V30 3547 C 361.163 -3.00042 0.198883 0
M  V30 3548 C 362.711 -3.1268 0.141391 0
M  V30 3549 C 363.186 -4.55839 0.444422 0
M  V30 3550 N 364.677 -4.6152 0.394115 0
M  V30 3551 C 365.412 -5.70231 0.602038 0
M  V30 3552 N 364.908 -6.87291 0.871914 0
M  V30 3553 N 366.701 -5.59555 0.534245 0
M  V30 3554 H 358.852 -1.76941 1.17497 0
M  V30 3555 H 361.115 -0.822604 0.471197 0
M  V30 3556 H 360.821 -3.30234 1.2099 0
M  V30 3557 H 360.695 -3.74075 -0.484535 0
M  V30 3558 H 363.082 -2.82283 -0.860265 0
M  V30 3559 H 363.163 -2.40969 0.858335 0
M  V30 3560 H 362.807 -4.86954 1.44353 0
M  V30 3561 H 362.737 -5.2578 -0.293752 0
M  V30 3562 H 365.228 -3.77405 0.193356 0
M  V30 3563 H 365.541 -7.66058 1.01858 0
M  V30 3564 H 363.886 -6.89028 0.909145 0
M  V30 3565 H 367.077 -4.6698 0.323612 0
M  V30 3566 H 367.25 -6.44211 0.699693 0
M  V30 3567 N 360.656 0.0484629 -1.57525 0
M  V30 3568 C 361.902 0.744226 -1.88651 0
M  V30 3569 C 362.235 1.76029 -0.820212 0
M  V30 3570 O 361.51 1.93782 0.166985 0
M  V30 3571 C 361.793 1.43128 -3.30434 0
M  V30 3572 C 361.646 0.43005 -4.47739 0
M  V30 3573 C 362.965 2.37031 -3.70816 0
M  V30 3574 H 360.084 0.269089 -0.68612 0
M  V30 3575 H 362.726 0.00713532 -1.89999 0
M  V30 3576 H 360.876 2.05956 -3.29415 0
M  V30 3577 H 362.548 -0.194816 -4.60888 0
M  V30 3578 H 360.791 -0.252522 -4.33064 0
M  V30 3579 H 361.462 0.948874 -5.43783 0
M  V30 3580 H 363.938 1.84263 -3.73077 0
M  V30 3581 H 362.814 2.82094 -4.70865 0
M  V30 3582 H 363.075 3.22864 -3.02012 0
M  V30 3583 N 362.134 1.5431 0.320358 0
M  V30 3584 C 363.066 1.80262 1.41556 0
M  V30 3585 C 364.079 0.684723 1.477 0
M  V30 3586 O 365.268 0.961886 1.50366 0
M  V30 3587 C 362.368 1.90825 2.8007 0
M  V30 3588 C 361.541 3.21023 2.97091 0
M  V30 3589 C 360.6 3.22247 4.15985 0
M  V30 3590 O 359.626 3.95871 4.08992 0
M  V30 3591 N 360.828 2.46258 5.25678 0
M  V30 3592 H 363.593 2.74778 1.19655 0
M  V30 3593 H 361.154 1.53646 0.510358 0
M  V30 3594 H 363.146 1.89067 3.57821 0
M  V30 3595 H 361.716 1.03392 2.95006 0
M  V30 3596 H 360.936 3.35715 2.06614 0
M  V30 3597 H 362.224 4.0698 3.05361 0
M  V30 3598 H 361.622 1.86037 5.34235 0
M  V30 3599 H 360.179 2.50275 6.01835 0
M  V30 3600 N 363.613 -0.582584 1.46437 0
M  V30 3601 C 364.576 -1.67366 1.56592 0
M  V30 3602 C 365.576 -1.54575 0.443072 0
M  V30 3603 O 366.766 -1.59191 0.707381 0
M  V30 3604 C 363.898 -3.06791 1.48634 0
M  V30 3605 H 365.091 -1.5972 2.5383 0
M  V30 3606 H 362.644 -0.800432 1.34249 0
M  V30 3607 H 363.379 -3.19993 0.526763 0
M  V30 3608 H 363.164 -3.17484 2.30101 0
M  V30 3609 H 364.654 -3.86218 1.58826 0
M  V30 3610 N 365.091 -1.34144 -0.827227 0
M  V30 3611 C 366.337 -1.26446 -1.58554 0
M  V30 3612 C 366.67 0.1664 -1.93486 0
M  V30 3613 O 365.945 1.1107 -1.59667 0
M  V30 3614 C 366.228 -2.15111 -2.8879 0
M  V30 3615 C 366.081 -3.66712 -2.60465 0
M  V30 3616 C 367.4 -2.03311 -3.90324 0
M  V30 3617 H 364.519 -0.46067 -0.575284 0
M  V30 3618 H 367.161 -1.64356 -0.953269 0
M  V30 3619 H 365.311 -1.8291 -3.42748 0
M  V30 3620 H 366.983 -4.09259 -2.1285 0
M  V30 3621 H 365.226 -3.88014 -1.93978 0
M  V30 3622 H 365.897 -4.24112 -3.53317 0
M  V30 3623 H 368.373 -2.31574 -3.45706 0
M  V30 3624 H 367.249 -2.67582 -4.79261 0
M  V30 3625 H 367.51 -1.00879 -4.30437 0
M  V30 3626 N 366.569 1.04691 -1.17803 0
M  V30 3627 C 367.846 1.7472 -0.879328 0
M  V30 3628 C 368.226 2.01812 0.619271 0
M  V30 3629 O 367.574 1.65824 1.57209 0
M  V30 3630 C 367.784 3.03686 -1.71976 0
M  V30 3631 C 369.132 3.77542 -1.94286 0
M  V30 3632 O 370.156 3.13569 -1.68976 0
M  V30 3633 O 369.015 4.92506 -2.36855 0
M  V30 3634 H 366.109 0.760011 -0.326056 0
M  V30 3635 H 368.655 1.10813 -1.28525 0
M  V30 3636 H 367.427 2.79754 -2.73594 0
M  V30 3637 H 367.05 3.75332 -1.31194 0
M  V30 3638 N 368.047 0.979072 1.23499 0
M  V30 3639 C 369.275 0.665202 1.95915 0
M  V30 3640 C 369.69 -0.767571 1.72493 0
M  V30 3641 O 369.047 -1.51635 1.01554 0
M  V30 3642 C 369.098 0.944438 3.48945 0
M  V30 3643 O 368.819 2.3209 3.71572 0
M  V30 3644 C 370.32 0.646336 4.38563 0
M  V30 3645 H 367.54 0.247218 0.623798 0
M  V30 3646 H 370.084 1.31009 1.57025 0
M  V30 3647 H 368.239 0.345575 3.85856 0
M  V30 3648 H 368.653 2.40957 4.65876 0
M  V30 3649 H 370.127 0.892091 5.44744 0
M  V30 3650 H 370.604 -0.419575 4.37191 0
M  V30 3651 H 371.21 1.22562 4.07258 0
M  V30 3652 N 369.525 -1.3858 0.750561 0
M  V30 3653 C 370.774 -1.99424 0.302172 0
M  V30 3654 C 371.087 -1.60254 -1.12152 0
M  V30 3655 O 372.293 -2.14046 -1.67023 0
M  V30 3656 C 370.749 -3.56558 0.489307 0
M  V30 3657 C 370.357 -4.04682 1.92189 0
M  V30 3658 C 372.101 -4.24374 0.103478 0
M  V30 3659 C 370.008 -5.54446 2.05775 0
M  V30 3660 H 368.938 -0.746046 0.10923 0
M  V30 3661 H 371.589 -1.58383 0.92667 0
M  V30 3662 H 369.971 -3.95472 -0.204329 0
M  V30 3663 H 371.145 -3.77065 2.64875 0
M  V30 3664 H 369.46 -3.4958 2.26236 0
M  V30 3665 H 372.057 -5.34384 0.183787 0
M  V30 3666 H 372.4 -4.05468 -0.943481 0
M  V30 3667 H 372.933 -3.90688 0.748854 0
M  V30 3668 H 369.672 -5.78252 3.08714 0
M  V30 3669 H 369.192 -5.83816 1.37546 0
M  V30 3670 H 370.871 -6.20099 1.84626 0
M  V30 3671 N 371.003 -0.499398 -1.49478 0
M  V30 3672 C 371.966 0.268838 -2.27618 0
M  V30 3673 C 372.966 0.895383 -1.33565 0
M  V30 3674 O 374.156 0.760164 -1.56739 0
M  V30 3675 C 371.288 1.38559 -3.11471 0
M  V30 3676 H 372.481 -0.416812 -2.96989 0
M  V30 3677 H 370.034 -0.254313 -1.54217 0
M  V30 3678 H 370.769 2.10544 -2.46661 0
M  V30 3679 H 370.554 0.941797 -3.80621 0
M  V30 3680 H 372.044 1.92678 -3.70493 0
M  V30 3681 N 372.481 1.55866 -0.233164 0
M  V30 3682 C 373.444 2.1953 0.658715 0
M  V30 3683 C 374.444 1.16053 1.11303 0
M  V30 3684 O 375.634 1.41218 1.01996 0
M  V30 3685 C 372.766 2.82791 1.90373 0
M  V30 3686 H 373.959 2.99721 0.10347 0
M  V30 3687 H 371.512 1.56291 0.0164245 0
M  V30 3688 H 372.247 2.06501 2.50056 0
M  V30 3689 H 372.032 3.58578 1.58632 0
M  V30 3690 H 373.522 3.31556 2.53891 0
M  V30 3691 N 373.959 -0.0401083 1.57549 0
M  V30 3692 C 375.207 -0.731677 1.8839 0
M  V30 3693 C 375.528 -1.76481 0.829425 0
M  V30 3694 O 374.798 -1.95411 -0.1383 0
M  V30 3695 H 373.378 -0.273225 0.695239 0
M  V30 3696 H 376.04 -0.00867725 1.94898 0
M  V30 3697 H 375.136 -1.22816 2.86919 0
M  V30 3698 N 375.437 -1.54477 -0.31217 0
M  V30 3699 C 376.714 -1.63891 -1.06767 0
M  V30 3700 C 377.094 -0.480028 -2.0557 0
M  V30 3701 O 376.442 0.524487 -2.22399 0
M  V30 3702 C 376.652 -3.01402 -1.75948 0
M  V30 3703 C 378 -3.57838 -2.28554 0
M  V30 3704 O 379.024 -3.03782 -1.85998 0
M  V30 3705 O 377.883 -4.52462 -3.06497 0
M  V30 3706 H 374.977 -0.664125 -0.492816 0
M  V30 3707 H 377.523 -1.66823 -0.311149 0
M  V30 3708 H 376.295 -3.77187 -1.04144 0
M  V30 3709 H 375.918 -3.02199 -2.58383 0
M  V30 3710 N 376.915 0.57481 -1.46744 0
M  V30 3711 C 378.143 1.35856 -1.56047 0
M  V30 3712 C 378.558 1.87691 -0.204365 0
M  V30 3713 O 377.915 1.64049 0.79963 0
M  V30 3714 C 377.966 2.54066 -2.57163 0
M  V30 3715 O 377.687 2.04377 -3.87507 0
M  V30 3716 C 379.188 3.46514 -2.76483 0
M  V30 3717 H 376.408 0.414754 -0.527466 0
M  V30 3718 H 378.952 0.698035 -1.92218 0
M  V30 3719 H 377.107 3.16092 -2.23974 0
M  V30 3720 H 377.521 2.81419 -4.4261 0
M  V30 3721 H 378.995 4.25919 -3.51137 0
M  V30 3722 H 379.472 3.98951 -1.83671 0
M  V30 3723 H 380.078 2.90318 -3.10799 0
M  V30 3724 N 378.394 1.34581 0.820102 0
M  V30 3725 C 379.641 1.27096 1.57648 0
M  V30 3726 C 379.969 -0.158317 1.93855 0
M  V30 3727 O 379.224 -1.12028 1.60463 0
M  V30 3728 C 379.523 2.10997 2.8847 0
M  V30 3729 C 379.189 3.59966 2.71543 0
M  V30 3730 C 377.851 4.00575 2.66634 0
M  V30 3731 C 380.203 4.54548 2.55021 0
M  V30 3732 C 377.531 5.33953 2.43128 0
M  V30 3733 C 379.883 5.88109 2.33047 0
M  V30 3734 C 378.547 6.27878 2.26552 0
M  V30 3735 H 377.817 0.465078 0.576874 0
M  V30 3736 H 380.464 1.6635 0.948671 0
M  V30 3737 H 378.769 1.6458 3.55557 0
M  V30 3738 H 380.466 2.0255 3.46084 0
M  V30 3739 H 377.056 3.27733 2.76205 0
M  V30 3740 H 381.24 4.24069 2.57835 0
M  V30 3741 H 376.496 5.63781 2.3656 0
M  V30 3742 H 380.67 6.60985 2.19251 0
M  V30 3743 H 378.297 7.31162 2.081 0
M  V30 3744 N 379.872 -1.04064 1.18357 0
M  V30 3745 C 380.82 -2.14187 0.907007 0
M  V30 3746 C 381.814 -1.68879 -0.132725 0
M  V30 3747 O 383.02 -1.79993 0.0154248 0
M  V30 3748 H 379.395 -0.699585 0.275835 0
M  V30 3749 H 381.366 -2.34711 1.84264 0
M  V30 3750 C 380.115 -3.44785 0.449254 0
M  V30 3751 H 379.438 -3.80058 1.24081 0
M  V30 3752 H 380.878 -4.22974 0.294737 0
M  V30 3753 C 379.337 -3.26391 -0.834909 0
M  V30 3754 O 379.867 -3.53973 -1.89911 0
M  V30 3755 N 378.073 -2.79726 -0.787523 0
M  V30 3756 H 377.62 -2.5748 0.0787347 0
M  V30 3757 H 377.578 -2.67798 -1.64716 0
M  V30 3758 N 381.35 -0.985608 -1.22978 0
M  V30 3759 C 382.598 -0.656087 -1.91154 0
M  V30 3760 C 382.919 0.813561 -1.77218 0
M  V30 3761 O 382.189 1.58244 -1.1548 0
M  V30 3762 H 380.769 -0.239674 -0.707506 0
M  V30 3763 H 383.431 -1.25054 -1.49491 0
M  V30 3764 H 382.527 -0.912253 -2.9847 0
M  V30 3765 N 382.828 1.3818 -0.7579 0
M  V30 3766 C 383.791 2.28764 -0.141286 0
M  V30 3767 C 384.791 1.47388 0.642907 0
M  V30 3768 O 385.981 1.67781 0.468536 0
M  V30 3769 C 383.113 3.31184 0.808069 0
M  V30 3770 H 384.306 2.848 -0.939633 0
M  V30 3771 H 381.859 1.47212 -0.525191 0
M  V30 3772 H 382.594 2.80247 1.63193 0
M  V30 3773 H 382.379 3.91314 0.248104 0
M  V30 3774 H 383.869 3.98909 1.23536 0
M  V30 3775 N 384.306 0.507319 1.49211 0
M  V30 3776 C 385.236 -0.256939 2.32082 0
M  V30 3777 C 386.217 -0.956609 1.40652 0
M  V30 3778 O 387.402 -0.946788 1.69557 0
M  V30 3779 C 384.532 -1.31802 3.21318 0
M  V30 3780 C 383.486 -0.737855 4.21592 0
M  V30 3781 C 382.812 -1.89992 4.99807 0
M  V30 3782 C 384.112 0.275325 5.21574 0
M  V30 3783 H 385.806 0.434798 2.96226 0
M  V30 3784 H 383.352 0.210546 1.42452 0
M  V30 3785 H 385.305 -1.86045 3.78107 0
M  V30 3786 H 384.029 -2.03903 2.5513 0
M  V30 3787 H 382.688 -0.217126 3.65956 0
M  V30 3788 H 382.336 -2.60877 4.30061 0
M  V30 3789 H 382.036 -1.51777 5.6766 0
M  V30 3790 H 383.56 -2.44657 5.59442 0
M  V30 3791 H 384.974 -0.179193 5.7302 0
M  V30 3792 H 383.371 0.573649 5.97352 0
M  V30 3793 H 384.441 1.18903 4.70096 0
M  V30 3794 N 385.784 -1.5574 0.241426 0
M  V30 3795 C 387.033 -1.97986 -0.385295 0
M  V30 3796 C 387.346 -1.13267 -1.59468 0
M  V30 3797 O 388.552 -1.45501 -2.2922 0
M  V30 3798 C 387.008 -3.52275 -0.736884 0
M  V30 3799 C 386.616 -4.45726 0.450796 0
M  V30 3800 C 388.36 -4.03189 -1.3281 0
M  V30 3801 C 386.267 -5.91352 0.0756662 0
M  V30 3802 H 385.197 -0.739386 -0.147731 0
M  V30 3803 H 387.848 -1.80308 0.340779 0
M  V30 3804 H 386.23 -3.65628 -1.52094 0
M  V30 3805 H 387.404 -4.44131 1.22819 0
M  V30 3806 H 385.719 -4.05264 0.956573 0
M  V30 3807 H 388.316 -5.09505 -1.62201 0
M  V30 3808 H 388.659 -3.50212 -2.25071 0
M  V30 3809 H 389.192 -3.93141 -0.607069 0
M  V30 3810 H 385.931 -6.48354 0.965272 0
M  V30 3811 H 385.451 -5.96095 -0.665635 0
M  V30 3812 H 387.13 -6.46084 -0.344075 0
M  V30 3813 N 387.262 0.0317525 -1.57568 0
M  V30 3814 C 388.49 0.734949 -1.93407 0
M  V30 3815 C 388.905 1.69036 -0.84096 0
M  V30 3816 O 388.262 1.81582 0.182836 0
M  V30 3817 C 388.313 1.49432 -3.29169 0
M  V30 3818 O 388.034 0.577261 -4.3428 0
M  V30 3819 C 389.535 2.29492 -3.79273 0
M  V30 3820 H 386.755 0.206706 -0.638368 0
M  V30 3821 H 389.299 -0.00992046 -2.04498 0
M  V30 3822 H 387.454 2.1911 -3.19483 0
M  V30 3823 H 387.868 1.10952 -5.1263 0
M  V30 3824 H 389.342 2.78172 -4.76785 0
M  V30 3825 H 389.819 3.10794 -3.10328 0
M  V30 3826 H 390.425 1.64894 -3.92033 0
M  V30 3827 N 388.74 1.54641 0.303973 0
M  V30 3828 C 389.703 1.84646 1.35789 0
M  V30 3829 C 390.703 0.7192 1.4382 0
M  V30 3830 O 391.893 0.987491 1.43507 0
M  V30 3831 C 389.025 2.02407 2.74307 0
M  V30 3832 H 390.218 2.78829 1.10429 0
M  V30 3833 H 387.771 1.46658 0.540487 0
M  V30 3834 H 388.506 1.10502 3.04893 0
M  V30 3835 H 388.291 2.84453 2.69868 0
M  V30 3836 H 389.781 2.27002 3.50514 0
M  V30 3837 N 390.218 -0.567019 1.47046 0
M  V30 3838 C 391.148 -1.68482 1.61667 0
M  V30 3839 C 392.129 -1.6358 0.466418 0
M  V30 3840 O 393.314 -1.81354 0.694574 0
M  V30 3841 C 390.444 -3.07124 1.62148 0
M  V30 3842 C 389.398 -3.26867 2.76301 0
M  V30 3843 C 388.724 -4.66196 2.61849 0
M  V30 3844 C 390.024 -3.13186 4.17986 0
M  V30 3845 H 391.718 -1.56502 2.5524 0
M  V30 3846 H 389.264 -0.751486 1.22836 0
M  V30 3847 H 391.217 -3.8516 1.70968 0
M  V30 3848 H 389.941 -3.2004 0.651287 0
M  V30 3849 H 388.6 -2.51237 2.66975 0
M  V30 3850 H 388.248 -4.75898 1.62879 0
M  V30 3851 H 387.948 -4.80356 3.38425 0
M  V30 3852 H 389.472 -5.46379 2.72584 0
M  V30 3853 H 390.886 -3.81049 4.2834 0
M  V30 3854 H 389.283 -3.3886 4.95272 0
M  V30 3855 H 390.353 -2.10057 4.3704 0
M  V30 3856 N 391.696 -1.35014 -0.812953 0
M  V30 3857 C 392.626 -1.30069 -1.93919 0
M  V30 3858 C 393.607 -0.176275 -1.69184 0
M  V30 3859 O 394.792 -0.370227 -1.90638 0
M  V30 3860 C 391.922 -1.06547 -3.30552 0
M  V30 3861 C 390.876 -2.15561 -3.69753 0
M  V30 3862 C 390.202 -1.77214 -5.04479 0
M  V30 3863 C 391.502 -3.57476 -3.808 0
M  V30 3864 H 393.196 -2.24303 -1.98314 0
M  V30 3865 H 390.742 -1.07977 -0.952736 0
M  V30 3866 H 392.695 -1.01729 -4.08937 0
M  V30 3867 H 391.419 -0.0875719 -3.26483 0
M  V30 3868 H 390.078 -2.19466 -2.9365 0
M  V30 3869 H 389.726 -0.780589 -4.96906 0
M  V30 3870 H 389.426 -2.50184 -5.31678 0
M  V30 3871 H 390.95 -1.7391 -5.8531 0
M  V30 3872 H 392.364 -3.55929 -4.4943 0
M  V30 3873 H 390.761 -4.29152 -4.19462 0
M  V30 3874 H 391.831 -3.94091 -2.82525 0
M  V30 3875 N 393.175 1.03435 -1.18907 0
M  V30 3876 C 394.085 2.15075 -0.937015 0
M  V30 3877 C 395.101 1.73706 0.101085 0
M  V30 3878 O 396.277 2.01232 -0.0822948 0
M  V30 3879 C 393.342 3.43458 -0.473057 0
M  V30 3880 C 392.403 3.99172 -1.57989 0
M  V30 3881 C 391.636 5.21427 -1.13797 0
M  V30 3882 O 391.859 5.704 0.000725941 0
M  V30 3883 O 390.793 5.69837 -1.9383 0
M  V30 3884 H 394.619 2.39198 -1.87131 0
M  V30 3885 H 392.204 1.13506 -0.971427 0
M  V30 3886 H 394.086 4.20811 -0.222702 0
M  V30 3887 H 392.761 3.20793 0.432869 0
M  V30 3888 H 391.668 3.23178 -1.88433 0
M  V30 3889 H 393.001 4.2619 -2.46217 0
M  V30 3890 N 394.653 0.992116 1.22453 0
M  V30 3891 C 395.563 0.55065 2.28046 0
M  V30 3892 C 396.579 -0.400189 1.69335 0
M  V30 3893 O 397.755 -0.267215 1.99619 0
M  V30 3894 C 394.82 -0.128496 3.46462 0
M  V30 3895 C 393.881 0.865208 4.20491 0
M  V30 3896 C 393.114 0.218377 5.33253 0
M  V30 3897 O 393.337 -0.987894 5.6178 0
M  V30 3898 O 392.271 0.922845 5.94783 0
M  V30 3899 H 396.097 1.4291 2.67975 0
M  V30 3900 H 393.682 0.760326 1.28606 0
M  V30 3901 H 395.564 -0.508947 4.18315 0
M  V30 3902 H 394.239 -0.981526 3.0846 0
M  V30 3903 H 393.146 1.29658 3.50913 0
M  V30 3904 H 394.479 1.68741 4.62371 0
M  V30 3905 N 396.131 -1.37776 0.765217 0
M  V30 3906 C 397.078 -2.30342 0.145274 0
M  V30 3907 C 398.048 -1.5077 -0.696971 0
M  V30 3908 O 399.233 -1.79362 -0.650689 0
M  V30 3909 C 396.373 -3.37227 -0.732939 0
M  V30 3910 C 395.486 -4.31819 0.125199 0
M  V30 3911 C 394.621 -5.25777 -0.757107 0
M  V30 3912 C 393.66 -6.12012 0.103963 0
M  V30 3913 N 392.797 -6.98232 -0.735953 0
M  V30 3914 H 397.637 -2.8278 0.940195 0
M  V30 3915 H 395.174 -1.39211 0.475255 0
M  V30 3916 H 397.132 -3.97818 -1.25686 0
M  V30 3917 H 395.762 -2.86171 -1.49353 0
M  V30 3918 H 394.814 -3.7259 0.766865 0
M  V30 3919 H 396.126 -4.92509 0.789683 0
M  V30 3920 H 395.28 -5.91541 -1.34776 0
M  V30 3921 H 394.019 -4.65481 -1.45529 0
M  V30 3922 H 393.024 -5.45233 0.707197 0
M  V30 3923 H 394.249 -6.74379 0.799381 0
M  V30 3924 H 392.195 -6.40472 -1.41887 0
M  V30 3925 H 392.112 -7.55891 -0.128624 0
M  V30 3926 H 393.38 -7.68393 -1.31121 0
M  V30 3927 N 397.609 -0.515225 -1.4894 0
M  V30 3928 C 399.02 -0.0710067 -1.86565 0
M  V30 3929 C 399.371 1.34733 -1.42623 0
M  V30 3930 O 398.496 2.00653 -0.810379 0
M  V30 3931 C 399.091 -0.122083 -3.3858 0
M  V30 3932 C 397.65 0.266863 -3.75453 0
M  V30 3933 C 396.797 -0.488376 -2.72966 0
M  V30 3934 H 399.748 -0.727266 -1.41055 0
M  V30 3935 H 399.769 0.669818 -3.74558 0
M  V30 3936 H 399.281 -1.15448 -3.70531 0
M  V30 3937 H 397.382 1.30196 -3.49113 0
M  V30 3938 H 397.495 -0.0624811 -4.79059 0
M  V30 3939 H 395.859 0.0635622 -2.54621 0
M  V30 3940 H 396.642 -1.52113 -3.07761 0
M  V30 3941 N 399.087 1.5561 -0.249682 0
M  V30 3942 C 400.017 2.24477 0.642826 0
M  V30 3943 C 400.998 1.22601 1.17911 0
M  V30 3944 O 402.183 1.5126 1.21795 0
M  V30 3945 C 399.313 2.94638 1.83863 0
M  V30 3946 C 398.267 4.03227 1.435 0
M  V30 3947 C 397.593 4.60828 2.71186 0
M  V30 3948 C 398.893 5.18796 0.604002 0
M  V30 3949 H 400.587 2.99321 0.0685625 0
M  V30 3950 H 398.133 1.43965 0.0315363 0
M  V30 3951 H 400.086 3.41517 2.46868 0
M  V30 3952 H 398.81 2.17287 2.43832 0
M  V30 3953 H 397.469 3.57121 0.828275 0
M  V30 3954 H 397.117 3.80174 3.29358 0
M  V30 3955 H 396.817 5.34132 2.44901 0
M  V30 3956 H 398.341 5.10442 3.35084 0
M  V30 3957 H 399.755 5.61883 1.13842 0
M  V30 3958 H 398.152 5.98506 0.437097 0
M  V30 3959 H 399.222 4.83384 -0.383147 0
M  V30 3960 N 400.565 -0.0233959 1.57583 0
M  V30 3961 C 401.976 -0.56927 1.77809 0
M  V30 3962 C 402.327 -1.75284 0.881472 0
M  V30 3963 O 401.452 -2.1626 0.0777805 0
M  V30 3964 C 402.047 -1.03949 3.22459 0
M  V30 3965 C 400.606 -1.53084 3.43864 0
M  V30 3966 C 399.753 -0.471454 2.73263 0
M  V30 3967 H 402.704 0.202825 1.57399 0
M  V30 3968 H 402.725 -1.90661 3.29285 0
M  V30 3969 H 402.237 -0.177865 3.87692 0
M  V30 3970 H 400.338 -2.41414 2.83814 0
M  V30 3971 H 400.451 -1.57443 4.52491 0
M  V30 3972 H 398.815 -0.927788 2.37201 0
M  V30 3973 H 399.598 0.380808 3.41181 0
M  V30 3974 N 402.043 -1.548 -0.295768 0
M  V30 3975 C 402.953 -1.89177 -1.38742 0
M  V30 3976 C 403.969 -0.786481 -1.55211 0
M  V30 3977 O 405.145 -1.08344 -1.69775 0
M  V30 3978 C 402.21 -2.13663 -2.73036 0
M  V30 3979 C 401.271 -3.37349 -2.65508 0
M  V30 3980 C 400.504 -3.60658 -3.93398 0
M  V30 3981 O 400.727 -2.86882 -4.93006 0
M  V30 3982 O 399.661 -4.54179 -3.94975 0
M  V30 3983 H 403.487 -2.82059 -1.12589 0
M  V30 3984 H 401.072 -1.41056 -0.492295 0
M  V30 3985 H 402.954 -2.3094 -3.52484 0
M  V30 3986 H 401.629 -1.23967 -2.99022 0
M  V30 3987 H 400.536 -3.25431 -1.84514 0
M  V30 3988 H 401.869 -4.27192 -2.44474 0
M  V30 3989 N 403.521 0.559213 -1.47345 0
M  V30 3990 C 404.484 1.64854 -1.59235 0
M  V30 3991 C 405.484 1.53851 -0.467607 0
M  V30 3992 O 406.674 1.58045 -0.732617 0
M  V30 3993 C 403.806 3.04388 -1.53496 0
M  V30 3994 H 404.999 1.55662 -2.56339 0
M  V30 3995 H 402.552 0.778973 -1.35505 0
M  V30 3996 H 403.287 3.19115 -0.577604 0
M  V30 3997 H 403.072 3.13783 -2.35123 0
M  V30 3998 H 404.562 3.83642 -1.6495 0
M  V30 3999 N 404.999 1.35443 0.805782 0
M  V30 4000 C 406.248 1.28097 1.55801 0
M  V30 4001 C 406.561 -0.142428 1.95081 0
M  V30 4002 O 407.767 -0.33817 2.69386 0
M  V30 4003 C 406.223 2.24653 2.81174 0
M  V30 4004 C 405.831 3.72342 2.49129 0
M  V30 4005 C 407.575 2.2625 3.59181 0
M  V30 4006 C 405.482 4.60719 3.70799 0
M  V30 4007 H 404.412 0.475937 0.584808 0
M  V30 4008 H 407.063 1.60712 0.885661 0
M  V30 4009 H 405.445 1.85011 3.50124 0
M  V30 4010 H 406.619 4.20624 1.88181 0
M  V30 4011 H 404.934 3.73361 1.84366 0
M  V30 4012 H 407.531 2.89495 4.49552 0
M  V30 4013 H 407.874 1.26647 3.96568 0
M  V30 4014 H 408.407 2.64426 2.97193 0
M  V30 4015 H 405.146 5.61324 3.3852 0
M  V30 4016 H 404.666 4.17163 4.3097 0
M  V30 4017 H 406.345 4.76182 4.38018 0
M  V30 4018 N 406.477 -1.02803 1.19454 0
M  V30 4019 C 407.893 -1.28473 0.946937 0
M  V30 4020 C 408.093 -1.97881 -0.380202 0
M  V30 4021 O 407.149 -2.26719 -1.11151 0
M  V30 4022 C 408.462 -2.13099 2.12154 0
M  V30 4023 C 410.01 -2.26404 2.16126 0
M  V30 4024 C 410.485 -3.14402 3.33039 0
M  V30 4025 N 411.976 -3.21991 3.32981 0
M  V30 4026 C 412.711 -3.90272 4.20089 0
M  V30 4027 N 412.207 -4.60777 5.17355 0
M  V30 4028 N 414 -3.8668 4.07964 0
M  V30 4029 H 406.151 -0.561665 2.04839 0
M  V30 4030 H 408.414 -0.310438 0.89573 0
M  V30 4031 H 408.12 -1.69422 3.08203 0
M  V30 4032 H 407.994 -3.13813 2.09287 0
M  V30 4033 H 410.381 -2.69311 1.20647 0
M  V30 4034 H 410.462 -1.25237 2.23045 0
M  V30 4035 H 410.106 -2.72204 4.28798 0
M  V30 4036 H 410.036 -4.1563 3.23356 0
M  V30 4037 H 412.527 -2.71778 2.62574 0
M  V30 4038 H 412.84 -5.10513 5.80169 0
M  V30 4039 H 411.185 -4.5964 5.21302 0
M  V30 4040 H 414.376 -3.30739 3.31254 0
M  V30 4041 H 414.549 -4.39621 4.76064 0
M  V30 4042 N 407.956 -0.998596 -1.21925 0
M  V30 4043 C 409.203 -0.677663 -1.90824 0
M  V30 4044 C 409.531 0.790905 -1.77693 0
M  V30 4045 O 408.786 1.58817 -1.14349 0
M  V30 4046 C 409.085 -1.03648 -3.42041 0
M  V30 4047 C 408.751 -2.49825 -3.75364 0
M  V30 4048 C 407.413 -2.8977 -3.8417 0
M  V30 4049 C 409.765 -3.44545 -3.91073 0
M  V30 4050 C 407.093 -4.23412 -4.06127 0
M  V30 4051 C 409.445 -4.77853 -4.14535 0
M  V30 4052 C 408.109 -5.17531 -4.21566 0
M  V30 4053 H 407.379 -0.247975 -0.698276 0
M  V30 4054 H 410.026 -1.25584 -1.44571 0
M  V30 4055 H 408.331 -0.376457 -3.89987 0
M  V30 4056 H 410.028 -0.766113 -3.93614 0
M  V30 4057 H 406.618 -2.17866 -3.69097 0
M  V30 4058 H 410.802 -3.14853 -3.83642 0
M  V30 4059 H 406.058 -4.53734 -4.09799 0
M  V30 4060 H 410.232 -5.51189 -4.25633 0
M  V30 4061 H 407.859 -6.21102 -4.38333 0
M  V30 4062 N 409.434 1.37368 -0.772513 0
M  V30 4063 C 410.397 2.28601 -0.165541 0
M  V30 4064 C 411.397 1.48062 0.627238 0
M  V30 4065 O 412.587 1.68268 0.450715 0
M  V30 4066 C 409.719 3.32023 0.772897 0
M  V30 4067 H 410.912 2.83787 -0.969787 0
M  V30 4068 H 408.465 1.46647 -0.540775 0
M  V30 4069 H 409.2 2.81962 1.60212 0
M  V30 4070 H 408.985 3.91555 0.206585 0
M  V30 4071 H 410.475 4.00197 1.19298 0
M  V30 4072 N 410.912 0.523116 1.48665 0
M  V30 4073 C 411.862 -0.263106 2.26477 0
M  V30 4074 C 412.846 -0.916005 1.32281 0
M  V30 4075 O 414.038 -0.819946 1.56863 0
M  V30 4076 C 411.167 -1.31361 3.17174 0
M  V30 4077 C 410.253 -0.665849 4.1884 0
M  V30 4078 N 410.644 0.244434 5.05209 0
M  V30 4079 C 408.942 -0.923863 4.36326 0
M  V30 4080 C 409.643 0.617443 5.78414 0
M  V30 4081 N 408.619 -0.0198686 5.43596 0
M  V30 4082 H 412.421 0.437295 2.90629 0
M  V30 4083 H 409.935 0.340675 1.58787 0
M  V30 4084 H 411.932 -1.89052 3.71571 0
M  V30 4085 H 410.592 -2.01546 2.54576 0
M  V30 4086 H 411.603 0.616621 5.14216 0
M  V30 4087 H 408.28 -1.6168 3.84923 0
M  V30 4088 H 409.67 1.36346 6.57921 0
M  V30 4089 N 412.39 -1.55475 0.257931 0
M  V30 4090 C 413.353 -2.20551 -0.623706 0
M  V30 4091 C 414.353 -1.17809 -1.09443 0
M  V30 4092 O 415.543 -1.42823 -0.997362 0
M  V30 4093 C 412.675 -2.85784 -1.8585 0
M  V30 4094 H 413.868 -2.99848 -0.0557743 0
M  V30 4095 H 411.421 -1.56298 0.0084422 0
M  V30 4096 H 412.156 -2.10453 -2.46739 0
M  V30 4097 H 411.941 -3.61057 -1.52907 0
M  V30 4098 H 413.431 -3.35553 -2.48584 0
M  V30 4099 N 413.868 0.0150385 -1.57593 0
M  V30 4100 C 414.831 0.995996 -2.06428 0
M  V30 4101 C 415.831 1.2818 -0.970903 0
M  V30 4102 O 417.021 1.22949 -1.23406 0
M  V30 4103 C 414.153 2.32506 -2.49307 0
M  V30 4104 H 415.346 0.573873 -2.94358 0
M  V30 4105 H 412.899 0.262186 -1.54085 0
M  V30 4106 H 413.634 2.79438 -1.64575 0
M  V30 4107 H 413.419 2.13087 -3.29145 0
M  V30 4108 H 414.909 3.02906 -2.87468 0
M  V30 4109 N 415.346 1.54954 0.287554 0
M  V30 4110 C 416.309 1.86076 1.33823 0
M  V30 4111 C 417.309 0.734414 1.43049 0
M  V30 4112 O 418.499 1.00266 1.42452 0
M  V30 4113 C 415.631 2.05305 2.72144 0
M  V30 4114 H 416.824 2.79984 1.07465 0
M  V30 4115 H 414.377 1.47223 0.524902 0
M  V30 4116 H 415.112 1.1373 3.03704 0
M  V30 4117 H 414.897 2.873 2.66836 0
M  V30 4118 H 416.387 2.30706 3.48087 0
M  V30 4119 N 416.824 -0.551391 1.4764 0
M  V30 4120 C 417.787 -1.64007 1.60107 0
M  V30 4121 C 418.787 -1.53601 0.47576 0
M  V30 4122 O 419.977 -1.57655 0.740988 0
M  V30 4123 C 417.109 -3.03569 1.55108 0
M  V30 4124 H 418.302 -1.543 2.57161 0
M  V30 4125 H 415.855 -0.771776 1.35917 0
M  V30 4126 H 416.59 -3.18804 0.594519 0
M  V30 4127 H 416.375 -3.12532 2.36783 0
M  V30 4128 H 417.865 -3.82762 1.66982 0
M  V30 4129 N 418.302 -1.35869 -0.798587 0
M  V30 4130 C 419.551 -1.28921 -1.5512 0
M  V30 4131 C 419.864 0.13208 -1.95154 0
M  V30 4132 O 421.07 0.323879 -2.69561 0
M  V30 4133 C 419.526 -2.26141 -2.79979 0
M  V30 4134 C 419.134 -3.73658 -2.47151 0
M  V30 4135 C 420.878 -2.28152 -3.57976 0
M  V30 4136 C 418.785 -4.62679 -3.6835 0
M  V30 4137 H 417.715 -0.479031 -0.582276 0
M  V30 4138 H 420.366 -1.61179 -0.877125 0
M  V30 4139 H 418.748 -1.86865 -3.49138 0
M  V30 4140 H 419.922 -4.21616 -1.85947 0
M  V30 4141 H 418.237 -3.74333 -1.82383 0
M  V30 4142 H 420.834 -2.91875 -4.4801 0
M  V30 4143 H 421.177 -1.28748 -3.95891 0
M  V30 4144 H 421.71 -2.65998 -2.95787 0
M  V30 4145 H 418.449 -5.63111 -3.35538 0
M  V30 4146 H 417.969 -4.19442 -4.28752 0
M  V30 4147 H 419.648 -4.78498 -4.35487 0
M  V30 4148 N 419.78 1.02168 -1.19998 0
M  V30 4149 C 420.743 2.08765 -0.94604 0
M  V30 4150 C 421.743 1.60618 0.0763846 0
M  V30 4151 O 422.933 1.73472 -0.159135 0
M  V30 4152 C 420.065 3.38262 -0.423255 0
M  V30 4153 H 421.258 2.32726 -1.89153 0
M  V30 4154 H 418.811 1.1889 -1.01464 0
M  V30 4155 H 419.546 3.19974 0.527938 0
M  V30 4156 H 419.331 3.74532 -1.16053 0
M  V30 4157 H 420.821 4.16759 -0.264911 0
M  V30 4158 N 421.258 1.00505 1.21394 0
M  V30 4159 C 422.504 0.688793 1.90745 0
M  V30 4160 C 422.837 -0.778486 1.77914 0
M  V30 4161 O 422.112 -1.56433 1.15581 0
M  V30 4162 C 422.395 1.11063 3.42545 0
M  V30 4163 C 422.248 2.63737 3.64367 0
M  V30 4164 C 423.567 0.673059 4.34923 0
M  V30 4165 H 420.686 0.251702 0.692687 0
M  V30 4166 H 423.328 1.25074 1.43026 0
M  V30 4167 H 421.478 0.632508 3.83317 0
M  V30 4168 H 423.15 3.19313 3.32922 0
M  V30 4169 H 421.393 3.05248 3.08231 0
M  V30 4170 H 422.064 2.88305 4.70727 0
M  V30 4171 H 424.54 1.08392 4.01734 0
M  V30 4172 H 423.416 0.996383 5.39781 0
M  V30 4173 H 423.677 -0.425808 4.40045 0
M  V30 4174 N 422.737 -1.36956 0.779787 0
M  V30 4175 C 423.965 -2.03755 0.359398 0
M  V30 4176 C 424.38 -1.58807 -1.02106 0
M  V30 4177 O 423.737 -0.773024 -1.6532 0
M  V30 4178 C 423.788 -3.59251 0.402568 0
M  V30 4179 O 423.509 -4.02557 1.72858 0
M  V30 4180 C 425.01 -4.43291 -0.0284068 0
M  V30 4181 H 422.23 -0.654148 0.149437 0
M  V30 4182 H 424.774 -1.75128 1.05595 0
M  V30 4183 H 422.929 -3.86621 -0.245478 0
M  V30 4184 H 423.343 -4.97111 1.67275 0
M  V30 4185 H 424.817 -5.51975 0.0529466 0
M  V30 4186 H 425.294 -4.25719 -1.07982 0
M  V30 4187 H 425.9 -4.21163 0.591758 0
M  V30 4188 N 424.215 -0.530993 -1.48385 0
M  V30 4189 C 425.631 -0.188919 -1.58478 0
M  V30 4190 C 425.831 1.30786 -1.53288 0
M  V30 4191 O 424.887 2.08619 -1.42248 0
M  V30 4192 C 426.2 -0.792343 -2.90073 0
M  V30 4193 C 427.748 -0.76117 -3.03604 0
M  V30 4194 C 428.223 -1.34319 -4.37861 0
M  V30 4195 N 429.714 -1.3052 -4.44431 0
M  V30 4196 C 430.449 -1.72543 -5.46824 0
M  V30 4197 N 429.945 -2.22299 -6.56167 0
M  V30 4198 N 431.738 -1.63773 -5.37712 0
M  V30 4199 H 423.889 -1.50377 -1.50002 0
M  V30 4200 H 426.152 -0.625559 -0.712306 0
M  V30 4201 H 425.858 -1.84323 -2.99529 0
M  V30 4202 H 425.732 -0.270026 -3.76232 0
M  V30 4203 H 428.119 0.280957 -2.93759 0
M  V30 4204 H 428.2 -1.32097 -2.19053 0
M  V30 4205 H 427.844 -2.38425 -4.4846 0
M  V30 4206 H 427.774 -0.759064 -5.21101 0
M  V30 4207 H 430.265 -0.940973 -3.65997 0
M  V30 4208 H 430.578 -2.52356 -7.30436 0
M  V30 4209 H 428.923 -2.26293 -6.57127 0
M  V30 4210 H 432.114 -1.24698 -4.51185 0
M  V30 4211 H 432.287 -1.96844 -6.17379 0
M  V30 4212 N 425.693 1.55336 -0.266172 0
M  V30 4213 C 426.64 2.22172 0.625165 0
M  V30 4214 C 427.61 1.19211 1.15663 0
M  V30 4215 O 428.795 1.47723 1.20758 0
M  V30 4216 C 425.935 2.93972 1.8076 0
M  V30 4217 C 425.048 4.11632 1.31084 0
M  V30 4218 C 424.183 4.71099 2.45436 0
M  V30 4219 C 423.222 5.8097 1.92718 0
M  V30 4220 N 422.359 6.34538 3.00509 0
M  V30 4221 H 427.199 2.9796 0.0485582 0
M  V30 4222 H 424.736 1.47095 0.0122024 0
M  V30 4223 H 426.694 3.33811 2.50251 0
M  V30 4224 H 425.324 2.20623 2.35638 0
M  V30 4225 H 424.376 3.76975 0.509326 0
M  V30 4226 H 425.688 4.90893 0.884633 0
M  V30 4227 H 424.842 5.13612 3.22936 0
M  V30 4228 H 423.581 3.91096 2.91368 0
M  V30 4229 H 422.586 5.37916 1.13695 0
M  V30 4230 H 423.811 6.62836 1.47733 0
M  V30 4231 H 421.757 5.57433 3.45839 0
M  V30 4232 H 421.674 7.09046 2.62279 0
M  V30 4233 H 422.942 6.81709 3.78011 0
M  V30 4234 N 427.171 -0.0066808 1.57599 0
M  V30 4235 C 428.419 -0.691552 1.899 0
M  V30 4236 C 428.74 -1.74682 0.866672 0
M  V30 4237 O 428.01 -1.95661 -0.0968189 0
M  V30 4238 H 426.59 -0.258416 0.700878 0
M  V30 4239 H 429.252 0.0326655 1.94873 0
M  V30 4240 H 428.348 -1.16702 2.8946 0
M  V30 4241 N 428.649 -1.55105 -0.279332 0
M  V30 4242 C 429.612 -1.86783 -1.32834 0
M  V30 4243 C 430.612 -0.74199 -1.42657 0
M  V30 4244 O 431.802 -1.0102 -1.41918 0
M  V30 4245 C 428.934 -2.06746 -2.71052 0
M  V30 4246 H 430.127 -2.8055 -1.05979 0
M  V30 4247 H 427.68 -1.47499 -0.517087 0
M  V30 4248 H 428.415 -1.15339 -3.03097 0
M  V30 4249 H 428.2 -2.88711 -2.65309 0
M  V30 4250 H 429.69 -2.32549 -3.46858 0
M  V30 4251 N 430.127 0.543554 -1.4793 0
M  V30 4252 C 431.059 1.665 -1.57513 0
M  V30 4253 C 432.072 1.56156 -0.460333 0
M  V30 4254 O 433.261 1.62865 -0.730573 0
M  V30 4255 C 430.361 3.05063 -1.47614 0
M  V30 4256 C 429.534 3.41024 -2.739 0
M  V30 4257 C 428.593 4.58809 -2.57645 0
M  V30 4258 O 427.619 4.62707 -3.31498 0
M  V30 4259 N 428.821 5.56149 -1.66368 0
M  V30 4260 H 431.586 1.5872 -2.5422 0
M  V30 4261 H 429.147 0.730517 -1.44482 0
M  V30 4262 H 431.139 3.81712 -1.34455 0
M  V30 4263 H 429.709 3.06994 -0.589359 0
M  V30 4264 H 428.929 2.53687 -3.01723 0
M  V30 4265 H 430.217 3.61831 -3.57709 0
M  V30 4266 H 429.615 5.55767 -1.05543 0
M  V30 4267 H 428.172 6.32071 -1.59154 0
M  V30 4268 N 431.605 1.3629 0.791371 0
M  V30 4269 C 433.016 1.27225 1.36641 0
M  V30 4270 C 433.367 -0.0887968 1.95999 0
M  V30 4271 O 432.492 -0.990207 1.92416 0
M  V30 4272 C 433.087 2.30375 2.48421 0
M  V30 4273 C 431.646 2.25004 3.01746 0
M  V30 4274 C 430.793 2.15259 1.7481 0
M  V30 4275 H 433.744 1.47198 0.593173 0
M  V30 4276 H 433.765 1.93905 3.27385 0
M  V30 4277 H 433.277 3.29422 2.05189 0
M  V30 4278 H 431.378 1.29417 3.49403 0
M  V30 4279 H 431.491 3.1761 3.58693 0
M  V30 4280 H 429.855 1.61482 1.96966 0
M  V30 4281 H 430.638 3.16191 1.33709 0
M  V30 4282 N 433.083 -1.0153 1.20538 0
M  V30 4283 C 434.308 -1.79283 1.04271 0
M  V30 4284 C 434.733 -1.8372 -0.403544 0
M  V30 4285 O 434.091 -1.27321 -1.2907 0
M  V30 4286 C 434.139 -3.21535 1.63241 0
M  V30 4287 O 433.243 -4.03099 0.870908 0
M  V30 4288 H 432.584 -0.55293 0.367647 0
M  V30 4289 H 435.114 -1.27696 1.59859 0
M  V30 4290 H 435.124 -3.72243 1.6703 0
M  V30 4291 H 433.799 -3.1762 2.68497 0
M  V30 4292 H 432.376 -3.61693 0.907323 0
M  V30 4293 N 434.561 -1.01147 -1.20859 0
M  V30 4294 C 435.807 -0.698899 -1.90377 0
M  V30 4295 C 436.14 0.76904 -1.78324 0
M  V30 4296 O 435.415 1.55817 -1.16409 0
M  V30 4297 C 435.698 -1.12878 -3.41951 0
M  V30 4298 C 435.551 -2.65665 -3.62963 0
M  V30 4299 C 436.87 -0.696114 -4.3456 0
M  V30 4300 H 433.989 -0.255372 -0.691342 0
M  V30 4301 H 436.631 -1.25831 -1.42361 0
M  V30 4302 H 434.781 -0.652827 -3.82976 0
M  V30 4303 H 436.453 -3.21074 -3.31224 0
M  V30 4304 H 434.696 -3.06878 -3.06608 0
M  V30 4305 H 435.367 -2.90797 -4.69192 0
M  V30 4306 H 437.843 -1.10521 -4.01154 0
M  V30 4307 H 436.719 -1.025 -5.39245 0
M  V30 4308 H 436.98 0.402465 -4.40264 0
M  V30 4309 N 436.039 1.36541 -0.78704 0
M  V30 4310 C 437.45 1.81873 -0.421807 0
M  V30 4311 C 437.801 1.65487 1.05397 0
M  V30 4312 O 436.926 1.17448 1.81755 0
M  V30 4313 C 437.521 3.30192 -0.758841 0
M  V30 4314 C 436.08 3.73743 -0.446468 0
M  V30 4315 C 435.227 2.58844 -0.994728 0
M  V30 4316 H 438.178 1.24796 -0.98039 0
M  V30 4317 H 438.199 3.80468 -0.0490648 0
M  V30 4318 H 437.711 3.42087 -1.83299 0
M  V30 4319 H 435.812 3.6741 0.619739 0
M  V30 4320 H 435.925 4.69272 -0.965415 0
M  V30 4321 H 434.289 2.51245 -0.418087 0
M  V30 4322 H 435.072 2.73525 -2.07458 0
M  V30 4323 N 437.518 0.538854 1.48102 0
M  V30 4324 C 438.764 0.0161732 2.03394 0
M  V30 4325 C 439.119 -1.31154 1.40771 0
M  V30 4326 O 438.412 -1.83613 0.547421 0
M  V30 4327 C 438.606 -0.153808 3.57069 0
M  V30 4328 C 438.435 1.15588 4.34591 0
M  V30 4329 C 437.205 1.71818 4.75191 0
M  V30 4330 C 439.403 2.06867 4.70861 0
M  V30 4331 N 437.385 2.96983 5.37284 0
M  V30 4332 C 438.756 3.16609 5.33066 0
M  V30 4333 C 440.811 2.07085 4.52791 0
M  V30 4334 C 439.514 4.26645 5.79109 0
M  V30 4335 C 441.54 3.16121 4.99821 0
M  V30 4336 C 440.902 4.24582 5.62058 0
M  V30 4337 H 437.001 0.0476346 0.780548 0
M  V30 4338 H 439.585 0.722094 1.80815 0
M  V30 4339 H 437.756 -0.828825 3.79454 0
M  V30 4340 H 439.488 -0.676896 3.98999 0
M  V30 4341 H 436.243 1.25845 4.56574 0
M  V30 4342 H 436.667 3.60732 5.72889 0
M  V30 4343 H 441.309 1.24522 4.04047 0
M  V30 4344 H 439.027 5.0998 6.26854 0
M  V30 4345 H 442.613 3.17355 4.87624 0
M  V30 4346 H 441.493 5.07562 5.97788 0
M  V30 4347 N 438.996 -1.55193 0.274407 0
M  V30 4348 C 440.412 -1.59401 -0.0797543 0
M  V30 4349 C 440.612 -1.29162 -1.54659 0
M  V30 4350 O 439.668 -1.05215 -2.29534 0
M  V30 4351 C 440.981 -2.99257 0.294238 0
M  V30 4352 C 442.529 -3.12072 0.240796 0
M  V30 4353 C 443.004 -4.54194 0.589218 0
M  V30 4354 N 444.495 -4.60033 0.540744 0
M  V30 4355 C 445.23 -5.68027 0.783147 0
M  V30 4356 N 444.726 -6.8417 1.09013 0
M  V30 4357 N 446.519 -5.57572 0.711993 0
M  V30 4358 H 438.67 -1.73113 1.23067 0
M  V30 4359 H 440.933 -0.807197 0.497129 0
M  V30 4360 H 440.639 -3.26217 1.31435 0
M  V30 4361 H 440.513 -3.75427 -0.365281 0
M  V30 4362 H 442.9 -2.84877 -0.770024 0
M  V30 4363 H 442.981 -2.38117 0.934563 0
M  V30 4364 H 442.625 -4.82115 1.59772 0
M  V30 4365 H 442.555 -5.26448 -0.126331 0
M  V30 4366 H 445.046 -3.76599 0.313327 0
M  V30 4367 H 445.359 -7.6243 1.26178 0
M  V30 4368 H 443.704 -6.85787 1.12789 0
M  V30 4369 H 446.895 -4.65714 0.472014 0
M  V30 4370 H 447.068 -6.41659 0.90429 0
M  V30 4371 N 440.474 -0.00167713 -1.576 0
M  V30 4372 C 441.384 1.00548 -2.1196 0
M  V30 4373 C 442.4 1.3758 -1.06526 0
M  V30 4374 O 443.576 1.46278 -1.38436 0
M  V30 4375 C 440.641 2.27809 -2.6135 0
M  V30 4376 C 439.702 1.97074 -3.81393 0
M  V30 4377 C 438.935 3.18267 -4.28417 0
M  V30 4378 O 439.158 4.30009 -3.74765 0
M  V30 4379 O 438.092 3.02167 -5.20556 0
M  V30 4380 H 441.918 0.573373 -2.98238 0
M  V30 4381 H 439.503 0.217255 -1.47812 0
M  V30 4382 H 441.385 3.02568 -2.93309 0
M  V30 4383 H 440.06 2.70254 -1.78169 0
M  V30 4384 H 438.967 1.19785 -3.54404 0
M  V30 4385 H 440.3 1.59464 -4.65652 0
M  V30 4386 N 441.952 1.55251 0.271103 0
M  V30 4387 C 442.862 1.9136 1.35714 0
M  V30 4388 C 443.878 0.811075 1.5394 0
M  V30 4389 O 445.054 1.11031 1.6803 0
M  V30 4390 C 442.119 2.1798 2.69603 0
M  V30 4391 C 441.18 3.4153 2.60107 0
M  V30 4392 C 440.413 3.66871 3.8761 0
M  V30 4393 O 440.636 2.94689 4.8838 0
M  V30 4394 O 439.57 4.60405 3.87699 0
M  V30 4395 H 443.396 2.83815 1.08088 0
M  V30 4396 H 440.981 1.41821 0.469792 0
M  V30 4397 H 442.863 2.36518 3.48765 0
M  V30 4398 H 441.538 1.28708 2.97012 0
M  V30 4399 H 440.445 3.28325 1.79314 0
M  V30 4400 H 441.778 4.31027 2.37647 0
M  V30 4401 N 443.43 -0.535701 1.48216 0
M  V30 4402 C 444.679 -1.28828 1.55197 0
M  V30 4403 C 444.992 -1.94263 0.228278 0
M  V30 4404 O 446.198 -2.70927 0.176278 0
M  V30 4405 C 444.654 -2.33727 2.73678 0
M  V30 4406 C 444.262 -1.74386 4.12666 0
M  V30 4407 C 446.006 -3.1003 2.89968 0
M  V30 4408 C 443.913 -2.77192 5.22416 0
M  V30 4409 H 442.843 -0.484484 0.577747 0
M  V30 4410 H 445.494 -0.56646 1.74538 0
M  V30 4411 H 443.876 -3.08919 2.4776 0
M  V30 4412 H 445.05 -1.05421 4.48579 0
M  V30 4413 H 443.365 -1.10595 4.01445 0
M  V30 4414 H 445.962 -3.86842 3.6913 0
M  V30 4415 H 446.305 -3.65542 1.9921 0
M  V30 4416 H 446.838 -2.41952 3.15759 0
M  V30 4417 H 443.577 -2.26507 6.15122 0
M  V30 4418 H 443.097 -3.44502 4.90998 0
M  V30 4419 H 444.776 -3.40285 5.50286 0
M  V30 4420 N 444.908 -1.36708 -0.784132 0
M  V30 4421 C 446.185 -1.21776 -1.53069 0
M  V30 4422 C 446.565 0.193876 -2.10208 0
M  V30 4423 O 445.913 1.20012 -1.94446 0
M  V30 4424 C 446.123 -2.30395 -2.62143 0
M  V30 4425 C 447.471 -2.67325 -3.29882 0
M  V30 4426 O 448.495 -2.29478 -2.7243 0
M  V30 4427 O 447.354 -3.32485 -4.33724 0
M  V30 4428 H 444.448 -0.474459 -0.677361 0
M  V30 4429 H 446.994 -1.48454 -0.82216 0
M  V30 4430 H 445.766 -3.2498 -2.17953 0
M  V30 4431 H 445.389 -2.05112 -3.40609 0
M  V30 4432 N 446.386 1.0089 -1.21074 0
M  V30 4433 C 447.349 2.0775 -0.968129 0
M  V30 4434 C 448.349 1.6069 0.0593445 0
M  V30 4435 O 449.539 1.73293 -0.177525 0
M  V30 4436 C 446.671 3.37794 -0.459108 0
M  V30 4437 H 447.864 2.30707 -1.9161 0
M  V30 4438 H 445.417 1.17807 -1.02719 0
M  V30 4439 H 446.152 3.20516 0.49397 0
M  V30 4440 H 445.937 3.7328 -1.20019 0
M  V30 4441 H 447.427 4.16454 -0.309099 0
M  V30 4442 N 447.864 1.01787 1.20321 0
M  V30 4443 C 449.111 0.707936 1.89722 0
M  V30 4444 C 449.439 -0.762535 1.78929 0
M  V30 4445 O 448.694 -1.56977 1.16861 0
M  V30 4446 C 448.993 1.09076 3.40349 0
M  V30 4447 C 448.659 2.55765 3.71342 0
M  V30 4448 C 447.321 2.95845 3.79511 0
M  V30 4449 C 449.673 3.50723 3.85542 0
M  V30 4450 C 447.001 4.2982 3.99339 0
M  V30 4451 C 449.353 4.84387 4.06881 0
M  V30 4452 C 448.017 5.24172 4.1328 0
M  V30 4453 H 447.287 0.259052 0.694243 0
M  V30 4454 H 449.934 1.27868 1.42555 0
M  V30 4455 H 448.239 0.438453 3.89339 0
M  V30 4456 H 449.936 0.828636 3.92345 0
M  V30 4457 H 446.526 2.2371 3.65584 0
M  V30 4458 H 450.71 3.20916 3.78585 0
M  V30 4459 H 445.966 4.60196 4.02529 0
M  V30 4460 H 450.14 5.57891 4.1681 0
M  V30 4461 H 447.767 6.27997 4.28396 0
M  V30 4462 N 449.342 -1.36122 0.79427 0
M  V30 4463 C 450.272 -2.32551 0.210328 0
M  V30 4464 C 451.253 -1.56884 -0.657386 0
M  V30 4465 O 452.438 -1.85014 -0.590207 0
M  V30 4466 C 449.568 -3.41128 -0.651819 0
M  V30 4467 C 448.522 -4.27842 0.116395 0
M  V30 4468 C 447.848 -5.2763 -0.86666 0
M  V30 4469 C 449.148 -5.05647 1.30837 0
M  V30 4470 H 450.842 -2.81636 1.01594 0
M  V30 4471 H 448.388 -1.35407 0.489981 0
M  V30 4472 H 450.341 -4.07581 -1.07031 0
M  V30 4473 H 449.065 -2.90622 -1.49019 0
M  V30 4474 H 447.724 -3.62952 0.515915 0
M  V30 4475 H 447.372 -4.73395 -1.70019 0
M  V30 4476 H 447.072 -5.86514 -0.35705 0
M  V30 4477 H 448.596 -5.96955 -1.28361 0
M  V30 4478 H 450.01 -5.65113 0.965393 0
M  V30 4479 H 448.407 -5.73967 1.75161 0
M  V30 4480 H 449.477 -4.37006 2.10128 0
M  V30 4481 N 450.82 -0.546701 -1.47814 0
M  V30 4482 C 452.097 0.0464413 -1.95545 0
M  V30 4483 C 452.477 1.4962 -1.48919 0
M  V30 4484 O 451.825 2.16752 -0.723232 0
M  V30 4485 C 452.035 -0.0881298 -3.48889 0
M  V30 4486 C 453.383 0.0626059 -4.24554 0
M  V30 4487 O 454.407 -0.0151555 -3.56197 0
M  V30 4488 O 453.266 0.228071 -5.46024 0
M  V30 4489 H 450.36 0.0700004 -0.824032 0
M  V30 4490 H 452.906 -0.612482 -1.58262 0
M  V30 4491 H 451.678 -1.09737 -3.75597 0
M  V30 4492 H 451.301 0.608886 -3.9291 0
M  V30 4493 N 452.299 1.55045 -0.282633 0
M  V30 4494 C 453.715 1.59441 0.0712997 0
M  V30 4495 C 453.915 1.2998 1.53972 0
M  V30 4496 O 452.971 1.06431 2.28973 0
M  V30 4497 C 454.284 2.99097 -0.310104 0
M  V30 4498 C 455.832 3.1194 -0.257343 0
M  V30 4499 C 456.307 4.53875 -0.613297 0
M  V30 4500 N 457.798 4.5974 -0.565134 0
M  V30 4501 C 458.533 5.67603 -0.81326 0
M  V30 4502 N 458.029 6.83582 -1.1264 0
M  V30 4503 N 459.822 5.57187 -0.741553 0
M  V30 4504 H 451.973 1.72458 -1.23984 0
M  V30 4505 H 454.236 0.804549 -0.501403 0
M  V30 4506 H 453.942 3.25516 -1.33163 0
M  V30 4507 H 453.816 3.75616 0.345366 0
M  V30 4508 H 456.203 2.85281 0.754905 0
M  V30 4509 H 456.284 2.37618 -0.947178 0
M  V30 4510 H 455.928 4.81261 -1.62327 0
M  V30 4511 H 455.858 5.26508 0.09841 0
M  V30 4512 H 458.349 3.76427 -0.333294 0
M  V30 4513 H 458.662 7.6175 -1.30219 0
M  V30 4514 H 457.007 6.85179 -1.16425 0
M  V30 4515 H 460.198 4.65457 -0.496705 0
M  V30 4516 H 460.371 6.41171 -0.938306 0
M  V30 4517 N 453.777 0.010035 1.57597 0
M  V30 4518 C 454.709 -1.00649 2.05918 0
M  V30 4519 C 455.722 -1.30077 0.978964 0
M  V30 4520 O 456.911 -1.26878 1.25556 0
M  V30 4521 C 454.011 -2.33876 2.45265 0
M  V30 4522 C 453.184 -2.23242 3.7614 0
M  V30 4523 C 452.243 -3.39242 4.02245 0
M  V30 4524 O 451.269 -3.1698 4.72771 0
M  V30 4525 N 452.471 -4.6242 3.50924 0
M  V30 4526 H 455.236 -0.594333 2.93748 0
M  V30 4527 H 452.797 -0.17714 1.60928 0
M  V30 4528 H 454.789 -3.1027 2.59836 0
M  V30 4529 H 453.359 -2.66799 1.62902 0
M  V30 4530 H 452.579 -1.31696 3.71551 0
M  V30 4531 H 453.867 -2.13321 4.61922 0
M  V30 4532 H 453.265 -4.83404 2.93832 0
M  V30 4533 H 451.822 -5.36046 3.70807 0
M  V30 4534 N 455.255 -1.55392 -0.262866 0
M  V30 4535 C 456.671 -1.47459 -0.610582 0
M  V30 4536 C 456.871 -0.697031 -1.8906 0
M  V30 4537 O 455.927 -0.219952 -2.5154 0
M  V30 4538 C 457.24 -2.91751 -0.728131 0
M  V30 4539 C 458.788 -3.02027 -0.821517 0
M  V30 4540 C 459.263 -4.47594 -0.97076 0
M  V30 4541 N 460.754 -4.51465 -1.03603 0
M  V30 4542 C 461.489 -5.61326 -1.17049 0
M  V30 4543 N 460.985 -6.81032 -1.2715 0
M  V30 4544 N 462.778 -5.49089 -1.20239 0
M  V30 4545 H 454.929 -2.04395 0.577632 0
M  V30 4546 H 457.192 -0.927287 0.197086 0
M  V30 4547 H 456.898 -3.51413 0.142132 0
M  V30 4548 H 456.772 -3.4134 -1.6052 0
M  V30 4549 H 459.159 -2.42456 -1.68224 0
M  V30 4550 H 459.24 -2.55674 0.0803688 0
M  V30 4551 H 458.884 -5.07771 -0.114655 0
M  V30 4552 H 458.814 -4.91613 -1.88745 0
M  V30 4553 H 461.305 -3.6524 -0.96996 0
M  V30 4554 H 461.618 -7.60511 -1.37271 0
M  V30 4555 H 459.963 -6.83824 -1.24136 0
M  V30 4556 H 463.154 -4.54507 -1.11985 0
M  V30 4557 H 463.327 -6.34749 -1.30373 0
M  V30 4558 O 456.772 0.408595 -1.56246 0
M  V30 4559 H 457.463 1.06117 -1.62046 0
M  V30 END ATOM
M  V30 BEGIN BOND
M  V30 END BOND
M  V30 END CTAB
M  END
$$$$
