drugbank_target|P08887 Interleukin-6 receptor subunit alpha (DB06273; DB11767; DB15762)
 OpenBabel12092120263D

  0  0  0     0  0            999 V3000
M  V30 BEGIN CTAB
M  V30 COUNTS 7197 7302 0 0 0
M  V30 BEGIN ATOM
M  V30 1 H -0.908 1.98254 -0.117106 0
M  V30 2 N 0 1.576 0 0
M  V30 3 C 0.933 2.03868 1.02534 0
M  V30 4 C 1.911 0.928543 1.3348 0
M  V30 5 O 3.095 1.19667 1.45644 0
M  V30 6 C 0.222 2.43627 2.35294 0
M  V30 7 C -0.732 3.65373 2.2001 0
M  V30 8 S 0.101 5.13292 1.52614 0
M  V30 9 C 1.257 5.56322 2.86805 0
M  V30 10 H 1.49 2.90518 0.631377 0
M  V30 11 H -0.977 1.52953 0.210867 0
M  V30 12 H 0.981 2.67203 3.11629 0
M  V30 13 H -0.358 1.57376 2.7183 0
M  V30 14 H -1.165 3.90944 3.18086 0
M  V30 15 H -1.563 3.418 1.51819 0
M  V30 16 H 0.729 5.58782 3.83104 0
M  V30 17 H 1.672 6.56266 2.65933 0
M  V30 18 H 2.08 4.83886 2.90714 0
M  V30 19 N 1.4781 -0.272755 1.55222 0
M  V30 20 C 2.4081 -1.34136 1.91127 0
M  V30 21 C 3.3891 -1.51513 0.773168 0
M  V30 22 O 4.5741 -1.64552 1.03132 0
M  V30 23 C 1.7041 -2.70083 2.1834 0
M  V30 24 C 0.6581 -2.67437 3.34158 0
M  V30 25 C -0.0159 -4.06938 3.46851 0
M  V30 26 C 1.2841 -2.26686 4.70543 0
M  V30 27 H 2.9781 -1.04333 2.80633 0
M  V30 28 H 0.5241 -0.500454 1.35024 0
M  V30 29 H 2.4771 -3.44952 2.42046 0
M  V30 30 H 1.2011 -3.01469 1.25634 0
M  V30 31 H -0.1399 -1.95026 3.1042 0
M  V30 32 H -0.4919 -4.35547 2.51611 0
M  V30 33 H -0.7919 -4.06062 4.2472 0
M  V30 34 H 0.7321 -4.83545 3.72849 0
M  V30 35 H 2.1461 -2.91277 4.93792 0
M  V30 36 H 0.5431 -2.36971 5.5133 0
M  V30 37 H 1.6131 -1.21818 4.69349 0
M  V30 38 N 2.9562 -1.48159 -0.537278 0
M  V30 39 C 3.9192 -1.61665 -1.62472 0
M  V30 40 C 4.9192 -0.490395 -1.5314 0
M  V30 41 O 6.1092 -0.755998 -1.5694 0
M  V30 42 C 3.2412 -1.57997 -3.02076 0
M  V30 43 H 4.4342 -2.58621 -1.51839 0
M  V30 44 H 1.9872 -1.36647 -0.758771 0
M  V30 45 H 2.7222 -0.624913 -3.18222 0
M  V30 46 H 2.5072 -2.39755 -3.10258 0
M  V30 47 H 3.9972 -1.70627 -3.81151 0
M  V30 48 N 4.4343 0.785586 -1.36625 0
M  V30 49 C 5.6803 1.54591 -1.31261 0
M  V30 50 C 6.0133 1.93906 0.106823 0
M  V30 51 O 5.2883 1.63007 1.06108 0
M  V30 52 C 5.5713 2.82038 -2.23889 0
M  V30 53 C 5.4243 2.49066 -3.74548 0
M  V30 54 C 6.7433 3.83887 -2.15217 0
M  V30 55 H 3.8623 0.560846 -0.478143 0
M  V30 56 H 6.5043 0.902278 -1.67209 0
M  V30 57 H 4.6543 3.36961 -1.93363 0
M  V30 58 H 6.3263 2.00164 -4.15611 0
M  V30 59 H 4.5693 1.81954 -3.93796 0
M  V30 60 H 5.2403 3.40109 -4.34776 0
M  V30 61 H 7.7163 3.38421 -2.42096 0
M  V30 62 H 6.5923 4.70806 -2.82193 0
M  V30 63 H 6.8533 4.27131 -1.14068 0
M  V30 64 N 5.9124 1.20967 1.01018 0
M  V30 65 C 7.1604 1.02172 1.74371 0
M  V30 66 C 7.4814 -0.446414 1.89821 0
M  V30 67 O 6.7514 -1.32234 1.44537 0
M  V30 68 H 5.3314 0.375066 0.646014 0
M  V30 69 H 7.9934 1.52187 1.21758 0
M  V30 70 H 7.0894 1.48538 2.74487 0
M  V30 71 N 7.3905 -1.2043 1.01659 0
M  V30 72 C 8.6305 -1.91507 0.714456 0
M  V30 73 C 8.9945 -1.77073 -0.742237 0
M  V30 74 O 10.1955 -2.42631 -1.15688 0
M  V30 75 C 8.4665 -3.38795 1.13809 0
M  V30 76 S 10.0255 -4.28216 0.957925 0
M  V30 77 H 6.8435 -0.661571 0.260471 0
M  V30 78 H 9.4455 -1.45671 1.30384 0
M  V30 79 H 8.1495 -3.46822 2.19415 0
M  V30 80 H 7.6805 -3.89656 0.541474 0
M  V30 81 H 9.6955 -4.96007 -0.138531 0
M  V30 82 N 8.8686 -0.792821 -1.36206 0
M  V30 83 C 9.8316 -0.199459 -2.2833 0
M  V30 84 C 10.8316 0.605189 -1.48977 0
M  V30 85 O 12.0216 0.425685 -1.68919 0
M  V30 86 C 9.1536 0.723523 -3.33134 0
M  V30 87 H 10.3466 -1.01181 -2.82316 0
M  V30 88 H 7.8996 -0.562485 -1.45828 0
M  V30 89 H 8.6346 1.56008 -2.84309 0
M  V30 90 H 8.4196 0.148436 -3.91819 0
M  V30 91 H 9.9096 1.13344 -4.01924 0
M  V30 92 N 10.3467 1.47872 -0.545128 0
M  V30 93 C 11.2767 2.32661 0.197793 0
M  V30 94 C 12.2577 1.43041 0.920504 0
M  V30 95 O 13.4427 1.71912 0.90333 0
M  V30 96 C 10.5727 3.24569 1.23582 0
M  V30 97 C 9.5267 4.23333 0.630323 0
M  V30 98 C 8.8527 5.0448 1.77211 0
M  V30 99 C 10.1527 5.20704 -0.407974 0
M  V30 100 H 11.8467 2.95024 -0.510045 0
M  V30 101 H 9.3927 1.4187 -0.246731 0
M  V30 102 H 11.3457 3.8272 1.76362 0
M  V30 103 H 10.0697 2.60236 1.97344 0
M  V30 104 H 8.7287 3.6639 0.123922 0
M  V30 105 H 8.3767 4.36561 2.49847 0
M  V30 106 H 8.0767 5.71339 1.37281 0
M  V30 107 H 9.6007 5.65487 2.3034 0
M  V30 108 H 11.0147 5.7329 0.033305 0
M  V30 109 H 9.4117 5.95699 -0.725486 0
M  V30 110 H 10.4817 4.66917 -1.30828 0
M  V30 111 N 11.8248 0.280983 1.55075 0
M  V30 112 C 12.7548 -0.597469 2.25727 0
M  V30 113 C 13.7358 -1.15417 1.24952 0
M  V30 114 O 14.9208 -1.18722 1.53684 0
M  V30 115 C 12.0508 -1.7789 2.98283 0
M  V30 116 C 11.0048 -1.35347 4.06036 0
M  V30 117 C 10.3308 -2.61846 4.66198 0
M  V30 118 C 11.6308 -0.499354 5.19907 0
M  V30 119 H 13.3248 -0.00824265 2.99399 0
M  V30 120 H 10.8708 -0.0025244 1.44 0
M  V30 121 H 12.8238 -2.39937 3.46422 0
M  V30 122 H 11.5478 -2.39405 2.22155 0
M  V30 123 H 10.2068 -0.756156 3.58717 0
M  V30 124 H 9.8548 -3.21632 3.86732 0
M  V30 125 H 9.5548 -2.3409 5.38958 0
M  V30 126 H 11.0788 -3.24732 5.1709 0
M  V30 127 H 12.4928 -1.02498 5.64063 0
M  V30 128 H 10.8898 -0.316424 5.99265 0
M  V30 129 H 11.9598 0.480459 4.82514 0
M  V30 130 N 13.3029 -1.57598 0.00835791 0
M  V30 131 C 14.2659 -2.07884 -0.965242 0
M  V30 132 C 15.2659 -0.989825 -1.26725 0
M  V30 133 O 16.4559 -1.25218 -1.21104 0
M  V30 134 C 13.5879 -2.52731 -2.28779 0
M  V30 135 H 14.7809 -2.95178 -0.530112 0
M  V30 136 H 12.3339 -1.54458 -0.239283 0
M  V30 137 H 13.0689 -1.68705 -2.76964 0
M  V30 138 H 12.8539 -3.32272 -2.08177 0
M  V30 139 H 14.3439 -2.91933 -2.98605 0
M  V30 140 N 14.781 0.264519 -1.55364 0
M  V30 141 C 15.744 1.31046 -1.88042 0
M  V30 142 C 16.744 1.41943 -0.755569 0
M  V30 143 O 17.934 1.40947 -1.02369 0
M  V30 144 C 15.066 2.69067 -2.09323 0
M  V30 145 H 16.259 1.03297 -2.81549 0
M  V30 146 H 13.812 0.502989 -1.47986 0
M  V30 147 H 14.547 3.01982 -1.18226 0
M  V30 148 H 14.332 2.62542 -2.91229 0
M  V30 149 H 15.822 3.44623 -2.35848 0
M  V30 150 N 16.2591 1.48442 0.529413 0
M  V30 151 C 17.1891 1.65902 1.64313 0
M  V30 152 C 18.1701 0.507897 1.6234 0
M  V30 153 O 19.3551 0.740503 1.79528 0
M  V30 154 C 16.4851 1.69911 3.02898 0
M  V30 155 C 15.4391 2.8453 3.19729 0
M  V30 156 C 14.7651 2.73629 4.59381 0
M  V30 157 C 16.0651 4.25821 3.02447 0
M  V30 158 H 17.7591 2.5914 1.49955 0
M  V30 159 H 15.3051 1.24709 0.719982 0
M  V30 160 H 17.2581 1.80715 3.80684 0
M  V30 161 H 15.9821 0.732524 3.18279 0
M  V30 162 H 14.6411 2.73283 2.44361 0
M  V30 163 H 14.2891 1.74938 4.71599 0
M  V30 164 H 13.9891 3.50541 4.71588 0
M  V30 165 H 15.5131 2.86401 5.39265 0
M  V30 166 H 16.9271 4.37898 3.70024 0
M  V30 167 H 15.3241 5.03735 3.26146 0
M  V30 168 H 16.3941 4.42244 1.98867 0
M  V30 169 N 17.7372 -0.778329 1.37039 0
M  V30 170 C 18.6672 -1.90546 1.34962 0
M  V30 171 C 19.6482 -1.68681 0.219274 0
M  V30 172 O 20.8332 -1.89634 0.418624 0
M  V30 173 C 17.9632 -3.27734 1.14925 0
M  V30 174 C 16.9172 -3.64147 2.24902 0
M  V30 175 C 16.2432 -4.99806 1.89996 0
M  V30 176 C 17.5432 -3.71579 3.67051 0
M  V30 177 H 19.2372 -1.92541 2.29277 0
M  V30 178 H 16.7832 -0.924948 1.10366 0
M  V30 179 H 18.7362 -4.06215 1.12104 0
M  V30 180 H 17.4602 -3.26154 0.170631 0
M  V30 181 H 16.1192 -2.8797 2.26868 0
M  V30 182 H 15.7672 -4.94759 0.906796 0
M  V30 183 H 15.4672 -5.25139 2.63634 0
M  V30 184 H 16.9912 -5.80694 1.88749 0
M  V30 185 H 18.4052 -4.40227 3.67251 0
M  V30 186 H 16.8022 -4.08405 4.39688 0
M  V30 187 H 17.8722 -2.72404 4.01154 0
M  V30 188 N 19.2153 -1.21501 -1.00376 0
M  V30 189 C 20.1783 -0.976927 -2.07337 0
M  V30 190 C 21.1783 0.0525322 -1.60714 0
M  V30 191 O 22.3683 -0.184869 -1.73216 0
M  V30 192 C 19.5003 -0.473423 -3.37597 0
M  V30 193 H 20.6933 -1.92587 -2.29892 0
M  V30 194 H 18.2463 -1.03217 -1.17371 0
M  V30 195 H 18.9813 0.480379 -3.20722 0
M  V30 196 H 18.7663 -1.216 -3.72768 0
M  V30 197 H 20.2563 -0.32675 -4.1632 0
M  V30 198 N 20.6934 1.19889 -1.02296 0
M  V30 199 C 21.6564 2.21116 -0.603351 0
M  V30 200 C 22.6564 1.5738 0.329884 0
M  V30 201 O 23.8464 1.73802 0.117702 0
M  V30 202 C 20.9784 3.40696 0.117992 0
M  V30 203 H 22.1714 2.59754 -1.49893 0
M  V30 204 H 19.7244 1.33463 -0.813468 0
M  V30 205 H 20.4594 3.07569 1.0282 0
M  V30 206 H 20.2444 3.88188 -0.552511 0
M  V30 207 H 21.7344 4.15692 0.398696 0
M  V30 208 N 22.1715 0.800033 1.35784 0
M  V30 209 C 23.5825 0.439142 1.81462 0
M  V30 210 C 23.9335 -1.03813 1.66485 0
M  V30 211 O 23.0585 -1.80626 1.19177 0
M  V30 212 C 23.6535 0.790314 3.29453 0
M  V30 213 C 22.2125 0.482111 3.733 0
M  V30 214 C 21.3595 1.01938 2.57883 0
M  V30 215 H 24.3105 0.992254 1.23855 0
M  V30 216 H 24.3315 0.0853677 3.80404 0
M  V30 217 H 23.8435 1.86554 3.40322 0
M  V30 218 H 21.9445 -0.584652 3.67984 0
M  V30 219 H 22.0575 1.01015 4.6833 0
M  V30 220 H 20.4215 0.442043 2.50835 0
M  V30 221 H 21.2045 2.10059 2.71533 0
M  V30 222 N 23.6496 -1.47581 0.552962 0
M  V30 223 C 24.8976 -2.02082 0.0272703 0
M  V30 224 C 25.2186 -1.4301 -1.32563 0
M  V30 225 O 24.4886 -0.603745 -1.86365 0
M  V30 226 H 23.0686 -0.746966 0.00709182 0
M  V30 227 H 25.7306 -1.81033 0.722008 0
M  V30 228 H 24.8266 -3.12034 -0.0639951 0
M  V30 229 N 25.1277 -0.289203 -1.54924 0
M  V30 230 C 26.0907 0.579144 -2.21762 0
M  V30 231 C 27.0907 1.07047 -1.1999 0
M  V30 232 O 28.2807 0.968384 -1.44803 0
M  V30 233 C 25.4127 1.80055 -2.8947 0
M  V30 234 H 26.6057 -0.00464908 -2.999 0
M  V30 235 H 24.1587 -0.0399306 -1.56249 0
M  V30 236 H 24.8937 2.42449 -2.15381 0
M  V30 237 H 24.6787 1.45602 -3.64064 0
M  V30 238 H 26.1687 2.41773 -3.40493 0
M  V30 239 N 26.6058 1.57591 -0.0167156 0
M  V30 240 C 27.5688 2.08393 0.954204 0
M  V30 241 C 28.5688 0.996531 1.26198 0
M  V30 242 O 29.7588 1.25858 1.20438 0
M  V30 243 C 26.8908 2.5394 2.27436 0
M  V30 244 H 28.0838 2.95455 0.514451 0
M  V30 245 H 25.6368 1.54582 0.231089 0
M  V30 246 H 26.3718 1.70171 2.76066 0
M  V30 247 H 26.1568 3.33371 2.06412 0
M  V30 248 H 27.6468 2.93512 2.97053 0
M  V30 249 N 28.0839 -0.256276 1.55502 0
M  V30 250 C 29.0139 -1.32102 1.92539 0
M  V30 251 C 29.9949 -1.50684 0.789194 0
M  V30 252 O 31.1799 -1.63449 1.04872 0
M  V30 253 C 28.3099 -2.67752 2.21192 0
M  V30 254 C 27.2639 -2.63878 3.36975 0
M  V30 255 C 26.5899 -4.03236 3.51147 0
M  V30 256 C 27.8899 -2.21682 4.72921 0
M  V30 257 H 29.5839 -1.01351 2.81724 0
M  V30 258 H 27.1299 -0.486105 1.35547 0
M  V30 259 H 29.0829 -3.42365 2.45691 0
M  V30 260 H 27.8069 -3.0012 1.28824 0
M  V30 261 H 26.4659 -1.91722 3.12471 0
M  V30 262 H 26.1139 -4.32854 2.56216 0
M  V30 263 H 25.8139 -4.01535 4.29003 0
M  V30 264 H 27.3379 -4.79563 3.77957 0
M  V30 265 H 28.7519 -2.86023 4.96854 0
M  V30 266 H 27.1489 -2.3111 5.53812 0
M  V30 267 H 28.2189 -1.16833 4.70615 0
M  V30 268 N 29.562 -1.4872 -0.521534 0
M  V30 269 C 30.525 -1.63379 -1.60748 0
M  V30 270 C 31.525 -0.50661 -1.52611 0
M  V30 271 O 32.715 -0.772601 -1.5613 0
M  V30 272 C 29.847 -1.61192 -3.00383 0
M  V30 273 H 31.04 -2.60217 -1.49087 0
M  V30 274 H 28.593 -1.37444 -0.744235 0
M  V30 275 H 29.328 -0.65863 -3.17541 0
M  V30 276 H 29.113 -2.43032 -3.07698 0
M  V30 277 H 30.603 -1.7466 -3.7932 0
M  V30 278 N 31.0401 0.771051 -1.3745 0
M  V30 279 C 32.4511 1.34737 -1.29239 0
M  V30 280 C 32.8021 1.96109 0.0596908 0
M  V30 281 O 31.9271 1.93865 0.961534 0
M  V30 282 C 32.5221 2.44973 -2.34037 0
M  V30 283 C 31.0811 2.98372 -2.29458 0
M  V30 284 C 30.2281 1.71595 -2.17831 0
M  V30 285 H 33.1791 0.571256 -1.48062 0
M  V30 286 H 33.2001 3.24471 -1.98744 0
M  V30 287 H 32.7121 2.00276 -3.32432 0
M  V30 288 H 30.8131 3.47443 -1.34589 0
M  V30 289 H 30.9261 3.53939 -3.229 0
M  V30 290 H 29.2901 1.94547 -1.64388 0
M  V30 291 H 30.0731 1.29001 -3.18141 0
M  V30 292 N 32.5182 1.22032 0.997298 0
M  V30 293 C 33.9342 0.979326 1.26021 0
M  V30 294 C 34.1342 -0.32972 1.98784 0
M  V30 295 O 33.1902 -1.05345 2.29475 0
M  V30 296 C 34.5032 2.17509 2.07631 0
M  V30 297 C 36.0512 2.21817 2.2083 0
M  V30 298 C 36.5262 3.40933 3.05825 0
M  V30 299 N 38.0172 3.41067 3.13412 0
M  V30 300 C 38.7522 4.29885 3.79455 0
M  V30 301 N 38.2482 5.28914 4.47462 0
M  V30 302 N 40.0412 4.17673 3.76173 0
M  V30 303 H 32.1922 2.06202 0.509352 0
M  V30 304 H 34.4552 0.90334 0.287541 0
M  V30 305 H 34.1612 3.12415 1.61524 0
M  V30 306 H 34.0352 2.17206 3.08385 0
M  V30 307 H 36.4222 1.27462 2.66153 0
M  V30 308 H 36.5032 2.2616 1.1952 0
M  V30 309 H 36.1472 4.35586 2.61203 0
M  V30 310 H 36.0772 3.33829 4.07266 0
M  V30 311 H 38.5682 2.69406 2.65007 0
M  V30 312 H 38.8812 5.92973 4.95583 0
M  V30 313 H 37.2262 5.32831 4.46224 0
M  V30 314 H 40.4172 3.39564 3.22202 0
M  V30 315 H 40.5902 4.87098 4.27363 0
M  V30 316 N 33.9963 -1.19345 1.0293 0
M  V30 317 C 35.4123 -1.41069 0.746446 0
M  V30 318 C 35.6123 -1.90078 -0.668776 0
M  V30 319 O 34.6683 -2.0778 -1.4347 0
M  V30 320 C 35.9813 -2.42141 1.78292 0
M  V30 321 C 37.5293 -2.55887 1.80252 0
M  V30 322 C 38.0043 -3.60214 2.8286 0
M  V30 323 N 39.4953 -3.67711 2.81679 0
M  V30 324 C 40.2303 -4.48128 3.57727 0
M  V30 325 N 39.7263 -5.32248 4.43491 0
M  V30 326 N 41.5193 -4.42782 3.46267 0
M  V30 327 H 33.6703 -0.858536 1.94275 0
M  V30 328 H 35.9333 -0.439541 0.839945 0
M  V30 329 H 35.6393 -2.13155 2.79746 0
M  V30 330 H 35.5133 -3.41323 1.60557 0
M  V30 331 H 37.9003 -2.84196 0.794757 0
M  V30 332 H 37.9813 -1.56858 2.02062 0
M  V30 333 H 37.6253 -3.32647 3.83807 0
M  V30 334 H 37.5553 -4.58895 2.58307 0
M  V30 335 H 40.0463 -3.07634 2.19476 0
M  V30 336 H 40.3593 -5.90729 4.98256 0
M  V30 337 H 38.7043 -5.31707 4.47564 0
M  V30 338 H 41.8953 -3.76107 2.78677 0
M  V30 339 H 42.0683 -5.05215 4.05785 0
M  V30 340 N 35.4744 -0.807222 -1.35358 0
M  V30 341 C 36.7144 -0.393534 -2.00576 0
M  V30 342 C 37.0784 1.0203 -1.62647 0
M  V30 343 O 38.2794 1.53603 -2.20589 0
M  V30 344 C 36.5504 -0.572017 -3.52793 0
M  V30 345 S 38.1094 -0.248845 -4.38094 0
M  V30 346 H 34.9274 -0.149425 -0.695121 0
M  V30 347 H 37.5294 -1.04961 -1.64935 0
M  V30 348 H 36.2334 -1.60097 -3.77885 0
M  V30 349 H 35.7644 0.099359 -3.93275 0
M  V30 350 H 37.7794 0.943253 -4.87152 0
M  V30 351 N 36.9525 1.47285 -0.560781 0
M  V30 352 C 38.3635 1.86258 -0.128343 0
M  V30 353 C 38.7145 1.46699 1.30284 0
M  V30 354 O 37.8395 0.871698 1.98067 0
M  V30 355 C 38.4345 3.38044 -0.22614 0
M  V30 356 C 36.9935 3.76096 0.151283 0
M  V30 357 C 36.1405 2.71335 -0.572084 0
M  V30 358 H 39.0915 1.38752 -0.770297 0
M  V30 359 H 39.1125 3.76441 0.554322 0
M  V30 360 H 38.6245 3.66806 -1.26788 0
M  V30 361 H 36.7255 3.52951 1.19399 0
M  V30 362 H 36.8385 4.78641 -0.209765 0
M  V30 363 H 35.2025 2.54696 -0.0147653 0
M  V30 364 H 35.9855 3.02938 -1.61504 0
M  V30 365 N 38.4306 0.297415 1.54768 0
M  V30 366 C 39.3936 -0.567375 2.22066 0
M  V30 367 C 40.3936 -1.06409 1.20556 0
M  V30 368 O 41.5836 -0.960691 1.45315 0
M  V30 369 C 38.7156 -1.78517 2.90421 0
M  V30 370 H 39.9086 0.0205534 2.99893 0
M  V30 371 H 37.4616 0.0482163 1.56226 0
M  V30 372 H 38.1966 -2.41303 2.16664 0
M  V30 373 H 37.9816 -1.43669 3.64831 0
M  V30 374 H 39.4716 -2.39964 3.41771 0
M  V30 375 N 39.9087 -1.5758 0.0250728 0
M  V30 376 C 40.8407 -2.06869 -0.986796 0
M  V30 377 C 41.8537 -0.991332 -1.29137 0
M  V30 378 O 43.0427 -1.26761 -1.25674 0
M  V30 379 C 40.1427 -2.47486 -2.31525 0
M  V30 380 C 39.3157 -3.78253 -2.19643 0
M  V30 381 C 38.3747 -4.05464 -3.35388 0
M  V30 382 O 37.4007 -4.75774 -3.12454 0
M  V30 383 N 38.6027 -3.55321 -4.59051 0
M  V30 384 H 41.3677 -2.94302 -0.566276 0
M  V30 385 H 38.9287 -1.6109 -0.161776 0
M  V30 386 H 40.9207 -2.62785 -3.07776 0
M  V30 387 H 39.4907 -1.65441 -2.65232 0
M  V30 388 H 38.7107 -3.7279 -1.28144 0
M  V30 389 H 39.9987 -4.63936 -2.08903 0
M  V30 390 H 39.3967 -2.98431 -4.80578 0
M  V30 391 H 37.9537 -3.75905 -5.32483 0
M  V30 392 N 41.3868 0.248026 -1.55636 0
M  V30 393 C 42.2968 1.32859 -1.93354 0
M  V30 394 C 43.3128 1.52719 -0.833838 0
M  V30 395 O 44.4888 1.66363 -1.13513 0
M  V30 396 C 41.5538 2.66337 -2.21958 0
M  V30 397 C 40.6148 2.55008 -3.45354 0
M  V30 398 C 39.8478 3.82121 -3.72584 0
M  V30 399 O 40.0708 4.83951 -3.01907 0
M  V30 400 O 39.0048 3.80822 -4.6611 0
M  V30 401 H 42.8308 1.03862 -2.85388 0
M  V30 402 H 40.4158 0.448686 -1.42503 0
M  V30 403 H 42.2978 3.45216 -2.4167 0
M  V30 404 H 40.9728 2.95068 -1.33103 0
M  V30 405 H 39.8798 1.7442 -3.30951 0
M  V30 406 H 41.2128 2.31222 -4.34508 0
M  V30 407 N 42.8649 1.48995 0.513639 0
M  V30 408 C 44.1109 1.58076 1.27042 0
M  V30 409 C 44.4439 0.261026 1.92438 0
M  V30 410 O 43.7189 -0.734393 1.80103 0
M  V30 411 C 44.0019 2.73091 2.34719 0
M  V30 412 C 43.8549 4.14821 1.73907 0
M  V30 413 C 45.1739 2.83796 3.36375 0
M  V30 414 H 42.2929 0.575391 0.460536 0
M  V30 415 H 44.9349 1.81232 0.570516 0
M  V30 416 H 43.0849 2.53479 2.94416 0
M  V30 417 H 44.7569 4.45917 1.18135 0
M  V30 418 H 42.9999 4.21058 1.0437 0
M  V30 419 H 43.6709 4.91147 2.51949 0
M  V30 420 H 46.1469 3.01611 2.86653 0
M  V30 421 H 45.0229 3.65971 4.09093 0
M  V30 422 H 45.2839 1.92624 3.9793 0
M  V30 423 N 44.343 -0.763751 1.37857 0
M  V30 424 C 45.306 -1.85889 1.34081 0
M  V30 425 C 46.306 -1.58949 0.243277 0
M  V30 426 O 47.496 -1.66882 0.499589 0
M  V30 427 C 44.628 -3.23176 1.08489 0
M  V30 428 H 45.821 -1.90648 2.31502 0
M  V30 429 H 43.374 -0.964367 1.23003 0
M  V30 430 H 44.109 -3.24091 0.116318 0
M  V30 431 H 43.894 -3.44124 1.8794 0
M  V30 432 H 45.384 -4.03254 1.08517 0
M  V30 433 N 45.8211 -1.22559 -0.990812 0
M  V30 434 C 47.2371 -0.985996 -1.255 0
M  V30 435 C 47.4371 0.319173 -1.98956 0
M  V30 436 O 46.4931 1.04127 -2.3003 0
M  V30 437 C 47.8061 -2.18607 -2.06474 0
M  V30 438 C 49.3541 -2.22985 -2.19651 0
M  V30 439 C 49.8291 -3.4255 -3.04012 0
M  V30 440 N 51.3201 -3.42725 -3.11599 0
M  V30 441 C 52.0551 -4.31892 -3.7717 0
M  V30 442 N 51.5511 -5.31279 -4.44651 0
M  V30 443 N 53.3441 -4.19662 -3.73952 0
M  V30 444 H 45.4951 -2.06469 -0.49841 0
M  V30 445 H 47.7581 -0.904853 -0.282747 0
M  V30 446 H 47.4641 -3.13267 -1.59865 0
M  V30 447 H 47.3381 -2.18838 -3.07229 0
M  V30 448 H 49.7251 -1.28871 -2.65474 0
M  V30 449 H 49.8061 -2.26791 -1.18319 0
M  V30 450 H 49.4501 -4.36965 -2.58889 0
M  V30 451 H 49.3801 -3.35984 -4.0549 0
M  V30 452 H 51.8711 -2.70807 -2.63575 0
M  V30 453 H 52.1841 -5.95593 -4.92431 0
M  V30 454 H 50.5291 -5.3519 -4.43392 0
M  V30 455 H 53.7201 -3.41268 -3.20396 0
M  V30 456 H 53.8931 -4.89358 -4.24774 0
M  V30 457 N 47.2992 1.18797 -1.03562 0
M  V30 458 C 48.5472 1.88278 -0.734569 0
M  V30 459 C 48.8682 1.8043 0.739586 0
M  V30 460 O 48.1382 1.21925 1.53333 0
M  V30 461 H 46.7182 0.696991 -0.268725 0
M  V30 462 H 49.3802 1.44192 -1.31129 0
M  V30 463 H 48.4762 2.94443 -1.03489 0
M  V30 464 N 48.7773 0.814389 1.34928 0
M  V30 465 C 50.0233 0.399013 1.98836 0
M  V30 466 C 50.3563 -1.03314 1.64438 0
M  V30 467 O 49.6313 -1.71811 0.911659 0
M  V30 468 C 49.9143 0.591629 3.55207 0
M  V30 469 C 49.7673 2.06928 3.99376 0
M  V30 470 C 51.0863 0.022199 4.40094 0
M  V30 471 H 48.2053 0.146451 0.722303 0
M  V30 472 H 50.8473 1.02537 1.59957 0
M  V30 473 H 48.9973 0.0584441 3.88456 0
M  V30 474 H 50.6693 2.66544 3.76499 0
M  V30 475 H 48.9123 2.56287 3.49999 0
M  V30 476 H 49.5833 2.1549 5.08201 0
M  V30 477 H 52.0593 0.477643 4.13349 0
M  V30 478 H 50.9353 0.186832 5.48582 0
M  V30 479 H 51.1963 -1.07215 4.28902 0
M  V30 480 N 50.2554 -1.46986 0.568584 0
M  V30 481 C 51.1854 -2.32946 -0.160753 0
M  V30 482 C 52.1664 -1.44487 -0.897631 0
M  V30 483 O 53.3514 -1.73327 -0.875867 0
M  V30 484 C 50.4814 -3.26494 -1.18403 0
M  V30 485 C 49.4354 -4.24282 -0.562895 0
M  V30 486 C 48.7614 -5.07236 -1.69163 0
M  V30 487 C 50.0614 -5.19989 0.490761 0
M  V30 488 H 51.7554 -2.94175 0.556916 0
M  V30 489 H 49.3014 -1.4146 0.26927 0
M  V30 490 H 51.2544 -3.85477 -1.70251 0
M  V30 491 H 49.9784 -2.63343 -1.93179 0
M  V30 492 H 48.6374 -3.66541 -0.0656164 0
M  V30 493 H 48.2854 -4.4048 -2.42871 0
M  V30 494 H 47.9854 -5.7345 -1.28174 0
M  V30 495 H 49.5094 -5.6908 -2.21314 0
M  V30 496 H 50.9234 -5.73271 0.0579047 0
M  V30 497 H 49.3204 -5.94469 0.820165 0
M  V30 498 H 50.3904 -4.64777 1.3824 0
M  V30 499 N 51.7335 -0.305618 -1.54608 0
M  V30 500 C 52.9615 0.304775 -2.04643 0
M  V30 501 C 53.3765 1.47167 -1.18268 0
M  V30 502 O 52.7335 1.81296 -0.209328 0
M  V30 503 C 52.7845 0.756564 -3.53495 0
M  V30 504 O 52.5055 -0.36389 -4.36586 0
M  V30 505 C 54.0065 1.43163 -4.19546 0
M  V30 506 H 51.2265 0.0655481 -0.667791 0
M  V30 507 H 53.7705 -0.446592 -1.99564 0
M  V30 508 H 51.9255 1.45794 -3.58919 0
M  V30 509 H 52.3395 -0.0113121 -5.24499 0
M  V30 510 H 53.8135 1.69886 -5.25207 0
M  V30 511 H 54.2905 2.37318 -3.69563 0
M  V30 512 H 54.8965 0.773307 -4.18211 0
M  V30 513 N 53.2116 1.57565 -0.0334293 0
M  V30 514 C 54.4366 1.96689 0.657895 0
M  V30 515 C 54.8616 0.910057 1.64619 0
M  V30 516 O 54.2196 -0.128598 1.80843 0
M  V30 517 C 54.2676 3.34905 1.33683 0
M  V30 518 O 53.3716 3.31574 2.45219 0
M  V30 519 H 52.7126 0.641205 0.172489 0
M  V30 520 H 55.2426 2.04372 -0.0965621 0
M  V30 521 H 55.2526 3.71234 1.69262 0
M  V30 522 H 53.9276 4.11366 0.612411 0
M  V30 523 H 52.5046 3.06968 2.11719 0
M  V30 524 N 54.6897 -0.239769 1.55765 0
M  V30 525 C 55.6197 -1.30052 1.9393 0
M  V30 526 C 56.6007 -1.49839 0.805132 0
M  V30 527 O 57.7857 -1.62328 1.06599 0
M  V30 528 C 54.9157 -2.65391 2.2402 0
M  V30 529 C 53.8697 -2.60289 3.39755 0
M  V30 530 C 53.1957 -3.99489 3.55405 0
M  V30 531 C 54.4957 -2.16654 4.75246 0
M  V30 532 H 56.1897 -0.983573 2.82783 0
M  V30 533 H 53.7357 -0.471701 1.36055 0
M  V30 534 H 55.6887 -3.3974 2.49308 0
M  V30 535 H 54.4127 -2.98736 1.32 0
M  V30 536 H 53.0717 -1.88398 3.14487 0
M  V30 537 H 52.7197 -4.30112 2.60793 0
M  V30 538 H 52.4197 -3.96962 4.33238 0
M  V30 539 H 53.9437 -4.75528 3.83022 0
M  V30 540 H 55.3577 -2.80737 4.99859 0
M  V30 541 H 53.7547 -2.25223 5.56232 0
M  V30 542 H 54.8247 -1.11835 4.71827 0
M  V30 543 N 56.1678 -1.49265 -0.50573 0
M  V30 544 C 57.5788 -1.51769 -1.08734 0
M  V30 545 C 57.9298 -0.301192 -1.93874 0
M  V30 546 O 57.0548 0.589456 -2.08217 0
M  V30 547 C 57.6498 -2.75017 -1.97867 0
M  V30 548 C 56.2088 -2.80314 -2.51199 0
M  V30 549 C 55.3558 -2.4562 -1.28709 0
M  V30 550 H 58.3068 -1.56031 -0.289855 0
M  V30 551 H 58.3278 -2.5491 -2.82491 0
M  V30 552 H 57.8398 -3.63539 -1.35873 0
M  V30 553 H 55.9408 -1.96061 -3.16845 0
M  V30 554 H 56.0538 -3.82366 -2.88675 0
M  V30 555 H 54.4178 -1.97297 -1.61078 0
M  V30 556 H 55.2008 -3.36411 -0.6843 0
M  V30 557 N 57.6459 0.756429 -1.3826 0
M  V30 558 C 58.8939 1.51248 -1.34047 0
M  V30 559 C 59.2149 1.94875 0.0698372 0
M  V30 560 O 58.4849 1.67436 1.01696 0
M  V30 561 H 57.0649 0.561018 -0.493222 0
M  V30 562 H 59.7269 0.899347 -1.7291 0
M  V30 563 H 58.8229 2.40472 -1.98947 0
M  V30 564 N 59.124 1.23083 0.984299 0
M  V30 565 C 60.401 0.9689 1.69917 0
M  V30 566 C 60.781 -0.513604 2.04757 0
M  V30 567 O 60.129 -1.48383 1.73767 0
M  V30 568 C 60.339 1.87518 2.94343 0
M  V30 569 C 61.687 2.13636 3.6694 0
M  V30 570 O 62.711 1.85036 3.04368 0
M  V30 571 O 61.57 2.62119 4.79537 0
M  V30 572 H 58.664 0.365095 0.742048 0
M  V30 573 H 61.21 1.34107 1.03987 0
M  V30 574 H 59.982 2.87756 2.65164 0
M  V30 575 H 59.605 1.50514 3.6801 0
M  V30 576 N 60.6021 -1.18246 1.0419 0
M  V30 577 C 61.8271 -1.92736 0.765996 0
M  V30 578 C 62.2521 -1.75728 -0.67091 0
M  V30 579 O 61.6101 -1.06825 -1.46486 0
M  V30 580 C 61.6581 -3.42148 1.13875 0
M  V30 581 O 60.7621 -4.11548 0.264954 0
M  V30 582 H 60.1031 -0.601238 0.281797 0
M  V30 583 H 62.6331 -1.49942 1.39207 0
M  V30 584 H 62.6431 -3.92858 1.1012 0
M  V30 585 H 61.3181 -3.53848 2.18551 0
M  V30 586 H 59.8951 -3.71137 0.362226 0
M  V30 587 N 62.0802 -0.821533 -1.34494 0
M  V30 588 C 63.3262 -0.409552 -1.98622 0
M  V30 589 C 63.6592 1.0244 -1.64984 0
M  V30 590 O 62.9342 1.71325 -0.920758 0
M  V30 591 C 63.2172 -0.610458 -3.54888 0
M  V30 592 C 63.0702 -2.09043 -3.98273 0
M  V30 593 C 64.3892 -0.0455379 -4.40076 0
M  V30 594 H 61.5082 -0.15028 -0.721516 0
M  V30 595 H 64.1502 -1.03384 -1.59411 0
M  V30 596 H 62.3002 -0.079044 -3.8842 0
M  V30 597 H 63.9722 -2.68537 -3.75081 0
M  V30 598 H 62.2152 -2.58139 -3.48635 0
M  V30 599 H 62.8862 -2.18182 -5.07051 0
M  V30 600 H 65.3622 -0.499557 -4.1309 0
M  V30 601 H 64.2382 -0.215922 -5.48475 0
M  V30 602 H 64.4992 1.04939 -4.29465 0
M  V30 603 N 63.5583 1.46682 -0.576371 0
M  V30 604 C 64.7863 2.06798 -0.0649635 0
M  V30 605 C 65.2013 1.42612 1.23723 0
M  V30 606 O 64.5583 0.529203 1.74659 0
M  V30 607 C 64.6093 3.6132 0.114202 0
M  V30 608 O 64.3303 4.23104 -1.13644 0
M  V30 609 C 65.8313 4.38349 0.66069 0
M  V30 610 H 63.0513 0.668778 -0.0545616 0
M  V30 611 H 65.5953 1.88404 -0.795237 0
M  V30 612 H 63.7503 3.79162 0.794673 0
M  V30 613 H 64.1643 5.15894 -0.946253 0
M  V30 614 H 65.6383 5.47081 0.73526 0
M  V30 615 H 66.1153 4.05953 1.67627 0
M  V30 616 H 66.7213 4.25297 0.0152951 0
M  V30 617 N 65.0364 0.313813 1.54444 0
M  V30 618 C 65.9664 -0.549454 2.26943 0
M  V30 619 C 66.9474 -1.12741 1.27372 0
M  V30 620 O 68.1324 -1.15436 1.56167 0
M  V30 621 C 65.2624 -1.71523 3.01989 0
M  V30 622 C 64.2164 -1.26703 4.08816 0
M  V30 623 C 63.5424 -2.51898 4.71647 0
M  V30 624 C 64.8424 -0.388962 5.2085 0
M  V30 625 H 66.5364 0.0552661 2.99349 0
M  V30 626 H 64.0824 0.0280207 1.43973 0
M  V30 627 H 66.0354 -2.32535 3.51433 0
M  V30 628 H 64.7594 -2.34639 2.27183 0
M  V30 629 H 63.4184 -0.679896 3.6024 0
M  V30 630 H 63.0664 -3.13356 3.93468 0
M  V30 631 H 62.7664 -2.22605 5.43802 0
M  V30 632 H 64.2904 -3.1369 5.23861 0
M  V30 633 H 65.7044 -0.905107 5.6611 0
M  V30 634 H 64.1014 -0.18924 5.99802 0
M  V30 635 H 65.1714 0.582699 4.81386 0
M  V30 636 N 66.5145 -1.57545 0.0417849 0
M  V30 637 C 67.7425 -1.96624 -0.643928 0
M  V30 638 C 68.1575 -0.918897 -1.64929 0
M  V30 639 O 67.5145 0.0979323 -1.82237 0
M  V30 640 C 67.5655 -3.35781 -1.33914 0
M  V30 641 O 67.2865 -4.365 -0.374048 0
M  V30 642 C 68.7875 -3.89566 -2.1155 0
M  V30 643 H 66.0075 -0.647316 -0.176702 0
M  V30 644 H 68.5515 -2.04229 0.105304 0
M  V30 645 H 66.7065 -3.29357 -2.03968 0
M  V30 646 H 67.1205 -5.17248 -0.869179 0
M  V30 647 H 68.5945 -4.89242 -2.55628 0
M  V30 648 H 69.0715 -3.24488 -2.9598 0
M  V30 649 H 69.6775 -3.99298 -1.46427 0
M  V30 650 N 67.9926 0.231505 -1.5589 0
M  V30 651 C 69.2326 0.964533 -1.80211 0
M  V30 652 C 69.5966 1.81926 -0.613744 0
M  V30 653 O 70.7976 2.58526 -0.736045 0
M  V30 654 C 69.0686 1.78956 -3.09369 0
M  V30 655 S 70.6276 2.57959 -3.54969 0
M  V30 656 H 67.4456 0.324173 -0.632798 0
M  V30 657 H 70.0476 0.230985 -1.94131 0
M  V30 658 H 68.7516 1.15161 -3.93911 0
M  V30 659 H 68.2826 2.56559 -2.9823 0
M  V30 660 H 70.2976 3.81309 -3.17519 0
M  V30 661 N 69.4707 1.49531 0.497807 0
M  V30 662 C 70.8817 1.52344 1.07927 0
M  V30 663 C 71.2327 0.311469 1.93712 0
M  V30 664 O 70.3577 -0.578405 2.08527 0
M  V30 665 C 70.9527 2.76062 1.96405 0
M  V30 666 C 69.5117 2.81643 2.49709 0
M  V30 667 C 68.6587 2.46299 1.27404 0
M  V30 668 H 71.6097 1.56182 0.281576 0
M  V30 669 H 71.6307 2.56405 2.81135 0
M  V30 670 H 71.1427 3.64254 1.33943 0
M  V30 671 H 69.2437 1.97739 3.15801 0
M  V30 672 H 69.3567 3.83891 2.86643 0
M  V30 673 H 67.7207 1.98148 1.60029 0
M  V30 674 H 68.5037 3.36769 0.66645 0
M  V30 675 N 70.9488 -0.749086 1.3866 0
M  V30 676 C 72.1968 -1.50535 1.34847 0
M  V30 677 C 72.5178 -1.94909 -0.0595016 0
M  V30 678 O 71.7878 -1.67973 -1.00806 0
M  V30 679 H 70.3678 -0.558395 0.49619 0
M  V30 680 H 73.0298 -0.890165 1.73384 0
M  V30 681 H 72.1258 -2.39413 2.00219 0
M  V30 682 N 72.4269 -1.23603 -0.977757 0
M  V30 683 C 73.6729 -1.07129 -1.72195 0
M  V30 684 C 74.0059 0.390501 -1.90233 0
M  V30 685 O 73.2809 1.28902 -1.45653 0
M  V30 686 C 73.5639 -1.80031 -3.11867 0
M  V30 687 C 73.4169 -3.33899 -3.01383 0
M  V30 688 C 74.7359 -1.56492 -4.11337 0
M  V30 689 H 71.8549 -0.390571 -0.624999 0
M  V30 690 H 74.4969 -1.52142 -1.13811 0
M  V30 691 H 72.6469 -1.41768 -3.6171 0
M  V30 692 H 74.3189 -3.81699 -2.59043 0
M  V30 693 H 72.5619 -3.62796 -2.37827 0
M  V30 694 H 73.2329 -3.801 -4.00285 0
M  V30 695 H 75.7089 -1.89757 -3.70313 0
M  V30 696 H 74.5849 -2.09973 -5.07151 0
M  V30 697 H 74.8459 -0.500874 -4.39254 0
M  V30 698 N 73.905 1.17692 -1.04816 0
M  V30 699 C 74.815 2.25229 -0.65643 0
M  V30 700 C 75.831 1.71018 0.320761 0
M  V30 701 O 77.007 2.00649 0.173805 0
M  V30 702 C 74.072 3.46684 -0.0332629 0
M  V30 703 C 73.133 4.15997 -1.06042 0
M  V30 704 C 72.366 5.31654 -0.466893 0
M  V30 705 O 72.589 5.65777 0.724758 0
M  V30 706 O 71.523 5.89831 -1.1993 0
M  V30 707 H 75.349 2.61016 -1.55255 0
M  V30 708 H 72.934 1.24919 -0.81949 0
M  V30 709 H 74.816 4.20234 0.313256 0
M  V30 710 H 73.491 3.12703 0.836566 0
M  V30 711 H 72.398 3.44482 -1.45886 0
M  V30 712 H 73.731 4.53996 -1.90127 0
M  V30 713 N 75.3831 0.828654 1.34056 0
M  V30 714 C 76.7941 0.477534 1.8049 0
M  V30 715 C 77.1451 -1.00258 1.6865 0
M  V30 716 O 76.2701 -1.78057 1.22982 0
M  V30 717 C 76.8651 0.860018 3.27703 0
M  V30 718 C 75.4241 0.561185 3.72193 0
M  V30 719 C 74.5711 1.07385 2.55663 0
M  V30 720 H 77.5221 1.0183 1.21722 0
M  V30 721 H 77.5431 0.166038 3.80138 0
M  V30 722 H 77.0551 1.93731 3.36288 0
M  V30 723 H 75.1561 -0.506465 3.69142 0
M  V30 724 H 75.2691 1.10926 4.66082 0
M  V30 725 H 73.6331 0.495149 2.49841 0
M  V30 726 H 74.4161 2.15771 2.67016 0
M  V30 727 N 76.8612 -1.46375 0.584142 0
M  V30 728 C 77.7712 -2.34115 -0.150728 0
M  V30 729 C 78.7872 -1.49838 -0.884567 0
M  V30 730 O 79.9632 -1.82704 -0.847429 0
M  V30 731 C 77.0282 -3.2705 -1.15062 0
M  V30 732 C 76.0892 -4.27228 -0.421293 0
M  V30 733 C 75.3222 -5.15722 -1.37355 0
M  V30 734 O 75.5452 -5.07176 -2.61014 0
M  V30 735 O 74.4792 -5.95383 -0.883355 0
M  V30 736 H 78.3052 -2.98309 0.569708 0
M  V30 737 H 75.8902 -1.45373 0.344535 0
M  V30 738 H 77.7722 -3.84381 -1.72712 0
M  V30 739 H 76.4472 -2.65451 -1.8525 0
M  V30 740 H 75.3542 -3.7358 0.197085 0
M  V30 741 H 76.6872 -4.91616 0.239641 0
M  V30 742 N 78.3393 -0.321999 -1.54275 0
M  V30 743 C 79.6163 0.335232 -1.92706 0
M  V30 744 C 79.9963 1.70006 -1.25145 0
M  V30 745 O 79.3443 2.25067 -0.394596 0
M  V30 746 C 79.5543 0.429008 -3.46353 0
M  V30 747 C 80.9023 0.690029 -4.18956 0
M  V30 748 O 81.9263 0.511992 -3.52501 0
M  V30 749 O 80.7853 1.03338 -5.36641 0
M  V30 750 H 77.8793 0.191143 -0.804608 0
M  V30 751 H 80.4253 -0.3716 -1.65581 0
M  V30 752 H 79.1973 -0.529611 -3.87699 0
M  V30 753 H 78.8203 1.18348 -3.79578 0
M  V30 754 N 79.8174 1.5752 -0.0501392 0
M  V30 755 C 80.7654 2.12651 0.942459 0
M  V30 756 C 81.7594 1.05807 1.32292 0
M  V30 757 O 82.9654 1.24217 1.3027 0
M  V30 758 H 79.3404 0.679673 0.321789 0
M  V30 759 H 81.3114 2.94951 0.452356 0
M  V30 760 C 80.0604 2.68565 2.20836 0
M  V30 761 H 79.3834 3.50439 1.92439 0
M  V30 762 H 80.8234 3.10761 2.8845 0
M  V30 763 C 79.2824 1.62291 2.95234 0
M  V30 764 O 79.8124 1.03508 3.88135 0
M  V30 765 N 78.0184 1.33836 2.57946 0
M  V30 766 H 77.5654 1.81826 1.82475 0
M  V30 767 H 77.5234 0.629595 3.08032 0
M  V30 768 N 81.2955 -0.223234 1.56011 0
M  V30 769 C 82.2585 -1.26014 1.9145 0
M  V30 770 C 83.2585 -1.3989 0.792937 0
M  V30 771 O 84.4485 -1.38184 1.0607 0
M  V30 772 C 81.5805 -2.63422 2.16383 0
M  V30 773 H 82.7735 -0.95796 2.84189 0
M  V30 774 H 80.3265 -0.463576 1.49267 0
M  V30 775 H 81.0615 -2.98741 1.2619 0
M  V30 776 H 80.8465 -2.54728 2.98088 0
M  V30 777 H 82.3365 -3.38249 2.44903 0
M  V30 778 N 82.7736 -1.49793 -0.48987 0
M  V30 779 C 84.0016 -1.63568 -1.26701 0
M  V30 780 C 84.4166 -0.311465 -1.86213 0
M  V30 781 O 83.7736 0.704416 -1.68357 0
M  V30 782 C 83.8246 -2.71284 -2.38929 0
M  V30 783 O 83.5456 -3.9857 -1.81861 0
M  V30 784 C 85.0466 -2.95864 -3.3012 0
M  V30 785 H 82.2666 -0.550342 -0.383881 0
M  V30 786 H 84.8106 -1.95898 -0.586864 0
M  V30 787 H 82.9656 -2.417 -3.02753 0
M  V30 788 H 83.3796 -4.57993 -2.55622 0
M  V30 789 H 84.8536 -3.74941 -4.05121 0
M  V30 790 H 85.3306 -2.06206 -3.87783 0
M  V30 791 H 85.9366 -3.26907 -2.72051 0
M  V30 792 N 84.2517 0.741722 -1.39055 0
M  V30 793 C 85.4977 1.50336 -1.36113 0
M  V30 794 C 85.8307 1.94148 0.0450796 0
M  V30 795 O 85.1057 1.66301 1.00868 0
M  V30 796 C 85.3887 2.74773 -2.32749 0
M  V30 797 C 85.2417 2.37023 -3.82283 0
M  V30 798 C 86.5607 3.76846 -2.27322 0
M  V30 799 H 83.6797 0.545351 -0.495743 0
M  V30 800 H 86.3217 0.848624 -1.69995 0
M  V30 801 H 84.4717 3.30639 -2.03986 0
M  V30 802 H 86.1437 1.8684 -4.21768 0
M  V30 803 H 84.3867 1.69334 -3.99385 0
M  V30 804 H 85.0577 3.26104 -4.45376 0
M  V30 805 H 87.5337 3.30548 -2.5274 0
M  V30 806 H 86.4097 4.6159 -2.97028 0
M  V30 807 H 86.6707 4.23286 -1.27599 0
M  V30 808 N 85.7298 1.2412 0.971189 0
M  V30 809 C 86.6798 0.997551 2.05019 0
M  V30 810 C 87.6638 -0.0597747 1.60789 0
M  V30 811 O 88.8558 0.153516 1.76333 0
M  V30 812 C 85.9848 0.600557 3.38006 0
M  V30 813 C 85.0708 1.69377 3.88809 0
M  V30 814 N 85.4618 2.92586 4.12586 0
M  V30 815 C 83.7598 1.57048 4.17435 0
M  V30 816 C 84.4608 3.63431 4.54195 0
M  V30 817 N 83.4368 2.90979 4.59165 0
M  V30 818 H 87.2388 1.93316 2.21374 0
M  V30 819 H 84.7528 1.14194 1.1547 0
M  V30 820 H 86.7498 0.40725 4.14906 0
M  V30 821 H 85.4098 -0.327903 3.2304 0
M  V30 822 H 86.4208 3.288 4.00139 0
M  V30 823 H 83.0978 0.709798 4.11422 0
M  V30 824 H 84.4878 4.69102 4.81033 0
M  V30 825 N 87.2079 -1.17134 1.05439 0
M  V30 826 C 88.4539 -1.87979 0.776872 0
M  V30 827 C 88.8089 -1.7965 -0.688751 0
M  V30 828 O 88.1019 -1.19535 -1.4974 0
M  V30 829 C 88.2959 -3.36833 1.19491 0
M  V30 830 C 88.1249 -3.59653 2.69963 0
M  V30 831 C 86.8949 -3.76234 3.37307 0
M  V30 832 C 89.0929 -3.59091 3.68182 0
M  V30 833 N 87.0749 -3.86922 4.76618 0
M  V30 834 C 88.4459 -3.75659 4.93235 0
M  V30 835 C 90.5009 -3.42255 3.61616 0
M  V30 836 C 89.2039 -3.77133 6.12506 0
M  V30 837 C 91.2299 -3.45018 4.8033 0
M  V30 838 C 90.5919 -3.62096 6.04207 0
M  V30 839 H 86.6909 -0.705876 0.336546 0
M  V30 840 H 89.2749 -1.40602 1.34682 0
M  V30 841 H 87.4459 -3.82873 0.652884 0
M  V30 842 H 89.1779 -3.95305 0.866966 0
M  V30 843 H 85.9329 -3.76193 2.87708 0
M  V30 844 H 86.3569 -3.96055 5.49062 0
M  V30 845 H 90.9989 -3.27986 2.66805 0
M  V30 846 H 88.7169 -3.90186 7.07659 0
M  V30 847 H 92.3029 -3.33246 4.76905 0
M  V30 848 H 91.1829 -3.64142 6.94529 0
M  V30 849 N 88.686 -0.835752 -1.33615 0
M  V30 850 C 89.932 -0.430596 -1.98176 0
M  V30 851 C 90.265 1.00684 -1.66061 0
M  V30 852 O 89.54 1.70339 -0.938877 0
M  V30 853 C 89.823 -0.648065 -3.5422 0
M  V30 854 C 89.676 -2.13255 -3.96033 0
M  V30 855 C 90.995 -0.0922113 -4.40003 0
M  V30 856 H 88.114 -0.157924 -0.719881 0
M  V30 857 H 90.756 -1.05069 -1.58305 0
M  V30 858 H 88.906 -0.120237 -3.88314 0
M  V30 859 H 90.578 -2.725 -3.72211 0
M  V30 860 H 88.821 -2.61823 -3.45878 0
M  V30 861 H 89.492 -2.23547 -5.04708 0
M  V30 862 H 91.968 -0.543343 -4.12537 0
M  V30 863 H 90.844 -0.274083 -5.48215 0
M  V30 864 H 91.105 1.00378 -4.30554 0
M  V30 865 N 90.1641 1.46063 -0.591896 0
M  V30 866 C 91.0941 2.33172 0.123673 0
M  V30 867 C 92.0751 1.45897 0.87453 0
M  V30 868 O 93.2601 1.74698 0.848181 0
M  V30 869 C 90.3901 3.28336 1.13194 0
M  V30 870 C 89.3441 4.25124 0.495324 0
M  V30 871 C 88.6701 5.09863 1.61071 0
M  V30 872 C 89.9701 5.19143 -0.573425 0
M  V30 873 H 91.6641 2.93252 -0.603646 0
M  V30 874 H 89.2101 1.41014 -0.291741 0
M  V30 875 H 91.1631 3.88137 1.64097 0
M  V30 876 H 89.8871 2.66383 1.88965 0
M  V30 877 H 88.5461 3.66599 0.00729452 0
M  V30 878 H 88.1941 4.44288 2.35832 0
M  V30 879 H 87.8941 5.75417 1.19035 0
M  V30 880 H 89.4181 5.72529 2.12233 0
M  V30 881 H 90.8321 5.73106 -0.1491 0
M  V30 882 H 89.2291 5.93089 -0.914636 0
M  V30 883 H 90.2991 4.62519 -1.45617 0
M  V30 884 N 91.6422 0.330177 1.54103 0
M  V30 885 C 93.0582 -0.0222371 1.59585 0
M  V30 886 C 93.2582 -1.49902 1.34654 0
M  V30 887 O 92.3142 -2.25592 1.13421 0
M  V30 888 C 93.6272 0.401932 2.98002 0
M  V30 889 C 95.1752 0.353145 3.11001 0
M  V30 890 C 95.6502 0.752576 4.51775 0
M  V30 891 N 97.1412 0.706239 4.57784 0
M  V30 892 C 97.8762 0.987417 5.64834 0
M  V30 893 N 97.3722 1.33607 6.79795 0
M  V30 894 N 99.1652 0.91254 5.54643 0
M  V30 895 H 91.3162 1.29228 1.68564 0
M  V30 896 H 93.5792 0.525906 0.78875 0
M  V30 897 H 93.2852 1.4311 3.21267 0
M  V30 898 H 93.1592 -0.229699 3.765 0
M  V30 899 H 95.5462 -0.666822 2.87467 0
M  V30 900 H 95.6272 1.0198 2.34593 0
M  V30 901 H 95.2712 1.77049 4.76042 0
M  V30 902 H 95.2012 0.0635409 5.26562 0
M  V30 903 H 97.6922 0.44889 3.75224 0
M  V30 904 H 98.0052 1.53582 7.57385 0
M  V30 905 H 96.3502 1.37439 6.81275 0
M  V30 906 H 99.5412 0.639601 4.6371 0
M  V30 907 H 99.7142 1.13503 6.37982 0
M  V30 908 N 93.1203 -1.57491 0.0584922 0
M  V30 909 C 94.0673 -2.11958 -0.913376 0
M  V30 910 C 95.0373 -1.02875 -1.30407 0
M  V30 911 O 96.2223 -1.30464 -1.39226 0
M  V30 912 C 93.3623 -2.67497 -2.18035 0
M  V30 913 C 92.4753 -3.90691 -1.84349 0
M  V30 914 C 91.6103 -4.3452 -3.05559 0
M  V30 915 C 90.6493 -5.50395 -2.67827 0
M  V30 916 N 89.7863 -5.89244 -3.81754 0
M  V30 917 H 94.6263 -2.94704 -0.442017 0
M  V30 918 H 92.1633 -1.45643 -0.206545 0
M  V30 919 H 94.1213 -2.978 -2.92183 0
M  V30 920 H 92.7513 -1.87537 -2.62735 0
M  V30 921 H 91.8033 -3.66934 -1.00319 0
M  V30 922 H 93.1153 -4.7489 -1.5258 0
M  V30 923 H 92.2693 -4.66414 -3.87998 0
M  V30 924 H 91.0083 -3.49147 -3.40511 0
M  V30 925 H 90.0133 -5.18165 -1.83806 0
M  V30 926 H 91.2383 -6.3749 -2.34059 0
M  V30 927 H 89.1843 -5.06823 -4.16493 0
M  V30 928 H 89.1013 -6.68151 -3.53708 0
M  V30 929 H 90.3693 -6.25756 -4.64811 0
M  V30 930 N 94.5984 0.214957 -1.56127 0
M  V30 931 C 96.0094 0.781386 -1.69562 0
M  V30 932 C 96.3604 1.84707 -0.66165 0
M  V30 933 O 95.4854 2.156 0.185927 0
M  V30 934 C 96.0804 1.42411 -3.07416 0
M  V30 935 C 94.6394 1.93786 -3.22683 0
M  V30 936 C 93.7864 0.800438 -2.65496 0
M  V30 937 H 96.7374 -0.00980633 -1.58697 0
M  V30 938 H 96.7584 2.29309 -3.0364 0
M  V30 939 H 96.2704 0.64826 -3.82648 0
M  V30 940 H 94.3714 2.74152 -2.52332 0
M  V30 941 H 94.4844 2.1133 -4.29973 0
M  V30 942 H 92.8484 1.2095 -2.2415 0
M  V30 943 H 93.6314 0.0371471 -3.4328 0
M  V30 944 N 96.0765 1.50051 0.48192 0
M  V30 945 C 97.0395 1.67584 1.5636 0
M  V30 946 C 98.0395 0.546894 1.51214 0
M  V30 947 O 99.2295 0.813725 1.54026 0
M  V30 948 C 96.3615 1.691 2.96003 0
M  V30 949 H 97.5545 2.64078 1.42136 0
M  V30 950 H 95.1075 1.39369 0.707533 0
M  V30 951 H 95.8425 0.742589 3.15684 0
M  V30 952 H 95.6275 2.51105 3.01146 0
M  V30 953 H 97.1175 1.84656 3.74556 0
M  V30 954 N 97.5546 -0.734337 1.39446 0
M  V30 955 C 98.5176 -1.83004 1.37994 0
M  V30 956 C 99.5176 -1.58397 0.276938 0
M  V30 957 O 100.708 -1.65785 0.534875 0
M  V30 958 C 97.8396 -3.20802 1.1532 0
M  V30 959 H 99.0326 -1.85694 2.35494 0
M  V30 960 H 96.5856 -0.938059 1.25021 0
M  V30 961 H 97.3206 -3.23772 0.185036 0
M  V30 962 H 97.1056 -3.4006 1.95197 0
M  V30 963 H 98.5956 -4.00862 1.17046 0
M  V30 964 N 99.0327 -1.24633 -0.964593 0
M  V30 965 C 100.281 -1.08573 -1.70459 0
M  V30 966 C 100.602 0.375655 -1.91347 0
M  V30 967 O 99.8717 1.26779 -1.49345 0
M  V30 968 H 98.4517 -0.398784 -0.631649 0
M  V30 969 H 101.114 -1.56601 -1.16026 0
M  V30 970 H 100.21 -1.58623 -2.68785 0
M  V30 971 N 100.511 1.16574 -1.06058 0
M  V30 972 C 101.736 1.91493 -0.796562 0
M  V30 973 C 102.161 1.76773 0.642868 0
M  V30 974 O 101.519 1.09142 1.44768 0
M  V30 975 C 101.567 3.40293 -1.19303 0
M  V30 976 O 100.671 4.11074 -0.330394 0
M  V30 977 H 100.012 0.596678 -0.291326 0
M  V30 978 H 102.542 1.47708 -1.41575 0
M  V30 979 H 102.552 3.91057 -1.16356 0
M  V30 980 H 101.227 3.50326 -2.24153 0
M  V30 981 H 99.8038 3.70513 -0.421225 0
M  V30 982 N 101.989 0.842826 1.3317 0
M  V30 983 C 102.939 0.250877 2.26616 0
M  V30 984 C 103.923 -0.596427 1.49437 0
M  V30 985 O 105.115 -0.447747 1.71243 0
M  V30 986 C 102.244 -0.569779 3.38539 0
M  V30 987 C 101.33 0.289254 4.23112 0
M  V30 988 N 101.721 1.36987 4.86897 0
M  V30 989 C 100.019 0.0769631 4.45934 0
M  V30 990 C 100.72 1.89737 5.49886 0
M  V30 991 N 99.6959 1.19827 5.30229 0
M  V30 992 H 103.498 1.07718 2.73448 0
M  V30 993 H 101.012 0.687693 1.47121 0
M  V30 994 H 103.009 -1.01018 4.04476 0
M  V30 995 H 101.669 -1.39401 2.93253 0
M  V30 996 H 102.68 1.75277 4.87338 0
M  V30 997 H 99.3569 -0.713507 4.11358 0
M  V30 998 H 100.747 2.80253 6.10662 0
M  V30 999 N 103.467 -1.45747 0.599634 0
M  V30 1000 C 104.878 -1.85853 0.177681 0
M  V30 1001 C 105.229 -1.50102 -1.26348 0
M  V30 1002 O 104.354 -0.923905 -1.95686 0
M  V30 1003 C 104.949 -3.37326 0.315688 0
M  V30 1004 C 103.508 -3.76365 -0.0515144 0
M  V30 1005 C 102.655 -2.69722 0.643822 0
M  V30 1006 H 105.606 -1.36661 0.806814 0
M  V30 1007 H 105.627 -3.77778 -0.454321 0
M  V30 1008 H 105.139 -3.63315 1.36468 0
M  V30 1009 H 103.24 -3.55993 -1.09999 0
M  V30 1010 H 103.353 -4.77916 0.336594 0
M  V30 1011 H 101.717 -2.54567 0.0822881 0
M  V30 1012 H 102.5 -2.98549 1.6948 0
M  V30 1013 N 104.945 -0.338344 -1.53925 0
M  V30 1014 C 106.17 0.263987 -2.05713 0
M  V30 1015 C 106.595 1.43847 -1.21201 0
M  V30 1016 O 105.953 1.79904 -0.224535 0
M  V30 1017 C 106.001 0.662 -3.54471 0
M  V30 1018 O 105.105 1.76265 -3.72833 0
M  V30 1019 H 104.446 0.0448722 -0.662482 0
M  V30 1020 H 106.976 -0.491048 -1.9862 0
M  V30 1021 H 106.986 0.940594 -3.9701 0
M  V30 1022 H 105.661 -0.196937 -4.15433 0
M  V30 1023 H 104.238 1.48173 -3.42198 0
M  V30 1024 N 106.423 1.57458 -0.0668435 0
M  V30 1025 C 107.839 1.56947 0.289772 0
M  V30 1026 C 108.039 1.07584 1.70376 0
M  V30 1027 O 107.095 0.739486 2.41429 0
M  V30 1028 C 108.408 3.0052 0.103943 0
M  V30 1029 C 109.956 3.12517 0.173857 0
M  V30 1030 C 110.431 4.57997 0.0163682 0
M  V30 1031 N 111.922 4.63144 0.0721352 0
M  V30 1032 C 112.657 5.73394 -0.0253794 0
M  V30 1033 N 112.153 6.92576 -0.176133 0
M  V30 1034 N 113.946 5.62091 0.0313305 0
M  V30 1035 H 106.097 1.87863 -0.991027 0
M  V30 1036 H 108.36 0.86583 -0.38606 0
M  V30 1037 H 108.066 3.40729 -0.871572 0
M  V30 1038 H 107.94 3.67304 0.858366 0
M  V30 1039 H 110.327 2.72197 1.13985 0
M  V30 1040 H 110.408 2.48381 -0.611586 0
M  V30 1041 H 110.052 4.99005 -0.946374 0
M  V30 1042 H 109.982 5.20158 0.821153 0
M  V30 1043 H 112.473 3.77436 0.187263 0
M  V30 1044 H 112.786 7.72418 -0.242821 0
M  V30 1045 H 111.131 6.94678 -0.211429 0
M  V30 1046 H 114.322 4.67867 0.147773 0
M  V30 1047 H 114.495 6.47982 -0.048121 0
M  V30 1048 N 107.901 -0.206675 1.56239 0
M  V30 1049 C 109.147 -0.925733 1.81113 0
M  V30 1050 C 109.502 -1.81368 0.642135 0
M  V30 1051 O 108.795 -1.88126 -0.363211 0
M  V30 1052 C 108.989 -1.78675 3.09532 0
M  V30 1053 C 108.818 -0.98365 4.3881 0
M  V30 1054 C 107.588 -0.672661 5.00803 0
M  V30 1055 C 109.786 -0.341847 5.13163 0
M  V30 1056 N 107.768 0.150283 6.13716 0
M  V30 1057 C 109.139 0.343815 6.19046 0
M  V30 1058 C 111.194 -0.256392 4.97239 0
M  V30 1059 C 109.897 1.10678 7.10734 0
M  V30 1060 C 111.923 0.493142 5.8934 0
M  V30 1061 C 111.285 1.16729 6.94661 0
M  V30 1062 H 107.384 -0.318524 0.714189 0
M  V30 1063 H 109.968 -0.195378 1.93717 0
M  V30 1064 H 108.139 -2.4888 2.98183 0
M  V30 1065 H 109.871 -2.44441 3.22538 0
M  V30 1066 H 106.626 -0.994294 4.63045 0
M  V30 1067 H 107.05 0.551026 6.74754 0
M  V30 1068 H 111.692 -0.763249 4.15854 0
M  V30 1069 H 109.41 1.6251 7.91591 0
M  V30 1070 H 112.996 0.560465 5.79094 0
M  V30 1071 H 111.876 1.738 7.64698 0
M  V30 1072 N 109.379 -1.50304 -0.473955 0
M  V30 1073 C 110.342 -1.6841 -1.55469 0
M  V30 1074 C 111.342 -0.554905 -1.50922 0
M  V30 1075 O 112.532 -0.821882 -1.53593 0
M  V30 1076 C 109.664 -1.70667 -2.95102 0
M  V30 1077 H 110.857 -2.64828 -1.40733 0
M  V30 1078 H 108.41 -1.39742 -0.700132 0
M  V30 1079 H 109.145 -0.75932 -3.15285 0
M  V30 1080 H 108.93 -2.52698 -2.9981 0
M  V30 1081 H 110.42 -1.8664 -3.73571 0
M  V30 1082 N 110.857 0.726932 -1.39834 0
M  V30 1083 C 112.105 1.4837 -1.37225 0
M  V30 1084 C 112.426 1.94979 0.0284857 0
M  V30 1085 O 111.696 1.69555 0.981213 0
M  V30 1086 H 110.276 0.55043 -0.505011 0
M  V30 1087 H 112.938 0.862468 -1.74778 0
M  V30 1088 H 112.034 2.36198 -2.04003 0
M  V30 1089 N 112.336 1.25143 0.95797 0
M  V30 1090 C 113.269 0.995565 2.05338 0
M  V30 1091 C 114.247 -0.0740423 1.62431 0
M  V30 1092 O 115.431 0.0649212 1.88388 0
M  V30 1093 C 112.558 0.504298 3.34925 0
M  V30 1094 C 111.604 1.56393 3.96792 0
M  V30 1095 S 112.437 3.14815 4.33188 0
M  V30 1096 C 113.593 2.67415 5.65898 0
M  V30 1097 H 113.826 1.92309 2.26726 0
M  V30 1098 H 111.359 1.08635 1.09716 0
M  V30 1099 H 113.317 0.227497 4.09869 0
M  V30 1100 H 111.978 -0.402671 3.11508 0
M  V30 1101 H 111.171 1.17082 4.90212 0
M  V30 1102 H 110.773 1.79124 3.28315 0
M  V30 1103 H 113.065 2.10833 6.4386 0
M  V30 1104 H 114.008 3.59463 6.10076 0
M  V30 1105 H 114.416 2.07521 5.24972 0
M  V30 1106 N 113.814 -1.1601 1.06675 0
M  V30 1107 C 115.062 -1.86264 0.784229 0
M  V30 1108 C 115.383 -1.82328 -0.691488 0
M  V30 1109 O 114.653 -1.25947 -1.50047 0
M  V30 1110 H 113.233 -0.689621 0.28711 0
M  V30 1111 H 115.895 -1.40664 1.34906 0
M  V30 1112 H 114.991 -2.91595 1.11259 0
M  V30 1113 N 115.292 -0.849877 -1.32721 0
M  V30 1114 C 116.708 -0.539102 -1.50219 0
M  V30 1115 C 116.908 0.931271 -1.78689 0
M  V30 1116 O 115.964 1.71455 -1.85363 0
M  V30 1117 C 117.277 -1.42196 -2.64954 0
M  V30 1118 C 118.825 -1.42189 -2.78839 0
M  V30 1119 C 119.3 -2.28985 -3.96648 0
M  V30 1120 N 120.791 -2.26754 -4.03902 0
M  V30 1121 C 121.526 -2.90644 -4.94281 0
M  V30 1122 N 121.022 -3.63629 -5.897 0
M  V30 1123 N 122.815 -2.80057 -4.87365 0
M  V30 1124 H 114.966 -1.80156 -1.12506 0
M  V30 1125 H 117.229 -0.769217 -0.554085 0
M  V30 1126 H 116.935 -2.46733 -2.50631 0
M  V30 1127 H 116.809 -1.10591 -3.60624 0
M  V30 1128 H 119.196 -0.38419 -2.92588 0
M  V30 1129 H 119.277 -1.77807 -1.83898 0
M  V30 1130 H 118.921 -3.32819 -3.83658 0
M  V30 1131 H 118.851 -1.90702 -4.90857 0
M  V30 1132 H 121.342 -1.73688 -3.3562 0
M  V30 1133 H 121.655 -4.09558 -6.55349 0
M  V30 1134 H 120 -3.67737 -5.89741 0
M  V30 1135 H 123.191 -2.22593 -4.11789 0
M  V30 1136 H 123.364 -3.30132 -5.57599 0
M  V30 1137 N 116.77 1.45427 -0.607355 0
M  V30 1138 C 118.186 1.57283 -0.270985 0
M  V30 1139 C 118.386 1.59875 1.22647 0
M  V30 1140 O 117.442 1.52893 2.00948 0
M  V30 1141 C 118.755 2.85566 -0.941952 0
M  V30 1142 C 120.303 2.9924 -0.917849 0
M  V30 1143 C 120.778 4.30293 -1.56882 0
M  V30 1144 N 122.269 4.37051 -1.5343 0
M  V30 1145 C 123.004 5.37123 -2.00715 0
M  V30 1146 N 122.5 6.43734 -2.56084 0
M  V30 1147 N 124.293 5.28479 -1.91484 0
M  V30 1148 H 116.444 1.41988 -1.57966 0
M  V30 1149 H 118.707 0.67885 -0.661715 0
M  V30 1150 H 118.413 2.8955 -1.99633 0
M  V30 1151 H 118.287 3.74322 -0.465096 0
M  V30 1152 H 120.674 2.94822 0.127984 0
M  V30 1153 H 120.755 2.11895 -1.43297 0
M  V30 1154 H 120.399 4.35469 -2.61398 0
M  V30 1155 H 120.329 5.16454 -1.02873 0
M  V30 1156 H 122.82 3.60615 -1.12982 0
M  V30 1157 H 123.133 7.16341 -2.89958 0
M  V30 1158 H 121.478 6.44485 -2.60122 0
M  V30 1159 H 124.669 4.44098 -1.47967 0
M  V30 1160 H 124.842 6.0632 -2.28648 0
M  V30 1161 N 118.248 0.346503 1.53744 0
M  V30 1162 C 119.178 -0.501193 2.28058 0
M  V30 1163 C 120.159 -1.10014 1.29734 0
M  V30 1164 O 121.344 -1.12097 1.58581 0
M  V30 1165 C 118.474 -1.65078 3.05559 0
M  V30 1166 C 117.428 -1.18003 4.11411 0
M  V30 1167 C 116.754 -2.41837 4.76884 0
M  V30 1168 C 118.054 -0.278394 5.21558 0
M  V30 1169 H 119.748 0.11875 2.99164 0
M  V30 1170 H 117.294 0.0585531 1.43881 0
M  V30 1171 H 119.247 -2.25028 3.56287 0
M  V30 1172 H 117.971 -2.29767 2.32109 0
M  V30 1173 H 116.63 -0.603331 3.61601 0
M  V30 1174 H 116.278 -3.0494 4.00026 0
M  V30 1175 H 115.978 -2.1102 5.48402 0
M  V30 1176 H 117.502 -3.02508 5.30397 0
M  V30 1177 H 118.916 -0.784823 5.67903 0
M  V30 1178 H 117.313 -0.0619707 6.00068 0
M  V30 1179 H 118.383 0.684677 4.80042 0
M  V30 1180 N 119.726 -1.57421 0.075193 0
M  V30 1181 C 120.656 -2.15942 -0.888324 0
M  V30 1182 C 121.637 -1.08737 -1.30806 0
M  V30 1183 O 122.822 -1.36787 -1.37851 0
M  V30 1184 C 119.952 -2.72379 -2.1547 0
M  V30 1185 C 118.906 -3.8478 -1.87425 0
M  V30 1186 C 118.232 -4.27834 -3.20721 0
M  V30 1187 C 119.532 -5.08869 -1.17684 0
M  V30 1188 H 121.226 -2.96705 -0.400799 0
M  V30 1189 H 118.772 -1.42723 -0.191342 0
M  V30 1190 H 120.725 -3.11965 -2.83295 0
M  V30 1191 H 119.449 -1.88841 -2.6647 0
M  V30 1192 H 118.108 -3.45703 -1.22004 0
M  V30 1193 H 117.756 -3.41214 -3.6957 0
M  V30 1194 H 117.456 -5.03605 -3.02746 0
M  V30 1195 H 118.98 -4.70039 -3.89738 0
M  V30 1196 H 120.394 -5.4575 -1.75584 0
M  V30 1197 H 118.791 -5.8994 -1.09956 0
M  V30 1198 H 119.861 -4.84648 -0.156453 0
M  V30 1199 N 121.204 0.198386 -1.56346 0
M  V30 1200 C 122.134 1.24865 -1.9731 0
M  V30 1201 C 123.115 1.47651 -0.844576 0
M  V30 1202 O 124.3 1.59444 -1.10866 0
M  V30 1203 C 121.43 2.59358 -2.30977 0
M  V30 1204 C 120.384 2.5119 -3.46537 0
M  V30 1205 C 119.71 3.89926 -3.65871 0
M  V30 1206 C 121.01 2.03977 -4.80823 0
M  V30 1207 H 122.704 0.908252 -2.85291 0
M  V30 1208 H 120.25 0.435462 -1.37258 0
M  V30 1209 H 122.203 3.33011 -2.58228 0
M  V30 1210 H 120.927 2.95132 -1.39874 0
M  V30 1211 H 119.586 1.79993 -3.19371 0
M  V30 1212 H 119.234 4.23046 -2.72105 0
M  V30 1213 H 118.934 3.85336 -4.4361 0
M  V30 1214 H 120.458 4.65205 -3.95495 0
M  V30 1215 H 121.872 2.67386 -5.07127 0
M  V30 1216 H 120.269 2.10397 -5.62008 0
M  V30 1217 H 121.339 0.992861 -4.74626 0
M  V30 1218 N 122.682 1.50554 0.465978 0
M  V30 1219 C 124.098 1.38093 0.800154 0
M  V30 1220 C 124.298 0.440988 1.96615 0
M  V30 1221 O 123.354 -0.114499 2.5224 0
M  V30 1222 C 124.667 2.79565 1.10742 0
M  V30 1223 C 126.215 2.88516 1.21357 0
M  V30 1224 C 126.69 4.30833 1.55393 0
M  V30 1225 N 128.181 4.33807 1.62375 0
M  V30 1226 C 128.916 5.40927 1.90225 0
M  V30 1227 N 128.412 6.58247 2.16062 0
M  V30 1228 N 130.205 5.28376 1.9177 0
M  V30 1229 H 122.356 2.10237 -0.302366 0
M  V30 1230 H 124.619 0.945203 -0.0727746 0
M  V30 1231 H 124.325 3.50208 0.323661 0
M  V30 1232 H 124.199 3.17125 2.04234 0
M  V30 1233 H 126.586 2.1809 1.98799 0
M  V30 1234 H 126.667 2.54492 0.258321 0
M  V30 1235 H 126.311 5.01799 0.784889 0
M  V30 1236 H 126.241 4.62347 2.52076 0
M  V30 1237 H 128.732 3.49212 1.44427 0
M  V30 1238 H 129.045 7.3569 2.36601 0
M  V30 1239 H 127.39 6.61413 2.13444 0
M  V30 1240 H 130.581 4.35715 1.71085 0
M  V30 1241 H 130.754 6.11944 2.13139 0
M  V30 1242 N 124.16 -0.719506 1.40217 0
M  V30 1243 C 125.385 -1.51371 1.4178 0
M  V30 1244 C 125.81 -1.88091 0.0182355 0
M  V30 1245 O 125.168 -1.52997 -0.972707 0
M  V30 1246 C 125.216 -2.768 2.31115 0
M  V30 1247 O 124.32 -3.73349 1.7517 0
M  V30 1248 H 123.661 -0.456529 0.482159 0
M  V30 1249 H 126.191 -0.88644 1.844 0
M  V30 1250 H 126.201 -3.25371 2.46167 0
M  V30 1251 H 124.876 -2.49407 3.3282 0
M  V30 1252 H 123.453 -3.32179 1.69444 0
M  V30 1253 N 125.638 -1.25649 -0.95132 0
M  V30 1254 C 126.884 -1.10757 -1.69884 0
M  V30 1255 C 127.217 0.350061 -1.91019 0
M  V30 1256 O 126.492 1.25783 -1.48354 0
M  V30 1257 C 126.775 -1.86606 -3.07978 0
M  V30 1258 C 126.628 -3.40217 -2.94232 0
M  V30 1259 C 127.947 -1.65182 -4.07925 0
M  V30 1260 H 125.066 -0.40374 -0.616574 0
M  V30 1261 H 127.708 -1.54521 -1.10558 0
M  V30 1262 H 125.858 -1.49409 -3.58621 0
M  V30 1263 H 127.53 -3.87108 -2.50889 0
M  V30 1264 H 125.773 -3.67759 -2.30078 0
M  V30 1265 H 126.444 -3.88505 -3.92133 0
M  V30 1266 H 128.92 -1.9757 -3.66204 0
M  V30 1267 H 127.796 -2.20683 -5.02583 0
M  V30 1268 H 128.057 -0.593933 -4.38092 0
M  V30 1269 N 127.117 1.15442 -1.07289 0
M  V30 1270 C 128.049 2.19773 -0.650585 0
M  V30 1271 C 129.062 1.60076 0.296572 0
M  V30 1272 O 130.251 1.78293 0.0859905 0
M  V30 1273 C 127.351 3.38838 0.0650398 0
M  V30 1274 C 126.524 4.2808 -0.898141 0
M  V30 1275 C 125.583 5.2574 -0.219926 0
M  V30 1276 O 124.609 5.62654 -0.860773 0
M  V30 1277 N 125.811 5.71205 1.03466 0
M  V30 1278 H 128.576 2.56622 -1.54808 0
M  V30 1279 H 126.137 1.30551 -0.957494 0
M  V30 1280 H 128.129 4.01222 0.529415 0
M  V30 1281 H 126.699 3.00409 0.864466 0
M  V30 1282 H 125.919 3.62804 -1.54165 0
M  V30 1283 H 127.207 4.84577 -1.5512 0
M  V30 1284 H 126.605 5.43325 1.57526 0
M  V30 1285 H 125.162 6.35633 1.44272 0
M  V30 1286 N 128.595 0.856903 1.32268 0
M  V30 1287 C 129.525 0.31858 2.31316 0
M  V30 1288 C 130.506 -0.583487 1.59779 0
M  V30 1289 O 131.691 -0.503259 1.87566 0
M  V30 1290 C 128.821 -0.491979 3.43798 0
M  V30 1291 C 127.775 0.315849 4.26833 0
M  V30 1292 C 127.101 -0.619586 5.31098 0
M  V30 1293 C 128.401 1.54282 4.98993 0
M  V30 1294 H 130.095 1.14621 2.76591 0
M  V30 1295 H 127.641 0.552613 1.32974 0
M  V30 1296 H 129.594 -0.879012 4.1213 0
M  V30 1297 H 128.318 -1.35299 2.97257 0
M  V30 1298 H 126.977 0.684664 3.6015 0
M  V30 1299 H 126.625 -1.47751 4.8081 0
M  V30 1300 H 126.325 -0.0830621 5.87541 0
M  V30 1301 H 127.849 -1.00375 6.02293 0
M  V30 1302 H 129.263 1.22796 5.59995 0
M  V30 1303 H 127.66 2.01745 5.65172 0
M  V30 1304 H 128.73 2.30285 4.26728 0
M  V30 1305 N 130.073 -1.45103 0.615059 0
M  V30 1306 C 131.023 -2.27679 -0.120966 0
M  V30 1307 C 132.007 -1.3775 -0.831491 0
M  V30 1308 O 133.199 -1.61683 -0.720249 0
M  V30 1309 C 130.328 -3.24767 -1.1127 0
M  V30 1310 C 129.414 -4.22184 -0.402627 0
M  V30 1311 N 129.805 -5.02692 0.559884 0
M  V30 1312 C 128.103 -4.4125 -0.649202 0
M  V30 1313 C 128.804 -5.73421 0.977942 0
M  V30 1314 N 127.78 -5.42657 0.320104 0
M  V30 1315 H 131.582 -2.87325 0.618181 0
M  V30 1316 H 129.096 -1.56345 0.439304 0
M  V30 1317 H 131.093 -3.82666 -1.65446 0
M  V30 1318 H 129.753 -2.66682 -1.85232 0
M  V30 1319 H 130.764 -5.09354 0.936976 0
M  V30 1320 H 127.441 -3.9428 -1.37293 0
M  V30 1321 H 128.831 -6.48107 1.77222 0
M  V30 1322 N 131.551 -0.354651 -1.53558 0
M  V30 1323 C 132.828 0.294281 -1.93374 0
M  V30 1324 C 133.208 1.67313 -1.28723 0
M  V30 1325 O 132.556 2.24179 -0.442247 0
M  V30 1326 C 132.766 0.355445 -3.47185 0
M  V30 1327 C 134.114 0.601007 -4.20325 0
M  V30 1328 O 135.138 0.437106 -3.53508 0
M  V30 1329 O 133.997 0.919322 -5.38712 0
M  V30 1330 H 131.091 0.174033 -0.808481 0
M  V30 1331 H 133.637 -0.406638 -1.64756 0
M  V30 1332 H 132.409 -0.611729 -3.86489 0
M  V30 1333 H 132.032 1.1027 -3.82003 0
M  V30 1334 N 133.029 1.57378 -0.0835403 0
M  V30 1335 C 134.254 1.98682 0.594987 0
M  V30 1336 C 134.679 0.961969 1.61641 0
M  V30 1337 O 134.037 -0.0709989 1.81161 0
M  V30 1338 C 134.085 3.38988 1.2296 0
M  V30 1339 O 133.189 3.39208 2.34546 0
M  V30 1340 H 132.53 0.646368 0.152002 0
M  V30 1341 H 135.06 2.03961 -0.161533 0
M  V30 1342 H 135.07 3.76431 1.57366 0
M  V30 1343 H 133.745 4.13107 0.481228 0
M  V30 1344 H 132.322 3.13548 2.01846 0
M  V30 1345 N 134.507 -0.190092 1.56449 0
M  V30 1346 C 135.755 -0.907908 1.80559 0
M  V30 1347 C 136.076 -1.83583 0.657438 0
M  V30 1348 O 135.346 -1.93203 -0.323924 0
M  V30 1349 H 133.926 -0.338247 0.666032 0
M  V30 1350 H 136.588 -0.194403 1.93928 0
M  V30 1351 H 135.684 -1.49604 2.73907 0
M  V30 1352 N 135.985 -1.50799 -0.457987 0
M  V30 1353 C 136.933 -1.71162 -1.575 0
M  V30 1354 C 137.927 -0.577592 -1.59249 0
M  V30 1355 O 139.133 -0.758443 -1.63241 0
M  V30 1356 H 135.508 -0.540468 -0.522875 0
M  V30 1357 H 137.479 -2.64837 -1.37492 0
M  V30 1358 C 136.228 -1.83496 -2.95338 0
M  V30 1359 H 135.551 -2.70153 -2.94716 0
M  V30 1360 H 136.991 -2.01765 -3.72917 0
M  V30 1361 C 135.45 -0.589694 -3.31699 0
M  V30 1362 O 135.98 0.265163 -4.00824 0
M  V30 1363 N 134.186 -0.439845 -2.87252 0
M  V30 1364 H 133.733 -1.13655 -2.31172 0
M  V30 1365 H 133.691 0.392159 -3.11945 0
M  V30 1366 N 137.463 0.71206 -1.40597 0
M  V30 1367 C 138.693 1.49894 -1.42181 0
M  V30 1368 C 139.101 1.89189 -0.0208078 0
M  V30 1369 O 138.444 1.56223 0.966436 0
M  V30 1370 C 138.506 2.80215 -2.25211 0
M  V30 1371 C 138.17 2.63221 -3.73582 0
M  V30 1372 C 139.167 2.30249 -4.66135 0
M  V30 1373 C 136.852 2.79376 -4.17438 0
M  V30 1374 C 138.846 2.13645 -6.00529 0
M  V30 1375 C 136.533 2.6239 -5.51901 0
M  V30 1376 C 137.531 2.29573 -6.43262 0
M  V30 1377 O 137.219 2.12719 -7.75246 0
M  V30 1378 H 136.951 0.469031 -0.486812 0
M  V30 1379 H 139.505 0.88564 -1.85326 0
M  V30 1380 H 137.735 3.4389 -1.76852 0
M  V30 1381 H 139.424 3.41947 -2.18694 0
M  V30 1382 H 140.19 2.17398 -4.33547 0
M  V30 1383 H 136.069 3.03906 -3.46644 0
M  V30 1384 H 139.613 1.87953 -6.71803 0
M  V30 1385 H 135.51 2.74826 -5.84073 0
M  V30 1386 H 136.278 2.27611 -7.86216 0
M  V30 1387 N 138.941 1.26152 0.944643 0
M  V30 1388 C 140.166 1.14363 1.7302 0
M  V30 1389 C 140.591 -0.29772 1.85729 0
M  V30 1390 O 139.949 -1.2157 1.34501 0
M  V30 1391 C 139.997 1.81378 3.11664 0
M  V30 1392 O 139.101 1.10022 3.97453 0
M  V30 1393 H 138.442 0.398694 0.53098 0
M  V30 1394 H 140.972 1.66906 1.18337 0
M  V30 1395 H 140.982 1.88064 3.62072 0
M  V30 1396 H 139.657 2.86237 3.0173 0
M  V30 1397 H 138.234 1.11287 3.55907 0
M  V30 1398 N 140.419 -1.14872 1.07899 0
M  V30 1399 C 141.659 -1.8745 0.814965 0
M  V30 1400 C 142.023 -1.80758 -0.64733 0
M  V30 1401 O 143.224 -2.48422 -1.02664 0
M  V30 1402 C 141.495 -3.32286 1.31607 0
M  V30 1403 S 143.054 -4.22537 1.18357 0
M  V30 1404 H 139.872 -0.646833 0.295174 0
M  V30 1405 H 142.474 -1.38555 1.37923 0
M  V30 1406 H 141.178 -3.34703 2.37491 0
M  V30 1407 H 140.709 -3.86238 0.747261 0
M  V30 1408 H 142.724 -4.96044 0.124586 0
M  V30 1409 N 141.898 -0.863906 -1.31812 0
M  V30 1410 C 143.128 -0.485406 -2.00817 0
M  V30 1411 C 143.536 0.925007 -1.65046 0
M  V30 1412 O 142.879 1.61653 -0.872574 0
M  V30 1413 C 142.941 -0.555589 -3.55181 0
M  V30 1414 C 142.605 -1.92654 -4.14407 0
M  V30 1415 C 143.602 -2.89324 -4.31958 0
M  V30 1416 C 141.287 -2.2262 -4.50273 0
M  V30 1417 C 143.281 -4.14108 -4.84555 0
M  V30 1418 C 140.968 -3.47654 -5.02573 0
M  V30 1419 C 141.966 -4.43214 -5.19664 0
M  V30 1420 O 141.654 -5.66033 -5.70843 0
M  V30 1421 H 141.386 -0.188224 -0.649267 0
M  V30 1422 H 143.94 -1.16514 -1.69156 0
M  V30 1423 H 142.17 0.181037 -3.86276 0
M  V30 1424 H 143.859 -0.19138 -4.05449 0
M  V30 1425 H 144.625 -2.6748 -4.04573 0
M  V30 1426 H 140.504 -1.4902 -4.3625 0
M  V30 1427 H 144.048 -4.88703 -4.9781 0
M  V30 1428 H 139.945 -3.69345 -5.29391 0
M  V30 1429 H 140.713 -5.6812 -5.89222 0
M  V30 1430 N 143.376 1.44774 -0.622745 0
M  V30 1431 C 144.792 1.56986 -0.287652 0
M  V30 1432 C 144.992 1.61167 1.20944 0
M  V30 1433 O 144.048 1.55015 1.99315 0
M  V30 1434 C 145.361 2.84551 -0.972188 0
M  V30 1435 C 146.909 2.9825 -0.949536 0
M  V30 1436 C 147.384 4.28605 -1.61437 0
M  V30 1437 N 148.875 4.35399 -1.58057 0
M  V30 1438 C 149.61 5.34964 -2.064 0
M  V30 1439 N 149.106 6.40981 -2.62897 0
M  V30 1440 N 150.899 5.26419 -1.97078 0
M  V30 1441 H 143.05 1.40304 -1.59463 0
M  V30 1442 H 145.313 0.671794 -0.668878 0
M  V30 1443 H 145.019 2.87417 -2.02693 0
M  V30 1444 H 144.893 3.73807 -0.504771 0
M  V30 1445 H 147.28 2.94941 0.0967067 0
M  V30 1446 H 147.361 2.10364 -1.45536 0
M  V30 1447 H 147.005 4.32672 -2.66002 0
M  V30 1448 H 146.935 5.15334 -1.08344 0
M  V30 1449 H 149.426 3.59397 -1.16801 0
M  V30 1450 H 149.739 7.13225 -2.97539 0
M  V30 1451 H 148.084 6.4169 -2.66943 0
M  V30 1452 H 151.275 4.42504 -1.52669 0
M  V30 1453 H 151.448 6.03861 -2.35066 0
M  V30 1454 N 144.854 0.36279 1.53368 0
M  V30 1455 C 145.817 -0.472679 2.24273 0
M  V30 1456 C 146.817 -1.012 1.24961 0
M  V30 1457 O 148.007 -0.898194 1.49259 0
M  V30 1458 C 145.139 -1.66039 2.97731 0
M  V30 1459 H 146.332 0.14773 2.99536 0
M  V30 1460 H 143.885 0.114434 1.55881 0
M  V30 1461 H 144.62 -2.31896 2.26704 0
M  V30 1462 H 144.405 -1.28066 3.70596 0
M  V30 1463 H 145.895 -2.25252 3.51641 0
M  V30 1464 N 146.332 -1.57332 0.0918853 0
M  V30 1465 C 147.58 -1.93853 -0.571446 0
M  V30 1466 C 147.901 -0.974212 -1.6892 0
M  V30 1467 O 147.171 -0.0257254 -1.95883 0
M  V30 1468 H 145.751 -0.715666 -0.214082 0
M  V30 1469 H 148.413 -1.94287 0.154464 0
M  V30 1470 H 147.509 -2.96191 -0.983729 0
M  V30 1471 N 147.81 0.181792 -1.56548 0
M  V30 1472 C 149.226 0.53316 -1.50431 0
M  V30 1473 C 149.426 1.85184 -0.794297 0
M  V30 1474 O 148.482 2.50058 -0.350318 0
M  V30 1475 C 149.795 0.575597 -2.9514 0
M  V30 1476 C 151.343 0.663519 -3.05886 0
M  V30 1477 C 151.818 0.736946 -4.52032 0
M  V30 1478 N 153.309 0.800118 -4.56237 0
M  V30 1479 C 154.044 0.877327 -5.66649 0
M  V30 1480 N 153.54 0.916016 -6.86718 0
M  V30 1481 N 155.333 0.915542 -5.54594 0
M  V30 1482 H 147.484 -0.683025 -2.01118 0
M  V30 1483 H 149.747 -0.244988 -0.915797 0
M  V30 1484 H 149.453 -0.324482 -3.502 0
M  V30 1485 H 149.327 1.42572 -3.49218 0
M  V30 1486 H 151.714 1.55403 -2.50867 0
M  V30 1487 H 151.795 -0.21307 -2.54911 0
M  V30 1488 H 151.439 -0.149262 -5.07681 0
M  V30 1489 H 151.369 1.62953 -5.00753 0
M  V30 1490 H 153.86 0.778926 -3.69785 0
M  V30 1491 H 154.173 0.975813 -7.66614 0
M  V30 1492 H 152.518 0.884469 -6.89349 0
M  V30 1493 H 155.709 0.882245 -4.59711 0
M  V30 1494 H 155.882 0.972253 -6.40665 0
M  V30 1495 N 149.288 1.51039 0.449983 0
M  V30 1496 C 150.699 1.557 1.03026 0
M  V30 1497 C 151.05 0.372939 1.92623 0
M  V30 1498 O 150.175 -0.511771 2.10261 0
M  V30 1499 C 150.77 2.82171 1.87523 0
M  V30 1500 C 149.329 2.89444 2.40622 0
M  V30 1501 C 148.476 2.50228 1.19504 0
M  V30 1502 H 151.427 1.56999 0.231745 0
M  V30 1503 H 151.448 2.65219 2.72835 0
M  V30 1504 H 150.96 3.68331 1.22286 0
M  V30 1505 H 149.061 2.07685 3.0935 0
M  V30 1506 H 149.174 3.92816 2.74285 0
M  V30 1507 H 147.538 2.03139 1.53644 0
M  V30 1508 H 148.321 3.38719 0.558972 0
M  V30 1509 N 150.766 -0.704594 1.40972 0
M  V30 1510 C 151.729 -1.80035 1.41845 0
M  V30 1511 C 152.729 -1.57774 0.310474 0
M  V30 1512 O 153.919 -1.64613 0.56992 0
M  V30 1513 C 151.051 -3.18284 1.22098 0
M  V30 1514 H 152.244 -1.80658 2.3938 0
M  V30 1515 H 149.797 -0.911329 1.26982 0
M  V30 1516 H 150.532 -3.23306 0.253672 0
M  V30 1517 H 150.317 -3.35843 2.02366 0
M  V30 1518 H 151.807 -3.98289 1.25522 0
M  V30 1519 N 152.244 -1.26651 -0.937939 0
M  V30 1520 C 153.492 -1.12165 -1.68118 0
M  V30 1521 C 153.813 0.334983 -1.92101 0
M  V30 1522 O 153.083 1.23583 -1.52 0
M  V30 1523 H 151.663 -0.412093 -0.623048 0
M  V30 1524 H 154.325 -1.59027 -1.12678 0
M  V30 1525 H 153.421 -1.64289 -2.6536 0
M  V30 1526 N 153.722 1.14298 -1.08507 0
M  V30 1527 C 154.95 1.89219 -0.836876 0
M  V30 1528 C 155.365 1.78638 0.611054 0
M  V30 1529 O 154.722 1.14643 1.41998 0
M  V30 1530 C 154.773 3.39158 -1.25116 0
M  V30 1531 O 154.494 3.49449 -2.64229 0
M  V30 1532 C 155.995 4.31073 -1.03398 0
M  V30 1533 H 153.215 0.599328 -0.301739 0
M  V30 1534 H 155.759 1.44746 -1.44461 0
M  V30 1535 H 153.914 3.81251 -0.687514 0
M  V30 1536 H 154.328 4.42589 -2.81452 0
M  V30 1537 H 155.802 5.34646 -1.37323 0
M  V30 1538 H 156.279 4.3919 0.0289259 0
M  V30 1539 H 156.885 3.94738 -1.58311 0
M  V30 1540 N 155.201 0.870884 1.31352 0
M  V30 1541 C 156.447 0.482987 1.96965 0
M  V30 1542 C 156.78 -0.962462 1.68672 0
M  V30 1543 O 156.055 -1.6779 0.98371 0
M  V30 1544 C 156.338 0.741752 3.52378 0
M  V30 1545 C 156.191 2.2368 3.9024 0
M  V30 1546 C 157.51 0.208838 4.39604 0
M  V30 1547 H 154.629 0.176955 0.715441 0
M  V30 1548 H 157.271 1.09229 1.55464 0
M  V30 1549 H 155.421 0.223149 3.87859 0
M  V30 1550 H 157.093 2.82273 3.64856 0
M  V30 1551 H 155.336 2.70901 3.38814 0
M  V30 1552 H 156.007 2.3685 4.98604 0
M  V30 1553 H 158.483 0.652529 4.10952 0
M  V30 1554 H 157.359 0.419336 5.47296 0
M  V30 1555 H 157.62 -0.889275 4.33064 0
M  V30 1556 N 156.679 -1.44442 0.630414 0
M  V30 1557 C 157.629 -2.27794 -0.0968103 0
M  V30 1558 C 158.613 -1.38624 -0.816834 0
M  V30 1559 O 159.805 -1.62438 -0.70306 0
M  V30 1560 C 156.934 -3.25929 -1.07819 0
M  V30 1561 C 156.02 -4.22588 -0.357826 0
M  V30 1562 N 156.411 -5.0207 0.613169 0
M  V30 1563 C 154.709 -4.41914 -0.602365 0
M  V30 1564 C 155.41 -5.72351 1.03871 0
M  V30 1565 N 154.386 -5.42287 0.377642 0
M  V30 1566 H 158.188 -2.86653 0.648621 0
M  V30 1567 H 155.702 -1.55871 0.455862 0
M  V30 1568 H 157.699 -3.84399 -1.61378 0
M  V30 1569 H 156.359 -2.68631 -1.82393 0
M  V30 1570 H 157.37 -5.08331 0.990947 0
M  V30 1571 H 154.047 -3.95714 -1.33103 0
M  V30 1572 H 155.437 -6.4619 1.84086 0
M  V30 1573 N 158.157 -0.370918 -1.53173 0
M  V30 1574 C 159.087 0.464847 -2.28826 0
M  V30 1575 C 160.068 1.07936 -1.31468 0
M  V30 1576 O 161.253 1.0956 -1.60344 0
M  V30 1577 C 158.383 1.60196 -3.08147 0
M  V30 1578 C 157.337 1.11443 -4.13237 0
M  V30 1579 C 156.663 2.3422 -4.80672 0
M  V30 1580 C 157.963 0.195384 -5.21934 0
M  V30 1581 H 159.657 -0.166329 -2.98938 0
M  V30 1582 H 157.203 -0.0814359 -1.4377 0
M  V30 1583 H 159.156 2.19332 -3.59822 0
M  V30 1584 H 157.88 2.26045 -2.35735 0
M  V30 1585 H 156.539 0.545727 -3.62515 0
M  V30 1586 H 156.187 2.98537 -4.04827 0
M  V30 1587 H 155.887 2.02269 -5.51689 0
M  V30 1588 H 157.411 2.94032 -5.35143 0
M  V30 1589 H 158.825 0.694375 -5.69079 0
M  V30 1590 H 157.222 -0.0335027 -6.00091 0
M  V30 1591 H 158.292 -0.760961 -4.78892 0
M  V30 1592 N 159.635 1.57281 -0.100228 0
M  V30 1593 C 160.565 2.17328 0.853857 0
M  V30 1594 C 161.546 1.10804 1.2906 0
M  V30 1595 O 162.731 1.38963 1.35657 0
M  V30 1596 C 159.861 2.75772 2.11109 0
M  V30 1597 C 158.815 3.87713 1.81279 0
M  V30 1598 C 158.141 4.32882 3.13874 0
M  V30 1599 C 159.441 5.10677 1.09574 0
M  V30 1600 H 161.135 2.97305 0.353545 0
M  V30 1601 H 158.681 1.43009 0.168612 0
M  V30 1602 H 160.634 3.16433 2.78296 0
M  V30 1603 H 159.358 1.93057 2.63432 0
M  V30 1604 H 158.017 3.476 1.16489 0
M  V30 1605 H 157.665 3.47051 3.64095 0
M  V30 1606 H 157.365 5.08358 2.94696 0
M  V30 1607 H 158.889 4.7618 3.82211 0
M  V30 1608 H 160.303 5.48474 1.66879 0
M  V30 1609 H 158.7 5.91615 1.00557 0
M  V30 1610 H 159.77 4.84835 0.0793299 0
M  V30 1611 N 161.113 -0.173488 1.56642 0
M  V30 1612 C 162.359 -0.891784 1.8214 0
M  V30 1613 C 162.692 -1.8199 0.677736 0
M  V30 1614 O 161.967 -1.91842 -0.320446 0
M  V30 1615 C 162.25 -1.68933 3.18015 0
M  V30 1616 C 162.103 -0.784487 4.42906 0
M  V30 1617 C 163.422 -2.65748 3.50808 0
M  V30 1618 H 160.541 -0.322761 0.662567 0
M  V30 1619 H 163.183 -0.158095 1.89341 0
M  V30 1620 H 161.333 -2.31482 3.12007 0
M  V30 1621 H 163.005 -0.172046 4.60979 0
M  V30 1622 H 161.248 -0.0924117 4.33702 0
M  V30 1623 H 161.919 -1.37799 5.34524 0
M  V30 1624 H 164.395 -2.13327 3.57255 0
M  V30 1625 H 163.271 -3.18619 4.4696 0
M  V30 1626 H 163.532 -3.45842 2.75401 0
M  V30 1627 N 162.591 -1.51276 -0.441967 0
M  V30 1628 C 163.868 -1.54252 -1.20273 0
M  V30 1629 C 164.248 -0.30408 -2.08898 0
M  V30 1630 O 163.596 0.711084 -2.17154 0
M  V30 1631 C 163.806 -2.85406 -2.00859 0
M  V30 1632 C 165.154 -3.37181 -2.58059 0
M  V30 1633 O 166.178 -2.86925 -2.11074 0
M  V30 1634 O 165.037 -4.24858 -3.43741 0
M  V30 1635 H 162.131 -0.619969 -0.547328 0
M  V30 1636 H 164.677 -1.63586 -0.451413 0
M  V30 1637 H 163.449 -3.67003 -1.35736 0
M  V30 1638 H 163.072 -2.79213 -2.83065 0
M  V30 1639 N 164.069 0.697108 -1.41344 0
M  V30 1640 C 165.315 1.4593 -1.40827 0
M  V30 1641 C 165.648 1.94193 -0.0167098 0
M  V30 1642 O 164.923 1.69425 0.955263 0
M  V30 1643 C 165.206 2.67229 -2.41373 0
M  V30 1644 C 165.059 2.24741 -3.8963 0
M  V30 1645 C 166.378 3.69423 -2.39196 0
M  V30 1646 H 163.497 0.529303 -0.512842 0
M  V30 1647 H 166.139 0.794112 -1.72609 0
M  V30 1648 H 164.289 3.23982 -2.14401 0
M  V30 1649 H 165.961 1.73327 -4.27499 0
M  V30 1650 H 164.204 1.56542 -4.0457 0
M  V30 1651 H 164.875 3.1177 -4.55525 0
M  V30 1652 H 167.351 3.2234 -2.63128 0
M  V30 1653 H 166.227 4.51907 -3.11563 0
M  V30 1654 H 166.488 4.19012 -1.41001 0
M  V30 1655 N 165.547 1.27147 0.931209 0
M  V30 1656 C 166.958 1.12044 1.49342 0
M  V30 1657 C 167.309 -0.295795 1.93957 0
M  V30 1658 O 166.434 -1.18835 1.80852 0
M  V30 1659 C 167.029 2.02781 2.71414 0
M  V30 1660 C 165.588 1.91794 3.2387 0
M  V30 1661 C 164.735 1.95543 1.96617 0
M  V30 1662 H 167.686 1.40091 0.745672 0
M  V30 1663 H 167.707 1.58156 3.46074 0
M  V30 1664 H 167.219 3.05848 2.38911 0
M  V30 1665 H 165.32 0.916992 3.6114 0
M  V30 1666 H 165.433 2.77852 3.90302 0
M  V30 1667 H 163.797 1.39722 2.12955 0
M  V30 1668 H 164.58 3.00259 1.66432 0
M  V30 1669 N 167.025 -1.13721 1.09112 0
M  V30 1670 C 168.436 -1.6648 0.845068 0
M  V30 1671 C 168.787 -1.85911 -0.62701 0
M  V30 1672 O 167.912 -1.57556 -1.48341 0
M  V30 1673 C 168.507 -3.02413 1.52748 0
M  V30 1674 C 167.066 -3.52176 1.32849 0
M  V30 1675 C 166.213 -2.27492 1.58564 0
M  V30 1676 H 169.164 -0.976872 1.25072 0
M  V30 1677 H 169.185 -3.68223 0.958752 0
M  V30 1678 H 168.697 -2.88238 2.59885 0
M  V30 1679 H 166.798 -3.7156 0.278137 0
M  V30 1680 H 166.911 -4.32499 2.0611 0
M  V30 1681 H 165.275 -2.33923 1.00758 0
M  V30 1682 H 166.058 -2.15886 2.66924 0
M  V30 1683 N 168.503 -0.877838 -1.30888 0
M  V30 1684 C 169.413 -0.343096 -2.32078 0
M  V30 1685 C 170.429 0.551022 -1.65045 0
M  V30 1686 O 171.605 0.445854 -1.96403 0
M  V30 1687 C 168.67 0.439905 -3.43898 0
M  V30 1688 C 167.731 -0.483111 -4.26573 0
M  V30 1689 C 166.964 0.262616 -5.33053 0
M  V30 1690 O 167.187 1.48967 -5.50604 0
M  V30 1691 O 166.121 -0.383593 -6.00676 0
M  V30 1692 H 169.947 -1.18203 -2.79753 0
M  V30 1693 H 167.532 -0.64145 -1.34929 0
M  V30 1694 H 169.414 0.883504 -4.12034 0
M  V30 1695 H 168.089 1.25526 -2.98371 0
M  V30 1696 H 166.996 -0.975374 -3.61161 0
M  V30 1697 H 168.329 -1.26427 -4.75686 0
M  V30 1698 N 169.982 1.44106 -0.638065 0
M  V30 1699 C 170.892 2.34513 0.0637334 0
M  V30 1700 C 171.908 1.53018 0.828346 0
M  V30 1701 O 173.084 1.85723 0.779036 0
M  V30 1702 C 170.149 3.31095 1.02844 0
M  V30 1703 C 169.21 4.28497 0.26244 0
M  V30 1704 C 168.443 5.20465 1.1812 0
M  V30 1705 O 168.666 5.16514 2.42011 0
M  V30 1706 O 167.6 5.98251 0.661774 0
M  V30 1707 H 171.426 2.95989 -0.68003 0
M  V30 1708 H 169.011 1.43994 -0.398252 0
M  V30 1709 H 170.893 3.90526 1.58327 0
M  V30 1710 H 169.568 2.72144 1.7527 0
M  V30 1711 H 168.475 3.72592 -0.335602 0
M  V30 1712 H 169.808 4.90388 -0.421936 0
M  V30 1713 N 171.46 0.379036 1.52974 0
M  V30 1714 C 172.871 -0.0972525 1.86447 0
M  V30 1715 C 173.222 -1.47027 1.29914 0
M  V30 1716 O 172.347 -2.07135 0.626433 0
M  V30 1717 C 172.942 -0.183248 3.38304 0
M  V30 1718 C 171.501 -0.603812 3.71525 0
M  V30 1719 C 170.648 0.240632 2.76254 0
M  V30 1720 H 173.599 0.597316 1.4703 0
M  V30 1721 H 173.62 -1.00432 3.67006 0
M  V30 1722 H 173.132 0.816191 3.79421 0
M  V30 1723 H 171.233 -1.61099 3.35973 0
M  V30 1724 H 171.346 -0.369086 4.77676 0
M  V30 1725 H 169.71 -0.292548 2.53014 0
M  V30 1726 H 170.493 1.23786 3.20206 0
M  V30 1727 N 172.938 -1.57226 0.108567 0
M  V30 1728 C 173.87 -2.11809 -0.875752 0
M  V30 1729 C 174.883 -1.05839 -1.23701 0
M  V30 1730 O 176.072 -1.33245 -1.18778 0
M  V30 1731 C 173.172 -2.59411 -2.18081 0
M  V30 1732 C 172.345 -3.89364 -1.99284 0
M  V30 1733 C 171.404 -4.22672 -3.13424 0
M  V30 1734 O 170.43 -4.91668 -2.86795 0
M  V30 1735 N 171.632 -3.79154 -4.3957 0
M  V30 1736 H 174.397 -2.9689 -0.409477 0
M  V30 1737 H 171.958 -1.61721 -0.076158 0
M  V30 1738 H 173.95 -2.7873 -2.93414 0
M  V30 1739 H 172.52 -1.79268 -2.5609 0
M  V30 1740 H 171.74 -3.79059 -1.08203 0
M  V30 1741 H 173.028 -4.74358 -1.84017 0
M  V30 1742 H 172.426 -3.23486 -4.64083 0
M  V30 1743 H 170.983 -4.03602 -5.11809 0
M  V30 1744 N 174.416 0.165178 -1.56732 0
M  V30 1745 C 175.346 1.20651 -1.99914 0
M  V30 1746 C 176.327 1.45827 -0.875705 0
M  V30 1747 O 177.512 1.57057 -1.14223 0
M  V30 1748 C 174.642 2.54401 -2.36427 0
M  V30 1749 C 173.596 2.43782 -3.51787 0
M  V30 1750 C 172.922 3.82078 -3.7406 0
M  V30 1751 C 174.222 1.93732 -4.85041 0
M  V30 1752 H 175.916 0.847534 -2.87154 0
M  V30 1753 H 173.462 0.40625 -1.38151 0
M  V30 1754 H 175.415 3.27458 -2.65234 0
M  V30 1755 H 174.139 2.92098 -1.46103 0
M  V30 1756 H 172.798 1.73178 -3.23117 0
M  V30 1757 H 172.446 4.17179 -2.81017 0
M  V30 1758 H 172.146 3.7584 -4.51684 0
M  V30 1759 H 173.67 4.56712 -4.05274 0
M  V30 1760 H 175.084 2.56569 -5.12684 0
M  V30 1761 H 173.481 1.98428 -5.66345 0
M  V30 1762 H 174.551 0.891962 -4.76626 0
M  V30 1763 N 175.894 1.51508 0.433938 0
M  V30 1764 C 177.119 1.68443 1.21003 0
M  V30 1765 C 177.544 0.382636 1.84167 0
M  V30 1766 O 176.902 -0.65755 1.68956 0
M  V30 1767 C 176.95 2.80405 2.26727 0
M  V30 1768 O 176.054 2.44245 3.32292 0
M  V30 1769 H 175.395 0.561536 0.354363 0
M  V30 1770 H 177.925 1.9809 0.512024 0
M  V30 1771 H 177.935 3.0459 2.71457 0
M  V30 1772 H 176.61 3.74867 1.80132 0
M  V30 1773 H 175.187 2.30644 2.93015 0
M  V30 1774 N 177.372 -0.689602 1.41712 0
M  V30 1775 C 178.612 -1.46184 1.42862 0
M  V30 1776 C 178.976 -1.91962 0.0382204 0
M  V30 1777 O 180.177 -2.68694 -0.0755019 0
M  V30 1778 C 178.448 -2.6371 2.4123 0
M  V30 1779 S 180.007 -3.52768 2.6096 0
M  V30 1780 H 176.825 -0.49947 0.506015 0
M  V30 1781 H 179.427 -0.804107 1.78198 0
M  V30 1782 H 178.131 -2.28293 3.41044 0
M  V30 1783 H 177.662 -3.3437 2.07269 0
M  V30 1784 H 179.677 -4.59146 1.88148 0
M  V30 1785 N 178.85 -1.27639 -0.924453 0
M  V30 1786 C 180.097 -1.14167 -1.67249 0
M  V30 1787 C 180.425 0.311863 -1.91984 0
M  V30 1788 O 179.68 1.24425 -1.51053 0
M  V30 1789 C 179.979 -1.87407 -3.04325 0
M  V30 1790 C 179.645 -3.37249 -2.99289 0
M  V30 1791 C 178.307 -3.7812 -2.97622 0
M  V30 1792 C 180.659 -4.32845 -2.90336 0
M  V30 1793 C 177.987 -5.12944 -2.8479 0
M  V30 1794 C 180.339 -5.6773 -2.79045 0
M  V30 1795 C 179.003 -6.07889 -2.7573 0
M  V30 1796 H 178.273 -0.417766 -0.612007 0
M  V30 1797 H 180.92 -1.58286 -1.07786 0
M  V30 1798 H 179.225 -1.35805 -3.67511 0
M  V30 1799 H 180.922 -1.74408 -3.61086 0
M  V30 1800 H 177.512 -3.04748 -3.01374 0
M  V30 1801 H 181.696 -4.02239 -2.90719 0
M  V30 1802 H 176.952 -5.432 -2.80612 0
M  V30 1803 H 181.126 -6.41472 -2.71083 0
M  V30 1804 H 178.753 -7.12314 -2.65544 0
M  V30 1805 N 180.328 1.1314 -1.09713 0
M  V30 1806 C 181.744 1.36477 -0.827423 0
M  V30 1807 C 181.944 1.93654 0.556817 0
M  V30 1808 O 181 2.15791 1.31112 0
M  V30 1809 C 182.313 2.31334 -1.92106 0
M  V30 1810 C 183.861 2.44943 -1.94864 0
M  V30 1811 C 184.336 3.4311 -3.0338 0
M  V30 1812 N 185.827 3.50662 -3.02639 0
M  V30 1813 C 186.562 4.2651 -3.83246 0
M  V30 1814 N 186.058 5.05485 -4.73768 0
M  V30 1815 N 187.851 4.2184 -3.71493 0
M  V30 1816 H 180.002 0.743807 -1.9895 0
M  V30 1817 H 182.265 0.389823 -0.864143 0
M  V30 1818 H 181.971 1.96483 -2.91698 0
M  V30 1819 H 181.845 3.31381 -1.80184 0
M  V30 1820 H 184.232 2.79079 -0.959099 0
M  V30 1821 H 184.313 1.4481 -2.10864 0
M  V30 1822 H 183.957 3.09704 -4.02549 0
M  V30 1823 H 183.887 4.43055 -2.84622 0
M  V30 1824 H 186.378 2.94315 -2.37039 0
M  V30 1825 H 186.691 5.60675 -5.3185 0
M  V30 1826 H 185.036 5.04708 -4.77802 0
M  V30 1827 H 188.227 3.5922 -3.00131 0
M  V30 1828 H 188.4 4.80697 -4.3455 0
M  V30 1829 N 181.806 0.884767 1.30421 0
M  V30 1830 C 182.753 0.349642 2.28136 0
M  V30 1831 C 183.723 -0.560061 1.56373 0
M  V30 1832 O 184.908 -0.488524 1.8444 0
M  V30 1833 C 182.048 -0.42999 3.42411 0
M  V30 1834 C 181.161 0.508907 4.28992 0
M  V30 1835 C 180.296 -0.286301 5.30428 0
M  V30 1836 C 179.335 0.648079 6.08659 0
M  V30 1837 N 178.472 -0.111792 7.02011 0
M  V30 1838 H 183.312 1.18807 2.73293 0
M  V30 1839 H 180.849 0.597231 1.3443 0
M  V30 1840 H 182.807 -0.897923 4.07423 0
M  V30 1841 H 181.437 -1.23299 2.98324 0
M  V30 1842 H 180.489 1.09533 3.64289 0
M  V30 1843 H 181.801 1.22475 4.8353 0
M  V30 1844 H 180.955 -0.816098 6.01186 0
M  V30 1845 H 179.694 -1.03536 4.76583 0
M  V30 1846 H 178.699 1.18951 5.36778 0
M  V30 1847 H 179.924 1.39623 6.64592 0
M  V30 1848 H 177.87 -0.843395 6.50556 0
M  V30 1849 H 177.787 0.544429 7.54037 0
M  V30 1850 H 179.055 -0.622339 7.77012 0
M  V30 1851 N 183.284 -1.43765 0.645699 0
M  V30 1852 C 184.509 -2.06767 0.161883 0
M  V30 1853 C 184.934 -1.48034 -1.16049 0
M  V30 1854 O 184.292 -0.587369 -1.71522 0
M  V30 1855 C 184.34 -3.60519 0.0762003 0
M  V30 1856 O 183.444 -4.00982 -0.963721 0
M  V30 1857 H 182.785 -0.657675 0.091429 0
M  V30 1858 H 185.315 -1.84397 0.886499 0
M  V30 1859 H 185.325 -4.07853 -0.109604 0
M  V30 1860 H 184 -4.02646 1.04157 0
M  V30 1861 H 182.577 -3.65253 -0.751312 0
M  V30 1862 N 184.763 -0.387143 -1.52771 0
M  V30 1863 C 186.174 0.0873634 -1.86495 0
M  V30 1864 C 186.525 1.46336 -1.30691 0
M  V30 1865 O 185.65 2.068 -0.637409 0
M  V30 1866 C 186.245 0.165305 -3.38396 0
M  V30 1867 C 184.804 0.584101 -3.7184 0
M  V30 1868 C 183.951 -0.255279 -2.76122 0
M  V30 1869 H 186.902 -0.605104 -1.46711 0
M  V30 1870 H 186.923 0.984848 -3.67534 0
M  V30 1871 H 186.435 -0.836301 -3.78982 0
M  V30 1872 H 184.536 1.59315 -3.36823 0
M  V30 1873 H 184.649 0.343749 -4.77865 0
M  V30 1874 H 183.013 0.279126 -2.53166 0
M  V30 1875 H 183.796 -1.25482 -3.19545 0
M  V30 1876 N 186.241 1.57166 -0.116904 0
M  V30 1877 C 187.171 2.18222 0.830759 0
M  V30 1878 C 188.152 1.12167 1.27877 0
M  V30 1879 O 189.337 1.40394 1.34176 0
M  V30 1880 C 186.467 2.77996 2.08172 0
M  V30 1881 C 185.421 3.89614 1.77157 0
M  V30 1882 C 184.747 4.36187 3.09265 0
M  V30 1883 C 186.047 5.1181 1.04151 0
M  V30 1884 H 187.741 2.97664 0.321992 0
M  V30 1885 H 185.287 1.4318 0.153434 0
M  V30 1886 H 187.24 3.19366 2.74924 0
M  V30 1887 H 185.964 1.9584 2.6137 0
M  V30 1888 H 184.623 3.48816 1.12796 0
M  V30 1889 H 184.271 3.50893 3.60393 0
M  V30 1890 H 183.971 5.11455 2.89288 0
M  V30 1891 H 185.495 4.80207 3.77139 0
M  V30 1892 H 186.909 5.50214 1.61052 0
M  V30 1893 H 185.306 5.92648 0.942762 0
M  V30 1894 H 186.376 4.84892 0.0279022 0
M  V30 1895 N 187.719 -0.156864 1.56817 0
M  V30 1896 C 188.944 -0.890331 1.87318 0
M  V30 1897 C 189.369 -1.74394 0.704855 0
M  V30 1898 O 188.727 -1.77972 -0.345786 0
M  V30 1899 C 188.775 -1.73102 3.16336 0
M  V30 1900 O 187.879 -2.83422 2.99576 0
M  V30 1901 H 187.22 -0.24857 0.615718 0
M  V30 1902 H 189.75 -0.150649 2.04045 0
M  V30 1903 H 189.76 -2.12803 3.48107 0
M  V30 1904 H 188.435 -1.10412 4.00976 0
M  V30 1905 H 187.012 -2.47199 2.7919 0
M  V30 1906 N 189.197 -1.51736 -0.425897 0
M  V30 1907 C 190.145 -1.74464 -1.53834 0
M  V30 1908 C 191.139 -0.611241 -1.57988 0
M  V30 1909 O 192.345 -0.792899 -1.61596 0
M  V30 1910 H 188.72 -0.551437 -0.511293 0
M  V30 1911 H 190.691 -2.67694 -1.31843 0
M  V30 1912 C 189.44 -1.8972 -2.91379 0
M  V30 1913 H 188.763 -2.76344 -2.88919 0
M  V30 1914 H 190.203 -2.09629 -3.68553 0
M  V30 1915 C 188.662 -0.65992 -3.30374 0
M  V30 1916 O 189.192 0.180083 -4.01296 0
M  V30 1917 N 187.398 -0.500677 -2.86254 0
M  V30 1918 H 186.945 -1.18532 -2.28709 0
M  V30 1919 H 186.903 0.325903 -3.12706 0
M  V30 1920 N 190.675 0.682077 -1.42076 0
M  V30 1921 C 191.921 1.44428 -1.42367 0
M  V30 1922 C 192.254 1.94164 -0.0373056 0
M  V30 1923 O 191.529 1.70429 0.937239 0
M  V30 1924 C 191.812 2.64654 -2.44194 0
M  V30 1925 C 191.665 2.20596 -3.91991 0
M  V30 1926 C 192.984 3.66865 -2.431 0
M  V30 1927 H 190.103 0.523834 -0.518428 0
M  V30 1928 H 192.745 0.77576 -1.73442 0
M  V30 1929 H 190.895 3.2169 -2.17826 0
M  V30 1930 H 192.567 1.68783 -4.29313 0
M  V30 1931 H 190.81 1.52242 -4.06208 0
M  V30 1932 H 191.481 3.06921 -4.58807 0
M  V30 1933 H 193.957 3.19531 -2.66532 0
M  V30 1934 H 192.833 4.48577 -3.16339 0
M  V30 1935 H 193.094 4.17493 -1.45437 0
M  V30 1936 N 192.153 1.28127 0.917671 0
M  V30 1937 C 193.399 1.15223 1.66888 0
M  V30 1938 C 193.732 -0.299293 1.9188 0
M  V30 1939 O 193.007 -1.21805 1.51637 0
M  V30 1940 C 193.29 1.94706 3.02922 0
M  V30 1941 C 193.143 3.47898 2.85109 0
M  V30 1942 C 194.462 1.75939 4.03402 0
M  V30 1943 H 191.581 0.419946 0.605652 0
M  V30 1944 H 194.223 1.57398 1.06423 0
M  V30 1945 H 192.373 1.58864 3.54534 0
M  V30 1946 H 194.045 3.93624 2.40537 0
M  V30 1947 H 192.288 3.7373 2.20246 0
M  V30 1948 H 192.959 3.98765 3.81694 0
M  V30 1949 H 195.435 2.07209 3.60837 0
M  V30 1950 H 194.311 2.33931 4.96556 0
M  V30 1951 H 194.572 0.709877 4.36364 0
M  V30 1952 N 193.631 -1.12557 1.10312 0
M  V30 1953 C 194.871 -1.8568 0.854543 0
M  V30 1954 C 195.235 -1.82091 -0.608843 0
M  V30 1955 O 196.436 -2.50544 -0.973717 0
M  V30 1956 C 194.707 -3.2942 1.38626 0
M  V30 1957 S 196.266 -4.19931 1.27293 0
M  V30 1958 H 193.084 -0.640427 0.308827 0
M  V30 1959 H 195.686 -1.35599 1.40831 0
M  V30 1960 H 194.39 -3.2959 2.44537 0
M  V30 1961 H 193.921 -3.84566 0.82902 0
M  V30 1962 H 195.936 -4.95668 0.229776 0
M  V30 1963 N 195.109 -0.891671 -1.2995 0
M  V30 1964 C 196.019 -0.367691 -2.31701 0
M  V30 1965 C 197.035 0.533486 -1.6562 0
M  V30 1966 O 198.211 0.424997 -1.96865 0
M  V30 1967 C 195.276 0.403406 -3.44345 0
M  V30 1968 C 194.337 -0.528328 -4.26037 0
M  V30 1969 C 193.57 0.206063 -5.33302 0
M  V30 1970 O 193.793 1.43119 -5.52153 0
M  V30 1971 O 192.727 -0.447281 -6.00236 0
M  V30 1972 H 196.553 -1.21163 -2.78484 0
M  V30 1973 H 194.138 -0.655725 -1.34241 0
M  V30 1974 H 196.02 0.839753 -4.12948 0
M  V30 1975 H 194.695 1.22354 -2.99685 0
M  V30 1976 H 193.602 -1.01362 -3.60106 0
M  V30 1977 H 194.935 -1.31465 -4.74318 0
M  V30 1978 N 196.587 1.43421 -0.653314 0
M  V30 1979 C 197.833 2.02641 -0.175593 0
M  V30 1980 C 198.188 1.5062 1.19713 0
M  V30 1981 O 197.481 0.689697 1.78756 0
M  V30 1982 C 197.675 3.57176 -0.126623 0
M  V30 1983 C 197.504 4.24191 -1.49306 0
M  V30 1984 C 196.274 4.60257 -2.08547 0
M  V30 1985 C 198.472 4.53193 -2.43148 0
M  V30 1986 N 196.454 5.12345 -3.38194 0
M  V30 1987 C 197.825 5.06601 -3.57429 0
M  V30 1988 C 199.88 4.35161 -2.41949 0
M  V30 1989 C 198.583 5.43875 -4.70736 0
M  V30 1990 C 200.609 4.73498 -3.54336 0
M  V30 1991 C 199.971 5.27039 -4.67343 0
M  V30 1992 H 196.07 0.77441 -0.108686 0
M  V30 1993 H 198.654 1.74596 -0.861638 0
M  V30 1994 H 196.825 3.84784 0.528766 0
M  V30 1995 H 198.557 4.03078 0.36198 0
M  V30 1996 H 195.312 4.45302 -1.61255 0
M  V30 1997 H 195.736 5.42842 -4.04538 0
M  V30 1998 H 200.378 3.9304 -1.55818 0
M  V30 1999 H 198.096 5.8494 -5.57558 0
M  V30 2000 H 201.682 4.61241 -3.5461 0
M  V30 2001 H 200.562 5.56153 -5.52868 0
M  V30 2002 N 198.065 0.39524 1.52563 0
M  V30 2003 C 199.313 -0.184678 2.01254 0
M  V30 2004 C 199.634 -1.46822 1.28329 0
M  V30 2005 O 198.904 -1.91666 0.405094 0
M  V30 2006 H 197.484 -0.0712355 0.743596 0
M  V30 2007 H 200.146 0.528293 1.87603 0
M  V30 2008 H 199.242 -0.390681 3.09645 0
M  V30 2009 N 199.544 -1.57102 0.125237 0
M  V30 2010 C 200.955 -1.82384 -0.399142 0
M  V30 2011 C 201.306 -1.04276 -1.66195 0
M  V30 2012 O 200.431 -0.281269 -2.14564 0
M  V30 2013 C 201.026 -3.30821 -0.730932 0
M  V30 2014 C 199.585 -3.56762 -1.19992 0
M  V30 2015 C 198.732 -2.7649 -0.211792 0
M  V30 2016 H 201.683 -1.54786 0.350277 0
M  V30 2017 H 201.704 -3.4579 -1.58775 0
M  V30 2018 H 201.216 -3.87643 0.188345 0
M  V30 2019 H 199.317 -3.05305 -2.13588 0
M  V30 2020 H 199.43 -4.65317 -1.14093 0
M  V30 2021 H 197.794 -2.4489 -0.700085 0
M  V30 2022 H 198.577 -3.36073 0.700691 0
M  V30 2023 N 201.022 0.148545 -1.56898 0
M  V30 2024 C 202.438 0.501131 -1.51528 0
M  V30 2025 C 202.638 1.83458 -0.833399 0
M  V30 2026 O 201.694 2.49259 -0.40328 0
M  V30 2027 C 203.007 0.512864 -2.96294 0
M  V30 2028 C 204.555 0.598487 -3.07225 0
M  V30 2029 C 205.03 0.640897 -4.53494 0
M  V30 2030 N 206.521 0.703163 -4.57832 0
M  V30 2031 C 207.256 0.756935 -5.68382 0
M  V30 2032 N 206.752 0.770147 -6.88506 0
M  V30 2033 N 208.545 0.797698 -5.56411 0
M  V30 2034 H 200.696 -0.725532 -1.99624 0
M  V30 2035 H 202.959 -0.264358 -0.910395 0
M  V30 2036 H 202.665 -0.398691 -3.49433 0
M  V30 2037 H 202.539 1.35133 -3.52163 0
M  V30 2038 H 204.926 1.50046 -2.54106 0
M  V30 2039 H 205.007 -0.267093 -2.54402 0
M  V30 2040 H 204.651 -0.256915 -5.0725 0
M  V30 2041 H 204.581 1.52295 -5.04097 0
M  V30 2042 H 207.072 0.700314 -3.71354 0
M  V30 2043 H 207.385 0.812983 -7.68512 0
M  V30 2044 H 205.73 0.738049 -6.9107 0
M  V30 2045 H 208.921 0.784535 -4.61479 0
M  V30 2046 H 209.094 0.83614 -6.42583 0
M  V30 2047 N 202.5 1.5196 0.417844 0
M  V30 2048 C 203.725 1.69717 1.1921 0
M  V30 2049 C 204.15 0.402148 1.83751 0
M  V30 2050 O 203.508 -0.639593 1.69643 0
M  V30 2051 C 203.556 2.82794 2.2374 0
M  V30 2052 O 202.66 2.47756 3.29683 0
M  V30 2053 H 202.001 0.565263 0.348387 0
M  V30 2054 H 204.531 1.98621 0.490985 0
M  V30 2055 H 204.541 3.07452 2.68212 0
M  V30 2056 H 203.216 3.76756 1.76146 0
M  V30 2057 H 201.793 2.33739 2.90552 0
M  V30 2058 N 203.978 -0.674533 1.42435 0
M  V30 2059 C 205.206 -1.46283 1.46317 0
M  V30 2060 C 205.621 -1.88653 0.0745836 0
M  V30 2061 O 204.978 -1.58151 -0.91074 0
M  V30 2062 C 205.029 -2.71178 2.3905 0
M  V30 2063 O 204.75 -2.30586 3.72507 0
M  V30 2064 C 206.251 -3.64738 2.51955 0
M  V30 2065 H 203.471 -0.450104 0.497642 0
M  V30 2066 H 206.015 -0.828792 1.86953 0
M  V30 2067 H 204.17 -3.3077 2.01667 0
M  V30 2068 H 204.584 -3.11241 4.22172 0
M  V30 2069 H 206.058 -4.49096 3.20962 0
M  V30 2070 H 206.535 -4.10656 1.55752 0
M  V30 2071 H 207.141 -3.11038 2.90061 0
M  V30 2072 N 205.456 -1.28612 -0.910864 0
M  V30 2073 C 206.867 -1.14406 -1.47541 0
M  V30 2074 C 207.218 0.264901 -1.94403 0
M  V30 2075 O 206.343 1.15942 -1.82719 0
M  V30 2076 C 206.938 -2.07073 -2.68153 0
M  V30 2077 C 205.497 -1.96923 -3.20778 0
M  V30 2078 C 204.644 -1.98646 -1.93481 0
M  V30 2079 H 207.595 -1.41259 -0.723291 0
M  V30 2080 H 207.616 -1.63642 -3.43514 0
M  V30 2081 H 207.128 -3.09611 -2.34015 0
M  V30 2082 H 205.229 -0.97433 -3.59635 0
M  V30 2083 H 205.342 -2.84026 -3.85832 0
M  V30 2084 H 203.706 -1.43093 -2.10705 0
M  V30 2085 H 204.489 -3.02868 -1.61634 0
M  V30 2086 N 206.934 1.1197 -1.10907 0
M  V30 2087 C 208.159 1.87942 -0.877064 0
M  V30 2088 C 208.584 1.79341 0.567314 0
M  V30 2089 O 207.942 1.15184 1.40009 0
M  V30 2090 C 207.99 3.34926 -1.33629 0
M  V30 2091 O 207.094 4.09303 -0.504447 0
M  V30 2092 H 206.435 0.583785 -0.316371 0
M  V30 2093 H 208.965 1.4157 -1.47712 0
M  V30 2094 H 208.975 3.8577 -1.32837 0
M  V30 2095 H 207.65 3.40504 -2.3881 0
M  V30 2096 H 206.227 3.68393 -0.577993 0
M  V30 2097 N 208.412 0.89855 1.29475 0
M  V30 2098 C 209.342 0.39201 2.30186 0
M  V30 2099 C 210.323 -0.532359 1.61555 0
M  V30 2100 O 211.508 -0.443331 1.89072 0
M  V30 2101 C 208.638 -0.382353 3.45189 0
M  V30 2102 C 207.592 0.451483 4.25612 0
M  V30 2103 C 206.918 -0.450307 5.328 0
M  V30 2104 C 208.218 1.70079 4.93832 0
M  V30 2105 H 209.912 1.23362 2.72804 0
M  V30 2106 H 207.458 0.594638 1.31149 0
M  V30 2107 H 209.411 -0.747451 4.14718 0
M  V30 2108 H 208.135 -1.25774 3.01411 0
M  V30 2109 H 206.794 0.798897 3.57789 0
M  V30 2110 H 206.442 -1.32379 4.85268 0
M  V30 2111 H 206.142 0.103902 5.87508 0
M  V30 2112 H 207.666 -0.811623 6.05182 0
M  V30 2113 H 209.08 1.40549 5.55805 0
M  V30 2114 H 207.477 2.19623 5.58467 0
M  V30 2115 H 208.547 2.43744 4.19186 0
M  V30 2116 N 209.89 -1.43072 0.660911 0
M  V30 2117 C 211.118 -2.06067 0.185422 0
M  V30 2118 C 211.533 -1.49582 -1.15198 0
M  V30 2119 O 210.89 -0.630134 -1.71276 0
M  V30 2120 C 210.941 -3.61371 0.0966523 0
M  V30 2121 O 210.662 -4.15758 1.38119 0
M  V30 2122 C 212.163 -4.41455 -0.403996 0
M  V30 2123 H 209.383 -0.664459 0.0934604 0
M  V30 2124 H 211.927 -1.83447 0.90373 0
M  V30 2125 H 210.082 -3.8315 -0.572259 0
M  V30 2126 H 210.496 -5.09499 1.24542 0
M  V30 2127 H 211.97 -5.50437 -0.415045 0
M  V30 2128 H 212.447 -4.15036 -1.43674 0
M  V30 2129 H 213.053 -4.24663 0.232691 0
M  V30 2130 N 211.368 -0.403325 -1.52352 0
M  V30 2131 C 212.596 0.174012 -2.06167 0
M  V30 2132 C 213.011 1.39347 -1.27388 0
M  V30 2133 O 212.368 1.79597 -0.324201 0
M  V30 2134 C 212.419 0.530223 -3.5759 0
M  V30 2135 O 212.14 -0.640806 -4.33388 0
M  V30 2136 C 213.641 1.16192 -4.27802 0
M  V30 2137 H 210.861 0.0229464 -0.670608 0
M  V30 2138 H 213.405 -0.572604 -1.9632 0
M  V30 2139 H 211.56 1.22673 -3.67464 0
M  V30 2140 H 211.974 -0.344851 -5.23365 0
M  V30 2141 H 213.448 1.36141 -5.34948 0
M  V30 2142 H 213.925 2.13335 -3.83907 0
M  V30 2143 H 214.531 0.505775 -4.22282 0
M  V30 2144 N 212.846 1.57033 -0.133567 0
M  V30 2145 C 213.793 2.16074 0.811208 0
M  V30 2146 C 214.763 1.08979 1.2535 0
M  V30 2147 O 215.948 1.36958 1.32843 0
M  V30 2148 C 213.088 2.77595 2.05024 0
M  V30 2149 C 212.201 3.99042 1.65498 0
M  V30 2150 C 211.336 4.48603 2.84479 0
M  V30 2151 C 210.375 5.62547 2.41262 0
M  V30 2152 N 209.512 6.06787 3.53206 0
M  V30 2153 H 214.352 2.96477 0.300906 0
M  V30 2154 H 211.889 1.46462 0.136822 0
M  V30 2155 H 213.847 3.11402 2.77642 0
M  V30 2156 H 212.477 1.99859 2.53488 0
M  V30 2157 H 211.529 3.71302 0.826981 0
M  V30 2158 H 212.841 4.81629 1.29748 0
M  V30 2159 H 211.995 4.84395 3.65303 0
M  V30 2160 H 210.734 3.64995 3.23465 0
M  V30 2161 H 209.739 5.26345 1.58874 0
M  V30 2162 H 210.964 6.47931 2.03377 0
M  V30 2163 H 208.91 5.26117 3.91838 0
M  V30 2164 H 208.827 6.84266 3.21427 0
M  V30 2165 H 210.095 6.4722 4.34427 0
M  V30 2166 N 214.325 -0.140222 1.56975 0
M  V30 2167 C 215.288 -1.15689 1.97861 0
M  V30 2168 C 216.288 -1.3549 0.865974 0
M  V30 2169 O 217.478 -1.32367 1.13246 0
M  V30 2170 C 214.61 -2.51582 2.30042 0
M  V30 2171 H 215.803 -0.805971 2.88867 0
M  V30 2172 H 213.356 -0.383801 1.51515 0
M  V30 2173 H 214.091 -2.91632 1.41849 0
M  V30 2174 H 213.876 -2.38569 3.11171 0
M  V30 2175 H 215.366 -3.24792 2.62488 0
M  V30 2176 N 215.803 -1.52179 -0.40978 0
M  V30 2177 C 217.049 -1.66453 -1.15851 0
M  V30 2178 C 217.382 -0.392972 -1.90182 0
M  V30 2179 O 216.657 0.608579 -1.84734 0
M  V30 2180 C 216.94 -2.88612 -2.15349 0
M  V30 2181 C 216.793 -4.25815 -1.44918 0
M  V30 2182 C 218.112 -3.06294 -3.16026 0
M  V30 2183 H 215.231 -0.60575 -0.419805 0
M  V30 2184 H 217.873 -1.84732 -0.444314 0
M  V30 2185 H 216.023 -2.73158 -2.76255 0
M  V30 2186 H 217.695 -4.52995 -0.871365 0
M  V30 2187 H 215.938 -4.27247 -0.751159 0
M  V30 2188 H 216.609 -5.07337 -2.17516 0
M  V30 2189 H 219.085 -3.20641 -2.65195 0
M  V30 2190 H 217.961 -3.93283 -3.8291 0
M  V30 2191 H 218.222 -2.19579 -3.83715 0
M  V30 2192 N 217.281 0.66697 -1.42791 0
M  V30 2193 C 218.211 1.79218 -1.49677 0
M  V30 2194 C 219.192 1.66405 -0.352623 0
M  V30 2195 O 220.377 1.85708 -0.567993 0
M  V30 2196 C 217.507 3.17565 -1.40605 0
M  V30 2197 C 216.461 3.45124 -2.53127 0
M  V30 2198 C 215.787 4.83127 -2.29112 0
M  V30 2199 C 217.087 3.41236 -3.95418 0
M  V30 2200 H 218.781 1.73713 -2.43853 0
M  V30 2201 H 216.327 0.83432 -1.17367 0
M  V30 2202 H 218.28 3.96022 -1.44029 0
M  V30 2203 H 217.004 3.23767 -0.429271 0
M  V30 2204 H 215.663 2.69031 -2.49034 0
M  V30 2205 H 215.311 4.85988 -1.29709 0
M  V30 2206 H 215.011 5.02528 -3.04531 0
M  V30 2207 H 216.535 5.63859 -2.34297 0
M  V30 2208 H 217.949 4.09651 -4.01073 0
M  V30 2209 H 216.346 3.72173 -4.70752 0
M  V30 2210 H 217.416 2.39665 -4.21532 0
M  V30 2211 N 218.759 1.29093 0.90403 0
M  V30 2212 C 219.689 1.16401 2.02418 0
M  V30 2213 C 220.67 0.0593085 1.69997 0
M  V30 2214 O 221.855 0.238021 1.92736 0
M  V30 2215 C 218.985 0.835233 3.37107 0
M  V30 2216 C 217.939 1.89578 3.83724 0
M  V30 2217 C 217.265 1.42041 5.15489 0
M  V30 2218 C 218.565 3.30394 4.04521 0
M  V30 2219 H 220.259 2.10109 2.13295 0
M  V30 2220 H 217.805 1.01157 1.02486 0
M  V30 2221 H 219.758 0.733169 4.14973 0
M  V30 2222 H 218.482 -0.137543 3.2631 0
M  V30 2223 H 217.141 1.98715 3.08071 0
M  V30 2224 H 216.789 0.436426 5.01103 0
M  V30 2225 H 216.489 2.12964 5.4765 0
M  V30 2226 H 218.013 1.33176 5.959 0
M  V30 2227 H 219.427 3.24123 4.72882 0
M  V30 2228 H 217.824 3.99237 4.48029 0
M  V30 2229 H 218.894 3.73692 3.09002 0
M  V30 2230 N 220.237 -1.11381 1.11499 0
M  V30 2231 C 221.483 -1.83403 0.865512 0
M  V30 2232 C 221.816 -1.84459 -0.607329 0
M  V30 2233 O 221.091 -1.29811 -1.44842 0
M  V30 2234 C 221.374 -3.30552 1.42855 0
M  V30 2235 C 221.227 -3.37886 2.96906 0
M  V30 2236 C 222.546 -4.26643 1.08 0
M  V30 2237 H 219.665 -0.665879 0.31587 0
M  V30 2238 H 222.307 -1.30601 1.37998 0
M  V30 2239 H 220.457 -3.75648 0.990985 0
M  V30 2240 H 222.129 -3.01343 3.49271 0
M  V30 2241 H 220.372 -2.78088 3.32941 0
M  V30 2242 H 221.043 -4.41458 3.31389 0
M  V30 2243 H 223.519 -3.89729 1.45775 0
M  V30 2244 H 222.395 -5.27986 1.50072 0
M  V30 2245 H 222.656 -4.42099 -0.00915037 0
M  V30 2246 N 221.715 -0.905404 -1.28997 0
M  V30 2247 C 223.131 -0.60233 -1.47798 0
M  V30 2248 C 223.331 0.854645 -1.82478 0
M  V30 2249 O 222.387 1.63439 -1.92468 0
M  V30 2250 C 223.7 -1.53306 -2.58685 0
M  V30 2251 C 225.248 -1.53887 -2.72558 0
M  V30 2252 C 225.723 -2.45602 -3.86579 0
M  V30 2253 N 227.214 -2.43681 -3.93921 0
M  V30 2254 C 227.949 -3.11347 -4.81509 0
M  V30 2255 N 227.445 -3.88313 -5.73746 0
M  V30 2256 N 229.238 -3.00476 -4.75048 0
M  V30 2257 H 221.389 -1.84765 -1.04764 0
M  V30 2258 H 223.652 -0.792025 -0.520961 0
M  V30 2259 H 223.358 -2.57141 -2.39941 0
M  V30 2260 H 223.232 -1.25787 -3.55609 0
M  V30 2261 H 225.619 -0.507941 -2.90696 0
M  V30 2262 H 225.7 -1.85447 -1.76191 0
M  V30 2263 H 225.344 -3.48792 -3.69197 0
M  V30 2264 H 225.274 -2.11349 -4.82327 0
M  V30 2265 H 227.765 -1.87767 -3.27951 0
M  V30 2266 H 228.078 -4.36985 -6.37389 0
M  V30 2267 H 226.423 -3.92419 -5.73614 0
M  V30 2268 H 229.614 -2.39858 -4.01977 0
M  V30 2269 H 229.787 -3.53485 -5.43095 0
M  V30 2270 N 223.193 1.4272 -0.668489 0
M  V30 2271 C 224.14 2.30796 0.0137489 0
M  V30 2272 C 225.11 1.4561 0.799177 0
M  V30 2273 O 226.295 1.74453 0.772702 0
M  V30 2274 C 223.435 3.31377 0.963507 0
M  V30 2275 C 222.548 4.31655 0.172569 0
M  V30 2276 C 221.683 5.19312 1.1175 0
M  V30 2277 C 220.722 6.11274 0.317886 0
M  V30 2278 N 219.859 6.91504 1.2152 0
M  V30 2279 H 224.699 2.88585 -0.743161 0
M  V30 2280 H 222.236 1.42154 -0.378226 0
M  V30 2281 H 224.194 3.88214 1.52792 0
M  V30 2282 H 222.824 2.75202 1.68712 0
M  V30 2283 H 221.876 3.76988 -0.508374 0
M  V30 2284 H 223.188 4.96779 -0.448527 0
M  V30 2285 H 222.342 5.80851 1.75206 0
M  V30 2286 H 221.081 4.5435 1.77249 0
M  V30 2287 H 220.086 5.48809 -0.329918 0
M  V30 2288 H 221.311 6.78283 -0.332917 0
M  V30 2289 H 219.257 6.29176 1.85671 0
M  V30 2290 H 219.174 7.53209 0.649036 0
M  V30 2291 H 220.442 7.57535 1.83742 0
M  V30 2292 N 224.671 0.411399 1.52136 0
M  V30 2293 C 225.918 -0.163645 2.01838 0
M  V30 2294 C 226.246 -1.4495 1.29691 0
M  V30 2295 O 225.501 -1.91725 0.392431 0
M  V30 2296 C 225.8 -0.455872 3.54481 0
M  V30 2297 C 225.466 0.741055 4.44769 0
M  V30 2298 C 224.128 1.06936 4.69167 0
M  V30 2299 C 226.48 1.54075 4.97906 0
M  V30 2300 C 223.808 2.19851 5.43951 0
M  V30 2301 C 226.16 2.66067 5.73926 0
M  V30 2302 C 224.824 2.99381 5.96596 0
M  V30 2303 H 224.094 -0.0598821 0.738576 0
M  V30 2304 H 226.741 0.553283 1.83333 0
M  V30 2305 H 225.046 -1.2544 3.71177 0
M  V30 2306 H 226.743 -0.913802 3.90449 0
M  V30 2307 H 223.333 0.475192 4.25958 0
M  V30 2308 H 227.517 1.30033 4.78963 0
M  V30 2309 H 222.773 2.46006 5.59724 0
M  V30 2310 H 226.947 3.28419 6.14096 0
M  V30 2311 H 224.574 3.86992 6.54325 0
M  V30 2312 N 226.149 -1.5696 0.141893 0
M  V30 2313 C 227.081 -2.13619 -0.830627 0
M  V30 2314 C 228.094 -1.08439 -1.21428 0
M  V30 2315 O 229.283 -1.35734 -1.15925 0
M  V30 2316 C 226.383 -2.63978 -2.12529 0
M  V30 2317 C 225.556 -3.93504 -1.9098 0
M  V30 2318 C 224.615 -4.29225 -3.04388 0
M  V30 2319 O 223.641 -4.97641 -2.76302 0
M  V30 2320 N 224.843 -3.88393 -4.31429 0
M  V30 2321 H 227.608 -2.97691 -0.34641 0
M  V30 2322 H 225.169 -1.61846 -0.0418375 0
M  V30 2323 H 227.161 -2.84891 -2.87436 0
M  V30 2324 H 225.731 -1.84659 -2.52229 0
M  V30 2325 H 224.951 -3.81269 -1.00139 0
M  V30 2326 H 226.239 -4.78154 -1.73914 0
M  V30 2327 H 225.637 -3.33257 -4.57117 0
M  V30 2328 H 224.194 -4.14368 -5.03133 0
M  V30 2329 N 227.627 0.131896 -1.57047 0
M  V30 2330 C 228.575 1.18146 -2.0036 0
M  V30 2331 C 229.569 1.43614 -0.898406 0
M  V30 2332 O 230.775 1.43729 -1.08361 0
M  V30 2333 H 227.15 0.398042 -0.638018 0
M  V30 2334 H 229.121 0.789564 -2.87765 0
M  V30 2335 C 227.87 2.50341 -2.41298 0
M  V30 2336 H 227.193 2.31578 -3.25902 0
M  V30 2337 H 228.633 3.22371 -2.75414 0
M  V30 2338 C 227.092 3.11984 -1.27153 0
M  V30 2339 O 227.622 3.97484 -0.580459 0
M  V30 2340 N 225.828 2.71662 -1.03189 0
M  V30 2341 H 225.375 2.02231 -1.59564 0
M  V30 2342 H 225.333 3.13238 -0.270077 0
M  V30 2343 N 229.106 1.52395 0.401703 0
M  V30 2344 C 230.331 1.70972 1.17403 0
M  V30 2345 C 230.756 0.421615 1.83314 0
M  V30 2346 O 230.114 -0.621564 1.70312 0
M  V30 2347 C 230.162 2.85151 2.20728 0
M  V30 2348 O 229.266 2.51238 3.27037 0
M  V30 2349 H 228.607 0.568927 0.342372 0
M  V30 2350 H 231.137 1.99131 0.469891 0
M  V30 2351 H 231.147 3.10279 2.64936 0
M  V30 2352 H 229.822 3.78603 1.7214 0
M  V30 2353 H 228.399 2.36808 2.88057 0
M  V30 2354 N 230.584 -0.659388 1.43143 0
M  V30 2355 C 231.995 -1.24041 1.39537 0
M  V30 2356 C 232.346 -1.95963 0.0963364 0
M  V30 2357 O 231.471 -2.00892 -0.804438 0
M  V30 2358 C 232.066 -2.25601 2.52764 0
M  V30 2359 C 230.625 -2.79195 2.52443 0
M  V30 2360 C 229.772 -1.53743 2.30778 0
M  V30 2361 H 232.723 -0.451792 1.52133 0
M  V30 2362 H 232.744 -3.07651 2.23899 0
M  V30 2363 H 232.256 -1.73226 3.47296 0
M  V30 2364 H 230.357 -3.35649 1.61773 0
M  V30 2365 H 230.47 -3.2716 3.50004 0
M  V30 2366 H 228.834 -1.80869 1.79328 0
M  V30 2367 H 229.617 -1.03312 3.27386 0
M  V30 2368 N 232.062 -1.29571 -0.897171 0
M  V30 2369 C 233.025 -1.14913 -1.98312 0
M  V30 2370 C 234.025 -0.0838629 -1.60581 0
M  V30 2371 O 235.215 -0.331006 -1.71026 0
M  V30 2372 C 232.347 -0.757835 -3.3237 0
M  V30 2373 H 233.54 -2.11377 -2.12743 0
M  V30 2374 H 231.093 -1.12793 -1.08201 0
M  V30 2375 H 231.828 0.206837 -3.2364 0
M  V30 2376 H 231.613 -1.52755 -3.61121 0
M  V30 2377 H 233.103 -0.678408 -4.12053 0
M  V30 2378 N 233.54 1.10788 -1.12088 0
M  V30 2379 C 234.45 2.20599 -0.798338 0
M  V30 2380 C 235.466 1.72712 0.21135 0
M  V30 2381 O 236.642 2.01348 0.0458477 0
M  V30 2382 C 233.707 3.45771 -0.253674 0
M  V30 2383 C 232.768 4.08411 -1.32283 0
M  V30 2384 C 232.001 5.27608 -0.80406 0
M  V30 2385 O 232.224 5.69241 0.363478 0
M  V30 2386 O 231.158 5.8101 -1.57198 0
M  V30 2387 H 234.984 2.50614 -1.7154 0
M  V30 2388 H 232.569 1.19454 -0.897275 0
M  V30 2389 H 234.451 4.21376 0.0453691 0
M  V30 2390 H 233.126 3.1739 0.636005 0
M  V30 2391 H 232.033 3.34507 -1.67499 0
M  V30 2392 H 233.366 4.40986 -2.18614 0
M  V30 2393 N 235.018 0.912232 1.28515 0
M  V30 2394 C 236.295 0.463597 1.90027 0
M  V30 2395 C 236.675 -1.05753 1.82701 0
M  V30 2396 O 236.023 -1.90492 1.26194 0
M  V30 2397 C 236.233 0.992253 3.34597 0
M  V30 2398 C 237.581 1.04344 4.11579 0
M  V30 2399 O 238.605 0.94079 3.43551 0
M  V30 2400 O 237.464 1.1995 5.33174 0
M  V30 2401 H 234.558 0.146666 0.813891 0
M  V30 2402 H 237.104 1.00292 1.36893 0
M  V30 2403 H 235.876 2.03623 3.34146 0
M  V30 2404 H 235.499 0.433672 3.95228 0
M  V30 2405 N 236.496 -1.42363 0.676048 0
M  V30 2406 C 237.743 -2.01522 0.19883 0
M  V30 2407 C 238.071 -1.53456 -1.19505 0
M  V30 2408 O 237.326 -0.727967 -1.81657 0
M  V30 2409 C 237.625 -3.56929 0.183431 0
M  V30 2410 C 237.291 -4.24431 1.52215 0
M  V30 2411 C 235.953 -4.42585 1.8887 0
M  V30 2412 C 238.305 -4.62459 2.40377 0
M  V30 2413 C 235.633 -4.96039 3.13309 0
M  V30 2414 C 237.985 -5.17294 3.64129 0
M  V30 2415 C 236.649 -5.33661 4.00951 0
M  V30 2416 H 235.919 -0.737419 0.0727571 0
M  V30 2417 H 238.566 -1.70531 0.871281 0
M  V30 2418 H 236.871 -3.87594 -0.572532 0
M  V30 2419 H 238.568 -4.00486 -0.203035 0
M  V30 2420 H 235.158 -4.10661 1.22701 0
M  V30 2421 H 239.342 -4.48105 2.13343 0
M  V30 2422 H 234.598 -5.06896 3.41857 0
M  V30 2423 H 238.772 -5.45704 4.32644 0
M  V30 2424 H 236.399 -5.74845 4.9745 0
M  V30 2425 N 237.974 -0.419461 -1.51915 0
M  V30 2426 C 238.906 0.43646 -2.25006 0
M  V30 2427 C 239.919 1.00149 -1.28351 0
M  V30 2428 O 241.108 0.898674 -1.54227 0
M  V30 2429 C 238.208 1.6206 -2.9764 0
M  V30 2430 C 237.381 1.17763 -4.21249 0
M  V30 2431 C 236.44 2.22985 -4.76617 0
M  V30 2432 O 235.466 1.83151 -5.38929 0
M  V30 2433 N 236.668 3.55271 -4.59089 0
M  V30 2434 H 239.433 -0.18989 -2.99098 0
M  V30 2435 H 236.994 -0.247386 -1.59999 0
M  V30 2436 H 238.986 2.32038 -3.31573 0
M  V30 2437 H 237.556 2.15266 -2.2667 0
M  V30 2438 H 236.776 0.305582 -3.93014 0
M  V30 2439 H 238.064 0.858781 -5.015 0
M  V30 2440 H 237.462 3.90377 -4.09417 0
M  V30 2441 H 236.019 4.21195 -4.97432 0
M  V30 2442 N 239.452 1.56882 -0.150215 0
M  V30 2443 C 240.362 2.20494 0.801222 0
M  V30 2444 C 241.378 1.19019 1.26927 0
M  V30 2445 O 242.554 1.51607 1.32579 0
M  V30 2446 C 239.619 2.81659 2.02161 0
M  V30 2447 C 238.68 3.9827 1.60249 0
M  V30 2448 C 237.913 4.56508 2.7647 0
M  V30 2449 O 238.136 4.13627 3.92771 0
M  V30 2450 O 237.07 5.46719 2.51757 0
M  V30 2451 H 240.896 3.02315 0.289717 0
M  V30 2452 H 238.481 1.49202 0.0769684 0
M  V30 2453 H 240.363 3.20522 2.73576 0
M  V30 2454 H 239.038 2.02849 2.52258 0
M  V30 2455 H 237.945 3.64117 0.858477 0
M  V30 2456 H 239.278 4.78609 1.14864 0
M  V30 2457 N 240.93 -0.123565 1.57115 0
M  V30 2458 C 242.341 -0.681198 1.73829 0
M  V30 2459 C 242.692 -1.80535 0.768214 0
M  V30 2460 O 241.817 -2.16317 -0.0599103 0
M  V30 2461 C 242.412 -1.24246 3.15196 0
M  V30 2462 C 240.971 -1.74643 3.33432 0
M  V30 2463 C 240.118 -0.644284 2.69711 0
M  V30 2464 H 243.069 0.102315 1.5837 0
M  V30 2465 H 243.09 -2.11216 3.16493 0
M  V30 2466 H 242.602 -0.424062 3.85776 0
M  V30 2467 H 240.703 -2.58974 2.67886 0
M  V30 2468 H 240.816 -1.85902 4.41562 0
M  V30 2469 H 239.18 -1.07676 2.3082 0
M  V30 2470 H 239.963 0.163058 3.42913 0
M  V30 2471 N 242.408 -1.52605 -0.393616 0
M  V30 2472 C 243.648 -1.6911 -1.1481 0
M  V30 2473 C 244.012 -0.41969 -1.87357 0
M  V30 2474 O 245.213 -0.461034 -2.64817 0
M  V30 2475 C 243.484 -2.88909 -2.10395 0
M  V30 2476 S 245.043 -3.25977 -2.93742 0
M  V30 2477 H 241.861 -0.595337 -0.38871 0
M  V30 2478 H 244.463 -1.90641 -0.433178 0
M  V30 2479 H 243.167 -3.79672 -1.55812 0
M  V30 2480 H 242.698 -2.69698 -2.86403 0
M  V30 2481 H 244.713 -2.75806 -4.12487 0
M  V30 2482 N 243.887 0.651787 -1.4349 0
M  V30 2483 C 244.819 1.77725 -1.44729 0
M  V30 2484 C 245.832 1.59141 -0.343231 0
M  V30 2485 O 247.021 1.67835 -0.607751 0
M  V30 2486 C 244.121 3.15172 -1.24579 0
M  V30 2487 C 243.294 3.60402 -2.47849 0
M  V30 2488 C 242.353 4.76656 -2.22902 0
M  V30 2489 O 241.379 4.86022 -2.96263 0
M  V30 2490 N 242.581 5.66958 -1.24656 0
M  V30 2491 H 245.346 1.77141 -2.41746 0
M  V30 2492 H 242.907 0.835678 -1.38665 0
M  V30 2493 H 244.899 3.90634 -1.0577 0
M  V30 2494 H 243.469 3.1052 -0.360015 0
M  V30 2495 H 242.689 2.75369 -2.82073 0
M  V30 2496 H 243.977 3.87368 -3.29884 0
M  V30 2497 H 243.375 5.62065 -0.640265 0
M  V30 2498 H 241.932 6.42135 -1.1183 0
M  V30 2499 N 245.365 1.30045 0.890287 0
M  V30 2500 C 246.595 1.21296 1.67245 0
M  V30 2501 C 247.003 -0.227471 1.87828 0
M  V30 2502 O 246.346 -1.16296 1.422 0
M  V30 2503 C 246.408 1.86519 3.07329 0
M  V30 2504 C 246.072 3.35837 3.09939 0
M  V30 2505 C 247.069 4.31915 2.89389 0
M  V30 2506 C 244.754 3.77196 3.31706 0
M  V30 2507 C 246.748 5.67325 2.90552 0
M  V30 2508 C 244.435 5.12725 3.32499 0
M  V30 2509 C 245.433 6.076 3.11947 0
M  V30 2510 O 245.121 7.40655 3.12547 0
M  V30 2511 H 244.853 0.4211 0.528821 0
M  V30 2512 H 247.407 1.72111 1.12103 0
M  V30 2513 H 245.637 1.30228 3.64112 0
M  V30 2514 H 247.326 1.71963 3.67673 0
M  V30 2515 H 248.092 4.01294 2.72375 0
M  V30 2516 H 243.971 3.03796 3.4674 0
M  V30 2517 H 247.515 6.41354 2.74429 0
M  V30 2518 H 243.412 5.42988 3.49047 0
M  V30 2519 H 244.18 7.49577 3.28749 0
M  V30 2520 N 246.843 -1.10192 1.12674 0
M  V30 2521 C 248.068 -1.86523 0.906853 0
M  V30 2522 C 248.493 -1.80221 -0.538711 0
M  V30 2523 O 247.851 -1.17396 -1.38158 0
M  V30 2524 C 247.899 -3.32758 1.3894 0
M  V30 2525 O 247.003 -4.08449 0.5695 0
M  V30 2526 H 246.344 -0.578678 0.325619 0
M  V30 2527 H 248.874 -1.39203 1.49946 0
M  V30 2528 H 248.884 -3.83608 1.38958 0
M  V30 2529 H 247.559 -3.36661 2.44197 0
M  V30 2530 H 246.136 -3.67427 0.636528 0
M  V30 2531 N 248.321 -0.919034 -1.28029 0
M  V30 2532 C 249.253 -0.368762 -2.26214 0
M  V30 2533 C 250.266 0.495716 -1.55069 0
M  V30 2534 O 251.455 0.30974 -1.75792 0
M  V30 2535 C 248.555 0.491049 -3.35324 0
M  V30 2536 C 247.728 -0.352133 -4.3598 0
M  V30 2537 C 246.787 0.443622 -5.24327 0
M  V30 2538 O 245.813 -0.14566 -5.69014 0
M  V30 2539 N 247.015 1.74545 -5.53637 0
M  V30 2540 H 249.78 -1.21273 -2.74068 0
M  V30 2541 H 247.341 -0.785541 -1.41566 0
M  V30 2542 H 249.333 1.03026 -3.91366 0
M  V30 2543 H 247.903 1.23574 -2.87138 0
M  V30 2544 H 247.123 -1.07269 -3.79324 0
M  V30 2545 H 248.411 -0.928883 -5.00249 0
M  V30 2546 H 247.809 2.24666 -5.19174 0
M  V30 2547 H 246.366 2.23138 -6.12416 0
M  V30 2548 N 249.799 1.42003 -0.683588 0
M  V30 2549 C 250.709 2.34597 -0.0109075 0
M  V30 2550 C 251.725 1.55576 0.779245 0
M  V30 2551 O 252.901 1.88107 0.719555 0
M  V30 2552 C 249.966 3.34199 0.922588 0
M  V30 2553 C 249.027 4.29115 0.125984 0
M  V30 2554 C 248.26 5.23959 1.01502 0
M  V30 2555 O 248.483 5.23952 2.25456 0
M  V30 2556 O 247.417 6.00053 0.47111 0
M  V30 2557 H 251.243 2.93675 -0.773853 0
M  V30 2558 H 248.828 1.42654 -0.443861 0
M  V30 2559 H 250.71 3.95365 1.45823 0
M  V30 2560 H 249.385 2.77582 1.66523 0
M  V30 2561 H 248.292 3.71335 -0.453969 0
M  V30 2562 H 249.625 4.88798 -0.577736 0
M  V30 2563 N 251.277 0.427512 1.51691 0
M  V30 2564 C 252.502 -0.143601 2.06902 0
M  V30 2565 C 252.927 -1.36536 1.29382 0
M  V30 2566 O 252.285 -1.78289 0.329043 0
M  V30 2567 C 252.333 -0.454207 3.57728 0
M  V30 2568 O 251.437 -1.54228 3.82475 0
M  V30 2569 H 250.778 -0.00617128 0.663971 0
M  V30 2570 H 253.308 0.606014 1.95419 0
M  V30 2571 H 253.318 -0.707525 4.01818 0
M  V30 2572 H 251.993 0.438812 4.13579 0
M  V30 2573 H 250.57 -1.2797 3.50254 0
M  V30 2574 N 252.755 -1.56801 0.158532 0
M  V30 2575 C 253.687 -2.14488 -0.807923 0
M  V30 2576 C 254.7 -1.09721 -1.20271 0
M  V30 2577 O 255.889 -1.36956 -1.14478 0
M  V30 2578 C 252.989 -2.66217 -2.09718 0
M  V30 2579 C 252.162 -3.95507 -1.86796 0
M  V30 2580 C 251.221 -4.3243 -2.99818 0
M  V30 2581 O 250.247 -5.00543 -2.71008 0
M  V30 2582 N 251.449 -3.92947 -4.27285 0
M  V30 2583 H 254.214 -2.98042 -0.314816 0
M  V30 2584 H 251.775 -1.61881 -0.0246692 0
M  V30 2585 H 253.767 -2.87924 -2.84398 0
M  V30 2586 H 252.337 -1.87324 -2.50257 0
M  V30 2587 H 251.557 -3.82309 -0.96089 0
M  V30 2588 H 252.845 -4.79972 -1.68833 0
M  V30 2589 H 252.243 -3.38087 -4.53557 0
M  V30 2590 H 250.8 -4.19681 -4.9871 0
M  V30 2591 N 254.233 0.115231 -1.57178 0
M  V30 2592 C 255.18 1.14115 -2.00615 0
M  V30 2593 C 256.15 1.40939 -0.878941 0
M  V30 2594 O 257.335 1.52741 -1.14345 0
M  V30 2595 C 254.475 2.46156 -2.4187 0
M  V30 2596 C 253.588 2.26236 -3.68024 0
M  V30 2597 C 252.723 3.51534 -3.98243 0
M  V30 2598 C 251.762 3.26787 -5.17568 0
M  V30 2599 N 250.899 4.44298 -5.43639 0
M  V30 2600 H 255.739 0.763743 -2.88047 0
M  V30 2601 H 253.276 0.365615 -1.42484 0
M  V30 2602 H 255.234 3.23189 -2.63827 0
M  V30 2603 H 253.864 2.81783 -1.57475 0
M  V30 2604 H 252.916 1.40102 -3.5366 0
M  V30 2605 H 254.228 2.03929 -4.55208 0
M  V30 2606 H 253.382 4.36984 -4.20868 0
M  V30 2607 H 252.121 3.76876 -3.09541 0
M  V30 2608 H 251.126 2.39729 -4.94783 0
M  V30 2609 H 252.351 3.02812 -6.0785 0
M  V30 2610 H 250.297 4.69754 -4.57895 0
M  V30 2611 H 250.214 4.25109 -6.25154 0
M  V30 2612 H 251.482 5.3087 -5.70786 0
M  V30 2613 N 255.711 1.52812 0.385517 0
M  V30 2614 C 256.958 1.68026 1.1302 0
M  V30 2615 C 257.286 0.421934 1.89868 0
M  V30 2616 O 256.541 -0.595749 1.86412 0
M  V30 2617 C 256.84 2.86856 2.13187 0
M  V30 2618 C 256.506 4.24159 1.5297 0
M  V30 2619 C 255.168 4.61501 1.36274 0
M  V30 2620 C 257.52 5.09627 1.09223 0
M  V30 2621 C 254.848 5.81966 0.743837 0
M  V30 2622 C 257.2 6.30719 0.487411 0
M  V30 2623 C 255.864 6.6679 0.307777 0
M  V30 2624 H 255.134 0.614849 0.413571 0
M  V30 2625 H 257.781 1.86962 0.414405 0
M  V30 2626 H 256.086 2.6235 2.90998 0
M  V30 2627 H 257.783 2.95821 2.70722 0
M  V30 2628 H 254.373 3.94746 1.66954 0
M  V30 2629 H 258.557 4.81343 1.20922 0
M  V30 2630 H 253.813 6.08519 0.592891 0
M  V30 2631 H 257.987 6.96259 0.140143 0
M  V30 2632 H 255.614 7.60001 -0.173879 0
M  V30 2633 N 257.189 -0.644168 1.43834 0
M  V30 2634 C 258.414 -1.43642 1.49605 0
M  V30 2635 C 258.839 -1.8773 0.117913 0
M  V30 2636 O 258.197 -1.57938 -0.890239 0
M  V30 2637 C 258.245 -2.6416 2.45463 0
M  V30 2638 O 257.349 -3.63538 1.94714 0
M  V30 2639 H 256.69 -0.430329 0.50568 0
M  V30 2640 H 259.22 -0.787448 1.8884 0
M  V30 2641 H 259.23 -3.11864 2.63068 0
M  V30 2642 H 257.905 -2.31414 3.45572 0
M  V30 2643 H 256.482 -3.2273 1.86814 0
M  V30 2644 N 258.668 -1.30515 -0.883378 0
M  V30 2645 C 259.908 -1.20716 -1.64946 0
M  V30 2646 C 260.272 0.234072 -1.90568 0
M  V30 2647 O 261.473 0.455335 -2.64915 0
M  V30 2648 C 259.744 -2.01444 -2.9522 0
M  V30 2649 S 261.303 -2.0836 -3.86175 0
M  V30 2650 H 258.121 -0.430165 -0.566109 0
M  V30 2651 H 260.723 -1.65011 -1.04841 0
M  V30 2652 H 259.427 -3.05268 -2.74298 0
M  V30 2653 H 258.958 -1.57817 -3.60357 0
M  V30 2654 H 260.973 -1.21215 -4.81167 0
M  V30 2655 N 260.146 1.09593 -1.13257 0
M  V30 2656 C 261.078 2.16015 -0.766167 0
M  V30 2657 C 262.091 1.61423 0.211303 0
M  V30 2658 O 263.28 1.78498 -0.00863946 0
M  V30 2659 C 260.38 3.38706 -0.114662 0
M  V30 2660 C 259.553 4.22717 -1.12379 0
M  V30 2661 C 258.612 5.23835 -0.498301 0
M  V30 2662 O 257.638 5.573 -1.15781 0
M  V30 2663 N 258.84 5.75886 0.730417 0
M  V30 2664 H 261.605 2.48055 -1.68193 0
M  V30 2665 H 259.166 1.25292 -1.02535 0
M  V30 2666 H 261.158 4.03464 0.315991 0
M  V30 2667 H 259.728 3.04569 0.704011 0
M  V30 2668 H 258.948 3.54122 -1.73179 0
M  V30 2669 H 260.236 4.75673 -1.80589 0
M  V30 2670 H 259.634 5.50911 1.28504 0
M  V30 2671 H 258.191 6.42387 1.10376 0
M  V30 2672 N 261.624 0.925811 1.2754 0
M  V30 2673 C 262.554 0.440748 2.29303 0
M  V30 2674 C 263.535 -0.497971 1.62648 0
M  V30 2675 O 264.72 -0.403126 1.8997 0
M  V30 2676 C 261.85 -0.309048 3.45922 0
M  V30 2677 C 260.804 0.54166 4.24559 0
M  V30 2678 C 260.13 -0.337191 5.33636 0
M  V30 2679 C 261.43 1.80516 4.90114 0
M  V30 2680 H 263.124 1.29121 2.70126 0
M  V30 2681 H 260.67 0.622323 1.29858 0
M  V30 2682 H 262.623 -0.659315 4.1621 0
M  V30 2683 H 261.347 -1.19352 3.04011 0
M  V30 2684 H 260.006 0.874609 3.56014 0
M  V30 2685 H 259.654 -1.22056 4.87966 0
M  V30 2686 H 259.354 0.228497 5.87156 0
M  V30 2687 H 260.878 -0.683072 6.06767 0
M  V30 2688 H 262.292 1.52307 5.52698 0
M  V30 2689 H 260.689 2.3142 5.53683 0
M  V30 2690 H 261.759 2.52581 4.13921 0
M  V30 2691 N 263.102 -1.41638 0.69111 0
M  V30 2692 C 264.065 -2.29178 0.0319786 0
M  V30 2693 C 265.065 -1.44153 -0.712496 0
M  V30 2694 O 266.255 -1.65354 -0.548053 0
M  V30 2695 C 263.387 -3.26952 -0.965161 0
M  V30 2696 H 264.58 -2.88959 0.802681 0
M  V30 2697 H 262.133 -1.4955 0.454356 0
M  V30 2698 H 262.868 -2.72142 -1.76378 0
M  V30 2699 H 262.653 -3.89685 -0.434522 0
M  V30 2700 H 264.143 -3.92561 -1.42428 0
M  V30 2701 N 264.58 -0.43555 -1.51462 0
M  V30 2702 C 265.826 0.131709 -2.02372 0
M  V30 2703 C 266.159 1.42516 -1.3192 0
M  V30 2704 O 265.434 1.89606 -0.433573 0
M  V30 2705 C 265.717 0.352301 -3.58373 0
M  V30 2706 C 265.57 -0.959676 -4.39443 0
M  V30 2707 C 266.889 1.12286 -4.25535 0
M  V30 2708 H 264.008 0.0463936 -0.735538 0
M  V30 2709 H 266.65 -0.574197 -1.81116 0
M  V30 2710 H 264.8 0.9536 -3.76615 0
M  V30 2711 H 266.472 -1.59482 -4.32855 0
M  V30 2712 H 264.715 -1.56468 -4.04599 0
M  V30 2713 H 265.386 -0.759394 -5.46752 0
M  V30 2714 H 267.862 0.613545 -4.11552 0
M  V30 2715 H 266.738 1.24598 -5.34571 0
M  V30 2716 H 266.999 2.15048 -3.86273 0
M  V30 2717 N 266.058 1.56714 -0.166846 0
M  V30 2718 C 267.469 1.83378 0.350646 0
M  V30 2719 C 267.82 1.08646 1.63372 0
M  V30 2720 O 266.945 0.338058 2.13743 0
M  V30 2721 C 267.54 3.32643 0.642963 0
M  V30 2722 C 266.099 3.59818 1.10491 0
M  V30 2723 C 265.246 2.76954 0.138411 0
M  V30 2724 H 268.197 1.53803 -0.391193 0
M  V30 2725 H 268.218 3.49878 1.49551 0
M  V30 2726 H 267.73 3.87007 -0.291055 0
M  V30 2727 H 265.831 3.1086 2.05418 0
M  V30 2728 H 265.944 4.68178 1.01716 0
M  V30 2729 H 264.308 2.4666 0.634911 0
M  V30 2730 H 265.091 3.34097 -0.789549 0
M  V30 2731 N 267.536 -0.106894 1.57237 0
M  V30 2732 C 268.446 -1.14911 2.0453 0
M  V30 2733 C 269.462 -1.44592 0.96795 0
M  V30 2734 O 270.638 -1.55468 1.2803 0
M  V30 2735 C 267.703 -2.45272 2.45036 0
M  V30 2736 C 266.764 -2.22879 3.66911 0
M  V30 2737 C 265.997 -3.47024 4.05475 0
M  V30 2738 O 266.22 -4.54804 3.44252 0
M  V30 2739 O 265.154 -3.3731 4.98504 0
M  V30 2740 H 268.98 -0.777461 2.9358 0
M  V30 2741 H 266.565 -0.318563 1.45964 0
M  V30 2742 H 268.447 -3.22055 2.71769 0
M  V30 2743 H 267.122 -2.81886 1.59129 0
M  V30 2744 H 266.029 -1.43915 3.45311 0
M  V30 2745 H 267.362 -1.91163 4.53561 0
M  V30 2746 N 269.014 -1.53014 -0.377408 0
M  V30 2747 C 270.262 -1.6829 -1.11906 0
M  V30 2748 C 270.583 -0.431206 -1.90173 0
M  V30 2749 O 269.853 0.554595 -1.87886 0
M  V30 2750 H 268.433 -0.620371 -0.416112 0
M  V30 2751 H 271.095 -1.90167 -0.426893 0
M  V30 2752 H 270.191 -2.53862 -1.8155 0
M  V30 2753 N 270.492 0.636531 -1.44174 0
M  V30 2754 C 271.769 1.39463 -1.37148 0
M  V30 2755 C 272.149 2.11082 -0.027507 0
M  V30 2756 O 271.497 2.05954 0.989716 0
M  V30 2757 C 271.707 2.36552 -2.56601 0
M  V30 2758 C 273.055 3.00048 -3.00427 0
M  V30 2759 O 274.079 2.46878 -2.56767 0
M  V30 2760 O 272.938 3.96488 -3.76111 0
M  V30 2761 H 270.032 0.623903 -0.542839 0
M  V30 2762 H 272.578 0.662039 -1.56253 0
M  V30 2763 H 271.35 1.82692 -3.46034 0
M  V30 2764 H 270.973 3.17236 -2.39681 0
M  V30 2765 N 271.97 1.30982 0.876444 0
M  V30 2766 C 273.195 1.23373 1.66715 0
M  V30 2767 C 273.62 -0.19885 1.87046 0
M  V30 2768 O 272.978 -1.1427 1.40756 0
M  V30 2769 C 273.026 1.97644 3.01611 0
M  V30 2770 O 272.13 1.30935 3.91062 0
M  V30 2771 H 271.471 0.426279 0.509099 0
M  V30 2772 H 274.001 1.72944 1.09323 0
M  V30 2773 H 274.011 2.06992 3.51594 0
M  V30 2774 H 272.686 3.01829 2.86133 0
M  V30 2775 H 271.263 1.29996 3.49507 0
M  V30 2776 N 273.449 -1.08991 1.13837 0
M  V30 2777 C 274.674 -1.85551 0.926585 0
M  V30 2778 C 275.099 -1.80782 -0.519566 0
M  V30 2779 O 274.457 -1.18855 -1.36906 0
M  V30 2780 C 274.505 -3.31266 1.42462 0
M  V30 2781 O 273.609 -4.07822 0.612789 0
M  V30 2782 H 272.95 -0.575192 0.331738 0
M  V30 2783 H 275.48 -1.37604 1.51414 0
M  V30 2784 H 275.49 -3.82112 1.43019 0
M  V30 2785 H 274.165 -3.34052 2.47754 0
M  V30 2786 H 272.742 -3.66731 0.675463 0
M  V30 2787 N 274.927 -0.932562 -1.27047 0
M  V30 2788 C 276.174 -0.575559 -1.94148 0
M  V30 2789 C 276.502 0.883984 -1.73251 0
M  V30 2790 O 275.757 1.64655 -1.0577 0
M  V30 2791 C 276.056 -0.853713 -3.47054 0
M  V30 2792 C 275.722 -2.29577 -3.88079 0
M  V30 2793 C 274.384 -2.68999 -3.9899 0
M  V30 2794 C 276.736 -3.23331 -4.08787 0
M  V30 2795 C 274.064 -4.01289 -4.28 0
M  V30 2796 C 276.416 -4.55207 -4.39282 0
M  V30 2797 C 275.08 -4.94457 -4.48407 0
M  V30 2798 H 274.35 -0.210612 -0.710439 0
M  V30 2799 H 276.997 -1.17744 -1.51025 0
M  V30 2800 H 275.302 -0.169204 -3.91434 0
M  V30 2801 H 276.999 -0.55639 -3.97121 0
M  V30 2802 H 273.589 -1.97994 -3.80127 0
M  V30 2803 H 277.773 -2.94074 -3.99793 0
M  V30 2804 H 273.029 -4.31374 -4.33275 0
M  V30 2805 H 277.203 -5.27852 -4.54252 0
M  V30 2806 H 274.83 -5.96994 -4.7064 0
M  V30 2807 N 276.405 1.4127 -0.698611 0
M  V30 2808 C 277.635 2.05205 -0.239644 0
M  V30 2809 C 278.043 1.52684 1.11733 0
M  V30 2810 O 277.386 0.671222 1.70998 0
M  V30 2811 C 277.448 3.59289 -0.123126 0
M  V30 2812 C 277.112 4.34619 -1.41263 0
M  V30 2813 C 278.109 4.63701 -2.35111 0
M  V30 2814 C 275.794 4.73837 -1.66684 0
M  V30 2815 C 277.788 5.30966 -3.52639 0
M  V30 2816 C 275.475 5.40837 -2.84498 0
M  V30 2817 C 276.473 5.69329 -3.77298 0
M  V30 2818 O 276.161 6.34949 -4.93047 0
M  V30 2819 H 275.893 0.66723 -0.108537 0
M  V30 2820 H 278.447 1.81974 -0.952602 0
M  V30 2821 H 276.677 3.81272 0.645628 0
M  V30 2822 H 278.366 4.04797 0.299056 0
M  V30 2823 H 279.132 4.33882 -2.16729 0
M  V30 2824 H 275.011 4.51039 -0.953135 0
M  V30 2825 H 278.555 5.53121 -4.25091 0
M  V30 2826 H 274.452 5.70075 -3.02795 0
M  V30 2827 H 275.22 6.53445 -4.92902 0
M  V30 2828 N 277.883 0.443576 1.51229 0
M  V30 2829 C 279.132 -0.122332 2.01329 0
M  V30 2830 C 279.445 -1.43237 1.33201 0
M  V30 2831 O 280.651 -2.0816 1.74304 0
M  V30 2832 C 279.107 -0.268551 3.58897 0
M  V30 2833 C 278.715 1.03142 4.35965 0
M  V30 2834 C 280.459 -0.787894 4.17124 0
M  V30 2835 C 278.366 0.850504 5.85252 0
M  V30 2836 H 277.296 -0.0494929 0.752374 0
M  V30 2837 H 279.947 0.574289 1.74282 0
M  V30 2838 H 278.329 -1.02832 3.82415 0
M  V30 2839 H 279.503 1.80001 4.24189 0
M  V30 2840 H 277.818 1.47977 3.89219 0
M  V30 2841 H 280.415 -0.939841 5.26375 0
M  V30 2842 H 280.758 -1.77201 3.76703 0
M  V30 2843 H 281.291 -0.0862669 3.97706 0
M  V30 2844 H 278.03 1.80718 6.30096 0
M  V30 2845 H 277.55 0.121825 5.99676 0
M  V30 2846 H 279.229 0.506163 6.45017 0
M  V30 2847 N 279.361 -1.56624 0.175154 0
M  V30 2848 C 280.607 -1.9729 -0.469506 0
M  V30 2849 C 280.94 -1.06128 -1.62636 0
M  V30 2850 O 280.215 -0.109183 -1.94193 0
M  V30 2851 C 280.498 -3.47375 -0.948804 0
M  V30 2852 C 280.351 -4.49317 0.208491 0
M  V30 2853 C 281.67 -4.00652 -1.82116 0
M  V30 2854 H 278.789 -0.717317 -0.16919 0
M  V30 2855 H 281.431 -1.88184 0.262062 0
M  V30 2856 H 279.581 -3.55267 -1.57219 0
M  V30 2857 H 281.253 -4.53482 0.845682 0
M  V30 2858 H 279.496 -4.25121 0.863395 0
M  V30 2859 H 280.167 -5.51741 -0.169059 0
M  V30 2860 H 282.643 -3.95416 -1.2956 0
M  V30 2861 H 281.519 -5.06075 -2.12554 0
M  V30 2862 H 281.78 -3.44699 -2.7683 0
M  V30 2863 N 280.839 0.0985539 -1.57292 0
M  V30 2864 C 282.064 0.820196 -1.90493 0
M  V30 2865 C 282.489 1.71658 -0.769094 0
M  V30 2866 O 281.847 1.79133 0.279495 0
M  V30 2867 C 281.895 1.61242 -3.22542 0
M  V30 2868 O 280.999 2.72108 -3.09888 0
M  V30 2869 H 280.34 0.225547 -0.62452 0
M  V30 2870 H 282.87 0.0748159 -2.04463 0
M  V30 2871 H 282.88 1.99737 -3.55766 0
M  V30 2872 H 281.555 0.954535 -4.04798 0
M  V30 2873 H 280.132 2.36667 -2.88172 0
M  V30 2874 N 282.317 1.53212 0.369288 0
M  V30 2875 C 283.25 1.74166 1.4745 0
M  V30 2876 C 284.228 0.589923 1.51521 0
M  V30 2877 O 285.412 0.822078 1.69629 0
M  V30 2878 C 282.539 1.81711 2.8583 0
M  V30 2879 C 281.585 3.03649 2.99499 0
M  V30 2880 S 282.418 4.63242 2.6864 0
M  V30 2881 C 283.574 4.7363 4.09177 0
M  V30 2882 H 283.807 2.67636 1.29454 0
M  V30 2883 H 281.34 1.43754 0.563396 0
M  V30 2884 H 283.298 1.86743 3.65564 0
M  V30 2885 H 281.959 0.89299 3.01139 0
M  V30 2886 H 281.152 3.05526 4.00836 0
M  V30 2887 H 280.754 2.9671 2.27683 0
M  V30 2888 H 283.046 4.53456 5.03372 0
M  V30 2889 H 283.989 5.75682 4.12306 0
M  V30 2890 H 284.397 4.02295 3.96004 0
M  V30 2891 N 283.795 -0.628877 1.44509 0
M  V30 2892 C 285.035 -1.39993 1.48934 0
M  V30 2893 C 285.399 -1.91627 0.119604 0
M  V30 2894 O 286.6 -2.68772 0.0385283 0
M  V30 2895 C 284.871 -2.53241 2.52198 0
M  V30 2896 S 286.43 -3.41383 2.75687 0
M  V30 2897 H 283.248 -0.477558 0.526744 0
M  V30 2898 H 285.85 -0.727804 1.81448 0
M  V30 2899 H 284.554 -2.13622 3.50419 0
M  V30 2900 H 284.085 -3.25278 2.21264 0
M  V30 2901 H 286.1 -4.50752 2.07453 0
M  V30 2902 N 285.273 -1.31445 -0.869486 0
M  V30 2903 C 286.519 -1.21337 -1.62496 0
M  V30 2904 C 286.852 0.227872 -1.92858 0
M  V30 2905 O 286.127 1.16094 -1.56053 0
M  V30 2906 C 286.41 -2.05814 -2.95487 0
M  V30 2907 C 286.263 -3.5824 -2.72 0
M  V30 2908 C 287.582 -1.9079 -3.96594 0
M  V30 2909 H 284.701 -0.442135 -0.589649 0
M  V30 2910 H 287.343 -1.6124 -1.00507 0
M  V30 2911 H 285.493 -1.71913 -3.48394 0
M  V30 2912 H 287.165 -4.0228 -2.25762 0
M  V30 2913 H 285.408 -3.81647 -2.06224 0
M  V30 2914 H 286.079 -4.12657 -3.66631 0
M  V30 2915 H 288.555 -2.20459 -3.52898 0
M  V30 2916 H 287.431 -2.52199 -4.87531 0
M  V30 2917 H 287.692 -0.871341 -4.33428 0
M  V30 2918 N 286.751 1.08385 -1.14413 0
M  V30 2919 C 287.714 2.13486 -0.834048 0
M  V30 2920 C 288.714 1.59988 0.161418 0
M  V30 2921 O 289.904 1.74071 -0.0669575 0
M  V30 2922 C 287.036 3.4003 -0.243354 0
M  V30 2923 H 288.229 2.42425 -1.7655 0
M  V30 2924 H 285.782 1.24101 -0.950189 0
M  V30 2925 H 286.517 3.16726 0.696807 0
M  V30 2926 H 286.302 3.80157 -0.960367 0
M  V30 2927 H 287.792 4.17577 -0.0436242 0
M  V30 2928 N 288.23 0.939286 1.26551 0
M  V30 2929 C 289.455 0.602008 1.98471 0
M  V30 2930 C 289.88 -0.815624 1.69497 0
M  V30 2931 O 289.238 -1.54912 0.941905 0
M  V30 2932 C 289.286 0.848407 3.50477 0
M  V30 2933 O 288.39 -0.0804009 4.12322 0
M  V30 2934 H 287.731 0.23049 0.622712 0
M  V30 2935 H 290.261 1.2617 1.61066 0
M  V30 2936 H 290.271 0.768553 4.00696 0
M  V30 2937 H 288.946 1.88171 3.70897 0
M  V30 2938 H 287.523 0.0503508 3.72866 0
M  V30 2939 N 289.708 -1.40897 0.706093 0
M  V30 2940 C 290.933 -2.05895 0.249435 0
M  V30 2941 C 291.358 -1.52823 -1.09666 0
M  V30 2942 O 290.716 -0.659589 -1.68876 0
M  V30 2943 C 290.764 -3.59872 0.22904 0
M  V30 2944 O 289.868 -4.04708 -0.792784 0
M  V30 2945 H 289.209 -0.653206 0.119241 0
M  V30 2946 H 291.739 -1.80471 0.96391 0
M  V30 2947 H 291.749 -4.07951 0.0634791 0
M  V30 2948 H 290.424 -3.97866 1.21141 0
M  V30 2949 H 289.001 -3.68111 -0.59572 0
M  V30 2950 N 291.186 -0.45159 -1.50991 0
M  V30 2951 C 292.432 0.110237 -2.025 0
M  V30 2952 C 292.765 1.41109 -1.33424 0
M  V30 2953 O 292.04 1.89135 -0.453659 0
M  V30 2954 C 292.323 0.314271 -3.58726 0
M  V30 2955 C 292.176 -1.00623 -4.38401 0
M  V30 2956 C 293.495 1.07767 -4.26702 0
M  V30 2957 H 290.614 0.0385897 -0.735989 0
M  V30 2958 H 293.256 -0.593374 -1.80497 0
M  V30 2959 H 291.406 0.913601 -3.77605 0
M  V30 2960 H 293.078 -1.64064 -4.31139 0
M  V30 2961 H 291.321 -1.6075 -4.02917 0
M  V30 2962 H 291.992 -0.817341 -5.45915 0
M  V30 2963 H 294.468 0.56986 -4.12179 0
M  V30 2964 H 293.344 1.18921 -5.35863 0
M  V30 2965 H 293.605 2.10939 -3.88532 0
M  V30 2966 N 292.664 1.56529 -0.183458 0
M  V30 2967 C 293.912 1.96855 0.457452 0
M  V30 2968 C 294.233 1.07104 1.62953 0
M  V30 2969 O 293.503 0.139887 1.954 0
M  V30 2970 H 292.083 0.72693 0.171992 0
M  V30 2971 H 294.745 1.93056 -0.267476 0
M  V30 2972 H 293.841 3.01423 0.809368 0
M  V30 2973 N 294.142 -0.090211 1.57342 0
M  V30 2974 C 295.367 -0.810082 1.90925 0
M  V30 2975 C 295.792 -1.71248 0.778187 0
M  V30 2976 O 295.15 -1.79278 -0.269991 0
M  V30 2977 C 295.198 -1.59529 3.23393 0
M  V30 2978 O 294.302 -2.70461 3.11327 0
M  V30 2979 H 293.643 -0.222231 0.625707 0
M  V30 2980 H 296.173 -0.0639716 2.045 0
M  V30 2981 H 296.183 -1.97847 3.5682 0
M  V30 2982 H 294.858 -0.933055 4.05299 0
M  V30 2983 H 293.435 -2.35135 2.89423 0
M  V30 2984 N 295.62 -1.53406 -0.361157 0
M  V30 2985 C 296.567 -1.80156 -1.44265 0
M  V30 2986 C 297.537 -0.646183 -1.53015 0
M  V30 2987 O 298.722 -0.888818 -1.68833 0
M  V30 2988 C 295.862 -2.00116 -2.81154 0
M  V30 2989 C 294.975 -3.27833 -2.81335 0
M  V30 2990 C 294.11 -3.37957 -4.09828 0
M  V30 2991 C 293.149 -4.59689 -4.04168 0
M  V30 2992 N 292.286 -4.66942 -5.24318 0
M  V30 2993 H 297.126 -2.72438 -1.20754 0
M  V30 2994 H 294.663 -1.34954 -0.585296 0
M  V30 2995 H 296.621 -2.09677 -3.60682 0
M  V30 2996 H 295.251 -1.11167 -3.03054 0
M  V30 2997 H 294.303 -3.27204 -1.94014 0
M  V30 2998 H 295.615 -4.17442 -2.73027 0
M  V30 2999 H 294.769 -3.46853 -4.97773 0
M  V30 3000 H 293.508 -2.46372 -4.20894 0
M  V30 3001 H 292.513 -4.50889 -3.14609 0
M  V30 3002 H 293.738 -5.5262 -3.947 0
M  V30 3003 H 291.684 -3.7826 -5.35962 0
M  V30 3004 H 291.601 -5.50462 -5.18197 0
M  V30 3005 H 292.869 -4.80127 -6.14084 0
M  V30 3006 N 297.098 0.621204 -1.44841 0
M  V30 3007 C 298.345 1.38055 -1.48145 0
M  V30 3008 C 298.673 1.94143 -0.117867 0
M  V30 3009 O 297.928 1.74713 0.881694 0
M  V30 3010 C 298.227 2.55675 -2.4973 0
M  V30 3011 C 297.893 2.17817 -3.94799 0
M  V30 3012 C 296.555 2.07205 -4.34303 0
M  V30 3013 C 298.907 1.88065 -4.86087 0
M  V30 3014 C 296.235 1.65045 -5.63007 0
M  V30 3015 C 298.587 1.47394 -6.15189 0
M  V30 3016 C 297.251 1.35331 -6.53637 0
M  V30 3017 H 296.521 0.505181 -0.542101 0
M  V30 3018 H 299.168 0.703477 -1.78111 0
M  V30 3019 H 297.473 3.2866 -2.13284 0
M  V30 3020 H 299.17 3.13904 -2.4953 0
M  V30 3021 H 295.76 2.26998 -3.63552 0
M  V30 3022 H 299.944 1.95168 -4.56315 0
M  V30 3023 H 295.2 1.54317 -5.91605 0
M  V30 3024 H 299.374 1.23415 -6.85377 0
M  V30 3025 H 297.001 1.02435 -7.53267 0
M  V30 3026 N 298.576 1.31904 0.862503 0
M  V30 3027 C 299.801 1.25135 1.65397 0
M  V30 3028 C 300.226 -0.179 1.87246 0
M  V30 3029 O 299.584 -1.1277 1.4196 0
M  V30 3030 C 299.632 2.00832 2.99498 0
M  V30 3031 O 298.736 1.35075 3.89652 0
M  V30 3032 H 298.077 0.431655 0.504549 0
M  V30 3033 H 300.607 1.74094 1.07483 0
M  V30 3034 H 300.617 2.10709 3.49379 0
M  V30 3035 H 299.292 3.04847 2.82916 0
M  V30 3036 H 297.869 1.33696 3.48109 0
M  V30 3037 N 300.054 -1.07777 1.14986 0
M  V30 3038 C 301.001 -2.14867 0.842672 0
M  V30 3039 C 301.971 -1.6486 -0.202552 0
M  V30 3040 O 303.156 -1.90668 -0.0710568 0
M  V30 3041 C 300.296 -3.43486 0.333363 0
M  V30 3042 C 299.409 -4.07306 1.43965 0
M  V30 3043 C 298.544 -5.23744 0.886914 0
M  V30 3044 C 297.583 -5.79517 1.97043 0
M  V30 3045 N 296.72 -6.87291 1.4344 0
M  V30 3046 H 301.56 -2.40485 1.75986 0
M  V30 3047 H 299.097 -1.1801 0.878179 0
M  V30 3048 H 301.055 -4.17195 0.0198163 0
M  V30 3049 H 299.685 -3.18133 -0.546916 0
M  V30 3050 H 298.737 -3.31293 1.86946 0
M  V30 3051 H 300.049 -4.44771 2.25788 0
M  V30 3052 H 299.203 -6.04419 0.525651 0
M  V30 3053 H 297.942 -4.87685 0.0377957 0
M  V30 3054 H 296.947 -4.97491 2.34057 0
M  V30 3055 H 298.172 -6.17632 2.82325 0
M  V30 3056 H 296.118 -6.5318 0.607567 0
M  V30 3057 H 296.035 -7.23617 2.18895 0
M  V30 3058 H 297.303 -7.71682 1.10124 0
M  V30 3059 N 301.532 -0.945985 -1.26051 0
M  V30 3060 C 302.76 -0.613025 -1.9761 0
M  V30 3061 C 303.175 0.813035 -1.70397 0
M  V30 3062 O 302.532 1.54274 -0.974979 0
M  V30 3063 C 302.583 -0.85159 -3.51326 0
M  V30 3064 O 302.304 -2.22157 -3.77595 0
M  V30 3065 C 303.805 -0.529831 -4.40122 0
M  V30 3066 H 301.025 -0.230593 -0.630133 0
M  V30 3067 H 303.569 -1.268 -1.60443 0
M  V30 3068 H 301.724 -0.243151 -3.86636 0
M  V30 3069 H 302.138 -2.2852 -4.721 0
M  V30 3070 H 303.612 -0.747348 -5.46917 0
M  V30 3071 H 304.089 0.535341 -4.35925 0
M  V30 3072 H 304.695 -1.11721 -4.10364 0
M  V30 3073 N 303.011 1.40521 -0.713556 0
M  V30 3074 C 303.943 2.29191 -0.0203126 0
M  V30 3075 C 304.956 1.45723 0.725864 0
M  V30 3076 O 306.145 1.69033 0.573581 0
M  V30 3077 C 303.245 3.2395 0.995486 0
M  V30 3078 C 302.418 4.36262 0.315256 0
M  V30 3079 C 301.477 5.11474 1.23616 0
M  V30 3080 O 300.503 5.64606 0.721719 0
M  V30 3081 N 301.705 5.20638 2.56743 0
M  V30 3082 H 304.47 2.89327 -0.781652 0
M  V30 3083 H 302.031 1.51869 -0.561022 0
M  V30 3084 H 304.023 3.71137 1.61368 0
M  V30 3085 H 302.593 2.64995 1.6582 0
M  V30 3086 H 301.813 3.91228 -0.483106 0
M  V30 3087 H 303.101 5.08558 -0.157004 0
M  V30 3088 H 302.499 4.7895 3.01037 0
M  V30 3089 H 301.056 5.71339 3.13712 0
M  V30 3090 N 304.489 0.459591 1.5075 0
M  V30 3091 C 305.717 -0.0973749 2.06671 0
M  V30 3092 C 306.132 -1.34524 1.32472 0
M  V30 3093 O 305.489 -1.7827 0.390634 0
M  V30 3094 C 305.54 -0.39714 3.59312 0
M  V30 3095 O 305.261 0.801214 4.30711 0
M  V30 3096 C 306.762 -1.00234 4.31819 0
M  V30 3097 H 303.982 0.00195854 0.670997 0
M  V30 3098 H 306.526 0.645072 1.94059 0
M  V30 3099 H 304.681 -1.08951 3.71764 0
M  V30 3100 H 305.095 0.538857 5.21725 0
M  V30 3101 H 306.569 -1.16193 5.39632 0
M  V30 3102 H 307.046 -1.98939 3.91561 0
M  V30 3103 H 307.652 -0.348699 4.23868 0
M  V30 3104 N 305.967 -1.56429 0.191757 0
M  V30 3105 C 307.214 -1.97485 -0.447891 0
M  V30 3106 C 307.542 -1.07852 -1.61859 0
M  V30 3107 O 306.797 -0.116903 -1.95351 0
M  V30 3108 C 307.096 -3.44449 -0.953384 0
M  V30 3109 C 306.762 -4.50781 0.103586 0
M  V30 3110 C 305.424 -4.79584 0.394023 0
M  V30 3111 C 307.776 -5.1471 0.819946 0
M  V30 3112 C 305.104 -5.69607 1.40585 0
M  V30 3113 C 307.456 -6.05827 1.8209 0
M  V30 3114 C 306.12 -6.32987 2.11857 0
M  V30 3115 H 305.39 -0.722648 -0.163895 0
M  V30 3116 H 308.037 -1.89322 0.28802 0
M  V30 3117 H 306.342 -3.49666 -1.76751 0
M  V30 3118 H 308.039 -3.73569 -1.45765 0
M  V30 3119 H 304.629 -4.28394 -0.132951 0
M  V30 3120 H 308.813 -4.92552 0.608789 0
M  V30 3121 H 304.069 -5.88926 1.64243 0
M  V30 3122 H 308.243 -6.54424 2.38123 0
M  V30 3123 H 305.87 -7.02544 2.90407 0
M  V30 3124 N 307.445 0.0818655 -1.57387 0
M  V30 3125 C 308.377 1.12484 -1.997 0
M  V30 3126 C 309.39 1.35564 -0.90146 0
M  V30 3127 O 310.579 1.33982 -1.17945 0
M  V30 3128 C 307.679 2.47778 -2.31213 0
M  V30 3129 C 306.852 2.44793 -3.62485 0
M  V30 3130 C 305.911 3.62117 -3.81782 0
M  V30 3131 O 304.937 3.44005 -4.53486 0
M  V30 3132 N 306.139 4.82094 -3.23367 0
M  V30 3133 H 308.904 0.764585 -2.89783 0
M  V30 3134 H 306.465 0.270664 -1.59621 0
M  V30 3135 H 308.457 3.24891 -2.41304 0
M  V30 3136 H 307.027 2.75843 -1.4707 0
M  V30 3137 H 306.247 1.53134 -3.6324 0
M  V30 3138 H 307.535 2.39889 -4.48699 0
M  V30 3139 H 306.933 4.99713 -2.65148 0
M  V30 3140 H 305.49 5.56753 -3.38923 0
M  V30 3141 N 308.923 1.53595 0.353017 0
M  V30 3142 C 310.171 1.70049 1.09215 0
M  V30 3143 C 310.492 0.461406 1.89463 0
M  V30 3144 O 309.762 -0.524633 1.88744 0
M  V30 3145 H 308.342 0.626912 0.40619 0
M  V30 3146 H 311.004 1.90822 0.396585 0
M  V30 3147 H 310.1 2.56718 1.77488 0
M  V30 3148 N 310.401 -0.613514 1.45168 0
M  V30 3149 C 311.641 -1.38405 1.5041 0
M  V30 3150 C 312.005 -1.91489 0.139922 0
M  V30 3151 O 313.206 -2.68716 0.067033 0
M  V30 3152 C 311.477 -2.50552 2.5487 0
M  V30 3153 S 313.036 -3.38439 2.79292 0
M  V30 3154 H 309.854 -0.471945 0.531779 0
M  V30 3155 H 312.456 -0.708518 1.82209 0
M  V30 3156 H 311.16 -2.09894 3.52665 0
M  V30 3157 H 310.691 -3.22913 2.24701 0
M  V30 3158 H 312.706 -4.48527 2.12222 0
M  V30 3159 N 311.879 -1.3236 -0.855495 0
M  V30 3160 C 313.127 -1.22629 -1.60644 0
M  V30 3161 C 313.448 0.212136 -1.93843 0
M  V30 3162 O 312.718 1.13666 -1.59552 0
M  V30 3163 H 311.298 -0.450882 -0.595579 0
M  V30 3164 H 313.96 -1.65871 -1.02337 0
M  V30 3165 H 313.056 -1.80832 -2.54374 0
M  V30 3166 N 313.357 1.07166 -1.15556 0
M  V30 3167 C 314.606 1.79181 -0.926132 0
M  V30 3168 C 314.919 1.87768 0.547967 0
M  V30 3169 O 316.125 2.56323 0.895036 0
M  V30 3170 C 314.581 3.22 -1.60761 0
M  V30 3171 C 314.189 3.21607 -3.11886 0
M  V30 3172 C 315.933 3.9861 -1.4598 0
M  V30 3173 C 313.84 4.59092 -3.72812 0
M  V30 3174 H 312.77 0.67154 -0.342856 0
M  V30 3175 H 315.421 1.2027 -1.3859 0
M  V30 3176 H 313.803 3.81115 -1.07553 0
M  V30 3177 H 314.977 2.72127 -3.71865 0
M  V30 3178 H 313.292 2.58495 -3.2645 0
M  V30 3179 H 315.889 5.00225 -1.88888 0
M  V30 3180 H 316.232 4.143 -0.407541 0
M  V30 3181 H 316.765 3.45996 -1.96295 0
M  V30 3182 H 313.504 4.48606 -4.77946 0
M  V30 3183 H 313.024 5.08803 -3.17616 0
M  V30 3184 H 314.703 5.28059 -3.73848 0
M  V30 3185 N 314.835 0.952656 1.25548 0
M  V30 3186 C 315.765 0.489287 2.28316 0
M  V30 3187 C 316.746 -0.463359 1.63667 0
M  V30 3188 O 317.931 -0.36274 1.90782 0
M  V30 3189 C 315.061 -0.235603 3.465 0
M  V30 3190 C 314.015 0.631593 4.23314 0
M  V30 3191 C 313.341 -0.223923 5.34231 0
M  V30 3192 C 314.641 1.90871 4.86174 0
M  V30 3193 H 316.335 1.34822 2.67326 0
M  V30 3194 H 313.881 0.649728 1.28509 0
M  V30 3195 H 315.834 -0.570882 4.17515 0
M  V30 3196 H 314.558 -1.12877 3.06474 0
M  V30 3197 H 313.217 0.949929 3.54079 0
M  V30 3198 H 312.865 -1.11678 4.90446 0
M  V30 3199 H 312.565 0.35299 5.86539 0
M  V30 3200 H 314.089 -0.554214 6.0808 0
M  V30 3201 H 315.503 1.63997 5.49343 0
M  V30 3202 H 313.9 2.43112 5.4865 0
M  V30 3203 H 314.97 2.61304 4.08471 0
M  V30 3204 N 316.313 -1.40141 0.720998 0
M  V30 3205 C 317.245 -2.29177 0.0324669 0
M  V30 3206 C 318.258 -1.46105 -0.718126 0
M  V30 3207 O 319.447 -1.69335 -0.564608 0
M  V30 3208 C 316.547 -3.24473 -0.978292 0
M  V30 3209 C 315.72 -4.36423 -0.292115 0
M  V30 3210 C 314.779 -5.12122 -1.20901 0
M  V30 3211 O 313.805 -5.64981 -0.691766 0
M  V30 3212 N 315.007 -5.21992 -2.53978 0
M  V30 3213 H 317.772 -2.88909 0.796984 0
M  V30 3214 H 315.333 -1.51569 0.569068 0
M  V30 3215 H 317.325 -3.71987 -1.59398 0
M  V30 3216 H 315.895 -2.65871 -1.64413 0
M  V30 3217 H 315.115 -3.90967 0.503847 0
M  V30 3218 H 316.403 -5.08467 0.183971 0
M  V30 3219 H 315.801 -4.8054 -2.98493 0
M  V30 3220 H 314.358 -5.72995 -3.10677 0
M  V30 3221 N 317.792 -0.46758 -1.50504 0
M  V30 3222 C 319.203 -0.0116166 -1.86696 0
M  V30 3223 C 319.554 1.39202 -1.38265 0
M  V30 3224 O 318.679 2.0313 -0.746132 0
M  V30 3225 C 319.274 -0.0143044 -3.38797 0
M  V30 3226 C 317.833 0.386175 -3.74414 0
M  V30 3227 C 316.98 -0.401287 -2.74381 0
M  V30 3228 H 319.931 -0.682022 -1.43297 0
M  V30 3229 H 319.952 0.788641 -3.72237 0
M  V30 3230 H 319.464 -1.03602 -3.74016 0
M  V30 3231 H 317.565 1.41237 -3.44794 0
M  V30 3232 H 317.678 0.0899596 -4.79016 0
M  V30 3233 H 316.042 0.144536 -2.5429 0
M  V30 3234 H 316.825 -1.42244 -3.12444 0
M  V30 3235 N 319.27 1.56325 -0.20005 0
M  V30 3236 C 320.547 1.89484 0.48529 0
M  V30 3237 C 320.927 1.1143 1.79294 0
M  V30 3238 O 320.275 0.216919 2.27468 0
M  V30 3239 C 320.485 3.41923 0.699243 0
M  V30 3240 C 321.833 4.12256 1.01638 0
M  V30 3241 O 322.857 3.47402 0.786792 0
M  V30 3242 O 321.716 5.26887 1.45095 0
M  V30 3243 H 318.81 0.787144 0.253639 0
M  V30 3244 H 321.356 1.67985 -0.240633 0
M  V30 3245 H 320.128 3.90658 -0.224008 0
M  V30 3246 H 319.751 3.69131 1.47744 0
M  V30 3247 N 320.748 -0.0735177 1.57428 0
M  V30 3248 C 322.159 -0.625551 1.75908 0
M  V30 3249 C 322.51 -1.78 0.825261 0
M  V30 3250 O 321.635 -2.16398 0.00893964 0
M  V30 3251 C 322.23 -1.14155 3.18989 0
M  V30 3252 C 320.789 -1.63946 3.38819 0
M  V30 3253 C 319.936 -0.558151 2.71625 0
M  V30 3254 H 322.887 0.152647 1.57964 0
M  V30 3255 H 322.908 -2.0104 3.23053 0
M  V30 3256 H 322.42 -0.301116 3.8693 0
M  V30 3257 H 320.521 -2.50321 2.7599 0
M  V30 3258 H 320.634 -1.71759 4.47253 0
M  V30 3259 H 318.998 -1.00278 2.34129 0
M  V30 3260 H 319.781 0.272071 3.4222 0
M  V30 3261 N 322.226 -1.5378 -0.344866 0
M  V30 3262 C 323.637 -1.62428 -0.920552 0
M  V30 3263 C 323.988 -0.504747 -1.89596 0
M  V30 3264 O 323.113 0.365711 -2.13287 0
M  V30 3265 C 323.708 -2.94419 -1.67639 0
M  V30 3266 C 322.267 -3.05333 -2.20111 0
M  V30 3267 C 321.414 -2.57866 -1.01982 0
M  V30 3268 H 324.365 -1.58222 -0.123042 0
M  V30 3269 H 324.386 -2.83384 -2.53917 0
M  V30 3270 H 323.898 -3.7588 -0.966224 0
M  V30 3271 H 321.999 -2.28502 -2.94308 0
M  V30 3272 H 322.112 -4.10778 -2.46573 0
M  V30 3273 H 320.476 -2.13241 -1.39285 0
M  V30 3274 H 321.259 -3.41765 -0.324308 0
M  V30 3275 N 323.704 0.605807 -1.45491 0
M  V30 3276 C 324.667 1.69836 -1.5391 0
M  V30 3277 C 325.667 1.55261 -0.418424 0
M  V30 3278 O 326.857 1.60296 -0.681965 0
M  V30 3279 C 323.989 3.09117 -1.43734 0
M  V30 3280 H 325.182 1.63738 -2.51257 0
M  V30 3281 H 322.735 0.821689 -1.32959 0
M  V30 3282 H 323.47 3.20791 -0.475788 0
M  V30 3283 H 323.255 3.21104 -2.25021 0
M  V30 3284 H 324.745 3.88696 -1.52661 0
M  V30 3285 N 325.182 1.32811 0.848464 0
M  V30 3286 C 326.13 1.22231 1.97895 0
M  V30 3287 C 327.124 0.125749 1.68933 0
M  V30 3288 O 328.33 0.289083 1.77663 0
M  V30 3289 H 324.705 0.379058 0.649476 0
M  V30 3290 H 326.676 2.17828 2.03945 0
M  V30 3291 C 325.425 0.968572 3.33937 0
M  V30 3292 H 324.748 1.80458 3.56756 0
M  V30 3293 H 326.188 0.934808 4.13567 0
M  V30 3294 C 324.647 -0.328628 3.35293 0
M  V30 3295 O 325.177 -1.33848 3.78745 0
M  V30 3296 N 323.383 -0.352788 2.88451 0
M  V30 3297 H 322.93 0.469541 2.53285 0
M  V30 3298 H 322.888 -1.22057 2.89741 0
M  V30 3299 N 326.66 -1.06551 1.16123 0
M  V30 3300 C 327.909 -1.78687 0.935622 0
M  V30 3301 C 328.222 -1.88056 -0.538001 0
M  V30 3302 O 329.428 -2.56794 -0.88143 0
M  V30 3303 C 327.884 -3.21143 1.62466 0
M  V30 3304 C 327.492 -3.19949 3.13587 0
M  V30 3305 C 329.236 -3.9783 1.48092 0
M  V30 3306 C 327.143 -4.57108 3.75241 0
M  V30 3307 H 326.073 -0.669712 0.346412 0
M  V30 3308 H 328.724 -1.19534 1.39226 0
M  V30 3309 H 327.106 -3.80539 1.09572 0
M  V30 3310 H 328.28 -2.70151 3.73303 0
M  V30 3311 H 326.595 -2.5676 3.27816 0
M  V30 3312 H 329.192 -4.99217 1.91538 0
M  V30 3313 H 329.535 -4.14078 0.429507 0
M  V30 3314 H 330.068 -3.4495 1.98127 0
M  V30 3315 H 326.807 -4.46065 4.80319 0
M  V30 3316 H 326.327 -5.07111 3.20309 0
M  V30 3317 H 328.006 -5.26069 3.76644 0
M  V30 3318 N 328.138 -0.959301 -1.25041 0
M  V30 3319 C 329.366 -0.633949 -1.96948 0
M  V30 3320 C 329.781 0.794916 -1.7125 0
M  V30 3321 O 329.138 1.53231 -0.991287 0
M  V30 3322 C 329.189 -0.888805 -3.50403 0
M  V30 3323 O 328.91 -2.26149 -3.75218 0
M  V30 3324 C 330.411 -0.576482 -4.39536 0
M  V30 3325 H 327.631 -0.237263 -0.627652 0
M  V30 3326 H 330.175 -1.28495 -1.59089 0
M  V30 3327 H 328.33 -0.284145 -3.86357 0
M  V30 3328 H 328.744 -2.33514 -4.6965 0
M  V30 3329 H 330.218 -0.805314 -5.46094 0
M  V30 3330 H 330.695 0.489075 -4.36468 0
M  V30 3331 H 331.301 -1.16067 -4.09156 0
M  V30 3332 N 329.616 1.39756 -0.72842 0
M  V30 3333 C 330.862 2.00942 -0.273892 0
M  V30 3334 C 331.195 1.57656 1.13394 0
M  V30 3335 O 330.47 0.802434 1.77176 0
M  V30 3336 C 330.753 3.58211 -0.368346 0
M  V30 3337 C 330.606 4.11534 -1.81548 0
M  V30 3338 C 331.925 4.39372 0.253054 0
M  V30 3339 H 329.044 0.730047 -0.100996 0
M  V30 3340 H 331.686 1.66056 -0.923337 0
M  V30 3341 H 329.836 3.88061 0.184588 0
M  V30 3342 H 331.508 3.92431 -2.42478 0
M  V30 3343 H 329.751 3.65341 -2.33898 0
M  V30 3344 H 330.422 5.20682 -1.83288 0
M  V30 3345 H 332.898 4.15527 -0.218224 0
M  V30 3346 H 331.774 5.48677 0.156585 0
M  V30 3347 H 332.035 4.21358 1.33826 0
M  V30 3348 N 331.094 0.475555 1.50254 0
M  V30 3349 C 332.322 -0.0754493 2.06762 0
M  V30 3350 C 332.737 -1.33111 1.33891 0
M  V30 3351 O 332.094 -1.77846 0.40952 0
M  V30 3352 C 332.145 -0.359008 3.59713 0
M  V30 3353 O 331.866 0.846851 4.29837 0
M  V30 3354 C 333.367 -0.956484 4.32858 0
M  V30 3355 H 330.587 0.00907525 0.670939 0
M  V30 3356 H 333.131 0.665618 1.93364 0
M  V30 3357 H 331.286 -1.05001 3.72899 0
M  V30 3358 H 331.7 0.594162 5.21124 0
M  V30 3359 H 333.174 -1.10463 5.40834 0
M  V30 3360 H 333.651 -1.94775 3.93649 0
M  V30 3361 H 334.257 -0.303723 4.24214 0
M  V30 3362 N 332.573 -1.56217 0.208337 0
M  V30 3363 C 333.536 -2.18455 -0.693557 0
M  V30 3364 C 334.536 -1.14268 -1.13135 0
M  V30 3365 O 335.726 -1.39577 -1.0423 0
M  V30 3366 C 332.858 -2.79727 -1.94848 0
M  V30 3367 H 334.051 -2.99519 -0.15114 0
M  V30 3368 H 331.604 -1.56245 -0.041287 0
M  V30 3369 H 332.339 -2.02497 -2.53309 0
M  V30 3370 H 332.124 -3.56009 -1.64316 0
M  V30 3371 H 333.614 -3.27475 -2.59133 0
M  V30 3372 N 334.051 0.0651679 -1.57465 0
M  V30 3373 C 335.297 0.764193 -1.87851 0
M  V30 3374 C 335.63 1.76889 -0.801495 0
M  V30 3375 O 334.905 1.93594 0.187528 0
M  V30 3376 C 335.188 1.46625 -3.28897 0
M  V30 3377 C 335.041 0.477515 -4.47258 0
M  V30 3378 C 336.36 2.4095 -3.68281 0
M  V30 3379 H 333.479 0.276351 -0.683227 0
M  V30 3380 H 336.121 0.0272868 -1.8998 0
M  V30 3381 H 334.271 2.09438 -3.27212 0
M  V30 3382 H 335.943 -0.145922 -4.61069 0
M  V30 3383 H 334.186 -0.206576 -4.33308 0
M  V30 3384 H 334.857 1.0065 -5.42746 0
M  V30 3385 H 337.333 1.88209 -3.71102 0
M  V30 3386 H 336.209 2.87072 -4.67847 0
M  V30 3387 H 336.47 3.26049 -2.98571 0
M  V30 3388 N 335.529 1.53961 0.336706 0
M  V30 3389 C 336.492 1.81724 1.39675 0
M  V30 3390 C 337.492 0.688532 1.45313 0
M  V30 3391 O 338.682 0.956829 1.45569 0
M  V30 3392 C 335.814 1.96543 2.78538 0
M  V30 3393 H 337.007 2.76424 1.16318 0
M  V30 3394 H 334.56 1.45478 0.571474 0
M  V30 3395 H 335.295 1.0401 3.07168 0
M  V30 3396 H 335.08 2.78665 2.75841 0
M  V30 3397 H 336.57 2.19516 3.5525 0
M  V30 3398 N 337.007 -0.598083 1.45811 0
M  V30 3399 C 338.423 -0.919847 1.30426 0
M  V30 3400 C 338.623 -1.99759 0.264303 0
M  V30 3401 O 337.679 -2.50221 -0.338472 0
M  V30 3402 C 338.992 -1.35176 2.68603 0
M  V30 3403 C 340.54 -1.46546 2.76574 0
M  V30 3404 C 341.015 -1.9311 4.15298 0
M  V30 3405 N 342.506 -2.00328 4.1764 0
M  V30 3406 C 343.241 -2.37599 5.21856 0
M  V30 3407 N 342.737 -2.73771 6.36413 0
M  V30 3408 N 344.53 -2.38021 5.09218 0
M  V30 3409 H 336.681 0.114111 2.12093 0
M  V30 3410 H 338.944 -0.0116121 0.947929 0
M  V30 3411 H 338.65 -0.633969 3.45939 0
M  V30 3412 H 338.524 -2.3164 2.97696 0
M  V30 3413 H 340.911 -2.17415 1.99537 0
M  V30 3414 H 340.992 -0.483727 2.51185 0
M  V30 3415 H 340.636 -1.22824 4.92825 0
M  V30 3416 H 340.566 -2.92213 4.38086 0
M  V30 3417 H 343.057 -1.74925 3.34977 0
M  V30 3418 H 343.37 -3.0112 7.11721 0
M  V30 3419 H 341.715 -2.71445 6.39799 0
M  V30 3420 H 344.906 -2.09174 4.18765 0
M  V30 3421 H 345.079 -2.66741 5.90554 0
M  V30 3422 N 338.485 -1.33259 -0.841409 0
M  V30 3423 C 339.433 -1.23279 -1.97244 0
M  V30 3424 C 340.427 -0.134706 -1.68864 0
M  V30 3425 O 341.633 -0.298501 -1.77508 0
M  V30 3426 H 338.008 -0.382497 -0.647457 0
M  V30 3427 H 339.979 -2.18906 -2.02787 0
M  V30 3428 C 338.728 -0.986268 -3.33419 0
M  V30 3429 H 338.051 -1.82347 -3.55794 0
M  V30 3430 H 339.491 -0.956728 -4.13065 0
M  V30 3431 C 337.95 0.310842 -3.35463 0
M  V30 3432 O 338.48 1.31838 -3.79449 0
M  V30 3433 N 336.686 0.337485 -2.88634 0
M  V30 3434 H 336.233 -0.482967 -2.53032 0
M  V30 3435 H 336.191 1.20518 -2.90384 0
M  V30 3436 N 339.963 1.05934 -1.16686 0
M  V30 3437 C 341.374 1.60263 -0.957745 0
M  V30 3438 C 341.725 1.89789 0.49745 0
M  V30 3439 O 340.85 1.67401 1.37135 0
M  V30 3440 C 341.445 2.91172 -1.73218 0
M  V30 3441 C 340.004 3.42188 -1.56794 0
M  V30 3442 C 339.151 2.16028 -1.73859 0
M  V30 3443 H 342.102 0.888392 -1.31504 0
M  V30 3444 H 342.123 3.60744 -1.21014 0
M  V30 3445 H 341.635 2.6965 -2.79124 0
M  V30 3446 H 339.736 3.68762 -0.533437 0
M  V30 3447 H 339.849 4.17273 -2.35414 0
M  V30 3448 H 338.213 2.26426 -1.16633 0
M  V30 3449 H 338.996 1.96985 -2.81161 0
M  V30 3450 N 341.441 0.965919 1.2453 0
M  V30 3451 C 342.857 0.67216 1.44756 0
M  V30 3452 C 343.057 -0.766609 1.86347 0
M  V30 3453 O 342.113 -1.5407 2.00047 0
M  V30 3454 C 343.426 1.65473 2.51076 0
M  V30 3455 C 344.974 1.66716 2.64905 0
M  V30 3456 C 345.449 2.63766 3.74421 0
M  V30 3457 N 346.94 2.62198 3.81846 0
M  V30 3458 C 347.675 3.33966 4.66106 0
M  V30 3459 N 347.171 4.15245 5.54566 0
M  V30 3460 N 348.964 3.22799 4.60171 0
M  V30 3461 H 341.115 1.89553 0.958293 0
M  V30 3462 H 343.378 0.815979 0.482579 0
M  V30 3463 H 343.084 2.68296 2.27399 0
M  V30 3464 H 342.958 1.4261 3.49202 0
M  V30 3465 H 345.345 0.646057 2.87941 0
M  V30 3466 H 345.426 1.93642 1.67142 0
M  V30 3467 H 345.07 3.6601 3.52135 0
M  V30 3468 H 345 2.34121 4.71694 0
M  V30 3469 H 347.491 2.032 3.18619 0
M  V30 3470 H 347.804 4.66898 6.15814 0
M  V30 3471 H 346.149 4.1934 5.54237 0
M  V30 3472 H 349.34 2.58764 3.90075 0
M  V30 3473 H 349.513 3.78994 5.25612 0
M  V30 3474 N 342.919 -1.39368 0.735821 0
M  V30 3475 C 344.165 -2.01272 0.293439 0
M  V30 3476 C 344.52 -1.57344 -1.10728 0
M  V30 3477 O 343.813 -0.792744 -1.74431 0
M  V30 3478 C 344.007 -3.5583 0.334651 0
M  V30 3479 C 343.836 -4.14764 1.73784 0
M  V30 3480 C 342.606 -4.47315 2.35026 0
M  V30 3481 C 344.804 -4.38246 2.69157 0
M  V30 3482 N 342.786 -4.91756 3.6749 0
M  V30 3483 C 344.157 -4.849 3.86357 0
M  V30 3484 C 346.212 -4.20315 2.66908 0
M  V30 3485 C 344.915 -5.15505 5.01645 0
M  V30 3486 C 346.941 -4.52033 3.8134 0
M  V30 3487 C 346.303 -4.98895 4.97276 0
M  V30 3488 H 342.402 -0.766756 0.153652 0
M  V30 3489 H 344.986 -1.69276 0.961967 0
M  V30 3490 H 343.157 -3.87212 -0.303527 0
M  V30 3491 H 344.889 -4.04503 -0.126358 0
M  V30 3492 H 341.644 -4.35143 1.86943 0
M  V30 3493 H 342.068 -5.18333 4.35499 0
M  V30 3494 H 346.71 -3.83287 1.78468 0
M  V30 3495 H 344.428 -5.51437 5.90713 0
M  V30 3496 H 348.014 -4.39781 3.80899 0
M  V30 3497 H 346.894 -5.22973 5.84353 0
M  V30 3498 N 344.397 -0.483516 -1.5 0
M  V30 3499 C 345.327 0.293829 -2.31644 0
M  V30 3500 C 346.308 0.978864 -1.39112 0
M  V30 3501 O 347.493 0.973644 -1.68029 0
M  V30 3502 C 344.623 1.36897 -3.19181 0
M  V30 3503 C 343.577 0.804833 -4.20365 0
M  V30 3504 C 342.903 1.9792 -4.96721 0
M  V30 3505 C 344.203 -0.192313 -5.21946 0
M  V30 3506 H 345.897 -0.387616 -2.9688 0
M  V30 3507 H 343.443 -0.187856 -1.42769 0
M  V30 3508 H 345.396 1.92037 -3.751 0
M  V30 3509 H 344.12 2.07936 -2.51853 0
M  V30 3510 H 342.779 0.275319 -3.65565 0
M  V30 3511 H 342.427 2.67686 -4.25856 0
M  V30 3512 H 342.127 1.60789 -5.65173 0
M  V30 3513 H 343.651 2.53526 -5.55479 0
M  V30 3514 H 345.065 0.270333 -5.72662 0
M  V30 3515 H 343.462 -0.478543 -5.98189 0
M  V30 3516 H 344.532 -1.11409 -4.71928 0
M  V30 3517 N 345.875 1.56104 -0.216619 0
M  V30 3518 C 347.1 2.0301 0.424462 0
M  V30 3519 C 347.525 1.0955 1.52907 0
M  V30 3520 O 346.883 0.0827914 1.81111 0
M  V30 3521 C 346.931 3.4819 0.937883 0
M  V30 3522 O 346.035 3.57865 2.04955 0
M  V30 3523 H 345.376 0.656925 0.0966755 0
M  V30 3524 H 347.906 2.01859 -0.33381 0
M  V30 3525 H 347.916 3.88413 1.24897 0
M  V30 3526 H 346.591 4.15699 0.129387 0
M  V30 3527 H 345.168 3.29527 1.74546 0
M  V30 3528 N 347.353 -0.0568162 1.57498 0
M  V30 3529 C 348.599 -0.75422 1.88253 0
M  V30 3530 C 348.932 -1.76461 0.810865 0
M  V30 3531 O 348.207 -1.93691 -0.177259 0
M  V30 3532 C 348.49 -1.44878 3.2967 0
M  V30 3533 C 348.343 -0.453789 4.47505 0
M  V30 3534 C 349.662 -2.38994 3.69554 0
M  V30 3535 H 346.781 -0.272724 0.684683 0
M  V30 3536 H 349.423 -0.0172113 1.89992 0
M  V30 3537 H 347.573 -2.077 3.28318 0
M  V30 3538 H 349.245 0.170371 4.60985 0
M  V30 3539 H 347.488 0.229552 4.33192 0
M  V30 3540 H 348.159 -0.977699 5.43273 0
M  V30 3541 H 350.635 -1.86239 3.72095 0
M  V30 3542 H 349.511 -2.84587 4.69363 0
M  V30 3543 H 349.772 -3.24461 3.00296 0
M  V30 3544 N 348.832 -1.54138 -0.328536 0
M  V30 3545 C 350.06 -1.76062 -1.08673 0
M  V30 3546 C 350.475 -0.506852 -1.81869 0
M  V30 3547 O 349.832 0.522223 -1.74869 0
M  V30 3548 C 349.883 -2.95054 -2.08866 0
M  V30 3549 O 349.604 -4.15583 -1.38644 0
M  V30 3550 C 351.105 -3.2915 -2.96943 0
M  V30 3551 H 348.325 -0.587889 -0.323461 0
M  V30 3552 H 350.869 -2.0101 -0.376175 0
M  V30 3553 H 349.024 -2.72394 -2.75464 0
M  V30 3554 H 349.438 -4.82481 -2.05699 0
M  V30 3555 H 350.912 -4.15723 -3.63151 0
M  V30 3556 H 351.389 -2.461 -3.63774 0
M  V30 3557 H 351.995 -3.53871 -2.35914 0
M  V30 3558 N 350.31 0.590341 -1.46126 0
M  V30 3559 C 351.556 1.34874 -1.52252 0
M  V30 3560 C 351.911 1.91658 -0.168807 0
M  V30 3561 O 351.204 1.73093 0.821556 0
M  V30 3562 C 351.398 2.5032 -2.55097 0
M  V30 3563 C 351.227 2.04843 -4.00337 0
M  V30 3564 C 349.997 1.90213 -4.68132 0
M  V30 3565 C 352.195 1.61267 -4.88362 0
M  V30 3566 N 350.177 1.38727 -5.9802 0
M  V30 3567 C 351.548 1.21319 -6.08015 0
M  V30 3568 C 353.603 1.49015 -4.75078 0
M  V30 3569 C 352.306 0.7034 -7.15852 0
M  V30 3570 C 354.332 0.994401 -5.8298 0
M  V30 3571 C 353.694 0.604659 -7.018 0
M  V30 3572 H 349.793 0.486803 -0.612002 0
M  V30 3573 H 352.377 0.673007 -1.82698 0
M  V30 3574 H 350.548 3.15466 -2.26574 0
M  V30 3575 H 352.28 3.1725 -2.51266 0
M  V30 3576 H 349.035 2.11927 -4.23537 0
M  V30 3577 H 349.459 1.15168 -6.67132 0
M  V30 3578 H 354.101 1.77768 -3.83612 0
M  V30 3579 H 351.819 0.403446 -8.07092 0
M  V30 3580 H 355.405 0.903621 -5.7474 0
M  V30 3581 H 354.285 0.226963 -7.83871 0
M  V30 3582 N 351.788 1.33704 0.83433 0
M  V30 3583 C 352.72 1.20172 1.9517 0
M  V30 3584 C 353.733 0.131572 1.62267 0
M  V30 3585 O 354.922 0.382406 1.74356 0
M  V30 3586 C 352.022 0.821716 3.28787 0
M  V30 3587 C 351.195 1.98446 3.89792 0
M  V30 3588 C 350.254 1.58469 5.01771 0
M  V30 3589 O 349.28 2.29968 5.20676 0
M  V30 3590 N 350.482 0.492291 5.78409 0
M  V30 3591 H 353.247 2.16429 2.07313 0
M  V30 3592 H 350.808 1.26509 1.0103 0
M  V30 3593 H 352.8 0.536291 4.01131 0
M  V30 3594 H 351.37 -0.0503058 3.1256 0
M  V30 3595 H 350.59 2.43526 3.09982 0
M  V30 3596 H 351.878 2.76236 4.27283 0
M  V30 3597 H 351.276 -0.102349 5.65607 0
M  V30 3598 H 349.833 0.266555 6.51255 0
M  V30 3599 N 353.266 -1.05314 1.17247 0
M  V30 3600 C 354.543 -1.75184 0.87005 0
M  V30 3601 C 354.923 -2.01481 -0.629965 0
M  V30 3602 O 354.271 -1.64988 -1.58086 0
M  V30 3603 C 354.481 -3.04594 1.70363 0
M  V30 3604 C 355.829 -3.78567 1.92281 0
M  V30 3605 O 356.853 -3.14461 1.67311 0
M  V30 3606 O 355.712 -4.93755 2.3424 0
M  V30 3607 H 352.806 -0.761729 0.322021 0
M  V30 3608 H 355.352 -1.11493 1.27935 0
M  V30 3609 H 354.124 -2.81201 2.72106 0
M  V30 3610 H 353.747 -3.76022 1.29202 0
M  V30 3611 N 354.744 -0.972509 -1.24016 0
M  V30 3612 C 356.155 -0.67517 -1.74064 0
M  V30 3613 C 356.506 0.808939 -1.78747 0
M  V30 3614 O 355.631 1.63286 -1.42009 0
M  V30 3615 C 356.226 -1.21889 -3.16115 0
M  V30 3616 C 354.785 -0.971358 -3.6365 0
M  V30 3617 C 353.932 -1.35134 -2.42145 0
M  V30 3618 H 356.883 -1.14727 -1.09651 0
M  V30 3619 H 356.904 -0.587489 -3.75937 0
M  V30 3620 H 356.416 -2.29906 -3.12674 0
M  V30 3621 H 354.517 0.0930686 -3.72484 0
M  V30 3622 H 354.63 -1.62039 -4.50866 0
M  V30 3623 H 352.994 -0.769751 -2.4279 0
M  V30 3624 H 353.777 -2.4411 -2.41381 0
M  V30 3625 N 356.222 1.38976 -0.743202 0
M  V30 3626 C 357.172 2.27843 -0.084513 0
M  V30 3627 C 358.156 1.44677 0.704094 0
M  V30 3628 O 359.348 1.67511 0.571755 0
M  V30 3629 C 356.477 3.33466 0.815781 0
M  V30 3630 C 355.563 4.24095 0.0208844 0
M  V30 3631 N 355.954 4.95609 -1.0102 0
M  V30 3632 C 354.252 4.45303 0.249293 0
M  V30 3633 C 354.953 5.62287 -1.49024 0
M  V30 3634 N 353.929 5.37571 -0.807377 0
M  V30 3635 H 357.731 2.80593 -0.87436 0
M  V30 3636 H 355.245 1.51755 -0.578283 0
M  V30 3637 H 357.242 3.96008 1.30321 0
M  V30 3638 H 355.902 2.82276 1.6047 0
M  V30 3639 H 356.913 4.98849 -1.39176 0
M  V30 3640 H 353.59 4.0504 1.01237 0
M  V30 3641 H 354.98 6.29519 -2.34853 0
M  V30 3642 N 357.7 0.491464 1.49741 0
M  V30 3643 C 358.925 -0.0557177 2.07325 0
M  V30 3644 C 359.35 -1.30925 1.35056 0
M  V30 3645 O 358.708 -1.76733 0.404365 0
M  V30 3646 C 358.756 -0.302074 3.59333 0
M  V30 3647 O 357.86 -1.37868 3.88672 0
M  V30 3648 H 357.201 0.0219956 0.663636 0
M  V30 3649 H 359.731 0.688352 1.92673 0
M  V30 3650 H 359.741 -0.536464 4.04458 0
M  V30 3651 H 358.416 0.61383 4.11345 0
M  V30 3652 H 356.993 -1.12999 3.55367 0
M  V30 3653 N 359.178 -1.55987 0.224894 0
M  V30 3654 C 360.424 -1.99433 -0.39973 0
M  V30 3655 C 360.779 -1.11004 -1.57149 0
M  V30 3656 O 360.072 -0.160725 -1.90925 0
M  V30 3657 C 360.266 -3.46394 -0.880106 0
M  V30 3658 C 360.095 -4.4904 0.243565 0
M  V30 3659 C 358.865 -5.00272 0.711056 0
M  V30 3660 C 361.063 -5.03195 1.06299 0
M  V30 3661 N 359.045 -5.86628 1.80944 0
M  V30 3662 C 360.416 -5.86508 2.01017 0
M  V30 3663 C 362.471 -4.8555 1.10205 0
M  V30 3664 C 361.174 -6.54062 2.99324 0
M  V30 3665 C 363.2 -5.53866 2.07332 0
M  V30 3666 C 362.562 -6.3695 3.00789 0
M  V30 3667 H 358.661 -0.773815 -0.112847 0
M  V30 3668 H 361.245 -1.91754 0.337432 0
M  V30 3669 H 359.416 -3.54515 -1.58662 0
M  V30 3670 H 361.148 -3.76752 -1.47783 0
M  V30 3671 H 357.903 -4.72655 0.29906 0
M  V30 3672 H 358.327 -6.34507 2.36073 0
M  V30 3673 H 362.969 -4.20966 0.39343 0
M  V30 3674 H 360.687 -7.17827 3.71147 0
M  V30 3675 H 364.273 -5.42178 2.11032 0
M  V30 3676 H 363.153 -6.8888 3.74718 0
M  V30 3677 N 360.656 0.0484629 -1.57525 0
M  V30 3678 C 361.604 1.07359 -2.06341 0
M  V30 3679 C 362.598 1.3865 -0.973269 0
M  V30 3680 O 363.804 1.37783 -1.15827 0
M  V30 3681 H 360.179 0.363662 -0.65822 0
M  V30 3682 H 362.15 0.635916 -2.91545 0
M  V30 3683 C 360.899 2.37198 -2.54229 0
M  V30 3684 H 360.222 2.13977 -3.37719 0
M  V30 3685 H 361.662 3.07319 -2.92115 0
M  V30 3686 C 360.121 3.04805 -1.43511 0
M  V30 3687 O 360.651 3.93848 -0.79034 0
M  V30 3688 N 358.857 2.65811 -1.17444 0
M  V30 3689 H 358.404 1.93488 -1.70059 0
M  V30 3690 H 358.362 3.11366 -0.435737 0
M  V30 3691 N 362.134 1.5431 0.320358 0
M  V30 3692 C 363.359 1.76954 1.08175 0
M  V30 3693 C 363.784 0.518193 1.80821 0
M  V30 3694 O 363.142 -0.530411 1.73368 0
M  V30 3695 C 363.19 2.96451 2.05303 0
M  V30 3696 O 362.294 2.68221 3.13259 0
M  V30 3697 H 361.635 0.586275 0.311733 0
M  V30 3698 H 364.165 2.01342 0.363676 0
M  V30 3699 H 364.175 3.23887 2.48116 0
M  V30 3700 H 362.85 3.87196 1.51829 0
M  V30 3701 H 361.427 2.51744 2.75099 0
M  V30 3702 N 363.613 -0.582584 1.46437 0
M  V30 3703 C 364.838 -1.37168 1.55563 0
M  V30 3704 C 365.263 -1.87061 0.19743 0
M  V30 3705 O 364.621 -1.61572 -0.822451 0
M  V30 3706 C 364.669 -2.53511 2.56446 0
M  V30 3707 O 363.773 -3.54953 2.09958 0
M  V30 3708 H 363.114 -0.408494 0.523477 0
M  V30 3709 H 365.644 -0.706646 1.9201 0
M  V30 3710 H 365.654 -3.00426 2.76058 0
M  V30 3711 H 364.329 -2.16549 3.55076 0
M  V30 3712 H 362.906 -3.14516 2.00334 0
M  V30 3713 N 365.091 -1.34144 -0.827227 0
M  V30 3714 C 366.338 -1.26258 -1.58319 0
M  V30 3715 C 366.666 0.168595 -1.93768 0
M  V30 3716 O 365.921 1.12877 -1.59866 0
M  V30 3717 C 366.22 -2.09464 -2.89585 0
M  V30 3718 C 365.886 -3.58521 -2.73448 0
M  V30 3719 C 364.548 -3.99155 -2.68754 0
M  V30 3720 C 366.9 -4.53189 -2.57428 0
M  V30 3721 C 364.228 -5.32656 -2.45957 0
M  V30 3722 C 366.58 -5.86864 -2.36163 0
M  V30 3723 C 365.244 -6.26667 -2.29879 0
M  V30 3724 H 364.514 -0.462013 -0.579332 0
M  V30 3725 H 367.161 -1.65845 -0.95748 0
M  V30 3726 H 365.466 -1.62692 -3.56425 0
M  V30 3727 H 367.163 -2.00712 -3.47154 0
M  V30 3728 H 363.753 -3.26264 -2.77939 0
M  V30 3729 H 367.937 -4.22696 -2.60081 0
M  V30 3730 H 363.193 -5.62519 -2.39546 0
M  V30 3731 H 367.367 -6.59813 -2.22754 0
M  V30 3732 H 364.994 -7.30049 -2.11975 0
M  V30 3733 N 366.569 1.04691 -1.17803 0
M  V30 3734 C 367.799 1.81183 -0.992788 0
M  V30 3735 C 368.207 1.8347 0.462098 0
M  V30 3736 O 367.55 1.2643 1.33271 0
M  V30 3737 C 367.612 3.28363 -1.46349 0
M  V30 3738 C 367.276 3.49749 -2.94151 0
M  V30 3739 C 368.273 3.41456 -3.92051 0
M  V30 3740 C 365.958 3.76548 -3.32441 0
M  V30 3741 C 367.952 3.59656 -5.26238 0
M  V30 3742 C 365.639 3.94396 -4.66792 0
M  V30 3743 C 366.637 3.8595 -5.635 0
M  V30 3744 O 366.325 4.03294 -6.9542 0
M  V30 3745 H 366.057 0.577622 -0.351182 0
M  V30 3746 H 368.611 1.32876 -1.5663 0
M  V30 3747 H 366.841 3.77609 -0.833574 0
M  V30 3748 H 368.53 3.86395 -1.24313 0
M  V30 3749 H 369.296 3.20723 -3.63815 0
M  V30 3750 H 365.175 3.82224 -2.57732 0
M  V30 3751 H 368.719 3.52979 -6.01707 0
M  V30 3752 H 364.616 4.14622 -4.94731 0
M  V30 3753 H 365.384 4.2049 -7.02232 0
M  V30 3754 N 368.047 0.979072 1.23499 0
M  V30 3755 C 369.463 0.687475 1.44034 0
M  V30 3756 C 369.663 -0.746801 1.8715 0
M  V30 3757 O 368.719 -1.51939 2.0167 0
M  V30 3758 C 370.032 1.68127 2.49307 0
M  V30 3759 C 371.58 1.69516 2.63122 0
M  V30 3760 C 372.055 2.67723 3.71603 0
M  V30 3761 N 373.546 2.66233 3.79044 0
M  V30 3762 C 374.281 3.38891 4.62537 0
M  V30 3763 N 373.777 4.21103 5.50131 0
M  V30 3764 N 375.57 3.27661 4.56721 0
M  V30 3765 H 367.721 1.90559 0.938135 0
M  V30 3766 H 369.984 0.821051 0.473897 0
M  V30 3767 H 369.69 2.70693 2.2454 0
M  V30 3768 H 369.564 1.46306 3.4767 0
M  V30 3769 H 371.951 0.676561 2.8724 0
M  V30 3770 H 372.032 1.95404 1.65079 0
M  V30 3771 H 371.676 3.69724 3.48233 0
M  V30 3772 H 371.606 2.39111 4.69184 0
M  V30 3773 H 374.097 2.06568 3.16446 0
M  V30 3774 H 374.41 4.73403 6.10827 0
M  V30 3775 H 372.755 4.25195 5.49759 0
M  V30 3776 H 375.946 2.62887 3.87309 0
M  V30 3777 H 376.119 3.84547 5.21562 0
M  V30 3778 N 369.525 -1.3858 0.750561 0
M  V30 3779 C 370.455 -2.33102 0.136237 0
M  V30 3780 C 371.436 -1.54713 -0.706965 0
M  V30 3781 O 372.621 -1.83043 -0.648769 0
M  V30 3782 C 369.751 -3.38882 -0.760017 0
M  V30 3783 C 368.705 -4.27995 -0.0197785 0
M  V30 3784 C 368.031 -5.24605 -1.03408 0
M  V30 3785 C 369.331 -5.09554 1.14684 0
M  V30 3786 H 371.025 -2.84726 0.925822 0
M  V30 3787 H 368.571 -1.36898 0.446654 0
M  V30 3788 H 370.524 -4.0397 -1.19943 0
M  V30 3789 H 369.248 -2.85734 -1.58189 0
M  V30 3790 H 367.907 -3.64409 0.400184 0
M  V30 3791 H 367.555 -4.67746 -1.84994 0
M  V30 3792 H 367.255 -5.85081 -0.543464 0
M  V30 3793 H 368.779 -5.9257 -1.47288 0
M  V30 3794 H 370.193 -5.67899 0.785118 0
M  V30 3795 H 368.59 -5.7925 1.56812 0
M  V30 3796 H 369.66 -4.4347 1.96118 0
M  V30 3797 N 371.003 -0.499398 -1.49478 0
M  V30 3798 C 372.419 -0.155261 -1.58843 0
M  V30 3799 C 372.619 1.34008 -1.50479 0
M  V30 3800 O 371.675 2.11589 -1.37791 0
M  V30 3801 C 372.988 -0.730636 -2.91689 0
M  V30 3802 C 374.536 -0.696599 -3.0515 0
M  V30 3803 C 375.011 -1.25001 -4.40612 0
M  V30 3804 N 376.502 -1.21064 -4.47099 0
M  V30 3805 C 377.237 -1.60905 -5.50361 0
M  V30 3806 N 376.733 -2.08331 -6.60735 0
M  V30 3807 N 378.526 -1.52331 -5.41065 0
M  V30 3808 H 370.677 -1.47162 -1.53158 0
M  V30 3809 H 372.94 -0.610309 -0.725415 0
M  V30 3810 H 372.646 -1.77928 -3.03372 0
M  V30 3811 H 372.52 -0.190161 -3.7672 0
M  V30 3812 H 374.907 0.343204 -2.93097 0
M  V30 3813 H 374.988 -1.2742 -2.21806 0
M  V30 3814 H 374.632 -2.28859 -4.53416 0
M  V30 3815 H 374.562 -0.64836 -5.22593 0
M  V30 3816 H 377.053 -0.863128 -3.67911 0
M  V30 3817 H 377.366 -2.36805 -7.35624 0
M  V30 3818 H 375.711 -2.12304 -6.6178 0
M  V30 3819 H 378.902 -1.151 -4.53729 0
M  V30 3820 H 379.075 -1.83704 -6.21415 0
M  V30 3821 N 372.481 1.55866 -0.233164 0
M  V30 3822 C 373.728 1.98603 0.395374 0
M  V30 3823 C 374.056 1.12105 1.58942 0
M  V30 3824 O 373.311 0.168656 1.94972 0
M  V30 3825 C 373.61 3.46856 0.861724 0
M  V30 3826 C 373.276 4.50348 -0.223066 0
M  V30 3827 C 371.938 4.78371 -0.521038 0
M  V30 3828 C 374.29 5.12355 -0.956124 0
M  V30 3829 C 371.618 5.6568 -1.55638 0
M  V30 3830 C 373.97 6.00786 -1.98089 0
M  V30 3831 C 372.634 6.27148 -2.28565 0
M  V30 3832 H 371.904 0.726739 0.144677 0
M  V30 3833 H 374.551 1.88491 -0.338114 0
M  V30 3834 H 372.856 3.5423 1.67418 0
M  V30 3835 H 374.553 3.77302 1.35809 0
M  V30 3836 H 371.143 4.28596 0.0193234 0
M  V30 3837 H 375.327 4.90765 -0.739166 0
M  V30 3838 H 370.583 5.84365 -1.798 0
M  V30 3839 H 374.757 6.4788 -2.55391 0
M  V30 3840 H 372.384 6.94597 -3.08932 0
M  V30 3841 N 373.959 -0.0401083 1.57549 0
M  V30 3842 C 374.869 -1.06133 2.0922 0
M  V30 3843 C 375.885 -1.40356 1.0284 0
M  V30 3844 O 377.061 -1.49897 1.34509 0
M  V30 3845 C 374.126 -2.34658 2.55218 0
M  V30 3846 C 373.187 -2.07117 3.76033 0
M  V30 3847 C 372.42 -3.29514 4.19829 0
M  V30 3848 O 372.643 -4.39794 3.63232 0
M  V30 3849 O 371.577 -3.15863 5.12362 0
M  V30 3850 H 375.403 -0.652244 2.96613 0
M  V30 3851 H 372.988 -0.256368 1.47184 0
M  V30 3852 H 374.87 -3.10239 2.85184 0
M  V30 3853 H 373.545 -2.74883 1.70941 0
M  V30 3854 H 372.452 -1.29139 3.51104 0
M  V30 3855 H 373.785 -1.71754 4.61261 0
M  V30 3856 N 375.437 -1.54477 -0.31217 0
M  V30 3857 C 376.367 -1.87652 -1.38957 0
M  V30 3858 C 377.348 -0.734358 -1.53431 0
M  V30 3859 O 378.533 -0.98911 -1.67123 0
M  V30 3860 C 375.663 -2.11396 -2.75552 0
M  V30 3861 C 374.617 -3.27243 -2.75855 0
M  V30 3862 C 373.943 -3.36382 -4.15633 0
M  V30 3863 C 375.243 -4.64622 -2.38587 0
M  V30 3864 H 376.937 -2.77887 -1.11442 0
M  V30 3865 H 374.483 -1.33707 -0.534655 0
M  V30 3866 H 376.436 -2.33189 -3.51 0
M  V30 3867 H 375.16 -1.17921 -3.04569 0
M  V30 3868 H 373.819 -3.05356 -2.02863 0
M  V30 3869 H 373.467 -2.40445 -4.41809 0
M  V30 3870 H 373.167 -4.14249 -4.1674 0
M  V30 3871 H 374.691 -3.60422 -4.92877 0
M  V30 3872 H 376.105 -4.86219 -3.03749 0
M  V30 3873 H 374.502 -5.45121 -2.50925 0
M  V30 3874 H 375.572 -4.66097 -1.33723 0
M  V30 3875 N 376.915 0.57481 -1.46744 0
M  V30 3876 C 378.331 0.898981 -1.31873 0
M  V30 3877 C 378.531 1.99313 -0.29605 0
M  V30 3878 O 377.587 2.50728 0.298621 0
M  V30 3879 C 378.9 1.30886 -2.7072 0
M  V30 3880 C 380.448 1.42127 -2.78871 0
M  V30 3881 C 380.923 1.86478 -4.18318 0
M  V30 3882 N 382.414 1.93658 -4.20774 0
M  V30 3883 C 383.149 2.29267 -5.2557 0
M  V30 3884 N 382.645 2.63612 -6.40688 0
M  V30 3885 N 384.438 2.29889 -5.1294 0
M  V30 3886 H 376.589 -0.147839 -2.11885 0
M  V30 3887 H 378.852 -0.00347013 -0.947994 0
M  V30 3888 H 378.558 0.578853 -3.46904 0
M  V30 3889 H 378.432 2.26874 -3.01343 0
M  V30 3890 H 380.819 2.14213 -2.0297 0
M  V30 3891 H 380.9 0.443705 -2.51922 0
M  V30 3892 H 380.544 1.14968 -4.94717 0
M  V30 3893 H 380.474 2.85207 -4.42679 0
M  V30 3894 H 382.965 1.69574 -3.37718 0
M  V30 3895 H 383.278 2.89759 -7.16421 0
M  V30 3896 H 381.623 2.61232 -6.44036 0
M  V30 3897 H 384.814 2.02485 -4.22039 0
M  V30 3898 H 384.987 2.57312 -5.94722 0
M  V30 3899 N 378.394 1.34581 0.820102 0
M  V30 3900 C 379.624 1.29991 1.6058 0
M  V30 3901 C 380.032 -0.127588 1.88769 0
M  V30 3902 O 379.375 -1.08595 1.48165 0
M  V30 3903 C 379.437 2.02548 2.9701 0
M  V30 3904 C 379.101 3.51794 2.91701 0
M  V30 3905 C 380.098 4.46647 2.66087 0
M  V30 3906 C 377.783 3.94249 3.11245 0
M  V30 3907 C 379.777 5.81929 2.60071 0
M  V30 3908 C 377.464 5.2963 3.04853 0
M  V30 3909 C 378.462 6.23282 2.793 0
M  V30 3910 O 378.15 7.56181 2.72847 0
M  V30 3911 H 377.882 0.448539 0.505756 0
M  V30 3912 H 380.436 1.77811 1.02822 0
M  V30 3913 H 378.666 1.49345 3.56697 0
M  V30 3914 H 380.355 1.91211 3.58041 0
M  V30 3915 H 381.121 4.15168 2.5072 0
M  V30 3916 H 377 3.21749 3.30149 0
M  V30 3917 H 380.544 6.54999 2.40046 0
M  V30 3918 H 376.441 5.60727 3.19774 0
M  V30 3919 H 377.209 7.6595 2.88553 0
M  V30 3920 N 379.872 -1.04064 1.18357 0
M  V30 3921 C 381.288 -1.2947 0.933258 0
M  V30 3922 C 381.488 -1.97466 -0.401169 0
M  V30 3923 O 380.544 -2.25528 -1.13549 0
M  V30 3924 C 381.857 -2.15337 2.09882 0
M  V30 3925 C 383.405 -2.28683 2.13712 0
M  V30 3926 C 383.88 -3.17917 3.29686 0
M  V30 3927 N 385.371 -3.25504 3.29547 0
M  V30 3928 C 386.106 -3.94706 4.15926 0
M  V30 3929 N 385.602 -4.66239 5.12439 0
M  V30 3930 N 387.395 -3.90986 4.0384 0
M  V30 3931 H 379.546 -0.583359 2.04232 0
M  V30 3932 H 381.809 -0.319921 0.892387 0
M  V30 3933 H 381.515 -1.72682 3.06389 0
M  V30 3934 H 381.389 -3.16015 2.05947 0
M  V30 3935 H 383.776 -2.70575 1.17784 0
M  V30 3936 H 383.857 -1.27596 2.21705 0
M  V30 3937 H 383.501 -2.76736 4.25887 0
M  V30 3938 H 383.431 -4.19036 3.1893 0
M  V30 3939 H 385.922 -2.74547 2.59677 0
M  V30 3940 H 386.235 -5.16638 5.74722 0
M  V30 3941 H 384.58 -4.65143 5.16398 0
M  V30 3942 H 387.771 -3.34234 3.27727 0
M  V30 3943 H 387.944 -4.44646 4.71375 0
M  V30 3944 N 381.35 -0.985608 -1.22978 0
M  V30 3945 C 382.313 -0.535071 -2.22867 0
M  V30 3946 C 383.313 0.378123 -1.56291 0
M  V30 3947 O 384.503 0.171092 -1.73358 0
M  V30 3948 C 381.635 0.222702 -3.40172 0
M  V30 3949 H 382.828 -1.41835 -2.6424 0
M  V30 3950 H 380.381 -0.772042 -1.35901 0
M  V30 3951 H 381.116 1.12229 -3.04262 0
M  V30 3952 H 380.901 -0.43288 -3.89703 0
M  V30 3953 H 382.391 0.526335 -4.1427 0
M  V30 3954 N 382.828 1.3818 -0.7579 0
M  V30 3955 C 383.738 2.3421 -0.135247 0
M  V30 3956 C 384.754 1.59487 0.695683 0
M  V30 3957 O 385.93 1.91657 0.618832 0
M  V30 3958 C 382.995 3.3862 0.744139 0
M  V30 3959 C 382.056 4.2918 -0.101658 0
M  V30 3960 C 381.289 5.28603 0.735851 0
M  V30 3961 O 381.512 5.35166 1.97366 0
M  V30 3962 O 380.446 6.01707 0.152372 0
M  V30 3963 H 384.272 2.8916 -0.928436 0
M  V30 3964 H 381.857 1.40101 -0.518855 0
M  V30 3965 H 383.739 4.02539 1.2466 0
M  V30 3966 H 382.414 2.86019 1.51575 0
M  V30 3967 H 381.321 3.68407 -0.650167 0
M  V30 3968 H 382.654 4.85048 -0.836024 0
M  V30 3969 N 384.306 0.507319 1.49211 0
M  V30 3970 C 385.722 0.163682 1.58758 0
M  V30 3971 C 385.922 -1.33208 1.51188 0
M  V30 3972 O 384.978 -2.10855 1.38911 0
M  V30 3973 C 386.291 0.746095 2.91297 0
M  V30 3974 C 387.839 0.712773 3.04776 0
M  V30 3975 C 388.314 1.27336 4.39943 0
M  V30 3976 N 389.805 1.23433 4.46451 0
M  V30 3977 C 390.54 1.63821 5.495 0
M  V30 3978 N 390.036 2.11832 6.5962 0
M  V30 3979 N 391.829 1.55198 5.4025 0
M  V30 3980 H 383.98 1.47972 1.52375 0
M  V30 3981 H 386.243 0.614147 0.722168 0
M  V30 3982 H 385.949 1.79534 3.02424 0
M  V30 3983 H 385.823 0.210137 3.76614 0
M  V30 3984 H 388.21 -0.327656 2.93275 0
M  V30 3985 H 388.291 1.28595 2.21127 0
M  V30 3986 H 387.935 2.3126 4.52196 0
M  V30 3987 H 387.865 0.676066 5.22242 0
M  V30 3988 H 390.356 0.882627 3.67448 0
M  V30 3989 H 390.669 2.40703 7.34358 0
M  V30 3990 H 389.014 2.1581 6.60644 0
M  V30 3991 H 392.205 1.17505 4.53112 0
M  V30 3992 H 392.378 1.86997 6.20432 0
M  V30 3993 N 385.784 -1.5574 0.241426 0
M  V30 3994 C 387.009 -2.0366 -0.392111 0
M  V30 3995 C 387.434 -1.11969 -1.51144 0
M  V30 3996 O 386.792 -0.111594 -1.80956 0
M  V30 3997 C 386.84 -3.49638 -0.882371 0
M  V30 3998 O 385.944 -3.6108 -1.99235 0
M  V30 3999 H 385.285 -0.658379 -0.0862122 0
M  V30 4000 H 387.815 -2.01302 0.365881 0
M  V30 4001 H 387.825 -3.90351 -1.18702 0
M  V30 4002 H 386.5 -4.15852 -0.0632361 0
M  V30 4003 H 385.077 -3.32262 -1.69282 0
M  V30 4004 N 387.262 0.0317525 -1.57568 0
M  V30 4005 C 388.209 1.0332 -2.06382 0
M  V30 4006 C 389.179 1.36082 -0.952414 0
M  V30 4007 O 390.364 1.46466 -1.2228 0
M  V30 4008 C 387.504 2.32989 -2.54578 0
M  V30 4009 C 386.617 2.0641 -3.79498 0
M  V30 4010 C 385.752 3.2993 -4.16317 0
M  V30 4011 C 384.791 2.98893 -5.34162 0
M  V30 4012 N 383.928 4.14857 -5.66426 0
M  V30 4013 H 388.768 0.609982 -2.9169 0
M  V30 4014 H 386.305 0.289573 -1.44222 0
M  V30 4015 H 388.263 3.0875 -2.80587 0
M  V30 4016 H 386.893 2.73039 -1.7219 0
M  V30 4017 H 385.945 1.21158 -3.6059 0
M  V30 4018 H 387.257 1.79513 -4.65378 0
M  V30 4019 H 386.411 4.1406 -4.4344 0
M  V30 4020 H 385.15 3.59938 -3.29083 0
M  V30 4021 H 384.155 2.13164 -5.06795 0
M  V30 4022 H 385.38 2.70165 -6.23047 0
M  V30 4023 H 383.326 4.44821 -4.82151 0
M  V30 4024 H 383.243 3.91374 -6.4681 0
M  V30 4025 H 384.511 4.99868 -5.98124 0
M  V30 4026 N 388.74 1.54641 0.303973 0
M  V30 4027 C 389.968 1.77768 1.05858 0
M  V30 4028 C 390.383 0.535722 1.8104 0
M  V30 4029 O 389.74 -0.494337 1.75677 0
M  V30 4030 C 389.791 2.9834 2.04146 0
M  V30 4031 O 389.512 4.17736 1.32015 0
M  V30 4032 C 391.013 3.33832 2.91669 0
M  V30 4033 H 388.233 0.592961 0.314067 0
M  V30 4034 H 390.777 2.01583 0.344149 0
M  V30 4035 H 388.932 2.76742 2.71096 0
M  V30 4036 H 389.346 4.85693 1.97998 0
M  V30 4037 H 390.82 4.21448 3.56491 0
M  V30 4038 H 391.297 2.51857 3.59812 0
M  V30 4039 H 391.903 3.57579 2.30254 0
M  V30 4040 N 390.218 -0.567019 1.47046 0
M  V30 4041 C 391.465 -1.32462 1.53167 0
M  V30 4042 C 391.793 -1.93571 0.189841 0
M  V30 4043 O 391.048 -1.77865 -0.816243 0
M  V30 4044 C 391.347 -2.4623 2.59047 0
M  V30 4045 C 391.013 -2.03014 4.02612 0
M  V30 4046 C 389.675 -1.90944 4.41694 0
M  V30 4047 C 392.027 -1.69895 4.92732 0
M  V30 4048 C 389.355 -1.44035 5.68745 0
M  V30 4049 C 391.707 -1.2446 6.20236 0
M  V30 4050 C 390.371 -1.10979 6.5821 0
M  V30 4051 H 389.641 -0.484713 0.560477 0
M  V30 4052 H 392.288 -0.636888 1.80599 0
M  V30 4053 H 390.593 -3.20517 2.25335 0
M  V30 4054 H 392.29 -3.04427 2.61008 0
M  V30 4055 H 388.88 -2.13348 3.71726 0
M  V30 4056 H 393.064 -1.78098 4.63244 0
M  V30 4057 H 388.32 -1.32254 5.96925 0
M  V30 4058 H 392.494 -0.978924 6.89485 0
M  V30 4059 H 390.121 -0.744078 7.5655 0
M  V30 4060 N 391.696 -1.35014 -0.812953 0
M  V30 4061 C 392.924 -1.31031 -1.6012 0
M  V30 4062 C 393.339 0.113558 -1.88458 0
M  V30 4063 O 392.696 1.06363 -1.48301 0
M  V30 4064 C 392.747 -2.10872 -2.93624 0
M  V30 4065 O 392.468 -3.47706 -2.66518 0
M  V30 4066 C 393.969 -2.14401 -3.88004 0
M  V30 4067 H 391.189 -0.45037 -0.497401 0
M  V30 4068 H 393.733 -1.77775 -1.01076 0
M  V30 4069 H 391.888 -1.67744 -3.492 0
M  V30 4070 H 392.302 -3.89097 -3.51715 0
M  V30 4071 H 393.776 -2.74669 -4.78812 0
M  V30 4072 H 394.253 -1.14105 -4.24119 0
M  V30 4073 H 394.859 -2.57662 -3.38364 0
M  V30 4074 N 393.175 1.03435 -1.18907 0
M  V30 4075 C 394.403 1.80381 -1.01342 0
M  V30 4076 C 394.818 1.83649 0.438005 0
M  V30 4077 O 394.175 1.27655 1.30424 0
M  V30 4078 C 394.226 3.25689 -1.56873 0
M  V30 4079 O 393.947 3.22673 -2.96334 0
M  V30 4080 C 395.448 4.19255 -1.44014 0
M  V30 4081 H 392.668 0.56784 -0.35749 0
M  V30 4082 H 395.212 1.30317 -1.576 0
M  V30 4083 H 393.367 3.72962 -1.04777 0
M  V30 4084 H 393.781 4.13748 -3.22355 0
M  V30 4085 H 395.255 5.19123 -1.87657 0
M  V30 4086 H 395.732 4.37467 -0.389815 0
M  V30 4087 H 396.338 3.77851 -1.95214 0
M  V30 4088 N 394.653 0.992116 1.22453 0
M  V30 4089 C 395.899 0.678177 1.91761 0
M  V30 4090 C 396.254 -0.781141 1.75829 0
M  V30 4091 O 395.547 -1.55747 1.11595 0
M  V30 4092 C 395.741 1.01832 3.42586 0
M  V30 4093 C 395.57 2.50916 3.73191 0
M  V30 4094 C 394.34 3.17308 3.93248 0
M  V30 4095 C 396.538 3.49032 3.77732 0
M  V30 4096 N 394.52 4.55876 4.11157 0
M  V30 4097 C 395.891 4.73055 4.00773 0
M  V30 4098 C 397.946 3.43349 3.60577 0
M  V30 4099 C 396.649 5.92089 4.0844 0
M  V30 4100 C 398.675 4.61759 3.69503 0
M  V30 4101 C 398.037 5.84582 3.92993 0
M  V30 4102 H 394.136 0.299425 0.722405 0
M  V30 4103 H 396.72 1.27197 1.47408 0
M  V30 4104 H 394.891 0.453118 3.85748 0
M  V30 4105 H 396.623 0.660454 3.99274 0
M  V30 4106 H 393.378 2.67778 3.9063 0
M  V30 4107 H 393.802 5.27748 4.24042 0
M  V30 4108 H 398.444 2.49408 3.41402 0
M  V30 4109 H 396.162 6.86435 4.26418 0
M  V30 4110 H 399.748 4.58951 3.57569 0
M  V30 4111 H 398.628 6.74676 3.99728 0
M  V30 4112 N 396.131 -1.37776 0.765217 0
M  V30 4113 C 397.064 -2.28008 0.0935025 0
M  V30 4114 C 398.042 -1.45985 -0.716047 0
M  V30 4115 O 399.226 -1.75331 -0.692203 0
M  V30 4116 C 396.353 -3.27228 -0.874052 0
M  V30 4117 C 395.399 -4.26239 -0.149307 0
M  V30 4118 S 396.232 -5.22827 1.15809 0
M  V30 4119 C 397.388 -6.256 0.193906 0
M  V30 4120 H 397.621 -2.84631 0.858637 0
M  V30 4121 H 395.154 -1.43952 0.558313 0
M  V30 4122 H 397.112 -3.84902 -1.42691 0
M  V30 4123 H 395.773 -2.69565 -1.61225 0
M  V30 4124 H 394.966 -4.96213 -0.88254 0
M  V30 4125 H 394.568 -3.7252 0.332366 0
M  V30 4126 H 396.86 -6.74508 -0.636011 0
M  V30 4127 H 397.803 -7.02838 0.861638 0
M  V30 4128 H 398.211 -5.64173 -0.191975 0
M  V30 4129 N 397.609 -0.515225 -1.4894 0
M  V30 4130 C 398.855 0.0242508 -2.02785 0
M  V30 4131 C 399.188 1.35323 -1.39289 0
M  V30 4132 O 398.463 1.87041 -0.533469 0
M  V30 4133 C 398.746 0.16184 -3.59736 0
M  V30 4134 C 398.599 -1.19127 -4.33738 0
M  V30 4135 C 399.918 0.895719 -4.30888 0
M  V30 4136 H 397.037 0.00733914 -0.736963 0
M  V30 4137 H 399.679 -0.669395 -1.77818 0
M  V30 4138 H 397.829 0.752624 -3.8114 0
M  V30 4139 H 399.501 -1.82202 -4.23792 0
M  V30 4140 H 397.744 -1.77695 -3.95736 0
M  V30 4141 H 398.415 -1.04815 -5.41957 0
M  V30 4142 H 400.891 0.394528 -4.14225 0
M  V30 4143 H 399.767 0.960859 -5.40425 0
M  V30 4144 H 400.028 1.9427 -3.97129 0
M  V30 4145 N 399.087 1.5561 -0.249682 0
M  V30 4146 C 400.034 2.21496 0.648694 0
M  V30 4147 C 401.004 1.17977 1.16921 0
M  V30 4148 O 402.189 1.46434 1.22318 0
M  V30 4149 C 399.329 2.92039 1.83868 0
M  V30 4150 C 398.442 4.10219 1.35442 0
M  V30 4151 C 397.577 4.6847 2.50419 0
M  V30 4152 C 396.616 5.78893 1.98869 0
M  V30 4153 N 395.753 6.31315 3.07223 0
M  V30 4154 H 400.593 2.97892 0.0801582 0
M  V30 4155 H 398.13 1.47074 0.0278031 0
M  V30 4156 H 400.088 3.31138 2.53778 0
M  V30 4157 H 398.718 2.18111 2.37965 0
M  V30 4158 H 397.77 3.76413 0.54928 0
M  V30 4159 H 399.082 4.89927 0.936649 0
M  V30 4160 H 398.236 5.10158 3.28366 0
M  V30 4161 H 396.975 3.87984 2.95499 0
M  V30 4162 H 395.98 5.3668 1.19393 0
M  V30 4163 H 397.205 6.61232 1.54755 0
M  V30 4164 H 395.151 5.53733 3.51732 0
M  V30 4165 H 395.068 7.06224 2.69784 0
M  V30 4166 H 396.336 6.77662 3.8522 0
M  V30 4167 N 400.565 -0.0233959 1.57583 0
M  V30 4168 C 401.842 -0.748794 1.807 0
M  V30 4169 C 402.222 -1.9327 0.849106 0
M  V30 4170 O 401.57 -2.28247 -0.107468 0
M  V30 4171 C 401.78 -1.17651 3.28571 0
M  V30 4172 C 403.128 -1.59008 3.93702 0
M  V30 4173 O 404.152 -1.27094 3.32755 0
M  V30 4174 O 403.011 -2.18264 5.01022 0
M  V30 4175 H 400.105 -0.362578 0.743281 0
M  V30 4176 H 402.651 0.000261958 1.697 0
M  V30 4177 H 401.423 -0.331603 3.89892 0
M  V30 4178 H 401.046 -1.98541 3.44481 0
M  V30 4179 N 402.043 -1.548 -0.295768 0
M  V30 4180 C 402.973 -1.89115 -1.36959 0
M  V30 4181 C 403.954 -0.75059 -1.52644 0
M  V30 4182 O 405.139 -1.00678 -1.66065 0
M  V30 4183 C 402.269 -2.14307 -2.73295 0
M  V30 4184 C 401.223 -3.30151 -2.72368 0
M  V30 4185 C 400.549 -3.40772 -4.12042 0
M  V30 4186 C 401.849 -4.67126 -2.33646 0
M  V30 4187 H 403.543 -2.79053 -1.08488 0
M  V30 4188 H 401.089 -1.34266 -0.520443 0
M  V30 4189 H 403.042 -2.36898 -3.48507 0
M  V30 4190 H 401.766 -1.21145 -3.03301 0
M  V30 4191 H 400.425 -3.0749 -1.99613 0
M  V30 4192 H 400.073 -2.45117 -4.39234 0
M  V30 4193 H 399.773 -4.18645 -4.12322 0
M  V30 4194 H 401.297 -3.6563 -4.89027 0
M  V30 4195 H 402.711 -4.89414 -2.98575 0
M  V30 4196 H 401.108 -5.47751 -2.45129 0
M  V30 4197 H 402.178 -4.67489 -1.28772 0
M  V30 4198 N 403.521 0.559213 -1.47345 0
M  V30 4199 C 404.453 1.68161 -1.55738 0
M  V30 4200 C 405.466 1.56636 -0.443744 0
M  V30 4201 O 406.655 1.6363 -0.713258 0
M  V30 4202 C 403.755 3.06611 -1.4437 0
M  V30 4203 C 402.928 3.4391 -2.70268 0
M  V30 4204 C 401.987 4.61515 -2.52765 0
M  V30 4205 O 401.013 4.66197 -3.26572 0
M  V30 4206 N 402.215 5.57883 -1.6046 0
M  V30 4207 H 404.98 1.61408 -2.52522 0
M  V30 4208 H 402.541 0.7458 -1.43699 0
M  V30 4209 H 404.533 3.83117 -1.30398 0
M  V30 4210 H 403.103 3.07602 -0.556766 0
M  V30 4211 H 402.323 2.56873 -2.99015 0
M  V30 4212 H 403.611 3.65605 -3.53851 0
M  V30 4213 H 403.009 5.56855 -0.996422 0
M  V30 4214 H 401.566 6.33723 -1.52441 0
M  V30 4215 N 404.999 1.35443 0.805782 0
M  V30 4216 C 405.949 1.24972 1.90699 0
M  V30 4217 C 406.933 0.144806 1.60247 0
M  V30 4218 O 408.125 0.376102 1.72958 0
M  V30 4219 C 405.254 1.02475 3.27649 0
M  V30 4220 C 404.34 2.17361 3.64164 0
M  V30 4221 N 404.731 3.42591 3.72109 0
M  V30 4222 C 403.029 2.08765 3.94123 0
M  V30 4223 C 403.73 4.18144 4.04389 0
M  V30 4224 N 402.706 3.4691 4.18515 0
M  V30 4225 H 406.508 2.19852 1.95044 0
M  V30 4226 H 404.022 1.27928 1.00041 0
M  V30 4227 H 406.019 0.930617 4.06381 0
M  V30 4228 H 404.679 0.0848009 3.24589 0
M  V30 4229 H 405.69 3.76932 3.55166 0
M  V30 4230 H 402.367 1.22629 3.99084 0
M  V30 4231 H 403.757 5.26367 4.17597 0
M  V30 4232 N 406.477 -1.02803 1.19454 0
M  V30 4233 C 407.427 -2.0945 0.900827 0
M  V30 4234 C 408.411 -1.60335 -0.134715 0
M  V30 4235 O 409.603 -1.76857 0.0710924 0
M  V30 4236 C 406.732 -3.4044 0.442229 0
M  V30 4237 C 405.818 -3.96286 1.51056 0
M  V30 4238 N 406.209 -4.25785 2.73021 0
M  V30 4239 C 404.507 -4.24307 1.37404 0
M  V30 4240 C 405.208 -4.70654 3.41848 0
M  V30 4241 N 404.184 -4.72238 2.69243 0
M  V30 4242 H 407.986 -2.3015 1.82779 0
M  V30 4243 H 405.5 -1.20672 1.08683 0
M  V30 4244 H 407.497 -4.16354 0.21326 0
M  V30 4245 H 406.157 -3.21159 -0.478238 0
M  V30 4246 H 407.168 -4.15041 3.09776 0
M  V30 4247 H 403.845 -4.14285 0.517103 0
M  V30 4248 H 405.235 -5.02392 4.46152 0
M  V30 4249 N 407.956 -0.998596 -1.21925 0
M  V30 4250 C 409.196 -0.685948 -1.92546 0
M  V30 4251 C 409.56 0.768441 -1.75952 0
M  V30 4252 O 410.761 1.19277 -2.40887 0
M  V30 4253 C 409.032 -1.08767 -3.40448 0
M  V30 4254 S 410.591 -0.894251 -4.29591 0
M  V30 4255 H 407.409 -0.250622 -0.665364 0
M  V30 4256 H 410.011 -1.28207 -1.47591 0
M  V30 4257 H 408.715 -2.14242 -3.50041 0
M  V30 4258 H 408.246 -0.48357 -3.90417 0
M  V30 4259 H 410.261 0.212149 -4.95746 0
M  V30 4260 N 409.434 1.37368 -0.772513 0
M  V30 4261 C 410.68 1.99969 -0.337681 0
M  V30 4262 C 411.013 1.61184 1.08321 0
M  V30 4263 O 410.288 0.858395 1.74533 0
M  V30 4264 C 410.571 3.56858 -0.482121 0
M  V30 4265 C 410.424 4.0555 -1.94549 0
M  V30 4266 C 411.743 4.39955 0.113143 0
M  V30 4267 H 408.862 0.726464 -0.124171 0
M  V30 4268 H 411.504 1.63034 -0.975699 0
M  V30 4269 H 409.654 3.88452 0.0610361 0
M  V30 4270 H 411.326 3.84518 -2.54841 0
M  V30 4271 H 409.569 3.57715 -2.45403 0
M  V30 4272 H 410.24 5.14587 -1.9976 0
M  V30 4273 H 412.716 4.14623 -0.35031 0
M  V30 4274 H 411.592 5.48897 -0.0180514 0
M  V30 4275 H 411.853 4.25403 1.20354 0
M  V30 4276 N 410.912 0.523116 1.48665 0
M  V30 4277 C 412.161 -0.01544 2.01694 0
M  V30 4278 C 412.474 -1.35975 1.40606 0
M  V30 4279 O 413.68 -1.98627 1.85093 0
M  V30 4280 C 412.136 -0.0779303 3.59816 0
M  V30 4281 C 411.744 1.26107 4.29885 0
M  V30 4282 C 413.488 -0.565678 4.20714 0
M  V30 4283 C 411.395 1.15954 5.79921 0
M  V30 4284 H 410.325 -0.00954163 0.75394 0
M  V30 4285 H 412.976 0.665865 1.70993 0
M  V30 4286 H 411.358 -0.824165 3.87329 0
M  V30 4287 H 412.532 2.02233 4.14051 0
M  V30 4288 H 410.847 1.68401 3.80828 0
M  V30 4289 H 413.444 -0.6595 5.30617 0
M  V30 4290 H 413.787 -1.56984 3.85567 0
M  V30 4291 H 414.32 0.12467 3.97605 0
M  V30 4292 H 411.059 2.13864 6.19631 0
M  V30 4293 H 410.579 0.439529 5.98187 0
M  V30 4294 H 412.258 0.847361 6.41427 0
M  V30 4295 N 412.39 -1.55475 0.257931 0
M  V30 4296 C 413.34 -2.18506 -0.651094 0
M  V30 4297 C 414.324 -1.14431 -1.13112 0
M  V30 4298 O 415.516 -1.40305 -1.07905 0
M  V30 4299 C 412.645 -2.89653 -1.84272 0
M  V30 4300 C 411.731 -4.00996 -1.38068 0
M  V30 4301 N 412.122 -5.01816 -0.633609 0
M  V30 4302 C 410.42 -4.13753 -1.66506 0
M  V30 4303 C 411.121 -5.80371 -0.392922 0
M  V30 4304 N 410.097 -5.3505 -0.960359 0
M  V30 4305 H 413.899 -2.93811 -0.0722883 0
M  V30 4306 H 411.413 -1.62286 0.0607256 0
M  V30 4307 H 413.41 -3.33245 -2.50506 0
M  V30 4308 H 412.07 -2.15854 -2.42564 0
M  V30 4309 H 413.081 -5.17128 -0.282626 0
M  V30 4310 H 409.758 -3.51133 -2.25858 0
M  V30 4311 H 411.148 -6.7159 0.204235 0
M  V30 4312 N 413.868 0.0150385 -1.57593 0
M  V30 4313 C 415.145 0.7392 -1.81094 0
M  V30 4314 C 415.525 1.92817 -0.859344 0
M  V30 4315 O 414.873 2.28301 0.095362 0
M  V30 4316 C 415.083 1.15907 -3.29191 0
M  V30 4317 C 416.431 1.56918 -3.9454 0
M  V30 4318 O 417.455 1.25328 -3.33424 0
M  V30 4319 O 416.314 2.15604 -5.02173 0
M  V30 4320 H 413.408 0.358631 -0.745193 0
M  V30 4321 H 415.954 -0.00926156 -1.69697 0
M  V30 4322 H 414.726 0.310921 -3.90063 0
M  V30 4323 H 414.349 1.96711 -3.45529 0
M  V30 4324 N 415.346 1.54954 0.287554 0
M  V30 4325 C 416.309 1.86076 1.33823 0
M  V30 4326 C 417.309 0.734414 1.43049 0
M  V30 4327 O 418.499 1.00266 1.42452 0
M  V30 4328 C 415.631 2.05305 2.72144 0
M  V30 4329 H 416.824 2.79984 1.07465 0
M  V30 4330 H 414.377 1.47223 0.524902 0
M  V30 4331 H 415.112 1.1373 3.03704 0
M  V30 4332 H 414.897 2.873 2.66836 0
M  V30 4333 H 416.387 2.30706 3.48087 0
M  V30 4334 N 416.824 -0.551391 1.4764 0
M  V30 4335 C 418.07 -1.30789 1.55774 0
M  V30 4336 C 418.425 -1.91143 0.219562 0
M  V30 4337 O 417.718 -1.7521 -0.775375 0
M  V30 4338 C 417.912 -2.43469 2.61644 0
M  V30 4339 C 417.741 -1.94157 4.05627 0
M  V30 4340 C 416.511 -1.77734 4.7301 0
M  V30 4341 C 418.709 -1.48262 4.92466 0
M  V30 4342 N 416.691 -1.22823 6.01488 0
M  V30 4343 C 418.062 -1.05156 6.11017 0
M  V30 4344 C 420.117 -1.36367 4.78862 0
M  V30 4345 C 418.82 -0.513357 7.17466 0
M  V30 4346 C 420.846 -0.839484 5.85411 0
M  V30 4347 C 420.208 -0.418377 7.03156 0
M  V30 4348 H 416.307 -0.470406 0.624694 0
M  V30 4349 H 418.891 -0.624331 1.84419 0
M  V30 4350 H 417.062 -3.09348 2.34859 0
M  V30 4351 H 418.794 -3.10477 2.59589 0
M  V30 4352 H 415.549 -2.00623 4.29007 0
M  V30 4353 H 415.973 -0.974393 6.69951 0
M  V30 4354 H 420.615 -1.67535 3.88191 0
M  V30 4355 H 418.333 -0.189318 8.07878 0
M  V30 4356 H 421.919 -0.750921 5.76934 0
M  V30 4357 H 420.799 -0.0190538 7.84198 0
M  V30 4358 N 418.302 -1.35869 -0.798587 0
M  V30 4359 C 419.527 -1.32883 -1.59238 0
M  V30 4360 C 419.952 0.0894587 -1.87887 0
M  V30 4361 O 419.31 1.05869 -1.47178 0
M  V30 4362 C 419.358 -2.14892 -2.89575 0
M  V30 4363 O 418.462 -1.53512 -3.82763 0
M  V30 4364 H 417.803 -0.455236 -0.48338 0
M  V30 4365 H 420.333 -1.79024 -0.990539 0
M  V30 4366 H 420.343 -2.27139 -3.38928 0
M  V30 4367 H 419.018 -3.17998 -2.68049 0
M  V30 4368 H 417.595 -1.50153 -3.41334 0
M  V30 4369 N 419.78 1.02168 -1.19998 0
M  V30 4370 C 421.028 1.75338 -1.00504 0
M  V30 4371 C 421.349 1.89387 0.464506 0
M  V30 4372 O 420.619 1.43268 1.33608 0
M  V30 4373 H 419.199 0.649564 -0.368885 0
M  V30 4374 H 421.861 1.23205 -1.51018 0
M  V30 4375 H 420.957 2.75892 -1.45912 0
M  V30 4376 N 421.258 1.00505 1.21394 0
M  V30 4377 C 422.188 0.585684 2.26035 0
M  V30 4378 C 423.169 -0.393525 1.65485 0
M  V30 4379 O 424.354 -0.281497 1.92149 0
M  V30 4380 C 421.484 -0.0884283 3.47187 0
M  V30 4381 C 420.438 0.810567 4.20254 0
M  V30 4382 C 419.764 0.00286382 5.347 0
M  V30 4383 C 421.064 2.1132 4.77641 0
M  V30 4384 H 422.758 1.46039 2.61368 0
M  V30 4385 H 420.304 0.703648 1.25638 0
M  V30 4386 H 422.257 -0.393286 4.19561 0
M  V30 4387 H 420.981 -0.997766 3.10986 0
M  V30 4388 H 419.64 1.09925 3.49731 0
M  V30 4389 H 419.288 -0.907765 4.94741 0
M  V30 4390 H 418.988 0.601444 5.84514 0
M  V30 4391 H 420.512 -0.295808 6.09883 0
M  V30 4392 H 421.926 1.87148 5.41893 0
M  V30 4393 H 420.323 2.66164 5.37845 0
M  V30 4394 H 421.393 2.78393 3.9702 0
M  V30 4395 N 422.737 -1.36956 0.779787 0
M  V30 4396 C 424.153 -1.52817 0.460342 0
M  V30 4397 C 424.353 -1.7361 -1.02283 0
M  V30 4398 O 423.409 -1.76207 -1.80852 0
M  V30 4399 C 424.722 -2.71983 1.28241 0
M  V30 4400 C 426.27 -2.85849 1.27512 0
M  V30 4401 C 426.745 -4.08008 2.08072 0
M  V30 4402 N 428.236 -4.15135 2.05467 0
M  V30 4403 C 428.971 -5.08711 2.64577 0
M  V30 4404 N 428.467 -6.07792 3.32506 0
M  V30 4405 N 430.26 -5.01254 2.54363 0
M  V30 4406 H 422.411 -1.21713 1.74068 0
M  V30 4407 H 424.674 -0.593294 0.739396 0
M  V30 4408 H 424.38 -2.63109 2.33381 0
M  V30 4409 H 424.254 -3.65882 0.917088 0
M  V30 4410 H 426.641 -2.94189 0.231686 0
M  V30 4411 H 426.722 -1.92886 1.68014 0
M  V30 4412 H 426.366 -4.00429 3.12441 0
M  V30 4413 H 426.296 -5.001 1.64947 0
M  V30 4414 H 428.787 -3.44189 1.5602 0
M  V30 4415 H 429.1 -6.75739 3.74963 0
M  V30 4416 H 427.445 -6.08047 3.36606 0
M  V30 4417 H 430.636 -4.22795 2.00902 0
M  V30 4418 H 430.809 -5.73995 3.00722 0
M  V30 4419 N 424.215 -0.530993 -1.48385 0
M  V30 4420 C 425.165 0.251092 -2.26613 0
M  V30 4421 C 426.149 0.908977 -1.32765 0
M  V30 4422 O 427.341 0.811616 -1.57295 0
M  V30 4423 C 424.47 1.29677 -3.17866 0
M  V30 4424 C 423.556 0.643627 -4.19188 0
M  V30 4425 N 423.947 -0.271223 -5.05072 0
M  V30 4426 C 422.245 0.900711 -4.3681 0
M  V30 4427 C 422.946 -0.648109 -5.78078 0
M  V30 4428 N 421.922 -0.00895987 -5.43599 0
M  V30 4429 H 425.724 -0.452702 -2.90393 0
M  V30 4430 H 423.238 -0.349091 -1.58604 0
M  V30 4431 H 425.235 1.87079 -3.72568 0
M  V30 4432 H 423.895 2.00193 -2.55642 0
M  V30 4433 H 424.906 -0.643883 -5.13882 0
M  V30 4434 H 421.583 1.59636 -3.85775 0
M  V30 4435 H 422.973 -1.39833 -6.57188 0
M  V30 4436 N 425.693 1.55336 -0.266172 0
M  V30 4437 C 426.939 1.99692 0.353681 0
M  V30 4438 C 427.272 1.1543 1.56172 0
M  V30 4439 O 426.547 0.222218 1.93226 0
M  V30 4440 C 426.83 3.52316 0.74466 0
M  V30 4441 C 426.683 4.47337 -0.470101 0
M  V30 4442 C 428.002 4.10588 1.58447 0
M  V30 4443 H 425.121 0.725961 0.12708 0
M  V30 4444 H 427.763 1.86336 -0.371333 0
M  V30 4445 H 425.913 3.63829 1.36239 0
M  V30 4446 H 427.585 4.4778 -1.10864 0
M  V30 4447 H 425.828 4.19364 -1.10978 0
M  V30 4448 H 426.499 5.51788 -0.15291 0
M  V30 4449 H 428.975 4.02297 1.06286 0
M  V30 4450 H 427.851 5.17607 1.82686 0
M  V30 4451 H 428.112 3.60253 2.56262 0
M  V30 4452 N 427.171 -0.0066808 1.57599 0
M  V30 4453 C 428.417 -0.693947 1.90558 0
M  V30 4454 C 428.75 -1.73792 0.866594 0
M  V30 4455 O 428.025 -1.94156 -0.115548 0
M  V30 4456 C 428.308 -1.34317 3.34112 0
M  V30 4457 C 428.161 -0.311189 4.48722 0
M  V30 4458 C 429.48 -2.27116 3.7697 0
M  V30 4459 H 426.599 -0.250803 0.693013 0
M  V30 4460 H 429.241 0.043242 1.89951 0
M  V30 4461 H 427.391 -1.9715 3.3476 0
M  V30 4462 H 429.063 0.316944 4.6021 0
M  V30 4463 H 427.306 0.367253 4.32243 0
M  V30 4464 H 427.977 -0.804366 5.46108 0
M  V30 4465 H 430.453 -1.74306 3.77831 0
M  V30 4466 H 429.329 -2.69511 4.78179 0
M  V30 4467 H 429.59 -3.14743 3.10466 0
M  V30 4468 N 428.649 -1.55105 -0.279332 0
M  V30 4469 C 429.581 -1.83952 -1.36727 0
M  V30 4470 C 430.594 -0.723642 -1.45833 0
M  V30 4471 O 431.783 -1.00141 -1.47763 0
M  V30 4472 C 428.883 -1.98183 -2.74912 0
M  V30 4473 C 428.056 -3.28787 -2.88475 0
M  V30 4474 C 427.115 -3.33162 -4.07295 0
M  V30 4475 O 426.141 -4.06576 -3.98353 0
M  V30 4476 N 427.343 -2.60109 -5.18964 0
M  V30 4477 H 430.108 -2.77853 -1.12328 0
M  V30 4478 H 427.669 -1.54945 -0.469442 0
M  V30 4479 H 429.661 -1.98488 -3.52682 0
M  V30 4480 H 428.231 -1.11177 -2.92162 0
M  V30 4481 H 427.451 -3.41075 -1.97641 0
M  V30 4482 H 428.739 -4.14933 -2.94463 0
M  V30 4483 H 428.137 -2.00136 -5.29115 0
M  V30 4484 H 426.694 -2.66143 -5.94988 0
M  V30 4485 N 430.127 0.543554 -1.4793 0
M  V30 4486 C 431.057 1.65888 -1.64327 0
M  V30 4487 C 432.038 1.62818 -0.492383 0
M  V30 4488 O 433.223 1.80226 -0.723338 0
M  V30 4489 C 430.353 3.04506 -1.67013 0
M  V30 4490 C 429.307 3.2243 -2.81466 0
M  V30 4491 C 428.633 4.61972 -2.69233 0
M  V30 4492 C 429.933 3.06496 -4.22915 0
M  V30 4493 H 431.627 1.52421 -2.57698 0
M  V30 4494 H 429.173 0.731849 -1.24016 0
M  V30 4495 H 431.126 3.82391 -1.77074 0
M  V30 4496 H 429.85 3.18964 -0.70212 0
M  V30 4497 H 428.509 2.46957 -2.70938 0
M  V30 4498 H 428.157 4.73247 -1.7043 0
M  V30 4499 H 427.857 4.74911 -3.46025 0
M  V30 4500 H 429.381 5.41974 -2.81242 0
M  V30 4501 H 430.795 3.74186 -4.34348 0
M  V30 4502 H 429.192 3.30938 -5.006 0
M  V30 4503 H 430.262 2.03077 -4.40327 0
M  V30 4504 N 431.605 1.3629 0.791371 0
M  V30 4505 C 433.021 1.16661 1.08914 0
M  V30 4506 C 433.221 -0.0106266 2.01497 0
M  V30 4507 O 432.277 -0.676596 2.43266 0
M  V30 4508 C 433.59 2.47656 1.70549 0
M  V30 4509 C 435.138 2.54002 1.82899 0
M  V30 4510 C 435.613 3.85078 2.47949 0
M  V30 4511 N 437.104 3.86413 2.5542 0
M  V30 4512 C 437.839 4.84572 3.06557 0
M  V30 4513 N 437.335 5.93124 3.58016 0
M  V30 4514 N 439.128 4.71994 3.05251 0
M  V30 4515 H 431.279 2.11668 0.176238 0
M  V30 4516 H 433.542 0.937486 0.140796 0
M  V30 4517 H 433.248 3.34059 1.09989 0
M  V30 4518 H 433.122 2.63319 2.70079 0
M  V30 4519 H 435.509 1.68018 2.42598 0
M  V30 4520 H 435.59 2.42239 0.821808 0
M  V30 4521 H 435.234 4.71467 1.88895 0
M  V30 4522 H 435.164 3.94135 3.49235 0
M  V30 4523 H 437.655 3.07988 2.18979 0
M  V30 4524 H 437.968 6.63999 3.95381 0
M  V30 4525 H 436.313 5.96796 3.56173 0
M  V30 4526 H 439.504 3.86321 2.64336 0
M  V30 4527 H 439.677 5.48653 3.44796 0
M  V30 4528 N 433.083 -1.0153 1.20538 0
M  V30 4529 C 434.046 -2.0826 0.957098 0
M  V30 4530 C 435.046 -1.60657 -0.0678655 0
M  V30 4531 O 436.236 -1.73385 0.168332 0
M  V30 4532 C 433.368 -3.38033 0.441188 0
M  V30 4533 H 434.561 -2.31719 1.90384 0
M  V30 4534 H 432.114 -1.1835 1.02093 0
M  V30 4535 H 432.849 -3.20249 -0.510961 0
M  V30 4536 H 432.634 -3.73911 1.18038 0
M  V30 4537 H 434.124 -4.16613 0.287009 0
M  V30 4538 N 434.561 -1.01147 -1.20859 0
M  V30 4539 C 435.493 -0.535546 -2.22855 0
M  V30 4540 C 436.506 0.379323 -1.58319 0
M  V30 4541 O 437.695 0.178489 -1.77605 0
M  V30 4542 C 434.795 0.240962 -3.38042 0
M  V30 4543 C 433.968 -0.674562 -4.32167 0
M  V30 4544 C 433.027 0.053467 -5.26173 0
M  V30 4545 O 432.053 -0.567339 -5.66366 0
M  V30 4546 N 433.255 1.32997 -5.65059 0
M  V30 4547 H 436.02 -1.41268 -2.64317 0
M  V30 4548 H 433.581 -0.888386 -1.35349 0
M  V30 4549 H 435.573 0.737115 -3.97931 0
M  V30 4550 H 434.143 1.01935 -2.95513 0
M  V30 4551 H 433.363 -1.35111 -3.70322 0
M  V30 4552 H 434.651 -1.2974 -4.91981 0
M  V30 4553 H 434.049 1.85536 -5.34409 0
M  V30 4554 H 432.606 1.77095 -6.2728 0
M  V30 4555 N 436.039 1.36541 -0.78704 0
M  V30 4556 C 436.949 2.3387 -0.184896 0
M  V30 4557 C 437.965 1.60927 0.661697 0
M  V30 4558 O 439.141 1.92927 0.57804 0
M  V30 4559 C 436.206 3.40122 0.672145 0
M  V30 4560 C 435.267 4.28867 -0.19267 0
M  V30 4561 C 434.5 5.30045 0.623561 0
M  V30 4562 O 434.723 5.39232 1.8597 0
M  V30 4563 O 433.657 6.01895 0.0247068 0
M  V30 4564 H 437.483 2.87126 -0.989562 0
M  V30 4565 H 435.068 1.38969 -0.548455 0
M  V30 4566 H 436.95 4.05093 1.16094 0
M  V30 4567 H 435.625 2.89169 1.45474 0
M  V30 4568 H 434.532 3.66945 -0.728166 0
M  V30 4569 H 435.865 4.83165 -0.938722 0
M  V30 4570 N 437.518 0.538854 1.48102 0
M  V30 4571 C 438.428 -0.222648 2.33541 0
M  V30 4572 C 439.444 -0.930225 1.47047 0
M  V30 4573 O 440.62 -0.903211 1.80011 0
M  V30 4574 C 437.685 -1.25064 3.23357 0
M  V30 4575 C 436.746 -0.552469 4.2573 0
M  V30 4576 C 435.979 -1.53149 5.11254 0
M  V30 4577 O 436.202 -2.76487 4.9891 0
M  V30 4578 O 435.136 -1.06602 5.92385 0
M  V30 4579 H 438.962 0.477707 2.99919 0
M  V30 4580 H 436.547 0.299669 1.46364 0
M  V30 4581 H 438.429 -1.8445 3.78888 0
M  V30 4582 H 437.104 -1.93325 2.59629 0
M  V30 4583 H 436.011 0.082114 3.7401 0
M  V30 4584 H 437.344 0.0883526 4.92121 0
M  V30 4585 N 438.996 -1.55193 0.274407 0
M  V30 4586 C 440.243 -1.99581 -0.342579 0
M  V30 4587 C 440.571 -1.1628 -1.55914 0
M  V30 4588 O 439.826 -0.22029 -1.94456 0
M  V30 4589 C 440.125 -3.49019 -0.769458 0
M  V30 4590 C 439.791 -4.49598 0.342389 0
M  V30 4591 C 438.453 -4.76821 0.647686 0
M  V30 4592 C 440.805 -5.0964 1.09163 0
M  V30 4593 C 438.133 -5.61354 1.70581 0
M  V30 4594 C 440.485 -5.95323 2.13948 0
M  V30 4595 C 439.149 -6.20867 2.45113 0
M  V30 4596 H 438.419 -0.730319 -0.125358 0
M  V30 4597 H 441.066 -1.87529 0.387971 0
M  V30 4598 H 439.371 -3.58544 -1.57967 0
M  V30 4599 H 441.068 -3.8077 -1.25757 0
M  V30 4600 H 437.658 -4.28496 0.094318 0
M  V30 4601 H 441.842 -4.88632 0.869024 0
M  V30 4602 H 437.098 -5.79392 1.9523 0
M  V30 4603 H 441.272 -6.40881 2.72478 0
M  V30 4604 H 438.899 -6.86162 3.27239 0
M  V30 4605 N 440.474 -0.00167713 -1.576 0
M  V30 4606 C 441.722 0.681471 -1.90264 0
M  V30 4607 C 442.043 1.7422 -0.875924 0
M  V30 4608 O 441.313 1.95709 0.0864412 0
M  V30 4609 H 439.893 0.254696 -0.702239 0
M  V30 4610 H 442.555 -0.0429996 -1.94853 0
M  V30 4611 H 441.651 1.15166 -2.90075 0
M  V30 4612 N 441.952 1.55251 0.271103 0
M  V30 4613 C 442.884 1.84675 1.35749 0
M  V30 4614 C 443.897 0.731366 1.45447 0
M  V30 4615 O 445.086 1.00924 1.4723 0
M  V30 4616 C 442.186 1.99638 2.73857 0
M  V30 4617 C 441.359 3.30312 2.86727 0
M  V30 4618 C 440.418 3.35318 4.05522 0
M  V30 4619 O 439.444 4.08682 3.96191 0
M  V30 4620 N 440.646 2.62857 5.17577 0
M  V30 4621 H 443.411 2.78445 1.10853 0
M  V30 4622 H 440.972 1.55191 0.461218 0
M  V30 4623 H 442.964 2.00355 3.51625 0
M  V30 4624 H 441.534 1.12725 2.91568 0
M  V30 4625 H 440.754 3.42118 1.95829 0
M  V30 4626 H 442.042 4.16488 2.92258 0
M  V30 4627 H 441.44 2.02939 5.28046 0
M  V30 4628 H 439.997 2.69295 5.93568 0
M  V30 4629 N 443.43 -0.535701 1.48216 0
M  V30 4630 C 444.678 -1.28928 1.55634 0
M  V30 4631 C 444.999 -1.93645 0.229514 0
M  V30 4632 O 444.269 -1.81038 -0.74846 0
M  V30 4633 H 442.849 -0.47884 0.573342 0
M  V30 4634 H 445.511 -0.623853 1.84646 0
M  V30 4635 H 444.607 -2.07157 2.33436 0
M  V30 4636 N 444.908 -1.36708 -0.784132 0
M  V30 4637 C 445.818 -1.3363 -1.92822 0
M  V30 4638 C 446.834 -0.237686 -1.72369 0
M  V30 4639 O 448.01 -0.470962 -1.95816 0
M  V30 4640 C 445.075 -1.13011 -3.27764 0
M  V30 4641 C 444.136 -2.32397 -3.60957 0
M  V30 4642 C 443.369 -2.12752 -4.89461 0
M  V30 4643 O 443.592 -1.10541 -5.59586 0
M  V30 4644 O 442.526 -3.00653 -5.21432 0
M  V30 4645 H 446.352 -2.29964 -1.98369 0
M  V30 4646 H 443.937 -1.1731 -0.925136 0
M  V30 4647 H 445.819 -1.03451 -4.08504 0
M  V30 4648 H 444.494 -0.19743 -3.23097 0
M  V30 4649 H 443.401 -2.47527 -2.80502 0
M  V30 4650 H 444.734 -3.2419 -3.70354 0
M  V30 4651 N 446.386 1.0089 -1.21074 0
M  V30 4652 C 447.632 1.7497 -1.03717 0
M  V30 4653 C 447.987 1.8764 0.425344 0
M  V30 4654 O 447.28 1.39679 1.3115 0
M  V30 4655 C 447.474 3.16335 -1.66334 0
M  V30 4656 C 447.303 3.17449 -3.18522 0
M  V30 4657 C 446.073 3.2425 -3.87543 0
M  V30 4658 C 448.271 3.02877 -4.15656 0
M  V30 4659 N 446.253 3.14949 -5.26954 0
M  V30 4660 C 447.624 3.0143 -5.41793 0
M  V30 4661 C 449.679 2.8715 -4.06755 0
M  V30 4662 C 448.382 2.85869 -6.60054 0
M  V30 4663 C 450.408 2.72944 -5.24648 0
M  V30 4664 C 449.77 2.72171 -6.49694 0
M  V30 4665 H 445.869 0.650627 -0.43383 0
M  V30 4666 H 448.453 1.19944 -1.53367 0
M  V30 4667 H 446.624 3.69638 -1.19256 0
M  V30 4668 H 448.356 3.78888 -1.42219 0
M  V30 4669 H 445.111 3.31288 -3.38446 0
M  V30 4670 H 445.535 3.13651 -5.9996 0
M  V30 4671 H 450.177 2.86557 -3.10878 0
M  V30 4672 H 447.895 2.8521 -7.56096 0
M  V30 4673 H 451.481 2.61782 -5.19578 0
M  V30 4674 H 450.361 2.61307 -7.39384 0
M  V30 4675 N 447.864 1.01787 1.20321 0
M  V30 4676 C 449.089 0.727009 1.9424 0
M  V30 4677 C 449.514 -0.706179 1.74341 0
M  V30 4678 O 448.872 -1.48609 1.03852 0
M  V30 4679 C 448.92 1.06958 3.44372 0
M  V30 4680 O 448.024 0.181983 4.11998 0
M  V30 4681 H 447.365 0.269626 0.606793 0
M  V30 4682 H 449.895 1.36158 1.52716 0
M  V30 4683 H 449.905 1.02182 3.94997 0
M  V30 4684 H 448.58 2.11378 3.58179 0
M  V30 4685 H 447.157 0.287378 3.71791 0
M  V30 4686 N 449.342 -1.36122 0.79427 0
M  V30 4687 C 450.252 -2.33769 0.197296 0
M  V30 4688 C 451.268 -1.61276 -0.653153 0
M  V30 4689 O 452.444 -1.9323 -0.5678 0
M  V30 4690 C 449.509 -3.40474 -0.654098 0
M  V30 4691 C 448.57 -4.28759 0.215411 0
M  V30 4692 C 447.803 -5.30368 -0.595443 0
M  V30 4693 O 448.026 -5.40211 -1.83107 0
M  V30 4694 O 446.96 -6.019 0.00721351 0
M  V30 4695 H 450.786 -2.86597 1.00478 0
M  V30 4696 H 448.371 -1.38676 0.555818 0
M  V30 4697 H 450.253 -4.05703 -1.13944 0
M  V30 4698 H 448.928 -2.89937 -1.43938 0
M  V30 4699 H 447.835 -3.66554 0.747615 0
M  V30 4700 H 449.168 -4.82661 0.964332 0
M  V30 4701 N 450.82 -0.546701 -1.47814 0
M  V30 4702 C 452.066 -0.0269594 -2.03382 0
M  V30 4703 C 452.421 1.30406 -1.41464 0
M  V30 4704 O 451.714 1.8332 -0.557151 0
M  V30 4705 C 451.908 0.134869 -3.57145 0
M  V30 4706 C 451.737 -1.17891 -4.33972 0
M  V30 4707 C 450.507 -1.74336 -4.74273 0
M  V30 4708 C 452.705 -2.09361 -4.69758 0
M  V30 4709 N 450.687 -2.99829 -5.35701 0
M  V30 4710 C 452.058 -3.19431 -5.31379 0
M  V30 4711 C 454.113 -2.09484 -4.51687 0
M  V30 4712 C 452.816 -4.2971 -5.76838 0
M  V30 4713 C 454.842 -3.18767 -4.98138 0
M  V30 4714 C 454.204 -4.27557 -5.59799 0
M  V30 4715 H 450.303 -0.0517733 -0.780284 0
M  V30 4716 H 452.887 -0.731673 -1.80429 0
M  V30 4717 H 451.058 0.80869 -3.79888 0
M  V30 4718 H 452.79 0.655726 -3.99352 0
M  V30 4719 H 449.545 -1.28265 -4.559 0
M  V30 4720 H 449.969 -3.63765 -5.70968 0
M  V30 4721 H 454.611 -1.26663 -4.03381 0
M  V30 4722 H 452.329 -5.13297 -6.24141 0
M  V30 4723 H 455.915 -3.19937 -4.85934 0
M  V30 4724 H 454.795 -5.10725 -5.95088 0
M  V30 4725 N 452.299 1.55045 -0.282633 0
M  V30 4726 C 453.524 2.04628 0.337977 0
M  V30 4727 C 453.949 1.15937 1.48123 0
M  V30 4728 O 453.307 0.159532 1.80597 0
M  V30 4729 C 453.355 3.51854 0.78936 0
M  V30 4730 O 452.459 3.66236 1.89592 0
M  V30 4731 H 451.8 0.660434 0.0687261 0
M  V30 4732 H 454.33 2.00261 -0.419124 0
M  V30 4733 H 454.34 3.93361 1.08311 0
M  V30 4734 H 453.015 4.15873 -0.0470419 0
M  V30 4735 H 451.592 3.36633 1.60413 0
M  V30 4736 N 453.777 0.010035 1.57597 0
M  V30 4737 C 455.188 -0.531426 1.78977 0
M  V30 4738 C 455.539 -1.73375 0.918454 0
M  V30 4739 O 454.664 -2.16047 0.123635 0
M  V30 4740 C 455.259 -0.97086 3.24592 0
M  V30 4741 C 453.818 -1.45756 3.47033 0
M  V30 4742 C 452.965 -0.413384 2.74201 0
M  V30 4743 H 455.916 0.236166 1.56933 0
M  V30 4744 H 455.937 -1.83633 3.33255 0
M  V30 4745 H 455.449 -0.0955893 3.87982 0
M  V30 4746 H 453.55 -2.35339 2.88871 0
M  V30 4747 H 453.663 -1.4781 4.55729 0
M  V30 4748 H 452.027 -0.877266 2.39115 0
M  V30 4749 H 452.81 0.453092 3.40297 0
M  V30 4750 N 455.255 -1.55392 -0.262866 0
M  V30 4751 C 456.165 -1.92077 -1.34698 0
M  V30 4752 C 457.181 -0.819227 -1.53508 0
M  V30 4753 O 458.357 -1.11921 -1.67439 0
M  V30 4754 C 455.422 -2.19407 -2.68443 0
M  V30 4755 C 454.483 -3.42905 -2.58292 0
M  V30 4756 C 453.716 -3.68921 -3.85659 0
M  V30 4757 O 453.939 -2.97275 -4.8681 0
M  V30 4758 O 452.873 -4.62455 -3.85252 0
M  V30 4759 H 456.699 -2.84384 -1.06581 0
M  V30 4760 H 454.284 -1.42069 -0.462264 0
M  V30 4761 H 456.166 -2.38365 -3.47506 0
M  V30 4762 H 454.841 -1.30282 -2.96325 0
M  V30 4763 H 453.748 -3.29272 -1.7757 0
M  V30 4764 H 455.081 -4.32282 -2.35358 0
M  V30 4765 N 456.733 0.527833 -1.48498 0
M  V30 4766 C 457.696 1.61439 -1.62696 0
M  V30 4767 C 458.696 1.52824 -0.500136 0
M  V30 4768 O 459.886 1.56456 -0.765976 0
M  V30 4769 C 457.018 3.01063 -1.59918 0
M  V30 4770 H 458.211 1.50189 -2.59583 0
M  V30 4771 H 455.764 0.750055 -1.37127 0
M  V30 4772 H 456.499 3.17818 -0.645163 0
M  V30 4773 H 456.284 3.08725 -2.41726 0
M  V30 4774 H 457.774 3.80057 -1.73051 0
M  V30 4775 N 458.211 1.37122 0.776871 0
M  V30 4776 C 459.144 1.26835 1.89705 0
M  V30 4777 C 460.122 0.14992 1.61907 0
M  V30 4778 O 461.306 0.323242 1.85708 0
M  V30 4779 C 458.433 0.95986 3.24814 0
M  V30 4780 C 457.479 2.09447 3.7153 0
M  V30 4781 S 458.312 3.71368 3.85806 0
M  V30 4782 C 459.468 3.42659 5.23771 0
M  V30 4783 H 459.701 2.21647 1.98141 0
M  V30 4784 H 457.234 1.22685 0.937433 0
M  V30 4785 H 459.192 0.788696 4.02852 0
M  V30 4786 H 457.853 0.0293137 3.14086 0
M  V30 4787 H 457.046 1.8335 4.69467 0
M  V30 4788 H 456.648 2.2255 3.00578 0
M  V30 4789 H 458.94 2.9733 6.0877 0
M  V30 4790 H 459.883 4.39905 5.54878 0
M  V30 4791 H 460.291 2.77708 4.91466 0
M  V30 4792 N 459.689 -1.00246 1.21608 0
M  V30 4793 C 460.937 -1.73717 1.0328 0
M  V30 4794 C 461.258 -1.90102 -0.434318 0
M  V30 4795 O 460.528 -1.45376 -1.31311 0
M  V30 4796 H 459.108 -0.643613 0.379172 0
M  V30 4797 H 461.77 -1.20787 1.52959 0
M  V30 4798 H 460.866 -2.73535 1.50283 0
M  V30 4799 N 461.167 -1.02423 -1.1978 0
M  V30 4800 C 462.395 -0.737456 -1.93311 0
M  V30 4801 C 462.81 0.703023 -1.75223 0
M  V30 4802 O 462.167 1.47761 -1.07112 0
M  V30 4803 C 462.218 -1.0733 -3.45199 0
M  V30 4804 O 461.939 -2.4572 -3.62702 0
M  V30 4805 C 463.44 -0.80866 -4.35862 0
M  V30 4806 H 460.66 -0.2702 -0.614193 0
M  V30 4807 H 463.204 -1.36747 -1.52054 0
M  V30 4808 H 461.359 -0.488545 -3.84307 0
M  V30 4809 H 461.773 -2.58081 -4.56612 0
M  V30 4810 H 463.247 -1.09365 -5.41057 0
M  V30 4811 H 463.724 0.257025 -4.38447 0
M  V30 4812 H 464.33 -1.37592 -4.02428 0
M  V30 4813 N 462.645 1.35699 -0.801477 0
M  V30 4814 C 464.056 1.81415 -0.441073 0
M  V30 4815 C 464.407 1.66595 1.03636 0
M  V30 4816 O 463.532 1.19369 1.80499 0
M  V30 4817 C 464.127 3.29369 -0.793819 0
M  V30 4818 C 462.686 3.73248 -0.486083 0
M  V30 4819 C 461.833 2.57775 -1.02213 0
M  V30 4820 H 464.784 1.23749 -0.993572 0
M  V30 4821 H 464.805 3.80395 -0.0894158 0
M  V30 4822 H 464.317 3.40123 -1.86917 0
M  V30 4823 H 462.418 3.68046 0.580735 0
M  V30 4824 H 462.531 4.68222 -1.01513 0
M  V30 4825 H 460.895 2.50788 -0.444712 0
M  V30 4826 H 461.678 2.71309 -2.10348 0
M  V30 4827 N 464.123 0.554532 1.47522 0
M  V30 4828 C 465.369 0.0377449 2.03365 0
M  V30 4829 C 465.724 -1.29654 1.42154 0
M  V30 4830 O 465.017 -1.83022 0.566865 0
M  V30 4831 C 465.211 -0.115927 3.57212 0
M  V30 4832 C 465.04 1.20191 4.33341 0
M  V30 4833 C 463.81 1.76849 4.73342 0
M  V30 4834 C 466.008 2.11849 4.68641 0
M  V30 4835 N 463.99 3.02665 5.34104 0
M  V30 4836 C 465.361 3.22245 5.29677 0
M  V30 4837 C 467.416 2.11876 4.5057 0
M  V30 4838 C 466.119 4.32763 5.74551 0
M  V30 4839 C 468.145 3.21405 4.9644 0
M  V30 4840 C 467.507 4.30519 5.57523 0
M  V30 4841 H 463.606 0.0559107 0.779999 0
M  V30 4842 H 466.19 0.741232 1.80038 0
M  V30 4843 H 464.361 -0.788533 3.80311 0
M  V30 4844 H 466.093 -0.634538 3.99695 0
M  V30 4845 H 462.848 1.30681 4.55214 0
M  V30 4846 H 463.272 3.66788 5.69031 0
M  V30 4847 H 467.914 1.28801 4.02704 0
M  V30 4848 H 465.632 5.166 6.2141 0
M  V30 4849 H 469.218 3.22509 4.8423 0
M  V30 4850 H 468.098 5.13873 5.92371 0
M  V30 4851 N 465.601 -1.54893 0.290851 0
M  V30 4852 C 466.829 -2.04343 -0.324288 0
M  V30 4853 C 467.244 -1.16859 -1.48289 0
M  V30 4854 O 466.601 -0.192018 -1.81487 0
M  V30 4855 C 466.652 -3.52756 -0.79026 0
M  V30 4856 O 466.373 -4.36913 0.322213 0
M  V30 4857 C 467.874 -4.18161 -1.4716 0
M  V30 4858 H 465.094 -0.667135 -0.0719173 0
M  V30 4859 H 467.638 -1.99981 0.427529 0
M  V30 4860 H 465.793 -3.57511 -1.49213 0
M  V30 4861 H 466.207 -5.24486 -0.0387372 0
M  V30 4862 H 467.681 -5.23562 -1.7489 0
M  V30 4863 H 468.158 -3.67282 -2.40834 0
M  V30 4864 H 468.764 -4.17454 -0.813178 0
M  V30 4865 N 467.08 -0.0183926 -1.57589 0
M  V30 4866 C 467.99 0.982943 -2.13015 0
M  V30 4867 C 469.006 1.36443 -1.07979 0
M  V30 4868 O 470.182 1.44802 -1.3998 0
M  V30 4869 C 467.247 2.25024 -2.63752 0
M  V30 4870 C 466.308 1.93018 -3.83461 0
M  V30 4871 C 465.541 3.13706 -4.31769 0
M  V30 4872 O 465.764 4.2601 -3.79305 0
M  V30 4873 O 464.698 2.96629 -5.23732 0
M  V30 4874 H 468.524 0.541709 -2.9883 0
M  V30 4875 H 466.109 0.201565 -1.48034 0
M  V30 4876 H 467.991 2.99441 -2.96502 0
M  V30 4877 H 466.666 2.68349 -1.81026 0
M  V30 4878 H 465.573 1.16019 -3.55655 0
M  V30 4879 H 466.906 1.54516 -4.67317 0
M  V30 4880 N 468.558 1.5553 0.254621 0
M  V30 4881 C 469.783 1.81383 1.00573 0
M  V30 4882 C 470.208 0.594419 1.78461 0
M  V30 4883 O 469.566 -0.456403 1.75461 0
M  V30 4884 C 469.614 3.04892 1.92545 0
M  V30 4885 O 468.718 2.81266 3.01601 0
M  V30 4886 H 468.059 0.598969 0.286587 0
M  V30 4887 H 470.589 2.02703 0.277952 0
M  V30 4888 H 470.599 3.34119 2.34155 0
M  V30 4889 H 469.274 3.93287 1.3527 0
M  V30 4890 H 467.851 2.63185 2.64174 0
M  V30 4891 N 470.036 -0.519951 1.48776 0
M  V30 4892 C 471.452 -0.849418 1.35119 0
M  V30 4893 C 471.652 -1.98077 0.36982 0
M  V30 4894 O 470.708 -2.51664 -0.205359 0
M  V30 4895 C 472.021 -1.20748 2.75391 0
M  V30 4896 C 473.569 -1.31679 2.83954 0
M  V30 4897 C 474.044 -1.70824 4.24951 0
M  V30 4898 N 475.535 -1.77908 4.27672 0
M  V30 4899 C 476.27 -2.09603 5.33717 0
M  V30 4900 N 475.766 -2.39652 6.5003 0
M  V30 4901 N 477.559 -2.10694 5.21119 0
M  V30 4902 H 469.71 0.226377 2.1119 0
M  V30 4903 H 471.973 0.0386519 0.947212 0
M  V30 4904 H 471.679 -0.449703 3.48813 0
M  V30 4905 H 471.553 -2.15534 3.09556 0
M  V30 4906 H 473.94 -2.06532 2.10781 0
M  V30 4907 H 474.021 -0.3499 2.53396 0
M  V30 4908 H 473.665 -0.965282 4.98643 0
M  V30 4909 H 473.595 -2.6858 4.52959 0
M  V30 4910 H 476.086 -1.56923 3.43779 0
M  V30 4911 H 476.399 -2.6297 7.26682 0
M  V30 4912 H 474.744 -2.37149 6.53288 0
M  V30 4913 H 477.935 -1.86682 4.29264 0
M  V30 4914 H 478.108 -2.35062 6.03863 0
M  V30 4915 N 471.514 -1.37532 -0.769588 0
M  V30 4916 C 472.739 -1.36231 -1.56384 0
M  V30 4917 C 473.164 0.0495849 -1.88035 0
M  V30 4918 O 472.522 1.02723 -1.49391 0
M  V30 4919 C 472.57 -2.20986 -2.84952 0
M  V30 4920 O 471.674 -1.61597 -3.79421 0
M  V30 4921 H 471.015 -0.465387 -0.473615 0
M  V30 4922 H 473.545 -1.81085 -0.952342 0
M  V30 4923 H 473.555 -2.34277 -3.34034 0
M  V30 4924 H 472.23 -3.23612 -2.61243 0
M  V30 4925 H 470.807 -1.57359 -3.38072 0
M  V30 4926 N 472.992 0.995999 -1.22138 0
M  V30 4927 C 474.403 1.54961 -1.04135 0
M  V30 4928 C 474.754 1.92159 0.396147 0
M  V30 4929 O 473.879 1.74435 1.28069 0
M  V30 4930 C 474.474 2.81581 -1.88408 0
M  V30 4931 C 473.033 3.33396 -1.74712 0
M  V30 4932 C 472.18 2.06509 -1.85066 0
M  V30 4933 H 475.131 0.817436 -1.36028 0
M  V30 4934 H 475.152 3.53822 -1.39966 0
M  V30 4935 H 474.664 2.54476 -2.93025 0
M  V30 4936 H 472.765 3.65416 -0.728159 0
M  V30 4937 H 472.878 4.04208 -2.57202 0
M  V30 4938 H 471.242 2.19925 -1.28472 0
M  V30 4939 H 472.025 1.81804 -2.91208 0
M  V30 4940 N 474.47 1.03057 1.19235 0
M  V30 4941 C 475.881 0.757449 1.70645 0
M  V30 4942 C 476.232 -0.722735 1.82403 0
M  V30 4943 O 475.357 -1.56325 1.49638 0
M  V30 4944 C 475.952 1.36833 3.09939 0
M  V30 4945 C 474.511 1.14375 3.58602 0
M  V30 4946 C 473.658 1.46533 2.35422 0
M  V30 4947 H 476.609 1.19828 1.04052 0
M  V30 4948 H 476.63 0.766184 3.72706 0
M  V30 4949 H 476.142 2.44562 3.01349 0
M  V30 4950 H 474.243 0.0847542 3.72504 0
M  V30 4951 H 474.356 1.83366 4.42622 0
M  V30 4952 H 472.72 0.884712 2.38841 0
M  V30 4953 H 473.503 2.55349 2.2946 0
M  V30 4954 N 475.948 -1.35272 0.808662 0
M  V30 4955 C 476.911 -2.28082 0.226093 0
M  V30 4956 C 477.911 -1.49673 -0.587762 0
M  V30 4957 O 479.101 -1.69404 -0.405943 0
M  V30 4958 C 476.233 -3.33955 -0.684596 0
M  V30 4959 H 477.426 -2.81116 1.04469 0
M  V30 4960 H 474.979 -1.45162 0.579466 0
M  V30 4961 H 475.714 -2.86111 -1.5268 0
M  V30 4962 H 475.499 -3.91965 -0.102699 0
M  V30 4963 H 476.989 -4.03219 -1.08646 0
M  V30 4964 N 477.426 -0.562348 -1.47226 0
M  V30 4965 C 478.336 0.185466 -2.33866 0
M  V30 4966 C 479.352 0.906713 -1.48508 0
M  V30 4967 O 480.528 0.874458 -1.81425 0
M  V30 4968 C 477.593 1.19904 -3.25306 0
M  V30 4969 C 476.654 0.484669 -4.26555 0
M  V30 4970 C 475.887 1.44996 -5.13626 0
M  V30 4971 O 476.11 2.68515 -5.03245 0
M  V30 4972 O 475.044 0.971642 -5.94006 0
M  V30 4973 H 478.87 -0.525361 -2.99121 0
M  V30 4974 H 476.455 -0.322916 -1.45868 0
M  V30 4975 H 478.337 1.78399 -3.81774 0
M  V30 4976 H 477.012 1.8917 -2.62672 0
M  V30 4977 H 475.919 -0.141605 -3.73832 0
M  V30 4978 H 477.252 -0.166634 -4.91918 0
M  V30 4979 N 478.904 1.54736 -0.299062 0
M  V30 4980 C 479.852 2.24897 0.593658 0
M  V30 4981 C 480.846 1.25429 1.13859 0
M  V30 4982 O 482.052 1.43286 1.08945 0
M  V30 4983 H 478.427 0.72207 0.210046 0
M  V30 4984 H 480.398 2.98393 -0.0206421 0
M  V30 4985 C 479.147 3.00159 1.75499 0
M  V30 4986 H 478.47 3.76501 1.34489 0
M  V30 4987 H 479.91 3.52535 2.35574 0
M  V30 4988 C 478.369 2.07015 2.65794 0
M  V30 4989 O 478.899 1.63692 3.66835 0
M  V30 4990 N 477.105 1.73012 2.33485 0
M  V30 4991 H 476.652 2.08439 1.51364 0
M  V30 4992 H 476.61 1.10965 2.94167 0
M  V30 4993 N 480.382 0.0267497 1.57577 0
M  V30 4994 C 481.292 -0.971633 2.13533 0
M  V30 4995 C 482.308 -1.35868 1.08701 0
M  V30 4996 O 483.484 -1.44058 1.40746 0
M  V30 4997 C 480.549 -2.23622 2.64941 0
M  V30 4998 C 479.61 -1.90982 3.8448 0
M  V30 4999 C 478.843 -3.11411 4.33427 0
M  V30 5000 O 479.066 -4.23992 3.81558 0
M  V30 5001 O 478 -2.93848 5.25297 0
M  V30 5002 H 481.826 -0.525853 2.99113 0
M  V30 5003 H 479.411 -0.193712 1.48139 0
M  V30 5004 H 481.293 -2.97864 2.98086 0
M  V30 5005 H 479.968 -2.67386 1.82446 0
M  V30 5006 H 478.875 -1.14132 3.56265 0
M  V30 5007 H 480.208 -1.52036 4.6813 0
M  V30 5008 N 481.861 -1.55662 -0.24637 0
M  V30 5009 C 483.107 -1.77782 -0.975779 0
M  V30 5010 C 483.44 -0.592103 -1.84953 0
M  V30 5011 O 482.715 0.409588 -1.90138 0
M  V30 5012 C 482.998 -3.09788 -1.83584 0
M  V30 5013 C 482.851 -4.38764 -0.990241 0
M  V30 5014 C 484.17 -3.38029 -2.81823 0
M  V30 5015 H 481.289 -0.646789 -0.353317 0
M  V30 5016 H 483.931 -1.88398 -0.246248 0
M  V30 5017 H 482.081 -3.00869 -2.45784 0
M  V30 5018 H 483.753 -4.59675 -0.386897 0
M  V30 5019 H 481.996 -4.32798 -0.294626 0
M  V30 5020 H 482.667 -5.27514 -1.62584 0
M  V30 5021 H 485.143 -3.46915 -2.2976 0
M  V30 5022 H 484.019 -4.3161 -3.39122 0
M  V30 5023 H 484.28 -2.58968 -3.58313 0
M  V30 5024 N 483.339 0.512053 -1.4905 0
M  V30 5025 C 484.564 1.2959 -1.6193 0
M  V30 5026 C 484.989 1.85906 -0.286454 0
M  V30 5027 O 484.347 1.65312 0.744426 0
M  V30 5028 C 484.395 2.40987 -2.68249 0
M  V30 5029 O 483.499 3.44531 -2.26654 0
M  V30 5030 H 482.84 0.383053 -0.542371 0
M  V30 5031 H 485.37 0.614231 -1.95162 0
M  V30 5032 H 485.38 2.86913 -2.90078 0
M  V30 5033 H 484.055 1.99361 -3.65004 0
M  V30 5034 H 482.632 3.046 -2.15112 0
M  V30 5035 N 484.817 1.37938 0.762283 0
M  V30 5036 C 486.045 1.36883 1.55147 0
M  V30 5037 C 486.46 -0.0435348 1.8875 0
M  V30 5038 O 485.817 -1.00786 1.52146 0
M  V30 5039 C 485.868 2.21624 2.85596 0
M  V30 5040 O 485.589 3.57358 2.5343 0
M  V30 5041 C 487.09 2.28653 3.7978 0
M  V30 5042 H 484.31 0.468521 0.480343 0
M  V30 5043 H 486.854 1.81404 0.944079 0
M  V30 5044 H 485.009 1.80588 3.42734 0
M  V30 5045 H 485.423 4.01883 3.37032 0
M  V30 5046 H 486.897 2.9225 4.68288 0
M  V30 5047 H 487.374 1.29767 4.19592 0
M  V30 5048 H 487.98 2.70043 3.28568 0
M  V30 5049 N 486.295 -0.989507 1.22664 0
M  V30 5050 C 487.706 -1.54406 1.04955 0
M  V30 5051 C 488.057 -1.92366 -0.385951 0
M  V30 5052 O 487.182 -1.75111 -1.27142 0
M  V30 5053 C 487.777 -2.80578 1.89899 0
M  V30 5054 C 486.336 -3.32464 1.76478 0
M  V30 5055 C 485.483 -2.05524 1.86159 0
M  V30 5056 H 488.434 -0.810211 1.3646 0
M  V30 5057 H 488.455 -3.53075 1.4184 0
M  V30 5058 H 487.967 -2.52918 2.94371 0
M  V30 5059 H 486.068 -3.65024 0.747528 0
M  V30 5060 H 486.181 -4.02838 2.59342 0
M  V30 5061 H 484.545 -2.19241 1.29636 0
M  V30 5062 H 485.328 -1.80258 2.92168 0
M  V30 5063 N 487.773 -1.03688 -1.18687 0
M  V30 5064 C 488.706 -0.569112 -2.2099 0
M  V30 5065 C 489.684 0.394315 -1.57746 0
M  V30 5066 O 490.868 0.309519 -1.85941 0
M  V30 5067 C 487.995 0.169104 -3.38278 0
M  V30 5068 C 487.041 -0.746989 -4.19908 0
M  V30 5069 S 487.874 -2.22773 -4.86963 0
M  V30 5070 C 489.03 -1.50025 -6.07654 0
M  V30 5071 H 489.263 -1.43589 -2.60326 0
M  V30 5072 H 486.796 -0.847507 -1.29061 0
M  V30 5073 H 488.754 0.588868 -4.06254 0
M  V30 5074 H 487.415 1.01172 -2.9736 0
M  V30 5075 H 486.608 -0.176626 -5.0369 0
M  V30 5076 H 486.21 -1.10543 -3.5729 0
M  V30 5077 H 488.502 -0.791217 -6.72864 0
M  V30 5078 H 489.445 -2.31498 -6.69189 0
M  V30 5079 H 489.853 -0.994245 -5.55675 0
M  V30 5080 N 489.251 1.34841 -0.815825 0
M  V30 5081 C 490.183 2.28409 -0.190265 0
M  V30 5082 C 491.196 1.50705 0.615771 0
M  V30 5083 O 492.385 1.72822 0.446616 0
M  V30 5084 C 489.485 3.30441 0.752446 0
M  V30 5085 C 488.658 4.37399 -0.00922152 0
M  V30 5086 C 487.717 5.19234 0.853351 0
M  V30 5087 O 486.743 5.68404 0.300919 0
M  V30 5088 N 487.945 5.38248 2.17416 0
M  V30 5089 H 490.71 2.82732 -0.994114 0
M  V30 5090 H 488.271 1.47289 -0.672129 0
M  V30 5091 H 490.263 3.82084 1.33394 0
M  V30 5092 H 488.833 2.76565 1.45707 0
M  V30 5093 H 488.053 3.86567 -0.771979 0
M  V30 5094 H 489.341 5.05992 -0.533807 0
M  V30 5095 H 488.739 4.99961 2.6468 0
M  V30 5096 H 487.296 5.93035 2.70467 0
M  V30 5097 N 490.729 0.570148 1.46925 0
M  V30 5098 C 491.692 -0.159933 2.28641 0
M  V30 5099 C 492.692 -0.830638 1.37685 0
M  V30 5100 O 493.882 -0.684516 1.60187 0
M  V30 5101 C 491.014 -1.2354 3.17727 0
M  V30 5102 H 492.207 0.558035 2.94662 0
M  V30 5103 H 489.76 0.327603 1.52828 0
M  V30 5104 H 490.495 -1.98535 2.56426 0
M  V30 5105 H 490.28 -0.759125 3.84681 0
M  V30 5106 H 491.77 -1.74782 3.79264 0
M  V30 5107 N 492.207 -1.54576 0.307264 0
M  V30 5108 C 493.137 -2.26708 -0.55907 0
M  V30 5109 C 494.118 -1.26893 -1.1328 0
M  V30 5110 O 495.303 -1.55677 -1.16097 0
M  V30 5111 C 492.433 -3.01259 -1.72801 0
M  V30 5112 C 491.387 -4.08275 -1.28435 0
M  V30 5113 C 490.713 -4.70575 -2.53895 0
M  V30 5114 C 492.013 -5.2068 -0.411038 0
M  V30 5115 H 493.707 -2.9937 0.042576 0
M  V30 5116 H 491.253 -1.43983 0.0219173 0
M  V30 5117 H 493.206 -3.50444 -2.34023 0
M  V30 5118 H 491.93 -2.26187 -2.356 0
M  V30 5119 H 490.589 -3.59949 -0.695161 0
M  V30 5120 H 490.237 -3.92136 -3.15021 0
M  V30 5121 H 489.937 -5.42854 -2.24908 0
M  V30 5122 H 491.461 -5.22527 -3.15908 0
M  V30 5123 H 492.875 -5.65721 -0.929097 0
M  V30 5124 H 491.272 -5.99716 -0.214664 0
M  V30 5125 H 492.342 -4.81629 0.562287 0
M  V30 5126 N 493.685 -0.035106 -1.57561 0
M  V30 5127 C 494.913 0.652258 -1.9635 0
M  V30 5128 C 495.328 1.65317 -0.911897 0
M  V30 5129 O 494.685 1.82194 0.105657 0
M  V30 5130 C 494.736 1.35337 -3.35211 0
M  V30 5131 O 494.457 0.392548 -4.36338 0
M  V30 5132 C 495.958 2.13199 -3.88666 0
M  V30 5133 H 493.178 0.179444 -0.646561 0
M  V30 5134 H 495.722 -0.0966459 -2.04271 0
M  V30 5135 H 493.877 2.05362 -3.28489 0
M  V30 5136 H 494.291 0.891097 -5.16875 0
M  V30 5137 H 495.765 2.577 -4.88154 0
M  V30 5138 H 496.242 2.97353 -3.23231 0
M  V30 5139 H 496.848 1.48118 -3.98674 0
M  V30 5140 N 495.163 1.55791 0.238111 0
M  V30 5141 C 496.391 1.82098 0.982233 0
M  V30 5142 C 496.806 0.612025 1.78605 0
M  V30 5143 O 496.163 -0.419381 1.77616 0
M  V30 5144 C 496.214 3.0673 1.91309 0
M  V30 5145 O 495.935 4.2296 1.14179 0
M  V30 5146 C 497.436 3.45903 2.77248 0
M  V30 5147 H 494.656 0.605748 0.288635 0
M  V30 5148 H 497.2 2.02862 0.258341 0
M  V30 5149 H 495.355 2.87991 2.59114 0
M  V30 5150 H 495.769 4.93653 1.7722 0
M  V30 5151 H 497.243 4.36189 3.38295 0
M  V30 5152 H 497.72 2.66891 3.48806 0
M  V30 5153 H 498.326 3.67024 2.14881 0
M  V30 5154 N 496.642 -0.504142 1.49319 0
M  V30 5155 C 497.59 -1.62689 1.66238 0
M  V30 5156 C 498.584 -1.6095 0.528349 0
M  V30 5157 O 499.79 -1.65496 0.707887 0
M  V30 5158 H 496.165 -0.539247 0.524134 0
M  V30 5159 H 498.136 -1.45571 2.60484 0
M  V30 5160 C 496.885 -3.00841 1.74328 0
M  V30 5161 H 496.208 -3.02884 2.60963 0
M  V30 5162 H 497.648 -3.78945 1.90202 0
M  V30 5163 C 496.107 -3.33355 0.487416 0
M  V30 5164 O 496.637 -3.99819 -0.388294 0
M  V30 5165 N 494.843 -2.88469 0.351306 0
M  V30 5166 H 494.39 -2.34557 1.06492 0
M  V30 5167 H 494.348 -3.10591 -0.487899 0
M  V30 5168 N 498.12 -1.38341 -0.754957 0
M  V30 5169 C 499.067 -1.3546 -1.86867 0
M  V30 5170 C 500.037 -0.217369 -1.64672 0
M  V30 5171 O 501.222 -0.409383 -1.86356 0
M  V30 5172 C 498.362 -1.18413 -3.24149 0
M  V30 5173 C 497.475 -2.41511 -3.58185 0
M  V30 5174 C 496.61 -2.17205 -4.84763 0
M  V30 5175 C 495.649 -3.36081 -5.11582 0
M  V30 5176 N 494.786 -3.11219 -6.29354 0
M  V30 5177 H 499.626 -2.30672 -1.88664 0
M  V30 5178 H 497.163 -1.14607 -0.922154 0
M  V30 5179 H 499.121 -1.06545 -4.03366 0
M  V30 5180 H 497.751 -0.268397 -3.21682 0
M  V30 5181 H 496.803 -2.64056 -2.73822 0
M  V30 5182 H 498.115 -3.30115 -3.73932 0
M  V30 5183 H 497.269 -2.02465 -5.7192 0
M  V30 5184 H 496.008 -1.25964 -4.71152 0
M  V30 5185 H 495.013 -3.51341 -4.22894 0
M  V30 5186 H 496.238 -4.28196 -5.27091 0
M  V30 5187 H 494.184 -2.22624 -6.17069 0
M  V30 5188 H 494.101 -3.93373 -6.45596 0
M  V30 5189 H 495.369 -3.00132 -7.19403 0
M  V30 5190 N 499.598 0.982988 -1.23187 0
M  V30 5191 C 500.875 1.69814 -0.970707 0
M  V30 5192 C 501.255 2.04811 0.511424 0
M  V30 5193 O 500.603 1.73924 1.48198 0
M  V30 5194 C 500.813 2.94143 -1.87831 0
M  V30 5195 C 502.161 3.66712 -2.14026 0
M  V30 5196 O 503.185 3.04171 -1.8536 0
M  V30 5197 O 502.044 4.79258 -2.62629 0
M  V30 5198 H 499.138 0.741659 -0.365884 0
M  V30 5199 H 501.684 1.03844 -1.34218 0
M  V30 5200 H 500.456 2.64858 -2.88038 0
M  V30 5201 H 500.079 3.6785 -1.50905 0
M  V30 5202 N 501.076 1.04316 1.18135 0
M  V30 5203 C 502.353 0.662166 1.84051 0
M  V30 5204 C 502.733 -0.858169 1.9287 0
M  V30 5205 O 502.081 -1.76062 1.45652 0
M  V30 5206 C 502.291 1.3409 3.22212 0
M  V30 5207 C 503.639 1.4733 3.9822 0
M  V30 5208 O 504.663 1.29921 3.31661 0
M  V30 5209 O 503.522 1.75722 5.17479 0
M  V30 5210 H 500.616 0.232005 0.79379 0
M  V30 5211 H 503.162 1.1422 1.25506 0
M  V30 5212 H 501.934 2.37853 3.10711 0
M  V30 5213 H 501.557 0.849649 3.88416 0
M  V30 5214 N 502.554 -1.34406 0.822964 0
M  V30 5215 C 503.831 -1.92733 0.333641 0
M  V30 5216 C 504.211 -1.75107 -1.17901 0
M  V30 5217 O 503.559 -1.12983 -1.98613 0
M  V30 5218 C 503.769 -3.40557 0.763023 0
M  V30 5219 C 505.117 -4.17709 0.761879 0
M  V30 5220 O 506.141 -3.49141 0.705606 0
M  V30 5221 O 505 -5.40082 0.835109 0
M  V30 5222 H 502.094 -0.821964 0.0911249 0
M  V30 5223 H 504.64 -1.4338 0.907757 0
M  V30 5224 H 503.412 -3.47187 1.8049 0
M  V30 5225 H 503.035 -3.97259 0.164605 0
M  V30 5226 N 504.032 -0.577932 -1.46621 0
M  V30 5227 C 504.98 0.170882 -2.31971 0
M  V30 5228 C 505.974 0.889086 -1.44193 0
M  V30 5229 O 507.18 0.808017 -1.60845 0
M  V30 5230 H 503.555 0.0739763 -0.748353 0
M  V30 5231 H 505.526 -0.567856 -2.92947 0
M  V30 5232 C 504.275 1.17438 -3.27267 0
M  V30 5233 H 503.598 0.63116 -3.94787 0
M  V30 5234 H 505.038 1.66882 -3.89778 0
M  V30 5235 C 503.497 2.23292 -2.52274 0
M  V30 5236 O 504.027 3.30567 -2.28229 0
M  V30 5237 N 502.233 1.97772 -2.12919 0
M  V30 5238 H 501.78 1.10545 -2.32675 0
M  V30 5239 H 501.738 2.68809 -1.63062 0
M  V30 5240 N 505.51 1.54411 -0.315457 0
M  V30 5241 C 506.759 1.99599 0.290395 0
M  V30 5242 C 507.072 1.20746 1.53882 0
M  V30 5243 O 508.278 1.56272 2.22017 0
M  V30 5244 C 506.734 3.5539 0.56797 0
M  V30 5245 C 506.342 4.43068 -0.662945 0
M  V30 5246 C 508.086 4.09067 1.13422 0
M  V30 5247 C 505.993 5.90317 -0.357722 0
M  V30 5248 H 504.923 0.745592 0.112286 0
M  V30 5249 H 507.574 1.78477 -0.426418 0
M  V30 5250 H 505.956 3.72468 1.34476 0
M  V30 5251 H 507.13 4.37765 -1.43869 0
M  V30 5252 H 505.445 4.00238 -1.14884 0
M  V30 5253 H 508.042 5.16663 1.37707 0
M  V30 5254 H 508.385 3.60552 2.08106 0
M  V30 5255 H 508.918 3.95589 0.418805 0
M  V30 5256 H 505.657 6.4301 -1.27351 0
M  V30 5257 H 505.177 5.98592 0.380472 0
M  V30 5258 H 506.856 6.4699 0.0354284 0
M  V30 5259 N 506.988 0.0434614 1.5754 0
M  V30 5260 C 507.918 -0.931651 2.14109 0
M  V30 5261 C 508.899 -1.32971 1.06079 0
M  V30 5262 O 510.084 -1.40579 1.33982 0
M  V30 5263 C 507.214 -2.20914 2.67982 0
M  V30 5264 C 506.168 -1.95139 3.80926 0
M  V30 5265 C 505.494 -3.29276 4.21285 0
M  V30 5266 C 506.794 -1.27913 5.06395 0
M  V30 5267 H 508.488 -0.460497 2.95837 0
M  V30 5268 H 506.034 -0.220058 1.42309 0
M  V30 5269 H 507.987 -2.89522 3.06194 0
M  V30 5270 H 506.711 -2.70221 1.83434 0
M  V30 5271 H 505.37 -1.28945 3.43175 0
M  V30 5272 H 505.018 -3.76369 3.33699 0
M  V30 5273 H 504.718 -3.12831 4.97404 0
M  V30 5274 H 506.242 -3.99129 4.62091 0
M  V30 5275 H 507.656 -1.86544 5.42102 0
M  V30 5276 H 506.053 -1.2182 5.87605 0
M  V30 5277 H 507.123 -0.254066 4.84234 0
M  V30 5278 N 508.466 -1.55915 -0.229846 0
M  V30 5279 C 509.713 -1.78542 -0.955452 0
M  V30 5280 C 510.041 -0.610785 -1.84661 0
M  V30 5281 O 509.296 0.405213 -1.91459 0
M  V30 5282 C 509.595 -3.06845 -1.8325 0
M  V30 5283 C 509.261 -4.37395 -1.09528 0
M  V30 5284 C 507.923 -4.72868 -0.891598 0
M  V30 5285 C 510.275 -5.18029 -0.574046 0
M  V30 5286 C 507.603 -5.86496 -0.154655 0
M  V30 5287 C 509.955 -6.32423 0.149513 0
M  V30 5288 C 508.619 -6.66504 0.364519 0
M  V30 5289 H 507.889 -0.653333 -0.349625 0
M  V30 5290 H 510.536 -1.90183 -0.224235 0
M  V30 5291 H 508.841 -2.90291 -2.63132 0
M  V30 5292 H 510.538 -3.21553 -2.39592 0
M  V30 5293 H 507.128 -4.09538 -1.26399 0
M  V30 5294 H 511.312 -4.91066 -0.718899 0
M  V30 5295 H 506.568 -6.11396 0.0222356 0
M  V30 5296 H 510.742 -6.94137 0.560947 0
M  V30 5297 H 508.369 -7.54397 0.937495 0
M  V30 5298 N 509.944 0.496216 -1.49584 0
M  V30 5299 C 511.36 0.827814 -1.36453 0
M  V30 5300 C 511.56 1.97464 -0.401285 0
M  V30 5301 O 510.616 2.51958 0.165296 0
M  V30 5302 C 511.929 1.16352 -2.77277 0
M  V30 5303 C 513.477 1.27145 -2.86013 0
M  V30 5304 C 513.952 1.64042 -4.27615 0
M  V30 5305 N 515.443 1.71082 -4.30448 0
M  V30 5306 C 516.178 2.01085 -5.36984 0
M  V30 5307 N 515.674 2.2928 -6.5376 0
M  V30 5308 N 517.467 2.02376 -5.24405 0
M  V30 5309 H 509.618 -0.259947 -2.10803 0
M  V30 5310 H 511.881 -0.0537163 -0.946477 0
M  V30 5311 H 511.587 0.394153 -3.49484 0
M  V30 5312 H 511.461 2.10582 -3.12946 0
M  V30 5313 H 513.848 2.03152 -2.1404 0
M  V30 5314 H 513.929 0.309542 -2.5392 0
M  V30 5315 H 513.573 0.88583 -5.00115 0
M  V30 5316 H 513.503 2.6134 -4.57175 0
M  V30 5317 H 515.994 1.51434 -3.46232 0
M  V30 5318 H 516.307 2.51376 -7.30774 0
M  V30 5319 H 514.652 2.26726 -6.56978 0
M  V30 5320 H 517.843 1.79829 -4.32179 0
M  V30 5321 H 518.016 2.25425 -6.07526 0
M  V30 5322 N 511.423 1.38739 0.74761 0
M  V30 5323 C 512.7 1.25791 1.49786 0
M  V30 5324 C 513.08 -0.138075 2.10648 0
M  V30 5325 O 512.428 -1.14815 1.9756 0
M  V30 5326 C 512.638 2.37265 2.55942 0
M  V30 5327 C 513.986 2.75978 3.22679 0
M  V30 5328 O 515.01 2.36621 2.6625 0
M  V30 5329 O 513.869 3.43867 4.24756 0
M  V30 5330 H 510.963 0.492251 0.664543 0
M  V30 5331 H 513.509 1.50582 0.782511 0
M  V30 5332 H 512.281 3.30644 2.0926 0
M  V30 5333 H 511.904 2.14071 3.35051 0
M  V30 5334 N 512.901 -0.976442 1.23707 0
M  V30 5335 C 514.126 -1.75875 1.09922 0
M  V30 5336 C 514.551 -1.84911 -0.34489 0
M  V30 5337 O 513.909 -1.31363 -1.24954 0
M  V30 5338 C 513.957 -3.16179 1.73388 0
M  V30 5339 O 513.061 -4.00124 0.99871 0
M  V30 5340 H 512.402 -0.540954 0.385052 0
M  V30 5341 H 514.932 -1.22546 1.6384 0
M  V30 5342 H 514.942 -3.66741 1.78788 0
M  V30 5343 H 513.617 -3.08917 2.78466 0
M  V30 5344 H 512.194 -3.58624 1.02193 0
M  V30 5345 N 514.379 -1.04941 -1.1758 0
M  V30 5346 C 515.342 -0.652456 -2.19717 0
M  V30 5347 C 516.342 0.294745 -1.58076 0
M  V30 5348 O 517.532 0.0789579 -1.74021 0
M  V30 5349 C 514.664 0.0420712 -3.40874 0
M  V30 5350 H 515.857 -1.55642 -2.5635 0
M  V30 5351 H 513.41 -0.842995 -1.31618 0
M  V30 5352 H 514.145 0.95943 -3.09783 0
M  V30 5353 H 513.93 -0.638844 -3.86861 0
M  V30 5354 H 515.42 0.306 -4.16477 0
M  V30 5355 N 515.857 1.33968 -0.830081 0
M  V30 5356 C 516.805 2.31301 -0.245435 0
M  V30 5357 C 517.799 1.57734 0.617762 0
M  V30 5358 O 519.005 1.72674 0.508303 0
M  V30 5359 H 515.38 0.749552 -0.0606316 0
M  V30 5360 H 517.351 2.78129 -1.08105 0
M  V30 5361 C 516.1 3.42961 0.572084 0
M  V30 5362 H 515.423 3.99714 -0.0828118 0
M  V30 5363 H 516.863 4.13286 0.94715 0
M  V30 5364 C 515.322 2.88043 1.74737 0
M  V30 5365 O 515.852 2.83508 2.8458 0
M  V30 5366 N 514.058 2.44768 1.56642 0
M  V30 5367 H 513.605 2.48656 0.672901 0
M  V30 5368 H 513.563 2.08375 2.3543 0
M  V30 5369 N 517.335 0.585699 1.46312 0
M  V30 5370 C 518.298 -0.135673 2.28798 0
M  V30 5371 C 519.298 -0.815988 1.38558 0
M  V30 5372 O 520.488 -0.667487 1.60904 0
M  V30 5373 C 517.62 -1.20163 3.1902 0
M  V30 5374 H 518.813 0.589257 2.94054 0
M  V30 5375 H 516.366 0.343794 1.52472 0
M  V30 5376 H 517.101 -1.95804 2.58517 0
M  V30 5377 H 516.886 -0.718282 3.85465 0
M  V30 5378 H 518.376 -1.70749 3.81096 0
M  V30 5379 N 518.813 -1.54241 0.323641 0
M  V30 5380 C 520.041 -2.04985 -0.280871 0
M  V30 5381 C 520.456 -1.19978 -1.45777 0
M  V30 5382 O 519.813 -0.230471 -1.81039 0
M  V30 5383 C 519.864 -3.54353 -0.715258 0
M  V30 5384 O 519.585 -4.36132 0.414817 0
M  V30 5385 C 521.086 -4.21189 -1.38257 0
M  V30 5386 H 518.306 -0.66851 -0.0577502 0
M  V30 5387 H 520.85 -1.99029 0.469852 0
M  V30 5388 H 519.005 -3.60596 -1.41596 0
M  V30 5389 H 519.419 -5.2445 0.0725227 0
M  V30 5390 H 520.893 -5.27154 -1.63745 0
M  V30 5391 H 521.37 -3.72307 -2.32989 0
M  V30 5392 H 521.976 -4.19085 -0.724447 0
M  V30 5393 N 520.291 -0.0518155 -1.57515 0
M  V30 5394 C 521.516 0.634896 -1.97443 0
M  V30 5395 C 521.941 1.63546 -0.929207 0
M  V30 5396 O 521.299 1.80981 0.107484 0
M  V30 5397 C 521.347 1.29765 -3.36442 0
M  V30 5398 O 520.451 2.41333 -3.34413 0
M  V30 5399 H 519.792 0.164994 -0.643174 0
M  V30 5400 H 522.322 -0.120407 -2.04245 0
M  V30 5401 H 522.332 1.64918 -3.73184 0
M  V30 5402 H 521.007 0.564361 -4.12053 0
M  V30 5403 H 519.584 2.08122 -3.09418 0
M  V30 5404 N 521.769 1.56035 0.221574 0
M  V30 5405 C 522.699 1.95434 1.2778 0
M  V30 5406 C 523.68 0.822564 1.48889 0
M  V30 5407 O 524.865 1.08486 1.61072 0
M  V30 5408 C 521.995 2.27102 2.62759 0
M  V30 5409 C 520.949 3.4277 2.56306 0
M  V30 5410 C 520.275 3.60043 3.95314 0
M  V30 5411 C 521.575 4.77742 2.11093 0
M  V30 5412 H 523.269 2.83912 0.950504 0
M  V30 5413 H 520.815 1.36596 0.455791 0
M  V30 5414 H 522.768 2.53256 3.36807 0
M  V30 5415 H 521.492 1.35478 2.97176 0
M  V30 5416 H 520.151 3.16664 1.84715 0
M  V30 5417 H 519.799 2.65794 4.27039 0
M  V30 5418 H 519.499 4.37841 3.91879 0
M  V30 5419 H 521.023 3.88545 4.71025 0
M  V30 5420 H 522.437 5.03102 2.74885 0
M  V30 5421 H 520.834 5.58823 2.18716 0
M  V30 5422 H 521.904 4.731 1.06321 0
M  V30 5423 N 523.247 -0.488276 1.49845 0
M  V30 5424 C 524.658 -1.06955 1.53028 0
M  V30 5425 C 525.009 -1.9351 0.323797 0
M  V30 5426 O 524.134 -2.08891 -0.565116 0
M  V30 5427 C 524.729 -1.94643 2.77307 0
M  V30 5428 C 523.288 -2.4791 2.83227 0
M  V30 5429 C 522.435 -1.25833 2.47106 0
M  V30 5430 H 525.386 -0.271626 1.56358 0
M  V30 5431 H 525.407 -2.79496 2.5819 0
M  V30 5432 H 524.919 -1.31621 3.65099 0
M  V30 5433 H 523.02 -3.14535 1.99745 0
M  V30 5434 H 523.133 -2.84193 3.85709 0
M  V30 5435 H 521.497 -1.58764 1.99163 0
M  V30 5436 H 522.28 -0.644993 3.37186 0
M  V30 5437 N 524.725 -1.39134 -0.740242 0
M  V30 5438 C 525.971 -1.36273 -1.50192 0
M  V30 5439 C 526.304 0.0430136 -1.94152 0
M  V30 5440 O 525.579 1.00691 -1.66408 0
M  V30 5441 C 525.862 -2.33041 -2.74525 0
M  V30 5442 C 525.715 -3.82535 -2.36617 0
M  V30 5443 C 527.034 -2.27723 -3.76604 0
M  V30 5444 H 524.153 -0.496323 -0.544823 0
M  V30 5445 H 526.795 -1.70085 -0.846815 0
M  V30 5446 H 524.945 -2.04337 -3.30422 0
M  V30 5447 H 526.617 -4.21967 -1.86391 0
M  V30 5448 H 524.86 -3.99565 -1.68909 0
M  V30 5449 H 525.531 -4.45723 -3.2563 0
M  V30 5450 H 528.007 -2.53091 -3.30279 0
M  V30 5451 H 526.883 -2.97519 -4.61274 0
M  V30 5452 H 527.144 -1.28049 -4.2315 0
M  V30 5453 N 526.204 0.969867 -1.24223 0
M  V30 5454 C 527.136 2.0669 -0.99055 0
M  V30 5455 C 528.149 1.62753 0.0392222 0
M  V30 5456 O 529.338 1.77403 -0.197561 0
M  V30 5457 C 526.438 3.35589 -0.472594 0
M  V30 5458 C 525.611 4.08444 -1.56499 0
M  V30 5459 C 524.67 5.15616 -1.05007 0
M  V30 5460 O 523.696 5.41911 -1.7413 0
M  V30 5461 N 524.898 5.80383 0.116641 0
M  V30 5462 H 527.663 2.28855 -1.93508 0
M  V30 5463 H 525.224 1.13733 -1.15223 0
M  V30 5464 H 527.216 4.04542 -0.112919 0
M  V30 5465 H 525.786 3.10311 0.377617 0
M  V30 5466 H 525.006 3.33798 -2.09696 0
M  V30 5467 H 526.294 4.53882 -2.29932 0
M  V30 5468 H 525.692 5.6142 0.694589 0
M  V30 5469 H 524.249 6.50462 0.417483 0
M  V30 5470 N 527.682 1.05563 1.17022 0
M  V30 5471 C 528.959 0.68165 1.83338 0
M  V30 5472 C 529.339 -0.837665 1.93769 0
M  V30 5473 O 528.687 -1.74507 1.47511 0
M  V30 5474 C 528.897 1.375 3.20772 0
M  V30 5475 C 530.245 1.51545 3.96635 0
M  V30 5476 O 531.269 1.33431 3.30264 0
M  V30 5477 O 530.128 1.812 5.15586 0
M  V30 5478 H 527.222 0.240412 0.791285 0
M  V30 5479 H 529.768 1.15545 1.24288 0
M  V30 5480 H 528.54 2.41135 3.08171 0
M  V30 5481 H 528.163 0.890798 3.87493 0
M  V30 5482 N 529.16 -1.33526 0.837174 0
M  V30 5483 C 530.385 -2.0258 0.444545 0
M  V30 5484 C 530.81 -1.6258 -0.946006 0
M  V30 5485 O 530.168 -0.817548 -1.6182 0
M  V30 5486 C 530.216 -3.5605 0.571006 0
M  V30 5487 O 529.32 -4.10422 -0.403431 0
M  V30 5488 H 528.661 -0.638866 0.180958 0
M  V30 5489 H 531.191 -1.70462 1.13154 0
M  V30 5490 H 531.201 -4.05488 0.452024 0
M  V30 5491 H 529.876 -3.84509 1.58512 0
M  V30 5492 H 528.453 -3.72113 -0.242147 0
M  V30 5493 N 530.638 -0.59345 -1.46 0
M  V30 5494 C 531.863 -0.0872365 -2.07216 0
M  V30 5495 C 532.288 1.2131 -1.43755 0
M  V30 5496 O 531.646 1.73528 -0.525152 0
M  V30 5497 C 531.694 0.0538197 -3.6056 0
M  V30 5498 O 530.798 1.10765 -3.97247 0
M  V30 5499 H 530.139 -0.0676598 -0.660544 0
M  V30 5500 H 532.669 -0.819445 -1.87473 0
M  V30 5501 H 532.679 0.256567 -4.07193 0
M  V30 5502 H 531.354 -0.895739 -4.0614 0
M  V30 5503 H 529.931 0.882501 -3.62307 0
M  V30 5504 N 532.116 1.54067 -0.331816 0
M  V30 5505 C 533.341 2.05599 0.272705 0
M  V30 5506 C 533.766 1.2059 1.44359 0
M  V30 5507 O 533.124 0.216907 1.79998 0
M  V30 5508 C 533.172 3.54188 0.677021 0
M  V30 5509 O 532.276 3.72082 1.77844 0
M  V30 5510 H 531.617 0.662286 0.0476801 0
M  V30 5511 H 534.147 1.98826 -0.482624 0
M  V30 5512 H 534.157 3.96608 0.957415 0
M  V30 5513 H 532.832 4.15513 -0.179325 0
M  V30 5514 H 531.409 3.41566 1.49622 0
M  V30 5515 N 533.594 0.0601682 1.57485 0
M  V30 5516 C 534.84 -0.612501 1.93329 0
M  V30 5517 C 535.173 -1.6996 0.939526 0
M  V30 5518 O 534.448 -1.94472 -0.0330957 0
M  V30 5519 C 534.731 -1.20025 3.39508 0
M  V30 5520 C 534.584 -0.12059 4.49638 0
M  V30 5521 C 535.903 -2.10923 3.86264 0
M  V30 5522 H 533.022 -0.221185 0.703027 0
M  V30 5523 H 535.664 0.123768 1.89596 0
M  V30 5524 H 533.814 -1.82774 3.42821 0
M  V30 5525 H 535.486 0.51185 4.58452 0
M  V30 5526 H 533.729 0.550251 4.30296 0
M  V30 5527 H 534.4 -0.572019 5.49028 0
M  V30 5528 H 536.876 -1.58124 3.84884 0
M  V30 5529 H 535.752 -2.48987 4.8918 0
M  V30 5530 H 536.013 -3.01292 3.23536 0
M  V30 5531 N 535.072 -1.5615 -0.213296 0
M  V30 5532 C 536.483 -1.69645 -0.779582 0
M  V30 5533 C 536.834 -0.663615 -1.84636 0
M  V30 5534 O 535.959 0.183633 -2.15619 0
M  V30 5535 C 536.554 -3.07567 -1.42084 0
M  V30 5536 C 535.113 -3.22889 -1.93442 0
M  V30 5537 C 534.26 -2.65581 -0.797612 0
M  V30 5538 H 537.211 -1.58696 0.0114951 0
M  V30 5539 H 537.232 -3.03884 -2.28986 0
M  V30 5540 H 536.744 -3.82716 -0.644187 0
M  V30 5541 H 534.845 -2.52623 -2.73884 0
M  V30 5542 H 534.958 -4.30197 -2.10872 0
M  V30 5543 H 533.322 -2.24278 -1.20712 0
M  V30 5544 H 534.105 -3.43284 -0.033494 0
M  V30 5545 N 536.55 0.480323 -1.50102 0
M  V30 5546 C 537.48 1.58769 -1.71215 0
M  V30 5547 C 538.461 1.60583 -0.560997 0
M  V30 5548 O 539.646 1.76996 -0.799127 0
M  V30 5549 C 536.776 2.97148 -1.79778 0
M  V30 5550 C 535.73 3.10201 -2.94888 0
M  V30 5551 C 535.056 4.50137 -2.88584 0
M  V30 5552 C 536.356 2.88283 -4.35534 0
M  V30 5553 H 538.05 1.41354 -2.6393 0
M  V30 5554 H 535.596 0.678591 -1.27008 0
M  V30 5555 H 537.549 3.74536 -1.93133 0
M  V30 5556 H 536.273 3.15699 -0.836772 0
M  V30 5557 H 534.932 2.35244 -2.81169 0
M  V30 5558 H 534.58 4.65593 -1.90349 0
M  V30 5559 H 534.28 4.59808 -3.65856 0
M  V30 5560 H 535.804 5.29558 -3.03976 0
M  V30 5561 H 537.218 3.55427 -4.49827 0
M  V30 5562 H 535.615 3.09408 -5.14186 0
M  V30 5563 H 536.685 1.84219 -4.48544 0
M  V30 5564 N 538.028 1.39524 0.732853 0
M  V30 5565 C 539.439 1.32905 1.31122 0
M  V30 5566 C 539.79 -0.00558708 1.96199 0
M  V30 5567 O 538.915 -0.907706 1.96443 0
M  V30 5568 C 539.51 2.40704 2.38426 0
M  V30 5569 C 538.069 2.37599 2.91931 0
M  V30 5570 C 537.216 2.2248 1.65523 0
M  V30 5571 H 540.167 1.49581 0.530207 0
M  V30 5572 H 540.188 2.07616 3.18867 0
M  V30 5573 H 539.7 3.37829 1.91033 0
M  V30 5574 H 537.801 1.44119 3.43599 0
M  V30 5575 H 537.914 3.32538 3.44899 0
M  V30 5576 H 536.278 1.69691 1.8994 0
M  V30 5577 H 537.061 3.21577 1.20178 0
M  V30 5578 N 539.506 -0.963266 1.24736 0
M  V30 5579 C 540.734 -1.74166 1.11686 0
M  V30 5580 C 541.149 -1.8589 -0.330187 0
M  V30 5581 O 540.506 -1.35042 -1.2276 0
M  V30 5582 C 540.557 -3.15989 1.75595 0
M  V30 5583 O 540.278 -3.04847 3.14642 0
M  V30 5584 C 541.779 -4.10145 1.68213 0
M  V30 5585 H 538.999 -0.546031 0.389989 0
M  V30 5586 H 541.543 -1.20907 1.64929 0
M  V30 5587 H 539.698 -3.66219 1.26343 0
M  V30 5588 H 540.112 -3.9425 3.4593 0
M  V30 5589 H 541.586 -5.07299 2.17604 0
M  V30 5590 H 542.063 -4.3445 0.644208 0
M  V30 5591 H 542.669 -3.65827 2.16912 0
M  V30 5592 N 540.985 -1.06182 -1.16461 0
M  V30 5593 C 542.232 -0.777863 -1.86964 0
M  V30 5594 C 542.56 0.695602 -1.81636 0
M  V30 5595 O 541.815 1.52532 -1.22607 0
M  V30 5596 C 542.114 -1.21633 -3.36066 0
M  V30 5597 C 541.78 -2.69371 -3.61594 0
M  V30 5598 C 540.442 -3.09727 -3.6827 0
M  V30 5599 C 542.794 -3.64791 -3.7226 0
M  V30 5600 C 540.122 -4.44345 -3.83112 0
M  V30 5601 C 542.474 -4.99155 -3.88623 0
M  V30 5602 C 541.138 -5.39149 -3.93541 0
M  V30 5603 H 540.408 -0.28464 -0.68415 0
M  V30 5604 H 543.055 -1.33071 -1.37711 0
M  V30 5605 H 541.36 -0.582651 -3.87443 0
M  V30 5606 H 543.057 -0.973682 -3.88999 0
M  V30 5607 H 539.647 -2.37124 -3.57029 0
M  V30 5608 H 543.831 -3.34746 -3.66413 0
M  V30 5609 H 539.087 -4.74819 -3.85172 0
M  V30 5610 H 543.261 -5.72976 -3.95817 0
M  V30 5611 H 540.888 -6.43464 -4.04794 0
M  V30 5612 N 542.463 1.3308 -0.844243 0
M  V30 5613 C 543.393 2.3161 -0.296493 0
M  V30 5614 C 544.374 1.59215 0.598707 0
M  V30 5615 O 545.559 1.87077 0.521134 0
M  V30 5616 C 542.689 3.43313 0.524762 0
M  V30 5617 C 541.643 4.27115 -0.275106 0
M  V30 5618 C 540.969 5.30483 0.670236 0
M  V30 5619 C 542.269 5.00443 -1.49514 0
M  V30 5620 H 543.963 2.77672 -1.11976 0
M  V30 5621 H 541.509 1.33496 -0.539899 0
M  V30 5622 H 543.462 4.11273 0.918298 0
M  V30 5623 H 542.186 2.95952 1.3813 0
M  V30 5624 H 540.845 3.60787 -0.650267 0
M  V30 5625 H 540.493 4.79379 1.52332 0
M  V30 5626 H 540.193 5.87435 0.139123 0
M  V30 5627 H 541.717 6.01308 1.06117 0
M  V30 5628 H 543.131 5.61141 -1.17447 0
M  V30 5629 H 541.528 5.67071 -1.96343 0
M  V30 5630 H 542.598 4.28906 -2.26202 0
M  V30 5631 N 543.941 0.601185 1.45683 0
M  V30 5632 C 545.187 0.0940202 2.02582 0
M  V30 5633 C 545.52 -1.26972 1.46941 0
M  V30 5634 O 544.795 -1.83613 0.641612 0
M  V30 5635 C 545.078 0.0481715 3.60068 0
M  V30 5636 C 544.931 1.44212 4.26055 0
M  V30 5637 C 546.25 -0.642975 4.35378 0
M  V30 5638 H 543.369 0.0356404 0.736138 0
M  V30 5639 H 546.011 0.771929 1.73612 0
M  V30 5640 H 544.161 -0.529128 3.8488 0
M  V30 5641 H 545.833 2.06601 4.12449 0
M  V30 5642 H 544.076 2.00465 3.84703 0
M  V30 5643 H 544.747 1.36234 5.34925 0
M  V30 5644 H 547.223 -0.152351 4.15821 0
M  V30 5645 H 546.099 -0.644141 5.45107 0
M  V30 5646 H 546.36 -1.70785 4.0778 0
M  V30 5647 N 545.419 -1.53889 0.339982 0
M  V30 5648 C 546.382 -2.23547 -0.50592 0
M  V30 5649 C 547.382 -1.23445 -1.03044 0
M  V30 5650 O 548.572 -1.47909 -0.920253 0
M  V30 5651 C 545.704 -2.95234 -1.7044 0
M  V30 5652 H 546.897 -2.99722 0.103247 0
M  V30 5653 H 544.45 -1.56033 0.0912804 0
M  V30 5654 H 545.185 -2.23236 -2.35236 0
M  V30 5655 H 544.97 -3.68654 -1.33553 0
M  V30 5656 H 546.46 -3.48258 -2.30447 0
M  V30 5657 N 546.897 -0.0685191 -1.57451 0
M  V30 5658 C 548.145 0.60016 -1.92983 0
M  V30 5659 C 548.466 1.70348 -0.949028 0
M  V30 5660 O 547.736 1.959 0.00335647 0
M  V30 5661 H 546.316 0.224682 -0.712409 0
M  V30 5662 H 548.978 -0.125605 -1.94495 0
M  V30 5663 H 548.074 1.02759 -2.94698 0
M  V30 5664 N 548.375 1.56261 0.205012 0
M  V30 5665 C 549.623 1.79684 0.925096 0
M  V30 5666 C 549.944 0.63989 1.84202 0
M  V30 5667 O 549.214 -0.342345 1.92885 0
M  V30 5668 H 547.794 0.662774 0.344587 0
M  V30 5669 H 550.456 1.93734 0.212899 0
M  V30 5670 H 549.552 2.72467 1.52211 0
M  V30 5671 N 549.853 -0.472356 1.50355 0
M  V30 5672 C 551.078 -1.25251 1.65309 0
M  V30 5673 C 551.503 -1.85081 0.335643 0
M  V30 5674 O 550.861 -1.67227 -0.700335 0
M  V30 5675 C 550.909 -2.3379 2.74544 0
M  V30 5676 O 550.013 -3.38401 2.35709 0
M  V30 5677 H 549.354 -0.368539 0.552336 0
M  V30 5678 H 551.884 -0.562271 1.96722 0
M  V30 5679 H 551.894 -2.79121 2.97583 0
M  V30 5680 H 550.569 -1.89614 3.70161 0
M  V30 5681 H 549.146 -2.9879 2.23112 0
M  V30 5682 N 551.331 -1.39911 -0.725443 0
M  V30 5683 C 552.261 -1.42138 -1.85254 0
M  V30 5684 C 553.242 -0.283513 -1.67721 0
M  V30 5685 O 554.427 -0.490717 -1.87898 0
M  V30 5686 C 551.557 -1.27354 -3.23107 0
M  V30 5687 C 550.511 -2.3864 -3.55296 0
M  V30 5688 C 549.837 -2.08939 -4.92188 0
M  V30 5689 C 551.137 -3.8097 -3.57295 0
M  V30 5690 H 552.831 -2.36461 -1.83648 0
M  V30 5691 H 550.377 -1.13817 -0.882138 0
M  V30 5692 H 552.33 -1.2753 -4.01639 0
M  V30 5693 H 551.054 -0.295025 -3.25265 0
M  V30 5694 H 549.713 -2.37696 -2.79099 0
M  V30 5695 H 549.361 -1.09502 -4.90936 0
M  V30 5696 H 549.061 -2.83491 -5.14691 0
M  V30 5697 H 550.585 -2.10781 -5.73065 0
M  V30 5698 H 551.999 -3.8379 -4.25885 0
M  V30 5699 H 550.396 -4.5496 -3.9132 0
M  V30 5700 H 551.466 -4.11261 -2.5689 0
M  V30 5701 N 552.809 0.956637 -1.25245 0
M  V30 5702 C 553.772 2.03457 -1.05537 0
M  V30 5703 C 554.772 1.60798 -0.00886317 0
M  V30 5704 O 555.962 1.72384 -0.250865 0
M  V30 5705 C 553.094 3.35543 -0.601965 0
M  V30 5706 H 554.287 2.22372 -2.01223 0
M  V30 5707 H 551.84 1.13344 -1.07623 0
M  V30 5708 H 552.575 3.22323 0.357584 0
M  V30 5709 H 552.36 3.67854 -1.35743 0
M  V30 5710 H 553.85 4.14769 -0.485454 0
M  V30 5711 N 554.287 1.06798 1.15896 0
M  V30 5712 C 555.534 0.787767 1.86549 0
M  V30 5713 C 555.862 -0.685959 1.82002 0
M  V30 5714 O 555.117 -1.5188 1.23414 0
M  V30 5715 C 555.416 1.23414 3.35416 0
M  V30 5716 C 555.082 2.71285 3.6016 0
M  V30 5717 C 553.744 3.11676 3.66622 0
M  V30 5718 C 556.096 3.6676 3.7032 0
M  V30 5719 C 553.424 4.4637 3.8075 0
M  V30 5720 C 555.776 5.01209 3.8597 0
M  V30 5721 C 554.44 5.41229 3.90676 0
M  V30 5722 H 553.71 0.288264 0.682631 0
M  V30 5723 H 556.357 1.338 1.37003 0
M  V30 5724 H 554.662 0.60319 3.87129 0
M  V30 5725 H 556.359 0.994298 3.88477 0
M  V30 5726 H 552.949 2.39015 3.55767 0
M  V30 5727 H 557.133 3.36685 3.64633 0
M  V30 5728 H 552.389 4.76855 3.82648 0
M  V30 5729 H 556.563 5.75067 3.92773 0
M  V30 5730 H 554.19 6.45602 4.01375 0
M  V30 5731 N 555.766 -1.3263 0.851289 0
M  V30 5732 C 557.014 -1.96978 0.452128 0
M  V30 5733 C 557.335 -1.67715 -0.99482 0
M  V30 5734 O 556.605 -0.98259 -1.69476 0
M  V30 5735 H 555.185 -0.72873 0.164202 0
M  V30 5736 H 557.847 -1.61774 1.08698 0
M  V30 5737 H 556.943 -3.06387 0.594407 0
M  V30 5738 N 557.244 -0.608902 -1.45362 0
M  V30 5739 C 558.472 -0.111013 -2.06602 0
M  V30 5740 C 558.887 1.20516 -1.45332 0
M  V30 5741 O 558.244 1.73437 -0.567978 0
M  V30 5742 C 558.295 0.033688 -3.61484 0
M  V30 5743 O 558.016 -1.23041 -4.20467 0
M  V30 5744 C 559.517 0.562882 -4.39712 0
M  V30 5745 H 556.737 -0.0694453 -0.667397 0
M  V30 5746 H 559.281 -0.837008 -1.86586 0
M  V30 5747 H 557.436 0.710016 -3.80838 0
M  V30 5748 H 557.85 -1.06094 -5.13658 0
M  V30 5749 H 559.324 0.613213 -5.48583 0
M  V30 5750 H 559.801 1.58543 -4.09586 0
M  V30 5751 H 560.407 -0.0794454 -4.25226 0
M  V30 5752 N 558.722 1.53707 -0.348139 0
M  V30 5753 C 559.652 2.28111 0.498766 0
M  V30 5754 C 560.633 1.29851 1.09876 0
M  V30 5755 O 561.818 1.587 1.11928 0
M  V30 5756 C 558.948 3.05735 1.64753 0
M  V30 5757 C 557.902 4.11537 1.17565 0
M  V30 5758 C 557.228 4.77142 2.4133 0
M  V30 5759 C 558.528 5.21587 0.272844 0
M  V30 5760 H 560.222 2.99152 -0.121934 0
M  V30 5761 H 557.768 1.43875 -0.0600842 0
M  V30 5762 H 559.721 3.56526 2.24649 0
M  V30 5763 H 558.445 2.32354 2.2952 0
M  V30 5764 H 557.104 3.61665 0.599483 0
M  V30 5765 H 556.752 4.0035 3.04514 0
M  V30 5766 H 556.452 5.48626 2.10436 0
M  V30 5767 H 557.976 5.30719 3.01943 0
M  V30 5768 H 559.39 5.67986 0.778779 0
M  V30 5769 H 557.787 6.00074 0.0555849 0
M  V30 5770 H 558.857 4.79969 -0.689785 0
M  V30 5771 N 560.2 0.0768682 1.57412 0
M  V30 5772 C 561.13 -0.886026 2.16037 0
M  V30 5773 C 562.111 -1.30691 1.08876 0
M  V30 5774 O 563.296 -1.37705 1.36934 0
M  V30 5775 C 560.426 -2.1518 2.72608 0
M  V30 5776 C 559.38 -1.87015 3.8498 0
M  V30 5777 C 558.706 -3.20266 4.28175 0
M  V30 5778 C 560.006 -1.17143 5.08994 0
M  V30 5779 H 561.7 -0.397642 2.96748 0
M  V30 5780 H 559.246 -0.189823 1.42743 0
M  V30 5781 H 561.199 -2.82962 3.12266 0
M  V30 5782 H 559.923 -2.66269 1.89125 0
M  V30 5783 H 558.582 -1.21636 3.45833 0
M  V30 5784 H 558.23 -3.69207 3.41607 0
M  V30 5785 H 557.93 -3.0221 5.03927 0
M  V30 5786 H 559.454 -3.89237 4.70454 0
M  V30 5787 H 560.868 -1.75003 5.45937 0
M  V30 5788 H 559.265 -1.09328 5.90057 0
M  V30 5789 H 560.335 -0.151295 4.84664 0
M  V30 5790 N 561.678 -1.56367 -0.196722 0
M  V30 5791 C 562.918 -1.82315 -0.92415 0
M  V30 5792 C 563.282 -0.654117 -1.80514 0
M  V30 5793 O 564.483 -0.79345 -2.56823 0
M  V30 5794 C 562.754 -3.13279 -1.72021 0
M  V30 5795 S 564.313 -3.60627 -2.49988 0
M  V30 5796 H 561.131 -0.639862 -0.309997 0
M  V30 5797 H 563.733 -1.94597 -0.187684 0
M  V30 5798 H 562.437 -3.96379 -1.06358 0
M  V30 5799 H 561.968 -3.03871 -2.49852 0
M  V30 5800 H 563.983 -3.25934 -3.74141 0
M  V30 5801 N 563.156 0.464375 -1.50603 0
M  V30 5802 C 564.405 1.21277 -1.61167 0
M  V30 5803 C 564.718 1.92953 -0.320704 0
M  V30 5804 O 565.924 2.69778 -0.30534 0
M  V30 5805 C 564.38 2.20403 -2.84518 0
M  V30 5806 C 563.988 1.54499 -4.20516 0
M  V30 5807 C 565.732 2.95843 -3.0443 0
M  V30 5808 C 563.639 2.51951 -5.35047 0
M  V30 5809 H 562.569 0.456367 -0.600204 0
M  V30 5810 H 565.22 0.48254 -1.77042 0
M  V30 5811 H 563.602 2.96746 -2.62217 0
M  V30 5812 H 564.776 0.83899 -4.53098 0
M  V30 5813 H 563.091 0.913152 -4.06264 0
M  V30 5814 H 565.688 3.6879 -3.87167 0
M  V30 5815 H 566.031 3.55622 -2.16423 0
M  V30 5816 H 566.564 2.26611 -3.26944 0
M  V30 5817 H 563.303 1.96901 -6.25228 0
M  V30 5818 H 562.823 3.20683 -5.06875 0
M  V30 5819 H 564.502 3.13643 -5.65895 0
M  V30 5820 N 564.634 1.40294 0.718013 0
M  V30 5821 C 565.597 1.4012 1.81381 0
M  V30 5822 C 566.597 0.295405 1.58063 0
M  V30 5823 O 567.787 0.554187 1.6515 0
M  V30 5824 C 564.919 1.19056 3.19435 0
M  V30 5825 H 566.112 2.37645 1.82933 0
M  V30 5826 H 563.665 1.26107 0.923405 0
M  V30 5827 H 564.4 0.222809 3.23534 0
M  V30 5828 H 564.185 1.99152 3.37758 0
M  V30 5829 H 565.675 1.21716 3.99468 0
M  V30 5830 N 566.112 -0.949982 1.2575 0
M  V30 5831 C 567.361 -1.68956 1.10168 0
M  V30 5832 C 567.674 -1.92327 -0.356309 0
M  V30 5833 O 568.88 -2.64026 -0.632657 0
M  V30 5834 C 567.336 -3.04196 1.92336 0
M  V30 5835 C 566.944 -2.88603 3.42655 0
M  V30 5836 C 568.688 -3.81904 1.85336 0
M  V30 5837 C 566.595 -4.19262 4.17101 0
M  V30 5838 H 565.525 -0.633645 0.408668 0
M  V30 5839 H 568.176 -1.05719 1.49986 0
M  V30 5840 H 566.558 -3.68363 1.45344 0
M  V30 5841 H 567.732 -2.3334 3.97353 0
M  V30 5842 H 566.047 -2.24345 3.50796 0
M  V30 5843 H 568.644 -4.78688 2.38248 0
M  V30 5844 H 568.987 -4.08099 0.822226 0
M  V30 5845 H 569.52 -3.24495 2.30104 0
M  V30 5846 H 566.259 -3.98254 5.20648 0
M  V30 5847 H 565.779 -4.74273 3.67186 0
M  V30 5848 H 567.458 -4.87775 4.25071 0
M  V30 5849 N 567.59 -1.07411 -1.15328 0
M  V30 5850 C 568.836 -0.798831 -1.86404 0
M  V30 5851 C 569.169 0.673433 -1.8215 0
M  V30 5852 O 568.444 1.49428 -1.24505 0
M  V30 5853 C 568.727 -1.30846 -3.35487 0
M  V30 5854 C 568.58 -2.84532 -3.4837 0
M  V30 5855 C 569.899 -0.925486 -4.30259 0
M  V30 5856 H 567.018 -0.291659 -0.676834 0
M  V30 5857 H 569.66 -1.332 -1.35491 0
M  V30 5858 H 567.81 -0.854916 -3.78977 0
M  V30 5859 H 569.482 -3.3818 -3.13739 0
M  V30 5860 H 567.725 -3.22699 -2.8991 0
M  V30 5861 H 568.396 -3.15259 -4.53118 0
M  V30 5862 H 570.872 -1.3163 -3.94731 0
M  V30 5863 H 569.748 -1.3094 -5.33053 0
M  V30 5864 H 570.009 0.168525 -4.41779 0
M  V30 5865 N 569.068 1.32177 -0.85831 0
M  V30 5866 C 569.998 2.31282 -0.321041 0
M  V30 5867 C 570.979 1.59841 0.581786 0
M  V30 5868 O 572.164 1.87619 0.501262 0
M  V30 5869 C 569.294 3.4385 0.48832 0
M  V30 5870 C 568.248 4.26799 -0.320391 0
M  V30 5871 C 567.574 5.31164 0.613934 0
M  V30 5872 C 568.874 4.98829 -1.54813 0
M  V30 5873 H 570.568 2.76469 -1.14915 0
M  V30 5874 H 568.114 1.32916 -0.554028 0
M  V30 5875 H 570.067 4.12224 0.874626 0
M  V30 5876 H 568.791 2.97401 1.34983 0
M  V30 5877 H 567.45 3.60077 -0.688497 0
M  V30 5878 H 567.098 4.80967 1.47239 0
M  V30 5879 H 566.798 5.8755 0.0768097 0
M  V30 5880 H 568.322 6.024 0.997336 0
M  V30 5881 H 569.736 5.59864 -1.23392 0
M  V30 5882 H 568.133 5.64957 -2.02346 0
M  V30 5883 H 569.203 4.26483 -2.30739 0
M  V30 5884 N 570.547 0.616602 1.45037 0
M  V30 5885 C 571.963 0.280994 1.57107 0
M  V30 5886 C 572.163 -1.21627 1.60653 0
M  V30 5887 O 571.219 -1.9997 1.54169 0
M  V30 5888 C 572.532 0.960116 2.8496 0
M  V30 5889 C 574.08 0.936884 2.98649 0
M  V30 5890 C 574.555 1.59619 4.29285 0
M  V30 5891 N 576.046 1.5621 4.36065 0
M  V30 5892 C 576.781 2.04131 5.35834 0
M  V30 5893 N 576.277 2.60177 6.4209 0
M  V30 5894 N 578.07 1.94845 5.27249 0
M  V30 5895 H 570.221 1.58867 1.40979 0
M  V30 5896 H 572.484 0.666024 0.674623 0
M  V30 5897 H 572.19 2.01473 2.88273 0
M  V30 5898 H 572.064 0.488921 3.74018 0
M  V30 5899 H 574.451 -0.109209 2.94898 0
M  V30 5900 H 574.532 1.44643 2.10979 0
M  V30 5901 H 574.176 2.64166 4.33796 0
M  V30 5902 H 574.106 1.06159 5.15789 0
M  V30 5903 H 576.597 1.15276 3.59889 0
M  V30 5904 H 576.91 2.94513 7.1448 0
M  V30 5905 H 575.255 2.64221 6.42816 0
M  V30 5906 H 578.446 1.50792 4.43147 0
M  V30 5907 H 578.619 2.32504 6.04852 0
M  V30 5908 N 572.025 -1.5352 0.356285 0
M  V30 5909 C 573.272 -2.01117 -0.236303 0
M  V30 5910 C 573.6 -1.24381 -1.49531 0
M  V30 5911 O 572.855 -0.323057 -1.93015 0
M  V30 5912 C 573.154 -3.52607 -0.583369 0
M  V30 5913 C 572.82 -4.47151 0.58023 0
M  V30 5914 C 571.482 -4.72718 0.899528 0
M  V30 5915 C 573.834 -5.03137 1.36024 0
M  V30 5916 C 571.162 -5.51523 2.00098 0
M  V30 5917 C 573.514 -5.83145 2.45204 0
M  V30 5918 C 572.178 -6.07001 2.77679 0
M  V30 5919 H 571.448 -0.735938 -0.0864695 0
M  V30 5920 H 574.095 -1.85209 0.48683 0
M  V30 5921 H 572.4 -3.66413 -1.38739 0
M  V30 5922 H 574.097 -3.86901 -1.05397 0
M  V30 5923 H 570.687 -4.27394 0.321322 0
M  V30 5924 H 574.871 -4.83339 1.12682 0
M  V30 5925 H 570.127 -5.68229 2.25668 0
M  V30 5926 H 574.301 -6.25537 3.06067 0
M  V30 5927 H 571.928 -6.67851 3.63151 0
M  V30 5928 N 573.503 -0.0852151 -1.57369 0
M  V30 5929 C 574.45 0.877268 -2.13478 0
M  V30 5930 C 575.42 1.28642 -1.05073 0
M  V30 5931 O 576.605 1.36992 -1.32808 0
M  V30 5932 C 573.745 2.13464 -2.71159 0
M  V30 5933 C 572.858 1.77691 -3.93764 0
M  V30 5934 C 571.993 2.98139 -4.39643 0
M  V30 5935 C 571.032 2.58447 -5.54862 0
M  V30 5936 N 570.169 3.71698 -5.95639 0
M  V30 5937 H 575.009 0.391933 -2.95411 0
M  V30 5938 H 572.546 0.181796 -1.45972 0
M  V30 5939 H 574.504 2.87086 -3.02717 0
M  V30 5940 H 573.134 2.59514 -1.91969 0
M  V30 5941 H 572.186 0.940768 -3.68583 0
M  V30 5942 H 573.498 1.44497 -4.77412 0
M  V30 5943 H 572.652 3.80026 -4.72933 0
M  V30 5944 H 571.391 3.34536 -3.54876 0
M  V30 5945 H 570.396 1.74984 -5.21211 0
M  V30 5946 H 571.621 2.23205 -6.41371 0
M  V30 5947 H 569.567 4.07831 -5.13819 0
M  V30 5948 H 569.484 3.42317 -6.74059 0
M  V30 5949 H 570.752 4.54123 -6.33555 0
M  V30 5950 N 574.981 1.5647 0.188427 0
M  V30 5951 C 575.928 1.95073 1.23349 0
M  V30 5952 C 576.898 0.812238 1.44886 0
M  V30 5953 O 578.083 1.07095 1.57909 0
M  V30 5954 C 575.223 2.30124 2.57171 0
M  V30 5955 C 574.336 3.57069 2.43157 0
M  V30 5956 C 573.471 3.81411 3.69729 0
M  V30 5957 C 572.51 5.0176 3.50575 0
M  V30 5958 N 571.647 5.22321 4.69175 0
M  V30 5959 H 576.487 2.84171 0.89728 0
M  V30 5960 H 574.024 1.40623 0.431683 0
M  V30 5961 H 575.982 2.48463 3.35145 0
M  V30 5962 H 574.612 1.44159 2.88822 0
M  V30 5963 H 573.664 3.4674 1.56447 0
M  V30 5964 H 574.976 4.452 2.24942 0
M  V30 5965 H 574.13 4.00026 4.56141 0
M  V30 5966 H 572.869 2.91624 3.90905 0
M  V30 5967 H 571.874 4.83061 2.62549 0
M  V30 5968 H 573.099 5.93063 3.30837 0
M  V30 5969 H 571.045 4.35483 4.90602 0
M  V30 5970 H 570.962 6.04643 4.53809 0
M  V30 5971 H 572.23 5.45401 5.56919 0
M  V30 5972 N 576.459 -0.456382 1.50847 0
M  V30 5973 C 577.687 -1.23026 1.66349 0
M  V30 5974 C 578.102 -1.85473 0.352868 0
M  V30 5975 O 577.459 -1.69885 -0.666739 0
M  V30 5976 C 577.51 -2.32827 2.76539 0
M  V30 5977 O 577.231 -1.72938 4.02522 0
M  V30 5978 C 578.732 -3.23448 3.03144 0
M  V30 5979 H 575.952 -0.371527 0.558756 0
M  V30 5980 H 578.496 -0.543082 1.97157 0
M  V30 5981 H 576.651 -2.97294 2.48384 0
M  V30 5982 H 577.065 -2.45357 4.63573 0
M  V30 5983 H 578.539 -3.96669 3.83872 0
M  V30 5984 H 579.016 -3.83094 2.14793 0
M  V30 5985 H 579.622 -2.64702 3.32886 0
M  V30 5986 N 577.937 -1.40673 -0.710563 0
M  V30 5987 C 579.183 -1.4043 -1.47142 0
M  V30 5988 C 579.538 -0.00781557 -1.92398 0
M  V30 5989 O 578.831 0.963535 -1.6561 0
M  V30 5990 C 579.025 -2.33253 -2.70791 0
M  V30 5991 C 578.854 -3.81789 -2.37629 0
M  V30 5992 C 577.624 -4.5057 -2.28724 0
M  V30 5993 C 579.822 -4.73152 -2.01572 0
M  V30 5994 N 577.804 -5.84312 -1.88289 0
M  V30 5995 C 579.175 -5.95728 -1.71778 0
M  V30 5996 C 581.23 -4.6094 -1.88252 0
M  V30 5997 C 579.933 -7.07454 -1.30003 0
M  V30 5998 C 581.959 -5.72613 -1.47881 0
M  V30 5999 C 581.321 -6.94278 -1.18987 0
M  V30 6000 H 577.42 -0.569115 -0.536314 0
M  V30 6001 H 580.004 -1.76425 -0.823547 0
M  V30 6002 H 578.175 -1.99378 -3.33321 0
M  V30 6003 H 579.907 -2.23833 -3.37166 0
M  V30 6004 H 576.662 -4.04315 -2.46629 0
M  V30 6005 H 577.086 -6.55153 -1.70596 0
M  V30 6006 H 581.728 -3.67389 -2.09249 0
M  V30 6007 H 579.446 -8.00884 -1.07749 0
M  V30 6008 H 583.032 -5.65161 -1.38145 0
M  V30 6009 H 581.912 -7.79222 -0.88219 0
M  V30 6010 N 579.415 0.9433 -1.26252 0
M  V30 6011 C 580.362 2.0417 -1.07625 0
M  V30 6012 C 581.332 1.6609 0.0180738 0
M  V30 6013 O 582.517 1.90276 -0.141289 0
M  V30 6014 C 579.657 3.37653 -0.713043 0
M  V30 6015 C 578.77 3.88783 -1.8834 0
M  V30 6016 C 577.905 5.10642 -1.4635 0
M  V30 6017 C 576.944 5.54028 -2.60229 0
M  V30 6018 N 576.081 6.67092 -2.18936 0
M  V30 6019 H 580.921 2.19436 -2.01623 0
M  V30 6020 H 578.458 1.07519 -1.00389 0
M  V30 6021 H 580.416 4.14391 -0.483358 0
M  V30 6022 H 579.046 3.22241 0.18996 0
M  V30 6023 H 578.098 3.08464 -2.22608 0
M  V30 6024 H 579.41 4.16922 -2.73821 0
M  V30 6025 H 578.564 5.94832 -1.19414 0
M  V30 6026 H 577.303 4.84244 -0.579568 0
M  V30 6027 H 576.308 4.68396 -2.87898 0
M  V30 6028 H 577.533 5.82429 -3.49219 0
M  V30 6029 H 575.479 6.42381 -1.32974 0
M  V30 6030 H 575.396 6.94806 -2.97961 0
M  V30 6031 H 576.664 7.54662 -1.95206 0
M  V30 6032 N 580.893 1.08022 1.14757 0
M  V30 6033 C 581.823 0.728248 2.21853 0
M  V30 6034 C 582.804 -0.287486 1.67653 0
M  V30 6035 O 583.989 -0.158727 1.9355 0
M  V30 6036 C 581.119 0.132549 3.47047 0
M  V30 6037 C 580.073 1.07619 4.14249 0
M  V30 6038 C 579.399 0.342907 5.33599 0
M  V30 6039 C 580.699 2.41268 4.63235 0
M  V30 6040 H 582.393 1.62365 2.51551 0
M  V30 6041 H 579.939 0.782125 1.20908 0
M  V30 6042 H 581.892 -0.125665 4.21213 0
M  V30 6043 H 580.616 -0.797971 3.16702 0
M  V30 6044 H 579.275 1.31944 3.42033 0
M  V30 6045 H 578.923 -0.59129 4.99513 0
M  V30 6046 H 578.623 0.971955 5.79506 0
M  V30 6047 H 580.147 0.0926538 6.1053 0
M  V30 6048 H 581.561 2.21232 5.28894 0
M  V30 6049 H 579.958 2.9983 5.19829 0
M  V30 6050 H 581.028 3.03079 3.78512 0
M  V30 6051 N 582.371 -1.3172 0.865308 0
M  V30 6052 C 583.787 -1.4958 0.556596 0
M  V30 6053 C 583.987 -1.79763 -0.910353 0
M  V30 6054 O 583.043 -1.87351 -1.6928 0
M  V30 6055 C 584.356 -2.63277 1.45279 0
M  V30 6056 C 585.904 -2.77161 1.45433 0
M  V30 6057 C 586.379 -3.93949 2.33598 0
M  V30 6058 N 587.87 -4.01228 2.31453 0
M  V30 6059 C 588.605 -4.90855 2.96393 0
M  V30 6060 N 588.101 -5.85416 3.70486 0
M  V30 6061 N 589.894 -4.84063 2.85726 0
M  V30 6062 H 582.045 -1.10396 1.81456 0
M  V30 6063 H 584.308 -0.54507 0.775631 0
M  V30 6064 H 584.014 -2.47734 2.49641 0
M  V30 6065 H 583.888 -3.59309 1.14792 0
M  V30 6066 H 586.275 -2.9212 0.41831 0
M  V30 6067 H 586.356 -1.8181 1.79941 0
M  V30 6068 H 586 -3.79748 3.37274 0
M  V30 6069 H 585.93 -4.88598 1.96417 0
M  V30 6070 H 588.421 -3.3357 1.77593 0
M  V30 6071 H 588.734 -6.50525 4.17178 0
M  V30 6072 H 587.079 -5.85409 3.74594 0
M  V30 6073 H 590.27 -4.09163 2.27384 0
M  V30 6074 H 590.443 -5.53708 3.36617 0
M  V30 6075 N 583.85 -0.624285 -1.44708 0
M  V30 6076 C 584.812 0.0749638 -2.29077 0
M  V30 6077 C 585.812 0.778965 -1.40673 0
M  V30 6078 O 587.003 0.624591 -1.62618 0
M  V30 6079 C 584.135 1.11663 -3.22094 0
M  V30 6080 H 585.327 -0.667013 -2.92388 0
M  V30 6081 H 582.88 -0.384098 -1.51507 0
M  V30 6082 H 583.615 1.88881 -2.63618 0
M  V30 6083 H 583.401 0.61583 -3.87234 0
M  V30 6084 H 584.891 1.60585 -3.8549 0
M  V30 6085 N 585.328 1.53329 -0.364422 0
M  V30 6086 C 586.258 2.28627 0.474543 0
M  V30 6087 C 587.239 1.31009 1.08492 0
M  V30 6088 O 588.424 1.59878 1.10239 0
M  V30 6089 C 585.554 3.07465 1.61501 0
M  V30 6090 C 584.508 4.1276 1.13194 0
M  V30 6091 C 583.834 4.79674 2.36255 0
M  V30 6092 C 585.134 5.21847 0.217507 0
M  V30 6093 H 586.828 2.99005 -0.153656 0
M  V30 6094 H 584.374 1.43803 -0.0753406 0
M  V30 6095 H 586.327 3.58889 2.20855 0
M  V30 6096 H 585.051 2.34775 2.27042 0
M  V30 6097 H 583.71 3.62281 0.56109 0
M  V30 6098 H 583.358 4.03557 3.00251 0
M  V30 6099 H 583.058 5.50827 2.04606 0
M  V30 6100 H 584.582 5.33892 2.96297 0
M  V30 6101 H 585.996 5.6878 0.718493 0
M  V30 6102 H 584.393 6.00099 -0.00806408 0
M  V30 6103 H 585.463 4.7921 -0.740653 0
M  V30 6104 N 586.806 0.0935595 1.57322 0
M  V30 6105 C 587.753 -0.865935 2.1394 0
M  V30 6106 C 588.723 -1.28083 1.05754 0
M  V30 6107 O 589.908 -1.36285 1.33533 0
M  V30 6108 C 587.048 -2.12023 2.72287 0
M  V30 6109 C 586.161 -1.756 3.94701 0
M  V30 6110 C 585.296 -2.95804 4.41218 0
M  V30 6111 C 584.335 -2.555 5.56225 0
M  V30 6112 N 583.472 -3.68534 5.97601 0
M  V30 6113 H 588.312 -0.376261 2.95615 0
M  V30 6114 H 585.849 -0.174052 1.46067 0
M  V30 6115 H 587.807 -2.85477 3.04235 0
M  V30 6116 H 586.437 -2.58492 1.93343 0
M  V30 6117 H 585.489 -0.921208 3.69077 0
M  V30 6118 H 586.801 -1.41964 4.78171 0
M  V30 6119 H 585.955 -3.77513 4.74941 0
M  V30 6120 H 584.694 -3.32649 3.56645 0
M  V30 6121 H 583.699 -1.72218 5.22131 0
M  V30 6122 H 584.924 -2.19801 6.42545 0
M  V30 6123 H 582.87 -4.051 5.15974 0
M  V30 6124 H 582.787 -3.38737 6.75865 0
M  V30 6125 H 584.055 -4.50757 6.35955 0
M  V30 6126 N 588.284 -1.56567 -0.180126 0
M  V30 6127 C 589.194 -1.98947 -1.24327 0
M  V30 6128 C 590.21 -0.899446 -1.4895 0
M  V30 6129 O 591.386 -1.20639 -1.61271 0
M  V30 6130 C 588.451 -2.33328 -2.56435 0
M  V30 6131 C 587.512 -3.56114 -2.39752 0
M  V30 6132 C 586.745 -3.88845 -3.65561 0
M  V30 6133 O 586.968 -3.22662 -4.70368 0
M  V30 6134 O 585.902 -4.82226 -3.60197 0
M  V30 6135 H 589.728 -2.89634 -0.913565 0
M  V30 6136 H 587.313 -1.44319 -0.386306 0
M  V30 6137 H 589.195 -2.5645 -3.34382 0
M  V30 6138 H 587.87 -1.45806 -2.89002 0
M  V30 6139 H 586.777 -3.38221 -1.59866 0
M  V30 6140 H 588.11 -4.4415 -2.12113 0
M  V30 6141 N 589.762 0.448376 -1.51087 0
M  V30 6142 C 591.01 1.19635 -1.62886 0
M  V30 6143 C 591.331 1.91977 -0.342024 0
M  V30 6144 O 590.601 1.85094 0.641636 0
M  V30 6145 H 589.181 0.444598 -0.600285 0
M  V30 6146 H 591.843 0.515138 -1.87969 0
M  V30 6147 H 590.939 1.93194 -2.45117 0
M  V30 6148 N 591.24 1.41047 0.703093 0
M  V30 6149 C 592.187 1.42302 1.81711 0
M  V30 6150 C 593.157 0.278336 1.63751 0
M  V30 6151 O 594.342 0.478266 1.84709 0
M  V30 6152 C 591.482 1.30362 3.19531 0
M  V30 6153 C 590.595 2.54638 3.48975 0
M  V30 6154 C 589.73 2.35047 4.76368 0
M  V30 6155 C 588.769 3.54837 4.98756 0
M  V30 6156 N 587.906 3.34363 6.1737 0
M  V30 6157 H 592.746 2.37516 1.79973 0
M  V30 6158 H 590.283 1.1795 0.878983 0
M  V30 6159 H 592.241 1.21443 3.99134 0
M  V30 6160 H 590.871 0.387602 3.20464 0
M  V30 6161 H 589.923 2.74037 2.63833 0
M  V30 6162 H 591.235 3.43766 3.61423 0
M  V30 6163 H 590.389 2.23552 5.64012 0
M  V30 6164 H 589.128 1.43363 4.66153 0
M  V30 6165 H 588.133 3.66795 4.09563 0
M  V30 6166 H 589.358 4.47464 5.10835 0
M  V30 6167 H 587.304 2.45373 6.08382 0
M  V30 6168 H 587.221 4.17063 6.30551 0
M  V30 6169 H 588.489 3.26626 7.07768 0
M  V30 6170 N 592.718 -0.936591 1.26751 0
M  V30 6171 C 593.946 -1.71758 1.15355 0
M  V30 6172 C 594.361 -1.86549 -0.290683 0
M  V30 6173 O 593.718 -1.37616 -1.19868 0
M  V30 6174 C 593.769 -3.12193 1.82258 0
M  V30 6175 O 593.49 -2.98105 3.21038 0
M  V30 6176 C 594.991 -4.06485 1.76875 0
M  V30 6177 H 592.211 -0.537636 0.401483 0
M  V30 6178 H 594.755 -1.17382 1.67457 0
M  V30 6179 H 592.91 -3.63456 1.34083 0
M  V30 6180 H 593.324 -3.86824 3.54214 0
M  V30 6181 H 594.798 -5.02569 2.28316 0
M  V30 6182 H 595.275 -4.32986 0.736216 0
M  V30 6183 H 595.881 -3.61144 2.24623 0
M  V30 6184 N 594.196 -1.08629 -1.14182 0
M  V30 6185 C 595.421 -0.83902 -1.89671 0
M  V30 6186 C 595.846 0.603332 -1.78161 0
M  V30 6187 O 595.204 1.42301 -1.12339 0
M  V30 6188 C 595.252 -1.26854 -3.37551 0
M  V30 6189 O 594.356 -0.42188 -4.10236 0
M  V30 6190 H 593.697 -0.304545 -0.590041 0
M  V30 6191 H 596.227 -1.4483 -1.44518 0
M  V30 6192 H 596.237 -1.25038 -3.88368 0
M  V30 6193 H 594.912 -2.31901 -3.45246 0
M  V30 6194 H 593.489 -0.503654 -3.69483 0
M  V30 6195 N 595.674 1.31259 -0.872281 0
M  V30 6196 C 596.607 2.26544 -0.274394 0
M  V30 6197 C 597.585 1.51213 0.597776 0
M  V30 6198 O 598.769 1.80277 0.550687 0
M  V30 6199 C 595.896 3.33139 0.611256 0
M  V30 6200 C 594.942 4.26077 -0.189876 0
M  V30 6201 S 595.775 5.11971 -1.56989 0
M  V30 6202 C 596.931 6.2208 -0.690427 0
M  V30 6203 H 597.164 2.76908 -1.0821 0
M  V30 6204 H 594.697 1.3906 -0.670939 0
M  V30 6205 H 596.655 3.95024 1.11654 0
M  V30 6206 H 595.316 2.81525 1.39294 0
M  V30 6207 H 594.509 5.01657 0.485433 0
M  V30 6208 H 594.111 3.68701 -0.627339 0
M  V30 6209 H 596.403 6.77429 0.098001 0
M  V30 6210 H 597.346 6.93768 -1.41742 0
M  V30 6211 H 597.754 5.63915 -0.256953 0
M  V30 6212 N 597.152 0.631951 1.44375 0
M  V30 6213 C 598.102 -0.0943862 2.27805 0
M  V30 6214 C 599.086 -0.815359 1.38711 0
M  V30 6215 O 600.278 -0.701331 1.62513 0
M  V30 6216 C 597.407 -1.07472 3.26044 0
M  V30 6217 C 596.493 -0.353329 4.22626 0
M  V30 6218 N 596.884 0.618512 5.02004 0
M  V30 6219 C 595.182 -0.597662 4.41977 0
M  V30 6220 C 595.883 1.0448 5.7224 0
M  V30 6221 N 594.859 0.383413 5.42246 0
M  V30 6222 H 598.661 0.651672 2.86584 0
M  V30 6223 H 596.175 0.45752 1.55822 0
M  V30 6224 H 598.172 -1.60969 3.84571 0
M  V30 6225 H 596.832 -1.82107 2.68825 0
M  V30 6226 H 597.843 0.996356 5.08226 0
M  V30 6227 H 594.52 -1.32682 3.95856 0
M  V30 6228 H 595.91 1.84773 6.45994 0
M  V30 6229 N 598.631 -1.53133 0.372548 0
M  V30 6230 C 600.042 -1.86404 -0.105155 0
M  V30 6231 C 600.393 -1.29289 -1.47576 0
M  V30 6232 O 599.518 -0.617646 -2.07398 0
M  V30 6233 C 600.113 -3.38223 -0.197588 0
M  V30 6234 C 598.672 -3.71266 -0.619556 0
M  V30 6235 C 597.819 -2.76353 0.228919 0
M  V30 6236 H 600.77 -1.47282 0.591077 0
M  V30 6237 H 600.791 -3.66577 -1.01987 0
M  V30 6238 H 600.303 -3.79763 0.800099 0
M  V30 6239 H 598.404 -3.35287 -1.62522 0
M  V30 6240 H 598.517 -4.77515 -0.389332 0
M  V30 6241 H 596.881 -2.52888 -0.303271 0
M  V30 6242 H 597.664 -3.20728 1.22428 0
M  V30 6243 N 600.109 -0.101901 -1.5727 0
M  V30 6244 C 601.52 0.426173 -1.81771 0
M  V30 6245 C 601.871 1.67725 -1.01797 0
M  V30 6246 O 600.996 2.14958 -0.249386 0
M  V30 6247 C 601.591 0.779962 -3.297 0
M  V30 6248 C 600.15 1.25275 -3.54941 0
M  V30 6249 C 599.297 0.252814 -2.76145 0
M  V30 6250 H 602.248 -0.32726 -1.55289 0
M  V30 6251 H 602.269 1.63891 -3.43395 0
M  V30 6252 H 601.781 -0.130778 -3.8788 0
M  V30 6253 H 599.882 2.18097 -3.021 0
M  V30 6254 H 599.995 1.20988 -4.63572 0
M  V30 6255 H 598.359 0.736362 -2.43823 0
M  V30 6256 H 599.142 -0.650724 -3.37076 0
M  V30 6257 N 601.587 1.56661 0.17182 0
M  V30 6258 C 602.817 1.85831 0.902804 0
M  V30 6259 C 603.225 0.685157 1.76358 0
M  V30 6260 O 602.568 -0.354947 1.80238 0
M  V30 6261 C 602.63 3.09406 1.83053 0
M  V30 6262 C 602.294 4.4231 1.1494 0
M  V30 6263 C 603.291 5.17342 0.515104 0
M  V30 6264 C 600.976 4.89045 1.14631 0
M  V30 6265 C 602.97 6.37299 -0.113194 0
M  V30 6266 C 600.657 6.08933 0.514184 0
M  V30 6267 C 601.655 6.82904 -0.114463 0
M  V30 6268 O 601.343 8.00518 -0.736622 0
M  V30 6269 H 601.075 0.620715 0.267748 0
M  V30 6270 H 603.629 2.04637 0.176918 0
M  V30 6271 H 601.859 2.86544 2.59672 0
M  V30 6272 H 603.548 3.25027 2.4313 0
M  V30 6273 H 604.314 4.82317 0.509474 0
M  V30 6274 H 600.193 4.31409 1.62502 0
M  V30 6275 H 603.737 6.94976 -0.604477 0
M  V30 6276 H 599.634 6.43423 0.517395 0
M  V30 6277 H 600.402 8.16027 -0.635822 0
M  V30 6278 N 603.065 -0.440357 1.51323 0
M  V30 6279 C 604.29 -1.21716 1.67928 0
M  V30 6280 C 604.715 -1.84328 0.374826 0
M  V30 6281 O 604.073 -1.68675 -0.664706 0
M  V30 6282 C 604.121 -2.27914 2.79442 0
M  V30 6283 O 603.225 -3.33325 2.42834 0
M  V30 6284 H 602.566 -0.35674 0.560029 0
M  V30 6285 H 605.096 -0.520417 1.97871 0
M  V30 6286 H 605.106 -2.72746 3.03436 0
M  V30 6287 H 603.781 -1.8172 3.741 0
M  V30 6288 H 602.358 -2.9399 2.294 0
M  V30 6289 N 604.543 -1.41418 -0.695603 0
M  V30 6290 C 605.473 -1.46035 -1.82197 0
M  V30 6291 C 606.454 -0.319025 -1.67082 0
M  V30 6292 O 607.639 -0.530462 -1.86815 0
M  V30 6293 C 604.769 -1.34179 -3.20333 0
M  V30 6294 C 603.723 -2.46123 -3.50154 0
M  V30 6295 C 603.049 -2.19332 -4.87645 0
M  V30 6296 C 604.349 -3.88463 -3.49133 0
M  V30 6297 H 606.043 -2.40303 -1.78591 0
M  V30 6298 H 603.589 -1.15663 -0.857797 0
M  V30 6299 H 605.542 -1.36021 -3.98844 0
M  V30 6300 H 604.266 -0.363952 -3.24566 0
M  V30 6301 H 602.925 -2.43563 -2.73994 0
M  V30 6302 H 602.573 -1.19891 -4.88503 0
M  V30 6303 H 602.273 -2.94344 -5.08562 0
M  V30 6304 H 603.797 -2.22889 -5.68465 0
M  V30 6305 H 605.211 -3.92738 -4.17648 0
M  V30 6306 H 603.608 -4.63158 -3.81582 0
M  V30 6307 H 604.678 -4.16617 -2.48109 0
M  V30 6308 N 606.021 0.929856 -1.27246 0
M  V30 6309 C 607.269 1.674 -1.13233 0
M  V30 6310 C 607.59 1.92311 0.322744 0
M  V30 6311 O 606.86 1.52784 1.22612 0
M  V30 6312 H 605.44 0.620411 -0.416052 0
M  V30 6313 H 608.102 1.11663 -1.59741 0
M  V30 6314 H 607.198 2.64308 -1.65975 0
M  V30 6315 N 607.499 1.09233 1.13605 0
M  V30 6316 C 608.431 0.687794 2.18637 0
M  V30 6317 C 609.444 -0.26936 1.60556 0
M  V30 6318 O 610.633 -0.0557162 1.78413 0
M  V30 6319 C 607.733 -0.00751901 3.38899 0
M  V30 6320 C 606.906 0.97067 4.26494 0
M  V30 6321 C 605.965 0.309129 5.25291 0
M  V30 6322 O 604.991 0.956149 5.61112 0
M  V30 6323 N 606.193 -0.937555 5.72879 0
M  V30 6324 H 608.958 1.59141 2.53957 0
M  V30 6325 H 606.519 0.979515 1.28907 0
M  V30 6326 H 608.511 -0.461238 4.02063 0
M  V30 6327 H 607.081 -0.813353 3.01833 0
M  V30 6328 H 606.301 1.603 3.60135 0
M  V30 6329 H 607.589 1.63323 4.81875 0
M  V30 6330 H 606.987 -1.48281 5.4592 0
M  V30 6331 H 605.544 -1.33463 6.3799 0
M  V30 6332 N 608.977 -1.30795 0.87923 0
M  V30 6333 C 609.907 -2.30742 0.357796 0
M  V30 6334 C 610.888 -1.60747 -0.556283 0
M  V30 6335 O 612.073 -1.88393 -0.47135 0
M  V30 6336 C 609.203 -3.44583 -0.433555 0
M  V30 6337 C 608.157 -4.26235 0.388251 0
M  V30 6338 C 607.483 -5.32073 -0.529352 0
M  V30 6339 C 608.783 -4.96303 1.62729 0
M  V30 6340 H 610.477 -2.74605 1.19299 0
M  V30 6341 H 608.023 -1.32017 0.575104 0
M  V30 6342 H 609.976 -4.13563 -0.808934 0
M  V30 6343 H 608.7 -2.99511 -1.30234 0
M  V30 6344 H 607.359 -3.58936 0.745695 0
M  V30 6345 H 607.007 -4.83249 -1.39569 0
M  V30 6346 H 606.707 -5.87598 0.0166741 0
M  V30 6347 H 608.231 -6.0391 -0.901373 0
M  V30 6348 H 609.645 -5.5783 1.32283 0
M  V30 6349 H 608.042 -5.61666 2.11309 0
M  V30 6350 H 609.112 -4.22758 2.37494 0
M  V30 6351 N 610.455 -0.639598 -1.44038 0
M  V30 6352 C 611.701 -0.147698 -2.02261 0
M  V30 6353 C 612.034 1.23031 -1.50256 0
M  V30 6354 O 611.309 1.81847 -0.690068 0
M  V30 6355 C 611.592 -0.14362 -3.59813 0
M  V30 6356 C 611.445 -1.55458 -4.22082 0
M  V30 6357 C 612.764 0.527317 -4.36929 0
M  V30 6358 H 609.883 -0.0551453 -0.734934 0
M  V30 6359 H 612.525 -0.817688 -1.71505 0
M  V30 6360 H 610.675 0.426898 -3.86147 0
M  V30 6361 H 612.347 -2.17464 -4.06826 0
M  V30 6362 H 610.59 -2.10594 -3.79253 0
M  V30 6363 H 611.261 -1.50369 -5.31124 0
M  V30 6364 H 613.737 0.0420504 -4.16079 0
M  V30 6365 H 612.613 0.499389 -5.46624 0
M  V30 6366 H 612.874 1.59914 -4.12165 0
M  V30 6367 N 611.933 1.52934 -0.380664 0
M  V30 6368 C 613.344 1.86457 0.0952684 0
M  V30 6369 C 613.695 1.3007 1.46889 0
M  V30 6370 O 612.82 0.628636 2.07068 0
M  V30 6371 C 613.415 3.38323 0.179648 0
M  V30 6372 C 611.974 3.71589 0.599858 0
M  V30 6373 C 611.121 2.76228 -0.243572 0
M  V30 6374 H 614.072 1.46966 -0.59888 0
M  V30 6375 H 614.093 3.67113 1.00042 0
M  V30 6376 H 613.605 3.79333 -0.820228 0
M  V30 6377 H 611.706 3.36144 1.60742 0
M  V30 6378 H 611.819 4.77715 0.364003 0
M  V30 6379 H 610.183 2.53045 0.289855 0
M  V30 6380 H 610.966 3.20074 -1.24127 0
M  V30 6381 N 613.412 0.11024 1.57214 0
M  V30 6382 C 614.322 -0.857077 2.18383 0
M  V30 6383 C 615.338 -1.29915 1.1575 0
M  V30 6384 O 616.514 -1.36394 1.48184 0
M  V30 6385 C 613.579 -2.09264 2.76423 0
M  V30 6386 C 612.64 -1.70333 3.94063 0
M  V30 6387 C 611.873 -2.87999 4.49324 0
M  V30 6388 O 612.096 -4.0317 4.03497 0
M  V30 6389 O 611.03 -2.6559 5.40135 0
M  V30 6390 H 614.856 -0.366561 3.0148 0
M  V30 6391 H 612.441 -0.114914 1.48957 0
M  V30 6392 H 614.323 -2.81644 3.13456 0
M  V30 6393 H 612.998 -2.57339 1.96363 0
M  V30 6394 H 611.905 -0.950864 3.61814 0
M  V30 6395 H 613.238 -1.27007 4.75531 0
M  V30 6396 N 614.89 -1.56749 -0.16351 0
M  V30 6397 C 616.306 -1.51043 -0.515567 0
M  V30 6398 C 616.506 -0.815855 -1.84245 0
M  V30 6399 O 615.562 -0.379477 -2.49632 0
M  V30 6400 C 616.875 -2.95791 -0.541114 0
M  V30 6401 C 618.423 -3.0664 -0.627776 0
M  V30 6402 C 618.898 -4.52861 -0.684141 0
M  V30 6403 N 620.389 -4.5714 -0.746818 0
M  V30 6404 C 621.124 -5.67634 -0.811137 0
M  V30 6405 N 620.62 -6.8774 -0.835811 0
M  V30 6406 N 622.413 -5.55624 -0.850756 0
M  V30 6407 H 614.564 -2.00307 0.70645 0
M  V30 6408 H 616.827 -0.912876 0.255659 0
M  V30 6409 H 616.533 -3.49797 0.365329 0
M  V30 6410 H 616.407 -3.50858 -1.38487 0
M  V30 6411 H 618.794 -2.52663 -1.52464 0
M  V30 6412 H 618.875 -2.54645 0.242805 0
M  V30 6413 H 618.519 -5.07472 0.2085 0
M  V30 6414 H 618.449 -5.02621 -1.57098 0
M  V30 6415 H 620.94 -3.70669 -0.735717 0
M  V30 6416 H 621.253 -7.67701 -0.886279 0
M  V30 6417 H 619.598 -6.90334 -0.803958 0
M  V30 6418 H 622.789 -4.60709 -0.828535 0
M  V30 6419 H 622.962 -6.41756 -0.897418 0
M  V30 6420 N 616.368 0.432326 -1.51554 0
M  V30 6421 C 617.779 1.01202 -1.56892 0
M  V30 6422 C 618.13 1.92175 -0.395394 0
M  V30 6423 O 617.255 2.10844 0.487198 0
M  V30 6424 C 617.85 1.84217 -2.8434 0
M  V30 6425 C 616.409 2.37228 -2.92233 0
M  V30 6426 C 615.556 1.16576 -2.51606 0
M  V30 6427 H 618.507 0.213407 -1.57259 0
M  V30 6428 H 618.528 2.69721 -2.68385 0
M  V30 6429 H 618.04 1.17979 -3.69733 0
M  V30 6430 H 616.141 3.06905 -2.11282 0
M  V30 6431 H 616.254 2.69682 -3.95991 0
M  V30 6432 H 614.618 1.51263 -2.04919 0
M  V30 6433 H 615.401 0.519404 -3.39348 0
M  V30 6434 N 617.846 1.41785 0.688094 0
M  V30 6435 C 619.262 1.24419 0.999608 0
M  V30 6436 C 619.462 0.138868 2.01021 0
M  V30 6437 O 618.518 -0.494283 2.47615 0
M  V30 6438 C 619.831 2.59625 1.51709 0
M  V30 6439 C 621.379 2.66869 1.63554 0
M  V30 6440 C 621.854 4.0241 2.18702 0
M  V30 6441 N 623.345 4.04295 2.26053 0
M  V30 6442 C 624.08 5.05977 2.69768 0
M  V30 6443 N 623.576 6.18047 3.13033 0
M  V30 6444 N 625.369 4.93336 2.69398 0
M  V30 6445 H 617.52 2.12392 0.0187427 0
M  V30 6446 H 619.783 0.945347 0.0708673 0
M  V30 6447 H 619.489 3.41297 0.849059 0
M  V30 6448 H 619.363 2.82628 2.49803 0
M  V30 6449 H 621.75 1.8555 2.29467 0
M  V30 6450 H 621.831 2.47668 0.639857 0
M  V30 6451 H 621.475 4.8418 1.53402 0
M  V30 6452 H 621.405 4.18955 3.19037 0
M  V30 6453 H 623.896 3.23383 1.9553 0
M  V30 6454 H 624.209 6.91498 3.45038 0
M  V30 6455 H 622.554 6.21572 3.10923 0
M  V30 6456 H 625.745 4.04865 2.34952 0
M  V30 6457 H 625.918 5.72717 3.03148 0
M  V30 6458 N 619.324 -0.923095 1.27737 0
M  V30 6459 C 620.735 -1.48626 1.12993 0
M  V30 6460 C 621.086 -1.94142 -0.283439 0
M  V30 6461 O 620.211 -1.81605 -1.17681 0
M  V30 6462 C 620.806 -2.70117 2.04505 0
M  V30 6463 C 619.365 -3.22642 1.93853 0
M  V30 6464 C 618.512 -1.95368 1.96791 0
M  V30 6465 H 621.463 -0.736737 1.40563 0
M  V30 6466 H 621.484 -3.4506 1.60356 0
M  V30 6467 H 620.996 -2.36959 3.07363 0
M  V30 6468 H 619.097 -3.60549 0.939968 0
M  V30 6469 H 619.21 -3.88525 2.80331 0
M  V30 6470 H 617.574 -2.12061 1.41076 0
M  V30 6471 H 618.357 -1.64517 3.01312 0
M  V30 6472 N 620.802 -1.09834 -1.13024 0
M  V30 6473 C 622.03 -0.858902 -1.8823 0
M  V30 6474 C 622.445 0.590164 -1.79339 0
M  V30 6475 O 621.802 1.4065 -1.16292 0
M  V30 6476 C 621.853 -1.29066 -3.37675 0
M  V30 6477 O 621.574 -2.6829 -3.46341 0
M  V30 6478 C 623.075 -1.08421 -4.29837 0
M  V30 6479 H 620.295 -0.308713 -0.595766 0
M  V30 6480 H 622.839 -1.4614 -1.4305 0
M  V30 6481 H 620.994 -0.731961 -3.80422 0
M  V30 6482 H 621.408 -2.86598 -4.39274 0
M  V30 6483 H 622.882 -1.43553 -5.33007 0
M  V30 6484 H 623.359 -0.0223315 -4.39194 0
M  V30 6485 H 623.965 -1.62907 -3.92863 0
M  V30 6486 N 622.28 1.30327 -0.886154 0
M  V30 6487 C 623.691 1.78243 -0.555554 0
M  V30 6488 C 624.042 1.72849 0.928314 0
M  V30 6489 O 623.167 1.30607 1.72542 0
M  V30 6490 C 623.762 3.23654 -1.00168 0
M  V30 6491 C 622.321 3.69401 -0.722471 0
M  V30 6492 C 621.468 2.50753 -1.18399 0
M  V30 6493 H 624.419 1.1718 -1.07026 0
M  V30 6494 H 624.44 3.79056 -0.331152 0
M  V30 6495 H 623.952 3.27548 -2.08169 0
M  V30 6496 H 622.053 3.70995 0.345496 0
M  V30 6497 H 622.166 4.60818 -1.31085 0
M  V30 6498 H 620.53 2.47452 -0.603303 0
M  V30 6499 H 621.313 2.57383 -2.27176 0
M  V30 6500 N 623.758 0.647228 1.43697 0
M  V30 6501 C 625.004 0.158422 2.0218 0
M  V30 6502 C 625.337 -1.22233 1.50907 0
M  V30 6503 O 624.612 -1.81478 0.699702 0
M  V30 6504 C 624.895 0.1627 3.59732 0
M  V30 6505 C 624.748 1.57694 4.21251 0
M  V30 6506 C 626.067 -0.504138 4.37203 0
M  V30 6507 H 623.186 0.059042 0.734631 0
M  V30 6508 H 625.828 0.826772 1.71069 0
M  V30 6509 H 623.978 -0.406414 3.86368 0
M  V30 6510 H 625.65 2.19618 4.05667 0
M  V30 6511 H 623.893 2.12603 3.7813 0
M  V30 6512 H 624.564 1.53183 5.3032 0
M  V30 6513 H 627.04 -0.0199841 4.16095 0
M  V30 6514 H 625.916 -0.470394 5.46881 0
M  V30 6515 H 626.177 -1.57726 4.13007 0
M  V30 6516 N 625.236 -1.5273 0.388769 0
M  V30 6517 C 626.166 -2.29353 -0.438111 0
M  V30 6518 C 627.147 -1.32719 -1.06394 0
M  V30 6519 O 628.332 -1.61612 -1.07681 0
M  V30 6520 C 625.462 -3.09995 -1.56589 0
M  V30 6521 C 624.416 -4.14509 -1.06613 0
M  V30 6522 C 623.742 -4.83372 -2.28594 0
M  V30 6523 C 625.042 -5.22127 -0.134459 0
M  V30 6524 H 626.736 -2.98723 0.201206 0
M  V30 6525 H 624.282 -1.43665 0.0982089 0
M  V30 6526 H 626.235 -3.62357 -2.15118 0
M  V30 6527 H 624.959 -2.38357 -2.23279 0
M  V30 6528 H 623.618 -3.63128 -0.503383 0
M  V30 6529 H 623.266 -4.08283 -2.93792 0
M  V30 6530 H 622.966 -5.54012 -1.95817 0
M  V30 6531 H 624.49 -5.38538 -2.87766 0
M  V30 6532 H 625.904 -5.69851 -0.627914 0
M  V30 6533 H 624.301 -6.00011 0.103534 0
M  V30 6534 H 625.371 -4.77971 0.816798 0
M  V30 6535 N 626.714 -0.118576 -1.57153 0
M  V30 6536 C 627.96 0.540326 -1.95469 0
M  V30 6537 C 628.293 1.66356 -1.00196 0
M  V30 6538 O 627.568 1.94461 -0.039104 0
M  V30 6539 C 627.851 1.07342 -3.43729 0
M  V30 6540 C 627.704 -0.0463732 -4.49776 0
M  V30 6541 C 629.023 1.96442 -3.93826 0
M  V30 6542 H 626.142 0.19494 -0.710751 0
M  V30 6543 H 628.784 -0.19405 -1.89006 0
M  V30 6544 H 626.934 1.69925 -3.49368 0
M  V30 6545 H 628.606 -0.681648 -4.56236 0
M  V30 6546 H 626.849 -0.709574 -4.27957 0
M  V30 6547 H 627.52 0.367856 -5.50773 0
M  V30 6548 H 629.996 1.43731 -3.90488 0
M  V30 6549 H 628.872 2.3066 -4.98084 0
M  V30 6550 H 629.133 2.89077 -3.34495 0
M  V30 6551 N 628.193 1.56834 0.155195 0
M  V30 6552 C 629.604 1.72421 0.716082 0
M  V30 6553 C 629.955 0.731685 1.82046 0
M  V30 6554 O 629.08 -0.103481 2.16152 0
M  V30 6555 C 629.675 3.12629 1.30571 0
M  V30 6556 C 628.234 3.29846 1.81325 0
M  V30 6557 C 627.381 2.68359 0.698494 0
M  V30 6558 H 630.332 1.58544 -0.0703861 0
M  V30 6559 H 630.353 3.12174 2.1755 0
M  V30 6560 H 629.865 3.84844 0.501701 0
M  V30 6561 H 627.966 2.62614 2.64319 0
M  V30 6562 H 628.079 4.37727 1.9476 0
M  V30 6563 H 626.443 2.28604 1.12305 0
M  V30 6564 H 627.226 3.43171 -0.0939366 0
M  V30 6565 N 629.671 -0.424282 1.51781 0
M  V30 6566 C 630.601 -1.52305 1.7699 0
M  V30 6567 C 631.582 -1.5839 0.620209 0
M  V30 6568 O 632.767 -1.73908 0.864268 0
M  V30 6569 C 629.897 -2.90271 1.90683 0
M  V30 6570 C 628.851 -2.99043 3.06198 0
M  V30 6571 C 628.177 -4.39116 3.05092 0
M  V30 6572 C 629.477 -2.7192 4.45934 0
M  V30 6573 H 631.171 -1.31461 2.68995 0
M  V30 6574 H 628.717 -0.630985 1.29439 0
M  V30 6575 H 630.67 -3.6711 2.06901 0
M  V30 6576 H 629.394 -3.12376 0.953365 0
M  V30 6577 H 628.053 -2.24646 2.89706 0
M  V30 6578 H 627.701 -4.58207 2.07498 0
M  V30 6579 H 627.401 -4.45912 3.82669 0
M  V30 6580 H 628.925 -5.17911 3.2342 0
M  V30 6581 H 630.339 -3.38487 4.62709 0
M  V30 6582 H 628.736 -2.90111 5.25315 0
M  V30 6583 H 629.806 -1.67445 4.55072 0
M  V30 6584 N 631.149 -1.42148 -0.680565 0
M  V30 6585 C 632.398 -1.41604 -1.43636 0
M  V30 6586 C 632.711 -0.0337887 -1.95571 0
M  V30 6587 O 633.917 0.0942588 -2.71336 0
M  V30 6588 C 632.373 -2.49056 -2.59806 0
M  V30 6589 C 631.981 -3.9326 -2.14594 0
M  V30 6590 C 633.725 -2.5767 -3.37352 0
M  V30 6591 C 631.632 -4.92232 -3.27813 0
M  V30 6592 H 630.562 -0.526656 -0.539583 0
M  V30 6593 H 633.213 -1.68033 -0.737369 0
M  V30 6594 H 631.595 -2.15782 -3.32045 0
M  V30 6595 H 632.769 -4.35858 -1.49546 0
M  V30 6596 H 631.084 -3.88443 -1.50002 0
M  V30 6597 H 633.681 -3.28794 -4.21662 0
M  V30 6598 H 634.024 -1.61837 -3.83555 0
M  V30 6599 H 634.557 -2.90109 -2.72179 0
M  V30 6600 H 631.296 -5.89522 -2.86607 0
M  V30 6601 H 630.816 -4.5427 -3.91661 0
M  V30 6602 H 632.495 -5.13684 -3.93367 0
M  V30 6603 N 632.627 0.916307 -1.28225 0
M  V30 6604 C 633.852 1.7043 -1.18188 0
M  V30 6605 C 634.277 1.86346 0.256274 0
M  V30 6606 O 633.635 1.37175 1.18544 0
M  V30 6607 C 633.683 3.07546 -1.88275 0
M  V30 6608 O 632.787 3.94904 -1.18848 0
M  V30 6609 H 632.128 0.521967 -0.410423 0
M  V30 6610 H 634.658 1.14589 -1.69501 0
M  V30 6611 H 634.668 3.57793 -1.96082 0
M  V30 6612 H 633.343 2.95279 -2.92887 0
M  V30 6613 H 631.92 3.53339 -1.19187 0
M  V30 6614 N 634.105 1.10431 1.1244 0
M  V30 6615 C 635.516 0.864439 1.65482 0
M  V30 6616 C 635.867 -0.60527 1.8663 0
M  V30 6617 O 634.992 -1.46492 1.59276 0
M  V30 6618 C 635.587 1.56267 3.0061 0
M  V30 6619 C 634.146 1.3695 3.50602 0
M  V30 6620 C 633.293 1.61209 2.25626 0
M  V30 6621 H 636.244 1.26203 0.962209 0
M  V30 6622 H 636.265 1.00166 3.67079 0
M  V30 6623 H 635.777 2.63231 2.85186 0
M  V30 6624 H 633.878 0.321481 3.71211 0
M  V30 6625 H 633.991 2.11143 4.30064 0
M  V30 6626 H 632.355 1.03482 2.32731 0
M  V30 6627 H 633.138 2.69425 2.12756 0
M  V30 6628 N 635.583 -1.29855 0.893053 0
M  V30 6629 C 636.994 -1.77946 0.564998 0
M  V30 6630 C 637.345 -1.73339 -0.919134 0
M  V30 6631 O 636.47 -1.3152 -1.71847 0
M  V30 6632 C 637.065 -3.23118 1.01883 0
M  V30 6633 C 635.624 -3.69013 0.742051 0
M  V30 6634 C 634.771 -2.50121 1.19727 0
M  V30 6635 H 637.722 -1.16611 1.07646 0
M  V30 6636 H 637.743 -3.78875 0.351249 0
M  V30 6637 H 637.255 -3.26439 2.09903 0
M  V30 6638 H 635.356 -3.71173 -0.325816 0
M  V30 6639 H 635.469 -4.60117 1.33527 0
M  V30 6640 H 633.833 -2.47128 0.616418 0
M  V30 6641 H 634.616 -2.56174 2.28538 0
M  V30 6642 N 637.061 -0.65484 -1.43351 0
M  V30 6643 C 638.307 -0.169142 -2.02093 0
M  V30 6644 C 638.64 1.21431 -1.51553 0
M  V30 6645 O 637.915 1.81105 -0.709317 0
M  V30 6646 C 638.198 -0.181775 -3.59641 0
M  V30 6647 C 638.051 -1.59926 -4.20409 0
M  V30 6648 C 639.37 0.480945 -4.37464 0
M  V30 6649 H 636.489 -0.0629371 -0.734308 0
M  V30 6650 H 639.131 -0.835833 -1.70628 0
M  V30 6651 H 637.281 0.385918 -3.86578 0
M  V30 6652 H 638.953 -2.21766 -4.04497 0
M  V30 6653 H 637.196 -2.14605 -3.76998 0
M  V30 6654 H 637.867 -1.55994 -5.295 0
M  V30 6655 H 640.343 -0.00208273 -4.161 0
M  V30 6656 H 639.219 0.441384 -5.47122 0
M  V30 6657 H 639.48 1.55533 -4.13838 0
M  V30 6658 N 638.539 1.52521 -0.396863 0
M  V30 6659 C 639.764 2.06571 0.185258 0
M  V30 6660 C 640.189 1.26605 1.39115 0
M  V30 6661 O 639.547 0.293055 1.78916 0
M  V30 6662 C 639.595 3.5674 0.526189 0
M  V30 6663 O 638.699 3.7929 1.61903 0
M  V30 6664 H 638.04 0.663712 0.0195474 0
M  V30 6665 H 640.57 1.966 -0.566519 0
M  V30 6666 H 640.58 4.00311 0.788338 0
M  V30 6667 H 639.255 4.14379 -0.355397 0
M  V30 6668 H 637.832 3.47605 1.35 0
M  V30 6669 N 640.017 0.126909 1.57088 0
M  V30 6670 C 641.428 -0.397201 1.82426 0
M  V30 6671 C 641.779 -1.66084 1.04453 0
M  V30 6672 O 640.904 -2.14534 0.283552 0
M  V30 6673 C 641.499 -0.727411 3.30899 0
M  V30 6674 C 640.058 -1.19612 3.56889 0
M  V30 6675 C 639.205 -0.20885 2.76512 0
M  V30 6676 H 642.156 0.351924 1.54749 0
M  V30 6677 H 642.177 -1.58407 3.45959 0
M  V30 6678 H 641.689 0.19247 3.87622 0
M  V30 6679 H 639.79 -2.13263 3.05532 0
M  V30 6680 H 639.903 -1.13598 4.65438 0
M  V30 6681 H 638.267 -0.697479 2.44964 0
M  V30 6682 H 639.05 0.704267 3.35998 0
M  V30 6683 N 641.495 -1.56914 -0.146875 0
M  V30 6684 C 642.72 -1.87881 -0.878386 0
M  V30 6685 C 643.145 -0.715945 -1.73942 0
M  V30 6686 O 642.503 0.334447 -1.78189 0
M  V30 6687 C 642.551 -3.17431 -1.71084 0
M  V30 6688 O 641.655 -3.01374 -2.81509 0
M  V30 6689 H 640.996 -0.617289 -0.244644 0
M  V30 6690 H 643.526 -2.04136 -0.137654 0
M  V30 6691 H 643.536 -3.49455 -2.10582 0
M  V30 6692 H 642.211 -4.01671 -1.07856 0
M  V30 6693 H 640.788 -2.80758 -2.45416 0
M  V30 6694 N 642.974 0.416227 -1.52004 0
M  V30 6695 C 644.199 1.19029 -1.69843 0
M  V30 6696 C 644.624 1.83708 -0.404103 0
M  V30 6697 O 643.982 1.69711 0.637787 0
M  V30 6698 C 644.03 2.23439 -2.83032 0
M  V30 6699 O 643.134 3.29419 -2.48106 0
M  V30 6700 H 642.475 0.347785 -0.565634 0
M  V30 6701 H 645.005 0.488871 -1.98674 0
M  V30 6702 H 645.015 2.67884 -3.07737 0
M  V30 6703 H 643.69 1.75745 -3.76944 0
M  V30 6704 H 642.267 2.90303 -2.34048 0
M  V30 6705 N 644.452 1.42507 0.673017 0
M  V30 6706 C 645.382 1.48916 1.79851 0
M  V30 6707 C 646.363 0.345566 1.66553 0
M  V30 6708 O 647.548 0.560116 1.85947 0
M  V30 6709 C 644.678 1.39258 3.18158 0
M  V30 6710 C 643.632 2.51662 3.46194 0
M  V30 6711 C 642.958 2.27062 4.84094 0
M  V30 6712 C 644.258 3.93968 3.42909 0
M  V30 6713 H 645.952 2.43114 1.74745 0
M  V30 6714 H 643.498 1.17013 0.839288 0
M  V30 6715 H 645.451 1.42349 3.96629 0
M  V30 6716 H 644.175 0.415542 3.23946 0
M  V30 6717 H 642.834 2.47891 2.70084 0
M  V30 6718 H 642.482 1.27648 4.86534 0
M  V30 6719 H 642.182 3.02398 5.03815 0
M  V30 6720 H 643.706 2.31905 5.64847 0
M  V30 6721 H 645.12 3.99332 4.11347 0
M  V30 6722 H 643.517 4.6917 3.74165 0
M  V30 6723 H 644.587 4.20512 2.41449 0
M  V30 6724 N 645.93 -0.909495 1.28709 0
M  V30 6725 C 647.178 -1.65577 1.15882 0
M  V30 6726 C 647.499 -1.928 -0.292108 0
M  V30 6727 O 646.769 -1.54716 -1.20166 0
M  V30 6728 H 645.349 -0.613714 0.425869 0
M  V30 6729 H 648.011 -1.09108 1.61498 0
M  V30 6730 H 647.107 -2.61634 1.70159 0
M  V30 6731 N 647.408 -1.11026 -1.11852 0
M  V30 6732 C 648.633 -0.879064 -1.87849 0
M  V30 6733 C 649.058 0.565406 -1.79401 0
M  V30 6734 O 648.416 1.39886 -1.15333 0
M  V30 6735 C 648.464 -1.33985 -3.34784 0
M  V30 6736 O 647.568 -0.508803 -4.09249 0
M  V30 6737 H 646.909 -0.316992 -0.583448 0
M  V30 6738 H 649.439 -1.47863 -1.41413 0
M  V30 6739 H 649.449 -1.33248 -3.85628 0
M  V30 6740 H 648.124 -2.39172 -3.40249 0
M  V30 6741 H 646.701 -0.581913 -3.68332 0
M  V30 6742 N 648.886 1.2938 -0.899927 0
M  V30 6743 C 650.163 1.9046 -0.445443 0
M  V30 6744 C 650.543 1.81683 1.07492 0
M  V30 6745 O 649.891 1.24371 1.91688 0
M  V30 6746 C 650.101 3.35529 -0.960279 0
M  V30 6747 C 651.449 4.12556 -1.00412 0
M  V30 6748 O 652.473 3.44434 -0.907965 0
M  V30 6749 O 651.332 5.34294 -1.14857 0
M  V30 6750 H 648.426 0.815253 -0.138893 0
M  V30 6751 H 650.972 1.37844 -0.989808 0
M  V30 6752 H 649.744 3.36074 -2.00425 0
M  V30 6753 H 649.367 3.95624 -0.395939 0
M  V30 6754 N 650.364 0.662433 1.43002 0
M  V30 6755 C 651.312 -0.035345 2.32573 0
M  V30 6756 C 652.306 -0.803505 1.49131 0
M  V30 6757 O 653.512 -0.712865 1.65282 0
M  V30 6758 H 649.887 -0.0302194 0.751393 0
M  V30 6759 H 651.858 0.737686 2.89138 0
M  V30 6760 C 650.607 -0.981575 3.33557 0
M  V30 6761 H 649.93 -0.399914 3.97795 0
M  V30 6762 H 651.37 -1.43873 3.98844 0
M  V30 6763 C 649.829 -2.08204 2.64863 0
M  V30 6764 O 650.359 -3.16698 2.47113 0
M  V30 6765 N 648.565 -1.85022 2.24088 0
M  V30 6766 H 648.112 -0.967909 2.38724 0
M  V30 6767 H 648.07 -2.58845 1.78457 0
M  V30 6768 N 651.842 -1.52309 0.404946 0
M  V30 6769 C 653.07 -2.06185 -0.171818 0
M  V30 6770 C 653.485 -1.27536 -1.39212 0
M  V30 6771 O 652.842 -0.326112 -1.79563 0
M  V30 6772 C 652.893 -3.57647 -0.526417 0
M  V30 6773 O 652.614 -4.3332 0.645417 0
M  V30 6774 C 654.115 -4.27925 -1.15736 0
M  V30 6775 H 651.335 -0.670632 -0.0222328 0
M  V30 6776 H 653.879 -1.96259 0.574692 0
M  V30 6777 H 652.034 -3.67595 -1.22282 0
M  V30 6778 H 652.448 -5.23328 0.35042 0
M  V30 6779 H 653.922 -5.35093 -1.35572 0
M  V30 6780 H 654.399 -3.84134 -2.12926 0
M  V30 6781 H 655.005 -4.22335 -0.501281 0
M  V30 6782 N 653.32 -0.135238 -1.57019 0
M  V30 6783 C 654.545 0.529343 -2.00531 0
M  V30 6784 C 654.97 1.58391 -1.01459 0
M  V30 6785 O 654.328 1.81296 0.0113986 0
M  V30 6786 C 654.376 1.11748 -3.42848 0
M  V30 6787 O 653.48 2.23267 -3.46736 0
M  V30 6788 H 652.821 0.130669 -0.651016 0
M  V30 6789 H 655.351 -0.228503 -2.0332 0
M  V30 6790 H 655.361 1.44905 -3.81401 0
M  V30 6791 H 654.036 0.345147 -4.14465 0
M  V30 6792 H 652.613 1.91428 -3.20015 0
M  V30 6793 N 654.798 1.5699 0.138552 0
M  V30 6794 C 656.023 1.88344 0.86841 0
M  V30 6795 C 656.448 0.725159 1.7356 0
M  V30 6796 O 655.806 -0.324992 1.78363 0
M  V30 6797 C 655.854 3.18334 1.69398 0
M  V30 6798 O 654.958 3.02863 2.79907 0
M  V30 6799 H 654.299 0.618577 0.241367 0
M  V30 6800 H 656.829 2.04207 0.126826 0
M  V30 6801 H 656.839 3.50567 2.08726 0
M  V30 6802 H 655.514 4.02238 1.05725 0
M  V30 6803 H 654.091 2.82056 2.43924 0
M  V30 6804 N 656.276 -0.40816 1.52223 0
M  V30 6805 C 657.226 -1.49648 1.72016 0
M  V30 6806 C 658.21 -1.50311 0.574069 0
M  V30 6807 O 659.402 -1.56271 0.831173 0
M  V30 6808 C 656.531 -2.87566 1.87512 0
M  V30 6809 C 655.617 -2.91547 3.07995 0
M  V30 6810 N 656.008 -2.65225 4.30685 0
M  V30 6811 C 654.306 -3.22715 3.07849 0
M  V30 6812 C 655.007 -2.75799 5.12162 0
M  V30 6813 N 653.983 -3.08719 4.4743 0
M  V30 6814 H 657.785 -1.28093 2.64517 0
M  V30 6815 H 655.299 -0.61588 1.50269 0
M  V30 6816 H 657.296 -3.65899 1.99809 0
M  V30 6817 H 655.956 -3.10118 0.962114 0
M  V30 6818 H 656.967 -2.39601 4.59142 0
M  V30 6819 H 653.644 -3.50856 2.26289 0
M  V30 6820 H 655.034 -2.59155 6.1991 0
M  V30 6821 N 657.755 -1.42862 -0.66545 0
M  V30 6822 C 658.703 -1.47319 -1.8 0
M  V30 6823 C 659.697 -0.347963 -1.65788 0
M  V30 6824 O 660.903 -0.521406 -1.72283 0
M  V30 6825 H 657.278 -0.461588 -0.593667 0
M  V30 6826 H 659.249 -2.42876 -1.7336 0
M  V30 6827 C 657.998 -1.40152 -3.18203 0
M  V30 6828 H 657.321 -2.26035 -3.2977 0
M  V30 6829 H 658.761 -1.47331 -3.9758 0
M  V30 6830 C 657.22 -0.117493 -3.36695 0
M  V30 6831 O 657.75 0.826058 -3.93115 0
M  V30 6832 N 655.956 -0.0316218 -2.90583 0
M  V30 6833 H 655.503 -0.800247 -2.44855 0
M  V30 6834 H 655.461 0.826835 -3.03333 0
M  V30 6835 N 659.233 0.902656 -1.29189 0
M  V30 6836 C 660.649 1.18296 -1.07137 0
M  V30 6837 C 660.849 2.00701 0.179223 0
M  V30 6838 O 659.905 2.3675 0.877812 0
M  V30 6839 C 661.218 1.90677 -2.32514 0
M  V30 6840 C 662.766 2.03515 -2.37804 0
M  V30 6841 C 663.241 2.79307 -3.62976 0
M  V30 6842 N 664.732 2.86862 -3.63681 0
M  V30 6843 C 665.467 3.46035 -4.57217 0
M  V30 6844 N 664.963 4.06399 -5.61081 0
M  V30 6845 N 666.756 3.43681 -4.44792 0
M  V30 6846 H 658.907 0.352765 -2.0945 0
M  V30 6847 H 661.17 0.21876 -0.922414 0
M  V30 6848 H 660.876 1.3756 -3.23682 0
M  V30 6849 H 660.75 2.91169 -2.39793 0
M  V30 6850 H 663.137 2.55809 -1.47125 0
M  V30 6851 H 663.218 1.02166 -2.34512 0
M  V30 6852 H 662.862 2.2769 -4.54004 0
M  V30 6853 H 662.792 3.80995 -3.63525 0
M  V30 6854 H 665.283 2.43987 -2.88581 0
M  V30 6855 H 665.596 4.49564 -6.2858 0
M  V30 6856 H 663.941 4.0487 -5.64894 0
M  V30 6857 H 667.132 2.9574 -3.62843 0
M  V30 6858 H 667.305 3.89503 -5.17872 0
M  V30 6859 N 660.711 1.11618 1.11262 0
M  V30 6860 C 662.122 0.881942 1.64556 0
M  V30 6861 C 662.473 -0.585442 1.87262 0
M  V30 6862 O 661.598 -1.44795 1.60821 0
M  V30 6863 C 662.193 1.59446 2.98935 0
M  V30 6864 C 660.752 1.40661 3.4913 0
M  V30 6865 C 659.899 1.63593 2.23903 0
M  V30 6866 H 662.85 1.27217 0.94877 0
M  V30 6867 H 662.871 1.04054 3.65996 0
M  V30 6868 H 662.383 2.66241 2.82378 0
M  V30 6869 H 660.484 0.360835 3.70849 0
M  V30 6870 H 660.597 2.15693 4.27801 0
M  V30 6871 H 658.961 1.05944 2.3162 0
M  V30 6872 H 659.744 2.71666 2.09886 0
M  V30 6873 N 662.189 -1.289 0.906776 0
M  V30 6874 C 663.466 -1.90221 0.455537 0
M  V30 6875 C 663.846 -1.82251 -1.06527 0
M  V30 6876 O 663.194 -1.25385 -1.91026 0
M  V30 6877 C 663.404 -3.35015 0.97806 0
M  V30 6878 C 664.752 -4.12018 1.02598 0
M  V30 6879 O 665.776 -3.43947 0.926218 0
M  V30 6880 O 664.635 -5.33677 1.17689 0
M  V30 6881 H 661.729 -0.814505 0.143214 0
M  V30 6882 H 664.275 -1.37317 0.997104 0
M  V30 6883 H 663.047 -3.35006 2.02204 0
M  V30 6884 H 662.67 -3.95408 0.416914 0
M  V30 6885 N 663.667 -0.670007 -1.42649 0
M  V30 6886 C 664.63 0.00204659 -2.292 0
M  V30 6887 C 665.63 0.733817 -1.4308 0
M  V30 6888 O 666.82 0.57254 -1.64522 0
M  V30 6889 C 663.952 1.01359 -3.25483 0
M  V30 6890 H 665.145 -0.759696 -2.90118 0
M  V30 6891 H 662.698 -0.432105 -1.50208 0
M  V30 6892 H 663.433 1.80399 -2.69493 0
M  V30 6893 H 663.218 0.492323 -3.88997 0
M  V30 6894 H 664.708 1.4824 -3.90403 0
M  V30 6895 N 665.145 1.52092 -0.413018 0
M  V30 6896 C 666.561 1.59471 -0.0640836 0
M  V30 6897 C 666.761 1.42562 1.42402 0
M  V30 6898 O 665.817 1.25453 2.19129 0
M  V30 6899 C 667.13 2.95392 -0.562474 0
M  V30 6900 C 668.678 3.08637 -0.520788 0
M  V30 6901 C 669.153 4.47044 -0.995752 0
M  V30 6902 N 670.644 4.53296 -0.952732 0
M  V30 6903 C 671.379 5.58669 -1.29138 0
M  V30 6904 N 670.875 6.71576 -1.70168 0
M  V30 6905 N 672.668 5.48898 -1.2111 0
M  V30 6906 H 664.819 1.6133 -1.38153 0
M  V30 6907 H 667.082 0.75916 -0.567785 0
M  V30 6908 H 666.788 3.13059 -1.60271 0
M  V30 6909 H 666.662 3.77191 0.0257875 0
M  V30 6910 H 669.049 2.90652 0.510412 0
M  V30 6911 H 669.13 2.28735 -1.14515 0
M  V30 6912 H 668.774 4.65773 -2.0253 0
M  V30 6913 H 668.704 5.25448 -0.348162 0
M  V30 6914 H 671.195 3.72248 -0.651119 0
M  V30 6915 H 671.508 7.47973 -1.9431 0
M  V30 6916 H 669.853 6.72847 -1.74075 0
M  V30 6917 H 673.044 4.59573 -0.889396 0
M  V30 6918 H 673.217 6.30912 -1.47833 0
M  V30 6919 N 666.623 0.143563 1.56945 0
M  V30 6920 C 667.9 -0.553285 1.87612 0
M  V30 6921 C 668.28 -1.83195 1.04894 0
M  V30 6922 O 667.628 -2.28102 0.134773 0
M  V30 6923 C 667.838 -0.822055 3.3918 0
M  V30 6924 C 669.186 -1.16435 4.08324 0
M  V30 6925 O 670.21 -0.911522 3.4434 0
M  V30 6926 O 669.069 -1.63996 5.21313 0
M  V30 6927 H 666.163 -0.281851 0.777489 0
M  V30 6928 H 668.709 0.179916 1.68744 0
M  V30 6929 H 667.481 0.0830265 3.91212 0
M  V30 6930 H 667.104 -1.60956 3.63564 0
M  V30 6931 N 668.101 -1.57061 -0.130224 0
M  V30 6932 C 669.512 -1.73539 -0.68856 0
M  V30 6933 C 669.863 -0.760554 -1.80859 0
M  V30 6934 O 668.988 0.0690796 -2.1629 0
M  V30 6935 C 669.583 -3.14666 -1.25581 0
M  V30 6936 C 668.142 -3.32689 -1.76055 0
M  V30 6937 C 667.289 -2.69436 -0.655712 0
M  V30 6938 H 670.24 -1.58412 0.0956002 0
M  V30 6939 H 670.261 -3.15595 -2.12556 0
M  V30 6940 H 669.773 -3.85593 -0.440412 0
M  V30 6941 H 667.874 -2.66786 -2.60108 0
M  V30 6942 H 667.987 -4.4077 -1.87772 0
M  V30 6943 H 666.351 -2.30362 -1.08654 0
M  V30 6944 H 667.134 -3.42979 0.14852 0
M  V30 6945 N 669.579 0.400081 -1.52437 0
M  V30 6946 C 670.995 0.739359 -1.41441 0
M  V30 6947 C 671.195 1.94512 -0.526053 0
M  V30 6948 O 670.251 2.525 0.00472502 0
M  V30 6949 C 671.564 0.984824 -2.84116 0
M  V30 6950 C 673.112 1.08698 -2.93519 0
M  V30 6951 C 673.587 1.36515 -4.37181 0
M  V30 6952 N 675.078 1.43361 -4.40457 0
M  V30 6953 C 675.813 1.66528 -5.48686 0
M  V30 6954 N 675.309 1.87239 -6.67018 0
M  V30 6955 N 677.102 1.68617 -5.36213 0
M  V30 6956 H 669.253 -0.393484 -2.08723 0
M  V30 6957 H 671.516 -0.1138 -0.941145 0
M  V30 6958 H 671.222 0.171096 -3.51284 0
M  V30 6959 H 671.096 1.90253 -3.25705 0
M  V30 6960 H 673.483 1.89129 -2.26526 0
M  V30 6961 H 673.564 0.147432 -2.55375 0
M  V30 6962 H 673.208 0.565982 -5.04737 0
M  V30 6963 H 673.138 2.31737 -4.7287 0
M  V30 6964 H 675.629 1.29108 -3.55161 0
M  V30 6965 H 675.942 2.04392 -7.45281 0
M  V30 6966 H 674.287 1.84486 -6.70067 0
M  V30 6967 H 677.478 1.5198 -4.42741 0
M  V30 6968 H 677.651 1.86332 -6.20632 0
M  V30 6969 N 671.057 1.43213 0.657864 0
M  V30 6970 C 672.282 1.48227 1.45064 0
M  V30 6971 C 672.707 0.0999939 1.87834 0
M  V30 6972 O 672.065 -0.905269 1.57081 0
M  V30 6973 C 672.113 2.42931 2.6649 0
M  V30 6974 O 671.217 1.91237 3.6538 0
M  V30 6975 H 670.558 0.501551 0.435135 0
M  V30 6976 H 673.088 1.8808 0.805431 0
M  V30 6977 H 673.098 2.6008 3.1436 0
M  V30 6978 H 671.773 3.43348 2.34701 0
M  V30 6979 H 670.35 1.83726 3.24498 0
M  V30 6980 N 672.536 -0.895792 1.29666 0
M  V30 6981 C 673.947 -1.46195 1.1612 0
M  V30 6982 C 674.298 -1.94699 -0.242195 0
M  V30 6983 O 673.423 -1.8406 -1.13802 0
M  V30 6984 C 674.018 -2.65718 2.10189 0
M  V30 6985 C 672.577 -3.18458 2.00653 0
M  V30 6986 C 671.724 -1.91149 2.00891 0
M  V30 6987 H 674.675 -0.706756 1.42094 0
M  V30 6988 H 674.696 -3.4158 1.6764 0
M  V30 6989 H 674.208 -2.30386 3.12321 0
M  V30 6990 H 672.309 -3.58474 1.01623 0
M  V30 6991 H 672.422 -3.82491 2.88509 0
M  V30 6992 H 670.786 -2.09021 1.45542 0
M  V30 6993 H 671.569 -1.58089 3.04734 0
M  V30 6994 N 674.014 -1.12206 -1.10668 0
M  V30 6995 C 675.244 -0.897332 -1.86095 0
M  V30 6996 C 675.652 0.556778 -1.80822 0
M  V30 6997 O 674.995 1.39658 -1.19337 0
M  V30 6998 C 675.057 -1.29095 -3.35522 0
M  V30 6999 C 674.721 -2.75586 -3.64556 0
M  V30 7000 C 675.718 -3.73785 -3.6136 0
M  V30 7001 C 673.403 -3.12432 -3.93309 0
M  V30 7002 C 675.397 -5.06845 -3.86506 0
M  V30 7003 C 673.084 -4.45675 -4.18111 0
M  V30 7004 C 674.082 -5.42691 -4.147 0
M  V30 7005 O 673.77 -6.73532 -4.38873 0
M  V30 7006 H 673.502 -0.320704 -0.595084 0
M  V30 7007 H 676.056 -1.49517 -1.40833 0
M  V30 7008 H 674.286 -0.636299 -3.81429 0
M  V30 7009 H 675.975 -1.04073 -3.92331 0
M  V30 7010 H 676.741 -3.46664 -3.39189 0
M  V30 7011 H 672.62 -2.3753 -3.95096 0
M  V30 7012 H 676.164 -5.82559 -3.83758 0
M  V30 7013 H 672.061 -4.72526 -4.39761 0
M  V30 7014 H 672.829 -6.79442 -4.564 0
M  V30 7015 N 675.492 1.28418 -0.913599 0
M  V30 7016 C 676.769 1.89977 -0.465619 0
M  V30 7017 C 677.149 1.82813 1.05559 0
M  V30 7018 O 676.497 1.26397 1.90358 0
M  V30 7019 C 676.707 3.34492 -0.995813 0
M  V30 7020 C 678.055 4.11468 -1.04782 0
M  V30 7021 O 679.079 3.43451 -0.944445 0
M  V30 7022 O 677.938 5.33046 -1.20518 0
M  V30 7023 H 675.032 0.813734 -0.147532 0
M  V30 7024 H 677.578 1.36786 -1.00437 0
M  V30 7025 H 676.35 3.33929 -2.03978 0
M  V30 7026 H 675.973 3.95181 -0.437878 0
M  V30 7027 N 676.97 0.677563 1.42291 0
M  V30 7028 C 678.219 0.198173 2.00724 0
M  V30 7029 C 678.532 -1.20325 1.54211 0
M  V30 7030 O 679.738 -1.77916 2.05081 0
M  V30 7031 C 678.194 0.303432 3.58619 0
M  V30 7032 C 677.802 1.70909 4.14119 0
M  V30 7033 C 679.546 -0.117103 4.24338 0
M  V30 7034 C 677.453 1.76696 5.64387 0
M  V30 7035 H 676.383 0.070329 0.750713 0
M  V30 7036 H 679.034 0.843147 1.62982 0
M  V30 7037 H 677.416 -0.409482 3.93877 0
M  V30 7038 H 678.59 2.44931 3.90315 0
M  V30 7039 H 676.905 2.07771 3.6086 0
M  V30 7040 H 679.502 -0.0940471 5.34617 0
M  V30 7041 H 679.845 -1.15283 4.00019 0
M  V30 7042 H 680.378 0.5449 3.9405 0
M  V30 7043 H 677.117 2.7826 5.93508 0
M  V30 7044 H 676.637 1.07034 5.90173 0
M  V30 7045 H 678.316 1.52166 6.28852 0
M  V30 7046 N 678.448 -1.51871 0.421078 0
M  V30 7047 C 679.673 -2.0684 -0.152371 0
M  V30 7048 C 680.098 -1.28802 -1.37083 0
M  V30 7049 O 679.456 -0.321482 -1.78427 0
M  V30 7050 C 679.504 -3.57532 -0.469368 0
M  V30 7051 O 678.608 -3.81818 -1.55848 0
M  V30 7052 H 677.949 -0.663939 -0.00898586 0
M  V30 7053 H 680.479 -1.95674 0.597724 0
M  V30 7054 H 680.489 -4.01515 -0.724553 0
M  V30 7055 H 679.164 -4.13761 0.421276 0
M  V30 7056 H 677.741 -3.49709 -1.29453 0
M  V30 7057 N 679.926 -0.151884 -1.56866 0
M  V30 7058 C 680.874 0.80299 -2.183 0
M  V30 7059 C 681.868 1.25174 -1.14139 0
M  V30 7060 O 683.074 1.21966 -1.3238 0
M  V30 7061 H 679.449 0.277169 -0.699057 0
M  V30 7062 H 681.42 0.260699 -2.97259 0
M  V30 7063 C 680.169 2.03009 -2.82281 0
M  V30 7064 H 679.492 1.69377 -3.62148 0
M  V30 7065 H 680.932 2.67753 -3.28762 0
M  V30 7066 C 679.391 2.84123 -1.81041 0
M  V30 7067 O 679.921 3.8063 -1.28388 0
M  V30 7068 N 678.127 2.48753 -1.50234 0
M  V30 7069 H 677.674 1.70337 -1.93244 0
M  V30 7070 H 677.632 3.03316 -0.827445 0
M  V30 7071 N 681.404 1.57128 0.121893 0
M  V30 7072 C 682.632 1.88883 0.844451 0
M  V30 7073 C 683.047 0.742824 1.73573 0
M  V30 7074 O 682.404 -0.286475 1.80238 0
M  V30 7075 C 682.455 3.20076 1.68029 0
M  V30 7076 O 682.176 4.30264 0.824898 0
M  V30 7077 C 683.677 3.65515 2.50826 0
M  V30 7078 H 680.897 0.62549 0.242907 0
M  V30 7079 H 683.441 2.04219 0.107151 0
M  V30 7080 H 681.596 3.06418 2.37038 0
M  V30 7081 H 682.01 5.05439 1.40113 0
M  V30 7082 H 683.484 4.60081 3.05008 0
M  V30 7083 H 683.961 2.92029 3.28048 0
M  V30 7084 H 684.567 3.81952 1.87064 0
M  V30 7085 N 682.882 -0.391992 1.52647 0
M  V30 7086 C 684.159 -1.15136 1.58123 0
M  V30 7087 C 684.539 -2.07786 0.372597 0
M  V30 7088 O 683.887 -2.19374 -0.639304 0
M  V30 7089 C 684.097 -1.91367 2.91856 0
M  V30 7090 C 685.445 -2.46833 3.45483 0
M  V30 7091 O 686.469 -2.01527 2.9371 0
M  V30 7092 O 685.328 -3.29587 4.3593 0
M  V30 7093 H 682.422 -0.526649 0.637629 0
M  V30 7094 H 684.968 -0.397386 1.64982 0
M  V30 7095 H 683.74 -1.23597 3.71268 0
M  V30 7096 H 683.363 -2.73732 2.88369 0
M  V30 7097 N 684.36 -1.4356 -0.65026 0
M  V30 7098 C 685.59 -1.48563 -1.4357 0
M  V30 7099 C 685.998 -0.103041 -1.88919 0
M  V30 7100 O 685.341 0.897602 -1.60277 0
M  V30 7101 C 685.403 -2.37181 -2.70158 0
M  V30 7102 C 685.067 -3.84673 -2.4673 0
M  V30 7103 C 686.064 -4.75704 -2.09765 0
M  V30 7104 C 683.749 -4.29189 -2.60963 0
M  V30 7105 C 685.743 -6.09249 -1.87334 0
M  V30 7106 C 683.43 -5.62787 -2.38147 0
M  V30 7107 C 684.428 -6.52634 -2.01389 0
M  V30 7108 O 684.116 -7.83761 -1.78813 0
M  V30 7109 H 683.848 -0.506743 -0.447423 0
M  V30 7110 H 686.402 -1.89001 -0.80423 0
M  V30 7111 H 684.632 -1.91636 -3.35876 0
M  V30 7112 H 686.321 -2.33354 -3.32116 0
M  V30 7113 H 687.087 -4.42589 -1.98343 0
M  V30 7114 H 682.966 -3.59529 -2.88548 0
M  V30 7115 H 686.51 -6.7934 -1.58567 0
M  V30 7116 H 682.407 -5.95469 -2.49173 0
M  V30 7117 H 683.175 -7.95368 -1.93214 0
M  V30 7118 N 685.838 0.888903 -1.30139 0
M  V30 7119 C 687.085 1.64037 -1.18736 0
M  V30 7120 C 687.413 1.92771 0.258801 0
M  V30 7121 O 686.668 1.54427 1.20212 0
M  V30 7122 C 686.967 2.99041 -1.95728 0
M  V30 7123 C 686.633 2.89874 -3.45375 0
M  V30 7124 C 685.295 2.87082 -3.86183 0
M  V30 7125 C 687.647 2.78289 -4.40687 0
M  V30 7126 C 684.975 2.70536 -5.20603 0
M  V30 7127 C 687.327 2.63282 -5.75209 0
M  V30 7128 C 685.991 2.58861 -6.15262 0
M  V30 7129 H 685.261 0.600253 -0.434485 0
M  V30 7130 H 687.908 1.0338 -1.61198 0
M  V30 7131 H 686.213 3.63626 -1.45888 0
M  V30 7132 H 687.91 3.56139 -1.843 0
M  V30 7133 H 684.5 2.92856 -3.12943 0
M  V30 7134 H 688.684 2.79516 -4.10103 0
M  V30 7135 H 683.94 2.65526 -5.50732 0
M  V30 7136 H 688.114 2.5329 -6.48704 0
M  V30 7137 H 685.741 2.45799 -7.19366 0
M  V30 7138 N 687.317 1.12792 1.10072 0
M  V30 7139 C 688.564 0.885545 1.82111 0
M  V30 7140 C 688.892 -0.588519 1.85383 0
M  V30 7141 O 688.147 -1.45124 1.31292 0
M  V30 7142 C 688.446 1.4102 3.28403 0
M  V30 7143 C 688.112 2.89995 3.45273 0
M  V30 7144 C 686.774 3.30671 3.49585 0
M  V30 7145 C 689.126 3.85874 3.50358 0
M  V30 7146 C 686.454 4.65925 3.56553 0
M  V30 7147 C 688.806 5.20963 3.58859 0
M  V30 7148 C 687.47 5.61177 3.61437 0
M  V30 7149 H 686.74 0.324044 0.666391 0
M  V30 7150 H 689.387 1.40874 1.29718 0
M  V30 7151 H 687.692 0.807551 3.83387 0
M  V30 7152 H 689.389 1.19882 3.82661 0
M  V30 7153 H 685.979 2.57537 3.42597 0
M  V30 7154 H 690.163 3.5554 3.46273 0
M  V30 7155 H 685.419 4.96468 3.56833 0
M  V30 7156 H 689.593 5.95079 3.61738 0
M  V30 7157 H 687.22 6.6597 3.66589 0
M  V30 7158 N 688.795 -1.27931 0.920396 0
M  V30 7159 C 690.206 -1.76707 0.602616 0
M  V30 7160 C 690.557 -1.75249 -0.882159 0
M  V30 7161 O 689.682 -1.35135 -1.69019 0
M  V30 7162 C 690.277 -3.20884 1.08714 0
M  V30 7163 C 688.836 -3.67356 0.820157 0
M  V30 7164 C 687.983 -2.47525 1.25006 0
M  V30 7165 H 690.934 -1.14301 1.10095 0
M  V30 7166 H 690.955 -3.78045 0.431535 0
M  V30 7167 H 690.467 -3.21913 2.1678 0
M  V30 7168 H 688.568 -3.7178 -0.247012 0
M  V30 7169 H 688.681 -4.57181 1.43257 0
M  V30 7170 H 687.045 -2.45765 0.668698 0
M  V30 7171 H 687.828 -2.51269 2.3392 0
M  V30 7172 N 690.273 -0.685099 -1.4193 0
M  V30 7173 C 691.689 -0.355632 -1.55587 0
M  V30 7174 C 691.889 1.13823 -1.66273 0
M  V30 7175 O 690.945 1.92387 -1.63534 0
M  V30 7176 C 692.258 -1.09498 -2.80055 0
M  V30 7177 C 693.806 -1.07831 -2.93839 0
M  V30 7178 C 694.281 -1.79919 -4.21181 0
M  V30 7179 N 695.772 -1.76837 -4.28115 0
M  V30 7180 C 696.507 -2.29463 -5.25485 0
M  V30 7181 N 696.003 -2.90516 -6.28945 0
M  V30 7182 N 697.796 -2.19779 -5.17353 0
M  V30 7183 H 689.947 -1.65412 -1.33239 0
M  V30 7184 H 692.21 -0.697453 -0.642078 0
M  V30 7185 H 691.916 -2.14997 -2.78333 0
M  V30 7186 H 691.79 -0.666813 -3.71259 0
M  V30 7187 H 694.177 -0.0316152 -2.95083 0
M  V30 7188 H 694.258 -1.54545 -2.03837 0
M  V30 7189 H 693.902 -2.84562 -4.20698 0
M  V30 7190 H 693.832 -1.30647 -5.10136 0
M  V30 7191 H 696.323 -1.32315 -3.53979 0
M  V30 7192 H 696.636 -3.28266 -6.99615 0
M  V30 7193 H 694.981 -2.94589 -6.29478 0
M  V30 7194 H 698.172 -1.71763 -4.35448 0
M  V30 7195 H 698.345 -2.61097 -5.9307 0
M  V30 7196 O 691.79 1.51061 -0.571204 0
M  V30 7197 H 692.481 1.93564 -0.0726397 0
M  V30 END ATOM
M  V30 BEGIN BOND
M  V30 END BOND
M  V30 END CTAB
M  END
$$$$
