drugbank_target|Q96NX5 Calcium/calmodulin-dependent protein kinase type 1G (DB08009; DB12010)
 OpenBabel12092120473D

  0  0  0     0  0            999 V3000
M  V30 BEGIN CTAB
M  V30 COUNTS 7447 7531 0 0 0
M  V30 BEGIN ATOM
M  V30 1 H -0.908 1.98254 -0.117106 0
M  V30 2 N 0 1.576 0 0
M  V30 3 C 0.933 2.03868 1.02534 0
M  V30 4 C 1.911 0.928543 1.3348 0
M  V30 5 O 3.095 1.19667 1.45644 0
M  V30 6 C 0.222 2.43627 2.35294 0
M  V30 7 C -0.732 3.65373 2.2001 0
M  V30 8 S 0.101 5.13292 1.52614 0
M  V30 9 C 1.257 5.56322 2.86805 0
M  V30 10 H 1.49 2.90518 0.631377 0
M  V30 11 H -0.977 1.52953 0.210867 0
M  V30 12 H 0.981 2.67203 3.11629 0
M  V30 13 H -0.358 1.57376 2.7183 0
M  V30 14 H -1.165 3.90944 3.18086 0
M  V30 15 H -1.563 3.418 1.51819 0
M  V30 16 H 0.729 5.58782 3.83104 0
M  V30 17 H 1.672 6.56266 2.65933 0
M  V30 18 H 2.08 4.83886 2.90714 0
M  V30 19 N 1.4781 -0.272755 1.55222 0
M  V30 20 C 2.7261 -1.00234 1.75492 0
M  V30 21 C 3.0471 -1.8681 0.5592 0
M  V30 22 O 2.3171 -1.91215 -0.425882 0
M  V30 23 H 0.8971 -0.373076 0.647166 0
M  V30 24 H 3.5591 -0.296926 1.92625 0
M  V30 25 H 2.6551 -1.63913 2.65592 0
M  V30 26 N 2.9562 -1.48159 -0.537278 0
M  V30 27 C 4.3722 -1.34118 -0.865129 0
M  V30 28 C 4.5722 -0.346678 -1.98495 0
M  V30 29 O 3.6282 0.234715 -2.51407 0
M  V30 30 C 4.9412 -2.73963 -1.23954 0
M  V30 31 C 6.4892 -2.82397 -1.34984 0
M  V30 32 C 6.9642 -4.22928 -1.75772 0
M  V30 33 N 8.4552 -4.25566 -1.82887 0
M  V30 34 C 9.1902 -5.31235 -2.15817 0
M  V30 35 N 8.6862 -6.47189 -2.47222 0
M  V30 36 N 10.4792 -5.18624 -2.16761 0
M  V30 37 H 2.6302 -2.1144 0.201715 0
M  V30 38 H 4.8932 -0.947598 0.0275949 0
M  V30 39 H 4.5992 -3.48264 -0.490381 0
M  V30 40 H 4.4732 -3.0702 -2.19132 0
M  V30 41 H 6.8602 -2.08356 -2.08978 0
M  V30 42 H 6.9412 -2.5297 -0.379448 0
M  V30 43 H 6.5852 -4.97482 -1.02341 0
M  V30 44 H 6.5152 -4.49794 -2.73848 0
M  V30 45 H 9.0062 -3.41924 -1.60924 0
M  V30 46 H 9.3192 -7.23564 -2.71433 0
M  V30 47 H 7.6642 -6.50476 -2.44757 0
M  V30 48 H 10.8552 -4.27056 -1.91679 0
M  V30 49 H 11.0282 -6.01078 -2.42093 0
M  V30 50 N 4.4343 0.785586 -1.36625 0
M  V30 51 C 5.3813 1.89838 -1.31264 0
M  V30 52 C 6.3513 1.65115 -0.180633 0
M  V30 53 O 7.5363 1.87222 -0.36777 0
M  V30 54 C 4.6763 3.26706 -1.11163 0
M  V30 55 C 3.7893 3.63476 -2.33472 0
M  V30 56 C 2.9243 4.89481 -2.06353 0
M  V30 57 C 1.9633 5.18941 -3.24602 0
M  V30 58 N 1.1003 6.36131 -2.97123 0
M  V30 59 H 5.9403 1.93756 -2.26413 0
M  V30 60 H 3.4773 0.947454 -1.12524 0
M  V30 61 H 5.4353 4.05639 -0.975337 0
M  V30 62 H 4.0653 3.222 -0.196674 0
M  V30 63 H 3.1173 2.79636 -2.57891 0
M  V30 64 H 4.4293 3.81193 -3.21704 0
M  V30 65 H 3.5833 5.76288 -1.89675 0
M  V30 66 H 2.3223 4.73841 -1.15437 0
M  V30 67 H 1.3273 4.30615 -3.41834 0
M  V30 68 H 2.5523 5.36498 -4.16349 0
M  V30 69 H 0.4983 6.21875 -2.08823 0
M  V30 70 H 0.4153 6.54198 -3.78894 0
M  V30 71 H 1.6833 7.2591 -2.84033 0
M  V30 72 N 5.9124 1.20967 1.01018 0
M  V30 73 C 6.8224 0.980157 2.13143 0
M  V30 74 C 7.8384 -0.0660665 1.73875 0
M  V30 75 O 9.0144 0.122821 2.01025 0
M  V30 76 C 6.0794 0.54216 3.42435 0
M  V30 77 C 5.1404 1.65999 3.95908 0
M  V30 78 C 4.3734 1.2428 5.19028 0
M  V30 79 O 4.5964 0.114196 5.70286 0
M  V30 80 O 3.5304 2.05271 5.65816 0
M  V30 81 H 7.3564 1.91913 2.35379 0
M  V30 82 H 4.9414 0.994099 1.11526 0
M  V30 83 H 6.8234 0.30744 4.20277 0
M  V30 84 H 5.4984 -0.36815 3.216 0
M  V30 85 H 4.4054 1.94906 3.19316 0
M  V30 86 H 5.7384 2.54753 4.21143 0
M  V30 87 N 7.3905 -1.2043 1.01659 0
M  V30 88 C 8.3005 -2.2689 0.596484 0
M  V30 89 C 9.3165 -1.70107 -0.36599 0
M  V30 90 O 10.4925 -2.00117 -0.226942 0
M  V30 91 C 7.5575 -3.4665 -0.0586659 0
M  V30 92 C 6.6185 -4.18662 0.949751 0
M  V30 93 C 5.8515 -5.32705 0.32577 0
M  V30 94 O 6.0745 -5.63656 -0.874509 0
M  V30 95 O 5.0085 -5.92803 1.04249 0
M  V30 96 H 8.8345 -2.65041 1.4828 0
M  V30 97 H 6.4195 -1.27048 0.786082 0
M  V30 98 H 8.3015 -4.19256 -0.424564 0
M  V30 99 H 6.9765 -3.10375 -0.91918 0
M  V30 100 H 5.8835 -3.48229 1.36702 0
M  V30 101 H 7.2165 -4.58878 1.78023 0
M  V30 102 N 8.8686 -0.792821 -1.36206 0
M  V30 103 C 10.1456 -0.290627 -1.93429 0
M  V30 104 C 10.5256 1.21773 -1.72437 0
M  V30 105 O 9.8736 2.0108 -1.08531 0
M  V30 106 C 10.0836 -0.686973 -3.42172 0
M  V30 107 C 11.4316 -0.668643 -4.19302 0
M  V30 108 O 12.4556 -0.627658 -3.50626 0
M  V30 109 O 11.3146 -0.714597 -5.41808 0
M  V30 110 H 8.4086 -0.0727927 -0.82379 0
M  V30 111 H 10.9546 -0.875593 -1.45367 0
M  V30 112 H 9.7266 -1.72711 -3.51122 0
M  V30 113 H 9.3496 -0.0760733 -3.97527 0
M  V30 114 N 10.3467 1.47872 -0.545128 0
M  V30 115 C 11.6237 1.9554 0.0485222 0
M  V30 116 C 12.0037 1.4876 1.49779 0
M  V30 117 O 11.3517 0.720925 2.16829 0
M  V30 118 C 11.5617 3.48898 -0.084417 0
M  V30 119 C 12.9097 4.24547 0.0671239 0
M  V30 120 O 13.9337 3.56198 -0.0113649 0
M  V30 121 O 12.7927 5.45999 0.233882 0
M  V30 122 H 9.8867 0.823957 0.0708773 0
M  V30 123 H 12.4327 1.58327 -0.610798 0
M  V30 124 H 11.2047 3.75714 -1.09337 0
M  V30 125 H 10.8277 3.92845 0.613066 0
M  V30 126 N 11.8248 0.280983 1.55075 0
M  V30 127 C 13.0648 -0.335234 2.01632 0
M  V30 128 C 13.4288 -1.5261 1.16508 0
M  V30 129 O 14.6298 -2.21235 1.52672 0
M  V30 130 C 12.9008 -0.702172 3.50434 0
M  V30 131 S 14.4598 -1.30409 4.18974 0
M  V30 132 H 11.2778 -0.103967 0.703358 0
M  V30 133 H 13.8798 0.404187 1.91276 0
M  V30 134 H 12.5838 0.17333 4.10034 0
M  V30 135 H 12.1148 -1.4729 3.64786 0
M  V30 136 H 14.1298 -2.59253 4.23087 0
M  V30 137 N 13.3029 -1.57598 0.00835791 0
M  V30 138 C 14.5279 -1.95617 -0.689103 0
M  V30 139 C 14.9529 -0.883753 -1.66046 0
M  V30 140 O 14.3109 0.157352 -1.80616 0
M  V30 141 C 14.3589 -3.32736 -1.38994 0
M  V30 142 O 13.4629 -3.27631 -2.50463 0
M  V30 143 H 12.8039 -0.638379 -0.182668 0
M  V30 144 H 15.3339 -2.045 0.064036 0
M  V30 145 H 15.3439 -3.68494 -1.75147 0
M  V30 146 H 14.0189 -4.1034 -0.677778 0
M  V30 147 H 12.5959 -3.03561 -2.16576 0
M  V30 148 N 14.781 0.264519 -1.55364 0
M  V30 149 C 16.006 1.01726 -1.80739 0
M  V30 150 C 16.431 1.78836 -0.583044 0
M  V30 151 O 15.789 1.75167 0.467566 0
M  V30 152 C 15.837 1.94482 -3.03659 0
M  V30 153 O 14.941 3.03386 -2.7934 0
M  V30 154 H 14.282 0.290395 -0.597132 0
M  V30 155 H 16.812 0.290854 -2.02522 0
M  V30 156 H 16.822 2.36278 -3.32621 0
M  V30 157 H 15.497 1.37772 -3.92418 0
M  V30 158 H 14.074 2.65844 -2.61498 0
M  V30 159 N 16.2591 1.48442 0.529413 0
M  V30 160 C 17.5051 1.57699 1.28463 0
M  V30 161 C 17.8601 0.247913 1.90796 0
M  V30 162 O 17.1531 -0.749279 1.76342 0
M  V30 163 C 17.3471 2.6523 2.39558 0
M  V30 164 C 17.1761 4.08464 1.88114 0
M  V30 165 C 15.9461 4.75596 1.70693 0
M  V30 166 C 18.1441 4.94613 1.40935 0
M  V30 167 N 16.1261 6.03245 1.13881 0
M  V30 168 C 17.4971 6.12511 0.960734 0
M  V30 169 C 19.5521 4.80833 1.29243 0
M  V30 170 C 18.2551 7.18149 0.406792 0
M  V30 171 C 20.2811 5.86593 0.752487 0
M  V30 172 C 19.6431 7.037 0.313946 0
M  V30 173 H 15.7421 0.631608 0.46108 0
M  V30 174 H 18.3261 1.85325 0.596886 0
M  V30 175 H 16.4971 2.39425 3.05827 0
M  V30 176 H 18.2291 2.64169 3.06589 0
M  V30 177 H 14.9841 4.31938 1.94232 0
M  V30 178 H 15.4081 6.71324 0.874831 0
M  V30 179 H 20.0501 3.90635 1.61754 0
M  V30 180 H 17.7681 8.0807 0.0693671 0
M  V30 181 H 21.3541 5.77985 0.665192 0
M  V30 182 H 20.2341 7.8414 -0.0973632 0
M  V30 183 N 17.7372 -0.778329 1.37039 0
M  V30 184 C 18.6842 -1.89139 1.32269 0
M  V30 185 C 19.6542 -1.65017 0.189387 0
M  V30 186 O 20.8392 -1.87024 0.377693 0
M  V30 187 C 17.9792 -3.26112 1.12894 0
M  V30 188 C 17.0922 -3.62233 2.35396 0
M  V30 189 C 16.2272 -4.8838 2.08946 0
M  V30 190 C 15.2662 -5.17212 3.2735 0
M  V30 191 N 14.4032 -6.34546 3.00492 0
M  V30 192 H 19.2432 -1.92552 2.27437 0
M  V30 193 H 16.7802 -0.941473 1.13025 0
M  V30 194 H 18.7382 -4.05116 0.996835 0
M  V30 195 H 17.3682 -3.22091 0.213758 0
M  V30 196 H 16.4202 -2.78265 2.5937 0
M  V30 197 H 17.7322 -3.79481 3.23721 0
M  V30 198 H 16.8862 -5.75274 1.92729 0
M  V30 199 H 15.6252 -4.73222 1.17949 0
M  V30 200 H 14.6302 -4.28796 3.44113 0
M  V30 201 H 15.8552 -5.34283 4.19188 0
M  V30 202 H 13.8012 -6.20759 2.12118 0
M  V30 203 H 13.7182 -6.52179 3.82358 0
M  V30 204 H 14.9862 -7.24394 2.87879 0
M  V30 205 N 19.2153 -1.21501 -1.00376 0
M  V30 206 C 20.1623 -0.975387 -2.09177 0
M  V30 207 C 21.1323 0.0990615 -1.65804 0
M  V30 208 O 22.3173 -0.0483147 -1.90739 0
M  V30 209 C 19.4573 -0.547507 -3.40729 0
M  V30 210 C 18.5703 -1.69153 -3.97506 0
M  V30 211 C 17.7053 -1.2127 -5.17172 0
M  V30 212 C 16.7443 -2.32897 -5.66061 0
M  V30 213 N 15.8813 -1.86138 -6.76976 0
M  V30 214 H 20.7213 -1.9068 -2.29009 0
M  V30 215 H 18.2583 -0.950257 -1.12288 0
M  V30 216 H 20.2163 -0.280667 -4.16255 0
M  V30 217 H 18.8463 0.346904 -3.20931 0
M  V30 218 H 17.8983 -2.07298 -3.18954 0
M  V30 219 H 19.2103 -2.5316 -4.29781 0
M  V30 220 H 18.3643 -0.902591 -5.99948 0
M  V30 221 H 17.1033 -0.342692 -4.86495 0
M  V30 222 H 16.1083 -2.64709 -4.81881 0
M  V30 223 H 17.3333 -3.20396 -5.98768 0
M  V30 224 H 15.2793 -1.01484 -6.48103 0
M  V30 225 H 15.1963 -2.63717 -7.08512 0
M  V30 226 H 16.4643 -1.58165 -7.63285 0
M  V30 227 N 20.6934 1.19889 -1.02296 0
M  V30 228 C 21.6254 2.22334 -0.556787 0
M  V30 229 C 22.6384 1.58674 0.364199 0
M  V30 230 O 23.8274 1.77768 0.161533 0
M  V30 231 C 20.9274 3.38257 0.208694 0
M  V30 232 C 20.1004 4.31504 -0.71577 0
M  V30 233 C 19.1594 5.262 0.00325597 0
M  V30 234 O 18.1854 5.65798 -0.621357 0
M  V30 235 N 19.3874 5.66303 1.27599 0
M  V30 236 H 22.1524 2.62957 -1.43784 0
M  V30 237 H 19.7134 1.34495 -0.901261 0
M  V30 238 H 21.7054 3.98616 0.699111 0
M  V30 239 H 20.2754 2.96472 0.991102 0
M  V30 240 H 19.4954 3.69016 -1.38638 0
M  V30 241 H 20.7834 4.9072 -1.34428 0
M  V30 242 H 20.1814 5.36155 1.80429 0
M  V30 243 H 18.7384 6.28942 1.71102 0
M  V30 244 N 22.1715 0.800033 1.35784 0
M  V30 245 C 23.3995 0.389606 2.03199 0
M  V30 246 C 23.8145 -0.997375 1.60306 0
M  V30 247 O 23.1715 -1.64154 0.797481 0
M  V30 248 C 23.2225 0.455855 3.58614 0
M  V30 249 O 22.9435 1.78815 3.99946 0
M  V30 250 C 24.4445 0.0374032 4.43284 0
M  V30 251 H 21.6645 0.159132 0.651857 0
M  V30 252 H 24.2085 1.08183 1.73541 0
M  V30 253 H 22.3635 -0.188057 3.86943 0
M  V30 254 H 22.7775 1.74636 4.94573 0
M  V30 255 H 24.2515 0.134882 5.51835 0
M  V30 256 H 24.7285 -1.01651 4.27275 0
M  V30 257 H 25.3345 0.654215 4.20238 0
M  V30 258 N 23.6496 -1.47581 0.552962 0
M  V30 259 C 24.8776 -2.06875 0.0320556 0
M  V30 260 C 25.2926 -1.40625 -1.25976 0
M  V30 261 O 24.6496 -0.501349 -1.75479 0
M  V30 262 C 24.7006 -3.61092 -0.17167 0
M  V30 263 O 24.4216 -4.24858 1.06899 0
M  V30 264 C 25.9226 -4.37242 -0.730344 0
M  V30 265 H 23.1426 -0.669561 0.043915 0
M  V30 266 H 25.6866 -1.89646 0.765163 0
M  V30 267 H 23.8416 -3.7785 -0.854894 0
M  V30 268 H 24.2556 -5.17334 0.864059 0
M  V30 269 H 25.7296 -5.45842 -0.822203 0
M  V30 270 H 26.2066 -4.03235 -1.74064 0
M  V30 271 H 26.8126 -4.25219 -0.0829543 0
M  V30 272 N 25.1277 -0.289203 -1.54924 0
M  V30 273 C 26.0757 0.607966 -2.24514 0
M  V30 274 C 27.0697 1.14655 -1.24702 0
M  V30 275 O 28.2757 1.09856 -1.4259 0
M  V30 276 H 24.6507 0.21464 -0.720718 0
M  V30 277 H 26.6217 -0.00164182 -2.984 0
M  V30 278 C 25.3707 1.77406 -2.99036 0
M  V30 279 H 24.6937 1.36884 -3.75637 0
M  V30 280 H 26.1337 2.37814 -3.51028 0
M  V30 281 C 24.5927 2.67107 -2.05318 0
M  V30 282 O 25.1227 3.6787 -1.61353 0
M  V30 283 N 23.3287 2.34582 -1.71521 0
M  V30 284 H 22.8757 1.52688 -2.07471 0
M  V30 285 H 22.8337 2.94867 -1.0909 0
M  V30 286 N 26.6058 1.57591 -0.0167156 0
M  V30 287 C 27.8548 1.90461 0.663877 0
M  V30 288 C 28.1678 0.893515 1.73999 0
M  V30 289 O 29.3738 1.11302 2.47637 0
M  V30 290 C 27.8298 3.38155 1.23204 0
M  V30 291 C 27.4378 4.47597 0.189866 0
M  V30 292 C 29.1818 3.80111 1.88986 0
M  V30 293 C 27.0888 5.86379 0.768964 0
M  V30 294 H 26.0188 0.710738 0.251729 0
M  V30 295 H 28.6698 1.83326 -0.0799926 0
M  V30 296 H 27.0518 3.40182 2.02712 0
M  V30 297 H 28.2258 4.57112 -0.581846 0
M  V30 298 H 26.5408 4.14766 -0.368475 0
M  V30 299 H 29.1378 4.81145 2.33247 0
M  V30 300 H 29.4808 3.14511 2.72743 0
M  V30 301 H 30.0138 3.80454 1.16187 0
M  V30 302 H 26.7528 6.55493 -0.0301957 0
M  V30 303 H 26.2728 5.80496 1.50945 0
M  V30 304 H 27.9518 6.34563 1.26251 0
M  V30 305 N 28.0839 -0.256276 1.55502 0
M  V30 306 C 29.4999 -0.604325 1.47716 0
M  V30 307 C 29.6999 -1.88763 0.705039 0
M  V30 308 O 28.7559 -2.51445 0.230613 0
M  V30 309 C 30.0689 -0.715756 2.92057 0
M  V30 310 C 31.6169 -0.808706 3.02372 0
M  V30 311 C 32.0919 -0.951777 4.48001 0
M  V30 312 N 33.5829 -1.01688 4.519 0
M  V30 313 C 34.3179 -1.14668 5.61817 0
M  V30 314 N 33.8139 -1.24261 6.81565 0
M  V30 315 N 35.6069 -1.1791 5.49594 0
M  V30 316 H 27.7579 0.586291 2.04148 0
M  V30 317 H 30.0209 0.201015 0.926443 0
M  V30 318 H 29.7269 0.157027 3.51349 0
M  V30 319 H 29.6009 -1.59071 3.42018 0
M  V30 320 H 31.9879 -1.67195 2.43166 0
M  V30 321 H 32.0689 0.0912063 2.55637 0
M  V30 322 H 31.7129 -0.0931291 5.07815 0
M  V30 323 H 31.6429 -1.86659 4.92408 0
M  V30 324 H 34.1339 -0.954468 3.65648 0
M  V30 325 H 34.4469 -1.34046 7.61086 0
M  V30 326 H 32.7919 -1.21236 6.84344 0
M  V30 327 H 35.9829 -1.10057 4.54978 0
M  V30 328 H 36.1559 -1.27681 6.35296 0
M  V30 329 N 29.562 -1.4872 -0.521534 0
M  V30 330 C 30.509 -1.63871 -1.62527 0
M  V30 331 C 31.479 -0.480559 -1.58996 0
M  V30 332 O 32.664 -0.705085 -1.77294 0
M  V30 333 C 29.804 -1.69227 -3.00759 0
M  V30 334 C 28.917 -2.96207 -3.14461 0
M  V30 335 C 28.052 -2.92671 -4.43303 0
M  V30 336 C 27.091 -4.14318 -4.50563 0
M  V30 337 N 26.228 -4.0881 -5.70805 0
M  V30 338 H 31.068 -2.58123 -1.48918 0
M  V30 339 H 28.605 -1.28 -0.724878 0
M  V30 340 H 30.563 -1.70314 -3.80853 0
M  V30 341 H 29.193 -0.784586 -3.1312 0
M  V30 342 H 28.245 -3.04826 -2.27564 0
M  V30 343 H 29.557 -3.86192 -3.15686 0
M  V30 344 H 28.711 -2.92206 -5.31696 0
M  V30 345 H 27.45 -2.00429 -4.44612 0
M  V30 346 H 26.455 -4.15049 -3.60575 0
M  V30 347 H 27.68 -5.07729 -4.50986 0
M  V30 348 H 25.626 -3.19394 -5.72995 0
M  V30 349 H 25.543 -4.92509 -5.7356 0
M  V30 350 H 26.811 -4.12418 -6.61462 0
M  V30 351 N 31.0401 0.771051 -1.3745 0
M  V30 352 C 32.2681 1.56015 -1.35893 0
M  V30 353 C 32.6831 1.88718 0.0555523 0
M  V30 354 O 32.0401 1.51502 1.01752 0
M  V30 355 C 32.0911 2.87001 -2.19801 0
M  V30 356 O 31.8121 2.557 -3.55738 0
M  V30 357 C 33.3131 3.81228 -2.26231 0
M  V30 358 H 30.5331 0.483317 -0.465453 0
M  V30 359 H 33.0771 0.955611 -1.80799 0
M  V30 360 H 31.2321 3.43877 -1.78402 0
M  V30 361 H 31.6461 3.39584 -3.99729 0
M  V30 362 H 33.1201 4.70139 -2.89263 0
M  V30 363 H 33.5971 4.20409 -1.27093 0
M  V30 364 H 34.2031 3.30281 -2.67945 0
M  V30 365 N 32.5182 1.22032 0.997298 0
M  V30 366 C 33.7652 1.04222 1.73621 0
M  V30 367 C 34.0932 -0.423264 1.89839 0
M  V30 368 O 33.3482 -1.3302 1.43542 0
M  V30 369 C 33.6472 1.69345 3.14733 0
M  V30 370 C 33.3132 3.19226 3.18442 0
M  V30 371 C 31.9752 3.60124 3.19161 0
M  V30 372 C 34.3272 4.15181 3.15078 0
M  V30 373 C 31.6552 4.95467 3.14212 0
M  V30 374 C 34.0072 5.50495 3.1167 0
M  V30 375 C 32.6712 5.90779 3.10703 0
M  V30 376 H 31.9412 0.381374 0.635323 0
M  V30 377 H 34.5882 1.51732 1.16831 0
M  V30 378 H 32.8932 1.14147 3.74803 0
M  V30 379 H 34.5902 1.53059 3.7064 0
M  V30 380 H 31.1802 2.86659 3.18629 0
M  V30 381 H 35.3642 3.84605 3.13676 0
M  V30 382 H 30.6202 5.25916 3.11805 0
M  V30 383 H 34.7942 6.24576 3.08022 0
M  V30 384 H 32.4212 6.9562 3.06622 0
M  V30 385 N 33.9963 -1.19345 1.0293 0
M  V30 386 C 35.2453 -1.88363 0.721256 0
M  V30 387 C 35.5583 -1.80514 -0.753254 0
M  V30 388 O 36.7643 -2.44788 -1.17436 0
M  V30 389 C 35.2203 -3.37872 1.23978 0
M  V30 390 C 34.8283 -3.54278 2.74211 0
M  V30 391 C 36.5723 -4.12365 1.00775 0
M  V30 392 C 34.4793 -4.97682 3.19479 0
M  V30 393 H 33.4093 -0.705484 0.266098 0
M  V30 394 H 36.0603 -1.34928 1.24365 0
M  V30 395 H 34.4423 -3.90707 0.6453 0
M  V30 396 H 35.6163 -3.11769 3.39318 0
M  V30 397 H 33.9313 -2.93174 2.95699 0
M  V30 398 H 36.5283 -5.18119 1.32123 0
M  V30 399 H 36.8713 -4.16263 -0.0554308 0
M  V30 400 H 37.4043 -3.65668 1.56625 0
M  V30 401 H 34.1433 -4.98945 4.25128 0
M  V30 402 H 33.6633 -5.4095 2.591 0
M  V30 403 H 35.3423 -5.66337 3.12845 0
M  V30 404 N 35.4744 -0.807222 -1.35358 0
M  V30 405 C 36.7214 -0.387888 -1.9875 0
M  V30 406 C 37.0494 1.04509 -1.64037 0
M  V30 407 O 36.3044 1.73986 -0.895946 0
M  V30 408 C 36.6034 -0.519036 -3.53611 0
M  V30 409 C 36.2694 -1.91542 -4.08194 0
M  V30 410 C 34.9314 -2.29745 -4.22813 0
M  V30 411 C 37.2834 -2.82896 -4.37744 0
M  V30 412 C 34.6114 -3.58668 -4.643 0
M  V30 413 C 36.9634 -4.11265 -4.8067 0
M  V30 414 C 35.6274 -4.49466 -4.93494 0
M  V30 415 H 34.8974 -0.141938 -0.727279 0
M  V30 416 H 37.5444 -1.02814 -1.6156 0
M  V30 417 H 35.8494 0.204658 -3.91265 0
M  V30 418 H 37.5464 -0.175345 -4.00616 0
M  V30 419 H 34.1364 -1.60862 -3.97268 0
M  V30 420 H 38.3204 -2.54629 -4.26002 0
M  V30 421 H 33.5764 -3.88113 -4.72418 0
M  V30 422 H 37.7504 -4.82153 -5.02496 0
M  V30 423 H 35.3774 -5.49418 -5.25399 0
M  V30 424 N 36.9525 1.47285 -0.560781 0
M  V30 425 C 37.8855 2.27009 0.232821 0
M  V30 426 C 38.8635 1.34273 0.917039 0
M  V30 427 O 40.0475 1.63659 0.935315 0
M  V30 428 C 37.1745 3.11406 1.33206 0
M  V30 429 C 36.2205 4.19746 0.756019 0
M  V30 430 S 37.0535 5.34003 -0.400165 0
M  V30 431 C 38.2095 6.21964 0.700805 0
M  V30 432 H 38.4425 2.93971 -0.443683 0
M  V30 433 H 35.9755 1.50446 -0.347181 0
M  V30 434 H 37.9335 3.60601 1.96156 0
M  V30 435 H 36.5945 2.438 1.98041 0
M  V30 436 H 35.7875 4.78541 1.5816 0
M  V30 437 H 35.3895 3.73451 0.202619 0
M  V30 438 H 37.6815 6.58529 1.59202 0
M  V30 439 H 38.6245 7.07941 0.150126 0
M  V30 440 H 39.0325 5.5566 0.995083 0
M  V30 441 N 38.4306 0.297415 1.54768 0
M  V30 442 C 39.3406 -0.58983 2.27064 0
M  V30 443 C 40.3566 -1.15144 1.30453 0
M  V30 444 O 41.5326 -1.17699 1.63428 0
M  V30 445 C 38.5976 -1.74714 2.9946 0
M  V30 446 C 37.6586 -1.21997 4.11601 0
M  V30 447 C 36.8916 -2.32212 4.80535 0
M  V30 448 O 37.1146 -3.52036 4.48806 0
M  V30 449 O 36.0486 -1.99106 5.68014 0
M  V30 450 H 39.8746 -0.00348199 3.037 0
M  V30 451 H 37.4596 0.0640035 1.49263 0
M  V30 452 H 39.3416 -2.42147 3.44881 0
M  V30 453 H 38.0166 -2.32016 2.25722 0
M  V30 454 H 36.9236 -0.511458 3.70587 0
M  V30 455 H 38.2566 -0.692419 4.87305 0
M  V30 456 N 39.9087 -1.5758 0.0250728 0
M  V30 457 C 41.1547 -1.91917 -0.655413 0
M  V30 458 C 41.4877 -0.901433 -1.72011 0
M  V30 459 O 40.7627 0.0764069 -1.9435 0
M  V30 460 C 41.0457 -3.36751 -1.27558 0
M  V30 461 C 40.8987 -4.49258 -0.220719 0
M  V30 462 C 42.2177 -3.81469 -2.19475 0
M  V30 463 H 39.3367 -0.697925 -0.23679 0
M  V30 464 H 41.9787 -1.89825 0.0815036 0
M  V30 465 H 40.1287 -3.38664 -1.90365 0
M  V30 466 H 41.8007 -4.59478 0.409601 0
M  V30 467 H 40.0437 -4.31415 0.454264 0
M  V30 468 H 40.7147 -5.47618 -0.694175 0
M  V30 469 H 43.1907 -3.81266 -1.66659 0
M  V30 470 H 42.0667 -4.83512 -2.59822 0
M  V30 471 H 42.3277 -3.16744 -3.08424 0
M  V30 472 N 41.3868 0.248026 -1.55636 0
M  V30 473 C 42.3168 1.31079 -1.93237 0
M  V30 474 C 43.2978 1.50264 -0.797174 0
M  V30 475 O 44.4828 1.62891 -1.05737 0
M  V30 476 C 41.6128 2.66575 -2.22609 0
M  V30 477 C 40.5668 2.62087 -3.3837 0
M  V30 478 C 39.8928 4.01369 -3.53281 0
M  V30 479 C 41.1928 2.19171 -4.7409 0
M  V30 480 H 42.8868 0.998556 -2.82257 0
M  V30 481 H 40.4328 0.47891 -1.35803 0
M  V30 482 H 42.3858 3.41057 -2.47503 0
M  V30 483 H 41.1098 2.99432 -1.30414 0
M  V30 484 H 39.7688 1.90063 -3.13483 0
M  V30 485 H 39.4168 4.31489 -2.58508 0
M  V30 486 H 39.1168 3.99254 -4.31127 0
M  V30 487 H 40.6408 4.77552 -3.80495 0
M  V30 488 H 42.0548 2.83384 -4.98363 0
M  V30 489 H 40.4518 2.2817 -5.5503 0
M  V30 490 H 41.5218 1.14336 -4.71227 0
M  V30 491 N 42.8649 1.48995 0.513639 0
M  V30 492 C 44.1129 1.57531 1.26604 0
M  V30 493 C 44.4339 0.258236 1.93283 0
M  V30 494 O 43.7039 -0.721502 1.8213 0
M  V30 495 H 42.2839 0.580387 0.470276 0
M  V30 496 H 44.9459 1.85552 0.596373 0
M  V30 497 H 44.0419 2.36486 2.03669 0
M  V30 498 N 44.343 -0.763751 1.37857 0
M  V30 499 C 45.568 -1.55805 1.36893 0
M  V30 500 C 45.993 -1.88054 -0.0416135 0
M  V30 501 O 45.351 -1.49825 -1.02089 0
M  V30 502 C 45.399 -2.84012 2.22192 0
M  V30 503 O 44.503 -3.78732 1.63204 0
M  V30 504 H 43.844 -0.471638 0.46739 0
M  V30 505 H 46.374 -0.944657 1.81487 0
M  V30 506 H 46.384 -3.33037 2.35691 0
M  V30 507 H 45.059 -2.59869 3.24716 0
M  V30 508 H 43.636 -3.37402 1.58791 0
M  V30 509 N 45.8211 -1.22559 -0.990812 0
M  V30 510 C 47.0691 -1.04933 -1.72724 0
M  V30 511 C 47.3901 0.416158 -1.90508 0
M  V30 512 O 46.6601 1.29918 -1.46622 0
M  V30 513 H 45.2401 -0.385296 -0.639965 0
M  V30 514 H 47.9021 -1.54105 -1.19322 0
M  V30 515 H 46.9981 -1.52886 -2.72089 0
M  V30 516 N 47.2992 1.18797 -1.03562 0
M  V30 517 C 48.2622 2.20464 -0.626769 0
M  V30 518 C 49.2622 1.57721 0.313173 0
M  V30 519 O 50.4522 1.73917 0.0992615 0
M  V30 520 C 47.5842 3.40802 0.0818498 0
M  V30 521 H 48.7772 2.58149 -1.5264 0
M  V30 522 H 46.3302 1.32593 -0.827578 0
M  V30 523 H 47.0652 3.08642 0.995518 0
M  V30 524 H 46.8502 3.8758 -0.593652 0
M  V30 525 H 48.3402 4.16092 0.354584 0
M  V30 526 N 48.7773 0.814389 1.34928 0
M  V30 527 C 50.0243 0.398423 1.98542 0
M  V30 528 C 50.3523 -1.03638 1.64589 0
M  V30 529 O 49.6073 -1.73509 0.90516 0
M  V30 530 C 49.9063 0.537781 3.53331 0
M  V30 531 C 49.5723 1.93704 4.07172 0
M  V30 532 C 48.2343 2.31984 4.21589 0
M  V30 533 C 50.5863 2.85213 4.36237 0
M  V30 534 C 47.9143 3.61125 4.62391 0
M  V30 535 C 50.2663 4.13809 4.78482 0
M  V30 536 C 48.9303 4.52077 4.91104 0
M  V30 537 H 48.2003 0.145793 0.726516 0
M  V30 538 H 50.8473 1.03669 1.61012 0
M  V30 539 H 49.1523 -0.183906 3.91368 0
M  V30 540 H 50.8493 0.196588 4.00518 0
M  V30 541 H 47.4393 1.62966 3.96409 0
M  V30 542 H 51.6233 2.56885 4.24645 0
M  V30 543 H 46.8793 3.90612 4.70353 0
M  V30 544 H 51.0533 4.84811 4.99932 0
M  V30 545 H 48.6803 5.52196 5.22478 0
M  V30 546 N 50.2554 -1.46986 0.568584 0
M  V30 547 C 51.4804 -2.07335 0.0520528 0
M  V30 548 C 51.9054 -1.41675 -1.23733 0
M  V30 549 O 51.2634 -0.495623 -1.74394 0
M  V30 550 C 51.3114 -3.60417 -0.11501 0
M  V30 551 O 50.4154 -3.95309 -1.17492 0
M  V30 552 H 49.7564 -0.661597 0.0564385 0
M  V30 553 H 52.2864 -1.88837 0.787507 0
M  V30 554 H 52.2964 -4.06698 -0.325644 0
M  V30 555 H 50.9714 -4.07601 0.826675 0
M  V30 556 H 49.5484 -3.60757 -0.943869 0
M  V30 557 N 51.7335 -0.305618 -1.54608 0
M  V30 558 C 52.6435 0.57778 -2.27374 0
M  V30 559 C 53.6595 1.14451 -1.31061 0
M  V30 560 O 54.8355 1.16831 -1.6405 0
M  V30 561 C 51.9005 1.73123 -3.00382 0
M  V30 562 C 50.9615 1.19812 -4.12242 0
M  V30 563 C 50.1945 2.2966 -4.81759 0
M  V30 564 O 50.4175 3.49651 -4.50666 0
M  V30 565 O 49.3515 1.96091 -5.69062 0
M  V30 566 H 53.1775 -0.012624 -3.03697 0
M  V30 567 H 50.7625 -0.0719184 -1.49227 0
M  V30 568 H 52.6445 2.40315 -3.4616 0
M  V30 569 H 51.3195 2.30815 -2.26949 0
M  V30 570 H 50.2265 0.491798 -3.70853 0
M  V30 571 H 51.5595 0.666566 -4.87666 0
M  V30 572 N 53.2116 1.57565 -0.0334293 0
M  V30 573 C 54.4576 1.92262 0.645226 0
M  V30 574 C 54.7906 0.910543 1.71531 0
M  V30 575 O 54.0656 -0.066099 1.94388 0
M  V30 576 C 54.3486 3.37422 1.2577 0
M  V30 577 C 54.2016 4.49369 0.196891 0
M  V30 578 C 55.5206 3.82628 2.17449 0
M  V30 579 H 52.6396 0.699171 0.233085 0
M  V30 580 H 55.2816 1.89779 -0.0915694 0
M  V30 581 H 53.4316 3.39669 1.88566 0
M  V30 582 H 55.1036 4.59254 -0.433962 0
M  V30 583 H 53.3466 4.31168 -0.477137 0
M  V30 584 H 54.0176 5.47978 0.665124 0
M  V30 585 H 56.4936 3.82145 1.64634 0
M  V30 586 H 55.3696 4.84883 2.57254 0
M  V30 587 H 55.6306 3.18376 3.0674 0
M  V30 588 N 54.6897 -0.239769 1.55765 0
M  V30 589 C 55.9367 -0.966801 1.7793 0
M  V30 590 C 56.2647 -1.85046 0.599015 0
M  V30 591 O 55.5197 -1.91197 -0.417395 0
M  V30 592 C 55.8187 -1.852 3.05672 0
M  V30 593 C 55.4847 -1.1231 4.36689 0
M  V30 594 C 54.1467 -0.921689 4.72291 0
M  V30 595 C 56.4987 -0.607019 5.17653 0
M  V30 596 C 53.8267 -0.191996 5.86386 0
M  V30 597 C 56.1787 0.109241 6.32506 0
M  V30 598 C 54.8427 0.322073 6.66723 0
M  V30 599 H 54.1127 -0.353778 0.651093 0
M  V30 600 H 56.7597 -0.23634 1.90036 0
M  V30 601 H 55.0647 -2.64975 2.8861 0
M  V30 602 H 56.7617 -2.41635 3.20021 0
M  V30 603 H 53.3517 -1.29004 4.08725 0
M  V30 604 H 57.5357 -0.750153 4.90598 0
M  V30 605 H 52.7917 -0.0166949 6.11398 0
M  V30 606 H 56.9657 0.516737 6.9448 0
M  V30 607 H 54.5927 0.88944 7.54979 0
M  V30 608 N 56.1678 -1.49265 -0.50573 0
M  V30 609 C 57.0978 -1.68495 -1.61653 0
M  V30 610 C 58.0788 -0.53366 -1.61512 0
M  V30 611 O 59.2638 -0.76897 -1.78327 0
M  V30 612 C 56.3938 -1.74709 -3.00157 0
M  V30 613 C 55.3478 -2.89581 -3.15162 0
M  V30 614 C 54.6738 -2.80903 -4.5497 0
M  V30 615 C 55.9738 -4.30578 -2.95634 0
M  V30 616 H 57.6678 -2.61493 -1.45814 0
M  V30 617 H 55.2138 -1.25838 -0.70005 0
M  V30 618 H 57.1668 -1.86748 -3.77761 0
M  V30 619 H 55.8908 -0.783067 -3.17074 0
M  V30 620 H 54.5498 -2.77136 -2.39982 0
M  V30 621 H 54.1978 -1.82419 -4.68756 0
M  V30 622 H 53.8978 -3.57999 -4.65951 0
M  V30 623 H 55.4218 -2.94944 -5.34641 0
M  V30 624 H 56.8358 -4.4373 -3.63011 0
M  V30 625 H 55.2328 -5.0886 -3.18091 0
M  V30 626 H 56.3028 -4.45352 -1.91806 0
M  V30 627 N 57.6459 0.756429 -1.3826 0
M  V30 628 C 58.8919 1.51772 -1.34511 0
M  V30 629 C 59.2249 1.94089 0.0656691 0
M  V30 630 O 58.4999 1.65221 1.02626 0
M  V30 631 C 58.7829 2.77226 -2.29821 0
M  V30 632 C 58.6359 2.41065 -3.79747 0
M  V30 633 C 59.9549 3.79236 -2.23312 0
M  V30 634 H 57.0739 0.550578 -0.489931 0
M  V30 635 H 59.7159 0.866607 -1.69086 0
M  V30 636 H 57.8659 3.32784 -2.00467 0
M  V30 637 H 59.5379 1.91303 -4.19763 0
M  V30 638 H 57.7809 1.7356 -3.97567 0
M  V30 639 H 58.4519 3.3081 -4.41892 0
M  V30 640 H 60.9279 3.3321 -2.49219 0
M  V30 641 H 59.8039 4.64714 -2.92116 0
M  V30 642 H 60.0649 4.24615 -1.23102 0
M  V30 643 N 59.124 1.23083 0.984299 0
M  V30 644 C 60.071 1.00854 2.07598 0
M  V30 645 C 61.041 -0.0726709 1.65941 0
M  V30 646 O 62.226 0.0786535 1.90638 0
M  V30 647 C 59.366 0.601645 3.39815 0
M  V30 648 C 58.479 1.75456 3.94765 0
M  V30 649 C 57.614 1.29482 5.15177 0
M  V30 650 C 56.653 2.41873 5.62284 0
M  V30 651 N 55.79 1.96885 6.73929 0
M  V30 652 H 60.63 1.943 2.25946 0
M  V30 653 H 58.167 0.968001 1.10762 0
M  V30 654 H 60.125 0.346854 4.15756 0
M  V30 655 H 58.755 -0.295803 3.21442 0
M  V30 656 H 57.807 2.12346 3.15616 0
M  V30 657 H 59.119 2.59965 4.25699 0
M  V30 658 H 58.273 0.997923 5.98437 0
M  V30 659 H 57.012 0.420046 4.85888 0
M  V30 660 H 56.017 2.72342 4.77608 0
M  V30 661 H 57.242 3.29881 5.93595 0
M  V30 662 H 55.188 1.11782 6.46406 0
M  V30 663 H 55.105 2.74956 7.04227 0
M  V30 664 H 56.373 1.70289 7.60672 0
M  V30 665 N 60.6021 -1.18246 1.0419 0
M  V30 666 C 61.5341 -2.2142 0.592088 0
M  V30 667 C 62.5471 -1.59233 -0.338909 0
M  V30 668 O 63.7361 -1.78002 -0.133231 0
M  V30 669 C 60.8361 -3.38546 -0.154854 0
M  V30 670 C 60.0091 -4.3031 0.784328 0
M  V30 671 C 59.0681 -5.26138 0.0804583 0
M  V30 672 O 58.0941 -5.64738 0.711292 0
M  V30 673 N 59.2961 -5.68261 -1.18574 0
M  V30 674 H 62.0611 -2.60636 1.47949 0
M  V30 675 H 59.6221 -1.33044 0.922544 0
M  V30 676 H 61.6141 -3.99678 -0.635606 0
M  V30 677 H 60.1841 -2.98012 -0.943811 0
M  V30 678 H 59.4041 -3.66764 1.44491 0
M  V30 679 H 60.6921 -4.8852 1.42218 0
M  V30 680 H 60.0901 -5.38957 -1.71876 0
M  V30 681 H 58.6471 -6.31584 -1.61074 0
M  V30 682 N 62.0802 -0.821533 -1.34494 0
M  V30 683 C 63.4962 -0.507117 -1.51329 0
M  V30 684 C 63.6962 0.968964 -1.76673 0
M  V30 685 O 62.7522 1.75348 -1.81685 0
M  V30 686 C 64.0652 -1.36544 -2.67911 0
M  V30 687 C 65.6132 -1.36242 -2.81793 0
M  V30 688 C 66.0882 -2.2052 -4.01416 0
M  V30 689 N 67.5792 -2.18136 -4.08621 0
M  V30 690 C 68.3142 -2.80095 -5.00334 0
M  V30 691 N 67.8102 -3.51039 -5.9728 0
M  V30 692 N 69.6032 -2.69656 -4.93196 0
M  V30 693 H 61.7542 -1.77729 -1.16302 0
M  V30 694 H 64.0172 -0.757291 -0.570276 0
M  V30 695 H 63.7232 -2.41361 -2.55808 0
M  V30 696 H 63.5972 -1.02917 -3.62888 0
M  V30 697 H 65.9842 -0.322041 -2.93338 0
M  V30 698 H 66.0652 -1.73866 -1.87628 0
M  V30 699 H 65.7092 -3.24607 -3.90631 0
M  V30 700 H 65.6392 -1.80247 -4.94791 0
M  V30 701 H 68.1302 -1.6653 -3.39229 0
M  V30 702 H 68.4432 -3.95565 -6.63889 0
M  V30 703 H 66.7882 -3.55145 -5.97409 0
M  V30 704 H 69.9792 -2.13808 -4.16418 0
M  V30 705 H 70.1522 -3.1823 -5.64476 0
M  V30 706 N 63.5583 1.46682 -0.576371 0
M  V30 707 C 64.4883 2.33028 0.148397 0
M  V30 708 C 65.4693 1.44961 0.889956 0
M  V30 709 O 66.6543 1.73789 0.866662 0
M  V30 710 C 63.7843 3.27117 1.1667 0
M  V30 711 C 62.7383 4.24575 0.540386 0
M  V30 712 C 62.0643 5.08126 1.6647 0
M  V30 713 C 63.3643 5.19722 -0.518331 0
M  V30 714 H 65.0583 2.93875 -0.572509 0
M  V30 715 H 62.6043 1.41315 -0.276768 0
M  V30 716 H 64.5573 3.86374 1.68204 0
M  V30 717 H 63.2813 2.64364 1.9178 0
M  V30 718 H 61.9403 3.66571 0.0461769 0
M  V30 719 H 61.5883 4.41762 2.40531 0
M  V30 720 H 61.2883 5.74122 1.25131 0
M  V30 721 H 62.8123 5.70246 2.18293 0
M  V30 722 H 64.2263 5.73232 -0.0883058 0
M  V30 723 H 62.6233 5.94026 -0.851679 0
M  V30 724 H 63.6933 4.64037 -1.40703 0
M  V30 725 N 65.0364 0.313813 1.54444 0
M  V30 726 C 66.2644 -0.293918 2.04802 0
M  V30 727 C 66.6794 -1.46537 1.19047 0
M  V30 728 O 66.0364 -1.81182 0.218939 0
M  V30 729 C 66.0874 -0.737806 3.53891 0
M  V30 730 O 65.8084 0.387038 4.36387 0
M  V30 731 C 67.3094 -1.40936 4.203 0
M  V30 732 H 64.5294 -0.0620057 0.668129 0
M  V30 733 H 67.0734 0.457169 1.99324 0
M  V30 734 H 65.2284 -1.43889 3.59687 0
M  V30 735 H 65.6424 0.0391274 5.24485 0
M  V30 736 H 67.1164 -1.67099 5.26101 0
M  V30 737 H 67.5934 -2.35355 3.70816 0
M  V30 738 H 68.1994 -0.751117 4.18615 0
M  V30 739 N 66.5145 -1.57545 0.0417849 0
M  V30 740 C 67.7625 -1.91937 -0.632829 0
M  V30 741 C 68.0835 -0.919978 -1.71934 0
M  V30 742 O 67.3535 0.0366064 -1.95866 0
M  V30 743 H 65.9335 -0.708493 -0.236742 0
M  V30 744 H 68.5955 -1.9468 0.0925745 0
M  V30 745 H 67.6915 -2.92912 -1.07746 0
M  V30 746 N 67.9926 0.231505 -1.5589 0
M  V30 747 C 68.9396 1.28682 -1.91598 0
M  V30 748 C 69.9096 1.47071 -0.771974 0
M  V30 749 O 71.0946 1.60802 -1.027 0
M  V30 750 C 68.2346 2.6342 -2.22944 0
M  V30 751 C 67.3476 2.52912 -3.50228 0
M  V30 752 C 66.4826 3.80106 -3.7107 0
M  V30 753 C 65.5216 3.64279 -4.91902 0
M  V30 754 N 64.6586 4.834 -5.09184 0
M  V30 755 H 69.4986 0.975305 -2.81588 0
M  V30 756 H 67.0356 0.470299 -1.39379 0
M  V30 757 H 68.9936 3.41869 -2.39126 0
M  V30 758 H 67.6236 2.92687 -1.36139 0
M  V30 759 H 66.6756 1.6595 -3.42294 0
M  V30 760 H 67.9876 2.37133 -4.38827 0
M  V30 761 H 67.1416 4.66999 -3.87295 0
M  V30 762 H 65.8806 3.98799 -2.80733 0
M  V30 763 H 64.8856 2.7577 -4.75637 0
M  V30 764 H 66.1106 3.47067 -5.83714 0
M  V30 765 H 64.0566 5.02425 -4.21788 0
M  V30 766 H 63.9736 4.70311 -5.91898 0
M  V30 767 H 65.2416 5.71747 -5.29835 0
M  V30 768 N 69.4707 1.49531 0.497807 0
M  V30 769 C 70.4007 1.6935 1.60757 0
M  V30 770 C 71.3817 0.542218 1.61227 0
M  V30 771 O 72.5667 0.778417 1.77917 0
M  V30 772 C 69.6967 1.76298 2.99226 0
M  V30 773 C 68.6507 2.91248 3.13622 0
M  V30 774 C 67.9767 2.83312 4.53474 0
M  V30 775 C 69.2767 4.3214 2.93346 0
M  V30 776 H 70.9707 2.62263 1.44425 0
M  V30 777 H 68.5167 1.26208 0.693367 0
M  V30 778 H 70.4697 1.88749 3.76765 0
M  V30 779 H 69.1937 0.799871 3.16654 0
M  V30 780 H 67.8527 2.78404 2.38509 0
M  V30 781 H 67.5007 1.84902 4.67782 0
M  V30 782 H 67.2007 3.60465 4.64046 0
M  V30 783 H 68.7247 2.97775 5.33069 0
M  V30 784 H 70.1387 4.45649 3.60652 0
M  V30 785 H 68.5357 5.1054 3.15387 0
M  V30 786 H 69.6057 4.46363 1.89441 0
M  V30 787 N 70.9488 -0.749086 1.3866 0
M  V30 788 C 72.1958 -1.50833 1.35114 0
M  V30 789 C 72.5238 -1.94415 -0.0574049 0
M  V30 790 O 71.7788 -1.66065 -1.03541 0
M  V30 791 C 72.0778 -2.7712 2.25697 0
M  V30 792 C 71.7438 -2.52477 3.73585 0
M  V30 793 C 70.4058 -2.45466 4.13884 0
M  V30 794 C 72.7578 -2.31066 4.67181 0
M  V30 795 C 70.0858 -2.15064 5.45861 0
M  V30 796 C 72.4378 -2.02183 5.9942 0
M  V30 797 C 71.1018 -1.93631 6.38798 0
M  V30 798 H 70.3718 -0.551936 0.494416 0
M  V30 799 H 73.0188 -0.860979 1.71054 0
M  V30 800 H 71.3238 -3.46528 1.82827 0
M  V30 801 H 73.0208 -3.35096 2.20254 0
M  V30 802 H 69.6108 -2.58807 3.41638 0
M  V30 803 H 73.7948 -2.35459 4.3689 0
M  V30 804 H 69.0508 -2.06954 5.75308 0
M  V30 805 H 73.2248 -1.8462 6.71482 0
M  V30 806 H 70.8518 -1.69839 7.40985 0
M  V30 807 N 72.4269 -1.23603 -0.977757 0
M  V30 808 C 73.3899 -1.02069 -2.05218 0
M  V30 809 C 74.3899 0.0184305 -1.60789 0
M  V30 810 O 75.5799 -0.221569 -1.72785 0
M  V30 811 C 72.7119 -0.544926 -3.36517 0
M  V30 812 H 73.9049 -1.9742 -2.25755 0
M  V30 813 H 71.4579 -1.05684 -1.15155 0
M  V30 814 H 72.1929 0.412241 -3.21669 0
M  V30 815 H 71.9779 -1.2948 -3.70105 0
M  V30 816 H 73.4679 -0.414985 -4.15533 0
M  V30 817 N 73.905 1.17692 -1.04816 0
M  V30 818 C 74.835 2.23777 -0.666791 0
M  V30 819 C 75.816 1.66796 0.33361 0
M  V30 820 O 77.001 1.93039 0.212042 0
M  V30 821 C 74.131 3.47281 -0.0367933 0
M  V30 822 C 73.085 4.17059 -0.961546 0
M  V30 823 C 72.411 5.34342 -0.195626 0
M  V30 824 C 73.711 4.69713 -2.28402 0
M  V30 825 H 75.405 2.55933 -1.55367 0
M  V30 826 H 72.951 1.23019 -0.748484 0
M  V30 827 H 74.904 4.20706 0.241775 0
M  V30 828 H 73.628 3.14381 0.885004 0
M  V30 829 H 72.287 3.45541 -1.22462 0
M  V30 830 H 71.935 4.97692 0.728816 0
M  V30 831 H 71.635 5.81966 -0.811775 0
M  V30 832 H 73.159 6.10553 0.0757473 0
M  V30 833 H 74.573 5.34794 -2.06563 0
M  V30 834 H 72.97 5.279 -2.8538 0
M  V30 835 H 74.04 3.86726 -2.92525 0
M  V30 836 N 75.3831 0.828654 1.34056 0
M  V30 837 C 76.3301 0.252567 2.29414 0
M  V30 838 C 77.3001 -0.62588 1.53857 0
M  V30 839 O 78.4851 -0.566312 1.82202 0
M  V30 840 C 75.6251 -0.574831 3.40279 0
M  V30 841 C 74.7381 0.326499 4.30764 0
M  V30 842 C 73.8731 -0.511016 5.28736 0
M  V30 843 C 72.9121 0.389342 6.1086 0
M  V30 844 N 72.0491 -0.409439 7.00905 0
M  V30 845 H 76.8891 1.07108 2.78086 0
M  V30 846 H 74.4261 0.539677 1.36843 0
M  V30 847 H 76.3841 -1.06992 4.03248 0
M  V30 848 H 75.0141 -1.35841 2.92826 0
M  V30 849 H 74.0661 0.939837 3.68607 0
M  V30 850 H 75.3781 1.01857 4.88289 0
M  V30 851 H 74.5321 -1.07035 5.97184 0
M  V30 852 H 73.2711 -1.23657 4.71763 0
M  V30 853 H 72.2761 0.960769 5.4134 0
M  V30 854 H 73.5011 1.1131 6.69916 0
M  V30 855 H 71.4471 -1.11856 6.46393 0
M  V30 856 H 71.3641 0.224126 7.55668 0
M  V30 857 H 72.6321 -0.951336 7.73673 0
M  V30 858 N 76.8612 -1.46375 0.584142 0
M  V30 859 C 78.1012 -2.0427 0.0729695 0
M  V30 860 C 78.4652 -1.44563 -1.26355 0
M  V30 861 O 79.6662 -1.93667 -1.86405 0
M  V30 862 C 77.9372 -3.57399 0.00967464 0
M  V30 863 S 79.4962 -4.36551 -0.443714 0
M  V30 864 H 76.3142 -0.709975 0.0381673 0
M  V30 865 H 78.9162 -1.79398 0.776962 0
M  V30 866 H 77.6202 -3.98372 0.986319 0
M  V30 867 H 77.1512 -3.8681 -0.717044 0
M  V30 868 H 79.1662 -4.66237 -1.69816 0
M  V30 869 N 78.3393 -0.321999 -1.54275 0
M  V30 870 C 79.5883 0.281931 -1.9972 0
M  V30 871 C 79.9013 1.53369 -1.21397 0
M  V30 872 O 81.1073 2.21352 -1.57211 0
M  V30 873 C 79.5633 0.5529 -3.55628 0
M  V30 874 C 79.1713 -0.681721 -4.42783 0
M  V30 875 C 80.9153 1.11687 -4.09544 0
M  V30 876 C 78.8223 -0.382742 -5.9016 0
M  V30 877 H 77.7523 0.109124 -0.746062 0
M  V30 878 H 80.4033 -0.43398 -1.78294 0
M  V30 879 H 78.7853 1.32896 -3.73035 0
M  V30 880 H 79.9593 -1.45723 -4.37151 0
M  V30 881 H 78.2743 -1.1658 -3.99748 0
M  V30 882 H 80.8713 1.35515 -5.17242 0
M  V30 883 H 81.2143 2.06575 -3.61431 0
M  V30 884 H 81.7473 0.402032 -3.95763 0
M  V30 885 H 78.4863 -1.30076 -6.42464 0
M  V30 886 H 78.0063 0.355094 -5.98748 0
M  V30 887 H 79.6853 0.00800157 -6.47 0
M  V30 888 N 79.8174 1.5752 -0.0501392 0
M  V30 889 C 80.7644 2.1147 0.924603 0
M  V30 890 C 81.7344 1.02182 1.30951 0
M  V30 891 O 82.9194 1.29723 1.39916 0
M  V30 892 C 80.0594 2.66337 2.19451 0
M  V30 893 C 79.1724 3.89708 1.86418 0
M  V30 894 C 78.3074 4.32893 3.07859 0
M  V30 895 C 77.3464 5.48967 2.70742 0
M  V30 896 N 76.4834 5.87211 3.84874 0
M  V30 897 H 81.3234 2.94465 0.457639 0
M  V30 898 H 78.8604 1.45531 0.214266 0
M  V30 899 H 80.8184 2.96247 2.93758 0
M  V30 900 H 79.4484 1.86141 2.63726 0
M  V30 901 H 78.5004 3.66396 1.02264 0
M  V30 902 H 79.8124 4.74074 1.55096 0
M  V30 903 H 78.9664 4.6435 3.90466 0
M  V30 904 H 77.7054 3.47336 3.42358 0
M  V30 905 H 76.7104 5.17183 1.86551 0
M  V30 906 H 77.9354 6.3624 2.37436 0
M  V30 907 H 75.8814 5.04607 4.19175 0
M  V30 908 H 75.7984 6.66266 3.57247 0
M  V30 909 H 77.0664 6.23282 4.68123 0
M  V30 910 N 81.2955 -0.223234 1.56011 0
M  V30 911 C 82.2425 -1.27664 1.92277 0
M  V30 912 C 83.2125 -1.46659 0.779763 0
M  V30 913 O 84.3975 -1.60256 1.03551 0
M  V30 914 C 81.5375 -2.62234 2.24338 0
M  V30 915 C 80.6505 -2.51051 3.51564 0
M  V30 916 C 79.7855 -3.78133 3.7308 0
M  V30 917 C 78.8245 -3.61665 4.93827 0
M  V30 918 N 77.9615 -4.80693 5.11741 0
M  V30 919 H 82.8015 -0.960358 2.82101 0
M  V30 920 H 80.3385 -0.462901 1.39627 0
M  V30 921 H 82.2965 -3.40596 2.40936 0
M  V30 922 H 80.9265 -2.91961 1.3769 0
M  V30 923 H 79.9785 -1.64132 3.43169 0
M  V30 924 H 81.2905 -2.34803 4.40079 0
M  V30 925 H 80.4445 -4.64938 3.89766 0
M  V30 926 H 79.1835 -3.97304 2.82844 0
M  V30 927 H 78.1885 -2.73244 4.77093 0
M  V30 928 H 79.4135 -3.43966 5.85546 0
M  V30 929 H 77.3595 -5.00181 4.24446 0
M  V30 930 H 77.2765 -4.67165 5.94384 0
M  V30 931 H 78.5445 -5.6893 5.3286 0
M  V30 932 N 82.7736 -1.49793 -0.48987 0
M  V30 933 C 83.9986 -1.63836 -1.27172 0
M  V30 934 C 84.4236 -0.31402 -1.8546 0
M  V30 935 O 83.7816 0.719803 -1.66399 0
M  V30 936 C 83.8296 -2.71797 -2.36978 0
M  V30 937 O 82.9336 -2.31744 -3.41128 0
M  V30 938 H 82.2746 -0.547997 -0.37496 0
M  V30 939 H 84.8046 -1.96053 -0.585191 0
M  V30 940 H 84.8146 -2.94305 -2.82575 0
M  V30 941 H 83.4896 -3.67923 -1.93921 0
M  V30 942 H 82.0666 -2.1961 -3.01373 0
M  V30 943 N 84.2517 0.741722 -1.39055 0
M  V30 944 C 85.6627 1.31966 -1.32068 0
M  V30 945 C 86.0137 1.96192 0.0180797 0
M  V30 946 O 85.1387 1.95861 0.920196 0
M  V30 947 C 85.7337 2.39954 -2.39181 0
M  V30 948 C 84.2927 2.93438 -2.35735 0
M  V30 949 C 83.4397 1.66936 -2.21422 0
M  V30 950 H 86.3907 0.539721 -1.4924 0
M  V30 951 H 86.4117 3.20182 -2.05581 0
M  V30 952 H 85.9237 1.9318 -3.36605 0
M  V30 953 H 84.0247 3.4451 -1.41929 0
M  V30 954 H 84.1377 3.4701 -3.30335 0
M  V30 955 H 82.5017 1.91016 -1.68478 0
M  V30 956 H 83.2847 1.22224 -3.20806 0
M  V30 957 N 85.7298 1.2412 0.971189 0
M  V30 958 C 86.6928 1.03156 2.04674 0
M  V30 959 C 87.6928 -0.00990322 1.60797 0
M  V30 960 O 88.8828 0.230729 1.72665 0
M  V30 961 C 86.0148 0.562765 3.36223 0
M  V30 962 H 87.2078 1.98614 2.24705 0
M  V30 963 H 84.7608 1.06293 1.14593 0
M  V30 964 H 85.4958 -0.395176 3.21883 0
M  V30 965 H 85.2808 1.31441 3.69413 0
M  V30 966 H 86.7708 0.437015 4.15307 0
M  V30 967 N 87.2079 -1.17134 1.05439 0
M  V30 968 C 88.4549 -1.87456 0.765942 0
M  V30 969 C 88.7829 -1.81189 -0.707153 0
M  V30 970 O 88.0379 -1.21633 -1.5331 0
M  V30 971 C 88.3369 -3.36833 1.19491 0
M  V30 972 C 88.0029 -3.63301 2.67063 0
M  V30 973 C 86.6649 -3.70234 3.07376 0
M  V30 974 C 89.0169 -3.74575 3.62413 0
M  V30 975 C 86.3449 -3.85933 4.41896 0
M  V30 976 C 88.6969 -3.91793 4.9667 0
M  V30 977 C 87.3609 -3.96966 5.36633 0
M  V30 978 H 86.6309 -0.685948 0.280278 0
M  V30 979 H 89.2779 -1.38556 1.32192 0
M  V30 980 H 87.5829 -3.87807 0.557969 0
M  V30 981 H 89.2799 -3.89611 0.948893 0
M  V30 982 H 85.8699 -3.58532 2.34846 0
M  V30 983 H 90.0539 -3.68537 3.32406 0
M  V30 984 H 85.3099 -3.88187 4.72357 0
M  V30 985 H 89.4839 -3.99458 5.70444 0
M  V30 986 H 87.1109 -4.08883 6.40874 0
M  V30 987 N 88.686 -0.835752 -1.33615 0
M  V30 988 C 90.102 -0.523139 -1.50783 0
M  V30 989 C 90.302 0.950171 -1.77691 0
M  V30 990 O 89.358 1.73411 -1.83534 0
M  V30 991 C 90.671 -1.39378 -2.66448 0
M  V30 992 C 92.219 -1.39223 -2.80332 0
M  V30 993 C 92.694 -2.24765 -3.99055 0
M  V30 994 N 94.185 -2.22458 -4.06284 0
M  V30 995 C 94.92 -2.85386 -4.97336 0
M  V30 996 N 94.416 -3.57354 -5.93523 0
M  V30 997 N 96.209 -2.74872 -4.90308 0
M  V30 998 H 88.36 -1.78952 -1.14411 0
M  V30 999 H 90.623 -0.763297 -0.562212 0
M  V30 1000 H 90.329 -2.44061 -2.53234 0
M  V30 1001 H 90.203 -1.0676 -3.61776 0
M  V30 1002 H 92.59 -0.353136 -2.92979 0
M  V30 1003 H 92.671 -1.75846 -1.85773 0
M  V30 1004 H 92.315 -3.28732 -3.87167 0
M  V30 1005 H 92.245 -1.85485 -4.92852 0
M  V30 1006 H 94.736 -1.70119 -3.37443 0
M  V30 1007 H 95.049 -4.02584 -6.59656 0
M  V30 1008 H 93.394 -3.61461 -5.93608 0
M  V30 1009 H 96.585 -2.18213 -4.14126 0
M  V30 1010 H 96.758 -3.24199 -5.61069 0
M  V30 1011 N 90.1641 1.46063 -0.591896 0
M  V30 1012 C 91.4411 1.95595 -0.0137119 0
M  V30 1013 C 91.8211 1.5345 1.4497 0
M  V30 1014 O 91.1691 0.789543 2.14426 0
M  V30 1015 C 91.3791 3.48453 -0.195373 0
M  V30 1016 C 92.7271 4.24546 -0.0679765 0
M  V30 1017 O 93.7511 3.55982 -0.124681 0
M  V30 1018 O 92.6101 5.46467 0.0600579 0
M  V30 1019 H 89.7041 0.825795 0.0446279 0
M  V30 1020 H 92.2501 1.56303 -0.660859 0
M  V30 1021 H 91.0221 3.72045 -1.21235 0
M  V30 1022 H 90.6451 3.94597 0.487775 0
M  V30 1023 N 91.6422 0.330177 1.54103 0
M  V30 1024 C 92.8672 -0.274893 2.0557 0
M  V30 1025 C 93.2922 -1.44487 1.20437 0
M  V30 1026 O 92.6502 -1.80021 0.214991 0
M  V30 1027 C 92.6982 -0.68079 3.54115 0
M  V30 1028 O 91.8022 -1.7824 3.71893 0
M  V30 1029 H 91.1432 -0.0483849 0.662235 0
M  V30 1030 H 93.6732 0.480508 1.98878 0
M  V30 1031 H 93.6832 -0.961635 3.96505 0
M  V30 1032 H 92.3582 0.174903 4.15532 0
M  V30 1033 H 90.9352 -1.49985 3.41407 0
M  V30 1034 N 93.1203 -1.57491 0.0584922 0
M  V30 1035 C 94.3453 -1.97711 -0.62652 0
M  V30 1036 C 94.7703 -0.936132 -1.63151 0
M  V30 1037 O 94.1283 0.099811 -1.81025 0
M  V30 1038 C 94.1763 -3.36989 -1.28338 0
M  V30 1039 O 93.2803 -3.35433 -2.39913 0
M  V30 1040 H 92.6213 -0.643868 -0.162266 0
M  V30 1041 H 95.1513 -2.04193 0.129064 0
M  V30 1042 H 95.1613 -3.73879 -1.63335 0
M  V30 1043 H 93.8363 -4.12289 -0.546889 0
M  V30 1044 H 92.4133 -3.10298 -2.06809 0
M  V30 1045 N 94.5984 0.214957 -1.56127 0
M  V30 1046 C 95.5284 1.2695 -1.95974 0
M  V30 1047 C 96.5094 1.48539 -0.828868 0
M  V30 1048 O 97.6944 1.60611 -1.09168 0
M  V30 1049 C 94.8244 2.61794 -2.28214 0
M  V30 1050 C 93.7784 2.54851 -3.43853 0
M  V30 1051 C 93.1044 3.93785 -3.61715 0
M  V30 1052 C 94.4044 2.09065 -4.78632 0
M  V30 1053 H 96.0984 0.93846 -2.84312 0
M  V30 1054 H 93.6444 0.449996 -1.36788 0
M  V30 1055 H 95.5974 3.35731 -2.54682 0
M  V30 1056 H 94.3214 2.96599 -1.36736 0
M  V30 1057 H 92.9804 1.8337 -3.17444 0
M  V30 1058 H 92.6284 4.25908 -2.67602 0
M  V30 1059 H 92.3284 3.90019 -4.39498 0
M  V30 1060 H 93.8524 4.69374 -3.90539 0
M  V30 1061 H 95.2664 2.7275 -5.04262 0
M  V30 1062 H 93.6634 2.16346 -5.59745 0
M  V30 1063 H 94.7334 1.04315 -4.73547 0
M  V30 1064 N 96.0765 1.50051 0.48192 0
M  V30 1065 C 96.9865 1.7089 1.60728 0
M  V30 1066 C 98.0025 0.591788 1.63627 0
M  V30 1067 O 99.1785 0.868817 1.81696 0
M  V30 1068 C 96.2435 1.78855 2.97005 0
M  V30 1069 C 95.3045 3.02537 3.04581 0
M  V30 1070 C 94.5375 3.10112 4.34357 0
M  V30 1071 O 94.7605 2.24765 5.24249 0
M  V30 1072 O 93.6945 4.02747 4.47301 0
M  V30 1073 H 97.5205 2.66264 1.46072 0
M  V30 1074 H 95.1055 1.34018 0.660264 0
M  V30 1075 H 96.9875 1.86336 3.77964 0
M  V30 1076 H 95.6625 0.866628 3.11883 0
M  V30 1077 H 94.5695 3.00563 2.22739 0
M  V30 1078 H 95.9025 3.94272 2.94636 0
M  V30 1079 N 97.5546 -0.734337 1.39446 0
M  V30 1080 C 98.5026 -1.86971 1.38364 0
M  V30 1081 C 99.4966 -1.67288 0.266687 0
M  V30 1082 O 100.703 -1.74621 0.436755 0
M  V30 1083 H 97.0776 -0.615474 0.432082 0
M  V30 1084 H 99.0486 -1.85 2.34132 0
M  V30 1085 C 97.7976 -3.2466 1.24465 0
M  V30 1086 H 97.1206 -3.40402 2.09682 0
M  V30 1087 H 98.5606 -4.04292 1.27764 0
M  V30 1088 C 97.0196 -3.36867 -0.0468674 0
M  V30 1089 O 97.5496 -3.88618 -1.01681 0
M  V30 1090 N 95.7556 -2.90391 -0.110145 0
M  V30 1091 H 95.3026 -2.48466 0.679868 0
M  V30 1092 H 95.2606 -2.98939 -0.973799 0
M  V30 1093 N 99.0327 -1.24633 -0.964593 0
M  V30 1094 C 99.9427 -1.05859 -2.09359 0
M  V30 1095 C 100.959 0.00148855 -1.74 0
M  V30 1096 O 102.135 -0.197346 -2.00431 0
M  V30 1097 C 99.1997 -0.668879 -3.40187 0
M  V30 1098 C 98.2607 -1.80578 -3.89474 0
M  V30 1099 C 97.4937 -1.43457 -5.14058 0
M  V30 1100 O 97.7167 -0.325775 -5.69469 0
M  V30 1101 O 96.6507 -2.2613 -5.57807 0
M  V30 1102 H 100.477 -2.00516 -2.28094 0
M  V30 1103 H 98.0617 -1.03481 -1.0776 0
M  V30 1104 H 99.9437 -0.463211 -4.18846 0
M  V30 1105 H 98.6187 0.248536 -3.22744 0
M  V30 1106 H 97.5257 -2.06623 -3.11862 0
M  V30 1107 H 98.8587 -2.70208 -4.11398 0
M  V30 1108 N 100.511 1.16574 -1.06058 0
M  V30 1109 C 101.76 1.86385 -0.770944 0
M  V30 1110 C 102.073 1.82448 0.705129 0
M  V30 1111 O 103.279 2.47815 1.10905 0
M  V30 1112 C 101.735 3.34466 -1.32893 0
M  V30 1113 C 101.343 3.46883 -2.83507 0
M  V30 1114 C 103.087 4.09548 -1.11672 0
M  V30 1115 C 100.994 4.89036 -3.32562 0
M  V30 1116 H 99.9238 0.698181 -0.284709 0
M  V30 1117 H 102.575 1.31583 -1.27899 0
M  V30 1118 H 100.957 3.88859 -0.748662 0
M  V30 1119 H 102.131 3.02663 -3.47465 0
M  V30 1120 H 100.446 2.85232 -3.03368 0
M  V30 1121 H 103.043 5.14434 -1.45814 0
M  V30 1122 H 103.386 4.16264 -0.0549535 0
M  V30 1123 H 103.919 3.61387 -1.66265 0
M  V30 1124 H 100.658 4.87499 -4.38207 0
M  V30 1125 H 100.178 5.3389 -2.73351 0
M  V30 1126 H 101.857 5.57843 -3.2775 0
M  V30 1127 N 101.989 0.842826 1.3317 0
M  V30 1128 C 102.952 0.284065 2.27433 0
M  V30 1129 C 103.952 -0.54948 1.5112 0
M  V30 1130 O 105.142 -0.362699 1.70382 0
M  V30 1131 C 102.274 -0.599384 3.35589 0
M  V30 1132 H 103.467 1.11589 2.78366 0
M  V30 1133 H 101.02 0.616221 1.4364 0
M  V30 1134 H 101.755 -1.45349 2.89904 0
M  V30 1135 H 101.54 -0.00291266 3.921 0
M  V30 1136 H 103.03 -0.983488 4.05854 0
M  V30 1137 N 103.467 -1.45747 0.599634 0
M  V30 1138 C 104.713 -2.02592 0.0918643 0
M  V30 1139 C 105.046 -1.46806 -1.27128 0
M  V30 1140 O 104.321 -0.639658 -1.83681 0
M  V30 1141 C 104.604 -3.60073 0.0443398 0
M  V30 1142 C 104.457 -4.26208 1.43759 0
M  V30 1143 C 105.776 -4.35309 -0.647608 0
M  V30 1144 H 102.895 -0.736175 0.034857 0
M  V30 1145 H 105.537 -1.73694 0.770081 0
M  V30 1146 H 103.687 -3.84823 -0.533224 0
M  V30 1147 H 105.359 -4.12668 2.06162 0
M  V30 1148 H 103.602 -3.84916 2.00056 0
M  V30 1149 H 104.273 -5.35069 1.35665 0
M  V30 1150 H 106.749 -4.15805 -0.156776 0
M  V30 1151 H 105.625 -5.45038 -0.649942 0
M  V30 1152 H 105.886 -4.07598 -1.71219 0
M  V30 1153 N 104.945 -0.338344 -1.53925 0
M  V30 1154 C 105.875 0.51328 -2.27789 0
M  V30 1155 C 106.856 1.107 -1.29149 0
M  V30 1156 O 108.041 1.12937 -1.57984 0
M  V30 1157 C 105.171 1.66697 -3.04679 0
M  V30 1158 C 104.125 1.20183 -4.1078 0
M  V30 1159 C 103.451 2.44363 -4.75595 0
M  V30 1160 C 104.751 0.30605 -5.21403 0
M  V30 1161 H 106.445 -0.102883 -2.99223 0
M  V30 1162 H 103.991 -0.0509219 -1.4391 0
M  V30 1163 H 105.944 2.26915 -3.55088 0
M  V30 1164 H 104.668 2.30995 -2.30887 0
M  V30 1165 H 103.327 0.622499 -3.61276 0
M  V30 1166 H 102.975 3.07057 -3.98403 0
M  V30 1167 H 102.675 2.13925 -5.47275 0
M  V30 1168 H 104.199 3.05317 -5.28786 0
M  V30 1169 H 105.613 0.814929 -5.67478 0
M  V30 1170 H 104.01 0.0937929 -6.00027 0
M  V30 1171 H 105.08 -0.65921 -4.80398 0
M  V30 1172 N 106.423 1.57458 -0.0668435 0
M  V30 1173 C 107.37 2.12439 0.902122 0
M  V30 1174 C 108.34 1.03565 1.2986 0
M  V30 1175 O 109.525 1.312 1.38532 0
M  V30 1176 C 106.665 2.6865 2.16614 0
M  V30 1177 C 105.778 3.91663 1.82274 0
M  V30 1178 C 104.913 4.36134 3.0325 0
M  V30 1179 C 103.952 5.51808 2.64904 0
M  V30 1180 N 103.089 5.9126 3.78624 0
M  V30 1181 H 107.929 2.94934 0.426382 0
M  V30 1182 H 105.466 1.4575 0.198819 0
M  V30 1183 H 107.424 2.99346 2.90599 0
M  V30 1184 H 106.054 1.88928 2.61737 0
M  V30 1185 H 105.106 3.6746 0.983719 0
M  V30 1186 H 106.418 4.75693 1.50059 0
M  V30 1187 H 105.572 4.68465 3.85519 0
M  V30 1188 H 104.311 3.50948 3.38655 0
M  V30 1189 H 103.316 5.19133 1.81055 0
M  V30 1190 H 104.541 6.38722 2.30675 0
M  V30 1191 H 102.487 5.09024 4.138 0
M  V30 1192 H 102.404 6.70018 3.5016 0
M  V30 1193 H 103.672 6.28212 4.61486 0
M  V30 1194 N 107.901 -0.206675 1.56239 0
M  V30 1195 C 108.848 -1.25617 1.93621 0
M  V30 1196 C 109.818 -1.45824 0.795274 0
M  V30 1197 O 111.003 -1.59148 1.05245 0
M  V30 1198 C 108.143 -2.59839 2.27107 0
M  V30 1199 C 107.256 -2.47308 3.54207 0
M  V30 1200 C 106.391 -3.74155 3.7707 0
M  V30 1201 C 105.43 -3.56407 4.97635 0
M  V30 1202 N 104.567 -4.75238 5.1681 0
M  V30 1203 H 109.407 -0.930383 2.83104 0
M  V30 1204 H 106.944 -0.448065 1.4011 0
M  V30 1205 H 108.902 -3.38021 2.44535 0
M  V30 1206 H 107.532 -2.90485 1.40778 0
M  V30 1207 H 106.584 -1.60483 3.4489 0
M  V30 1208 H 107.896 -2.30122 4.42544 0
M  V30 1209 H 107.05 -4.60778 3.94675 0
M  V30 1210 H 105.789 -3.94282 2.87042 0
M  V30 1211 H 104.794 -2.68168 4.79964 0
M  V30 1212 H 106.019 -3.37736 5.89161 0
M  V30 1213 H 103.965 -4.95651 4.29728 0
M  V30 1214 H 103.882 -4.60835 5.99306 0
M  V30 1215 H 105.15 -5.63246 5.38864 0
M  V30 1216 N 109.379 -1.50304 -0.473955 0
M  V30 1217 C 110.628 -1.60392 -1.22301 0
M  V30 1218 C 110.941 -0.308411 -1.93153 0
M  V30 1219 O 112.147 -0.288156 -2.69966 0
M  V30 1220 C 110.603 -2.83109 -2.2221 0
M  V30 1221 C 110.211 -4.19524 -1.57173 0
M  V30 1222 C 111.955 -3.0254 -2.97775 0
M  V30 1223 C 109.862 -5.33431 -2.55353 0
M  V30 1224 H 108.792 -0.597286 -0.460179 0
M  V30 1225 H 111.443 -1.76731 -0.493803 0
M  V30 1226 H 109.825 -2.60322 -2.9841 0
M  V30 1227 H 110.999 -4.52554 -0.867824 0
M  V30 1228 H 109.314 -4.05674 -0.939002 0
M  V30 1229 H 111.911 -3.84811 -3.71248 0
M  V30 1230 H 112.254 -2.14154 -3.56992 0
M  V30 1231 H 112.787 -3.25494 -2.28688 0
M  V30 1232 H 109.526 -6.23962 -2.00878 0
M  V30 1233 H 109.046 -5.04823 -3.23904 0
M  V30 1234 H 110.725 -5.63887 -3.17239 0
M  V30 1235 N 110.857 0.726932 -1.39834 0
M  V30 1236 C 111.804 1.841 -1.39197 0
M  V30 1237 C 112.774 1.642 -0.250502 0
M  V30 1238 O 113.959 1.85494 -0.446846 0
M  V30 1239 C 111.099 3.21697 -1.24919 0
M  V30 1240 C 110.212 3.53247 -2.48678 0
M  V30 1241 C 109.347 4.80289 -2.26928 0
M  V30 1242 C 108.386 5.04707 -3.4632 0
M  V30 1243 N 107.523 6.22956 -3.23836 0
M  V30 1244 H 112.363 1.83979 -2.34427 0
M  V30 1245 H 109.9 0.898876 -1.16442 0
M  V30 1246 H 111.858 4.01137 -1.1465 0
M  V30 1247 H 110.488 3.21076 -0.333153 0
M  V30 1248 H 109.54 2.68447 -2.69519 0
M  V30 1249 H 110.852 3.67205 -3.37582 0
M  V30 1250 H 110.006 5.67725 -2.13947 0
M  V30 1251 H 108.745 4.68519 -1.35431 0
M  V30 1252 H 107.75 4.1573 -3.5979 0
M  V30 1253 H 108.975 5.18357 -4.38729 0
M  V30 1254 H 106.921 6.12459 -2.35011 0
M  V30 1255 H 106.838 6.37539 -4.063 0
M  V30 1256 H 108.106 7.1321 -3.14566 0
M  V30 1257 N 112.336 1.25143 0.95797 0
M  V30 1258 C 113.286 1.01924 2.0395 0
M  V30 1259 C 114.27 -0.0427175 1.60843 0
M  V30 1260 O 115.462 0.17221 1.7616 0
M  V30 1261 C 112.591 0.636373 3.3735 0
M  V30 1262 C 111.677 1.73492 3.8699 0
M  V30 1263 N 112.068 2.96945 4.0946 0
M  V30 1264 C 110.366 1.61467 4.15746 0
M  V30 1265 C 111.067 3.68228 4.50315 0
M  V30 1266 N 110.043 2.95833 4.56053 0
M  V30 1267 H 113.845 1.95653 2.19311 0
M  V30 1268 H 111.359 1.15413 1.14253 0
M  V30 1269 H 113.356 0.451233 4.14451 0
M  V30 1270 H 112.016 -0.293621 3.2337 0
M  V30 1271 H 113.027 3.33025 3.96629 0
M  V30 1272 H 109.704 0.753394 4.10646 0
M  V30 1273 H 111.094 4.74178 4.76031 0
M  V30 1274 N 113.814 -1.1601 1.06675 0
M  V30 1275 C 114.724 -2.24156 0.692179 0
M  V30 1276 C 115.74 -1.71507 -0.293513 0
M  V30 1277 O 116.916 -2.009 -0.141861 0
M  V30 1278 C 113.981 -3.46587 0.0884131 0
M  V30 1279 C 113.042 -4.14257 1.12646 0
M  V30 1280 C 112.275 -5.30844 0.551416 0
M  V30 1281 O 112.498 -5.66858 -0.634656 0
M  V30 1282 O 111.432 -5.87848 1.29298 0
M  V30 1283 H 115.258 -2.58513 1.59388 0
M  V30 1284 H 112.843 -1.23599 0.83926 0
M  V30 1285 H 114.725 -4.20679 -0.246361 0
M  V30 1286 H 113.4 -3.13994 -0.786712 0
M  V30 1287 H 112.307 -3.42118 1.51348 0
M  V30 1288 H 113.64 -4.50914 1.97325 0
M  V30 1289 N 115.292 -0.849877 -1.32721 0
M  V30 1290 C 116.24 -0.279745 -2.30912 0
M  V30 1291 C 117.234 0.594278 -1.58634 0
M  V30 1292 O 118.44 0.482613 -1.73409 0
M  V30 1293 H 114.815 -0.0717521 -0.748569 0
M  V30 1294 H 116.786 -1.12222 -2.76494 0
M  V30 1295 C 115.535 0.521108 -3.43773 0
M  V30 1296 H 114.858 -0.142141 -3.99547 0
M  V30 1297 H 116.298 0.885693 -4.14646 0
M  V30 1298 C 114.757 1.70442 -2.90605 0
M  V30 1299 O 115.287 2.8034 -2.87702 0
M  V30 1300 N 113.493 1.52991 -2.47067 0
M  V30 1301 H 113.04 0.635914 -2.49628 0
M  V30 1302 H 112.998 2.32311 -2.11847 0
M  V30 1303 N 116.77 1.45427 -0.607355 0
M  V30 1304 C 118.019 2.01452 -0.100036 0
M  V30 1305 C 118.332 1.48159 1.27704 0
M  V30 1306 O 119.538 1.96159 1.87707 0
M  V30 1307 C 117.994 3.59672 -0.128158 0
M  V30 1308 C 117.602 4.21962 -1.50507 0
M  V30 1309 C 119.346 4.23262 0.323932 0
M  V30 1310 C 117.253 5.72333 -1.48959 0
M  V30 1311 H 116.183 0.75325 -0.0336299 0
M  V30 1312 H 118.834 1.66901 -0.76265 0
M  V30 1313 H 117.216 3.91411 0.601105 0
M  V30 1314 H 118.39 4.01796 -2.25602 0
M  V30 1315 H 116.705 3.70565 -1.89923 0
M  V30 1316 H 119.302 5.33522 0.354691 0
M  V30 1317 H 119.645 3.93921 1.34656 0
M  V30 1318 H 120.178 3.96239 -0.352056 0
M  V30 1319 H 116.917 6.06373 -2.48981 0
M  V30 1320 H 116.437 5.94691 -0.781214 0
M  V30 1321 H 118.116 6.35525 -1.21313 0
M  V30 1322 N 118.248 0.346503 1.53744 0
M  V30 1323 C 119.494 -0.249473 2.0126 0
M  V30 1324 C 119.827 -1.49965 1.23386 0
M  V30 1325 O 119.102 -1.91811 0.32229 0
M  V30 1326 C 119.385 -0.560643 3.55709 0
M  V30 1327 C 119.238 0.701836 4.44291 0
M  V30 1328 C 120.557 -1.36905 4.18264 0
M  V30 1329 H 117.676 -0.0891987 0.731582 0
M  V30 1330 H 120.318 0.467624 1.84156 0
M  V30 1331 H 118.468 -1.17156 3.70414 0
M  V30 1332 H 120.14 1.33974 4.41417 0
M  V30 1333 H 118.383 1.32612 4.13033 0
M  V30 1334 H 119.054 0.43933 5.50249 0
M  V30 1335 H 121.53 -0.852448 4.07275 0
M  V30 1336 H 120.406 -1.55553 5.26398 0
M  V30 1337 H 120.667 -2.37203 3.73078 0
M  V30 1338 N 119.726 -1.57421 0.075193 0
M  V30 1339 C 120.954 -1.97946 -0.602076 0
M  V30 1340 C 121.369 -0.953674 -1.62943 0
M  V30 1341 O 120.726 0.0592551 -1.82404 0
M  V30 1342 C 120.777 -3.38546 -1.26762 0
M  V30 1343 O 120.498 -4.37195 -0.281376 0
M  V30 1344 C 121.999 -3.93966 -2.03239 0
M  V30 1345 H 119.219 -0.650918 -0.162931 0
M  V30 1346 H 121.763 -2.03959 0.148601 0
M  V30 1347 H 119.918 -3.33609 -1.96936 0
M  V30 1348 H 120.332 -5.18975 -0.759267 0
M  V30 1349 H 121.806 -4.94555 -2.45193 0
M  V30 1350 H 122.283 -3.30693 -2.8903 0
M  V30 1351 H 122.889 -4.02315 -1.37924 0
M  V30 1352 N 121.204 0.198386 -1.56346 0
M  V30 1353 C 122.134 1.24865 -1.9731 0
M  V30 1354 C 123.115 1.47651 -0.844576 0
M  V30 1355 O 124.3 1.59444 -1.10866 0
M  V30 1356 C 121.43 2.59358 -2.30977 0
M  V30 1357 C 120.384 2.5119 -3.46537 0
M  V30 1358 C 119.71 3.89926 -3.65871 0
M  V30 1359 C 121.01 2.03977 -4.80823 0
M  V30 1360 H 122.704 0.908252 -2.85291 0
M  V30 1361 H 120.25 0.435462 -1.37258 0
M  V30 1362 H 122.203 3.33011 -2.58228 0
M  V30 1363 H 120.927 2.95132 -1.39874 0
M  V30 1364 H 119.586 1.79993 -3.19371 0
M  V30 1365 H 119.234 4.23046 -2.72105 0
M  V30 1366 H 118.934 3.85336 -4.4361 0
M  V30 1367 H 120.458 4.65205 -3.95495 0
M  V30 1368 H 121.872 2.67386 -5.07127 0
M  V30 1369 H 120.269 2.10397 -5.62008 0
M  V30 1370 H 121.339 0.992861 -4.74626 0
M  V30 1371 N 122.682 1.50554 0.465978 0
M  V30 1372 C 123.592 1.72585 1.58907 0
M  V30 1373 C 124.608 0.60911 1.6299 0
M  V30 1374 O 125.784 0.88804 1.80765 0
M  V30 1375 C 122.849 1.81995 2.95091 0
M  V30 1376 C 121.91 3.05751 3.01355 0
M  V30 1377 C 121.143 3.14702 4.31043 0
M  V30 1378 O 121.366 2.30313 5.21835 0
M  V30 1379 O 120.3 4.07468 4.43005 0
M  V30 1380 H 124.126 2.67799 1.43239 0
M  V30 1381 H 121.711 1.34711 0.646013 0
M  V30 1382 H 123.593 1.90335 3.75966 0
M  V30 1383 H 122.268 0.899659 3.10947 0
M  V30 1384 H 121.175 3.02908 2.19539 0
M  V30 1385 H 122.508 3.97375 2.90437 0
M  V30 1386 N 124.16 -0.719506 1.40217 0
M  V30 1387 C 125.437 -1.47221 1.28784 0
M  V30 1388 C 125.817 -2.10883 -0.0956067 0
M  V30 1389 O 125.165 -1.99833 -1.10811 0
M  V30 1390 C 125.375 -2.5111 2.42373 0
M  V30 1391 C 126.723 -3.17053 2.82423 0
M  V30 1392 O 127.747 -2.61429 2.41937 0
M  V30 1393 O 126.606 -4.17742 3.52355 0
M  V30 1394 H 123.7 -0.654491 0.50554 0
M  V30 1395 H 126.246 -0.752014 1.52128 0
M  V30 1396 H 125.018 -2.02556 3.34793 0
M  V30 1397 H 124.641 -3.3067 2.20778 0
M  V30 1398 N 125.638 -1.25649 -0.95132 0
M  V30 1399 C 126.887 -1.09988 -1.69073 0
M  V30 1400 C 127.2 0.358355 -1.92289 0
M  V30 1401 O 128.406 0.635466 -2.63958 0
M  V30 1402 C 126.862 -1.92012 -3.044 0
M  V30 1403 C 126.47 -3.42347 -2.88968 0
M  V30 1404 C 128.214 -1.8493 -3.82101 0
M  V30 1405 C 126.121 -4.16655 -4.19705 0
M  V30 1406 H 125.051 -0.407993 -0.63408 0
M  V30 1407 H 127.702 -1.49873 -1.05879 0
M  V30 1408 H 126.084 -1.44952 -3.68517 0
M  V30 1409 H 127.258 -3.97104 -2.33762 0
M  V30 1410 H 125.573 -3.50557 -2.24719 0
M  V30 1411 H 128.17 -2.37739 -4.78941 0
M  V30 1412 H 128.513 -0.817883 -4.08187 0
M  V30 1413 H 129.046 -2.29758 -3.2474 0
M  V30 1414 H 125.785 -5.20224 -3.98807 0
M  V30 1415 H 125.305 -3.66681 -4.74663 0
M  V30 1416 H 126.984 -4.24551 -4.88227 0
M  V30 1417 N 127.117 1.15442 -1.07289 0
M  V30 1418 C 128.347 1.89821 -0.815576 0
M  V30 1419 C 128.755 1.7823 0.634867 0
M  V30 1420 O 128.098 1.13152 1.44715 0
M  V30 1421 C 128.16 3.40817 -1.14385 0
M  V30 1422 C 127.824 3.76193 -2.59476 0
M  V30 1423 C 128.821 3.77269 -3.57721 0
M  V30 1424 C 126.506 4.0652 -2.95037 0
M  V30 1425 C 128.5 4.08176 -4.89562 0
M  V30 1426 C 126.187 4.37092 -4.27076 0
M  V30 1427 C 127.185 4.37902 -5.24148 0
M  V30 1428 O 126.873 4.67741 -6.53815 0
M  V30 1429 H 126.605 0.608465 -0.294528 0
M  V30 1430 H 129.159 1.472 -1.43252 0
M  V30 1431 H 127.389 3.83835 -0.469865 0
M  V30 1432 H 129.078 3.96485 -0.869179 0
M  V30 1433 H 129.844 3.5394 -3.3159 0
M  V30 1434 H 125.723 4.05049 -2.20128 0
M  V30 1435 H 129.267 4.08723 -5.65324 0
M  V30 1436 H 125.164 4.59889 -4.5296 0
M  V30 1437 H 125.932 4.85509 -6.58957 0
M  V30 1438 N 128.595 0.856903 1.32268 0
M  V30 1439 C 129.505 0.306131 2.32594 0
M  V30 1440 C 130.521 -0.577209 1.64147 0
M  V30 1441 O 131.697 -0.477043 1.95669 0
M  V30 1442 C 128.762 -0.494561 3.43154 0
M  V30 1443 C 127.823 0.415186 4.27288 0
M  V30 1444 C 127.056 -0.347387 5.32568 0
M  V30 1445 O 127.279 -1.57708 5.48165 0
M  V30 1446 O 126.213 0.287982 6.01211 0
M  V30 1447 H 130.039 1.13737 2.81598 0
M  V30 1448 H 127.624 0.619902 1.35932 0
M  V30 1449 H 129.506 -0.948944 4.10576 0
M  V30 1450 H 128.181 -1.30257 2.96336 0
M  V30 1451 H 127.088 0.917793 3.62667 0
M  V30 1452 H 128.421 1.18844 4.77637 0
M  V30 1453 N 130.073 -1.45103 0.615059 0
M  V30 1454 C 131.298 -2.07064 0.117988 0
M  V30 1455 C 131.723 -1.4554 -1.19163 0
M  V30 1456 O 131.081 -0.550855 -1.72729 0
M  V30 1457 C 131.129 -3.606 -0.000288387 0
M  V30 1458 O 130.233 -3.98847 -1.04856 0
M  V30 1459 H 129.574 -0.659467 0.0774581 0
M  V30 1460 H 132.104 -1.86236 0.847186 0
M  V30 1461 H 132.114 -4.07529 -0.196091 0
M  V30 1462 H 130.789 -4.04765 0.955932 0
M  V30 1463 H 129.366 -3.63577 -0.828619 0
M  V30 1464 N 131.551 -0.354651 -1.53558 0
M  V30 1465 C 132.779 0.239515 -2.05509 0
M  V30 1466 C 133.194 1.4333 -1.2289 0
M  V30 1467 O 132.551 1.80538 -0.266899 0
M  V30 1468 C 132.602 0.643719 -3.55723 0
M  V30 1469 O 132.323 -0.502602 -4.35207 0
M  V30 1470 C 133.824 1.29743 -4.23889 0
M  V30 1471 H 131.044 0.0442697 -0.669538 0
M  V30 1472 H 133.588 -0.509856 -1.98042 0
M  V30 1473 H 131.743 1.34302 -3.63376 0
M  V30 1474 H 132.157 -0.178172 -5.24197 0
M  V30 1475 H 133.631 1.53091 -5.30346 0
M  V30 1476 H 134.108 2.25441 -3.76926 0
M  V30 1477 H 134.714 0.639865 -4.20459 0
M  V30 1478 N 133.029 1.57378 -0.0835403 0
M  V30 1479 C 134.257 1.98263 0.59157 0
M  V30 1480 C 134.672 0.962302 1.62435 0
M  V30 1481 O 134.029 -0.049581 1.82433 0
M  V30 1482 C 134.08 3.39214 1.24965 0
M  V30 1483 O 133.801 4.37339 0.258186 0
M  V30 1484 C 135.302 3.95038 2.01147 0
M  V30 1485 H 132.522 0.651773 0.159477 0
M  V30 1486 H 135.066 2.03878 -0.159415 0
M  V30 1487 H 133.221 3.34649 1.95164 0
M  V30 1488 H 133.635 5.19371 0.731734 0
M  V30 1489 H 135.109 4.95848 2.42567 0
M  V30 1490 H 135.586 3.32222 2.87272 0
M  V30 1491 H 136.192 4.0304 1.35789 0
M  V30 1492 N 134.507 -0.190092 1.56449 0
M  V30 1493 C 135.457 -1.23977 1.91347 0
M  V30 1494 C 136.441 -1.40747 0.779693 0
M  V30 1495 O 137.633 -1.43033 1.04262 0
M  V30 1496 C 134.762 -2.58347 2.26079 0
M  V30 1497 C 133.848 -2.4535 3.45925 0
M  V30 1498 N 134.239 -2.02039 4.63696 0
M  V30 1499 C 132.537 -2.76229 3.50162 0
M  V30 1500 C 133.238 -2.01053 5.4585 0
M  V30 1501 N 132.214 -2.42747 4.8639 0
M  V30 1502 H 136.016 -0.896318 2.79899 0
M  V30 1503 H 133.53 -0.398496 1.57435 0
M  V30 1504 H 135.527 -3.34173 2.49267 0
M  V30 1505 H 134.187 -2.93512 1.38856 0
M  V30 1506 H 135.198 -1.7267 4.88268 0
M  V30 1507 H 131.875 -3.15556 2.73369 0
M  V30 1508 H 133.265 -1.69426 6.50188 0
M  V30 1509 N 135.985 -1.50799 -0.457987 0
M  V30 1510 C 137.215 -1.65977 -1.23025 0
M  V30 1511 C 137.623 -0.347918 -1.85974 0
M  V30 1512 O 136.966 0.68148 -1.70592 0
M  V30 1513 C 137.028 -2.70309 -2.3701 0
M  V30 1514 C 136.692 -4.135 -1.94594 0
M  V30 1515 C 137.689 -4.98949 -1.46101 0
M  V30 1516 C 135.374 -4.5949 -2.02915 0
M  V30 1517 C 137.368 -6.28442 -1.06489 0
M  V30 1518 C 135.055 -5.88984 -1.62914 0
M  V30 1519 C 136.053 -6.73286 -1.1478 0
M  V30 1520 O 135.741 -8.00362 -0.75339 0
M  V30 1521 H 135.473 -0.56064 -0.377702 0
M  V30 1522 H 138.027 -1.97857 -0.551537 0
M  V30 1523 H 136.257 -2.337 -3.08093 0
M  V30 1524 H 137.946 -2.74574 -2.98938 0
M  V30 1525 H 138.712 -4.6463 -1.39084 0
M  V30 1526 H 134.591 -3.94009 -2.39328 0
M  V30 1527 H 138.135 -6.94194 -0.688488 0
M  V30 1528 H 134.032 -6.22822 -1.69595 0
M  V30 1529 H 134.8 -8.13744 -0.88108 0
M  V30 1530 N 137.463 0.71206 -1.40597 0
M  V30 1531 C 138.693 1.49894 -1.42181 0
M  V30 1532 C 139.101 1.89189 -0.0208078 0
M  V30 1533 O 138.444 1.56223 0.966436 0
M  V30 1534 C 138.506 2.80215 -2.25211 0
M  V30 1535 C 138.17 2.63221 -3.73582 0
M  V30 1536 C 139.167 2.30249 -4.66135 0
M  V30 1537 C 136.852 2.79376 -4.17438 0
M  V30 1538 C 138.846 2.13645 -6.00529 0
M  V30 1539 C 136.533 2.6239 -5.51901 0
M  V30 1540 C 137.531 2.29573 -6.43262 0
M  V30 1541 O 137.219 2.12719 -7.75246 0
M  V30 1542 H 136.951 0.469031 -0.486812 0
M  V30 1543 H 139.505 0.88564 -1.85326 0
M  V30 1544 H 137.735 3.4389 -1.76852 0
M  V30 1545 H 139.424 3.41947 -2.18694 0
M  V30 1546 H 140.19 2.17398 -4.33547 0
M  V30 1547 H 136.069 3.03906 -3.46644 0
M  V30 1548 H 139.613 1.87953 -6.71803 0
M  V30 1549 H 135.51 2.74826 -5.84073 0
M  V30 1550 H 136.278 2.27611 -7.86216 0
M  V30 1551 N 138.941 1.26152 0.944643 0
M  V30 1552 C 139.871 1.09902 2.06019 0
M  V30 1553 C 140.852 0.00519538 1.70099 0
M  V30 1554 O 142.037 0.176583 1.93396 0
M  V30 1555 C 139.167 0.727562 3.39594 0
M  V30 1556 C 138.121 1.77274 3.89561 0
M  V30 1557 C 137.447 1.25569 5.19747 0
M  V30 1558 C 138.747 3.17357 4.14827 0
M  V30 1559 H 140.441 2.03217 2.19871 0
M  V30 1560 H 137.987 0.978452 1.05652 0
M  V30 1561 H 139.94 0.600777 4.17095 0
M  V30 1562 H 138.664 -0.241287 3.25707 0
M  V30 1563 H 137.323 1.88814 3.14237 0
M  V30 1564 H 136.971 0.276783 5.02238 0
M  V30 1565 H 136.671 1.95433 5.54148 0
M  V30 1566 H 138.195 1.1415 5.99835 0
M  V30 1567 H 139.609 3.08914 4.82954 0
M  V30 1568 H 138.006 3.84781 4.60504 0
M  V30 1569 H 139.076 3.63673 3.20734 0
M  V30 1570 N 140.419 -1.14872 1.07899 0
M  V30 1571 C 141.665 -1.86064 0.806725 0
M  V30 1572 C 141.998 -1.82434 -0.665706 0
M  V30 1573 O 141.273 -1.25138 -1.48899 0
M  V30 1574 C 141.556 -3.34929 1.32267 0
M  V30 1575 C 141.409 -3.47161 2.86006 0
M  V30 1576 C 142.728 -4.29863 0.943717 0
M  V30 1577 H 139.847 -0.675591 0.294526 0
M  V30 1578 H 142.489 -1.34925 1.33773 0
M  V30 1579 H 140.639 -3.78611 0.870974 0
M  V30 1580 H 142.311 -3.12302 3.39507 0
M  V30 1581 H 140.554 -2.88539 3.23925 0
M  V30 1582 H 141.225 -4.51777 3.17177 0
M  V30 1583 H 143.701 -3.9417 1.33302 0
M  V30 1584 H 142.577 -5.32494 1.33198 0
M  V30 1585 H 142.838 -4.41846 -0.149796 0
M  V30 1586 N 141.898 -0.863906 -1.31812 0
M  V30 1587 C 142.831 -0.259963 -2.26714 0
M  V30 1588 C 143.809 0.607392 -1.50829 0
M  V30 1589 O 144.993 0.562155 -1.79922 0
M  V30 1590 C 142.12 0.632456 -3.32743 0
M  V30 1591 C 141.166 -0.162743 -4.26189 0
M  V30 1592 S 141.999 -1.53726 -5.12961 0
M  V30 1593 C 143.155 -0.650803 -6.22507 0
M  V30 1594 H 143.388 -1.06445 -2.77591 0
M  V30 1595 H 140.921 -0.662071 -1.39485 0
M  V30 1596 H 142.879 1.14167 -3.94305 0
M  V30 1597 H 141.54 1.41083 -2.80632 0
M  V30 1598 H 140.733 0.517366 -5.01338 0
M  V30 1599 H 140.335 -0.60385 -3.69093 0
M  V30 1600 H 142.627 0.141134 -6.77353 0
M  V30 1601 H 143.57 -1.37322 -6.94657 0
M  V30 1602 H 143.978 -0.221041 -5.64067 0
M  V30 1603 N 143.376 1.44774 -0.622745 0
M  V30 1604 C 144.308 2.28856 0.125485 0
M  V30 1605 C 145.321 1.40811 0.817069 0
M  V30 1606 O 146.51 1.65044 0.679918 0
M  V30 1607 C 143.61 3.16963 1.19949 0
M  V30 1608 C 142.783 4.33374 0.592064 0
M  V30 1609 C 141.842 5.02577 1.55893 0
M  V30 1610 O 140.868 5.58873 1.07933 0
M  V30 1611 N 142.07 5.03256 2.89334 0
M  V30 1612 H 144.835 2.93713 -0.596068 0
M  V30 1613 H 142.396 1.55129 -0.463303 0
M  V30 1614 H 144.388 3.60123 1.84644 0
M  V30 1615 H 142.958 2.53913 1.82337 0
M  V30 1616 H 142.178 3.93509 -0.233322 0
M  V30 1617 H 143.466 5.08527 0.166738 0
M  V30 1618 H 142.864 4.58836 3.30887 0
M  V30 1619 H 141.421 5.50232 3.49412 0
M  V30 1620 N 144.854 0.36279 1.53368 0
M  V30 1621 C 145.784 -0.476976 2.28576 0
M  V30 1622 C 146.765 -1.08631 1.30894 0
M  V30 1623 O 147.95 -1.10409 1.59761 0
M  V30 1624 C 145.08 -1.61828 3.07293 0
M  V30 1625 C 144.034 -1.13633 4.1264 0
M  V30 1626 C 143.36 -2.36766 4.79423 0
M  V30 1627 C 144.66 -0.223061 5.21823 0
M  V30 1628 H 146.354 0.150474 2.99022 0
M  V30 1629 H 143.9 0.0738103 1.43811 0
M  V30 1630 H 145.853 -2.21237 3.58653 0
M  V30 1631 H 144.577 -2.27292 2.34533 0
M  V30 1632 H 143.236 -0.564945 3.62221 0
M  V30 1633 H 142.884 -3.0068 4.03238 0
M  V30 1634 H 142.584 -2.05192 5.50609 0
M  V30 1635 H 144.108 -2.96865 5.33576 0
M  V30 1636 H 145.522 -0.724545 5.68703 0
M  V30 1637 H 143.919 0.001678 6.001 0
M  V30 1638 H 144.989 0.735553 4.79289 0
M  V30 1639 N 146.332 -1.57332 0.0918853 0
M  V30 1640 C 147.578 -1.94524 -0.573425 0
M  V30 1641 C 147.911 -0.973578 -1.68033 0
M  V30 1642 O 147.186 -0.00609226 -1.94499 0
M  V30 1643 C 147.469 -3.41858 -1.13161 0
M  V30 1644 C 147.322 -4.4979 -0.0299747 0
M  V30 1645 C 148.641 -3.90435 -2.03098 0
M  V30 1646 H 145.76 -0.70734 -0.206975 0
M  V30 1647 H 148.402 -1.89309 0.161942 0
M  V30 1648 H 146.552 -3.46433 -1.7583 0
M  V30 1649 H 148.224 -4.57327 0.604112 0
M  V30 1650 H 146.467 -4.291 0.636833 0
M  V30 1651 H 147.138 -5.50069 -0.461287 0
M  V30 1652 H 149.614 -3.87992 -1.50338 0
M  V30 1653 H 148.49 -4.94097 -2.39081 0
M  V30 1654 H 148.751 -3.29541 -2.94712 0
M  V30 1655 N 147.81 0.181792 -1.56548 0
M  V30 1656 C 149.035 0.920019 -1.85877 0
M  V30 1657 C 149.46 1.75494 -0.677021 0
M  V30 1658 O 148.818 1.77399 0.374056 0
M  V30 1659 C 148.866 1.78112 -3.13542 0
M  V30 1660 O 147.97 2.88152 -2.95029 0
M  V30 1661 H 147.311 0.258334 -0.611686 0
M  V30 1662 H 149.841 0.183092 -2.03779 0
M  V30 1663 H 149.851 2.18314 -3.44678 0
M  V30 1664 H 148.526 1.16777 -3.99169 0
M  V30 1665 H 147.103 2.51609 -2.75222 0
M  V30 1666 N 149.288 1.51039 0.449983 0
M  V30 1667 C 150.536 1.62759 1.19808 0
M  V30 1668 C 150.857 0.339981 1.92013 0
M  V30 1669 O 150.127 -0.643606 1.85026 0
M  V30 1670 H 148.707 0.599811 0.445237 0
M  V30 1671 H 151.369 1.87914 0.517138 0
M  V30 1672 H 150.465 2.44911 1.93455 0
M  V30 1673 N 150.766 -0.704594 1.40972 0
M  V30 1674 C 152.014 -1.46169 1.39568 0
M  V30 1675 C 152.335 -1.95 0.00253745 0
M  V30 1676 O 151.605 -1.71095 -0.954114 0
M  V30 1677 H 150.185 -0.542326 0.513704 0
M  V30 1678 H 152.847 -0.834553 1.76128 0
M  V30 1679 H 151.943 -2.32922 2.07735 0
M  V30 1680 N 152.244 -1.26651 -0.937939 0
M  V30 1681 C 153.154 -1.10276 -2.07066 0
M  V30 1682 C 154.17 -0.0354197 -1.73964 0
M  V30 1683 O 155.346 -0.239816 -1.99967 0
M  V30 1684 C 152.411 -0.740887 -3.38691 0
M  V30 1685 C 151.472 -1.88799 -3.85556 0
M  V30 1686 C 150.705 -1.54329 -5.10899 0
M  V30 1687 O 150.928 -0.446494 -5.6865 0
M  V30 1688 O 149.862 -2.37911 -5.52885 0
M  V30 1689 H 153.688 -2.05309 -2.23789 0
M  V30 1690 H 151.273 -1.05743 -1.0554 0
M  V30 1691 H 153.155 -0.55195 -4.1777 0
M  V30 1692 H 151.83 0.180022 -3.23199 0
M  V30 1693 H 150.737 -2.13191 -3.07409 0
M  V30 1694 H 152.07 -2.78874 -4.05574 0
M  V30 1695 N 153.722 1.14298 -1.08507 0
M  V30 1696 C 154.652 2.21542 -0.737646 0
M  V30 1697 C 155.633 1.67773 0.280377 0
M  V30 1698 O 156.818 1.93616 0.150521 0
M  V30 1699 C 153.948 3.46988 -0.147259 0
M  V30 1700 C 152.902 4.13789 -1.09374 0
M  V30 1701 C 152.228 5.33449 -0.365524 0
M  V30 1702 C 153.528 4.62208 -2.4323 0
M  V30 1703 H 155.222 2.5086 -1.6343 0
M  V30 1704 H 152.768 1.20576 -0.787243 0
M  V30 1705 H 154.721 4.21262 0.107808 0
M  V30 1706 H 153.445 3.17037 0.784538 0
M  V30 1707 H 152.104 3.4147 -1.33393 0
M  V30 1708 H 151.752 4.99759 0.57011 0
M  V30 1709 H 151.452 5.79088 -0.996512 0
M  V30 1710 H 152.976 6.10485 -0.118534 0
M  V30 1711 H 154.39 5.27952 -2.23472 0
M  V30 1712 H 152.787 5.18553 -3.02031 0
M  V30 1713 H 153.857 3.77224 -3.04681 0
M  V30 1714 N 155.201 0.870884 1.31352 0
M  V30 1715 C 156.448 0.482273 1.96673 0
M  V30 1716 C 156.776 -0.965638 1.68836 0
M  V30 1717 O 156.031 -1.69514 0.977937 0
M  V30 1718 C 156.33 0.687157 3.50732 0
M  V30 1719 C 155.996 2.108 3.9859 0
M  V30 1720 C 154.658 2.49656 4.1137 0
M  V30 1721 C 157.01 3.03459 4.23748 0
M  V30 1722 C 154.338 3.80412 4.46659 0
M  V30 1723 C 156.69 4.3373 4.60501 0
M  V30 1724 C 155.354 4.725 4.71487 0
M  V30 1725 H 154.624 0.176476 0.719679 0
M  V30 1726 H 157.271 1.10405 1.56471 0
M  V30 1727 H 155.576 -0.0177476 3.91796 0
M  V30 1728 H 157.273 0.366284 3.99324 0
M  V30 1729 H 153.863 1.79633 3.8914 0
M  V30 1730 H 158.047 2.74665 4.13368 0
M  V30 1731 H 153.303 4.1021 4.53362 0
M  V30 1732 H 157.477 5.05578 4.78919 0
M  V30 1733 H 155.104 5.73859 4.98588 0
M  V30 1734 N 156.679 -1.44442 0.630414 0
M  V30 1735 C 157.956 -1.9549 0.0655657 0
M  V30 1736 C 158.336 -1.5724 -1.40851 0
M  V30 1737 O 157.684 -0.846116 -2.12257 0
M  V30 1738 C 157.894 -3.47812 0.287691 0
M  V30 1739 C 159.242 -4.24216 0.180513 0
M  V30 1740 O 160.266 -3.55526 0.219019 0
M  V30 1741 O 159.125 -5.46434 0.0848493 0
M  V30 1742 H 156.219 -0.826688 -0.0227177 0
M  V30 1743 H 158.765 -1.54496 0.702068 0
M  V30 1744 H 157.537 -3.687 1.31056 0
M  V30 1745 H 157.16 -3.95751 -0.382984 0
M  V30 1746 N 158.157 -0.370918 -1.53173 0
M  V30 1747 C 159.573 -0.0200818 -1.59587 0
M  V30 1748 C 159.773 1.46279 -1.38581 0
M  V30 1749 O 158.829 2.22506 -1.19363 0
M  V30 1750 C 160.142 -0.4808 -2.96831 0
M  V30 1751 C 161.69 -0.435477 -3.09956 0
M  V30 1752 C 162.165 -0.872092 -4.4962 0
M  V30 1753 N 163.656 -0.827364 -4.55751 0
M  V30 1754 C 164.391 -1.13683 -5.62018 0
M  V30 1755 N 163.887 -1.51584 -6.76014 0
M  V30 1756 N 165.68 -1.05927 -5.52029 0
M  V30 1757 H 157.831 -1.33652 -1.65079 0
M  V30 1758 H 160.094 -0.546634 -0.774529 0
M  V30 1759 H 159.8 -1.51577 -3.1736 0
M  V30 1760 H 159.674 0.129796 -3.76977 0
M  V30 1761 H 162.061 0.590371 -2.89134 0
M  V30 1762 H 162.142 -1.08164 -2.31806 0
M  V30 1763 H 161.786 -1.89608 -4.71181 0
M  V30 1764 H 161.716 -0.203127 -5.26208 0
M  V30 1765 H 164.207 -0.548216 -3.73902 0
M  V30 1766 H 164.52 -1.73609 -7.53047 0
M  V30 1767 H 162.865 -1.55454 -6.77391 0
M  V30 1768 H 166.056 -0.762321 -4.61851 0
M  V30 1769 H 166.229 -1.30378 -6.34749 0
M  V30 1770 N 159.635 1.57281 -0.100228 0
M  V30 1771 C 160.884 1.93713 0.561984 0
M  V30 1772 C 161.197 0.984492 1.69018 0
M  V30 1773 O 162.403 1.24273 2.41389 0
M  V30 1774 C 160.859 3.4421 1.05106 0
M  V30 1775 C 160.467 4.47975 -0.0476628 0
M  V30 1776 C 162.211 3.89595 1.68571 0
M  V30 1777 C 160.118 5.89631 0.457055 0
M  V30 1778 H 159.048 0.723082 0.2137 0
M  V30 1779 H 161.699 1.82644 -0.177057 0
M  V30 1780 H 160.081 3.50449 1.84395 0
M  V30 1781 H 161.255 4.53385 -0.823333 0
M  V30 1782 H 159.57 4.1223 -0.587816 0
M  V30 1783 H 162.167 4.92832 2.07414 0
M  V30 1784 H 162.51 3.28526 2.55688 0
M  V30 1785 H 163.043 3.86078 0.958562 0
M  V30 1786 H 159.782 6.54411 -0.377616 0
M  V30 1787 H 159.302 5.87681 1.19962 0
M  V30 1788 H 160.981 6.40363 0.92437 0
M  V30 1789 N 161.113 -0.173488 1.56642 0
M  V30 1790 C 162.043 -1.2171 1.99271 0
M  V30 1791 C 163.024 -1.46289 0.867959 0
M  V30 1792 O 164.209 -1.5766 1.13388 0
M  V30 1793 C 161.339 -2.55651 2.35074 0
M  V30 1794 C 160.293 -2.45645 3.50489 0
M  V30 1795 C 159.619 -3.84056 3.72028 0
M  V30 1796 C 160.919 -1.96302 4.84007 0
M  V30 1797 H 162.613 -0.86275 2.867 0
M  V30 1798 H 160.159 -0.413571 1.37933 0
M  V30 1799 H 162.112 -3.2886 2.63494 0
M  V30 1800 H 160.836 -2.92869 1.44552 0
M  V30 1801 H 159.495 -1.7489 3.22194 0
M  V30 1802 H 159.143 -4.18664 2.788 0
M  V30 1803 H 158.843 -3.7823 4.49684 0
M  V30 1804 H 160.367 -4.58854 4.02846 0
M  V30 1805 H 161.781 -2.59284 5.11317 0
M  V30 1806 H 160.178 -2.01429 5.65284 0
M  V30 1807 H 161.248 -0.917226 4.76146 0
M  V30 1808 N 162.591 -1.51276 -0.441967 0
M  V30 1809 C 163.501 -1.75092 -1.56141 0
M  V30 1810 C 164.517 -0.634963 -1.62001 0
M  V30 1811 O 165.693 -0.916686 -1.79329 0
M  V30 1812 C 162.758 -1.86666 -2.92158 0
M  V30 1813 C 161.819 -3.10506 -2.96453 0
M  V30 1814 C 161.052 -3.21519 -4.25982 0
M  V30 1815 O 161.275 -2.38586 -5.18105 0
M  V30 1816 O 160.209 -4.14465 -4.36466 0
M  V30 1817 H 164.035 -2.70044 -1.38961 0
M  V30 1818 H 161.62 -1.35722 -0.624499 0
M  V30 1819 H 163.502 -1.96292 -3.72891 0
M  V30 1820 H 162.177 -0.949014 -3.09476 0
M  V30 1821 H 161.084 -3.06363 -2.14692 0
M  V30 1822 H 162.417 -4.01945 -2.84079 0
M  V30 1823 N 164.069 0.697108 -1.41344 0
M  V30 1824 C 165.485 1.00751 -1.2378 0
M  V30 1825 C 165.685 2.01105 -0.126066 0
M  V30 1826 O 164.741 2.47295 0.51004 0
M  V30 1827 C 166.054 1.53359 -2.58653 0
M  V30 1828 C 167.602 1.6525 -2.65822 0
M  V30 1829 C 168.077 2.2126 -4.01009 0
M  V30 1830 N 169.568 2.28622 -4.02847 0
M  V30 1831 C 170.303 2.72984 -5.04249 0
M  V30 1832 N 169.799 3.16962 -6.16041 0
M  V30 1833 N 171.592 2.72534 -4.91611 0
M  V30 1834 H 163.743 0.0322662 -2.12375 0
M  V30 1835 H 166.006 0.0768853 -0.944877 0
M  V30 1836 H 165.712 0.870773 -3.4075 0
M  V30 1837 H 165.586 2.51597 -2.81032 0
M  V30 1838 H 167.973 2.30644 -1.84086 0
M  V30 1839 H 168.054 0.655614 -2.47256 0
M  V30 1840 H 167.698 1.56482 -4.83193 0
M  V30 1841 H 167.628 3.21698 -4.16915 0
M  V30 1842 H 170.119 1.97585 -3.22131 0
M  V30 1843 H 170.432 3.49434 -6.89287 0
M  V30 1844 H 168.777 3.14875 -6.1958 0
M  V30 1845 H 171.968 2.37525 -4.0336 0
M  V30 1846 H 172.141 3.06789 -5.70775 0
M  V30 1847 N 165.547 1.27147 0.931209 0
M  V30 1848 C 166.795 1.13055 1.6752 0
M  V30 1849 C 167.116 -0.324791 1.92276 0
M  V30 1850 O 166.386 -1.22775 1.52654 0
M  V30 1851 H 164.966 0.415391 0.620854 0
M  V30 1852 H 167.628 1.59623 1.11833 0
M  V30 1853 H 166.724 1.65694 2.64485 0
M  V30 1854 N 167.025 -1.13721 1.09112 0
M  V30 1855 C 168.271 -1.85198 0.826414 0
M  V30 1856 C 168.604 -1.83129 -0.646319 0
M  V30 1857 O 167.879 -1.2671 -1.47563 0
M  V30 1858 C 168.162 -3.33507 1.35812 0
M  V30 1859 C 168.015 -3.44108 2.89672 0
M  V30 1860 C 169.334 -4.28838 0.989256 0
M  V30 1861 H 166.453 -0.67243 0.301675 0
M  V30 1862 H 169.095 -1.33499 1.35197 0
M  V30 1863 H 167.245 -3.77666 0.911082 0
M  V30 1864 H 168.917 -3.08684 3.428 0
M  V30 1865 H 167.16 -2.85087 3.26967 0
M  V30 1866 H 167.831 -4.48388 3.21951 0
M  V30 1867 H 170.307 -3.92734 1.37475 0
M  V30 1868 H 169.183 -5.31051 1.38838 0
M  V30 1869 H 169.444 -4.4198 -0.102924 0
M  V30 1870 N 168.503 -0.877838 -1.30888 0
M  V30 1871 C 169.733 -0.506678 -2.00291 0
M  V30 1872 C 170.141 0.907449 -1.66018 0
M  V30 1873 O 169.484 1.60719 -0.88967 0
M  V30 1874 C 169.546 -0.59323 -3.54572 0
M  V30 1875 C 169.21 -1.97038 -4.12341 0
M  V30 1876 C 170.207 -2.93889 -4.28865 0
M  V30 1877 C 167.892 -2.27383 -4.47886 0
M  V30 1878 C 169.886 -4.19224 -4.80136 0
M  V30 1879 C 167.573 -3.52965 -4.98857 0
M  V30 1880 C 168.571 -4.48701 -5.14934 0
M  V30 1881 O 168.259 -5.72056 -5.64808 0
M  V30 1882 H 167.991 -0.1951 -0.647234 0
M  V30 1883 H 170.545 -1.18301 -1.6791 0
M  V30 1884 H 168.775 0.140057 -3.86446 0
M  V30 1885 H 170.464 -0.234372 -4.05223 0
M  V30 1886 H 171.23 -2.71756 -4.01714 0
M  V30 1887 H 167.109 -1.53639 -4.34645 0
M  V30 1888 H 170.653 -4.93956 -4.92599 0
M  V30 1889 H 166.55 -3.74939 -5.25443 0
M  V30 1890 H 167.318 -5.74337 -5.83163 0
M  V30 1891 N 169.982 1.44106 -0.638065 0
M  V30 1892 C 171.21 2.06336 -0.152615 0
M  V30 1893 C 171.625 1.47731 1.17563 0
M  V30 1894 O 170.982 0.602806 1.72257 0
M  V30 1895 C 171.033 3.61479 -0.0391491 0
M  V30 1896 O 170.754 4.17903 -1.31487 0
M  V30 1897 C 172.255 4.40757 0.474176 0
M  V30 1898 H 169.475 0.665862 -0.0828776 0
M  V30 1899 H 172.019 1.84862 -0.87443 0
M  V30 1900 H 170.174 3.82191 0.633142 0
M  V30 1901 H 170.588 5.11416 -1.16421 0
M  V30 1902 H 172.062 5.49707 0.502562 0
M  V30 1903 H 172.539 4.12697 1.50258 0
M  V30 1904 H 173.145 4.24979 -0.165102 0
M  V30 1905 N 171.46 0.379036 1.52974 0
M  V30 1906 C 172.37 -0.468639 2.29872 0
M  V30 1907 C 173.386 -1.08067 1.36373 0
M  V30 1908 O 174.562 -1.08871 1.69438 0
M  V30 1909 C 171.627 -1.58594 3.083 0
M  V30 1910 C 170.688 -1.00007 4.17489 0
M  V30 1911 C 169.921 -2.06413 4.92168 0
M  V30 1912 O 170.144 -3.27751 4.66835 0
M  V30 1913 O 169.078 -1.68717 5.7777 0
M  V30 1914 H 172.904 0.157508 3.03291 0
M  V30 1915 H 170.489 0.143035 1.48714 0
M  V30 1916 H 172.371 -2.23525 3.57232 0
M  V30 1917 H 171.046 -2.19724 2.37703 0
M  V30 1918 H 169.953 -0.314299 3.72777 0
M  V30 1919 H 171.286 -0.433135 4.90291 0
M  V30 1920 N 172.938 -1.57226 0.108567 0
M  V30 1921 C 173.885 -2.14756 -0.845481 0
M  V30 1922 C 174.855 -1.06971 -1.27068 0
M  V30 1923 O 176.04 -1.34827 -1.35005 0
M  V30 1924 C 173.18 -2.74298 -2.09415 0
M  V30 1925 C 172.293 -3.96358 -1.71826 0
M  V30 1926 C 171.428 -4.44021 -2.9158 0
M  V30 1927 C 170.467 -5.58637 -2.50181 0
M  V30 1928 N 169.604 -6.01091 -3.62814 0
M  V30 1929 H 174.444 -2.95961 -0.348035 0
M  V30 1930 H 171.981 -1.46226 -0.160106 0
M  V30 1931 H 173.939 -3.06945 -2.82561 0
M  V30 1932 H 172.569 -1.95801 -2.56636 0
M  V30 1933 H 171.621 -3.69939 -0.885947 0
M  V30 1934 H 172.933 -4.79504 -1.37394 0
M  V30 1935 H 172.087 -4.78522 -3.72963 0
M  V30 1936 H 170.826 -3.59803 -3.29231 0
M  V30 1937 H 169.831 -5.23751 -1.67228 0
M  V30 1938 H 171.056 -6.44613 -2.13659 0
M  V30 1939 H 169.002 -5.19817 -4.00158 0
M  V30 1940 H 168.919 -6.79066 -3.32273 0
M  V30 1941 H 170.187 -6.40227 -4.44668 0
M  V30 1942 N 174.416 0.165178 -1.56732 0
M  V30 1943 C 175.693 0.908443 -1.73224 0
M  V30 1944 C 176.073 2.0013 -0.67165 0
M  V30 1945 O 175.421 2.26353 0.31253 0
M  V30 1946 C 175.631 1.46756 -3.16644 0
M  V30 1947 C 176.979 1.93809 -3.77787 0
M  V30 1948 O 178.003 1.56537 -3.1996 0
M  V30 1949 O 176.862 2.62486 -4.79336 0
M  V30 1950 H 173.956 0.428025 -0.707618 0
M  V30 1951 H 176.502 0.152526 -1.69013 0
M  V30 1952 H 175.274 0.68129 -3.85323 0
M  V30 1953 H 174.897 2.28749 -3.25207 0
M  V30 1954 N 175.894 1.51508 0.433938 0
M  V30 1955 C 176.857 1.72473 1.50949 0
M  V30 1956 C 177.857 0.594725 1.49398 0
M  V30 1957 O 179.047 0.862315 1.5136 0
M  V30 1958 C 176.179 1.78431 2.90474 0
M  V30 1959 H 177.372 2.68467 1.33662 0
M  V30 1960 H 174.925 1.41549 0.662836 0
M  V30 1961 H 175.66 0.842645 3.13161 0
M  V30 1962 H 175.445 2.60558 2.93005 0
M  V30 1963 H 176.935 1.96479 3.68491 0
M  V30 1964 N 177.372 -0.689602 1.41712 0
M  V30 1965 C 178.597 -1.48329 1.44959 0
M  V30 1966 C 179.022 -1.8801 0.0581283 0
M  V30 1967 O 178.38 -1.55026 -0.940035 0
M  V30 1968 C 178.428 -2.71835 2.36935 0
M  V30 1969 O 177.532 -3.69549 1.8305 0
M  V30 1970 H 176.873 -0.446199 0.491734 0
M  V30 1971 H 179.403 -0.847127 1.86239 0
M  V30 1972 H 179.413 -3.20076 2.53013 0
M  V30 1973 H 178.088 -2.42291 3.38035 0
M  V30 1974 H 176.665 -3.2851 1.76452 0
M  V30 1975 N 178.85 -1.27639 -0.924453 0
M  V30 1976 C 179.78 -1.13166 -2.04244 0
M  V30 1977 C 180.761 -0.032256 -1.70069 0
M  V30 1978 O 181.946 -0.207328 -1.9309 0
M  V30 1979 C 179.076 -0.781496 -3.38393 0
M  V30 1980 C 178.03 -1.83449 -3.86692 0
M  V30 1981 C 177.356 -1.33822 -5.17683 0
M  V30 1982 C 178.656 -3.23917 -4.09726 0
M  V30 1983 H 180.35 -2.06689 -2.1661 0
M  V30 1984 H 177.896 -0.995136 -1.04082 0
M  V30 1985 H 179.849 -0.667057 -4.16087 0
M  V30 1986 H 178.573 0.189439 -3.2605 0
M  V30 1987 H 177.232 -1.93789 -3.11193 0
M  V30 1988 H 176.88 -0.35665 -5.01734 0
M  V30 1989 H 176.58 -2.04224 -5.50968 0
M  V30 1990 H 178.104 -1.23679 -5.97943 0
M  V30 1991 H 179.518 -3.16559 -4.77978 0
M  V30 1992 H 177.915 -3.92059 -4.54324 0
M  V30 1993 H 178.985 -3.68729 -3.14908 0
M  V30 1994 N 180.328 1.1314 -1.09713 0
M  V30 1995 C 181.574 1.84757 -0.836224 0
M  V30 1996 C 181.907 1.8347 0.636598 0
M  V30 1997 O 181.182 1.27491 1.46889 0
M  V30 1998 C 181.465 3.32782 -1.37578 0
M  V30 1999 C 181.318 3.42567 -2.91493 0
M  V30 2000 C 182.637 4.28307 -1.01198 0
M  V30 2001 H 179.756 0.67082 -0.305236 0
M  V30 2002 H 182.398 1.3278 -1.35903 0
M  V30 2003 H 180.548 3.77177 -0.931097 0
M  V30 2004 H 182.22 3.06862 -3.44432 0
M  V30 2005 H 180.463 2.83349 -3.28475 0
M  V30 2006 H 181.134 4.46674 -3.24324 0
M  V30 2007 H 183.61 3.91999 -1.39556 0
M  V30 2008 H 182.486 5.30307 -1.41653 0
M  V30 2009 H 182.747 4.42029 0.0794833 0
M  V30 2010 N 181.806 0.884767 1.30421 0
M  V30 2011 C 183.055 0.499164 1.95426 0
M  V30 2012 C 183.368 -0.95645 1.70621 0
M  V30 2013 O 184.574 -1.44889 2.29607 0
M  V30 2014 C 183.03 0.84177 3.49917 0
M  V30 2015 C 182.638 2.31514 3.83543 0
M  V30 2016 C 184.382 0.525355 4.21237 0
M  V30 2017 C 182.289 2.59939 5.31212 0
M  V30 2018 H 181.219 0.182944 0.73147 0
M  V30 2019 H 183.87 1.07971 1.48373 0
M  V30 2020 H 182.252 0.190311 3.95542 0
M  V30 2021 H 183.426 3.0109 3.48829 0
M  V30 2022 H 181.741 2.59907 3.25326 0
M  V30 2023 H 184.338 0.714762 5.29901 0
M  V30 2024 H 184.681 -0.535222 4.12845 0
M  V30 2025 H 185.214 1.134 3.81294 0
M  V30 2026 H 181.953 3.64736 5.44654 0
M  V30 2027 H 181.473 1.94972 5.67227 0
M  V30 2028 H 183.152 2.45429 5.98643 0
M  V30 2029 N 183.284 -1.43765 0.645699 0
M  V30 2030 C 184.216 -2.29027 -0.0890605 0
M  V30 2031 C 185.229 -1.42093 -0.794563 0
M  V30 2032 O 186.418 -1.66104 -0.653575 0
M  V30 2033 C 183.518 -3.18831 -1.14891 0
M  V30 2034 C 182.691 -4.34261 -0.523043 0
M  V30 2035 C 181.75 -5.04994 -1.47878 0
M  V30 2036 O 180.776 -5.6052 -0.990277 0
M  V30 2037 N 181.978 -5.07795 -2.81291 0
M  V30 2038 H 184.743 -2.92727 0.64272 0
M  V30 2039 H 182.304 -1.54373 0.487924 0
M  V30 2040 H 184.296 -3.63015 -1.78892 0
M  V30 2041 H 182.866 -2.56782 -1.78275 0
M  V30 2042 H 182.086 -3.93088 0.295896 0
M  V30 2043 H 183.374 -5.08728 -0.0858147 0
M  V30 2044 H 182.772 -4.64042 -3.23546 0
M  V30 2045 H 181.329 -5.55721 -3.40614 0
M  V30 2046 N 184.763 -0.387143 -1.52771 0
M  V30 2047 C 185.695 0.484089 -2.2403 0
M  V30 2048 C 186.708 1.02849 -1.26198 0
M  V30 2049 O 187.897 0.931186 -1.52286 0
M  V30 2050 C 184.997 1.68337 -2.94136 0
M  V30 2051 C 184.17 1.26672 -4.18656 0
M  V30 2052 C 183.229 2.33045 -4.7178 0
M  V30 2053 O 182.255 1.94541 -5.34923 0
M  V30 2054 N 183.457 3.64929 -4.5145 0
M  V30 2055 H 186.222 -0.126404 -2.99433 0
M  V30 2056 H 183.783 -0.213392 -1.60488 0
M  V30 2057 H 185.775 2.39019 -3.26577 0
M  V30 2058 H 184.345 2.20025 -2.22053 0
M  V30 2059 H 183.565 0.388878 -3.92277 0
M  V30 2060 H 184.853 0.964964 -4.99566 0
M  V30 2061 H 184.251 3.98974 -4.01044 0
M  V30 2062 H 182.808 4.31651 -4.88386 0
M  V30 2063 N 186.241 1.57166 -0.116904 0
M  V30 2064 C 187.487 1.95412 0.542405 0
M  V30 2065 C 187.82 1.00019 1.66463 0
M  V30 2066 O 187.095 0.0370346 1.94465 0
M  V30 2067 C 187.378 3.43615 1.07708 0
M  V30 2068 C 187.231 4.49781 -0.0415868 0
M  V30 2069 C 188.55 3.93616 1.96861 0
M  V30 2070 H 185.669 0.710543 0.195696 0
M  V30 2071 H 188.311 1.89027 -0.192038 0
M  V30 2072 H 186.461 3.49187 1.70296 0
M  V30 2073 H 188.133 4.56308 -0.676793 0
M  V30 2074 H 186.376 4.28033 -0.705019 0
M  V30 2075 H 187.047 5.50733 0.373717 0
M  V30 2076 H 189.523 3.90335 1.44146 0
M  V30 2077 H 188.399 4.97838 2.3119 0
M  V30 2078 H 188.66 3.34188 2.89432 0
M  V30 2079 N 187.719 -0.156864 1.56817 0
M  V30 2080 C 188.649 -1.19589 2.00551 0
M  V30 2081 C 189.63 -1.4536 0.883426 0
M  V30 2082 O 190.815 -1.56449 1.15054 0
M  V30 2083 C 187.945 -2.53143 2.37773 0
M  V30 2084 C 186.899 -2.41913 3.53075 0
M  V30 2085 C 186.225 -3.80088 3.76081 0
M  V30 2086 C 187.525 -1.91157 4.86062 0
M  V30 2087 H 189.219 -0.832293 2.87599 0
M  V30 2088 H 186.765 -0.398918 1.38364 0
M  V30 2089 H 188.718 -3.26047 2.66967 0
M  V30 2090 H 187.442 -2.91319 1.4765 0
M  V30 2091 H 186.101 -1.71462 3.24031 0
M  V30 2092 H 185.749 -4.15683 2.83225 0
M  V30 2093 H 185.449 -3.73439 4.53671 0
M  V30 2094 H 186.973 -4.54556 4.0769 0
M  V30 2095 H 188.387 -2.53846 5.14038 0
M  V30 2096 H 186.784 -1.95422 5.67389 0
M  V30 2097 H 187.854 -0.866673 4.77092 0
M  V30 2098 N 189.197 -1.51736 -0.425897 0
M  V30 2099 C 190.422 -1.69082 -1.20108 0
M  V30 2100 C 190.847 -0.392398 -1.83962 0
M  V30 2101 O 190.205 0.64858 -1.69302 0
M  V30 2102 C 190.253 -2.81604 -2.25237 0
M  V30 2103 O 189.357 -2.46004 -3.30992 0
M  V30 2104 H 188.698 -0.563408 -0.35138 0
M  V30 2105 H 191.228 -1.98358 -0.501512 0
M  V30 2106 H 191.238 -3.06025 -2.69838 0
M  V30 2107 H 189.913 -3.75817 -1.78142 0
M  V30 2108 H 188.49 -2.32195 -2.91787 0
M  V30 2109 N 190.675 0.682077 -1.42076 0
M  V30 2110 C 191.638 1.77756 -1.44691 0
M  V30 2111 C 192.638 1.5726 -0.335535 0
M  V30 2112 O 193.828 1.63686 -0.596037 0
M  V30 2113 C 190.96 3.16301 -1.27146 0
M  V30 2114 H 192.153 1.76826 -2.42224 0
M  V30 2115 H 189.706 0.891012 -1.28416 0
M  V30 2116 H 190.441 3.22862 -0.305075 0
M  V30 2117 H 190.226 3.32581 -2.07683 0
M  V30 2118 H 191.716 3.96241 -1.31843 0
M  V30 2119 N 192.153 1.28127 0.917671 0
M  V30 2120 C 193.399 1.15223 1.66888 0
M  V30 2121 C 193.732 -0.299293 1.9188 0
M  V30 2122 O 193.007 -1.21805 1.51637 0
M  V30 2123 C 193.29 1.94706 3.02922 0
M  V30 2124 C 193.143 3.47898 2.85109 0
M  V30 2125 C 194.462 1.75939 4.03402 0
M  V30 2126 H 191.581 0.419946 0.605652 0
M  V30 2127 H 194.223 1.57398 1.06423 0
M  V30 2128 H 192.373 1.58864 3.54534 0
M  V30 2129 H 194.045 3.93624 2.40537 0
M  V30 2130 H 192.288 3.7373 2.20246 0
M  V30 2131 H 192.959 3.98765 3.81694 0
M  V30 2132 H 195.435 2.07209 3.60837 0
M  V30 2133 H 194.311 2.33931 4.96556 0
M  V30 2134 H 194.572 0.709877 4.36364 0
M  V30 2135 N 193.631 -1.12557 1.10312 0
M  V30 2136 C 194.578 -2.18247 0.750781 0
M  V30 2137 C 195.548 -1.63853 -0.272293 0
M  V30 2138 O 196.733 -1.90195 -0.151862 0
M  V30 2139 C 193.873 -3.44591 0.187379 0
M  V30 2140 C 192.986 -4.13046 1.2656 0
M  V30 2141 C 192.121 -5.27034 0.663978 0
M  V30 2142 C 191.16 -5.87353 1.72287 0
M  V30 2143 N 190.297 -6.92757 1.1416 0
M  V30 2144 H 195.137 -2.47732 1.65628 0
M  V30 2145 H 192.674 -1.21629 0.827337 0
M  V30 2146 H 194.632 -4.16904 -0.157148 0
M  V30 2147 H 193.262 -3.15527 -0.681355 0
M  V30 2148 H 192.314 -3.38924 1.72727 0
M  V30 2149 H 193.626 -4.53947 2.06721 0
M  V30 2150 H 192.78 -6.06104 0.268824 0
M  V30 2151 H 191.519 -4.87407 -0.169082 0
M  V30 2152 H 190.524 -5.06971 2.12746 0
M  V30 2153 H 191.749 -6.29051 2.55875 0
M  V30 2154 H 189.695 -6.5517 0.329984 0
M  V30 2155 H 189.612 -7.3225 1.88007 0
M  V30 2156 H 190.88 -7.75658 0.772956 0
M  V30 2157 N 195.109 -0.891671 -1.2995 0
M  V30 2158 C 196.339 -0.527893 -1.99742 0
M  V30 2159 C 196.747 0.88979 -1.66971 0
M  V30 2160 O 196.09 1.59766 -0.906667 0
M  V30 2161 C 196.152 -0.630804 -3.53922 0
M  V30 2162 C 195.816 -2.01401 -4.10228 0
M  V30 2163 C 196.813 -2.98422 -4.25724 0
M  V30 2164 C 194.498 -2.32121 -4.45449 0
M  V30 2165 C 196.492 -4.24293 -4.75662 0
M  V30 2166 C 194.179 -3.58237 -4.95086 0
M  V30 2167 C 195.177 -4.54137 -5.10146 0
M  V30 2168 O 194.865 -5.78014 -5.58708 0
M  V30 2169 H 194.597 -0.201953 -0.645129 0
M  V30 2170 H 197.151 -1.20076 -1.66646 0
M  V30 2171 H 195.381 0.0990616 -3.86573 0
M  V30 2172 H 197.07 -0.277338 -4.04951 0
M  V30 2173 H 197.836 -2.76001 -3.98809 0
M  V30 2174 H 193.715 -1.5824 -4.32991 0
M  V30 2175 H 197.259 -4.99153 -4.87332 0
M  V30 2176 H 193.156 -3.80491 -5.21437 0
M  V30 2177 H 193.924 -5.8049 -5.77039 0
M  V30 2178 N 196.587 1.43421 -0.653314 0
M  V30 2179 C 197.517 2.33487 0.0246656 0
M  V30 2180 C 198.498 1.49475 0.811863 0
M  V30 2181 O 199.683 1.78139 0.773322 0
M  V30 2182 C 196.813 3.32841 0.99166 0
M  V30 2183 C 195.767 4.26842 0.314568 0
M  V30 2184 C 195.093 5.16236 1.39302 0
M  V30 2185 C 196.393 5.16243 -0.793095 0
M  V30 2186 H 198.087 2.90427 -0.727481 0
M  V30 2187 H 195.633 1.39649 -0.351287 0
M  V30 2188 H 197.586 3.94747 1.47487 0
M  V30 2189 H 196.31 2.74158 1.77497 0
M  V30 2190 H 194.969 3.663 -0.148199 0
M  V30 2191 H 194.617 4.53891 2.16776 0
M  V30 2192 H 194.317 5.79948 0.945223 0
M  V30 2193 H 195.841 5.81015 1.87759 0
M  V30 2194 H 197.255 5.71958 -0.392039 0
M  V30 2195 H 195.652 5.88676 -1.16536 0
M  V30 2196 H 196.722 4.55927 -1.65103 0
M  V30 2197 N 198.065 0.39524 1.52563 0
M  V30 2198 C 199.015 -0.4541 2.23432 0
M  V30 2199 C 199.999 -1.02482 1.24042 0
M  V30 2200 O 201.191 -0.949938 1.49349 0
M  V30 2201 C 198.32 -1.57769 3.049 0
M  V30 2202 C 197.406 -1.01842 4.1169 0
M  V30 2203 N 197.797 -0.184613 5.05463 0
M  V30 2204 C 196.095 -1.29033 4.26927 0
M  V30 2205 C 196.796 0.125013 5.81566 0
M  V30 2206 N 195.772 -0.480498 5.41472 0
M  V30 2207 H 199.574 0.189413 2.93289 0
M  V30 2208 H 197.088 0.204877 1.61102 0
M  V30 2209 H 199.085 -2.19862 3.54212 0
M  V30 2210 H 197.745 -2.22397 2.36579 0
M  V30 2211 H 198.756 0.178602 5.17592 0
M  V30 2212 H 195.433 -1.93721 3.69836 0
M  V30 2213 H 196.823 0.800962 6.67109 0
M  V30 2214 N 199.544 -1.57102 0.125237 0
M  V30 2215 C 200.454 -2.19191 -0.8362 0
M  V30 2216 C 201.47 -1.16985 -1.28805 0
M  V30 2217 O 202.646 -1.49479 -1.34974 0
M  V30 2218 C 199.711 -2.78407 -2.06617 0
M  V30 2219 C 198.772 -3.9567 -1.66565 0
M  V30 2220 C 198.005 -4.52052 -2.83698 0
M  V30 2221 O 198.228 -4.07326 -3.99302 0
M  V30 2222 O 197.162 -5.42645 -2.60423 0
M  V30 2223 H 200.988 -3.01816 -0.337776 0
M  V30 2224 H 198.573 -1.4906 -0.100695 0
M  V30 2225 H 200.455 -3.16129 -2.7864 0
M  V30 2226 H 199.13 -1.9881 -2.55453 0
M  V30 2227 H 198.037 -3.62705 -0.916296 0
M  V30 2228 H 199.37 -4.76722 -1.22464 0
M  V30 2229 N 201.022 0.148545 -1.56898 0
M  V30 2230 C 201.97 1.20265 -1.99096 0
M  V30 2231 C 202.964 1.44559 -0.883123 0
M  V30 2232 O 204.17 1.4487 -1.0683 0
M  V30 2233 H 200.545 0.404786 -0.63376 0
M  V30 2234 H 202.516 0.82004 -2.86911 0
M  V30 2235 C 201.265 2.52886 -2.3863 0
M  V30 2236 H 200.588 2.35021 -3.23427 0
M  V30 2237 H 202.028 3.25274 -2.7198 0
M  V30 2238 C 200.487 3.13315 -1.23837 0
M  V30 2239 O 201.017 3.98077 -0.538268 0
M  V30 2240 N 199.223 2.72742 -1.00301 0
M  V30 2241 H 198.77 2.03912 -1.5741 0
M  V30 2242 H 198.728 3.13507 -0.236838 0
M  V30 2243 N 202.5 1.5196 0.417844 0
M  V30 2244 C 203.748 1.65263 1.16329 0
M  V30 2245 C 204.069 0.380634 1.91249 0
M  V30 2246 O 203.339 -0.604214 1.86349 0
M  V30 2247 H 201.919 0.60912 0.432414 0
M  V30 2248 H 204.581 1.88969 0.477162 0
M  V30 2249 H 203.677 2.4896 1.88217 0
M  V30 2250 N 203.978 -0.674533 1.42435 0
M  V30 2251 C 205.227 -1.43034 1.42212 0
M  V30 2252 C 205.54 -1.95555 0.0420788 0
M  V30 2253 O 206.746 -2.71374 -0.0827558 0
M  V30 2254 C 205.202 -2.58748 2.50155 0
M  V30 2255 C 204.81 -2.12925 3.94166 0
M  V30 2256 C 206.554 -3.36257 2.59098 0
M  V30 2257 C 204.461 -3.25723 4.93618 0
M  V30 2258 H 203.391 -0.537345 0.528939 0
M  V30 2259 H 206.042 -0.73024 1.68344 0
M  V30 2260 H 204.424 -3.31128 2.17188 0
M  V30 2261 H 205.598 -1.47697 4.36488 0
M  V30 2262 H 203.913 -1.48354 3.89076 0
M  V30 2263 H 206.51 -4.20264 3.30578 0
M  V30 2264 H 206.853 -3.82866 1.63461 0
M  V30 2265 H 207.386 -2.70947 2.9126 0
M  V30 2266 H 204.125 -2.84105 5.90732 0
M  V30 2267 H 203.645 -3.89732 4.55926 0
M  V30 2268 H 205.324 -3.91186 5.15347 0
M  V30 2269 N 205.456 -1.28612 -0.910864 0
M  V30 2270 C 206.702 -1.16106 -1.66274 0
M  V30 2271 C 207.035 0.289113 -1.92036 0
M  V30 2272 O 206.31 1.21 -1.52281 0
M  V30 2273 C 206.593 -1.96309 -3.01885 0
M  V30 2274 C 206.446 -3.49405 -2.8326 0
M  V30 2275 C 207.765 -1.78076 -4.02463 0
M  V30 2276 H 204.884 -0.423152 -0.603417 0
M  V30 2277 H 207.526 -1.57961 -1.05586 0
M  V30 2278 H 205.676 -1.60742 -3.53687 0
M  V30 2279 H 207.348 -3.94894 -2.38446 0
M  V30 2280 H 205.591 -3.74893 -2.18261 0
M  V30 2281 H 206.262 -4.00784 -3.79574 0
M  V30 2282 H 208.738 -2.0912 -3.59733 0
M  V30 2283 H 207.614 -2.36561 -4.95308 0
M  V30 2284 H 207.875 -0.733008 -4.35981 0
M  V30 2285 N 206.934 1.1197 -1.10907 0
M  V30 2286 C 207.884 2.15946 -0.731538 0
M  V30 2287 C 208.868 1.58758 0.261699 0
M  V30 2288 O 210.06 1.76863 0.0696722 0
M  V30 2289 C 207.189 3.42877 -0.170299 0
M  V30 2290 C 206.275 4.07037 -1.19087 0
M  V30 2291 N 206.666 4.46135 -2.38322 0
M  V30 2292 C 204.964 4.33884 -1.03252 0
M  V30 2293 C 205.665 4.96331 -3.03366 0
M  V30 2294 N 204.641 4.9214 -2.30865 0
M  V30 2295 H 208.443 2.43947 -1.63912 0
M  V30 2296 H 205.957 1.28927 -0.987505 0
M  V30 2297 H 207.954 4.16732 0.118271 0
M  V30 2298 H 206.614 3.16343 0.731935 0
M  V30 2299 H 207.625 4.38345 -2.75815 0
M  V30 2300 H 204.302 4.17084 -0.186256 0
M  V30 2301 H 205.692 5.36257 -4.04818 0
M  V30 2302 N 208.412 0.89855 1.29475 0
M  V30 2303 C 209.828 0.594483 1.48115 0
M  V30 2304 C 210.028 -0.86431 1.82022 0
M  V30 2305 O 209.084 -1.64457 1.91599 0
M  V30 2306 C 210.397 1.51932 2.59494 0
M  V30 2307 C 211.945 1.5244 2.7337 0
M  V30 2308 C 212.42 2.43548 3.87877 0
M  V30 2309 N 213.911 2.41589 3.95208 0
M  V30 2310 C 214.646 3.08789 4.83153 0
M  V30 2311 N 214.142 3.85265 5.75798 0
M  V30 2312 N 215.935 2.97952 4.76635 0
M  V30 2313 H 208.086 1.84207 1.05742 0
M  V30 2314 H 210.349 0.789251 0.525154 0
M  V30 2315 H 210.055 2.55865 2.41301 0
M  V30 2316 H 209.929 1.23899 3.56271 0
M  V30 2317 H 212.316 0.492518 2.90961 0
M  V30 2318 H 212.397 1.8451 1.77172 0
M  V30 2319 H 212.041 3.46829 3.71041 0
M  V30 2320 H 211.971 2.08788 4.83441 0
M  V30 2321 H 214.462 1.86025 3.28943 0
M  V30 2322 H 214.775 4.33598 6.39697 0
M  V30 2323 H 213.12 3.89371 5.75687 0
M  V30 2324 H 216.311 2.37723 4.03244 0
M  V30 2325 H 216.484 3.50599 5.44962 0
M  V30 2326 N 209.89 -1.43072 0.660911 0
M  V30 2327 C 211.167 -1.95307 0.107017 0
M  V30 2328 C 211.547 -1.60192 -1.37484 0
M  V30 2329 O 210.895 -0.890949 -2.10415 0
M  V30 2330 C 211.105 -3.47124 0.361402 0
M  V30 2331 C 212.453 -4.23738 0.270455 0
M  V30 2332 O 213.477 -3.54981 0.294382 0
M  V30 2333 O 212.336 -5.46131 0.200737 0
M  V30 2334 H 209.43 -0.826984 -0.00517729 0
M  V30 2335 H 211.976 -1.52972 0.734681 0
M  V30 2336 H 210.748 -3.65837 1.38848 0
M  V30 2337 H 210.371 -3.96475 -0.298953 0
M  V30 2338 N 211.368 -0.403325 -1.52352 0
M  V30 2339 C 212.298 0.416205 -2.29761 0
M  V30 2340 C 213.279 1.05123 -1.33728 0
M  V30 2341 O 214.464 1.06134 -1.62632 0
M  V30 2342 C 211.594 1.53624 -3.11475 0
M  V30 2343 C 210.548 1.02653 -4.15507 0
M  V30 2344 C 209.874 2.23971 -4.85532 0
M  V30 2345 C 211.174 0.08463 -5.22231 0
M  V30 2346 H 212.868 -0.229701 -2.98518 0
M  V30 2347 H 210.414 -0.111913 -1.43564 0
M  V30 2348 H 212.367 2.1165 -3.64393 0
M  V30 2349 H 211.091 2.20994 -2.40477 0
M  V30 2350 H 209.75 0.46871 -3.63591 0
M  V30 2351 H 209.398 2.89883 -4.11068 0
M  V30 2352 H 209.098 1.90521 -5.55856 0
M  V30 2353 H 210.622 2.82614 -5.41259 0
M  V30 2354 H 212.036 0.573509 -5.70424 0
M  V30 2355 H 210.433 -0.160783 -5.99885 0
M  V30 2356 H 211.503 -0.86237 -4.7717 0
M  V30 2357 N 212.846 1.57033 -0.133567 0
M  V30 2358 C 213.793 2.16074 0.811208 0
M  V30 2359 C 214.763 1.08979 1.2535 0
M  V30 2360 O 215.948 1.36958 1.32843 0
M  V30 2361 C 213.088 2.77595 2.05024 0
M  V30 2362 C 212.201 3.99042 1.65498 0
M  V30 2363 C 211.336 4.48603 2.84479 0
M  V30 2364 C 210.375 5.62547 2.41262 0
M  V30 2365 N 209.512 6.06787 3.53206 0
M  V30 2366 H 214.352 2.96477 0.300906 0
M  V30 2367 H 211.889 1.46462 0.136822 0
M  V30 2368 H 213.847 3.11402 2.77642 0
M  V30 2369 H 212.477 1.99859 2.53488 0
M  V30 2370 H 211.529 3.71302 0.826981 0
M  V30 2371 H 212.841 4.81629 1.29748 0
M  V30 2372 H 211.995 4.84395 3.65303 0
M  V30 2373 H 210.734 3.64995 3.23465 0
M  V30 2374 H 209.739 5.26345 1.58874 0
M  V30 2375 H 210.964 6.47931 2.03377 0
M  V30 2376 H 208.91 5.26117 3.91838 0
M  V30 2377 H 208.827 6.84266 3.21427 0
M  V30 2378 H 210.095 6.4722 4.34427 0
M  V30 2379 N 214.325 -0.140222 1.56975 0
M  V30 2380 C 215.736 -0.699596 1.73097 0
M  V30 2381 C 216.087 -1.8134 0.749022 0
M  V30 2382 O 215.212 -2.16241 -0.0828503 0
M  V30 2383 C 215.807 -1.27582 3.1386 0
M  V30 2384 C 214.366 -1.78169 3.31561 0
M  V30 2385 C 213.513 -0.672855 2.69013 0
M  V30 2386 H 216.464 0.0855115 1.58469 0
M  V30 2387 H 216.485 -2.14561 3.14235 0
M  V30 2388 H 215.997 -0.464955 3.85305 0
M  V30 2389 H 214.098 -2.61801 2.65124 0
M  V30 2390 H 214.211 -1.90574 4.39566 0
M  V30 2391 H 212.575 -1.10118 2.29665 0
M  V30 2392 H 213.358 0.126679 3.43066 0
M  V30 2393 N 215.803 -1.52179 -0.40978 0
M  V30 2394 C 216.713 -1.78364 -1.52392 0
M  V30 2395 C 217.729 -0.669183 -1.60617 0
M  V30 2396 O 218.905 -0.954518 -1.77344 0
M  V30 2397 C 215.97 -1.92822 -2.88133 0
M  V30 2398 C 215.031 -3.16725 -2.898 0
M  V30 2399 C 214.264 -3.30483 -4.19067 0
M  V30 2400 O 214.487 -2.49522 -5.12928 0
M  V30 2401 O 213.421 -4.2363 -4.27576 0
M  V30 2402 H 217.247 -2.72931 -1.33201 0
M  V30 2403 H 214.832 -1.37016 -0.59557 0
M  V30 2404 H 216.714 -2.04157 -3.68643 0
M  V30 2405 H 215.389 -1.01444 -3.07393 0
M  V30 2406 H 214.296 -3.10848 -2.08146 0
M  V30 2407 H 215.629 -4.07881 -2.75489 0
M  V30 2408 N 217.281 0.66697 -1.42791 0
M  V30 2409 C 218.229 1.80157 -1.47127 0
M  V30 2410 C 219.223 1.65825 -0.346199 0
M  V30 2411 O 220.429 1.72338 -0.519572 0
M  V30 2412 H 216.804 0.594158 -0.460956 0
M  V30 2413 H 218.775 1.73619 -2.42692 0
M  V30 2414 C 217.524 3.18351 -1.39813 0
M  V30 2415 H 216.847 3.3001 -2.25684 0
M  V30 2416 H 218.287 3.97736 -1.46908 0
M  V30 2417 C 216.746 3.36707 -0.11391 0
M  V30 2418 O 217.276 3.93027 0.830241 0
M  V30 2419 N 215.482 2.90586 -0.0285295 0
M  V30 2420 H 215.029 2.4494 -0.79764 0
M  V30 2421 H 214.987 3.03245 0.830063 0
M  V30 2422 N 218.759 1.29093 0.90403 0
M  V30 2423 C 219.689 1.16401 2.02418 0
M  V30 2424 C 220.67 0.0593085 1.69997 0
M  V30 2425 O 221.855 0.238021 1.92736 0
M  V30 2426 C 218.985 0.835233 3.37107 0
M  V30 2427 C 217.939 1.89578 3.83724 0
M  V30 2428 C 217.265 1.42041 5.15489 0
M  V30 2429 C 218.565 3.30394 4.04521 0
M  V30 2430 H 220.259 2.10109 2.13295 0
M  V30 2431 H 217.805 1.01157 1.02486 0
M  V30 2432 H 219.758 0.733169 4.14973 0
M  V30 2433 H 218.482 -0.137543 3.2631 0
M  V30 2434 H 217.141 1.98715 3.08071 0
M  V30 2435 H 216.789 0.436426 5.01103 0
M  V30 2436 H 216.489 2.12964 5.4765 0
M  V30 2437 H 218.013 1.33176 5.959 0
M  V30 2438 H 219.427 3.24123 4.72882 0
M  V30 2439 H 217.824 3.99237 4.48029 0
M  V30 2440 H 218.894 3.73692 3.09002 0
M  V30 2441 N 220.237 -1.11381 1.11499 0
M  V30 2442 C 221.167 -2.19509 0.796125 0
M  V30 2443 C 222.148 -1.68458 -0.235796 0
M  V30 2444 O 223.333 -1.93947 -0.0991344 0
M  V30 2445 C 220.463 -3.46475 0.239205 0
M  V30 2446 C 219.417 -4.10744 1.20307 0
M  V30 2447 C 218.743 -5.32293 0.50683 0
M  V30 2448 C 220.043 -4.55597 2.55399 0
M  V30 2449 H 221.737 -2.46439 1.70024 0
M  V30 2450 H 219.283 -1.18446 0.818935 0
M  V30 2451 H 221.236 -4.214 0.00392006 0
M  V30 2452 H 219.96 -3.19006 -0.700206 0
M  V30 2453 H 218.619 -3.37813 1.42399 0
M  V30 2454 H 218.267 -5.01095 -0.437408 0
M  V30 2455 H 217.967 -5.76243 1.1497 0
M  V30 2456 H 219.491 -6.09956 0.280351 0
M  V30 2457 H 220.905 -5.21841 2.37391 0
M  V30 2458 H 219.302 -5.10363 3.15673 0
M  V30 2459 H 220.372 -3.69013 3.14575 0
M  V30 2460 N 221.715 -0.905404 -1.28997 0
M  V30 2461 C 222.945 -0.549049 -1.99171 0
M  V30 2462 C 223.353 0.87203 -1.67906 0
M  V30 2463 O 222.696 1.58796 -0.923561 0
M  V30 2464 C 222.758 -0.668306 -3.53234 0
M  V30 2465 C 222.422 -2.0574 -4.08069 0
M  V30 2466 C 223.419 -3.0292 -4.22534 0
M  V30 2467 C 221.104 -2.36833 -4.42962 0
M  V30 2468 C 223.098 -4.29314 -4.71135 0
M  V30 2469 C 220.785 -3.63467 -4.91258 0
M  V30 2470 C 221.783 -4.59522 -5.053 0
M  V30 2471 O 221.471 -5.83907 -5.52546 0
M  V30 2472 H 221.203 -0.208784 -0.64295 0
M  V30 2473 H 223.757 -1.21836 -1.65363 0
M  V30 2474 H 221.987 0.0580547 -3.86656 0
M  V30 2475 H 223.676 -0.320273 -4.04634 0
M  V30 2476 H 224.442 -2.80216 -3.95859 0
M  V30 2477 H 220.321 -1.62824 -4.31288 0
M  V30 2478 H 223.865 -5.04293 -4.8201 0
M  V30 2479 H 219.762 -3.86 -5.17372 0
M  V30 2480 H 220.53 -5.86578 -5.70849 0
M  V30 2481 N 223.193 1.4272 -0.668489 0
M  V30 2482 C 224.123 2.335 -0.000100175 0
M  V30 2483 C 225.104 1.50328 0.795964 0
M  V30 2484 O 226.289 1.78949 0.754385 0
M  V30 2485 C 223.419 3.33874 0.956302 0
M  V30 2486 C 222.373 4.27152 0.269278 0
M  V30 2487 C 221.699 5.17684 1.33818 0
M  V30 2488 C 222.999 5.15373 -0.847805 0
M  V30 2489 H 224.693 2.89639 -0.758244 0
M  V30 2490 H 222.239 1.39269 -0.366079 0
M  V30 2491 H 224.192 3.9629 1.43292 0
M  V30 2492 H 222.916 2.76025 1.74579 0
M  V30 2493 H 221.575 3.66123 -0.187042 0
M  V30 2494 H 221.223 4.56165 2.1195 0
M  V30 2495 H 220.923 5.80918 0.883659 0
M  V30 2496 H 222.447 5.82974 1.81586 0
M  V30 2497 H 223.861 5.7151 -0.452681 0
M  V30 2498 H 222.258 5.87407 -1.22773 0
M  V30 2499 H 223.328 4.5415 -1.69929 0
M  V30 2500 N 224.671 0.411399 1.52136 0
M  V30 2501 C 225.899 -0.163076 2.06256 0
M  V30 2502 C 226.314 -1.3867 1.28125 0
M  V30 2503 O 225.671 -1.79423 0.333721 0
M  V30 2504 C 225.722 -0.511252 3.57867 0
M  V30 2505 O 225.443 0.66378 4.33042 0
M  V30 2506 C 226.944 -1.13921 4.28412 0
M  V30 2507 H 224.164 -0.0193897 0.67072 0
M  V30 2508 H 226.708 0.583007 1.96013 0
M  V30 2509 H 224.863 -1.20723 3.6811 0
M  V30 2510 H 225.277 0.372601 5.23175 0
M  V30 2511 H 226.751 -1.33302 5.35663 0
M  V30 2512 H 227.228 -2.11296 3.85033 0
M  V30 2513 H 227.834 -0.483373 4.22544 0
M  V30 2514 N 226.149 -1.5696 0.141893 0
M  V30 2515 C 227.56 -1.82797 -0.379776 0
M  V30 2516 C 227.911 -1.06033 -1.6508 0
M  V30 2517 O 227.036 -0.304011 -2.14254 0
M  V30 2518 C 227.631 -3.31578 -0.695802 0
M  V30 2519 C 226.19 -3.58014 -1.16201 0
M  V30 2520 C 225.337 -2.76699 -0.182455 0
M  V30 2521 H 228.288 -1.54406 0.366675 0
M  V30 2522 H 228.309 -3.47454 -1.55099 0
M  V30 2523 H 227.821 -3.87421 0.229449 0
M  V30 2524 H 225.922 -3.07553 -2.10338 0
M  V30 2525 H 226.035 -4.66501 -1.09151 0
M  V30 2526 H 224.399 -2.45618 -0.674072 0
M  V30 2527 H 225.182 -3.35311 0.736297 0
M  V30 2528 N 227.627 0.131896 -1.57047 0
M  V30 2529 C 228.537 1.1815 -2.02676 0
M  V30 2530 C 229.553 1.46113 -0.944824 0
M  V30 2531 O 230.729 1.57485 -1.25541 0
M  V30 2532 C 227.794 2.49139 -2.41103 0
M  V30 2533 C 226.855 2.28688 -3.63318 0
M  V30 2534 C 226.088 3.53431 -3.99903 0
M  V30 2535 O 226.311 4.60223 -3.36973 0
M  V30 2536 O 225.245 3.45198 -4.93074 0
M  V30 2537 H 229.071 0.824069 -2.92306 0
M  V30 2538 H 226.656 0.341745 -1.45439 0
M  V30 2539 H 228.538 3.26338 -2.66611 0
M  V30 2540 H 227.213 2.84382 -1.54624 0
M  V30 2541 H 226.12 1.4939 -3.42977 0
M  V30 2542 H 227.453 1.98355 -4.50462 0
M  V30 2543 N 229.106 1.52395 0.401703 0
M  V30 2544 C 230.016 1.7917 1.51444 0
M  V30 2545 C 231.032 0.677691 1.6026 0
M  V30 2546 O 232.208 0.963909 1.76835 0
M  V30 2547 C 229.273 1.94347 2.87107 0
M  V30 2548 C 228.334 3.18257 2.88116 0
M  V30 2549 C 227.567 3.32701 4.17308 0
M  V30 2550 O 227.79 2.52238 5.11598 0
M  V30 2551 O 226.724 4.25891 4.25324 0
M  V30 2552 H 230.55 2.73633 1.31752 0
M  V30 2553 H 228.135 1.3733 0.588296 0
M  V30 2554 H 230.017 2.06109 3.67555 0
M  V30 2555 H 228.692 1.03073 3.06851 0
M  V30 2556 H 227.599 3.11947 2.06494 0
M  V30 2557 H 228.932 4.09336 2.73322 0
M  V30 2558 N 230.584 -0.659388 1.43143 0
M  V30 2559 C 231.532 -1.79374 1.4808 0
M  V30 2560 C 232.526 -1.65639 0.354988 0
M  V30 2561 O 233.732 -1.7206 0.528704 0
M  V30 2562 H 230.107 -0.591705 0.4641 0
M  V30 2563 H 232.078 -1.72329 2.43609 0
M  V30 2564 C 230.827 -3.17606 1.41499 0
M  V30 2565 H 230.15 -3.28809 2.27431 0
M  V30 2566 H 231.59 -3.96951 1.49015 0
M  V30 2567 C 230.049 -3.36642 0.131765 0
M  V30 2568 O 230.579 -3.93461 -0.809386 0
M  V30 2569 N 228.785 -2.90567 0.0439396 0
M  V30 2570 H 228.332 -2.44513 0.810619 0
M  V30 2571 H 228.29 -3.03681 -0.813969 0
M  V30 2572 N 232.062 -1.29571 -0.897171 0
M  V30 2573 C 233.287 -1.20705 -1.68656 0
M  V30 2574 C 233.712 0.228582 -1.86706 0
M  V30 2575 O 233.07 1.16494 -1.3892 0
M  V30 2576 C 233.118 -1.9282 -3.04717 0
M  V30 2577 O 232.222 -1.24697 -3.93096 0
M  V30 2578 H 231.563 -0.418126 -0.515816 0
M  V30 2579 H 234.093 -1.71183 -1.12061 0
M  V30 2580 H 234.103 -2.01372 -3.54843 0
M  V30 2581 H 232.778 -2.97239 -2.90899 0
M  V30 2582 H 231.355 -1.2442 -3.51531 0
M  V30 2583 N 233.54 1.10788 -1.12088 0
M  V30 2584 C 234.487 2.17025 -0.785407 0
M  V30 2585 C 235.457 1.64265 0.246191 0
M  V30 2586 O 236.642 1.90412 0.121584 0
M  V30 2587 C 233.782 3.44249 -0.242177 0
M  V30 2588 C 232.895 4.1098 -1.33115 0
M  V30 2589 C 232.03 5.25911 -0.747741 0
M  V30 2590 C 231.069 5.84538 -1.81609 0
M  V30 2591 N 230.206 6.90853 -1.25167 0
M  V30 2592 H 235.046 2.45066 -1.69548 0
M  V30 2593 H 232.583 1.20297 -0.846582 0
M  V30 2594 H 234.541 4.17101 0.0908026 0
M  V30 2595 H 233.171 3.16571 0.631072 0
M  V30 2596 H 232.223 3.36133 -1.78097 0
M  V30 2597 H 233.535 4.50601 -2.13917 0
M  V30 2598 H 232.689 6.056 -0.365216 0
M  V30 2599 H 231.428 4.87614 0.0915188 0
M  V30 2600 H 230.433 5.03522 -2.20785 0
M  V30 2601 H 231.658 6.249 -2.6585 0
M  V30 2602 H 229.604 6.54562 -0.434174 0
M  V30 2603 H 229.521 7.29166 -1.99633 0
M  V30 2604 H 230.789 7.7433 -0.896259 0
M  V30 2605 N 235.018 0.912232 1.28515 0
M  V30 2606 C 236.267 0.540504 1.94323 0
M  V30 2607 C 236.58 -0.920044 1.72611 0
M  V30 2608 O 237.786 -1.39986 2.32629 0
M  V30 2609 C 236.242 0.915803 3.48053 0
M  V30 2610 C 235.85 2.39598 3.78546 0
M  V30 2611 C 237.594 0.614588 4.20027 0
M  V30 2612 C 235.501 2.71148 5.25578 0
M  V30 2613 H 234.431 0.198418 0.727424 0
M  V30 2614 H 237.082 1.11094 1.46049 0
M  V30 2615 H 235.464 0.274168 3.9505 0
M  V30 2616 H 236.638 3.08422 3.42364 0
M  V30 2617 H 234.953 2.66749 3.1974 0
M  V30 2618 H 237.55 0.827002 5.28266 0
M  V30 2619 H 237.893 -0.447531 4.13887 0
M  V30 2620 H 238.426 1.21462 3.78803 0
M  V30 2621 H 235.165 3.76207 5.36794 0
M  V30 2622 H 234.685 2.0696 5.62963 0
M  V30 2623 H 236.364 2.58072 5.93302 0
M  V30 2624 N 236.496 -1.42363 0.676048 0
M  V30 2625 C 237.429 -2.28141 -0.0516916 0
M  V30 2626 C 238.407 -1.41135 -0.807439 0
M  V30 2627 O 239.591 -1.70573 -0.802305 0
M  V30 2628 C 236.718 -3.21007 -1.08039 0
M  V30 2629 C 235.764 -4.24426 -0.420076 0
M  V30 2630 S 236.597 -5.29134 0.823246 0
M  V30 2631 C 237.753 -6.25566 -0.204344 0
M  V30 2632 H 237.986 -2.89515 0.675884 0
M  V30 2633 H 235.519 -1.47211 0.465635 0
M  V30 2634 H 237.477 -3.75048 -1.66881 0
M  V30 2635 H 236.138 -2.58766 -1.78042 0
M  V30 2636 H 235.331 -4.89596 -1.19633 0
M  V30 2637 H 234.933 -3.7388 0.0947845 0
M  V30 2638 H 237.225 -6.69098 -1.06369 0
M  V30 2639 H 238.168 -7.06895 0.412915 0
M  V30 2640 H 238.576 -5.61811 -0.55038 0
M  V30 2641 N 237.974 -0.419461 -1.51915 0
M  V30 2642 C 239.223 0.154346 -2.01109 0
M  V30 2643 C 239.536 1.45338 -1.30905 0
M  V30 2644 O 240.742 2.10906 -1.7097 0
M  V30 2645 C 239.198 0.325615 -3.58424 0
M  V30 2646 C 238.806 -0.961934 -4.37551 0
M  V30 2647 C 240.55 0.854155 -4.15818 0
M  V30 2648 C 238.457 -0.757287 -5.86531 0
M  V30 2649 H 237.387 0.0614563 -0.751491 0
M  V30 2650 H 240.038 -0.54649 -1.75173 0
M  V30 2651 H 238.42 1.08903 -3.80731 0
M  V30 2652 H 239.594 -1.7323 -4.26999 0
M  V30 2653 H 237.909 -1.41766 -3.91524 0
M  V30 2654 H 240.506 1.02346 -5.24814 0
M  V30 2655 H 240.849 1.83172 -3.73837 0
M  V30 2656 H 241.382 0.149528 -3.97519 0
M  V30 2657 H 238.121 -1.70671 -6.32892 0
M  V30 2658 H 237.641 -0.0264061 -5.99794 0
M  V30 2659 H 239.32 -0.403482 -6.45741 0
M  V30 2660 N 239.452 1.56882 -0.150215 0
M  V30 2661 C 240.68 2.00593 0.506948 0
M  V30 2662 C 241.095 1.03033 1.58208 0
M  V30 2663 O 240.452 0.0278396 1.82479 0
M  V30 2664 C 240.503 3.44209 1.10465 0
M  V30 2665 O 240.224 4.3804 0.0724636 0
M  V30 2666 C 241.725 4.03214 1.84211 0
M  V30 2667 H 238.945 0.65795 0.13169 0
M  V30 2668 H 241.489 2.03018 -0.245743 0
M  V30 2669 H 239.644 3.42625 1.80795 0
M  V30 2670 H 240.058 5.22007 0.510793 0
M  V30 2671 H 241.532 5.0569 2.21318 0
M  V30 2672 H 242.009 3.44107 2.72923 0
M  V30 2673 H 242.615 4.08437 1.18572 0
M  V30 2674 N 240.93 -0.123565 1.57115 0
M  V30 2675 C 242.207 -0.862196 1.75572 0
M  V30 2676 C 242.587 -1.98279 0.724475 0
M  V30 2677 O 241.935 -2.27102 -0.252407 0
M  V30 2678 C 242.145 -1.38309 3.20424 0
M  V30 2679 C 243.493 -1.83724 3.82793 0
M  V30 2680 O 244.517 -1.47999 3.23998 0
M  V30 2681 O 243.376 -2.49685 4.86127 0
M  V30 2682 H 240.47 -0.409113 0.718718 0
M  V30 2683 H 243.016 -0.107661 1.69358 0
M  V30 2684 H 241.788 -0.578889 3.86994 0
M  V30 2685 H 241.411 -2.20046 3.31158 0
M  V30 2686 N 242.408 -1.52605 -0.393616 0
M  V30 2687 C 243.655 -1.67424 -1.1391 0
M  V30 2688 C 243.983 -0.411859 -1.90089 0
M  V30 2689 O 243.238 0.605626 -1.86093 0
M  V30 2690 C 243.537 -2.85721 -2.14705 0
M  V30 2691 C 243.203 -4.23342 -1.55218 0
M  V30 2692 C 241.865 -4.60771 -1.3872 0
M  V30 2693 C 244.217 -5.09041 -1.11924 0
M  V30 2694 C 241.545 -5.81563 -0.774689 0
M  V30 2695 C 243.897 -6.30452 -0.520853 0
M  V30 2696 C 242.561 -6.66617 -0.343134 0
M  V30 2697 H 241.831 -0.612648 -0.416826 0
M  V30 2698 H 244.478 -1.8674 -0.424315 0
M  V30 2699 H 242.783 -2.60803 -2.92385 0
M  V30 2700 H 244.48 -2.94382 -2.72288 0
M  V30 2701 H 241.07 -3.93855 -1.69045 0
M  V30 2702 H 245.254 -4.80695 -1.23473 0
M  V30 2703 H 240.51 -6.08196 -0.625154 0
M  V30 2704 H 244.684 -6.96175 -0.177065 0
M  V30 2705 H 242.311 -7.60083 0.133571 0
M  V30 2706 N 243.887 0.651787 -1.4349 0
M  V30 2707 C 245.135 1.40888 -1.44897 0
M  V30 2708 C 245.456 1.94856 -0.0749086 0
M  V30 2709 O 244.726 1.74518 0.889956 0
M  V30 2710 H 243.306 0.522887 -0.533478 0
M  V30 2711 H 245.968 0.768609 -1.79104 0
M  V30 2712 H 245.064 2.25052 -2.16236 0
M  V30 2713 N 245.365 1.30045 0.890287 0
M  V30 2714 C 246.295 1.18541 2.01172 0
M  V30 2715 C 247.276 0.0773356 1.69924 0
M  V30 2716 O 248.461 0.25845 1.92473 0
M  V30 2717 C 245.591 0.870941 3.36202 0
M  V30 2718 C 244.545 1.93637 3.81692 0
M  V30 2719 C 243.871 1.475 5.13953 0
M  V30 2720 C 245.171 3.34666 4.00994 0
M  V30 2721 H 246.865 2.12359 2.11054 0
M  V30 2722 H 244.411 1.02238 1.01407 0
M  V30 2723 H 246.364 0.777141 4.14172 0
M  V30 2724 H 245.088 -0.102926 3.26438 0
M  V30 2725 H 243.747 2.01972 3.05946 0
M  V30 2726 H 243.395 0.489551 5.00612 0
M  V30 2727 H 243.095 2.1876 5.4536 0
M  V30 2728 H 244.619 1.39489 5.94454 0
M  V30 2729 H 246.033 3.2912 4.69417 0
M  V30 2730 H 244.43 4.03966 4.43769 0
M  V30 2731 H 245.5 3.76949 3.05021 0
M  V30 2732 N 246.843 -1.10192 1.12674 0
M  V30 2733 C 248.068 -1.86523 0.906853 0
M  V30 2734 C 248.493 -1.80221 -0.538711 0
M  V30 2735 O 247.851 -1.17396 -1.38158 0
M  V30 2736 C 247.899 -3.32758 1.3894 0
M  V30 2737 O 247.003 -4.08449 0.5695 0
M  V30 2738 H 246.344 -0.578678 0.325619 0
M  V30 2739 H 248.874 -1.39203 1.49946 0
M  V30 2740 H 248.884 -3.83608 1.38958 0
M  V30 2741 H 247.559 -3.36661 2.44197 0
M  V30 2742 H 246.136 -3.67427 0.636528 0
M  V30 2743 N 248.321 -0.919034 -1.28029 0
M  V30 2744 C 249.268 -0.410005 -2.27129 0
M  V30 2745 C 250.238 0.518405 -1.57803 0
M  V30 2746 O 251.423 0.439451 -1.8567 0
M  V30 2747 C 248.563 0.339054 -3.4343 0
M  V30 2748 C 247.676 -0.622468 -4.27492 0
M  V30 2749 C 246.811 0.145567 -5.31001 0
M  V30 2750 C 245.85 -0.809226 -6.06727 0
M  V30 2751 N 244.987 -0.0743728 -7.02061 0
M  V30 2752 H 249.827 -1.26011 -2.70047 0
M  V30 2753 H 247.364 -0.632663 -1.328 0
M  V30 2754 H 249.322 0.789586 -4.0966 0
M  V30 2755 H 247.952 1.15346 -3.01488 0
M  V30 2756 H 247.004 -1.19153 -3.61257 0
M  V30 2757 H 248.316 -1.35252 -4.80113 0
M  V30 2758 H 247.47 0.656417 -6.03139 0
M  V30 2759 H 246.209 0.908643 -4.79161 0
M  V30 2760 H 245.214 -1.3314 -5.33436 0
M  V30 2761 H 246.439 -1.57194 -6.60656 0
M  V30 2762 H 244.385 0.670616 -6.52563 0
M  V30 2763 H 244.302 -0.744157 -7.52329 0
M  V30 2764 H 245.57 0.416109 -7.78389 0
M  V30 2765 N 249.799 1.42003 -0.683588 0
M  V30 2766 C 250.732 2.28166 0.039592 0
M  V30 2767 C 251.71 1.41562 0.799942 0
M  V30 2768 O 252.894 1.70997 0.793248 0
M  V30 2769 C 250.021 3.21575 1.06335 0
M  V30 2770 C 249.067 4.24643 0.397562 0
M  V30 2771 S 249.9 5.2869 -0.851296 0
M  V30 2772 C 251.056 6.25666 0.171166 0
M  V30 2773 H 251.289 2.89153 -0.691229 0
M  V30 2774 H 248.822 1.46962 -0.473435 0
M  V30 2775 H 250.78 3.75928 1.6489 0
M  V30 2776 H 249.441 2.59707 1.76667 0
M  V30 2777 H 248.634 4.90223 1.17035 0
M  V30 2778 H 248.236 3.73824 -0.114611 0
M  V30 2779 H 250.528 6.69653 1.02819 0
M  V30 2780 H 251.471 7.06666 -0.450397 0
M  V30 2781 H 251.879 5.62095 0.520578 0
M  V30 2782 N 251.277 0.427512 1.51691 0
M  V30 2783 C 252.187 -0.39527 2.31246 0
M  V30 2784 C 253.203 -1.03674 1.39742 0
M  V30 2785 O 254.379 -1.03425 1.72816 0
M  V30 2786 C 251.444 -1.48706 3.13189 0
M  V30 2787 C 250.505 -0.866743 4.20459 0
M  V30 2788 C 249.738 -1.90651 4.98486 0
M  V30 2789 O 249.961 -3.12733 4.77026 0
M  V30 2790 O 248.895 -1.5025 5.82845 0
M  V30 2791 H 252.721 0.253918 3.02637 0
M  V30 2792 H 250.306 0.190274 1.48183 0
M  V30 2793 H 252.188 -2.12047 3.64162 0
M  V30 2794 H 250.863 -2.12051 2.44573 0
M  V30 2795 H 249.77 -0.195544 3.73589 0
M  V30 2796 H 251.103 -0.276934 4.9142 0
M  V30 2797 N 252.755 -1.56801 0.158532 0
M  V30 2798 C 253.687 -2.14488 -0.807923 0
M  V30 2799 C 254.7 -1.09721 -1.20271 0
M  V30 2800 O 255.889 -1.36956 -1.14478 0
M  V30 2801 C 252.989 -2.66217 -2.09718 0
M  V30 2802 C 252.162 -3.95507 -1.86796 0
M  V30 2803 C 251.221 -4.3243 -2.99818 0
M  V30 2804 O 250.247 -5.00543 -2.71008 0
M  V30 2805 N 251.449 -3.92947 -4.27285 0
M  V30 2806 H 254.214 -2.98042 -0.314816 0
M  V30 2807 H 251.775 -1.61881 -0.0246692 0
M  V30 2808 H 253.767 -2.87924 -2.84398 0
M  V30 2809 H 252.337 -1.87324 -2.50257 0
M  V30 2810 H 251.557 -3.82309 -0.96089 0
M  V30 2811 H 252.845 -4.79972 -1.68833 0
M  V30 2812 H 252.243 -3.38087 -4.53557 0
M  V30 2813 H 250.8 -4.19681 -4.9871 0
M  V30 2814 N 254.233 0.115231 -1.57178 0
M  V30 2815 C 255.181 1.16014 -2.01602 0
M  V30 2816 C 256.175 1.42653 -0.913587 0
M  V30 2817 O 257.381 1.42571 -1.09879 0
M  V30 2818 H 253.756 0.391252 -0.642204 0
M  V30 2819 H 255.727 0.758998 -2.88586 0
M  V30 2820 C 254.476 2.47767 -2.4394 0
M  V30 2821 H 253.799 2.28108 -3.28339 0
M  V30 2822 H 255.239 3.19432 -2.78818 0
M  V30 2823 C 253.698 3.10617 -1.30455 0
M  V30 2824 O 254.228 3.96846 -0.622585 0
M  V30 2825 N 252.434 2.70553 -1.06064 0
M  V30 2826 H 251.981 2.00527 -1.61699 0
M  V30 2827 H 251.939 3.12934 -0.303284 0
M  V30 2828 N 255.711 1.52812 0.385517 0
M  V30 2829 C 256.959 1.67694 1.12797 0
M  V30 2830 C 257.28 0.421115 1.90399 0
M  V30 2831 O 256.55 -0.564551 1.87589 0
M  V30 2832 H 255.13 0.618155 0.419396 0
M  V30 2833 H 257.792 1.89938 0.436972 0
M  V30 2834 H 256.888 2.52896 1.82894 0
M  V30 2835 N 257.189 -0.644168 1.43834 0
M  V30 2836 C 258.438 -1.39985 1.45214 0
M  V30 2837 C 258.751 -1.95421 0.0835494 0
M  V30 2838 O 259.957 -2.71488 -0.0251748 0
M  V30 2839 C 258.413 -2.53384 2.55587 0
M  V30 2840 C 258.021 -2.04517 3.98594 0
M  V30 2841 C 259.765 -3.30685 2.66172 0
M  V30 2842 C 257.672 -3.1518 5.00416 0
M  V30 2843 H 256.602 -0.526005 0.540218 0
M  V30 2844 H 259.253 -0.694367 1.69855 0
M  V30 2845 H 257.635 -3.26446 2.24163 0
M  V30 2846 H 258.809 -1.38405 4.39523 0
M  V30 2847 H 257.124 -1.40068 3.92135 0
M  V30 2848 H 259.721 -4.13158 3.39418 0
M  V30 2849 H 260.064 -3.79312 1.71546 0
M  V30 2850 H 260.597 -2.64708 2.96942 0
M  V30 2851 H 257.336 -2.71511 5.96625 0
M  V30 2852 H 256.856 -3.79974 4.64091 0
M  V30 2853 H 258.535 -3.80166 5.23529 0
M  V30 2854 N 258.668 -1.30515 -0.883378 0
M  V30 2855 C 259.601 -1.11359 -1.99184 0
M  V30 2856 C 260.579 -0.0207858 -1.62587 0
M  V30 2857 O 261.763 -0.174646 -1.87689 0
M  V30 2858 C 258.89 -0.69871 -3.31415 0
M  V30 2859 C 257.936 -1.79261 -3.86998 0
M  V30 2860 S 258.769 -3.39536 -4.14096 0
M  V30 2861 C 259.925 -2.99954 -5.49344 0
M  V30 2862 H 260.158 -2.052 -2.15128 0
M  V30 2863 H 257.691 -1.14847 -1.03196 0
M  V30 2864 H 259.649 -0.466075 -4.07846 0
M  V30 2865 H 258.31 0.220368 -3.13326 0
M  V30 2866 H 257.503 -1.45464 -4.82552 0
M  V30 2867 H 257.105 -1.97961 -3.17313 0
M  V30 2868 H 259.397 -2.48013 -6.30473 0
M  V30 2869 H 260.34 -3.9442 -5.8808 0
M  V30 2870 H 260.748 -2.37775 -5.1198 0
M  V30 2871 N 260.146 1.09593 -1.13257 0
M  V30 2872 C 261.371 1.8604 -0.916732 0
M  V30 2873 C 261.796 1.80504 0.529146 0
M  V30 2874 O 261.154 1.18127 1.37534 0
M  V30 2875 C 261.202 3.32017 -1.40703 0
M  V30 2876 O 260.306 4.08141 -0.591153 0
M  V30 2877 H 259.647 0.576943 -0.328683 0
M  V30 2878 H 262.177 1.38405 -1.50682 0
M  V30 2879 H 262.187 3.82865 -1.4099 0
M  V30 2880 H 260.862 3.35361 -2.45979 0
M  V30 2881 H 259.439 3.67084 -0.656005 0
M  V30 2882 N 261.624 0.925811 1.2754 0
M  V30 2883 C 262.852 0.581509 1.9856 0
M  V30 2884 C 263.267 -0.840041 1.69082 0
M  V30 2885 O 262.624 -1.55805 0.950312 0
M  V30 2886 C 262.675 0.795589 3.52637 0
M  V30 2887 O 262.396 2.16121 3.81082 0
M  V30 2888 C 263.897 0.459744 4.4091 0
M  V30 2889 H 261.117 0.220538 0.633722 0
M  V30 2890 H 263.661 1.24232 1.6244 0
M  V30 2891 H 261.816 0.18161 3.86974 0
M  V30 2892 H 262.23 2.2098 4.75676 0
M  V30 2893 H 263.704 0.660244 5.48037 0
M  V30 2894 H 264.181 -0.604625 4.35018 0
M  V30 2895 H 264.787 1.05178 4.12089 0
M  V30 2896 N 263.102 -1.41638 0.69111 0
M  V30 2897 C 264.065 -2.29178 0.0319786 0
M  V30 2898 C 265.065 -1.44153 -0.712496 0
M  V30 2899 O 266.255 -1.65354 -0.548053 0
M  V30 2900 C 263.387 -3.26952 -0.965161 0
M  V30 2901 H 264.58 -2.88959 0.802681 0
M  V30 2902 H 262.133 -1.4955 0.454356 0
M  V30 2903 H 262.868 -2.72142 -1.76378 0
M  V30 2904 H 262.653 -3.89685 -0.434522 0
M  V30 2905 H 264.143 -3.92561 -1.42428 0
M  V30 2906 N 264.58 -0.43555 -1.51462 0
M  V30 2907 C 265.82 0.130708 -2.03982 0
M  V30 2908 C 266.184 1.40117 -1.31268 0
M  V30 2909 O 267.385 2.04755 -1.74152 0
M  V30 2910 C 265.656 0.346102 -3.5572 0
M  V30 2911 S 267.215 0.876022 -4.29967 0
M  V30 2912 H 264.033 0.0326881 -0.710248 0
M  V30 2913 H 266.635 -0.594544 -1.8624 0
M  V30 2914 H 265.339 -0.584911 -4.0621 0
M  V30 2915 H 264.87 1.09849 -3.77752 0
M  V30 2916 H 266.885 2.15379 -4.47019 0
M  V30 2917 N 266.058 1.56714 -0.166846 0
M  V30 2918 C 267.306 1.96358 0.478305 0
M  V30 2919 C 267.627 1.0537 1.6408 0
M  V30 2920 O 266.897 0.119154 1.95537 0
M  V30 2921 H 265.477 0.725065 0.179692 0
M  V30 2922 H 268.139 1.93329 -0.246985 0
M  V30 2923 H 267.235 3.00547 0.841292 0
M  V30 2924 N 267.536 -0.106894 1.57237 0
M  V30 2925 C 268.764 -0.826389 1.8968 0
M  V30 2926 C 269.179 -1.72856 0.759353 0
M  V30 2927 O 268.536 -1.80503 -0.269263 0
M  V30 2928 C 268.587 -1.64967 3.21665 0
M  V30 2929 O 268.308 -0.783804 4.31031 0
M  V30 2930 C 269.809 -2.47326 3.67892 0
M  V30 2931 H 267.029 -0.236927 0.627779 0
M  V30 2932 H 269.573 -0.0876593 2.04312 0
M  V30 2933 H 267.728 -2.34103 3.08666 0
M  V30 2934 H 268.142 -1.35284 5.06753 0
M  V30 2935 H 269.616 -3.00604 4.6297 0
M  V30 2936 H 270.093 -3.25247 2.95146 0
M  V30 2937 H 270.699 -1.83411 3.83719 0
M  V30 2938 N 269.014 -1.53014 -0.377408 0
M  V30 2939 C 270.425 -1.60438 -0.954798 0
M  V30 2940 C 270.776 -0.464418 -1.90624 0
M  V30 2941 O 269.901 0.41087 -2.12464 0
M  V30 2942 C 270.496 -2.90797 -1.73847 0
M  V30 2943 C 269.055 -3.00595 -2.26538 0
M  V30 2944 C 268.202 -2.55645 -1.07429 0
M  V30 2945 H 271.153 -1.57926 -0.156575 0
M  V30 2946 H 271.174 -2.77935 -2.5987 0
M  V30 2947 H 270.686 -3.73746 -1.04574 0
M  V30 2948 H 268.787 -2.22208 -2.99089 0
M  V30 2949 H 268.9 -4.05456 -2.5523 0
M  V30 2950 H 267.264 -2.10239 -1.43777 0
M  V30 2951 H 268.047 -3.41 -0.396728 0
M  V30 2952 N 270.492 0.636531 -1.44174 0
M  V30 2953 C 271.74 1.39343 -1.46383 0
M  V30 2954 C 272.061 1.94766 -0.0955715 0
M  V30 2955 O 271.331 1.75452 0.871395 0
M  V30 2956 H 269.911 0.517199 -0.538994 0
M  V30 2957 H 272.573 0.74957 -1.7991 0
M  V30 2958 H 271.669 2.22746 -2.18611 0
M  V30 2959 N 271.97 1.30982 0.876444 0
M  V30 2960 C 273.2 1.23063 1.65949 0
M  V30 2961 C 273.608 -0.207537 1.88058 0
M  V30 2962 O 272.951 -1.14781 1.43426 0
M  V30 2963 C 273.013 1.89768 3.05333 0
M  V30 2964 C 272.677 3.39106 3.0636 0
M  V30 2965 C 273.674 4.3496 2.84791 0
M  V30 2966 C 271.359 3.80693 3.27686 0
M  V30 2967 C 273.353 5.70375 2.84519 0
M  V30 2968 C 271.04 5.16223 3.27043 0
M  V30 2969 C 272.038 6.10875 3.05485 0
M  V30 2970 O 271.726 7.43928 3.04674 0
M  V30 2971 H 271.458 0.426685 0.524324 0
M  V30 2972 H 274.012 1.7329 1.10271 0
M  V30 2973 H 272.242 1.34082 3.6271 0
M  V30 2974 H 273.931 1.75853 3.65829 0
M  V30 2975 H 274.697 4.0416 2.68103 0
M  V30 2976 H 270.576 3.07457 3.43499 0
M  V30 2977 H 274.12 6.44228 2.67611 0
M  V30 2978 H 270.017 5.4666 3.43269 0
M  V30 2979 H 270.785 7.53022 3.2078 0
M  V30 2980 N 273.449 -1.08991 1.13837 0
M  V30 2981 C 274.695 -1.81526 0.90422 0
M  V30 2982 C 275.028 -1.85706 -0.568066 0
M  V30 2983 O 274.303 -1.32855 -1.42056 0
M  V30 2984 C 274.586 -3.27447 1.49835 0
M  V30 2985 C 274.439 -3.31512 3.04006 0
M  V30 2986 C 275.758 -4.24256 1.17025 0
M  V30 2987 H 272.877 -0.659029 0.329923 0
M  V30 2988 H 275.519 -1.27644 1.40737 0
M  V30 2989 H 273.669 -3.73462 1.07044 0
M  V30 2990 H 275.341 -2.93867 3.55584 0
M  V30 2991 H 273.584 -2.70963 3.38765 0
M  V30 2992 H 274.255 -4.34329 3.40679 0
M  V30 2993 H 276.731 -3.86549 1.54009 0
M  V30 2994 H 275.607 -5.24684 1.61237 0
M  V30 2995 H 275.868 -4.42019 0.0846274 0
M  V30 2996 N 274.927 -0.932562 -1.27047 0
M  V30 2997 C 275.89 -0.440064 -2.24936 0
M  V30 2998 C 276.89 0.444071 -1.54547 0
M  V30 2999 O 278.08 0.244465 -1.72476 0
M  V30 3000 C 275.212 0.36678 -3.38921 0
M  V30 3001 H 276.405 -1.305 -2.70018 0
M  V30 3002 H 273.958 -0.713707 -1.39054 0
M  V30 3003 H 274.693 1.25033 -2.99228 0
M  V30 3004 H 274.478 -0.267204 -3.91188 0
M  V30 3005 H 275.968 0.701567 -4.11665 0
M  V30 3006 N 276.405 1.4127 -0.698611 0
M  V30 3007 C 277.816 1.84187 -0.305289 0
M  V30 3008 C 278.167 1.58449 1.15708 0
M  V30 3009 O 277.292 1.05651 1.88856 0
M  V30 3010 C 277.887 3.3435 -0.547314 0
M  V30 3011 C 276.446 3.75826 -0.207878 0
M  V30 3012 C 275.593 2.64647 -0.828099 0
M  V30 3013 H 278.544 1.30778 -0.89904 0
M  V30 3014 H 278.565 3.8001 0.192998 0
M  V30 3015 H 278.077 3.53051 -1.61172 0
M  V30 3016 H 276.178 3.62725 0.852143 0
M  V30 3017 H 276.291 4.74462 -0.665021 0
M  V30 3018 H 274.655 2.53395 -0.257458 0
M  V30 3019 H 275.438 2.86165 -1.89643 0
M  V30 3020 N 277.883 0.443576 1.51229 0
M  V30 3021 C 278.793 -0.370721 2.31652 0
M  V30 3022 C 279.809 -1.02186 1.40833 0
M  V30 3023 O 280.985 -1.01586 1.73903 0
M  V30 3024 C 278.05 -1.45376 3.14749 0
M  V30 3025 C 277.111 -0.822099 4.21355 0
M  V30 3026 C 276.344 -1.85353 5.0048 0
M  V30 3027 O 276.567 -3.07656 4.80316 0
M  V30 3028 O 275.501 -1.4406 5.84406 0
M  V30 3029 H 279.327 0.286002 3.0235 0
M  V30 3030 H 276.912 0.20598 1.47973 0
M  V30 3031 H 278.794 -2.08173 3.66391 0
M  V30 3032 H 277.469 -2.09445 2.46809 0
M  V30 3033 H 276.376 -0.155909 3.73775 0
M  V30 3034 H 277.709 -0.224797 4.91686 0
M  V30 3035 N 279.361 -1.56624 0.175154 0
M  V30 3036 C 280.607 -1.9729 -0.469506 0
M  V30 3037 C 280.94 -1.06128 -1.62636 0
M  V30 3038 O 280.215 -0.109183 -1.94193 0
M  V30 3039 C 280.498 -3.47375 -0.948804 0
M  V30 3040 C 280.351 -4.49317 0.208491 0
M  V30 3041 C 281.67 -4.00652 -1.82116 0
M  V30 3042 H 278.789 -0.717317 -0.16919 0
M  V30 3043 H 281.431 -1.88184 0.262062 0
M  V30 3044 H 279.581 -3.55267 -1.57219 0
M  V30 3045 H 281.253 -4.53482 0.845682 0
M  V30 3046 H 279.496 -4.25121 0.863395 0
M  V30 3047 H 280.167 -5.51741 -0.169059 0
M  V30 3048 H 282.643 -3.95416 -1.2956 0
M  V30 3049 H 281.519 -5.06075 -2.12554 0
M  V30 3050 H 281.78 -3.44699 -2.7683 0
M  V30 3051 N 280.839 0.0985539 -1.57292 0
M  V30 3052 C 281.769 1.12064 -2.04851 0
M  V30 3053 C 282.75 1.41981 -0.936767 0
M  V30 3054 O 283.935 1.52071 -1.20781 0
M  V30 3055 C 281.065 2.44144 -2.47004 0
M  V30 3056 C 280.019 2.28643 -3.6181 0
M  V30 3057 C 279.345 3.65869 -3.89929 0
M  V30 3058 C 280.645 1.72986 -4.92822 0
M  V30 3059 H 282.339 0.724979 -2.9049 0
M  V30 3060 H 279.885 0.34729 -1.39749 0
M  V30 3061 H 281.838 3.15914 -2.78884 0
M  V30 3062 H 280.562 2.85639 -1.5836 0
M  V30 3063 H 279.221 1.59318 -3.30172 0
M  V30 3064 H 278.869 4.04885 -2.98458 0
M  V30 3065 H 278.569 3.56344 -4.67218 0
M  V30 3066 H 280.093 4.39112 -4.2428 0
M  V30 3067 H 281.507 2.34593 -5.23105 0
M  V30 3068 H 279.904 1.74229 -5.74251 0
M  V30 3069 H 280.974 0.689007 -4.7998 0
M  V30 3070 N 282.317 1.53212 0.369288 0
M  V30 3071 C 283.28 1.7872 1.43498 0
M  V30 3072 C 284.28 0.657554 1.46741 0
M  V30 3073 O 285.47 0.925736 1.47566 0
M  V30 3074 C 282.602 1.90591 2.82645 0
M  V30 3075 H 283.795 2.73894 1.22156 0
M  V30 3076 H 281.348 1.44233 0.602203 0
M  V30 3077 H 282.083 0.974709 3.09306 0
M  V30 3078 H 281.868 2.72751 2.8169 0
M  V30 3079 H 283.358 2.11931 3.59826 0
M  V30 3080 N 283.795 -0.628877 1.44509 0
M  V30 3081 C 284.727 -1.754 1.47538 0
M  V30 3082 C 285.74 -1.58575 0.368506 0
M  V30 3083 O 286.929 -1.66847 0.634376 0
M  V30 3084 C 284.029 -3.1315 1.29577 0
M  V30 3085 C 283.202 -3.56413 2.53551 0
M  V30 3086 C 282.261 -4.7305 2.30457 0
M  V30 3087 O 281.287 -4.81247 3.03957 0
M  V30 3088 N 282.489 -5.64903 1.3366 0
M  V30 3089 H 285.254 -1.73272 2.44534 0
M  V30 3090 H 282.815 -0.813512 1.39977 0
M  V30 3091 H 284.807 -3.88902 1.11971 0
M  V30 3092 H 283.377 -3.09908 0.409371 0
M  V30 3093 H 282.597 -2.70847 2.86419 0
M  V30 3094 H 283.885 -3.82071 3.36005 0
M  V30 3095 H 283.283 -5.60975 0.729604 0
M  V30 3096 H 281.84 -6.40275 1.22032 0
M  V30 3097 N 285.273 -1.31445 -0.869486 0
M  V30 3098 C 286.22 -1.19135 -1.97675 0
M  V30 3099 C 287.19 -0.0770266 -1.65921 0
M  V30 3100 O 288.375 -0.249972 -1.89155 0
M  V30 3101 C 285.515 -0.905149 -3.33018 0
M  V30 3102 C 284.628 -2.10285 -3.77365 0
M  V30 3103 C 283.763 -1.75339 -5.01427 0
M  V30 3104 C 282.802 -2.91515 -5.38224 0
M  V30 3105 N 281.939 -2.56762 -6.53466 0
M  V30 3106 H 286.779 -2.13853 -2.07535 0
M  V30 3107 H 284.316 -1.06379 -1.01597 0
M  V30 3108 H 286.274 -0.719765 -4.10944 0
M  V30 3109 H 284.904 0.00519624 -3.228 0
M  V30 3110 H 283.956 -2.39899 -2.95216 0
M  V30 3111 H 285.268 -2.97237 -4.00564 0
M  V30 3112 H 284.422 -1.53266 -5.87022 0
M  V30 3113 H 283.161 -0.855801 -4.80133 0
M  V30 3114 H 282.166 -3.14237 -4.51149 0
M  V30 3115 H 283.391 -3.81985 -5.61484 0
M  V30 3116 H 281.337 -1.69526 -6.33717 0
M  V30 3117 H 281.254 -3.37243 -6.76612 0
M  V30 3118 H 282.522 -2.38083 -7.42251 0
M  V30 3119 N 286.751 1.08385 -1.14413 0
M  V30 3120 C 288.162 1.62258 -0.923535 0
M  V30 3121 C 288.513 1.88691 0.537595 0
M  V30 3122 O 287.638 1.64454 1.40655 0
M  V30 3123 C 288.233 2.94781 -1.67002 0
M  V30 3124 C 286.792 3.45437 -1.495 0
M  V30 3125 C 285.939 2.19668 -1.69238 0
M  V30 3126 H 288.89 0.916086 -1.2959 0
M  V30 3127 H 288.911 3.63229 -1.13334 0
M  V30 3128 H 288.423 2.7551 -2.73342 0
M  V30 3129 H 286.524 3.6981 -0.455097 0
M  V30 3130 H 286.637 4.22173 -2.2651 0
M  V30 3131 H 285.001 2.28849 -1.11804 0
M  V30 3132 H 285.784 2.02905 -2.7692 0
M  V30 3133 N 288.23 0.939286 1.26551 0
M  V30 3134 C 289.46 0.601663 1.97645 0
M  V30 3135 C 289.868 -0.827206 1.70159 0
M  V30 3136 O 289.211 -1.56291 0.965338 0
M  V30 3137 C 289.273 0.761725 3.51337 0
M  V30 3138 C 288.937 2.16487 4.0247 0
M  V30 3139 C 289.934 3.14016 4.14355 0
M  V30 3140 C 287.619 2.48494 4.36527 0
M  V30 3141 C 289.613 4.41654 4.59587 0
M  V30 3142 C 287.3 3.76364 4.81449 0
M  V30 3143 C 288.298 4.72758 4.92939 0
M  V30 3144 O 287.986 5.98352 5.36871 0
M  V30 3145 H 287.718 0.225758 0.637189 0
M  V30 3146 H 290.272 1.26178 1.62075 0
M  V30 3147 H 288.502 0.0444808 3.86674 0
M  V30 3148 H 290.191 0.427442 4.03643 0
M  V30 3149 H 290.957 2.90613 3.8829 0
M  V30 3150 H 286.836 1.74202 4.26819 0
M  V30 3151 H 290.38 5.16896 4.68471 0
M  V30 3152 H 286.277 3.99582 5.06956 0
M  V30 3153 H 287.045 6.01507 5.55096 0
M  V30 3154 N 289.708 -1.40897 0.706093 0
M  V30 3155 C 290.933 -2.05895 0.249435 0
M  V30 3156 C 291.358 -1.52823 -1.09666 0
M  V30 3157 O 290.716 -0.659589 -1.68876 0
M  V30 3158 C 290.764 -3.59872 0.22904 0
M  V30 3159 O 289.868 -4.04708 -0.792784 0
M  V30 3160 H 289.209 -0.653206 0.119241 0
M  V30 3161 H 291.739 -1.80471 0.96391 0
M  V30 3162 H 291.749 -4.07951 0.0634791 0
M  V30 3163 H 290.424 -3.97866 1.21141 0
M  V30 3164 H 289.001 -3.68111 -0.59572 0
M  V30 3165 N 291.186 -0.45159 -1.50991 0
M  V30 3166 C 292.133 0.352625 -2.2809 0
M  V30 3167 C 293.103 1.0044 -1.32291 0
M  V30 3168 O 294.288 1.02058 -1.6121 0
M  V30 3169 C 291.428 1.43983 -3.13629 0
M  V30 3170 C 290.541 0.804772 -4.24438 0
M  V30 3171 C 289.676 1.86822 -4.97263 0
M  V30 3172 C 288.715 1.21236 -5.99973 0
M  V30 3173 N 287.852 2.2178 -6.66152 0
M  V30 3174 H 292.692 -0.311186 -2.96371 0
M  V30 3175 H 290.229 -0.165308 -1.46168 0
M  V30 3176 H 292.187 2.08161 -3.61559 0
M  V30 3177 H 290.817 2.07307 -2.47434 0
M  V30 3178 H 289.869 0.0509129 -3.80366 0
M  V30 3179 H 291.181 0.286076 -4.97979 0
M  V30 3180 H 290.335 2.58628 -5.48813 0
M  V30 3181 H 289.074 2.42068 -4.23385 0
M  V30 3182 H 288.079 0.479828 -5.47702 0
M  V30 3183 H 289.304 0.667051 -6.75816 0
M  V30 3184 H 287.25 2.76079 -5.95077 0
M  V30 3185 H 287.167 1.74841 -7.35504 0
M  V30 3186 H 288.435 2.93026 -7.22327 0
M  V30 3187 N 292.664 1.56529 -0.183458 0
M  V30 3188 C 293.627 2.17324 0.728223 0
M  V30 3189 C 294.627 1.12453 1.14939 0
M  V30 3190 O 295.817 1.37902 1.06437 0
M  V30 3191 C 292.949 2.76591 1.99274 0
M  V30 3192 H 294.142 2.99241 0.198772 0
M  V30 3193 H 291.695 1.5616 0.0661391 0
M  V30 3194 H 292.43 1.98441 2.56499 0
M  V30 3195 H 292.215 3.5335 1.69959 0
M  V30 3196 H 293.705 3.23311 2.6431 0
M  V30 3197 N 294.142 -0.090211 1.57342 0
M  V30 3198 C 295.388 -0.793982 1.86611 0
M  V30 3199 C 295.721 -1.78142 0.773252 0
M  V30 3200 O 294.996 -1.93271 -0.218304 0
M  V30 3201 C 295.279 -1.51839 3.26523 0
M  V30 3202 C 295.132 -0.548609 4.46442 0
M  V30 3203 C 296.451 -2.46779 3.64401 0
M  V30 3204 H 293.57 -0.287186 0.678744 0
M  V30 3205 H 296.212 -0.0575076 1.89913 0
M  V30 3206 H 294.362 -2.14617 3.23839 0
M  V30 3207 H 296.034 0.0725513 4.61243 0
M  V30 3208 H 294.277 0.137614 4.33582 0
M  V30 3209 H 294.948 -1.09271 5.41076 0
M  V30 3210 H 297.424 -1.94089 3.68061 0
M  V30 3211 H 296.3 -2.94479 4.63221 0
M  V30 3212 H 296.561 -3.30758 2.93346 0
M  V30 3213 N 295.62 -1.53406 -0.361157 0
M  V30 3214 C 296.897 -1.60411 -1.11927 0
M  V30 3215 C 297.277 -0.414385 -2.06993 0
M  V30 3216 O 296.625 0.594976 -2.20618 0
M  V30 3217 C 296.835 -2.95652 -1.85448 0
M  V30 3218 C 298.183 -3.50386 -2.39823 0
M  V30 3219 O 299.207 -2.97711 -1.95568 0
M  V30 3220 O 298.066 -4.42482 -3.20737 0
M  V30 3221 H 295.16 -0.64811 -0.513695 0
M  V30 3222 H 297.706 -1.65749 -0.364065 0
M  V30 3223 H 296.478 -3.73682 -1.16091 0
M  V30 3224 H 296.101 -2.93825 -2.67866 0
M  V30 3225 N 297.098 0.621204 -1.44841 0
M  V30 3226 C 298.338 1.39201 -1.49674 0
M  V30 3227 C 298.702 1.91561 -0.129764 0
M  V30 3228 O 299.903 2.68748 -0.0527814 0
M  V30 3229 C 298.174 2.519 -2.53537 0
M  V30 3230 S 299.733 3.39916 -2.77494 0
M  V30 3231 H 296.551 0.474758 -0.529269 0
M  V30 3232 H 299.153 0.718171 -1.81831 0
M  V30 3233 H 297.857 2.11761 -3.51547 0
M  V30 3234 H 297.388 3.241 -2.22986 0
M  V30 3235 H 299.403 4.49646 -2.0984 0
M  V30 3236 N 298.576 1.31904 0.862503 0
M  V30 3237 C 299.822 1.23207 1.61838 0
M  V30 3238 C 300.177 -0.206062 1.91293 0
M  V30 3239 O 299.47 -1.14162 1.53875 0
M  V30 3240 C 299.664 2.01713 2.95037 0
M  V30 3241 C 299.493 3.53014 2.78588 0
M  V30 3242 C 298.263 4.22359 2.77382 0
M  V30 3243 C 300.461 4.47819 2.52909 0
M  V30 3244 N 298.443 5.59766 2.52062 0
M  V30 3245 C 299.814 5.72947 2.36922 0
M  V30 3246 C 301.869 4.37162 2.38314 0
M  V30 3247 C 300.572 6.88623 2.07823 0
M  V30 3248 C 302.598 5.5263 2.10604 0
M  V30 3249 C 301.96 6.76752 1.95411 0
M  V30 3250 H 298.059 0.505984 0.596242 0
M  V30 3251 H 300.643 1.66179 1.01452 0
M  V30 3252 H 298.814 1.61098 3.53415 0
M  V30 3253 H 300.546 1.84975 3.59953 0
M  V30 3254 H 297.301 3.74401 2.90036 0
M  V30 3255 H 297.725 6.32135 2.42352 0
M  V30 3256 H 302.367 3.41857 2.48784 0
M  V30 3257 H 300.085 7.83948 1.9609 0
M  V30 3258 H 303.671 5.46307 2.00101 0
M  V30 3259 H 302.551 7.6459 1.74274 0
M  V30 3260 N 300.054 -1.07777 1.14986 0
M  V30 3261 C 301.279 -1.84558 0.946213 0
M  V30 3262 C 301.704 -1.81323 -0.500362 0
M  V30 3263 O 301.062 -1.20301 -1.35637 0
M  V30 3264 C 301.11 -3.29736 1.45968 0
M  V30 3265 O 300.214 -4.07149 0.65601 0
M  V30 3266 H 299.555 -0.571641 0.33782 0
M  V30 3267 H 302.085 -1.35991 1.52865 0
M  V30 3268 H 302.095 -3.80574 1.47063 0
M  V30 3269 H 300.77 -3.31406 2.51283 0
M  V30 3270 H 299.347 -3.65994 0.714322 0
M  V30 3271 N 301.532 -0.945985 -1.26051 0
M  V30 3272 C 302.781 -0.591836 -1.92822 0
M  V30 3273 C 303.094 0.873956 -1.7499 0
M  V30 3274 O 304.3 1.33769 -2.36259 0
M  V30 3275 C 302.756 -1.00776 -3.45503 0
M  V30 3276 C 302.364 -2.4955 -3.7206 0
M  V30 3277 C 304.108 -0.725735 -4.1825 0
M  V30 3278 C 302.015 -2.84988 -5.18205 0
M  V30 3279 H 300.945 -0.217635 -0.721908 0
M  V30 3280 H 303.596 -1.14927 -1.43052 0
M  V30 3281 H 301.978 -0.378812 -3.94184 0
M  V30 3282 H 303.152 -3.1739 -3.34066 0
M  V30 3283 H 301.467 -2.75133 -3.12555 0
M  V30 3284 H 304.064 -0.966771 -5.25887 0
M  V30 3285 H 304.407 0.337639 -4.14929 0
M  V30 3286 H 304.94 -1.31463 -3.7545 0
M  V30 3287 H 301.679 -3.90307 -5.26631 0
M  V30 3288 H 301.199 -2.21813 -5.57278 0
M  V30 3289 H 302.878 -2.73712 -5.86252 0
M  V30 3290 N 303.011 1.40521 -0.713556 0
M  V30 3291 C 304.259 2.00527 -0.251692 0
M  V30 3292 C 304.58 1.56857 1.15848 0
M  V30 3293 O 303.85 0.807127 1.785 0
M  V30 3294 H 302.43 0.741551 -0.0900646 0
M  V30 3295 H 305.092 1.71887 -0.918733 0
M  V30 3296 H 304.188 3.10813 -0.283192 0
M  V30 3297 N 304.489 0.459591 1.5075 0
M  V30 3298 C 305.735 -0.0994966 2.02556 0
M  V30 3299 C 306.068 -1.40399 1.3417 0
M  V30 3300 O 305.343 -1.88892 0.463683 0
M  V30 3301 C 305.626 -0.295242 3.58888 0
M  V30 3302 C 305.479 1.02947 4.37861 0
M  V30 3303 C 306.798 -1.05502 4.27267 0
M  V30 3304 H 303.917 -0.034686 0.736183 0
M  V30 3305 H 306.559 0.602938 1.8018 0
M  V30 3306 H 304.709 -0.893563 3.78084 0
M  V30 3307 H 306.381 1.66348 4.30263 0
M  V30 3308 H 304.624 1.62885 4.02058 0
M  V30 3309 H 305.295 0.846281 5.45474 0
M  V30 3310 H 307.771 -0.547993 4.12476 0
M  V30 3311 H 306.647 -1.16077 5.36486 0
M  V30 3312 H 306.908 -2.08875 3.89645 0
M  V30 3313 N 305.967 -1.56429 0.191757 0
M  V30 3314 C 307.216 -1.9666 -0.448088 0
M  V30 3315 C 307.529 -1.08136 -1.62991 0
M  V30 3316 O 308.735 -1.38135 -2.33733 0
M  V30 3317 C 307.191 -3.49753 -0.848585 0
M  V30 3318 C 306.799 -4.46935 0.308764 0
M  V30 3319 C 308.543 -3.9876 -1.4557 0
M  V30 3320 C 306.45 -5.91293 -0.112506 0
M  V30 3321 H 305.38 -0.734312 -0.171179 0
M  V30 3322 H 308.031 -1.81301 0.283242 0
M  V30 3323 H 306.413 -3.60604 -1.63649 0
M  V30 3324 H 307.587 -4.47813 1.08627 0
M  V30 3325 H 305.902 -4.08102 0.827158 0
M  V30 3326 H 308.499 -5.04086 -1.78328 0
M  V30 3327 H 308.842 -3.42875 -2.36099 0
M  V30 3328 H 309.375 -3.9101 -0.731836 0
M  V30 3329 H 306.114 -6.51097 0.758514 0
M  V30 3330 H 305.634 -5.93676 -0.854941 0
M  V30 3331 H 307.313 -6.44663 -0.549448 0
M  V30 3332 N 307.445 0.0818655 -1.57387 0
M  V30 3333 C 308.673 0.796108 -1.9097 0
M  V30 3334 C 309.088 1.71626 -0.786757 0
M  V30 3335 O 308.445 1.80908 0.240513 0
M  V30 3336 C 308.496 1.59829 -3.24248 0
M  V30 3337 O 308.217 0.715131 -4.32224 0
M  V30 3338 C 309.718 2.41442 -3.7178 0
M  V30 3339 H 306.938 0.22691 -0.631469 0
M  V30 3340 H 309.482 0.0551439 -2.04426 0
M  V30 3341 H 307.637 2.29163 -3.12351 0
M  V30 3342 H 308.051 1.27205 -5.08841 0
M  V30 3343 H 309.525 2.932 -4.67694 0
M  V30 3344 H 310.002 3.2051 -3.00283 0
M  V30 3345 H 310.608 1.77283 -3.86589 0
M  V30 3346 N 308.923 1.53595 0.353017 0
M  V30 3347 C 310.153 1.74058 1.11299 0
M  V30 3348 C 310.561 0.475205 1.83135 0
M  V30 3349 O 309.904 -0.562344 1.74881 0
M  V30 3350 C 309.966 2.85994 2.17825 0
M  V30 3351 C 309.63 4.25923 1.65647 0
M  V30 3352 C 310.627 5.07829 1.11383 0
M  V30 3353 C 308.312 4.72377 1.7078 0
M  V30 3354 C 310.306 6.34285 0.629439 0
M  V30 3355 C 307.993 5.98808 1.21953 0
M  V30 3356 C 308.991 6.79594 0.681265 0
M  V30 3357 O 308.679 8.03651 0.200248 0
M  V30 3358 H 308.411 0.585327 0.338183 0
M  V30 3359 H 310.965 2.01186 0.413927 0
M  V30 3360 H 309.195 2.54368 2.91262 0
M  V30 3361 H 310.884 2.94515 2.79313 0
M  V30 3362 H 311.65 4.73107 1.06746 0
M  V30 3363 H 307.529 4.0956 2.11617 0
M  V30 3364 H 311.073 6.97288 0.208636 0
M  V30 3365 H 306.97 6.33026 1.26287 0
M  V30 3366 H 307.738 8.1788 0.318416 0
M  V30 3367 N 310.401 -0.613514 1.45168 0
M  V30 3368 C 311.65 -1.36874 1.4815 0
M  V30 3369 C 311.963 -1.952 0.124982 0
M  V30 3370 O 313.169 -2.71481 0.0324176 0
M  V30 3371 C 311.625 -2.47905 2.60904 0
M  V30 3372 C 311.233 -1.96016 4.02842 0
M  V30 3373 C 312.977 -3.24965 2.73126 0
M  V30 3374 C 310.884 -3.04494 5.06988 0
M  V30 3375 H 309.814 -0.514428 0.551253 0
M  V30 3376 H 312.465 -0.658182 1.7129 0
M  V30 3377 H 310.847 -3.21618 2.31037 0
M  V30 3378 H 312.021 -1.29051 4.4236 0
M  V30 3379 H 310.336 -1.31719 3.95018 0
M  V30 3380 H 312.933 -4.05865 3.48106 0
M  V30 3381 H 313.276 -3.75588 1.79553 0
M  V30 3382 H 313.809 -2.5835 3.0249 0
M  V30 3383 H 310.548 -2.58795 6.0225 0
M  V30 3384 H 310.068 -3.70044 4.72046 0
M  V30 3385 H 311.747 -3.68976 5.31475 0
M  V30 3386 N 311.879 -1.3236 -0.855495 0
M  V30 3387 C 312.809 -1.23833 -1.97958 0
M  V30 3388 C 313.79 -0.122361 -1.69659 0
M  V30 3389 O 314.975 -0.30939 -1.9172 0
M  V30 3390 C 312.105 -0.959772 -3.33775 0
M  V30 3391 C 311.059 -2.03689 -3.76424 0
M  V30 3392 C 310.385 -1.61075 -5.09862 0
M  V30 3393 C 311.685 -3.4518 -3.9198 0
M  V30 3394 H 313.379 -2.1788 -2.0535 0
M  V30 3395 H 310.925 -1.04891 -0.986605 0
M  V30 3396 H 312.878 -0.886678 -4.11966 0
M  V30 3397 H 311.602 0.0163404 -3.26596 0
M  V30 3398 H 310.261 -2.10012 -3.00484 0
M  V30 3399 H 309.909 -0.622107 -4.99138 0
M  V30 3400 H 309.609 -2.33143 -5.39368 0
M  V30 3401 H 311.133 -1.55201 -5.90546 0
M  V30 3402 H 312.547 -3.4145 -4.60526 0
M  V30 3403 H 310.944 -4.1559 -4.32903 0
M  V30 3404 H 312.014 -3.84903 -2.94919 0
M  V30 3405 N 313.357 1.07166 -1.15556 0
M  V30 3406 C 314.287 2.16403 -0.877046 0
M  V30 3407 C 315.268 1.69217 0.173111 0
M  V30 3408 O 316.453 1.94181 0.027084 0
M  V30 3409 C 313.583 3.45349 -0.367632 0
M  V30 3410 C 312.537 4.05995 -1.35468 0
M  V30 3411 C 311.863 5.30045 -0.704038 0
M  V30 3412 C 313.163 4.45804 -2.72132 0
M  V30 3413 H 314.857 2.39959 -1.79053 0
M  V30 3414 H 312.403 1.15325 -0.862331 0
M  V30 3415 H 314.356 4.21095 -0.160317 0
M  V30 3416 H 313.08 3.21385 0.581326 0
M  V30 3417 H 311.739 3.32296 -1.54839 0
M  V30 3418 H 311.387 5.02373 0.251128 0
M  V30 3419 H 311.087 5.71579 -1.36277 0
M  V30 3420 H 312.611 6.08495 -0.50654 0
M  V30 3421 H 314.025 5.12671 -2.56595 0
M  V30 3422 H 312.422 4.98296 -3.34397 0
M  V30 3423 H 313.492 3.57083 -3.28054 0
M  V30 3424 N 314.835 0.952656 1.25548 0
M  V30 3425 C 316.075 0.614013 1.9496 0
M  V30 3426 C 316.439 -0.833215 1.72978 0
M  V30 3427 O 317.64 -1.28135 2.36294 0
M  V30 3428 C 315.911 0.960562 3.4425 0
M  V30 3429 S 317.47 0.734195 4.32614 0
M  V30 3430 H 314.288 0.225754 0.674208 0
M  V30 3431 H 316.89 1.22641 1.52248 0
M  V30 3432 H 315.594 2.01103 3.57751 0
M  V30 3433 H 315.125 0.338336 3.91942 0
M  V30 3434 H 317.14 -0.395995 4.94617 0
M  V30 3435 N 316.313 -1.40141 0.720998 0
M  V30 3436 C 317.561 -2.0039 0.262323 0
M  V30 3437 C 317.882 -1.57469 -1.15015 0
M  V30 3438 O 317.152 -0.816582 -1.78069 0
M  V30 3439 H 315.732 -0.741063 0.093996 0
M  V30 3440 H 318.394 -1.71398 0.927835 0
M  V30 3441 H 317.49 -3.10658 0.299671 0
M  V30 3442 N 317.792 -0.46758 -1.50504 0
M  V30 3443 C 319.022 0.086288 -2.0642 0
M  V30 3444 C 319.43 1.34369 -1.33197 0
M  V30 3445 O 318.773 1.79431 -0.393747 0
M  V30 3446 C 318.835 0.443846 -3.5675 0
M  V30 3447 C 318.499 -0.711035 -4.51435 0
M  V30 3448 C 319.496 -1.59205 -4.94924 0
M  V30 3449 C 317.181 -0.900363 -4.94165 0
M  V30 3450 C 319.175 -2.64683 -5.79846 0
M  V30 3451 C 316.862 -1.95837 -5.7887 0
M  V30 3452 C 317.86 -2.82997 -6.21612 0
M  V30 3453 O 317.548 -3.86977 -7.0463 0
M  V30 3454 H 317.28 -0.00217814 -0.675996 0
M  V30 3455 H 319.834 -0.654346 -1.94698 0
M  V30 3456 H 318.064 1.23762 -3.6636 0
M  V30 3457 H 319.753 0.932386 -3.95046 0
M  V30 3458 H 320.519 -1.45745 -4.62583 0
M  V30 3459 H 316.398 -0.231427 -4.60419 0
M  V30 3460 H 319.942 -3.32745 -6.13128 0
M  V30 3461 H 315.839 -2.09305 -6.10624 0
M  V30 3462 H 316.607 -3.83923 -7.22873 0
M  V30 3463 N 319.27 1.56325 -0.20005 0
M  V30 3464 C 320.681 1.8408 0.31167 0
M  V30 3465 C 321.032 1.12087 1.61031 0
M  V30 3466 O 320.157 0.38332 2.12978 0
M  V30 3467 C 320.752 3.33932 0.57226 0
M  V30 3468 C 319.311 3.6208 1.02834 0
M  V30 3469 C 318.458 2.77186 0.079634 0
M  V30 3470 H 321.409 1.52939 -0.423729 0
M  V30 3471 H 321.43 3.52971 1.42096 0
M  V30 3472 H 320.942 3.86303 -0.37308 0
M  V30 3473 H 319.043 3.15147 1.98778 0
M  V30 3474 H 319.156 4.7023 0.917624 0
M  V30 3475 H 317.52 2.47951 0.582448 0
M  V30 3476 H 318.303 3.32347 -0.860238 0
M  V30 3477 N 320.748 -0.0735177 1.57428 0
M  V30 3478 C 322.159 -0.625551 1.75908 0
M  V30 3479 C 322.51 -1.78 0.825261 0
M  V30 3480 O 321.635 -2.16398 0.00893964 0
M  V30 3481 C 322.23 -1.14155 3.18989 0
M  V30 3482 C 320.789 -1.63946 3.38819 0
M  V30 3483 C 319.936 -0.558151 2.71625 0
M  V30 3484 H 322.887 0.152647 1.57964 0
M  V30 3485 H 322.908 -2.0104 3.23053 0
M  V30 3486 H 322.42 -0.301116 3.8693 0
M  V30 3487 H 320.521 -2.50321 2.7599 0
M  V30 3488 H 320.634 -1.71759 4.47253 0
M  V30 3489 H 318.998 -1.00278 2.34129 0
M  V30 3490 H 319.781 0.272071 3.4222 0
M  V30 3491 N 322.226 -1.5378 -0.344866 0
M  V30 3492 C 323.473 -1.70963 -1.08526 0
M  V30 3493 C 323.801 -0.472126 -1.88683 0
M  V30 3494 O 323.056 0.546116 -1.87926 0
M  V30 3495 C 323.355 -2.92407 -2.05506 0
M  V30 3496 C 323.021 -4.28066 -1.41671 0
M  V30 3497 C 321.683 -4.64951 -1.2399 0
M  V30 3498 C 324.035 -5.12344 -0.956726 0
M  V30 3499 C 321.363 -5.83733 -0.589277 0
M  V30 3500 C 323.715 -6.3179 -0.320015 0
M  V30 3501 C 322.379 -6.67372 -0.130881 0
M  V30 3502 H 321.649 -0.625598 -0.397124 0
M  V30 3503 H 324.296 -1.87995 -0.36469 0
M  V30 3504 H 322.601 -2.69973 -2.8394 0
M  V30 3505 H 324.298 -3.02895 -2.62784 0
M  V30 3506 H 320.888 -3.99034 -1.56429 0
M  V30 3507 H 325.072 -4.8438 -1.08118 0
M  V30 3508 H 320.328 -6.09877 -0.431344 0
M  V30 3509 H 324.502 -6.96386 0.0445072 0
M  V30 3510 H 322.129 -7.59273 0.375318 0
M  V30 3511 N 323.704 0.605807 -1.45491 0
M  V30 3512 C 324.934 1.38934 -1.52908 0
M  V30 3513 C 325.342 1.88513 -0.161086 0
M  V30 3514 O 324.685 1.62962 0.847891 0
M  V30 3515 C 324.747 2.62737 -2.45376 0
M  V30 3516 C 324.411 2.34785 -3.92078 0
M  V30 3517 C 325.408 1.95038 -4.8193 0
M  V30 3518 C 323.093 2.47642 -4.37011 0
M  V30 3519 C 325.087 1.68511 -6.14722 0
M  V30 3520 C 322.774 2.20728 -5.69844 0
M  V30 3521 C 323.772 1.81225 -6.58519 0
M  V30 3522 O 323.46 1.54627 -7.88889 0
M  V30 3523 H 323.192 0.431629 -0.520262 0
M  V30 3524 H 325.746 0.74573 -1.91384 0
M  V30 3525 H 323.976 3.29824 -2.01874 0
M  V30 3526 H 325.665 3.24783 -2.43456 0
M  V30 3527 H 326.431 1.84639 -4.48479 0
M  V30 3528 H 322.31 2.77356 -3.68232 0
M  V30 3529 H 325.854 1.37602 -6.83894 0
M  V30 3530 H 321.751 2.30744 -6.02849 0
M  V30 3531 H 322.519 1.68665 -8.00933 0
M  V30 3532 N 325.182 1.32811 0.848464 0
M  V30 3533 C 326.092 1.24278 1.98978 0
M  V30 3534 C 327.108 0.155176 1.73307 0
M  V30 3535 O 328.284 0.376999 1.9784 0
M  V30 3536 C 325.349 0.972444 3.32783 0
M  V30 3537 C 324.41 2.14911 3.71634 0
M  V30 3538 C 323.643 1.89157 4.99054 0
M  V30 3539 O 323.866 0.837165 5.64223 0
M  V30 3540 O 322.8 2.75433 5.35183 0
M  V30 3541 H 326.626 2.20238 2.09115 0
M  V30 3542 H 324.211 1.12762 0.980052 0
M  V30 3543 H 326.093 0.838432 4.12975 0
M  V30 3544 H 324.768 0.043051 3.23671 0
M  V30 3545 H 323.675 2.33862 2.91992 0
M  V30 3546 H 325.008 3.06151 3.85399 0
M  V30 3547 N 326.66 -1.06551 1.16123 0
M  V30 3548 C 327.57 -2.17484 0.879662 0
M  V30 3549 C 328.586 -1.73377 -0.147104 0
M  V30 3550 O 329.762 -2.01379 0.0289128 0
M  V30 3551 C 326.827 -3.44591 0.381829 0
M  V30 3552 C 325.888 -4.0322 1.4735 0
M  V30 3553 C 325.121 -5.24261 0.999324 0
M  V30 3554 O 325.344 -5.70198 -0.151957 0
M  V30 3555 O 324.278 -5.74775 1.78653 0
M  V30 3556 H 328.104 -2.44075 1.80724 0
M  V30 3557 H 325.689 -1.16042 0.940992 0
M  V30 3558 H 327.571 -4.21254 0.111053 0
M  V30 3559 H 326.246 -3.19532 -0.51777 0
M  V30 3560 H 325.153 -3.2806 1.79798 0
M  V30 3561 H 326.486 -4.32568 2.34831 0
M  V30 3562 N 328.138 -0.959301 -1.25041 0
M  V30 3563 C 329.366 -0.633949 -1.96948 0
M  V30 3564 C 329.781 0.794916 -1.7125 0
M  V30 3565 O 329.138 1.53231 -0.991287 0
M  V30 3566 C 329.189 -0.888805 -3.50403 0
M  V30 3567 O 328.91 -2.26149 -3.75218 0
M  V30 3568 C 330.411 -0.576482 -4.39536 0
M  V30 3569 H 327.631 -0.237263 -0.627652 0
M  V30 3570 H 330.175 -1.28495 -1.59089 0
M  V30 3571 H 328.33 -0.284145 -3.86357 0
M  V30 3572 H 328.744 -2.33514 -4.6965 0
M  V30 3573 H 330.218 -0.805314 -5.46094 0
M  V30 3574 H 330.695 0.489075 -4.36468 0
M  V30 3575 H 331.301 -1.16067 -4.09156 0
M  V30 3576 N 329.616 1.39756 -0.72842 0
M  V30 3577 C 330.526 2.34444 -0.0855374 0
M  V30 3578 C 331.542 1.57976 0.729356 0
M  V30 3579 O 332.718 1.90301 0.659346 0
M  V30 3580 C 329.783 3.36965 0.815798 0
M  V30 3581 C 328.844 4.29299 -0.0105996 0
M  V30 3582 C 328.077 5.26923 0.84781 0
M  V30 3583 O 328.3 5.30859 2.08673 0
M  V30 3584 O 327.234 6.01249 0.279969 0
M  V30 3585 H 331.06 2.91065 -0.866892 0
M  V30 3586 H 328.645 1.4117 -0.48902 0
M  V30 3587 H 330.527 3.99804 1.33171 0
M  V30 3588 H 329.202 2.82739 1.57608 0
M  V30 3589 H 328.109 3.69703 -0.571877 0
M  V30 3590 H 329.442 4.86712 -0.73295 0
M  V30 3591 N 331.094 0.475555 1.50254 0
M  V30 3592 C 332.319 -0.0777042 2.07254 0
M  V30 3593 C 332.744 -1.3235 1.3366 0
M  V30 3594 O 332.102 -1.77152 0.385597 0
M  V30 3595 C 332.15 -0.340169 3.58992 0
M  V30 3596 O 331.254 -1.41982 3.87188 0
M  V30 3597 H 330.595 0.0149556 0.663832 0
M  V30 3598 H 333.125 0.667878 1.93392 0
M  V30 3599 H 333.135 -0.579332 4.03866 0
M  V30 3600 H 331.81 0.570167 4.11973 0
M  V30 3601 H 330.387 -1.16762 3.54148 0
M  V30 3602 N 332.573 -1.56217 0.208337 0
M  V30 3603 C 333.52 -2.19699 -0.707192 0
M  V30 3604 C 334.49 -1.14836 -1.20008 0
M  V30 3605 O 335.675 -1.4314 -1.26157 0
M  V30 3606 C 332.815 -2.87061 -1.91546 0
M  V30 3607 C 331.928 -4.06483 -1.46271 0
M  V30 3608 C 331.063 -4.61665 -2.62752 0
M  V30 3609 C 330.102 -5.73417 -2.14147 0
M  V30 3610 N 329.239 -6.22948 -3.23853 0
M  V30 3611 H 334.079 -2.97575 -0.159111 0
M  V30 3612 H 331.616 -1.46948 -0.0667874 0
M  V30 3613 H 333.574 -3.24294 -2.62468 0
M  V30 3614 H 332.204 -2.11725 -2.43664 0
M  V30 3615 H 331.256 -3.74825 -0.648886 0
M  V30 3616 H 332.568 -4.87271 -1.06622 0
M  V30 3617 H 331.722 -5.01272 -3.41776 0
M  V30 3618 H 330.461 -3.80013 -3.05682 0
M  V30 3619 H 329.466 -5.33326 -1.33581 0
M  V30 3620 H 330.691 -6.56897 -1.72232 0
M  V30 3621 H 328.637 -5.44213 -3.6629 0
M  V30 3622 H 328.554 -6.98823 -2.88414 0
M  V30 3623 H 329.822 -6.6721 -4.03052 0
M  V30 3624 N 334.051 0.0651679 -1.57465 0
M  V30 3625 C 334.981 1.07693 -2.07182 0
M  V30 3626 C 335.962 1.39962 -0.966673 0
M  V30 3627 O 337.147 1.49475 -1.2398 0
M  V30 3628 C 334.277 2.3885 -2.52127 0
M  V30 3629 C 333.231 2.20917 -3.66579 0
M  V30 3630 C 332.557 3.57515 -3.97601 0
M  V30 3631 C 333.857 1.62493 -4.9638 0
M  V30 3632 H 335.551 0.663199 -2.91962 0
M  V30 3633 H 333.097 0.317569 -1.40455 0
M  V30 3634 H 335.05 3.09928 -2.85522 0
M  V30 3635 H 333.774 2.82215 -1.64384 0
M  V30 3636 H 332.433 1.52279 -3.33477 0
M  V30 3637 H 332.081 3.98463 -3.06979 0
M  V30 3638 H 331.781 3.46353 -4.74672 0
M  V30 3639 H 333.305 4.30013 -4.33499 0
M  V30 3640 H 334.719 2.23445 -5.27963 0
M  V30 3641 H 333.116 1.62009 -5.77818 0
M  V30 3642 H 334.186 0.587041 -4.81333 0
M  V30 3643 N 335.529 1.53961 0.336706 0
M  V30 3644 C 336.776 1.71536 1.07618 0
M  V30 3645 C 337.104 0.482125 1.8843 0
M  V30 3646 O 336.359 -0.536142 1.88213 0
M  V30 3647 C 336.658 2.93493 2.03953 0
M  V30 3648 C 336.324 4.28811 1.39399 0
M  V30 3649 C 334.986 4.65602 1.21523 0
M  V30 3650 C 337.338 5.12844 0.929541 0
M  V30 3651 C 334.666 5.84037 0.558312 0
M  V30 3652 C 337.018 6.31951 0.286505 0
M  V30 3653 C 335.682 6.67432 0.0954869 0
M  V30 3654 H 334.952 0.627696 0.393801 0
M  V30 3655 H 337.599 1.88186 0.354715 0
M  V30 3656 H 335.904 2.71475 2.82504 0
M  V30 3657 H 337.601 3.04285 2.61174 0
M  V30 3658 H 334.191 3.99858 1.54311 0
M  V30 3659 H 338.375 4.84947 1.05548 0
M  V30 3660 H 333.631 6.10097 0.398995 0
M  V30 3661 H 337.805 6.96352 -0.0814376 0
M  V30 3662 H 335.432 7.59063 -0.415579 0
M  V30 3663 N 337.007 -0.598083 1.45811 0
M  V30 3664 C 337.917 -1.73632 1.57763 0
M  V30 3665 C 338.933 -1.67763 0.461676 0
M  V30 3666 O 340.109 -1.87949 0.723685 0
M  V30 3667 C 337.174 -3.10114 1.55018 0
M  V30 3668 C 336.235 -3.27364 2.77726 0
M  V30 3669 C 335.468 -4.57334 2.75102 0
M  V30 3670 O 335.691 -5.40258 1.8297 0
M  V30 3671 O 334.625 -4.77502 3.66437 0
M  V30 3672 H 338.451 -1.66498 2.53992 0
M  V30 3673 H 336.036 -0.763308 1.28429 0
M  V30 3674 H 337.918 -3.9141 1.56129 0
M  V30 3675 H 336.593 -3.17718 0.619431 0
M  V30 3676 H 335.5 -2.45619 2.82174 0
M  V30 3677 H 336.833 -3.24641 3.69958 0
M  V30 3678 N 338.485 -1.33259 -0.841409 0
M  V30 3679 C 339.432 -1.23302 -1.95103 0
M  V30 3680 C 340.402 -0.112204 -1.65721 0
M  V30 3681 O 341.587 -0.290038 -1.88583 0
M  V30 3682 C 338.727 -0.975583 -3.31023 0
M  V30 3683 C 337.84 -2.18243 -3.72819 0
M  V30 3684 C 336.975 -1.85936 -4.97595 0
M  V30 3685 C 336.014 -3.02866 -5.3192 0
M  V30 3686 N 335.151 -2.70565 -6.47873 0
M  V30 3687 H 339.991 -2.18207 -2.02952 0
M  V30 3688 H 337.528 -1.0851 -0.993173 0
M  V30 3689 H 339.486 -0.80677 -4.09325 0
M  V30 3690 H 338.116 -0.0632755 -3.22738 0
M  V30 3691 H 337.168 -2.46107 -2.90061 0
M  V30 3692 H 338.48 -3.05666 -3.94169 0
M  V30 3693 H 337.634 -1.65684 -5.83638 0
M  V30 3694 H 336.373 -0.957452 -4.78209 0
M  V30 3695 H 335.378 -3.23736 -4.44382 0
M  V30 3696 H 336.603 -3.93809 -5.53255 0
M  V30 3697 H 334.549 -1.8293 -6.29978 0
M  V30 3698 H 334.466 -3.51519 -6.69306 0
M  V30 3699 H 335.734 -2.53774 -7.37034 0
M  V30 3700 N 339.963 1.05934 -1.16686 0
M  V30 3701 C 341.212 1.78188 -0.945085 0
M  V30 3702 C 341.525 1.88338 0.528021 0
M  V30 3703 O 342.731 2.57258 0.867799 0
M  V30 3704 C 341.187 3.20277 -1.64167 0
M  V30 3705 C 340.795 3.18281 -3.15279 0
M  V30 3706 C 342.539 3.97039 -1.502 0
M  V30 3707 C 340.446 4.55112 -3.7766 0
M  V30 3708 H 339.376 0.667866 -0.349959 0
M  V30 3709 H 342.027 1.18794 -1.39858 0
M  V30 3710 H 340.409 3.79952 -1.11589 0
M  V30 3711 H 341.583 2.68167 -3.74731 0
M  V30 3712 H 339.898 2.55018 -3.29173 0
M  V30 3713 H 342.495 4.98194 -1.94183 0
M  V30 3714 H 342.838 4.13845 -0.451461 0
M  V30 3715 H 343.371 3.43894 -1.99954 0
M  V30 3716 H 340.11 4.43512 -4.82677 0
M  V30 3717 H 339.63 5.05406 -3.22994 0
M  V30 3718 H 341.309 5.24064 -3.79428 0
M  V30 3719 N 341.441 0.965919 1.2453 0
M  V30 3720 C 342.388 0.49402 2.25451 0
M  V30 3721 C 343.358 -0.45948 1.59618 0
M  V30 3722 O 344.543 -0.370238 1.87173 0
M  V30 3723 C 341.683 -0.211359 3.44452 0
M  V30 3724 C 340.796 0.7807 4.24887 0
M  V30 3725 C 339.931 0.0516105 5.31175 0
M  V30 3726 C 338.97 1.03385 6.03306 0
M  V30 3727 N 338.107 0.334887 7.01301 0
M  V30 3728 H 342.947 1.35946 2.65184 0
M  V30 3729 H 340.484 0.681515 1.3036 0
M  V30 3730 H 342.442 -0.637 4.12308 0
M  V30 3731 H 341.072 -1.04077 3.05562 0
M  V30 3732 H 340.124 1.32479 3.56586 0
M  V30 3733 H 341.436 1.52978 4.74762 0
M  V30 3734 H 340.59 -0.432114 6.05159 0
M  V30 3735 H 339.329 -0.730179 4.82203 0
M  V30 3736 H 338.334 1.52847 5.28127 0
M  V30 3737 H 339.559 1.81606 6.54367 0
M  V30 3738 H 337.505 -0.427959 6.54603 0
M  V30 3739 H 337.422 1.02287 7.49048 0
M  V30 3740 H 338.69 -0.126928 7.79397 0
M  V30 3741 N 342.919 -1.39368 0.735821 0
M  V30 3742 C 343.829 -2.34395 0.0979693 0
M  V30 3743 C 344.845 -1.58361 -0.720968 0
M  V30 3744 O 346.021 -1.90648 -0.649245 0
M  V30 3745 C 343.086 -3.37393 -0.797916 0
M  V30 3746 C 342.147 -4.29287 0.0333662 0
M  V30 3747 C 341.38 -5.27365 -0.819854 0
M  V30 3748 O 341.603 -5.31959 -2.05855 0
M  V30 3749 O 340.537 -6.01389 -0.248079 0
M  V30 3750 H 344.363 -2.90601 0.882315 0
M  V30 3751 H 341.948 -1.40909 0.4965 0
M  V30 3752 H 343.83 -4.00505 -1.31048 0
M  V30 3753 H 342.505 -2.83571 -1.56106 0
M  V30 3754 H 341.412 -3.69395 0.591475 0
M  V30 3755 H 342.745 -4.86317 0.758752 0
M  V30 3756 N 344.397 -0.483516 -1.5 0
M  V30 3757 C 345.645 0.067027 -2.01989 0
M  V30 3758 C 345.966 1.3909 -1.36671 0
M  V30 3759 O 345.236 1.88978 -0.516152 0
M  V30 3760 H 343.816 0.0277606 -0.746484 0
M  V30 3761 H 346.478 -0.636773 -1.84204 0
M  V30 3762 H 345.574 0.209484 -3.11396 0
M  V30 3763 N 345.875 1.56104 -0.216619 0
M  V30 3764 C 347.105 2.02269 0.420802 0
M  V30 3765 C 347.513 1.09575 1.5424 0
M  V30 3766 O 346.856 0.0967308 1.83445 0
M  V30 3767 C 346.918 3.44784 1.01806 0
M  V30 3768 C 346.582 4.56988 0.0325154 0
M  V30 3769 C 347.579 5.14225 -0.766055 0
M  V30 3770 C 345.264 5.02228 -0.0848092 0
M  V30 3771 C 347.258 6.15169 -1.6687 0
M  V30 3772 C 344.945 6.03011 -0.990994 0
M  V30 3773 C 345.943 6.59357 -1.78149 0
M  V30 3774 O 345.631 7.58179 -2.67245 0
M  V30 3775 H 345.363 0.667353 0.107776 0
M  V30 3776 H 347.917 2.02747 -0.329034 0
M  V30 3777 H 346.147 3.41359 1.81689 0
M  V30 3778 H 347.836 3.74626 1.56237 0
M  V30 3779 H 348.602 4.80126 -0.685836 0
M  V30 3780 H 344.481 4.58054 0.520349 0
M  V30 3781 H 348.025 6.59076 -2.28615 0
M  V30 3782 H 343.922 6.36532 -1.07225 0
M  V30 3783 H 344.69 7.75682 -2.61265 0
M  V30 3784 N 347.353 -0.0568162 1.57498 0
M  V30 3785 C 348.583 -0.764515 1.91934 0
M  V30 3786 C 348.991 -1.70877 0.81227 0
M  V30 3787 O 348.334 -1.82351 -0.222213 0
M  V30 3788 C 348.396 -1.5994 3.21962 0
M  V30 3789 C 348.06 -0.822925 4.4953 0
M  V30 3790 C 349.057 -0.135464 5.19723 0
M  V30 3791 C 346.742 -0.785666 4.96117 0
M  V30 3792 C 348.736 0.578861 6.34766 0
M  V30 3793 C 346.423 -0.0675784 6.11063 0
M  V30 3794 C 347.421 0.613471 6.80239 0
M  V30 3795 O 347.109 1.31996 7.92989 0
M  V30 3796 H 346.841 -0.221647 0.63863 0
M  V30 3797 H 349.395 -0.0268218 2.05382 0
M  V30 3798 H 347.625 -2.38026 3.04763 0
M  V30 3799 H 349.314 -2.18715 3.41934 0
M  V30 3800 H 350.08 -0.155458 4.84751 0
M  V30 3801 H 345.959 -1.30524 4.42136 0
M  V30 3802 H 349.503 1.111 6.88696 0
M  V30 3803 H 345.4 -0.0455636 6.45484 0
M  V30 3804 H 346.168 1.23077 8.09194 0
M  V30 3805 N 348.832 -1.54138 -0.328536 0
M  V30 3806 C 349.742 -1.86192 -1.42723 0
M  V30 3807 C 350.758 -0.753382 -1.56844 0
M  V30 3808 O 351.934 -1.04718 -1.72035 0
M  V30 3809 C 348.999 -2.07824 -2.77507 0
M  V30 3810 C 348.06 -3.31641 -2.72603 0
M  V30 3811 C 347.293 -3.52232 -4.00959 0
M  V30 3812 O 347.516 -2.7636 -4.9898 0
M  V30 3813 O 346.45 -4.45699 -4.0452 0
M  V30 3814 H 350.276 -2.79608 -1.18547 0
M  V30 3815 H 347.861 -1.3998 -0.522104 0
M  V30 3816 H 349.743 -2.23411 -3.57303 0
M  V30 3817 H 348.418 -1.17596 -3.01584 0
M  V30 3818 H 347.325 -3.21444 -1.91376 0
M  V30 3819 H 348.658 -4.2191 -2.53481 0
M  V30 3820 N 350.31 0.590341 -1.46126 0
M  V30 3821 C 351.557 1.34882 -1.5104 0
M  V30 3822 C 351.885 1.93849 -0.159021 0
M  V30 3823 O 351.14 1.76544 0.844436 0
M  V30 3824 C 351.439 2.5032 -2.55097 0
M  V30 3825 C 351.105 2.09394 -3.99331 0
M  V30 3826 C 349.767 1.97947 -4.38601 0
M  V30 3827 C 352.119 1.77712 -4.89967 0
M  V30 3828 C 349.447 1.53065 -5.66381 0
M  V30 3829 C 351.799 1.34312 -6.18177 0
M  V30 3830 C 350.463 1.21436 -6.56361 0
M  V30 3831 H 349.733 0.493568 -0.552695 0
M  V30 3832 H 352.38 0.665539 -1.79563 0
M  V30 3833 H 350.685 3.24062 -2.20207 0
M  V30 3834 H 352.382 3.08541 -2.56132 0
M  V30 3835 H 348.972 2.19235 -3.68285 0
M  V30 3836 H 353.156 1.85445 -4.60352 0
M  V30 3837 H 348.412 1.41733 -5.94745 0
M  V30 3838 H 352.586 1.08849 -6.87841 0
M  V30 3839 H 350.213 0.864345 -7.5527 0
M  V30 3840 N 351.788 1.33704 0.83433 0
M  V30 3841 C 352.698 1.26382 1.97648 0
M  V30 3842 C 353.714 0.173548 1.73132 0
M  V30 3843 O 354.89 0.397962 1.97429 0
M  V30 3844 C 351.955 1.00769 3.31733 0
M  V30 3845 C 351.016 2.1884 3.69334 0
M  V30 3846 C 350.249 1.9444 4.9702 0
M  V30 3847 O 350.472 0.896961 5.63303 0
M  V30 3848 O 349.406 2.81093 5.32231 0
M  V30 3849 H 353.232 2.22444 2.06767 0
M  V30 3850 H 350.817 1.13795 0.968037 0
M  V30 3851 H 352.699 0.882186 4.12062 0
M  V30 3852 H 351.374 0.0773783 3.23608 0
M  V30 3853 H 350.281 2.36946 2.89495 0
M  V30 3854 H 351.614 3.10221 3.82131 0
M  V30 3855 N 353.266 -1.05314 1.17247 0
M  V30 3856 C 354.491 -1.82509 0.985148 0
M  V30 3857 C 354.916 -1.82343 -0.461788 0
M  V30 3858 O 354.274 -1.23151 -1.33055 0
M  V30 3859 C 354.322 -3.26566 1.52929 0
M  V30 3860 O 353.426 -4.05666 0.742225 0
M  V30 3861 H 352.767 -0.564347 0.349869 0
M  V30 3862 H 355.297 -1.32718 1.55715 0
M  V30 3863 H 355.307 -3.77369 1.55103 0
M  V30 3864 H 353.982 -3.26001 2.58256 0
M  V30 3865 H 352.559 -3.64397 0.791794 0
M  V30 3866 N 354.744 -0.972509 -1.24016 0
M  V30 3867 C 356.155 -0.67517 -1.74064 0
M  V30 3868 C 356.506 0.808939 -1.78747 0
M  V30 3869 O 355.631 1.63286 -1.42009 0
M  V30 3870 C 356.226 -1.21889 -3.16115 0
M  V30 3871 C 354.785 -0.971358 -3.6365 0
M  V30 3872 C 353.932 -1.35134 -2.42145 0
M  V30 3873 H 356.883 -1.14727 -1.09651 0
M  V30 3874 H 356.904 -0.587489 -3.75937 0
M  V30 3875 H 356.416 -2.29906 -3.12674 0
M  V30 3876 H 354.517 0.0930686 -3.72484 0
M  V30 3877 H 354.63 -1.62039 -4.50866 0
M  V30 3878 H 352.994 -0.769751 -2.4279 0
M  V30 3879 H 353.777 -2.4411 -2.41381 0
M  V30 3880 N 356.222 1.38976 -0.743202 0
M  V30 3881 C 357.469 2.00343 -0.294752 0
M  V30 3882 C 357.797 1.58983 1.12047 0
M  V30 3883 O 357.052 0.813809 1.77977 0
M  V30 3884 C 357.351 3.55647 -0.353517 0
M  V30 3885 C 357.017 4.16685 -1.72292 0
M  V30 3886 C 355.679 4.3307 -2.09771 0
M  V30 3887 C 358.031 4.50464 -2.62168 0
M  V30 3888 C 355.359 4.80526 -3.36618 0
M  V30 3889 C 357.711 4.99332 -3.88395 0
M  V30 3890 C 356.375 5.13924 -4.25956 0
M  V30 3891 H 355.645 0.733108 -0.107857 0
M  V30 3892 H 358.292 1.6618 -0.951651 0
M  V30 3893 H 356.597 3.89884 0.386954 0
M  V30 3894 H 358.294 4.00998 0.0117269 0
M  V30 3895 H 354.884 4.04339 -1.42155 0
M  V30 3896 H 359.068 4.37416 -2.3448 0
M  V30 3897 H 354.324 4.90008 -3.65653 0
M  V30 3898 H 358.498 5.2444 -4.58187 0
M  V30 3899 H 356.125 5.50457 -5.2431 0
M  V30 3900 N 357.7 0.491464 1.49741 0
M  V30 3901 C 358.946 -0.0485431 2.03342 0
M  V30 3902 C 359.301 -1.35566 1.36527 0
M  V30 3903 O 358.594 -1.85262 0.488729 0
M  V30 3904 C 358.788 -0.267329 3.56399 0
M  V30 3905 C 358.617 1.01703 4.38049 0
M  V30 3906 C 357.387 1.56614 4.80417 0
M  V30 3907 C 359.585 1.91782 4.77204 0
M  V30 3908 N 357.567 2.7974 5.4646 0
M  V30 3909 C 358.938 2.99489 5.42868 0
M  V30 3910 C 360.993 1.92575 4.5915 0
M  V30 3911 C 359.696 4.08005 5.92389 0
M  V30 3912 C 361.722 3.0006 5.09626 0
M  V30 3913 C 361.084 4.06485 5.75282 0
M  V30 3914 H 357.183 0.0227779 0.781668 0
M  V30 3915 H 359.767 0.664204 1.8302 0
M  V30 3916 H 357.938 -0.949126 3.76625 0
M  V30 3917 H 359.67 -0.803492 3.96644 0
M  V30 3918 H 356.425 1.11256 4.60347 0
M  V30 3919 H 356.849 3.42323 5.84075 0
M  V30 3920 H 361.491 1.11605 4.07804 0
M  V30 3921 H 359.209 4.89779 6.42761 0
M  V30 3922 H 362.795 3.01681 4.97473 0
M  V30 3923 H 361.675 4.88287 6.13633 0
M  V30 3924 N 359.178 -1.55987 0.224894 0
M  V30 3925 C 360.455 -1.90232 -0.455083 0
M  V30 3926 C 360.835 -1.14269 -1.77499 0
M  V30 3927 O 360.183 -0.253079 -2.27094 0
M  V30 3928 C 360.393 -3.42993 -0.644758 0
M  V30 3929 C 361.741 -4.13821 -0.950669 0
M  V30 3930 O 362.765 -3.4861 -0.731423 0
M  V30 3931 O 361.624 -5.29128 -1.36695 0
M  V30 3932 H 358.718 -0.79108 -0.241084 0
M  V30 3933 H 361.264 -1.67581 0.267327 0
M  V30 3934 H 360.036 -3.90252 0.28613 0
M  V30 3935 H 359.659 -3.71434 -1.41853 0
M  V30 3936 N 360.656 0.0484629 -1.57525 0
M  V30 3937 C 361.933 0.777447 -1.79486 0
M  V30 3938 C 362.313 1.94597 -0.818251 0
M  V30 3939 O 361.661 2.28047 0.143767 0
M  V30 3940 C 361.871 1.22864 -3.26658 0
M  V30 3941 C 363.219 1.65251 -3.91123 0
M  V30 3942 O 364.243 1.32372 -3.3069 0
M  V30 3943 O 363.102 2.26207 -4.97486 0
M  V30 3944 H 360.196 0.374357 -0.737419 0
M  V30 3945 H 362.742 0.0267359 -1.69679 0
M  V30 3946 H 361.514 0.393589 -3.89316 0
M  V30 3947 H 361.137 2.03996 -3.41279 0
M  V30 3948 N 362.134 1.5431 0.320358 0
M  V30 3949 C 363.383 1.7188 1.05546 0
M  V30 3950 C 363.696 0.501143 1.89071 0
M  V30 3951 O 364.902 0.558258 2.65699 0
M  V30 3952 C 363.358 3.04025 1.92605 0
M  V30 3953 C 362.966 4.33207 1.14176 0
M  V30 3954 C 364.71 3.30959 2.65832 0
M  V30 3955 C 362.617 5.56412 2.00399 0
M  V30 3956 H 361.547 0.640547 0.397763 0
M  V30 3957 H 364.198 1.80802 0.313522 0
M  V30 3958 H 362.58 2.89019 2.7071 0
M  V30 3959 H 363.754 4.58989 0.40819 0
M  V30 3960 H 362.069 4.13062 0.526165 0
M  V30 3961 H 364.666 4.20203 3.30656 0
M  V30 3962 H 365.009 2.48979 3.33639 0
M  V30 3963 H 365.542 3.46847 1.94787 0
M  V30 3964 H 362.281 6.41004 1.37094 0
M  V30 3965 H 361.801 5.34844 2.7148 0
M  V30 3966 H 363.48 5.92938 2.58908 0
M  V30 3967 N 363.613 -0.582584 1.46437 0
M  V30 3968 C 364.838 -1.37168 1.55563 0
M  V30 3969 C 365.263 -1.87061 0.19743 0
M  V30 3970 O 364.621 -1.61572 -0.822451 0
M  V30 3971 C 364.669 -2.53511 2.56446 0
M  V30 3972 O 363.773 -3.54953 2.09958 0
M  V30 3973 H 363.114 -0.408494 0.523477 0
M  V30 3974 H 365.644 -0.706646 1.9201 0
M  V30 3975 H 365.654 -3.00426 2.76058 0
M  V30 3976 H 364.329 -2.16549 3.55076 0
M  V30 3977 H 362.906 -3.14516 2.00334 0
M  V30 3978 N 365.091 -1.34144 -0.827227 0
M  V30 3979 C 366.001 -1.27428 -1.96975 0
M  V30 3980 C 367.017 -0.182728 -1.73038 0
M  V30 3981 O 368.193 -0.408426 -1.97215 0
M  V30 3982 C 365.258 -1.02526 -3.31194 0
M  V30 3983 C 364.319 -2.20796 -3.68168 0
M  V30 3984 C 363.552 -1.97073 -4.95982 0
M  V30 3985 O 363.775 -0.926822 -5.6282 0
M  V30 3986 O 362.709 -2.83912 -5.30733 0
M  V30 3987 H 366.535 -2.23537 -2.05584 0
M  V30 3988 H 364.12 -1.14307 -0.961989 0
M  V30 3989 H 366.002 -0.904026 -4.11589 0
M  V30 3990 H 364.677 -0.0945389 -3.23562 0
M  V30 3991 H 363.584 -2.38477 -2.88235 0
M  V30 3992 H 364.917 -3.12243 -3.8048 0
M  V30 3993 N 366.569 1.04691 -1.17803 0
M  V30 3994 C 367.794 1.81984 -0.994813 0
M  V30 3995 C 368.219 1.82586 0.452112 0
M  V30 3996 O 367.577 1.23854 1.324 0
M  V30 3997 C 367.625 3.2575 -1.54659 0
M  V30 3998 O 366.729 4.05267 -0.763728 0
M  V30 3999 H 366.07 0.562483 -0.352857 0
M  V30 4000 H 368.6 1.3189 -1.56417 0
M  V30 4001 H 368.61 3.76541 -1.57102 0
M  V30 4002 H 367.285 3.24627 -2.59981 0
M  V30 4003 H 365.862 3.63972 -0.811108 0
M  V30 4004 N 368.047 0.979072 1.23499 0
M  V30 4005 C 369.01 0.523244 2.23147 0
M  V30 4006 C 370.01 -0.386406 1.56088 0
M  V30 4007 O 371.2 -0.180283 1.73265 0
M  V30 4008 C 368.332 -0.240739 3.40049 0
M  V30 4009 H 369.525 1.40432 2.64989 0
M  V30 4010 H 367.078 0.764824 1.36309 0
M  V30 4011 H 367.813 -1.13841 3.03662 0
M  V30 4012 H 367.598 0.412207 3.89927 0
M  V30 4013 H 369.088 -0.548297 4.13985 0
M  V30 4014 N 369.525 -1.3858 0.750561 0
M  V30 4015 C 370.472 -2.30483 0.120835 0
M  V30 4016 C 371.442 -1.50022 -0.712923 0
M  V30 4017 O 372.627 -1.78662 -0.669676 0
M  V30 4018 C 369.767 -3.36431 -0.768666 0
M  V30 4019 C 368.88 -4.31927 0.0793922 0
M  V30 4020 C 368.015 -5.24944 -0.81283 0
M  V30 4021 C 367.054 -6.12088 0.0390447 0
M  V30 4022 N 366.191 -6.97412 -0.809969 0
M  V30 4023 H 371.031 -2.83761 0.91015 0
M  V30 4024 H 368.568 -1.39707 0.460463 0
M  V30 4025 H 370.526 -3.96462 -1.29898 0
M  V30 4026 H 369.156 -2.8457 -1.5238 0
M  V30 4027 H 368.208 -3.73382 0.727303 0
M  V30 4028 H 369.52 -4.93319 0.737401 0
M  V30 4029 H 368.674 -5.90078 -1.41042 0
M  V30 4030 H 367.413 -4.63911 -1.50458 0
M  V30 4031 H 366.418 -5.45952 0.649328 0
M  V30 4032 H 367.643 -6.75189 0.727809 0
M  V30 4033 H 365.589 -6.38931 -1.48672 0
M  V30 4034 H 365.506 -7.55712 -0.208789 0
M  V30 4035 H 366.774 -7.66959 -1.39263 0
M  V30 4036 N 371.003 -0.499398 -1.49478 0
M  V30 4037 C 372.28 0.108629 -1.95298 0
M  V30 4038 C 372.66 1.54282 -1.44084 0
M  V30 4039 O 372.008 2.18944 -0.653908 0
M  V30 4040 C 372.218 0.0229111 -3.48992 0
M  V30 4041 C 373.566 0.197643 -4.2414 0
M  V30 4042 O 374.59 0.0981735 -3.56065 0
M  V30 4043 O 373.449 0.401669 -5.45022 0
M  V30 4044 H 370.543 0.096181 -0.821388 0
M  V30 4045 H 373.089 -0.561822 -1.6013 0
M  V30 4046 H 371.861 -0.977321 -3.78899 0
M  V30 4047 H 371.484 0.733579 -3.90774 0
M  V30 4048 N 372.481 1.55866 -0.233164 0
M  V30 4049 C 373.728 1.98603 0.395374 0
M  V30 4050 C 374.056 1.12105 1.58942 0
M  V30 4051 O 373.311 0.168656 1.94972 0
M  V30 4052 C 373.61 3.46856 0.861724 0
M  V30 4053 C 373.276 4.50348 -0.223066 0
M  V30 4054 C 371.938 4.78371 -0.521038 0
M  V30 4055 C 374.29 5.12355 -0.956124 0
M  V30 4056 C 371.618 5.6568 -1.55638 0
M  V30 4057 C 373.97 6.00786 -1.98089 0
M  V30 4058 C 372.634 6.27148 -2.28565 0
M  V30 4059 H 371.904 0.726739 0.144677 0
M  V30 4060 H 374.551 1.88491 -0.338114 0
M  V30 4061 H 372.856 3.5423 1.67418 0
M  V30 4062 H 374.553 3.77302 1.35809 0
M  V30 4063 H 371.143 4.28596 0.0193234 0
M  V30 4064 H 375.327 4.90765 -0.739166 0
M  V30 4065 H 370.583 5.84365 -1.798 0
M  V30 4066 H 374.757 6.4788 -2.55391 0
M  V30 4067 H 372.384 6.94597 -3.08932 0
M  V30 4068 N 373.959 -0.0401083 1.57549 0
M  V30 4069 C 375.208 -0.732108 1.87944 0
M  V30 4070 C 375.521 -1.77107 0.830206 0
M  V30 4071 O 376.727 -2.51488 1.02302 0
M  V30 4072 C 375.183 -1.35315 3.33494 0
M  V30 4073 C 374.791 -0.351105 4.46622 0
M  V30 4074 C 376.535 -2.02566 3.73051 0
M  V30 4075 C 374.442 -0.979859 5.83226 0
M  V30 4076 H 373.372 -0.277188 0.701201 0
M  V30 4077 H 376.023 0.0138501 1.83495 0
M  V30 4078 H 374.405 -2.14844 3.32653 0
M  V30 4079 H 375.579 0.416674 4.58912 0
M  V30 4080 H 373.894 0.218708 4.15825 0
M  V30 4081 H 376.491 -2.50441 4.72423 0
M  V30 4082 H 376.834 -2.83904 3.04474 0
M  V30 4083 H 377.367 -1.29827 3.76018 0
M  V30 4084 H 374.106 -0.206135 6.55176 0
M  V30 4085 H 373.626 -1.71774 5.74677 0
M  V30 4086 H 375.305 -1.49046 6.29599 0
M  V30 4087 N 375.437 -1.54477 -0.31217 0
M  V30 4088 C 376.677 -1.74958 -1.05684 0
M  V30 4089 C 377.041 -0.518414 -1.84869 0
M  V30 4090 O 378.242 -0.600759 -2.62001 0
M  V30 4091 C 376.513 -2.99656 -1.94785 0
M  V30 4092 S 378.072 -3.4109 -2.76049 0
M  V30 4093 H 374.89 -0.615104 -0.356606 0
M  V30 4094 H 377.492 -1.92669 -0.331514 0
M  V30 4095 H 376.196 -3.87397 -1.35468 0
M  V30 4096 H 375.727 -2.845 -2.71704 0
M  V30 4097 H 377.742 -2.97283 -3.97287 0
M  V30 4098 N 376.915 0.57481 -1.46744 0
M  V30 4099 C 377.865 1.67838 -1.54319 0
M  V30 4100 C 378.849 1.55759 -0.40346 0
M  V30 4101 O 380.041 1.6454 -0.652347 0
M  V30 4102 C 377.17 3.06624 -1.5439 0
M  V30 4103 C 376.256 3.23971 -2.73685 0
M  V30 4104 N 376.647 3.11447 -3.9854 0
M  V30 4105 C 374.945 3.5493 -2.70075 0
M  V30 4106 C 375.646 3.31011 -4.78337 0
M  V30 4107 N 374.622 3.56533 -4.10348 0
M  V30 4108 H 378.424 1.56698 -2.48642 0
M  V30 4109 H 375.938 0.779071 -1.42493 0
M  V30 4110 H 377.935 3.85839 -1.57905 0
M  V30 4111 H 376.595 3.1889 -0.611493 0
M  V30 4112 H 377.606 2.89145 -4.29669 0
M  V30 4113 H 374.283 3.73832 -1.85893 0
M  V30 4114 H 375.673 3.26445 -5.87268 0
M  V30 4115 N 378.394 1.34581 0.820102 0
M  V30 4116 C 379.324 1.29038 1.94606 0
M  V30 4117 C 380.305 0.1673 1.69275 0
M  V30 4118 O 381.49 0.360112 1.90832 0
M  V30 4119 C 378.62 1.04793 3.31113 0
M  V30 4120 C 377.574 2.13597 3.70891 0
M  V30 4121 C 376.9 1.74537 5.05412 0
M  V30 4122 C 378.2 3.55451 3.8269 0
M  V30 4123 H 379.894 2.23248 1.99501 0
M  V30 4124 H 377.44 1.0747 0.958449 0
M  V30 4125 H 379.393 0.995592 4.0947 0
M  V30 4126 H 378.117 0.0702565 3.26524 0
M  V30 4127 H 376.776 2.17905 2.9481 0
M  V30 4128 H 376.424 0.754226 4.97313 0
M  V30 4129 H 376.124 2.47361 5.32997 0
M  V30 4130 H 377.648 1.70803 5.86224 0
M  V30 4131 H 379.062 3.5354 4.51312 0
M  V30 4132 H 377.459 4.26922 4.21732 0
M  V30 4133 H 378.529 3.92587 2.84611 0
M  V30 4134 N 379.872 -1.04064 1.18357 0
M  V30 4135 C 380.802 -2.14001 0.934113 0
M  V30 4136 C 381.783 -1.69616 -0.128186 0
M  V30 4137 O 382.968 -1.94185 0.0244093 0
M  V30 4138 C 380.098 -3.44253 0.459066 0
M  V30 4139 C 379.052 -4.02261 1.46185 0
M  V30 4140 C 378.378 -5.27992 0.844322 0
M  V30 4141 C 379.678 -4.38432 2.83856 0
M  V30 4142 H 381.372 -2.35127 1.85352 0
M  V30 4143 H 378.918 -1.12998 0.892604 0
M  V30 4144 H 380.871 -4.20522 0.271907 0
M  V30 4145 H 379.595 -3.22813 -0.495912 0
M  V30 4146 H 378.254 -3.28074 1.63595 0
M  V30 4147 H 377.902 -5.02862 -0.117845 0
M  V30 4148 H 377.602 -5.67765 1.51384 0
M  V30 4149 H 379.126 -6.06938 0.667693 0
M  V30 4150 H 380.54 -5.05688 2.70098 0
M  V30 4151 H 378.937 -4.89254 3.47491 0
M  V30 4152 H 380.007 -3.4826 3.37406 0
M  V30 4153 N 381.35 -0.985608 -1.22978 0
M  V30 4154 C 382.26 -0.538548 -2.28335 0
M  V30 4155 C 383.276 0.409163 -1.69121 0
M  V30 4156 O 384.452 0.277797 -1.99475 0
M  V30 4157 C 381.517 0.146867 -3.46389 0
M  V30 4158 C 380.578 -0.842896 -4.20944 0
M  V30 4159 C 379.811 -0.190095 -5.33361 0
M  V30 4160 O 380.034 1.01767 -5.61248 0
M  V30 4161 O 378.968 -0.891289 -5.95264 0
M  V30 4162 H 382.794 -1.41487 -2.68729 0
M  V30 4163 H 380.379 -0.753495 -1.29007 0
M  V30 4164 H 382.261 0.531125 -4.1804 0
M  V30 4165 H 380.936 0.997871 -3.07935 0
M  V30 4166 H 379.843 -1.27795 -3.51595 0
M  V30 4167 H 381.176 -1.66287 -4.6326 0
M  V30 4168 N 382.828 1.3818 -0.7579 0
M  V30 4169 C 383.775 2.30416 -0.133057 0
M  V30 4170 C 384.745 1.50398 0.704957 0
M  V30 4171 O 385.93 1.79014 0.660192 0
M  V30 4172 C 383.07 3.36834 0.750813 0
M  V30 4173 C 382.183 4.31879 -0.102297 0
M  V30 4174 C 381.318 5.25368 0.784979 0
M  V30 4175 C 380.357 6.12058 -0.0715046 0
M  V30 4176 N 379.494 6.97832 0.772972 0
M  V30 4177 H 384.334 2.83274 -0.925186 0
M  V30 4178 H 381.871 1.39461 -0.467866 0
M  V30 4179 H 383.829 3.97145 1.27794 0
M  V30 4180 H 382.459 2.85374 1.50868 0
M  V30 4181 H 381.511 3.72991 -0.747095 0
M  V30 4182 H 382.823 4.92921 -0.763552 0
M  V30 4183 H 381.977 5.90818 1.37911 0
M  V30 4184 H 380.716 4.64703 1.47996 0
M  V30 4185 H 379.721 5.456 -0.678272 0
M  V30 4186 H 380.946 6.74793 -0.763606 0
M  V30 4187 H 378.892 6.3971 1.45282 0
M  V30 4188 H 378.809 7.55812 0.168709 0
M  V30 4189 H 380.077 7.67687 1.35194 0
M  V30 4190 N 384.306 0.507319 1.49211 0
M  V30 4191 C 385.583 -0.0982702 1.95353 0
M  V30 4192 C 385.963 -1.53516 1.449 0
M  V30 4193 O 385.311 -2.18594 0.66551 0
M  V30 4194 C 385.521 -0.00440283 3.49 0
M  V30 4195 C 386.869 -0.175147 4.24239 0
M  V30 4196 O 387.893 -0.0792891 3.56112 0
M  V30 4197 O 386.752 -0.37276 5.45227 0
M  V30 4198 H 383.846 -0.0918236 0.821887 0
M  V30 4199 H 386.392 0.570307 1.5983 0
M  V30 4200 H 385.164 0.997402 3.78375 0
M  V30 4201 H 384.787 -0.712845 3.91158 0
M  V30 4202 N 385.784 -1.5574 0.241426 0
M  V30 4203 C 387.195 -1.84842 -0.262755 0
M  V30 4204 C 387.546 -1.16317 -1.58003 0
M  V30 4205 O 386.671 -0.439653 -2.11887 0
M  V30 4206 C 387.266 -3.35332 -0.483523 0
M  V30 4207 C 385.825 -3.6468 -0.931977 0
M  V30 4208 C 384.972 -2.77299 -0.0061151 0
M  V30 4209 H 387.923 -1.51761 0.464129 0
M  V30 4210 H 387.944 -3.56615 -1.32688 0
M  V30 4211 H 387.456 -3.85178 0.47537 0
M  V30 4212 H 385.557 -3.20307 -1.90353 0
M  V30 4213 H 385.67 -4.72498 -0.792628 0
M  V30 4214 H 384.034 -2.49408 -0.516503 0
M  V30 4215 H 384.817 -3.2995 0.948052 0
M  V30 4216 N 387.262 0.0317525 -1.57568 0
M  V30 4217 C 388.21 1.05165 -2.07468 0
M  V30 4218 C 389.204 1.3761 -0.98792 0
M  V30 4219 O 390.41 1.36546 -1.17282 0
M  V30 4220 H 386.785 0.35666 -0.66204 0
M  V30 4221 H 388.756 0.604958 -2.92203 0
M  V30 4222 C 387.505 2.34488 -2.56731 0
M  V30 4223 H 386.828 2.10383 -3.39969 0
M  V30 4224 H 388.268 3.04203 -2.95358 0
M  V30 4225 C 386.727 3.03266 -1.46736 0
M  V30 4226 O 387.257 3.92988 -0.832069 0
M  V30 4227 N 385.463 2.6455 -1.20256 0
M  V30 4228 H 385.01 1.91674 -1.72102 0
M  V30 4229 H 384.968 3.10886 -0.468737 0
M  V30 4230 N 388.74 1.54641 0.303973 0
M  V30 4231 C 389.65 1.88439 1.39743 0
M  V30 4232 C 390.666 0.778239 1.55626 0
M  V30 4233 O 391.842 1.07442 1.70347 0
M  V30 4234 C 388.907 2.12212 2.74166 0
M  V30 4235 C 387.968 3.35936 2.67293 0
M  V30 4236 C 387.201 3.58566 3.95305 0
M  V30 4237 O 387.424 2.84263 4.9452 0
M  V30 4238 O 386.358 4.52078 3.97378 0
M  V30 4239 H 390.184 2.81458 1.14083 0
M  V30 4240 H 387.769 1.40793 0.499768 0
M  V30 4241 H 389.651 2.29067 3.53704 0
M  V30 4242 H 388.326 1.22379 2.99675 0
M  V30 4243 H 387.233 3.24448 1.86237 0
M  V30 4244 H 388.566 4.2589 2.46736 0
M  V30 4245 N 390.218 -0.567019 1.47046 0
M  V30 4246 C 391.634 -0.891975 1.32348 0
M  V30 4247 C 391.834 -1.99154 0.306616 0
M  V30 4248 O 390.89 -2.50883 -0.28532 0
M  V30 4249 C 392.203 -1.29449 2.7141 0
M  V30 4250 C 393.751 -1.40646 2.79621 0
M  V30 4251 C 394.226 -1.84257 4.19301 0
M  V30 4252 N 395.717 -1.91424 4.21795 0
M  V30 4253 C 396.452 -2.26476 5.26779 0
M  V30 4254 N 395.948 -2.60211 6.42077 0
M  V30 4255 N 397.741 -2.27166 5.14152 0
M  V30 4256 H 389.892 0.159074 2.11803 0
M  V30 4257 H 392.155 0.00849752 0.947962 0
M  V30 4258 H 391.861 -0.560448 3.47206 0
M  V30 4259 H 391.735 -2.25273 3.02542 0
M  V30 4260 H 394.122 -2.13133 2.04104 0
M  V30 4261 H 394.203 -0.430339 2.52154 0
M  V30 4262 H 393.847 -1.12343 4.95319 0
M  V30 4263 H 393.777 -2.82855 4.44185 0
M  V30 4264 H 396.268 -1.6778 3.38612 0
M  V30 4265 H 396.581 -2.85956 7.17948 0
M  V30 4266 H 394.926 -2.57813 6.45413 0
M  V30 4267 H 398.117 -2.00244 4.23107 0
M  V30 4268 H 398.29 -2.54154 5.96079 0
M  V30 4269 N 391.696 -1.35014 -0.812953 0
M  V30 4270 C 392.926 -1.30841 -1.59888 0
M  V30 4271 C 393.334 0.117576 -1.88834 0
M  V30 4272 O 392.677 1.07807 -1.48739 0
M  V30 4273 C 392.739 -2.0412 -2.95931 0
M  V30 4274 C 392.403 -3.53336 -2.89832 0
M  V30 4275 C 393.4 -4.48052 -2.63714 0
M  V30 4276 C 391.085 -3.95894 -3.0915 0
M  V30 4277 C 393.079 -5.833 -2.56982 0
M  V30 4278 C 390.766 -5.31239 -3.0204 0
M  V30 4279 C 391.764 -6.24754 -2.75991 0
M  V30 4280 O 391.452 -7.57617 -2.68833 0
M  V30 4281 H 391.184 -0.451215 -0.50337 0
M  V30 4282 H 393.738 -1.78354 -1.01877 0
M  V30 4283 H 391.968 -1.51235 -3.559 0
M  V30 4284 H 393.657 -1.93107 -3.57022 0
M  V30 4285 H 394.423 -4.16492 -2.48515 0
M  V30 4286 H 390.302 -3.23495 -3.28438 0
M  V30 4287 H 393.846 -6.56263 -2.36569 0
M  V30 4288 H 389.743 -5.62415 -3.16796 0
M  V30 4289 H 390.511 -7.67469 -2.84487 0
M  V30 4290 N 393.175 1.03435 -1.18907 0
M  V30 4291 C 394.403 1.80381 -1.01342 0
M  V30 4292 C 394.818 1.83649 0.438005 0
M  V30 4293 O 394.175 1.27655 1.30424 0
M  V30 4294 C 394.226 3.25689 -1.56873 0
M  V30 4295 O 393.947 3.22673 -2.96334 0
M  V30 4296 C 395.448 4.19255 -1.44014 0
M  V30 4297 H 392.668 0.56784 -0.35749 0
M  V30 4298 H 395.212 1.30317 -1.576 0
M  V30 4299 H 393.367 3.72962 -1.04777 0
M  V30 4300 H 393.781 4.13748 -3.22355 0
M  V30 4301 H 395.255 5.19123 -1.87657 0
M  V30 4302 H 395.732 4.37467 -0.389815 0
M  V30 4303 H 396.338 3.77851 -1.95214 0
M  V30 4304 N 394.653 0.992116 1.22453 0
M  V30 4305 C 395.893 0.675727 1.92907 0
M  V30 4306 C 396.257 -0.777762 1.75542 0
M  V30 4307 O 397.458 -1.20553 2.40251 0
M  V30 4308 C 395.729 1.0696 3.4102 0
M  V30 4309 S 397.288 0.871456 4.30059 0
M  V30 4310 H 394.106 0.247089 0.666684 0
M  V30 4311 H 396.708 1.27423 1.48269 0
M  V30 4312 H 395.412 2.12383 3.51172 0
M  V30 4313 H 394.943 0.462858 3.90668 0
M  V30 4314 H 396.958 -0.238436 4.95627 0
M  V30 4315 N 396.131 -1.37776 0.765217 0
M  V30 4316 C 397.041 -2.34135 0.147666 0
M  V30 4317 C 398.057 -1.59854 -0.687215 0
M  V30 4318 O 399.233 -1.91983 -0.608659 0
M  V30 4319 C 396.298 -3.3901 -0.72617 0
M  V30 4320 C 395.359 -4.2912 0.124417 0
M  V30 4321 C 394.592 -5.28986 -0.707807 0
M  V30 4322 O 394.815 -5.36205 -1.94525 0
M  V30 4323 O 393.749 -6.01779 -0.12046 0
M  V30 4324 H 397.575 -2.88664 0.943758 0
M  V30 4325 H 395.16 -1.39824 0.526277 0
M  V30 4326 H 397.042 -4.03195 -1.22524 0
M  V30 4327 H 395.717 -2.86819 -1.50056 0
M  V30 4328 H 394.624 -3.68057 0.669696 0
M  V30 4329 H 395.957 -4.84598 0.861736 0
M  V30 4330 N 397.609 -0.515225 -1.4894 0
M  V30 4331 C 398.556 0.255567 -2.29381 0
M  V30 4332 C 399.526 0.947387 -1.36432 0
M  V30 4333 O 400.711 0.951288 -1.65394 0
M  V30 4334 C 397.851 1.30551 -3.19453 0
M  V30 4335 C 396.964 0.624029 -4.27469 0
M  V30 4336 C 396.099 1.65563 -5.0474 0
M  V30 4337 C 395.138 0.956802 -6.04576 0
M  V30 4338 N 394.275 1.93326 -6.74959 0
M  V30 4339 H 399.115 -0.436607 -2.94784 0
M  V30 4340 H 396.652 -0.227154 -1.45336 0
M  V30 4341 H 398.61 1.92639 -3.70062 0
M  V30 4342 H 397.24 1.96626 -2.56004 0
M  V30 4343 H 396.292 -0.110459 -3.8024 0
M  V30 4344 H 397.604 0.0746092 -4.98744 0
M  V30 4345 H 396.758 2.35119 -5.59289 0
M  V30 4346 H 395.497 2.23893 -4.3327 0
M  V30 4347 H 394.502 0.247097 -5.49244 0
M  V30 4348 H 395.727 0.379814 -6.78037 0
M  V30 4349 H 393.673 2.50591 -6.06251 0
M  V30 4350 H 393.59 1.43489 -7.42258 0
M  V30 4351 H 394.858 2.62126 -7.34105 0
M  V30 4352 N 399.087 1.5561 -0.249682 0
M  V30 4353 C 400.05 2.20217 0.635394 0
M  V30 4354 C 401.05 1.17227 1.10066 0
M  V30 4355 O 402.24 1.42292 1.00492 0
M  V30 4356 C 399.372 2.84794 1.87363 0
M  V30 4357 H 400.565 2.99814 0.0716752 0
M  V30 4358 H 398.118 1.563 -0.000153234 0
M  V30 4359 H 398.853 2.09142 2.47851 0
M  V30 4360 H 398.638 3.60241 1.5482 0
M  V30 4361 H 400.128 3.3423 2.5036 0
M  V30 4362 N 400.565 -0.0233959 1.57583 0
M  V30 4363 C 401.495 -1.02162 2.09965 0
M  V30 4364 C 402.476 -1.3735 1.00344 0
M  V30 4365 O 403.661 -1.46135 1.27899 0
M  V30 4366 C 400.791 -2.32081 2.58371 0
M  V30 4367 C 399.745 -2.1112 3.72307 0
M  V30 4368 C 399.071 -3.46848 4.06941 0
M  V30 4369 C 400.371 -1.49276 5.00514 0
M  V30 4370 H 402.065 -0.585557 2.93618 0
M  V30 4371 H 399.611 -0.280218 1.41247 0
M  V30 4372 H 401.564 -3.02249 2.93639 0
M  V30 4373 H 400.288 -2.77758 1.71808 0
M  V30 4374 H 398.947 -1.43384 3.37397 0
M  V30 4375 H 398.595 -3.90184 3.17436 0
M  V30 4376 H 398.295 -3.33646 4.83688 0
M  V30 4377 H 399.819 -4.18369 4.44747 0
M  V30 4378 H 401.233 -2.09368 5.33702 0
M  V30 4379 H 399.63 -1.46632 5.8191 0
M  V30 4380 H 400.7 -0.459217 4.82721 0
M  V30 4381 N 402.043 -1.548 -0.295768 0
M  V30 4382 C 403.268 -1.78653 -1.05346 0
M  V30 4383 C 403.693 -0.546894 -1.79974 0
M  V30 4384 O 403.051 0.502763 -1.7419 0
M  V30 4385 C 403.099 -2.99679 -2.00561 0
M  V30 4386 O 402.203 -2.7317 -3.08953 0
M  V30 4387 H 401.544 -0.59116 -0.302367 0
M  V30 4388 H 404.074 -2.01895 -0.331598 0
M  V30 4389 H 404.084 -3.27793 -2.42932 0
M  V30 4390 H 402.759 -3.89562 -1.4565 0
M  V30 4391 H 401.336 -2.56089 -2.71059 0
M  V30 4392 N 403.521 0.559213 -1.47345 0
M  V30 4393 C 404.471 1.66192 -1.5609 0
M  V30 4394 C 405.455 1.55323 -0.419957 0
M  V30 4395 O 406.647 1.63839 -0.669762 0
M  V30 4396 C 403.776 3.0497 -1.57634 0
M  V30 4397 C 402.862 3.2105 -2.77106 0
M  V30 4398 N 403.253 3.07203 -4.01821 0
M  V30 4399 C 401.551 3.52046 -2.73825 0
M  V30 4400 C 402.252 3.25919 -4.81821 0
M  V30 4401 N 401.228 3.52161 -4.14106 0
M  V30 4402 H 405.03 1.54052 -2.5029 0
M  V30 4403 H 402.544 0.763914 -1.43311 0
M  V30 4404 H 404.541 3.84142 -1.61989 0
M  V30 4405 H 403.201 3.18224 -0.645281 0
M  V30 4406 H 404.212 2.84572 -4.32711 0
M  V30 4407 H 400.889 3.71839 -1.89848 0
M  V30 4408 H 402.279 3.20198 -5.90697 0
M  V30 4409 N 404.999 1.35443 0.805782 0
M  V30 4410 C 406.41 1.25768 1.37983 0
M  V30 4411 C 406.761 -0.10958 1.95894 0
M  V30 4412 O 405.886 -1.01056 1.91355 0
M  V30 4413 C 406.481 2.27727 2.5085 0
M  V30 4414 C 405.04 2.2179 3.04115 0
M  V30 4415 C 404.187 2.13393 1.77084 0
M  V30 4416 H 407.138 1.4656 0.608752 0
M  V30 4417 H 407.159 1.90422 3.29424 0
M  V30 4418 H 406.671 3.27227 2.08671 0
M  V30 4419 H 404.772 1.25703 3.50756 0
M  V30 4420 H 404.885 3.13788 3.62042 0
M  V30 4421 H 403.249 1.59384 1.98668 0
M  V30 4422 H 404.032 3.14755 1.37056 0
M  V30 4423 N 406.477 -1.02803 1.19454 0
M  V30 4424 C 407.723 -1.76598 1.0092 0
M  V30 4425 C 408.078 -1.86939 -0.455142 0
M  V30 4426 O 407.371 -1.37575 -1.33355 0
M  V30 4427 C 407.565 -3.18941 1.6128 0
M  V30 4428 C 407.394 -3.22476 3.13431 0
M  V30 4429 C 406.164 -3.30375 3.82336 0
M  V30 4430 C 408.362 -3.09451 4.10785 0
M  V30 4431 N 406.344 -3.23292 5.21877 0
M  V30 4432 C 407.715 -3.10012 5.36929 0
M  V30 4433 C 409.77 -2.93585 4.02135 0
M  V30 4434 C 408.473 -2.96334 6.55423 0
M  V30 4435 C 410.499 -2.81256 5.20239 0
M  V30 4436 C 409.861 -2.82472 6.45282 0
M  V30 4437 H 405.96 -0.657447 0.423424 0
M  V30 4438 H 408.544 -1.22369 1.5144 0
M  V30 4439 H 406.715 -3.71489 1.1336 0
M  V30 4440 H 408.447 -3.81102 1.36173 0
M  V30 4441 H 405.202 -3.3663 3.33132 0
M  V30 4442 H 405.626 -3.23156 5.94894 0
M  V30 4443 H 410.268 -2.91466 3.0628 0
M  V30 4444 H 407.986 -2.97203 7.51463 0
M  V30 4445 H 411.572 -2.70014 5.15348 0
M  V30 4446 H 410.452 -2.73036 7.35133 0
M  V30 4447 N 407.956 -0.998596 -1.21925 0
M  V30 4448 C 409.205 -0.673085 -1.90138 0
M  V30 4449 C 409.518 0.79895 -1.78539 0
M  V30 4450 O 410.724 1.23628 -2.4172 0
M  V30 4451 C 409.18 -1.15339 -3.40918 0
M  V30 4452 C 408.788 -2.65106 -3.61141 0
M  V30 4453 C 410.532 -0.902476 -4.14796 0
M  V30 4454 C 408.439 -3.0671 -5.05651 0
M  V30 4455 H 407.369 -0.248057 -0.712028 0
M  V30 4456 H 410.02 -1.20891 -1.38049 0
M  V30 4457 H 408.402 -0.545658 -3.92223 0
M  V30 4458 H 409.576 -3.31274 -3.20304 0
M  V30 4459 H 407.891 -2.88142 -3.00605 0
M  V30 4460 H 410.488 -1.18895 -5.21314 0
M  V30 4461 H 410.831 0.161349 -4.15987 0
M  V30 4462 H 411.364 -1.47269 -3.69536 0
M  V30 4463 H 408.103 -4.12292 -5.09603 0
M  V30 4464 H 407.623 -2.45249 -5.47369 0
M  V30 4465 H 409.302 -2.9833 -5.74115 0
M  V30 4466 N 409.434 1.37368 -0.772513 0
M  V30 4467 C 410.711 1.93839 -0.26188 0
M  V30 4468 C 411.091 1.7061 1.24319 0
M  V30 4469 O 410.439 1.05534 2.02669 0
M  V30 4470 C 410.649 3.43154 -0.636102 0
M  V30 4471 C 411.997 4.20249 -0.606324 0
M  V30 4472 O 413.021 3.5152 -0.575538 0
M  V30 4473 O 411.88 5.42809 -0.634086 0
M  V30 4474 H 408.974 0.82478 -0.0605555 0
M  V30 4475 H 411.52 1.4665 -0.853917 0
M  V30 4476 H 410.292 3.53647 -1.6748 0
M  V30 4477 H 409.915 3.97596 -0.0170516 0
M  V30 4478 N 410.912 0.523116 1.48665 0
M  V30 4479 C 412.16 -0.0134497 2.02096 0
M  V30 4480 C 412.481 -1.35418 1.40311 0
M  V30 4481 O 411.751 -1.87543 0.566074 0
M  V30 4482 H 410.331 -0.00795915 0.746958 0
M  V30 4483 H 412.993 0.685388 1.82451 0
M  V30 4484 H 412.089 -0.126849 3.11842 0
M  V30 4485 N 412.39 -1.55475 0.257931 0
M  V30 4486 C 413.338 -2.23244 -0.653076 0
M  V30 4487 C 414.332 -1.22366 -1.17144 0
M  V30 4488 O 415.538 -1.40347 -1.12706 0
M  V30 4489 H 411.913 -0.716247 -0.229117 0
M  V30 4490 H 413.884 -2.98343 -0.0584788 0
M  V30 4491 C 412.633 -2.95401 -1.83395 0
M  V30 4492 H 411.956 -3.72802 -1.44424 0
M  V30 4493 H 413.396 -3.46165 -2.44838 0
M  V30 4494 C 411.855 -1.99895 -2.71189 0
M  V30 4495 O 412.385 -1.53909 -3.71046 0
M  V30 4496 N 410.591 -1.6676 -2.3799 0
M  V30 4497 H 410.138 -2.04352 -1.56837 0
M  V30 4498 H 410.096 -1.03127 -2.97005 0
M  V30 4499 N 413.868 0.0150385 -1.57593 0
M  V30 4500 C 415.096 0.714395 -1.94175 0
M  V30 4501 C 415.511 1.68135 -0.858841 0
M  V30 4502 O 414.868 1.81766 0.163567 0
M  V30 4503 C 414.919 1.45933 -3.30735 0
M  V30 4504 O 414.64 0.531167 -4.34868 0
M  V30 4505 C 416.141 2.25456 -3.81686 0
M  V30 4506 H 413.361 0.199923 -0.640525 0
M  V30 4507 H 415.905 -0.0316096 -2.04476 0
M  V30 4508 H 414.06 2.15709 -3.21789 0
M  V30 4509 H 414.474 1.05509 -5.13778 0
M  V30 4510 H 415.948 2.731 -4.79709 0
M  V30 4511 H 416.425 3.07485 -3.13607 0
M  V30 4512 H 417.031 1.60727 -3.9376 0
M  V30 4513 N 415.346 1.54954 0.287554 0
M  V30 4514 C 416.309 1.86076 1.33823 0
M  V30 4515 C 417.309 0.734414 1.43049 0
M  V30 4516 O 418.499 1.00266 1.42452 0
M  V30 4517 C 415.631 2.05305 2.72144 0
M  V30 4518 H 416.824 2.79984 1.07465 0
M  V30 4519 H 414.377 1.47223 0.524902 0
M  V30 4520 H 415.112 1.1373 3.03704 0
M  V30 4521 H 414.897 2.873 2.66836 0
M  V30 4522 H 416.387 2.30706 3.48087 0
M  V30 4523 N 416.824 -0.551391 1.4764 0
M  V30 4524 C 417.754 -1.66757 1.63445 0
M  V30 4525 C 418.735 -1.63077 0.483742 0
M  V30 4526 O 419.92 -1.80607 0.71377 0
M  V30 4527 C 417.05 -3.05387 1.65396 0
M  V30 4528 C 416.004 -3.23918 2.79752 0
M  V30 4529 C 415.33 -4.63393 2.66779 0
M  V30 4530 C 416.63 -3.08735 4.21284 0
M  V30 4531 H 418.324 -1.53786 2.56886 0
M  V30 4532 H 415.87 -0.738415 1.23626 0
M  V30 4533 H 417.823 -3.83325 1.75043 0
M  V30 4534 H 416.547 -3.19332 0.685195 0
M  V30 4535 H 415.206 -2.48391 2.69625 0
M  V30 4536 H 414.854 -4.74144 1.67918 0
M  V30 4537 H 414.554 -4.7674 3.43501 0
M  V30 4538 H 416.078 -5.43458 2.78364 0
M  V30 4539 H 417.492 -3.76484 4.32357 0
M  V30 4540 H 415.889 -3.33588 4.98838 0
M  V30 4541 H 416.959 -2.0541 4.39243 0
M  V30 4542 N 418.302 -1.35869 -0.798587 0
M  V30 4543 C 419.252 -1.25982 -1.90033 0
M  V30 4544 C 420.236 -0.153303 -1.60168 0
M  V30 4545 O 421.428 -0.38527 -1.72756 0
M  V30 4546 C 418.557 -1.04211 -3.27101 0
M  V30 4547 C 417.643 -2.19289 -3.63006 0
M  V30 4548 N 418.034 -3.44559 -3.70287 0
M  V30 4549 C 416.332 -2.10852 -3.93011 0
M  V30 4550 C 417.033 -4.20283 -4.02166 0
M  V30 4551 N 416.009 -3.49124 -4.16669 0
M  V30 4552 H 419.811 -2.20883 -1.93876 0
M  V30 4553 H 417.325 -1.28457 -0.993614 0
M  V30 4554 H 419.322 -0.952155 -4.05881 0
M  V30 4555 H 417.982 -0.102013 -3.2454 0
M  V30 4556 H 418.993 -3.7881 -3.53162 0
M  V30 4557 H 415.67 -1.24744 -3.98428 0
M  V30 4558 H 417.06 -5.28575 -4.14799 0
M  V30 4559 N 419.78 1.02168 -1.19998 0
M  V30 4560 C 421.196 1.27969 -0.953737 0
M  V30 4561 C 421.396 1.98079 0.369703 0
M  V30 4562 O 420.452 2.27306 1.09947 0
M  V30 4563 C 421.765 2.11971 -2.13281 0
M  V30 4564 C 423.313 2.25255 -2.17323 0
M  V30 4565 C 423.788 3.12632 -3.34702 0
M  V30 4566 N 425.279 3.2022 -3.34684 0
M  V30 4567 C 426.014 3.88039 -4.22153 0
M  V30 4568 N 425.51 4.58027 -5.19791 0
M  V30 4569 N 427.303 3.84511 -4.10009 0
M  V30 4570 H 419.454 0.550794 -2.05134 0
M  V30 4571 H 421.717 0.305683 -0.897364 0
M  V30 4572 H 421.423 1.67785 -3.09097 0
M  V30 4573 H 421.297 3.12699 -2.10949 0
M  V30 4574 H 423.684 2.68667 -1.22073 0
M  V30 4575 H 423.765 1.24053 -2.23706 0
M  V30 4576 H 423.409 2.69926 -4.30235 0
M  V30 4577 H 423.339 4.13909 -3.25556 0
M  V30 4578 H 425.83 2.70382 -2.64012 0
M  V30 4579 H 426.143 5.07429 -5.82868 0
M  V30 4580 H 424.488 4.56869 -5.23733 0
M  V30 4581 H 427.679 3.28978 -3.33003 0
M  V30 4582 H 427.852 4.3709 -4.78389 0
M  V30 4583 N 421.258 1.00505 1.21394 0
M  V30 4584 C 422.535 0.603277 1.86064 0
M  V30 4585 C 422.915 -0.919095 1.90042 0
M  V30 4586 O 422.263 -1.80607 1.39977 0
M  V30 4587 C 422.473 1.23772 3.26315 0
M  V30 4588 C 423.821 1.34586 4.02705 0
M  V30 4589 O 424.845 1.19304 3.35626 0
M  V30 4590 O 423.704 1.59169 5.22807 0
M  V30 4591 H 420.798 0.206634 0.800769 0
M  V30 4592 H 423.344 1.1017 1.29076 0
M  V30 4593 H 422.116 2.27848 3.18121 0
M  V30 4594 H 421.739 0.725648 3.90922 0
M  V30 4595 N 422.737 -1.36956 0.779787 0
M  V30 4596 C 423.986 -1.98738 0.344405 0
M  V30 4597 C 424.299 -1.62596 -1.08728 0
M  V30 4598 O 425.505 -2.1754 -1.62445 0
M  V30 4599 C 423.961 -3.5544 0.564829 0
M  V30 4600 C 423.569 -4.00514 2.0073 0
M  V30 4601 C 425.313 -4.24059 0.193471 0
M  V30 4602 C 423.22 -5.49957 2.17489 0
M  V30 4603 H 422.15 -0.743561 0.12503 0
M  V30 4604 H 424.801 -1.56381 0.960057 0
M  V30 4605 H 423.183 -3.95817 -0.120397 0
M  V30 4606 H 424.357 -3.71362 2.72814 0
M  V30 4607 H 422.672 -3.44703 2.336 0
M  V30 4608 H 425.269 -5.33874 0.297097 0
M  V30 4609 H 425.612 -4.07378 -0.857263 0
M  V30 4610 H 426.145 -3.89012 0.831556 0
M  V30 4611 H 422.884 -5.71574 3.2091 0
M  V30 4612 H 422.404 -5.80767 1.49899 0
M  V30 4613 H 424.083 -6.16043 1.97738 0
M  V30 4614 N 424.215 -0.530993 -1.48385 0
M  V30 4615 C 425.445 -0.00133928 -2.066 0
M  V30 4616 C 425.853 1.28599 -1.38777 0
M  V30 4617 O 425.196 1.77599 -0.469495 0
M  V30 4618 C 425.258 0.292137 -3.58311 0
M  V30 4619 C 424.922 -0.901864 -4.48013 0
M  V30 4620 C 425.919 -1.80053 -4.87726 0
M  V30 4621 C 423.604 -1.10915 -4.89901 0
M  V30 4622 C 425.598 -2.89038 -5.68098 0
M  V30 4623 C 423.285 -2.20213 -5.70043 0
M  V30 4624 C 424.283 -3.09107 -6.0905 0
M  V30 4625 O 423.971 -4.16514 -6.87583 0
M  V30 4626 H 423.703 -0.0308475 -0.675296 0
M  V30 4627 H 426.257 -0.736335 -1.91748 0
M  V30 4628 H 424.487 1.08112 -3.7128 0
M  V30 4629 H 426.176 0.763994 -3.98645 0
M  V30 4630 H 426.942 -1.65234 -4.55986 0
M  V30 4631 H 422.821 -0.426498 -4.59023 0
M  V30 4632 H 426.365 -3.58451 -5.98464 0
M  V30 4633 H 422.262 -2.35016 -6.01197 0
M  V30 4634 H 423.03 -4.14237 -7.05939 0
M  V30 4635 N 425.693 1.55336 -0.266172 0
M  V30 4636 C 427.104 1.85236 0.233315 0
M  V30 4637 C 427.455 1.18816 1.56132 0
M  V30 4638 O 426.58 0.473307 2.11161 0
M  V30 4639 C 427.175 3.36059 0.430113 0
M  V30 4640 C 425.734 3.66116 0.873842 0
M  V30 4641 C 424.881 2.77274 -0.0380016 0
M  V30 4642 H 427.832 1.51004 -0.488214 0
M  V30 4643 H 427.853 3.58681 1.26998 0
M  V30 4644 H 427.365 3.84373 -0.536588 0
M  V30 4645 H 425.466 3.23295 1.85233 0
M  V30 4646 H 425.579 4.73699 0.717358 0
M  V30 4647 H 423.943 2.50198 0.476759 0
M  V30 4648 H 424.726 3.284 -1.00042 0
M  V30 4649 N 427.171 -0.0066808 1.57599 0
M  V30 4650 C 428.396 -0.707738 1.94951 0
M  V30 4651 C 428.821 -1.66882 0.867868 0
M  V30 4652 O 428.179 -1.80457 -0.17458 0
M  V30 4653 C 428.227 -1.42162 3.31394 0
M  V30 4654 O 427.331 -2.53578 3.25226 0
M  V30 4655 H 426.672 -0.188752 0.636607 0
M  V30 4656 H 429.202 0.0445193 2.04552 0
M  V30 4657 H 429.212 -1.78655 3.66806 0
M  V30 4658 H 427.887 -0.716903 4.09675 0
M  V30 4659 H 426.464 -2.19463 3.01481 0
M  V30 4660 N 428.649 -1.55105 -0.279332 0
M  V30 4661 C 429.895 -1.75672 -1.01327 0
M  V30 4662 C 430.228 -0.552739 -1.86168 0
M  V30 4663 O 429.503 0.449827 -1.89227 0
M  V30 4664 C 429.786 -3.05825 -1.90114 0
M  V30 4665 C 429.639 -4.36565 -1.08309 0
M  V30 4666 C 430.958 -3.31975 -2.8893 0
M  V30 4667 H 428.077 -0.639149 -0.366957 0
M  V30 4668 H 430.719 -1.87833 -0.286154 0
M  V30 4669 H 428.869 -2.95588 -2.52111 0
M  V30 4670 H 430.541 -4.58751 -0.484314 0
M  V30 4671 H 428.784 -4.32076 -0.386362 0
M  V30 4672 H 429.455 -5.23946 -1.73737 0
M  V30 4673 H 431.931 -3.41963 -2.37067 0
M  V30 4674 H 430.807 -4.2432 -3.48201 0
M  V30 4675 H 431.068 -2.51309 -3.63725 0
M  V30 4676 N 430.127 0.543554 -1.4793 0
M  V30 4677 C 431.352 1.32995 -1.59145 0
M  V30 4678 C 431.777 1.86472 -0.246956 0
M  V30 4679 O 431.135 1.63696 0.779324 0
M  V30 4680 C 431.183 2.46623 -2.63077 0
M  V30 4681 O 430.287 3.49261 -2.19295 0
M  V30 4682 H 429.628 0.394472 -0.534124 0
M  V30 4683 H 432.158 0.655489 -1.93816 0
M  V30 4684 H 432.168 2.93001 -2.83926 0
M  V30 4685 H 430.843 2.07059 -3.60693 0
M  V30 4686 H 429.42 3.09094 -2.08603 0
M  V30 4687 N 431.605 1.3629 0.791371 0
M  V30 4688 C 432.535 1.33137 1.91825 0
M  V30 4689 C 433.516 0.203168 1.68882 0
M  V30 4690 O 434.701 0.400509 1.90025 0
M  V30 4691 C 431.831 1.11793 3.28816 0
M  V30 4692 C 430.785 2.21417 3.66277 0
M  V30 4693 C 430.111 1.85218 5.01596 0
M  V30 4694 C 431.411 3.63489 3.75064 0
M  V30 4695 H 433.105 2.2743 1.9472 0
M  V30 4696 H 430.651 1.09479 0.935437 0
M  V30 4697 H 432.604 1.08222 4.07266 0
M  V30 4698 H 431.328 0.139501 3.26302 0
M  V30 4699 H 429.987 2.2411 2.90121 0
M  V30 4700 H 429.635 0.859544 4.95602 0
M  V30 4701 H 429.335 2.58611 5.27631 0
M  V30 4702 H 430.859 1.832 5.82469 0
M  V30 4703 H 432.273 3.63034 4.43711 0
M  V30 4704 H 430.67 4.35771 4.12582 0
M  V30 4705 H 431.74 3.98536 2.76219 0
M  V30 4706 N 433.083 -1.0153 1.20538 0
M  V30 4707 C 434.015 -2.10224 0.913155 0
M  V30 4708 C 435.028 -1.62495 -0.0995998 0
M  V30 4709 O 436.217 -1.78014 0.131582 0
M  V30 4710 C 433.317 -3.37111 0.347717 0
M  V30 4711 C 432.49 -4.13971 1.41233 0
M  V30 4712 C 431.549 -5.19158 0.857976 0
M  V30 4713 O 430.575 -5.48 1.53897 0
M  V30 4714 N 431.777 -5.7955 -0.331966 0
M  V30 4715 H 434.542 -2.35879 1.84881 0
M  V30 4716 H 432.103 -1.17931 1.10923 0
M  V30 4717 H 434.095 -4.04683 -0.0373026 0
M  V30 4718 H 432.665 -3.08696 -0.492527 0
M  V30 4719 H 431.885 -3.41351 1.97163 0
M  V30 4720 H 433.173 -4.62103 2.12928 0
M  V30 4721 H 432.571 -5.58455 -0.902478 0
M  V30 4722 H 431.128 -6.48464 -0.65861 0
M  V30 4723 N 434.561 -1.01147 -1.20859 0
M  V30 4724 C 435.81 -0.693214 -1.89413 0
M  V30 4725 C 436.123 0.779969 -1.79376 0
M  V30 4726 O 437.329 1.21057 -2.43017 0
M  V30 4727 C 435.785 -1.18949 -3.39675 0
M  V30 4728 C 435.393 -2.68921 -3.58309 0
M  V30 4729 C 437.137 -0.94642 -4.13815 0
M  V30 4730 C 435.044 -3.12056 -5.0237 0
M  V30 4731 H 433.974 -0.255595 -0.709357 0
M  V30 4732 H 436.625 -1.22349 -1.36759 0
M  V30 4733 H 435.007 -0.587228 -3.91622 0
M  V30 4734 H 436.181 -3.34652 -3.16772 0
M  V30 4735 H 434.496 -2.91314 -2.97532 0
M  V30 4736 H 437.093 -1.24417 -5.20023 0
M  V30 4737 H 437.436 0.117219 -4.16135 0
M  V30 4738 H 437.969 -1.5118 -3.67953 0
M  V30 4739 H 434.708 -4.17674 -5.05202 0
M  V30 4740 H 434.228 -2.51041 -5.44737 0
M  V30 4741 H 435.907 -3.04403 -5.70918 0
M  V30 4742 N 436.039 1.36541 -0.78704 0
M  V30 4743 C 436.971 2.28761 -0.141773 0
M  V30 4744 C 437.984 1.49365 0.647599 0
M  V30 4745 O 439.173 1.71836 0.483173 0
M  V30 4746 C 436.273 3.28771 0.822368 0
M  V30 4747 C 435.446 4.3732 0.0835594 0
M  V30 4748 C 434.505 5.17307 0.963296 0
M  V30 4749 O 433.531 5.67638 0.421419 0
M  V30 4750 N 434.733 5.33515 2.28784 0
M  V30 4751 H 437.498 2.84777 -0.933919 0
M  V30 4752 H 435.059 1.48682 -0.640735 0
M  V30 4753 H 437.051 3.79169 1.41468 0
M  V30 4754 H 435.621 2.73412 1.5154 0
M  V30 4755 H 434.841 3.88118 -0.689809 0
M  V30 4756 H 436.129 5.0701 -0.426358 0
M  V30 4757 H 435.527 4.94234 2.75226 0
M  V30 4758 H 434.084 5.87165 2.82985 0
M  V30 4759 N 437.518 0.538854 1.48102 0
M  V30 4760 C 438.465 -0.219042 2.29758 0
M  V30 4761 C 439.435 -0.925562 1.37922 0
M  V30 4762 O 440.62 -0.924855 1.66886 0
M  V30 4763 C 437.76 -1.25452 3.2149 0
M  V30 4764 C 436.873 -0.555943 4.28408 0
M  V30 4765 C 436.008 -1.57512 5.0731 0
M  V30 4766 C 435.047 -0.860498 6.06021 0
M  V30 4767 N 434.184 -1.82564 6.77949 0
M  V30 4768 H 439.024 0.483449 2.94052 0
M  V30 4769 H 436.561 0.250247 1.44956 0
M  V30 4770 H 438.519 -1.86727 3.7308 0
M  V30 4771 H 437.149 -1.92528 2.591 0
M  V30 4772 H 436.201 0.170938 3.80016 0
M  V30 4773 H 437.513 0.00474616 4.988 0
M  V30 4774 H 436.667 -2.26191 5.62959 0
M  V30 4775 H 435.406 -2.16972 4.36778 0
M  V30 4776 H 434.411 -0.159686 5.49568 0
M  V30 4777 H 435.636 -0.271897 6.78555 0
M  V30 4778 H 433.582 -2.40915 6.10161 0
M  V30 4779 H 433.499 -1.31662 7.44447 0
M  V30 4780 H 434.767 -2.50414 7.38182 0
M  V30 4781 N 438.996 -1.55193 0.274407 0
M  V30 4782 C 439.944 -2.23924 -0.629362 0
M  V30 4783 C 440.938 -1.23602 -1.1584 0
M  V30 4784 O 442.144 -1.41535 -1.11211 0
M  V30 4785 H 438.519 -0.718637 -0.221507 0
M  V30 4786 H 440.49 -2.98388 -0.0268322 0
M  V30 4787 C 439.239 -2.97329 -1.80252 0
M  V30 4788 H 438.562 -3.74313 -1.40462 0
M  V30 4789 H 440.002 -3.48743 -2.41152 0
M  V30 4790 C 438.461 -2.0276 -2.69054 0
M  V30 4791 O 438.991 -1.57836 -3.69392 0
M  V30 4792 N 437.197 -1.69275 -2.36208 0
M  V30 4793 H 436.744 -2.06004 -1.54661 0
M  V30 4794 H 436.702 -1.06271 -2.95895 0
M  V30 4795 N 440.474 -0.00167713 -1.576 0
M  V30 4796 C 441.721 0.68282 -1.90641 0
M  V30 4797 C 442.049 1.73686 -0.875415 0
M  V30 4798 O 441.304 1.95334 0.119575 0
M  V30 4799 C 441.603 1.36189 -3.30435 0
M  V30 4800 C 441.269 0.440887 -4.48739 0
M  V30 4801 C 439.931 0.187312 -4.80835 0
M  V30 4802 C 442.283 -0.193134 -5.20842 0
M  V30 4803 C 439.611 -0.70855 -5.82406 0
M  V30 4804 C 441.963 -1.07688 -6.23367 0
M  V30 4805 C 440.627 -1.33962 -6.53919 0
M  V30 4806 H 439.897 0.249862 -0.697603 0
M  V30 4807 H 442.544 -0.0575642 -1.91413 0
M  V30 4808 H 440.849 2.17636 -3.25794 0
M  V30 4809 H 442.546 1.89759 -3.5326 0
M  V30 4810 H 439.136 0.648694 -4.23663 0
M  V30 4811 H 443.32 -0.0102445 -4.96299 0
M  V30 4812 H 438.576 -0.920097 -6.04437 0
M  V30 4813 H 442.75 -1.57451 -6.78367 0
M  V30 4814 H 440.377 -2.03549 -7.32442 0
M  V30 4815 N 441.952 1.55251 0.271103 0
M  V30 4816 C 442.915 1.87484 1.31842 0
M  V30 4817 C 443.915 0.749545 1.42262 0
M  V30 4818 O 445.105 1.01771 1.4138 0
M  V30 4819 C 442.237 2.0818 2.69951 0
M  V30 4820 H 443.43 2.81108 1.0449 0
M  V30 4821 H 440.983 1.47771 0.509258 0
M  V30 4822 H 441.718 1.16944 3.02481 0
M  V30 4823 H 441.503 2.90114 2.63774 0
M  V30 4824 H 442.993 2.34385 3.4562 0
M  V30 4825 N 443.43 -0.535701 1.48216 0
M  V30 4826 C 444.377 -1.64083 1.62312 0
M  V30 4827 C 445.347 -1.59448 0.465365 0
M  V30 4828 O 446.532 -1.77959 0.688135 0
M  V30 4829 C 443.672 -3.0236 1.66349 0
M  V30 4830 C 442.785 -3.17273 2.93193 0
M  V30 4831 C 441.92 -4.46075 2.88427 0
M  V30 4832 C 440.959 -4.54496 4.1 0
M  V30 4833 N 440.096 -5.7468 4.03345 0
M  V30 4834 H 444.936 -1.51374 2.5669 0
M  V30 4835 H 442.473 -0.737059 1.27302 0
M  V30 4836 H 444.431 -3.82461 1.66672 0
M  V30 4837 H 443.061 -3.13854 0.754672 0
M  V30 4838 H 442.113 -2.30462 3.02641 0
M  V30 4839 H 443.425 -3.19357 3.83162 0
M  V30 4840 H 442.579 -5.3446 2.87119 0
M  V30 4841 H 441.318 -4.46504 1.96177 0
M  V30 4842 H 440.323 -3.64519 4.11589 0
M  V30 4843 H 441.548 -4.5581 5.03402 0
M  V30 4844 H 439.494 -5.76017 3.13912 0
M  V30 4845 H 439.411 -5.78234 4.87013 0
M  V30 4846 H 440.679 -6.65367 4.06087 0
M  V30 4847 N 444.908 -1.36708 -0.784132 0
M  V30 4848 C 446.133 -1.34565 -1.5782 0
M  V30 4849 C 446.558 0.0695257 -1.87971 0
M  V30 4850 O 445.916 1.04302 -1.48293 0
M  V30 4851 C 445.964 -2.17952 -2.87279 0
M  V30 4852 O 445.068 -1.57563 -3.81114 0
M  V30 4853 H 444.409 -0.460337 -0.478524 0
M  V30 4854 H 446.939 -1.80064 -0.971495 0
M  V30 4855 H 446.949 -2.30721 -3.365 0
M  V30 4856 H 445.624 -3.20823 -2.64661 0
M  V30 4857 H 444.201 -1.53764 -3.39722 0
M  V30 4858 N 446.386 1.0089 -1.21074 0
M  V30 4859 C 447.333 2.09588 -0.966512 0
M  V30 4860 C 448.303 1.65761 0.106089 0
M  V30 4861 O 449.488 1.90758 -0.0402287 0
M  V30 4862 C 446.628 3.40958 -0.533058 0
M  V30 4863 C 445.741 3.9822 -1.67467 0
M  V30 4864 C 444.876 5.17682 -1.19076 0
M  V30 4865 C 443.915 5.67043 -2.30496 0
M  V30 4866 N 443.052 6.77759 -1.83267 0
M  V30 4867 H 447.892 2.29815 -1.89708 0
M  V30 4868 H 445.429 1.12689 -0.945489 0
M  V30 4869 H 447.387 4.1637 -0.263019 0
M  V30 4870 H 446.017 3.20781 0.360505 0
M  V30 4871 H 445.069 3.1983 -2.05944 0
M  V30 4872 H 446.381 4.3085 -2.51336 0
M  V30 4873 H 445.535 6.00326 -0.877151 0
M  V30 4874 H 444.274 4.86635 -0.322066 0
M  V30 4875 H 443.279 4.82999 -2.62664 0
M  V30 4876 H 444.504 6.00121 -3.17855 0
M  V30 4877 H 442.45 6.48527 -0.987356 0
M  V30 4878 H 442.367 7.09624 -2.60711 0
M  V30 4879 H 443.635 7.63949 -1.54928 0
M  V30 4880 N 447.864 1.01787 1.20321 0
M  V30 4881 C 449.11 0.718699 1.90279 0
M  V30 4882 C 449.465 -0.743669 1.77447 0
M  V30 4883 O 448.758 -1.53345 1.14874 0
M  V30 4884 C 448.952 1.09076 3.40349 0
M  V30 4885 C 448.781 2.58775 3.67784 0
M  V30 4886 C 447.551 3.25578 3.86428 0
M  V30 4887 C 449.749 3.56966 3.70243 0
M  V30 4888 N 447.731 4.64495 4.01395 0
M  V30 4889 C 449.102 4.8145 3.90649 0
M  V30 4890 C 451.157 3.5092 3.53213 0
M  V30 4891 C 449.86 6.00619 3.95789 0
M  V30 4892 C 451.886 4.69493 3.59625 0
M  V30 4893 C 451.248 5.92786 3.80505 0
M  V30 4894 H 447.347 0.31468 0.715891 0
M  V30 4895 H 449.931 1.30295 1.44677 0
M  V30 4896 H 448.102 0.534839 3.847 0
M  V30 4897 H 449.834 0.744997 3.97784 0
M  V30 4898 H 446.589 2.76003 3.84862 0
M  V30 4899 H 447.013 5.36624 4.12752 0
M  V30 4900 H 451.655 2.56593 3.36035 0
M  V30 4901 H 449.373 6.95326 4.11762 0
M  V30 4902 H 452.959 4.66432 3.47754 0
M  V30 4903 H 451.839 6.83003 3.85327 0
M  V30 4904 N 449.342 -1.36122 0.79427 0
M  V30 4905 C 450.758 -1.5232 0.476525 0
M  V30 4906 C 450.958 -1.74685 -1.00436 0
M  V30 4907 O 450.014 -1.78115 -1.78973 0
M  V30 4908 C 451.327 -2.70607 1.31119 0
M  V30 4909 C 452.875 -2.8448 1.30537 0
M  V30 4910 C 453.35 -4.05778 2.12387 0
M  V30 4911 N 454.841 -4.12933 2.09859 0
M  V30 4912 C 455.576 -5.05876 2.69957 0
M  V30 4913 N 455.072 -6.04232 3.38934 0
M  V30 4914 N 456.865 -4.98528 2.59665 0
M  V30 4915 H 449.016 -1.1986 1.75349 0
M  V30 4916 H 451.279 -0.585418 0.745647 0
M  V30 4917 H 450.985 -2.60619 2.36158 0
M  V30 4918 H 450.859 -3.64888 0.955843 0
M  V30 4919 H 453.246 -2.93927 0.262876 0
M  V30 4920 H 453.327 -1.91093 1.70051 0
M  V30 4921 H 452.971 -3.97092 3.1667 0
M  V30 4922 H 452.901 -4.98323 1.70242 0
M  V30 4923 H 455.392 -3.42515 1.59662 0
M  V30 4924 H 455.705 -6.71724 3.82109 0
M  V30 4925 H 454.05 -6.04443 3.43036 0
M  V30 4926 H 457.241 -4.20641 2.05375 0
M  V30 4927 H 457.414 -5.70773 3.06793 0
M  V30 4928 N 450.82 -0.546701 -1.47814 0
M  V30 4929 C 451.752 0.244196 -2.27895 0
M  V30 4930 C 452.765 0.88911 -1.36377 0
M  V30 4931 O 453.954 0.764733 -1.61289 0
M  V30 4932 C 451.054 1.36252 -3.10304 0
M  V30 4933 C 450.227 0.816382 -4.29714 0
M  V30 4934 C 449.286 1.81789 -4.93801 0
M  V30 4935 O 448.312 1.36818 -5.52512 0
M  V30 4936 N 449.514 3.15085 -4.87547 0
M  V30 4937 H 452.279 -0.442694 -2.96412 0
M  V30 4938 H 449.84 -0.382095 -1.57327 0
M  V30 4939 H 451.832 2.03102 -3.50045 0
M  V30 4940 H 450.402 1.95281 -2.44099 0
M  V30 4941 H 449.622 -0.0285981 -3.9419 0
M  V30 4942 H 450.91 0.430668 -5.06974 0
M  V30 4943 H 450.308 3.54275 -4.41028 0
M  V30 4944 H 448.865 3.77522 -5.31339 0
M  V30 4945 N 452.299 1.55045 -0.282633 0
M  V30 4946 C 453.262 2.21515 0.588539 0
M  V30 4947 C 454.262 1.19535 1.07554 0
M  V30 4948 O 455.452 1.44391 0.974514 0
M  V30 4949 C 452.584 2.88704 1.8128 0
M  V30 4950 H 453.777 2.99899 0.00806397 0
M  V30 4951 H 451.33 1.56265 -0.0333067 0
M  V30 4952 H 452.065 2.14352 2.43359 0
M  V30 4953 H 451.85 3.63443 1.47144 0
M  V30 4954 H 453.34 3.39465 2.43214 0
M  V30 4955 N 453.777 0.010035 1.57597 0
M  V30 4956 C 455.024 -0.6727 1.91 0
M  V30 4957 C 455.352 -1.73219 0.884614 0
M  V30 4958 O 454.607 -1.95395 -0.109215 0
M  V30 4959 C 454.906 -1.34434 3.31153 0
M  V30 4960 C 454.572 -0.417083 4.48967 0
M  V30 4961 C 453.234 -0.161809 4.80928 0
M  V30 4962 C 455.586 0.220753 5.20732 0
M  V30 4963 C 452.914 0.739426 5.82022 0
M  V30 4964 C 455.266 1.10993 6.22787 0
M  V30 4965 C 453.93 1.37428 6.532 0
M  V30 4966 H 453.2 -0.246158 0.698918 0
M  V30 4967 H 455.847 0.0677145 1.9138 0
M  V30 4968 H 454.152 -2.15905 3.26944 0
M  V30 4969 H 455.849 -1.87883 3.54261 0
M  V30 4970 H 452.439 -0.626217 4.24001 0
M  V30 4971 H 456.623 0.0365643 4.96287 0
M  V30 4972 H 451.879 0.952139 6.03941 0
M  V30 4973 H 456.053 1.61046 6.77523 0
M  V30 4974 H 453.68 2.0743 7.31353 0
M  V30 4975 N 455.255 -1.55392 -0.262866 0
M  V30 4976 C 456.203 -1.8977 -1.345 0
M  V30 4977 C 457.197 -0.775063 -1.50629 0
M  V30 4978 O 458.403 -0.959519 -1.52293 0
M  V30 4979 H 454.778 -0.602467 -0.450041 0
M  V30 4980 H 456.749 -2.80147 -1.02762 0
M  V30 4981 C 455.498 -2.19501 -2.69657 0
M  V30 4982 H 454.821 -3.05378 -2.5804 0
M  V30 4983 H 456.261 -2.47469 -3.44289 0
M  V30 4984 C 454.72 -1.00597 -3.21531 0
M  V30 4985 O 455.25 -0.245768 -4.00947 0
M  V30 4986 N 453.456 -0.800911 -2.79345 0
M  V30 4987 H 453.003 -1.42079 -2.14875 0
M  V30 4988 H 452.961 -0.00697996 -3.14399 0
M  V30 4989 N 456.733 0.527833 -1.48498 0
M  V30 4990 C 457.696 1.61439 -1.62696 0
M  V30 4991 C 458.696 1.52824 -0.500136 0
M  V30 4992 O 459.886 1.56456 -0.765976 0
M  V30 4993 C 457.018 3.01063 -1.59918 0
M  V30 4994 H 458.211 1.50189 -2.59583 0
M  V30 4995 H 455.764 0.750055 -1.37127 0
M  V30 4996 H 456.499 3.17818 -0.645163 0
M  V30 4997 H 456.284 3.08725 -2.41726 0
M  V30 4998 H 457.774 3.80057 -1.73051 0
M  V30 4999 N 458.211 1.37122 0.776871 0
M  V30 5000 C 459.174 1.32301 1.8716 0
M  V30 5001 C 460.174 0.228099 1.59174 0
M  V30 5002 O 461.364 0.483642 1.67352 0
M  V30 5003 C 458.496 1.054 3.24197 0
M  V30 5004 H 459.689 2.29673 1.92848 0
M  V30 5005 H 457.242 1.22077 0.97606 0
M  V30 5006 H 457.977 0.0853872 3.24188 0
M  V30 5007 H 457.762 1.84648 3.45901 0
M  V30 5008 H 459.252 1.04664 4.04271 0
M  V30 5009 N 459.689 -1.00246 1.21608 0
M  V30 5010 C 460.652 -2.07233 0.979133 0
M  V30 5011 C 461.652 -1.6072 -0.0508219 0
M  V30 5012 O 462.842 -1.73196 0.186712 0
M  V30 5013 C 459.974 -3.37546 0.477016 0
M  V30 5014 H 461.167 -2.29687 1.92831 0
M  V30 5015 H 458.72 -1.17261 1.03342 0
M  V30 5016 H 459.455 -3.20773 -0.476966 0
M  V30 5017 H 459.24 -3.72638 1.21997 0
M  V30 5018 H 460.73 -4.16285 0.331181 0
M  V30 5019 N 461.167 -1.02423 -1.1978 0
M  V30 5020 C 462.413 -0.719051 -1.89625 0
M  V30 5021 C 462.746 0.750083 -1.7913 0
M  V30 5022 O 462.021 1.54574 -1.18056 0
M  V30 5023 C 462.304 -1.16499 -3.40735 0
M  V30 5024 C 462.157 -2.695 -3.60125 0
M  V30 5025 C 463.476 -0.742166 -4.33797 0
M  V30 5026 H 460.595 -0.26269 -0.688595 0
M  V30 5027 H 463.237 -1.27333 -1.41018 0
M  V30 5028 H 461.387 -0.69341 -3.82262 0
M  V30 5029 H 463.059 -3.24569 -3.278 0
M  V30 5030 H 461.302 -3.10113 -3.03336 0
M  V30 5031 H 461.973 -2.95757 -4.66081 0
M  V30 5032 H 464.449 -1.1477 -3.99959 0
M  V30 5033 H 463.325 -1.08213 -5.38127 0
M  V30 5034 H 463.586 0.355747 -4.40666 0
M  V30 5035 N 462.645 1.35699 -0.801477 0
M  V30 5036 C 463.891 1.99208 -0.380022 0
M  V30 5037 C 464.224 1.63445 1.04878 0
M  V30 5038 O 463.499 0.895223 1.72673 0
M  V30 5039 C 463.782 3.55755 -0.557708 0
M  V30 5040 C 463.635 4.01332 -2.03107 0
M  V30 5041 C 464.954 4.40096 0.0197968 0
M  V30 5042 H 462.073 0.723667 -0.139552 0
M  V30 5043 H 464.715 1.60928 -1.01006 0
M  V30 5044 H 462.865 3.88494 -0.0213741 0
M  V30 5045 H 464.537 3.79026 -2.62939 0
M  V30 5046 H 462.78 3.52429 -2.52936 0
M  V30 5047 H 463.451 5.10234 -2.1063 0
M  V30 5048 H 465.927 4.13786 -0.438179 0
M  V30 5049 H 464.803 5.48735 -0.134477 0
M  V30 5050 H 465.064 4.2786 1.11303 0
M  V30 5051 N 464.123 0.554532 1.47522 0
M  V30 5052 C 465.073 -0.215008 2.26984 0
M  V30 5053 C 466.057 -0.88774 1.34194 0
M  V30 5054 O 467.249 -0.786489 1.58567 0
M  V30 5055 C 464.378 -1.24604 3.19889 0
M  V30 5056 C 463.464 -0.576857 4.20159 0
M  V30 5057 N 463.855 0.351541 5.04577 0
M  V30 5058 C 462.153 -0.831104 4.38188 0
M  V30 5059 C 462.854 0.739995 5.76974 0
M  V30 5060 N 461.83 0.0954407 5.43516 0
M  V30 5061 H 465.632 0.498843 2.89636 0
M  V30 5062 H 463.146 0.374279 1.58028 0
M  V30 5063 H 465.143 -1.81128 3.75498 0
M  V30 5064 H 463.803 -1.96101 2.58794 0
M  V30 5065 H 464.814 0.725556 5.12792 0
M  V30 5066 H 461.491 -1.53479 3.88266 0
M  V30 5067 H 462.881 1.50271 6.5488 0
M  V30 5068 N 465.601 -1.54893 0.290851 0
M  V30 5069 C 466.551 -2.19838 -0.604599 0
M  V30 5070 C 467.535 -1.16805 -1.10659 0
M  V30 5071 O 468.727 -1.42562 -1.04905 0
M  V30 5072 C 465.856 -2.93497 -1.78086 0
M  V30 5073 C 464.942 -4.03835 -1.29531 0
M  V30 5074 N 465.333 -5.03047 -0.527024 0
M  V30 5075 C 463.631 -4.17192 -1.57693 0
M  V30 5076 C 464.332 -5.81074 -0.269728 0
M  V30 5077 N 463.308 -5.36966 -0.846651 0
M  V30 5078 H 467.11 -2.93898 -0.00995032 0
M  V30 5079 H 464.624 -1.62121 0.0951353 0
M  V30 5080 H 466.621 -3.38484 -2.43381 0
M  V30 5081 H 465.281 -2.2095 -2.37931 0
M  V30 5082 H 466.292 -5.17611 -0.172872 0
M  V30 5083 H 462.969 -3.55845 -2.18359 0
M  V30 5084 H 464.359 -6.71005 0.346643 0
M  V30 5085 N 467.08 -0.0183926 -1.57589 0
M  V30 5086 C 468.013 1.00148 -2.0505 0
M  V30 5087 C 468.991 1.32387 -0.944058 0
M  V30 5088 O 470.175 1.44237 -1.21358 0
M  V30 5089 C 467.302 2.32435 -2.46357 0
M  V30 5090 C 466.348 2.15731 -3.67916 0
M  V30 5091 S 467.181 1.46613 -5.15039 0
M  V30 5092 C 468.337 2.80293 -5.59631 0
M  V30 5093 H 468.57 0.597429 -2.91235 0
M  V30 5094 H 466.103 0.193002 -1.53189 0
M  V30 5095 H 468.061 3.0849 -2.70822 0
M  V30 5096 H 466.722 2.69975 -1.60537 0
M  V30 5097 H 465.915 3.13502 -3.9463 0
M  V30 5098 H 465.517 1.4782 -3.43548 0
M  V30 5099 H 467.809 3.76557 -5.63215 0
M  V30 5100 H 468.752 2.58256 -6.59325 0
M  V30 5101 H 469.16 2.85047 -4.87246 0
M  V30 5102 N 468.558 1.5553 0.254621 0
M  V30 5103 C 469.974 1.4778 0.602753 0
M  V30 5104 C 470.174 0.707047 1.88688 0
M  V30 5105 O 469.23 0.233288 2.5142 0
M  V30 5106 C 470.543 2.92133 0.712648 0
M  V30 5107 C 472.091 3.02458 0.805488 0
M  V30 5108 C 472.566 4.48102 0.947009 0
M  V30 5109 N 474.057 4.52008 1.01207 0
M  V30 5110 C 474.792 5.61939 1.1407 0
M  V30 5111 N 474.288 6.81697 1.23536 0
M  V30 5112 N 476.081 5.49719 1.17325 0
M  V30 5113 H 468.232 2.04085 -0.588463 0
M  V30 5114 H 470.495 0.926229 -0.202001 0
M  V30 5115 H 470.201 3.51332 -0.160766 0
M  V30 5116 H 470.075 3.42187 1.58707 0
M  V30 5117 H 472.462 2.43344 1.66936 0
M  V30 5118 H 472.543 2.55627 -0.0939266 0
M  V30 5119 H 472.187 5.07824 0.087725 0
M  V30 5120 H 472.117 4.92607 1.86135 0
M  V30 5121 H 474.608 3.65749 0.950577 0
M  V30 5122 H 474.921 7.61228 1.33236 0
M  V30 5123 H 473.266 6.84473 1.20508 0
M  V30 5124 H 476.457 4.55095 1.09573 0
M  V30 5125 H 476.63 6.35432 1.27005 0
M  V30 5126 N 470.036 -0.519951 1.48776 0
M  V30 5127 C 470.983 -1.62352 1.64044 0
M  V30 5128 C 471.953 -1.58945 0.482251 0
M  V30 5129 O 473.138 -1.77219 0.706971 0
M  V30 5130 C 470.278 -3.00579 1.69547 0
M  V30 5131 C 469.391 -3.14145 2.96541 0
M  V30 5132 C 468.526 -4.42991 2.93142 0
M  V30 5133 C 467.565 -4.50122 4.14797 0
M  V30 5134 N 466.702 -5.7037 4.09418 0
M  V30 5135 H 471.542 -1.48643 2.58281 0
M  V30 5136 H 469.079 -0.723516 1.28077 0
M  V30 5137 H 471.037 -3.80671 1.70719 0
M  V30 5138 H 469.667 -3.13036 0.787918 0
M  V30 5139 H 468.719 -2.27239 3.05068 0
M  V30 5140 H 470.031 -3.15275 3.86527 0
M  V30 5141 H 469.185 -5.31385 2.92772 0
M  V30 5142 H 467.924 -4.44398 2.00902 0
M  V30 5143 H 466.929 -3.60133 4.15433 0
M  V30 5144 H 468.154 -4.50445 5.08208 0
M  V30 5145 H 466.1 -5.72655 3.20004 0
M  V30 5146 H 466.017 -5.73036 4.93119 0
M  V30 5147 H 467.285 -6.61023 4.13121 0
M  V30 5148 N 471.514 -1.37532 -0.769588 0
M  V30 5149 C 472.444 -1.36172 -1.89682 0
M  V30 5150 C 473.425 -0.23001 -1.68538 0
M  V30 5151 O 474.61 -0.43069 -1.89364 0
M  V30 5152 C 471.74 -1.1701 -3.26995 0
M  V30 5153 C 470.694 -2.27216 -3.62708 0
M  V30 5154 C 470.02 -1.93174 -4.98586 0
M  V30 5155 C 471.32 -3.6941 -3.69234 0
M  V30 5156 H 473.014 -2.30499 -1.91078 0
M  V30 5157 H 470.56 -1.10953 -0.917902 0
M  V30 5158 H 472.513 -1.14688 -4.05493 0
M  V30 5159 H 471.237 -0.191395 -3.26039 0
M  V30 5160 H 469.896 -2.28697 -2.86519 0
M  V30 5161 H 469.544 -0.938281 -4.94171 0
M  V30 5162 H 469.244 -2.66973 -5.23449 0
M  V30 5163 H 470.768 -1.92443 -5.79481 0
M  V30 5164 H 472.182 -3.70047 -4.37879 0
M  V30 5165 H 470.579 -4.4228 -4.05597 0
M  V30 5166 H 471.649 -4.0288 -2.69844 0
M  V30 5167 N 472.992 0.995999 -1.22138 0
M  V30 5168 C 473.942 2.06988 -0.956042 0
M  V30 5169 C 474.926 1.60636 0.0921576 0
M  V30 5170 O 476.118 1.76607 -0.117958 0
M  V30 5171 C 473.247 3.39148 -0.532335 0
M  V30 5172 C 472.333 3.92142 -1.61509 0
M  V30 5173 N 472.724 4.18397 -2.84214 0
M  V30 5174 C 471.022 4.20514 -1.48606 0
M  V30 5175 C 471.723 4.61425 -3.54206 0
M  V30 5176 N 470.699 4.64934 -2.81669 0
M  V30 5177 H 474.501 2.25223 -1.88816 0
M  V30 5178 H 472.015 1.17748 -1.11845 0
M  V30 5179 H 474.012 4.15642 -0.323574 0
M  V30 5180 H 472.672 3.22314 0.392921 0
M  V30 5181 H 473.683 4.06682 -3.20671 0
M  V30 5182 H 470.36 4.12769 -0.626762 0
M  V30 5183 H 471.75 4.90387 -4.59315 0
M  V30 5184 N 474.47 1.03057 1.19235 0
M  V30 5185 C 475.403 0.557384 2.21288 0
M  V30 5186 C 476.381 -0.402675 1.57535 0
M  V30 5187 O 477.565 -0.319376 1.85775 0
M  V30 5188 C 474.692 -0.187041 3.38183 0
M  V30 5189 C 473.738 0.72471 4.20298 0
M  V30 5190 S 474.571 2.20187 4.88137 0
M  V30 5191 C 475.727 1.46801 6.08441 0
M  V30 5192 H 475.96 1.42207 2.61083 0
M  V30 5193 H 473.493 0.840651 1.29508 0
M  V30 5194 H 475.451 -0.610405 4.05936 0
M  V30 5195 H 474.112 -1.02748 2.96819 0
M  V30 5196 H 473.305 0.149911 5.03777 0
M  V30 5197 H 472.907 1.08647 3.57871 0
M  V30 5198 H 475.199 0.755522 6.73274 0
M  V30 5199 H 476.142 2.27946 6.70407 0
M  V30 5200 H 476.55 0.964762 5.56195 0
M  V30 5201 N 475.948 -1.35272 0.808662 0
M  V30 5202 C 476.896 -2.31663 0.208606 0
M  V30 5203 C 477.89 -1.56731 -0.642778 0
M  V30 5204 O 479.096 -1.71843 -0.53571 0
M  V30 5205 H 475.471 -0.750421 0.0486993 0
M  V30 5206 H 477.442 -2.79814 1.03666 0
M  V30 5207 C 476.191 -3.42008 -0.626573 0
M  V30 5208 H 475.514 -3.99795 0.0192103 0
M  V30 5209 H 476.954 -4.11727 -1.01278 0
M  V30 5210 C 475.413 -2.85226 -1.79298 0
M  V30 5211 O 475.943 -2.78945 -2.89055 0
M  V30 5212 N 474.149 -2.42245 -1.60516 0
M  V30 5213 H 473.696 -2.47554 -0.712375 0
M  V30 5214 H 473.654 -2.04603 -2.38715 0
M  V30 5215 N 477.426 -0.562348 -1.47226 0
M  V30 5216 C 478.356 0.170627 -2.32876 0
M  V30 5217 C 479.337 0.903748 -1.44106 0
M  V30 5218 O 480.522 0.883206 -1.72954 0
M  V30 5219 C 477.652 1.19786 -3.25989 0
M  V30 5220 C 476.606 0.580875 -4.2404 0
M  V30 5221 C 475.932 1.71311 -5.06514 0
M  V30 5222 C 477.232 -0.468714 -5.20193 0
M  V30 5223 H 478.926 -0.544441 -2.94408 0
M  V30 5224 H 476.472 -0.263271 -1.41573 0
M  V30 5225 H 478.425 1.71884 -3.84752 0
M  V30 5226 H 477.149 1.94294 -2.62521 0
M  V30 5227 H 475.808 0.0811538 -3.6651 0
M  V30 5228 H 475.456 2.44736 -4.39447 0
M  V30 5229 H 475.156 1.30604 -5.72902 0
M  V30 5230 H 476.68 2.23725 -5.68137 0
M  V30 5231 H 478.094 -0.0336028 -5.7329 0
M  V30 5232 H 476.491 -0.794957 -5.94811 0
M  V30 5233 H 477.561 -1.36269 -4.65359 0
M  V30 5234 N 478.904 1.54736 -0.299062 0
M  V30 5235 C 479.854 2.20155 0.592932 0
M  V30 5236 C 480.838 1.1739 1.10038 0
M  V30 5237 O 482.03 1.43116 1.04147 0
M  V30 5238 C 479.159 2.94437 1.76527 0
M  V30 5239 C 478.245 4.04516 1.27388 0
M  V30 5240 N 478.636 5.03319 0.500339 0
M  V30 5241 C 476.934 4.18022 1.55478 0
M  V30 5242 C 477.635 5.81209 0.238909 0
M  V30 5243 N 476.611 5.37408 0.818163 0
M  V30 5244 H 480.413 2.93899 -0.00563596 0
M  V30 5245 H 477.927 1.62068 -0.103732 0
M  V30 5246 H 479.924 3.3977 2.41582 0
M  V30 5247 H 478.584 2.22209 2.36756 0
M  V30 5248 H 479.595 5.17696 0.145419 0
M  V30 5249 H 476.272 3.56998 2.16469 0
M  V30 5250 H 477.662 6.70812 -0.382223 0
M  V30 5251 N 480.382 0.0267497 1.57577 0
M  V30 5252 C 481.607 -0.666227 1.96408 0
M  V30 5253 C 482.032 -1.65004 0.903071 0
M  V30 5254 O 481.39 -1.80787 -0.136263 0
M  V30 5255 C 481.438 -1.35101 3.34335 0
M  V30 5256 O 480.542 -2.46623 3.30531 0
M  V30 5257 H 479.883 -0.175206 0.640468 0
M  V30 5258 H 482.413 0.0878977 2.04411 0
M  V30 5259 H 482.423 -1.70834 3.70513 0
M  V30 5260 H 481.098 -0.629844 4.11103 0
M  V30 5261 H 479.675 -2.13019 3.06068 0
M  V30 5262 N 481.861 -1.55662 -0.24637 0
M  V30 5263 C 483.272 -1.67953 -0.81539 0
M  V30 5264 C 483.623 -0.624302 -1.86002 0
M  V30 5265 O 482.748 0.229328 -2.15181 0
M  V30 5266 C 483.343 -3.04484 -1.48576 0
M  V30 5267 C 481.902 -3.18713 -2.00248 0
M  V30 5268 C 481.049 -2.6383 -0.853766 0
M  V30 5269 H 484 -1.58685 -0.0221692 0
M  V30 5270 H 484.021 -2.98959 -2.3538 0
M  V30 5271 H 483.533 -3.81264 -0.725222 0
M  V30 5272 H 481.634 -2.46757 -2.79181 0
M  V30 5273 H 481.747 -4.25628 -2.1995 0
M  V30 5274 H 480.111 -2.21667 -1.25442 0
M  V30 5275 H 480.894 -3.43135 -0.106302 0
M  V30 5276 N 483.339 0.512053 -1.4905 0
M  V30 5277 C 484.587 1.26436 -1.57665 0
M  V30 5278 C 484.908 1.93255 -0.260293 0
M  V30 5279 O 484.178 1.82206 0.719564 0
M  V30 5280 H 482.758 0.469658 -0.580888 0
M  V30 5281 H 485.42 0.594398 -1.85615 0
M  V30 5282 H 484.516 2.03417 -2.36702 0
M  V30 5283 N 484.817 1.37938 0.762283 0
M  V30 5284 C 486.063 1.33866 1.52341 0
M  V30 5285 C 486.396 -0.0738961 1.94059 0
M  V30 5286 O 485.671 -1.03326 1.64785 0
M  V30 5287 C 485.954 2.28644 2.78197 0
M  V30 5288 C 485.807 3.78722 2.42672 0
M  V30 5289 C 487.126 2.21702 3.80179 0
M  V30 5290 H 484.245 0.487593 0.55265 0
M  V30 5291 H 486.887 1.68717 0.873767 0
M  V30 5292 H 485.037 1.99055 3.33631 0
M  V30 5293 H 486.709 4.18948 1.93081 0
M  V30 5294 H 484.952 3.96827 1.75244 0
M  V30 5295 H 485.623 4.40486 3.3268 0
M  V30 5296 H 488.099 2.47805 3.34263 0
M  V30 5297 H 486.975 2.90143 4.65949 0
M  V30 5298 H 487.236 1.21301 4.25133 0
M  V30 5299 N 486.295 -0.989507 1.22664 0
M  V30 5300 C 487.711 -1.25395 0.987331 0
M  V30 5301 C 487.911 -1.9899 -0.317056 0
M  V30 5302 O 486.967 -2.30141 -1.03882 0
M  V30 5303 C 488.28 -2.06242 2.18826 0
M  V30 5304 C 489.828 -2.19413 2.23219 0
M  V30 5305 C 490.303 -3.03648 3.42873 0
M  V30 5306 N 491.794 -3.11234 3.43056 0
M  V30 5307 C 492.529 -3.7671 4.32293 0
M  V30 5308 N 492.025 -4.44085 5.31752 0
M  V30 5309 N 493.818 -3.73505 4.2006 0
M  V30 5310 H 485.969 -0.496212 2.06522 0
M  V30 5311 H 488.232 -0.281784 0.905153 0
M  V30 5312 H 487.938 -1.59531 3.13437 0
M  V30 5313 H 487.812 -3.06996 2.19165 0
M  V30 5314 H 490.199 -2.65336 1.29154 0
M  V30 5315 H 490.28 -1.18078 2.26917 0
M  V30 5316 H 489.924 -2.58424 4.37241 0
M  V30 5317 H 489.854 -4.05132 3.36416 0
M  V30 5318 H 492.345 -2.63287 2.71088 0
M  V30 5319 H 492.658 -4.91797 5.96117 0
M  V30 5320 H 491.003 -4.42822 5.35662 0
M  V30 5321 H 494.194 -3.20033 3.41609 0
M  V30 5322 H 494.367 -4.24253 4.8981 0
M  V30 5323 N 487.773 -1.03688 -1.18687 0
M  V30 5324 C 489.184 -0.766488 -1.70241 0
M  V30 5325 C 489.535 0.713052 -1.82784 0
M  V30 5326 O 488.66 1.55529 -1.50465 0
M  V30 5327 C 489.255 -1.38475 -3.09209 0
M  V30 5328 C 487.814 -1.16276 -3.5799 0
M  V30 5329 C 486.961 -1.4778 -2.34641 0
M  V30 5330 H 489.912 -1.20378 -1.03415 0
M  V30 5331 H 489.933 -0.785939 -3.72295 0
M  V30 5332 H 489.445 -2.46157 -3.00048 0
M  V30 5333 H 487.546 -0.104508 -3.72453 0
M  V30 5334 H 487.659 -1.8571 -4.41643 0
M  V30 5335 H 486.023 -0.897366 -2.38368 0
M  V30 5336 H 486.806 -2.56562 -2.28102 0
M  V30 5337 N 489.251 1.34841 -0.815825 0
M  V30 5338 C 490.161 2.33425 -0.234462 0
M  V30 5339 C 491.177 1.62295 0.627413 0
M  V30 5340 O 492.353 1.94109 0.536987 0
M  V30 5341 C 489.418 3.41471 0.599849 0
M  V30 5342 C 488.479 4.28362 -0.283596 0
M  V30 5343 C 487.712 5.31248 0.51099 0
M  V30 5344 O 487.935 5.43056 1.7449 0
M  V30 5345 O 486.869 6.01812 -0.10297 0
M  V30 5346 H 490.695 2.84962 -1.05024 0
M  V30 5347 H 488.28 1.37774 -0.577809 0
M  V30 5348 H 490.162 4.07464 1.07475 0
M  V30 5349 H 488.837 2.9219 1.39308 0
M  V30 5350 H 487.744 3.65318 -0.805836 0
M  V30 5351 H 489.077 4.81066 -1.041 0
M  V30 5352 N 490.729 0.570148 1.46925 0
M  V30 5353 C 491.975 0.0510284 2.02736 0
M  V30 5354 C 492.308 -1.3006 1.44215 0
M  V30 5355 O 491.583 -1.84932 0.602521 0
M  V30 5356 C 491.866 -0.028215 3.60089 0
M  V30 5357 C 491.719 1.35142 4.29018 0
M  V30 5358 C 493.038 -0.735181 4.33916 0
M  V30 5359 H 490.157 0.0200178 0.736728 0
M  V30 5360 H 492.799 0.73493 1.75211 0
M  V30 5361 H 490.949 -0.610648 3.83671 0
M  V30 5362 H 492.621 1.97806 4.16738 0
M  V30 5363 H 490.864 1.9226 3.88868 0
M  V30 5364 H 491.535 1.24857 5.37694 0
M  V30 5365 H 494.011 -0.240519 4.15404 0
M  V30 5366 H 492.887 -0.759622 5.43618 0
M  V30 5367 H 493.148 -1.79397 4.04066 0
M  V30 5368 N 492.207 -1.54576 0.307264 0
M  V30 5369 C 493.117 -2.27435 -0.57536 0
M  V30 5370 C 494.133 -1.31183 -1.14311 0
M  V30 5371 O 495.309 -1.64175 -1.16656 0
M  V30 5372 C 492.374 -3.00566 -1.72803 0
M  V30 5373 C 491.435 -4.12369 -1.19373 0
M  V30 5374 C 490.668 -4.82003 -2.29147 0
M  V30 5375 O 490.891 -4.51038 -3.49171 0
M  V30 5376 O 489.825 -5.69271 -1.95485 0
M  V30 5377 H 493.651 -3.03696 0.0158558 0
M  V30 5378 H 491.236 -1.49219 0.0735064 0
M  V30 5379 H 493.118 -3.46416 -2.39946 0
M  V30 5380 H 491.793 -2.27195 -2.30574 0
M  V30 5381 H 490.7 -3.70905 -0.487851 0
M  V30 5382 H 492.033 -4.87736 -0.661376 0
M  V30 5383 N 493.685 -0.035106 -1.57561 0
M  V30 5384 C 494.633 0.962707 -2.11742 0
M  V30 5385 C 495.627 1.33296 -1.0454 0
M  V30 5386 O 496.833 1.31449 -1.22968 0
M  V30 5387 H 493.208 0.32826 -0.676572 0
M  V30 5388 H 495.179 0.48048 -2.94506 0
M  V30 5389 C 493.928 2.23388 -2.66445 0
M  V30 5390 H 493.251 1.95774 -3.48587 0
M  V30 5391 H 494.691 2.91402 -3.07995 0
M  V30 5392 C 493.15 2.96769 -1.59467 0
M  V30 5393 O 493.68 3.89105 -0.998 0
M  V30 5394 N 491.886 2.59212 -1.31369 0
M  V30 5395 H 491.433 1.84202 -1.80076 0
M  V30 5396 H 491.391 3.08618 -0.600173 0
M  V30 5397 N 495.163 1.55791 0.238111 0
M  V30 5398 C 496.579 1.48411 0.587045 0
M  V30 5399 C 496.779 0.72702 1.87927 0
M  V30 5400 O 495.835 0.259942 2.51158 0
M  V30 5401 C 497.148 2.92873 0.681623 0
M  V30 5402 C 498.696 3.03295 0.773363 0
M  V30 5403 C 499.171 4.49082 0.899428 0
M  V30 5404 N 500.662 4.53056 0.964075 0
M  V30 5405 C 501.397 5.63117 1.08104 0
M  V30 5406 N 500.893 6.82969 1.16299 0
M  V30 5407 N 502.686 5.50933 1.11488 0
M  V30 5408 H 494.837 2.0345 -0.610076 0
M  V30 5409 H 497.1 0.924034 -0.211813 0
M  V30 5410 H 496.806 3.51142 -0.19802 0
M  V30 5411 H 496.68 3.43851 1.55069 0
M  V30 5412 H 499.067 2.45101 1.64346 0
M  V30 5413 H 499.148 2.55513 -0.121034 0
M  V30 5414 H 498.792 5.07889 0.0338586 0
M  V30 5415 H 498.722 4.94553 1.809 0
M  V30 5416 H 501.213 3.66737 0.91173 0
M  V30 5417 H 501.526 7.62598 1.25155 0
M  V30 5418 H 499.871 6.85712 1.13241 0
M  V30 5419 H 503.062 4.56231 1.0474 0
M  V30 5420 H 503.235 6.36743 1.20259 0
M  V30 5421 N 496.642 -0.504142 1.49319 0
M  V30 5422 C 498.053 -1.08572 1.51885 0
M  V30 5423 C 498.404 -1.93842 0.303255 0
M  V30 5424 O 497.529 -2.0828 -0.58724 0
M  V30 5425 C 498.124 -1.97574 2.75227 0
M  V30 5426 C 496.683 -2.509 2.80581 0
M  V30 5427 C 495.83 -1.28447 2.45757 0
M  V30 5428 H 498.781 -0.288194 1.56061 0
M  V30 5429 H 498.802 -2.82219 2.55211 0
M  V30 5430 H 498.314 -1.35486 3.63683 0
M  V30 5431 H 496.415 -3.16636 1.96398 0
M  V30 5432 H 496.528 -2.88268 3.82673 0
M  V30 5433 H 494.892 -1.60868 1.97468 0
M  V30 5434 H 495.675 -0.68072 3.36483 0
M  V30 5435 N 498.12 -1.38341 -0.754957 0
M  V30 5436 C 499.531 -1.30803 -1.3322 0
M  V30 5437 C 499.882 0.0368 -1.96165 0
M  V30 5438 O 499.007 0.938844 -1.94974 0
M  V30 5439 C 499.602 -2.3688 -2.42225 0
M  V30 5440 C 498.161 -2.32925 -2.95674 0
M  V30 5441 C 497.308 -2.19819 -1.69042 0
M  V30 5442 H 500.259 -1.48719 -0.553937 0
M  V30 5443 H 500.28 -2.02517 -3.22129 0
M  V30 5444 H 499.792 -3.34747 -1.96383 0
M  V30 5445 H 497.893 -1.38635 -3.45848 0
M  V30 5446 H 498.006 -3.27008 -3.50146 0
M  V30 5447 H 496.37 -1.66648 -1.92615 0
M  V30 5448 H 497.153 -3.19625 -1.25279 0
M  V30 5449 N 499.598 0.982988 -1.23187 0
M  V30 5450 C 500.508 2.10907 -1.02739 0
M  V30 5451 C 501.524 1.73979 0.0273188 0
M  V30 5452 O 502.7 2.00702 -0.16757 0
M  V30 5453 C 499.765 3.41142 -0.618304 0
M  V30 5454 C 498.826 3.92112 -1.74777 0
M  V30 5455 C 498.059 5.16131 -1.3581 0
M  V30 5456 O 498.282 5.6989 -0.241201 0
M  V30 5457 O 497.216 5.61103 -2.17824 0
M  V30 5458 H 501.042 2.31046 -1.97108 0
M  V30 5459 H 498.627 1.09284 -1.01869 0
M  V30 5460 H 500.509 4.19488 -0.400982 0
M  V30 5461 H 499.184 3.2234 0.296421 0
M  V30 5462 H 498.091 3.14895 -2.0197 0
M  V30 5463 H 499.424 4.15364 -2.64071 0
M  V30 5464 N 501.076 1.04316 1.18135 0
M  V30 5465 C 502.304 0.768117 1.92113 0
M  V30 5466 C 502.719 -0.675057 1.76319 0
M  V30 5467 O 502.076 -1.46038 1.09449 0
M  V30 5468 C 502.127 1.12808 3.43448 0
M  V30 5469 O 501.848 2.5146 3.58747 0
M  V30 5470 C 503.349 0.8779 4.3452 0
M  V30 5471 H 500.569 0.279937 0.609817 0
M  V30 5472 H 503.113 1.39149 1.49859 0
M  V30 5473 H 501.268 0.549623 3.83481 0
M  V30 5474 H 501.682 2.65313 4.52448 0
M  V30 5475 H 503.156 1.17959 5.39249 0
M  V30 5476 H 503.633 -0.187239 4.38801 0
M  V30 5477 H 504.239 1.43977 4.00188 0
M  V30 5478 N 502.554 -1.34406 0.822964 0
M  V30 5479 C 503.486 -2.28305 0.202375 0
M  V30 5480 C 504.499 -1.5103 -0.60777 0
M  V30 5481 O 505.688 -1.73057 -0.437444 0
M  V30 5482 C 502.788 -3.30836 -0.734911 0
M  V30 5483 C 501.961 -4.37388 0.0324177 0
M  V30 5484 C 501.02 -5.1968 -0.825803 0
M  V30 5485 O 500.046 -5.68556 -0.270771 0
M  V30 5486 N 501.248 -5.39393 -2.14558 0
M  V30 5487 H 504.013 -2.82201 1.00909 0
M  V30 5488 H 501.574 -1.4693 0.67993 0
M  V30 5489 H 503.566 -3.82786 -1.31365 0
M  V30 5490 H 502.136 -2.77334 -1.44238 0
M  V30 5491 H 501.356 -3.86152 0.792469 0
M  V30 5492 H 502.644 -5.05702 0.560633 0
M  V30 5493 H 502.042 -5.01357 -2.62025 0
M  V30 5494 H 500.599 -5.94461 -2.67318 0
M  V30 5495 N 504.032 -0.577932 -1.46621 0
M  V30 5496 C 504.995 0.147805 -2.28723 0
M  V30 5497 C 505.995 0.823325 -1.38123 0
M  V30 5498 O 507.185 0.676011 -1.60548 0
M  V30 5499 C 504.317 1.21853 -3.18378 0
M  V30 5500 H 505.51 -0.573654 -2.94362 0
M  V30 5501 H 503.063 -0.335703 -1.52652 0
M  V30 5502 H 503.798 1.97173 -2.57475 0
M  V30 5503 H 503.583 0.738714 -3.85078 0
M  V30 5504 H 505.073 1.72768 -3.80186 0
M  V30 5505 N 505.51 1.54411 -0.315457 0
M  V30 5506 C 506.735 2.05299 0.294496 0
M  V30 5507 C 507.16 1.19052 1.4563 0
M  V30 5508 O 506.518 0.197804 1.80218 0
M  V30 5509 C 506.566 3.5345 0.714549 0
M  V30 5510 O 505.67 3.70175 1.81781 0
M  V30 5511 H 505.011 0.661743 0.0547019 0
M  V30 5512 H 507.541 1.99327 -0.461508 0
M  V30 5513 H 507.551 3.9557 0.999426 0
M  V30 5514 H 506.226 4.1568 -0.135244 0
M  V30 5515 H 504.803 3.3996 1.53236 0
M  V30 5516 N 506.988 0.0434614 1.5754 0
M  V30 5517 C 507.898 -0.94893 2.14552 0
M  V30 5518 C 508.914 -1.34707 1.10136 0
M  V30 5519 O 510.09 -1.42557 1.42266 0
M  V30 5520 C 507.155 -2.208 2.67298 0
M  V30 5521 C 506.216 -1.86893 3.86484 0
M  V30 5522 C 505.449 -3.06797 4.36705 0
M  V30 5523 O 505.672 -4.19921 3.86034 0
M  V30 5524 O 504.606 -2.8826 5.28384 0
M  V30 5525 H 508.432 -0.494099 2.99654 0
M  V30 5526 H 506.017 -0.177989 1.48336 0
M  V30 5527 H 507.899 -2.94686 3.01228 0
M  V30 5528 H 506.574 -2.65436 1.85272 0
M  V30 5529 H 505.481 -1.10347 3.57455 0
M  V30 5530 H 506.814 -1.47062 4.69716 0
M  V30 5531 N 508.466 -1.55915 -0.229846 0
M  V30 5532 C 509.694 -1.82617 -0.972562 0
M  V30 5533 C 510.109 -0.621488 -1.78278 0
M  V30 5534 O 509.466 0.409956 -1.77836 0
M  V30 5535 C 509.517 -3.0774 -1.89679 0
M  V30 5536 O 509.238 -4.23559 -1.11934 0
M  V30 5537 C 510.739 -3.47368 -2.75409 0
M  V30 5538 H 507.959 -0.60727 -0.285419 0
M  V30 5539 H 510.503 -2.02996 -0.247579 0
M  V30 5540 H 508.658 -2.89361 -2.57583 0
M  V30 5541 H 509.072 -4.94586 -1.74599 0
M  V30 5542 H 510.546 -4.37977 -3.35977 0
M  V30 5543 H 511.023 -2.68737 -3.47386 0
M  V30 5544 H 511.629 -3.68158 -2.12931 0
M  V30 5545 N 509.944 0.496216 -1.49584 0
M  V30 5546 C 511.169 1.27865 -1.63295 0
M  V30 5547 C 511.594 1.85592 -0.306156 0
M  V30 5548 O 510.952 1.66092 0.726851 0
M  V30 5549 C 511 2.38128 -2.7079 0
M  V30 5550 O 510.104 3.42108 -2.30296 0
M  V30 5551 H 509.445 0.377279 -0.546403 0
M  V30 5552 H 511.975 0.593497 -1.95803 0
M  V30 5553 H 511.985 2.8382 -2.93104 0
M  V30 5554 H 510.66 1.95479 -3.67098 0
M  V30 5555 H 509.237 3.02301 -2.18331 0
M  V30 5556 N 511.423 1.38739 0.74761 0
M  V30 5557 C 512.839 1.20067 1.05148 0
M  V30 5558 C 513.039 0.0534835 2.01429 0
M  V30 5559 O 512.095 -0.59886 2.45296 0
M  V30 5560 C 513.408 2.52957 1.62584 0
M  V30 5561 C 514.956 2.59692 1.74726 0
M  V30 5562 C 515.431 3.92772 2.35573 0
M  V30 5563 N 516.922 3.94343 2.42997 0
M  V30 5564 C 517.657 4.9408 2.90985 0
M  V30 5565 N 517.153 6.04214 3.38965 0
M  V30 5566 N 518.946 4.81466 2.9008 0
M  V30 5567 H 511.097 2.12121 0.108808 0
M  V30 5568 H 513.36 0.941491 0.110899 0
M  V30 5569 H 513.066 3.37389 0.993051 0
M  V30 5570 H 512.94 2.71779 2.61565 0
M  V30 5571 H 515.327 1.75651 2.3713 0
M  V30 5572 H 515.408 2.44731 0.744326 0
M  V30 5573 H 515.052 4.77238 1.738 0
M  V30 5574 H 514.982 4.05046 3.36519 0
M  V30 5575 H 517.473 3.14799 2.0907 0
M  V30 5576 H 517.786 6.76241 3.74056 0
M  V30 5577 H 516.131 6.07825 3.37007 0
M  V30 5578 H 519.322 3.94535 2.51912 0
M  V30 5579 H 519.495 5.59344 3.27166 0
M  V30 5580 N 512.901 -0.976442 1.23707 0
M  V30 5581 C 514.312 -1.53284 1.06587 0
M  V30 5582 C 514.663 -1.92765 -0.365526 0
M  V30 5583 O 513.788 -1.7645 -1.25277 0
M  V30 5584 C 514.383 -2.78548 1.92864 0
M  V30 5585 C 512.942 -3.30574 1.79994 0
M  V30 5586 C 512.089 -2.03538 1.88328 0
M  V30 5587 H 515.04 -0.795692 1.37311 0
M  V30 5588 H 515.061 -3.5155 1.45577 0
M  V30 5589 H 514.573 -2.49782 2.97037 0
M  V30 5590 H 512.674 -3.64211 0.786202 0
M  V30 5591 H 512.787 -4.00065 2.636 0
M  V30 5592 H 511.151 -2.17853 1.31954 0
M  V30 5593 H 511.934 -1.77149 2.94063 0
M  V30 5594 N 514.379 -1.04941 -1.1758 0
M  V30 5595 C 515.604 -0.778253 -1.92245 0
M  V30 5596 C 516.029 0.659707 -1.76152 0
M  V30 5597 O 515.387 1.45803 -1.07755 0
M  V30 5598 C 515.435 -1.16051 -3.41416 0
M  V30 5599 O 514.539 -0.291153 -4.11371 0
M  V30 5600 H 513.88 -0.285619 -0.599431 0
M  V30 5601 H 516.41 -1.40159 -1.49052 0
M  V30 5602 H 516.42 -1.12619 -3.92149 0
M  V30 5603 H 515.095 -2.208 -3.52449 0
M  V30 5604 H 513.672 -0.385851 -3.70898 0
M  V30 5605 N 515.857 1.33968 -0.830081 0
M  V30 5606 C 517.082 2.02813 -0.433796 0
M  V30 5607 C 517.507 1.62076 0.954614 0
M  V30 5608 O 516.865 0.808955 1.62252 0
M  V30 5609 C 516.913 3.56348 -0.552115 0
M  V30 5610 O 516.017 4.10202 0.425191 0
M  V30 5611 H 515.358 0.639817 -0.177567 0
M  V30 5612 H 517.888 1.7106 -1.12248 0
M  V30 5613 H 517.898 4.05722 -0.430513 0
M  V30 5614 H 516.573 3.85344 -1.56471 0
M  V30 5615 H 515.15 3.71979 0.261878 0
M  V30 5616 N 517.335 0.585699 1.46312 0
M  V30 5617 C 518.746 0.159938 1.86014 0
M  V30 5618 C 519.097 -1.27775 1.48889 0
M  V30 5619 O 518.222 -1.96559 0.90519 0
M  V30 5620 C 518.817 0.283485 3.37612 0
M  V30 5621 C 517.376 -0.0874256 3.76298 0
M  V30 5622 C 516.523 0.618055 2.70325 0
M  V30 5623 H 519.474 0.793737 1.37425 0
M  V30 5624 H 519.495 -0.490348 3.77327 0
M  V30 5625 H 519.007 1.32995 3.64601 0
M  V30 5626 H 517.108 -1.13391 3.54927 0
M  V30 5627 H 517.221 0.290975 4.78216 0
M  V30 5628 H 515.585 0.057993 2.54634 0
M  V30 5629 H 516.368 1.66623 3.00153 0
M  V30 5630 N 518.813 -1.54241 0.323641 0
M  V30 5631 C 519.723 -2.28033 -0.551205 0
M  V30 5632 C 520.739 -1.32388 -1.12913 0
M  V30 5633 O 521.915 -1.65403 -1.14908 0
M  V30 5634 C 518.98 -3.02382 -1.69606 0
M  V30 5635 C 518.041 -4.13612 -1.14993 0
M  V30 5636 C 517.274 -4.84407 -2.24022 0
M  V30 5637 O 517.497 -4.54716 -3.44368 0
M  V30 5638 O 516.431 -5.71312 -1.89436 0
M  V30 5639 H 520.257 -3.03662 0.048066 0
M  V30 5640 H 517.842 -1.49133 0.0893289 0
M  V30 5641 H 519.724 -3.48941 -2.36259 0
M  V30 5642 H 518.399 -2.29628 -2.28151 0
M  V30 5643 H 517.306 -3.71402 -0.448484 0
M  V30 5644 H 518.639 -4.8841 -0.609608 0
M  V30 5645 N 520.291 -0.0518155 -1.57515 0
M  V30 5646 C 521.54 0.621286 -1.91893 0
M  V30 5647 C 521.853 1.71966 -0.932052 0
M  V30 5648 O 523.059 2.45096 -1.16791 0
M  V30 5649 C 521.515 1.15641 -3.40816 0
M  V30 5650 C 521.123 0.0901146 -4.47909 0
M  V30 5651 C 522.867 1.80472 -3.84227 0
M  V30 5652 C 520.774 0.638154 -5.87947 0
M  V30 5653 H 519.704 0.235835 -0.716169 0
M  V30 5654 H 522.355 -0.120809 -1.83102 0
M  V30 5655 H 520.737 1.95084 -3.44613 0
M  V30 5656 H 521.911 -0.683525 -4.55702 0
M  V30 5657 H 520.226 -0.460774 -4.13843 0
M  V30 5658 H 522.823 2.22471 -4.86221 0
M  V30 5659 H 523.166 2.65669 -3.20508 0
M  V30 5660 H 523.699 1.07683 -3.82948 0
M  V30 5661 H 520.438 -0.176202 -6.55263 0
M  V30 5662 H 519.958 1.37976 -5.83714 0
M  V30 5663 H 521.637 1.12085 -6.37217 0
M  V30 5664 N 521.769 1.56035 0.221574 0
M  V30 5665 C 522.997 1.8313 0.962864 0
M  V30 5666 C 523.412 0.630934 1.77946 0
M  V30 5667 O 522.769 -0.400519 1.78051 0
M  V30 5668 C 522.82 3.08742 1.88045 0
M  V30 5669 O 522.541 4.24147 1.09686 0
M  V30 5670 C 524.042 3.48824 2.73563 0
M  V30 5671 H 521.262 0.608775 0.282194 0
M  V30 5672 H 523.806 2.03124 0.23681 0
M  V30 5673 H 521.961 2.90723 2.56045 0
M  V30 5674 H 522.375 4.95505 1.71974 0
M  V30 5675 H 523.849 4.39752 3.3365 0
M  V30 5676 H 524.326 2.70575 3.45956 0
M  V30 5677 H 524.932 3.69282 2.10976 0
M  V30 5678 N 523.247 -0.488276 1.49845 0
M  V30 5679 C 524.496 -1.23826 1.59217 0
M  V30 5680 C 524.809 -1.93439 0.289966 0
M  V30 5681 O 526.015 -2.70229 0.262382 0
M  V30 5682 C 524.471 -2.24902 2.80976 0
M  V30 5683 C 524.079 -1.6117 4.18005 0
M  V30 5684 C 525.823 -3.00648 2.99685 0
M  V30 5685 C 523.73 -2.60431 5.3097 0
M  V30 5686 H 522.66 -0.465858 0.592868 0
M  V30 5687 H 525.311 -0.510645 1.76252 0
M  V30 5688 H 523.693 -3.0088 2.57463 0
M  V30 5689 H 524.867 -0.910968 4.51706 0
M  V30 5690 H 523.182 -0.97767 4.0476 0
M  V30 5691 H 525.779 -3.74903 3.81251 0
M  V30 5692 H 526.122 -3.5902 2.10738 0
M  V30 5693 H 526.655 -2.31784 3.23297 0
M  V30 5694 H 523.394 -2.06823 6.22017 0
M  V30 5695 H 522.914 -3.28707 5.01709 0
M  V30 5696 H 524.593 -3.22606 5.60834 0
M  V30 5697 N 524.725 -1.39134 -0.740242 0
M  V30 5698 C 525.953 -1.39334 -1.5295 0
M  V30 5699 C 526.368 0.0135008 -1.88795 0
M  V30 5700 O 525.725 0.983524 -1.5373 0
M  V30 5701 C 525.776 -2.2614 -2.82034 0
M  V30 5702 O 525.497 -3.61345 -2.47712 0
M  V30 5703 C 526.998 -2.34666 -3.76094 0
M  V30 5704 H 524.218 -0.476103 -0.472828 0
M  V30 5705 H 526.762 -1.82883 -0.9151 0
M  V30 5706 H 524.917 -1.86018 -3.39818 0
M  V30 5707 H 525.331 -4.07194 -3.30595 0
M  V30 5708 H 526.805 -2.99663 -4.63579 0
M  V30 5709 H 527.282 -1.36426 -4.17474 0
M  V30 5710 H 527.888 -2.75236 -3.2423 0
M  V30 5711 N 526.204 0.969867 -1.24223 0
M  V30 5712 C 527.114 2.09806 -1.0497 0
M  V30 5713 C 528.13 1.73998 0.00886455 0
M  V30 5714 O 529.306 2.00513 -0.188848 0
M  V30 5715 C 526.371 3.40467 -0.654452 0
M  V30 5716 C 525.432 3.90236 -1.78926 0
M  V30 5717 C 524.665 5.14662 -1.41277 0
M  V30 5718 O 524.888 5.69602 -0.301632 0
M  V30 5719 O 523.822 5.58761 -2.23763 0
M  V30 5720 H 527.648 2.28942 -1.99548 0
M  V30 5721 H 525.233 1.08197 -1.03023 0
M  V30 5722 H 527.115 4.19039 -0.445452 0
M  V30 5723 H 525.79 3.22636 0.262216 0
M  V30 5724 H 524.697 3.12735 -2.05299 0
M  V30 5725 H 526.03 4.1254 -2.68462 0
M  V30 5726 N 527.682 1.05563 1.17022 0
M  V30 5727 C 528.645 0.664098 2.19368 0
M  V30 5728 C 529.645 -0.286358 1.5823 0
M  V30 5729 O 530.835 -0.069728 1.7406 0
M  V30 5730 C 527.967 -0.0239932 3.40892 0
M  V30 5731 H 529.16 1.57 2.55521 0
M  V30 5732 H 526.713 0.849964 1.31169 0
M  V30 5733 H 527.448 -0.942988 3.10287 0
M  V30 5734 H 527.233 0.659351 3.86516 0
M  V30 5735 H 528.723 -0.283909 4.16634 0
M  V30 5736 N 529.16 -1.33526 0.837174 0
M  V30 5737 C 530.571 -1.80182 0.489017 0
M  V30 5738 C 530.922 -1.69285 -0.991826 0
M  V30 5739 O 530.047 -1.24113 -1.77271 0
M  V30 5740 C 530.642 -3.27149 0.880866 0
M  V30 5741 C 529.201 -3.71828 0.584872 0
M  V30 5742 C 528.348 -2.54974 1.09011 0
M  V30 5743 H 531.299 -1.21071 1.02603 0
M  V30 5744 H 531.32 -3.80024 0.190239 0
M  V30 5745 H 530.832 -3.35048 1.95869 0
M  V30 5746 H 528.933 -3.69457 -0.48295 0
M  V30 5747 H 529.046 -4.65366 1.13892 0
M  V30 5748 H 527.41 -2.4952 0.511047 0
M  V30 5749 H 528.193 -2.65637 2.17467 0
M  V30 5750 N 530.638 -0.59345 -1.46 0
M  V30 5751 C 531.884 -0.0832754 -2.02629 0
M  V30 5752 C 532.217 1.27749 -1.46266 0
M  V30 5753 O 531.492 1.8395 -0.631866 0
M  V30 5754 C 531.775 -0.0290756 -3.60088 0
M  V30 5755 C 531.628 -1.41951 -4.26814 0
M  V30 5756 C 532.947 0.666055 -4.35031 0
M  V30 5757 H 530.066 -0.031736 -0.736316 0
M  V30 5758 H 532.708 -0.762711 -1.74019 0
M  V30 5759 H 530.858 0.549532 -3.84594 0
M  V30 5760 H 532.53 -2.04411 -4.13538 0
M  V30 5761 H 530.773 -1.98422 -3.8576 0
M  V30 5762 H 531.444 -1.33395 -5.3564 0
M  V30 5763 H 533.92 0.174401 -4.15734 0
M  V30 5764 H 532.796 0.673041 -5.44758 0
M  V30 5765 H 533.057 1.72946 -4.06869 0
M  V30 5766 N 532.116 1.54067 -0.331816 0
M  V30 5767 C 533.046 2.27569 0.522932 0
M  V30 5768 C 534.027 1.28679 1.11247 0
M  V30 5769 O 535.212 1.57504 1.13605 0
M  V30 5770 C 532.342 3.0397 1.67987 0
M  V30 5771 C 531.296 4.10267 1.21924 0
M  V30 5772 C 530.622 4.74555 2.46377 0
M  V30 5773 C 531.922 5.21268 0.32815 0
M  V30 5774 H 533.616 2.99264 -0.0901977 0
M  V30 5775 H 531.162 1.4393 -0.044821 0
M  V30 5776 H 533.115 3.54123 2.28418 0
M  V30 5777 H 531.839 2.29906 2.31971 0
M  V30 5778 H 530.498 3.61009 0.637809 0
M  V30 5779 H 530.146 3.97098 3.08743 0
M  V30 5780 H 529.846 5.46363 2.16243 0
M  V30 5781 H 531.37 5.27487 3.07555 0
M  V30 5782 H 532.784 5.67128 0.838978 0
M  V30 5783 H 531.181 5.99982 0.119228 0
M  V30 5784 H 532.251 4.80673 -0.638839 0
M  V30 5785 N 533.594 0.0601682 1.57485 0
M  V30 5786 C 534.871 -0.651956 1.84415 0
M  V30 5787 C 535.251 -1.88498 0.950361 0
M  V30 5788 O 534.599 -2.28496 0.0136719 0
M  V30 5789 C 534.809 -1.00069 3.34346 0
M  V30 5790 C 536.157 -1.37915 4.01578 0
M  V30 5791 O 537.181 -1.09277 3.39024 0
M  V30 5792 O 536.04 -1.91399 5.11887 0
M  V30 5793 H 533.134 -0.322668 0.761455 0
M  V30 5794 H 535.68 0.0902159 1.6946 0
M  V30 5795 H 534.452 -0.124463 3.91102 0
M  V30 5796 H 534.075 -1.80001 3.54521 0
M  V30 5797 N 535.072 -1.5615 -0.213296 0
M  V30 5798 C 536.022 -1.89485 -1.26804 0
M  V30 5799 C 537.006 -0.758713 -1.41889 0
M  V30 5800 O 538.198 -1.02127 -1.44565 0
M  V30 5801 C 535.327 -2.22219 -2.61675 0
M  V30 5802 C 534.413 -3.42245 -2.50458 0
M  V30 5803 N 534.804 -4.60645 -2.089 0
M  V30 5804 C 533.102 -3.46023 -2.81397 0
M  V30 5805 C 533.803 -5.42805 -2.09135 0
M  V30 5806 N 532.779 -4.82732 -2.49941 0
M  V30 5807 H 536.581 -2.78537 -0.937771 0
M  V30 5808 H 534.095 -1.56826 -0.421824 0
M  V30 5809 H 536.092 -2.44278 -3.37837 0
M  V30 5810 H 534.752 -1.34484 -2.95541 0
M  V30 5811 H 535.763 -4.85651 -1.79899 0
M  V30 5812 H 532.44 -2.68654 -3.1958 0
M  V30 5813 H 533.83 -6.47601 -1.79059 0
M  V30 5814 N 536.55 0.480323 -1.50102 0
M  V30 5815 C 537.775 1.26126 -1.64642 0
M  V30 5816 C 538.2 1.85257 -0.325823 0
M  V30 5817 O 537.558 1.66854 0.709194 0
M  V30 5818 C 537.606 2.35243 -2.73301 0
M  V30 5819 O 536.71 3.39646 -2.33911 0
M  V30 5820 H 536.051 0.371463 -0.550374 0
M  V30 5821 H 538.581 0.572696 -1.96421 0
M  V30 5822 H 538.591 2.80695 -2.96098 0
M  V30 5823 H 537.266 1.91574 -3.6915 0
M  V30 5824 H 535.843 2.99969 -2.21525 0
M  V30 5825 N 538.028 1.39524 0.732853 0
M  V30 5826 C 539.274 1.37068 1.49467 0
M  V30 5827 C 539.607 -0.0327166 1.94172 0
M  V30 5828 O 538.882 -0.998071 1.66939 0
M  V30 5829 C 539.165 2.34494 2.73285 0
M  V30 5830 C 539.018 3.83784 2.34585 0
M  V30 5831 C 540.337 2.29717 3.75391 0
M  V30 5832 H 537.456 0.499206 0.542183 0
M  V30 5833 H 540.098 1.70532 0.837783 0
M  V30 5834 H 538.248 2.06087 3.29333 0
M  V30 5835 H 539.92 4.22949 1.84151 0
M  V30 5836 H 538.163 4.00455 1.66787 0
M  V30 5837 H 538.834 4.47444 3.23262 0
M  V30 5838 H 541.31 2.54839 3.28932 0
M  V30 5839 H 540.186 2.99962 4.59689 0
M  V30 5840 H 540.447 1.30291 4.22465 0
M  V30 5841 N 539.506 -0.963266 1.24736 0
M  V30 5842 C 540.469 -2.04013 1.04457 0
M  V30 5843 C 541.469 -1.608 0.000335555 0
M  V30 5844 O 542.659 -1.72515 0.241719 0
M  V30 5845 C 539.791 -3.35858 0.584162 0
M  V30 5846 H 540.984 -2.23436 2.00041 0
M  V30 5847 H 538.537 -1.13914 1.07021 0
M  V30 5848 H 539.272 -3.22128 -0.374673 0
M  V30 5849 H 539.057 -3.68568 1.3379 0
M  V30 5850 H 540.547 -4.1502 0.463451 0
M  V30 5851 N 540.985 -1.06182 -1.16461 0
M  V30 5852 C 541.915 -0.692861 -2.22984 0
M  V30 5853 C 542.896 0.314122 -1.67174 0
M  V30 5854 O 544.081 0.189499 -1.93273 0
M  V30 5855 C 541.211 -0.07732 -3.47214 0
M  V30 5856 C 540.165 -1.01015 -4.15909 0
M  V30 5857 C 539.491 -0.257973 -5.34077 0
M  V30 5858 C 540.791 -2.33868 -4.67015 0
M  V30 5859 H 542.485 -1.58343 -2.54102 0
M  V30 5860 H 540.031 -0.76279 -1.22137 0
M  V30 5861 H 541.984 0.19266 -4.20959 0
M  V30 5862 H 540.708 0.848254 -3.15392 0
M  V30 5863 H 539.367 -1.26486 -3.44088 0
M  V30 5864 H 539.015 0.670684 -4.98509 0
M  V30 5865 H 538.715 -0.879638 -5.80979 0
M  V30 5866 H 540.239 0.00448788 -6.106 0
M  V30 5867 H 541.653 -2.1279 -5.32347 0
M  V30 5868 H 540.05 -2.91522 -5.24533 0
M  V30 5869 H 541.12 -2.97019 -3.83286 0
M  V30 5870 N 542.463 1.3308 -0.844243 0
M  V30 5871 C 543.874 1.7992 -0.498566 0
M  V30 5872 C 544.225 1.69808 0.982834 0
M  V30 5873 O 543.35 1.25051 1.7661 0
M  V30 5874 C 543.945 3.26677 -0.898204 0
M  V30 5875 C 542.504 3.71513 -0.604583 0
M  V30 5876 C 541.651 2.54393 -1.10362 0
M  V30 5877 H 544.602 1.20526 -1.03244 0
M  V30 5878 H 544.623 3.79918 -0.21039 0
M  V30 5879 H 544.135 3.34004 -1.97643 0
M  V30 5880 H 542.236 3.69708 0.46335 0
M  V30 5881 H 542.349 4.64755 -1.16358 0
M  V30 5882 H 540.713 2.49246 -0.524273 0
M  V30 5883 H 541.496 2.6448 -2.18873 0
M  V30 5884 N 543.941 0.601185 1.45683 0
M  V30 5885 C 544.904 -0.111398 2.28929 0
M  V30 5886 C 545.904 -0.801246 1.39416 0
M  V30 5887 O 547.094 -0.650383 1.61603 0
M  V30 5888 C 544.226 -1.16773 3.20276 0
M  V30 5889 H 545.419 0.620412 2.93413 0
M  V30 5890 H 542.972 0.359946 1.52099 0
M  V30 5891 H 543.707 -1.93051 2.60579 0
M  V30 5892 H 543.492 -0.677358 3.86205 0
M  V30 5893 H 544.982 -1.66698 3.82886 0
M  V30 5894 N 545.419 -1.53889 0.339982 0
M  V30 5895 C 546.349 -2.27843 -0.510856 0
M  V30 5896 C 547.33 -1.29267 -1.10563 0
M  V30 5897 O 548.515 -1.58104 -1.12768 0
M  V30 5898 C 545.645 -3.04857 -1.66372 0
M  V30 5899 C 544.599 -4.10907 -1.19746 0
M  V30 5900 C 543.925 -4.75855 -2.43857 0
M  V30 5901 C 545.225 -5.21435 -0.300501 0
M  V30 5902 H 546.919 -2.99212 0.106067 0
M  V30 5903 H 544.465 -1.43904 0.0524533 0
M  V30 5904 H 546.418 -3.5533 -2.26537 0
M  V30 5905 H 545.142 -2.31133 -2.30749 0
M  V30 5906 H 543.801 -3.61342 -0.618654 0
M  V30 5907 H 543.449 -3.9873 -3.06633 0
M  V30 5908 H 543.149 -5.47502 -2.13343 0
M  V30 5909 H 544.673 -5.2911 -3.04754 0
M  V30 5910 H 546.087 -5.67565 -0.80889 0
M  V30 5911 H 544.484 -6.00036 -0.0874076 0
M  V30 5912 H 545.554 -4.80328 0.664321 0
M  V30 5913 N 546.897 -0.0685191 -1.57451 0
M  V30 5914 C 548.125 0.610462 -1.97689 0
M  V30 5915 C 548.54 1.63346 -0.946758 0
M  V30 5916 O 547.897 1.82377 0.0669868 0
M  V30 5917 C 547.948 1.28196 -3.38006 0
M  V30 5918 O 547.669 0.299906 -4.37072 0
M  V30 5919 C 549.17 2.04907 -3.931 0
M  V30 5920 H 546.39 0.165689 -0.650222 0
M  V30 5921 H 548.934 -0.139953 -2.04021 0
M  V30 5922 H 547.089 1.98348 -3.32771 0
M  V30 5923 H 547.503 0.78126 -5.18649 0
M  V30 5924 H 548.977 2.47287 -4.93511 0
M  V30 5925 H 549.454 2.9043 -3.29465 0
M  V30 5926 H 550.06 1.39629 -4.01726 0
M  V30 5927 N 548.375 1.56261 0.205012 0
M  V30 5928 C 549.307 1.90266 1.27795 0
M  V30 5929 C 550.32 0.792397 1.42214 0
M  V30 5930 O 551.509 1.07077 1.42817 0
M  V30 5931 C 548.609 2.11074 2.65143 0
M  V30 5932 C 547.782 3.42176 2.7246 0
M  V30 5933 C 546.841 3.52216 3.90936 0
M  V30 5934 O 545.867 4.25119 3.78501 0
M  V30 5935 N 547.069 2.84573 5.05963 0
M  V30 5936 H 549.834 2.82896 0.989434 0
M  V30 5937 H 547.395 1.57008 0.394981 0
M  V30 5938 H 549.387 2.15089 3.4281 0
M  V30 5939 H 547.957 1.2499 2.86524 0
M  V30 5940 H 547.177 3.50116 1.81142 0
M  V30 5941 H 548.465 4.28509 2.74331 0
M  V30 5942 H 547.863 2.25152 5.18963 0
M  V30 5943 H 546.42 2.94228 5.81613 0
M  V30 5944 N 549.853 -0.472356 1.50355 0
M  V30 5945 C 550.783 -1.57859 1.72055 0
M  V30 5946 C 551.764 -1.60283 0.569505 0
M  V30 5947 O 552.949 -1.7657 0.808503 0
M  V30 5948 C 550.079 -2.96191 1.81351 0
M  V30 5949 C 549.033 -3.08633 2.96529 0
M  V30 5950 C 548.359 -4.486 2.90968 0
M  V30 5951 C 549.659 -2.85969 4.37057 0
M  V30 5952 H 551.353 -1.39953 2.64676 0
M  V30 5953 H 548.899 -0.671846 1.27367 0
M  V30 5954 H 550.852 -3.73507 1.95117 0
M  V30 5955 H 549.576 -3.15251 0.853502 0
M  V30 5956 H 548.235 -2.33749 2.82413 0
M  V30 5957 H 547.883 -4.64577 1.92815 0
M  V30 5958 H 547.583 -4.57861 3.68289 0
M  V30 5959 H 549.107 -5.27938 3.0678 0
M  V30 5960 H 550.521 -3.53036 4.51706 0
M  V30 5961 H 548.918 -3.06677 5.15819 0
M  V30 5962 H 549.988 -1.81838 4.49514 0
M  V30 5963 N 551.331 -1.39911 -0.725443 0
M  V30 5964 C 552.742 -1.33599 -1.30415 0
M  V30 5965 C 553.093 -0.00481792 -1.96199 0
M  V30 5966 O 552.218 0.897275 -1.96921 0
M  V30 5967 C 552.813 -2.41965 -2.37146 0
M  V30 5968 C 551.372 -2.39144 -2.90667 0
M  V30 5969 C 550.519 -2.23355 -1.64341 0
M  V30 5970 H 553.47 -1.4986 -0.522267 0
M  V30 5971 H 553.491 -2.09304 -3.17761 0
M  V30 5972 H 553.003 -3.38837 -1.89238 0
M  V30 5973 H 551.104 -1.4594 -3.4283 0
M  V30 5974 H 551.217 -3.34362 -3.43131 0
M  V30 5975 H 549.581 -1.70696 -1.89037 0
M  V30 5976 H 550.364 -3.2221 -1.18471 0
M  V30 5977 N 552.809 0.956637 -1.25245 0
M  V30 5978 C 554.049 1.71585 -1.11076 0
M  V30 5979 C 554.413 1.88916 0.34277 0
M  V30 5980 O 555.614 2.61875 0.606227 0
M  V30 5981 C 553.885 3.06267 -1.84215 0
M  V30 5982 S 555.444 3.97469 -1.85914 0
M  V30 5983 H 552.262 0.589803 -0.397055 0
M  V30 5984 H 554.864 1.14114 -1.58739 0
M  V30 5985 H 553.568 2.91322 -2.89067 0
M  V30 5986 H 553.099 3.688 -1.36931 0
M  V30 5987 H 555.114 4.87316 -0.93474 0
M  V30 5988 N 554.287 1.06798 1.15896 0
M  V30 5989 C 555.219 0.641263 2.20046 0
M  V30 5990 C 556.232 -0.303355 1.59949 0
M  V30 5991 O 557.421 -0.0935478 1.78255 0
M  V30 5992 C 554.521 -0.0794029 3.38807 0
M  V30 5993 C 553.694 0.879986 4.28457 0
M  V30 5994 C 552.753 0.197638 5.25829 0
M  V30 5995 O 551.779 0.836913 5.63014 0
M  V30 5996 N 552.981 -1.05886 5.70761 0
M  V30 5997 H 555.746 1.53718 2.57276 0
M  V30 5998 H 553.307 0.951951 1.30956 0
M  V30 5999 H 555.299 -0.546418 4.00994 0
M  V30 6000 H 553.869 -0.877193 3.0004 0
M  V30 6001 H 553.089 1.52625 3.63454 0
M  V30 6002 H 554.377 1.53065 4.8523 0
M  V30 6003 H 553.775 -1.59828 5.42652 0
M  V30 6004 H 552.332 -1.46965 6.35015 0
M  V30 6005 N 555.766 -1.3263 0.851289 0
M  V30 6006 C 556.716 -2.26451 0.265302 0
M  V30 6007 C 557.7 -1.49814 -0.586899 0
M  V30 6008 O 558.892 -1.71525 -0.436834 0
M  V30 6009 C 556.021 -3.38895 -0.548212 0
M  V30 6010 C 555.107 -4.2292 0.316189 0
M  V30 6011 N 555.498 -4.86014 1.40084 0
M  V30 6012 C 553.796 -4.45876 0.105356 0
M  V30 6013 C 554.497 -5.48667 1.93235 0
M  V30 6014 N 553.473 -5.29455 1.232 0
M  V30 6015 H 557.275 -2.72757 1.09457 0
M  V30 6016 H 554.789 -1.4668 0.697047 0
M  V30 6017 H 556.786 -4.05111 -0.984402 0
M  V30 6018 H 555.446 -2.94135 -1.37531 0
M  V30 6019 H 556.457 -4.86212 1.78377 0
M  V30 6020 H 553.134 -4.11804 -0.687299 0
M  V30 6021 H 554.524 -6.08865 2.84135 0
M  V30 6022 N 557.244 -0.608902 -1.45362 0
M  V30 6023 C 558.492 -0.104401 -2.0183 0
M  V30 6024 C 558.813 1.27007 -1.47967 0
M  V30 6025 O 558.083 1.83924 -0.674455 0
M  V30 6026 H 556.663 -0.0356042 -0.746151 0
M  V30 6027 H 559.325 -0.790596 -1.78145 0
M  V30 6028 H 558.421 -0.0551793 -3.12051 0
M  V30 6029 N 558.722 1.53707 -0.348139 0
M  V30 6030 C 560.138 1.596 0.00361134 0
M  V30 6031 C 560.338 1.36394 1.4832 0
M  V30 6032 O 559.394 1.16046 2.24253 0
M  V30 6033 C 560.707 2.97512 -0.436682 0
M  V30 6034 C 562.255 3.10568 -0.389416 0
M  V30 6035 C 562.73 4.50866 -0.805249 0
M  V30 6036 N 564.221 4.56929 -0.759616 0
M  V30 6037 C 564.956 5.63643 -1.05327 0
M  V30 6038 N 564.452 6.78189 -1.41531 0
M  V30 6039 N 566.245 5.5354 -0.977207 0
M  V30 6040 H 558.396 1.67044 -1.31187 0
M  V30 6041 H 560.659 0.782559 -0.535075 0
M  V30 6042 H 560.365 3.19575 -1.46849 0
M  V30 6043 H 560.239 3.76742 0.185744 0
M  V30 6044 H 562.626 2.88226 0.633228 0
M  V30 6045 H 562.707 2.33387 -1.04711 0
M  V30 6046 H 562.351 4.73943 -1.82593 0
M  V30 6047 H 562.281 5.26452 -0.124989 0
M  V30 6048 H 564.772 3.74675 -0.49265 0
M  V30 6049 H 565.085 7.55541 -1.62411 0
M  V30 6050 H 563.43 6.79624 -1.45381 0
M  V30 6051 H 566.621 4.62932 -0.693675 0
M  V30 6052 H 566.794 6.36614 -1.2094 0
M  V30 6053 N 560.2 0.0768682 1.57412 0
M  V30 6054 C 561.616 -0.279772 1.57129 0
M  V30 6055 C 561.816 -1.69688 1.08666 0
M  V30 6056 O 560.872 -2.40953 0.754843 0
M  V30 6057 C 562.185 -0.0848055 3.0058 0
M  V30 6058 C 563.733 -0.153954 3.12621 0
M  V30 6059 C 564.208 0.0127946 4.57998 0
M  V30 6060 N 565.699 -0.0426435 4.6318 0
M  V30 6061 C 566.434 0.0618892 5.73367 0
M  V30 6062 N 565.93 0.220229 6.9245 0
M  V30 6063 N 567.723 0.00446072 5.621 0
M  V30 6064 H 559.874 1.00297 1.87228 0
M  V30 6065 H 562.137 0.391565 0.863354 0
M  V30 6066 H 561.843 0.89325 3.40168 0
M  V30 6067 H 561.717 -0.834961 3.67843 0
M  V30 6068 H 564.104 -1.1225 2.72917 0
M  V30 6069 H 564.185 0.627389 2.47987 0
M  V30 6070 H 563.829 0.978128 4.98392 0
M  V30 6071 H 563.759 -0.788016 5.20671 0
M  V30 6072 H 566.25 -0.163226 3.77547 0
M  V30 6073 H 566.563 0.291999 7.72248 0
M  V30 6074 H 564.908 0.255658 6.9453 0
M  V30 6075 H 568.099 -0.117979 4.67951 0
M  V30 6076 H 568.272 0.0893796 6.47938 0
M  V30 6077 N 561.678 -1.56367 -0.196722 0
M  V30 6078 C 563.089 -1.70462 -0.761545 0
M  V30 6079 C 563.44 -0.683161 -1.83922 0
M  V30 6080 O 562.565 0.160753 -2.15802 0
M  V30 6081 C 563.16 -3.09057 -1.38814 0
M  V30 6082 C 561.719 -3.24922 -1.90007 0
M  V30 6083 C 560.866 -2.66412 -0.769399 0
M  V30 6084 H 563.817 -1.58675 0.0283263 0
M  V30 6085 H 563.838 -3.06296 -2.2575 0
M  V30 6086 H 563.35 -3.83378 -0.603559 0
M  V30 6087 H 561.451 -2.55514 -2.71189 0
M  V30 6088 H 561.564 -4.3241 -2.06297 0
M  V30 6089 H 559.928 -2.25546 -1.18326 0
M  V30 6090 H 560.711 -3.433 0.00291773 0
M  V30 6091 N 563.156 0.464375 -1.50603 0
M  V30 6092 C 564.384 1.23907 -1.65695 0
M  V30 6093 C 564.799 1.85658 -0.343027 0
M  V30 6094 O 564.156 1.69529 0.675739 0
M  V30 6095 C 564.207 2.3429 -2.75301 0
M  V30 6096 O 563.928 1.7507 -4.01599 0
M  V30 6097 C 565.429 3.25051 -3.01424 0
M  V30 6098 H 562.649 0.374485 -0.556778 0
M  V30 6099 H 565.193 0.55353 -1.96866 0
M  V30 6100 H 563.348 2.98607 -2.46804 0
M  V30 6101 H 563.762 2.47812 -4.62266 0
M  V30 6102 H 565.236 3.98699 -3.81763 0
M  V30 6103 H 565.713 3.84227 -2.12758 0
M  V30 6104 H 566.319 2.66463 -3.31477 0
M  V30 6105 N 564.634 1.40294 0.718013 0
M  V30 6106 C 565.597 1.4012 1.81381 0
M  V30 6107 C 566.597 0.295405 1.58063 0
M  V30 6108 O 567.787 0.554187 1.6515 0
M  V30 6109 C 564.919 1.19056 3.19435 0
M  V30 6110 H 566.112 2.37645 1.82933 0
M  V30 6111 H 563.665 1.26107 0.923405 0
M  V30 6112 H 564.4 0.222809 3.23534 0
M  V30 6113 H 564.185 1.99152 3.37758 0
M  V30 6114 H 565.675 1.21716 3.99468 0
M  V30 6115 N 566.112 -0.949982 1.2575 0
M  V30 6116 C 567.523 -1.50989 1.09815 0
M  V30 6117 C 567.874 -1.93497 -0.324556 0
M  V30 6118 O 566.999 -1.79068 -1.21506 0
M  V30 6119 C 567.594 -2.74394 1.98729 0
M  V30 6120 C 566.153 -3.26682 1.86965 0
M  V30 6121 C 565.3 -1.99498 1.92603 0
M  V30 6122 H 568.251 -0.766387 1.38968 0
M  V30 6123 H 568.272 -3.48383 1.53001 0
M  V30 6124 H 567.784 -2.43425 3.02268 0
M  V30 6125 H 565.885 -3.62461 0.863279 0
M  V30 6126 H 565.998 -3.94383 2.72027 0
M  V30 6127 H 564.362 -2.15005 1.36546 0
M  V30 6128 H 565.145 -1.70871 2.97755 0
M  V30 6129 N 567.59 -1.07411 -1.15328 0
M  V30 6130 C 568.838 -0.796073 -1.85761 0
M  V30 6131 C 569.159 0.679864 -1.82764 0
M  V30 6132 O 568.429 1.49242 -1.269 0
M  V30 6133 H 567.009 -0.291495 -0.687779 0
M  V30 6134 H 569.671 -1.35799 -1.39802 0
M  V30 6135 H 568.767 -1.13114 -2.90881 0
M  V30 6136 N 569.068 1.32177 -0.85831 0
M  V30 6137 C 570.316 1.96735 -0.462568 0
M  V30 6138 C 570.637 1.6824 0.985911 0
M  V30 6139 O 569.907 0.991564 1.68952 0
M  V30 6140 H 568.487 0.727849 -0.168064 0
M  V30 6141 H 571.149 1.61195 -1.09554 0
M  V30 6142 H 570.245 3.06068 -0.610647 0
M  V30 6143 N 570.547 0.616602 1.45037 0
M  V30 6144 C 571.963 0.280994 1.57107 0
M  V30 6145 C 572.163 -1.21627 1.60653 0
M  V30 6146 O 571.219 -1.9997 1.54169 0
M  V30 6147 C 572.532 0.960116 2.8496 0
M  V30 6148 C 574.08 0.936884 2.98649 0
M  V30 6149 C 574.555 1.59619 4.29285 0
M  V30 6150 N 576.046 1.5621 4.36065 0
M  V30 6151 C 576.781 2.04131 5.35834 0
M  V30 6152 N 576.277 2.60177 6.4209 0
M  V30 6153 N 578.07 1.94845 5.27249 0
M  V30 6154 H 570.221 1.58867 1.40979 0
M  V30 6155 H 572.484 0.666024 0.674623 0
M  V30 6156 H 572.19 2.01473 2.88273 0
M  V30 6157 H 572.064 0.488921 3.74018 0
M  V30 6158 H 574.451 -0.109209 2.94898 0
M  V30 6159 H 574.532 1.44643 2.10979 0
M  V30 6160 H 574.176 2.64166 4.33796 0
M  V30 6161 H 574.106 1.06159 5.15789 0
M  V30 6162 H 576.597 1.15276 3.59889 0
M  V30 6163 H 576.91 2.94513 7.1448 0
M  V30 6164 H 575.255 2.64221 6.42816 0
M  V30 6165 H 578.446 1.50792 4.43147 0
M  V30 6166 H 578.619 2.32504 6.04852 0
M  V30 6167 N 572.025 -1.5352 0.356285 0
M  V30 6168 C 573.25 -2.06007 -0.239961 0
M  V30 6169 C 573.675 -1.22872 -1.42422 0
M  V30 6170 O 573.033 -0.245516 -1.7963 0
M  V30 6171 C 573.081 -3.5522 -0.620587 0
M  V30 6172 O 572.185 -3.74864 -1.71902 0
M  V30 6173 H 571.526 -0.662961 -0.0371377 0
M  V30 6174 H 574.056 -1.98033 0.514194 0
M  V30 6175 H 574.066 -3.98081 -0.894197 0
M  V30 6176 H 572.741 -4.15175 0.245407 0
M  V30 6177 H 571.318 -3.43904 -1.44169 0
M  V30 6178 N 573.503 -0.0852151 -1.57369 0
M  V30 6179 C 574.433 0.874556 -2.16503 0
M  V30 6180 C 575.414 1.30111 -1.09568 0
M  V30 6181 O 576.599 1.36977 -1.37662 0
M  V30 6182 C 573.729 2.13731 -2.73745 0
M  V30 6183 C 572.683 1.84971 -3.85966 0
M  V30 6184 C 572.009 3.17991 -4.29867 0
M  V30 6185 C 573.309 1.14442 -5.09608 0
M  V30 6186 H 575.003 0.381899 -2.96954 0
M  V30 6187 H 572.549 0.18225 -1.42842 0
M  V30 6188 H 574.502 2.81302 -3.13763 0
M  V30 6189 H 573.226 2.65263 -1.90534 0
M  V30 6190 H 571.885 1.19801 -3.46473 0
M  V30 6191 H 571.533 3.6739 -3.4356 0
M  V30 6192 H 571.233 2.99534 -5.05523 0
M  V30 6193 H 572.757 3.86737 -4.72511 0
M  V30 6194 H 574.171 1.72105 -5.46857 0
M  V30 6195 H 572.568 1.06197 -5.90629 0
M  V30 6196 H 573.638 0.12559 -4.84737 0
M  V30 6197 N 574.981 1.5647 0.188427 0
M  V30 6198 C 575.929 1.95971 1.25293 0
M  V30 6199 C 576.923 0.846047 1.4676 0
M  V30 6200 O 578.129 1.03109 1.47542 0
M  V30 6201 H 574.504 0.623253 0.420784 0
M  V30 6202 H 576.475 2.84731 0.892792 0
M  V30 6203 C 575.224 2.32116 2.58877 0
M  V30 6204 H 574.547 3.17341 2.43176 0
M  V30 6205 H 575.987 2.63613 3.3209 0
M  V30 6206 C 574.446 1.15823 3.16365 0
M  V30 6207 O 574.976 0.436785 3.99318 0
M  V30 6208 N 573.182 0.933278 2.75206 0
M  V30 6209 H 572.729 1.52169 2.07852 0
M  V30 6210 H 572.687 0.156976 3.14008 0
M  V30 6211 N 576.459 -0.456382 1.50847 0
M  V30 6212 C 577.699 -1.21704 1.64218 0
M  V30 6213 C 578.063 -1.88932 0.341859 0
M  V30 6214 O 579.264 -2.66497 0.351137 0
M  V30 6215 C 577.535 -2.22162 2.79962 0
M  V30 6216 S 579.094 -3.0697 3.13552 0
M  V30 6217 H 575.912 -0.412995 0.578754 0
M  V30 6218 H 578.514 -0.511637 1.88686 0
M  V30 6219 H 577.218 -1.71379 3.72904 0
M  V30 6220 H 576.749 -2.9731 2.57624 0
M  V30 6221 H 578.764 -4.23539 2.58513 0
M  V30 6222 N 577.937 -1.40673 -0.710563 0
M  V30 6223 C 578.867 -1.44095 -1.83736 0
M  V30 6224 C 579.848 -0.301286 -1.67411 0
M  V30 6225 O 581.033 -0.510618 -1.87367 0
M  V30 6226 C 578.163 -1.30773 -3.21738 0
M  V30 6227 C 577.117 -2.42395 -3.52745 0
M  V30 6228 C 576.443 -2.14147 -4.89944 0
M  V30 6229 C 577.743 -3.84738 -3.53234 0
M  V30 6230 H 579.437 -2.38396 -1.81129 0
M  V30 6231 H 576.983 -1.14746 -0.870017 0
M  V30 6232 H 578.936 -1.31783 -4.00264 0
M  V30 6233 H 577.66 -0.329507 -3.24934 0
M  V30 6234 H 576.319 -2.40643 -2.76562 0
M  V30 6235 H 575.967 -1.14703 -4.89747 0
M  V30 6236 H 575.667 -2.88934 -5.11655 0
M  V30 6237 H 577.191 -2.16848 -5.70797 0
M  V30 6238 H 578.605 -3.88286 -4.2179 0
M  V30 6239 H 577.002 -4.59085 -3.86473 0
M  V30 6240 H 578.072 -4.13962 -2.52514 0
M  V30 6241 N 579.415 0.9433 -1.26252 0
M  V30 6242 C 580.661 1.69175 -1.11837 0
M  V30 6243 C 580.994 1.91238 0.337891 0
M  V30 6244 O 580.269 1.49152 1.24836 0
M  V30 6245 C 580.552 3.06783 -1.88563 0
M  V30 6246 C 580.405 2.9206 -3.42083 0
M  V30 6247 C 581.724 4.06865 -1.67776 0
M  V30 6248 H 578.843 0.61399 -0.407658 0
M  V30 6249 H 581.485 1.09572 -1.55222 0
M  V30 6250 H 579.635 3.57663 -1.51689 0
M  V30 6251 H 581.307 2.48419 -3.88698 0
M  V30 6252 H 579.55 2.27731 -3.69217 0
M  V30 6253 H 580.221 3.89651 -3.90994 0
M  V30 6254 H 582.697 3.64939 -1.99897 0
M  V30 6255 H 581.573 5.01168 -2.23879 0
M  V30 6256 H 581.834 4.37705 -0.621816 0
M  V30 6257 N 580.893 1.08022 1.14757 0
M  V30 6258 C 581.841 0.701088 2.21783 0
M  V30 6259 C 582.835 -0.291311 1.66876 0
M  V30 6260 O 584.041 -0.154296 1.79337 0
M  V30 6261 H 580.416 0.208668 0.722469 0
M  V30 6262 H 582.387 1.61321 2.51034 0
M  V30 6263 C 581.136 0.122278 3.47485 0
M  V30 6264 H 580.459 0.877065 3.90061 0
M  V30 6265 H 581.899 -0.105248 4.23869 0
M  V30 6266 C 580.358 -1.13883 3.17068 0
M  V30 6267 O 580.888 -2.22429 3.34497 0
M  V30 6268 N 579.094 -1.04767 2.71058 0
M  V30 6269 H 578.641 -0.164302 2.57075 0
M  V30 6270 H 578.599 -1.89224 2.51081 0
M  V30 6271 N 582.371 -1.3172 0.865308 0
M  V30 6272 C 583.619 -1.96487 0.472995 0
M  V30 6273 C 583.94 -1.68761 -0.976975 0
M  V30 6274 O 583.21 -1.00051 -1.68424 0
M  V30 6275 H 581.79 -0.726947 0.171922 0
M  V30 6276 H 584.452 -1.60612 1.10407 0
M  V30 6277 H 583.548 -3.0574 0.62687 0
M  V30 6278 N 583.85 -0.624285 -1.44708 0
M  V30 6279 C 585.075 -0.131171 -2.06985 0
M  V30 6280 C 585.5 1.18234 -1.46295 0
M  V30 6281 O 584.858 1.72375 -0.561842 0
M  V30 6282 C 584.906 -0.0226724 -3.60593 0
M  V30 6283 O 584.01 1.02314 -3.99507 0
M  V30 6284 H 583.351 -0.0816556 -0.65896 0
M  V30 6285 H 585.88 -0.859027 -1.85693 0
M  V30 6286 H 585.891 0.170138 -4.07645 0
M  V30 6287 H 584.566 -0.981685 -4.04148 0
M  V30 6288 H 583.143 0.805452 -3.64097 0
M  V30 6289 N 585.328 1.53329 -0.364422 0
M  V30 6290 C 586.258 2.28627 0.474543 0
M  V30 6291 C 587.239 1.31009 1.08492 0
M  V30 6292 O 588.424 1.59878 1.10239 0
M  V30 6293 C 585.554 3.07465 1.61501 0
M  V30 6294 C 584.508 4.1276 1.13194 0
M  V30 6295 C 583.834 4.79674 2.36255 0
M  V30 6296 C 585.134 5.21847 0.217507 0
M  V30 6297 H 586.828 2.99005 -0.153656 0
M  V30 6298 H 584.374 1.43803 -0.0753406 0
M  V30 6299 H 586.327 3.58889 2.20855 0
M  V30 6300 H 585.051 2.34775 2.27042 0
M  V30 6301 H 583.71 3.62281 0.56109 0
M  V30 6302 H 583.358 4.03557 3.00251 0
M  V30 6303 H 583.058 5.50827 2.04606 0
M  V30 6304 H 584.582 5.33892 2.96297 0
M  V30 6305 H 585.996 5.6878 0.718493 0
M  V30 6306 H 584.393 6.00099 -0.00806408 0
M  V30 6307 H 585.463 4.7921 -0.740653 0
M  V30 6308 N 586.806 0.0935595 1.57322 0
M  V30 6309 C 587.756 -0.876521 2.10478 0
M  V30 6310 C 588.74 -1.24482 1.01946 0
M  V30 6311 O 589.932 -1.22016 1.28223 0
M  V30 6312 C 587.061 -2.13615 2.68745 0
M  V30 6313 C 586.147 -1.79335 3.84317 0
M  V30 6314 N 586.538 -1.15606 4.92411 0
M  V30 6315 C 584.836 -2.08954 3.94023 0
M  V30 6316 C 585.537 -0.999036 5.73057 0
M  V30 6317 N 584.513 -1.51585 5.22037 0
M  V30 6318 H 588.315 -0.379829 2.91435 0
M  V30 6319 H 585.829 -0.109699 1.62029 0
M  V30 6320 H 587.826 -2.84053 3.05155 0
M  V30 6321 H 586.486 -2.63851 1.89242 0
M  V30 6322 H 587.497 -0.823063 5.11318 0
M  V30 6323 H 584.174 -2.61416 3.25527 0
M  V30 6324 H 585.564 -0.500772 6.70031 0
M  V30 6325 N 588.284 -1.56567 -0.180126 0
M  V30 6326 C 589.533 -1.80685 -0.896426 0
M  V30 6327 C 589.846 -0.669335 -1.83791 0
M  V30 6328 O 591.052 -0.795209 -2.59593 0
M  V30 6329 C 589.508 -3.20132 -1.6445 0
M  V30 6330 C 589.116 -4.41727 -0.747088 0
M  V30 6331 C 590.86 -3.53549 -2.34955 0
M  V30 6332 C 588.767 -5.72195 -1.49489 0
M  V30 6333 H 587.697 -0.673758 -0.338477 0
M  V30 6334 H 590.348 -1.8289 -0.149467 0
M  V30 6335 H 588.73 -3.12218 -2.43589 0
M  V30 6336 H 589.904 -4.608 0.00671129 0
M  V30 6337 H 588.219 -4.16122 -0.152134 0
M  V30 6338 H 590.816 -4.48267 -2.91481 0
M  V30 6339 H 591.159 -2.78006 -3.09868 0
M  V30 6340 H 591.692 -3.62976 -1.62768 0
M  V30 6341 H 588.431 -6.50743 -0.788251 0
M  V30 6342 H 587.951 -5.57115 -2.22224 0
M  V30 6343 H 589.63 -6.1384 -2.04472 0
M  V30 6344 N 589.762 0.448376 -1.51087 0
M  V30 6345 C 590.987 1.22605 -1.6728 0
M  V30 6346 C 591.412 1.84524 -0.365045 0
M  V30 6347 O 590.77 1.6832 0.673642 0
M  V30 6348 C 590.818 2.29393 -2.78229 0
M  V30 6349 O 589.922 3.34608 -2.41063 0
M  V30 6350 H 589.263 0.359705 -0.558129 0
M  V30 6351 H 591.793 0.530903 -1.97592 0
M  V30 6352 H 591.803 2.74352 -3.01986 0
M  V30 6353 H 590.478 1.83701 -3.73131 0
M  V30 6354 H 589.055 2.95202 -2.27838 0
M  V30 6355 N 591.24 1.41047 0.703093 0
M  V30 6356 C 592.465 1.43537 1.49706 0
M  V30 6357 C 592.89 0.0401853 1.88057 0
M  V30 6358 O 592.248 -0.954785 1.54122 0
M  V30 6359 C 592.296 2.3433 2.74084 0
M  V30 6360 O 591.4 1.79515 3.71279 0
M  V30 6361 H 590.741 0.487454 0.450871 0
M  V30 6362 H 593.271 1.85422 0.86486 0
M  V30 6363 H 593.281 2.49947 3.22476 0
M  V30 6364 H 591.956 3.35708 2.45506 0
M  V30 6365 H 590.533 1.7331 3.30179 0
M  V30 6366 N 592.718 -0.936591 1.26751 0
M  V30 6367 C 593.943 -1.72288 1.15462 0
M  V30 6368 C 594.368 -1.85915 -0.285887 0
M  V30 6369 O 593.726 -1.35272 -1.20711 0
M  V30 6370 C 593.774 -3.10503 1.83359 0
M  V30 6371 O 592.878 -3.96745 1.1255 0
M  V30 6372 H 592.219 -0.52843 0.402067 0
M  V30 6373 H 594.749 -1.17271 1.67656 0
M  V30 6374 H 594.759 -3.60867 1.90365 0
M  V30 6375 H 593.434 -2.99901 2.88153 0
M  V30 6376 H 592.011 -3.55191 1.13551 0
M  V30 6377 N 594.196 -1.08629 -1.14182 0
M  V30 6378 C 595.126 -0.740003 -2.21464 0
M  V30 6379 C 596.107 0.278591 -1.67803 0
M  V30 6380 O 597.292 0.148461 -1.93632 0
M  V30 6381 C 594.422 -0.150952 -3.46972 0
M  V30 6382 C 593.376 -1.09815 -4.13672 0
M  V30 6383 C 592.702 -0.3712 -5.3341 0
M  V30 6384 C 594.002 -2.43722 -4.61949 0
M  V30 6385 H 595.696 -1.63697 -2.50686 0
M  V30 6386 H 593.242 -0.788526 -1.20492 0
M  V30 6387 H 595.195 0.103325 -4.21273 0
M  V30 6388 H 593.919 0.781164 -3.1712 0
M  V30 6389 H 592.578 -1.33756 -3.41328 0
M  V30 6390 H 592.226 0.564792 -4.99819 0
M  V30 6391 H 591.926 -1.00267 -5.78982 0
M  V30 6392 H 593.45 -0.12503 -6.10472 0
M  V30 6393 H 594.864 -2.24034 -5.27714 0
M  V30 6394 H 593.261 -3.02582 -5.18232 0
M  V30 6395 H 594.331 -3.05082 -3.76899 0
M  V30 6396 N 595.674 1.31259 -0.872281 0
M  V30 6397 C 596.92 1.96913 -0.485083 0
M  V30 6398 C 597.253 1.68774 0.960667 0
M  V30 6399 O 596.528 0.985495 1.67685 0
M  V30 6400 C 596.811 3.52299 -0.745502 0
M  V30 6401 C 596.664 3.90002 -2.24095 0
M  V30 6402 C 597.983 4.39582 -0.213516 0
M  V30 6403 H 595.102 0.715252 -0.177716 0
M  V30 6404 H 597.744 1.55347 -1.09395 0
M  V30 6405 H 595.894 3.87835 -0.227276 0
M  V30 6406 H 597.566 3.64555 -2.82661 0
M  V30 6407 H 595.809 3.38526 -2.71261 0
M  V30 6408 H 596.48 4.98352 -2.37381 0
M  V30 6409 H 598.956 4.10882 -0.656902 0
M  V30 6410 H 597.832 5.47251 -0.42516 0
M  V30 6411 H 598.093 4.33158 0.884666 0
M  V30 6412 N 597.152 0.631951 1.44375 0
M  V30 6413 C 598.563 0.219036 1.85411 0
M  V30 6414 C 598.914 -1.22974 1.52879 0
M  V30 6415 O 598.039 -1.93579 0.967266 0
M  V30 6416 C 598.634 0.39075 3.36539 0
M  V30 6417 C 597.193 0.0323351 3.76386 0
M  V30 6418 C 596.34 0.703744 2.68221 0
M  V30 6419 H 599.291 0.837056 1.3483 0
M  V30 6420 H 599.312 -0.370056 3.78696 0
M  V30 6421 H 598.824 1.44527 3.60185 0
M  V30 6422 H 596.925 -1.02042 3.58355 0
M  V30 6423 H 597.038 0.442969 4.77048 0
M  V30 6424 H 595.402 0.138974 2.54321 0
M  V30 6425 H 596.185 1.76088 2.947 0
M  V30 6426 N 598.631 -1.53133 0.372548 0
M  V30 6427 C 599.564 -2.22328 -0.514361 0
M  V30 6428 C 600.542 -1.21776 -1.07747 0
M  V30 6429 O 601.726 -1.50704 -1.13228 0
M  V30 6430 C 598.853 -2.92343 -1.71035 0
M  V30 6431 C 597.899 -4.07026 -1.27405 0
M  V30 6432 S 598.732 -5.34821 -0.269526 0
M  V30 6433 C 599.888 -6.08352 -1.47168 0
M  V30 6434 H 600.121 -2.9721 0.0732683 0
M  V30 6435 H 597.654 -1.53603 0.156673 0
M  V30 6436 H 599.612 -3.33296 -2.39634 0
M  V30 6437 H 598.273 -2.17173 -2.26925 0
M  V30 6438 H 597.466 -4.55056 -2.16656 0
M  V30 6439 H 597.068 -3.68001 -0.66719 0
M  V30 6440 H 599.36 -6.33507 -2.40157 0
M  V30 6441 H 600.303 -7.0053 -1.03263 0
M  V30 6442 H 600.711 -5.38893 -1.6809 0
M  V30 6443 N 600.109 -0.101901 -1.5727 0
M  V30 6444 C 601.059 0.865346 -2.1094 0
M  V30 6445 C 602.043 1.2394 -1.02605 0
M  V30 6446 O 603.235 1.21334 -1.28868 0
M  V30 6447 C 600.364 2.12187 -2.69874 0
M  V30 6448 C 599.45 1.77295 -3.85263 0
M  V30 6449 N 599.841 1.12993 -4.93017 0
M  V30 6450 C 598.139 2.06862 -3.95126 0
M  V30 6451 C 598.84 0.968631 -5.73579 0
M  V30 6452 N 597.816 1.48814 -5.22834 0
M  V30 6453 H 601.618 0.364368 -2.91633 0
M  V30 6454 H 599.132 0.101104 -1.62085 0
M  V30 6455 H 601.129 2.82431 -3.06657 0
M  V30 6456 H 599.789 2.62844 -1.90639 0
M  V30 6457 H 600.8 0.795935 -5.11747 0
M  V30 6458 H 597.477 2.59686 -3.26909 0
M  V30 6459 H 598.867 0.465231 -6.70287 0
M  V30 6460 N 601.587 1.56661 0.17182 0
M  V30 6461 C 602.519 1.92934 1.2373 0
M  V30 6462 C 603.532 0.822385 1.40502 0
M  V30 6463 O 604.721 1.10083 1.40514 0
M  V30 6464 C 601.821 2.16651 2.60607 0
M  V30 6465 C 600.994 3.47878 2.6514 0
M  V30 6466 C 600.053 3.60429 3.83377 0
M  V30 6467 O 599.079 4.33051 3.69398 0
M  V30 6468 N 600.281 2.95241 4.99813 0
M  V30 6469 H 603.046 2.84931 0.929205 0
M  V30 6470 H 600.607 1.5781 0.361588 0
M  V30 6471 H 602.599 2.22312 3.38171 0
M  V30 6472 H 601.169 1.3104 2.83809 0
M  V30 6473 H 600.389 3.53879 1.73675 0
M  V30 6474 H 601.677 4.34232 2.6518 0
M  V30 6475 H 601.075 2.3611 5.14071 0
M  V30 6476 H 599.632 3.06499 5.75241 0
M  V30 6477 N 603.065 -0.440357 1.51323 0
M  V30 6478 C 604.313 -1.18769 1.63518 0
M  V30 6479 C 604.634 -1.91793 0.352201 0
M  V30 6480 O 603.904 -1.85432 -0.631811 0
M  V30 6481 H 602.484 -0.441408 0.602634 0
M  V30 6482 H 605.146 -0.505162 1.8824 0
M  V30 6483 H 604.242 -1.91892 2.46138 0
M  V30 6484 N 604.543 -1.41418 -0.695603 0
M  V30 6485 C 605.768 -1.44329 -1.48942 0
M  V30 6486 C 606.193 -0.0501579 -1.88033 0
M  V30 6487 O 605.551 0.946598 -1.54626 0
M  V30 6488 C 605.599 -2.3578 -2.72837 0
M  V30 6489 O 604.703 -1.81482 -3.70322 0
M  V30 6490 H 604.044 -0.489838 -0.44828 0
M  V30 6491 H 606.574 -1.85878 -0.855014 0
M  V30 6492 H 606.584 -2.51654 -3.21145 0
M  V30 6493 H 605.259 -3.37005 -2.43722 0
M  V30 6494 H 603.836 -1.75058 -3.29255 0
M  V30 6495 N 606.021 0.929856 -1.27246 0
M  V30 6496 C 606.951 2.04722 -1.12299 0
M  V30 6497 C 607.932 1.70082 -0.0250464 0
M  V30 6498 O 609.117 1.93176 -0.199141 0
M  V30 6499 C 606.247 3.38721 -0.767145 0
M  V30 6500 C 605.201 3.87466 -1.81808 0
M  V30 6501 C 604.527 5.18246 -1.31626 0
M  V30 6502 C 605.827 4.11095 -3.22177 0
M  V30 6503 H 607.521 2.17485 -2.05769 0
M  V30 6504 H 605.067 1.04503 -0.990715 0
M  V30 6505 H 607.02 4.16366 -0.649413 0
M  V30 6506 H 605.744 3.25967 0.203259 0
M  V30 6507 H 604.403 3.12012 -1.92468 0
M  V30 6508 H 604.051 5.01881 -0.335378 0
M  V30 6509 H 603.751 5.51829 -2.01887 0
M  V30 6510 H 605.275 5.98462 -1.21143 0
M  V30 6511 H 606.689 4.79316 -3.1453 0
M  V30 6512 H 605.086 4.55982 -3.90129 0
M  V30 6513 H 606.156 3.16468 -3.67391 0
M  V30 6514 N 607.499 1.09233 1.13605 0
M  V30 6515 C 608.462 0.733553 2.17144 0
M  V30 6516 C 609.462 -0.235873 1.59061 0
M  V30 6517 O 610.652 -0.0143167 1.74194 0
M  V30 6518 C 607.784 0.084471 3.40795 0
M  V30 6519 H 608.977 1.65049 2.50397 0
M  V30 6520 H 606.53 0.891264 1.28399 0
M  V30 6521 H 607.265 -0.843795 3.1313 0
M  V30 6522 H 607.05 0.781985 3.84223 0
M  V30 6523 H 608.54 -0.151216 4.17326 0
M  V30 6524 N 608.977 -1.30795 0.87923 0
M  V30 6525 C 609.94 -2.26563 0.346676 0
M  V30 6526 C 610.94 -1.52578 -0.507597 0
M  V30 6527 O 612.13 -1.71318 -0.315575 0
M  V30 6528 C 609.262 -3.37115 -0.506611 0
M  V30 6529 H 610.455 -2.75183 1.19223 0
M  V30 6530 H 608.008 -1.41886 0.655598 0
M  V30 6531 H 608.743 -2.93802 -1.37299 0
M  V30 6532 H 608.528 -3.91959 0.105218 0
M  V30 6533 H 610.018 -4.08412 -0.871192 0
M  V30 6534 N 610.455 -0.639598 -1.44038 0
M  V30 6535 C 611.703 -0.147188 -2.01563 0
M  V30 6536 C 612.024 1.2384 -1.50628 0
M  V30 6537 O 611.294 1.82452 -0.713316 0
M  V30 6538 H 609.874 -0.0514231 -0.745228 0
M  V30 6539 H 612.536 -0.828205 -1.76428 0
M  V30 6540 H 611.632 -0.121358 -3.11864 0
M  V30 6541 N 611.933 1.52934 -0.380664 0
M  V30 6542 C 613.344 1.86457 0.0952684 0
M  V30 6543 C 613.695 1.3007 1.46889 0
M  V30 6544 O 612.82 0.628636 2.07068 0
M  V30 6545 C 613.415 3.38323 0.179648 0
M  V30 6546 C 611.974 3.71589 0.599858 0
M  V30 6547 C 611.121 2.76228 -0.243572 0
M  V30 6548 H 614.072 1.46966 -0.59888 0
M  V30 6549 H 614.093 3.67113 1.00042 0
M  V30 6550 H 613.605 3.79333 -0.820228 0
M  V30 6551 H 611.706 3.36144 1.60742 0
M  V30 6552 H 611.819 4.77715 0.364003 0
M  V30 6553 H 610.183 2.53045 0.289855 0
M  V30 6554 H 610.966 3.20074 -1.24127 0
M  V30 6555 N 613.412 0.11024 1.57214 0
M  V30 6556 C 614.652 -0.553061 1.96775 0
M  V30 6557 C 615.016 -1.64403 0.991753 0
M  V30 6558 O 616.217 -2.36561 1.27642 0
M  V30 6559 C 614.488 -1.08004 3.4069 0
M  V30 6560 S 616.047 -1.75309 4.02259 0
M  V30 6561 H 612.865 -0.18003 0.68783 0
M  V30 6562 H 615.467 0.193242 1.94543 0
M  V30 6563 H 614.171 -0.274735 4.09479 0
M  V30 6564 H 613.702 -1.86182 3.46554 0
M  V30 6565 H 615.717 -3.03834 3.923 0
M  V30 6566 N 614.89 -1.56749 -0.16351 0
M  V30 6567 C 616.138 -1.82074 -0.87713 0
M  V30 6568 C 616.459 -0.688503 -1.82441 0
M  V30 6569 O 615.729 0.291085 -1.93725 0
M  V30 6570 H 614.309 -0.671677 -0.326893 0
M  V30 6571 H 616.971 -1.9423 -0.161459 0
M  V30 6572 H 616.067 -2.76407 -1.44934 0
M  V30 6573 N 616.368 0.432326 -1.51554 0
M  V30 6574 C 617.608 1.19076 -1.66133 0
M  V30 6575 C 617.972 1.88364 -0.371873 0
M  V30 6576 O 619.173 2.65904 -0.39349 0
M  V30 6577 C 617.444 2.1768 -2.83461 0
M  V30 6578 S 619.003 3.01943 -3.18396 0
M  V30 6579 H 615.821 0.403735 -0.585251 0
M  V30 6580 H 618.423 0.481554 -1.89476 0
M  V30 6581 H 617.127 1.65424 -3.75583 0
M  V30 6582 H 616.658 2.93174 -2.62322 0
M  V30 6583 H 618.673 4.19373 -2.65219 0
M  V30 6584 N 617.846 1.41785 0.688094 0
M  V30 6585 C 619.086 1.43018 1.46032 0
M  V30 6586 C 619.45 0.0402632 1.91958 0
M  V30 6587 O 620.651 -0.0726425 2.68702 0
M  V30 6588 C 618.922 2.4151 2.63453 0
M  V30 6589 S 620.481 2.61335 3.5249 0
M  V30 6590 H 617.299 0.506546 0.498931 0
M  V30 6591 H 619.901 1.78283 0.80221 0
M  V30 6592 H 618.605 3.41286 2.27929 0
M  V30 6593 H 618.136 2.07624 3.34149 0
M  V30 6594 H 620.151 1.88637 4.58945 0
M  V30 6595 N 619.324 -0.923095 1.27737 0
M  V30 6596 C 620.549 -1.71054 1.17283 0
M  V30 6597 C 620.974 -1.86208 -0.266153 0
M  V30 6598 O 620.332 -1.36545 -1.1927 0
M  V30 6599 C 620.38 -3.0854 1.86642 0
M  V30 6600 O 619.484 -3.95528 1.16752 0
M  V30 6601 H 618.825 -0.524136 0.407649 0
M  V30 6602 H 621.355 -1.15487 1.6889 0
M  V30 6603 H 621.365 -3.58828 1.94182 0
M  V30 6604 H 620.04 -2.96828 2.91317 0
M  V30 6605 H 618.617 -3.53967 1.17312 0
M  V30 6606 N 620.802 -1.09834 -1.13024 0
M  V30 6607 C 622.027 -0.85909 -1.88771 0
M  V30 6608 C 622.452 0.584402 -1.78791 0
M  V30 6609 O 621.81 1.41101 -1.13842 0
M  V30 6610 C 621.858 -1.30427 -3.36186 0
M  V30 6611 O 620.962 -0.465368 -4.09766 0
M  V30 6612 H 620.303 -0.310786 -0.586778 0
M  V30 6613 H 622.833 -1.46355 -1.42973 0
M  V30 6614 H 622.843 -1.2915 -3.8702 0
M  V30 6615 H 621.518 -2.3555 -3.42767 0
M  V30 6616 H 620.095 -0.542814 -3.68928 0
M  V30 6617 N 622.28 1.30327 -0.886154 0
M  V30 6618 C 623.52 1.97886 -0.511912 0
M  V30 6619 C 623.884 1.68417 0.921944 0
M  V30 6620 O 625.085 2.29319 1.40237 0
M  V30 6621 C 623.356 3.48775 -0.780444 0
M  V30 6622 S 624.915 4.35844 -0.508482 0
M  V30 6623 H 621.733 0.685024 -0.190428 0
M  V30 6624 H 624.335 1.58413 -1.14567 0
M  V30 6625 H 623.039 3.67714 -1.82248 0
M  V30 6626 H 622.57 3.93171 -0.134284 0
M  V30 6627 H 624.585 4.91893 0.65239 0
M  V30 6628 N 623.758 0.647228 1.43697 0
M  V30 6629 C 624.688 -0.0345631 2.33474 0
M  V30 6630 C 625.669 -0.818193 1.4913 0
M  V30 6631 O 626.854 -0.780867 1.77809 0
M  V30 6632 C 623.984 -1.00576 3.32418 0
M  V30 6633 C 622.938 -0.33266 4.26705 0
M  V30 6634 C 622.264 -1.41489 5.1564 0
M  V30 6635 C 623.564 0.771204 5.16575 0
M  V30 6636 H 625.258 0.715163 2.90733 0
M  V30 6637 H 622.804 0.345364 1.39797 0
M  V30 6638 H 624.757 -1.49159 3.94119 0
M  V30 6639 H 623.481 -1.78657 2.73403 0
M  V30 6640 H 622.14 0.13267 3.6636 0
M  V30 6641 H 621.788 -2.18698 4.52968 0
M  V30 6642 H 621.488 -0.969799 5.79542 0
M  V30 6643 H 623.012 -1.9022 5.80214 0
M  V30 6644 H 624.426 0.36779 5.72119 0
M  V30 6645 H 622.823 1.1404 5.89165 0
M  V30 6646 H 623.893 1.63169 4.56622 0
M  V30 6647 N 625.236 -1.5273 0.388769 0
M  V30 6648 C 626.184 -2.27975 -0.461527 0
M  V30 6649 C 627.178 -1.31854 -1.06352 0
M  V30 6650 O 628.384 -1.49394 -1.00406 0
M  V30 6651 H 624.759 -0.733088 -0.16759 0
M  V30 6652 H 626.73 -2.97765 0.194579 0
M  V30 6653 C 625.479 -3.09881 -1.577 0
M  V30 6654 H 624.802 -3.83701 -1.12309 0
M  V30 6655 H 626.242 -3.6567 -2.14619 0
M  V30 6656 C 624.701 -2.22159 -2.53272 0
M  V30 6657 O 625.231 -1.84802 -3.56667 0
M  V30 6658 N 623.437 -1.8633 -2.23001 0
M  V30 6659 H 622.984 -2.16909 -1.38954 0
M  V30 6660 H 622.942 -1.27927 -2.87197 0
M  V30 6661 N 626.714 -0.118576 -1.57153 0
M  V30 6662 C 627.963 0.539339 -1.94355 0
M  V30 6663 C 628.276 1.67858 -1.00415 0
M  V30 6664 O 629.482 2.39922 -1.27081 0
M  V30 6665 C 627.938 1.01082 -3.45414 0
M  V30 6666 C 627.546 -0.0999402 -4.47889 0
M  V30 6667 C 629.29 1.64013 -3.91535 0
M  V30 6668 C 627.197 0.388212 -5.90124 0
M  V30 6669 H 626.127 0.205247 -0.725527 0
M  V30 6670 H 628.778 -0.19836 -1.82425 0
M  V30 6671 H 627.16 1.80292 -3.52577 0
M  V30 6672 H 628.334 -0.876189 -4.52393 0
M  V30 6673 H 626.649 -0.635885 -4.11516 0
M  V30 6674 H 629.246 2.01649 -4.95219 0
M  V30 6675 H 629.589 2.51836 -3.31488 0
M  V30 6676 H 630.122 0.913439 -3.87171 0
M  V30 6677 H 626.861 -0.453963 -6.53926 0
M  V30 6678 H 626.381 1.13095 -5.89041 0
M  V30 6679 H 628.06 0.849574 -6.41398 0
M  V30 6680 N 628.193 1.56834 0.155195 0
M  V30 6681 C 629.441 1.82536 0.867462 0
M  V30 6682 C 629.762 0.698168 1.82073 0
M  V30 6683 O 629.032 -0.280807 1.93877 0
M  V30 6684 H 627.612 0.673401 0.323327 0
M  V30 6685 H 630.274 1.94313 0.151156 0
M  V30 6686 H 629.37 2.77171 1.43466 0
M  V30 6687 N 629.671 -0.424282 1.51781 0
M  V30 6688 C 630.896 -1.19928 1.6921 0
M  V30 6689 C 631.321 -1.8392 0.394355 0
M  V30 6690 O 630.679 -1.69371 -0.646778 0
M  V30 6691 C 630.727 -2.24937 2.81843 0
M  V30 6692 O 629.831 -3.3073 2.46356 0
M  V30 6693 H 629.172 -0.35078 0.563781 0
M  V30 6694 H 631.702 -0.499401 1.98412 0
M  V30 6695 H 631.712 -2.69512 3.06312 0
M  V30 6696 H 630.387 -1.77742 3.76006 0
M  V30 6697 H 628.964 -2.9154 2.32505 0
M  V30 6698 N 631.149 -1.42148 -0.680565 0
M  V30 6699 C 632.096 -1.45175 -1.79424 0
M  V30 6700 C 633.066 -0.304352 -1.63288 0
M  V30 6701 O 634.251 -0.507591 -1.83924 0
M  V30 6702 C 631.391 -1.35429 -3.17416 0
M  V30 6703 C 630.504 -2.60158 -3.4488 0
M  V30 6704 C 629.639 -2.42596 -4.72568 0
M  V30 6705 C 628.678 -3.62727 -4.93047 0
M  V30 6706 N 627.815 -3.44143 -6.11973 0
M  V30 6707 H 632.655 -2.40349 -1.76172 0
M  V30 6708 H 630.192 -1.19334 -0.860107 0
M  V30 6709 H 632.15 -1.27777 -3.97151 0
M  V30 6710 H 630.78 -0.438536 -3.19807 0
M  V30 6711 H 629.832 -2.78199 -2.5944 0
M  V30 6712 H 631.144 -3.49473 -3.55908 0
M  V30 6713 H 630.298 -2.32497 -5.60384 0
M  V30 6714 H 629.037 -1.50761 -4.63813 0
M  V30 6715 H 628.042 -3.73264 -4.03676 0
M  V30 6716 H 629.267 -4.55534 -5.03652 0
M  V30 6717 H 627.213 -2.5502 -6.04401 0
M  V30 6718 H 627.13 -4.27041 -6.23836 0
M  V30 6719 H 628.398 -3.37845 -7.02482 0
M  V30 6720 N 632.627 0.916307 -1.28225 0
M  V30 6721 C 633.875 1.6619 -1.15002 0
M  V30 6722 C 634.196 1.92642 0.302329 0
M  V30 6723 O 633.466 1.54076 1.20985 0
M  V30 6724 H 632.046 0.615964 -0.422608 0
M  V30 6725 H 634.708 1.09963 -1.60917 0
M  V30 6726 H 633.804 2.62533 -1.68769 0
M  V30 6727 N 634.105 1.10431 1.1244 0
M  V30 6728 C 635.052 0.753103 2.18167 0
M  V30 6729 C 636.022 -0.270549 1.63882 0
M  V30 6730 O 637.207 -0.149837 1.90211 0
M  V30 6731 C 634.347 0.191046 3.44571 0
M  V30 6732 C 633.46 1.26999 4.12911 0
M  V30 6733 C 632.595 0.669586 5.26963 0
M  V30 6734 C 631.634 1.72912 5.87169 0
M  V30 6735 N 630.771 1.14898 6.92635 0
M  V30 6736 H 635.611 1.65892 2.47556 0
M  V30 6737 H 633.148 0.828631 1.21541 0
M  V30 6738 H 635.106 -0.152712 4.1692 0
M  V30 6739 H 633.736 -0.677997 3.15599 0
M  V30 6740 H 632.788 1.73087 3.3874 0
M  V30 6741 H 634.1 2.07204 4.53727 0
M  V30 6742 H 633.254 0.275274 6.06075 0
M  V30 6743 H 631.993 -0.163895 4.87425 0
M  V30 6744 H 630.998 2.13286 5.06744 0
M  V30 6745 H 632.223 2.56544 6.28778 0
M  V30 6746 H 630.169 0.336956 6.55134 0
M  V30 6747 H 630.086 1.88786 7.32049 0
M  V30 6748 H 631.354 0.78121 7.75576 0
M  V30 6749 N 635.583 -1.29855 0.893053 0
M  V30 6750 C 636.808 -2.00512 0.530066 0
M  V30 6751 C 637.233 -1.66446 -0.876199 0
M  V30 6752 O 636.591 -0.885446 -1.58207 0
M  V30 6753 C 636.639 -3.53308 0.721505 0
M  V30 6754 O 635.743 -4.11764 -0.228994 0
M  V30 6755 H 635.084 -0.630617 0.207891 0
M  V30 6756 H 637.614 -1.6551 1.20282 0
M  V30 6757 H 637.624 -4.03206 0.623599 0
M  V30 6758 H 636.299 -3.77439 1.74678 0
M  V30 6759 H 634.876 -3.72805 -0.0841034 0
M  V30 6760 N 637.061 -0.65484 -1.43351 0
M  V30 6761 C 638.286 -0.175046 -2.0666 0
M  V30 6762 C 638.711 1.15104 -1.4877 0
M  V30 6763 O 638.069 1.71144 -0.598279 0
M  V30 6764 C 638.117 -0.0991544 -3.60464 0
M  V30 6765 O 637.221 0.938169 -4.01587 0
M  V30 6766 H 636.562 -0.0956148 -0.65708 0
M  V30 6767 H 639.092 -0.898222 -1.83829 0
M  V30 6768 H 639.102 0.083632 -4.07914 0
M  V30 6769 H 637.777 -1.06719 -4.01975 0
M  V30 6770 H 636.354 0.72804 -3.65724 0
M  V30 6771 N 638.539 1.52521 -0.396863 0
M  V30 6772 C 639.769 2.05792 0.182485 0
M  V30 6773 C 640.177 1.26784 1.40436 0
M  V30 6774 O 639.52 0.309617 1.81072 0
M  V30 6775 C 639.582 3.54291 0.609781 0
M  V30 6776 C 639.246 4.5426 -0.499674 0
M  V30 6777 C 640.243 5.01812 -1.35944 0
M  V30 6778 C 637.928 4.97827 -0.668864 0
M  V30 6779 C 639.922 5.91562 -2.37346 0
M  V30 6780 C 637.609 5.87376 -1.68621 0
M  V30 6781 C 638.607 6.34137 -2.53692 0
M  V30 6782 O 638.295 7.21915 -3.53686 0
M  V30 6783 H 638.027 0.675362 0.0293583 0
M  V30 6784 H 640.581 1.97539 -0.56281 0
M  V30 6785 H 638.811 3.60188 1.40717 0
M  V30 6786 H 640.5 3.90267 1.11565 0
M  V30 6787 H 641.266 4.68879 -1.24008 0
M  V30 6788 H 637.145 4.60997 -0.0163971 0
M  V30 6789 H 640.689 6.27983 -3.03782 0
M  V30 6790 H 636.586 6.19723 -1.80593 0
M  V30 6791 H 637.354 7.39996 -3.49784 0
M  V30 6792 N 640.017 0.126909 1.57088 0
M  V30 6793 C 641.257 -0.53216 1.97351 0
M  V30 6794 C 641.621 -1.63342 1.00913 0
M  V30 6795 O 642.822 -2.35194 1.30144 0
M  V30 6796 C 641.093 -1.04385 3.41817 0
M  V30 6797 S 642.652 -1.71033 4.04095 0
M  V30 6798 H 639.47 -0.172724 0.689701 0
M  V30 6799 H 642.072 0.213865 1.94327 0
M  V30 6800 H 640.776 -0.231289 4.09748 0
M  V30 6801 H 640.307 -1.82496 3.48509 0
M  V30 6802 H 642.322 -2.99656 3.95501 0
M  V30 6803 N 641.495 -1.56914 -0.146875 0
M  V30 6804 C 642.72 -1.87881 -0.878386 0
M  V30 6805 C 643.145 -0.715945 -1.73942 0
M  V30 6806 O 642.503 0.334447 -1.78189 0
M  V30 6807 C 642.551 -3.17431 -1.71084 0
M  V30 6808 O 641.655 -3.01374 -2.81509 0
M  V30 6809 H 640.996 -0.617289 -0.244644 0
M  V30 6810 H 643.526 -2.04136 -0.137654 0
M  V30 6811 H 643.536 -3.49455 -2.10582 0
M  V30 6812 H 642.211 -4.01671 -1.07856 0
M  V30 6813 H 640.788 -2.80758 -2.45416 0
M  V30 6814 N 642.974 0.416227 -1.52004 0
M  V30 6815 C 643.884 1.53147 -1.77717 0
M  V30 6816 C 644.9 1.609 -0.662368 0
M  V30 6817 O 646.076 1.77747 -0.946991 0
M  V30 6818 C 643.141 2.88948 -1.91598 0
M  V30 6819 C 642.202 2.9114 -3.15493 0
M  V30 6820 C 641.435 4.20464 -3.28703 0
M  V30 6821 O 641.658 5.13981 -2.47345 0
M  V30 6822 O 640.592 4.29368 -4.21813 0
M  V30 6823 H 644.418 1.34357 -2.72363 0
M  V30 6824 H 642.003 0.601373 -1.36762 0
M  V30 6825 H 643.885 3.69505 -2.02593 0
M  V30 6826 H 642.56 3.07821 -1.00141 0
M  V30 6827 H 641.467 2.09461 -3.09962 0
M  V30 6828 H 642.8 2.77216 -4.06709 0
M  V30 6829 N 644.452 1.42507 0.673017 0
M  V30 6830 C 645.863 1.38347 1.25367 0
M  V30 6831 C 646.214 0.0776327 1.96046 0
M  V30 6832 O 645.339 -0.823571 2.00116 0
M  V30 6833 C 645.934 2.506 2.28002 0
M  V30 6834 C 644.493 2.49767 2.81591 0
M  V30 6835 C 643.64 2.293 1.55938 0
M  V30 6836 H 646.591 1.51695 0.466288 0
M  V30 6837 H 646.612 2.20953 3.09774 0
M  V30 6838 H 646.124 3.45627 1.76532 0
M  V30 6839 H 644.225 1.58563 3.37177 0
M  V30 6840 H 644.338 3.46867 3.30485 0
M  V30 6841 H 642.702 1.77594 1.82572 0
M  V30 6842 H 643.485 3.26385 1.06431 0
M  V30 6843 N 645.93 -0.909495 1.28709 0
M  V30 6844 C 647.158 -1.69272 1.18973 0
M  V30 6845 C 647.573 -1.87123 -0.251048 0
M  V30 6846 O 646.93 -1.40127 -1.16922 0
M  V30 6847 C 646.981 -3.08257 1.88839 0
M  V30 6848 O 646.702 -2.91228 3.27289 0
M  V30 6849 C 648.203 -4.02642 1.85457 0
M  V30 6850 H 645.423 -0.528999 0.412797 0
M  V30 6851 H 647.967 -1.13803 1.69909 0
M  V30 6852 H 646.122 -3.6053 1.41762 0
M  V30 6853 H 646.536 -3.79223 3.6234 0
M  V30 6854 H 648.01 -4.97613 2.38925 0
M  V30 6855 H 648.487 -4.31327 0.827893 0
M  V30 6856 H 649.093 -3.56298 2.32233 0
M  V30 6857 N 647.408 -1.11026 -1.11852 0
M  V30 6858 C 648.338 -0.786812 -2.19844 0
M  V30 6859 C 649.319 0.242935 -1.68356 0
M  V30 6860 O 650.504 0.107355 -1.93903 0
M  V30 6861 C 647.634 -0.224516 -3.46574 0
M  V30 6862 C 646.588 -1.18564 -4.1125 0
M  V30 6863 C 645.914 -0.484261 -5.32503 0
M  V30 6864 C 647.214 -2.53465 -4.56676 0
M  V30 6865 H 648.908 -1.68978 -2.47158 0
M  V30 6866 H 646.454 -0.813906 -1.18792 0
M  V30 6867 H 648.407 0.0139435 -4.21398 0
M  V30 6868 H 647.131 0.713722 -3.18706 0
M  V30 6869 H 645.79 -1.40966 -3.38414 0
M  V30 6870 H 645.438 0.458646 -5.00905 0
M  V30 6871 H 645.138 -1.12526 -5.76725 0
M  V30 6872 H 646.662 -0.254492 -6.10069 0
M  V30 6873 H 648.076 -2.35177 -5.22843 0
M  V30 6874 H 646.473 -3.13507 -5.11697 0
M  V30 6875 H 647.543 -3.13008 -3.70343 0
M  V30 6876 N 648.886 1.2938 -0.899927 0
M  V30 6877 C 649.816 2.30144 -0.39446 0
M  V30 6878 C 650.797 1.61611 0.530639 0
M  V30 6879 O 651.982 1.89119 0.441319 0
M  V30 6880 C 649.112 3.45229 0.37868 0
M  V30 6881 C 648.066 4.25564 -0.456012 0
M  V30 6882 C 647.392 5.32848 0.444637 0
M  V30 6883 C 648.692 4.93651 -1.70605 0
M  V30 6884 H 650.386 2.72673 -1.23653 0
M  V30 6885 H 647.932 1.31086 -0.596034 0
M  V30 6886 H 649.885 4.14797 0.743037 0
M  V30 6887 H 648.609 3.01545 1.25453 0
M  V30 6888 H 647.268 3.57704 -0.802704 0
M  V30 6889 H 646.916 4.85408 1.31863 0
M  V30 6890 H 646.616 5.87497 -0.110154 0
M  V30 6891 H 648.14 6.05268 0.805182 0
M  V30 6892 H 649.554 5.55655 -1.41141 0
M  V30 6893 H 647.951 5.58233 -2.20217 0
M  V30 6894 H 649.021 4.18926 -2.4419 0
M  V30 6895 N 650.364 0.662433 1.43002 0
M  V30 6896 C 651.311 -0.0235324 2.30788 0
M  V30 6897 C 652.281 -0.805342 1.4527 0
M  V30 6898 O 653.466 -0.78009 1.74124 0
M  V30 6899 C 650.606 -0.977545 3.30965 0
M  V30 6900 C 649.719 -0.190865 4.31578 0
M  V30 6901 C 648.854 -1.13951 5.18834 0
M  V30 6902 C 647.893 -0.343796 6.11134 0
M  V30 6903 N 647.03 -1.2445 6.90982 0
M  V30 6904 H 651.87 0.730921 2.88897 0
M  V30 6905 H 649.407 0.372197 1.42313 0
M  V30 6906 H 651.365 -1.54437 3.87563 0
M  V30 6907 H 649.995 -1.69877 2.74484 0
M  V30 6908 H 649.047 0.492388 3.772 0
M  V30 6909 H 650.359 0.427464 4.96965 0
M  V30 6910 H 649.513 -1.77666 5.80103 0
M  V30 6911 H 648.252 -1.79174 4.53595 0
M  V30 6912 H 647.257 0.30665 5.48944 0
M  V30 6913 H 648.482 0.304161 6.78419 0
M  V30 6914 H 646.428 -1.88336 6.28383 0
M  V30 6915 H 646.345 -0.680959 7.52927 0
M  V30 6916 H 647.613 -1.86952 7.56749 0
M  V30 6917 N 651.842 -1.52309 0.404946 0
M  V30 6918 C 652.789 -2.26898 -0.422597 0
M  V30 6919 C 653.759 -1.2914 -1.04461 0
M  V30 6920 O 654.944 -1.57996 -1.06967 0
M  V30 6921 C 652.084 -3.09053 -1.53559 0
M  V30 6922 C 651.197 -4.21762 -0.934908 0
M  V30 6923 C 650.332 -4.91283 -2.02025 0
M  V30 6924 C 649.371 -5.95962 -1.39628 0
M  V30 6925 N 648.508 -6.59017 -2.42159 0
M  V30 6926 H 653.348 -2.97188 0.219903 0
M  V30 6927 H 650.885 -1.46607 0.120282 0
M  V30 6928 H 652.843 -3.54987 -2.19181 0
M  V30 6929 H 651.473 -2.40942 -2.14818 0
M  V30 6930 H 650.525 -3.80029 -0.167854 0
M  V30 6931 H 651.837 -4.96864 -0.439073 0
M  V30 6932 H 650.991 -5.40601 -2.75383 0
M  V30 6933 H 649.73 -4.15741 -2.54973 0
M  V30 6934 H 648.735 -5.45968 -0.648023 0
M  V30 6935 H 649.96 -6.73445 -0.874553 0
M  V30 6936 H 647.906 -5.86306 -2.94247 0
M  V30 6937 H 647.823 -7.2978 -1.97376 0
M  V30 6938 H 649.091 -7.12974 -3.15099 0
M  V30 6939 N 653.32 -0.135238 -1.57019 0
M  V30 6940 C 654.283 0.794707 -2.14981 0
M  V30 6941 C 655.283 1.18342 -1.08866 0
M  V30 6942 O 656.473 1.10627 -1.34563 0
M  V30 6943 C 653.605 2.07685 -2.70333 0
M  V30 6944 H 654.798 0.290696 -2.98488 0
M  V30 6945 H 652.351 0.114128 -1.55883 0
M  V30 6946 H 653.086 2.6248 -1.9046 0
M  V30 6947 H 652.871 1.80745 -3.47957 0
M  V30 6948 H 654.361 2.74127 -3.1503 0
M  V30 6949 N 654.798 1.5699 0.138552 0
M  V30 6950 C 655.746 1.99858 1.18994 0
M  V30 6951 C 656.74 0.89231 1.43994 0
M  V30 6952 O 657.946 1.0775 1.44187 0
M  V30 6953 H 654.321 0.636325 0.400743 0
M  V30 6954 H 656.292 2.87427 0.801755 0
M  V30 6955 C 655.041 2.40235 2.51361 0
M  V30 6956 H 654.364 3.24917 2.32957 0
M  V30 6957 H 655.804 2.74045 3.23535 0
M  V30 6958 C 654.263 1.25829 3.1252 0
M  V30 6959 O 654.793 0.563604 3.97727 0
M  V30 6960 N 652.999 1.02036 2.72097 0
M  V30 6961 H 652.546 1.58705 2.02905 0
M  V30 6962 H 652.504 0.256796 3.1335 0
M  V30 6963 N 656.276 -0.40816 1.52223 0
M  V30 6964 C 657.223 -1.49737 1.75635 0
M  V30 6965 C 658.193 -1.5493 0.598824 0
M  V30 6966 O 659.378 -1.71487 0.83648 0
M  V30 6967 C 656.518 -2.87174 1.91376 0
M  V30 6968 C 655.631 -2.91283 3.19027 0
M  V30 6969 C 654.766 -4.20026 3.25195 0
M  V30 6970 C 653.805 -4.18113 4.47044 0
M  V30 6971 N 652.942 -5.38429 4.50598 0
M  V30 6972 H 657.782 -1.29075 2.68596 0
M  V30 6973 H 655.319 -0.626518 1.33091 0
M  V30 6974 H 657.277 -3.66959 1.98486 0
M  V30 6975 H 655.907 -3.06329 1.01795 0
M  V30 6976 H 654.959 -2.03984 3.21084 0
M  V30 6977 H 656.271 -2.85734 4.08849 0
M  V30 6978 H 655.425 -5.08204 3.31382 0
M  V30 6979 H 654.164 -4.28271 2.33313 0
M  V30 6980 H 653.169 -3.28325 4.41002 0
M  V30 6981 H 654.394 -4.11507 5.40221 0
M  V30 6982 H 652.34 -5.4734 3.616 0
M  V30 6983 H 652.257 -5.34879 5.34266 0
M  V30 6984 H 653.525 -6.28557 4.61016 0
M  V30 6985 N 657.755 -1.42862 -0.66545 0
M  V30 6986 C 658.702 -1.4707 -1.77874 0
M  V30 6987 C 659.672 -0.321654 -1.62956 0
M  V30 6988 O 660.857 -0.52707 -1.83376 0
M  V30 6989 C 657.997 -1.38788 -3.15962 0
M  V30 6990 C 657.11 -2.63801 -3.42101 0
M  V30 6991 C 656.245 -2.47594 -4.69969 0
M  V30 6992 C 655.284 -3.67936 -4.89172 0
M  V30 6993 N 654.421 -3.50614 -6.08288 0
M  V30 6994 H 659.261 -2.42204 -1.73613 0
M  V30 6995 H 656.798 -1.20239 -0.847401 0
M  V30 6996 H 658.756 -1.31982 -3.95773 0
M  V30 6997 H 657.386 -0.472431 -3.19324 0
M  V30 6998 H 656.438 -2.80935 -2.56475 0
M  V30 6999 H 657.75 -3.53228 -3.52181 0
M  V30 7000 H 656.904 -2.38427 -5.57886 0
M  V30 7001 H 655.643 -1.55672 -4.62188 0
M  V30 7002 H 654.648 -3.77525 -3.99694 0
M  V30 7003 H 655.873 -4.60851 -4.98792 0
M  V30 7004 H 653.819 -2.61417 -6.01662 0
M  V30 7005 H 653.736 -4.33634 -6.19272 0
M  V30 7006 H 655.004 -3.45276 -6.98859 0
M  V30 7007 N 659.233 0.902656 -1.29189 0
M  V30 7008 C 660.165 2.01149 -1.09872 0
M  V30 7009 C 661.178 1.62732 -0.0471046 0
M  V30 7010 O 662.367 1.76107 -0.29132 0
M  V30 7011 C 659.467 3.32612 -0.649818 0
M  V30 7012 C 658.64 3.99574 -1.7793 0
M  V30 7013 C 657.699 5.09325 -1.32191 0
M  V30 7014 O 656.725 5.31919 -2.02611 0
M  V30 7015 N 657.927 5.80185 -0.191171 0
M  V30 7016 H 660.692 2.18276 -2.05368 0
M  V30 7017 H 658.253 1.07466 -1.2109 0
M  V30 7018 H 660.245 4.03375 -0.327199 0
M  V30 7019 H 658.815 3.11876 0.212597 0
M  V30 7020 H 658.035 3.22213 -2.27095 0
M  V30 7021 H 659.323 4.41056 -2.53668 0
M  V30 7022 H 658.721 5.64312 0.396016 0
M  V30 7023 H 657.278 6.5176 0.0721001 0
M  V30 7024 N 660.711 1.11618 1.11262 0
M  V30 7025 C 661.659 0.771291 2.1944 0
M  V30 7026 C 662.653 -0.238073 1.67719 0
M  V30 7027 O 663.859 -0.0971628 1.79738 0
M  V30 7028 H 660.234 0.231548 0.715465 0
M  V30 7029 H 662.205 1.69226 2.45775 0
M  V30 7030 C 660.954 0.232765 3.4692 0
M  V30 7031 H 660.277 1.00072 3.87073 0
M  V30 7032 H 661.717 0.0296561 4.2399 0
M  V30 7033 C 660.176 -1.03738 3.20531 0
M  V30 7034 O 660.706 -2.11675 3.41404 0
M  V30 7035 N 658.912 -0.960906 2.74253 0
M  V30 7036 H 658.459 -0.0824323 2.57468 0
M  V30 7037 H 658.417 -1.8114 2.56974 0
M  V30 7038 N 662.189 -1.289 0.906776 0
M  V30 7039 C 663.436 -1.95269 0.536326 0
M  V30 7040 C 663.764 -1.71435 -0.918711 0
M  V30 7041 O 663.019 -1.02431 -1.66752 0
M  V30 7042 C 663.318 -3.48704 0.783617 0
M  V30 7043 C 662.984 -3.92626 2.21711 0
M  V30 7044 C 661.646 -4.04329 2.60906 0
M  V30 7045 C 663.998 -4.15218 3.15029 0
M  V30 7046 C 661.326 -4.35998 3.92584 0
M  V30 7047 C 663.678 -4.48365 4.46264 0
M  V30 7048 C 662.342 -4.58278 4.85322 0
M  V30 7049 H 661.612 -0.714538 0.196256 0
M  V30 7050 H 664.259 -1.53366 1.14678 0
M  V30 7051 H 662.564 -3.91696 0.0903048 0
M  V30 7052 H 664.261 -3.98162 0.476267 0
M  V30 7053 H 660.851 -3.84038 1.90296 0
M  V30 7054 H 665.035 -4.05636 2.8596 0
M  V30 7055 H 660.291 -4.41878 4.22557 0
M  V30 7056 H 664.465 -4.64795 5.18593 0
M  V30 7057 H 662.092 -4.82573 5.87391 0
M  V30 7058 N 663.667 -0.670007 -1.42649 0
M  V30 7059 C 664.614 0.0112928 -2.30797 0
M  V30 7060 C 665.584 0.797627 -1.45695 0
M  V30 7061 O 666.769 0.770845 -1.74535 0
M  V30 7062 C 663.909 0.95998 -3.31479 0
M  V30 7063 C 663.022 0.167975 -4.31673 0
M  V30 7064 C 662.157 1.11198 -5.19431 0
M  V30 7065 C 661.196 0.311381 -6.11307 0
M  V30 7066 N 660.333 1.20784 -6.91633 0
M  V30 7067 H 665.173 -0.746231 -2.88505 0
M  V30 7068 H 662.71 -0.379739 -1.42114 0
M  V30 7069 H 664.668 1.52379 -3.88377 0
M  V30 7070 H 663.298 1.68419 -2.75382 0
M  V30 7071 H 662.35 -0.512385 -3.76933 0
M  V30 7072 H 663.662 -0.453814 -4.96731 0
M  V30 7073 H 662.816 1.74587 -5.81037 0
M  V30 7074 H 661.555 1.76766 -4.54538 0
M  V30 7075 H 660.56 -0.335758 -5.48774 0
M  V30 7076 H 661.785 -0.340135 -6.78248 0
M  V30 7077 H 659.731 1.85001 -6.29373 0
M  V30 7078 H 659.648 0.64102 -7.53277 0
M  V30 7079 H 660.916 1.82936 -7.5773 0
M  V30 7080 N 665.145 1.52092 -0.413018 0
M  V30 7081 C 666.37 2.06756 0.163338 0
M  V30 7082 C 666.795 1.28073 1.37764 0
M  V30 7083 O 666.153 0.312015 1.78595 0
M  V30 7084 C 666.201 3.57278 0.488322 0
M  V30 7085 O 665.305 3.80986 1.57871 0
M  V30 7086 H 664.646 0.663882 0.0125068 0
M  V30 7087 H 667.176 1.95988 -0.587339 0
M  V30 7088 H 667.186 4.01125 0.745836 0
M  V30 7089 H 665.861 4.13978 -0.399327 0
M  V30 7090 H 664.438 3.49017 1.31306 0
M  V30 7091 N 666.623 0.143563 1.56945 0
M  V30 7092 C 667.533 -0.810562 2.20152 0
M  V30 7093 C 668.549 -1.27431 1.1848 0
M  V30 7094 O 669.725 -1.33221 1.51044 0
M  V30 7095 C 666.79 -2.03353 2.80799 0
M  V30 7096 C 665.851 -1.61936 3.97587 0
M  V30 7097 C 665.084 -2.78403 4.55332 0
M  V30 7098 O 665.307 -3.94521 4.11958 0
M  V30 7099 O 664.241 -2.54073 5.45647 0
M  V30 7100 H 668.067 -0.30253 3.02189 0
M  V30 7101 H 665.652 -0.0832925 1.49168 0
M  V30 7102 H 667.534 -2.74932 3.19359 0
M  V30 7103 H 666.209 -2.53116 2.01777 0
M  V30 7104 H 665.116 -0.873904 3.6375 0
M  V30 7105 H 666.449 -1.16892 4.78118 0
M  V30 7106 N 668.101 -1.57061 -0.130224 0
M  V30 7107 C 669.347 -1.8453 -0.841216 0
M  V30 7108 C 669.68 -0.727666 -1.80052 0
M  V30 7109 O 668.955 0.267419 -1.92653 0
M  V30 7110 C 669.238 -3.22553 -1.60099 0
M  V30 7111 C 669.091 -4.44901 -0.662048 0
M  V30 7112 C 670.41 -3.58003 -2.55973 0
M  V30 7113 H 667.529 -0.671215 -0.304366 0
M  V30 7114 H 670.171 -1.89705 -0.105821 0
M  V30 7115 H 668.321 -3.18272 -2.22789 0
M  V30 7116 H 669.993 -4.61278 -0.0448559 0
M  V30 7117 H 668.236 -4.33791 0.0272253 0
M  V30 7118 H 668.907 -5.3812 -1.23006 0
M  V30 7119 H 671.383 -3.63002 -2.03393 0
M  V30 7120 H 670.259 -4.55576 -3.06172 0
M  V30 7121 H 670.52 -2.84833 -3.38116 0
M  V30 7122 N 669.579 0.400081 -1.52437 0
M  V30 7123 C 670.512 1.50929 -1.7116 0
M  V30 7124 C 671.49 1.52679 -0.559275 0
M  V30 7125 O 672.674 1.71251 -0.787735 0
M  V30 7126 C 669.801 2.89433 -1.75915 0
M  V30 7127 C 668.847 3.05556 -2.97553 0
M  V30 7128 S 669.68 2.77919 -4.57735 0
M  V30 7129 C 670.836 4.18636 -4.6529 0
M  V30 7130 H 671.069 1.3482 -2.64973 0
M  V30 7131 H 668.602 0.592245 -1.4259 0
M  V30 7132 H 670.56 3.69253 -1.7934 0
M  V30 7133 H 669.221 3.02877 -0.832137 0
M  V30 7134 H 668.414 4.0691 -2.97388 0
M  V30 7135 H 668.016 2.33615 -2.92062 0
M  V30 7136 H 670.308 5.12406 -4.43223 0
M  V30 7137 H 671.251 4.23821 -5.67258 0
M  V30 7138 H 671.659 4.04029 -3.94234 0
M  V30 7139 N 671.057 1.43213 0.657864 0
M  V30 7140 C 672.303 1.44798 1.41991 0
M  V30 7141 C 672.636 0.070256 1.94073 0
M  V30 7142 O 671.911 -0.908177 1.71995 0
M  V30 7143 C 672.194 2.4865 2.60471 0
M  V30 7144 C 672.047 3.95679 2.13911 0
M  V30 7145 C 673.366 2.49292 3.62686 0
M  V30 7146 H 670.485 0.527244 0.514959 0
M  V30 7147 H 673.127 1.74733 0.74621 0
M  V30 7148 H 671.277 2.23254 3.17946 0
M  V30 7149 H 672.949 4.32116 1.61472 0
M  V30 7150 H 671.192 4.08733 1.45325 0
M  V30 7151 H 671.863 4.6395 2.99089 0
M  V30 7152 H 674.339 2.71917 3.14961 0
M  V30 7153 H 673.215 3.23907 4.43143 0
M  V30 7154 H 673.476 1.52502 4.14964 0
M  V30 7155 N 672.536 -0.895792 1.29666 0
M  V30 7156 C 673.947 -1.46195 1.1612 0
M  V30 7157 C 674.298 -1.94699 -0.242195 0
M  V30 7158 O 673.423 -1.8406 -1.13802 0
M  V30 7159 C 674.018 -2.65718 2.10189 0
M  V30 7160 C 672.577 -3.18458 2.00653 0
M  V30 7161 C 671.724 -1.91149 2.00891 0
M  V30 7162 H 674.675 -0.706756 1.42094 0
M  V30 7163 H 674.696 -3.4158 1.6764 0
M  V30 7164 H 674.208 -2.30386 3.12321 0
M  V30 7165 H 672.309 -3.58474 1.01623 0
M  V30 7166 H 672.422 -3.82491 2.88509 0
M  V30 7167 H 670.786 -2.09021 1.45542 0
M  V30 7168 H 671.569 -1.58089 3.04734 0
M  V30 7169 N 674.014 -1.12206 -1.10668 0
M  V30 7170 C 675.26 -0.877172 -1.82848 0
M  V30 7171 C 675.593 0.595571 -1.84842 0
M  V30 7172 O 674.868 1.44013 -1.30731 0
M  V30 7173 C 675.151 -1.44957 -3.29635 0
M  V30 7174 C 675.004 -2.99051 -3.35989 0
M  V30 7175 C 676.323 -1.10714 -4.25946 0
M  V30 7176 H 673.442 -0.320103 -0.663854 0
M  V30 7177 H 676.084 -1.38827 -1.2972 0
M  V30 7178 H 674.234 -1.01488 -3.7501 0
M  V30 7179 H 675.906 -3.51182 -2.99113 0
M  V30 7180 H 674.149 -3.34705 -2.75962 0
M  V30 7181 H 674.82 -3.34194 -4.39339 0
M  V30 7182 H 677.296 -1.48254 -3.88793 0
M  V30 7183 H 676.172 -1.5343 -5.2702 0
M  V30 7184 H 676.433 -0.019 -4.42096 0
M  V30 7185 N 675.492 1.28418 -0.913599 0
M  V30 7186 C 676.439 2.27301 -0.400373 0
M  V30 7187 C 677.409 1.57582 0.52509 0
M  V30 7188 O 678.594 1.85482 0.447318 0
M  V30 7189 C 675.734 3.43284 0.35361 0
M  V30 7190 C 674.847 4.27752 -0.604341 0
M  V30 7191 C 673.982 5.30934 0.168075 0
M  V30 7192 C 673.021 6.07065 -0.783499 0
M  V30 7193 N 672.158 7.02086 -0.0446112 0
M  V30 7194 H 676.998 2.70579 -1.24865 0
M  V30 7195 H 674.535 1.33067 -0.627028 0
M  V30 7196 H 676.493 4.09322 0.806945 0
M  V30 7197 H 675.123 3.00997 1.16623 0
M  V30 7198 H 674.175 3.61759 -1.17621 0
M  V30 7199 H 675.487 4.80682 -1.33216 0
M  V30 7200 H 674.641 6.02855 0.681979 0
M  V30 7201 H 673.38 4.78771 0.928947 0
M  V30 7202 H 672.385 5.33995 -1.30878 0
M  V30 7203 H 673.61 6.61317 -1.54392 0
M  V30 7204 H 671.556 6.52273 0.698272 0
M  V30 7205 H 671.473 7.52637 -0.712258 0
M  V30 7206 H 672.741 7.78205 0.449102 0
M  V30 7207 N 676.97 0.677563 1.42291 0
M  V30 7208 C 677.933 0.0101085 2.29198 0
M  V30 7209 C 678.933 -0.726219 1.43467 0
M  V30 7210 O 680.123 -0.563807 1.64824 0
M  V30 7211 C 677.255 -0.996316 3.26016 0
M  V30 7212 H 678.448 0.775071 2.89711 0
M  V30 7213 H 676.001 0.440065 1.49977 0
M  V30 7214 H 676.736 -1.78967 2.70446 0
M  V30 7215 H 676.521 -0.471687 3.89253 0
M  V30 7216 H 678.011 -1.46167 3.91184 0
M  V30 7217 N 678.448 -1.51871 0.421078 0
M  V30 7218 C 679.673 -2.0684 -0.152371 0
M  V30 7219 C 680.098 -1.28802 -1.37083 0
M  V30 7220 O 679.456 -0.321482 -1.78427 0
M  V30 7221 C 679.504 -3.57532 -0.469368 0
M  V30 7222 O 678.608 -3.81818 -1.55848 0
M  V30 7223 H 677.949 -0.663939 -0.00898586 0
M  V30 7224 H 680.479 -1.95674 0.597724 0
M  V30 7225 H 680.489 -4.01515 -0.724553 0
M  V30 7226 H 679.164 -4.13761 0.421276 0
M  V30 7227 H 677.741 -3.49709 -1.29453 0
M  V30 7228 N 679.926 -0.151884 -1.56866 0
M  V30 7229 C 681.174 0.497021 -1.95893 0
M  V30 7230 C 681.495 1.65078 -1.03799 0
M  V30 7231 O 680.765 1.95642 -0.10049 0
M  V30 7232 H 679.345 0.186603 -0.723318 0
M  V30 7233 H 682.007 -0.228525 -1.93556 0
M  V30 7234 H 681.103 0.869933 -2.99731 0
M  V30 7235 N 681.404 1.57128 0.121893 0
M  V30 7236 C 682.629 1.89254 0.848385 0
M  V30 7237 C 683.054 0.743527 1.72781 0
M  V30 7238 O 682.412 -0.306056 1.78698 0
M  V30 7239 C 682.46 3.20113 1.66012 0
M  V30 7240 O 681.564 3.05815 2.76679 0
M  V30 7241 H 680.905 0.621103 0.234793 0
M  V30 7242 H 683.435 2.0433 0.10516 0
M  V30 7243 H 683.445 3.52761 2.04996 0
M  V30 7244 H 682.12 4.03336 1.01452 0
M  V30 7245 H 680.697 2.84627 2.40918 0
M  V30 7246 N 682.882 -0.391992 1.52647 0
M  V30 7247 C 684.107 -1.16312 1.71716 0
M  V30 7248 C 684.532 -1.83042 0.433279 0
M  V30 7249 O 683.89 -1.70705 -0.610707 0
M  V30 7250 C 683.938 -2.18908 2.86551 0
M  V30 7251 O 683.042 -3.2543 2.53316 0
M  V30 7252 H 682.383 -0.338743 0.571095 0
M  V30 7253 H 684.913 -0.457202 1.99426 0
M  V30 7254 H 684.923 -2.62954 3.1196 0
M  V30 7255 H 683.598 -1.69726 3.79692 0
M  V30 7256 H 682.175 -2.86543 2.38637 0
M  V30 7257 N 684.36 -1.4356 -0.65026 0
M  V30 7258 C 685.31 -1.45392 -1.75628 0
M  V30 7259 C 686.294 -0.322006 -1.57645 0
M  V30 7260 O 687.486 -0.565996 -1.67707 0
M  V30 7261 C 684.615 -1.38254 -3.1423 0
M  V30 7262 C 683.701 -2.56487 -3.3775 0
M  V30 7263 N 684.092 -3.81824 -3.31729 0
M  V30 7264 C 682.39 -2.51274 -3.6848 0
M  V30 7265 C 683.091 -4.60497 -3.55412 0
M  V30 7266 N 682.067 -3.91274 -3.77367 0
M  V30 7267 H 685.869 -2.40167 -1.69402 0
M  V30 7268 H 683.383 -1.38254 -0.852037 0
M  V30 7269 H 685.38 -1.3765 -3.9352 0
M  V30 7270 H 684.04 -0.445019 -3.21636 0
M  V30 7271 H 685.051 -4.14069 -3.11074 0
M  V30 7272 H 681.728 -1.66223 -3.82983 0
M  V30 7273 H 683.118 -5.69518 -3.5651 0
M  V30 7274 N 685.838 0.888903 -1.30139 0
M  V30 7275 C 687.078 1.65456 -1.20015 0
M  V30 7276 C 687.442 1.90467 0.242148 0
M  V30 7277 O 688.643 2.6472 0.466561 0
M  V30 7278 C 686.914 2.96071 -2.00191 0
M  V30 7279 S 688.473 3.87055 -2.06721 0
M  V30 7280 H 685.291 0.567927 -0.427761 0
M  V30 7281 H 687.893 1.05539 -1.64565 0
M  V30 7282 H 686.597 2.7559 -3.04103 0
M  V30 7283 H 686.128 3.61023 -1.56288 0
M  V30 7284 H 688.143 4.81676 -1.19174 0
M  V30 7285 N 687.317 1.12792 1.10072 0
M  V30 7286 C 688.733 0.864745 1.34143 0
M  V30 7287 C 688.933 -0.503201 1.95116 0
M  V30 7288 O 687.989 -1.25111 2.19325 0
M  V30 7289 C 689.302 1.98413 2.25949 0
M  V30 7290 C 690.85 2.01545 2.39476 0
M  V30 7291 C 691.325 3.12727 3.34613 0
M  V30 7292 N 692.816 3.12194 3.42183 0
M  V30 7293 C 693.551 3.94862 4.15779 0
M  V30 7294 N 693.047 4.87528 4.92228 0
M  V30 7295 N 694.84 3.82985 4.11435 0
M  V30 7296 H 686.991 2.00926 0.68866 0
M  V30 7297 H 689.254 0.874564 0.365844 0
M  V30 7298 H 688.96 2.97005 1.88364 0
M  V30 7299 H 688.834 1.89254 3.26287 0
M  V30 7300 H 691.221 1.0357 2.76328 0
M  V30 7301 H 691.302 2.14777 1.3894 0
M  V30 7302 H 690.946 4.10936 2.98486 0
M  V30 7303 H 690.876 2.96732 4.35037 0
M  V30 7304 H 693.367 2.45065 2.87666 0
M  V30 7305 H 693.68 5.47109 5.45794 0
M  V30 7306 H 692.025 4.91539 4.9134 0
M  V30 7307 H 695.216 3.09923 3.50807 0
M  V30 7308 H 695.389 4.47641 4.68531 0
M  V30 7309 N 688.795 -1.27931 0.920396 0
M  V30 7310 C 689.758 -2.25345 0.41858 0
M  V30 7311 C 690.758 -1.54116 -0.458798 0
M  V30 7312 O 691.948 -1.72235 -0.260912 0
M  V30 7313 C 689.08 -3.38556 -0.399104 0
M  V30 7314 H 690.273 -2.71251 1.27918 0
M  V30 7315 H 687.826 -1.39728 0.700406 0
M  V30 7316 H 688.561 -2.98021 -1.27882 0
M  V30 7317 H 688.346 -3.91426 0.229863 0
M  V30 7318 H 689.836 -4.10976 -0.740817 0
M  V30 7319 N 690.273 -0.685099 -1.4193 0
M  V30 7320 C 691.521 -0.21124 -2.00993 0
M  V30 7321 C 691.842 1.18985 -1.54491 0
M  V30 7322 O 691.112 1.8009 -0.771 0
M  V30 7323 H 689.692 -0.0751059 -0.743215 0
M  V30 7324 H 692.354 -0.883915 -1.73704 0
M  V30 7325 H 691.45 -0.220513 -3.1132 0
M  V30 7326 N 691.751 1.51645 -0.429126 0
M  V30 7327 C 692.683 2.25279 0.422124 0
M  V30 7328 C 693.696 1.28986 0.993299 0
M  V30 7329 O 694.885 1.54797 0.888836 0
M  V30 7330 C 691.985 2.98666 1.60162 0
M  V30 7331 C 691.158 4.2199 1.15078 0
M  V30 7332 C 690.217 4.78028 2.19946 0
M  V30 7333 O 689.243 5.40084 1.79716 0
M  V30 7334 N 690.445 4.61342 3.5234 0
M  V30 7335 H 693.21 2.98971 -0.208931 0
M  V30 7336 H 690.771 1.59838 -0.257568 0
M  V30 7337 H 692.763 3.33044 2.29922 0
M  V30 7338 H 691.333 2.28036 2.13818 0
M  V30 7339 H 690.553 3.932 0.280552 0
M  V30 7340 H 691.841 5.02037 0.826831 0
M  V30 7341 H 691.239 4.11894 3.87763 0
M  V30 7342 H 689.796 5.00104 4.18019 0
M  V30 7343 N 693.229 0.160201 1.56784 0
M  V30 7344 C 694.457 -0.494165 2.00912 0
M  V30 7345 C 694.872 -1.57548 1.04038 0
M  V30 7346 O 694.229 -1.82457 0.0394581 0
M  V30 7347 C 694.28 -1.08271 3.44905 0
M  V30 7348 O 694.001 -0.0445704 4.38077 0
M  V30 7349 C 695.502 -1.8164 4.04378 0
M  V30 7350 H 692.722 -0.127498 0.658776 0
M  V30 7351 H 695.266 0.258665 2.02858 0
M  V30 7352 H 693.421 -1.78609 3.4377 0
M  V30 7353 H 693.835 -0.477544 5.22322 0
M  V30 7354 H 695.309 -2.18094 5.07089 0
M  V30 7355 H 695.786 -2.70727 3.45838 0
M  V30 7356 H 696.392 -1.15969 4.09184 0
M  V30 7357 N 694.707 -1.5719 -0.113559 0
M  V30 7358 C 695.955 -1.84772 -0.818761 0
M  V30 7359 C 696.276 -0.746196 -1.80158 0
M  V30 7360 O 695.546 0.229305 -1.94553 0
M  V30 7361 H 694.126 -0.681737 -0.305359 0
M  V30 7362 H 696.788 -1.94645 -0.0995845 0
M  V30 7363 H 695.884 -2.80878 -1.36067 0
M  V30 7364 N 696.185 0.383891 -1.52853 0
M  V30 7365 C 697.431 1.13009 -1.68395 0
M  V30 7366 C 697.764 1.89488 -0.425195 0
M  V30 7367 O 697.039 1.8574 0.577136 0
M  V30 7368 C 697.322 2.10419 -2.92226 0
M  V30 7369 C 697.175 1.3767 -4.28214 0
M  V30 7370 C 698.494 3.10781 -3.11614 0
M  V30 7371 H 695.613 0.409463 -0.612788 0
M  V30 7372 H 698.255 0.412895 -1.85459 0
M  V30 7373 H 696.405 2.71579 -2.77808 0
M  V30 7374 H 698.077 0.794352 -4.54409 0
M  V30 7375 H 696.32 0.678533 -4.2846 0
M  V30 7376 H 696.991 2.08874 -5.10956 0
M  V30 7377 H 699.467 2.59715 -3.25096 0
M  V30 7378 H 698.343 3.76179 -3.99725 0
M  V30 7379 H 698.604 3.79933 -2.2606 0
M  V30 7380 N 697.663 1.43903 0.642637 0
M  V30 7381 C 698.903 1.47591 1.41408 0
M  V30 7382 C 699.267 0.101313 1.91733 0
M  V30 7383 O 700.468 0.0128797 2.68797 0
M  V30 7384 C 698.739 2.4977 2.55636 0
M  V30 7385 S 700.298 2.72417 3.43998 0
M  V30 7386 H 697.116 0.522163 0.482563 0
M  V30 7387 H 699.718 1.80745 0.745085 0
M  V30 7388 H 698.422 3.48365 2.16956 0
M  V30 7389 H 697.953 2.1815 3.27375 0
M  V30 7390 H 699.968 2.03142 4.52712 0
M  V30 7391 N 699.141 -0.881989 1.30609 0
M  V30 7392 C 700.071 -2.00413 1.1982 0
M  V30 7393 C 701.052 -1.69871 0.0881538 0
M  V30 7394 O 702.237 -1.92304 0.2707 0
M  V30 7395 C 699.367 -3.35641 0.89233 0
M  V30 7396 C 698.321 -3.80451 1.96064 0
M  V30 7397 C 697.647 -5.13003 1.5077 0
M  V30 7398 C 698.947 -3.98855 3.37213 0
M  V30 7399 H 700.641 -2.09698 2.13699 0
M  V30 7400 H 698.187 -1.00754 1.02882 0
M  V30 7401 H 700.14 -4.13669 0.803497 0
M  V30 7402 H 698.864 -3.26497 -0.0821381 0
M  V30 7403 H 697.523 -3.04654 2.03916 0
M  V30 7404 H 697.171 -5.0029 0.521417 0
M  V30 7405 H 696.871 -5.43956 2.22229 0
M  V30 7406 H 698.395 -5.93554 1.43271 0
M  V30 7407 H 699.809 -4.67312 3.32103 0
M  V30 7408 H 698.206 -4.41188 4.06784 0
M  V30 7409 H 699.276 -3.02614 3.78883 0
M  V30 7410 N 700.619 -1.13374 -1.09472 0
M  V30 7411 C 701.868 -0.889844 -1.8101 0
M  V30 7412 C 702.181 0.585686 -1.86625 0
M  V30 7413 O 703.387 0.946497 -2.54467 0
M  V30 7414 C 701.843 -1.54241 -3.25174 0
M  V30 7415 C 701.451 -3.05343 -3.27826 0
M  V30 7416 C 703.195 -1.37919 -4.0147 0
M  V30 7417 C 701.102 -3.63486 -4.6651 0
M  V30 7418 H 700.032 -0.329256 -0.678311 0
M  V30 7419 H 702.683 -1.36139 -1.23038 0
M  V30 7420 H 701.065 -0.998525 -3.83204 0
M  V30 7421 H 702.239 -3.66307 -2.79563 0
M  V30 7422 H 700.554 -3.21175 -2.65019 0
M  V30 7423 H 703.151 -1.78771 -5.03929 0
M  V30 7424 H 703.494 -0.323987 -4.15037 0
M  V30 7425 H 704.027 -1.89284 -3.49881 0
M  V30 7426 H 700.766 -4.68811 -4.58145 0
M  V30 7427 H 700.286 -3.073 -5.15099 0
M  V30 7428 H 701.965 -3.63134 -5.35484 0
M  V30 7429 N 702.098 1.27442 -0.927168 0
M  V30 7430 C 703.031 2.25177 -0.370232 0
M  V30 7431 C 704.009 1.53612 0.533103 0
M  V30 7432 O 705.193 1.8245 0.47373 0
M  V30 7433 C 702.32 3.35431 0.469411 0
M  V30 7434 C 701.366 4.24888 -0.370419 0
M  V30 7435 S 702.199 5.04852 -1.78562 0
M  V30 7436 C 703.355 6.18592 -0.953651 0
M  V30 7437 H 703.588 2.72069 -1.19858 0
M  V30 7438 H 701.121 1.36089 -0.729316 0
M  V30 7439 H 703.079 3.99404 0.947992 0
M  V30 7440 H 701.74 2.87179 1.27228 0
M  V30 7441 H 700.933 5.03264 0.272226 0
M  V30 7442 H 700.535 3.65709 -0.783153 0
M  V30 7443 H 702.827 6.77235 -0.189408 0
M  V30 7444 H 703.77 6.87132 -1.7104 0
M  V30 7445 H 704.178 5.62318 -0.495897 0
M  V30 7446 O 703.615 0.831378 1.38457 0
M  V30 7447 H 704.306 0.416578 1.89167 0
M  V30 END ATOM
M  V30 BEGIN BOND
M  V30 END BOND
M  V30 END CTAB
M  END
$$$$
