drugbank_target|P05041 Aminodeoxychorismate synthase component 1 (DB01942)
 OpenBabel12092119353D

  0  0  0     0  0            999 V3000
M  V30 BEGIN CTAB
M  V30 COUNTS 7101 7181 0 0 0
M  V30 BEGIN ATOM
M  V30 1 H -0.908 1.98254 -0.117106 0
M  V30 2 N 0 1.576 0 0
M  V30 3 C 0.933 2.03868 1.02534 0
M  V30 4 C 1.911 0.928543 1.3348 0
M  V30 5 O 3.095 1.19667 1.45644 0
M  V30 6 C 0.222 2.43627 2.35294 0
M  V30 7 C -0.732 3.65373 2.2001 0
M  V30 8 S 0.101 5.13292 1.52614 0
M  V30 9 C 1.257 5.56322 2.86805 0
M  V30 10 H 1.49 2.90518 0.631377 0
M  V30 11 H -0.977 1.52953 0.210867 0
M  V30 12 H 0.981 2.67203 3.11629 0
M  V30 13 H -0.358 1.57376 2.7183 0
M  V30 14 H -1.165 3.90944 3.18086 0
M  V30 15 H -1.563 3.418 1.51819 0
M  V30 16 H 0.729 5.58782 3.83104 0
M  V30 17 H 1.672 6.56266 2.65933 0
M  V30 18 H 2.08 4.83886 2.90714 0
M  V30 19 N 1.4781 -0.272755 1.55222 0
M  V30 20 C 2.4251 -1.33716 1.88119 0
M  V30 21 C 3.3951 -1.49066 0.73271 0
M  V30 22 O 4.5801 -1.63469 0.984002 0
M  V30 23 C 1.7201 -2.69238 2.15882 0
M  V30 24 C 0.8331 -2.62108 3.43399 0
M  V30 25 C -0.0319 -3.89811 3.60861 0
M  V30 26 C -0.9929 -3.77193 4.8207 0
M  V30 27 N -1.8559 -4.9673 4.96189 0
M  V30 28 H 2.9841 -1.04962 2.78903 0
M  V30 29 H 0.5211 -0.507088 1.38083 0
M  V30 30 H 2.4791 -3.48089 2.29978 0
M  V30 31 H 1.1091 -2.96194 1.28331 0
M  V30 32 H 0.1611 -1.74967 3.37773 0
M  V30 33 H 1.4731 -2.48685 4.32386 0
M  V30 34 H 0.6271 -4.77103 3.74777 0
M  V30 35 H -0.6339 -4.06102 2.7006 0
M  V30 36 H -1.6289 -2.88284 4.68159 0
M  V30 37 H -0.4039 -3.62421 5.74307 0
M  V30 38 H -2.4579 -5.13431 4.08319 0
M  V30 39 H -2.5409 -4.85839 5.79221 0
M  V30 40 H -1.2729 -5.85594 5.1449 0
M  V30 41 N 2.9562 -1.48159 -0.537278 0
M  V30 42 C 4.1842 -1.59454 -1.31841 0
M  V30 43 C 4.5992 -0.252065 -1.8711 0
M  V30 44 O 3.9562 0.757621 -1.66031 0
M  V30 45 C 4.0072 -2.63546 -2.47439 0
M  V30 46 O 3.7282 -3.92583 -1.94449 0
M  V30 47 C 5.2292 -2.85212 -3.39366 0
M  V30 48 H 2.4492 -0.53785 -0.401196 0
M  V30 49 H 4.9932 -1.93932 -0.648891 0
M  V30 50 H 3.1482 -2.31946 -3.1029 0
M  V30 51 H 3.5622 -4.49629 -2.70063 0
M  V30 52 H 5.0362 -3.61863 -4.16844 0
M  V30 53 H 5.5132 -1.93765 -3.94147 0
M  V30 54 H 6.1192 -3.18086 -2.82314 0
M  V30 55 N 4.4343 0.785586 -1.36625 0
M  V30 56 C 5.3643 1.91259 -1.33949 0
M  V30 57 C 6.3453 1.68795 -0.210325 0
M  V30 58 O 7.5303 1.89854 -0.408561 0
M  V30 59 C 4.6603 3.28339 -1.13186 0
M  V30 60 C 3.6143 3.65335 -2.22967 0
M  V30 61 C 2.9403 5.00806 -1.87342 0
M  V30 62 C 4.2403 3.7352 -3.65075 0
M  V30 63 H 5.9343 1.93755 -2.28253 0
M  V30 64 H 3.4803 0.930788 -1.09874 0
M  V30 65 H 5.4333 4.06804 -1.09948 0
M  V30 66 H 4.1573 3.2624 -0.153332 0
M  V30 67 H 2.8163 2.89169 -2.25337 0
M  V30 68 H 2.4643 4.95233 -0.880545 0
M  V30 69 H 2.1643 5.26529 -2.60846 0
M  V30 70 H 3.6883 5.81687 -1.85667 0
M  V30 71 H 5.1023 4.42168 -3.64911 0
M  V30 72 H 3.4993 4.10731 -4.37516 0
M  V30 73 H 4.5693 2.74527 -3.99703 0
M  V30 74 N 5.9124 1.20967 1.01018 0
M  V30 75 C 7.1374 1.0503 1.78839 0
M  V30 76 C 7.5624 -0.395752 1.8389 0
M  V30 77 O 6.9204 -1.28529 1.27867 0
M  V30 78 C 6.9684 1.64602 3.2084 0
M  V30 79 O 6.0724 0.887988 4.02726 0
M  V30 80 H 5.4134 0.369987 0.551367 0
M  V30 81 H 7.9434 1.60399 1.27018 0
M  V30 82 H 7.9534 1.68607 3.71532 0
M  V30 83 H 6.6284 2.69841 3.16479 0
M  V30 84 H 5.2054 0.922648 3.61305 0
M  V30 85 N 7.3905 -1.2043 1.01659 0
M  V30 86 C 8.8015 -1.71517 0.737482 0
M  V30 87 C 9.1525 -1.81547 -0.743973 0
M  V30 88 O 8.2775 -1.47803 -1.58061 0
M  V30 89 C 8.8725 -3.11515 1.33206 0
M  V30 90 C 7.4315 -3.59912 1.10183 0
M  V30 91 C 6.5785 -2.37116 1.43776 0
M  V30 92 H 9.5295 -1.05444 1.18606 0
M  V30 93 H 9.5505 -3.73575 0.722636 0
M  V30 94 H 9.0625 -3.04182 2.41028 0
M  V30 95 H 7.1635 -3.72577 0.0412756 0
M  V30 96 H 7.2765 -4.44731 1.78188 0
M  V30 97 H 5.6405 -2.39857 0.856778 0
M  V30 98 H 6.4235 -2.32424 2.52654 0
M  V30 99 N 8.8686 -0.792821 -1.36206 0
M  V30 100 C 9.8316 -0.199459 -2.2833 0
M  V30 101 C 10.8316 0.605189 -1.48977 0
M  V30 102 O 12.0216 0.425685 -1.68919 0
M  V30 103 C 9.1536 0.723523 -3.33134 0
M  V30 104 H 10.3466 -1.01181 -2.82316 0
M  V30 105 H 7.8996 -0.562485 -1.45828 0
M  V30 106 H 8.6346 1.56008 -2.84309 0
M  V30 107 H 8.4196 0.148436 -3.91819 0
M  V30 108 H 9.9096 1.13344 -4.01924 0
M  V30 109 N 10.3467 1.47872 -0.545128 0
M  V30 110 C 11.5927 2.02793 -0.0166104 0
M  V30 111 C 11.9257 1.41987 1.32489 0
M  V30 112 O 11.2007 0.571045 1.85928 0
M  V30 113 C 11.4837 3.59989 0.0893294 0
M  V30 114 C 11.3367 4.3125 -1.27841 0
M  V30 115 C 12.6557 4.32606 0.808724 0
M  V30 116 H 9.7747 0.736962 -0.00751035 0
M  V30 117 H 12.4167 1.76433 -0.705085 0
M  V30 118 H 10.5667 3.82579 0.675681 0
M  V30 119 H 12.2387 4.20035 -1.90704 0
M  V30 120 H 10.4817 3.92076 -1.85632 0
M  V30 121 H 11.1527 5.39736 -1.15713 0
M  V30 122 H 13.6287 4.14936 0.310992 0
M  V30 123 H 12.5047 5.42251 0.851782 0
M  V30 124 H 12.7657 4.00963 1.86229 0
M  V30 125 N 11.8248 0.280983 1.55075 0
M  V30 126 C 13.0738 -0.334784 1.98902 0
M  V30 127 C 13.3868 -1.56534 1.17288 0
M  V30 128 O 14.5928 -2.25443 1.51287 0
M  V30 129 C 13.0488 -0.646994 3.54037 0
M  V30 130 C 12.6568 0.564085 4.44435 0
M  V30 131 C 14.4008 -1.22506 4.06439 0
M  V30 132 C 12.3078 0.226137 5.90967 0
M  V30 133 H 11.2378 -0.128866 0.742906 0
M  V30 134 H 13.8888 0.386556 1.79382 0
M  V30 135 H 12.2708 -1.42739 3.6938 0
M  V30 136 H 13.4448 1.34082 4.40861 0
M  V30 137 H 11.7598 1.0594 4.02698 0
M  V30 138 H 14.3568 -1.49182 5.13468 0
M  V30 139 H 14.6998 -2.16085 3.55827 0
M  V30 140 H 15.2328 -0.50682 3.94558 0
M  V30 141 H 11.9718 1.12996 6.45687 0
M  V30 142 H 11.4918 -0.513717 5.97596 0
M  V30 143 H 13.1708 -0.179539 6.46751 0
M  V30 144 N 13.3029 -1.57598 0.00835791 0
M  V30 145 C 14.5309 -1.95214 -0.68549 0
M  V30 146 C 14.9459 -0.883706 -1.66841 0
M  V30 147 O 14.3029 0.136565 -1.81988 0
M  V30 148 C 14.3539 -3.32865 -1.41007 0
M  V30 149 O 14.0749 -4.35609 -0.466552 0
M  V30 150 C 15.5759 -3.84991 -2.19765 0
M  V30 151 H 12.7959 -0.643422 -0.190392 0
M  V30 152 H 15.3399 -2.04406 0.0619607 0
M  V30 153 H 13.4949 -3.24956 -2.10908 0
M  V30 154 H 13.9089 -5.15288 -0.978699 0
M  V30 155 H 15.3829 -4.8371 -2.65948 0
M  V30 156 H 15.8599 -3.18137 -3.02796 0
M  V30 157 H 16.4659 -3.96103 -1.54864 0
M  V30 158 N 14.781 0.264519 -1.55364 0
M  V30 159 C 15.711 1.33121 -1.91836 0
M  V30 160 C 16.692 1.51101 -0.781192 0
M  V30 161 O 17.877 1.64003 -1.04003 0
M  V30 162 C 15.007 2.68921 -2.19769 0
M  V30 163 C 13.961 2.65661 -3.35571 0
M  V30 164 C 13.287 4.05093 -3.49004 0
M  V30 165 C 14.587 2.24187 -4.71739 0
M  V30 166 H 16.281 1.02844 -2.81182 0
M  V30 167 H 13.827 0.493286 -1.35287 0
M  V30 168 H 15.78 3.43663 -2.43872 0
M  V30 169 H 14.504 3.00799 -1.27231 0
M  V30 170 H 13.163 1.93377 -3.1145 0
M  V30 171 H 12.811 4.34206 -2.53917 0
M  V30 172 H 12.511 4.03804 -4.26868 0
M  V30 173 H 14.035 4.81561 -3.75408 0
M  V30 174 H 15.449 2.88654 -4.9533 0
M  V30 175 H 13.846 2.34044 -5.52579 0
M  V30 176 H 14.916 1.19327 -4.69988 0
M  V30 177 N 16.2591 1.48442 0.529413 0
M  V30 178 C 17.1891 1.65902 1.64313 0
M  V30 179 C 18.1701 0.507897 1.6234 0
M  V30 180 O 19.3551 0.740503 1.79528 0
M  V30 181 C 16.4851 1.69911 3.02898 0
M  V30 182 C 15.4391 2.8453 3.19729 0
M  V30 183 C 14.7651 2.73629 4.59381 0
M  V30 184 C 16.0651 4.25821 3.02447 0
M  V30 185 H 17.7591 2.5914 1.49955 0
M  V30 186 H 15.3051 1.24709 0.719982 0
M  V30 187 H 17.2581 1.80715 3.80684 0
M  V30 188 H 15.9821 0.732524 3.18279 0
M  V30 189 H 14.6411 2.73283 2.44361 0
M  V30 190 H 14.2891 1.74938 4.71599 0
M  V30 191 H 13.9891 3.50541 4.71588 0
M  V30 192 H 15.5131 2.86401 5.39265 0
M  V30 193 H 16.9271 4.37898 3.70024 0
M  V30 194 H 15.3241 5.03735 3.26146 0
M  V30 195 H 16.3941 4.42244 1.98867 0
M  V30 196 N 17.7372 -0.778329 1.37039 0
M  V30 197 C 18.9832 -1.53817 1.33086 0
M  V30 198 C 19.3382 -1.92208 -0.0860346 0
M  V30 199 O 18.6312 -1.60713 -1.04316 0
M  V30 200 C 18.8252 -2.81845 2.19768 0
M  V30 201 C 18.6542 -2.55967 3.69744 0
M  V30 202 C 17.4242 -2.50428 4.38878 0
M  V30 203 C 19.6222 -2.2441 4.62758 0
M  V30 204 N 17.6042 -2.16564 5.74433 0
M  V30 205 C 18.9752 -2.0063 5.86641 0
M  V30 206 C 21.0302 -2.1051 4.5121 0
M  V30 207 C 19.7332 -1.64354 7.00272 0
M  V30 208 C 21.7592 -1.75634 5.64718 0
M  V30 209 C 21.1212 -1.52709 6.87648 0
M  V30 210 H 17.2202 -0.563434 0.542279 0
M  V30 211 H 19.8042 -0.908617 1.72198 0
M  V30 212 H 17.9752 -3.42649 1.82883 0
M  V30 213 H 19.7072 -3.47682 2.07122 0
M  V30 214 H 16.4622 -2.66056 3.91805 0
M  V30 215 H 16.8862 -2.02348 6.46053 0
M  V30 216 H 21.5282 -2.26919 3.56746 0
M  V30 217 H 19.2462 -1.46683 7.94676 0
M  V30 218 H 22.8322 -1.65546 5.57751 0
M  V30 219 H 21.7122 -1.2612 7.73992 0
M  V30 220 N 19.2153 -1.21501 -1.00376 0
M  V30 221 C 20.6313 -0.972629 -1.26539 0
M  V30 222 C 20.8313 0.340257 -1.98606 0
M  V30 223 O 19.8873 1.06561 -2.28913 0
M  V30 224 C 21.2003 -2.16404 -2.08781 0
M  V30 225 C 22.7483 -2.20643 -2.22004 0
M  V30 226 C 23.2233 -3.39306 -3.07629 0
M  V30 227 N 24.7143 -3.39401 -3.15217 0
M  V30 228 C 25.4493 -4.27867 -3.81729 0
M  V30 229 N 24.9453 -5.26533 -4.5026 0
M  V30 230 N 26.7383 -4.15672 -3.78382 0
M  V30 231 H 18.8893 -2.05929 -0.520281 0
M  V30 232 H 21.1523 -0.901803 -0.292328 0
M  V30 233 H 20.8583 -3.11554 -1.63178 0
M  V30 234 H 20.7323 -2.15567 -3.09533 0
M  V30 235 H 23.1193 -1.26048 -2.66825 0
M  V30 236 H 23.2003 -2.25523 -1.20718 0
M  V30 237 H 22.8443 -4.34195 -2.63509 0
M  V30 238 H 22.7743 -3.31665 -4.09031 0
M  V30 239 H 25.2653 -2.67997 -2.66432 0
M  V30 240 H 25.5783 -5.90337 -4.98721 0
M  V30 241 H 23.9233 -5.30457 -4.49044 0
M  V30 242 H 27.1143 -3.3785 -3.23998 0
M  V30 243 H 27.2873 -4.84825 -4.2994 0
M  V30 244 N 20.6934 1.19889 -1.02296 0
M  V30 245 C 21.6254 2.22334 -0.556787 0
M  V30 246 C 22.6384 1.58674 0.364199 0
M  V30 247 O 23.8274 1.77768 0.161533 0
M  V30 248 C 20.9274 3.38257 0.208694 0
M  V30 249 C 20.1004 4.31504 -0.71577 0
M  V30 250 C 19.1594 5.262 0.00325597 0
M  V30 251 O 18.1854 5.65798 -0.621357 0
M  V30 252 N 19.3874 5.66303 1.27599 0
M  V30 253 H 22.1524 2.62957 -1.43784 0
M  V30 254 H 19.7134 1.34495 -0.901261 0
M  V30 255 H 21.7054 3.98616 0.699111 0
M  V30 256 H 20.2754 2.96472 0.991102 0
M  V30 257 H 19.4954 3.69016 -1.38638 0
M  V30 258 H 20.7834 4.9072 -1.34428 0
M  V30 259 H 20.1814 5.36155 1.80429 0
M  V30 260 H 18.7384 6.28942 1.71102 0
M  V30 261 N 22.1715 0.800033 1.35784 0
M  V30 262 C 23.4485 0.30088 1.93272 0
M  V30 263 C 23.8285 -1.20857 1.73081 0
M  V30 264 O 23.1765 -2.00502 1.09596 0
M  V30 265 C 23.3865 0.70511 3.41803 0
M  V30 266 C 24.7345 0.690871 4.18942 0
M  V30 267 O 25.7585 0.646244 3.50289 0
M  V30 268 O 24.6175 0.74332 5.41421 0
M  V30 269 H 21.7115 0.0771605 0.823393 0
M  V30 270 H 24.2575 0.88329 1.449 0
M  V30 271 H 23.0295 1.74571 3.50201 0
M  V30 272 H 22.6525 0.0971541 3.97481 0
M  V30 273 N 23.6496 -1.47581 0.552962 0
M  V30 274 C 24.6126 -2.28439 -0.186605 0
M  V30 275 C 25.6126 -1.36706 -0.84665 0
M  V30 276 O 26.8026 -1.59378 -0.703164 0
M  V30 277 C 23.9346 -3.16264 -1.2724 0
M  V30 278 H 25.1276 -2.95294 0.523609 0
M  V30 279 H 22.6806 -1.532 0.309745 0
M  V30 280 H 23.4156 -2.54091 -2.01514 0
M  V30 281 H 23.2006 -3.83769 -0.803968 0
M  V30 282 H 24.6906 -3.77198 -1.79196 0
M  V30 283 N 25.1277 -0.289203 -1.54924 0
M  V30 284 C 26.0907 0.579144 -2.21762 0
M  V30 285 C 27.0907 1.07047 -1.1999 0
M  V30 286 O 28.2807 0.968384 -1.44803 0
M  V30 287 C 25.4127 1.80055 -2.8947 0
M  V30 288 H 26.6057 -0.00464908 -2.999 0
M  V30 289 H 24.1587 -0.0399306 -1.56249 0
M  V30 290 H 24.8937 2.42449 -2.15381 0
M  V30 291 H 24.6787 1.45602 -3.64064 0
M  V30 292 H 26.1687 2.41773 -3.40493 0
M  V30 293 N 26.6058 1.57591 -0.0167156 0
M  V30 294 C 27.5158 2.1291 0.98521 0
M  V30 295 C 28.5318 1.07834 1.36557 0
M  V30 296 O 29.7078 1.39826 1.44951 0
M  V30 297 C 26.7728 2.63512 2.25305 0
M  V30 298 C 25.8338 3.83256 1.93426 0
M  V30 299 C 25.0668 4.31435 3.14165 0
M  V30 300 O 25.2898 3.78851 4.26413 0
M  V30 301 O 24.2238 5.23416 2.97186 0
M  V30 302 H 28.0498 2.98772 0.544888 0
M  V30 303 H 25.6348 1.48012 0.203141 0
M  V30 304 H 27.5168 2.96183 2.99756 0
M  V30 305 H 26.1918 1.8074 2.68542 0
M  V30 306 H 25.0988 3.55531 1.16398 0
M  V30 307 H 26.4318 4.67153 1.55013 0
M  V30 308 N 28.0839 -0.256276 1.55502 0
M  V30 309 C 29.3309 -0.985619 1.76895 0
M  V30 310 C 29.6589 -1.85671 0.579355 0
M  V30 311 O 28.9139 -1.90744 -0.437651 0
M  V30 312 C 29.2129 -1.88432 3.03691 0
M  V30 313 C 28.8789 -1.16936 4.35473 0
M  V30 314 C 27.5409 -0.97173 4.71286 0
M  V30 315 C 29.8929 -0.661889 5.1698 0
M  V30 316 C 27.2209 -0.254179 5.86149 0
M  V30 317 C 29.5729 0.042149 6.32586 0
M  V30 318 C 28.2369 0.25134 6.67027 0
M  V30 319 H 27.5069 -0.360663 0.647304 0
M  V30 320 H 30.1539 -0.256483 1.89775 0
M  V30 321 H 28.4589 -2.68021 2.85783 0
M  V30 322 H 30.1559 -2.45015 3.1744 0
M  V30 323 H 26.7459 -1.33332 4.07333 0
M  V30 324 H 30.9299 -0.802145 4.89775 0
M  V30 325 H 26.1859 -0.0815408 6.11346 0
M  V30 326 H 30.3599 0.443049 6.94989 0
M  V30 327 H 27.9869 0.809314 7.5588 0
M  V30 328 N 29.562 -1.4872 -0.521534 0
M  V30 329 C 30.792 -1.6061 -1.29954 0
M  V30 330 C 31.2 -0.268728 -1.87282 0
M  V30 331 O 30.543 0.753221 -1.67548 0
M  V30 332 C 30.605 -2.60013 -2.48261 0
M  V30 333 C 30.269 -4.04874 -2.11957 0
M  V30 334 C 31.266 -4.92304 -1.67132 0
M  V30 335 C 28.951 -4.5047 -2.22221 0
M  V30 336 C 30.945 -6.2336 -1.33047 0
M  V30 337 C 28.632 -5.81544 -1.87748 0
M  V30 338 C 29.63 -6.67812 -1.43234 0
M  V30 339 O 29.318 -7.96446 -1.09217 0
M  V30 340 H 29.05 -0.544116 -0.401141 0
M  V30 341 H 31.604 -1.95339 -0.634958 0
M  V30 342 H 29.834 -2.20422 -3.17728 0
M  V30 343 H 31.523 -2.61648 -3.10315 0
M  V30 344 H 32.289 -4.58312 -1.58665 0
M  V30 345 H 28.168 -3.83504 -2.55823 0
M  V30 346 H 31.712 -6.90649 -0.982299 0
M  V30 347 H 27.609 -6.15069 -1.95858 0
M  V30 348 H 28.377 -8.09275 -1.22542 0
M  V30 349 N 31.0401 0.771051 -1.3745 0
M  V30 350 C 32.2871 1.52963 -1.32697 0
M  V30 351 C 32.6151 1.94299 0.0883274 0
M  V30 352 O 31.8701 1.64397 1.0617 0
M  V30 353 C 32.1691 2.80676 -2.2126 0
M  V30 354 C 31.8351 2.58389 -3.69521 0
M  V30 355 C 30.4971 2.52019 -4.09927 0
M  V30 356 C 32.8491 2.38469 -4.63446 0
M  V30 357 C 30.1771 2.23721 -5.42371 0
M  V30 358 C 32.5291 2.11694 -5.96128 0
M  V30 359 C 31.1931 2.03769 -6.35637 0
M  V30 360 H 30.4631 0.559732 -0.485573 0
M  V30 361 H 33.1101 0.888083 -1.69662 0
M  V30 362 H 31.4151 3.49392 -1.77291 0
M  V30 363 H 33.1121 3.38557 -2.14895 0
M  V30 364 H 29.7021 2.6421 -3.37478 0
M  V30 365 H 33.8861 2.4238 -4.33089 0
M  V30 366 H 29.1421 2.16081 -5.71943 0
M  V30 367 H 33.3161 1.9528 -6.6846 0
M  V30 368 H 30.9431 1.81606 -7.38189 0
M  V30 369 N 32.5182 1.22032 0.997298 0
M  V30 370 C 33.7432 1.06921 1.77715 0
M  V30 371 C 34.1682 -0.376226 1.84299 0
M  V30 372 O 33.5262 -1.27165 1.29223 0
M  V30 373 C 33.5742 1.67996 3.19076 0
M  V30 374 O 32.6782 0.930653 4.01762 0
M  V30 375 H 32.0192 0.375814 0.547412 0
M  V30 376 H 34.5492 1.61737 1.25309 0
M  V30 377 H 34.5592 1.72538 3.69723 0
M  V30 378 H 33.2342 2.73182 3.13599 0
M  V30 379 H 31.8112 0.960917 3.60307 0
M  V30 380 N 33.9963 -1.19345 1.0293 0
M  V30 381 C 35.4123 -1.41069 0.746446 0
M  V30 382 C 35.6123 -1.90078 -0.668776 0
M  V30 383 O 34.6683 -2.0778 -1.4347 0
M  V30 384 C 35.9813 -2.42141 1.78292 0
M  V30 385 C 37.5293 -2.55887 1.80252 0
M  V30 386 C 38.0043 -3.60214 2.8286 0
M  V30 387 N 39.4953 -3.67711 2.81679 0
M  V30 388 C 40.2303 -4.48128 3.57727 0
M  V30 389 N 39.7263 -5.32248 4.43491 0
M  V30 390 N 41.5193 -4.42782 3.46267 0
M  V30 391 H 33.6703 -0.858536 1.94275 0
M  V30 392 H 35.9333 -0.439541 0.839945 0
M  V30 393 H 35.6393 -2.13155 2.79746 0
M  V30 394 H 35.5133 -3.41323 1.60557 0
M  V30 395 H 37.9003 -2.84196 0.794757 0
M  V30 396 H 37.9813 -1.56858 2.02062 0
M  V30 397 H 37.6253 -3.32647 3.83807 0
M  V30 398 H 37.5553 -4.58895 2.58307 0
M  V30 399 H 40.0463 -3.07634 2.19476 0
M  V30 400 H 40.3593 -5.90729 4.98256 0
M  V30 401 H 38.7043 -5.31707 4.47564 0
M  V30 402 H 41.8953 -3.76107 2.78677 0
M  V30 403 H 42.0683 -5.05215 4.05785 0
M  V30 404 N 35.4744 -0.807222 -1.35358 0
M  V30 405 C 36.4044 -0.232509 -2.3234 0
M  V30 406 C 37.3854 0.642386 -1.57504 0
M  V30 407 O 38.5704 0.572526 -1.85569 0
M  V30 408 C 35.7004 0.619238 -3.41735 0
M  V30 409 C 34.6544 -0.157215 -4.27711 0
M  V30 410 C 33.9804 0.816273 -5.28433 0
M  V30 411 C 35.2804 -1.35656 -5.04376 0
M  V30 412 H 36.9744 -1.04276 -2.80654 0
M  V30 413 H 34.5204 -0.50288 -1.34934 0
M  V30 414 H 36.4734 1.03137 -4.08584 0
M  V30 415 H 35.1974 1.46239 -2.92031 0
M  V30 416 H 33.8564 -0.550525 -3.62443 0
M  V30 417 H 33.5044 1.65494 -4.74996 0
M  V30 418 H 33.2044 0.301067 -5.86828 0
M  V30 419 H 34.7284 1.22659 -5.98153 0
M  V30 420 H 36.1424 -1.01927 -5.64166 0
M  V30 421 H 34.5394 -1.8063 -5.7227 0
M  V30 422 H 35.6094 -2.14288 -4.34981 0
M  V30 423 N 36.9525 1.47285 -0.560781 0
M  V30 424 C 38.1775 2.07359 -0.0410566 0
M  V30 425 C 38.6025 1.41017 1.24483 0
M  V30 426 O 37.9605 0.486368 1.74654 0
M  V30 427 C 38.0085 3.6035 0.134123 0
M  V30 428 O 37.1125 3.94681 1.19587 0
M  V30 429 H 36.4535 0.661887 -0.0529291 0
M  V30 430 H 38.9835 1.89252 -0.777482 0
M  V30 431 H 38.9935 4.0652 0.347207 0
M  V30 432 H 37.6685 4.08034 -0.805047 0
M  V30 433 H 36.2455 3.60251 0.962987 0
M  V30 434 N 38.4306 0.297415 1.54768 0
M  V30 435 C 39.3806 -0.595275 2.20092 0
M  V30 436 C 40.3646 -1.10163 1.17273 0
M  V30 437 O 41.5566 -1.043 1.43006 0
M  V30 438 C 38.6856 -1.7684 2.94249 0
M  V30 439 C 37.7716 -1.27818 4.0438 0
M  V30 440 N 38.1626 -0.505695 5.03266 0
M  V30 441 C 36.4606 -1.55923 4.17857 0
M  V30 442 C 37.1616 -0.245094 5.81183 0
M  V30 443 N 36.1376 -0.823881 5.3732 0
M  V30 444 H 39.9396 0.00250837 2.939 0
M  V30 445 H 37.4536 0.102007 1.62079 0
M  V30 446 H 39.4506 -2.41944 3.39513 0
M  V30 447 H 38.1106 -2.36992 2.21957 0
M  V30 448 H 39.1216 -0.150928 5.1768 0
M  V30 449 H 35.7986 -2.16849 3.56767 0
M  V30 450 H 37.1886 0.375084 6.70852 0
M  V30 451 N 39.9087 -1.5758 0.0250728 0
M  V30 452 C 40.8387 -2.13007 -0.956575 0
M  V30 453 C 41.8197 -1.0452 -1.342 0
M  V30 454 O 43.0047 -1.32332 -1.42133 0
M  V30 455 C 40.1347 -2.65386 -2.24026 0
M  V30 456 C 39.0887 -3.78623 -1.99571 0
M  V30 457 C 38.4147 -4.17414 -3.3417 0
M  V30 458 C 39.7147 -5.04867 -1.33814 0
M  V30 459 H 41.4087 -2.9528 -0.494991 0
M  V30 460 H 38.9547 -1.42042 -0.236651 0
M  V30 461 H 40.9077 -3.02794 -2.93076 0
M  V30 462 H 39.6317 -1.80268 -2.72343 0
M  V30 463 H 38.2907 -3.41646 -1.32941 0
M  V30 464 H 37.9387 -3.29284 -3.80238 0
M  V30 465 H 37.6387 -4.93719 -3.18615 0
M  V30 466 H 39.1627 -4.57402 -4.04495 0
M  V30 467 H 40.5767 -5.39888 -1.92857 0
M  V30 468 H 38.9737 -5.86144 -1.28669 0
M  V30 469 H 40.0437 -4.83904 -0.310561 0
M  V30 470 N 41.3868 0.248026 -1.55636 0
M  V30 471 C 42.7978 0.817177 -1.67866 0
M  V30 472 C 43.1488 1.86069 -0.622322 0
M  V30 473 O 42.2738 2.15157 0.231618 0
M  V30 474 C 42.8688 1.489 -3.04326 0
M  V30 475 C 41.4278 2.00587 -3.185 0
M  V30 476 C 40.5748 0.856573 -2.63739 0
M  V30 477 H 43.5258 0.0238579 -1.58682 0
M  V30 478 H 43.5468 2.35698 -2.98708 0
M  V30 479 H 43.0588 0.729279 -3.81186 0
M  V30 480 H 41.1598 2.79443 -2.4646 0
M  V30 481 H 41.2728 2.20402 -4.25393 0
M  V30 482 H 39.6368 1.25678 -2.21534 0
M  V30 483 H 40.4198 0.109953 -3.43124 0
M  V30 484 N 42.8649 1.48995 0.513639 0
M  V30 485 C 44.1109 1.59053 1.26783 0
M  V30 486 C 44.4659 0.268136 1.90522 0
M  V30 487 O 43.7589 -0.730534 1.77126 0
M  V30 488 C 43.9529 2.67756 2.36731 0
M  V30 489 C 43.7819 4.10437 1.83771 0
M  V30 490 C 42.5519 4.7738 1.65639 0
M  V30 491 C 44.7499 4.9608 1.35681 0
M  V30 492 N 42.7319 6.04419 1.07476 0
M  V30 493 C 44.1029 6.13496 0.895715 0
M  V30 494 C 46.1579 4.82177 1.24136 0
M  V30 495 C 44.8609 7.1854 0.3306 0
M  V30 496 C 46.8869 5.87358 0.690229 0
M  V30 497 C 46.2489 7.03993 0.239292 0
M  V30 498 H 42.3479 0.636463 0.454355 0
M  V30 499 H 44.9319 1.85948 0.577196 0
M  V30 500 H 43.1029 2.42655 3.03271 0
M  V30 501 H 44.8349 2.67406 3.0377 0
M  V30 502 H 41.5899 4.33974 1.8964 0
M  V30 503 H 42.0139 6.72214 0.803579 0
M  V30 504 H 46.6559 3.92329 1.57601 0
M  V30 505 H 44.3739 8.08098 -0.0163435 0
M  V30 506 H 47.9599 5.78658 0.603852 0
M  V30 507 H 46.8399 7.83992 -0.180526 0
M  V30 508 N 44.343 -0.763751 1.37857 0
M  V30 509 C 45.306 -1.85889 1.34081 0
M  V30 510 C 46.306 -1.58949 0.243277 0
M  V30 511 O 47.496 -1.66882 0.499589 0
M  V30 512 C 44.628 -3.23176 1.08489 0
M  V30 513 H 45.821 -1.90648 2.31502 0
M  V30 514 H 43.374 -0.964367 1.23003 0
M  V30 515 H 44.109 -3.24091 0.116318 0
M  V30 516 H 43.894 -3.44124 1.8794 0
M  V30 517 H 45.384 -4.03254 1.08517 0
M  V30 518 N 45.8211 -1.22559 -0.990812 0
M  V30 519 C 46.7541 -0.940773 -2.07905 0
M  V30 520 C 47.7321 0.117082 -1.62178 0
M  V30 521 O 48.9161 -0.0149506 -1.88494 0
M  V30 522 C 46.0431 -0.415321 -3.36144 0
M  V30 523 C 45.0891 -1.45818 -4.00799 0
M  V30 524 S 45.9221 -3.03219 -4.41382 0
M  V30 525 C 47.0781 -2.52317 -5.72789 0
M  V30 526 H 47.3111 -1.8623 -2.31745 0
M  V30 527 H 44.8441 -1.05688 -1.12558 0
M  V30 528 H 46.8021 -0.118747 -4.10328 0
M  V30 529 H 45.4631 0.485121 -3.10331 0
M  V30 530 H 44.6561 -1.04044 -4.93144 0
M  V30 531 H 44.2581 -1.70356 -3.32949 0
M  V30 532 H 46.5501 -1.93688 -6.49224 0
M  V30 533 H 47.4931 -3.43161 -6.19392 0
M  V30 534 H 47.9011 -1.93529 -5.30289 0
M  V30 535 N 47.2992 1.18797 -1.03562 0
M  V30 536 C 48.2292 2.24472 -0.643019 0
M  V30 537 C 49.2102 1.66433 0.351283 0
M  V30 538 O 50.3952 1.92803 0.232505 0
M  V30 539 C 47.5252 3.473 4.24935e-05 0
M  V30 540 C 46.4792 4.18055 -0.917257 0
M  V30 541 C 45.8052 5.34519 -0.138941 0
M  V30 542 C 47.1052 4.72109 -2.23407 0
M  V30 543 H 48.7992 2.57566 -1.52643 0
M  V30 544 H 46.3452 1.23806 -0.735394 0
M  V30 545 H 48.2982 4.20426 0.286383 0
M  V30 546 H 47.0222 3.13424 0.918299 0
M  V30 547 H 45.6812 3.46821 -1.1879 0
M  V30 548 H 45.3292 4.96891 0.781562 0
M  V30 549 H 45.0292 5.82794 -0.750005 0
M  V30 550 H 46.5532 6.10438 0.1405 0
M  V30 551 H 47.9672 5.36955 -2.00879 0
M  V30 552 H 46.3642 5.30897 -2.79765 0
M  V30 553 H 47.4342 3.89807 -2.88407 0
M  V30 554 N 48.7773 0.814389 1.34928 0
M  V30 555 C 49.7073 0.244827 2.32213 0
M  V30 556 C 50.6883 -0.634024 1.57842 0
M  V30 557 O 51.8733 -0.562676 1.8587 0
M  V30 558 C 49.0033 -0.601106 3.42058 0
M  V30 559 C 47.9573 0.179896 4.27622 0
M  V30 560 C 47.2833 -0.788237 5.28858 0
M  V30 561 C 48.5833 1.38329 5.03649 0
M  V30 562 H 50.2773 1.05763 2.80097 0
M  V30 563 H 47.8233 0.510029 1.34665 0
M  V30 564 H 49.7763 -1.00968 4.09125 0
M  V30 565 H 48.5003 -1.44688 2.92802 0
M  V30 566 H 47.1593 0.569739 3.62146 0
M  V30 567 H 46.8073 -1.62973 4.75866 0
M  V30 568 H 46.5073 -0.269942 5.8698 0
M  V30 569 H 48.0313 -1.19485 5.98795 0
M  V30 570 H 49.4453 1.04918 5.63618 0
M  V30 571 H 47.8423 1.83662 5.71304 0
M  V30 572 H 48.9123 2.16592 4.33839 0
M  V30 573 N 50.2554 -1.46986 0.568584 0
M  V30 574 C 51.2054 -2.27179 -0.193339 0
M  V30 575 C 52.1894 -1.35035 -0.874895 0
M  V30 576 O 53.3814 -1.5931 -0.771322 0
M  V30 577 C 50.5104 -3.21063 -1.21546 0
M  V30 578 C 49.5964 -4.2069 -0.536738 0
M  V30 579 N 49.9874 -5.04218 0.399673 0
M  V30 580 C 48.2854 -4.38961 -0.789254 0
M  V30 581 C 48.9864 -5.76242 0.795017 0
M  V30 582 N 47.9624 -5.434 0.1473 0
M  V30 583 H 51.7644 -2.89146 0.526458 0
M  V30 584 H 49.2784 -1.57664 0.389342 0
M  V30 585 H 51.2754 -3.77209 -1.77536 0
M  V30 586 H 49.9354 -2.60654 -1.93623 0
M  V30 587 H 50.9464 -5.12077 0.774454 0
M  V30 588 H 47.6234 -3.89713 -1.49767 0
M  V30 589 H 49.0134 -6.53417 1.56513 0
M  V30 590 N 51.7335 -0.305618 -1.54608 0
M  V30 591 C 52.9585 0.307562 -2.05107 0
M  V30 592 C 53.3835 1.46385 -1.18123 0
M  V30 593 O 52.7415 1.8034 -0.186324 0
M  V30 594 C 52.7895 0.73704 -3.52987 0
M  V30 595 O 51.8935 1.84134 -3.6901 0
M  V30 596 H 51.2345 0.0589143 -0.661381 0
M  V30 597 H 53.7645 -0.448807 -1.99617 0
M  V30 598 H 53.7745 1.02459 -3.94925 0
M  V30 599 H 52.4495 -0.108773 -4.15758 0
M  V30 600 H 51.0265 1.55398 -3.38978 0
M  V30 601 N 53.2116 1.57565 -0.0334293 0
M  V30 602 C 54.4596 1.91598 0.642999 0
M  V30 603 C 54.7806 0.910847 1.7242 0
M  V30 604 O 54.0506 -0.0469931 1.95844 0
M  V30 605 H 52.6306 0.707228 0.240496 0
M  V30 606 H 55.2926 1.94726 -0.0822488 0
M  V30 607 H 54.3886 2.92336 1.09298 0
M  V30 608 N 54.6897 -0.239769 1.55765 0
M  V30 609 C 55.9197 -0.982743 1.8173 0
M  V30 610 C 56.3277 -1.7917 0.607835 0
M  V30 611 O 55.6707 -1.78525 -0.432973 0
M  V30 612 C 55.7327 -1.96332 3.01155 0
M  V30 613 C 55.3967 -1.34062 4.36894 0
M  V30 614 C 56.3937 -0.739539 5.14613 0
M  V30 615 C 54.0787 -1.35784 4.83599 0
M  V30 616 C 56.0727 -0.163989 6.37189 0
M  V30 617 C 53.7597 -0.778441 6.06122 0
M  V30 618 C 54.7577 -0.182548 6.82756 0
M  V30 619 O 54.4457 0.387887 8.02964 0
M  V30 620 H 54.1777 -0.294481 0.608487 0
M  V30 621 H 56.7317 -0.26572 2.03674 0
M  V30 622 H 54.9617 -2.71884 2.74984 0
M  V30 623 H 56.6507 -2.57032 3.14149 0
M  V30 624 H 57.4167 -0.718687 4.79646 0
M  V30 625 H 53.2957 -1.81105 4.23936 0
M  V30 626 H 56.8397 0.301753 6.96947 0
M  V30 627 H 52.7367 -0.796645 6.40565 0
M  V30 628 H 53.5047 0.28044 8.18019 0
M  V30 629 N 56.1678 -1.49265 -0.50573 0
M  V30 630 C 57.1308 -1.65075 -1.59006 0
M  V30 631 C 58.1308 -0.522768 -1.52065 0
M  V30 632 O 59.3208 -0.789117 -1.55302 0
M  V30 633 C 56.4528 -1.64369 -2.98656 0
M  V30 634 H 57.6458 -2.61784 -1.46319 0
M  V30 635 H 55.1988 -1.38226 -0.729616 0
M  V30 636 H 55.9338 -0.692272 -3.16825 0
M  V30 637 H 55.7188 -2.46282 -3.05103 0
M  V30 638 H 57.2088 -1.78674 -3.77446 0
M  V30 639 N 57.6459 0.756429 -1.3826 0
M  V30 640 C 58.9229 1.50584 -1.24835 0
M  V30 641 C 59.3029 2.10556 0.151485 0
M  V30 642 O 58.6509 1.96825 1.1607 0
M  V30 643 C 58.8609 2.57448 -2.3563 0
M  V30 644 C 60.2089 3.24429 -2.73917 0
M  V30 645 O 61.2329 2.67751 -2.34921 0
M  V30 646 O 60.0919 4.26937 -3.41156 0
M  V30 647 H 57.1859 0.667664 -0.48801 0
M  V30 648 H 59.7319 0.792083 -1.5008 0
M  V30 649 H 58.5039 2.11362 -3.29305 0
M  V30 650 H 58.1269 3.36408 -2.11933 0
M  V30 651 N 59.124 1.23083 0.984299 0
M  V30 652 C 60.074 0.975749 2.06066 0
M  V30 653 C 61.058 -0.0768251 1.60716 0
M  V30 654 O 62.25 0.134805 1.76486 0
M  V30 655 C 59.379 0.564673 3.38624 0
M  V30 656 C 58.465 1.65244 3.90583 0
M  V30 657 N 58.856 2.88193 4.15666 0
M  V30 658 C 57.154 1.52612 4.19077 0
M  V30 659 C 57.855 3.58593 4.58024 0
M  V30 660 N 56.831 2.86093 4.62225 0
M  V30 661 H 60.633 1.90957 2.23411 0
M  V30 662 H 58.147 1.12963 1.16675 0
M  V30 663 H 60.144 0.36322 4.15315 0
M  V30 664 H 58.804 -0.362147 3.22674 0
M  V30 665 H 59.815 3.24537 4.03604 0
M  V30 666 H 56.492 0.666121 4.12152 0
M  V30 667 H 57.882 4.63974 4.85982 0
M  V30 668 N 60.6021 -1.18246 1.0419 0
M  V30 669 C 62.0131 -1.69914 0.773698 0
M  V30 670 C 62.3641 -1.83085 -0.705297 0
M  V30 671 O 61.4891 -1.51123 -1.5489 0
M  V30 672 C 62.0841 -3.08619 1.39784 0
M  V30 673 C 60.6431 -3.57494 1.17792 0
M  V30 674 C 59.7901 -2.34013 1.48773 0
M  V30 675 H 62.7411 -1.02904 1.20816 0
M  V30 676 H 62.7621 -3.71958 0.801714 0
M  V30 677 H 62.2741 -2.99001 2.47426 0
M  V30 678 H 60.3751 -3.72406 0.120295 0
M  V30 679 H 60.4881 -4.40852 1.87581 0
M  V30 680 H 58.8521 -2.37986 0.907463 0
M  V30 681 H 59.6351 -2.27013 2.57527 0
M  V30 682 N 62.0802 -0.821533 -1.34494 0
M  V30 683 C 63.3102 -0.421272 -2.02259 0
M  V30 684 C 63.7182 0.977047 -1.6202 0
M  V30 685 O 63.0612 1.64348 -0.820703 0
M  V30 686 C 63.1232 -0.44231 -3.56769 0
M  V30 687 C 62.7872 -1.79372 -4.20327 0
M  V30 688 C 63.7842 -2.75435 -4.40944 0
M  V30 689 C 61.4692 -2.08182 -4.57127 0
M  V30 690 C 63.4632 -3.98482 -4.97484 0
M  V30 691 C 61.1502 -3.31489 -5.13379 0
M  V30 692 C 62.1482 -4.26457 -5.33501 0
M  V30 693 O 61.8362 -5.47585 -5.88562 0
M  V30 694 H 61.5682 -0.167473 -0.654927 0
M  V30 695 H 64.1222 -1.11073 -1.72777 0
M  V30 696 H 62.3522 0.303836 -3.85505 0
M  V30 697 H 64.0412 -0.0622925 -4.05852 0
M  V30 698 H 64.8072 -2.54473 -4.12878 0
M  V30 699 H 60.6862 -1.35066 -4.4077 0
M  V30 700 H 64.2302 -4.72618 -5.13106 0
M  V30 701 H 60.1272 -3.52316 -5.40873 0
M  V30 702 H 60.8952 -5.49086 -6.06998 0
M  V30 703 N 63.5583 1.46682 -0.576371 0
M  V30 704 C 64.7833 2.07304 -0.0630475 0
M  V30 705 C 65.2083 1.42329 1.2298 0
M  V30 706 O 64.5663 0.504865 1.74129 0
M  V30 707 C 64.6143 3.60472 0.095895 0
M  V30 708 O 63.7183 3.95927 1.15394 0
M  V30 709 H 63.0593 0.661288 -0.0599463 0
M  V30 710 H 65.5893 1.88417 -0.797511 0
M  V30 711 H 65.5993 4.06865 0.304071 0
M  V30 712 H 64.2743 4.07157 -0.84828 0
M  V30 713 H 62.8513 3.61252 0.924724 0
M  V30 714 N 65.0364 0.313813 1.54444 0
M  V30 715 C 66.4524 -0.0391619 1.59552 0
M  V30 716 C 66.6524 -1.51322 1.33056 0
M  V30 717 O 65.7084 -2.26782 1.11022 0
M  V30 718 C 67.0214 0.370302 2.98411 0
M  V30 719 C 68.5694 0.320139 3.11358 0
M  V30 720 C 69.0444 0.704617 4.52547 0
M  V30 721 N 70.5354 0.657645 4.58508 0
M  V30 722 C 71.2704 0.927453 5.6585 0
M  V30 723 N 70.7664 1.26389 6.81174 0
M  V30 724 N 72.5594 0.853662 5.5558 0
M  V30 725 H 64.7104 1.27433 1.69925 0
M  V30 726 H 66.9734 0.517511 0.794284 0
M  V30 727 H 66.6794 1.39694 3.22767 0
M  V30 728 H 66.5534 -0.269619 3.76235 0
M  V30 729 H 68.9404 -0.697275 2.86744 0
M  V30 730 H 69.0214 0.99486 2.35661 0
M  V30 731 H 68.6654 1.7199 4.77893 0
M  V30 732 H 68.5954 0.00768843 5.26599 0
M  V30 733 H 71.0864 0.409067 3.75679 0
M  V30 734 H 71.3994 1.4554 7.58972 0
M  V30 735 H 69.7444 1.30206 6.82694 0
M  V30 736 H 72.9354 0.590383 4.64362 0
M  V30 737 H 73.1084 1.0673 6.3915 0
M  V30 738 N 66.5145 -1.57545 0.0417849 0
M  V30 739 C 67.7615 -1.92317 -0.634082 0
M  V30 740 C 68.0895 -0.919334 -1.71402 0
M  V30 741 O 67.3445 0.0698253 -1.95575 0
M  V30 742 C 67.6435 -3.33794 -1.27735 0
M  V30 743 C 67.3095 -4.49716 -0.326543 0
M  V30 744 C 65.9715 -4.81156 -0.0648814 0
M  V30 745 C 68.3235 -5.20182 0.325623 0
M  V30 746 C 65.6515 -5.80414 0.856539 0
M  V30 747 C 68.0035 -6.20424 1.23518 0
M  V30 748 C 66.6675 -6.50298 1.5056 0
M  V30 749 H 65.9375 -0.703736 -0.232027 0
M  V30 750 H 68.5845 -1.91205 0.106259 0
M  V30 751 H 66.8895 -3.31228 -2.09274 0
M  V30 752 H 68.5865 -3.57975 -1.80707 0
M  V30 753 H 65.1765 -4.25176 -0.540665 0
M  V30 754 H 69.3605 -4.96112 0.136546 0
M  V30 755 H 64.6165 -6.019 1.07363 0
M  V30 756 H 68.7905 -6.74141 1.74664 0
M  V30 757 H 66.4175 -7.27025 2.22123 0
M  V30 758 N 67.9926 0.231505 -1.5589 0
M  V30 759 C 69.2696 0.981096 -1.69215 0
M  V30 760 C 69.6496 2.02799 -0.586164 0
M  V30 761 O 68.9976 2.24823 0.408253 0
M  V30 762 C 69.2076 1.60054 -3.10135 0
M  V30 763 C 70.5556 2.09658 -3.69227 0
M  V30 764 O 71.5796 1.69967 -3.13033 0
M  V30 765 O 70.4386 2.8258 -4.67772 0
M  V30 766 H 67.5326 0.457653 -0.688827 0
M  V30 767 H 70.0786 0.224073 -1.68214 0
M  V30 768 H 68.8506 0.844105 -3.82087 0
M  V30 769 H 68.4736 2.42336 -3.15212 0
M  V30 770 N 69.4707 1.49531 0.497807 0
M  V30 771 C 70.7197 1.58426 1.24837 0
M  V30 772 C 71.0327 0.277643 1.93619 0
M  V30 773 O 72.2387 0.24517 2.70391 0
M  V30 774 C 70.6947 2.79538 2.26686 0
M  V30 775 C 70.3027 4.16971 1.63828 0
M  V30 776 C 72.0467 2.97764 3.0255 0
M  V30 777 C 69.9537 5.29301 2.63807 0
M  V30 778 H 68.8837 0.58989 0.469623 0
M  V30 779 H 71.5347 1.75923 0.521857 0
M  V30 780 H 69.9167 2.55542 3.02514 0
M  V30 781 H 71.0907 4.51116 0.939711 0
M  V30 782 H 69.4057 4.04129 1.00342 0
M  V30 783 H 72.0027 3.78856 3.77323 0
M  V30 784 H 72.3457 2.08448 3.60354 0
M  V30 785 H 72.8787 3.21815 2.33838 0
M  V30 786 H 69.6177 6.20687 2.10779 0
M  V30 787 H 69.1377 4.99606 3.31894 0
M  V30 788 H 70.8167 5.58768 3.2617 0
M  V30 789 N 70.9488 -0.749086 1.3866 0
M  V30 790 C 72.1948 -1.51056 1.35314 0
M  V30 791 C 72.5278 -1.94121 -0.0553751 0
M  V30 792 O 71.8028 -1.65763 -1.01749 0
M  V30 793 C 72.0858 -2.76003 2.31288 0
M  V30 794 C 71.9388 -2.39047 3.8102 0
M  V30 795 C 73.2578 -3.78046 2.2532 0
M  V30 796 H 70.3768 -0.547972 0.492844 0
M  V30 797 H 73.0188 -0.857628 1.69543 0
M  V30 798 H 71.1688 -3.31716 2.02229 0
M  V30 799 H 72.8408 -1.89074 4.20771 0
M  V30 800 H 71.0838 -1.71449 3.98482 0
M  V30 801 H 71.7548 -3.28462 4.4364 0
M  V30 802 H 74.2308 -3.31884 2.50983 0
M  V30 803 H 73.1068 -4.63159 2.94576 0
M  V30 804 H 73.3678 -4.23957 1.25352 0
M  V30 805 N 72.4269 -1.23603 -0.977757 0
M  V30 806 C 73.6729 -1.07129 -1.72195 0
M  V30 807 C 74.0059 0.390501 -1.90233 0
M  V30 808 O 73.2809 1.28902 -1.45653 0
M  V30 809 C 73.5639 -1.80031 -3.11867 0
M  V30 810 C 73.4169 -3.33899 -3.01383 0
M  V30 811 C 74.7359 -1.56492 -4.11337 0
M  V30 812 H 71.8549 -0.390571 -0.624999 0
M  V30 813 H 74.4969 -1.52142 -1.13811 0
M  V30 814 H 72.6469 -1.41768 -3.6171 0
M  V30 815 H 74.3189 -3.81699 -2.59043 0
M  V30 816 H 72.5619 -3.62796 -2.37827 0
M  V30 817 H 73.2329 -3.801 -4.00285 0
M  V30 818 H 75.7089 -1.89757 -3.70313 0
M  V30 819 H 74.5849 -2.09973 -5.07151 0
M  V30 820 H 74.8459 -0.500874 -4.39254 0
M  V30 821 N 73.905 1.17692 -1.04816 0
M  V30 822 C 74.868 2.19787 -0.650117 0
M  V30 823 C 75.868 1.58044 0.296427 0
M  V30 824 O 77.058 1.74012 0.0808097 0
M  V30 825 C 74.19 3.40869 0.0456987 0
M  V30 826 H 75.383 2.56516 -1.5537 0
M  V30 827 H 72.936 1.31708 -0.841594 0
M  V30 828 H 73.671 3.09681 0.962726 0
M  V30 829 H 73.456 3.86928 -0.634727 0
M  V30 830 H 74.946 4.16445 0.310432 0
M  V30 831 N 75.3831 0.828654 1.34056 0
M  V30 832 C 76.2931 0.256725 2.33191 0
M  V30 833 C 77.3091 -0.611898 1.62886 0
M  V30 834 O 78.4851 -0.51844 1.94613 0
M  V30 835 C 75.5501 -0.567238 3.42028 0
M  V30 836 C 74.6111 0.324458 4.28072 0
M  V30 837 C 73.8441 -0.460274 5.31712 0
M  V30 838 O 74.0671 -1.693 5.44696 0
M  V30 839 O 73.0011 0.160391 6.01686 0
M  V30 840 H 76.8271 1.07739 2.83947 0
M  V30 841 H 74.4121 0.59093 1.37217 0
M  V30 842 H 76.2941 -1.03582 4.08471 0
M  V30 843 H 74.9691 -1.36513 2.93506 0
M  V30 844 H 73.8761 0.840659 3.64532 0
M  V30 845 H 75.2091 1.08685 4.8005 0
M  V30 846 N 76.8612 -1.46375 0.584142 0
M  V30 847 C 78.2722 -1.86031 0.157959 0
M  V30 848 C 78.6232 -1.48753 -1.27933 0
M  V30 849 O 77.7482 -0.903098 -1.96655 0
M  V30 850 C 78.3432 -3.37642 0.279892 0
M  V30 851 C 76.9022 -3.76289 -0.09143 0
M  V30 852 C 76.0492 -2.7039 0.615178 0
M  V30 853 H 79.0002 -1.37509 0.792274 0
M  V30 854 H 79.0212 -3.77275 -0.494364 0
M  V30 855 H 78.5332 -3.64742 1.32607 0
M  V30 856 H 76.6342 -3.54806 -1.13769 0
M  V30 857 H 76.7472 -4.78246 0.285886 0
M  V30 858 H 75.1112 -2.5464 0.0552833 0
M  V30 859 H 75.8942 -3.0033 1.66303 0
M  V30 860 N 78.3393 -0.321999 -1.54275 0
M  V30 861 C 79.5883 0.281931 -1.9972 0
M  V30 862 C 79.9013 1.53369 -1.21397 0
M  V30 863 O 81.1073 2.21352 -1.57211 0
M  V30 864 C 79.5633 0.5529 -3.55628 0
M  V30 865 C 79.1713 -0.681721 -4.42783 0
M  V30 866 C 80.9153 1.11687 -4.09544 0
M  V30 867 C 78.8223 -0.382742 -5.9016 0
M  V30 868 H 77.7523 0.109124 -0.746062 0
M  V30 869 H 80.4033 -0.43398 -1.78294 0
M  V30 870 H 78.7853 1.32896 -3.73035 0
M  V30 871 H 79.9593 -1.45723 -4.37151 0
M  V30 872 H 78.2743 -1.1658 -3.99748 0
M  V30 873 H 80.8713 1.35515 -5.17242 0
M  V30 874 H 81.2143 2.06575 -3.61431 0
M  V30 875 H 81.7473 0.402032 -3.95763 0
M  V30 876 H 78.4863 -1.30076 -6.42464 0
M  V30 877 H 78.0063 0.355094 -5.98748 0
M  V30 878 H 79.6853 0.00800157 -6.47 0
M  V30 879 N 79.8174 1.5752 -0.0501392 0
M  V30 880 C 81.0574 1.94521 0.627783 0
M  V30 881 C 81.4214 0.928265 1.68069 0
M  V30 882 O 82.6224 1.18517 2.41261 0
M  V30 883 C 80.8934 3.36319 1.20932 0
M  V30 884 S 82.4524 3.95272 1.90539 0
M  V30 885 H 79.2704 0.680456 0.206158 0
M  V30 886 H 81.8724 1.95139 -0.118829 0
M  V30 887 H 80.5764 4.08132 0.430865 0
M  V30 888 H 80.1074 3.39193 1.99277 0
M  V30 889 H 82.1224 3.80415 3.18589 0
M  V30 890 N 81.2955 -0.223234 1.56011 0
M  V30 891 C 82.5235 -0.964812 1.83027 0
M  V30 892 C 82.9385 -1.78013 0.62904 0
M  V30 893 O 82.2955 -1.78008 -0.402414 0
M  V30 894 C 82.3465 -1.88373 3.08542 0
M  V30 895 O 82.0675 -1.10137 4.2403 0
M  V30 896 C 83.5685 -2.73934 3.48533 0
M  V30 897 H 80.7885 -0.282842 0.608475 0
M  V30 898 H 83.3325 -0.238971 2.03099 0
M  V30 899 H 81.4875 -2.56354 2.9045 0
M  V30 900 H 81.9015 -1.72501 4.95322 0
M  V30 901 H 83.3755 -3.34117 4.39397 0
M  V30 902 H 83.8525 -3.46244 2.70207 0
M  V30 903 H 84.4585 -2.11369 3.69057 0
M  V30 904 N 82.7736 -1.49793 -0.48987 0
M  V30 905 C 83.7036 -1.70201 -1.59856 0
M  V30 906 C 84.6846 -0.55076 -1.60937 0
M  V30 907 O 85.8696 -0.787841 -1.77501 0
M  V30 908 C 82.9996 -1.77882 -2.98287 0
M  V30 909 C 81.9536 -2.92907 -3.12073 0
M  V30 910 C 81.2796 -2.85712 -4.51965 0
M  V30 911 C 82.5796 -4.3369 -2.91051 0
M  V30 912 H 84.2736 -2.63025 -1.43032 0
M  V30 913 H 81.8196 -1.26574 -0.686664 0
M  V30 914 H 83.7726 -1.90744 -3.75759 0
M  V30 915 H 82.4966 -0.816653 -3.16225 0
M  V30 916 H 81.1556 -2.79665 -2.37029 0
M  V30 917 H 80.8036 -1.8738 -4.66795 0
M  V30 918 H 80.5036 -3.62921 -4.62128 0
M  V30 919 H 82.0276 -3.00598 -5.31482 0
M  V30 920 H 83.4416 -4.47555 -3.58284 0
M  V30 921 H 81.8386 -5.12205 -3.12675 0
M  V30 922 H 82.9086 -4.47362 -1.87071 0
M  V30 923 N 84.2517 0.741722 -1.39055 0
M  V30 924 C 85.4797 1.53098 -1.39171 0
M  V30 925 C 85.8947 1.88794 0.0155099 0
M  V30 926 O 85.2517 1.53626 0.985159 0
M  V30 927 C 85.3027 2.82274 -2.2584 0
M  V30 928 O 85.0237 2.48097 -3.61081 0
M  V30 929 C 86.5247 3.76343 -2.34266 0
M  V30 930 H 83.7447 0.473335 -0.4756 0
M  V30 931 H 86.2887 0.917045 -1.82785 0
M  V30 932 H 84.4437 3.40015 -1.85656 0
M  V30 933 H 84.8577 3.31029 -4.06842 0
M  V30 934 H 86.3317 4.63898 -2.9917 0
M  V30 935 H 86.8087 4.17619 -1.35982 0
M  V30 936 H 87.4147 3.24523 -2.74891 0
M  V30 937 N 85.7298 1.2412 0.971189 0
M  V30 938 C 86.9578 1.10575 1.74874 0
M  V30 939 C 87.3728 -0.342017 1.85676 0
M  V30 940 O 86.7298 -1.23617 1.34258 0
M  V30 941 C 86.7808 1.73579 3.171 0
M  V30 942 O 86.5018 3.12695 3.06844 0
M  V30 943 C 88.0028 1.65598 4.11208 0
M  V30 944 H 85.2228 0.386504 0.548503 0
M  V30 945 H 87.7668 1.64156 1.21955 0
M  V30 946 H 85.9218 1.24009 3.67016 0
M  V30 947 H 86.3358 3.43412 3.96445 0
M  V30 948 H 87.8098 2.1437 5.08674 0
M  V30 949 H 88.2868 0.616532 4.34851 0
M  V30 950 H 88.8928 2.14578 3.67201 0
M  V30 951 N 87.2079 -1.17134 1.05439 0
M  V30 952 C 88.4549 -1.87456 0.765942 0
M  V30 953 C 88.7829 -1.81189 -0.707153 0
M  V30 954 O 88.0379 -1.21633 -1.5331 0
M  V30 955 C 88.3369 -3.36833 1.19491 0
M  V30 956 C 88.0029 -3.63301 2.67063 0
M  V30 957 C 86.6649 -3.70234 3.07376 0
M  V30 958 C 89.0169 -3.74575 3.62413 0
M  V30 959 C 86.3449 -3.85933 4.41896 0
M  V30 960 C 88.6969 -3.91793 4.9667 0
M  V30 961 C 87.3609 -3.96966 5.36633 0
M  V30 962 H 86.6309 -0.685948 0.280278 0
M  V30 963 H 89.2779 -1.38556 1.32192 0
M  V30 964 H 87.5829 -3.87807 0.557969 0
M  V30 965 H 89.2799 -3.89611 0.948893 0
M  V30 966 H 85.8699 -3.58532 2.34846 0
M  V30 967 H 90.0539 -3.68537 3.32406 0
M  V30 968 H 85.3099 -3.88187 4.72357 0
M  V30 969 H 89.4839 -3.99458 5.70444 0
M  V30 970 H 87.1109 -4.08883 6.40874 0
M  V30 971 N 88.686 -0.835752 -1.33615 0
M  V30 972 C 89.934 -0.429109 -1.97492 0
M  V30 973 C 90.255 1.01433 -1.66543 0
M  V30 974 O 89.525 1.70611 -0.962744 0
M  V30 975 H 88.105 -0.155686 -0.730596 0
M  V30 976 H 90.767 -1.06802 -1.63031 0
M  V30 977 H 89.863 -0.55861 -3.0706 0
M  V30 978 N 90.1641 1.46063 -0.591896 0
M  V30 979 C 91.1111 2.30399 0.136069 0
M  V30 980 C 92.0811 1.41169 0.875238 0
M  V30 981 O 93.2661 1.70112 0.86409 0
M  V30 982 C 90.4061 3.25804 1.13781 0
M  V30 983 C 89.5191 4.30134 0.401137 0
M  V30 984 C 88.6541 5.12659 1.39121 0
M  V30 985 C 87.6931 6.0873 0.641462 0
M  V30 986 N 86.8301 6.8409 1.58004 0
M  V30 987 H 91.6701 2.92118 -0.589144 0
M  V30 988 H 89.2071 1.43959 -0.302342 0
M  V30 989 H 91.1651 3.79569 1.73156 0
M  V30 990 H 89.7951 2.65872 1.83062 0
M  V30 991 H 88.8471 3.79152 -0.307826 0
M  V30 992 H 90.1591 4.98458 -0.184565 0
M  V30 993 H 89.3131 5.70747 2.05749 0
M  V30 994 H 88.0521 4.44316 2.01084 0
M  V30 995 H 87.0571 5.49786 -0.0385419 0
M  V30 996 H 88.2821 6.79095 0.0270945 0
M  V30 997 H 86.2281 6.18449 2.18761 0
M  V30 998 H 86.1451 7.48709 1.04738 0
M  V30 999 H 87.4131 7.4673 2.23639 0
M  V30 1000 N 91.6422 0.330177 1.54103 0
M  V30 1001 C 92.5522 -0.541534 2.28264 0
M  V30 1002 C 93.5682 -1.12351 1.32866 0
M  V30 1003 O 94.7442 -1.14206 1.65888 0
M  V30 1004 C 91.8092 -1.68322 3.03098 0
M  V30 1005 C 90.8702 -1.13238 4.14096 0
M  V30 1006 C 90.1032 -2.21966 4.85352 0
M  V30 1007 O 90.3262 -3.42437 4.56172 0
M  V30 1008 O 89.2602 -1.87013 5.7211 0
M  V30 1009 H 93.0862 0.060938 3.03639 0
M  V30 1010 H 90.6712 0.09565 1.49093 0
M  V30 1011 H 92.5532 -2.34777 3.49939 0
M  V30 1012 H 91.2282 -2.27176 2.30593 0
M  V30 1013 H 90.1352 -0.432736 3.71589 0
M  V30 1014 H 91.4682 -0.588898 4.88664 0
M  V30 1015 N 93.1203 -1.57491 0.0584922 0
M  V30 1016 C 94.3483 -1.97296 -0.623037 0
M  V30 1017 C 94.7633 -0.936338 -1.63946 0
M  V30 1018 O 94.1203 0.0785981 -1.82331 0
M  V30 1019 C 94.1713 -3.37183 -1.30345 0
M  V30 1020 O 93.8923 -4.36872 -0.32773 0
M  V30 1021 C 95.3933 -3.91788 -2.07406 0
M  V30 1022 H 92.6133 -0.649153 -0.169826 0
M  V30 1023 H 95.1573 -2.04106 0.12696 0
M  V30 1024 H 93.3123 -3.31502 -2.00463 0
M  V30 1025 H 93.7263 -5.18141 -0.814269 0
M  V30 1026 H 95.2003 -4.91926 -2.50425 0
M  V30 1027 H 95.6773 -3.27609 -2.92521 0
M  V30 1028 H 96.2833 -4.00829 -1.42184 0
M  V30 1029 N 94.5984 0.214957 -1.56127 0
M  V30 1030 C 95.8444 0.939762 -1.79712 0
M  V30 1031 C 96.1774 1.83723 -0.629247 0
M  V30 1032 O 95.4524 1.90925 0.371197 0
M  V30 1033 C 95.7354 1.77306 -3.13424 0
M  V30 1034 C 95.5884 0.90164 -4.40671 0
M  V30 1035 C 96.9074 2.74956 -3.43638 0
M  V30 1036 H 94.0264 0.340214 -0.653776 0
M  V30 1037 H 96.6684 0.20824 -1.88855 0
M  V30 1038 H 94.8184 2.39673 -3.0576 0
M  V30 1039 H 96.4904 0.294206 -4.60361 0
M  V30 1040 H 94.7334 0.207368 -4.33304 0
M  V30 1041 H 95.4044 1.51923 -5.30682 0
M  V30 1042 H 97.8804 2.22724 -3.51473 0
M  V30 1043 H 96.7564 3.30358 -4.38355 0
M  V30 1044 H 97.0174 3.53023 -2.66134 0
M  V30 1045 N 96.0765 1.50051 0.48192 0
M  V30 1046 C 97.3225 1.60736 1.2366 0
M  V30 1047 C 97.6555 0.301786 1.91841 0
M  V30 1048 O 96.9305 -0.696025 1.8162 0
M  V30 1049 C 97.2135 2.78009 2.28874 0
M  V30 1050 C 97.0665 4.18416 1.65069 0
M  V30 1051 C 98.3855 2.90867 3.30279 0
M  V30 1052 H 95.5045 0.585031 0.448228 0
M  V30 1053 H 98.1465 1.82402 0.531946 0
M  V30 1054 H 96.2965 2.59667 2.88973 0
M  V30 1055 H 97.9685 4.48322 1.0865 0
M  V30 1056 H 96.2115 4.23177 0.954148 0
M  V30 1057 H 96.8825 4.96381 2.41474 0
M  V30 1058 H 99.3585 3.07623 2.80191 0
M  V30 1059 H 98.2345 3.74566 4.01238 0
M  V30 1060 H 98.4955 2.01021 3.93755 0
M  V30 1061 N 97.5546 -0.734337 1.39446 0
M  V30 1062 C 98.7796 -1.52866 1.40167 0
M  V30 1063 C 99.2046 -1.881 -0.00171513 0
M  V30 1064 O 98.5626 -1.51957 -0.988879 0
M  V30 1065 C 98.6106 -2.79235 2.28167 0
M  V30 1066 O 97.7146 -3.75185 1.71201 0
M  V30 1067 H 97.0556 -0.461618 0.477289 0
M  V30 1068 H 99.5856 -0.905949 1.8345 0
M  V30 1069 H 99.5956 -3.27963 2.42702 0
M  V30 1070 H 98.2706 -2.52923 3.30156 0
M  V30 1071 H 96.8476 -3.33958 1.65912 0
M  V30 1072 N 99.0327 -1.24633 -0.964593 0
M  V30 1073 C 99.9427 -1.05859 -2.09359 0
M  V30 1074 C 100.959 0.00148855 -1.74 0
M  V30 1075 O 102.135 -0.197346 -2.00431 0
M  V30 1076 C 99.1997 -0.668879 -3.40187 0
M  V30 1077 C 98.2607 -1.80578 -3.89474 0
M  V30 1078 C 97.4937 -1.43457 -5.14058 0
M  V30 1079 O 97.7167 -0.325775 -5.69469 0
M  V30 1080 O 96.6507 -2.2613 -5.57807 0
M  V30 1081 H 100.477 -2.00516 -2.28094 0
M  V30 1082 H 98.0617 -1.03481 -1.0776 0
M  V30 1083 H 99.9437 -0.463211 -4.18846 0
M  V30 1084 H 98.6187 0.248536 -3.22744 0
M  V30 1085 H 97.5257 -2.06623 -3.11862 0
M  V30 1086 H 98.8587 -2.70208 -4.11398 0
M  V30 1087 N 100.511 1.16574 -1.06058 0
M  V30 1088 C 101.736 1.91493 -0.796562 0
M  V30 1089 C 102.161 1.76773 0.642868 0
M  V30 1090 O 101.519 1.09142 1.44768 0
M  V30 1091 C 101.567 3.40293 -1.19303 0
M  V30 1092 O 100.671 4.11074 -0.330394 0
M  V30 1093 H 100.012 0.596678 -0.291326 0
M  V30 1094 H 102.542 1.47708 -1.41575 0
M  V30 1095 H 102.552 3.91057 -1.16356 0
M  V30 1096 H 101.227 3.50326 -2.24153 0
M  V30 1097 H 99.8038 3.70513 -0.421225 0
M  V30 1098 N 101.989 0.842826 1.3317 0
M  V30 1099 C 102.899 0.281444 2.32906 0
M  V30 1100 C 103.915 -0.594587 1.63526 0
M  V30 1101 O 105.091 -0.49777 1.95152 0
M  V30 1102 C 102.156 -0.530929 3.42611 0
M  V30 1103 C 101.217 0.369843 4.27704 0
M  V30 1104 C 100.45 -0.403853 5.3217 0
M  V30 1105 O 100.673 -1.63513 5.46461 0
M  V30 1106 O 99.6069 0.224199 6.01482 0
M  V30 1107 H 103.433 1.10744 2.82789 0
M  V30 1108 H 101.018 0.60545 1.36582 0
M  V30 1109 H 102.9 -0.992437 4.09547 0
M  V30 1110 H 101.575 -1.33392 2.94938 0
M  V30 1111 H 100.482 0.879275 3.6362 0
M  V30 1112 H 101.815 1.13771 4.78871 0
M  V30 1113 N 103.467 -1.45747 0.599634 0
M  V30 1114 C 104.414 -2.30467 -0.123849 0
M  V30 1115 C 105.384 -1.41632 -0.86774 0
M  V30 1116 O 106.569 -1.70568 -0.855056 0
M  V30 1117 C 103.709 -3.26402 -1.12051 0
M  V30 1118 C 102.822 -4.3034 -0.37832 0
M  V30 1119 C 101.957 -5.13389 -1.364 0
M  V30 1120 C 100.996 -6.09061 -0.609171 0
M  V30 1121 N 100.133 -6.84918 -1.54374 0
M  V30 1122 H 104.973 -2.91802 0.604627 0
M  V30 1123 H 102.51 -1.43797 0.309972 0
M  V30 1124 H 104.468 -3.80482 -1.7114 0
M  V30 1125 H 103.098 -2.66839 -1.8165 0
M  V30 1126 H 102.15 -3.78984 0.327929 0
M  V30 1127 H 103.462 -4.98354 0.210997 0
M  V30 1128 H 102.616 -5.7183 -2.02719 0
M  V30 1129 H 101.355 -4.45376 -1.98725 0
M  V30 1130 H 100.36 -5.49758 0.0676979 0
M  V30 1131 H 101.585 -6.79099 0.00891991 0
M  V30 1132 H 99.531 -6.19601 -2.15478 0
M  V30 1133 H 99.448 -7.49254 -1.00766 0
M  V30 1134 H 100.716 -7.47906 -2.19676 0
M  V30 1135 N 104.945 -0.338344 -1.53925 0
M  V30 1136 C 106.361 0.0137736 -1.59594 0
M  V30 1137 C 106.561 1.49186 -1.35447 0
M  V30 1138 O 105.617 2.24987 -1.14616 0
M  V30 1139 C 106.93 -0.41773 -2.97784 0
M  V30 1140 C 108.478 -0.369633 -3.1081 0
M  V30 1141 C 108.953 -0.776524 -4.51369 0
M  V30 1142 N 110.444 -0.730506 -4.57403 0
M  V30 1143 C 111.179 -1.01736 -5.64303 0
M  V30 1144 N 110.675 -1.3721 -6.79077 0
M  V30 1145 N 112.468 -0.941942 -5.54151 0
M  V30 1146 H 104.619 -1.3012 -1.67876 0
M  V30 1147 H 106.882 -0.530082 -0.78595 0
M  V30 1148 H 106.588 -1.44811 -3.20504 0
M  V30 1149 H 106.462 0.209729 -3.76616 0
M  V30 1150 H 108.849 0.651568 -2.87817 0
M  V30 1151 H 108.93 -1.03223 -2.34049 0
M  V30 1152 H 108.574 -1.79571 -4.75096 0
M  V30 1153 H 108.504 -0.0914649 -5.26521 0
M  V30 1154 H 110.995 -0.468783 -3.74981 0
M  V30 1155 H 111.308 -1.57597 -7.5656 0
M  V30 1156 H 109.653 -1.4105 -6.80536 0
M  V30 1157 H 112.844 -0.664184 -4.63364 0
M  V30 1158 H 113.017 -1.16884 -6.37371 0
M  V30 1159 N 106.423 1.57458 -0.0668435 0
M  V30 1160 C 107.651 1.97624 0.612565 0
M  V30 1161 C 108.066 0.94502 1.63447 0
M  V30 1162 O 107.423 -0.0689276 1.8237 0
M  V30 1163 C 107.474 3.37869 1.28555 0
M  V30 1164 O 107.195 4.3704 0.304557 0
M  V30 1165 C 108.696 3.92882 2.05325 0
M  V30 1166 H 105.916 0.650045 0.166381 0
M  V30 1167 H 108.46 2.04035 -0.137782 0
M  V30 1168 H 106.615 3.3256 1.98702 0
M  V30 1169 H 107.029 5.18565 0.786779 0
M  V30 1170 H 108.503 4.93247 2.47812 0
M  V30 1171 H 108.98 3.29156 2.9078 0
M  V30 1172 H 109.586 4.01577 1.40056 0
M  V30 1173 N 107.901 -0.206675 1.56239 0
M  V30 1174 C 109.129 -0.945345 1.8404 0
M  V30 1175 C 109.544 -1.77336 0.647885 0
M  V30 1176 O 108.901 -1.78425 -0.383511 0
M  V30 1177 C 108.952 -1.8509 3.10522 0
M  V30 1178 O 108.673 -1.05634 4.25174 0
M  V30 1179 C 110.174 -2.70222 3.51418 0
M  V30 1180 H 107.394 -0.276372 0.61144 0
M  V30 1181 H 109.938 -0.217417 2.03341 0
M  V30 1182 H 108.093 -2.53259 2.93153 0
M  V30 1183 H 108.507 -1.67238 4.97124 0
M  V30 1184 H 109.981 -3.29438 4.42916 0
M  V30 1185 H 110.458 -3.43358 2.73864 0
M  V30 1186 H 111.064 -2.07443 3.71278 0
M  V30 1187 N 109.379 -1.50304 -0.473955 0
M  V30 1188 C 110.607 -1.64902 -1.24959 0
M  V30 1189 C 111.022 -0.331198 -1.85872 0
M  V30 1190 O 110.379 0.68652 -1.69095 0
M  V30 1191 C 110.43 -2.73803 -2.36038 0
M  V30 1192 O 110.151 -4.00477 -1.77624 0
M  V30 1193 C 111.652 -2.99349 -3.26964 0
M  V30 1194 H 108.872 -0.554383 -0.378022 0
M  V30 1195 H 111.416 -1.9651 -0.566054 0
M  V30 1196 H 109.571 -2.44898 -3.00173 0
M  V30 1197 H 109.985 -4.60678 -2.5075 0
M  V30 1198 H 111.459 -3.79217 -4.01121 0
M  V30 1199 H 111.936 -2.10307 -3.85574 0
M  V30 1200 H 112.542 -3.29774 -2.68569 0
M  V30 1201 N 110.857 0.726932 -1.39834 0
M  V30 1202 C 112.085 1.51613 -1.40787 0
M  V30 1203 C 112.5 1.88799 -0.00451505 0
M  V30 1204 O 111.857 1.54662 0.968809 0
M  V30 1205 C 111.908 2.79863 -2.28821 0
M  V30 1206 O 111.629 2.44253 -3.63692 0
M  V30 1207 C 113.13 3.73837 -2.38245 0
M  V30 1208 H 110.35 0.468264 -0.480593 0
M  V30 1209 H 112.894 0.897607 -1.83748 0
M  V30 1210 H 111.049 3.38027 -1.89252 0
M  V30 1211 H 111.463 3.26695 -4.1033 0
M  V30 1212 H 112.937 4.60699 -3.04073 0
M  V30 1213 H 113.414 4.16153 -1.40403 0
M  V30 1214 H 114.02 3.21589 -2.78317 0
M  V30 1215 N 112.336 1.25143 0.95797 0
M  V30 1216 C 113.613 1.00472 1.67823 0
M  V30 1217 C 113.993 -0.470056 2.058 0
M  V30 1218 O 113.341 -1.44663 1.76875 0
M  V30 1219 C 113.551 1.9372 2.90299 0
M  V30 1220 C 114.899 2.21371 3.62326 0
M  V30 1221 O 115.923 1.91451 3.00375 0
M  V30 1222 O 114.782 2.72231 4.7387 0
M  V30 1223 H 111.876 0.380752 0.734137 0
M  V30 1224 H 114.422 1.36283 1.01119 0
M  V30 1225 H 113.194 2.93316 2.59001 0
M  V30 1226 H 112.817 1.58286 3.64735 0
M  V30 1227 N 113.814 -1.1601 1.06675 0
M  V30 1228 C 115.091 -1.82679 0.699114 0
M  V30 1229 C 115.471 -1.94559 -0.819137 0
M  V30 1230 O 114.819 -1.49169 -1.73092 0
M  V30 1231 C 115.029 -3.19445 1.40555 0
M  V30 1232 C 116.377 -3.95171 1.55323 0
M  V30 1233 O 117.401 -3.28976 1.36577 0
M  V30 1234 O 116.26 -5.13833 1.86112 0
M  V30 1235 H 113.354 -0.788954 0.247951 0
M  V30 1236 H 115.9 -1.23179 1.16726 0
M  V30 1237 H 114.672 -3.05856 2.44065 0
M  V30 1238 H 114.295 -3.86625 0.927733 0
M  V30 1239 N 115.292 -0.849877 -1.32721 0
M  V30 1240 C 116.703 -0.506188 -1.79707 0
M  V30 1241 C 117.054 0.975627 -1.70223 0
M  V30 1242 O 116.179 1.76078 -1.25799 0
M  V30 1243 C 116.774 -0.912044 -3.26293 0
M  V30 1244 C 115.333 -0.620326 -3.71253 0
M  V30 1245 C 114.48 -1.11439 -2.53922 0
M  V30 1246 H 117.431 -1.03754 -1.20087 0
M  V30 1247 H 117.452 -0.226493 -3.79825 0
M  V30 1248 H 116.964 -1.99057 -3.33164 0
M  V30 1249 H 115.065 0.447674 -3.69901 0
M  V30 1250 H 115.178 -1.18327 -4.64258 0
M  V30 1251 H 113.542 -0.534834 -2.49021 0
M  V30 1252 H 114.325 -2.19992 -2.6355 0
M  V30 1253 N 116.77 1.45427 -0.607355 0
M  V30 1254 C 117.7 2.3329 0.0989352 0
M  V30 1255 C 118.681 1.46816 0.859007 0
M  V30 1256 O 119.866 1.75588 0.829604 0
M  V30 1257 C 116.996 3.29518 1.09705 0
M  V30 1258 C 115.95 4.25626 0.450206 0
M  V30 1259 C 115.276 5.11542 1.55655 0
M  V30 1260 C 116.576 5.18505 -0.628455 0
M  V30 1261 H 118.27 2.92595 -0.634716 0
M  V30 1262 H 115.816 1.40696 -0.306681 0
M  V30 1263 H 117.769 3.89855 1.59971 0
M  V30 1264 H 116.493 2.68372 1.86129 0
M  V30 1265 H 115.152 3.66586 -0.0315886 0
M  V30 1266 H 114.8 4.46765 2.31107 0
M  V30 1267 H 114.5 5.76647 1.12925 0
M  V30 1268 H 116.024 5.74748 2.06148 0
M  V30 1269 H 117.438 5.72916 -0.209877 0
M  V30 1270 H 115.835 5.92085 -0.977489 0
M  V30 1271 H 116.905 4.60948 -1.50514 0
M  V30 1272 N 118.248 0.346503 1.53744 0
M  V30 1273 C 119.18 -0.543316 2.22667 0
M  V30 1274 C 120.193 -1.06159 1.23427 0
M  V30 1275 O 121.382 -0.971235 1.49764 0
M  V30 1276 C 118.482 -1.76076 2.89569 0
M  V30 1277 C 117.655 -1.37727 4.15151 0
M  V30 1278 C 116.714 -2.45471 4.65436 0
M  V30 1279 O 115.74 -2.08655 5.29577 0
M  V30 1280 N 116.942 -3.7677 4.41616 0
M  V30 1281 H 119.707 0.0469703 2.99663 0
M  V30 1282 H 117.268 0.170766 1.60997 0
M  V30 1283 H 119.26 -2.47593 3.20125 0
M  V30 1284 H 117.83 -2.25835 2.16142 0
M  V30 1285 H 117.05 -0.492746 3.91108 0
M  V30 1286 H 118.338 -1.09708 4.96832 0
M  V30 1287 H 117.736 -4.09467 3.90325 0
M  V30 1288 H 116.293 -4.44448 4.7677 0
M  V30 1289 N 119.726 -1.57421 0.075193 0
M  V30 1290 C 120.972 -1.93905 -0.594025 0
M  V30 1291 C 121.305 -0.955701 -1.69056 0
M  V30 1292 O 120.58 0.0145373 -1.94495 0
M  V30 1293 C 120.863 -3.40638 -1.1678 0
M  V30 1294 C 120.716 -4.49733 -0.0776792 0
M  V30 1295 C 122.035 -3.88259 -2.07228 0
M  V30 1296 H 119.154 -0.705105 -0.214466 0
M  V30 1297 H 121.796 -1.8947 0.141854 0
M  V30 1298 H 119.946 -3.44549 -1.79494 0
M  V30 1299 H 121.618 -4.57942 0.555573 0
M  V30 1300 H 119.861 -4.29751 0.591286 0
M  V30 1301 H 120.532 -5.49549 -0.519603 0
M  V30 1302 H 123.008 -3.86376 -1.54445 0
M  V30 1303 H 121.884 -4.91533 -2.44308 0
M  V30 1304 H 122.145 -3.26396 -2.98191 0
M  V30 1305 N 121.204 0.198386 -1.56346 0
M  V30 1306 C 122.134 1.24865 -1.9731 0
M  V30 1307 C 123.115 1.47651 -0.844576 0
M  V30 1308 O 124.3 1.59444 -1.10866 0
M  V30 1309 C 121.43 2.59358 -2.30977 0
M  V30 1310 C 120.384 2.5119 -3.46537 0
M  V30 1311 C 119.71 3.89926 -3.65871 0
M  V30 1312 C 121.01 2.03977 -4.80823 0
M  V30 1313 H 122.704 0.908252 -2.85291 0
M  V30 1314 H 120.25 0.435462 -1.37258 0
M  V30 1315 H 122.203 3.33011 -2.58228 0
M  V30 1316 H 120.927 2.95132 -1.39874 0
M  V30 1317 H 119.586 1.79993 -3.19371 0
M  V30 1318 H 119.234 4.23046 -2.72105 0
M  V30 1319 H 118.934 3.85336 -4.4361 0
M  V30 1320 H 120.458 4.65205 -3.95495 0
M  V30 1321 H 121.872 2.67386 -5.07127 0
M  V30 1322 H 120.269 2.10397 -5.62008 0
M  V30 1323 H 121.339 0.992861 -4.74626 0
M  V30 1324 N 122.682 1.50554 0.465978 0
M  V30 1325 C 123.614 1.65949 1.58093 0
M  V30 1326 C 124.627 0.540827 1.53554 0
M  V30 1327 O 125.816 0.814187 1.5885 0
M  V30 1328 C 122.916 1.63261 2.96983 0
M  V30 1329 C 122.089 2.91245 3.26336 0
M  V30 1330 C 121.148 2.8113 4.44806 0
M  V30 1331 O 120.174 3.55086 4.44862 0
M  V30 1332 N 121.376 1.95032 5.46756 0
M  V30 1333 H 124.141 2.62122 1.45301 0
M  V30 1334 H 121.702 1.48082 0.65448 0
M  V30 1335 H 123.694 1.54101 3.74212 0
M  V30 1336 H 122.264 0.748032 3.03518 0
M  V30 1337 H 121.484 3.14493 2.37672 0
M  V30 1338 H 122.772 3.76022 3.42761 0
M  V30 1339 H 122.17 1.3427 5.49534 0
M  V30 1340 H 120.727 1.91772 6.2295 0
M  V30 1341 N 124.16 -0.719506 1.40217 0
M  V30 1342 C 125.092 -1.84428 1.36084 0
M  V30 1343 C 126.105 -1.60597 0.266913 0
M  V30 1344 O 127.294 -1.70544 0.526983 0
M  V30 1345 C 124.394 -3.20757 1.094 0
M  V30 1346 C 123.567 -3.71817 2.30372 0
M  V30 1347 C 122.626 -4.86748 1.99907 0
M  V30 1348 O 121.652 -4.99603 2.72737 0
M  V30 1349 N 122.854 -5.7226 0.974635 0
M  V30 1350 H 125.619 -1.88473 2.33019 0
M  V30 1351 H 123.18 -0.900885 1.3452 0
M  V30 1352 H 125.172 -3.95235 0.870116 0
M  V30 1353 H 123.742 -3.11884 0.211452 0
M  V30 1354 H 122.962 -2.88514 2.68614 0
M  V30 1355 H 124.25 -4.02666 3.11026 0
M  V30 1356 H 123.648 -5.6448 0.371368 0
M  V30 1357 H 122.205 -6.46739 0.810656 0
M  V30 1358 N 125.638 -1.25649 -0.95132 0
M  V30 1359 C 126.884 -1.10757 -1.69884 0
M  V30 1360 C 127.217 0.350061 -1.91019 0
M  V30 1361 O 126.492 1.25783 -1.48354 0
M  V30 1362 C 126.775 -1.86606 -3.07978 0
M  V30 1363 C 126.628 -3.40217 -2.94232 0
M  V30 1364 C 127.947 -1.65182 -4.07925 0
M  V30 1365 H 125.066 -0.40374 -0.616574 0
M  V30 1366 H 127.708 -1.54521 -1.10558 0
M  V30 1367 H 125.858 -1.49409 -3.58621 0
M  V30 1368 H 127.53 -3.87108 -2.50889 0
M  V30 1369 H 125.773 -3.67759 -2.30078 0
M  V30 1370 H 126.444 -3.88505 -3.92133 0
M  V30 1371 H 128.92 -1.9757 -3.66204 0
M  V30 1372 H 127.796 -2.20683 -5.02583 0
M  V30 1373 H 128.057 -0.593933 -4.38092 0
M  V30 1374 N 127.117 1.15442 -1.07289 0
M  V30 1375 C 128.047 2.22312 -0.714107 0
M  V30 1376 C 129.028 1.67467 0.298155 0
M  V30 1377 O 130.213 1.93445 0.171048 0
M  V30 1378 C 127.343 3.47124 -0.110448 0
M  V30 1379 C 126.297 4.14926 -1.04979 0
M  V30 1380 C 125.623 5.33807 -0.308924 0
M  V30 1381 C 126.923 4.64762 -2.38314 0
M  V30 1382 H 128.617 2.5258 -1.6076 0
M  V30 1383 H 126.163 1.21404 -0.77441 0
M  V30 1384 H 128.116 4.21124 0.152482 0
M  V30 1385 H 126.84 3.16187 0.81812 0
M  V30 1386 H 125.499 3.42866 -1.29764 0
M  V30 1387 H 125.147 4.99126 0.623084 0
M  V30 1388 H 124.847 5.80113 -0.935036 0
M  V30 1389 H 126.371 6.10576 -0.0537771 0
M  V30 1390 H 127.785 5.30292 -2.1786 0
M  V30 1391 H 126.182 5.21728 -2.96514 0
M  V30 1392 H 127.252 3.80434 -3.00663 0
M  V30 1393 N 128.595 0.856903 1.32268 0
M  V30 1394 C 129.872 0.382583 1.91822 0
M  V30 1395 C 130.252 -1.13407 1.78051 0
M  V30 1396 O 129.6 -1.95673 1.18001 0
M  V30 1397 C 129.81 0.849446 3.38505 0
M  V30 1398 C 131.158 0.867936 4.15634 0
M  V30 1399 O 132.182 0.794232 3.47232 0
M  V30 1400 O 131.041 0.972286 5.37781 0
M  V30 1401 H 128.135 0.112014 0.819379 0
M  V30 1402 H 130.681 0.943952 1.41024 0
M  V30 1403 H 129.453 1.89267 3.42482 0
M  V30 1404 H 129.076 0.265652 3.96712 0
M  V30 1405 N 130.073 -1.45103 0.615059 0
M  V30 1406 C 131.489 -1.57137 0.279322 0
M  V30 1407 C 131.689 -1.60523 -1.21797 0
M  V30 1408 O 130.745 -1.53956 -2.00134 0
M  V30 1409 C 132.058 -2.85062 0.957083 0
M  V30 1410 C 133.606 -2.98749 0.933706 0
M  V30 1411 C 134.081 -4.29455 1.59162 0
M  V30 1412 N 135.572 -4.36231 1.55746 0
M  V30 1413 C 136.307 -5.36051 2.0356 0
M  V30 1414 N 135.803 -6.42367 2.59494 0
M  V30 1415 N 137.596 -5.27456 1.94284 0
M  V30 1416 H 129.747 -1.41148 1.58717 0
M  V30 1417 H 132.01 -0.675331 0.665306 0
M  V30 1418 H 131.716 -2.88488 2.01166 0
M  V30 1419 H 131.59 -3.7407 0.48494 0
M  V30 1420 H 133.977 -2.94886 -0.112347 0
M  V30 1421 H 134.058 -2.11132 1.44419 0
M  V30 1422 H 133.702 -4.34077 2.63704 0
M  V30 1423 H 133.632 -5.15901 1.0561 0
M  V30 1424 H 136.123 -3.60011 1.14893 0
M  V30 1425 H 136.436 -7.14793 2.93752 0
M  V30 1426 H 134.781 -6.43097 2.63537 0
M  V30 1427 H 137.972 -4.43308 1.5032 0
M  V30 1428 H 138.145 -6.05099 2.3186 0
M  V30 1429 N 131.551 -0.354651 -1.53558 0
M  V30 1430 C 132.514 0.484566 -2.24019 0
M  V30 1431 C 133.514 1.01861 -1.24422 0
M  V30 1432 O 134.704 0.906097 -1.4878 0
M  V30 1433 C 131.836 1.67615 -2.96847 0
M  V30 1434 H 133.029 -0.131843 -2.9961 0
M  V30 1435 H 130.582 -0.106165 -1.55939 0
M  V30 1436 H 131.317 2.33095 -2.25471 0
M  V30 1437 H 131.102 1.30029 -3.69912 0
M  V30 1438 H 132.592 2.27114 -3.50441 0
M  V30 1439 N 133.029 1.57378 -0.0835403 0
M  V30 1440 C 134.306 1.85363 0.624507 0
M  V30 1441 C 134.686 0.978239 1.87066 0
M  V30 1442 O 134.034 0.0475908 2.2845 0
M  V30 1443 C 134.244 3.35795 0.950947 0
M  V30 1444 C 135.592 4.03581 1.31939 0
M  V30 1445 O 136.616 3.40609 1.04232 0
M  V30 1446 O 135.475 5.14672 1.83779 0
M  V30 1447 H 132.569 0.766162 0.311329 0
M  V30 1448 H 135.115 1.69307 -0.115362 0
M  V30 1449 H 133.887 3.91244 0.0663899 0
M  V30 1450 H 133.51 3.57154 1.74719 0
M  V30 1451 N 134.507 -0.190092 1.56449 0
M  V30 1452 C 135.756 -0.907912 1.80111 0
M  V30 1453 C 136.069 -1.84214 0.657619 0
M  V30 1454 O 137.275 -2.60094 0.778663 0
M  V30 1455 C 135.731 -1.66485 3.19078 0
M  V30 1456 C 135.339 -0.7752 4.41242 0
M  V30 1457 C 137.083 -2.37201 3.52045 0
M  V30 1458 C 134.99 -1.53129 5.71231 0
M  V30 1459 H 133.92 -0.34276 0.671589 0
M  V30 1460 H 136.571 -0.161109 1.82791 0
M  V30 1461 H 134.953 -2.45572 3.10661 0
M  V30 1462 H 136.127 -0.0226298 4.60794 0
M  V30 1463 H 134.442 -0.178627 4.16017 0
M  V30 1464 H 137.039 -2.94329 4.46402 0
M  V30 1465 H 137.382 -3.11632 2.76028 0
M  V30 1466 H 137.915 -1.65075 3.61932 0
M  V30 1467 H 134.654 -0.82967 6.50228 0
M  V30 1468 H 134.174 -2.25767 5.55688 0
M  V30 1469 H 135.853 -2.08377 6.12526 0
M  V30 1470 N 135.985 -1.50799 -0.457987 0
M  V30 1471 C 137.401 -1.38515 -0.792819 0
M  V30 1472 C 137.601 -0.451409 -1.96379 0
M  V30 1473 O 136.657 0.10112 -2.52297 0
M  V30 1474 C 137.97 -2.80149 -1.09258 0
M  V30 1475 C 139.518 -2.89156 -1.19825 0
M  V30 1476 C 139.993 -4.31651 -1.53106 0
M  V30 1477 N 141.484 -4.34662 -1.60072 0
M  V30 1478 C 142.219 -5.41928 -1.87354 0
M  V30 1479 N 141.715 -6.59384 -2.12568 0
M  V30 1480 N 143.508 -5.29385 -1.88965 0
M  V30 1481 H 135.659 -2.10073 0.313511 0
M  V30 1482 H 137.922 -0.944803 0.0777862 0
M  V30 1483 H 137.628 -3.50374 -0.305084 0
M  V30 1484 H 137.502 -3.18204 -2.02549 0
M  V30 1485 H 139.889 -2.19141 -1.97639 0
M  V30 1486 H 139.97 -2.54626 -0.244821 0
M  V30 1487 H 139.614 -5.02208 -0.758266 0
M  V30 1488 H 139.544 -4.63678 -2.49621 0
M  V30 1489 H 142.035 -3.49973 -1.42573 0
M  V30 1490 H 142.348 -7.36934 -2.32696 0
M  V30 1491 H 140.693 -6.62535 -2.09933 0
M  V30 1492 H 143.884 -4.36616 -1.68772 0
M  V30 1493 H 144.057 -6.13066 -2.09891 0
M  V30 1494 N 137.463 0.71206 -1.40597 0
M  V30 1495 C 138.874 1.29135 -1.34837 0
M  V30 1496 C 139.225 1.96186 -0.0235395 0
M  V30 1497 O 138.35 1.97768 0.878444 0
M  V30 1498 C 138.945 2.34827 -2.44217 0
M  V30 1499 C 137.504 2.88371 -2.41907 0
M  V30 1500 C 136.651 1.62202 -2.24913 0
M  V30 1501 H 139.602 0.507944 -1.50352 0
M  V30 1502 H 139.623 3.15749 -2.12327 0
M  V30 1503 H 139.135 1.85996 -3.40627 0
M  V30 1504 H 137.236 3.41422 -1.49204 0
M  V30 1505 H 137.349 3.39925 -3.37621 0
M  V30 1506 H 135.713 1.874 -1.72492 0
M  V30 1507 H 136.496 1.15391 -3.23326 0
M  V30 1508 N 138.941 1.26152 0.944643 0
M  V30 1509 C 140.169 1.14259 1.72489 0
M  V30 1510 C 140.584 -0.302555 1.8636 0
M  V30 1511 O 139.941 -1.20741 1.36849 0
M  V30 1512 C 139.992 1.80266 3.13347 0
M  V30 1513 O 139.713 3.19133 3.00143 0
M  V30 1514 C 141.214 1.74283 4.07603 0
M  V30 1515 H 138.434 0.398051 0.540181 0
M  V30 1516 H 140.978 1.66706 1.18446 0
M  V30 1517 H 139.133 1.31766 3.64303 0
M  V30 1518 H 139.547 3.51744 3.89071 0
M  V30 1519 H 141.021 2.25111 5.04013 0
M  V30 1520 H 141.498 0.708631 4.33446 0
M  V30 1521 H 142.104 2.22319 3.62567 0
M  V30 1522 N 140.419 -1.14872 1.07899 0
M  V30 1523 C 141.369 -2.17809 0.674027 0
M  V30 1524 C 142.353 -1.58008 -0.303699 0
M  V30 1525 O 143.545 -1.76616 -0.11654 0
M  V30 1526 C 140.674 -3.43208 0.0793318 0
M  V30 1527 C 139.76 -4.10051 1.08253 0
M  V30 1528 N 140.151 -4.52296 2.2641 0
M  V30 1529 C 138.449 -4.36469 0.917124 0
M  V30 1530 C 139.15 -5.04199 2.901 0
M  V30 1531 N 138.126 -4.98088 2.17736 0
M  V30 1532 H 141.928 -2.48207 1.57386 0
M  V30 1533 H 139.442 -1.315 0.952976 0
M  V30 1534 H 141.439 -4.16272 -0.228719 0
M  V30 1535 H 140.099 -3.14291 -0.815551 0
M  V30 1536 H 141.11 -4.45504 2.64096 0
M  V30 1537 H 137.787 -4.17432 0.0756078 0
M  V30 1538 H 139.177 -5.46802 3.90458 0
M  V30 1539 N 141.898 -0.863906 -1.31812 0
M  V30 1540 C 142.846 -0.30422 -2.30602 0
M  V30 1541 C 143.84 0.577419 -1.59255 0
M  V30 1542 O 145.046 0.464194 -1.73912 0
M  V30 1543 H 141.421 -0.0796877 -0.747766 0
M  V30 1544 H 143.392 -1.15148 -2.75288 0
M  V30 1545 C 142.141 0.484617 -3.44306 0
M  V30 1546 H 141.464 -0.18451 -3.99374 0
M  V30 1547 H 142.904 0.841664 -4.15562 0
M  V30 1548 C 141.363 1.6735 -2.92396 0
M  V30 1549 O 141.893 2.77273 -2.90659 0
M  V30 1550 N 140.099 1.50362 -2.48676 0
M  V30 1551 H 139.646 0.609402 -2.50288 0
M  V30 1552 H 139.604 2.30051 -2.14299 0
M  V30 1553 N 143.376 1.44774 -0.622745 0
M  V30 1554 C 144.286 2.34433 0.0886031 0
M  V30 1555 C 145.302 1.52131 0.844529 0
M  V30 1556 O 146.478 1.84886 0.798691 0
M  V30 1557 C 143.543 3.29986 1.0635 0
M  V30 1558 C 142.604 4.28195 0.307873 0
M  V30 1559 C 141.837 5.19183 1.23633 0
M  V30 1560 O 142.06 5.13918 2.47476 0
M  V30 1561 O 140.994 5.97515 0.725189 0
M  V30 1562 H 144.82 2.96693 -0.648599 0
M  V30 1563 H 142.405 1.44408 -0.382957 0
M  V30 1564 H 144.287 3.88825 1.6246 0
M  V30 1565 H 142.962 2.70269 1.78146 0
M  V30 1566 H 141.869 3.72927 -0.296064 0
M  V30 1567 H 143.202 4.90808 -0.3699 0
M  V30 1568 N 144.854 0.36279 1.53368 0
M  V30 1569 C 146.131 -0.284021 1.93527 0
M  V30 1570 C 146.511 -1.66628 1.29608 0
M  V30 1571 O 145.859 -2.23942 0.45413 0
M  V30 1572 C 146.069 -0.337028 3.47369 0
M  V30 1573 C 147.417 -0.578708 4.20638 0
M  V30 1574 O 148.441 -0.418352 3.53735 0
M  V30 1575 O 147.3 -0.89074 5.39192 0
M  V30 1576 H 144.394 -0.169743 0.809393 0
M  V30 1577 H 146.94 0.41537 1.64538 0
M  V30 1578 H 145.712 0.632217 3.86159 0
M  V30 1579 H 145.335 -1.08243 3.82582 0
M  V30 1580 N 146.332 -1.57332 0.0918853 0
M  V30 1581 C 147.262 -2.16872 -0.865371 0
M  V30 1582 C 148.243 -1.10118 -1.29646 0
M  V30 1583 O 149.428 -1.38242 -1.36392 0
M  V30 1584 C 146.558 -2.74649 -2.12569 0
M  V30 1585 C 145.512 -3.86747 -1.83333 0
M  V30 1586 C 144.838 -4.31212 -3.16166 0
M  V30 1587 C 146.138 -5.10089 -1.1228 0
M  V30 1588 H 147.832 -2.97114 -0.369307 0
M  V30 1589 H 145.378 -1.42918 -0.176194 0
M  V30 1590 H 147.331 -3.14952 -2.7997 0
M  V30 1591 H 146.055 -1.91657 -2.64452 0
M  V30 1592 H 144.714 -3.46978 -1.18331 0
M  V30 1593 H 144.362 -3.45115 -3.6593 0
M  V30 1594 H 144.062 -5.06788 -2.97388 0
M  V30 1595 H 145.586 -4.74146 -3.84731 0
M  V30 1596 H 147 -5.47582 -1.69785 0
M  V30 1597 H 145.397 -5.91073 -1.03693 0
M  V30 1598 H 146.467 -4.84786 -0.105041 0
M  V30 1599 N 147.81 0.181792 -1.56548 0
M  V30 1600 C 149.221 0.745244 -1.71181 0
M  V30 1601 C 149.572 1.83262 -0.70068 0
M  V30 1602 O 148.697 2.15946 0.140154 0
M  V30 1603 C 149.292 1.35859 -3.10367 0
M  V30 1604 C 147.851 1.86898 -3.2672 0
M  V30 1605 C 146.998 0.743942 -2.67134 0
M  V30 1606 H 149.949 -0.0434661 -1.5864 0
M  V30 1607 H 149.97 2.22817 -3.08436 0
M  V30 1608 H 149.482 0.566948 -3.83937 0
M  V30 1609 H 147.583 2.68738 -2.5809 0
M  V30 1610 H 147.696 2.02162 -4.34359 0
M  V30 1611 H 146.06 1.16169 -2.26665 0
M  V30 1612 H 146.843 -0.035676 -3.43281 0
M  V30 1613 N 149.288 1.51039 0.449983 0
M  V30 1614 C 150.535 1.63081 1.20045 0
M  V30 1615 C 150.863 0.341024 1.91487 0
M  V30 1616 O 150.118 -0.674276 1.83717 0
M  V30 1617 C 150.417 2.77556 2.25161 0
M  V30 1618 C 150.083 4.17289 1.70823 0
M  V30 1619 C 148.745 4.55305 1.55725 0
M  V30 1620 C 151.097 5.04536 1.3074 0
M  V30 1621 C 148.425 5.78287 0.989999 0
M  V30 1622 C 150.777 6.28085 0.754482 0
M  V30 1623 C 149.441 6.64885 0.590308 0
M  V30 1624 H 148.711 0.596755 0.439277 0
M  V30 1625 H 151.358 1.85037 0.49333 0
M  V30 1626 H 149.663 2.49771 3.01863 0
M  V30 1627 H 151.36 2.84073 2.83026 0
M  V30 1628 H 147.95 3.8731 1.83546 0
M  V30 1629 H 152.134 4.75782 1.41229 0
M  V30 1630 H 147.39 6.05456 0.850451 0
M  V30 1631 H 151.564 6.95038 0.435324 0
M  V30 1632 H 149.191 7.60055 0.14862 0
M  V30 1633 N 150.766 -0.704594 1.40972 0
M  V30 1634 C 151.698 -1.82974 1.38033 0
M  V30 1635 C 152.711 -1.60305 0.283931 0
M  V30 1636 O 153.9 -1.69975 0.545042 0
M  V30 1637 C 151 -3.19578 1.12795 0
M  V30 1638 C 150.173 -3.69352 2.34302 0
M  V30 1639 C 149.232 -4.84601 2.05058 0
M  V30 1640 O 148.258 -4.96682 2.7802 0
M  V30 1641 N 149.46 -5.71194 1.03528 0
M  V30 1642 H 152.225 -1.85991 2.35005 0
M  V30 1643 H 149.786 -0.886567 1.35468 0
M  V30 1644 H 151.778 -3.9429 0.911987 0
M  V30 1645 H 150.348 -3.11642 0.24452 0
M  V30 1646 H 149.568 -2.85649 2.71659 0
M  V30 1647 H 150.856 -3.99345 3.1528 0
M  V30 1648 H 150.254 -5.64054 0.431217 0
M  V30 1649 H 148.811 -6.45843 0.879205 0
M  V30 1650 N 152.244 -1.26651 -0.937939 0
M  V30 1651 C 153.492 -1.12165 -1.68118 0
M  V30 1652 C 153.813 0.334983 -1.92101 0
M  V30 1653 O 153.083 1.23583 -1.52 0
M  V30 1654 H 151.663 -0.412093 -0.623048 0
M  V30 1655 H 154.325 -1.59027 -1.12678 0
M  V30 1656 H 153.421 -1.64289 -2.6536 0
M  V30 1657 N 153.722 1.14298 -1.08507 0
M  V30 1658 C 154.97 1.84993 -0.813763 0
M  V30 1659 C 155.291 1.83405 0.662393 0
M  V30 1660 O 154.561 1.28319 1.48024 0
M  V30 1661 H 153.141 0.684966 -0.298045 0
M  V30 1662 H 155.803 1.385 -1.37126 0
M  V30 1663 H 154.899 2.89788 -1.15884 0
M  V30 1664 N 155.201 0.870884 1.31352 0
M  V30 1665 C 156.164 0.332243 2.26779 0
M  V30 1666 C 157.164 -0.517302 1.52252 0
M  V30 1667 O 158.354 -0.326477 1.71113 0
M  V30 1668 C 155.486 -0.528066 3.36785 0
M  V30 1669 H 156.679 1.17469 2.75937 0
M  V30 1670 H 154.232 0.64655 1.423 0
M  V30 1671 H 154.967 -1.39167 2.92922 0
M  V30 1672 H 154.752 0.0802582 3.92018 0
M  V30 1673 H 156.242 -0.897179 4.07849 0
M  V30 1674 N 156.679 -1.44442 0.630414 0
M  V30 1675 C 157.609 -2.33418 -0.0618083 0
M  V30 1676 C 158.59 -1.48165 -0.835541 0
M  V30 1677 O 159.775 -1.76886 -0.801564 0
M  V30 1678 C 156.905 -3.31222 -1.04449 0
M  V30 1679 C 155.859 -4.26288 -0.382436 0
M  V30 1680 C 155.185 -5.13954 -1.47497 0
M  V30 1681 C 156.485 -5.1744 0.710865 0
M  V30 1682 H 158.179 -2.91548 0.681184 0
M  V30 1683 H 155.725 -1.40191 0.329026 0
M  V30 1684 H 157.678 -3.92351 -1.53748 0
M  V30 1685 H 156.402 -2.71299 -1.81836 0
M  V30 1686 H 155.061 -3.6649 0.0899054 0
M  V30 1687 H 154.709 -4.50385 -2.2397 0
M  V30 1688 H 154.409 -5.7837 -1.03737 0
M  V30 1689 H 155.933 -5.77955 -1.96979 0
M  V30 1690 H 157.347 -5.72509 0.300996 0
M  V30 1691 H 155.744 -5.90455 1.07156 0
M  V30 1692 H 156.814 -4.58496 1.57829 0
M  V30 1693 N 158.157 -0.370918 -1.53173 0
M  V30 1694 C 159.405 0.216673 -2.00935 0
M  V30 1695 C 159.726 1.48845 -1.25977 0
M  V30 1696 O 158.996 1.92286 -0.374551 0
M  V30 1697 H 157.576 0.0830565 -0.742368 0
M  V30 1698 H 160.238 -0.49838 -1.8842 0
M  V30 1699 H 159.334 0.439893 -3.08984 0
M  V30 1700 N 159.635 1.57281 -0.100228 0
M  V30 1701 C 160.565 2.17328 0.853857 0
M  V30 1702 C 161.546 1.10804 1.2906 0
M  V30 1703 O 162.731 1.38963 1.35657 0
M  V30 1704 C 159.861 2.75772 2.11109 0
M  V30 1705 C 158.815 3.87713 1.81279 0
M  V30 1706 C 158.141 4.32882 3.13874 0
M  V30 1707 C 159.441 5.10677 1.09574 0
M  V30 1708 H 161.135 2.97305 0.353545 0
M  V30 1709 H 158.681 1.43009 0.168612 0
M  V30 1710 H 160.634 3.16433 2.78296 0
M  V30 1711 H 159.358 1.93057 2.63432 0
M  V30 1712 H 158.017 3.476 1.16489 0
M  V30 1713 H 157.665 3.47051 3.64095 0
M  V30 1714 H 157.365 5.08358 2.94696 0
M  V30 1715 H 158.889 4.7618 3.82211 0
M  V30 1716 H 160.303 5.48474 1.66879 0
M  V30 1717 H 158.7 5.91615 1.00557 0
M  V30 1718 H 159.77 4.84835 0.0793299 0
M  V30 1719 N 161.113 -0.173488 1.56642 0
M  V30 1720 C 162.36 -0.890465 1.81871 0
M  V30 1721 C 162.688 -1.82339 0.67696 0
M  V30 1722 O 161.943 -1.92795 -0.335926 0
M  V30 1723 C 162.242 -1.72069 3.13252 0
M  V30 1724 C 161.908 -0.936878 4.41059 0
M  V30 1725 C 160.57 -0.720545 4.75775 0
M  V30 1726 C 162.922 -0.386919 5.19762 0
M  V30 1727 C 160.25 0.0568829 5.86672 0
M  V30 1728 C 162.602 0.37741 6.31473 0
M  V30 1729 C 161.266 0.604563 6.64757 0
M  V30 1730 H 160.536 -0.325844 0.665512 0
M  V30 1731 H 163.183 -0.155527 1.90867 0
M  V30 1732 H 161.488 -2.52496 2.99588 0
M  V30 1733 H 163.185 -2.27844 3.29982 0
M  V30 1734 H 159.775 -1.11553 4.13828 0
M  V30 1735 H 163.959 -0.541398 4.93338 0
M  V30 1736 H 159.215 0.242635 6.10918 0
M  V30 1737 H 163.389 0.810825 6.91664 0
M  V30 1738 H 161.016 1.20885 7.50527 0
M  V30 1739 N 162.591 -1.51276 -0.441967 0
M  V30 1740 C 163.839 -1.63392 -1.18943 0
M  V30 1741 C 164.16 -0.350159 -1.9183 0
M  V30 1742 O 163.43 0.633784 -1.85364 0
M  V30 1743 H 162.01 -0.602164 -0.442049 0
M  V30 1744 H 164.672 -1.88186 -0.507165 0
M  V30 1745 H 163.768 -2.45934 -1.92154 0
M  V30 1746 N 164.069 0.697108 -1.41344 0
M  V30 1747 C 165.299 1.48377 -1.43763 0
M  V30 1748 C 165.707 1.89156 -0.0408726 0
M  V30 1749 O 165.05 1.57239 0.949812 0
M  V30 1750 C 165.112 2.7781 -2.2817 0
M  V30 1751 C 164.776 2.59244 -3.76353 0
M  V30 1752 C 165.773 2.25292 -4.68551 0
M  V30 1753 C 163.458 2.74933 -4.20378 0
M  V30 1754 C 165.452 2.07264 -6.02761 0
M  V30 1755 C 163.139 2.56521 -5.54653 0
M  V30 1756 C 164.137 2.22737 -6.4566 0
M  V30 1757 O 163.825 2.04485 -7.77458 0
M  V30 1758 H 163.557 0.463842 -0.491759 0
M  V30 1759 H 166.111 0.865934 -1.86255 0
M  V30 1760 H 164.341 3.41995 -1.8049 0
M  V30 1761 H 166.03 3.39608 -2.22309 0
M  V30 1762 H 166.796 2.12787 -4.35829 0
M  V30 1763 H 162.675 3.00213 -3.49848 0
M  V30 1764 H 166.219 1.80817 -6.73759 0
M  V30 1765 H 162.116 2.68616 -5.86955 0
M  V30 1766 H 162.884 2.1926 -7.88586 0
M  V30 1767 N 165.547 1.27147 0.931209 0
M  V30 1768 C 166.824 1.0401 1.65654 0
M  V30 1769 C 167.204 -0.426297 2.06751 0
M  V30 1770 O 166.552 -1.40879 1.79904 0
M  V30 1771 C 166.762 1.99834 2.86125 0
M  V30 1772 C 168.11 2.29007 3.57549 0
M  V30 1773 O 169.134 1.97779 2.96246 0
M  V30 1774 O 167.993 2.82222 4.67989 0
M  V30 1775 H 165.087 0.396239 0.725895 0
M  V30 1776 H 167.633 1.38397 0.982056 0
M  V30 1777 H 166.405 2.98744 2.52721 0
M  V30 1778 H 166.028 1.65987 3.61295 0
M  V30 1779 N 167.025 -1.13721 1.09112 0
M  V30 1780 C 167.955 -2.21148 0.749385 0
M  V30 1781 C 168.936 -1.6792 -0.271475 0
M  V30 1782 O 170.121 -1.93693 -0.140251 0
M  V30 1783 C 167.251 -3.46905 0.165659 0
M  V30 1784 C 166.205 -4.13203 1.11567 0
M  V30 1785 C 165.531 -5.33248 0.393809 0
M  V30 1786 C 166.831 -4.60912 2.45678 0
M  V30 1787 H 168.525 -2.4999 1.64758 0
M  V30 1788 H 166.071 -1.20156 0.793626 0
M  V30 1789 H 168.024 -4.21313 -0.085466 0
M  V30 1790 H 166.748 -3.17449 -0.767714 0
M  V30 1791 H 165.407 -3.40758 1.35202 0
M  V30 1792 H 165.055 -5.00054 -0.543599 0
M  V30 1793 H 164.755 -5.78552 1.02721 0
M  V30 1794 H 166.279 -6.10413 0.150908 0
M  V30 1795 H 167.693 -5.26759 2.26269 0
M  V30 1796 H 166.09 -5.16944 3.04776 0
M  V30 1797 H 167.16 -3.75603 3.06677 0
M  V30 1798 N 168.503 -0.877838 -1.30888 0
M  V30 1799 C 169.751 -0.491723 -1.96027 0
M  V30 1800 C 170.072 0.960827 -1.69685 0
M  V30 1801 O 169.342 1.67462 -1.01654 0
M  V30 1802 H 167.922 -0.17885 -0.725273 0
M  V30 1803 H 170.584 -1.11935 -1.59551 0
M  V30 1804 H 169.68 -0.656016 -3.05128 0
M  V30 1805 N 169.982 1.44106 -0.638065 0
M  V30 1806 C 171.398 1.56672 -0.304286 0
M  V30 1807 C 171.598 1.6244 1.19228 0
M  V30 1808 O 170.654 1.57121 1.9766 0
M  V30 1809 C 171.967 2.83503 -1.00231 0
M  V30 1810 C 173.515 2.97226 -0.981116 0
M  V30 1811 C 173.99 4.26868 -1.65974 0
M  V30 1812 N 175.481 4.33698 -1.62666 0
M  V30 1813 C 176.216 5.32745 -2.12063 0
M  V30 1814 N 175.712 6.38157 -2.6968 0
M  V30 1815 N 177.505 5.24299 -2.02651 0
M  V30 1816 H 169.656 1.38605 -1.60942 0
M  V30 1817 H 171.919 0.664661 -0.675965 0
M  V30 1818 H 171.625 2.85251 -2.0573 0
M  V30 1819 H 171.499 3.73251 -0.54439 0
M  V30 1820 H 173.886 2.95027 0.0654188 0
M  V30 1821 H 173.967 2.08808 -1.47759 0
M  V30 1822 H 173.611 4.29826 -2.70576 0
M  V30 1823 H 173.541 5.14156 -1.13804 0
M  V30 1824 H 176.032 3.58138 -1.20606 0
M  V30 1825 H 176.345 7.10029 -3.05087 0
M  V30 1826 H 174.69 6.38823 -2.73734 0
M  V30 1827 H 177.881 4.4086 -1.57353 0
M  V30 1828 H 178.054 6.01334 -2.41457 0
M  V30 1829 N 171.46 0.379036 1.52974 0
M  V30 1830 C 172.876 0.0285448 1.59574 0
M  V30 1831 C 173.076 -1.45542 1.39355 0
M  V30 1832 O 172.132 -2.2187 1.20541 0
M  V30 1833 C 173.445 0.496535 2.96572 0
M  V30 1834 C 174.993 0.451909 3.0972 0
M  V30 1835 C 175.468 0.895924 4.49152 0
M  V30 1836 N 176.959 0.851522 4.55306 0
M  V30 1837 C 177.694 1.16661 5.61407 0
M  V30 1838 N 177.19 1.55166 6.752 0
M  V30 1839 N 178.983 1.08853 5.51459 0
M  V30 1840 H 171.134 1.34525 1.64367 0
M  V30 1841 H 173.397 0.550733 0.771619 0
M  V30 1842 H 173.103 1.53258 3.16552 0
M  V30 1843 H 172.977 -0.109802 3.7704 0
M  V30 1844 H 175.364 -0.575029 2.89443 0
M  V30 1845 H 175.445 1.09392 2.3123 0
M  V30 1846 H 175.089 1.92104 4.70168 0
M  V30 1847 H 175.019 0.23103 5.26093 0
M  V30 1848 H 177.51 0.568038 3.73606 0
M  V30 1849 H 177.823 1.776 7.52116 0
M  V30 1850 H 176.168 1.59044 6.76557 0
M  V30 1851 H 179.359 0.786803 4.6144 0
M  V30 1852 H 179.532 1.33742 6.34048 0
M  V30 1853 N 172.938 -1.57226 0.108567 0
M  V30 1854 C 174.185 -1.94833 -0.551943 0
M  V30 1855 C 174.513 -0.991204 -1.67348 0
M  V30 1856 O 173.768 -0.0131878 -1.95696 0
M  V30 1857 C 174.067 -3.38911 -1.13463 0
M  V30 1858 C 173.733 -4.50696 -0.135509 0
M  V30 1859 C 172.395 -4.80998 0.139252 0
M  V30 1860 C 174.747 -5.18333 0.545957 0
M  V30 1861 C 172.075 -5.76259 1.10194 0
M  V30 1862 C 174.427 -6.14627 1.49721 0
M  V30 1863 C 173.091 -6.43327 1.78006 0
M  V30 1864 H 172.361 -0.712944 -0.20197 0
M  V30 1865 H 175.008 -1.90582 0.18726 0
M  V30 1866 H 173.313 -3.39805 -1.95037 0
M  V30 1867 H 175.01 -3.65317 -1.65362 0
M  V30 1868 H 171.6 -4.27087 -0.359846 0
M  V30 1869 H 175.784 -4.95087 0.346842 0
M  V30 1870 H 171.04 -5.96804 1.32795 0
M  V30 1871 H 175.214 -6.66126 2.03099 0
M  V30 1872 H 172.841 -7.1695 2.52759 0
M  V30 1873 N 174.416 0.165178 -1.56732 0
M  V30 1874 C 175.326 1.22423 -2.00125 0
M  V30 1875 C 176.342 1.48084 -0.913619 0
M  V30 1876 O 177.518 1.60112 -1.22172 0
M  V30 1877 C 174.583 2.54197 -2.35764 0
M  V30 1878 C 173.644 2.36343 -3.58386 0
M  V30 1879 C 172.877 3.61834 -3.92316 0
M  V30 1880 O 173.1 4.67267 -3.27135 0
M  V30 1881 O 172.034 3.55579 -4.85641 0
M  V30 1882 H 175.86 0.885886 -2.90492 0
M  V30 1883 H 173.445 0.372518 -1.44681 0
M  V30 1884 H 175.327 3.3192 -2.59629 0
M  V30 1885 H 174.002 2.87598 -1.48557 0
M  V30 1886 H 172.909 1.56632 -3.39731 0
M  V30 1887 H 174.242 2.07865 -4.46154 0
M  V30 1888 N 175.894 1.51508 0.433938 0
M  V30 1889 C 177.119 1.68443 1.21003 0
M  V30 1890 C 177.544 0.382636 1.84167 0
M  V30 1891 O 176.902 -0.65755 1.68956 0
M  V30 1892 C 176.95 2.80405 2.26727 0
M  V30 1893 O 176.054 2.44245 3.32292 0
M  V30 1894 H 175.395 0.561536 0.354363 0
M  V30 1895 H 177.925 1.9809 0.512024 0
M  V30 1896 H 177.935 3.0459 2.71457 0
M  V30 1897 H 176.61 3.74867 1.80132 0
M  V30 1898 H 175.187 2.30644 2.93015 0
M  V30 1899 N 177.372 -0.689602 1.41712 0
M  V30 1900 C 178.302 -1.81577 1.46806 0
M  V30 1901 C 179.283 -1.66945 0.326105 0
M  V30 1902 O 180.468 -1.86588 0.538377 0
M  V30 1903 C 177.598 -3.19762 1.35535 0
M  V30 1904 C 176.552 -3.49107 2.47605 0
M  V30 1905 C 175.878 -4.86711 2.21397 0
M  V30 1906 C 177.178 -3.47483 3.89939 0
M  V30 1907 H 178.872 -1.7757 2.41058 0
M  V30 1908 H 176.418 -0.852887 1.16025 0
M  V30 1909 H 178.371 -3.98263 1.3771 0
M  V30 1910 H 177.095 -3.24409 0.377708 0
M  V30 1911 H 175.754 -2.72959 2.44722 0
M  V30 1912 H 175.402 -4.8799 1.21961 0
M  V30 1913 H 175.102 -5.0731 2.96497 0
M  V30 1914 H 176.626 -5.67515 2.25297 0
M  V30 1915 H 178.04 -4.1598 3.94505 0
M  V30 1916 H 176.437 -3.79615 4.64771 0
M  V30 1917 H 177.507 -2.46341 4.17665 0
M  V30 1918 N 178.85 -1.27639 -0.924453 0
M  V30 1919 C 180.261 -1.12834 -1.48746 0
M  V30 1920 C 180.612 0.285505 -1.94112 0
M  V30 1921 O 179.737 1.17874 -1.81479 0
M  V30 1922 C 180.332 -2.04217 -2.70334 0
M  V30 1923 C 178.891 -1.93509 -3.22848 0
M  V30 1924 C 178.038 -1.96583 -1.95577 0
M  V30 1925 H 180.989 -1.40484 -0.738233 0
M  V30 1926 H 181.01 -1.59989 -3.4523 0
M  V30 1927 H 180.522 -3.07111 -2.37285 0
M  V30 1928 H 178.623 -0.936131 -3.60649 0
M  V30 1929 H 178.736 -2.79917 -3.88823 0
M  V30 1930 H 177.1 -1.4085 -2.12211 0
M  V30 1931 H 177.883 -3.01137 -1.64837 0
M  V30 1932 N 180.328 1.1314 -1.09713 0
M  V30 1933 C 181.238 2.22242 -0.751367 0
M  V30 1934 C 182.254 1.72224 0.247938 0
M  V30 1935 O 183.43 2.01205 0.0885463 0
M  V30 1936 C 180.495 3.46231 -0.180274 0
M  V30 1937 C 179.556 4.11125 -1.2359 0
M  V30 1938 C 178.789 5.29195 -0.691966 0
M  V30 1939 O 179.012 5.68342 0.48414 0
M  V30 1940 O 177.946 5.84214 -1.44838 0
M  V30 1941 H 181.772 2.54197 -1.66186 0
M  V30 1942 H 179.357 1.21331 -0.871735 0
M  V30 1943 H 181.239 4.21185 0.134739 0
M  V30 1944 H 179.914 3.1597 0.703185 0
M  V30 1945 H 178.821 3.37985 -1.60366 0
M  V30 1946 H 180.154 4.45524 -2.09211 0
M  V30 1947 N 181.806 0.884767 1.30421 0
M  V30 1948 C 183.055 0.499164 1.95426 0
M  V30 1949 C 183.368 -0.95645 1.70621 0
M  V30 1950 O 184.574 -1.44889 2.29607 0
M  V30 1951 C 183.03 0.84177 3.49917 0
M  V30 1952 C 182.638 2.31514 3.83543 0
M  V30 1953 C 184.382 0.525355 4.21237 0
M  V30 1954 C 182.289 2.59939 5.31212 0
M  V30 1955 H 181.219 0.182944 0.73147 0
M  V30 1956 H 183.87 1.07971 1.48373 0
M  V30 1957 H 182.252 0.190311 3.95542 0
M  V30 1958 H 183.426 3.0109 3.48829 0
M  V30 1959 H 181.741 2.59907 3.25326 0
M  V30 1960 H 184.338 0.714762 5.29901 0
M  V30 1961 H 184.681 -0.535222 4.12845 0
M  V30 1962 H 185.214 1.134 3.81294 0
M  V30 1963 H 181.953 3.64736 5.44654 0
M  V30 1964 H 181.473 1.94972 5.67227 0
M  V30 1965 H 183.152 2.45429 5.98643 0
M  V30 1966 N 183.284 -1.43765 0.645699 0
M  V30 1967 C 184.247 -2.29163 -0.0409488 0
M  V30 1968 C 185.247 -1.41813 -0.757996 0
M  V30 1969 O 186.437 -1.63527 -0.600382 0
M  V30 1970 C 183.569 -3.23716 -1.06869 0
M  V30 1971 H 184.762 -2.91366 0.710345 0
M  V30 1972 H 182.315 -1.5092 0.406547 0
M  V30 1973 H 183.05 -2.66393 -1.84947 0
M  V30 1974 H 182.835 -3.88105 -0.558277 0
M  V30 1975 H 184.325 -3.87831 -1.54845 0
M  V30 1976 N 184.763 -0.387143 -1.52771 0
M  V30 1977 C 185.673 0.456442 -2.30117 0
M  V30 1978 C 186.689 1.07342 -1.36944 0
M  V30 1979 O 187.865 1.07971 -1.70013 0
M  V30 1980 C 184.93 1.56957 -3.09136 0
M  V30 1981 C 183.991 0.977916 -4.18014 0
M  V30 1982 C 183.224 2.038 -4.93256 0
M  V30 1983 O 183.447 3.25271 -4.68567 0
M  V30 1984 O 182.381 1.6565 -5.78657 0
M  V30 1985 H 186.207 -0.17359 -3.03203 0
M  V30 1986 H 183.792 -0.150919 -1.48636 0
M  V30 1987 H 185.674 2.21628 -3.58412 0
M  V30 1988 H 184.349 2.18461 -2.38865 0
M  V30 1989 H 183.256 0.294525 -3.72939 0
M  V30 1990 H 184.589 0.407128 -4.90513 0
M  V30 1991 N 186.241 1.57166 -0.116904 0
M  V30 1992 C 187.173 2.12271 0.864507 0
M  V30 1993 C 188.186 1.06494 1.23138 0
M  V30 1994 O 189.375 1.33873 1.18069 0
M  V30 1995 C 186.475 2.60564 2.16702 0
M  V30 1996 C 185.648 3.90416 1.97216 0
M  V30 1997 C 184.707 4.24329 3.11178 0
M  V30 1998 O 183.733 4.93182 2.84184 0
M  V30 1999 N 184.935 3.8148 4.37554 0
M  V30 2000 H 187.7 2.97102 0.393726 0
M  V30 2001 H 185.261 1.61759 0.0675805 0
M  V30 2002 H 187.253 2.80282 2.91932 0
M  V30 2003 H 185.823 1.80623 2.55135 0
M  V30 2004 H 185.043 3.79627 1.06192 0
M  V30 2005 H 186.331 4.75327 1.81499 0
M  V30 2006 H 185.729 3.25943 4.62361 0
M  V30 2007 H 184.286 4.06311 5.09661 0
M  V30 2008 N 187.719 -0.156864 1.56817 0
M  V30 2009 C 188.996 -0.899244 1.73704 0
M  V30 2010 C 189.376 -1.99771 0.682254 0
M  V30 2011 O 188.724 -2.26515 -0.300522 0
M  V30 2012 C 188.934 -1.45075 3.17418 0
M  V30 2013 C 190.282 -1.91802 3.7881 0
M  V30 2014 O 191.306 -1.54838 3.20786 0
M  V30 2015 O 190.165 -2.5994 4.80722 0
M  V30 2016 H 187.259 -0.424267 0.709878 0
M  V30 2017 H 189.805 -0.143561 1.69092 0
M  V30 2018 H 188.577 -0.660846 3.85679 0
M  V30 2019 H 188.2 -2.27021 3.26416 0
M  V30 2020 N 189.197 -1.51736 -0.425897 0
M  V30 2021 C 190.446 -1.64201 -1.17136 0
M  V30 2022 C 190.759 -0.369705 -1.92074 0
M  V30 2023 O 191.965 -0.373898 -2.68913 0
M  V30 2024 C 190.421 -2.90035 -2.13091 0
M  V30 2025 C 190.029 -4.24312 -1.43747 0
M  V30 2026 C 191.773 -3.1186 -2.87999 0
M  V30 2027 C 189.68 -5.41285 -2.38253 0
M  V30 2028 H 188.61 -0.611624 -0.440944 0
M  V30 2029 H 191.261 -1.78212 -0.437328 0
M  V30 2030 H 189.643 -2.69684 -2.89977 0
M  V30 2031 H 190.817 -4.55086 -0.723408 0
M  V30 2032 H 189.132 -4.08456 -0.809465 0
M  V30 2033 H 191.729 -3.96427 -3.58817 0
M  V30 2034 H 192.072 -2.25403 -3.49999 0
M  V30 2035 H 192.605 -3.32605 -2.18217 0
M  V30 2036 H 189.344 -6.30037 -1.80925 0
M  V30 2037 H 188.864 -5.14872 -3.0768 0
M  V30 2038 H 190.543 -5.73694 -2.99139 0
M  V30 2039 N 190.675 0.682077 -1.42076 0
M  V30 2040 C 191.921 1.44428 -1.42367 0
M  V30 2041 C 192.254 1.94164 -0.0373056 0
M  V30 2042 O 191.529 1.70429 0.937239 0
M  V30 2043 C 191.812 2.64654 -2.44194 0
M  V30 2044 C 191.665 2.20596 -3.91991 0
M  V30 2045 C 192.984 3.66865 -2.431 0
M  V30 2046 H 190.103 0.523834 -0.518428 0
M  V30 2047 H 192.745 0.77576 -1.73442 0
M  V30 2048 H 190.895 3.2169 -2.17826 0
M  V30 2049 H 192.567 1.68783 -4.29313 0
M  V30 2050 H 190.81 1.52242 -4.06208 0
M  V30 2051 H 191.481 3.06921 -4.58807 0
M  V30 2052 H 193.957 3.19531 -2.66532 0
M  V30 2053 H 192.833 4.48577 -3.16339 0
M  V30 2054 H 193.094 4.17493 -1.45437 0
M  V30 2055 N 192.153 1.28127 0.917671 0
M  V30 2056 C 193.083 1.14248 2.03641 0
M  V30 2057 C 194.064 0.0412748 1.7005 0
M  V30 2058 O 195.249 0.217566 1.92977 0
M  V30 2059 C 192.379 0.799431 3.37974 0
M  V30 2060 C 191.333 1.85497 3.85713 0
M  V30 2061 C 190.659 1.36565 5.16966 0
M  V30 2062 C 191.959 3.26085 4.08002 0
M  V30 2063 H 193.653 2.07835 2.15511 0
M  V30 2064 H 191.199 1.00064 1.03553 0
M  V30 2065 H 193.152 0.689114 4.15727 0
M  V30 2066 H 191.876 -0.172145 3.26146 0
M  V30 2067 H 190.535 1.95437 3.10161 0
M  V30 2068 H 190.183 0.383253 5.01538 0
M  V30 2069 H 189.883 2.07143 5.49878 0
M  V30 2070 H 191.407 1.26848 5.97279 0
M  V30 2071 H 192.821 3.19089 4.76293 0
M  V30 2072 H 191.218 3.94462 4.52238 0
M  V30 2073 H 192.288 3.70394 3.12948 0
M  V30 2074 N 193.631 -1.12557 1.10312 0
M  V30 2075 C 195.042 -1.65574 0.862678 0
M  V30 2076 C 195.393 -1.86566 -0.607256 0
M  V30 2077 O 194.518 -1.59121 -1.46662 0
M  V30 2078 C 195.113 -3.00776 1.55947 0
M  V30 2079 C 193.672 -3.50748 1.36576 0
M  V30 2080 C 192.819 -2.25797 1.60968 0
M  V30 2081 H 195.77 -0.963552 1.26101 0
M  V30 2082 H 195.791 -3.67185 0.997753 0
M  V30 2083 H 195.303 -2.85465 2.62928 0
M  V30 2084 H 193.404 -3.71245 0.317531 0
M  V30 2085 H 193.517 -4.30289 2.10686 0
M  V30 2086 H 191.881 -2.32841 1.03234 0
M  V30 2087 H 192.664 -2.13043 2.69198 0
M  V30 2088 N 195.109 -0.891671 -1.2995 0
M  V30 2089 C 196.386 -0.433307 -1.9074 0
M  V30 2090 C 196.766 1.08646 -1.80995 0
M  V30 2091 O 196.114 1.92476 -1.23147 0
M  V30 2092 C 196.324 -0.938895 -3.36134 0
M  V30 2093 C 197.672 -0.977829 -4.13187 0
M  V30 2094 O 198.696 -0.886015 -3.45005 0
M  V30 2095 O 197.555 -1.11453 -5.35015 0
M  V30 2096 H 194.649 -0.133699 -0.816121 0
M  V30 2097 H 197.195 -0.981011 -1.38471 0
M  V30 2098 H 195.967 -1.98281 -3.37343 0
M  V30 2099 H 195.59 -0.37074 -3.95868 0
M  V30 2100 N 196.587 1.43421 -0.653314 0
M  V30 2101 C 197.52 2.2803 0.0879804 0
M  V30 2102 C 198.498 1.39833 0.82979 0
M  V30 2103 O 199.682 1.69275 0.829341 0
M  V30 2104 C 196.809 3.19247 1.13132 0
M  V30 2105 C 195.855 4.23704 0.487546 0
M  V30 2106 S 196.688 5.30377 -0.738961 0
M  V30 2107 C 197.844 6.25162 0.30384 0
M  V30 2108 H 198.077 2.90554 -0.629739 0
M  V30 2109 H 195.61 1.47934 -0.442156 0
M  V30 2110 H 197.568 3.72346 1.72827 0
M  V30 2111 H 196.229 2.55901 1.82136 0
M  V30 2112 H 195.422 4.87631 1.27407 0
M  V30 2113 H 195.024 3.73983 -0.0352915 0
M  V30 2114 H 197.316 6.67321 1.17 0
M  V30 2115 H 198.259 7.07463 -0.300402 0
M  V30 2116 H 198.667 5.60864 0.63969 0
M  V30 2117 N 198.065 0.39524 1.52563 0
M  V30 2118 C 199.028 -0.425001 2.25225 0
M  V30 2119 C 200.028 -0.985266 1.27079 0
M  V30 2120 O 201.218 -0.866332 1.5113 0
M  V30 2121 C 198.35 -1.59686 3.01186 0
M  V30 2122 H 199.543 0.211233 2.99155 0
M  V30 2123 H 197.096 0.147472 1.55603 0
M  V30 2124 H 197.831 -2.27035 2.31572 0
M  V30 2125 H 197.616 -1.20176 3.73229 0
M  V30 2126 H 199.106 -2.17743 3.5634 0
M  V30 2127 N 199.544 -1.57102 0.125237 0
M  V30 2128 C 200.79 -1.95697 -0.532035 0
M  V30 2129 C 201.123 -1.009 -1.6593 0
M  V30 2130 O 200.398 -0.047347 -1.94442 0
M  V30 2131 C 200.681 -3.44181 -1.05884 0
M  V30 2132 C 200.534 -4.49752 0.0654392 0
M  V30 2133 C 201.853 -3.94655 -1.9477 0
M  V30 2134 H 198.972 -0.711571 -0.191925 0
M  V30 2135 H 201.614 -1.88923 0.20206 0
M  V30 2136 H 199.764 -3.50085 -1.68442 0
M  V30 2137 H 201.436 -4.55943 0.700982 0
M  V30 2138 H 199.679 -4.27653 0.727709 0
M  V30 2139 H 200.35 -5.50924 -0.344505 0
M  V30 2140 H 202.826 -3.91094 -1.42074 0
M  V30 2141 H 201.702 -4.99057 -2.28546 0
M  V30 2142 H 201.963 -3.35718 -2.87656 0
M  V30 2143 N 201.022 0.148545 -1.56898 0
M  V30 2144 C 202.27 0.859717 -1.82902 0
M  V30 2145 C 202.591 1.81775 -0.70588 0
M  V30 2146 O 201.861 1.93994 0.272586 0
M  V30 2147 H 200.441 0.320469 -0.674766 0
M  V30 2148 H 203.103 0.142918 -1.94375 0
M  V30 2149 H 202.199 1.4229 -2.77777 0
M  V30 2150 N 202.5 1.5196 0.417844 0
M  V30 2151 C 203.749 1.6482 1.16264 0
M  V30 2152 C 204.062 0.379886 1.91876 0
M  V30 2153 O 205.268 0.388154 2.68711 0
M  V30 2154 C 203.724 2.91161 2.1155 0
M  V30 2155 C 203.332 4.25068 1.41495 0
M  V30 2156 C 205.076 3.13383 2.86341 0
M  V30 2157 C 202.983 5.42541 2.35379 0
M  V30 2158 H 201.913 0.613954 0.437694 0
M  V30 2159 H 204.564 1.78442 0.427871 0
M  V30 2160 H 202.946 2.71218 2.88543 0
M  V30 2161 H 204.12 4.55463 0.699263 0
M  V30 2162 H 202.435 4.0888 0.787792 0
M  V30 2163 H 205.032 3.98324 3.5671 0
M  V30 2164 H 205.375 2.27256 3.48798 0
M  V30 2165 H 205.908 3.33757 2.1645 0
M  V30 2166 H 202.647 6.30987 1.77582 0
M  V30 2167 H 202.167 5.16497 3.04945 0
M  V30 2168 H 203.846 5.75272 2.96093 0
M  V30 2169 N 203.978 -0.674533 1.42435 0
M  V30 2170 C 205.208 -1.46071 1.46105 0
M  V30 2171 C 205.616 -1.89067 0.0709605 0
M  V30 2172 O 204.959 -1.58731 -0.924677 0
M  V30 2173 C 205.021 -2.74145 2.32561 0
M  V30 2174 C 204.685 -2.53224 3.8043 0
M  V30 2175 C 205.682 -2.17809 4.72075 0
M  V30 2176 C 203.367 -2.6821 4.24698 0
M  V30 2177 C 205.361 -1.97648 6.05982 0
M  V30 2178 C 203.048 -2.47665 5.58664 0
M  V30 2179 C 204.046 -2.12437 6.49122 0
M  V30 2180 O 203.734 -1.9209 7.80613 0
M  V30 2181 H 203.466 -0.455959 0.499076 0
M  V30 2182 H 206.02 -0.836193 1.87609 0
M  V30 2183 H 204.25 -3.3908 1.85908 0
M  V30 2184 H 205.939 -3.36028 2.27683 0
M  V30 2185 H 206.705 -2.05826 4.39159 0
M  V30 2186 H 202.584 -2.94609 3.54579 0
M  V30 2187 H 206.128 -1.70075 6.7655 0
M  V30 2188 H 202.025 -2.59244 5.91154 0
M  V30 2189 H 202.793 -2.06686 7.91974 0
M  V30 2190 N 205.456 -1.28612 -0.910864 0
M  V30 2191 C 206.733 -1.06632 -1.63979 0
M  V30 2192 C 207.113 0.393351 -2.07403 0
M  V30 2193 O 206.461 1.37999 -1.82122 0
M  V30 2194 C 206.671 -2.0436 -2.8291 0
M  V30 2195 C 208.019 -2.34666 -3.5386 0
M  V30 2196 O 209.043 -2.02467 -2.93062 0
M  V30 2197 O 207.902 -2.89631 -4.63439 0
M  V30 2198 H 204.996 -0.407737 -0.7195 0
M  V30 2199 H 207.542 -1.39942 -0.959914 0
M  V30 2200 H 206.314 -3.02727 -2.47936 0
M  V30 2201 H 205.937 -1.71714 -3.58609 0
M  V30 2202 N 206.934 1.1197 -1.10907 0
M  V30 2203 C 208.18 1.84059 -0.865674 0
M  V30 2204 C 208.535 1.82731 0.602254 0
M  V30 2205 O 207.828 1.26543 1.43866 0
M  V30 2206 C 208.022 3.30749 -1.35425 0
M  V30 2207 C 207.851 3.46363 -2.86815 0
M  V30 2208 C 206.621 3.59712 -3.54874 0
M  V30 2209 C 208.819 3.41116 -3.84895 0
M  V30 2210 N 206.801 3.63741 -4.94536 0
M  V30 2211 C 208.172 3.51698 -5.10596 0
M  V30 2212 C 210.227 3.24612 -3.77533 0
M  V30 2213 C 208.93 3.4748 -6.29802 0
M  V30 2214 C 210.956 3.21708 -4.96244 0
M  V30 2215 C 210.318 3.32856 -6.20795 0
M  V30 2216 H 206.417 0.689015 -0.369841 0
M  V30 2217 H 209.001 1.34016 -1.41237 0
M  V30 2218 H 207.172 3.79322 -0.834814 0
M  V30 2219 H 208.904 3.90718 -1.05458 0
M  V30 2220 H 205.659 3.62038 -3.05329 0
M  V30 2221 H 206.083 3.69408 -5.67333 0
M  V30 2222 H 210.725 3.14883 -2.8215 0
M  V30 2223 H 208.443 3.55978 -7.25469 0
M  V30 2224 H 212.029 3.10113 -4.92261 0
M  V30 2225 H 210.909 3.3059 -7.11112 0
M  V30 2226 N 208.412 0.89855 1.29475 0
M  V30 2227 C 209.375 0.380272 2.26023 0
M  V30 2228 C 210.375 -0.484891 1.53315 0
M  V30 2229 O 211.565 -0.290108 1.71767 0
M  V30 2230 C 208.697 -0.45651 3.3783 0
M  V30 2231 H 209.89 1.23295 2.73383 0
M  V30 2232 H 207.443 0.676589 1.40897 0
M  V30 2233 H 208.178 -1.32922 2.95808 0
M  V30 2234 H 207.963 0.163393 3.91759 0
M  V30 2235 H 209.453 -0.810466 4.0966 0
M  V30 2236 N 209.89 -1.43072 0.660911 0
M  V30 2237 C 210.82 -2.33497 -0.0122829 0
M  V30 2238 C 211.801 -1.49903 -0.803925 0
M  V30 2239 O 212.986 -1.78546 -0.763864 0
M  V30 2240 C 210.116 -3.33363 -0.973994 0
M  V30 2241 C 209.07 -4.27003 -0.291928 0
M  V30 2242 C 208.396 -5.16967 -1.36562 0
M  V30 2243 C 209.696 -5.15816 0.820462 0
M  V30 2244 H 211.39 -2.90038 0.742873 0
M  V30 2245 H 208.936 -1.39461 0.358688 0
M  V30 2246 H 210.889 -3.95524 -1.45392 0
M  V30 2247 H 209.613 -2.75095 -1.7604 0
M  V30 2248 H 208.272 -3.66217 0.167623 0
M  V30 2249 H 207.92 -4.55034 -2.14366 0
M  V30 2250 H 207.62 -5.80441 -0.914454 0
M  V30 2251 H 209.144 -5.82003 -1.84675 0
M  V30 2252 H 210.558 -5.71742 0.422366 0
M  V30 2253 H 208.955 -5.8805 1.19656 0
M  V30 2254 H 210.025 -4.55045 1.67518 0
M  V30 2255 N 211.368 -0.403325 -1.52352 0
M  V30 2256 C 212.617 0.175668 -2.00934 0
M  V30 2257 C 212.93 1.46718 -1.29356 0
M  V30 2258 O 214.136 2.12708 -1.68724 0
M  V30 2259 C 212.592 0.363612 -3.58058 0
M  V30 2260 C 212.2 -0.915472 -4.38547 0
M  V30 2261 C 213.944 0.89821 -4.14888 0
M  V30 2262 C 211.851 -0.695035 -5.87302 0
M  V30 2263 H 210.781 0.0694234 -0.750797 0
M  V30 2264 H 213.432 -0.527879 -1.75743 0
M  V30 2265 H 211.814 1.12935 -3.79555 0
M  V30 2266 H 212.988 -1.68691 -4.28812 0
M  V30 2267 H 211.303 -1.37606 -3.93006 0
M  V30 2268 H 213.9 1.07907 -5.23699 0
M  V30 2269 H 214.243 1.87126 -3.71873 0
M  V30 2270 H 214.776 0.191681 -3.97338 0
M  V30 2271 H 211.515 -1.63948 -6.34666 0
M  V30 2272 H 211.035 0.0372116 -5.99788 0
M  V30 2273 H 212.714 -0.33497 -6.46132 0
M  V30 2274 N 212.846 1.57033 -0.133567 0
M  V30 2275 C 214.092 1.95976 0.521649 0
M  V30 2276 C 214.425 1.01779 1.65393 0
M  V30 2277 O 213.7 0.0576581 1.94415 0
M  V30 2278 C 213.983 3.44738 1.04057 0
M  V30 2279 C 213.836 4.49711 -0.0892897 0
M  V30 2280 C 215.155 3.95682 1.92675 0
M  V30 2281 H 212.274 0.712579 0.188149 0
M  V30 2282 H 214.916 1.88813 -0.212076 0
M  V30 2283 H 213.066 3.50973 1.66583 0
M  V30 2284 H 214.738 4.55565 -0.725152 0
M  V30 2285 H 212.981 4.27261 -0.750378 0
M  V30 2286 H 213.652 5.51099 0.315284 0
M  V30 2287 H 216.128 3.91841 1.39998 0
M  V30 2288 H 215.004 5.00262 2.25897 0
M  V30 2289 H 215.265 3.37239 2.85872 0
M  V30 2290 N 214.325 -0.140222 1.56975 0
M  V30 2291 C 215.602 -0.880769 1.74648 0
M  V30 2292 C 215.982 -1.99036 0.703404 0
M  V30 2293 O 215.33 -2.26821 -0.27648 0
M  V30 2294 C 215.54 -1.417 3.18939 0
M  V30 2295 C 216.888 -1.87774 3.80823 0
M  V30 2296 O 217.912 -1.51427 3.2241 0
M  V30 2297 O 216.771 -2.54827 4.83452 0
M  V30 2298 H 213.865 -0.416713 0.714338 0
M  V30 2299 H 216.411 -0.125618 1.69234 0
M  V30 2300 H 215.183 -0.619902 3.86359 0
M  V30 2301 H 214.806 -2.23546 3.28805 0
M  V30 2302 N 215.803 -1.52179 -0.40978 0
M  V30 2303 C 216.753 -1.71857 -1.49831 0
M  V30 2304 C 217.737 -0.572469 -1.50372 0
M  V30 2305 O 218.929 -0.829509 -1.56359 0
M  V30 2306 C 216.058 -1.87206 -2.87765 0
M  V30 2307 C 215.144 -3.07685 -2.91875 0
M  V30 2308 N 215.535 -4.30403 -2.65683 0
M  V30 2309 C 213.833 -3.07505 -3.23043 0
M  V30 2310 C 214.534 -5.11868 -2.76344 0
M  V30 2311 N 213.51 -4.47101 -3.09195 0
M  V30 2312 H 217.312 -2.64381 -1.28375 0
M  V30 2313 H 214.826 -1.50203 -0.617479 0
M  V30 2314 H 216.823 -1.99419 -3.66111 0
M  V30 2315 H 215.483 -0.958814 -3.10221 0
M  V30 2316 H 216.494 -4.58887 -2.4009 0
M  V30 2317 H 213.171 -2.25915 -3.51096 0
M  V30 2318 H 214.561 -6.19634 -2.59814 0
M  V30 2319 N 217.281 0.66697 -1.42791 0
M  V30 2320 C 218.213 1.7925 -1.42836 0
M  V30 2321 C 219.226 1.59496 -0.326333 0
M  V30 2322 O 220.415 1.6847 -0.589916 0
M  V30 2323 C 217.515 3.16476 -1.21229 0
M  V30 2324 C 216.688 3.63011 -2.44013 0
M  V30 2325 C 215.747 4.78993 -2.17834 0
M  V30 2326 O 214.773 4.89137 -2.91091 0
M  V30 2327 N 215.975 5.68248 -1.18635 0
M  V30 2328 H 218.74 1.79695 -2.39854 0
M  V30 2329 H 216.301 0.850338 -1.37771 0
M  V30 2330 H 218.293 3.91734 -1.01621 0
M  V30 2331 H 216.863 3.10884 -0.32706 0
M  V30 2332 H 216.083 2.78346 -2.79137 0
M  V30 2333 H 217.371 3.90845 -3.25757 0
M  V30 2334 H 216.769 5.62712 -0.580615 0
M  V30 2335 H 215.326 6.43285 -1.05013 0
M  V30 2336 N 218.759 1.29093 0.90403 0
M  V30 2337 C 220.175 1.07011 1.1841 0
M  V30 2338 C 220.375 -0.181358 2.00682 0
M  V30 2339 O 219.431 -0.880331 2.36657 0
M  V30 2340 C 220.744 2.32311 1.90924 0
M  V30 2341 C 222.292 2.37587 2.03768 0
M  V30 2342 C 222.767 3.62679 2.79693 0
M  V30 2343 N 224.258 3.63376 2.87249 0
M  V30 2344 C 224.993 4.56848 3.46522 0
M  V30 2345 N 224.489 5.60648 4.06996 0
M  V30 2346 N 226.282 4.44426 3.44154 0
M  V30 2347 H 218.433 2.09412 0.354993 0
M  V30 2348 H 220.696 0.922181 0.219742 0
M  V30 2349 H 220.402 3.23536 1.37905 0
M  V30 2350 H 220.276 2.39483 2.91424 0
M  V30 2351 H 222.663 1.46853 2.55965 0
M  V30 2352 H 222.744 2.34403 1.02415 0
M  V30 2353 H 222.388 4.53762 2.28173 0
M  V30 2354 H 222.318 3.63119 3.81381 0
M  V30 2355 H 224.809 2.88321 2.44293 0
M  V30 2356 H 225.122 6.28101 4.50232 0
M  V30 2357 H 223.467 5.64463 4.05471 0
M  V30 2358 H 226.658 3.62529 2.96126 0
M  V30 2359 H 226.831 5.17457 3.90054 0
M  V30 2360 N 220.237 -1.11381 1.11499 0
M  V30 2361 C 221.187 -2.15555 0.74298 0
M  V30 2362 C 222.171 -1.58894 -0.253276 0
M  V30 2363 O 223.363 -1.76897 -0.0602918 0
M  V30 2364 C 220.492 -3.42782 0.188481 0
M  V30 2365 C 219.578 -4.064 1.21244 0
M  V30 2366 N 219.969 -4.44864 2.40685 0
M  V30 2367 C 218.267 -4.3333 1.05552 0
M  V30 2368 C 218.968 -4.94715 3.05994 0
M  V30 2369 N 217.944 -4.90909 2.33472 0
M  V30 2370 H 221.746 -2.43074 1.65203 0
M  V30 2371 H 219.26 -1.28401 0.994329 0
M  V30 2372 H 221.257 -4.16789 -0.0961693 0
M  V30 2373 H 219.917 -3.16727 -0.715149 0
M  V30 2374 H 220.928 -4.36876 2.78136 0
M  V30 2375 H 217.605 -4.1698 0.208372 0
M  V30 2376 H 218.995 -5.34103 4.07656 0
M  V30 2377 N 221.715 -0.905404 -1.28997 0
M  V30 2378 C 222.943 -0.549846 -1.9946 0
M  V30 2379 C 223.358 0.866834 -1.67724 0
M  V30 2380 O 222.715 1.57298 -0.925404 0
M  V30 2381 C 222.766 -0.739387 -3.53858 0
M  V30 2382 O 222.487 -2.10031 -3.84472 0
M  V30 2383 C 223.988 -0.389541 -4.41585 0
M  V30 2384 H 221.208 -0.210429 -0.637151 0
M  V30 2385 H 223.752 -1.21632 -1.64396 0
M  V30 2386 H 221.907 -0.120023 -3.87214 0
M  V30 2387 H 222.321 -2.13385 -4.79132 0
M  V30 2388 H 223.795 -0.572972 -5.49018 0
M  V30 2389 H 224.272 0.673756 -4.34001 0
M  V30 2390 H 224.878 -0.986089 -4.1371 0
M  V30 2391 N 223.193 1.4272 -0.668489 0
M  V30 2392 C 224.439 2.01923 -0.188419 0
M  V30 2393 C 224.772 1.52704 1.19979 0
M  V30 2394 O 224.047 0.726566 1.8042 0
M  V30 2395 C 224.33 3.59451 -0.216085 0
M  V30 2396 C 224.183 4.18864 -1.6393 0
M  V30 2397 C 225.502 4.37903 0.439179 0
M  V30 2398 H 222.621 0.733674 -0.0699412 0
M  V30 2399 H 225.263 1.69822 -0.852076 0
M  V30 2400 H 223.413 3.86929 0.349012 0
M  V30 2401 H 225.085 4.02362 -2.25616 0
M  V30 2402 H 223.328 3.74933 -2.18193 0
M  V30 2403 H 223.999 5.27987 -1.61039 0
M  V30 2404 H 226.475 4.16079 -0.0417878 0
M  V30 2405 H 225.351 5.47519 0.389157 0
M  V30 2406 H 225.612 4.15303 1.51577 0
M  V30 2407 N 224.671 0.411399 1.52136 0
M  V30 2408 C 225.896 -0.165538 2.06738 0
M  V30 2409 C 226.321 -1.379 1.27926 0
M  V30 2410 O 225.679 -1.78628 0.310114 0
M  V30 2411 C 225.727 -0.492124 3.57226 0
M  V30 2412 O 224.831 -1.58276 3.80818 0
M  V30 2413 H 224.172 -0.0132132 0.663869 0
M  V30 2414 H 226.702 0.585253 1.96051 0
M  V30 2415 H 226.712 -0.750104 4.01045 0
M  V30 2416 H 225.387 0.394922 4.14021 0
M  V30 2417 H 223.964 -1.31677 3.48877 0
M  V30 2418 N 226.149 -1.5696 0.141893 0
M  V30 2419 C 227.079 -2.19516 -0.795936 0
M  V30 2420 C 228.06 -1.14187 -1.26077 0
M  V30 2421 O 229.245 -1.42511 -1.31925 0
M  V30 2422 C 226.375 -2.81272 -2.03723 0
M  V30 2423 C 225.329 -3.92384 -1.70936 0
M  V30 2424 C 224.655 -4.41052 -3.02287 0
M  V30 2425 C 225.955 -5.13403 -0.959954 0
M  V30 2426 H 227.649 -2.98138 -0.274596 0
M  V30 2427 H 225.195 -1.43406 -0.130636 0
M  V30 2428 H 227.148 -3.237 -2.69808 0
M  V30 2429 H 225.872 -1.99973 -2.58221 0
M  V30 2430 H 224.531 -3.50566 -1.07232 0
M  V30 2431 H 224.179 -3.56582 -3.54765 0
M  V30 2432 H 223.879 -5.15993 -2.81114 0
M  V30 2433 H 225.403 -4.86146 -3.69451 0
M  V30 2434 H 226.817 -5.52706 -1.52279 0
M  V30 2435 H 225.214 -5.94073 -0.848357 0
M  V30 2436 H 226.284 -4.84875 0.0492434 0
M  V30 2437 N 227.627 0.131896 -1.57047 0
M  V30 2438 C 228.557 1.16384 -2.02428 0
M  V30 2439 C 229.538 1.43936 -0.90644 0
M  V30 2440 O 230.723 1.54599 -1.17528 0
M  V30 2441 C 227.853 2.49328 -2.4177 0
M  V30 2442 C 226.807 2.36266 -3.56879 0
M  V30 2443 C 226.133 3.74057 -3.8208 0
M  V30 2444 C 227.433 1.834 -4.89042 0
M  V30 2445 H 229.127 0.786433 -2.88887 0
M  V30 2446 H 226.673 0.376855 -1.38981 0
M  V30 2447 H 228.626 3.21759 -2.7212 0
M  V30 2448 H 227.35 2.88934 -1.52266 0
M  V30 2449 H 226.009 1.66286 -3.26718 0
M  V30 2450 H 225.657 4.11125 -2.89803 0
M  V30 2451 H 225.357 3.66174 -4.59554 0
M  V30 2452 H 226.881 4.48012 -4.1487 0
M  V30 2453 H 228.295 2.45636 -5.18011 0
M  V30 2454 H 226.692 1.8637 -5.70426 0
M  V30 2455 H 227.762 0.790662 -4.7841 0
M  V30 2456 N 229.106 1.52395 0.401703 0
M  V30 2457 C 230.331 1.70972 1.17403 0
M  V30 2458 C 230.756 0.421615 1.83314 0
M  V30 2459 O 230.114 -0.621564 1.70312 0
M  V30 2460 C 230.162 2.85151 2.20728 0
M  V30 2461 O 229.266 2.51238 3.27037 0
M  V30 2462 H 228.607 0.568927 0.342372 0
M  V30 2463 H 231.137 1.99131 0.469891 0
M  V30 2464 H 231.147 3.10279 2.64936 0
M  V30 2465 H 229.822 3.78603 1.7214 0
M  V30 2466 H 228.399 2.36808 2.88057 0
M  V30 2467 N 230.584 -0.659388 1.43143 0
M  V30 2468 C 231.534 -1.7655 1.44271 0
M  V30 2469 C 232.518 -1.57847 0.311961 0
M  V30 2470 O 233.71 -1.68064 0.555306 0
M  V30 2471 C 230.839 -3.15104 1.36251 0
M  V30 2472 C 229.925 -3.39377 2.54331 0
M  V30 2473 N 230.316 -3.34153 3.79704 0
M  V30 2474 C 228.614 -3.70072 2.48922 0
M  V30 2475 C 229.315 -3.58337 4.58225 0
M  V30 2476 N 228.291 -3.79851 3.88863 0
M  V30 2477 H 232.093 -1.70928 2.39083 0
M  V30 2478 H 229.607 -0.860823 1.37708 0
M  V30 2479 H 231.604 -3.94389 1.35141 0
M  V30 2480 H 230.264 -3.21913 0.424531 0
M  V30 2481 H 231.275 -3.13704 4.1208 0
M  V30 2482 H 227.952 -3.84034 1.63781 0
M  V30 2483 H 229.342 -3.60129 5.67236 0
M  V30 2484 N 232.062 -1.29571 -0.897171 0
M  V30 2485 C 233.01 -1.14802 -2.02295 0
M  V30 2486 C 234.004 -0.0629637 -1.69283 0
M  V30 2487 O 235.21 -0.222945 -1.78614 0
M  V30 2488 H 231.585 -0.354692 -0.663097 0
M  V30 2489 H 233.556 -2.10108 -2.11889 0
M  V30 2490 C 232.305 -0.843966 -3.37302 0
M  V30 2491 H 231.628 -1.67093 -3.63208 0
M  V30 2492 H 233.068 -0.780672 -4.16751 0
M  V30 2493 C 231.527 0.452843 -3.33843 0
M  V30 2494 O 232.057 1.47813 -3.73516 0
M  V30 2495 N 230.263 0.459601 -2.86943 0
M  V30 2496 H 229.81 -0.375213 -2.54853 0
M  V30 2497 H 229.768 1.32726 -2.85011 0
M  V30 2498 N 233.54 1.10788 -1.12088 0
M  V30 2499 C 234.817 1.79136 -0.785476 0
M  V30 2500 C 235.197 1.98246 0.725377 0
M  V30 2501 O 234.545 1.57258 1.65778 0
M  V30 2502 C 234.755 3.12375 -1.55636 0
M  V30 2503 C 236.103 3.8731 -1.74001 0
M  V30 2504 O 237.127 3.22085 -1.52117 0
M  V30 2505 O 235.986 5.04369 -2.10415 0
M  V30 2506 H 233.08 0.776226 -0.285311 0
M  V30 2507 H 235.626 1.1747 -1.2247 0
M  V30 2508 H 234.398 2.93863 -2.5838 0
M  V30 2509 H 234.021 3.81758 -1.11114 0
M  V30 2510 N 235.018 0.912232 1.28515 0
M  V30 2511 C 236.264 0.545405 1.95328 0
M  V30 2512 C 236.597 -0.908313 1.71649 0
M  V30 2513 O 235.872 -1.64575 1.03659 0
M  V30 2514 C 236.155 0.853483 3.4984 0
M  V30 2515 C 236.008 2.35982 3.82926 0
M  V30 2516 C 237.327 0.348589 4.38717 0
M  V30 2517 H 234.446 0.199626 0.709449 0
M  V30 2518 H 237.088 1.1412 1.5191 0
M  V30 2519 H 235.238 0.34643 3.86952 0
M  V30 2520 H 236.91 2.93738 3.55691 0
M  V30 2521 H 235.153 2.81543 3.30024 0
M  V30 2522 H 235.824 2.52593 4.90816 0
M  V30 2523 H 238.3 0.78294 4.08668 0
M  V30 2524 H 237.176 0.593242 5.45685 0
M  V30 2525 H 237.437 -0.751049 4.35674 0
M  V30 2526 N 236.496 -1.42363 0.676048 0
M  V30 2527 C 237.444 -2.32596 -0.0131507 0
M  V30 2528 C 238.438 -1.49891 -0.789238 0
M  V30 2529 O 239.644 -1.65955 -0.697061 0
M  V30 2530 H 236.019 -0.751647 -0.0230481 0
M  V30 2531 H 237.99 -2.88421 0.765243 0
M  V30 2532 C 236.739 -3.34479 -0.949702 0
M  V30 2533 H 236.062 -3.98158 -0.361938 0
M  V30 2534 H 237.502 -4.00199 -1.4006 0
M  V30 2535 C 235.961 -2.66838 -2.05667 0
M  V30 2536 O 236.491 -2.50124 -3.14326 0
M  V30 2537 N 234.697 -2.25843 -1.82875 0
M  V30 2538 H 234.244 -2.39637 -0.945085 0
M  V30 2539 H 234.202 -1.80918 -2.5713 0
M  V30 2540 N 237.974 -0.419461 -1.51915 0
M  V30 2541 C 238.937 0.389116 -2.25873 0
M  V30 2542 C 239.937 0.964924 -1.28631 0
M  V30 2543 O 241.127 0.842179 -1.52489 0
M  V30 2544 C 238.259 1.54874 -3.03689 0
M  V30 2545 H 239.452 -0.258799 -2.98781 0
M  V30 2546 H 237.005 -0.172209 -1.55348 0
M  V30 2547 H 237.74 2.23323 -2.35154 0
M  V30 2548 H 237.525 1.14223 -3.75094 0
M  V30 2549 H 239.015 2.12046 -3.59759 0
M  V30 2550 N 239.452 1.56882 -0.150215 0
M  V30 2551 C 240.868 1.58263 0.20617 0
M  V30 2552 C 241.068 1.16464 1.64434 0
M  V30 2553 O 240.124 0.866422 2.3717 0
M  V30 2554 C 241.437 3.00649 -0.0555025 0
M  V30 2555 C 242.985 3.12999 0.00795388 0
M  V30 2556 C 243.46 4.5744 -0.226429 0
M  V30 2557 N 244.951 4.62875 -0.173469 0
M  V30 2558 C 245.686 5.72454 -0.329288 0
M  V30 2559 N 245.182 6.90669 -0.543005 0
M  V30 2560 N 246.975 5.61467 -0.266666 0
M  V30 2561 H 239.126 1.82345 -1.08922 0
M  V30 2562 H 241.389 0.844149 -0.431413 0
M  V30 2563 H 241.095 3.3563 -1.05096 0
M  V30 2564 H 240.969 3.71337 0.66246 0
M  V30 2565 H 243.356 2.77857 0.993966 0
M  V30 2566 H 243.437 2.4479 -0.742388 0
M  V30 2567 H 243.081 4.93287 -1.20956 0
M  V30 2568 H 243.011 5.2378 0.544274 0
M  V30 2569 H 245.502 3.77898 -0.0130709 0
M  V30 2570 H 245.815 7.70045 -0.651922 0
M  V30 2571 H 244.16 6.92581 -0.579366 0
M  V30 2572 H 247.351 4.67992 -0.100441 0
M  V30 2573 H 247.524 6.46816 -0.391535 0
M  V30 2574 N 240.93 -0.123565 1.57115 0
M  V30 2575 C 242.346 -0.476961 1.52306 0
M  V30 2576 C 242.546 -1.82109 0.86248 0
M  V30 2577 O 241.602 -2.48586 0.442884 0
M  V30 2578 C 242.915 -0.465661 2.97073 0
M  V30 2579 C 244.463 -0.549534 3.08138 0
M  V30 2580 C 244.938 -0.568669 4.54456 0
M  V30 2581 N 246.429 -0.630237 4.58892 0
M  V30 2582 C 247.164 -0.666415 5.69514 0
M  V30 2583 N 246.66 -0.660514 6.89644 0
M  V30 2584 N 248.453 -0.709077 5.5761 0
M  V30 2585 H 240.604 0.757198 1.98445 0
M  V30 2586 H 242.867 0.278808 0.906074 0
M  V30 2587 H 242.573 0.454232 3.48754 0
M  V30 2588 H 242.447 -1.29513 3.54269 0
M  V30 2589 H 244.834 -1.45985 2.56461 0
M  V30 2590 H 244.915 0.307532 2.53945 0
M  V30 2591 H 244.559 0.337581 5.06777 0
M  V30 2592 H 244.489 -1.44256 5.06456 0
M  V30 2593 H 246.98 -0.641146 3.72421 0
M  V30 2594 H 247.293 -0.690616 7.69708 0
M  V30 2595 H 245.638 -0.628012 6.92157 0
M  V30 2596 H 248.829 -0.711019 4.62668 0
M  V30 2597 H 249.002 -0.733804 6.43832 0
M  V30 2598 N 242.408 -1.52605 -0.393616 0
M  V30 2599 C 243.371 -1.76415 -1.46323 0
M  V30 2600 C 244.371 -0.634126 -1.47768 0
M  V30 2601 O 245.561 -0.902142 -1.4902 0
M  V30 2602 C 242.693 -1.8607 -2.85641 0
M  V30 2603 H 243.886 -2.71916 -1.26498 0
M  V30 2604 H 241.439 -1.43257 -0.625073 0
M  V30 2605 H 242.174 -0.925378 -3.10817 0
M  V30 2606 H 241.959 -2.68235 -2.85993 0
M  V30 2607 H 243.449 -2.06179 -3.63153 0
M  V30 2608 N 243.887 0.651787 -1.4349 0
M  V30 2609 C 245.133 1.4121 -1.46395 0
M  V30 2610 C 245.488 1.92202 -0.087366 0
M  V30 2611 O 244.781 1.69452 0.894231 0
M  V30 2612 C 244.975 2.60914 -2.44251 0
M  V30 2613 C 244.804 2.21639 -3.91288 0
M  V30 2614 C 243.574 2.09897 -4.59643 0
M  V30 2615 C 245.772 1.81835 -4.81083 0
M  V30 2616 N 243.754 1.63967 -5.91598 0
M  V30 2617 C 245.125 1.46998 -6.02322 0
M  V30 2618 C 247.18 1.69031 -4.6833 0
M  V30 2619 C 245.883 1.00638 -7.12225 0
M  V30 2620 C 247.909 1.24077 -5.78238 0
M  V30 2621 C 247.271 0.901772 -6.98604 0
M  V30 2622 H 243.37 0.512322 -0.590805 0
M  V30 2623 H 245.954 0.74989 -1.7968 0
M  V30 2624 H 244.125 3.24792 -2.1299 0
M  V30 2625 H 245.857 3.27622 -2.37584 0
M  V30 2626 H 242.612 2.297 -4.14168 0
M  V30 2627 H 243.036 1.43359 -6.61647 0
M  V30 2628 H 247.678 1.93878 -3.75727 0
M  V30 2629 H 245.396 0.745399 -8.04655 0
M  V30 2630 H 248.982 1.14657 -5.7039 0
M  V30 2631 H 247.862 0.559226 -7.82203 0
M  V30 2632 N 245.365 1.30045 0.890287 0
M  V30 2633 C 246.295 1.18541 2.01172 0
M  V30 2634 C 247.276 0.0773356 1.69924 0
M  V30 2635 O 248.461 0.25845 1.92473 0
M  V30 2636 C 245.591 0.870941 3.36202 0
M  V30 2637 C 244.545 1.93637 3.81692 0
M  V30 2638 C 243.871 1.475 5.13953 0
M  V30 2639 C 245.171 3.34666 4.00994 0
M  V30 2640 H 246.865 2.12359 2.11054 0
M  V30 2641 H 244.411 1.02238 1.01407 0
M  V30 2642 H 246.364 0.777141 4.14172 0
M  V30 2643 H 245.088 -0.102926 3.26438 0
M  V30 2644 H 243.747 2.01972 3.05946 0
M  V30 2645 H 243.395 0.489551 5.00612 0
M  V30 2646 H 243.095 2.1876 5.4536 0
M  V30 2647 H 244.619 1.39489 5.94454 0
M  V30 2648 H 246.033 3.2912 4.69417 0
M  V30 2649 H 244.43 4.03966 4.43769 0
M  V30 2650 H 245.5 3.76949 3.05021 0
M  V30 2651 N 246.843 -1.10192 1.12674 0
M  V30 2652 C 247.753 -2.20172 0.810026 0
M  V30 2653 C 248.769 -1.72821 -0.202188 0
M  V30 2654 O 249.945 -2.01369 -0.0351691 0
M  V30 2655 C 247.01 -3.45631 0.272007 0
M  V30 2656 C 246.071 -4.07704 1.34447 0
M  V30 2657 C 245.304 -5.27175 0.832029 0
M  V30 2658 O 245.527 -5.69425 -0.333284 0
M  V30 2659 O 244.461 -5.80168 1.60277 0
M  V30 2660 H 248.287 -2.49701 1.72867 0
M  V30 2661 H 245.872 -1.18977 0.903597 0
M  V30 2662 H 247.754 -4.21394 -0.0230219 0
M  V30 2663 H 246.429 -3.17723 -0.619164 0
M  V30 2664 H 245.336 -3.33614 1.6927 0
M  V30 2665 H 246.669 -4.3982 2.2095 0
M  V30 2666 N 248.321 -0.919034 -1.28029 0
M  V30 2667 C 249.546 -0.570357 -1.99403 0
M  V30 2668 C 249.971 0.842486 -1.68178 0
M  V30 2669 O 249.329 1.56391 -0.917141 0
M  V30 2670 C 249.377 -0.792541 -3.51783 0
M  V30 2671 O 248.481 0.145988 -4.12142 0
M  V30 2672 H 247.822 -0.220555 -0.6263 0
M  V30 2673 H 250.352 -1.23592 -1.63053 0
M  V30 2674 H 250.362 -0.704708 -4.01868 0
M  V30 2675 H 249.037 -1.82247 -3.73844 0
M  V30 2676 H 247.614 0.00897528 -3.72899 0
M  V30 2677 N 249.799 1.42003 -0.683588 0
M  V30 2678 C 250.731 2.29183 0.0283068 0
M  V30 2679 C 251.744 1.4415 0.756611 0
M  V30 2680 O 252.933 1.67779 0.609306 0
M  V30 2681 C 250.033 3.21765 1.06398 0
M  V30 2682 C 249.206 4.35496 0.407723 0
M  V30 2683 C 248.265 5.08737 1.34437 0
M  V30 2684 O 247.291 5.62948 0.841318 0
M  V30 2685 N 248.493 5.15075 2.67728 0
M  V30 2686 H 251.258 2.9092 -0.720105 0
M  V30 2687 H 248.819 1.53025 -0.528682 0
M  V30 2688 H 250.811 3.6763 1.69204 0
M  V30 2689 H 249.381 2.61418 1.71404 0
M  V30 2690 H 248.601 3.92165 -0.400012 0
M  V30 2691 H 249.889 5.08776 -0.0490956 0
M  V30 2692 H 249.287 4.72457 3.11129 0
M  V30 2693 H 247.844 5.64556 3.2576 0
M  V30 2694 N 251.277 0.427512 1.51691 0
M  V30 2695 C 252.209 -0.424521 2.25234 0
M  V30 2696 C 253.222 -0.994671 1.2888 0
M  V30 2697 O 254.411 -0.890483 1.54702 0
M  V30 2698 C 251.511 -1.60479 2.98496 0
M  V30 2699 C 250.684 -1.15527 4.21868 0
M  V30 2700 C 249.743 -2.20454 4.77793 0
M  V30 2701 O 248.769 -1.8029 5.39893 0
M  V30 2702 N 249.971 -3.52831 4.60967 0
M  V30 2703 H 252.736 0.205749 2.98993 0
M  V30 2704 H 250.297 0.255867 1.59865 0
M  V30 2705 H 252.289 -2.30276 3.32799 0
M  V30 2706 H 250.859 -2.14061 2.27809 0
M  V30 2707 H 250.079 -0.284736 3.9317 0
M  V30 2708 H 251.367 -0.832173 5.01949 0
M  V30 2709 H 250.765 -3.88201 4.11481 0
M  V30 2710 H 249.322 -4.18551 4.99658 0
M  V30 2711 N 252.755 -1.56801 0.158532 0
M  V30 2712 C 254.002 -1.9649 -0.489679 0
M  V30 2713 C 254.33 -1.04394 -1.6411 0
M  V30 2714 O 253.585 -0.0754401 -1.95555 0
M  V30 2715 C 253.884 -3.4235 -1.02623 0
M  V30 2716 C 253.55 -4.50899 0.00794526 0
M  V30 2717 C 252.212 -4.80312 0.292207 0
M  V30 2718 C 254.564 -5.16333 0.710584 0
M  V30 2719 C 251.892 -5.72461 1.28472 0
M  V30 2720 C 254.244 -6.09553 1.69199 0
M  V30 2721 C 252.908 -6.37339 1.98383 0
M  V30 2722 H 252.178 -0.719009 -0.179186 0
M  V30 2723 H 254.825 -1.8989 0.247798 0
M  V30 2724 H 253.13 -3.45838 -1.84128 0
M  V30 2725 H 254.827 -3.70393 -1.53656 0
M  V30 2726 H 251.417 -4.28015 -0.22379 0
M  V30 2727 H 255.601 -4.93732 0.504174 0
M  V30 2728 H 250.857 -5.92278 1.51714 0
M  V30 2729 H 255.031 -6.59327 2.24189 0
M  V30 2730 H 252.658 -7.08546 2.7544 0
M  V30 2731 N 254.233 0.115231 -1.57178 0
M  V30 2732 C 255.458 0.840354 -1.89612 0
M  V30 2733 C 255.883 1.72464 -0.750845 0
M  V30 2734 O 255.241 1.78826 0.298478 0
M  V30 2735 C 255.289 1.64654 -3.20814 0
M  V30 2736 O 254.393 2.7538 -3.06985 0
M  V30 2737 H 253.734 0.232158 -0.622092 0
M  V30 2738 H 256.264 0.0964977 -2.04372 0
M  V30 2739 H 256.274 2.03499 -3.53627 0
M  V30 2740 H 254.949 0.997416 -4.03763 0
M  V30 2741 H 253.526 2.3971 -2.85646 0
M  V30 2742 N 255.711 1.52812 0.385517 0
M  V30 2743 C 257.122 1.5993 0.963293 0
M  V30 2744 C 257.473 0.454302 1.90868 0
M  V30 2745 O 256.598 -0.422132 2.12243 0
M  V30 2746 C 257.193 2.89871 1.75387 0
M  V30 2747 C 255.752 2.99389 2.28129 0
M  V30 2748 C 254.899 2.55071 1.08783 0
M  V30 2749 H 257.85 1.5784 0.164948 0
M  V30 2750 H 257.871 2.76553 2.61341 0
M  V30 2751 H 257.383 3.73186 1.06554 0
M  V30 2752 H 255.484 2.20619 3.00263 0
M  V30 2753 H 255.597 4.04096 2.57377 0
M  V30 2754 H 253.961 2.09473 1.4489 0
M  V30 2755 H 254.744 3.40785 0.414807 0
M  V30 2756 N 257.189 -0.644168 1.43834 0
M  V30 2757 C 258.121 -1.76955 1.45669 0
M  V30 2758 C 259.134 -1.58956 0.351666 0
M  V30 2759 O 260.323 -1.6751 0.616644 0
M  V30 2760 C 257.423 -3.14507 1.26248 0
M  V30 2761 C 256.596 -3.59083 2.49757 0
M  V30 2762 C 255.655 -4.75467 2.25427 0
M  V30 2763 O 254.681 -4.84444 2.98836 0
M  V30 2764 N 255.883 -5.66289 1.27661 0
M  V30 2765 H 258.648 -1.75856 2.42682 0
M  V30 2766 H 256.209 -0.828312 1.39106 0
M  V30 2767 H 258.201 -3.90067 1.0784 0
M  V30 2768 H 256.771 -3.10325 0.376478 0
M  V30 2769 H 255.991 -2.7387 2.8353 0
M  V30 2770 H 257.279 -3.85613 3.31934 0
M  V30 2771 H 256.677 -5.61718 0.670064 0
M  V30 2772 H 255.234 -6.41533 1.15234 0
M  V30 2773 N 258.668 -1.30515 -0.883378 0
M  V30 2774 C 259.578 -1.18959 -2.02203 0
M  V30 2775 C 260.594 -0.109172 -1.73657 0
M  V30 2776 O 261.77 -0.324413 -1.9877 0
M  V30 2777 C 258.835 -0.883871 -3.35244 0
M  V30 2778 C 257.896 -2.04982 -3.77201 0
M  V30 2779 C 257.129 -1.75859 -5.03894 0
M  V30 2780 O 257.352 -0.687276 -5.66244 0
M  V30 2781 O 256.286 -2.61146 -5.42297 0
M  V30 2782 H 260.112 -2.14616 -2.1488 0
M  V30 2783 H 257.697 -1.10124 -1.0096 0
M  V30 2784 H 259.579 -0.728644 -4.15053 0
M  V30 2785 H 258.254 0.0427798 -3.23672 0
M  V30 2786 H 257.161 -2.26038 -2.9809 0
M  V30 2787 H 258.494 -2.95825 -3.93381 0
M  V30 2788 N 260.146 1.09593 -1.13257 0
M  V30 2789 C 261.423 1.78293 -0.804432 0
M  V30 2790 C 261.803 1.99004 0.70431 0
M  V30 2791 O 261.151 1.59007 1.641 0
M  V30 2792 C 261.361 3.10707 -1.5894 0
M  V30 2793 C 262.709 3.85443 -1.78099 0
M  V30 2794 O 263.733 3.20454 -1.55525 0
M  V30 2795 O 262.592 5.02108 -2.15753 0
M  V30 2796 H 259.686 0.773156 -0.293528 0
M  V30 2797 H 262.232 1.16164 -1.23709 0
M  V30 2798 H 261.004 2.91106 -2.61482 0
M  V30 2799 H 260.627 3.80558 -1.15157 0
M  V30 2800 N 261.624 0.925811 1.2754 0
M  V30 2801 C 262.871 0.565255 1.94451 0
M  V30 2802 C 263.199 -0.89316 1.7278 0
M  V30 2803 O 262.454 -1.65213 1.04895 0
M  V30 2804 C 262.753 0.835296 3.47502 0
M  V30 2805 C 262.419 2.27515 3.89291 0
M  V30 2806 C 261.081 2.66879 4.00411 0
M  V30 2807 C 263.433 3.21158 4.10496 0
M  V30 2808 C 260.761 3.99014 4.30122 0
M  V30 2809 C 263.113 4.52871 4.4169 0
M  V30 2810 C 261.777 4.92072 4.51023 0
M  V30 2811 H 261.047 0.206841 0.711546 0
M  V30 2812 H 263.694 1.16942 1.51647 0
M  V30 2813 H 261.999 0.148442 3.91519 0
M  V30 2814 H 263.696 0.535322 3.97411 0
M  V30 2815 H 260.286 1.95976 3.81171 0
M  V30 2816 H 264.47 2.9195 4.01346 0
M  V30 2817 H 259.726 4.2907 4.35556 0
M  V30 2818 H 263.9 5.25436 4.57045 0
M  V30 2819 H 261.527 5.9449 4.738 0
M  V30 2820 N 263.102 -1.41638 0.69111 0
M  V30 2821 C 264.33 -2.05628 0.22909 0
M  V30 2822 C 264.745 -1.51992 -1.11999 0
M  V30 2823 O 264.102 -0.666322 -1.69901 0
M  V30 2824 C 264.153 -3.61084 0.173283 0
M  V30 2825 O 263.874 -4.12735 1.46907 0
M  V30 2826 C 265.375 -4.42213 -0.310266 0
M  V30 2827 H 262.595 -0.662327 0.107534 0
M  V30 2828 H 265.139 -1.81489 0.942438 0
M  V30 2829 H 263.294 -3.84278 -0.490858 0
M  V30 2830 H 263.708 -5.06743 1.35322 0
M  V30 2831 H 265.182 -5.51194 -0.298196 0
M  V30 2832 H 265.659 -4.1799 -1.34838 0
M  V30 2833 H 266.265 -4.24074 0.322716 0
M  V30 2834 N 264.58 -0.43555 -1.51462 0
M  V30 2835 C 265.51 0.367376 -2.30592 0
M  V30 2836 C 266.491 1.02263 -1.35928 0
M  V30 2837 O 267.676 1.02661 -1.64847 0
M  V30 2838 C 264.806 1.46983 -3.14664 0
M  V30 2839 C 263.76 0.938161 -4.17591 0
M  V30 2840 C 263.086 2.13622 -4.90173 0
M  V30 2841 C 264.386 -0.0261621 -5.22293 0
M  V30 2842 H 266.08 -0.292969 -2.97963 0
M  V30 2843 H 263.626 -0.14234 -1.43295 0
M  V30 2844 H 265.579 2.03873 -3.688 0
M  V30 2845 H 264.303 2.15843 -2.4511 0
M  V30 2846 H 262.962 0.391481 -3.64504 0
M  V30 2847 H 262.61 2.81098 -4.17124 0
M  V30 2848 H 262.31 1.78688 -5.59772 0
M  V30 2849 H 263.834 2.7107 -5.47132 0
M  V30 2850 H 265.248 0.452384 -5.71512 0
M  V30 2851 H 263.645 -0.287992 -5.99409 0
M  V30 2852 H 264.715 -0.963391 -4.75233 0
M  V30 2853 N 266.058 1.56714 -0.166846 0
M  V30 2854 C 267.286 2.0112 0.485644 0
M  V30 2855 C 267.701 1.04705 1.57106 0
M  V30 2856 O 267.058 0.0471923 1.82439 0
M  V30 2857 C 267.109 3.45361 1.06808 0
M  V30 2858 O 266.83 4.38092 0.0259995 0
M  V30 2859 C 268.331 4.05145 1.79924 0
M  V30 2860 H 265.551 0.65931 0.124704 0
M  V30 2861 H 268.095 2.02746 -0.267262 0
M  V30 2862 H 266.25 3.44524 1.7715 0
M  V30 2863 H 266.664 5.22519 0.455398 0
M  V30 2864 H 268.138 5.08009 2.15942 0
M  V30 2865 H 268.615 3.46982 2.69258 0
M  V30 2866 H 269.221 4.09672 1.14234 0
M  V30 2867 N 267.536 -0.106894 1.57237 0
M  V30 2868 C 268.761 -0.830287 1.90055 0
M  V30 2869 C 269.186 -1.72064 0.75998 0
M  V30 2870 O 268.544 -1.78982 -0.288991 0
M  V30 2871 C 268.592 -1.6295 3.21683 0
M  V30 2872 O 267.696 -2.73748 3.08441 0
M  V30 2873 H 267.037 -0.228855 0.623315 0
M  V30 2874 H 269.567 -0.085658 2.04421 0
M  V30 2875 H 269.577 -2.01621 3.54701 0
M  V30 2876 H 268.252 -0.975989 4.04286 0
M  V30 2877 H 266.829 -2.38192 2.86913 0
M  V30 2878 N 269.014 -1.53014 -0.377408 0
M  V30 2879 C 270.291 -1.59215 -1.13622 0
M  V30 2880 C 270.671 -0.392407 -2.07421 0
M  V30 2881 O 270.019 0.618342 -2.19975 0
M  V30 2882 C 270.229 -2.93669 -1.88573 0
M  V30 2883 C 271.577 -3.47822 -2.43526 0
M  V30 2884 O 272.601 -2.9562 -1.98715 0
M  V30 2885 O 271.46 -4.39055 -3.25412 0
M  V30 2886 H 268.554 -0.642625 -0.52054 0
M  V30 2887 H 271.1 -1.65353 -0.381625 0
M  V30 2888 H 269.872 -3.7243 -1.20048 0
M  V30 2889 H 269.495 -2.90968 -2.70968 0
M  V30 2890 N 270.492 0.636531 -1.44174 0
M  V30 2891 C 271.738 1.39649 -1.47884 0
M  V30 2892 C 272.093 1.92098 -0.107747 0
M  V30 2893 O 271.386 1.70391 0.876208 0
M  V30 2894 C 271.58 2.58309 -2.47005 0
M  V30 2895 C 271.409 2.17476 -3.93617 0
M  V30 2896 C 270.179 2.0501 -4.61843 0
M  V30 2897 C 272.377 1.76722 -4.82984 0
M  V30 2898 N 270.359 1.57683 -5.93304 0
M  V30 2899 C 271.73 1.40601 -6.03847 0
M  V30 2900 C 273.785 1.64054 -4.70096 0
M  V30 2901 C 272.488 0.930787 -7.13252 0
M  V30 2902 C 274.514 1.17937 -5.79521 0
M  V30 2903 C 273.876 0.827625 -6.99521 0
M  V30 2904 H 269.975 0.506027 -0.596205 0
M  V30 2905 H 272.559 0.730791 -1.80465 0
M  V30 2906 H 270.73 3.22514 -2.16423 0
M  V30 2907 H 272.462 3.25083 -2.41045 0
M  V30 2908 H 269.217 2.25294 -4.16581 0
M  V30 2909 H 269.641 1.36334 -6.63131 0
M  V30 2910 H 274.283 1.89882 -3.77762 0
M  V30 2911 H 272.001 0.660012 -8.054 0
M  V30 2912 H 275.587 1.08601 -5.71574 0
M  V30 2913 H 274.467 0.476231 -7.82753 0
M  V30 2914 N 271.97 1.30982 0.876444 0
M  V30 2915 C 272.902 1.13902 1.98894 0
M  V30 2916 C 273.915 0.0798815 1.62604 0
M  V30 2917 O 275.104 0.326743 1.75484 0
M  V30 2918 C 272.204 0.716699 3.31235 0
M  V30 2919 C 271.377 1.85945 3.95908 0
M  V30 2920 C 270.436 1.42426 5.06558 0
M  V30 2921 O 269.462 2.13287 5.27729 0
M  V30 2922 N 270.664 0.308025 5.79682 0
M  V30 2923 H 273.429 2.09724 2.14094 0
M  V30 2924 H 270.99 1.2323 1.05004 0
M  V30 2925 H 272.982 0.408403 4.02634 0
M  V30 2926 H 271.552 -0.149719 3.12241 0
M  V30 2927 H 270.772 2.33541 3.17573 0
M  V30 2928 H 272.06 2.62503 4.35855 0
M  V30 2929 H 271.458 -0.282241 5.64995 0
M  V30 2930 H 270.015 0.0592282 6.51773 0
M  V30 2931 N 273.449 -1.08991 1.13837 0
M  V30 2932 C 274.674 -1.85551 0.926585 0
M  V30 2933 C 275.099 -1.80782 -0.519566 0
M  V30 2934 O 274.457 -1.18855 -1.36906 0
M  V30 2935 C 274.505 -3.31266 1.42462 0
M  V30 2936 O 273.609 -4.07822 0.612789 0
M  V30 2937 H 272.95 -0.575192 0.331738 0
M  V30 2938 H 275.48 -1.37604 1.51414 0
M  V30 2939 H 275.49 -3.82112 1.43019 0
M  V30 2940 H 274.165 -3.34052 2.47754 0
M  V30 2941 H 272.742 -3.66731 0.675463 0
M  V30 2942 N 274.927 -0.932562 -1.27047 0
M  V30 2943 C 275.875 -0.42603 -2.28665 0
M  V30 2944 C 276.869 0.49219 -1.62092 0
M  V30 2945 O 278.075 0.371355 -1.76128 0
M  V30 2946 H 274.45 -0.119213 -0.742491 0
M  V30 2947 H 276.421 -1.29579 -2.68797 0
M  V30 2948 C 275.17 0.301426 -3.46391 0
M  V30 2949 H 274.493 -0.39595 -3.97834 0
M  V30 2950 H 275.933 0.6202 -4.1944 0
M  V30 2951 C 274.392 1.51616 -3.00856 0
M  V30 2952 O 274.922 2.61476 -3.04948 0
M  V30 2953 N 273.128 1.36969 -2.56296 0
M  V30 2954 H 272.675 0.475873 -2.53166 0
M  V30 2955 H 272.633 2.18368 -2.26192 0
M  V30 2956 N 276.405 1.4127 -0.698611 0
M  V30 2957 C 277.338 2.28195 0.0153898 0
M  V30 2958 C 278.316 1.42402 0.784883 0
M  V30 2959 O 279.5 1.71828 0.775067 0
M  V30 2960 C 276.627 3.22685 1.02918 0
M  V30 2961 C 275.673 4.25041 0.352501 0
M  V30 2962 S 276.506 5.27757 -0.907322 0
M  V30 2963 C 277.662 6.25812 0.104796 0
M  V30 2964 H 277.895 2.88403 -0.721858 0
M  V30 2965 H 275.428 1.46452 -0.488996 0
M  V30 2966 H 277.386 3.77655 1.60893 0
M  V30 2967 H 276.047 2.61566 1.73902 0
M  V30 2968 H 275.24 4.91437 1.11828 0
M  V30 2969 H 274.842 3.73682 -0.154254 0
M  V30 2970 H 277.134 6.70705 0.957103 0
M  V30 2971 H 278.077 7.06149 -0.525323 0
M  V30 2972 H 278.485 5.62615 0.460931 0
M  V30 2973 N 277.883 0.443576 1.51229 0
M  V30 2974 C 279.111 -0.11929 2.06556 0
M  V30 2975 C 279.526 -1.35921 1.31038 0
M  V30 2976 O 278.883 -1.78675 0.371704 0
M  V30 2977 C 278.934 -0.435228 3.5887 0
M  V30 2978 O 278.655 0.755486 4.31537 0
M  V30 2979 C 280.156 -1.04808 4.30732 0
M  V30 2980 H 277.376 -0.0051584 0.67098 0
M  V30 2981 H 279.92 0.624453 1.94733 0
M  V30 2982 H 278.075 -1.12887 3.70588 0
M  V30 2983 H 278.489 0.483491 5.22267 0
M  V30 2984 H 279.963 -1.2191 5.3837 0
M  V30 2985 H 280.44 -2.03081 3.89429 0
M  V30 2986 H 281.046 -0.393637 4.23474 0
M  V30 2987 N 279.361 -1.56624 0.175154 0
M  V30 2988 C 280.777 -1.58571 -0.180966 0
M  V30 2989 C 280.977 -1.19065 -1.6256 0
M  V30 2990 O 280.033 -0.904044 -2.35761 0
M  V30 2991 C 281.346 -3.00522 0.103326 0
M  V30 2992 C 282.894 -3.12972 0.0418426 0
M  V30 2993 C 283.369 -4.57022 0.299175 0
M  V30 2994 N 284.86 -4.62541 0.247086 0
M  V30 2995 C 285.595 -5.71857 0.420318 0
M  V30 2996 N 285.091 -6.89717 0.652816 0
M  V30 2997 N 286.884 -5.60972 0.355957 0
M  V30 2998 H 279.035 -1.80589 1.11809 0
M  V30 2999 H 281.298 -0.837178 0.444788 0
M  V30 3000 H 281.004 -3.33916 1.10422 0
M  V30 3001 H 280.878 -3.72344 -0.603299 0
M  V30 3002 H 283.265 -2.79403 -0.949636 0
M  V30 3003 H 283.346 -2.43578 0.781238 0
M  V30 3004 H 282.99 -4.913 1.28788 0
M  V30 3005 H 282.92 -5.24579 -0.460876 0
M  V30 3006 H 285.411 -3.77829 0.0731895 0
M  V30 3007 H 285.724 -7.68911 0.774347 0
M  V30 3008 H 284.069 -6.91572 0.689476 0
M  V30 3009 H 287.26 -4.67773 0.174882 0
M  V30 3010 H 287.433 -6.46111 0.494388 0
M  V30 3011 N 280.839 0.0985539 -1.57292 0
M  V30 3012 C 281.749 1.13824 -2.05137 0
M  V30 3013 C 282.765 1.44076 -0.975604 0
M  V30 3014 O 283.941 1.54786 -1.28853 0
M  V30 3015 C 281.006 2.43969 -2.46333 0
M  V30 3016 C 280.067 2.2093 -3.68087 0
M  V30 3017 C 279.3 3.44869 -4.0731 0
M  V30 3018 O 279.523 4.52972 -3.46659 0
M  V30 3019 O 278.457 3.34661 -5.00285 0
M  V30 3020 H 282.283 0.761881 -2.93988 0
M  V30 3021 H 279.868 0.310818 -1.46131 0
M  V30 3022 H 281.75 3.20609 -2.73473 0
M  V30 3023 H 280.425 2.81038 -1.60621 0
M  V30 3024 H 279.332 1.42081 -3.46069 0
M  V30 3025 H 280.665 1.88755 -4.54568 0
M  V30 3026 N 282.317 1.53212 0.369288 0
M  V30 3027 C 283.249 1.75668 1.47219 0
M  V30 3028 C 284.262 0.637387 1.49804 0
M  V30 3029 O 285.451 0.913561 1.5335 0
M  V30 3030 C 282.551 1.81818 2.85999 0
M  V30 3031 C 281.724 3.11409 3.07153 0
M  V30 3032 C 280.783 3.08849 4.26026 0
M  V30 3033 O 279.809 3.82659 4.2138 0
M  V30 3034 N 281.011 2.29409 5.33246 0
M  V30 3035 H 283.776 2.70832 1.28337 0
M  V30 3036 H 281.337 1.51944 0.55898 0
M  V30 3037 H 283.329 1.77588 3.63655 0
M  V30 3038 H 281.899 0.939544 2.98146 0
M  V30 3039 H 281.119 3.28971 2.1719 0
M  V30 3040 H 282.407 3.97059 3.18154 0
M  V30 3041 H 281.805 1.68946 5.39883 0
M  V30 3042 H 280.362 2.31001 6.09493 0
M  V30 3043 N 283.795 -0.628877 1.44509 0
M  V30 3044 C 285.025 -1.41349 1.50678 0
M  V30 3045 C 285.433 -1.88745 0.131075 0
M  V30 3046 O 284.776 -1.61592 -0.87371 0
M  V30 3047 C 284.838 -2.66608 2.41165 0
M  V30 3048 C 284.502 -2.40993 3.88293 0
M  V30 3049 C 285.499 -2.0268 4.78766 0
M  V30 3050 C 283.184 -2.54563 4.33016 0
M  V30 3051 C 285.178 -1.78269 6.11963 0
M  V30 3052 C 282.865 -2.29766 5.6626 0
M  V30 3053 C 283.863 -1.91678 6.55552 0
M  V30 3054 O 283.551 -1.67158 7.86329 0
M  V30 3055 H 283.283 -0.439851 0.51333 0
M  V30 3056 H 285.837 -0.776084 1.90174 0
M  V30 3057 H 284.067 -3.32994 1.96601 0
M  V30 3058 H 285.756 -3.28615 2.38259 0
M  V30 3059 H 286.522 -1.91751 4.45485 0
M  V30 3060 H 282.401 -2.83179 3.63773 0
M  V30 3061 H 285.945 -1.48465 6.81619 0
M  V30 3062 H 281.842 -2.40306 5.99102 0
M  V30 3063 H 282.61 -1.81386 7.98149 0
M  V30 3064 N 285.273 -1.31445 -0.869486 0
M  V30 3065 C 286.521 -1.20918 -1.61936 0
M  V30 3066 C 286.842 0.232683 -1.93607 0
M  V30 3067 O 286.112 1.15352 -1.58338 0
M  V30 3068 H 284.692 -0.44454 -0.600328 0
M  V30 3069 H 287.354 -1.64776 -1.0409 0
M  V30 3070 H 286.45 -1.78124 -2.56278 0
M  V30 3071 N 286.751 1.08385 -1.14413 0
M  V30 3072 C 287.661 2.18856 -0.844951 0
M  V30 3073 C 288.677 1.73121 0.174668 0
M  V30 3074 O 289.853 2.014 0.00312857 0
M  V30 3075 C 286.918 3.45155 -0.32696 0
M  V30 3076 C 285.979 4.05513 -1.40916 0
M  V30 3077 C 285.212 5.25784 -0.915793 0
M  V30 3078 O 285.435 5.69884 0.242651 0
M  V30 3079 O 284.369 5.77545 -1.69487 0
M  V30 3080 H 288.195 2.46919 -1.76818 0
M  V30 3081 H 285.78 1.17524 -0.922411 0
M  V30 3082 H 287.662 4.21377 -0.0440211 0
M  V30 3083 H 286.337 3.18668 0.568539 0
M  V30 3084 H 285.244 3.30879 -1.74556 0
M  V30 3085 H 286.577 4.3625 -2.27919 0
M  V30 3086 N 288.23 0.939286 1.26551 0
M  V30 3087 C 289.177 0.446088 2.26448 0
M  V30 3088 C 290.147 -0.493234 1.58608 0
M  V30 3089 O 291.332 -0.409857 1.86346 0
M  V30 3090 C 288.472 -0.284375 3.43926 0
M  V30 3091 C 287.585 0.690399 4.26448 0
M  V30 3092 C 286.72 -0.0610712 5.31165 0
M  V30 3093 C 285.759 0.905649 6.05363 0
M  V30 3094 N 284.896 0.186055 7.01853 0
M  V30 3095 H 289.736 1.30291 2.68008 0
M  V30 3096 H 287.273 0.65371 1.31776 0
M  V30 3097 H 289.231 -0.724313 4.10864 0
M  V30 3098 H 287.861 -1.10535 3.03285 0
M  V30 3099 H 286.913 1.24885 3.59316 0
M  V30 3100 H 288.225 1.42873 4.779 0
M  V30 3101 H 287.379 -0.56038 6.04106 0
M  V30 3102 H 286.118 -0.832297 4.80546 0
M  V30 3103 H 285.123 1.4161 5.3125 0
M  V30 3104 H 286.348 1.67685 6.58072 0
M  V30 3105 H 284.294 -0.566714 6.53548 0
M  V30 3106 H 284.211 0.863752 7.51049 0
M  V30 3107 H 285.479 -0.292221 7.78952 0
M  V30 3108 N 289.708 -1.40897 0.706093 0
M  V30 3109 C 290.955 -2.01054 0.241531 0
M  V30 3110 C 291.283 -1.55956 -1.16223 0
M  V30 3111 O 290.538 -0.766336 -1.80072 0
M  V30 3112 C 290.837 -3.5646 0.259099 0
M  V30 3113 C 290.503 -4.21106 1.61184 0
M  V30 3114 C 289.165 -4.38479 1.98216 0
M  V30 3115 C 291.517 -4.57256 2.50132 0
M  V30 3116 C 288.845 -4.89282 3.2376 0
M  V30 3117 C 291.197 -5.09454 3.7502 0
M  V30 3118 C 289.861 -5.25037 4.12181 0
M  V30 3119 H 289.131 -0.73571 0.0883825 0
M  V30 3120 H 291.778 -1.68645 0.907257 0
M  V30 3121 H 290.083 -3.88721 -0.490189 0
M  V30 3122 H 291.78 -4.00826 -0.11804 0
M  V30 3123 H 288.37 -4.07966 1.31384 0
M  V30 3124 H 292.554 -4.43479 2.228 0
M  V30 3125 H 287.81 -4.99531 3.52532 0
M  V30 3126 H 291.984 -5.36404 4.44121 0
M  V30 3127 H 289.611 -5.64164 5.09532 0
M  V30 3128 N 291.186 -0.45159 -1.50991 0
M  V30 3129 C 292.602 -0.104647 -1.59257 0
M  V30 3130 C 292.802 1.38728 -1.4614 0
M  V30 3131 O 291.858 2.15866 -1.30989 0
M  V30 3132 C 293.171 -0.637468 -2.93865 0
M  V30 3133 C 294.719 -0.599166 -3.07212 0
M  V30 3134 C 295.194 -1.1092 -4.44366 0
M  V30 3135 N 296.685 -1.06778 -4.50725 0
M  V30 3136 C 297.42 -1.43314 -5.55201 0
M  V30 3137 N 296.916 -1.87204 -6.67028 0
M  V30 3138 N 298.709 -1.3504 -5.45638 0
M  V30 3139 H 290.86 -1.42214 -1.57762 0
M  V30 3140 H 293.123 -0.586921 -0.744465 0
M  V30 3141 H 292.829 -1.68187 -3.08879 0
M  V30 3142 H 292.703 -0.0702139 -3.77135 0
M  V30 3143 H 295.09 0.436277 -2.91857 0
M  V30 3144 H 295.171 -1.20299 -2.25747 0
M  V30 3145 H 294.815 -2.14318 -4.60467 0
M  V30 3146 H 294.745 -0.481773 -5.24392 0
M  V30 3147 H 297.236 -0.745643 -3.70471 0
M  V30 3148 H 297.549 -2.13282 -7.42786 0
M  V30 3149 H 295.894 -1.91142 -6.68199 0
M  V30 3150 H 299.085 -1.00607 -4.57161 0
M  V30 3151 H 299.258 -1.63841 -6.26945 0
M  V30 3152 N 292.664 1.56529 -0.183458 0
M  V30 3153 C 293.596 2.15747 0.773697 0
M  V30 3154 C 294.609 1.1162 1.1851 0
M  V30 3155 O 295.798 1.3876 1.12285 0
M  V30 3156 C 292.898 2.6952 2.05456 0
M  V30 3157 C 292.071 3.98429 1.8048 0
M  V30 3158 C 291.13 4.37145 2.92901 0
M  V30 3159 O 290.156 5.04791 2.6301 0
M  V30 3160 N 291.358 3.99695 4.2098 0
M  V30 3161 H 294.123 2.98505 0.26736 0
M  V30 3162 H 291.684 1.619 -0.0010878 0
M  V30 3163 H 293.676 2.92412 2.79781 0
M  V30 3164 H 292.246 1.91282 2.47245 0
M  V30 3165 H 291.466 3.8379 0.899947 0
M  V30 3166 H 292.754 4.82597 1.61175 0
M  V30 3167 H 292.152 3.4526 4.48121 0
M  V30 3168 H 290.709 4.27562 4.9197 0
M  V30 3169 N 294.142 -0.090211 1.57342 0
M  V30 3170 C 295.388 -0.793982 1.86611 0
M  V30 3171 C 295.721 -1.78142 0.773252 0
M  V30 3172 O 294.996 -1.93271 -0.218304 0
M  V30 3173 C 295.279 -1.51839 3.26523 0
M  V30 3174 C 295.132 -0.548609 4.46442 0
M  V30 3175 C 296.451 -2.46779 3.64401 0
M  V30 3176 H 293.57 -0.287186 0.678744 0
M  V30 3177 H 296.212 -0.0575076 1.89913 0
M  V30 3178 H 294.362 -2.14617 3.23839 0
M  V30 3179 H 296.034 0.0725513 4.61243 0
M  V30 3180 H 294.277 0.137614 4.33582 0
M  V30 3181 H 294.948 -1.09271 5.41076 0
M  V30 3182 H 297.424 -1.94089 3.68061 0
M  V30 3183 H 296.3 -2.94479 4.63221 0
M  V30 3184 H 296.561 -3.30758 2.93346 0
M  V30 3185 N 295.62 -1.53406 -0.361157 0
M  V30 3186 C 296.552 -1.76446 -1.46286 0
M  V30 3187 C 297.565 -0.645322 -1.49464 0
M  V30 3188 O 298.754 -0.921681 -1.52864 0
M  V30 3189 C 295.854 -1.83332 -2.85031 0
M  V30 3190 C 295.027 -3.13033 -3.05498 0
M  V30 3191 C 294.086 -3.11104 -4.24383 0
M  V30 3192 O 293.112 -3.84888 -4.19344 0
M  V30 3193 N 294.314 -2.32234 -5.32022 0
M  V30 3194 H 297.079 -2.71508 -1.26899 0
M  V30 3195 H 294.64 -1.52238 -0.550915 0
M  V30 3196 H 296.632 -1.79514 -3.62708 0
M  V30 3197 H 295.202 -0.955342 -2.97644 0
M  V30 3198 H 294.422 -3.30119 -2.15442 0
M  V30 3199 H 295.71 -3.9874 -3.16044 0
M  V30 3200 H 295.108 -1.71807 -5.38979 0
M  V30 3201 H 293.665 -2.3423 -6.08259 0
M  V30 3202 N 297.098 0.621204 -1.44841 0
M  V30 3203 C 298.008 1.7612 -1.5498 0
M  V30 3204 C 299.024 1.68477 -0.434927 0
M  V30 3205 O 300.2 1.89076 -0.693693 0
M  V30 3206 C 297.265 3.1254 -1.50065 0
M  V30 3207 C 296.326 3.31741 -2.72482 0
M  V30 3208 C 295.559 4.61653 -2.67792 0
M  V30 3209 O 295.782 5.431 -1.74352 0
M  V30 3210 O 294.716 4.83271 -3.58794 0
M  V30 3211 H 298.542 1.70518 -2.51311 0
M  V30 3212 H 296.127 0.783643 -1.27198 0
M  V30 3213 H 298.009 3.93844 -1.49882 0
M  V30 3214 H 296.684 3.18663 -0.568806 0
M  V30 3215 H 295.591 2.50077 -2.7823 0
M  V30 3216 H 296.924 3.30486 -3.64746 0
M  V30 3217 N 298.576 1.31904 0.862503 0
M  V30 3218 C 299.806 1.24817 1.64634 0
M  V30 3219 C 300.214 -0.187579 1.88268 0
M  V30 3220 O 299.557 -1.13253 1.44635 0
M  V30 3221 C 299.619 1.92996 3.03303 0
M  V30 3222 C 299.283 3.42336 3.02746 0
M  V30 3223 C 300.28 4.37956 2.80162 0
M  V30 3224 C 297.965 3.84147 3.2363 0
M  V30 3225 C 299.959 5.73361 2.78453 0
M  V30 3226 C 297.646 5.19663 3.21549 0
M  V30 3227 C 298.644 6.14081 2.98988 0
M  V30 3228 O 298.332 7.47118 2.96766 0
M  V30 3229 H 298.064 0.432222 0.519769 0
M  V30 3230 H 300.618 1.7445 1.08427 0
M  V30 3231 H 298.848 1.37922 3.61268 0
M  V30 3232 H 300.537 1.79723 3.63943 0
M  V30 3233 H 301.303 4.06981 2.63802 0
M  V30 3234 H 297.182 3.11083 3.40218 0
M  V30 3235 H 300.726 6.4703 2.60763 0
M  V30 3236 H 296.623 5.5027 3.37451 0
M  V30 3237 H 297.391 7.56382 3.12775 0
M  V30 3238 N 300.054 -1.07777 1.14986 0
M  V30 3239 C 300.984 -2.16865 0.865557 0
M  V30 3240 C 301.965 -1.69123 -0.182083 0
M  V30 3241 O 303.15 -1.94164 -0.0373815 0
M  V30 3242 C 300.28 -3.45539 0.349313 0
M  V30 3243 C 299.234 -4.06708 1.33313 0
M  V30 3244 C 298.56 -5.30411 0.675918 0
M  V30 3245 C 299.86 -4.47241 2.69764 0
M  V30 3246 H 301.554 -2.40905 1.77778 0
M  V30 3247 H 299.1 -1.15781 0.856203 0
M  V30 3248 H 301.053 -4.21174 0.137983 0
M  V30 3249 H 299.777 -3.21072 -0.598362 0
M  V30 3250 H 298.436 -3.33112 1.53075 0
M  V30 3251 H 298.084 -5.02232 -0.277767 0
M  V30 3252 H 297.784 -5.72293 1.33244 0
M  V30 3253 H 299.308 -6.08755 0.474262 0
M  V30 3254 H 300.722 -5.14025 2.53873 0
M  V30 3255 H 299.119 -5.00062 3.3175 0
M  V30 3256 H 300.189 -3.58818 3.26156 0
M  V30 3257 N 301.532 -0.945985 -1.26051 0
M  V30 3258 C 302.482 -0.430164 -2.23905 0
M  V30 3259 C 303.466 0.47579 -1.53704 0
M  V30 3260 O 304.658 0.310252 -1.7426 0
M  V30 3261 C 301.787 0.298957 -3.41996 0
M  V30 3262 C 300.873 -0.624566 -4.19476 0
M  V30 3263 N 301.264 -1.75245 -4.74471 0
M  V30 3264 C 299.562 -0.431082 -4.43912 0
M  V30 3265 C 300.263 -2.32834 -5.3307 0
M  V30 3266 N 299.239 -1.61583 -5.1903 0
M  V30 3267 H 303.041 -1.29107 -2.64024 0
M  V30 3268 H 300.555 -0.802428 -1.41191 0
M  V30 3269 H 302.552 0.685565 -4.11225 0
M  V30 3270 H 301.212 1.15657 -3.03403 0
M  V30 3271 H 302.223 -2.13449 -4.71868 0
M  V30 3272 H 298.9 0.384364 -4.15727 0
M  V30 3273 H 300.29 -3.27893 -5.86461 0
M  V30 3274 N 303.011 1.40521 -0.713556 0
M  V30 3275 C 304.236 2.05759 -0.26035 0
M  V30 3276 C 304.661 1.53403 1.08854 0
M  V30 3277 O 304.019 0.668535 1.68524 0
M  V30 3278 C 304.067 3.59745 -0.248122 0
M  V30 3279 O 303.171 4.05123 0.77131 0
M  V30 3280 H 302.512 0.652564 -0.122703 0
M  V30 3281 H 305.042 1.79958 -0.973467 0
M  V30 3282 H 305.052 4.07911 -0.0851129 0
M  V30 3283 H 303.727 3.97218 -1.2325 0
M  V30 3284 H 302.304 3.68422 0.57619 0
M  V30 3285 N 304.489 0.459591 1.5075 0
M  V30 3286 C 305.737 -0.0991532 2.01857 0
M  V30 3287 C 306.058 -1.41247 1.34441 0
M  V30 3288 O 305.328 -1.89775 0.486022 0
M  V30 3289 H 303.908 -0.039633 0.745948 0
M  V30 3290 H 306.57 0.607387 1.85194 0
M  V30 3291 H 305.666 -0.258998 3.11023 0
M  V30 3292 N 305.967 -1.56429 0.191757 0
M  V30 3293 C 307.244 -1.89224 -0.495332 0
M  V30 3294 C 307.624 -1.10478 -1.79883 0
M  V30 3295 O 306.972 -0.204852 -2.2758 0
M  V30 3296 C 307.182 -3.41548 -0.717367 0
M  V30 3297 C 308.53 -4.11711 -1.03823 0
M  V30 3298 O 309.554 -3.4698 -0.805204 0
M  V30 3299 O 308.413 -5.2611 -1.47887 0
M  V30 3300 H 305.507 -0.785788 -0.25781 0
M  V30 3301 H 308.053 -1.68111 0.231721 0
M  V30 3302 H 306.825 -3.90772 0.203287 0
M  V30 3303 H 306.448 -3.68342 -1.497 0
M  V30 3304 N 307.445 0.0818655 -1.57387 0
M  V30 3305 C 308.685 0.788375 -1.88584 0
M  V30 3306 C 309.049 1.75248 -0.784351 0
M  V30 3307 O 310.25 2.50334 -0.979105 0
M  V30 3308 C 308.521 1.48654 -3.25018 0
M  V30 3309 S 310.08 2.22951 -3.7794 0
M  V30 3310 H 306.898 0.262383 -0.660815 0
M  V30 3311 H 309.5 0.0448995 -1.95448 0
M  V30 3312 H 308.204 0.770919 -4.03094 0
M  V30 3313 H 307.735 2.26965 -3.21326 0
M  V30 3314 H 309.75 3.49309 -3.52417 0
M  V30 3315 N 308.923 1.53595 0.353017 0
M  V30 3316 C 310.153 1.74058 1.11299 0
M  V30 3317 C 310.561 0.475205 1.83135 0
M  V30 3318 O 309.904 -0.562344 1.74881 0
M  V30 3319 C 309.966 2.85994 2.17825 0
M  V30 3320 C 309.63 4.25923 1.65647 0
M  V30 3321 C 310.627 5.07829 1.11383 0
M  V30 3322 C 308.312 4.72377 1.7078 0
M  V30 3323 C 310.306 6.34285 0.629439 0
M  V30 3324 C 307.993 5.98808 1.21953 0
M  V30 3325 C 308.991 6.79594 0.681265 0
M  V30 3326 O 308.679 8.03651 0.200248 0
M  V30 3327 H 308.411 0.585327 0.338183 0
M  V30 3328 H 310.965 2.01186 0.413927 0
M  V30 3329 H 309.195 2.54368 2.91262 0
M  V30 3330 H 310.884 2.94515 2.79313 0
M  V30 3331 H 311.65 4.73107 1.06746 0
M  V30 3332 H 307.529 4.0956 2.11617 0
M  V30 3333 H 311.073 6.97288 0.208636 0
M  V30 3334 H 306.97 6.33026 1.26287 0
M  V30 3335 H 307.738 8.1788 0.318416 0
M  V30 3336 N 310.401 -0.613514 1.45168 0
M  V30 3337 C 311.333 -1.73825 1.4939 0
M  V30 3338 C 312.346 -1.58175 0.385304 0
M  V30 3339 O 313.535 -1.66165 0.652036 0
M  V30 3340 C 310.635 -3.11758 1.32891 0
M  V30 3341 C 309.808 -3.53704 2.57317 0
M  V30 3342 C 308.867 -4.70579 2.35462 0
M  V30 3343 O 307.893 -4.77996 3.09044 0
M  V30 3344 N 309.095 -5.63454 1.39644 0
M  V30 3345 H 311.86 -1.70669 2.46358 0
M  V30 3346 H 309.421 -0.79862 1.40832 0
M  V30 3347 H 311.413 -3.87692 1.1609 0
M  V30 3348 H 309.983 -3.09456 0.442218 0
M  V30 3349 H 309.203 -2.67794 2.89275 0
M  V30 3350 H 310.491 -3.78486 3.40038 0
M  V30 3351 H 309.889 -5.6017 0.789062 0
M  V30 3352 H 308.446 -6.38944 1.28816 0
M  V30 3353 N 311.879 -1.3236 -0.855495 0
M  V30 3354 C 313.125 -1.23054 -1.612 0
M  V30 3355 C 313.458 0.207404 -1.93089 0
M  V30 3356 O 312.733 1.14432 -1.57275 0
M  V30 3357 C 313.016 -2.08937 -2.93287 0
M  V30 3358 C 312.869 -3.61105 -2.68185 0
M  V30 3359 C 314.188 -1.94986 -3.94549 0
M  V30 3360 H 311.307 -0.448364 -0.584926 0
M  V30 3361 H 313.949 -1.62297 -0.987917 0
M  V30 3362 H 312.099 -1.75599 -3.46551 0
M  V30 3363 H 313.771 -4.04652 -2.21483 0
M  V30 3364 H 312.014 -3.83813 -2.02164 0
M  V30 3365 H 312.685 -4.16522 -3.62234 0
M  V30 3366 H 315.161 -2.24189 -3.5054 0
M  V30 3367 H 314.037 -2.57356 -4.84829 0
M  V30 3368 H 314.298 -0.917263 -4.3248 0
M  V30 3369 N 313.357 1.07166 -1.15556 0
M  V30 3370 C 314.305 2.16517 -0.8499 0
M  V30 3371 C 315.299 1.68468 0.177454 0
M  V30 3372 O 316.505 1.79971 0.0323026 0
M  V30 3373 H 312.88 0.706652 -0.25719 0
M  V30 3374 H 314.851 2.39514 -1.77976 0
M  V30 3375 C 313.6 3.45855 -0.357682 0
M  V30 3376 H 312.923 3.83214 -1.13961 0
M  V30 3377 H 314.363 4.23607 -0.182489 0
M  V30 3378 C 312.822 3.24062 0.921152 0
M  V30 3379 O 313.352 3.48813 1.9923 0
M  V30 3380 N 311.558 2.77539 0.86141 0
M  V30 3381 H 311.105 2.57598 -0.0104408 0
M  V30 3382 H 311.063 2.63337 1.71758 0
M  V30 3383 N 314.835 0.952656 1.25548 0
M  V30 3384 C 315.765 0.489287 2.28316 0
M  V30 3385 C 316.746 -0.463359 1.63667 0
M  V30 3386 O 317.931 -0.36274 1.90782 0
M  V30 3387 C 315.061 -0.235603 3.465 0
M  V30 3388 C 314.015 0.631593 4.23314 0
M  V30 3389 C 313.341 -0.223923 5.34231 0
M  V30 3390 C 314.641 1.90871 4.86174 0
M  V30 3391 H 316.335 1.34822 2.67326 0
M  V30 3392 H 313.881 0.649728 1.28509 0
M  V30 3393 H 315.834 -0.570882 4.17515 0
M  V30 3394 H 314.558 -1.12877 3.06474 0
M  V30 3395 H 313.217 0.949929 3.54079 0
M  V30 3396 H 312.865 -1.11678 4.90446 0
M  V30 3397 H 312.565 0.35299 5.86539 0
M  V30 3398 H 314.089 -0.554214 6.0808 0
M  V30 3399 H 315.503 1.63997 5.49343 0
M  V30 3400 H 313.9 2.43112 5.4865 0
M  V30 3401 H 314.97 2.61304 4.08471 0
M  V30 3402 N 316.313 -1.40141 0.720998 0
M  V30 3403 C 317.276 -2.29058 0.0805834 0
M  V30 3404 C 318.276 -1.45632 -0.681758 0
M  V30 3405 O 319.466 -1.6648 -0.512856 0
M  V30 3406 C 316.598 -3.28925 -0.895593 0
M  V30 3407 H 317.791 -2.87191 0.863793 0
M  V30 3408 H 315.344 -1.48553 0.485975 0
M  V30 3409 H 316.079 -2.75822 -1.70566 0
M  V30 3410 H 315.864 -3.90519 -0.351766 0
M  V30 3411 H 317.354 -3.95494 -1.34069 0
M  V30 3412 N 317.792 -0.46758 -1.50504 0
M  V30 3413 C 318.724 0.364655 -2.26281 0
M  V30 3414 C 319.737 0.960151 -1.31472 0
M  V30 3415 O 320.926 0.849153 -1.57008 0
M  V30 3416 C 318.026 1.52509 -3.02645 0
M  V30 3417 C 317.199 1.04302 -4.24782 0
M  V30 3418 C 316.258 2.07709 -4.8347 0
M  V30 3419 O 315.284 1.65913 -5.44483 0
M  V30 3420 N 316.486 3.40485 -4.70159 0
M  V30 3421 H 319.251 -0.28495 -2.98342 0
M  V30 3422 H 316.812 -0.298163 -1.59131 0
M  V30 3423 H 318.804 2.21371 -3.38787 0
M  V30 3424 H 317.374 2.07945 -2.33404 0
M  V30 3425 H 316.594 0.180393 -3.93787 0
M  V30 3426 H 317.882 0.698798 -5.03978 0
M  V30 3427 H 317.28 3.77155 -4.21629 0
M  V30 3428 H 315.837 4.05156 -5.1058 0
M  V30 3429 N 319.27 1.56325 -0.20005 0
M  V30 3430 C 320.686 1.58839 0.155716 0
M  V30 3431 C 320.886 1.21636 1.60645 0
M  V30 3432 O 319.942 0.941437 2.34293 0
M  V30 3433 C 321.255 3.0032 -0.151124 0
M  V30 3434 C 322.803 3.12866 -0.0916284 0
M  V30 3435 C 323.278 4.56488 -0.371845 0
M  V30 3436 N 324.769 4.62089 -0.320641 0
M  V30 3437 C 325.504 5.71116 -0.511243 0
M  V30 3438 N 325 6.88592 -0.762461 0
M  V30 3439 N 326.793 5.60335 -0.445157 0
M  V30 3440 H 318.944 1.78788 -1.14668 0
M  V30 3441 H 321.207 0.829996 -0.458051 0
M  V30 3442 H 320.913 3.32117 -1.15721 0
M  V30 3443 H 320.787 3.73257 0.543986 0
M  V30 3444 H 323.174 2.80878 0.905065 0
M  V30 3445 H 323.255 2.42304 -0.81989 0
M  V30 3446 H 322.899 4.89189 -1.36588 0
M  V30 3447 H 322.829 5.25246 0.377362 0
M  V30 3448 H 325.32 3.77665 -0.13329 0
M  V30 3449 H 325.633 7.67581 -0.896576 0
M  V30 3450 H 323.978 6.90387 -0.799412 0
M  V30 3451 H 327.169 4.67436 -0.249278 0
M  V30 3452 H 327.342 6.45243 -0.597116 0
M  V30 3453 N 320.748 -0.0735177 1.57428 0
M  V30 3454 C 321.995 -0.772999 1.87166 0
M  V30 3455 C 322.323 -1.77665 0.791551 0
M  V30 3456 O 321.578 -1.94541 -0.212636 0
M  V30 3457 C 321.877 -1.51799 3.23561 0
M  V30 3458 C 321.543 -0.654484 4.46125 0
M  V30 3459 C 320.205 -0.416511 4.79394 0
M  V30 3460 C 322.557 -0.0555862 5.2117 0
M  V30 3461 C 319.885 0.429869 5.85123 0
M  V30 3462 C 322.237 0.778239 6.27795 0
M  V30 3463 C 320.901 1.0261 6.59566 0
M  V30 3464 H 320.171 -0.282861 0.684888 0
M  V30 3465 H 322.818 -0.0338272 1.9147 0
M  V30 3466 H 321.123 -2.32932 3.1504 0
M  V30 3467 H 322.82 -2.06397 3.43804 0
M  V30 3468 H 319.41 -0.850091 4.20085 0
M  V30 3469 H 323.594 -0.226558 4.95783 0
M  V30 3470 H 318.85 0.630665 6.08139 0
M  V30 3471 H 323.024 1.24906 6.85107 0
M  V30 3472 H 320.651 1.68371 7.4132 0
M  V30 3473 N 322.226 -1.5378 -0.344866 0
M  V30 3474 C 323.176 -1.78057 -1.42407 0
M  V30 3475 C 324.16 -0.635732 -1.47808 0
M  V30 3476 O 325.352 -0.89508 -1.527 0
M  V30 3477 C 322.481 -1.99242 -2.79566 0
M  V30 3478 C 321.567 -3.19787 -2.78562 0
M  V30 3479 N 321.958 -4.41284 -2.47189 0
M  V30 3480 C 320.256 -3.2093 -3.0971 0
M  V30 3481 C 320.957 -5.23128 -2.54385 0
M  V30 3482 N 319.933 -4.59813 -2.89953 0
M  V30 3483 H 323.735 -2.69588 -1.17046 0
M  V30 3484 H 321.249 -1.52687 -0.553217 0
M  V30 3485 H 323.246 -2.14768 -3.57324 0
M  V30 3486 H 321.906 -1.08953 -3.05875 0
M  V30 3487 H 322.917 -4.68657 -2.20411 0
M  V30 3488 H 319.594 -2.40603 -3.41199 0
M  V30 3489 H 320.984 -6.30096 -2.333 0
M  V30 3490 N 323.704 0.605807 -1.45491 0
M  V30 3491 C 324.667 1.69836 -1.5391 0
M  V30 3492 C 325.667 1.55261 -0.418424 0
M  V30 3493 O 326.857 1.60296 -0.681965 0
M  V30 3494 C 323.989 3.09117 -1.43734 0
M  V30 3495 H 325.182 1.63738 -2.51257 0
M  V30 3496 H 322.735 0.821689 -1.32959 0
M  V30 3497 H 323.47 3.20791 -0.475788 0
M  V30 3498 H 323.255 3.21104 -2.25021 0
M  V30 3499 H 324.745 3.88696 -1.52661 0
M  V30 3500 N 325.182 1.32811 0.848464 0
M  V30 3501 C 326.41 1.26739 1.63538 0
M  V30 3502 C 326.825 -0.163484 1.88091 0
M  V30 3503 O 326.182 -1.10258 1.45429 0
M  V30 3504 C 326.233 2.03013 2.99112 0
M  V30 3505 O 325.954 3.40518 2.75643 0
M  V30 3506 C 327.455 2.04038 3.93552 0
M  V30 3507 H 324.675 0.437024 0.509167 0
M  V30 3508 H 327.219 1.75033 1.05753 0
M  V30 3509 H 325.374 1.58426 3.53525 0
M  V30 3510 H 325.788 3.79635 3.61908 0
M  V30 3511 H 327.262 2.61877 4.85926 0
M  V30 3512 H 327.739 1.0282 4.26995 0
M  V30 3513 H 328.345 2.486 3.45077 0
M  V30 3514 N 326.66 -1.06551 1.16123 0
M  V30 3515 C 327.89 -1.8274 0.963838 0
M  V30 3516 C 328.298 -1.82712 -0.491228 0
M  V30 3517 O 327.641 -1.24294 -1.35265 0
M  V30 3518 C 327.703 -3.3065 1.41106 0
M  V30 3519 C 327.367 -3.54384 2.88549 0
M  V30 3520 C 328.364 -3.4765 3.86569 0
M  V30 3521 C 326.049 -3.81789 3.26408 0
M  V30 3522 C 328.043 -3.67982 5.2045 0
M  V30 3523 C 325.73 -4.01772 4.60459 0
M  V30 3524 C 326.728 -3.94866 5.57288 0
M  V30 3525 O 326.416 -4.14306 6.88916 0
M  V30 3526 H 326.148 -0.583136 0.341948 0
M  V30 3527 H 328.702 -1.35351 1.54497 0
M  V30 3528 H 326.932 -3.78887 0.773394 0
M  V30 3529 H 328.621 -3.88324 1.1815 0
M  V30 3530 H 329.387 -3.2647 3.58667 0
M  V30 3531 H 325.266 -3.86276 2.51619 0
M  V30 3532 H 328.81 -3.62507 5.96015 0
M  V30 3533 H 324.707 -4.2244 4.88072 0
M  V30 3534 H 325.475 -4.31609 6.95454 0
M  V30 3535 N 328.138 -0.959301 -1.25041 0
M  V30 3536 C 329.363 -0.633507 -1.97488 0
M  V30 3537 C 329.788 0.788555 -1.70773 0
M  V30 3538 O 329.146 1.53394 -0.966431 0
M  V30 3539 C 329.194 -0.904057 -3.49083 0
M  V30 3540 O 328.298 0.0147939 -4.12397 0
M  V30 3541 H 327.639 -0.240368 -0.618966 0
M  V30 3542 H 330.169 -1.28717 -1.59038 0
M  V30 3543 H 330.179 -0.832203 -3.99423 0
M  V30 3544 H 328.854 -1.94048 -3.67856 0
M  V30 3545 H 327.431 -0.109664 -3.72739 0
M  V30 3546 N 329.616 1.39756 -0.72842 0
M  V30 3547 C 330.864 2.00248 -0.272946 0
M  V30 3548 C 331.185 1.58077 1.14178 0
M  V30 3549 O 330.455 0.826014 1.77634 0
M  V30 3550 H 329.035 0.740554 -0.0979247 0
M  V30 3551 H 331.697 1.70903 -0.936912 0
M  V30 3552 H 330.793 3.10495 -0.316142 0
M  V30 3553 N 331.094 0.475555 1.50254 0
M  V30 3554 C 332.371 -0.139685 1.95101 0
M  V30 3555 C 332.751 -1.56555 1.41611 0
M  V30 3556 O 332.099 -2.19956 0.618993 0
M  V30 3557 C 332.309 -0.0784298 3.48912 0
M  V30 3558 C 333.657 -0.265095 4.23772 0
M  V30 3559 O 334.681 -0.154808 3.55863 0
M  V30 3560 O 333.54 -0.488327 5.44314 0
M  V30 3561 H 330.634 -0.109236 0.819754 0
M  V30 3562 H 333.18 0.536276 1.61004 0
M  V30 3563 H 331.952 0.916918 3.80405 0
M  V30 3564 H 331.575 -0.795655 3.89558 0
M  V30 3565 N 332.573 -1.56217 0.208337 0
M  V30 3566 C 333.483 -2.23316 -0.718836 0
M  V30 3567 C 334.499 -1.23648 -1.22422 0
M  V30 3568 O 335.675 -1.56423 -1.26861 0
M  V30 3569 C 332.74 -2.88968 -1.91568 0
M  V30 3570 C 331.801 -4.03943 -1.45357 0
M  V30 3571 C 331.034 -4.66455 -2.59337 0
M  V30 3572 O 331.257 -4.27919 -3.77149 0
M  V30 3573 O 330.191 -5.55686 -2.31293 0
M  V30 3574 H 334.017 -3.03182 -0.177315 0
M  V30 3575 H 331.602 -1.49384 -0.0215402 0
M  V30 3576 H 333.484 -3.30455 -2.61491 0
M  V30 3577 H 332.159 -2.12071 -2.44556 0
M  V30 3578 H 331.066 -3.67052 -0.722746 0
M  V30 3579 H 332.399 -4.82543 -0.970219 0
M  V30 3580 N 334.051 0.0651679 -1.57465 0
M  V30 3581 C 335.297 0.758912 -1.88712 0
M  V30 3582 C 335.652 1.7485 -0.802819 0
M  V30 3583 O 334.945 1.90632 0.192359 0
M  V30 3584 C 335.139 1.50081 -3.24362 0
M  V30 3585 C 334.968 0.584579 -4.45884 0
M  V30 3586 C 333.738 0.219039 -5.04825 0
M  V30 3587 C 335.936 -0.121559 -5.14156 0
M  V30 3588 N 333.918 -0.702222 -6.09871 0
M  V30 3589 C 335.289 -0.899767 -6.13436 0
M  V30 3590 C 337.344 -0.192331 -4.97528 0
M  V30 3591 C 336.047 -1.74218 -6.97883 0
M  V30 3592 C 338.073 -1.02174 -5.82507 0
M  V30 3593 C 337.435 -1.78798 -6.8133 0
M  V30 3594 H 333.534 0.25293 -0.739967 0
M  V30 3595 H 336.118 0.0201744 -1.9469 0
M  V30 3596 H 334.289 2.21023 -3.1938 0
M  V30 3597 H 336.021 2.14409 -3.43236 0
M  V30 3598 H 332.776 0.57336 -4.70117 0
M  V30 3599 H 333.2 -1.15629 -6.67052 0
M  V30 3600 H 337.842 0.385741 -4.21037 0
M  V30 3601 H 335.56 -2.3312 -7.73745 0
M  V30 3602 H 339.146 -1.07957 -5.71696 0
M  V30 3603 H 338.026 -2.41942 -7.45945 0
M  V30 3604 N 335.529 1.53961 0.336706 0
M  V30 3605 C 336.461 1.78751 1.4346 0
M  V30 3606 C 337.474 0.669019 1.48418 0
M  V30 3607 O 338.663 0.945884 1.51378 0
M  V30 3608 C 335.763 1.87844 2.82078 0
M  V30 3609 C 334.936 3.17854 3.00479 0
M  V30 3610 C 333.995 3.17816 4.19379 0
M  V30 3611 O 333.021 3.91511 4.13168 0
M  V30 3612 N 334.223 2.40669 5.2826 0
M  V30 3613 H 336.988 2.73493 1.22563 0
M  V30 3614 H 334.549 1.53096 0.526625 0
M  V30 3615 H 336.541 1.85261 3.59806 0
M  V30 3616 H 335.111 1.00257 2.96086 0
M  V30 3617 H 334.331 3.33504 2.10163 0
M  V30 3618 H 335.619 4.03718 3.0966 0
M  V30 3619 H 335.017 1.8036 5.36178 0
M  V30 3620 H 333.574 2.43877 6.04456 0
M  V30 3621 N 337.007 -0.598083 1.45811 0
M  V30 3622 C 337.97 -1.69018 1.54808 0
M  V30 3623 C 338.97 -1.55037 0.426652 0
M  V30 3624 O 340.16 -1.59932 0.690456 0
M  V30 3625 C 337.292 -3.0835 1.45371 0
M  V30 3626 H 338.485 -1.62403 2.52121 0
M  V30 3627 H 336.038 -0.814626 1.33392 0
M  V30 3628 H 336.773 -3.20534 0.492793 0
M  V30 3629 H 336.558 -3.19907 2.26721 0
M  V30 3630 H 338.048 -3.8788 1.54721 0
M  V30 3631 N 338.485 -1.33259 -0.841409 0
M  V30 3632 C 339.732 -1.24572 -1.5965 0
M  V30 3633 C 340.06 0.189137 -1.93578 0
M  V30 3634 O 339.315 1.14566 -1.5866 0
M  V30 3635 C 339.614 -2.06381 -2.9179 0
M  V30 3636 C 339.28 -3.556 -2.77235 0
M  V30 3637 C 337.942 -3.96282 -2.72973 0
M  V30 3638 C 340.294 -4.50433 -2.62221 0
M  V30 3639 C 337.622 -5.30017 -2.51592 0
M  V30 3640 C 339.974 -5.84327 -2.42374 0
M  V30 3641 C 338.638 -6.24194 -2.36512 0
M  V30 3642 H 337.908 -0.455842 -0.5842 0
M  V30 3643 H 340.555 -1.6482 -0.975016 0
M  V30 3644 H 338.86 -1.58903 -3.5813 0
M  V30 3645 H 340.557 -1.97019 -3.49263 0
M  V30 3646 H 337.147 -3.23298 -2.81384 0
M  V30 3647 H 341.331 -4.19914 -2.64549 0
M  V30 3648 H 336.587 -5.59947 -2.45499 0
M  V30 3649 H 340.761 -6.57414 -2.29739 0
M  V30 3650 H 338.388 -7.27759 -2.19706 0
M  V30 3651 N 339.963 1.05934 -1.16686 0
M  V30 3652 C 340.893 2.1546 -0.899949 0
M  V30 3653 C 341.874 1.69391 0.155154 0
M  V30 3654 O 343.059 1.94199 0.00648693 0
M  V30 3655 C 340.189 3.44939 -0.404241 0
M  V30 3656 C 339.143 4.04536 -1.39767 0
M  V30 3657 C 338.469 5.29268 -0.760216 0
M  V30 3658 C 339.769 4.42893 -2.76845 0
M  V30 3659 H 341.463 2.38046 -1.81588 0
M  V30 3660 H 339.009 1.14404 -0.874514 0
M  V30 3661 H 340.962 4.20901 -0.204971 0
M  V30 3662 H 339.686 3.21983 0.547206 0
M  V30 3663 H 338.345 3.30635 -1.58355 0
M  V30 3664 H 337.993 5.02611 0.197831 0
M  V30 3665 H 337.693 5.70101 -1.42332 0
M  V30 3666 H 339.217 6.07924 -0.57105 0
M  V30 3667 H 340.631 5.09921 -2.62019 0
M  V30 3668 H 339.028 4.94721 -3.39663 0
M  V30 3669 H 340.098 3.53584 -3.31823 0
M  V30 3670 N 341.441 0.965919 1.2453 0
M  V30 3671 C 342.373 0.452465 2.2469 0
M  V30 3672 C 343.386 -0.437821 1.56802 0
M  V30 3673 O 344.575 -0.244283 1.76821 0
M  V30 3674 C 341.675 -0.366258 3.36915 0
M  V30 3675 C 340.848 0.513701 4.34373 0
M  V30 3676 C 339.907 -0.248716 5.25612 0
M  V30 3677 O 338.933 0.356745 5.68081 0
M  V30 3678 N 340.135 -1.53877 5.59734 0
M  V30 3679 H 342.9 1.31361 2.69378 0
M  V30 3680 H 340.461 0.837541 1.38553 0
M  V30 3681 H 342.453 -0.884297 3.94921 0
M  V30 3682 H 341.023 -1.12832 2.91526 0
M  V30 3683 H 340.243 1.21273 3.75082 0
M  V30 3684 H 341.531 1.11391 4.96457 0
M  V30 3685 H 340.929 -2.05243 5.27154 0
M  V30 3686 H 339.486 -2.00254 6.20275 0
M  V30 3687 N 342.919 -1.39368 0.735821 0
M  V30 3688 C 343.849 -2.33234 0.111506 0
M  V30 3689 C 344.83 -1.53954 -0.723334 0
M  V30 3690 O 346.015 -1.82344 -0.668147 0
M  V30 3691 C 343.145 -3.38057 -0.795917 0
M  V30 3692 C 342.099 -4.2795 -0.065172 0
M  V30 3693 C 341.425 -5.23479 -1.08967 0
M  V30 3694 C 342.725 -5.10741 1.09273 0
M  V30 3695 H 344.419 -2.85692 0.895571 0
M  V30 3696 H 341.965 -1.37364 0.432109 0
M  V30 3697 H 343.918 -4.02675 -1.24221 0
M  V30 3698 H 342.642 -2.8404 -1.61211 0
M  V30 3699 H 341.301 -3.64813 0.361511 0
M  V30 3700 H 340.949 -4.65758 -1.89944 0
M  V30 3701 H 340.649 -5.84472 -0.605489 0
M  V30 3702 H 342.173 -5.90974 -1.53565 0
M  V30 3703 H 343.587 -5.68699 0.724841 0
M  V30 3704 H 341.984 -5.8088 1.50659 0
M  V30 3705 H 343.054 -4.45525 1.91404 0
M  V30 3706 N 344.397 -0.483516 -1.5 0
M  V30 3707 C 345.345 0.318061 -2.30415 0
M  V30 3708 C 346.339 0.978988 -1.38247 0
M  V30 3709 O 347.545 0.908673 -1.55381 0
M  V30 3710 H 343.92 0.121419 -0.742133 0
M  V30 3711 H 345.891 -0.380403 -2.95965 0
M  V30 3712 C 344.64 1.38013 -3.19136 0
M  V30 3713 H 343.963 0.880952 -3.89973 0
M  V30 3714 H 345.403 1.91332 -3.78375 0
M  V30 3715 C 343.862 2.38884 -2.37563 0
M  V30 3716 O 344.392 3.44412 -2.06744 0
M  V30 3717 N 342.598 2.10912 -1.99911 0
M  V30 3718 H 342.145 1.25118 -2.25174 0
M  V30 3719 H 342.103 2.78635 -1.45636 0
M  V30 3720 N 345.875 1.56104 -0.216619 0
M  V30 3721 C 346.807 2.17339 0.72776 0
M  V30 3722 C 347.82 1.14109 1.16116 0
M  V30 3723 O 349.009 1.4111 1.09317 0
M  V30 3724 C 346.109 2.73818 1.99693 0
M  V30 3725 C 345.282 4.02168 1.71988 0
M  V30 3726 C 344.341 4.43259 2.83562 0
M  V30 3727 O 343.367 5.10257 2.52244 0
M  V30 3728 N 344.569 4.08535 4.12407 0
M  V30 3729 H 347.334 2.99005 0.203983 0
M  V30 3730 H 344.895 1.61861 -0.0354289 0
M  V30 3731 H 346.887 2.9828 2.73516 0
M  V30 3732 H 345.457 1.96483 2.43132 0
M  V30 3733 H 344.677 3.85612 0.818337 0
M  V30 3734 H 345.965 4.85907 1.50903 0
M  V30 3735 H 345.363 3.54687 4.40696 0
M  V30 3736 H 343.92 4.37901 4.8279 0
M  V30 3737 N 347.353 -0.0568162 1.57498 0
M  V30 3738 C 348.316 -1.05038 2.03715 0
M  V30 3739 C 349.316 -1.30709 0.936577 0
M  V30 3740 O 350.506 -1.26178 1.20103 0
M  V30 3741 C 347.638 -2.39034 2.43055 0
M  V30 3742 H 348.831 -0.651715 2.92733 0
M  V30 3743 H 346.384 -0.302947 1.53336 0
M  V30 3744 H 347.119 -2.83703 1.57108 0
M  V30 3745 H 346.904 -2.21739 3.2338 0
M  V30 3746 H 348.394 -3.10421 2.79336 0
M  V30 3747 N 348.832 -1.54138 -0.328536 0
M  V30 3748 C 349.78 -1.83894 -1.42428 0
M  V30 3749 C 350.774 -0.710478 -1.53781 0
M  V30 3750 O 351.98 -0.894062 -1.56226 0
M  V30 3751 H 348.355 -0.582837 -0.475189 0
M  V30 3752 H 350.326 -2.75537 -1.14552 0
M  V30 3753 C 349.075 -2.07866 -2.78724 0
M  V30 3754 H 348.398 -2.94158 -2.7076 0
M  V30 3755 H 349.838 -2.32644 -3.54476 0
M  V30 3756 C 348.297 -0.868689 -3.25508 0
M  V30 3757 O 348.827 -0.0754908 -4.01629 0
M  V30 3758 N 347.033 -0.681711 -2.82491 0
M  V30 3759 H 346.58 -1.32838 -2.20708 0
M  V30 3760 H 346.538 0.126374 -3.14146 0
M  V30 3761 N 350.31 0.590341 -1.46126 0
M  V30 3762 C 351.726 0.912917 -1.30912 0
M  V30 3763 C 351.926 1.99616 -0.274893 0
M  V30 3764 O 350.982 2.50397 0.325197 0
M  V30 3765 C 352.295 1.3375 -2.69317 0
M  V30 3766 C 353.843 1.45077 -2.77348 0
M  V30 3767 C 354.318 1.90904 -4.16317 0
M  V30 3768 N 355.809 1.9811 -4.18696 0
M  V30 3769 C 356.544 2.34828 -5.23109 0
M  V30 3770 N 356.04 2.70393 -6.37856 0
M  V30 3771 N 357.833 2.35317 -5.10473 0
M  V30 3772 H 349.984 -0.125358 -2.1203 0
M  V30 3773 H 352.247 0.00658481 -0.947977 0
M  V30 3774 H 351.953 0.615614 -3.4627 0
M  V30 3775 H 351.827 2.30058 -2.9892 0
M  V30 3776 H 354.214 2.16353 -2.00687 0
M  V30 3777 H 354.295 0.4704 -2.51438 0
M  V30 3778 H 353.939 1.20209 -4.9347 0
M  V30 3779 H 353.869 2.89886 -4.39629 0
M  V30 3780 H 356.36 1.73146 -3.359 0
M  V30 3781 H 356.673 2.97341 -7.13308 0
M  V30 3782 H 355.018 2.68048 -6.41229 0
M  V30 3783 H 358.209 2.0695 -4.19868 0
M  V30 3784 H 358.382 2.63605 -5.9196 0
M  V30 3785 N 351.788 1.33704 0.83433 0
M  V30 3786 C 352.751 1.24244 1.92603 0
M  V30 3787 C 353.751 0.160383 1.59998 0
M  V30 3788 O 354.941 0.412228 1.69252 0
M  V30 3789 C 352.073 0.91555 3.28376 0
M  V30 3790 H 353.266 2.21287 2.02416 0
M  V30 3791 H 350.819 1.17827 1.02696 0
M  V30 3792 H 351.554 -0.0521886 3.24258 0
M  V30 3793 H 351.339 1.69811 3.53422 0
M  V30 3794 H 352.829 0.874231 4.08347 0
M  V30 3795 N 353.266 -1.05314 1.17247 0
M  V30 3796 C 354.677 -1.59753 0.96623 0
M  V30 3797 C 355.028 -1.9005 -0.487378 0
M  V30 3798 O 354.153 -1.68126 -1.36245 0
M  V30 3799 C 354.748 -2.90249 1.74759 0
M  V30 3800 C 353.307 -3.41352 1.58606 0
M  V30 3801 C 352.454 -2.15103 1.75002 0
M  V30 3802 H 355.405 -0.881406 1.31973 0
M  V30 3803 H 355.426 -3.60097 1.22925 0
M  V30 3804 H 354.938 -2.68166 2.8055 0
M  V30 3805 H 353.039 -3.68474 0.552985 0
M  V30 3806 H 353.152 -4.16019 2.37624 0
M  V30 3807 H 351.516 -2.25804 1.17833 0
M  V30 3808 H 352.299 -1.95491 2.82202 0
M  V30 3809 N 354.744 -0.972509 -1.24016 0
M  V30 3810 C 355.991 -0.637034 -1.92219 0
M  V30 3811 C 356.319 0.828418 -1.75976 0
M  V30 3812 O 355.574 1.61206 -1.10955 0
M  V30 3813 C 355.873 -0.963694 -3.44162 0
M  V30 3814 C 355.539 -2.41807 -3.80579 0
M  V30 3815 C 354.201 -2.81556 -3.9023 0
M  V30 3816 C 356.553 -3.36172 -3.98293 0
M  V30 3817 C 353.881 -4.14702 -4.15017 0
M  V30 3818 C 356.233 -4.68952 -4.24578 0
M  V30 3819 C 354.897 -5.08472 -4.32449 0
M  V30 3820 H 354.167 -0.233107 -0.703379 0
M  V30 3821 H 356.814 -1.2249 -1.47202 0
M  V30 3822 H 355.119 -0.29365 -3.90698 0
M  V30 3823 H 356.816 -0.682449 -3.9515 0
M  V30 3824 H 353.406 -2.09988 -3.73635 0
M  V30 3825 H 357.59 -3.06644 -3.90234 0
M  V30 3826 H 352.846 -4.4494 -4.19331 0
M  V30 3827 H 357.02 -5.42037 -4.37229 0
M  V30 3828 H 354.647 -6.11665 -4.51409 0
M  V30 3829 N 356.222 1.38976 -0.743202 0
M  V30 3830 C 357.447 2.05161 -0.303936 0
M  V30 3831 C 357.872 1.55677 1.05576 0
M  V30 3832 O 357.23 0.704131 1.67068 0
M  V30 3833 C 357.278 3.59138 -0.324373 0
M  V30 3834 O 356.382 4.06668 0.685204 0
M  V30 3835 H 355.723 0.649815 -0.136518 0
M  V30 3836 H 358.253 1.77852 -1.01142 0
M  V30 3837 H 358.263 4.07639 -0.171618 0
M  V30 3838 H 356.938 3.94515 -1.31647 0
M  V30 3839 H 355.515 3.69561 0.497913 0
M  V30 3840 N 357.7 0.491464 1.49741 0
M  V30 3841 C 358.663 -0.280906 2.27472 0
M  V30 3842 C 359.663 -0.902454 1.33088 0
M  V30 3843 O 360.853 -0.768465 1.56334 0
M  V30 3844 C 357.985 -1.40209 3.10732 0
M  V30 3845 H 359.178 0.401056 2.97206 0
M  V30 3846 H 356.731 0.246131 1.5435 0
M  V30 3847 H 357.466 -2.11849 2.45541 0
M  V30 3848 H 357.251 -0.961969 3.80117 0
M  V30 3849 H 358.741 -1.9464 3.69466 0
M  V30 3850 N 359.178 -1.55987 0.224894 0
M  V30 3851 C 360.425 -1.9839 -0.4059 0
M  V30 3852 C 360.753 -1.11261 -1.59535 0
M  V30 3853 O 360.008 -0.158314 -1.95059 0
M  V30 3854 C 360.307 -3.46394 -0.880106 0
M  V30 3855 C 359.973 -4.5046 0.19918 0
M  V30 3856 C 358.635 -4.7864 0.495661 0
M  V30 3857 C 360.987 -5.12855 0.928939 0
M  V30 3858 C 358.315 -5.66497 1.52636 0
M  V30 3859 C 360.667 -6.01828 1.949 0
M  V30 3860 C 359.331 -6.28351 2.25236 0
M  V30 3861 H 358.601 -0.725961 -0.148529 0
M  V30 3862 H 361.248 -1.88668 0.328113 0
M  V30 3863 H 359.553 -3.53337 -1.69294 0
M  V30 3864 H 361.25 -3.76577 -1.37808 0
M  V30 3865 H 357.84 -4.28579 -0.0420526 0
M  V30 3866 H 362.024 -4.9115 0.713129 0
M  V30 3867 H 357.28 -5.8531 1.76698 0
M  V30 3868 H 361.454 -6.49225 2.51951 0
M  V30 3869 H 359.081 -6.96226 3.05244 0
M  V30 3870 N 360.656 0.0484629 -1.57525 0
M  V30 3871 C 361.586 1.0549 -2.08313 0
M  V30 3872 C 362.567 1.38929 -0.981463 0
M  V30 3873 O 363.752 1.48151 -1.25558 0
M  V30 3874 C 360.882 2.36162 -2.54646 0
M  V30 3875 C 359.836 2.17016 -3.68901 0
M  V30 3876 C 359.162 3.53278 -4.01371 0
M  V30 3877 C 360.462 1.57219 -4.98076 0
M  V30 3878 H 362.156 0.632195 -2.92649 0
M  V30 3879 H 359.702 0.302654 -1.40784 0
M  V30 3880 H 361.655 3.06882 -2.88793 0
M  V30 3881 H 360.379 2.80456 -1.67368 0
M  V30 3882 H 359.038 1.48733 -3.35073 0
M  V30 3883 H 358.686 3.95185 -3.11188 0
M  V30 3884 H 358.386 3.41299 -4.78318 0
M  V30 3885 H 359.91 4.25391 -4.38035 0
M  V30 3886 H 361.324 2.17832 -5.30304 0
M  V30 3887 H 359.721 1.55871 -5.79503 0
M  V30 3888 H 360.791 0.535956 -4.81929 0
M  V30 3889 N 362.134 1.5431 0.320358 0
M  V30 3890 C 363.55 1.45091 0.664889 0
M  V30 3891 C 363.75 0.626382 1.91517 0
M  V30 3892 O 362.806 0.126443 2.52183 0
M  V30 3893 C 364.119 2.88848 0.83591 0
M  V30 3894 C 365.667 2.9877 0.933046 0
M  V30 3895 C 366.142 4.43683 1.13621 0
M  V30 3896 N 367.633 4.47309 1.20287 0
M  V30 3897 C 368.368 5.56595 1.37801 0
M  V30 3898 N 367.864 6.75844 1.52338 0
M  V30 3899 N 369.657 5.44248 1.40535 0
M  V30 3900 H 361.808 2.06398 -0.501374 0
M  V30 3901 H 364.071 0.933963 -0.162534 0
M  V30 3902 H 363.777 3.51698 -0.0116092 0
M  V30 3903 H 363.651 3.35148 1.73078 0
M  V30 3904 H 366.038 2.36045 1.77107 0
M  V30 3905 H 366.119 2.55796 0.0145782 0
M  V30 3906 H 365.763 5.06995 0.303032 0
M  V30 3907 H 365.693 4.84269 2.0686 0
M  V30 3908 H 368.184 3.61388 1.10485 0
M  V30 3909 H 368.497 7.54892 1.65403 0
M  V30 3910 H 366.842 6.78746 1.4943 0
M  V30 3911 H 370.033 4.50038 1.28777 0
M  V30 3912 H 370.206 6.29473 1.53842 0
M  V30 3913 N 363.613 -0.582584 1.46437 0
M  V30 3914 C 364.543 -1.70187 1.59871 0
M  V30 3915 C 365.524 -1.64066 0.449042 0
M  V30 3916 O 366.709 -1.82081 0.6753 0
M  V30 3917 C 363.839 -3.08827 1.58881 0
M  V30 3918 C 362.793 -3.29779 2.72819 0
M  V30 3919 C 362.119 -4.68947 2.5689 0
M  V30 3920 C 363.419 -3.17601 4.1464 0
M  V30 3921 H 365.113 -1.592 2.53566 0
M  V30 3922 H 362.659 -0.764472 1.22032 0
M  V30 3923 H 364.612 -3.86951 1.66873 0
M  V30 3924 H 363.336 -3.20713 0.617306 0
M  V30 3925 H 361.995 -2.54054 2.64296 0
M  V30 3926 H 361.643 -4.77599 1.57823 0
M  V30 3927 H 361.343 -4.83919 3.33312 0
M  V30 3928 H 362.867 -5.4924 2.66773 0
M  V30 3929 H 364.281 -3.8557 4.24274 0
M  V30 3930 H 362.678 -3.44094 4.9165 0
M  V30 3931 H 363.748 -2.14681 4.34788 0
M  V30 3932 N 365.091 -1.34144 -0.827227 0
M  V30 3933 C 366.001 -1.27428 -1.96975 0
M  V30 3934 C 367.017 -0.182728 -1.73038 0
M  V30 3935 O 368.193 -0.408426 -1.97215 0
M  V30 3936 C 365.258 -1.02526 -3.31194 0
M  V30 3937 C 364.319 -2.20796 -3.68168 0
M  V30 3938 C 363.552 -1.97073 -4.95982 0
M  V30 3939 O 363.775 -0.926822 -5.6282 0
M  V30 3940 O 362.709 -2.83912 -5.30733 0
M  V30 3941 H 366.535 -2.23537 -2.05584 0
M  V30 3942 H 364.12 -1.14307 -0.961989 0
M  V30 3943 H 366.002 -0.904026 -4.11589 0
M  V30 3944 H 364.677 -0.0945389 -3.23562 0
M  V30 3945 H 363.584 -2.38477 -2.88235 0
M  V30 3946 H 364.917 -3.12243 -3.8048 0
M  V30 3947 N 366.569 1.04691 -1.17803 0
M  V30 3948 C 367.501 2.12571 -0.857097 0
M  V30 3949 C 368.514 1.62174 0.142647 0
M  V30 3950 O 369.703 1.78301 -0.0843387 0
M  V30 3951 C 366.803 3.37915 -0.258216 0
M  V30 3952 C 365.976 4.1757 -1.30207 0
M  V30 3953 C 365.035 5.2125 -0.720029 0
M  V30 3954 O 364.061 5.51888 -1.39314 0
M  V30 3955 N 365.263 5.78466 0.485507 0
M  V30 3956 H 368.028 2.40698 -1.78562 0
M  V30 3957 H 365.589 1.20831 -1.07757 0
M  V30 3958 H 367.581 4.04442 0.144584 0
M  V30 3959 H 366.151 3.07281 0.574199 0
M  V30 3960 H 365.371 3.46458 -1.88043 0
M  V30 3961 H 366.659 4.67586 -2.00601 0
M  V30 3962 H 366.057 5.55866 1.05022 0
M  V30 3963 H 364.614 6.4649 0.830307 0
M  V30 3964 N 368.047 0.979072 1.23499 0
M  V30 3965 C 369.295 0.645941 1.91499 0
M  V30 3966 C 369.616 -0.822948 1.76784 0
M  V30 3967 O 368.886 -1.58854 1.14639 0
M  V30 3968 H 367.466 0.235919 0.708767 0
M  V30 3969 H 370.128 1.2426 1.50152 0
M  V30 3970 H 369.224 0.896411 2.9895 0
M  V30 3971 N 369.525 -1.3858 0.750561 0
M  V30 3972 C 370.488 -2.28836 0.129152 0
M  V30 3973 C 371.488 -1.47045 -0.650714 0
M  V30 3974 O 372.678 -1.6753 -0.477428 0
M  V30 3975 C 369.81 -3.30751 -0.825622 0
M  V30 3976 H 371.003 -2.85294 0.924516 0
M  V30 3977 H 368.556 -1.47489 0.517376 0
M  V30 3978 H 369.291 -2.79378 -1.64677 0
M  V30 3979 H 369.076 -3.91177 -0.268852 0
M  V30 3980 H 370.566 -3.98249 -1.2565 0
M  V30 3981 N 371.003 -0.499398 -1.49478 0
M  V30 3982 C 372.252 0.0475259 -2.01644 0
M  V30 3983 C 372.565 1.38195 -1.38425 0
M  V30 3984 O 373.771 2.01547 -1.8191 0
M  V30 3985 C 372.227 0.135164 -3.59646 0
M  V30 3986 C 371.835 -1.19252 -4.31837 0
M  V30 3987 C 373.579 0.632538 -4.19761 0
M  V30 3988 C 371.486 -1.06713 -5.81693 0
M  V30 3989 H 370.416 0.0215349 -0.753692 0
M  V30 3990 H 373.067 -0.638577 -1.7203 0
M  V30 3991 H 371.449 0.885681 -3.85969 0
M  V30 3992 H 372.623 -1.9562 -4.17216 0
M  V30 3993 H 370.938 -1.62321 -3.83459 0
M  V30 3994 H 373.535 0.743833 -5.29501 0
M  V30 3995 H 373.878 1.63098 -3.83021 0
M  V30 3996 H 374.411 -0.0613987 -3.97753 0
M  V30 3997 H 371.15 -2.03979 -6.22955 0
M  V30 3998 H 370.67 -0.344307 -5.98811 0
M  V30 3999 H 372.349 -0.745208 -6.42694 0
M  V30 4000 N 372.481 1.55866 -0.233164 0
M  V30 4001 C 373.411 2.23783 0.666599 0
M  V30 4002 C 374.392 1.21343 1.19205 0
M  V30 4003 O 375.577 1.4996 1.23392 0
M  V30 4004 C 372.707 2.92671 1.86978 0
M  V30 4005 C 371.661 4.01682 1.47768 0
M  V30 4006 C 370.987 4.57926 2.76058 0
M  V30 4007 C 372.287 5.18126 0.658993 0
M  V30 4008 H 373.981 2.99232 0.100306 0
M  V30 4009 H 371.527 1.43924 0.046804 0
M  V30 4010 H 373.48 3.3888 2.50476 0
M  V30 4011 H 372.204 2.14688 2.46123 0
M  V30 4012 H 370.863 3.56222 0.866106 0
M  V30 4013 H 370.511 3.76659 3.33372 0
M  V30 4014 H 370.211 5.31505 2.50552 0
M  V30 4015 H 371.735 5.06859 3.40479 0
M  V30 4016 H 373.149 5.60644 1.19795 0
M  V30 4017 H 371.546 5.98009 0.500552 0
M  V30 4018 H 372.616 4.83763 -0.331856 0
M  V30 4019 N 373.959 -0.0401083 1.57549 0
M  V30 4020 C 375.184 -0.748931 1.93406 0
M  V30 4021 C 375.609 -1.68686 0.832274 0
M  V30 4022 O 374.967 -1.80047 -0.212818 0
M  V30 4023 C 375.015 -1.4916 3.28304 0
M  V30 4024 O 374.119 -2.6042 3.19774 0
M  V30 4025 H 373.46 -0.202212 0.63246 0
M  V30 4026 H 375.99 0.00112086 2.046 0
M  V30 4027 H 376 -1.86395 3.62934 0
M  V30 4028 H 374.675 -0.80364 4.08062 0
M  V30 4029 H 373.252 -2.25808 2.96758 0
M  V30 4030 N 375.437 -1.54477 -0.31217 0
M  V30 4031 C 376.367 -1.87652 -1.38957 0
M  V30 4032 C 377.348 -0.734358 -1.53431 0
M  V30 4033 O 378.533 -0.98911 -1.67123 0
M  V30 4034 C 375.663 -2.11396 -2.75552 0
M  V30 4035 C 374.617 -3.27243 -2.75855 0
M  V30 4036 C 373.943 -3.36382 -4.15633 0
M  V30 4037 C 375.243 -4.64622 -2.38587 0
M  V30 4038 H 376.937 -2.77887 -1.11442 0
M  V30 4039 H 374.483 -1.33707 -0.534655 0
M  V30 4040 H 376.436 -2.33189 -3.51 0
M  V30 4041 H 375.16 -1.17921 -3.04569 0
M  V30 4042 H 373.819 -3.05356 -2.02863 0
M  V30 4043 H 373.467 -2.40445 -4.41809 0
M  V30 4044 H 373.167 -4.14249 -4.1674 0
M  V30 4045 H 374.691 -3.60422 -4.92877 0
M  V30 4046 H 376.105 -4.86219 -3.03749 0
M  V30 4047 H 374.502 -5.45121 -2.50925 0
M  V30 4048 H 375.572 -4.66097 -1.33723 0
M  V30 4049 N 376.915 0.57481 -1.46744 0
M  V30 4050 C 378.14 1.36341 -1.56288 0
M  V30 4051 C 378.565 1.86954 -0.207347 0
M  V30 4052 O 377.923 1.62006 0.813871 0
M  V30 4053 C 377.971 2.52147 -2.57787 0
M  V30 4054 O 377.075 3.53834 -2.11838 0
M  V30 4055 H 376.416 0.405713 -0.525636 0
M  V30 4056 H 378.946 0.696453 -1.92382 0
M  V30 4057 H 378.956 2.98958 -2.77648 0
M  V30 4058 H 377.631 2.14663 -3.5622 0
M  V30 4059 H 376.208 3.1345 -2.01999 0
M  V30 4060 N 378.394 1.34581 0.820102 0
M  V30 4061 C 379.805 1.24298 1.39309 0
M  V30 4062 C 380.156 -0.130351 1.95767 0
M  V30 4063 O 379.281 -1.0308 1.90272 0
M  V30 4064 C 379.876 2.25054 2.53251 0
M  V30 4065 C 378.435 2.18552 3.0645 0
M  V30 4066 C 377.582 2.11503 1.79337 0
M  V30 4067 H 380.533 1.45906 0.624262 0
M  V30 4068 H 380.554 1.86917 3.31425 0
M  V30 4069 H 380.066 3.24996 2.1213 0
M  V30 4070 H 378.167 1.21976 3.52069 0
M  V30 4071 H 378.28 3.0993 3.65349 0
M  V30 4072 H 376.644 1.57268 2.00347 0
M  V30 4073 H 377.427 3.13284 1.40386 0
M  V30 4074 N 379.872 -1.04064 1.18357 0
M  V30 4075 C 380.782 -2.15569 0.925596 0
M  V30 4076 C 381.798 -1.7365 -0.110295 0
M  V30 4077 O 382.974 -2.01273 0.0716218 0
M  V30 4078 C 380.039 -3.43704 0.454836 0
M  V30 4079 C 379.1 -4.00004 1.55869 0
M  V30 4080 C 378.333 -5.22023 1.1103 0
M  V30 4081 O 378.556 -5.70392 -0.0309756 0
M  V30 4082 O 377.49 -5.70856 1.90805 0
M  V30 4083 H 381.316 -2.40187 1.8586 0
M  V30 4084 H 378.901 -1.1402 0.965394 0
M  V30 4085 H 380.783 -4.20923 0.200382 0
M  V30 4086 H 379.458 -3.20559 -0.449876 0
M  V30 4087 H 378.365 -3.24172 1.86716 0
M  V30 4088 H 379.698 -4.2749 2.43953 0
M  V30 4089 N 381.35 -0.985608 -1.22978 0
M  V30 4090 C 382.766 -0.695104 -1.43668 0
M  V30 4091 C 382.966 0.736866 -1.87543 0
M  V30 4092 O 382.022 1.50868 -2.02473 0
M  V30 4093 C 383.335 -1.69447 -2.48412 0
M  V30 4094 C 384.883 -1.70909 -2.62219 0
M  V30 4095 C 385.358 -2.6969 -3.70178 0
M  V30 4096 N 386.849 -2.6824 -3.77626 0
M  V30 4097 C 387.584 -3.41339 -4.60733 0
M  V30 4098 N 387.08 -4.24015 -5.4789 0
M  V30 4099 N 388.873 -3.30079 -4.54977 0
M  V30 4100 H 381.024 -1.91054 -0.928016 0
M  V30 4101 H 383.287 -0.823553 -0.469536 0
M  V30 4102 H 382.993 -2.7188 -2.23102 0
M  V30 4103 H 382.867 -1.48147 -3.46889 0
M  V30 4104 H 385.254 -0.691785 -2.86877 0
M  V30 4105 H 385.335 -1.96276 -1.6404 0
M  V30 4106 H 384.979 -3.71566 -3.46268 0
M  V30 4107 H 384.909 -2.41595 -4.67909 0
M  V30 4108 H 387.4 -2.08243 -3.15346 0
M  V30 4109 H 387.713 -4.76636 -6.08308 0
M  V30 4110 H 386.058 -4.28104 -5.47496 0
M  V30 4111 H 389.249 -2.64937 -3.85909 0
M  V30 4112 H 389.422 -3.87308 -5.19516 0
M  V30 4113 N 382.828 1.3818 -0.7579 0
M  V30 4114 C 384.075 2.00019 -0.315985 0
M  V30 4115 C 384.403 1.60163 1.10355 0
M  V30 4116 O 383.658 0.83264 1.77103 0
M  V30 4117 C 383.957 3.55252 -0.391218 0
M  V30 4118 C 383.623 4.14834 -1.76702 0
M  V30 4119 C 382.285 4.30821 -2.14353 0
M  V30 4120 C 384.637 4.47658 -2.66931 0
M  V30 4121 C 381.965 4.76928 -3.41696 0
M  V30 4122 C 384.317 4.95184 -3.93669 0
M  V30 4123 C 382.981 5.09377 -4.31383 0
M  V30 4124 H 382.251 0.731923 -0.115627 0
M  V30 4125 H 384.898 1.65161 -0.969223 0
M  V30 4126 H 383.203 3.90273 0.34558 0
M  V30 4127 H 384.9 4.00988 -0.030805 0
M  V30 4128 H 381.49 4.02808 -1.46435 0
M  V30 4129 H 385.674 4.34904 -2.39106 0
M  V30 4130 H 380.93 4.86103 -3.70829 0
M  V30 4131 H 385.104 5.19551 -4.63724 0
M  V30 4132 H 382.731 5.44865 -5.30119 0
M  V30 4133 N 384.306 0.507319 1.49211 0
M  V30 4134 C 385.555 -0.0368315 2.01666 0
M  V30 4135 C 385.868 -1.37459 1.39156 0
M  V30 4136 O 387.074 -2.00579 1.82976 0
M  V30 4137 C 385.53 -0.116089 3.59713 0
M  V30 4138 C 385.138 1.2154 4.31198 0
M  V30 4139 C 386.882 -0.610268 4.2009 0
M  V30 4140 C 384.789 1.09796 5.81119 0
M  V30 4141 H 383.719 -0.0175376 0.753796 0
M  V30 4142 H 386.37 0.647691 1.71689 0
M  V30 4143 H 384.752 -0.8652 3.86433 0
M  V30 4144 H 385.926 1.9783 4.16173 0
M  V30 4145 H 384.241 1.64352 3.82593 0
M  V30 4146 H 386.838 -0.715742 5.29888 0
M  V30 4147 H 387.181 -1.61064 3.8388 0
M  V30 4148 H 387.714 0.0824916 3.97714 0
M  V30 4149 H 384.453 2.0728 6.21864 0
M  V30 4150 H 383.973 0.376058 5.9862 0
M  V30 4151 H 385.652 0.779281 6.4229 0
M  V30 4152 N 385.784 -1.5574 0.241426 0
M  V30 4153 C 386.714 -2.24133 -0.654722 0
M  V30 4154 C 387.695 -1.21974 -1.1856 0
M  V30 4155 O 388.88 -1.50612 -1.22595 0
M  V30 4156 C 386.01 -2.93659 -1.85423 0
M  V30 4157 C 384.964 -4.0246 -1.45636 0
M  V30 4158 C 384.29 -4.59383 -2.73626 0
M  V30 4159 C 385.59 -5.18468 -0.631506 0
M  V30 4160 H 387.284 -2.99281 -0.0844353 0
M  V30 4161 H 384.83 -1.43947 -0.0391707 0
M  V30 4162 H 386.783 -3.40203 -2.48676 0
M  V30 4163 H 385.507 -2.15991 -2.44981 0
M  V30 4164 H 384.166 -3.56676 -0.847202 0
M  V30 4165 H 383.814 -3.78422 -3.3137 0
M  V30 4166 H 383.514 -5.32826 -2.4773 0
M  V30 4167 H 385.038 -5.08658 -3.37786 0
M  V30 4168 H 386.452 -5.61272 -1.1682 0
M  V30 4169 H 384.849 -5.98266 -0.468831 0
M  V30 4170 H 385.919 -4.8358 0.357506 0
M  V30 4171 N 387.262 0.0317525 -1.57568 0
M  V30 4172 C 388.502 0.727979 -1.90997 0
M  V30 4173 C 388.866 1.72664 -0.839708 0
M  V30 4174 O 390.067 2.47092 -1.05825 0
M  V30 4175 C 388.338 1.38239 -3.29583 0
M  V30 4176 S 389.897 2.10814 -3.84841 0
M  V30 4177 H 386.715 0.241226 -0.668828 0
M  V30 4178 H 389.317 -0.0173037 -1.95492 0
M  V30 4179 H 388.021 0.642288 -4.05343 0
M  V30 4180 H 387.552 2.16628 -3.28384 0
M  V30 4181 H 389.567 3.3792 -3.63352 0
M  V30 4182 N 388.74 1.54641 0.303973 0
M  V30 4183 C 390.017 1.64455 1.05896 0
M  V30 4184 C 390.397 0.490923 2.05312 0
M  V30 4185 O 389.745 -0.512685 2.22674 0
M  V30 4186 C 389.955 3.02331 1.74347 0
M  V30 4187 C 391.303 3.59045 2.26653 0
M  V30 4188 O 392.327 3.04764 1.84384 0
M  V30 4189 O 391.186 4.54081 3.04093 0
M  V30 4190 H 388.28 0.666729 0.489287 0
M  V30 4191 H 390.826 1.66986 0.302298 0
M  V30 4192 H 389.598 3.77734 1.02142 0
M  V30 4193 H 389.221 3.03565 2.56777 0
M  V30 4194 N 390.218 -0.567019 1.47046 0
M  V30 4195 C 391.166 -1.69593 1.59188 0
M  V30 4196 C 392.16 -1.63046 0.459609 0
M  V30 4197 O 393.366 -1.6835 0.637058 0
M  V30 4198 H 389.741 -0.560993 0.500791 0
M  V30 4199 H 391.712 -1.56488 2.54075 0
M  V30 4200 C 390.461 -3.07964 1.61411 0
M  V30 4201 H 389.784 -3.13679 2.47881 0
M  V30 4202 H 391.224 -3.86671 1.73958 0
M  V30 4203 C 389.683 -3.35123 0.34559 0
M  V30 4204 O 390.213 -3.97812 -0.557521 0
M  V30 4205 N 388.419 -2.89699 0.22864 0
M  V30 4206 H 387.966 -2.38863 0.964479 0
M  V30 4207 H 387.924 -3.08242 -0.619192 0
M  V30 4208 N 391.696 -1.35014 -0.812953 0
M  V30 4209 C 392.921 -1.31187 -1.60639 0
M  V30 4210 C 393.346 0.109382 -1.87782 0
M  V30 4211 O 392.704 1.07424 -1.46047 0
M  V30 4212 C 392.752 -2.11809 -2.91838 0
M  V30 4213 O 391.856 -1.49444 -3.8437 0
M  V30 4214 H 391.197 -0.450084 -0.488181 0
M  V30 4215 H 393.727 -1.77963 -1.00947 0
M  V30 4216 H 393.737 -2.23531 -3.41318 0
M  V30 4217 H 392.412 -3.15137 -2.71407 0
M  V30 4218 H 390.989 -1.46524 -3.42907 0
M  V30 4219 N 393.175 1.03435 -1.18907 0
M  V30 4220 C 394.085 2.15075 -0.937015 0
M  V30 4221 C 395.101 1.73706 0.101085 0
M  V30 4222 O 396.277 2.01232 -0.0822948 0
M  V30 4223 C 393.342 3.43458 -0.473057 0
M  V30 4224 C 392.403 3.99172 -1.57989 0
M  V30 4225 C 391.636 5.21427 -1.13797 0
M  V30 4226 O 391.859 5.704 0.000725941 0
M  V30 4227 O 390.793 5.69837 -1.9383 0
M  V30 4228 H 394.619 2.39198 -1.87131 0
M  V30 4229 H 392.204 1.13506 -0.971427 0
M  V30 4230 H 394.086 4.20811 -0.222702 0
M  V30 4231 H 392.761 3.20793 0.432869 0
M  V30 4232 H 391.668 3.23178 -1.88433 0
M  V30 4233 H 393.001 4.2619 -2.46217 0
M  V30 4234 N 394.653 0.992116 1.22453 0
M  V30 4235 C 395.902 0.662992 1.90492 0
M  V30 4236 C 396.215 -0.808407 1.78113 0
M  V30 4237 O 397.421 -1.24908 2.41061 0
M  V30 4238 C 395.877 1.1353 3.41524 0
M  V30 4239 C 395.485 2.63187 3.62542 0
M  V30 4240 C 397.229 0.880465 4.15269 0
M  V30 4241 C 395.136 3.04024 5.0727 0
M  V30 4242 H 394.066 0.244278 0.713333 0
M  V30 4243 H 396.717 1.20157 1.38688 0
M  V30 4244 H 395.099 0.52485 3.92506 0
M  V30 4245 H 396.273 3.2957 3.22056 0
M  V30 4246 H 394.588 2.86543 3.02129 0
M  V30 4247 H 397.185 1.16128 5.21937 0
M  V30 4248 H 397.528 -0.183408 4.15896 0
M  V30 4249 H 398.061 1.45307 3.70312 0
M  V30 4250 H 394.8 4.09584 5.11782 0
M  V30 4251 H 394.32 2.42343 5.48662 0
M  V30 4252 H 395.999 2.95282 5.75689 0
M  V30 4253 N 396.131 -1.37776 0.765217 0
M  V30 4254 C 397.063 -2.28958 0.105361 0
M  V30 4255 C 398.076 -1.48316 -0.67128 0
M  V30 4256 O 399.265 -1.71046 -0.51045 0
M  V30 4257 C 396.365 -3.27421 -0.874569 0
M  V30 4258 C 395.538 -4.37132 -0.153123 0
M  V30 4259 C 394.597 -5.1571 -1.04547 0
M  V30 4260 O 393.623 -5.66896 -0.511672 0
M  V30 4261 N 394.825 -5.29808 -2.37243 0
M  V30 4262 H 397.59 -2.86227 0.888495 0
M  V30 4263 H 395.151 -1.49682 0.617 0
M  V30 4264 H 397.143 -3.7687 -1.47483 0
M  V30 4265 H 395.713 -2.70967 -1.55871 0
M  V30 4266 H 394.933 -3.89166 0.627975 0
M  V30 4267 H 396.221 -5.07625 0.345643 0
M  V30 4268 H 395.619 -4.89793 -2.83054 0
M  V30 4269 H 394.176 -5.82589 -2.9229 0
M  V30 4270 N 397.609 -0.515225 -1.4894 0
M  V30 4271 C 398.837 0.0206034 -2.0689 0
M  V30 4272 C 399.252 1.29514 -1.37374 0
M  V30 4273 O 398.609 1.76698 -0.456529 0
M  V30 4274 C 398.66 0.26351 -3.60538 0
M  V30 4275 O 398.381 -0.960517 -4.27441 0
M  V30 4276 C 399.882 0.841383 -4.35242 0
M  V30 4277 H 397.102 -0.0268608 -0.670462 0
M  V30 4278 H 399.646 -0.716651 -1.91532 0
M  V30 4279 H 397.801 0.950777 -3.75552 0
M  V30 4280 H 398.215 -0.73212 -5.19365 0
M  V30 4281 H 399.689 0.96085 -5.43573 0
M  V30 4282 H 400.166 1.8427 -3.98674 0
M  V30 4283 H 400.772 0.191143 -4.2487 0
M  V30 4284 N 399.087 1.5561 -0.249682 0
M  V30 4285 C 400.503 1.59254 0.105103 0
M  V30 4286 C 400.703 1.26685 1.56694 0
M  V30 4287 O 399.759 1.0155 2.31179 0
M  V30 4288 C 401.072 2.99687 -0.246592 0
M  V30 4289 C 402.62 3.12416 -0.191118 0
M  V30 4290 C 403.095 4.55074 -0.516885 0
M  V30 4291 N 404.586 4.60835 -0.467489 0
M  V30 4292 C 405.321 5.69201 -0.69268 0
M  V30 4293 N 404.817 6.85817 -0.981146 0
M  V30 4294 N 406.61 5.58635 -0.623198 0
M  V30 4295 H 398.761 1.75049 -1.20298 0
M  V30 4296 H 401.024 0.815003 -0.484225 0
M  V30 4297 H 400.73 3.28267 -1.26228 0
M  V30 4298 H 400.604 3.74798 0.424962 0
M  V30 4299 H 402.991 2.83615 0.815247 0
M  V30 4300 H 403.072 2.39573 -0.896563 0
M  V30 4301 H 402.716 4.84596 -1.52082 0
M  V30 4302 H 402.646 5.26181 0.210068 0
M  V30 4303 H 405.137 3.7705 -0.253373 0
M  V30 4304 H 405.45 7.64341 -1.14032 0
M  V30 4305 H 403.795 6.87494 -1.01865 0
M  V30 4306 H 406.986 4.66406 -0.397863 0
M  V30 4307 H 407.159 6.43017 -0.802093 0
M  V30 4308 N 400.565 -0.0233959 1.57583 0
M  V30 4309 C 401.976 -0.56927 1.77809 0
M  V30 4310 C 402.327 -1.75284 0.881472 0
M  V30 4311 O 401.452 -2.1626 0.0777805 0
M  V30 4312 C 402.047 -1.03949 3.22459 0
M  V30 4313 C 400.606 -1.53084 3.43864 0
M  V30 4314 C 399.753 -0.471454 2.73263 0
M  V30 4315 H 402.704 0.202825 1.57399 0
M  V30 4316 H 402.725 -1.90661 3.29285 0
M  V30 4317 H 402.237 -0.177865 3.87692 0
M  V30 4318 H 400.338 -2.41414 2.83814 0
M  V30 4319 H 400.451 -1.57443 4.52491 0
M  V30 4320 H 398.815 -0.927788 2.37201 0
M  V30 4321 H 399.598 0.380808 3.41181 0
M  V30 4322 N 402.043 -1.548 -0.295768 0
M  V30 4323 C 403.292 -1.73538 -1.02798 0
M  V30 4324 C 403.605 -0.531159 -1.8825 0
M  V30 4325 O 404.811 -0.600458 -2.64777 0
M  V30 4326 C 403.267 -3.07051 -1.87744 0
M  V30 4327 C 402.875 -4.34968 -1.07269 0
M  V30 4328 C 404.619 -3.35146 -2.60533 0
M  V30 4329 C 402.526 -5.5953 -1.91521 0
M  V30 4330 H 401.456 -0.646794 -0.387522 0
M  V30 4331 H 404.107 -1.81278 -0.284718 0
M  V30 4332 H 402.489 -2.93289 -2.66078 0
M  V30 4333 H 403.663 -4.5958 -0.335117 0
M  V30 4334 H 401.978 -4.13847 -0.460384 0
M  V30 4335 H 404.575 -4.2541 -3.23929 0
M  V30 4336 H 404.918 -2.54255 -3.29636 0
M  V30 4337 H 405.451 -3.49902 -1.89244 0
M  V30 4338 H 402.19 -6.43103 -1.26878 0
M  V30 4339 H 401.71 -5.39096 -2.62937 0
M  V30 4340 H 403.389 -5.96982 -2.49442 0
M  V30 4341 N 403.521 0.559213 -1.47345 0
M  V30 4342 C 404.468 1.66645 -1.59682 0
M  V30 4343 C 405.438 1.60168 -0.43994 0
M  V30 4344 O 406.623 1.79031 -0.659736 0
M  V30 4345 C 403.763 3.04969 -1.61518 0
M  V30 4346 C 402.876 3.21897 -2.88108 0
M  V30 4347 C 402.011 4.50608 -2.81294 0
M  V30 4348 C 401.05 4.60961 -4.02717 0
M  V30 4349 N 400.187 5.81024 -3.94151 0
M  V30 4350 H 405.027 1.55439 -2.54249 0
M  V30 4351 H 402.564 0.757219 -1.26113 0
M  V30 4352 H 404.522 3.85064 -1.60566 0
M  V30 4353 H 403.152 3.15015 -0.704645 0
M  V30 4354 H 402.204 2.35248 -2.98936 0
M  V30 4355 H 403.516 3.25412 -3.78032 0
M  V30 4356 H 402.67 5.3896 -2.7858 0
M  V30 4357 H 401.409 4.49568 -1.89049 0
M  V30 4358 H 400.414 3.71021 -4.05738 0
M  V30 4359 H 401.639 4.63761 -4.96087 0
M  V30 4360 H 399.585 5.80938 -3.04708 0
M  V30 4361 H 399.502 5.85909 -4.77752 0
M  V30 4362 H 400.77 6.71744 -3.9545 0
M  V30 4363 N 404.999 1.35443 0.805782 0
M  V30 4364 C 406.247 1.28507 1.55982 0
M  V30 4365 C 406.568 -0.140046 1.94496 0
M  V30 4366 O 405.838 -1.07666 1.63661 0
M  V30 4367 H 404.418 0.472676 0.578434 0
M  V30 4368 H 407.08 1.69555 0.961098 0
M  V30 4369 H 406.176 1.90148 2.47488 0
M  V30 4370 N 406.477 -1.02803 1.19454 0
M  V30 4371 C 407.705 -1.79841 1.02297 0
M  V30 4372 C 408.12 -1.83879 -0.428259 0
M  V30 4373 O 407.477 -1.28345 -1.29745 0
M  V30 4374 C 407.528 -3.24852 1.58598 0
M  V30 4375 O 407.249 -3.21097 2.98041 0
M  V30 4376 C 408.75 -4.18485 1.46236 0
M  V30 4377 H 405.97 -0.565936 0.360496 0
M  V30 4378 H 408.514 -1.2948 1.58288 0
M  V30 4379 H 406.669 -3.72401 1.06753 0
M  V30 4380 H 407.083 -4.12033 3.24545 0
M  V30 4381 H 408.557 -5.18121 1.90407 0
M  V30 4382 H 409.034 -4.37254 0.41301 0
M  V30 4383 H 409.64 -3.76811 1.97215 0
M  V30 4384 N 407.956 -0.998596 -1.21925 0
M  V30 4385 C 408.886 -0.573688 -2.26343 0
M  V30 4386 C 409.867 0.402296 -1.65274 0
M  V30 4387 O 411.052 0.291683 -1.91997 0
M  V30 4388 C 408.182 0.106839 -3.47136 0
M  V30 4389 C 407.136 -0.788269 -4.20678 0
M  V30 4390 C 406.462 0.0254927 -5.34694 0
M  V30 4391 C 407.762 -2.08784 -4.78755 0
M  V30 4392 H 409.456 -1.44651 -2.62138 0
M  V30 4393 H 407.002 -0.696975 -1.26009 0
M  V30 4394 H 408.955 0.415531 -4.19346 0
M  V30 4395 H 407.679 1.01424 -3.10452 0
M  V30 4396 H 406.338 -1.08069 -3.50309 0
M  V30 4397 H 405.986 0.933989 -4.94253 0
M  V30 4398 H 405.686 -0.570437 -5.84825 0
M  V30 4399 H 407.21 0.328147 -6.09718 0
M  V30 4400 H 408.624 -1.84272 -5.42878 0
M  V30 4401 H 407.021 -2.63307 -5.39249 0
M  V30 4402 H 408.091 -2.76284 -3.98491 0
M  V30 4403 N 409.434 1.37368 -0.772513 0
M  V30 4404 C 410.845 1.8231 -0.402493 0
M  V30 4405 C 411.196 1.6436 1.07146 0
M  V30 4406 O 410.321 1.15514 1.82991 0
M  V30 4407 C 410.916 3.30979 -0.723776 0
M  V30 4408 C 409.475 3.74195 -0.406802 0
M  V30 4409 C 408.622 2.59885 -0.967218 0
M  V30 4410 H 411.573 1.25829 -0.967099 0
M  V30 4411 H 411.594 3.80499 -0.00870832 0
M  V30 4412 H 411.106 3.44011 -1.7966 0
M  V30 4413 H 409.207 3.66732 0.658673 0
M  V30 4414 H 409.32 4.7027 -0.915588 0
M  V30 4415 H 407.684 2.51674 -0.391416 0
M  V30 4416 H 408.467 2.7571 -2.04546 0
M  V30 4417 N 410.912 0.523116 1.48665 0
M  V30 4418 C 412.328 0.180511 1.58576 0
M  V30 4419 C 412.528 -1.31597 1.52592 0
M  V30 4420 O 411.584 -2.0937 1.4114 0
M  V30 4421 C 412.897 0.776949 2.90489 0
M  V30 4422 C 414.445 0.745058 3.04003 0
M  V30 4423 C 414.92 1.31995 4.38567 0
M  V30 4424 N 416.411 1.28162 4.45117 0
M  V30 4425 C 417.146 1.6964 5.47731 0
M  V30 4426 N 416.642 2.18816 6.57337 0
M  V30 4427 N 418.435 1.6092 5.38573 0
M  V30 4428 H 410.586 1.4958 1.50797 0
M  V30 4429 H 412.849 0.621772 0.715614 0
M  V30 4430 H 412.555 1.82732 3.00503 0
M  V30 4431 H 412.429 0.25007 3.7637 0
M  V30 4432 H 414.816 -0.296532 2.93606 0
M  V30 4433 H 414.897 1.30933 2.1975 0
M  V30 4434 H 414.541 2.36043 4.49718 0
M  V30 4435 H 414.471 0.731418 5.21496 0
M  V30 4436 H 416.962 0.92155 3.66491 0
M  V30 4437 H 417.275 2.48478 7.31764 0
M  V30 4438 H 415.62 2.22805 6.58318 0
M  V30 4439 H 418.811 1.22304 4.5184 0
M  V30 4440 H 418.984 1.93567 6.18414 0
M  V30 4441 N 412.39 -1.55475 0.257931 0
M  V30 4442 C 413.32 -2.24815 -0.630912 0
M  V30 4443 C 414.301 -1.23224 -1.17259 0
M  V30 4444 O 415.486 -1.51904 -1.20991 0
M  V30 4445 C 412.616 -2.95609 -1.82298 0
M  V30 4446 C 411.57 -4.03982 -1.41359 0
M  V30 4447 C 410.896 -4.6226 -2.68738 0
M  V30 4448 C 412.196 -5.19109 -0.57648 0
M  V30 4449 H 413.89 -2.99354 -0.0526878 0
M  V30 4450 H 411.436 -1.4398 -0.023901 0
M  V30 4451 H 413.389 -3.42822 -2.45054 0
M  V30 4452 H 412.113 -2.18577 -2.42676 0
M  V30 4453 H 410.772 -3.57555 -0.809324 0
M  V30 4454 H 410.42 -3.81915 -3.27338 0
M  V30 4455 H 410.12 -5.35424 -2.42065 0
M  V30 4456 H 411.644 -5.12212 -3.32372 0
M  V30 4457 H 413.058 -5.62479 -1.10861 0
M  V30 4458 H 411.455 -5.98729 -0.405351 0
M  V30 4459 H 412.525 -4.83174 0.408776 0
M  V30 4460 N 413.868 0.0150385 -1.57593 0
M  V30 4461 C 415.279 0.559832 -1.78109 0
M  V30 4462 C 415.63 1.74814 -0.890756 0
M  V30 4463 O 414.755 2.16216 -0.0892482 0
M  V30 4464 C 415.35 1.02238 -3.23006 0
M  V30 4465 C 413.909 1.51258 -3.44671 0
M  V30 4466 C 413.056 0.456955 -2.73509 0
M  V30 4467 H 416.007 -0.211169 -1.57289 0
M  V30 4468 H 416.028 1.88912 -3.30292 0
M  V30 4469 H 415.54 0.157302 -3.87781 0
M  V30 4470 H 413.641 2.39905 -2.8509 0
M  V30 4471 H 413.754 1.55042 -4.5332 0
M  V30 4472 H 412.118 0.915196 -2.37689 0
M  V30 4473 H 412.901 -0.398896 -3.40975 0
M  V30 4474 N 415.346 1.54954 0.287554 0
M  V30 4475 C 416.623 1.65569 1.04146 0
M  V30 4476 C 417.003 0.512672 2.0478 0
M  V30 4477 O 416.351 -0.489038 2.23205 0
M  V30 4478 C 416.561 3.04163 1.71131 0
M  V30 4479 C 417.909 3.61429 2.22832 0
M  V30 4480 O 418.933 3.06702 1.81141 0
M  V30 4481 O 417.792 4.57281 2.9926 0
M  V30 4482 H 414.886 0.671881 0.482188 0
M  V30 4483 H 417.432 1.67297 0.28457 0
M  V30 4484 H 416.204 3.78796 0.981303 0
M  V30 4485 H 415.827 3.06271 2.53543 0
M  V30 4486 N 416.824 -0.551391 1.4764 0
M  V30 4487 C 418.235 -1.13349 1.48354 0
M  V30 4488 C 418.586 -1.94709 0.241432 0
M  V30 4489 O 417.711 -2.06306 -0.653205 0
M  V30 4490 C 418.306 -2.0623 2.68802 0
M  V30 4491 C 416.865 -2.597 2.72457 0
M  V30 4492 C 416.012 -1.36201 2.41546 0
M  V30 4493 H 418.963 -0.337698 1.55065 0
M  V30 4494 H 418.984 -2.90196 2.46103 0
M  V30 4495 H 418.496 -1.46987 3.59188 0
M  V30 4496 H 416.597 -3.22724 1.86225 0
M  V30 4497 H 416.71 -3.00296 3.73308 0
M  V30 4498 H 415.074 -1.67068 1.9225 0
M  V30 4499 H 415.857 -0.787425 3.34147 0
M  V30 4500 N 418.302 -1.35869 -0.798587 0
M  V30 4501 C 419.234 -1.25305 -1.91915 0
M  V30 4502 C 420.247 -0.174548 -1.61862 0
M  V30 4503 O 421.436 -0.428499 -1.73281 0
M  V30 4504 C 418.536 -0.9086 -3.26493 0
M  V30 4505 C 417.709 -2.08711 -3.84394 0
M  V30 4506 C 416.768 -1.71717 -4.97393 0
M  V30 4507 O 415.794 -2.43692 -5.14396 0
M  V30 4508 N 416.996 -0.645473 -5.769 0
M  V30 4509 H 419.761 -2.21849 -2.01502 0
M  V30 4510 H 417.322 -1.29143 -0.976408 0
M  V30 4511 H 419.314 -0.642455 -3.99568 0
M  V30 4512 H 417.884 -0.0325815 -3.12583 0
M  V30 4513 H 417.104 -2.51659 -3.03416 0
M  V30 4514 H 418.392 -2.87468 -4.19809 0
M  V30 4515 H 417.79 -0.047648 -5.6568 0
M  V30 4516 H 416.347 -0.43913 -6.50319 0
M  V30 4517 N 419.78 1.02168 -1.19998 0
M  V30 4518 C 420.69 2.14069 -0.959774 0
M  V30 4519 C 421.706 1.73804 0.082655 0
M  V30 4520 O 422.882 2.01133 -0.103633 0
M  V30 4521 C 419.947 3.42936 -0.509459 0
M  V30 4522 C 419.008 3.97474 -1.62213 0
M  V30 4523 C 418.241 5.2019 -1.19321 0
M  V30 4524 O 418.464 5.70369 -0.0597726 0
M  V30 4525 O 417.398 5.67749 -1.99863 0
M  V30 4526 H 421.224 2.37199 -1.89658 0
M  V30 4527 H 418.809 1.12469 -0.983411 0
M  V30 4528 H 420.691 4.20551 -0.267322 0
M  V30 4529 H 419.366 3.21234 0.398821 0
M  V30 4530 H 418.273 3.21161 -1.9185 0
M  V30 4531 H 419.606 4.23555 -2.50723 0
M  V30 4532 N 421.258 1.00505 1.21394 0
M  V30 4533 C 422.535 0.603277 1.86064 0
M  V30 4534 C 422.915 -0.919095 1.90042 0
M  V30 4535 O 422.263 -1.80607 1.39977 0
M  V30 4536 C 422.473 1.23772 3.26315 0
M  V30 4537 C 423.821 1.34586 4.02705 0
M  V30 4538 O 424.845 1.19304 3.35626 0
M  V30 4539 O 423.704 1.59169 5.22807 0
M  V30 4540 H 420.798 0.206634 0.800769 0
M  V30 4541 H 423.344 1.1017 1.29076 0
M  V30 4542 H 422.116 2.27848 3.18121 0
M  V30 4543 H 421.739 0.725648 3.90922 0
M  V30 4544 N 422.737 -1.36956 0.779787 0
M  V30 4545 C 423.962 -2.04283 0.358224 0
M  V30 4546 C 424.387 -1.58422 -1.01411 0
M  V30 4547 O 423.745 -0.748179 -1.65142 0
M  V30 4548 C 423.793 -3.58152 0.419479 0
M  V30 4549 O 422.897 -4.08342 -0.577142 0
M  V30 4550 H 422.238 -0.645967 0.153698 0
M  V30 4551 H 424.768 -1.75108 1.05822 0
M  V30 4552 H 424.778 -4.07041 0.279636 0
M  V30 4553 H 423.453 -3.90886 1.42061 0
M  V30 4554 H 422.03 -3.70751 -0.399755 0
M  V30 4555 N 424.215 -0.530993 -1.48385 0
M  V30 4556 C 425.162 0.231223 -2.29639 0
M  V30 4557 C 426.132 0.932864 -1.37429 0
M  V30 4558 O 427.317 0.933692 -1.66394 0
M  V30 4559 C 424.457 1.27155 -3.2082 0
M  V30 4560 C 423.57 0.578655 -4.28107 0
M  V30 4561 C 422.705 1.602 -5.06467 0
M  V30 4562 C 421.744 0.892625 -6.05556 0
M  V30 4563 N 420.881 1.86157 -6.76971 0
M  V30 4564 H 425.721 -0.467848 -2.94305 0
M  V30 4565 H 423.258 -0.242556 -1.45086 0
M  V30 4566 H 425.216 1.88703 -3.72085 0
M  V30 4567 H 423.846 1.939 -2.58075 0
M  V30 4568 H 422.898 -0.150782 -3.80101 0
M  V30 4569 H 424.21 0.0217065 -4.98795 0
M  V30 4570 H 423.364 2.29173 -5.61751 0
M  V30 4571 H 422.103 2.19285 -4.35621 0
M  V30 4572 H 421.108 0.188829 -5.49476 0
M  V30 4573 H 422.333 0.307878 -6.78402 0
M  V30 4574 H 420.279 2.44147 -6.08875 0
M  V30 4575 H 420.196 1.35608 -7.43738 0
M  V30 4576 H 421.464 2.54325 -7.36844 0
M  V30 4577 N 425.693 1.55336 -0.266172 0
M  V30 4578 C 426.625 2.19544 0.658247 0
M  V30 4579 C 427.638 1.17746 1.12427 0
M  V30 4580 O 428.827 1.44517 1.04772 0
M  V30 4581 C 425.927 2.80032 1.9088 0
M  V30 4582 C 425.1 4.07436 1.59106 0
M  V30 4583 C 424.159 4.52056 2.69317 0
M  V30 4584 O 423.185 5.18023 2.35883 0
M  V30 4585 N 424.387 4.21448 3.99201 0
M  V30 4586 H 427.152 2.99503 0.108754 0
M  V30 4587 H 424.713 1.61667 -0.0869059 0
M  V30 4588 H 426.705 3.06831 2.63888 0
M  V30 4589 H 425.275 2.04119 2.36758 0
M  V30 4590 H 424.495 3.88021 0.695243 0
M  V30 4591 H 425.783 4.90462 1.35367 0
M  V30 4592 H 425.181 3.68528 4.29189 0
M  V30 4593 H 423.738 4.53039 4.68614 0
M  V30 4594 N 427.171 -0.0066808 1.57599 0
M  V30 4595 C 428.134 -0.985035 2.06953 0
M  V30 4596 C 429.134 -1.27663 0.977687 0
M  V30 4597 O 430.324 -1.22293 1.24057 0
M  V30 4598 C 427.456 -2.3118 2.50536 0
M  V30 4599 H 428.649 -0.558255 2.94658 0
M  V30 4600 H 426.202 -0.254011 1.54222 0
M  V30 4601 H 426.937 -2.78561 1.66054 0
M  V30 4602 H 426.722 -2.11338 3.3027 0
M  V30 4603 H 428.212 -3.01377 2.8907 0
M  V30 4604 N 428.649 -1.55105 -0.279332 0
M  V30 4605 C 429.895 -1.75672 -1.01327 0
M  V30 4606 C 430.228 -0.552739 -1.86168 0
M  V30 4607 O 429.503 0.449827 -1.89227 0
M  V30 4608 C 429.786 -3.05825 -1.90114 0
M  V30 4609 C 429.639 -4.36565 -1.08309 0
M  V30 4610 C 430.958 -3.31975 -2.8893 0
M  V30 4611 H 428.077 -0.639149 -0.366957 0
M  V30 4612 H 430.719 -1.87833 -0.286154 0
M  V30 4613 H 428.869 -2.95588 -2.52111 0
M  V30 4614 H 430.541 -4.58751 -0.484314 0
M  V30 4615 H 428.784 -4.32076 -0.386362 0
M  V30 4616 H 429.455 -5.23946 -1.73737 0
M  V30 4617 H 431.931 -3.41963 -2.37067 0
M  V30 4618 H 430.807 -4.2432 -3.48201 0
M  V30 4619 H 431.068 -2.51309 -3.63725 0
M  V30 4620 N 430.127 0.543554 -1.4793 0
M  V30 4621 C 431.074 1.64942 -1.6144 0
M  V30 4622 C 432.044 1.59692 -0.456903 0
M  V30 4623 O 433.229 1.78321 -0.678688 0
M  V30 4624 C 430.369 3.03238 -1.64744 0
M  V30 4625 C 429.482 3.18823 -2.91506 0
M  V30 4626 C 428.617 4.47599 -2.86057 0
M  V30 4627 C 427.656 4.56664 -4.07584 0
M  V30 4628 N 426.793 5.76811 -4.00292 0
M  V30 4629 H 431.633 1.52733 -2.55884 0
M  V30 4630 H 429.17 0.7438 -1.2691 0
M  V30 4631 H 431.128 3.83339 -1.64641 0
M  V30 4632 H 429.758 3.1425 -0.738017 0
M  V30 4633 H 428.81 2.32064 -3.01414 0
M  V30 4634 H 430.122 3.21384 -3.81463 0
M  V30 4635 H 429.276 5.35975 -2.84281 0
M  V30 4636 H 428.015 4.47538 -1.93807 0
M  V30 4637 H 427.02 3.66697 -4.09651 0
M  V30 4638 H 428.245 4.58474 -5.00978 0
M  V30 4639 H 426.191 5.77673 -3.10853 0
M  V30 4640 H 426.108 5.80808 -4.8394 0
M  V30 4641 H 427.376 6.67512 -4.02553 0
M  V30 4642 N 431.605 1.3629 0.791371 0
M  V30 4643 C 432.535 1.33137 1.91825 0
M  V30 4644 C 433.516 0.203168 1.68882 0
M  V30 4645 O 434.701 0.400509 1.90025 0
M  V30 4646 C 431.831 1.11793 3.28816 0
M  V30 4647 C 430.785 2.21417 3.66277 0
M  V30 4648 C 430.111 1.85218 5.01596 0
M  V30 4649 C 431.411 3.63489 3.75064 0
M  V30 4650 H 433.105 2.2743 1.9472 0
M  V30 4651 H 430.651 1.09479 0.935437 0
M  V30 4652 H 432.604 1.08222 4.07266 0
M  V30 4653 H 431.328 0.139501 3.26302 0
M  V30 4654 H 429.987 2.2411 2.90121 0
M  V30 4655 H 429.635 0.859544 4.95602 0
M  V30 4656 H 429.335 2.58611 5.27631 0
M  V30 4657 H 430.859 1.832 5.82469 0
M  V30 4658 H 432.273 3.63034 4.43711 0
M  V30 4659 H 430.67 4.35771 4.12582 0
M  V30 4660 H 431.74 3.98536 2.76219 0
M  V30 4661 N 433.083 -1.0153 1.20538 0
M  V30 4662 C 434.046 -2.0826 0.957098 0
M  V30 4663 C 435.046 -1.60657 -0.0678655 0
M  V30 4664 O 436.236 -1.73385 0.168332 0
M  V30 4665 C 433.368 -3.38033 0.441188 0
M  V30 4666 H 434.561 -2.31719 1.90384 0
M  V30 4667 H 432.114 -1.1835 1.02093 0
M  V30 4668 H 432.849 -3.20249 -0.510961 0
M  V30 4669 H 432.634 -3.73911 1.18038 0
M  V30 4670 H 434.124 -4.16613 0.287009 0
M  V30 4671 N 434.561 -1.01147 -1.20859 0
M  V30 4672 C 435.509 -0.57059 -2.25493 0
M  V30 4673 C 436.503 0.388109 -1.64894 0
M  V30 4674 O 437.709 0.258592 -1.78133 0
M  V30 4675 H 434.084 -0.166191 -0.733406 0
M  V30 4676 H 436.055 -1.46411 -2.60012 0
M  V30 4677 C 434.804 0.0805241 -3.47607 0
M  V30 4678 H 434.127 -0.648156 -3.94511 0
M  V30 4679 H 435.567 0.352197 -4.22535 0
M  V30 4680 C 434.026 1.32175 -3.09889 0
M  V30 4681 O 434.556 2.41553 -3.20959 0
M  V30 4682 N 432.762 1.20392 -2.64488 0
M  V30 4683 H 432.309 0.313905 -2.5568 0
M  V30 4684 H 432.267 2.03541 -2.39621 0
M  V30 4685 N 436.039 1.36541 -0.78704 0
M  V30 4686 C 437.264 2.0409 -0.369053 0
M  V30 4687 C 437.689 1.58957 1.00569 0
M  V30 4688 O 437.047 0.756926 1.64743 0
M  V30 4689 C 437.095 3.57924 -0.438466 0
M  V30 4690 O 436.199 4.08642 0.555479 0
M  V30 4691 H 435.54 0.645142 -0.157122 0
M  V30 4692 H 438.07 1.74545 -1.06749 0
M  V30 4693 H 438.08 4.06887 -0.301218 0
M  V30 4694 H 436.755 3.90127 -1.44132 0
M  V30 4695 H 435.332 3.70958 0.380088 0
M  V30 4696 N 437.518 0.538854 1.48102 0
M  V30 4697 C 438.481 -0.208395 2.28251 0
M  V30 4698 C 439.481 -0.859656 1.35892 0
M  V30 4699 O 440.671 -0.71834 1.58699 0
M  V30 4700 C 437.803 -1.30252 3.15035 0
M  V30 4701 H 438.996 0.495407 2.9578 0
M  V30 4702 H 436.549 0.295112 1.53489 0
M  V30 4703 H 437.284 -2.0393 2.52157 0
M  V30 4704 H 437.069 -0.840551 3.82985 0
M  V30 4705 H 438.559 -1.82787 3.75471 0
M  V30 4706 N 438.996 -1.55193 0.274407 0
M  V30 4707 C 439.943 -2.225 -0.613374 0
M  V30 4708 C 440.913 -1.19823 -1.15029 0
M  V30 4709 O 442.098 -1.48362 -1.19973 0
M  V30 4710 C 439.238 -2.94927 -1.79199 0
M  V30 4711 C 438.351 -4.12322 -1.28899 0
M  V30 4712 C 437.486 -4.72394 -2.42934 0
M  V30 4713 C 436.525 -5.81984 -1.89634 0
M  V30 4714 N 435.662 -6.36123 -2.9714 0
M  V30 4715 H 440.502 -2.97982 -0.032756 0
M  V30 4716 H 438.039 -1.47099 -0.00440146 0
M  V30 4717 H 439.997 -3.35134 -2.48478 0
M  V30 4718 H 438.627 -2.2187 -2.34465 0
M  V30 4719 H 437.679 -3.7724 -0.489327 0
M  V30 4720 H 438.991 -4.91355 -0.858587 0
M  V30 4721 H 438.145 -5.15317 -3.20208 0
M  V30 4722 H 436.884 -3.92636 -2.8929 0
M  V30 4723 H 435.889 -5.38511 -1.1084 0
M  V30 4724 H 437.114 -6.6361 -1.44215 0
M  V30 4725 H 435.06 -5.59259 -3.42878 0
M  V30 4726 H 434.977 -7.10427 -2.58515 0
M  V30 4727 H 436.245 -6.83704 -3.74391 0
M  V30 4728 N 440.474 -0.00167713 -1.576 0
M  V30 4729 C 441.751 0.719951 -1.81868 0
M  V30 4730 C 442.131 1.91895 -0.879747 0
M  V30 4731 O 441.479 2.28389 0.0711423 0
M  V30 4732 C 441.689 1.12409 -3.30402 0
M  V30 4733 C 443.037 1.52724 -3.96182 0
M  V30 4734 O 444.061 1.21784 -3.34734 0
M  V30 4735 O 442.92 2.10265 -5.04431 0
M  V30 4736 H 440.014 0.350707 -0.748955 0
M  V30 4737 H 442.56 -0.0272597 -1.69678 0
M  V30 4738 H 441.332 0.269532 -3.90371 0
M  V30 4739 H 440.955 1.93035 -3.47596 0
M  V30 4740 N 441.952 1.55251 0.271103 0
M  V30 4741 C 443.368 1.47133 0.618393 0
M  V30 4742 C 443.568 0.686994 1.89427 0
M  V30 4743 O 442.624 0.206609 2.51653 0
M  V30 4744 C 443.937 2.91361 0.743593 0
M  V30 4745 C 445.485 3.01587 0.837522 0
M  V30 4746 C 445.96 4.47073 0.994483 0
M  V30 4747 N 447.451 4.50909 1.05996 0
M  V30 4748 C 448.186 5.60698 1.20024 0
M  V30 4749 N 447.682 6.80348 1.30759 0
M  V30 4750 N 449.475 5.48444 1.23149 0
M  V30 4751 H 441.626 2.04698 -0.566784 0
M  V30 4752 H 443.889 0.928319 -0.192165 0
M  V30 4753 H 443.595 3.51483 -0.123493 0
M  V30 4754 H 443.469 3.40484 1.62328 0
M  V30 4755 H 445.856 2.4156 1.69507 0
M  V30 4756 H 445.937 2.55713 -0.0668086 0
M  V30 4757 H 445.581 5.07703 0.141582 0
M  V30 4758 H 445.511 4.90605 1.91349 0
M  V30 4759 H 448.002 3.6472 0.989316 0
M  V30 4760 H 448.315 7.59772 1.41303 0
M  V30 4761 H 446.66 6.83156 1.27761 0
M  V30 4762 H 449.851 4.53907 1.14394 0
M  V30 4763 H 450.024 6.34049 1.33738 0
M  V30 4764 N 443.43 -0.535701 1.48216 0
M  V30 4765 C 444.393 -1.623 1.61838 0
M  V30 4766 C 445.393 -1.53087 0.492024 0
M  V30 4767 O 446.583 -1.5686 0.757668 0
M  V30 4768 C 443.715 -3.01907 1.58319 0
M  V30 4769 H 444.908 -1.51564 2.58783 0
M  V30 4770 H 442.461 -0.757317 1.36727 0
M  V30 4771 H 443.196 -3.18155 0.628299 0
M  V30 4772 H 442.981 -3.10003 2.40085 0
M  V30 4773 H 444.471 -3.80969 1.71033 0
M  V30 4774 N 444.908 -1.36708 -0.784132 0
M  V30 4775 C 445.818 -1.3363 -1.92822 0
M  V30 4776 C 446.834 -0.237686 -1.72369 0
M  V30 4777 O 448.01 -0.470962 -1.95816 0
M  V30 4778 C 445.075 -1.13011 -3.27764 0
M  V30 4779 C 444.136 -2.32397 -3.60957 0
M  V30 4780 C 443.369 -2.12752 -4.89461 0
M  V30 4781 O 443.592 -1.10541 -5.59586 0
M  V30 4782 O 442.526 -3.00653 -5.21432 0
M  V30 4783 H 446.352 -2.29964 -1.98369 0
M  V30 4784 H 443.937 -1.1731 -0.925136 0
M  V30 4785 H 445.819 -1.03451 -4.08504 0
M  V30 4786 H 444.494 -0.19743 -3.23097 0
M  V30 4787 H 443.401 -2.47527 -2.80502 0
M  V30 4788 H 444.734 -3.2419 -3.70354 0
M  V30 4789 N 446.386 1.0089 -1.21074 0
M  V30 4790 C 447.334 2.11707 -0.963476 0
M  V30 4791 C 448.328 1.69172 0.0879032 0
M  V30 4792 O 449.534 1.79889 -0.0631415 0
M  V30 4793 H 445.909 0.692026 -0.294287 0
M  V30 4794 H 447.88 2.29743 -1.90422 0
M  V30 4795 C 446.629 3.43473 -0.540509 0
M  V30 4796 H 445.952 3.76634 -1.34114 0
M  V30 4797 H 447.392 4.22044 -0.406777 0
M  V30 4798 C 445.851 3.2849 0.748079 0
M  V30 4799 O 446.381 3.58883 1.8046 0
M  V30 4800 N 444.587 2.81715 0.713081 0
M  V30 4801 H 444.134 2.5718 -0.146973 0
M  V30 4802 H 444.092 2.72071 1.57558 0
M  V30 4803 N 447.864 1.01787 1.20321 0
M  V30 4804 C 448.794 0.609625 2.25401 0
M  V30 4805 C 449.775 -0.375951 1.65893 0
M  V30 4806 O 450.96 -0.261101 1.92437 0
M  V30 4807 C 448.09 -0.0515995 3.47262 0
M  V30 4808 C 447.044 0.855095 4.19371 0
M  V30 4809 C 446.37 0.0595757 5.34667 0
M  V30 4810 C 447.67 2.16374 4.75373 0
M  V30 4811 H 449.364 1.48803 2.59804 0
M  V30 4812 H 446.91 0.716934 1.24884 0
M  V30 4813 H 448.863 -0.348764 4.19954 0
M  V30 4814 H 447.587 -0.964726 3.12027 0
M  V30 4815 H 446.246 1.13628 3.48546 0
M  V30 4816 H 445.894 -0.85524 4.95676 0
M  V30 4817 H 445.594 0.663406 5.83843 0
M  V30 4818 H 447.118 -0.231105 6.10162 0
M  V30 4819 H 448.532 1.92885 5.39878 0
M  V30 4820 H 446.929 2.71853 5.34991 0
M  V30 4821 H 447.999 2.82589 3.94045 0
M  V30 4822 N 449.342 -1.36122 0.79427 0
M  V30 4823 C 450.275 -2.27759 0.141845 0
M  V30 4824 C 451.253 -1.47471 -0.684921 0
M  V30 4825 O 452.437 -1.76759 -0.654857 0
M  V30 4826 C 449.564 -3.29008 -0.804446 0
M  V30 4827 C 448.61 -4.26459 -0.0588617 0
M  V30 4828 S 449.443 -5.20253 1.26873 0
M  V30 4829 C 450.599 -6.25048 0.326562 0
M  V30 4830 H 450.832 -2.82746 0.918818 0
M  V30 4831 H 448.365 -1.42736 0.588722 0
M  V30 4832 H 450.323 -3.87842 -1.34495 0
M  V30 4833 H 448.984 -2.72924 -1.5547 0
M  V30 4834 H 448.177 -4.97973 -0.777087 0
M  V30 4835 H 447.779 -3.71731 0.411309 0
M  V30 4836 H 450.071 -6.75705 -0.492795 0
M  V30 4837 H 451.014 -7.00852 1.01053 0
M  V30 4838 H 451.422 -5.64454 -0.0722627 0
M  V30 4839 N 450.82 -0.546701 -1.47814 0
M  V30 4840 C 452.069 -0.0166497 -2.01693 0
M  V30 4841 C 452.382 1.33721 -1.42752 0
M  V30 4842 O 453.588 1.95658 -1.8823 0
M  V30 4843 C 452.044 0.0206769 -3.59894 0
M  V30 4844 C 451.652 -1.3293 -4.27824 0
M  V30 4845 C 453.396 0.498674 -4.21561 0
M  V30 4846 C 451.303 -1.25165 -5.78003 0
M  V30 4847 H 450.233 -0.0024541 -0.753996 0
M  V30 4848 H 452.884 -0.692984 -1.69912 0
M  V30 4849 H 451.266 0.76244 -3.88591 0
M  V30 4850 H 452.44 -2.08795 -4.10781 0
M  V30 4851 H 450.755 -1.74438 -3.78101 0
M  V30 4852 H 453.352 0.575 -5.31599 0
M  V30 4853 H 453.695 1.5083 -3.88016 0
M  V30 4854 H 454.228 -0.18791 -3.97356 0
M  V30 4855 H 450.967 -2.23695 -6.1615 0
M  V30 4856 H 450.487 -0.53464 -5.97412 0
M  V30 4857 H 452.166 -0.949299 -6.39998 0
M  V30 4858 N 452.299 1.55045 -0.282633 0
M  V30 4859 C 453.545 2.00056 0.332481 0
M  V30 4860 C 453.878 1.1708 1.54939 0
M  V30 4861 O 453.153 0.2427 1.9298 0
M  V30 4862 C 453.436 3.53086 0.70725 0
M  V30 4863 C 453.289 4.46813 -0.517521 0
M  V30 4864 C 454.608 4.12245 1.54084 0
M  V30 4865 H 451.727 0.727268 0.119373 0
M  V30 4866 H 454.369 1.85932 -0.391076 0
M  V30 4867 H 452.519 3.65253 1.32372 0
M  V30 4868 H 454.191 4.46579 -1.15607 0
M  V30 4869 H 452.434 4.18163 -1.1542 0
M  V30 4870 H 453.105 5.51595 -0.211426 0
M  V30 4871 H 455.581 4.03401 1.02013 0
M  V30 4872 H 454.457 5.19515 1.77186 0
M  V30 4873 H 454.718 3.62951 2.52427 0
M  V30 4874 N 453.777 0.010035 1.57597 0
M  V30 4875 C 455.054 -0.710296 1.82248 0
M  V30 4876 C 455.434 -1.91426 0.889911 0
M  V30 4877 O 454.782 -2.28424 -0.0590292 0
M  V30 4878 C 454.992 -1.10655 3.30993 0
M  V30 4879 C 456.34 -1.50621 3.96987 0
M  V30 4880 O 457.364 -1.20007 3.35375 0
M  V30 4881 O 456.223 -2.07587 5.05539 0
M  V30 4882 H 453.317 -0.34673 0.750804 0
M  V30 4883 H 455.863 0.0362578 1.69661 0
M  V30 4884 H 454.635 -0.248826 3.90508 0
M  V30 4885 H 454.258 -1.91189 3.48615 0
M  V30 4886 N 455.255 -1.55392 -0.262866 0
M  V30 4887 C 456.185 -1.91978 -1.32917 0
M  V30 4888 C 457.166 -0.7828 -1.51017 0
M  V30 4889 O 458.351 -1.04178 -1.63892 0
M  V30 4890 C 455.481 -2.20055 -2.68687 0
M  V30 4891 C 454.435 -3.35854 -2.65304 0
M  V30 4892 C 453.761 -3.49435 -4.04721 0
M  V30 4893 C 455.061 -4.71977 -2.23685 0
M  V30 4894 H 456.755 -2.81292 -1.02544 0
M  V30 4895 H 454.301 -1.3534 -0.491846 0
M  V30 4896 H 456.254 -2.44237 -3.43404 0
M  V30 4897 H 454.978 -1.27551 -3.00663 0
M  V30 4898 H 453.637 -3.11655 -1.93045 0
M  V30 4899 H 453.285 -2.54379 -4.33936 0
M  V30 4900 H 452.985 -4.27297 -4.0335 0
M  V30 4901 H 454.509 -3.7592 -4.81161 0
M  V30 4902 H 455.923 -4.95637 -2.88127 0
M  V30 4903 H 454.32 -5.52828 -2.33456 0
M  V30 4904 H 455.39 -4.70115 -1.18827 0
M  V30 4905 N 456.733 0.527833 -1.48498 0
M  V30 4906 C 457.666 1.64892 -1.57753 0
M  V30 4907 C 458.644 1.5687 -0.427867 0
M  V30 4908 O 459.828 1.77311 -0.639764 0
M  V30 4909 C 456.955 3.03301 -1.50752 0
M  V30 4910 C 456.001 3.29675 -2.70586 0
M  V30 4911 S 456.834 3.15712 -4.32535 0
M  V30 4912 C 457.99 4.56564 -4.28136 0
M  V30 4913 H 458.223 1.56792 -2.52594 0
M  V30 4914 H 455.756 0.710959 -1.37057 0
M  V30 4915 H 457.714 3.83123 -1.474 0
M  V30 4916 H 456.375 3.08839 -0.572454 0
M  V30 4917 H 455.568 4.3065 -2.61833 0
M  V30 4918 H 455.17 2.57526 -2.71212 0
M  V30 4919 H 457.462 5.48126 -3.98201 0
M  V30 4920 H 458.405 4.70371 -5.29298 0
M  V30 4921 H 458.813 4.35987 -3.58574 0
M  V30 4922 N 458.211 1.37122 0.776871 0
M  V30 4923 C 459.627 1.1781 1.07671 0
M  V30 4924 C 459.827 0.0107454 2.01497 0
M  V30 4925 O 458.883 -0.650756 2.4397 0
M  V30 4926 C 460.196 2.49451 1.67913 0
M  V30 4927 C 461.744 2.55927 1.80195 0
M  V30 4928 C 462.219 3.87686 2.43851 0
M  V30 4929 N 463.71 3.891 2.51307 0
M  V30 4930 C 464.445 4.87797 3.014 0
M  V30 4931 N 463.941 5.96888 3.51705 0
M  V30 4932 N 465.734 4.75205 3.00227 0
M  V30 4933 H 457.885 2.11843 0.153778 0
M  V30 4934 H 460.148 0.938927 0.130844 0
M  V30 4935 H 459.854 3.35207 1.06439 0
M  V30 4936 H 459.728 2.66169 2.67271 0
M  V30 4937 H 462.115 1.70582 2.40803 0
M  V30 4938 H 462.196 2.43097 0.796069 0
M  V30 4939 H 461.84 4.73444 1.83884 0
M  V30 4940 H 461.77 3.97817 3.45035 0
M  V30 4941 H 464.261 3.10293 2.157 0
M  V30 4942 H 464.574 6.68155 3.88316 0
M  V30 4943 H 462.919 6.0054 3.49824 0
M  V30 4944 H 466.11 3.89103 2.60224 0
M  V30 4945 H 466.283 5.52279 3.38957 0
M  V30 4946 N 459.689 -1.00246 1.21608 0
M  V30 4947 C 460.637 -2.11193 0.97469 0
M  V30 4948 C 461.631 -1.69216 -0.0789303 0
M  V30 4949 O 462.837 -1.79853 0.0726806 0
M  V30 4950 H 459.212 -0.690455 0.297953 0
M  V30 4951 H 461.183 -2.2873 1.91638 0
M  V30 4952 C 459.932 -3.43182 0.558717 0
M  V30 4953 H 459.255 -3.75918 1.3611 0
M  V30 4954 H 460.695 -4.21823 0.429154 0
M  V30 4955 C 459.154 -3.28882 -0.730648 0
M  V30 4956 O 459.684 -3.59835 -1.78554 0
M  V30 4957 N 457.89 -2.8209 -0.698131 0
M  V30 4958 H 457.437 -2.57099 0.16061 0
M  V30 4959 H 457.395 -2.72903 -1.56113 0
M  V30 4960 N 461.167 -1.02423 -1.1978 0
M  V30 4961 C 462.444 -0.632802 -1.85081 0
M  V30 4962 C 462.824 0.888745 -1.9148 0
M  V30 4963 O 462.172 1.78357 -1.42832 0
M  V30 4964 C 462.382 -1.28947 -3.24305 0
M  V30 4965 C 463.73 -1.40976 -4.00513 0
M  V30 4966 O 464.754 -1.24628 -3.33686 0
M  V30 4967 O 463.613 -1.67467 -5.20209 0
M  V30 4968 H 460.707 -0.219348 -0.79738 0
M  V30 4969 H 463.253 -1.12209 -1.27307 0
M  V30 4970 H 462.025 -2.3288 -3.14456 0
M  V30 4971 H 461.648 -0.787748 -3.89718 0
M  V30 4972 N 462.645 1.35699 -0.801477 0
M  V30 4973 C 463.894 1.98165 -0.375979 0
M  V30 4974 C 464.207 1.64306 1.06127 0
M  V30 4975 O 465.413 2.20097 1.58964 0
M  V30 4976 C 463.869 3.54497 -0.621305 0
M  V30 4977 C 463.477 3.9727 -2.07076 0
M  V30 4978 C 465.221 4.23697 -0.26091 0
M  V30 4979 C 463.128 5.46427 -2.26211 0
M  V30 4980 H 462.058 0.741478 -0.136844 0
M  V30 4981 H 464.709 1.54834 -0.984814 0
M  V30 4982 H 463.091 3.95958 0.0574112 0
M  V30 4983 H 464.265 3.66974 -2.78687 0
M  V30 4984 H 462.58 3.40943 -2.39054 0
M  V30 4985 H 465.177 5.33334 -0.381994 0
M  V30 4986 H 465.52 4.0869 0.792344 0
M  V30 4987 H 466.053 3.87639 -0.893339 0
M  V30 4988 H 462.792 5.66396 -3.29963 0
M  V30 4989 H 462.312 5.78309 -1.59119 0
M  V30 4990 H 463.991 6.12819 -2.07513 0
M  V30 4991 N 464.123 0.554532 1.47522 0
M  V30 4992 C 465.371 0.0294208 2.02079 0
M  V30 4993 C 465.692 -1.32411 1.43151 0
M  V30 4994 O 464.962 -1.863 0.605728 0
M  V30 4995 H 463.542 0.00788672 0.746958 0
M  V30 4996 H 466.204 0.723934 1.80956 0
M  V30 4997 H 465.3 -0.0606745 3.12041 0
M  V30 4998 N 465.601 -1.54893 0.290851 0
M  V30 4999 C 467.017 -1.59476 -0.0628432 0
M  V30 5000 C 467.217 -1.30795 -1.5328 0
M  V30 5001 O 466.273 -1.07644 -2.28406 0
M  V30 5002 C 467.586 -2.98928 0.325962 0
M  V30 5003 C 469.134 -3.11799 0.273882 0
M  V30 5004 C 469.609 -4.53544 0.637359 0
M  V30 5005 N 471.1 -4.59433 0.589507 0
M  V30 5006 C 471.835 -5.67164 0.84335 0
M  V30 5007 N 471.331 -6.82975 1.16263 0
M  V30 5008 N 473.124 -5.56786 0.771091 0
M  V30 5009 H 465.275 -1.71798 1.24896 0
M  V30 5010 H 467.538 -0.801879 0.505663 0
M  V30 5011 H 467.244 -3.24805 1.34887 0
M  V30 5012 H 467.118 -3.75793 -0.325441 0
M  V30 5013 H 469.505 -2.85677 -0.739765 0
M  V30 5014 H 469.586 -2.37112 0.959766 0
M  V30 5015 H 469.23 -4.80394 1.64877 0
M  V30 5016 H 469.16 -5.26553 -0.0704866 0
M  V30 5017 H 471.651 -3.76245 0.353252 0
M  V30 5018 H 471.964 -7.61048 1.34257 0
M  V30 5019 H 470.309 -6.84552 1.20057 0
M  V30 5020 H 473.5 -4.65187 0.521383 0
M  V30 5021 H 473.673 -6.40664 0.972295 0
M  V30 5022 N 467.08 -0.0183926 -1.57589 0
M  V30 5023 C 468.326 0.663543 -1.91638 0
M  V30 5024 C 468.659 1.72392 -0.894134 0
M  V30 5025 O 467.934 1.94316 0.0846449 0
M  V30 5026 C 468.217 1.28984 -3.36207 0
M  V30 5027 C 468.07 0.239761 -4.49161 0
M  V30 5028 C 469.389 2.2109 -3.80536 0
M  V30 5029 H 466.508 0.239746 -0.696915 0
M  V30 5030 H 469.15 -0.073456 -1.89858 0
M  V30 5031 H 467.3 1.91799 -3.37854 0
M  V30 5032 H 468.972 -0.390119 -4.59647 0
M  V30 5033 H 467.215 -0.435972 -4.31604 0
M  V30 5034 H 467.886 0.717383 -5.47319 0
M  V30 5035 H 470.362 1.68273 -3.80557 0
M  V30 5036 H 469.238 2.61869 -4.82406 0
M  V30 5037 H 469.499 3.09764 -3.15434 0
M  V30 5038 N 468.558 1.5553 0.254621 0
M  V30 5039 C 469.521 1.88872 1.29846 0
M  V30 5040 C 470.521 0.764591 1.41459 0
M  V30 5041 O 471.711 1.03265 1.40293 0
M  V30 5042 C 468.843 2.11032 2.67728 0
M  V30 5043 H 470.036 2.82201 1.01502 0
M  V30 5044 H 467.589 1.48303 0.493556 0
M  V30 5045 H 468.324 1.20146 3.01223 0
M  V30 5046 H 468.109 2.92895 2.60682 0
M  V30 5047 H 469.599 2.38038 3.43115 0
M  V30 5048 N 470.036 -0.519951 1.48776 0
M  V30 5049 C 471.282 -1.27711 1.57536 0
M  V30 5050 C 471.615 -1.92547 0.252866 0
M  V30 5051 O 470.89 -1.7979 -0.742021 0
M  V30 5052 C 471.173 -2.35875 2.72094 0
M  V30 5053 C 471.026 -1.75664 4.1408 0
M  V30 5054 C 472.345 -3.37575 2.82367 0
M  V30 5055 H 469.464 -0.462971 0.573434 0
M  V30 5056 H 472.106 -0.578194 1.80989 0
M  V30 5057 H 470.256 -2.95488 2.52228 0
M  V30 5058 H 471.928 -1.20025 4.45412 0
M  V30 5059 H 470.171 -1.06154 4.20611 0
M  V30 5060 H 470.842 -2.54029 4.90075 0
M  V30 5061 H 473.318 -2.87929 3.00393 0
M  V30 5062 H 472.194 -4.1064 3.64233 0
M  V30 5063 H 472.455 -3.98743 1.90936 0
M  V30 5064 N 471.514 -1.37532 -0.769588 0
M  V30 5065 C 472.477 -1.33292 -1.86456 0
M  V30 5066 C 473.477 -0.236537 -1.59051 0
M  V30 5067 O 474.667 -0.492511 -1.67093 0
M  V30 5068 C 471.799 -1.07118 -3.23633 0
M  V30 5069 H 472.992 -2.30692 -1.91628 0
M  V30 5070 H 470.545 -1.22593 -0.969572 0
M  V30 5071 H 471.28 -0.102578 -3.24138 0
M  V30 5072 H 471.065 -1.86479 -3.44917 0
M  V30 5073 H 472.555 -1.06806 -4.03711 0
M  V30 5074 N 472.992 0.995999 -1.22138 0
M  V30 5075 C 474.24 1.73167 -1.042 0
M  V30 5076 C 474.561 1.90329 0.42423 0
M  V30 5077 O 473.831 1.4607 1.30539 0
M  V30 5078 H 472.411 0.641593 -0.38258 0
M  V30 5079 H 475.073 1.19974 -1.53598 0
M  V30 5080 H 474.169 2.72734 -1.51731 0
M  V30 5081 N 474.47 1.03057 1.19235 0
M  V30 5082 C 475.695 0.74757 1.93458 0
M  V30 5083 C 476.12 -0.687648 1.7508 0
M  V30 5084 O 475.478 -1.47499 1.05422 0
M  V30 5085 C 475.526 1.10604 3.43219 0
M  V30 5086 O 474.63 0.225671 4.11782 0
M  V30 5087 H 473.971 0.276047 0.603899 0
M  V30 5088 H 476.501 1.3777 1.51263 0
M  V30 5089 H 476.511 1.06366 3.93891 0
M  V30 5090 H 475.186 2.15165 3.55917 0
M  V30 5091 H 473.763 0.326795 3.71465 0
M  V30 5092 N 475.948 -1.35272 0.808662 0
M  V30 5093 C 477.194 -1.99003 0.390581 0
M  V30 5094 C 477.527 -1.63999 -1.0401 0
M  V30 5095 O 476.802 -0.904368 -1.72196 0
M  V30 5096 C 477.085 -3.55454 0.576566 0
M  V30 5097 C 476.938 -4.00249 2.05233 0
M  V30 5098 C 478.257 -4.401 0.00354277 0
M  V30 5099 H 475.376 -0.722917 0.143388 0
M  V30 5100 H 478.018 -1.6039 1.01858 0
M  V30 5101 H 476.168 -3.88477 0.0419766 0
M  V30 5102 H 477.84 -3.77626 2.64946 0
M  V30 5103 H 476.083 -3.51082 2.54801 0
M  V30 5104 H 476.754 -5.0911 2.13333 0
M  V30 5105 H 479.23 -4.13548 0.460117 0
M  V30 5106 H 478.106 -5.48656 0.163575 0
M  V30 5107 H 478.367 -4.28444 -1.09032 0
M  V30 5108 N 477.426 -0.562348 -1.47226 0
M  V30 5109 C 478.373 0.182461 -2.30078 0
M  V30 5110 C 479.343 0.903503 -1.39377 0
M  V30 5111 O 480.528 0.898188 -1.68337 0
M  V30 5112 C 477.668 1.20322 -3.23445 0
M  V30 5113 C 476.781 0.487717 -4.29238 0
M  V30 5114 C 475.916 1.49422 -5.09752 0
M  V30 5115 C 474.955 0.763976 -6.07314 0
M  V30 5116 N 474.092 1.71755 -6.80768 0
M  V30 5117 H 478.932 -0.530169 -2.93246 0
M  V30 5118 H 476.469 -0.273276 -1.44539 0
M  V30 5119 H 478.427 1.80768 -3.76004 0
M  V30 5120 H 477.057 1.88382 -2.6213 0
M  V30 5121 H 476.109 -0.231374 -3.79696 0
M  V30 5122 H 477.421 -0.0841003 -4.98729 0
M  V30 5123 H 476.575 2.17206 -5.66486 0
M  V30 5124 H 475.314 2.09995 -4.40174 0
M  V30 5125 H 474.319 0.0722344 -5.49753 0
M  V30 5126 H 475.544 0.16391 -6.78902 0
M  V30 5127 H 473.49 2.31177 -6.13916 0
M  V30 5128 H 473.407 1.19802 -7.46447 0
M  V30 5129 H 474.675 2.38638 -7.42073 0
M  V30 5130 N 478.904 1.54736 -0.299062 0
M  V30 5131 C 480.15 2.00397 0.311244 0
M  V30 5132 C 480.483 1.18716 1.53688 0
M  V30 5133 O 479.758 0.263154 1.92712 0
M  V30 5134 C 480.041 3.53817 0.669761 0
M  V30 5135 C 479.894 4.46239 -0.564882 0
M  V30 5136 C 481.213 4.13856 1.49702 0
M  V30 5137 H 478.332 0.728493 0.111653 0
M  V30 5138 H 480.974 1.85506 -0.410774 0
M  V30 5139 H 479.124 3.66637 1.28491 0
M  V30 5140 H 480.796 4.45328 -1.20337 0
M  V30 5141 H 479.039 4.16916 -1.19849 0
M  V30 5142 H 479.71 5.5134 -0.269918 0
M  V30 5143 H 482.186 4.04461 0.977284 0
M  V30 5144 H 481.062 5.21365 1.71666 0
M  V30 5145 H 481.323 3.65608 2.48563 0
M  V30 5146 N 480.382 0.0267497 1.57577 0
M  V30 5147 C 481.793 -0.512413 1.79531 0
M  V30 5148 C 482.144 -1.72391 0.936791 0
M  V30 5149 O 481.269 -2.15903 0.146543 0
M  V30 5150 C 481.864 -0.936378 3.25603 0
M  V30 5151 C 480.423 -1.42067 3.4856 0
M  V30 5152 C 479.57 -0.384278 2.74624 0
M  V30 5153 H 482.521 0.252797 1.56674 0
M  V30 5154 H 482.542 -1.80088 3.35184 0
M  V30 5155 H 482.054 -0.0544332 3.88062 0
M  V30 5156 H 480.155 -2.32262 2.9135 0
M  V30 5157 H 480.268 -1.42968 4.57271 0
M  V30 5158 H 478.632 -0.851855 2.40032 0
M  V30 5159 H 479.415 0.489159 3.39797 0
M  V30 5160 N 481.861 -1.55662 -0.24637 0
M  V30 5161 C 482.771 -1.93495 -1.32653 0
M  V30 5162 C 483.787 -0.835462 -1.5263 0
M  V30 5163 O 484.963 -1.1369 -1.66242 0
M  V30 5164 C 482.028 -2.22242 -2.66101 0
M  V30 5165 C 481.089 -3.45625 -2.54641 0
M  V30 5166 C 480.322 -3.72991 -3.81724 0
M  V30 5167 O 480.545 -3.02421 -4.8363 0
M  V30 5168 O 479.479 -4.66515 -3.80325 0
M  V30 5169 H 483.305 -2.85498 -1.03559 0
M  V30 5170 H 480.89 -1.42551 -0.44717 0
M  V30 5171 H 482.772 -2.42037 -3.44958 0
M  V30 5172 H 481.447 -1.33417 -2.94926 0
M  V30 5173 H 480.354 -3.31136 -1.74067 0
M  V30 5174 H 481.687 -4.34754 -2.3076 0
M  V30 5175 N 483.339 0.512053 -1.4905 0
M  V30 5176 C 484.269 1.62365 -1.67809 0
M  V30 5177 C 485.25 1.61737 -0.526809 0
M  V30 5178 O 486.435 1.78651 -0.761404 0
M  V30 5179 C 483.565 3.00895 -1.73435 0
M  V30 5180 C 482.519 3.16387 -2.88242 0
M  V30 5181 C 481.845 4.56157 -2.78971 0
M  V30 5182 C 483.145 2.97457 -4.29321 0
M  V30 5183 H 484.839 1.46921 -2.60873 0
M  V30 5184 H 482.385 0.705379 -1.2554 0
M  V30 5185 H 484.338 3.78549 -1.85145 0
M  V30 5186 H 483.062 3.17403 -0.769619 0
M  V30 5187 H 481.721 2.41155 -2.76116 0
M  V30 5188 H 481.369 4.69525 -1.8043 0
M  V30 5189 H 481.069 4.67465 -3.5602 0
M  V30 5190 H 482.593 5.35886 -2.92675 0
M  V30 5191 H 484.007 3.64888 -4.42187 0
M  V30 5192 H 482.404 3.20245 -5.07507 0
M  V30 5193 H 483.474 1.93692 -4.44535 0
M  V30 5194 N 484.817 1.37938 0.762283 0
M  V30 5195 C 486.064 1.33668 1.52115 0
M  V30 5196 C 486.392 -0.0759538 1.94352 0
M  V30 5197 O 485.647 -1.05121 1.6507 0
M  V30 5198 C 485.946 2.23042 2.79261 0
M  V30 5199 C 485.612 3.71159 2.56031 0
M  V30 5200 C 484.274 4.11523 2.49404 0
M  V30 5201 C 486.626 4.64955 2.35513 0
M  V30 5202 C 483.954 5.43784 2.20263 0
M  V30 5203 C 486.306 5.97464 2.07894 0
M  V30 5204 C 484.97 6.36922 1.99718 0
M  V30 5205 H 484.24 0.489127 0.556629 0
M  V30 5206 H 486.887 1.70224 0.877262 0
M  V30 5207 H 485.192 1.79512 3.48256 0
M  V30 5208 H 486.889 2.17047 3.37182 0
M  V30 5209 H 483.479 3.39153 2.62056 0
M  V30 5210 H 487.663 4.34623 2.39617 0
M  V30 5211 H 482.919 5.73307 2.12435 0
M  V30 5212 H 487.093 6.6969 1.91019 0
M  V30 5213 H 484.72 7.39331 1.76902 0
M  V30 5214 N 486.295 -0.989507 1.22664 0
M  V30 5215 C 487.541 -1.7321 1.05481 0
M  V30 5216 C 487.874 -1.89852 -0.408635 0
M  V30 5217 O 487.149 -1.44416 -1.30285 0
M  V30 5218 C 487.432 -3.1357 1.77047 0
M  V30 5219 C 487.285 -3.04555 3.31008 0
M  V30 5220 C 488.604 -4.12812 1.5256 0
M  V30 5221 H 485.723 -0.628697 0.384589 0
M  V30 5222 H 488.365 -1.15258 1.51049 0
M  V30 5223 H 486.515 -3.63046 1.3831 0
M  V30 5224 H 488.187 -2.62674 3.7921 0
M  V30 5225 H 486.43 -2.41278 3.6051 0
M  V30 5226 H 487.101 -4.03894 3.76263 0
M  V30 5227 H 489.577 -3.72106 1.86215 0
M  V30 5228 H 488.453 -5.09132 2.05124 0
M  V30 5229 H 488.714 -4.39711 0.458936 0
M  V30 5230 N 487.773 -1.03688 -1.18687 0
M  V30 5231 C 489.019 -0.739123 -1.88851 0
M  V30 5232 C 489.352 0.731042 -1.79915 0
M  V30 5233 O 488.627 1.53313 -1.19688 0
M  V30 5234 C 488.91 -1.20106 -3.3948 0
M  V30 5235 C 488.763 -2.73304 -3.57246 0
M  V30 5236 C 490.082 -0.788134 -4.32986 0
M  V30 5237 H 487.201 -0.269978 -0.68577 0
M  V30 5238 H 489.843 -1.28822 -1.3966 0
M  V30 5239 H 487.993 -0.733915 -3.81505 0
M  V30 5240 H 489.665 -3.28027 -3.24339 0
M  V30 5241 H 487.908 -3.13313 -3.00029 0
M  V30 5242 H 488.579 -3.00684 -4.62918 0
M  V30 5243 H 491.055 -1.19005 -3.98719 0
M  V30 5244 H 489.931 -1.13915 -5.36949 0
M  V30 5245 H 490.192 0.308988 -4.41019 0
M  V30 5246 N 489.251 1.34841 -0.815825 0
M  V30 5247 C 490.161 2.33425 -0.234462 0
M  V30 5248 C 491.177 1.62295 0.627413 0
M  V30 5249 O 492.353 1.94109 0.536987 0
M  V30 5250 C 489.418 3.41471 0.599849 0
M  V30 5251 C 488.479 4.28362 -0.283596 0
M  V30 5252 C 487.712 5.31248 0.51099 0
M  V30 5253 O 487.935 5.43056 1.7449 0
M  V30 5254 O 486.869 6.01812 -0.10297 0
M  V30 5255 H 490.695 2.84962 -1.05024 0
M  V30 5256 H 488.28 1.37774 -0.577809 0
M  V30 5257 H 490.162 4.07464 1.07475 0
M  V30 5258 H 488.837 2.9219 1.39308 0
M  V30 5259 H 487.744 3.65318 -0.805836 0
M  V30 5260 H 489.077 4.81066 -1.041 0
M  V30 5261 N 490.729 0.570148 1.46925 0
M  V30 5262 C 492.14 0.1402 1.86173 0
M  V30 5263 C 492.491 -1.29347 1.47526 0
M  V30 5264 O 491.616 -1.97508 0.884292 0
M  V30 5265 C 492.211 0.247661 3.37894 0
M  V30 5266 C 490.77 -0.127332 3.76185 0
M  V30 5267 C 489.917 0.589349 2.70965 0
M  V30 5268 H 492.868 0.779117 1.38259 0
M  V30 5269 H 492.889 -0.530341 3.76786 0
M  V30 5270 H 492.401 1.29121 3.65991 0
M  V30 5271 H 490.502 -1.17149 3.53704 0
M  V30 5272 H 490.615 0.240238 4.78497 0
M  V30 5273 H 488.979 0.0309824 2.54681 0
M  V30 5274 H 489.762 1.6343 3.01903 0
M  V30 5275 N 492.207 -1.54576 0.307264 0
M  V30 5276 C 493.454 -2.00263 -0.300167 0
M  V30 5277 C 493.782 -1.19561 -1.53413 0
M  V30 5278 O 493.037 -0.261487 -1.93945 0
M  V30 5279 C 493.336 -3.50572 -0.695253 0
M  V30 5280 C 493.002 -4.48771 0.437679 0
M  V30 5281 C 491.664 -4.7534 0.748681 0
M  V30 5282 C 494.016 -5.0721 1.19949 0
M  V30 5283 C 491.344 -5.5761 1.8245 0
M  V30 5284 C 493.696 -5.90651 2.26527 0
M  V30 5285 C 492.36 -6.15528 2.58227 0
M  V30 5286 H 491.63 -0.732814 -0.109839 0
M  V30 5287 H 494.277 -1.86664 0.427661 0
M  V30 5288 H 492.582 -3.61814 -1.50326 0
M  V30 5289 H 494.279 -3.83352 -1.17653 0
M  V30 5290 H 490.869 -4.282 0.185187 0
M  V30 5291 H 495.053 -4.86679 0.972474 0
M  V30 5292 H 490.309 -5.75121 2.07476 0
M  V30 5293 H 494.483 -6.34957 2.86011 0
M  V30 5294 H 492.11 -6.79066 3.4172 0
M  V30 5295 N 493.685 -0.035106 -1.57561 0
M  V30 5296 C 495.096 0.502885 -1.798 0
M  V30 5297 C 495.447 1.71892 -0.945921 0
M  V30 5298 O 494.572 2.15822 -0.157991 0
M  V30 5299 C 495.167 0.919097 -3.26095 0
M  V30 5300 C 493.726 1.40216 -3.49308 0
M  V30 5301 C 492.873 0.369709 -2.74824 0
M  V30 5302 H 495.824 -0.261102 -1.56537 0
M  V30 5303 H 495.845 1.78308 -3.36135 0
M  V30 5304 H 495.357 0.0338526 -3.88085 0
M  V30 5305 H 493.458 2.30714 -2.92578 0
M  V30 5306 H 493.571 1.40541 -4.58023 0
M  V30 5307 H 491.935 0.839113 -2.40481 0
M  V30 5308 H 492.718 -0.507173 -3.39533 0
M  V30 5309 N 495.163 1.55791 0.238111 0
M  V30 5310 C 496.126 1.90239 1.27835 0
M  V30 5311 C 497.126 0.779552 1.4064 0
M  V30 5312 O 498.316 1.04747 1.3919 0
M  V30 5313 C 495.448 2.13859 2.65475 0
M  V30 5314 H 496.641 2.83262 0.985034 0
M  V30 5315 H 494.194 1.48818 0.477799 0
M  V30 5316 H 494.929 1.23334 2.99932 0
M  V30 5317 H 494.714 2.95643 2.57561 0
M  V30 5318 H 496.204 2.41664 3.40571 0
M  V30 5319 N 496.642 -0.504142 1.49319 0
M  V30 5320 C 497.888 -1.26033 1.58882 0
M  V30 5321 C 498.221 -1.92268 0.273274 0
M  V30 5322 O 497.496 -1.80567 -0.72291 0
M  V30 5323 C 497.779 -2.32976 2.7458 0
M  V30 5324 C 497.632 -1.71263 4.1592 0
M  V30 5325 C 498.951 -3.34561 2.85932 0
M  V30 5326 H 496.07 -0.456863 0.578312 0
M  V30 5327 H 498.712 -0.558965 1.81592 0
M  V30 5328 H 496.862 -2.92796 2.55348 0
M  V30 5329 H 498.534 -1.15294 4.4666 0
M  V30 5330 H 496.777 -1.01686 4.21714 0
M  V30 5331 H 497.448 -2.48816 4.92742 0
M  V30 5332 H 499.924 -2.84727 3.0343 0
M  V30 5333 H 498.8 -4.06754 3.68568 0
M  V30 5334 H 499.061 -3.96695 1.95154 0
M  V30 5335 N 498.12 -1.38341 -0.754957 0
M  V30 5336 C 499.07 -1.31964 -1.85929 0
M  V30 5337 C 500.054 -0.204181 -1.59599 0
M  V30 5338 O 501.246 -0.440036 -1.71443 0
M  V30 5339 C 498.375 -1.14565 -3.2362 0
M  V30 5340 C 497.461 -2.30727 -3.55846 0
M  V30 5341 N 497.852 -3.56165 -3.59138 0
M  V30 5342 C 496.15 -2.23249 -3.86104 0
M  V30 5343 C 496.851 -4.32865 -3.88591 0
M  V30 5344 N 495.827 -3.62203 -4.05351 0
M  V30 5345 H 499.629 -2.2694 -1.8675 0
M  V30 5346 H 497.143 -1.31553 -0.952243 0
M  V30 5347 H 499.14 -1.0808 -4.02647 0
M  V30 5348 H 497.8 -0.205212 -3.24051 0
M  V30 5349 H 498.811 -3.89854 -3.40932 0
M  V30 5350 H 495.488 -1.37357 -3.94258 0
M  V30 5351 H 496.878 -5.41504 -3.97773 0
M  V30 5352 N 499.598 0.982988 -1.23187 0
M  V30 5353 C 500.548 2.05962 -0.977942 0
M  V30 5354 C 501.532 1.60725 0.0751148 0
M  V30 5355 O 502.724 1.76471 -0.136683 0
M  V30 5356 C 499.853 3.38564 -0.568276 0
M  V30 5357 C 498.939 3.90407 -1.6566 0
M  V30 5358 N 499.33 4.15359 -2.88635 0
M  V30 5359 C 497.628 4.18915 -1.53058 0
M  V30 5360 C 498.329 4.57642 -3.5908 0
M  V30 5361 N 497.305 4.6192 -2.86584 0
M  V30 5362 H 501.107 2.23208 -1.91195 0
M  V30 5363 H 498.621 1.16555 -1.13087 0
M  V30 5364 H 500.618 4.15276 -0.36764 0
M  V30 5365 H 499.278 3.22712 0.358713 0
M  V30 5366 H 500.289 4.03258 -3.24966 0
M  V30 5367 H 496.966 4.12081 -0.670506 0
M  V30 5368 H 498.356 4.85488 -4.6449 0
M  V30 5369 N 501.076 1.04316 1.18135 0
M  V30 5370 C 502.006 0.657299 2.24058 0
M  V30 5371 C 502.987 -0.340678 1.66654 0
M  V30 5372 O 504.172 -0.220223 1.92947 0
M  V30 5373 C 501.302 0.0220715 3.47293 0
M  V30 5374 C 500.256 0.943857 4.17463 0
M  V30 5375 C 499.582 0.172973 5.3442 0
M  V30 5376 C 500.882 2.26409 4.70677 0
M  V30 5377 H 502.576 1.5428 2.56589 0
M  V30 5378 H 500.122 0.743263 1.23335 0
M  V30 5379 H 502.075 -0.259607 4.206 0
M  V30 5380 H 500.799 -0.898323 3.14003 0
M  V30 5381 H 499.458 1.20996 3.46057 0
M  V30 5382 H 499.106 -0.749907 4.97379 0
M  V30 5383 H 498.806 0.787098 5.82304 0
M  V30 5384 H 500.33 -0.101628 6.10515 0
M  V30 5385 H 501.744 2.04294 5.35665 0
M  V30 5386 H 500.141 2.8314 5.29105 0
M  V30 5387 H 501.211 2.90883 3.87962 0
M  V30 5388 N 502.554 -1.34406 0.822964 0
M  V30 5389 C 503.8 -1.98578 0.411666 0
M  V30 5390 C 504.133 -1.65093 -1.02264 0
M  V30 5391 O 503.408 -0.92258 -1.71227 0
M  V30 5392 C 503.691 -3.54823 0.614235 0
M  V30 5393 C 503.544 -3.9805 2.09466 0
M  V30 5394 C 504.863 -4.40071 0.050221 0
M  V30 5395 H 501.982 -0.721355 0.151047 0
M  V30 5396 H 504.624 -1.59301 1.03554 0
M  V30 5397 H 502.774 -3.88411 0.0831774 0
M  V30 5398 H 504.446 -3.74795 2.68936 0
M  V30 5399 H 502.689 -3.4836 2.5851 0
M  V30 5400 H 503.36 -5.06819 2.18721 0
M  V30 5401 H 505.836 -4.13037 0.503953 0
M  V30 5402 H 504.712 -5.48452 0.221759 0
M  V30 5403 H 504.973 -4.29576 -1.04482 0
M  V30 5404 N 504.032 -0.577932 -1.46621 0
M  V30 5405 C 505.257 -0.0652536 -2.07297 0
M  V30 5406 C 505.682 1.22828 -1.4246 0
M  V30 5407 O 505.04 1.74075 -0.506718 0
M  V30 5408 C 505.088 0.0920589 -3.60482 0
M  V30 5409 O 504.192 1.14972 -3.96049 0
M  V30 5410 H 503.533 -0.06065 -0.661224 0
M  V30 5411 H 506.063 -0.799515 -1.88332 0
M  V30 5412 H 506.073 0.299741 -4.06897 0
M  V30 5413 H 504.748 -0.852612 -4.07067 0
M  V30 5414 H 503.325 0.920879 -3.61351 0
M  V30 5415 N 505.51 1.54411 -0.315457 0
M  V30 5416 C 506.738 2.04833 0.291738 0
M  V30 5417 C 507.153 1.19203 1.46411 0
M  V30 5418 O 506.51 0.220867 1.81159 0
M  V30 5419 C 506.561 3.53969 0.73404 0
M  V30 5420 O 506.282 4.36346 -0.391682 0
M  V30 5421 C 507.783 4.2045 1.40489 0
M  V30 5422 H 505.003 0.668195 0.0612947 0
M  V30 5423 H 507.547 1.99276 -0.45929 0
M  V30 5424 H 505.702 3.5984 1.43506 0
M  V30 5425 H 506.116 5.24481 -0.0447088 0
M  V30 5426 H 507.59 5.26278 1.66539 0
M  V30 5427 H 508.067 3.71067 2.3496 0
M  V30 5428 H 508.673 4.18694 0.746662 0
M  V30 5429 N 506.988 0.0434614 1.5754 0
M  V30 5430 C 508.237 -0.631454 1.91561 0
M  V30 5431 C 508.55 -1.72457 0.92292 0
M  V30 5432 O 509.756 -2.45712 1.15489 0
M  V30 5433 C 508.212 -1.17447 3.40197 0
M  V30 5434 C 507.82 -0.113867 4.47855 0
M  V30 5435 C 509.564 -1.82507 3.83264 0
M  V30 5436 C 507.471 -0.669326 5.876 0
M  V30 5437 H 506.401 -0.239629 0.714908 0
M  V30 5438 H 509.052 0.111097 1.83163 0
M  V30 5439 H 507.434 -1.96909 3.43574 0
M  V30 5440 H 508.608 0.659348 4.56058 0
M  V30 5441 H 506.923 0.438821 4.14081 0
M  V30 5442 H 509.52 -2.25047 4.85034 0
M  V30 5443 H 509.863 -2.67365 3.19095 0
M  V30 5444 H 510.396 -1.09712 3.82372 0
M  V30 5445 H 507.135 0.141449 6.55347 0
M  V30 5446 H 506.655 -1.4107 5.82974 0
M  V30 5447 H 508.334 -1.15463 6.36614 0
M  V30 5448 N 508.466 -1.55915 -0.229846 0
M  V30 5449 C 509.694 -1.82617 -0.972562 0
M  V30 5450 C 510.109 -0.621488 -1.78278 0
M  V30 5451 O 509.466 0.409956 -1.77836 0
M  V30 5452 C 509.517 -3.0774 -1.89679 0
M  V30 5453 O 509.238 -4.23559 -1.11934 0
M  V30 5454 C 510.739 -3.47368 -2.75409 0
M  V30 5455 H 507.959 -0.60727 -0.285419 0
M  V30 5456 H 510.503 -2.02996 -0.247579 0
M  V30 5457 H 508.658 -2.89361 -2.57583 0
M  V30 5458 H 509.072 -4.94586 -1.74599 0
M  V30 5459 H 510.546 -4.37977 -3.35977 0
M  V30 5460 H 511.023 -2.68737 -3.47386 0
M  V30 5461 H 511.629 -3.68158 -2.12931 0
M  V30 5462 N 509.944 0.496216 -1.49584 0
M  V30 5463 C 510.907 1.57952 -1.66084 0
M  V30 5464 C 511.907 1.51729 -0.53244 0
M  V30 5465 O 513.097 1.54796 -0.79899 0
M  V30 5466 C 510.229 2.97604 -1.66268 0
M  V30 5467 H 511.422 1.44649 -2.6271 0
M  V30 5468 H 508.975 0.7208 -1.38687 0
M  V30 5469 H 509.71 3.16378 -0.712432 0
M  V30 5470 H 509.495 3.03528 -2.4822 0
M  V30 5471 H 510.985 3.76301 -1.81073 0
M  V30 5472 N 511.423 1.38739 0.74761 0
M  V30 5473 C 512.355 1.32341 1.87132 0
M  V30 5474 C 513.368 0.234502 1.61102 0
M  V30 5475 O 514.557 0.492516 1.71571 0
M  V30 5476 C 511.657 1.02915 3.22896 0
M  V30 5477 C 510.83 2.22834 3.76383 0
M  V30 5478 C 509.889 1.90059 4.90677 0
M  V30 5479 O 508.915 2.62615 5.04997 0
M  V30 5480 N 510.117 0.859141 5.74107 0
M  V30 5481 H 512.882 2.29175 1.93129 0
M  V30 5482 H 510.443 1.32678 0.927805 0
M  V30 5483 H 512.435 0.79031 3.96908 0
M  V30 5484 H 511.005 0.148572 3.12247 0
M  V30 5485 H 510.225 2.62747 2.93867 0
M  V30 5486 H 511.513 3.02851 4.08851 0
M  V30 5487 H 510.911 0.257564 5.65113 0
M  V30 5488 H 509.468 0.680189 6.48241 0
M  V30 5489 N 512.901 -0.976442 1.23707 0
M  V30 5490 C 513.831 -2.08749 1.04624 0
M  V30 5491 C 514.812 -1.70057 -0.0380956 0
M  V30 5492 O 515.997 -1.93782 0.127308 0
M  V30 5493 C 513.127 -3.41335 0.640902 0
M  V30 5494 C 512.081 -3.93947 1.67302 0
M  V30 5495 C 511.407 -5.22774 1.12301 0
M  V30 5496 C 512.707 -4.22769 3.06697 0
M  V30 5497 H 514.401 -2.24972 1.97555 0
M  V30 5498 H 511.947 -1.08108 0.951247 0
M  V30 5499 H 513.9 -4.18489 0.494434 0
M  V30 5500 H 512.624 -3.24988 -0.324099 0
M  V30 5501 H 511.283 -3.18941 1.80755 0
M  V30 5502 H 510.931 -5.0278 0.148877 0
M  V30 5503 H 510.631 -5.58942 1.81267 0
M  V30 5504 H 512.155 -6.02546 0.988479 0
M  V30 5505 H 513.569 -4.90659 2.96524 0
M  V30 5506 H 511.966 -4.70147 3.72937 0
M  V30 5507 H 513.036 -3.29885 3.55392 0
M  V30 5508 N 514.379 -1.04941 -1.1758 0
M  V30 5509 C 515.79 -0.784501 -1.69418 0
M  V30 5510 C 516.141 0.693625 -1.8353 0
M  V30 5511 O 515.266 1.53925 -1.52106 0
M  V30 5512 C 515.861 -1.41746 -3.07723 0
M  V30 5513 C 514.42 -1.20066 -3.56737 0
M  V30 5514 C 513.567 -1.5026 -2.33061 0
M  V30 5515 H 516.518 -1.21469 -1.02133 0
M  V30 5516 H 516.539 -0.825381 -3.7144 0
M  V30 5517 H 516.051 -2.49325 -2.9742 0
M  V30 5518 H 514.152 -0.144006 -3.72322 0
M  V30 5519 H 514.265 -1.90384 -4.39648 0
M  V30 5520 H 512.629 -0.922598 -2.37403 0
M  V30 5521 H 513.412 -2.58967 -2.25368 0
M  V30 5522 N 515.857 1.33968 -0.830081 0
M  V30 5523 C 516.767 2.33164 -0.259207 0
M  V30 5524 C 517.783 1.62951 0.610164 0
M  V30 5525 O 518.959 1.94668 0.516369 0
M  V30 5526 C 516.024 3.42088 0.563598 0
M  V30 5527 C 515.085 4.28037 -0.329014 0
M  V30 5528 C 514.318 5.3176 0.454616 0
M  V30 5529 O 514.541 5.44876 1.6872 0
M  V30 5530 O 513.475 6.01669 -0.166794 0
M  V30 5531 H 517.301 2.83832 -1.08041 0
M  V30 5532 H 514.886 1.37154 -0.59239 0
M  V30 5533 H 516.768 4.08581 1.03147 0
M  V30 5534 H 515.443 2.93651 1.36201 0
M  V30 5535 H 514.35 3.64443 -0.844538 0
M  V30 5536 H 515.683 4.79934 -1.09196 0
M  V30 5537 N 517.335 0.585699 1.46312 0
M  V30 5538 C 518.267 -0.183687 2.28463 0
M  V30 5539 C 519.28 -0.85264 1.38686 0
M  V30 5540 O 520.469 -0.721701 1.6326 0
M  V30 5541 C 517.569 -1.27977 3.13808 0
M  V30 5542 C 516.742 -0.702164 4.31727 0
M  V30 5543 C 515.801 -1.68633 4.98447 0
M  V30 5544 O 514.827 -1.22121 5.55945 0
M  V30 5545 N 516.029 -3.02047 4.95729 0
M  V30 5546 H 518.794 0.521127 2.95134 0
M  V30 5547 H 516.355 0.423673 1.56258 0
M  V30 5548 H 518.347 -1.9375 3.55307 0
M  V30 5549 H 516.917 -1.8874 2.4919 0
M  V30 5550 H 516.137 0.1331 3.93975 0
M  V30 5551 H 517.425 -0.296101 5.07938 0
M  V30 5552 H 516.823 -3.42457 4.50266 0
M  V30 5553 H 515.38 -3.63301 5.41161 0
M  V30 5554 N 518.813 -1.54241 0.323641 0
M  V30 5555 C 519.743 -2.27289 -0.534993 0
M  V30 5556 C 520.724 -1.28087 -1.11927 0
M  V30 5557 O 521.909 -1.56899 -1.14439 0
M  V30 5558 C 519.039 -3.03075 -1.69596 0
M  V30 5559 C 517.993 -4.09614 -1.24098 0
M  V30 5560 C 517.319 -4.73242 -2.4889 0
M  V30 5561 C 518.619 -5.21087 -0.355789 0
M  V30 5562 H 520.313 -2.99308 0.0743257 0
M  V30 5563 H 517.859 -1.43952 0.0371874 0
M  V30 5564 H 519.812 -3.52907 -2.30293 0
M  V30 5565 H 518.536 -2.28673 -2.33187 0
M  V30 5566 H 517.195 -3.60666 -0.656945 0
M  V30 5567 H 516.843 -3.95455 -3.10845 0
M  V30 5568 H 516.543 -5.45209 -2.19138 0
M  V30 5569 H 518.067 -5.25848 -3.10348 0
M  V30 5570 H 519.481 -5.66675 -0.869042 0
M  V30 5571 H 517.878 -5.9991 -0.151045 0
M  V30 5572 H 518.948 -4.81005 0.613339 0
M  V30 5573 N 520.291 -0.0518155 -1.57515 0
M  V30 5574 C 521.241 0.932017 -2.0808 0
M  V30 5575 C 522.225 1.27141 -0.986098 0
M  V30 5576 O 523.417 1.25373 -1.24943 0
M  V30 5577 C 520.546 2.20665 -2.62986 0
M  V30 5578 C 519.632 1.89462 -3.79427 0
M  V30 5579 N 520.023 1.28621 -4.89173 0
M  V30 5580 C 518.321 2.19327 -3.88345 0
M  V30 5581 C 519.022 1.15062 -5.70207 0
M  V30 5582 N 517.998 1.65372 -5.17835 0
M  V30 5583 H 521.8 0.456964 -2.90326 0
M  V30 5584 H 519.314 0.152619 -1.61681 0
M  V30 5585 H 521.311 2.92044 -2.97516 0
M  V30 5586 H 519.971 2.68776 -1.8218 0
M  V30 5587 H 520.982 0.958341 -5.08956 0
M  V30 5588 H 517.659 2.69955 -3.18482 0
M  V30 5589 H 519.049 0.678243 -6.68468 0
M  V30 5590 N 521.769 1.56035 0.221574 0
M  V30 5591 C 522.732 1.91584 1.2581 0
M  V30 5592 C 523.732 0.794425 1.39805 0
M  V30 5593 O 524.922 1.06217 1.38071 0
M  V30 5594 C 522.054 2.16663 2.63192 0
M  V30 5595 H 523.247 2.8429 0.954935 0
M  V30 5596 H 520.8 1.49316 0.461988 0
M  V30 5597 H 521.535 1.26508 2.98607 0
M  V30 5598 H 521.32 2.98358 2.5441 0
M  V30 5599 H 522.81 2.45262 3.37988 0
M  V30 5600 N 523.247 -0.488276 1.49845 0
M  V30 5601 C 524.472 -1.26997 1.63971 0
M  V30 5602 C 524.897 -1.85427 0.315994 0
M  V30 5603 O 524.255 -1.66475 -0.718032 0
M  V30 5604 C 524.303 -2.36689 2.72049 0
M  V30 5605 O 523.407 -3.40882 2.32107 0
M  V30 5606 H 522.748 -0.374376 0.548396 0
M  V30 5607 H 525.278 -0.583104 1.96115 0
M  V30 5608 H 525.288 -2.82262 2.94605 0
M  V30 5609 H 523.963 -1.93529 3.68129 0
M  V30 5610 H 522.54 -3.01139 2.19931 0
M  V30 5611 N 524.725 -1.39134 -0.740242 0
M  V30 5612 C 526.002 -1.26584 -1.49117 0
M  V30 5613 C 526.382 0.126902 -2.10718 0
M  V30 5614 O 525.73 1.13765 -1.98166 0
M  V30 5615 C 525.94 -2.38619 -2.54681 0
M  V30 5616 C 527.288 -2.77685 -3.21211 0
M  V30 5617 O 528.312 -2.38029 -2.64991 0
M  V30 5618 O 527.171 -3.46115 -4.22926 0
M  V30 5619 H 524.265 -0.495769 -0.661923 0
M  V30 5620 H 526.811 -1.50995 -0.774514 0
M  V30 5621 H 525.583 -3.3175 -2.07504 0
M  V30 5622 H 525.206 -2.15845 -3.33911 0
M  V30 5623 N 526.204 0.969867 -1.24223 0
M  V30 5624 C 527.134 2.08191 -1.05729 0
M  V30 5625 C 528.115 1.70075 0.0290765 0
M  V30 5626 O 529.3 1.93712 -0.137583 0
M  V30 5627 C 526.43 3.40991 -0.658995 0
M  V30 5628 C 525.384 3.93054 -1.69389 0
M  V30 5629 C 524.71 5.22171 -1.15072 0
M  V30 5630 C 526.01 4.21137 -3.08935 0
M  V30 5631 H 527.704 2.23921 -1.98746 0
M  V30 5632 H 525.25 1.07602 -0.956967 0
M  V30 5633 H 527.203 4.18221 -0.51662 0
M  V30 5634 H 525.927 3.25155 0.30686 0
M  V30 5635 H 524.586 3.17977 -1.82444 0
M  V30 5636 H 524.234 5.02694 -0.175539 0
M  V30 5637 H 523.934 5.57973 -1.84229 0
M  V30 5638 H 525.458 6.02013 -1.02042 0
M  V30 5639 H 526.872 4.8908 -2.99121 0
M  V30 5640 H 525.269 4.68163 -3.75425 0
M  V30 5641 H 526.339 3.27996 -3.57137 0
M  V30 5642 N 527.682 1.05563 1.17022 0
M  V30 5643 C 528.612 0.681026 2.23348 0
M  V30 5644 C 529.593 -0.322983 1.67005 0
M  V30 5645 O 530.778 -0.199746 1.9317 0
M  V30 5646 C 527.908 0.0589053 3.4725 0
M  V30 5647 C 526.862 0.988082 4.16438 0
M  V30 5648 C 526.188 0.229646 5.34207 0
M  V30 5649 C 527.488 2.31388 4.68249 0
M  V30 5650 H 529.182 1.56993 2.54938 0
M  V30 5651 H 526.728 0.756302 1.2254 0
M  V30 5652 H 528.681 -0.214982 4.20851 0
M  V30 5653 H 527.405 -0.864968 3.14938 0
M  V30 5654 H 526.064 1.24659 3.44754 0
M  V30 5655 H 525.712 -0.697111 4.98146 0
M  V30 5656 H 525.412 0.848815 5.81437 0
M  V30 5657 H 526.936 -0.0368694 6.10589 0
M  V30 5658 H 528.35 2.09964 5.33468 0
M  V30 5659 H 526.747 2.88736 5.26072 0
M  V30 5660 H 527.817 2.94982 3.84855 0
M  V30 5661 N 529.16 -1.33526 0.837174 0
M  V30 5662 C 530.576 -1.50727 0.524743 0
M  V30 5663 C 530.776 -1.77792 -0.948279 0
M  V30 5664 O 529.832 -1.83719 -1.73216 0
M  V30 5665 C 531.145 -2.66299 1.39661 0
M  V30 5666 C 532.693 -2.80183 1.39521 0
M  V30 5667 C 533.168 -3.98815 2.25189 0
M  V30 5668 N 534.659 -4.06047 2.2289 0
M  V30 5669 C 535.394 -4.97032 2.85915 0
M  V30 5670 N 534.89 -5.93143 3.57985 0
M  V30 5671 N 536.683 -4.90015 2.75394 0
M  V30 5672 H 528.834 -1.1422 1.79074 0
M  V30 5673 H 531.097 -0.561399 0.763894 0
M  V30 5674 H 530.803 -2.52974 2.4433 0
M  V30 5675 H 530.677 -3.61663 1.07145 0
M  V30 5676 H 533.064 -2.92942 0.356253 0
M  V30 5677 H 533.145 -1.85586 1.76044 0
M  V30 5678 H 532.789 -3.86817 3.29143 0
M  V30 5679 H 532.719 -4.92654 1.86009 0
M  V30 5680 H 535.21 -3.37262 1.70478 0
M  V30 5681 H 535.523 -6.59227 4.03286 0
M  V30 5682 H 533.868 -5.93223 3.62093 0
M  V30 5683 H 537.059 -4.13894 2.18654 0
M  V30 5684 H 537.232 -5.60724 3.24796 0
M  V30 5685 N 530.638 -0.59345 -1.46 0
M  V30 5686 C 531.601 0.123538 -2.28867 0
M  V30 5687 C 532.601 0.808628 -1.38989 0
M  V30 5688 O 533.791 0.658945 -1.61256 0
M  V30 5689 C 530.923 1.1847 -3.19653 0
M  V30 5690 H 532.116 -0.604843 -2.93737 0
M  V30 5691 H 529.669 -0.351875 -1.52288 0
M  V30 5692 H 530.404 1.94431 -2.59552 0
M  V30 5693 H 530.189 0.69783 -3.8584 0
M  V30 5694 H 531.679 1.68726 -3.81997 0
M  V30 5695 N 532.116 1.54067 -0.331816 0
M  V30 5696 C 533.079 2.23275 0.517768 0
M  V30 5697 C 534.079 1.22897 1.03697 0
M  V30 5698 O 535.269 1.47419 0.928084 0
M  V30 5699 C 532.401 2.94326 1.72004 0
M  V30 5700 H 533.594 2.99773 -0.0873507 0
M  V30 5701 H 531.147 1.56079 -0.0830042 0
M  V30 5702 H 531.882 2.21986 2.36417 0
M  V30 5703 H 531.667 3.67941 1.35507 0
M  V30 5704 H 533.157 3.47031 2.32291 0
M  V30 5705 N 533.594 0.0601682 1.57485 0
M  V30 5706 C 534.841 -0.611594 1.93043 0
M  V30 5707 C 535.169 -1.70317 0.939274 0
M  V30 5708 O 534.424 -1.95644 -0.046996 0
M  V30 5709 C 534.723 -1.23831 3.35262 0
M  V30 5710 C 534.389 -0.274037 4.50066 0
M  V30 5711 C 533.051 -0.00872394 4.81199 0
M  V30 5712 C 535.403 0.386308 5.19766 0
M  V30 5713 C 532.731 0.924218 5.79375 0
M  V30 5714 C 535.083 1.3075 6.1894 0
M  V30 5715 C 533.747 1.58139 6.48497 0
M  V30 5716 H 533.017 -0.223798 0.706396 0
M  V30 5717 H 535.664 0.128566 1.91068 0
M  V30 5718 H 533.969 -2.05394 3.33647 0
M  V30 5719 H 535.666 -1.76517 3.60059 0
M  V30 5720 H 532.256 -0.491008 4.25778 0
M  V30 5721 H 536.44 0.194436 4.95919 0
M  V30 5722 H 531.696 1.1438 6.00606 0
M  V30 5723 H 535.87 1.82519 6.72056 0
M  V30 5724 H 533.497 2.30593 7.24383 0
M  V30 5725 N 535.072 -1.5615 -0.213296 0
M  V30 5726 C 536.483 -1.69645 -0.779582 0
M  V30 5727 C 536.834 -0.663615 -1.84636 0
M  V30 5728 O 535.959 0.183633 -2.15619 0
M  V30 5729 C 536.554 -3.07567 -1.42084 0
M  V30 5730 C 535.113 -3.22889 -1.93442 0
M  V30 5731 C 534.26 -2.65581 -0.797612 0
M  V30 5732 H 537.211 -1.58696 0.0114951 0
M  V30 5733 H 537.232 -3.03884 -2.28986 0
M  V30 5734 H 536.744 -3.82716 -0.644187 0
M  V30 5735 H 534.845 -2.52623 -2.73884 0
M  V30 5736 H 534.958 -4.30197 -2.10872 0
M  V30 5737 H 533.322 -2.24278 -1.20712 0
M  V30 5738 H 534.105 -3.43284 -0.033494 0
M  V30 5739 N 536.55 0.480323 -1.50102 0
M  V30 5740 C 537.798 1.23063 -1.60312 0
M  V30 5741 C 538.119 1.92659 -0.301226 0
M  V30 5742 O 537.389 1.83691 0.680753 0
M  V30 5743 H 535.969 0.457231 -0.590719 0
M  V30 5744 H 538.631 0.554893 -1.86834 0
M  V30 5745 H 537.727 1.9835 -2.40964 0
M  V30 5746 N 538.028 1.39524 0.732853 0
M  V30 5747 C 539.276 1.36594 1.48951 0
M  V30 5748 C 539.597 -0.0367507 1.94965 0
M  V30 5749 O 538.867 -0.988391 1.69138 0
M  V30 5750 H 537.447 0.502673 0.552566 0
M  V30 5751 H 540.109 1.74411 0.869869 0
M  V30 5752 H 539.205 2.03 2.3706 0
M  V30 5753 N 539.506 -0.963266 1.24736 0
M  V30 5754 C 540.731 -1.74699 1.11781 0
M  V30 5755 C 541.156 -1.85267 -0.325258 0
M  V30 5756 O 540.514 -1.32681 -1.23553 0
M  V30 5757 C 540.562 -3.14322 1.76731 0
M  V30 5758 O 539.666 -3.99043 1.04109 0
M  V30 5759 H 539.007 -0.53684 0.390767 0
M  V30 5760 H 541.537 -1.20801 1.65131 0
M  V30 5761 H 541.547 -3.64824 1.82668 0
M  V30 5762 H 540.222 -3.05946 2.81726 0
M  V30 5763 H 538.799 -3.5752 1.05991 0
M  V30 5764 N 540.985 -1.06182 -1.16461 0
M  V30 5765 C 542.234 -0.772927 -1.86303 0
M  V30 5766 C 542.547 0.703187 -1.82523 0
M  V30 5767 O 543.753 1.10641 -2.47933 0
M  V30 5768 C 542.209 -1.33249 -3.34324 0
M  V30 5769 C 541.817 -2.83876 -3.46581 0
M  V30 5770 C 543.561 -1.12108 -4.09429 0
M  V30 5771 C 541.468 -3.33082 -4.88682 0
M  V30 5772 H 540.398 -0.285452 -0.697878 0
M  V30 5773 H 543.049 -1.28039 -1.31447 0
M  V30 5774 H 541.431 -0.7528 -3.88779 0
M  V30 5775 H 542.605 -3.47786 -3.02293 0
M  V30 5776 H 540.92 -3.03671 -2.84909 0
M  V30 5777 H 543.517 -1.46361 -5.14279 0
M  V30 5778 H 543.86 -0.0593832 -4.16258 0
M  V30 5779 H 544.393 -1.6665 -3.6121 0
M  V30 5780 H 541.132 -4.38726 -4.87032 0
M  V30 5781 H 540.652 -2.73919 -5.33599 0
M  V30 5782 H 542.331 -3.28344 -5.57494 0
M  V30 5783 N 542.463 1.3308 -0.844243 0
M  V30 5784 C 543.691 2.01808 -0.456203 0
M  V30 5785 C 544.106 1.63498 0.944131 0
M  V30 5786 O 543.463 0.85102 1.61443 0
M  V30 5787 C 543.514 3.56922 -0.573513 0
M  V30 5788 O 543.235 3.93851 -1.91868 0
M  V30 5789 C 544.736 4.42922 -0.183125 0
M  V30 5790 H 541.956 0.646273 -0.180477 0
M  V30 5791 H 544.5 1.69891 -1.1383 0
M  V30 5792 H 542.655 3.87352 0.0607367 0
M  V30 5793 H 543.069 4.88564 -1.90802 0
M  V30 5794 H 544.543 5.51093 -0.316241 0
M  V30 5795 H 545.02 4.30386 0.875477 0
M  V30 5796 H 545.626 4.1786 -0.792027 0
M  V30 5797 N 543.941 0.601185 1.45683 0
M  V30 5798 C 545.189 0.0936957 2.01883 0
M  V30 5799 C 545.51 -1.2779 1.47291 0
M  V30 5800 O 544.78 -1.84279 0.664691 0
M  V30 5801 H 543.36 0.0316466 0.746329 0
M  V30 5802 H 546.022 0.781137 1.78562 0
M  V30 5803 H 545.118 0.0386297 3.12076 0
M  V30 5804 N 545.419 -1.53889 0.339982 0
M  V30 5805 C 546.382 -2.23547 -0.50592 0
M  V30 5806 C 547.382 -1.23445 -1.03044 0
M  V30 5807 O 548.572 -1.47909 -0.920253 0
M  V30 5808 C 545.704 -2.95234 -1.7044 0
M  V30 5809 H 546.897 -2.99722 0.103247 0
M  V30 5810 H 544.45 -1.56033 0.0912804 0
M  V30 5811 H 545.185 -2.23236 -2.35236 0
M  V30 5812 H 544.97 -3.68654 -1.33553 0
M  V30 5813 H 546.46 -3.48258 -2.30447 0
M  V30 5814 N 546.897 -0.0685191 -1.57451 0
M  V30 5815 C 548.308 0.464634 -1.80826 0
M  V30 5816 C 548.659 1.69847 -0.982169 0
M  V30 5817 O 547.784 2.15439 -0.203734 0
M  V30 5818 C 548.379 0.849721 -3.27971 0
M  V30 5819 C 546.938 1.32776 -3.52204 0
M  V30 5820 C 546.085 0.311332 -2.75547 0
M  V30 5821 H 549.036 -0.294248 -1.55948 0
M  V30 5822 H 549.057 1.71138 -3.39841 0
M  V30 5823 H 548.569 -0.0484736 -3.8807 0
M  V30 5824 H 546.67 2.24456 -2.97406 0
M  V30 5825 H 546.783 1.30794 -4.60901 0
M  V30 5826 H 545.147 0.787915 -2.42206 0
M  V30 5827 H 545.93 -0.579078 -3.38381 0
M  V30 5828 N 548.375 1.56261 0.205012 0
M  V30 5829 C 549.322 1.93754 1.25411 0
M  V30 5830 C 550.292 0.796826 1.45739 0
M  V30 5831 O 551.477 1.05414 1.59036 0
M  V30 5832 C 548.617 2.27383 2.59598 0
M  V30 5833 C 547.73 3.5447 2.46931 0
M  V30 5834 C 546.865 3.77468 3.73753 0
M  V30 5835 C 545.904 4.98014 3.55877 0
M  V30 5836 N 545.041 5.17316 4.74688 0
M  V30 5837 H 549.881 2.83203 0.92737 0
M  V30 5838 H 547.418 1.40158 0.446574 0
M  V30 5839 H 549.376 2.44895 3.37761 0
M  V30 5840 H 548.006 1.41088 2.90335 0
M  V30 5841 H 547.058 3.45061 1.60116 0
M  V30 5842 H 548.37 4.42789 2.29651 0
M  V30 5843 H 547.524 3.95165 4.60358 0
M  V30 5844 H 546.263 2.87461 3.93976 0
M  V30 5845 H 545.268 4.80249 2.67657 0
M  V30 5846 H 546.493 5.8952 3.37109 0
M  V30 5847 H 544.439 4.30255 4.95194 0
M  V30 5848 H 544.356 5.99796 4.60197 0
M  V30 5849 H 545.624 5.39463 5.62672 0
M  V30 5850 N 549.853 -0.472356 1.50355 0
M  V30 5851 C 551.099 -1.22634 1.6152 0
M  V30 5852 C 551.432 -1.91645 0.313995 0
M  V30 5853 O 550.707 -1.82059 -0.684446 0
M  V30 5854 C 550.99 -2.27099 2.7946 0
M  V30 5855 C 550.843 -1.62402 4.19459 0
M  V30 5856 C 552.162 -3.28421 2.92964 0
M  V30 5857 H 549.281 -0.444494 0.587873 0
M  V30 5858 H 551.923 -0.520321 1.82737 0
M  V30 5859 H 550.073 -2.87314 2.61501 0
M  V30 5860 H 551.745 -1.05793 4.49005 0
M  V30 5861 H 549.988 -0.927184 4.23776 0
M  V30 5862 H 550.659 -2.38309 4.97909 0
M  V30 5863 H 553.135 -2.78227 3.09401 0
M  V30 5864 H 552.011 -3.98845 3.77113 0
M  V30 5865 H 552.272 -3.92467 2.03525 0
M  V30 5866 N 551.331 -1.39911 -0.725443 0
M  V30 5867 C 552.747 -1.21725 -1.03224 0
M  V30 5868 C 552.947 -0.0855224 -2.01318 0
M  V30 5869 O 552.003 0.55976 -2.46217 0
M  V30 5870 C 553.316 -2.55511 -1.58539 0
M  V30 5871 C 554.864 -2.62439 -1.70572 0
M  V30 5872 C 555.339 -3.9647 -2.29294 0
M  V30 5873 N 556.83 -3.98159 -2.36692 0
M  V30 5874 C 557.565 -4.98647 -2.83088 0
M  V30 5875 N 557.061 -6.0953 -3.2931 0
M  V30 5876 N 558.854 -4.8602 -2.82384 0
M  V30 5877 H 551.005 -2.12267 -0.075048 0
M  V30 5878 H 553.268 -0.943136 -0.0959066 0
M  V30 5879 H 552.974 -3.38926 -0.939249 0
M  V30 5880 H 552.848 -2.75905 -2.57208 0
M  V30 5881 H 555.235 -1.79401 -2.34306 0
M  V30 5882 H 555.316 -2.45885 -0.705297 0
M  V30 5883 H 554.96 -4.79942 -1.66186 0
M  V30 5884 H 554.89 -4.10349 -3.30032 0
M  V30 5885 H 557.381 -3.18085 -2.04035 0
M  V30 5886 H 557.694 -6.82106 -3.6325 0
M  V30 5887 H 556.039 -6.1311 -3.27294 0
M  V30 5888 H 559.23 -3.98493 -2.45603 0
M  V30 5889 H 559.403 -5.64478 -3.18226 0
M  V30 5890 N 552.809 0.956637 -1.25245 0
M  V30 5891 C 553.772 2.03457 -1.05537 0
M  V30 5892 C 554.772 1.60798 -0.00886317 0
M  V30 5893 O 555.962 1.72384 -0.250865 0
M  V30 5894 C 553.094 3.35543 -0.601965 0
M  V30 5895 H 554.287 2.22372 -2.01223 0
M  V30 5896 H 551.84 1.13344 -1.07623 0
M  V30 5897 H 552.575 3.22323 0.357584 0
M  V30 5898 H 552.36 3.67854 -1.35743 0
M  V30 5899 H 553.85 4.14769 -0.485454 0
M  V30 5900 N 554.287 1.06798 1.15896 0
M  V30 5901 C 555.22 0.627503 2.19403 0
M  V30 5902 C 556.198 -0.352352 1.58736 0
M  V30 5903 O 557.382 -0.260111 1.86697 0
M  V30 5904 C 554.509 -0.079356 3.38607 0
M  V30 5905 C 553.555 0.858057 4.17779 0
M  V30 5906 S 554.388 2.35605 4.80885 0
M  V30 5907 C 555.544 1.66083 6.03463 0
M  V30 5908 H 555.777 1.50441 2.56427 0
M  V30 5909 H 553.31 0.881427 1.26768 0
M  V30 5910 H 555.268 -0.48095 4.07673 0
M  V30 5911 H 553.929 -0.932524 2.99938 0
M  V30 5912 H 553.122 0.310108 5.03045 0
M  V30 5913 H 552.724 1.19977 3.54234 0
M  V30 5914 H 555.016 0.969337 6.7053 0
M  V30 5915 H 555.959 2.49159 6.62816 0
M  V30 5916 H 556.367 1.14122 5.52844 0
M  V30 5917 N 555.766 -1.3263 0.851289 0
M  V30 5918 C 556.676 -2.32722 0.296268 0
M  V30 5919 C 557.692 -1.63901 -0.584162 0
M  V30 5920 O 558.868 -1.95465 -0.485334 0
M  V30 5921 C 555.933 -3.42942 -0.509103 0
M  V30 5922 C 554.994 -4.2746 0.397069 0
M  V30 5923 C 554.227 -5.32416 -0.36996 0
M  V30 5924 O 554.45 -5.47491 -1.6003 0
M  V30 5925 O 553.384 -6.01327 0.262493 0
M  V30 5926 H 557.21 -2.82078 1.12543 0
M  V30 5927 H 554.795 -1.36194 0.614135 0
M  V30 5928 H 556.677 -4.1017 -0.96634 0
M  V30 5929 H 555.352 -2.95781 -1.31512 0
M  V30 5930 H 554.259 -3.63053 0.902411 0
M  V30 5931 H 555.592 -4.78136 1.16818 0
M  V30 5932 N 557.244 -0.608902 -1.45362 0
M  V30 5933 C 558.493 -0.10218 -2.01441 0
M  V30 5934 C 558.806 1.27546 -1.48295 0
M  V30 5935 O 560.012 1.87498 -1.96359 0
M  V30 5936 C 558.468 -0.131985 -3.59658 0
M  V30 5937 C 558.076 -1.50956 -4.21801 0
M  V30 5938 C 559.82 0.319427 -4.23296 0
M  V30 5939 C 557.727 -1.49568 -5.72174 0
M  V30 5940 H 556.657 -0.0344314 -0.753213 0
M  V30 5941 H 559.308 -0.764426 -1.6682 0
M  V30 5942 H 557.69 0.596939 -3.91475 0
M  V30 5943 H 558.864 -2.26029 -4.01556 0
M  V30 5944 H 557.179 -1.90318 -3.70362 0
M  V30 5945 H 559.776 0.349013 -5.3356 0
M  V30 5946 H 560.119 1.34237 -3.94064 0
M  V30 5947 H 560.652 -0.356273 -3.96201 0
M  V30 5948 H 557.391 -2.49626 -6.06108 0
M  V30 5949 H 556.911 -0.787542 -5.94607 0
M  V30 5950 H 558.59 -1.21989 -6.35396 0
M  V30 5951 N 558.722 1.53707 -0.348139 0
M  V30 5952 C 559.971 2.0017 0.247992 0
M  V30 5953 C 560.284 1.23983 1.51286 0
M  V30 5954 O 561.49 1.60946 2.18652 0
M  V30 5955 C 559.946 3.56515 0.492459 0
M  V30 5956 C 559.554 4.41562 -0.756777 0
M  V30 5957 C 561.298 4.11381 1.0472 0
M  V30 5958 C 559.205 5.89426 -0.482856 0
M  V30 5959 H 558.135 0.747806 0.0964452 0
M  V30 5960 H 560.786 1.77532 -0.464179 0
M  V30 5961 H 559.168 3.75236 1.26545 0
M  V30 5962 H 560.342 4.34615 -1.53122 0
M  V30 5963 H 558.657 3.97711 -1.23348 0
M  V30 5964 H 561.254 5.19468 1.26717 0
M  V30 5965 H 561.597 3.64885 2.00411 0
M  V30 5966 H 562.13 3.96389 0.334801 0
M  V30 5967 H 558.869 6.40164 -1.40962 0
M  V30 5968 H 558.389 5.99264 0.253416 0
M  V30 5969 H 560.068 6.4692 -0.101816 0
M  V30 5970 N 560.2 0.0768682 1.57412 0
M  V30 5971 C 561.477 -0.632359 1.85096 0
M  V30 5972 C 561.857 -1.87479 0.9703 0
M  V30 5973 O 561.205 -2.28469 0.0379062 0
M  V30 5974 C 561.415 -0.965174 3.35388 0
M  V30 5975 C 562.763 -1.33648 4.03018 0
M  V30 5976 O 563.787 -1.05675 3.40164 0
M  V30 5977 O 562.646 -1.85959 5.13889 0
M  V30 5978 H 559.74 -0.314574 0.764835 0
M  V30 5979 H 562.286 0.108184 1.69355 0
M  V30 5980 H 561.058 -0.0829745 3.91212 0
M  V30 5981 H 560.681 -1.76231 3.5641 0
M  V30 5982 N 561.678 -1.56367 -0.196722 0
M  V30 5983 C 562.588 -1.97617 -1.2643 0
M  V30 5984 C 563.604 -0.883598 -1.49895 0
M  V30 5985 O 564.78 -1.18921 -1.62541 0
M  V30 5986 C 561.845 -2.30595 -2.58895 0
M  V30 5987 C 560.906 -3.53551 -2.43516 0
M  V30 5988 C 560.139 -3.84946 -3.69665 0
M  V30 5989 O 560.362 -3.17655 -4.73763 0
M  V30 5990 O 559.296 -4.78379 -3.65291 0
M  V30 5991 H 563.122 -2.88648 -0.944233 0
M  V30 5992 H 560.707 -1.43901 -0.401592 0
M  V30 5993 H 562.589 -2.52889 -3.37083 0
M  V30 5994 H 561.264 -1.42732 -2.90533 0
M  V30 5995 H 560.171 -3.36507 -1.63445 0
M  V30 5996 H 561.504 -4.41875 -2.16812 0
M  V30 5997 N 563.156 0.464375 -1.50603 0
M  V30 5998 C 564.086 1.56944 -1.72889 0
M  V30 5999 C 565.067 1.59979 -0.577997 0
M  V30 6000 O 566.252 1.76138 -0.817855 0
M  V30 6001 C 563.382 2.95225 -1.8292 0
M  V30 6002 C 562.336 3.07056 -2.98162 0
M  V30 6003 C 561.662 4.47051 -2.93343 0
M  V30 6004 C 562.962 2.83648 -4.38567 0
M  V30 6005 H 564.656 1.38547 -2.65415 0
M  V30 6006 H 562.202 0.665082 -1.27721 0
M  V30 6007 H 564.155 3.72467 -1.97095 0
M  V30 6008 H 562.879 3.14793 -0.870209 0
M  V30 6009 H 561.538 2.32248 -2.83648 0
M  V30 6010 H 561.186 4.63547 -1.95276 0
M  V30 6011 H 560.886 4.55902 -3.70712 0
M  V30 6012 H 562.41 5.26304 -3.09575 0
M  V30 6013 H 563.824 3.50636 -4.53572 0
M  V30 6014 H 562.221 3.03937 -5.17438 0
M  V30 6015 H 563.291 1.79451 -4.50472 0
M  V30 6016 N 564.634 1.40294 0.718013 0
M  V30 6017 C 565.544 1.42678 1.86226 0
M  V30 6018 C 566.56 0.319655 1.71039 0
M  V30 6019 O 567.736 0.563852 1.93346 0
M  V30 6020 C 564.801 1.2852 3.21999 0
M  V30 6021 C 563.862 2.49354 3.49458 0
M  V30 6022 C 563.095 2.35863 4.78753 0
M  V30 6023 O 563.318 1.37114 5.53675 0
M  V30 6024 O 562.252 3.25189 5.06494 0
M  V30 6025 H 566.078 2.39167 1.87171 0
M  V30 6026 H 563.663 1.2159 0.868112 0
M  V30 6027 H 565.545 1.22824 4.03103 0
M  V30 6028 H 564.22 0.351359 3.21787 0
M  V30 6029 H 563.127 2.60628 2.68373 0
M  V30 6030 H 564.46 3.41491 3.54464 0
M  V30 6031 N 566.112 -0.949982 1.2575 0
M  V30 6032 C 567.523 -1.50989 1.09815 0
M  V30 6033 C 567.874 -1.93497 -0.324556 0
M  V30 6034 O 566.999 -1.79068 -1.21506 0
M  V30 6035 C 567.594 -2.74394 1.98729 0
M  V30 6036 C 566.153 -3.26682 1.86965 0
M  V30 6037 C 565.3 -1.99498 1.92603 0
M  V30 6038 H 568.251 -0.766387 1.38968 0
M  V30 6039 H 568.272 -3.48383 1.53001 0
M  V30 6040 H 567.784 -2.43425 3.02268 0
M  V30 6041 H 565.885 -3.62461 0.863279 0
M  V30 6042 H 565.998 -3.94383 2.72027 0
M  V30 6043 H 564.362 -2.15005 1.36546 0
M  V30 6044 H 565.145 -1.70871 2.97755 0
M  V30 6045 N 567.59 -1.07411 -1.15328 0
M  V30 6046 C 568.522 -0.652924 -2.19703 0
M  V30 6047 C 569.535 0.294869 -1.60107 0
M  V30 6048 O 570.724 0.0840932 -1.78302 0
M  V30 6049 C 567.824 0.061434 -3.38844 0
M  V30 6050 C 566.997 -0.902696 -4.27984 0
M  V30 6051 C 566.056 -0.225521 -5.25717 0
M  V30 6052 O 565.082 -0.86676 -5.62562 0
M  V30 6053 N 566.284 1.02858 -5.71315 0
M  V30 6054 H 569.049 -1.55081 -2.56457 0
M  V30 6055 H 566.61 -0.958883 -1.30449 0
M  V30 6056 H 568.602 0.525145 -4.01278 0
M  V30 6057 H 567.172 0.861269 -3.00501 0
M  V30 6058 H 566.392 -1.54551 -3.6264 0
M  V30 6059 H 567.68 -1.55636 -4.84412 0
M  V30 6060 H 567.078 1.56948 -5.43492 0
M  V30 6061 H 565.635 1.43596 -6.35786 0
M  V30 6062 N 569.068 1.32177 -0.85831 0
M  V30 6063 C 570.484 1.49873 -0.548656 0
M  V30 6064 C 570.684 1.79278 0.919874 0
M  V30 6065 O 569.74 1.86451 1.70271 0
M  V30 6066 C 571.053 2.64043 -1.4388 0
M  V30 6067 C 572.601 2.77928 -1.43961 0
M  V30 6068 C 573.076 3.95182 -2.31506 0
M  V30 6069 N 574.567 4.0245 -2.29321 0
M  V30 6070 C 575.302 4.9242 -2.93786 0
M  V30 6071 N 574.798 5.87373 -3.67376 0
M  V30 6072 N 576.591 4.85572 -2.83155 0
M  V30 6073 H 568.742 1.11357 -1.80868 0
M  V30 6074 H 571.005 0.549175 -0.772729 0
M  V30 6075 H 570.711 2.49055 -2.48324 0
M  V30 6076 H 570.585 3.59912 -1.12885 0
M  V30 6077 H 572.972 2.92338 -0.402813 0
M  V30 6078 H 573.053 1.82762 -1.78974 0
M  V30 6079 H 572.697 3.81531 -3.35256 0
M  V30 6080 H 572.627 4.89633 -1.93823 0
M  V30 6081 H 575.118 3.34507 -1.75822 0
M  V30 6082 H 575.431 6.52728 -4.13722 0
M  V30 6083 H 573.776 5.87388 -3.71484 0
M  V30 6084 H 576.967 4.10363 -2.25211 0
M  V30 6085 H 577.14 5.55486 -3.33676 0
M  V30 6086 N 570.547 0.616602 1.45037 0
M  V30 6087 C 571.963 0.280994 1.57107 0
M  V30 6088 C 572.163 -1.21627 1.60653 0
M  V30 6089 O 571.219 -1.9997 1.54169 0
M  V30 6090 C 572.532 0.960116 2.8496 0
M  V30 6091 C 574.08 0.936884 2.98649 0
M  V30 6092 C 574.555 1.59619 4.29285 0
M  V30 6093 N 576.046 1.5621 4.36065 0
M  V30 6094 C 576.781 2.04131 5.35834 0
M  V30 6095 N 576.277 2.60177 6.4209 0
M  V30 6096 N 578.07 1.94845 5.27249 0
M  V30 6097 H 570.221 1.58867 1.40979 0
M  V30 6098 H 572.484 0.666024 0.674623 0
M  V30 6099 H 572.19 2.01473 2.88273 0
M  V30 6100 H 572.064 0.488921 3.74018 0
M  V30 6101 H 574.451 -0.109209 2.94898 0
M  V30 6102 H 574.532 1.44643 2.10979 0
M  V30 6103 H 574.176 2.64166 4.33796 0
M  V30 6104 H 574.106 1.06159 5.15789 0
M  V30 6105 H 576.597 1.15276 3.59889 0
M  V30 6106 H 576.91 2.94513 7.1448 0
M  V30 6107 H 575.255 2.64221 6.42816 0
M  V30 6108 H 578.446 1.50792 4.43147 0
M  V30 6109 H 578.619 2.32504 6.04852 0
M  V30 6110 N 572.025 -1.5352 0.356285 0
M  V30 6111 C 572.973 -2.26945 -0.50978 0
M  V30 6112 C 573.967 -1.29569 -1.09125 0
M  V30 6113 O 575.173 -1.47231 -1.03552 0
M  V30 6114 H 571.548 -0.729368 -0.183102 0
M  V30 6115 H 573.519 -2.98111 0.131374 0
M  V30 6116 C 572.268 -3.06466 -1.64237 0
M  V30 6117 H 571.591 -3.81233 -1.20423 0
M  V30 6118 H 573.031 -3.61035 -2.22327 0
M  V30 6119 C 571.49 -2.16737 -2.57928 0
M  V30 6120 O 572.02 -1.77195 -3.60507 0
M  V30 6121 N 570.226 -1.81558 -2.26903 0
M  V30 6122 H 569.773 -2.13913 -1.43524 0
M  V30 6123 H 569.731 -1.21806 -2.89846 0
M  V30 6124 N 573.503 -0.0852151 -1.57369 0
M  V30 6125 C 574.466 0.8627 -2.12344 0
M  V30 6126 C 575.466 1.21746 -1.05046 0
M  V30 6127 O 576.656 1.14852 -1.30976 0
M  V30 6128 C 573.788 2.1618 -2.63589 0
M  V30 6129 H 574.981 0.385511 -2.97412 0
M  V30 6130 H 572.534 0.163663 -1.55441 0
M  V30 6131 H 573.269 2.68406 -1.82013 0
M  V30 6132 H 573.054 1.91723 -3.4203 0
M  V30 6133 H 574.544 2.84011 -3.06149 0
M  V30 6134 N 574.981 1.5647 0.188427 0
M  V30 6135 C 576.227 1.82181 0.904534 0
M  V30 6136 C 576.582 0.663258 1.80606 0
M  V30 6137 O 575.875 -0.341231 1.88537 0
M  V30 6138 C 576.069 3.11596 1.7505 0
M  V30 6139 C 575.898 4.39928 0.932372 0
M  V30 6140 C 574.668 5.01554 0.61417 0
M  V30 6141 C 576.866 5.13527 0.281936 0
M  V30 6142 N 574.848 6.13499 -0.221896 0
M  V30 6143 C 576.219 6.18603 -0.416037 0
M  V30 6144 C 578.274 4.97505 0.198345 0
M  V30 6145 C 576.977 7.09394 -1.18965 0
M  V30 6146 C 579.003 5.88725 -0.561887 0
M  V30 6147 C 578.365 6.93251 -1.24828 0
M  V30 6148 H 574.464 0.717858 0.310168 0
M  V30 6149 H 577.048 1.93932 0.172757 0
M  V30 6150 H 575.219 3.01068 2.45383 0
M  V30 6151 H 576.951 3.25369 2.4066 0
M  V30 6152 H 573.706 4.64174 0.940187 0
M  V30 6153 H 574.13 6.74065 -0.629735 0
M  V30 6154 H 578.772 4.16716 0.714665 0
M  V30 6155 H 576.49 7.8964 -1.71737 0
M  V30 6156 H 580.076 5.78401 -0.628009 0
M  V30 6157 H 578.956 7.62618 -1.82712 0
M  V30 6158 N 576.459 -0.456382 1.50847 0
M  V30 6159 C 577.699 -1.21704 1.64218 0
M  V30 6160 C 578.063 -1.88932 0.341859 0
M  V30 6161 O 579.264 -2.66497 0.351137 0
M  V30 6162 C 577.535 -2.22162 2.79962 0
M  V30 6163 S 579.094 -3.0697 3.13552 0
M  V30 6164 H 575.912 -0.412995 0.578754 0
M  V30 6165 H 578.514 -0.511637 1.88686 0
M  V30 6166 H 577.218 -1.71379 3.72904 0
M  V30 6167 H 576.749 -2.9731 2.57624 0
M  V30 6168 H 578.764 -4.23539 2.58513 0
M  V30 6169 N 577.937 -1.40673 -0.710563 0
M  V30 6170 C 579.185 -1.38947 -1.46759 0
M  V30 6171 C 579.506 0.00572879 -1.94999 0
M  V30 6172 O 578.776 0.961358 -1.70689 0
M  V30 6173 H 577.356 -0.5114 -0.544499 0
M  V30 6174 H 580.018 -1.75773 -0.842012 0
M  V30 6175 H 579.114 -2.06745 -2.33801 0
M  V30 6176 N 579.415 0.9433 -1.26252 0
M  V30 6177 C 580.64 1.72898 -1.14547 0
M  V30 6178 C 581.065 1.85761 0.295743 0
M  V30 6179 O 580.423 1.3463 1.21427 0
M  V30 6180 C 580.471 3.11471 -1.8171 0
M  V30 6181 O 579.575 3.97336 -1.10445 0
M  V30 6182 H 578.916 0.530555 -0.399259 0
M  V30 6183 H 581.446 1.18159 -1.67032 0
M  V30 6184 H 581.456 3.61872 -1.88449 0
M  V30 6185 H 580.131 3.01425 -2.86558 0
M  V30 6186 H 578.708 3.55788 -1.11666 0
M  V30 6187 N 580.893 1.08022 1.14757 0
M  V30 6188 C 582.142 0.802468 1.8505 0
M  V30 6189 C 582.455 -0.674061 1.83619 0
M  V30 6190 O 583.661 -1.06683 2.49662 0
M  V30 6191 C 582.117 1.38551 3.32162 0
M  V30 6192 C 581.725 2.89354 3.42021 0
M  V30 6193 C 583.469 1.18608 4.07594 0
M  V30 6194 C 581.376 3.40815 4.83321 0
M  V30 6195 H 580.306 0.296518 0.693248 0
M  V30 6196 H 582.957 1.30114 1.29393 0
M  V30 6197 H 581.339 0.814556 3.87532 0
M  V30 6198 H 582.513 3.52552 2.96722 0
M  V30 6199 H 580.828 3.08165 2.80041 0
M  V30 6200 H 583.425 1.54525 5.11885 0
M  V30 6201 H 583.768 0.125599 4.1611 0
M  V30 6202 H 584.301 1.72375 3.58513 0
M  V30 6203 H 581.04 4.46418 4.79991 0
M  V30 6204 H 580.56 2.82374 5.29174 0
M  V30 6205 H 582.239 3.37171 5.522 0
M  V30 6206 N 582.371 -1.3172 0.865308 0
M  V30 6207 C 583.619 -1.96487 0.472995 0
M  V30 6208 C 583.94 -1.68761 -0.976975 0
M  V30 6209 O 583.21 -1.00051 -1.68424 0
M  V30 6210 H 581.79 -0.726947 0.171922 0
M  V30 6211 H 584.452 -1.60612 1.10407 0
M  V30 6212 H 583.548 -3.0574 0.62687 0
M  V30 6213 N 583.85 -0.624285 -1.44708 0
M  V30 6214 C 585.08 -0.132726 -2.06173 0
M  V30 6215 C 585.488 1.19513 -1.46674 0
M  V30 6216 O 584.831 1.74254 -0.581491 0
M  V30 6217 C 584.893 0.0636732 -3.59444 0
M  V30 6218 C 584.557 -1.18496 -4.4137 0
M  V30 6219 C 585.553 -2.10706 -4.75288 0
M  V30 6220 C 583.239 -1.41846 -4.81856 0
M  V30 6221 C 585.233 -3.24582 -5.48567 0
M  V30 6222 C 582.92 -2.5602 -5.54885 0
M  V30 6223 C 583.918 -3.47215 -5.88159 0
M  V30 6224 O 583.606 -4.59399 -6.59703 0
M  V30 6225 H 583.338 -0.0737313 -0.671967 0
M  V30 6226 H 585.892 -0.856789 -1.86677 0
M  V30 6227 H 584.122 0.842809 -3.77404 0
M  V30 6228 H 585.811 0.508924 -4.02697 0
M  V30 6229 H 586.577 -1.93898 -4.44554 0
M  V30 6230 H 582.456 -0.717556 -4.55381 0
M  V30 6231 H 586 -3.95785 -5.74456 0
M  V30 6232 H 581.897 -2.72774 -5.85034 0
M  V30 6233 H 582.665 -4.58293 -6.78166 0
M  V30 6234 N 585.328 1.53329 -0.364422 0
M  V30 6235 C 586.258 2.28627 0.474543 0
M  V30 6236 C 587.239 1.31009 1.08492 0
M  V30 6237 O 588.424 1.59878 1.10239 0
M  V30 6238 C 585.554 3.07465 1.61501 0
M  V30 6239 C 584.508 4.1276 1.13194 0
M  V30 6240 C 583.834 4.79674 2.36255 0
M  V30 6241 C 585.134 5.21847 0.217507 0
M  V30 6242 H 586.828 2.99005 -0.153656 0
M  V30 6243 H 584.374 1.43803 -0.0753406 0
M  V30 6244 H 586.327 3.58889 2.20855 0
M  V30 6245 H 585.051 2.34775 2.27042 0
M  V30 6246 H 583.71 3.62281 0.56109 0
M  V30 6247 H 583.358 4.03557 3.00251 0
M  V30 6248 H 583.058 5.50827 2.04606 0
M  V30 6249 H 584.582 5.33892 2.96297 0
M  V30 6250 H 585.996 5.6878 0.718493 0
M  V30 6251 H 584.393 6.00099 -0.00806408 0
M  V30 6252 H 585.463 4.7921 -0.740653 0
M  V30 6253 N 586.806 0.0935595 1.57322 0
M  V30 6254 C 588.031 -0.582324 1.99057 0
M  V30 6255 C 588.456 -1.61025 0.972242 0
M  V30 6256 O 587.814 -1.81202 -0.0594622 0
M  V30 6257 C 587.862 -1.20799 3.39765 0
M  V30 6258 O 586.966 -2.32382 3.40694 0
M  V30 6259 H 586.307 -0.147884 0.647323 0
M  V30 6260 H 588.837 0.174516 2.03854 0
M  V30 6261 H 588.847 -1.54966 3.77425 0
M  V30 6262 H 587.522 -0.454914 4.13405 0
M  V30 6263 H 586.099 -1.99845 3.14827 0
M  V30 6264 N 588.284 -1.56567 -0.180126 0
M  V30 6265 C 589.531 -1.81492 -0.898167 0
M  V30 6266 C 589.859 -0.669225 -1.82624 0
M  V30 6267 O 589.114 0.344096 -1.92651 0
M  V30 6268 C 589.413 -3.1252 -1.73395 0
M  V30 6269 C 589.079 -4.40658 -0.955567 0
M  V30 6270 C 587.741 -4.75465 -0.740707 0
M  V30 6271 C 590.093 -5.19593 -0.408948 0
M  V30 6272 C 587.421 -5.86691 0.0320128 0
M  V30 6273 C 589.773 -6.31627 0.350638 0
M  V30 6274 C 588.437 -6.65007 0.576378 0
M  V30 6275 H 587.707 -0.664125 -0.328662 0
M  V30 6276 H 590.354 -1.908 -0.163616 0
M  V30 6277 H 588.659 -2.98515 -2.53763 0
M  V30 6278 H 590.356 -3.29013 -2.29241 0
M  V30 6279 H 586.946 -4.13352 -1.13306 0
M  V30 6280 H 591.13 -4.93104 -0.562307 0
M  V30 6281 H 586.386 -6.11016 0.216735 0
M  V30 6282 H 590.56 -6.92001 0.781497 0
M  V30 6283 H 588.187 -7.51033 1.17703 0
M  V30 6284 N 589.762 0.448376 -1.51087 0
M  V30 6285 C 591.002 1.20832 -1.64861 0
M  V30 6286 C 591.366 1.88748 -0.351873 0
M  V30 6287 O 592.567 2.66307 -0.365265 0
M  V30 6288 C 590.838 2.20674 -2.81137 0
M  V30 6289 S 592.397 3.05303 -3.15176 0
M  V30 6290 H 589.215 0.40992 -0.580936 0
M  V30 6291 H 591.817 0.501624 -1.88955 0
M  V30 6292 H 590.521 1.69399 -3.73808 0
M  V30 6293 H 590.052 2.9594 -2.59198 0
M  V30 6294 H 592.067 4.22162 -2.60756 0
M  V30 6295 N 591.24 1.41047 0.703093 0
M  V30 6296 C 592.488 1.39723 1.4602 0
M  V30 6297 C 592.809 0.00461257 1.94999 0
M  V30 6298 O 592.079 -0.952292 1.71196 0
M  V30 6299 H 590.659 0.514281 0.541779 0
M  V30 6300 H 593.321 1.76217 0.832678 0
M  V30 6301 H 592.417 2.07982 2.32701 0
M  V30 6302 N 592.718 -0.936591 1.26751 0
M  V30 6303 C 593.666 -2.0573 1.08527 0
M  V30 6304 C 594.66 -1.69397 0.0108784 0
M  V30 6305 O 595.866 -1.79215 0.167915 0
M  V30 6306 H 592.241 -0.673691 0.334133 0
M  V30 6307 H 594.212 -2.1825 2.03493 0
M  V30 6308 C 592.961 -3.39738 0.739845 0
M  V30 6309 H 592.284 -3.68174 1.55845 0
M  V30 6310 H 593.724 -4.18955 0.652149 0
M  V30 6311 C 592.183 -3.32292 -0.555288 0
M  V30 6312 O 592.713 -3.68794 -1.59229 0
M  V30 6313 N 590.919 -2.85394 -0.54762 0
M  V30 6314 H 590.466 -2.55886 0.296667 0
M  V30 6315 H 590.424 -2.80795 -1.41427 0
M  V30 6316 N 594.196 -1.08629 -1.14182 0
M  V30 6317 C 595.129 -0.662329 -2.18377 0
M  V30 6318 C 596.107 0.327054 -1.59277 0
M  V30 6319 O 597.291 0.230376 -1.87087 0
M  V30 6320 C 594.418 0.0254765 -3.3869 0
M  V30 6321 C 593.464 -0.924414 -4.16361 0
M  V30 6322 S 594.297 -2.43226 -4.77076 0
M  V30 6323 C 595.453 -1.75663 -6.00744 0
M  V30 6324 H 595.686 -1.54501 -2.54001 0
M  V30 6325 H 593.219 -0.901484 -1.2535 0
M  V30 6326 H 595.177 0.416032 -4.08386 0
M  V30 6327 H 593.838 0.884689 -3.01384 0
M  V30 6328 H 593.031 -0.390099 -5.02488 0
M  V30 6329 H 592.633 -1.25598 -3.5228 0
M  V30 6330 H 594.925 -1.07589 -6.68903 0
M  V30 6331 H 595.868 -2.59673 -6.58768 0
M  V30 6332 H 596.276 -1.22903 -5.50958 0
M  V30 6333 N 595.674 1.31259 -0.872281 0
M  V30 6334 C 596.951 1.91362 -0.404943 0
M  V30 6335 C 597.331 1.79362 1.11321 0
M  V30 6336 O 596.679 1.20277 1.94283 0
M  V30 6337 C 596.889 3.3749 -0.888893 0
M  V30 6338 C 598.237 4.14593 -0.916384 0
M  V30 6339 O 599.261 3.46282 -0.834701 0
M  V30 6340 O 598.12 5.3661 -1.03498 0
M  V30 6341 H 595.214 0.818016 -0.121569 0
M  V30 6342 H 597.76 1.39912 -0.960346 0
M  V30 6343 H 596.532 3.40249 -1.93251 0
M  V30 6344 H 596.155 3.96375 -0.311932 0
M  V30 6345 N 597.152 0.631951 1.44375 0
M  V30 6346 C 598.38 0.143867 2.06399 0
M  V30 6347 C 598.795 -1.18188 1.47231 0
M  V30 6348 O 598.152 -1.72511 0.595498 0
M  V30 6349 C 598.203 0.0238253 3.61492 0
M  V30 6350 O 597.924 1.29715 4.18456 0
M  V30 6351 C 599.425 -0.492856 4.40552 0
M  V30 6352 H 596.645 0.0800542 0.666207 0
M  V30 6353 H 599.189 0.866586 1.85231 0
M  V30 6354 H 597.344 -0.649338 3.81919 0
M  V30 6355 H 597.758 1.14252 5.11905 0
M  V30 6356 H 599.232 -0.525861 5.49489 0
M  V30 6357 H 599.709 -1.52006 4.12057 0
M  V30 6358 H 600.315 0.147085 4.25046 0
M  V30 6359 N 598.631 -1.53133 0.372548 0
M  V30 6360 C 599.856 -2.0625 -0.218098 0
M  V30 6361 C 600.281 -1.24375 -1.41111 0
M  V30 6362 O 599.639 -0.264554 -1.79359 0
M  V30 6363 C 599.687 -3.55858 -0.582876 0
M  V30 6364 O 598.791 -3.76667 -1.67917 0
M  V30 6365 H 598.132 -0.663317 -0.030104 0
M  V30 6366 H 600.662 -1.97477 0.535169 0
M  V30 6367 H 600.672 -3.99007 -0.851925 0
M  V30 6368 H 599.347 -4.14892 0.289428 0
M  V30 6369 H 597.924 -3.45413 -1.40513 0
M  V30 6370 N 600.109 -0.101901 -1.5727 0
M  V30 6371 C 601.358 0.559922 -1.93772 0
M  V30 6372 C 601.671 1.68913 -0.98629 0
M  V30 6373 O 602.877 2.41256 -1.24529 0
M  V30 6374 C 601.333 1.04739 -3.44322 0
M  V30 6375 C 600.941 -0.05243 -4.47969 0
M  V30 6376 C 602.685 1.68157 -3.89774 0
M  V30 6377 C 600.592 0.450781 -5.8968 0
M  V30 6378 H 599.522 0.212931 -0.723309 0
M  V30 6379 H 602.173 -0.179001 -1.82625 0
M  V30 6380 H 600.555 1.84021 -3.50645 0
M  V30 6381 H 601.729 -0.828157 -4.53297 0
M  V30 6382 H 600.044 -0.592202 -4.12167 0
M  V30 6383 H 602.641 2.0689 -4.93052 0
M  V30 6384 H 602.984 2.55338 -3.28798 0
M  V30 6385 H 603.517 0.954453 -3.8618 0
M  V30 6386 H 600.256 -0.38458 -6.54371 0
M  V30 6387 H 599.776 1.19336 -5.87809 0
M  V30 6388 H 601.455 0.917555 -6.40461 0
M  V30 6389 N 601.587 1.56661 0.17182 0
M  V30 6390 C 602.815 1.861 0.904115 0
M  V30 6391 C 603.23 0.687227 1.75848 0
M  V30 6392 O 602.587 -0.343671 1.79235 0
M  V30 6393 C 602.638 3.14568 1.78127 0
M  V30 6394 O 602.359 4.27422 0.961366 0
M  V30 6395 C 603.86 3.5735 2.62327 0
M  V30 6396 H 601.08 0.617445 0.262684 0
M  V30 6397 H 603.624 2.03775 0.172068 0
M  V30 6398 H 601.779 2.98721 2.46666 0
M  V30 6399 H 602.193 5.00725 1.56123 0
M  V30 6400 H 603.667 4.50144 3.1949 0
M  V30 6401 H 604.144 2.81445 3.37173 0
M  V30 6402 H 604.75 3.75807 1.99121 0
M  V30 6403 N 603.065 -0.440357 1.51323 0
M  V30 6404 C 604.314 -1.18697 1.63076 0
M  V30 6405 C 604.627 -1.92418 0.35136 0
M  V30 6406 O 605.833 -2.69258 0.348221 0
M  V30 6407 C 604.289 -2.15849 2.87988 0
M  V30 6408 C 603.897 -1.47789 4.22921 0
M  V30 6409 C 605.641 -2.90962 3.09098 0
M  V30 6410 C 603.548 -2.43407 5.38987 0
M  V30 6411 H 602.478 -0.44676 0.607389 0
M  V30 6412 H 605.129 -0.454313 1.77787 0
M  V30 6413 H 603.511 -2.92537 2.66905 0
M  V30 6414 H 604.685 -0.7668 4.54375 0
M  V30 6415 H 603 -0.848404 4.07665 0
M  V30 6416 H 605.597 -3.62584 3.92985 0
M  V30 6417 H 605.94 -3.52133 2.22053 0
M  V30 6418 H 606.473 -2.21381 3.30507 0
M  V30 6419 H 603.212 -1.86929 6.28282 0
M  V30 6420 H 602.732 -3.12579 5.11913 0
M  V30 6421 H 604.411 -3.046 5.70813 0
M  V30 6422 N 604.543 -1.41418 -0.695603 0
M  V30 6423 C 605.959 -1.23887 -1.00619 0
M  V30 6424 C 606.159 -0.128206 -2.01092 0
M  V30 6425 O 605.215 0.507408 -2.47349 0
M  V30 6426 C 606.528 -2.58816 -1.53083 0
M  V30 6427 C 608.076 -2.65998 -1.64967 0
M  V30 6428 C 608.551 -4.01244 -2.20833 0
M  V30 6429 N 610.042 -4.0309 -2.28194 0
M  V30 6430 C 610.777 -5.04539 -2.72448 0
M  V30 6431 N 610.273 -6.16378 -3.16306 0
M  V30 6432 N 612.066 -4.91901 -2.72011 0
M  V30 6433 H 604.217 -2.12379 -0.0300061 0
M  V30 6434 H 606.48 -0.944958 -0.0758797 0
M  V30 6435 H 606.186 -3.40842 -0.867147 0
M  V30 6436 H 606.06 -2.81299 -2.51298 0
M  V30 6437 H 608.447 -1.84331 -2.30448 0
M  V30 6438 H 608.528 -2.47325 -0.652982 0
M  V30 6439 H 608.172 -4.83359 -1.55968 0
M  V30 6440 H 608.102 -4.17257 -3.21254 0
M  V30 6441 H 610.593 -3.22341 -1.97242 0
M  V30 6442 H 610.906 -6.89658 -3.487 0
M  V30 6443 H 609.251 -6.19914 -3.14215 0
M  V30 6444 H 612.442 -4.03613 -2.37095 0
M  V30 6445 H 612.615 -5.71102 -3.06181 0
M  V30 6446 N 606.021 0.929856 -1.27246 0
M  V30 6447 C 607.249 1.71144 -1.16265 0
M  V30 6448 C 607.664 1.867 0.280786 0
M  V30 6449 O 607.021 1.38249 1.19136 0
M  V30 6450 C 607.072 3.11222 -1.83911 0
M  V30 6451 O 606.793 2.96398 -3.22614 0
M  V30 6452 C 608.294 4.05541 -1.79028 0
M  V30 6453 H 605.514 0.535499 -0.404328 0
M  V30 6454 H 608.058 1.16492 -1.68077 0
M  V30 6455 H 606.213 3.6274 -1.36009 0
M  V30 6456 H 606.627 3.8494 -3.56261 0
M  V30 6457 H 608.101 5.01351 -2.30978 0
M  V30 6458 H 608.578 4.32589 -0.759168 0
M  V30 6459 H 609.184 3.59947 -2.26535 0
M  V30 6460 N 607.499 1.09233 1.13605 0
M  V30 6461 C 608.429 0.751738 2.21068 0
M  V30 6462 C 609.41 -0.269688 1.67948 0
M  V30 6463 O 610.595 -0.13819 1.93708 0
M  V30 6464 C 607.725 0.16935 3.46887 0
M  V30 6465 C 606.679 1.12007 4.13084 0
M  V30 6466 C 606.005 0.399483 5.33206 0
M  V30 6467 C 607.305 2.46168 4.6065 0
M  V30 6468 H 608.999 1.65024 2.49815 0
M  V30 6469 H 606.545 0.794905 1.20072 0
M  V30 6470 H 608.498 -0.0809824 4.21322 0
M  V30 6471 H 607.222 -0.764335 3.1753 0
M  V30 6472 H 605.881 1.35564 3.40614 0
M  V30 6473 H 605.529 -0.538277 5.00112 0
M  V30 6474 H 605.229 1.03337 5.78442 0
M  V30 6475 H 606.753 0.157403 6.10397 0
M  V30 6476 H 608.167 2.26829 5.26518 0
M  V30 6477 H 606.564 3.05326 5.1662 0
M  V30 6478 H 607.634 3.07076 3.75276 0
M  V30 6479 N 608.977 -1.30795 0.87923 0
M  V30 6480 C 610.205 -2.00527 0.509548 0
M  V30 6481 C 610.62 -1.65944 -0.90045 0
M  V30 6482 O 609.977 -0.893525 -1.5913 0
M  V30 6483 C 610.028 -3.55276 0.667943 0
M  V30 6484 O 609.749 -3.88625 2.02242 0
M  V30 6485 C 611.25 -4.4228 0.300494 0
M  V30 6486 H 608.47 -0.641261 0.197549 0
M  V30 6487 H 611.014 -1.66813 1.18295 0
M  V30 6488 H 609.169 -3.87377 0.0419843 0
M  V30 6489 H 609.583 -4.83334 2.03688 0
M  V30 6490 H 611.057 -5.50061 0.462242 0
M  V30 6491 H 611.534 -4.32556 -0.76106 0
M  V30 6492 H 612.14 -4.15613 0.902536 0
M  V30 6493 N 610.455 -0.639598 -1.44038 0
M  V30 6494 C 611.418 0.0506628 -2.29144 0
M  V30 6495 C 612.418 0.764001 -1.41491 0
M  V30 6496 O 613.608 0.607309 -1.63271 0
M  V30 6497 C 610.74 1.0824 -3.2326 0
M  V30 6498 H 611.933 -0.697987 -2.91664 0
M  V30 6499 H 609.486 -0.400146 -1.51091 0
M  V30 6500 H 610.221 1.86075 -2.65606 0
M  V30 6501 H 610.006 0.574725 -3.87865 0
M  V30 6502 H 611.496 1.56487 -3.87171 0
M  V30 6503 N 611.933 1.52934 -0.380664 0
M  V30 6504 C 613.182 2.00651 0.205477 0
M  V30 6505 C 613.495 1.27164 1.48623 0
M  V30 6506 O 614.701 1.65547 2.15189 0
M  V30 6507 C 613.157 3.57479 0.416726 0
M  V30 6508 C 612.765 4.39857 -0.850268 0
M  V30 6509 C 614.509 4.13509 0.959702 0
M  V30 6510 C 612.416 5.88269 -0.607773 0
M  V30 6511 H 611.346 0.749684 0.0805614 0
M  V30 6512 H 613.997 1.76508 -0.501732 0
M  V30 6513 H 612.379 3.77836 1.18557 0
M  V30 6514 H 613.553 4.31269 -1.62307 0
M  V30 6515 H 611.868 3.95005 -1.31756 0
M  V30 6516 H 614.465 5.22039 1.15669 0
M  V30 6517 H 614.808 3.69054 1.92626 0
M  V30 6518 H 615.341 3.9701 0.250645 0
M  V30 6519 H 612.08 6.3703 -1.54509 0
M  V30 6520 H 611.6 5.99667 0.126247 0
M  V30 6521 H 613.279 6.46558 -0.239014 0
M  V30 6522 N 613.412 0.11024 1.57214 0
M  V30 6523 C 614.36 -0.860586 2.16094 0
M  V30 6524 C 615.354 -1.28156 1.1078 0
M  V30 6525 O 616.56 -1.25433 1.29099 0
M  V30 6526 H 612.935 -0.295606 0.691463 0
M  V30 6527 H 614.906 -0.33942 2.96463 0
M  V30 6528 C 613.655 -2.10421 2.768 0
M  V30 6529 H 612.978 -1.7892 3.5753 0
M  V30 6530 H 614.418 -2.76375 3.21547 0
M  V30 6531 C 612.877 -2.88823 1.73444 0
M  V30 6532 O 613.407 -3.839 1.18251 0
M  V30 6533 N 611.613 -2.52649 1.43586 0
M  V30 6534 H 611.16 -1.754 1.8866 0
M  V30 6535 H 611.118 -3.05403 0.746735 0
M  V30 6536 N 614.89 -1.56749 -0.16351 0
M  V30 6537 C 616.138 -1.82074 -0.87713 0
M  V30 6538 C 616.459 -0.688503 -1.82441 0
M  V30 6539 O 615.729 0.291085 -1.93725 0
M  V30 6540 H 614.309 -0.671677 -0.326893 0
M  V30 6541 H 616.971 -1.9423 -0.161459 0
M  V30 6542 H 616.067 -2.76407 -1.44934 0
M  V30 6543 N 616.368 0.432326 -1.51554 0
M  V30 6544 C 617.3 1.54357 -1.6943 0
M  V30 6545 C 618.313 1.52311 -0.574897 0
M  V30 6546 O 619.502 1.56997 -0.849369 0
M  V30 6547 C 616.602 2.93273 -1.69836 0
M  V30 6548 C 615.775 3.19768 -2.98442 0
M  V30 6549 C 614.834 4.38433 -2.90969 0
M  V30 6550 O 613.86 4.36842 -3.64908 0
M  V30 6551 N 615.062 5.42276 -2.07163 0
M  V30 6552 H 617.827 1.39426 -2.65293 0
M  V30 6553 H 615.388 0.621331 -1.49503 0
M  V30 6554 H 617.38 3.70687 -1.62399 0
M  V30 6555 H 615.95 3.01777 -0.815456 0
M  V30 6556 H 615.17 2.30607 -3.19709 0
M  V30 6557 H 616.458 3.343 -3.83563 0
M  V30 6558 H 615.856 5.46407 -1.46477 0
M  V30 6559 H 614.413 6.18524 -2.05601 0
M  V30 6560 N 617.846 1.41785 0.688094 0
M  V30 6561 C 619.095 1.4084 1.44385 0
M  V30 6562 C 619.408 0.0234166 1.95586 0
M  V30 6563 O 620.614 -0.108647 2.71283 0
M  V30 6564 C 619.07 2.47675 2.61123 0
M  V30 6565 C 618.678 3.92116 2.16677 0
M  V30 6566 C 620.422 2.55877 3.38714 0
M  V30 6567 C 618.329 4.90487 3.30419 0
M  V30 6568 H 617.259 0.523787 0.542368 0
M  V30 6569 H 619.91 1.6764 0.74627 0
M  V30 6570 H 618.292 2.14018 3.33185 0
M  V30 6571 H 619.466 4.35059 1.51856 0
M  V30 6572 H 617.781 3.87642 1.5206 0
M  V30 6573 H 620.378 3.26553 4.234 0
M  V30 6574 H 620.721 1.59801 3.84408 0
M  V30 6575 H 621.254 2.88662 2.73714 0
M  V30 6576 H 617.993 5.87994 2.89729 0
M  V30 6577 H 617.513 4.52187 3.94065 0
M  V30 6578 H 619.192 5.11591 3.96085 0
M  V30 6579 N 619.324 -0.923095 1.27737 0
M  V30 6580 C 620.571 -1.67127 1.14345 0
M  V30 6581 C 620.899 -1.92017 -0.30982 0
M  V30 6582 O 620.154 -1.51185 -1.24264 0
M  V30 6583 C 620.453 -3.04125 1.8773 0
M  V30 6584 C 620.119 -2.98929 3.37568 0
M  V30 6585 C 618.781 -2.9722 3.78436 0
M  V30 6586 C 621.133 -2.89875 4.33154 0
M  V30 6587 C 618.461 -2.84244 5.13247 0
M  V30 6588 C 620.813 -2.7844 5.68026 0
M  V30 6589 C 619.477 -2.75083 6.08182 0
M  V30 6590 H 618.747 -0.611562 0.418417 0
M  V30 6591 H 621.394 -1.07618 1.584 0
M  V30 6592 H 619.699 -3.67366 1.36196 0
M  V30 6593 H 621.396 -3.609 1.74792 0
M  V30 6594 H 617.986 -3.0105 3.05069 0
M  V30 6595 H 622.17 -2.9029 4.02548 0
M  V30 6596 H 617.426 -2.80034 5.43499 0
M  V30 6597 H 621.6 -2.70401 6.4176 0
M  V30 6598 H 619.227 -2.64786 7.12596 0
M  V30 6599 N 620.802 -1.09834 -1.13024 0
M  V30 6600 C 622.042 -0.846664 -1.8604 0
M  V30 6601 C 622.406 0.616557 -1.81831 0
M  V30 6602 O 623.607 0.984329 -2.50129 0
M  V30 6603 C 621.878 -1.37228 -3.30005 0
M  V30 6604 S 623.437 -1.25511 -4.20467 0
M  V30 6605 H 620.255 -0.30611 -0.64173 0
M  V30 6606 H 622.857 -1.40255 -1.36194 0
M  V30 6607 H 621.561 -2.43138 -3.30624 0
M  V30 6608 H 621.092 -0.81271 -3.84914 0
M  V30 6609 H 623.107 -0.208762 -4.95761 0
M  V30 6610 N 622.28 1.30327 -0.886154 0
M  V30 6611 C 623.505 2.0079 -0.519425 0
M  V30 6612 C 623.93 1.65979 0.885013 0
M  V30 6613 O 623.288 0.877043 1.58675 0
M  V30 6614 C 623.336 3.53686 -0.702758 0
M  V30 6615 O 622.44 4.11637 0.250828 0
M  V30 6616 H 621.781 0.63171 -0.204544 0
M  V30 6617 H 624.311 1.66145 -1.19402 0
M  V30 6618 H 624.321 4.03531 -0.602207 0
M  V30 6619 H 622.996 3.78361 -1.72673 0
M  V30 6620 H 621.573 3.72755 0.103873 0
M  V30 6621 N 623.758 0.647228 1.43697 0
M  V30 6622 C 624.721 -0.0385101 2.29168 0
M  V30 6623 C 625.721 -0.756487 1.41894 0
M  V30 6624 O 626.911 -0.598641 1.63591 0
M  V30 6625 C 624.043 -1.06524 3.23829 0
M  V30 6626 H 625.236 0.713445 2.9129 0
M  V30 6627 H 622.789 0.408153 1.50877 0
M  V30 6628 H 623.524 -1.84664 2.66589 0
M  V30 6629 H 623.309 -0.554147 3.88164 0
M  V30 6630 H 624.799 -1.54432 3.87996 0
M  V30 6631 N 625.236 -1.5273 0.388769 0
M  V30 6632 C 626.484 -2.01174 -0.193208 0
M  V30 6633 C 626.805 -1.27705 -1.47365 0
M  V30 6634 O 626.075 -0.396966 -1.91836 0
M  V30 6635 H 624.655 -0.743287 -0.0743871 0
M  V30 6636 H 627.317 -1.87826 0.520336 0
M  V30 6637 H 626.413 -3.09477 -0.403803 0
M  V30 6638 N 626.714 -0.118576 -1.57153 0
M  V30 6639 C 627.962 0.538461 -1.94795 0
M  V30 6640 C 628.283 1.67243 -1.00274 0
M  V30 6641 O 627.553 1.95811 -0.0589692 0
M  V30 6642 H 626.133 0.201904 -0.719197 0
M  V30 6643 H 628.795 -0.187418 -1.93997 0
M  V30 6644 H 627.891 0.933315 -2.97818 0
M  V30 6645 N 628.193 1.56834 0.155195 0
M  V30 6646 C 629.441 1.82536 0.867462 0
M  V30 6647 C 629.762 0.698168 1.82073 0
M  V30 6648 O 629.032 -0.280807 1.93877 0
M  V30 6649 H 627.612 0.673401 0.323327 0
M  V30 6650 H 630.274 1.94313 0.151156 0
M  V30 6651 H 629.37 2.77171 1.43466 0
M  V30 6652 N 629.671 -0.424282 1.51781 0
M  V30 6653 C 630.92 -1.16961 1.64326 0
M  V30 6654 C 631.233 -1.92035 0.371749 0
M  V30 6655 O 632.439 -2.68873 0.37676 0
M  V30 6656 C 630.895 -2.12782 2.90262 0
M  V30 6657 C 630.503 -1.43295 4.24465 0
M  V30 6658 C 632.247 -2.87667 3.12166 0
M  V30 6659 C 630.154 -2.37676 5.41538 0
M  V30 6660 H 629.084 -0.440293 0.612093 0
M  V30 6661 H 631.735 -0.435431 1.78259 0
M  V30 6662 H 630.117 -2.8969 2.69992 0
M  V30 6663 H 631.291 -0.718564 4.55163 0
M  V30 6664 H 629.606 -0.805118 4.08542 0
M  V30 6665 H 632.203 -3.58395 3.96808 0
M  V30 6666 H 632.546 -3.49758 2.25776 0
M  V30 6667 H 633.079 -2.17863 3.32837 0
M  V30 6668 H 629.818 -1.80255 6.30229 0
M  V30 6669 H 629.338 -3.07132 5.15199 0
M  V30 6670 H 631.017 -2.98529 5.74012 0
M  V30 6671 N 631.149 -1.42148 -0.680565 0
M  V30 6672 C 632.395 -1.42521 -1.44277 0
M  V30 6673 C 632.728 -0.0393718 -1.9416 0
M  V30 6674 O 632.003 0.935425 -1.70529 0
M  V30 6675 C 632.286 -2.44475 -2.64394 0
M  V30 6676 C 632.139 -3.92226 -2.20179 0
M  V30 6677 C 633.458 -2.43491 -3.66606 0
M  V30 6678 H 630.577 -0.518985 -0.523282 0
M  V30 6679 H 633.219 -1.73524 -0.773914 0
M  V30 6680 H 631.369 -2.18168 -3.21458 0
M  V30 6681 H 633.041 -4.29493 -1.68327 0
M  V30 6682 H 631.284 -4.0637 -1.5181 0
M  V30 6683 H 631.955 -4.59133 -3.06433 0
M  V30 6684 H 634.431 -2.66872 -3.19247 0
M  V30 6685 H 633.307 -3.16816 -4.4824 0
M  V30 6686 H 633.568 -1.45881 -4.17338 0
M  V30 6687 N 632.627 0.916307 -1.28225 0
M  V30 6688 C 633.59 1.99996 -1.11957 0
M  V30 6689 C 634.59 1.60688 -0.0600152 0
M  V30 6690 O 635.78 1.71499 -0.30558 0
M  V30 6691 C 632.912 3.33458 -0.708411 0
M  V30 6692 H 634.105 2.15858 -2.08196 0
M  V30 6693 H 631.658 1.09863 -1.11175 0
M  V30 6694 H 632.393 3.23297 0.254859 0
M  V30 6695 H 632.178 3.63349 -1.47377 0
M  V30 6696 H 633.668 4.13014 -0.617164 0
M  V30 6697 N 634.105 1.10431 1.1244 0
M  V30 6698 C 635.382 0.758797 1.80282 0
M  V30 6699 C 635.762 -0.754727 1.97147 0
M  V30 6700 O 635.11 -1.68094 1.54779 0
M  V30 6701 C 635.32 1.50982 3.14651 0
M  V30 6702 C 636.668 1.68232 3.8985 0
M  V30 6703 O 637.692 1.47319 3.24308 0
M  V30 6704 O 636.551 2.02905 5.07437 0
M  V30 6705 H 633.645 0.273756 0.780376 0
M  V30 6706 H 636.191 1.20713 1.19275 0
M  V30 6707 H 634.963 2.53989 2.97666 0
M  V30 6708 H 634.586 1.05435 3.83366 0
M  V30 6709 N 635.583 -1.29855 0.893053 0
M  V30 6710 C 636.808 -2.00512 0.530066 0
M  V30 6711 C 637.233 -1.66446 -0.876199 0
M  V30 6712 O 636.591 -0.885446 -1.58207 0
M  V30 6713 C 636.639 -3.53308 0.721505 0
M  V30 6714 O 635.743 -4.11764 -0.228994 0
M  V30 6715 H 635.084 -0.630617 0.207891 0
M  V30 6716 H 637.614 -1.6551 1.20282 0
M  V30 6717 H 637.624 -4.03206 0.623599 0
M  V30 6718 H 636.299 -3.77439 1.74678 0
M  V30 6719 H 634.876 -3.72805 -0.0841034 0
M  V30 6720 N 637.061 -0.65484 -1.43351 0
M  V30 6721 C 637.993 0.0744757 -2.29079 0
M  V30 6722 C 639.006 0.7855 -1.42596 0
M  V30 6723 O 640.195 0.642986 -1.66517 0
M  V30 6724 C 637.295 1.12859 -3.19556 0
M  V30 6725 C 636.468 0.495381 -4.34586 0
M  V30 6726 C 635.527 1.44659 -5.05925 0
M  V30 6727 O 634.553 0.954567 -5.61139 0
M  V30 6728 N 635.755 2.78051 -5.09576 0
M  V30 6729 H 638.52 -0.661346 -2.92312 0
M  V30 6730 H 636.081 -0.497744 -1.54059 0
M  V30 6731 H 638.073 1.76577 -3.64147 0
M  V30 6732 H 636.643 1.76636 -2.57912 0
M  V30 6733 H 635.863 -0.32092 -3.92892 0
M  V30 6734 H 637.151 0.0534203 -5.08772 0
M  V30 6735 H 636.549 3.20584 -4.66093 0
M  V30 6736 H 635.106 3.37068 -5.57878 0
M  V30 6737 N 638.539 1.52521 -0.396863 0
M  V30 6738 C 639.449 2.30403 0.44178 0
M  V30 6739 C 640.465 1.37625 1.06468 0
M  V30 6740 O 641.641 1.70697 1.06886 0
M  V30 6741 C 638.706 3.1013 1.54986 0
M  V30 6742 C 637.767 4.18628 0.951279 0
M  V30 6743 C 637 4.94543 2.00655 0
M  V30 6744 O 637.223 4.70629 3.22281 0
M  V30 6745 O 636.157 5.797 1.61962 0
M  V30 6746 H 639.983 3.03087 -0.192892 0
M  V30 6747 H 637.568 1.48537 -0.16038 0
M  V30 6748 H 639.45 3.59816 2.19341 0
M  V30 6749 H 638.125 2.40251 2.16935 0
M  V30 6750 H 637.032 3.73119 0.270773 0
M  V30 6751 H 638.365 4.90763 0.375887 0
M  V30 6752 N 640.017 0.126909 1.57088 0
M  V30 6753 C 640.927 -0.833867 2.1928 0
M  V30 6754 C 641.943 -1.2868 1.17122 0
M  V30 6755 O 643.119 -1.34815 1.49622 0
M  V30 6756 C 640.184 -2.0632 2.78627 0
M  V30 6757 C 639.245 -1.66143 3.95847 0
M  V30 6758 C 638.478 -2.83217 4.52354 0
M  V30 6759 O 638.701 -3.98868 4.0775 0
M  V30 6760 O 637.635 -2.59846 5.42922 0
M  V30 6761 H 641.461 -0.334564 3.01852 0
M  V30 6762 H 639.046 -0.0991091 1.49071 0
M  V30 6763 H 640.928 -2.78304 3.16425 0
M  V30 6764 H 639.603 -2.55242 1.99082 0
M  V30 6765 H 638.51 -0.912435 3.62802 0
M  V30 6766 H 639.843 -1.21957 4.76852 0
M  V30 6767 N 641.495 -1.56914 -0.146875 0
M  V30 6768 C 642.458 -1.97368 -1.16526 0
M  V30 6769 C 643.458 -0.860223 -1.35856 0
M  V30 6770 O 644.648 -1.12684 -1.32846 0
M  V30 6771 C 641.78 -2.28974 -2.52555 0
M  V30 6772 H 642.973 -2.88523 -0.818209 0
M  V30 6773 H 640.526 -1.5135 -0.390221 0
M  V30 6774 H 641.261 -1.40611 -2.92231 0
M  V30 6775 H 641.046 -3.10157 -2.39886 0
M  V30 6776 H 642.536 -2.61109 -3.25902 0
M  V30 6777 N 642.974 0.416227 -1.52004 0
M  V30 6778 C 643.884 1.53147 -1.77717 0
M  V30 6779 C 644.9 1.609 -0.662368 0
M  V30 6780 O 646.076 1.77747 -0.946991 0
M  V30 6781 C 643.141 2.88948 -1.91598 0
M  V30 6782 C 642.202 2.9114 -3.15493 0
M  V30 6783 C 641.435 4.20464 -3.28703 0
M  V30 6784 O 641.658 5.13981 -2.47345 0
M  V30 6785 O 640.592 4.29368 -4.21813 0
M  V30 6786 H 644.418 1.34357 -2.72363 0
M  V30 6787 H 642.003 0.601373 -1.36762 0
M  V30 6788 H 643.885 3.69505 -2.02593 0
M  V30 6789 H 642.56 3.07821 -1.00141 0
M  V30 6790 H 641.467 2.09461 -3.09962 0
M  V30 6791 H 642.8 2.77216 -4.06709 0
M  V30 6792 N 644.452 1.42507 0.673017 0
M  V30 6793 C 645.682 1.46261 1.45916 0
M  V30 6794 C 646.09 0.0729724 1.89059 0
M  V30 6795 O 645.433 -0.922987 1.58829 0
M  V30 6796 C 645.495 2.32853 2.73898 0
M  V30 6797 C 645.159 3.80699 2.52819 0
M  V30 6798 C 646.156 4.72307 2.17306 0
M  V30 6799 C 643.841 4.24983 2.67758 0
M  V30 6800 C 645.835 6.06192 1.97003 0
M  V30 6801 C 643.522 5.58927 2.4707 0
M  V30 6802 C 644.52 6.49348 2.11746 0
M  V30 6803 O 644.208 7.80817 1.91259 0
M  V30 6804 H 643.94 0.499561 0.455428 0
M  V30 6805 H 646.494 1.87697 0.834196 0
M  V30 6806 H 644.724 1.86268 3.38882 0
M  V30 6807 H 646.413 2.28041 3.35786 0
M  V30 6808 H 647.179 4.39378 2.05359 0
M  V30 6809 H 643.058 3.54893 2.94231 0
M  V30 6810 H 646.602 6.76731 1.69355 0
M  V30 6811 H 642.499 5.91429 2.58615 0
M  V30 6812 H 643.267 7.92194 2.05843 0
M  V30 6813 N 645.93 -0.909495 1.28709 0
M  V30 6814 C 646.862 -2.01729 1.08804 0
M  V30 6815 C 647.875 -1.62755 0.0384739 0
M  V30 6816 O 649.064 -1.76259 0.281977 0
M  V30 6817 C 646.164 -3.32952 0.63217 0
M  V30 6818 C 645.337 -4.00512 1.75809 0
M  V30 6819 C 644.396 -5.10019 1.29488 0
M  V30 6820 O 643.422 -5.32986 1.99787 0
M  V30 6821 N 644.624 -5.80278 0.1604 0
M  V30 6822 H 647.389 -2.19362 2.04207 0
M  V30 6823 H 644.95 -1.08106 1.20518 0
M  V30 6824 H 646.942 -4.03543 0.305802 0
M  V30 6825 H 645.512 -3.11759 -0.229134 0
M  V30 6826 H 644.732 -3.23413 2.25383 0
M  V30 6827 H 646.02 -4.42395 2.51325 0
M  V30 6828 H 645.418 -5.64094 -0.425937 0
M  V30 6829 H 643.975 -6.51713 -0.106663 0
M  V30 6830 N 647.408 -1.11026 -1.11852 0
M  V30 6831 C 648.318 -0.777252 -2.2135 0
M  V30 6832 C 649.334 0.227821 -1.72502 0
M  V30 6833 O 650.51 0.0650587 -2.01295 0
M  V30 6834 C 647.575 -0.220668 -3.45997 0
M  V30 6835 C 646.636 -1.2838 -4.09655 0
M  V30 6836 C 645.869 -0.753678 -5.28352 0
M  V30 6837 O 646.092 0.417779 -5.68868 0
M  V30 6838 O 645.026 -1.51647 -5.82483 0
M  V30 6839 H 648.852 -1.69141 -2.5224 0
M  V30 6840 H 646.437 -0.885836 -1.20305 0
M  V30 6841 H 648.319 0.0855756 -4.21313 0
M  V30 6842 H 646.994 0.666262 -3.16769 0
M  V30 6843 H 645.901 -1.64299 -3.3609 0
M  V30 6844 H 647.234 -2.14396 -4.43052 0
M  V30 6845 N 648.886 1.2938 -0.899927 0
M  V30 6846 C 650.114 1.99691 -0.541386 0
M  V30 6847 C 650.529 1.67355 0.873936 0
M  V30 6848 O 649.886 0.918728 1.57688 0
M  V30 6849 C 649.937 3.54168 -0.72438 0
M  V30 6850 O 649.658 3.85359 -2.08399 0
M  V30 6851 C 651.159 4.41746 -0.370819 0
M  V30 6852 H 648.379 0.638037 -0.207726 0
M  V30 6853 H 650.923 1.6491 -1.20934 0
M  V30 6854 H 649.078 3.87261 -0.103607 0
M  V30 6855 H 649.492 4.80032 -2.11352 0
M  V30 6856 H 650.966 5.49256 -0.549693 0
M  V30 6857 H 651.443 4.33712 0.692148 0
M  V30 6858 H 652.049 4.14125 -0.968543 0
M  V30 6859 N 650.364 0.662433 1.43002 0
M  V30 6860 C 651.611 0.179591 2.01702 0
M  V30 6861 C 651.939 -1.20964 1.52309 0
M  V30 6862 O 651.194 -1.82343 0.7106 0
M  V30 6863 C 651.493 0.149363 3.57088 0
M  V30 6864 C 651.159 1.48158 4.25864 0
M  V30 6865 C 649.821 1.84638 4.44367 0
M  V30 6866 C 652.173 2.35953 4.64732 0
M  V30 6867 C 649.501 3.08561 4.99006 0
M  V30 6868 C 651.853 3.59176 5.20745 0
M  V30 6869 C 650.517 3.95841 5.37463 0
M  V30 6870 H 649.787 0.0657172 0.73808 0
M  V30 6871 H 652.434 0.854968 1.71355 0
M  V30 6872 H 650.739 -0.609491 3.8703 0
M  V30 6873 H 652.436 -0.241241 4.00274 0
M  V30 6874 H 649.026 1.18777 4.11813 0
M  V30 6875 H 653.21 2.09058 4.50121 0
M  V30 6876 H 648.466 3.37005 5.10135 0
M  V30 6877 H 652.64 4.27417 5.49807 0
M  V30 6878 H 650.267 4.91942 5.79566 0
M  V30 6879 N 651.842 -1.52309 0.404946 0
M  V30 6880 C 653.119 -1.94237 -0.230544 0
M  V30 6881 C 653.499 -1.34154 -1.6299 0
M  V30 6882 O 652.847 -0.515713 -2.22604 0
M  V30 6883 C 653.057 -3.48166 -0.241106 0
M  V30 6884 C 654.405 -4.22074 -0.462488 0
M  V30 6885 O 655.429 -3.54754 -0.320644 0
M  V30 6886 O 654.288 -5.41443 -0.741708 0
M  V30 6887 H 651.382 -0.813766 -0.147358 0
M  V30 6888 H 653.928 -1.6333 0.460587 0
M  V30 6889 H 652.7 -3.84269 0.738467 0
M  V30 6890 H 652.323 -3.85422 -0.97651 0
M  V30 6891 N 653.32 -0.135238 -1.57019 0
M  V30 6892 C 654.267 0.808908 -2.1616 0
M  V30 6893 C 655.237 1.25234 -1.09113 0
M  V30 6894 O 656.422 1.32697 -1.37099 0
M  V30 6895 C 653.562 2.04729 -2.77813 0
M  V30 6896 C 652.675 1.65074 -3.99218 0
M  V30 6897 C 651.81 2.84002 -4.48906 0
M  V30 6898 C 650.849 2.40663 -5.62803 0
M  V30 6899 N 649.986 3.5256 -6.07162 0
M  V30 6900 H 654.826 0.297751 -2.96509 0
M  V30 6901 H 652.363 0.135264 -1.46477 0
M  V30 6902 H 654.321 2.7731 -3.11697 0
M  V30 6903 H 652.951 2.53275 -2.00128 0
M  V30 6904 H 652.003 0.823029 -3.7139 0
M  V30 6905 H 653.315 1.29236 -4.81767 0
M  V30 6906 H 652.469 3.64788 -4.84783 0
M  V30 6907 H 651.208 3.23076 -3.65339 0
M  V30 6908 H 650.213 1.58314 -5.26514 0
M  V30 6909 H 651.438 2.02687 -6.48147 0
M  V30 6910 H 649.384 3.91278 -5.26534 0
M  V30 6911 H 649.301 3.20699 -6.84608 0
M  V30 6912 H 650.569 4.33738 -6.47682 0
M  V30 6913 N 654.798 1.5699 0.138552 0
M  V30 6914 C 656.044 1.84081 0.85099 0
M  V30 6915 C 656.377 0.718107 1.80435 0
M  V30 6916 O 655.652 -0.277633 1.92508 0
M  V30 6917 C 655.935 3.21699 1.61808 0
M  V30 6918 C 655.788 4.44544 0.685633 0
M  V30 6919 C 657.107 3.5664 2.57868 0
M  V30 6920 H 654.226 0.669592 0.307922 0
M  V30 6921 H 656.868 1.89646 0.11588 0
M  V30 6922 H 655.018 3.17086 2.24474 0
M  V30 6923 H 656.69 4.61248 0.0693179 0
M  V30 6924 H 654.933 4.338 -0.00421993 0
M  V30 6925 H 655.604 5.3746 1.25858 0
M  V30 6926 H 658.08 3.61918 2.05316 0
M  V30 6927 H 656.956 4.53946 3.08584 0
M  V30 6928 H 657.217 2.83036 3.39622 0
M  V30 6929 N 656.276 -0.40816 1.52223 0
M  V30 6930 C 657.224 -1.51788 1.76248 0
M  V30 6931 C 658.218 -1.57264 0.629638 0
M  V30 6932 O 659.424 -1.60659 0.811704 0
M  V30 6933 H 655.799 -0.504823 0.557367 0
M  V30 6934 H 657.77 -1.2871 2.69214 0
M  V30 6935 C 656.519 -2.89145 1.93107 0
M  V30 6936 H 655.842 -2.85674 2.79697 0
M  V30 6937 H 657.282 -3.66082 2.13916 0
M  V30 6938 C 655.741 -3.29581 0.698431 0
M  V30 6939 O 656.271 -4.01479 -0.133238 0
M  V30 6940 N 654.477 -2.85651 0.53405 0
M  V30 6941 H 654.024 -2.2731 1.21194 0
M  V30 6942 H 653.982 -3.13065 -0.289387 0
M  V30 6943 N 657.755 -1.42862 -0.66545 0
M  V30 6944 C 659.171 -1.25993 -0.979687 0
M  V30 6945 C 659.371 -0.170831 -2.00775 0
M  V30 6946 O 658.427 0.454827 -2.4837 0
M  V30 6947 C 659.74 -2.62005 -1.47559 0
M  V30 6948 C 661.288 -2.69437 -1.59288 0
M  V30 6949 C 661.763 -4.05838 -2.12272 0
M  V30 6950 N 663.254 -4.0784 -2.19592 0
M  V30 6951 C 663.989 -5.10205 -2.61684 0
M  V30 6952 N 663.485 -6.22949 -3.03161 0
M  V30 6953 N 665.278 -4.9756 -2.61516 0
M  V30 6954 H 657.429 -2.12395 0.0150493 0
M  V30 6955 H 659.692 -0.946355 -0.0558187 0
M  V30 6956 H 659.398 -3.42605 -0.794654 0
M  V30 6957 H 659.272 -2.86566 -2.45275 0
M  V30 6958 H 661.659 -1.89178 -2.26486 0
M  V30 6959 H 661.74 -2.48655 -0.600374 0
M  V30 6960 H 661.384 -4.86559 -1.4568 0
M  V30 6961 H 661.314 -4.23977 -3.12331 0
M  V30 6962 H 663.805 -3.26452 -1.90361 0
M  V30 6963 H 664.118 -6.96899 -3.33993 0
M  V30 6964 H 662.463 -6.2644 -3.00995 0
M  V30 6965 H 665.654 -4.08551 -2.28481 0
M  V30 6966 H 665.827 -5.77468 -2.93999 0
M  V30 6967 N 659.233 0.902656 -1.29189 0
M  V30 6968 C 660.482 1.6475 -1.16362 0
M  V30 6969 C 660.795 1.93517 0.284682 0
M  V30 6970 O 662.001 2.66192 0.534229 0
M  V30 6971 C 660.457 2.96848 -2.03493 0
M  V30 6972 C 660.065 2.75687 -3.5313 0
M  V30 6973 C 661.809 3.74762 -1.99383 0
M  V30 6974 C 659.716 4.03492 -4.32375 0
M  V30 6975 H 658.646 0.618041 -0.431904 0
M  V30 6976 H 661.297 1.0008 -1.53806 0
M  V30 6977 H 659.679 3.62715 -1.58916 0
M  V30 6978 H 660.853 2.18431 -4.05739 0
M  V30 6979 H 659.168 2.11171 -3.58881 0
M  V30 6980 H 661.765 4.69515 -2.5585 0
M  V30 6981 H 662.108 4.04767 -0.973123 0
M  V30 6982 H 662.641 3.15732 -2.41988 0
M  V30 6983 H 659.38 3.78656 -5.3507 0
M  V30 6984 H 658.9 4.60318 -3.84535 0
M  V30 6985 H 660.579 4.71662 -4.42881 0
M  V30 6986 N 660.711 1.11618 1.11262 0
M  V30 6987 C 661.641 0.79846 2.19424 0
M  V30 6988 C 662.622 -0.234003 1.68483 0
M  V30 6989 O 663.807 -0.0970704 1.93957 0
M  V30 6990 C 660.937 0.242892 3.4645 0
M  V30 6991 C 659.891 1.20744 4.10615 0
M  V30 6992 C 659.217 0.512494 5.32238 0
M  V30 6993 C 660.517 2.55884 4.55325 0
M  V30 6994 H 662.211 1.70286 2.46258 0
M  V30 6995 H 659.757 0.820195 1.18359 0
M  V30 6996 H 661.71 0.00840447 4.21399 0
M  V30 6997 H 660.434 -0.696811 3.1908 0
M  V30 6998 H 659.093 1.42759 3.37662 0
M  V30 6999 H 658.741 -0.432075 5.01141 0
M  V30 7000 H 658.441 1.15583 5.7612 0
M  V30 7001 H 659.965 0.286842 6.09926 0
M  V30 7002 H 661.379 2.37946 5.21588 0
M  V30 7003 H 659.776 3.16216 5.10027 0
M  V30 7004 H 660.846 3.14968 3.68678 0
M  V30 7005 N 662.189 -1.289 0.906776 0
M  V30 7006 C 663.136 -2.2751 0.388313 0
M  V30 7007 C 664.106 -1.57301 -0.533439 0
M  V30 7008 O 665.291 -1.85243 -0.457148 0
M  V30 7009 C 662.431 -3.43091 -0.37181 0
M  V30 7010 C 661.544 -4.28066 0.581647 0
M  V30 7011 C 660.679 -5.30837 -0.19623 0
M  V30 7012 C 659.718 -6.07472 0.751294 0
M  V30 7013 N 658.855 -7.021 0.00737727 0
M  V30 7014 H 663.695 -2.71237 1.23428 0
M  V30 7015 H 661.232 -1.33397 0.619962 0
M  V30 7016 H 663.19 -4.08888 -0.828641 0
M  V30 7017 H 661.82 -3.00374 -1.18218 0
M  V30 7018 H 660.872 -3.62378 1.157 0
M  V30 7019 H 662.184 -4.81382 1.30665 0
M  V30 7020 H 661.338 -6.02485 -0.71394 0
M  V30 7021 H 660.077 -4.78272 -0.954324 0
M  V30 7022 H 659.082 -5.34682 1.28044 0
M  V30 7023 H 660.307 -6.62126 1.50883 0
M  V30 7024 H 658.253 -6.51894 -0.732854 0
M  V30 7025 H 658.17 -7.53004 0.672334 0
M  V30 7026 H 659.438 -7.77956 -0.490365 0
M  V30 7027 N 663.667 -0.670007 -1.42649 0
M  V30 7028 C 664.599 0.0501746 -2.29145 0
M  V30 7029 C 665.612 0.770331 -1.43422 0
M  V30 7030 O 666.801 0.625288 -1.6719 0
M  V30 7031 C 663.901 1.09463 -3.20735 0
M  V30 7032 C 663.074 0.44926 -4.35087 0
M  V30 7033 C 662.133 1.39285 -5.07431 0
M  V30 7034 O 661.159 0.894997 -5.6212 0
M  V30 7035 N 662.361 2.72631 -5.12496 0
M  V30 7036 H 665.126 -0.692312 -2.91594 0
M  V30 7037 H 662.687 -0.514056 -1.53522 0
M  V30 7038 H 664.679 1.72705 -3.65999 0
M  V30 7039 H 663.249 1.73891 -2.59771 0
M  V30 7040 H 662.469 -0.362573 -3.92529 0
M  V30 7041 H 663.757 -0.000544776 -5.088 0
M  V30 7042 H 663.155 3.15623 -4.69467 0
M  V30 7043 H 661.712 3.31132 -5.61422 0
M  V30 7044 N 665.145 1.52092 -0.413018 0
M  V30 7045 C 666.075 2.30021 0.401567 0
M  V30 7046 C 667.056 1.34395 1.04269 0
M  V30 7047 O 668.241 1.63304 1.05097 0
M  V30 7048 C 665.371 3.12447 1.51638 0
M  V30 7049 C 664.325 4.16153 1.00005 0
M  V30 7050 C 663.651 4.86948 2.20875 0
M  V30 7051 C 664.951 5.22275 0.0513757 0
M  V30 7052 H 666.645 2.98365 -0.248704 0
M  V30 7053 H 664.191 1.4349 -0.121052 0
M  V30 7054 H 666.144 3.65733 2.09326 0
M  V30 7055 H 664.868 2.41879 2.19458 0
M  V30 7056 H 663.527 3.63882 0.445549 0
M  V30 7057 H 663.175 4.12905 2.8726 0
M  V30 7058 H 662.875 5.57057 1.86978 0
M  V30 7059 H 664.399 5.43048 2.79162 0
M  V30 7060 H 665.813 5.70778 0.537176 0
M  V30 7061 H 664.21 5.9977 -0.198977 0
M  V30 7062 H 665.28 4.76611 -0.892736 0
M  V30 7063 N 666.623 0.143563 1.56945 0
M  V30 7064 C 667.533 -0.810562 2.20152 0
M  V30 7065 C 668.549 -1.27431 1.1848 0
M  V30 7066 O 669.725 -1.33221 1.51044 0
M  V30 7067 C 666.79 -2.03353 2.80799 0
M  V30 7068 C 665.851 -1.61936 3.97587 0
M  V30 7069 C 665.084 -2.78403 4.55332 0
M  V30 7070 O 665.307 -3.94521 4.11958 0
M  V30 7071 O 664.241 -2.54073 5.45647 0
M  V30 7072 H 668.067 -0.30253 3.02189 0
M  V30 7073 H 665.652 -0.0832925 1.49168 0
M  V30 7074 H 667.534 -2.74932 3.19359 0
M  V30 7075 H 666.209 -2.53116 2.01777 0
M  V30 7076 H 665.116 -0.873904 3.6375 0
M  V30 7077 H 666.449 -1.16892 4.78118 0
M  V30 7078 N 668.101 -1.57061 -0.130224 0
M  V30 7079 C 669.048 -1.99517 -1.16024 0
M  V30 7080 C 670.018 -0.865452 -1.41771 0
M  V30 7081 O 671.203 -1.12882 -1.53826 0
M  V30 7082 C 668.343 -2.3951 -2.48453 0
M  V30 7083 C 667.456 -3.65848 -2.29737 0
M  V30 7084 C 666.591 -3.9487 -3.55318 0
M  V30 7085 C 665.63 -5.14426 -3.31711 0
M  V30 7086 N 664.767 -5.39375 -4.49466 0
M  V30 7087 H 669.607 -2.87305 -0.791194 0
M  V30 7088 H 667.144 -1.42129 -0.379195 0
M  V30 7089 H 669.102 -2.60731 -3.25692 0
M  V30 7090 H 667.732 -1.54779 -2.83272 0
M  V30 7091 H 666.784 -3.52307 -1.4347 0
M  V30 7092 H 668.096 -4.53241 -2.08263 0
M  V30 7093 H 667.25 -4.16679 -4.4098 0
M  V30 7094 H 665.989 -3.05931 -3.79813 0
M  V30 7095 H 664.994 -4.92473 -2.44439 0
M  V30 7096 H 666.219 -6.04933 -3.08598 0
M  V30 7097 H 664.165 -4.53391 -4.74102 0
M  V30 7098 H 664.082 -6.21069 -4.31055 0
M  V30 7099 H 665.35 -5.65694 -5.36293 0
M  V30 7100 O 669.618 0.274706 -1.59147 0
M  V30 7101 H 670.309 0.920013 -1.70457 0
M  V30 END ATOM
M  V30 BEGIN BOND
M  V30 END BOND
M  V30 END CTAB
M  END
$$$$
