drugbank_target|P23786 Carnitine O-palmitoyltransferase 2, mitochondrial (DB00583; DB01074)
 OpenBabel12092119263D

  0  0  0     0  0            999 V3000
M  V30 BEGIN CTAB
M  V30 COUNTS 10341 10470 0 0 0
M  V30 BEGIN ATOM
M  V30 1 H -0.908 1.98254 -0.117106 0
M  V30 2 N 0 1.576 0 0
M  V30 3 C 0.933 2.03868 1.02534 0
M  V30 4 C 1.911 0.928543 1.3348 0
M  V30 5 O 3.095 1.19667 1.45644 0
M  V30 6 C 0.222 2.43627 2.35294 0
M  V30 7 C -0.732 3.65373 2.2001 0
M  V30 8 S 0.101 5.13292 1.52614 0
M  V30 9 C 1.257 5.56322 2.86805 0
M  V30 10 H 1.49 2.90518 0.631377 0
M  V30 11 H -0.977 1.52953 0.210867 0
M  V30 12 H 0.981 2.67203 3.11629 0
M  V30 13 H -0.358 1.57376 2.7183 0
M  V30 14 H -1.165 3.90944 3.18086 0
M  V30 15 H -1.563 3.418 1.51819 0
M  V30 16 H 0.729 5.58782 3.83104 0
M  V30 17 H 1.672 6.56266 2.65933 0
M  V30 18 H 2.08 4.83886 2.90714 0
M  V30 19 N 1.4781 -0.272755 1.55222 0
M  V30 20 C 2.7241 -1.00581 1.761 0
M  V30 21 C 3.0571 -1.85932 0.560625 0
M  V30 22 O 2.3321 -1.89416 -0.441801 0
M  V30 23 C 2.6151 -1.88816 3.06628 0
M  V30 24 C 2.4681 -1.06457 4.37021 0
M  V30 25 C 3.7871 -2.8752 3.33197 0
M  V30 26 H 0.9061 -0.364244 0.640699 0
M  V30 27 H 3.5481 -0.278189 1.87952 0
M  V30 28 H 1.6981 -2.50856 2.96654 0
M  V30 29 H 3.3701 -0.464863 4.58952 0
M  V30 30 H 1.6131 -0.368043 4.32236 0
M  V30 31 H 2.2841 -1.71514 5.24678 0
M  V30 32 H 4.7601 -2.35615 3.42965 0
M  V30 33 H 3.6361 -3.46399 4.25792 0
M  V30 34 H 3.8971 -3.62657 2.52849 0
M  V30 35 N 2.9562 -1.48159 -0.537278 0
M  V30 36 C 4.3672 -1.49429 -1.11928 0
M  V30 37 C 4.7182 -0.26 -1.9447 0
M  V30 38 O 3.8432 0.633489 -2.0692 0
M  V30 39 C 4.4382 -2.70758 -2.03656 0
M  V30 40 C 2.9972 -2.74923 -2.57088 0
M  V30 41 C 2.1442 -2.42835 -1.3389 0
M  V30 42 H 5.0952 -1.55381 -0.322886 0
M  V30 43 H 5.1162 -2.48861 -2.87834 0
M  V30 44 H 4.6282 -3.60575 -1.43553 0
M  V30 45 H 2.7292 -1.89296 -3.20933 0
M  V30 46 H 2.8422 -3.76157 -2.9672 0
M  V30 47 H 1.2062 -1.93836 -1.65226 0
M  V30 48 H 1.9892 -3.34884 -0.755504 0
M  V30 49 N 4.4343 0.785586 -1.36625 0
M  V30 50 C 5.8503 1.08419 -1.17122 0
M  V30 51 C 6.0503 2.015 0.00208491 0
M  V30 52 O 5.1063 2.43551 0.666278 0
M  V30 53 C 6.4193 1.69498 -2.48377 0
M  V30 54 C 7.9673 1.81821 -2.54775 0
M  V30 55 C 8.4423 2.46315 -3.86126 0
M  V30 56 N 9.9333 2.53779 -3.87492 0
M  V30 57 C 10.6683 3.045 -4.85868 0
M  V30 58 N 10.1643 3.55499 -5.94637 0
M  V30 59 N 11.9573 3.03247 -4.73284 0
M  V30 60 H 4.1083 0.167264 -2.1174 0
M  V30 61 H 6.3713 0.13682 -0.938075 0
M  V30 62 H 6.0773 1.08571 -3.34522 0
M  V30 63 H 5.9513 2.6896 -2.64462 0
M  V30 64 H 8.3383 2.41884 -1.69045 0
M  V30 65 H 8.4193 0.811532 -2.42586 0
M  V30 66 H 8.0633 1.86895 -4.72263 0
M  V30 67 H 7.9933 3.47561 -3.95612 0
M  V30 68 H 10.4843 2.17672 -3.08913 0
M  V30 69 H 10.7973 3.92562 -6.65669 0
M  V30 70 H 9.1423 3.5364 -5.98301 0
M  V30 71 H 12.3333 2.62696 -3.87438 0
M  V30 72 H 12.5063 3.42467 -5.50109 0
M  V30 73 N 5.9124 1.20967 1.01018 0
M  V30 74 C 6.8424 0.988272 2.11555 0
M  V30 75 C 7.8234 -0.0849778 1.69888 0
M  V30 76 O 9.0084 0.0738202 1.9406 0
M  V30 77 C 6.1384 0.546528 3.42973 0
M  V30 78 C 5.0924 1.56375 3.9841 0
M  V30 79 C 4.4184 0.97842 5.25672 0
M  V30 80 C 5.7184 2.94922 4.31066 0
M  V30 81 H 7.4124 1.91276 2.30334 0
M  V30 82 H 4.9584 0.921073 1.1069 0
M  V30 83 H 6.9114 0.378839 4.19694 0
M  V30 84 H 5.6354 -0.413598 3.23971 0
M  V30 85 H 4.2944 1.71891 3.23804 0
M  V30 86 H 3.9424 0.0101688 5.02999 0
M  V30 87 H 3.6424 1.65784 5.63728 0
M  V30 88 H 5.1664 0.821939 6.05043 0
M  V30 89 H 6.5804 2.8288 4.9865 0
M  V30 90 H 4.9774 3.5983 4.80253 0
M  V30 91 H 6.0474 3.4616 3.39561 0
M  V30 92 N 7.3905 -1.2043 1.01659 0
M  V30 93 C 8.3205 -2.25466 0.607226 0
M  V30 94 C 9.3015 -1.65853 -0.377716 0
M  V30 95 O 10.4865 -1.92409 -0.263149 0
M  V30 96 C 7.6165 -3.47256 -0.0552949 0
M  V30 97 C 6.5705 -4.19462 0.850632 0
M  V30 98 C 5.8965 -5.34673 0.0538859 0
M  V30 99 C 7.1965 -4.75603 2.15868 0
M  V30 100 H 8.8905 -2.59962 1.48526 0
M  V30 101 H 6.4365 -1.2496 0.715605 0
M  V30 102 H 8.3895 -4.19917 -0.353233 0
M  V30 103 H 7.1135 -3.11924 -0.968045 0
M  V30 104 H 5.7725 -3.48667 1.13257 0
M  V30 105 H 5.4205 -4.95585 -0.860514 0
M  V30 106 H 5.1205 -5.83913 0.657192 0
M  V30 107 H 6.6445 -6.10138 -0.237598 0
M  V30 108 H 8.0585 -5.40083 1.92311 0
M  V30 109 H 6.4555 -5.3528 2.71284 0
M  V30 110 H 7.5255 -3.94346 2.82169 0
M  V30 111 N 8.8686 -0.792821 -1.36206 0
M  V30 112 C 9.7986 -0.207853 -2.32573 0
M  V30 113 C 10.7796 0.659055 -1.56813 0
M  V30 114 O 11.9646 0.592176 -1.84951 0
M  V30 115 C 9.0946 0.655449 -3.41059 0
M  V30 116 C 8.0486 -0.111842 -4.27854 0
M  V30 117 C 7.3746 0.872274 -5.27537 0
M  V30 118 C 8.6746 -1.30299 -5.05786 0
M  V30 119 H 10.3686 -1.01294 -2.81744 0
M  V30 120 H 7.9146 -0.48854 -1.3546 0
M  V30 121 H 9.8676 1.07464 -4.07467 0
M  V30 122 H 8.5916 1.49328 -2.90463 0
M  V30 123 H 7.2506 -0.512053 -3.63006 0
M  V30 124 H 6.8986 1.70523 -4.73214 0
M  V30 125 H 6.5986 0.363291 -5.86476 0
M  V30 126 H 8.1226 1.28996 -5.96818 0
M  V30 127 H 9.5366 -0.959379 -5.65216 0
M  V30 128 H 7.9336 -1.7455 -5.74154 0
M  V30 129 H 9.0036 -2.09663 -4.37229 0
M  V30 130 N 10.3467 1.47872 -0.545128 0
M  V30 131 C 11.7627 1.5829 -0.204032 0
M  V30 132 C 11.9627 1.54529 1.29317 0
M  V30 133 O 11.0187 1.44232 2.07252 0
M  V30 134 C 12.3317 2.89304 -0.819987 0
M  V30 135 C 13.8797 3.02864 -0.790105 0
M  V30 136 C 14.3547 4.3656 -1.38491 0
M  V30 137 N 15.8457 4.43165 -1.34755 0
M  V30 138 C 16.5807 5.45153 -1.77753 0
M  V30 139 N 16.0767 6.54016 -2.2855 0
M  V30 140 N 17.8697 5.36125 -1.68897 0
M  V30 141 H 10.0207 1.4856 -1.51802 0
M  V30 142 H 12.2837 0.706305 -0.632327 0
M  V30 143 H 11.9897 2.97757 -1.87173 0
M  V30 144 H 11.8637 3.75957 -0.305915 0
M  V30 145 H 14.2507 2.94014 0.252913 0
M  V30 146 H 14.3317 2.17782 -1.34181 0
M  V30 147 H 13.9757 4.46164 -2.42693 0
M  V30 148 H 13.9057 5.20353 -0.808754 0
M  V30 149 H 16.3967 3.65083 -0.975855 0
M  V30 150 H 16.7097 7.27994 -2.59314 0
M  V30 151 H 15.0547 6.54938 -2.32553 0
M  V30 152 H 18.2457 4.49975 -1.28998 0
M  V30 153 H 18.4187 6.15472 -2.02726 0
M  V30 154 N 11.8248 0.280983 1.55075 0
M  V30 155 C 12.7878 -0.590896 2.21452 0
M  V30 156 C 13.7878 -1.07682 1.19421 0
M  V30 157 O 14.9778 -0.97605 1.44288 0
M  V30 158 C 12.1098 -1.81587 2.88511 0
M  V30 159 H 13.3028 -0.0112554 2.99898 0
M  V30 160 H 10.8558 0.0316438 1.56268 0
M  V30 161 H 11.5908 -2.43587 2.14093 0
M  V30 162 H 11.3758 -1.4753 3.63287 0
M  V30 163 H 12.8658 -2.43575 3.39206 0
M  V30 164 N 13.3029 -1.57598 0.00835791 0
M  V30 165 C 14.5489 -1.92046 -0.670055 0
M  V30 166 C 14.9039 -0.88351 -1.70915 0
M  V30 167 O 14.1969 0.103223 -1.91322 0
M  V30 168 C 14.3909 -3.3101 -1.34787 0
M  V30 169 C 14.2199 -4.48126 -0.375945 0
M  V30 170 C 12.9899 -5.05297 0.0166914 0
M  V30 171 C 15.1879 -5.1303 0.361272 0
M  V30 172 N 13.1699 -6.05931 0.985952 0
M  V30 173 C 14.5409 -6.08571 1.18495 0
M  V30 174 C 16.5959 -4.9609 0.42421 0
M  V30 175 C 15.2989 -6.88996 2.06584 0
M  V30 176 C 17.3249 -5.77107 1.29236 0
M  V30 177 C 16.6869 -6.72248 2.10386 0
M  V30 178 H 12.7859 -0.75096 -0.218136 0
M  V30 179 H 15.3699 -1.94572 0.0706669 0
M  V30 180 H 13.5409 -3.29342 -2.05884 0
M  V30 181 H 15.2729 -3.52864 -1.98164 0
M  V30 182 H 12.0279 -4.72279 -0.353435 0
M  V30 183 H 12.4519 -6.60932 1.4662 0
M  V30 184 H 17.0939 -4.22378 -0.188915 0
M  V30 185 H 14.8119 -7.62028 2.6896 0
M  V30 186 H 18.3979 -5.66038 1.34508 0
M  V30 187 H 17.2779 -7.33846 2.76476 0
M  V30 188 N 14.781 0.264519 -1.55364 0
M  V30 189 C 16.192 0.834936 -1.6699 0
M  V30 190 C 16.543 1.86718 -0.602552 0
M  V30 191 O 15.668 2.14899 0.254425 0
M  V30 192 C 16.263 1.5212 -3.02729 0
M  V30 193 C 14.822 2.03954 -3.16354 0
M  V30 194 C 13.969 0.884498 -2.62815 0
M  V30 195 H 16.92 0.0406869 -1.58648 0
M  V30 196 H 16.941 2.38853 -2.96191 0
M  V30 197 H 16.453 0.769668 -3.80392 0
M  V30 198 H 14.554 2.82041 -2.43482 0
M  V30 199 H 14.667 2.24902 -4.23032 0
M  V30 200 H 13.031 1.2802 -2.20188 0
M  V30 201 H 13.814 0.14634 -3.42988 0
M  V30 202 N 16.2591 1.48442 0.529413 0
M  V30 203 C 17.6751 1.34575 0.858004 0
M  V30 204 C 17.8751 0.3572 1.98309 0
M  V30 205 O 16.9311 -0.221379 2.51528 0
M  V30 206 C 18.2441 2.74617 1.22499 0
M  V30 207 C 19.7921 2.83109 1.33484 0
M  V30 208 C 20.2671 4.23854 1.73526 0
M  V30 209 N 21.7581 4.2653 1.80628 0
M  V30 210 C 22.4931 5.32372 2.12997 0
M  V30 211 N 21.9891 6.48491 2.43786 0
M  V30 212 N 23.7821 5.19766 2.14008 0
M  V30 213 H 15.9331 2.1133 -0.212925 0
M  V30 214 H 18.1961 0.947439 -0.0326199 0
M  V30 215 H 17.9021 3.4852 0.471905 0
M  V30 216 H 17.7761 3.08177 2.17501 0
M  V30 217 H 20.1631 2.09462 2.0787 0
M  V30 218 H 20.2441 2.53168 0.366027 0
M  V30 219 H 19.8881 4.98018 0.997013 0
M  V30 220 H 19.8181 4.5124 2.71459 0
M  V30 221 H 22.3091 3.42772 1.59108 0
M  V30 222 H 22.6221 7.24993 2.67592 0
M  V30 223 H 20.9671 6.51765 2.41304 0
M  V30 224 H 24.1581 4.28066 1.89412 0
M  V30 225 H 24.3311 6.02354 2.38902 0
M  V30 226 N 17.7372 -0.778329 1.37039 0
M  V30 227 C 18.9852 -1.53361 1.31623 0
M  V30 228 C 19.3062 -1.94739 -0.100831 0
M  V30 229 O 18.5762 -1.65797 -1.04347 0
M  V30 230 H 17.1562 -0.568794 0.484234 0
M  V30 231 H 19.8182 -0.926742 1.71457 0
M  V30 232 H 18.9142 -2.43606 1.95096 0
M  V30 233 N 19.2153 -1.21501 -1.00376 0
M  V30 234 C 20.6263 -1.03146 -1.55621 0
M  V30 235 C 20.9773 0.408375 -1.91903 0
M  V30 236 O 20.1023 1.29177 -1.73616 0
M  V30 237 C 20.6973 -1.86612 -2.82775 0
M  V30 238 C 19.2563 -1.72586 -3.34501 0
M  V30 239 C 18.4033 -1.83747 -2.07683 0
M  V30 240 H 21.3543 -1.35505 -0.826081 0
M  V30 241 H 21.3753 -1.3771 -3.54706 0
M  V30 242 H 20.8873 -2.91399 -2.56336 0
M  V30 243 H 18.9883 -0.704877 -3.65872 0
M  V30 244 H 19.1013 -2.54623 -4.05837 0
M  V30 245 H 17.4653 -1.27069 -2.20739 0
M  V30 246 H 18.2483 -2.90044 -1.83655 0
M  V30 247 N 20.6934 1.19889 -1.02296 0
M  V30 248 C 21.6564 2.21116 -0.603351 0
M  V30 249 C 22.6564 1.5738 0.329884 0
M  V30 250 O 23.8464 1.73802 0.117702 0
M  V30 251 C 20.9784 3.40696 0.117992 0
M  V30 252 H 22.1714 2.59754 -1.49893 0
M  V30 253 H 19.7244 1.33463 -0.813468 0
M  V30 254 H 20.4594 3.07569 1.0282 0
M  V30 255 H 20.2444 3.88188 -0.552511 0
M  V30 256 H 21.7344 4.15692 0.398696 0
M  V30 257 N 22.1715 0.800033 1.35784 0
M  V30 258 C 23.4175 0.377901 1.99248 0
M  V30 259 C 23.7505 -1.05052 1.63333 0
M  V30 260 O 23.0255 -1.72768 0.893385 0
M  V30 261 C 23.3085 0.553922 3.55814 0
M  V30 262 C 23.1615 2.0268 4.01548 0
M  V30 263 C 24.4805 -0.0244802 4.40093 0
M  V30 264 H 21.5995 0.138782 0.723815 0
M  V30 265 H 24.2415 1.00835 1.61035 0
M  V30 266 H 22.3915 0.0172398 3.88496 0
M  V30 267 H 24.0635 2.62536 3.79305 0
M  V30 268 H 22.3065 2.5256 3.52698 0
M  V30 269 H 22.9775 2.10087 5.10458 0
M  V30 270 H 25.4535 0.433775 4.13833 0
M  V30 271 H 24.3295 0.128637 5.48749 0
M  V30 272 H 24.5905 -1.11758 4.27741 0
M  V30 273 N 23.6496 -1.47581 0.552962 0
M  V30 274 C 24.8976 -2.02082 0.0272703 0
M  V30 275 C 25.2186 -1.4301 -1.32563 0
M  V30 276 O 24.4886 -0.603745 -1.86365 0
M  V30 277 H 23.0686 -0.746966 0.00709182 0
M  V30 278 H 25.7306 -1.81033 0.722008 0
M  V30 279 H 24.8266 -3.12034 -0.0639951 0
M  V30 280 N 25.1277 -0.289203 -1.54924 0
M  V30 281 C 26.5387 0.205791 -1.85562 0
M  V30 282 C 26.8897 1.54351 -1.2112 0
M  V30 283 O 26.0147 2.10435 -0.504601 0
M  V30 284 C 26.6097 0.380177 -3.3666 0
M  V30 285 C 25.1687 0.819395 -3.67373 0
M  V30 286 C 24.3157 -0.079159 -2.77187 0
M  V30 287 H 27.2667 -0.510577 -1.50262 0
M  V30 288 H 27.2877 1.21659 -3.60526 0
M  V30 289 H 26.7997 -0.593589 -3.83534 0
M  V30 290 H 24.9007 1.80413 -3.26009 0
M  V30 291 H 25.0137 0.646957 -4.74712 0
M  V30 292 H 23.3777 0.439565 -2.50878 0
M  V30 293 H 24.1607 -1.04906 -3.26878 0
M  V30 294 N 26.6058 1.57591 -0.0167156 0
M  V30 295 C 27.8538 1.90906 0.663285 0
M  V30 296 C 28.1748 0.892509 1.73376 0
M  V30 297 O 27.4448 -0.0677623 1.95783 0
M  V30 298 H 26.0248 0.704637 0.247983 0
M  V30 299 H 28.6868 1.94803 -0.0615909 0
M  V30 300 H 27.7828 2.9116 1.12393 0
M  V30 301 N 28.0839 -0.256276 1.55502 0
M  V30 302 C 29.0469 -1.30047 1.88734 0
M  V30 303 C 30.0469 -1.4154 0.763086 0
M  V30 304 O 31.2369 -1.40403 1.03115 0
M  V30 305 C 28.3689 -2.67953 2.10747 0
M  V30 306 H 29.5619 -1.01802 2.82093 0
M  V30 307 H 27.1149 -0.495134 1.4825 0
M  V30 308 H 27.8499 -3.01351 1.19825 0
M  V30 309 H 27.6349 -2.60993 2.92617 0
M  V30 310 H 29.1249 -3.43368 2.37673 0
M  V30 311 N 29.562 -1.4872 -0.521534 0
M  V30 312 C 30.973 -1.50607 -1.10337 0
M  V30 313 C 31.324 -0.280612 -1.94183 0
M  V30 314 O 30.449 0.611507 -2.0758 0
M  V30 315 C 31.044 -2.72903 -2.00772 0
M  V30 316 C 29.603 -2.77634 -2.54158 0
M  V30 317 C 28.75 -2.44241 -1.31307 0
M  V30 318 H 31.701 -1.55714 -0.306388 0
M  V30 319 H 31.722 -2.519 -2.85178 0
M  V30 320 H 31.234 -3.62077 -1.39721 0
M  V30 321 H 29.335 -1.92689 -3.18907 0
M  V30 322 H 29.448 -3.79283 -2.92714 0
M  V30 323 H 27.812 -1.95577 -1.63161 0
M  V30 324 H 28.595 -3.35666 -0.719943 0
M  V30 325 N 31.0401 0.771051 -1.3745 0
M  V30 326 C 32.2651 1.56529 -1.36065 0
M  V30 327 C 32.6901 1.88029 0.0515859 0
M  V30 328 O 32.0481 1.49282 1.02882 0
M  V30 329 C 32.0961 2.85187 -2.20683 0
M  V30 330 O 31.2001 3.79593 -1.61193 0
M  V30 331 H 30.5411 0.47411 -0.464883 0
M  V30 332 H 33.0711 0.954269 -1.80983 0
M  V30 333 H 33.0811 3.34283 -2.33921 0
M  V30 334 H 31.7561 2.61588 -3.23334 0
M  V30 335 H 30.3331 3.38239 -1.56999 0
M  V30 336 N 32.5182 1.22032 0.997298 0
M  V30 337 C 33.9342 0.979326 1.26021 0
M  V30 338 C 34.1342 -0.32972 1.98784 0
M  V30 339 O 33.1902 -1.05345 2.29475 0
M  V30 340 C 34.5032 2.17509 2.07631 0
M  V30 341 C 36.0512 2.21817 2.2083 0
M  V30 342 C 36.5262 3.40933 3.05825 0
M  V30 343 N 38.0172 3.41067 3.13412 0
M  V30 344 C 38.7522 4.29885 3.79455 0
M  V30 345 N 38.2482 5.28914 4.47462 0
M  V30 346 N 40.0412 4.17673 3.76173 0
M  V30 347 H 32.1922 2.06202 0.509352 0
M  V30 348 H 34.4552 0.90334 0.287541 0
M  V30 349 H 34.1612 3.12415 1.61524 0
M  V30 350 H 34.0352 2.17206 3.08385 0
M  V30 351 H 36.4222 1.27462 2.66153 0
M  V30 352 H 36.5032 2.2616 1.1952 0
M  V30 353 H 36.1472 4.35586 2.61203 0
M  V30 354 H 36.0772 3.33829 4.07266 0
M  V30 355 H 38.5682 2.69406 2.65007 0
M  V30 356 H 38.8812 5.92973 4.95583 0
M  V30 357 H 37.2262 5.32831 4.46224 0
M  V30 358 H 40.4172 3.39564 3.22202 0
M  V30 359 H 40.5902 4.87098 4.27363 0
M  V30 360 N 33.9963 -1.19345 1.0293 0
M  V30 361 C 35.4073 -1.70725 0.755633 0
M  V30 362 C 35.7583 -1.82326 -0.724676 0
M  V30 363 O 34.8833 -1.49471 -1.56484 0
M  V30 364 C 35.4783 -3.10084 1.36503 0
M  V30 365 C 34.0373 -3.58723 1.13994 0
M  V30 366 C 33.1843 -2.35577 1.46283 0
M  V30 367 H 36.1353 -1.0418 1.19718 0
M  V30 368 H 36.1563 -3.72787 0.762217 0
M  V30 369 H 35.6683 -3.01609 2.44241 0
M  V30 370 H 33.7693 -3.72512 0.0807901 0
M  V30 371 H 33.8823 -4.42816 1.82894 0
M  V30 372 H 32.2463 -2.38935 0.88217 0
M  V30 373 H 33.0293 -2.29731 2.55105 0
M  V30 374 N 35.4744 -0.807222 -1.35358 0
M  V30 375 C 36.4044 -0.232509 -2.3234 0
M  V30 376 C 37.3854 0.642386 -1.57504 0
M  V30 377 O 38.5704 0.572526 -1.85569 0
M  V30 378 C 35.7004 0.619238 -3.41735 0
M  V30 379 C 34.6544 -0.157215 -4.27711 0
M  V30 380 C 33.9804 0.816273 -5.28433 0
M  V30 381 C 35.2804 -1.35656 -5.04376 0
M  V30 382 H 36.9744 -1.04276 -2.80654 0
M  V30 383 H 34.5204 -0.50288 -1.34934 0
M  V30 384 H 36.4734 1.03137 -4.08584 0
M  V30 385 H 35.1974 1.46239 -2.92031 0
M  V30 386 H 33.8564 -0.550525 -3.62443 0
M  V30 387 H 33.5044 1.65494 -4.74996 0
M  V30 388 H 33.2044 0.301067 -5.86828 0
M  V30 389 H 34.7284 1.22659 -5.98153 0
M  V30 390 H 36.1424 -1.01927 -5.64166 0
M  V30 391 H 34.5394 -1.8063 -5.7227 0
M  V30 392 H 35.6094 -2.14288 -4.34981 0
M  V30 393 N 36.9525 1.47285 -0.560781 0
M  V30 394 C 38.1775 2.07359 -0.0410566 0
M  V30 395 C 38.6025 1.41017 1.24483 0
M  V30 396 O 37.9605 0.486368 1.74654 0
M  V30 397 C 38.0085 3.6035 0.134123 0
M  V30 398 O 37.1125 3.94681 1.19587 0
M  V30 399 H 36.4535 0.661887 -0.0529291 0
M  V30 400 H 38.9835 1.89252 -0.777482 0
M  V30 401 H 38.9935 4.0652 0.347207 0
M  V30 402 H 37.6685 4.08034 -0.805047 0
M  V30 403 H 36.2455 3.60251 0.962987 0
M  V30 404 N 38.4306 0.297415 1.54768 0
M  V30 405 C 39.3936 -0.567375 2.22066 0
M  V30 406 C 40.3936 -1.06409 1.20556 0
M  V30 407 O 41.5836 -0.960691 1.45315 0
M  V30 408 C 38.7156 -1.78517 2.90421 0
M  V30 409 H 39.9086 0.0205534 2.99893 0
M  V30 410 H 37.4616 0.0482163 1.56226 0
M  V30 411 H 38.1966 -2.41303 2.16664 0
M  V30 412 H 37.9816 -1.43669 3.64831 0
M  V30 413 H 39.4716 -2.39964 3.41771 0
M  V30 414 N 39.9087 -1.5758 0.0250728 0
M  V30 415 C 41.1567 -1.91255 -0.653151 0
M  V30 416 C 41.4777 -0.901691 -1.729 0
M  V30 417 O 40.7477 0.0573785 -1.95816 0
M  V30 418 H 39.3277 -0.705942 -0.244243 0
M  V30 419 H 41.9897 -1.94767 0.0719209 0
M  V30 420 H 41.0857 -2.91752 -1.10847 0
M  V30 421 N 41.3868 0.248026 -1.55636 0
M  V30 422 C 42.6118 0.998028 -1.81808 0
M  V30 423 C 43.0368 1.78207 -0.601979 0
M  V30 424 O 42.3948 1.75653 0.448961 0
M  V30 425 C 42.4428 1.9125 -3.05705 0
M  V30 426 O 41.5468 3.00406 -2.82542 0
M  V30 427 H 40.8878 0.284045 -0.600179 0
M  V30 428 H 43.4178 0.269357 -2.02819 0
M  V30 429 H 43.4278 2.32737 -3.35108 0
M  V30 430 H 42.1028 1.33602 -3.93857 0
M  V30 431 H 40.6798 2.63056 -2.64303 0
M  V30 432 N 42.8649 1.48995 0.513639 0
M  V30 433 C 44.1129 1.57531 1.26604 0
M  V30 434 C 44.4339 0.258236 1.93283 0
M  V30 435 O 43.7039 -0.721502 1.8213 0
M  V30 436 H 42.2839 0.580387 0.470276 0
M  V30 437 H 44.9459 1.85552 0.596373 0
M  V30 438 H 44.0419 2.36486 2.03669 0
M  V30 439 N 44.343 -0.763751 1.37857 0
M  V30 440 C 45.754 -1.3405 1.29952 0
M  V30 441 C 46.105 -1.96138 -0.0492898 0
M  V30 442 O 45.23 -1.94372 -0.951239 0
M  V30 443 C 45.825 -2.43729 2.35333 0
M  V30 444 C 44.384 -2.97151 2.31037 0
M  V30 445 C 43.531 -1.70438 2.18738 0
M  V30 446 H 46.482 -0.563396 1.48363 0
M  V30 447 H 46.503 -3.23412 2.00462 0
M  V30 448 H 46.015 -1.9851 3.33489 0
M  V30 449 H 44.116 -3.46724 1.3643 0
M  V30 450 H 44.229 -3.52221 3.24772 0
M  V30 451 H 42.593 -1.93673 1.65418 0
M  V30 452 H 43.376 -1.27312 3.18821 0
M  V30 453 N 45.8211 -1.22559 -0.990812 0
M  V30 454 C 47.0691 -1.04933 -1.72724 0
M  V30 455 C 47.3901 0.416158 -1.90508 0
M  V30 456 O 46.6601 1.29918 -1.46622 0
M  V30 457 H 45.2401 -0.385296 -0.639965 0
M  V30 458 H 47.9021 -1.54105 -1.19322 0
M  V30 459 H 46.9981 -1.52886 -2.72089 0
M  V30 460 N 47.2992 1.18797 -1.03562 0
M  V30 461 C 48.2312 2.21731 -0.580337 0
M  V30 462 C 49.2442 1.59051 0.347349 0
M  V30 463 O 50.4332 1.77929 0.142669 0
M  V30 464 C 47.5332 3.38459 0.172805 0
M  V30 465 C 46.7062 4.3072 -0.761496 0
M  V30 466 C 45.7652 5.26174 -0.0525547 0
M  V30 467 O 44.7912 5.65108 -0.681333 0
M  V30 468 N 45.9932 5.67624 1.21586 0
M  V30 469 H 48.7582 2.61417 -1.46565 0
M  V30 470 H 46.3192 1.33531 -0.915476 0
M  V30 471 H 48.3112 3.99335 0.656793 0
M  V30 472 H 46.8812 2.97507 0.959602 0
M  V30 473 H 46.1012 3.67525 -1.42544 0
M  V30 474 H 47.3892 4.89267 -1.39626 0
M  V30 475 H 46.7872 5.38038 1.74732 0
M  V30 476 H 45.3442 6.30721 1.64421 0
M  V30 477 N 48.7773 0.814389 1.34928 0
M  V30 478 C 50.0073 0.41054 2.0248 0
M  V30 479 C 50.4153 -0.985625 1.61499 0
M  V30 480 O 49.7583 -1.64781 0.811976 0
M  V30 481 C 49.8203 0.423384 3.56998 0
M  V30 482 C 49.4843 1.77141 4.21272 0
M  V30 483 C 50.4813 2.73093 4.42398 0
M  V30 484 C 48.1663 2.05755 4.58225 0
M  V30 485 C 50.1603 3.95838 4.9959 0
M  V30 486 C 47.8473 3.28762 5.1513 0
M  V30 487 C 48.8453 4.23621 5.35755 0
M  V30 488 O 48.5333 5.44456 5.91458 0
M  V30 489 H 48.2653 0.163997 0.655806 0
M  V30 490 H 50.8193 1.10155 1.73364 0
M  V30 491 H 49.0493 -0.324276 3.85338 0
M  V30 492 H 50.7383 0.0407683 4.0588 0
M  V30 493 H 51.5043 2.5228 4.14222 0
M  V30 494 H 47.3833 1.32727 4.4148 0
M  V30 495 H 50.9273 4.69891 5.15605 0
M  V30 496 H 46.8243 3.49443 5.42734 0
M  V30 497 H 47.5923 5.4586 6.09901 0
M  V30 498 N 50.2554 -1.46986 0.568584 0
M  V30 499 C 51.1854 -2.32946 -0.160753 0
M  V30 500 C 52.1664 -1.44487 -0.897631 0
M  V30 501 O 53.3514 -1.73327 -0.875867 0
M  V30 502 C 50.4814 -3.26494 -1.18403 0
M  V30 503 C 49.4354 -4.24282 -0.562895 0
M  V30 504 C 48.7614 -5.07236 -1.69163 0
M  V30 505 C 50.0614 -5.19989 0.490761 0
M  V30 506 H 51.7554 -2.94175 0.556916 0
M  V30 507 H 49.3014 -1.4146 0.26927 0
M  V30 508 H 51.2544 -3.85477 -1.70251 0
M  V30 509 H 49.9784 -2.63343 -1.93179 0
M  V30 510 H 48.6374 -3.66541 -0.0656164 0
M  V30 511 H 48.2854 -4.4048 -2.42871 0
M  V30 512 H 47.9854 -5.7345 -1.28174 0
M  V30 513 H 49.5094 -5.6908 -2.21314 0
M  V30 514 H 50.9234 -5.73271 0.0579047 0
M  V30 515 H 49.3204 -5.94469 0.820165 0
M  V30 516 H 50.3904 -4.64777 1.3824 0
M  V30 517 N 51.7335 -0.305618 -1.54608 0
M  V30 518 C 52.6655 0.602161 -2.21149 0
M  V30 519 C 53.6785 1.09394 -1.20569 0
M  V30 520 O 54.8675 1.0106 -1.47136 0
M  V30 521 C 51.9675 1.83692 -2.84799 0
M  V30 522 C 51.1405 1.48686 -4.11353 0
M  V30 523 C 50.1995 2.57725 -4.58764 0
M  V30 524 O 49.2255 2.22623 -5.23858 0
M  V30 525 N 50.4275 3.88346 -4.31471 0
M  V30 526 H 53.1925 0.0324966 -2.99682 0
M  V30 527 H 50.7535 -0.128021 -1.61393 0
M  V30 528 H 52.7455 2.55994 -3.13448 0
M  V30 529 H 51.3155 2.31486 -2.10078 0
M  V30 530 H 50.5355 0.596269 -3.89664 0
M  V30 531 H 51.8235 1.22842 -4.93748 0
M  V30 532 H 51.2215 4.19671 -3.79331 0
M  V30 533 H 49.7785 4.56932 -4.64818 0
M  V30 534 N 53.2116 1.57565 -0.0334293 0
M  V30 535 C 54.6276 1.56297 0.322997 0
M  V30 536 C 54.8276 1.03945 1.7262 0
M  V30 537 O 53.8836 0.688109 2.42943 0
M  V30 538 C 55.1966 3.00232 0.167664 0
M  V30 539 C 56.7446 3.12078 0.240107 0
M  V30 540 C 57.2196 4.57859 0.113513 0
M  V30 541 N 58.7106 4.62887 0.170359 0
M  V30 542 C 59.4456 5.73319 0.0962517 0
M  V30 543 N 58.9416 6.92794 -0.0291881 0
M  V30 544 N 60.7346 5.61898 0.150551 0
M  V30 545 H 52.8856 1.89923 -0.950956 0
M  V30 546 H 55.1486 0.873824 -0.367608 0
M  V30 547 H 54.8546 3.42501 -0.799102 0
M  V30 548 H 54.7286 3.654 0.936083 0
M  V30 549 H 57.1156 2.69718 1.19733 0
M  V30 550 H 57.1966 2.49623 -0.558763 0
M  V30 551 H 56.8406 5.009 -0.840314 0
M  V30 552 H 56.7706 5.18299 0.931302 0
M  V30 553 H 59.2616 3.76954 0.26728 0
M  V30 554 H 59.5746 7.7276 -0.0789252 0
M  V30 555 H 57.9196 6.94971 -0.0640299 0
M  V30 556 H 61.1106 4.67448 0.246981 0
M  V30 557 H 61.2836 6.47938 0.0893365 0
M  V30 558 N 54.6897 -0.239769 1.55765 0
M  V30 559 C 55.9147 -0.988373 1.82335 0
M  V30 560 C 56.3397 -1.77886 0.611421 0
M  V30 561 O 55.6977 -1.75889 -0.439639 0
M  V30 562 C 55.7457 -1.89627 3.06715 0
M  V30 563 O 54.8497 -2.98904 2.84131 0
M  V30 564 H 54.1907 -0.280858 0.601677 0
M  V30 565 H 56.7207 -0.258597 2.02959 0
M  V30 566 H 56.7307 -2.30957 3.36338 0
M  V30 567 H 55.4057 -1.31511 3.9456 0
M  V30 568 H 53.9827 -2.61651 2.65694 0
M  V30 569 N 56.1678 -1.49265 -0.50573 0
M  V30 570 C 57.4168 -1.57761 -1.25675 0
M  V30 571 C 57.7298 -0.267371 -1.93764 0
M  V30 572 O 58.9358 -0.230827 -2.70517 0
M  V30 573 C 57.3918 -2.78332 -2.28165 0
M  V30 574 C 56.9998 -4.16096 -1.66037 0
M  V30 575 C 58.7438 -2.96155 -3.04125 0
M  V30 576 C 56.6508 -5.27895 -2.6661 0
M  V30 577 H 55.5808 -0.587391 -0.472745 0
M  V30 578 H 58.2318 -1.75644 -0.53118 0
M  V30 579 H 56.6138 -2.53934 -3.03865 0
M  V30 580 H 57.7878 -4.50612 -0.963622 0
M  V30 581 H 56.1028 -4.03591 -1.02484 0
M  V30 582 H 58.6998 -3.76849 -3.79327 0
M  V30 583 H 59.0428 -2.06534 -3.61455 0
M  V30 584 H 59.5758 -3.2057 -2.35541 0
M  V30 585 H 56.3148 -6.1956 -2.14068 0
M  V30 586 H 55.8348 -4.97839 -3.34539 0
M  V30 587 H 57.5138 -5.57031 -3.29129 0
M  V30 588 N 57.6459 0.756429 -1.3826 0
M  V30 589 C 58.8919 1.51772 -1.34511 0
M  V30 590 C 59.2249 1.94089 0.0656691 0
M  V30 591 O 58.4999 1.65221 1.02626 0
M  V30 592 C 58.7829 2.77226 -2.29821 0
M  V30 593 C 58.6359 2.41065 -3.79747 0
M  V30 594 C 59.9549 3.79236 -2.23312 0
M  V30 595 H 57.0739 0.550578 -0.489931 0
M  V30 596 H 59.7159 0.866607 -1.69086 0
M  V30 597 H 57.8659 3.32784 -2.00467 0
M  V30 598 H 59.5379 1.91303 -4.19763 0
M  V30 599 H 57.7809 1.7356 -3.97567 0
M  V30 600 H 58.4519 3.3081 -4.41892 0
M  V30 601 H 60.9279 3.3321 -2.49219 0
M  V30 602 H 59.8039 4.64714 -2.92116 0
M  V30 603 H 60.0649 4.24615 -1.23102 0
M  V30 604 N 59.124 1.23083 0.984299 0
M  V30 605 C 60.535 1.05609 1.5396 0
M  V30 606 C 60.886 -0.377793 1.92528 0
M  V30 607 O 60.011 -1.26398 1.75649 0
M  V30 608 C 60.606 1.91087 2.7977 0
M  V30 609 C 59.165 1.77885 3.31713 0
M  V30 610 C 58.312 1.87028 2.04733 0
M  V30 611 H 61.263 1.36802 0.804419 0
M  V30 612 H 61.284 1.43336 3.5247 0
M  V30 613 H 60.796 2.9544 2.51668 0
M  V30 614 H 58.897 0.762995 3.64704 0
M  V30 615 H 59.01 2.61047 4.01735 0
M  V30 616 H 57.374 1.30565 2.18689 0
M  V30 617 H 58.157 2.92929 1.79017 0
M  V30 618 N 60.6021 -1.18246 1.0419 0
M  V30 619 C 61.8301 -1.92195 0.766072 0
M  V30 620 C 62.2451 -1.76247 -0.676933 0
M  V30 621 O 61.6021 -1.09293 -1.46155 0
M  V30 622 C 61.6531 -3.43568 1.12442 0
M  V30 623 O 61.3741 -3.59015 2.51078 0
M  V30 624 C 62.8751 -4.34613 0.873275 0
M  V30 625 H 60.0951 -0.610114 0.279288 0
M  V30 626 H 62.6391 -1.50007 1.38989 0
M  V30 627 H 60.7941 -3.8354 0.545542 0
M  V30 628 H 61.2081 -4.5273 2.64831 0
M  V30 629 H 62.6821 -5.39374 1.17385 0
M  V30 630 H 63.1591 -4.38781 -0.191909 0
M  V30 631 H 63.7651 -4.00341 1.43551 0
M  V30 632 N 62.0802 -0.821533 -1.34494 0
M  V30 633 C 63.0132 -0.187704 -2.27427 0
M  V30 634 C 63.9912 0.65507 -1.48821 0
M  V30 635 O 65.1752 0.619111 -1.78043 0
M  V30 636 C 62.3022 0.737996 -3.30562 0
M  V30 637 C 61.3482 -0.0270713 -4.26491 0
M  V30 638 S 62.1812 -1.37329 -5.17592 0
M  V30 639 C 63.3372 -0.452427 -6.24263 0
M  V30 640 H 63.5702 -0.975598 -2.80837 0
M  V30 641 H 61.1032 -0.61736 -1.4152 0
M  V30 642 H 63.0612 1.26654 -3.90473 0
M  V30 643 H 61.7222 1.4994 -2.76001 0
M  V30 644 H 60.9152 0.6766 -4.99438 0
M  V30 645 H 60.5172 -0.48612 -3.70827 0
M  V30 646 H 62.8092 0.356557 -6.76561 0
M  V30 647 H 63.7522 -1.15153 -6.98674 0
M  V30 648 H 64.1602 -0.0414755 -5.64485 0
M  V30 649 N 63.5583 1.46682 -0.576371 0
M  V30 650 C 64.5083 2.27278 0.181288 0
M  V30 651 C 65.4923 1.35497 0.867721 0
M  V30 652 O 66.6843 1.59717 0.762863 0
M  V30 653 C 63.8133 3.21703 1.19841 0
M  V30 654 C 62.8993 4.20969 0.51442 0
M  V30 655 N 63.2903 5.03999 -0.426407 0
M  V30 656 C 61.5883 4.39373 0.765963 0
M  V30 657 C 62.2893 5.75812 -0.825565 0
M  V30 658 N 61.2653 5.43315 -0.176116 0
M  V30 659 H 65.0673 2.88863 -0.541785 0
M  V30 660 H 62.5813 1.57455 -0.397697 0
M  V30 661 H 64.5783 3.78145 1.75533 0
M  V30 662 H 63.2383 2.61677 1.92238 0
M  V30 663 H 64.2493 5.11659 -0.8016 0
M  V30 664 H 60.9263 3.90502 1.47698 0
M  V30 665 H 62.3163 6.52577 -1.59976 0
M  V30 666 N 65.0364 0.313813 1.54444 0
M  V30 667 C 66.2664 -0.293491 2.04505 0
M  V30 668 C 66.6744 -1.47086 1.19005 0
M  V30 669 O 66.0174 -1.82481 0.211257 0
M  V30 670 C 66.0794 -0.800455 3.50475 0
M  V30 671 C 65.7434 0.253322 4.56297 0
M  V30 672 C 66.7404 1.08612 5.08428 0
M  V30 673 C 64.4254 0.398708 5.00715 0
M  V30 674 C 66.4194 2.05013 6.0353 0
M  V30 675 C 64.1064 1.36614 5.95634 0
M  V30 676 C 65.1044 2.19033 6.46926 0
M  V30 677 O 64.7924 3.14134 7.39983 0
M  V30 678 H 64.5244 -0.0658325 0.672787 0
M  V30 679 H 67.0784 0.455177 2.00293 0
M  V30 680 H 65.3084 -1.59987 3.52053 0
M  V30 681 H 66.9974 -1.32504 3.83663 0
M  V30 682 H 67.7634 0.984736 4.74898 0
M  V30 683 H 63.6424 -0.23289 4.60411 0
M  V30 684 H 67.1864 2.69382 6.4349 0
M  V30 685 H 63.0834 1.4682 6.28581 0
M  V30 686 H 63.8514 3.0926 7.57826 0
M  V30 687 N 66.5145 -1.57545 0.0417849 0
M  V30 688 C 67.4465 -2.07904 -0.964799 0
M  V30 689 C 68.4595 -1.00497 -1.28079 0
M  V30 690 O 69.6485 -1.28087 -1.24322 0
M  V30 691 C 66.7485 -2.49928 -2.28887 0
M  V30 692 C 65.9215 -3.80562 -2.15619 0
M  V30 693 C 64.9805 -4.08999 -3.31069 0
M  V30 694 O 64.0065 -4.79061 -3.0739 0
M  V30 695 N 65.2085 -3.6017 -4.55256 0
M  V30 696 H 67.9735 -2.94886 -0.535029 0
M  V30 697 H 65.5345 -1.61252 -0.144681 0
M  V30 698 H 67.5265 -2.66034 -3.04972 0
M  V30 699 H 66.0965 -1.68245 -2.63463 0
M  V30 700 H 65.3165 -3.74129 -1.24183 0
M  V30 701 H 66.6045 -4.66126 -2.03971 0
M  V30 702 H 66.0025 -3.03512 -4.77386 0
M  V30 703 H 64.5595 -3.81532 -5.28466 0
M  V30 704 N 67.9926 0.231505 -1.5589 0
M  V30 705 C 69.2696 0.981096 -1.69215 0
M  V30 706 C 69.6496 2.02799 -0.586164 0
M  V30 707 O 68.9976 2.24823 0.408253 0
M  V30 708 C 69.2076 1.60054 -3.10135 0
M  V30 709 C 70.5556 2.09658 -3.69227 0
M  V30 710 O 71.5796 1.69967 -3.13033 0
M  V30 711 O 70.4386 2.8258 -4.67772 0
M  V30 712 H 67.5326 0.457653 -0.688827 0
M  V30 713 H 70.0786 0.224073 -1.68214 0
M  V30 714 H 68.8506 0.844105 -3.82087 0
M  V30 715 H 68.4736 2.42336 -3.15212 0
M  V30 716 N 69.4707 1.49531 0.497807 0
M  V30 717 C 70.6957 1.63159 1.28039 0
M  V30 718 C 71.1207 0.30418 1.85624 0
M  V30 719 O 70.4787 -0.728618 1.66015 0
M  V30 720 C 70.5267 2.70537 2.38416 0
M  V30 721 O 69.6307 2.29931 3.42353 0
M  V30 722 H 68.9717 0.546001 0.377861 0
M  V30 723 H 71.5017 1.9574 0.59558 0
M  V30 724 H 71.5117 2.92802 2.84132 0
M  V30 725 H 70.1867 3.6689 1.95869 0
M  V30 726 H 68.7637 2.18009 3.02533 0
M  V30 727 N 70.9488 -0.749086 1.3866 0
M  V30 728 C 71.8788 -1.8764 1.38973 0
M  V30 729 C 72.8598 -1.68178 0.255004 0
M  V30 730 O 74.0448 -1.88704 0.458754 0
M  V30 731 C 71.1748 -3.25222 1.21851 0
M  V30 732 C 70.1288 -3.59295 2.32575 0
M  V30 733 C 69.4548 -4.95663 2.00555 0
M  V30 734 C 70.7548 -3.63709 3.7485 0
M  V30 735 H 72.4488 -1.87635 2.3331 0
M  V30 736 H 69.9948 -0.901329 1.12303 0
M  V30 737 H 71.9478 -4.03746 1.20695 0
M  V30 738 H 70.6718 -3.25719 0.239775 0
M  V30 739 H 69.3308 -2.83093 2.32925 0
M  V30 740 H 68.9788 -4.92724 1.01154 0
M  V30 741 H 68.6788 -5.19429 2.74714 0
M  V30 742 H 70.2028 -5.7656 2.01024 0
M  V30 743 H 71.6168 -4.32338 3.76506 0
M  V30 744 H 70.0138 -3.98986 4.48252 0
M  V30 745 H 71.0838 -2.63834 4.06841 0
M  V30 746 N 72.4269 -1.23603 -0.977757 0
M  V30 747 C 73.8379 -1.06424 -1.53398 0
M  V30 748 C 74.1889 0.367578 -1.92726 0
M  V30 749 O 73.3139 1.25465 -1.76316 0
M  V30 750 C 73.9089 -1.92568 -2.78753 0
M  V30 751 C 72.4679 -1.79642 -3.30765 0
M  V30 752 C 71.6149 -1.88111 -2.03739 0
M  V30 753 H 74.5659 -1.37227 -0.797152 0
M  V30 754 H 74.5869 -1.45203 -3.51705 0
M  V30 755 H 74.0989 -2.96771 -2.50098 0
M  V30 756 H 72.1999 -0.782325 -3.64294 0
M  V30 757 H 72.3129 -2.63174 -4.00345 0
M  V30 758 H 70.6769 -1.31723 -2.17994 0
M  V30 759 H 71.4599 -2.93875 -1.77461 0
M  V30 760 N 73.905 1.17692 -1.04816 0
M  V30 761 C 75.321 1.39863 -0.768794 0
M  V30 762 C 75.521 1.91118 0.638451 0
M  V30 763 O 74.577 2.10036 1.40146 0
M  V30 764 C 75.89 2.39274 -1.82122 0
M  V30 765 C 77.438 2.52987 -1.843 0
M  V30 766 C 77.913 3.55669 -2.88555 0
M  V30 767 N 79.404 3.63183 -2.87493 0
M  V30 768 C 80.139 4.42381 -3.64811 0
M  V30 769 N 79.635 5.25125 -4.51903 0
M  V30 770 N 81.428 4.37217 -3.53267 0
M  V30 771 H 73.579 0.82752 -1.95617 0
M  V30 772 H 75.842 0.426123 -0.846831 0
M  V30 773 H 75.548 2.08678 -2.83102 0
M  V30 774 H 75.422 3.38725 -1.65967 0
M  V30 775 H 77.809 2.82896 -0.839869 0
M  V30 776 H 77.89 1.53623 -2.04532 0
M  V30 777 H 77.534 3.26499 -3.89051 0
M  V30 778 H 77.464 4.54728 -2.65575 0
M  V30 779 H 79.955 3.04103 -2.24343 0
M  V30 780 H 80.268 5.82728 -5.07591 0
M  V30 781 H 78.613 5.24519 -4.55966 0
M  V30 782 H 81.804 3.71626 -2.84625 0
M  V30 783 H 81.977 4.98696 -4.13771 0
M  V30 784 N 75.3831 0.828654 1.34056 0
M  V30 785 C 76.3131 0.269443 2.3194 0
M  V30 786 C 77.2941 -0.617247 1.58506 0
M  V30 787 O 78.4791 -0.542931 1.86456 0
M  V30 788 C 75.6091 -0.564793 3.42677 0
M  V30 789 C 74.5631 0.225241 4.27407 0
M  V30 790 C 73.8891 -0.7321 5.29664 0
M  V30 791 C 75.1891 1.43663 5.02154 0
M  V30 792 H 76.8831 1.08728 2.7896 0
M  V30 793 H 74.4291 0.524283 1.34117 0
M  V30 794 H 76.3821 -0.966233 4.10173 0
M  V30 795 H 75.1061 -1.41574 2.9432 0
M  V30 796 H 73.7651 0.608117 3.61521 0
M  V30 797 H 73.4131 -1.57916 4.77568 0
M  V30 798 H 73.1131 -0.20767 5.87233 0
M  V30 799 H 74.6371 -1.13128 6.00029 0
M  V30 800 H 76.0511 1.1089 5.62473 0
M  V30 801 H 74.4481 1.89711 5.69324 0
M  V30 802 H 75.5181 2.21181 4.31517 0
M  V30 803 N 76.8612 -1.46375 0.584142 0
M  V30 804 C 78.2722 -1.86031 0.157959 0
M  V30 805 C 78.6232 -1.48753 -1.27933 0
M  V30 806 O 77.7482 -0.903098 -1.96655 0
M  V30 807 C 78.3432 -3.37642 0.279892 0
M  V30 808 C 76.9022 -3.76289 -0.09143 0
M  V30 809 C 76.0492 -2.7039 0.615178 0
M  V30 810 H 79.0002 -1.37509 0.792274 0
M  V30 811 H 79.0212 -3.77275 -0.494364 0
M  V30 812 H 78.5332 -3.64742 1.32607 0
M  V30 813 H 76.6342 -3.54806 -1.13769 0
M  V30 814 H 76.7472 -4.78246 0.285886 0
M  V30 815 H 75.1112 -2.5464 0.0552833 0
M  V30 816 H 75.8942 -3.0033 1.66303 0
M  V30 817 N 78.3393 -0.321999 -1.54275 0
M  V30 818 C 79.5883 0.281931 -1.9972 0
M  V30 819 C 79.9013 1.53369 -1.21397 0
M  V30 820 O 81.1073 2.21352 -1.57211 0
M  V30 821 C 79.5633 0.5529 -3.55628 0
M  V30 822 C 79.1713 -0.681721 -4.42783 0
M  V30 823 C 80.9153 1.11687 -4.09544 0
M  V30 824 C 78.8223 -0.382742 -5.9016 0
M  V30 825 H 77.7523 0.109124 -0.746062 0
M  V30 826 H 80.4033 -0.43398 -1.78294 0
M  V30 827 H 78.7853 1.32896 -3.73035 0
M  V30 828 H 79.9593 -1.45723 -4.37151 0
M  V30 829 H 78.2743 -1.1658 -3.99748 0
M  V30 830 H 80.8713 1.35515 -5.17242 0
M  V30 831 H 81.2143 2.06575 -3.61431 0
M  V30 832 H 81.7473 0.402032 -3.95763 0
M  V30 833 H 78.4863 -1.30076 -6.42464 0
M  V30 834 H 78.0063 0.355094 -5.98748 0
M  V30 835 H 79.6853 0.00800157 -6.47 0
M  V30 836 N 79.8174 1.5752 -0.0501392 0
M  V30 837 C 81.2284 1.80271 0.485705 0
M  V30 838 C 81.5794 0.96228 1.70981 0
M  V30 839 O 80.7044 0.178578 2.15662 0
M  V30 840 C 81.2994 3.26957 0.887938 0
M  V30 841 C 79.8584 3.5063 1.36877 0
M  V30 842 C 79.0054 2.75165 0.343468 0
M  V30 843 H 81.9564 1.56281 -0.276028 0
M  V30 844 H 81.9774 3.37821 1.75093 0
M  V30 845 H 81.4894 3.881 -0.0031809 0
M  V30 846 H 79.5904 2.94766 2.27911 0
M  V30 847 H 79.7034 4.59343 1.36164 0
M  V30 848 H 78.0674 2.4127 0.816128 0
M  V30 849 H 78.8504 3.39034 -0.539548 0
M  V30 850 N 81.2955 -0.223234 1.56011 0
M  V30 851 C 82.2425 -1.27664 1.92277 0
M  V30 852 C 83.2125 -1.46659 0.779763 0
M  V30 853 O 84.3975 -1.60256 1.03551 0
M  V30 854 C 81.5375 -2.62234 2.24338 0
M  V30 855 C 80.6505 -2.51051 3.51564 0
M  V30 856 C 79.7855 -3.78133 3.7308 0
M  V30 857 C 78.8245 -3.61665 4.93827 0
M  V30 858 N 77.9615 -4.80693 5.11741 0
M  V30 859 H 82.8015 -0.960358 2.82101 0
M  V30 860 H 80.3385 -0.462901 1.39627 0
M  V30 861 H 82.2965 -3.40596 2.40936 0
M  V30 862 H 80.9265 -2.91961 1.3769 0
M  V30 863 H 79.9785 -1.64132 3.43169 0
M  V30 864 H 81.2905 -2.34803 4.40079 0
M  V30 865 H 80.4445 -4.64938 3.89766 0
M  V30 866 H 79.1835 -3.97304 2.82844 0
M  V30 867 H 78.1885 -2.73244 4.77093 0
M  V30 868 H 79.4135 -3.43966 5.85546 0
M  V30 869 H 77.3595 -5.00181 4.24446 0
M  V30 870 H 77.2765 -4.67165 5.94384 0
M  V30 871 H 78.5445 -5.6893 5.3286 0
M  V30 872 N 82.7736 -1.49793 -0.48987 0
M  V30 873 C 83.7036 -1.70201 -1.59856 0
M  V30 874 C 84.6846 -0.55076 -1.60937 0
M  V30 875 O 85.8696 -0.787841 -1.77501 0
M  V30 876 C 82.9996 -1.77882 -2.98287 0
M  V30 877 C 81.9536 -2.92907 -3.12073 0
M  V30 878 C 81.2796 -2.85712 -4.51965 0
M  V30 879 C 82.5796 -4.3369 -2.91051 0
M  V30 880 H 84.2736 -2.63025 -1.43032 0
M  V30 881 H 81.8196 -1.26574 -0.686664 0
M  V30 882 H 83.7726 -1.90744 -3.75759 0
M  V30 883 H 82.4966 -0.816653 -3.16225 0
M  V30 884 H 81.1556 -2.79665 -2.37029 0
M  V30 885 H 80.8036 -1.8738 -4.66795 0
M  V30 886 H 80.5036 -3.62921 -4.62128 0
M  V30 887 H 82.0276 -3.00598 -5.31482 0
M  V30 888 H 83.4416 -4.47555 -3.58284 0
M  V30 889 H 81.8386 -5.12205 -3.12675 0
M  V30 890 H 82.9086 -4.47362 -1.87071 0
M  V30 891 N 84.2517 0.741722 -1.39055 0
M  V30 892 C 85.1617 1.88621 -1.39496 0
M  V30 893 C 86.1777 1.71557 -0.290578 0
M  V30 894 O 87.3537 1.94275 -0.530954 0
M  V30 895 C 84.4187 3.24134 -1.23037 0
M  V30 896 C 83.4797 3.5364 -2.43387 0
M  V30 897 C 82.7127 4.82687 -2.27703 0
M  V30 898 O 82.9357 5.55922 -1.27696 0
M  V30 899 O 81.8697 5.1194 -3.16545 0
M  V30 900 H 85.6957 1.91203 -2.35956 0
M  V30 901 H 83.2807 0.888625 -1.20099 0
M  V30 902 H 85.1627 4.0513 -1.15964 0
M  V30 903 H 83.8377 3.22337 -0.296691 0
M  V30 904 H 82.7447 2.72758 -2.56035 0
M  V30 905 H 84.0777 3.60209 -3.35425 0
M  V30 906 N 85.7298 1.2412 0.971189 0
M  V30 907 C 87.0068 0.986867 1.6888 0
M  V30 908 C 87.3868 -0.491857 2.0529 0
M  V30 909 O 86.7348 -1.46531 1.75331 0
M  V30 910 C 86.9448 1.9063 2.92338 0
M  V30 911 C 88.2928 2.17515 3.64654 0
M  V30 912 O 89.3168 1.88254 3.02388 0
M  V30 913 O 88.1758 2.6719 4.7673 0
M  V30 914 H 85.2698 0.372944 0.738134 0
M  V30 915 H 87.8158 1.35203 1.02559 0
M  V30 916 H 86.5878 2.90552 2.62097 0
M  V30 917 H 86.2108 1.54408 3.66393 0
M  V30 918 N 87.2079 -1.17134 1.05439 0
M  V30 919 C 88.4359 -1.91372 0.786414 0
M  V30 920 C 88.8509 -1.76955 -0.658202 0
M  V30 921 O 88.2079 -1.10838 -1.44987 0
M  V30 922 C 88.2589 -3.42356 1.1608 0
M  V30 923 O 87.9799 -3.56332 2.54871 0
M  V30 924 C 89.4809 -4.33663 0.919322 0
M  V30 925 H 86.7009 -0.607118 0.285743 0
M  V30 926 H 89.2449 -1.48525 1.40572 0
M  V30 927 H 87.3999 -3.82939 0.586191 0
M  V30 928 H 87.8139 -4.49896 2.69618 0
M  V30 929 H 89.2879 -5.38099 1.231 0
M  V30 930 H 89.7649 -4.38959 -0.145359 0
M  V30 931 H 90.3709 -3.98796 1.47789 0
M  V30 932 N 88.686 -0.835752 -1.33615 0
M  V30 933 C 89.935 -0.426289 -1.97144 0
M  V30 934 C 90.248 1.01912 -1.66953 0
M  V30 935 O 91.454 1.53311 -2.24072 0
M  V30 936 C 89.91 -0.711321 -3.52801 0
M  V30 937 C 89.518 -2.1712 -3.91871 0
M  V30 938 C 91.262 -0.368654 -4.22896 0
M  V30 939 C 89.169 -2.40044 -5.40493 0
M  V30 940 H 88.099 -0.15567 -0.737755 0
M  V30 941 H 90.75 -1.0239 -1.52278 0
M  V30 942 H 89.132 -0.0433766 -3.95976 0
M  V30 943 H 90.306 -2.87936 -3.59763 0
M  V30 944 H 88.621 -2.47654 -3.34749 0
M  V30 945 H 91.218 -0.517601 -5.32189 0
M  V30 946 H 91.561 0.688078 -4.10574 0
M  V30 947 H 92.094 -0.991702 -3.8524 0
M  V30 948 H 88.833 -3.44271 -5.57815 0
M  V30 949 H 88.353 -1.73785 -5.74072 0
M  V30 950 H 90.032 -2.23042 -6.0734 0
M  V30 951 N 90.1641 1.46063 -0.591896 0
M  V30 952 C 91.5801 1.57561 -0.254288 0
M  V30 953 C 91.7801 1.58565 1.24336 0
M  V30 954 O 90.8361 1.50753 2.02558 0
M  V30 955 C 92.1491 2.86549 -0.911611 0
M  V30 956 C 93.6971 3.00197 -0.886059 0
M  V30 957 C 94.1721 4.31933 -1.5231 0
M  V30 958 N 95.6631 4.38654 -1.48786 0
M  V30 959 C 96.3981 5.39222 -1.95006 0
M  V30 960 N 95.8941 6.46414 -2.49241 0
M  V30 961 N 97.6871 5.3048 -1.85868 0
M  V30 962 H 89.8381 1.43655 -1.56451 0
M  V30 963 H 92.1011 0.68583 -0.654478 0
M  V30 964 H 91.8071 2.91651 -1.96551 0
M  V30 965 H 91.6811 3.74794 -0.425368 0
M  V30 966 H 94.0681 2.9467 0.159246 0
M  V30 967 H 94.1491 2.13403 -1.41041 0
M  V30 968 H 93.7931 4.38217 -2.56765 0
M  V30 969 H 93.7231 5.17516 -0.973891 0
M  V30 970 H 96.2141 3.61793 -1.09151 0
M  V30 971 H 96.5271 7.19376 -2.82344 0
M  V30 972 H 94.8721 6.47208 -2.53272 0
M  V30 973 H 98.0631 4.45643 -1.43248 0
M  V30 974 H 98.2361 6.08711 -2.22204 0
M  V30 975 N 91.6422 0.330177 1.54103 0
M  V30 976 C 93.0582 -0.0222371 1.59585 0
M  V30 977 C 93.2582 -1.49902 1.34654 0
M  V30 978 O 92.3142 -2.25592 1.13421 0
M  V30 979 C 93.6272 0.401932 2.98002 0
M  V30 980 C 95.1752 0.353145 3.11001 0
M  V30 981 C 95.6502 0.752576 4.51775 0
M  V30 982 N 97.1412 0.706239 4.57784 0
M  V30 983 C 97.8762 0.987417 5.64834 0
M  V30 984 N 97.3722 1.33607 6.79795 0
M  V30 985 N 99.1652 0.91254 5.54643 0
M  V30 986 H 91.3162 1.29228 1.68564 0
M  V30 987 H 93.5792 0.525906 0.78875 0
M  V30 988 H 93.2852 1.4311 3.21267 0
M  V30 989 H 93.1592 -0.229699 3.765 0
M  V30 990 H 95.5462 -0.666822 2.87467 0
M  V30 991 H 95.6272 1.0198 2.34593 0
M  V30 992 H 95.2712 1.77049 4.76042 0
M  V30 993 H 95.2012 0.0635409 5.26562 0
M  V30 994 H 97.6922 0.44889 3.75224 0
M  V30 995 H 98.0052 1.53582 7.57385 0
M  V30 996 H 96.3502 1.37439 6.81275 0
M  V30 997 H 99.5412 0.639601 4.6371 0
M  V30 998 H 99.7142 1.13503 6.37982 0
M  V30 999 N 93.1203 -1.57491 0.0584922 0
M  V30 1000 C 94.3503 -1.9701 -0.622134 0
M  V30 1001 C 94.7583 -0.935034 -1.6448 0
M  V30 1002 O 94.1013 0.0882904 -1.83488 0
M  V30 1003 C 94.1633 -3.32794 -1.35972 0
M  V30 1004 C 93.8273 -4.54343 -0.492043 0
M  V30 1005 C 94.8243 -5.19323 0.244901 0
M  V30 1006 C 92.5093 -5.00534 -0.420821 0
M  V30 1007 C 94.5033 -6.28835 1.04143 0
M  V30 1008 C 92.1903 -6.09921 0.379389 0
M  V30 1009 C 93.1883 -6.73933 1.10919 0
M  V30 1010 O 92.8763 -7.81216 1.89623 0
M  V30 1011 H 92.6083 -0.653127 -0.174359 0
M  V30 1012 H 95.1623 -2.05029 0.123418 0
M  V30 1013 H 93.3923 -3.21351 -2.15105 0
M  V30 1014 H 95.0813 -3.5701 -1.93129 0
M  V30 1015 H 95.8473 -4.8459 0.19939 0
M  V30 1016 H 91.7263 -4.50496 -0.978474 0
M  V30 1017 H 95.2703 -6.7873 1.61157 0
M  V30 1018 H 91.1673 -6.44089 0.426512 0
M  V30 1019 H 91.9353 -7.98029 1.81913 0
M  V30 1020 N 94.5984 0.214957 -1.56127 0
M  V30 1021 C 95.5284 1.2695 -1.95974 0
M  V30 1022 C 96.5094 1.48539 -0.828868 0
M  V30 1023 O 97.6944 1.60611 -1.09168 0
M  V30 1024 C 94.8244 2.61794 -2.28214 0
M  V30 1025 C 93.7784 2.54851 -3.43853 0
M  V30 1026 C 93.1044 3.93785 -3.61715 0
M  V30 1027 C 94.4044 2.09065 -4.78632 0
M  V30 1028 H 96.0984 0.93846 -2.84312 0
M  V30 1029 H 93.6444 0.449996 -1.36788 0
M  V30 1030 H 95.5974 3.35731 -2.54682 0
M  V30 1031 H 94.3214 2.96599 -1.36736 0
M  V30 1032 H 92.9804 1.8337 -3.17444 0
M  V30 1033 H 92.6284 4.25908 -2.67602 0
M  V30 1034 H 92.3284 3.90019 -4.39498 0
M  V30 1035 H 93.8524 4.69374 -3.90539 0
M  V30 1036 H 95.2664 2.7275 -5.04262 0
M  V30 1037 H 93.6634 2.16346 -5.59745 0
M  V30 1038 H 94.7334 1.04315 -4.73547 0
M  V30 1039 N 96.0765 1.50051 0.48192 0
M  V30 1040 C 97.3015 1.64508 1.26301 0
M  V30 1041 C 97.7265 0.323851 1.85291 0
M  V30 1042 O 97.0845 -0.710969 1.66778 0
M  V30 1043 C 97.1325 2.7305 2.35533 0
M  V30 1044 O 96.2365 2.3355 3.39895 0
M  V30 1045 H 95.5775 0.549978 0.372048 0
M  V30 1046 H 98.1075 1.9636 0.574786 0
M  V30 1047 H 98.1175 2.95799 2.8101 0
M  V30 1048 H 96.7925 3.68946 1.91967 0
M  V30 1049 H 95.3695 2.21205 3.00204 0
M  V30 1050 N 97.5546 -0.734337 1.39446 0
M  V30 1051 C 98.5176 -1.83004 1.37994 0
M  V30 1052 C 99.5176 -1.58397 0.276938 0
M  V30 1053 O 100.708 -1.65785 0.534875 0
M  V30 1054 C 97.8396 -3.20802 1.1532 0
M  V30 1055 H 99.0326 -1.85694 2.35494 0
M  V30 1056 H 96.5856 -0.938059 1.25021 0
M  V30 1057 H 97.3206 -3.23772 0.185036 0
M  V30 1058 H 97.1056 -3.4006 1.95197 0
M  V30 1059 H 98.5956 -4.00862 1.17046 0
M  V30 1060 N 99.0327 -1.24633 -0.964593 0
M  V30 1061 C 99.9647 -0.999302 -2.06268 0
M  V30 1062 C 100.978 0.0323226 -1.62768 0
M  V30 1063 O 102.167 -0.205079 -1.77318 0
M  V30 1064 C 99.2667 -0.486816 -3.35385 0
M  V30 1065 C 98.4397 -1.5823 -4.07777 0
M  V30 1066 C 97.4987 -1.07191 -5.15166 0
M  V30 1067 O 96.5247 -1.76426 -5.41168 0
M  V30 1068 N 97.7267 0.0920373 -5.80427 0
M  V30 1069 H 100.492 -1.94477 -2.28033 0
M  V30 1070 H 98.0527 -1.15704 -1.13244 0
M  V30 1071 H 100.045 -0.130066 -4.04491 0
M  V30 1072 H 98.6147 0.364459 -3.10468 0
M  V30 1073 H 97.8347 -2.11109 -3.32906 0
M  V30 1074 H 99.1227 -2.31854 -4.52903 0
M  V30 1075 H 98.5207 0.670784 -5.61709 0
M  V30 1076 H 97.0777 0.389905 -6.50633 0
M  V30 1077 N 100.511 1.16574 -1.06058 0
M  V30 1078 C 101.458 2.20883 -0.669263 0
M  V30 1079 C 102.428 1.62729 0.332918 0
M  V30 1080 O 103.613 1.895 0.222346 0
M  V30 1081 C 100.753 3.45049 -0.0593572 0
M  V30 1082 C 99.8658 4.17458 -1.11143 0
M  V30 1083 C 99.0008 5.29135 -0.467916 0
M  V30 1084 C 98.0398 5.93343 -1.50369 0
M  V30 1085 N 97.1768 6.96516 -0.883706 0
M  V30 1086 H 102.017 2.53709 -1.5632 0
M  V30 1087 H 99.5538 1.24616 -0.781625 0
M  V30 1088 H 101.512 4.16033 0.311771 0
M  V30 1089 H 100.142 3.12781 0.797992 0
M  V30 1090 H 99.1938 3.45101 -1.60029 0
M  V30 1091 H 100.506 4.61307 -1.89731 0
M  V30 1092 H 99.6598 6.06684 -0.0436871 0
M  V30 1093 H 98.3988 4.86443 0.349864 0
M  V30 1094 H 97.4038 5.14517 -1.93784 0
M  V30 1095 H 98.6288 6.38114 -2.32352 0
M  V30 1096 H 96.5748 6.55943 -0.086595 0
M  V30 1097 H 96.4918 7.38723 -1.607 0
M  V30 1098 H 97.7598 7.77993 -0.484543 0
M  V30 1099 N 101.989 0.842826 1.3317 0
M  V30 1100 C 103.4 0.496651 1.79973 0
M  V30 1101 C 103.751 -0.984641 1.69703 0
M  V30 1102 O 102.876 -1.76743 1.24863 0
M  V30 1103 C 103.471 0.894727 3.26772 0
M  V30 1104 C 102.03 0.600629 3.71577 0
M  V30 1105 C 101.177 1.10091 2.5451 0
M  V30 1106 H 104.128 1.03116 1.20635 0
M  V30 1107 H 104.149 0.206347 3.7994 0
M  V30 1108 H 103.661 1.97287 3.34215 0
M  V30 1109 H 101.762 -0.467284 3.69658 0
M  V30 1110 H 101.875 1.15863 4.64879 0
M  V30 1111 H 100.239 0.52162 2.49301 0
M  V30 1112 H 101.022 2.18591 2.64713 0
M  V30 1113 N 103.467 -1.45747 0.599634 0
M  V30 1114 C 104.397 -2.33235 -0.111306 0
M  V30 1115 C 105.378 -1.46359 -0.866781 0
M  V30 1116 O 106.563 -1.75146 -0.838904 0
M  V30 1117 C 103.693 -3.28932 -1.11451 0
M  V30 1118 C 102.647 -4.25381 -0.472772 0
M  V30 1119 C 101.973 -5.1071 -1.58365 0
M  V30 1120 C 103.273 -5.18831 0.600948 0
M  V30 1121 H 104.967 -2.92927 0.61919 0
M  V30 1122 H 102.513 -1.40857 0.299215 0
M  V30 1123 H 104.466 -3.89002 -1.62036 0
M  V30 1124 H 103.19 -2.67381 -1.8755 0
M  V30 1125 H 101.849 -3.66598 0.0121472 0
M  V30 1126 H 101.497 -4.45533 -2.33473 0
M  V30 1127 H 101.197 -5.7604 -1.15982 0
M  V30 1128 H 102.721 -5.73647 -2.09194 0
M  V30 1129 H 104.135 -5.73019 0.179491 0
M  V30 1130 H 102.532 -5.92595 0.946076 0
M  V30 1131 H 103.602 -4.6174 1.48068 0
M  V30 1132 N 104.945 -0.338344 -1.53925 0
M  V30 1133 C 105.875 0.51328 -2.27789 0
M  V30 1134 C 106.856 1.107 -1.29149 0
M  V30 1135 O 108.041 1.12937 -1.57984 0
M  V30 1136 C 105.171 1.66697 -3.04679 0
M  V30 1137 C 104.125 1.20183 -4.1078 0
M  V30 1138 C 103.451 2.44363 -4.75595 0
M  V30 1139 C 104.751 0.30605 -5.21403 0
M  V30 1140 H 106.445 -0.102883 -2.99223 0
M  V30 1141 H 103.991 -0.0509219 -1.4391 0
M  V30 1142 H 105.944 2.26915 -3.55088 0
M  V30 1143 H 104.668 2.30995 -2.30887 0
M  V30 1144 H 103.327 0.622499 -3.61276 0
M  V30 1145 H 102.975 3.07057 -3.98403 0
M  V30 1146 H 102.675 2.13925 -5.47275 0
M  V30 1147 H 104.199 3.05317 -5.28786 0
M  V30 1148 H 105.613 0.814929 -5.67478 0
M  V30 1149 H 104.01 0.0937929 -6.00027 0
M  V30 1150 H 105.08 -0.65921 -4.80398 0
M  V30 1151 N 106.423 1.57458 -0.0668435 0
M  V30 1152 C 107.371 2.13639 0.919851 0
M  V30 1153 C 108.365 1.07204 1.31163 0
M  V30 1154 O 109.571 1.25591 1.28945 0
M  V30 1155 H 105.946 0.683048 0.314562 0
M  V30 1156 H 107.917 2.95415 0.421047 0
M  V30 1157 C 106.666 2.70892 2.17975 0
M  V30 1158 H 105.989 3.5246 1.88711 0
M  V30 1159 H 107.429 3.13803 2.85138 0
M  V30 1160 C 105.888 1.65414 2.93496 0
M  V30 1161 O 106.418 1.07619 3.87015 0
M  V30 1162 N 104.624 1.36564 2.56512 0
M  V30 1163 H 104.171 1.83751 1.80536 0
M  V30 1164 H 104.129 0.66223 3.07347 0
M  V30 1165 N 107.901 -0.206675 1.56239 0
M  V30 1166 C 109.178 -0.954051 1.70755 0
M  V30 1167 C 109.558 -2.01841 0.618353 0
M  V30 1168 O 108.906 -2.25444 -0.372434 0
M  V30 1169 C 109.116 -1.551 3.12642 0
M  V30 1170 C 110.464 -2.03757 3.72516 0
M  V30 1171 O 111.488 -1.64965 3.15698 0
M  V30 1172 O 110.347 -2.75103 4.72208 0
M  V30 1173 H 107.441 -0.446636 0.696021 0
M  V30 1174 H 109.987 -0.197283 1.68549 0
M  V30 1175 H 108.759 -0.783212 3.83382 0
M  V30 1176 H 108.382 -2.37291 3.19028 0
M  V30 1177 N 109.379 -1.50304 -0.473955 0
M  V30 1178 C 110.627 -1.60832 -1.22382 0
M  V30 1179 C 110.948 -0.30939 -1.9253 0
M  V30 1180 O 110.218 0.67296 -1.83978 0
M  V30 1181 H 108.798 -0.592652 -0.454723 0
M  V30 1182 H 111.46 -1.87068 -0.546968 0
M  V30 1183 H 110.556 -2.41803 -1.97327 0
M  V30 1184 N 110.857 0.726932 -1.39834 0
M  V30 1185 C 111.789 1.85147 -1.35104 0
M  V30 1186 C 112.802 1.60736 -0.258392 0
M  V30 1187 O 113.991 1.70821 -0.517931 0
M  V30 1188 C 111.091 3.21332 -1.07697 0
M  V30 1189 C 110.264 3.73033 -2.28396 0
M  V30 1190 C 109.323 4.87802 -1.97322 0
M  V30 1191 O 108.349 5.01043 -2.70083 0
M  V30 1192 N 109.551 5.72768 -0.944273 0
M  V30 1193 H 112.316 1.89706 -2.32017 0
M  V30 1194 H 109.877 0.908006 -1.3404 0
M  V30 1195 H 111.869 3.95691 -0.849144 0
M  V30 1196 H 110.439 3.11992 -0.194909 0
M  V30 1197 H 109.659 2.89934 -2.6708 0
M  V30 1198 H 110.947 4.0431 -3.08887 0
M  V30 1199 H 110.345 5.64669 -0.341427 0
M  V30 1200 H 108.902 6.4716 -0.776346 0
M  V30 1201 N 112.336 1.25143 0.95797 0
M  V30 1202 C 113.583 1.09692 1.70217 0
M  V30 1203 C 113.911 -0.362654 1.91089 0
M  V30 1204 O 113.166 -1.28386 1.47701 0
M  V30 1205 C 113.465 1.79272 3.09187 0
M  V30 1206 C 113.131 3.29196 3.08125 0
M  V30 1207 C 111.793 3.70096 3.07543 0
M  V30 1208 C 114.145 4.24995 3.0171 0
M  V30 1209 C 111.473 5.05213 2.9829 0
M  V30 1210 C 113.825 5.60132 2.93999 0
M  V30 1211 C 112.489 6.00365 2.9175 0
M  V30 1212 H 111.759 0.401393 0.622868 0
M  V30 1213 H 114.406 1.55372 1.11945 0
M  V30 1214 H 112.711 1.26014 3.70982 0
M  V30 1215 H 114.408 1.64773 3.65583 0
M  V30 1216 H 110.998 2.96651 3.09348 0
M  V30 1217 H 115.182 3.9439 3.01281 0
M  V30 1218 H 110.438 5.35569 2.94916 0
M  V30 1219 H 114.612 6.3406 2.87996 0
M  V30 1220 H 112.239 7.05023 2.84336 0
M  V30 1221 N 113.814 -1.1601 1.06675 0
M  V30 1222 C 115.23 -1.38622 0.790948 0
M  V30 1223 C 115.43 -1.92109 -0.607965 0
M  V30 1224 O 114.486 -2.12239 -1.36787 0
M  V30 1225 C 115.799 -2.36347 1.85905 0
M  V30 1226 C 117.347 -2.50023 1.88301 0
M  V30 1227 C 117.822 -3.51033 2.94176 0
M  V30 1228 N 119.313 -3.58563 2.93235 0
M  V30 1229 C 120.048 -4.36521 3.71803 0
M  V30 1230 N 119.544 -5.17869 4.602 0
M  V30 1231 N 121.337 -4.31541 3.60178 0
M  V30 1232 H 113.488 -0.796294 1.96908 0
M  V30 1233 H 115.751 -0.412597 0.853503 0
M  V30 1234 H 115.457 -2.04147 2.86386 0
M  V30 1235 H 115.331 -3.36042 1.71334 0
M  V30 1236 H 117.718 -2.81524 0.884769 0
M  V30 1237 H 117.799 -1.5035 2.06951 0
M  V30 1238 H 117.443 -3.20268 3.94196 0
M  V30 1239 H 117.373 -4.50445 2.72776 0
M  V30 1240 H 119.864 -3.00496 2.29152 0
M  V30 1241 H 120.177 -5.74578 5.16797 0
M  V30 1242 H 118.522 -5.17199 4.64253 0
M  V30 1243 H 121.713 -3.67051 2.90502 0
M  V30 1244 H 121.886 -4.9205 4.21653 0
M  V30 1245 N 115.292 -0.849877 -1.32721 0
M  V30 1246 C 116.239 -0.289033 -2.28983 0
M  V30 1247 C 117.209 0.601324 -1.54833 0
M  V30 1248 O 118.394 0.537253 -1.8308 0
M  V30 1249 C 115.534 0.520623 -3.4115 0
M  V30 1250 C 114.647 -0.394989 -4.3019 0
M  V30 1251 C 113.782 0.426834 -5.29482 0
M  V30 1252 C 112.821 -0.486476 -6.10164 0
M  V30 1253 N 111.958 0.297879 -7.01468 0
M  V30 1254 H 116.798 -1.11519 -2.76347 0
M  V30 1255 H 114.335 -0.56138 -1.35967 0
M  V30 1256 H 116.293 1.00563 -4.04899 0
M  V30 1257 H 114.923 1.31165 -2.9495 0
M  V30 1258 H 113.975 -0.99836 -3.67065 0
M  V30 1259 H 115.287 -1.09612 -4.86607 0
M  V30 1260 H 114.441 0.975205 -5.98811 0
M  V30 1261 H 113.18 1.16136 -4.73671 0
M  V30 1262 H 112.185 -1.04677 -5.39743 0
M  V30 1263 H 113.41 -1.21953 -6.6806 0
M  V30 1264 H 111.356 1.01558 -6.48091 0
M  V30 1265 H 111.273 -0.344318 -7.55216 0
M  V30 1266 H 112.541 0.828131 -7.75089 0
M  V30 1267 N 116.77 1.45427 -0.607355 0
M  V30 1268 C 117.998 2.06614 -0.108814 0
M  V30 1269 C 118.413 1.45204 1.2067 0
M  V30 1270 O 117.77 0.566132 1.73497 0
M  V30 1271 C 117.821 3.61481 0.0375347 0
M  V30 1272 O 117.542 4.20598 -1.22593 0
M  V30 1273 C 119.043 4.39652 0.567561 0
M  V30 1274 H 116.263 0.66747 -0.0687351 0
M  V30 1275 H 118.807 1.86675 -0.835022 0
M  V30 1276 H 116.962 3.80762 0.714068 0
M  V30 1277 H 117.376 5.1377 -1.05547 0
M  V30 1278 H 118.85 5.48518 0.61905 0
M  V30 1279 H 119.327 4.09417 1.58978 0
M  V30 1280 H 119.933 4.25234 -0.0749202 0
M  V30 1281 N 118.248 0.346503 1.53744 0
M  V30 1282 C 119.158 -0.517293 2.28826 0
M  V30 1283 C 120.174 -1.10935 1.3405 0
M  V30 1284 O 121.35 -1.1244 1.6709 0
M  V30 1285 C 118.415 -1.65098 3.04866 0
M  V30 1286 C 117.476 -1.0884 4.15274 0
M  V30 1287 C 116.709 -2.16806 4.87679 0
M  V30 1288 O 116.932 -3.3758 4.59778 0
M  V30 1289 O 115.866 -1.80934 5.74061 0
M  V30 1290 H 119.692 0.0931396 3.03557 0
M  V30 1291 H 117.277 0.111458 1.48984 0
M  V30 1292 H 119.159 -2.31053 3.5241 0
M  V30 1293 H 117.834 -2.24717 2.32989 0
M  V30 1294 H 116.741 -0.3933 3.72027 0
M  V30 1295 H 118.074 -0.537036 4.89261 0
M  V30 1296 N 119.726 -1.57421 0.075193 0
M  V30 1297 C 120.658 -2.09904 -0.920483 0
M  V30 1298 C 121.671 -1.03191 -1.25918 0
M  V30 1299 O 122.86 -1.30695 -1.21577 0
M  V30 1300 C 119.96 -2.54726 -2.23534 0
M  V30 1301 C 119.133 -3.8505 -2.07498 0
M  V30 1302 C 118.192 -4.15929 -3.22319 0
M  V30 1303 O 117.218 -4.85474 -2.9716 0
M  V30 1304 N 118.42 -3.69745 -4.47514 0
M  V30 1305 H 121.185 -2.95954 -0.472359 0
M  V30 1306 H 118.746 -1.61523 -0.110444 0
M  V30 1307 H 120.738 -2.72443 -2.9926 0
M  V30 1308 H 119.308 -1.73795 -2.59835 0
M  V30 1309 H 118.528 -3.76679 -1.16219 0
M  V30 1310 H 119.816 -4.70348 -1.94038 0
M  V30 1311 H 119.214 -3.13569 -4.7084 0
M  V30 1312 H 117.771 -3.92655 -5.20255 0
M  V30 1313 N 121.204 0.198386 -1.56346 0
M  V30 1314 C 122.451 0.919286 -1.80431 0
M  V30 1315 C 122.779 1.83393 -0.647866 0
M  V30 1316 O 122.034 1.92236 0.366556 0
M  V30 1317 C 122.333 1.77031 -3.10475 0
M  V30 1318 C 121.999 1.00693 -4.39513 0
M  V30 1319 C 120.661 0.796145 -4.74568 0
M  V30 1320 C 123.013 0.469559 -5.19081 0
M  V30 1321 C 120.341 0.0364588 -5.86689 0
M  V30 1322 C 122.693 -0.2769 -6.31994 0
M  V30 1323 C 121.357 -0.49873 -6.65634 0
M  V30 1324 H 120.627 0.336391 -0.660244 0
M  V30 1325 H 123.274 0.185872 -1.90596 0
M  V30 1326 H 121.579 2.5723 -2.95533 0
M  V30 1327 H 123.276 2.33065 -3.26315 0
M  V30 1328 H 119.866 1.18122 -4.12001 0
M  V30 1329 H 124.05 0.619816 -4.92414 0
M  V30 1330 H 119.306 -0.145412 -6.11227 0
M  V30 1331 H 123.48 -0.700684 -6.92866 0
M  V30 1332 H 121.107 -1.0893 -7.52355 0
M  V30 1333 N 122.682 1.50554 0.465978 0
M  V30 1334 C 123.922 1.63439 1.22747 0
M  V30 1335 C 124.286 0.329822 1.89146 0
M  V30 1336 O 125.487 0.334161 2.66715 0
M  V30 1337 C 123.758 2.78542 2.2394 0
M  V30 1338 S 125.317 3.11591 3.0896 0
M  V30 1339 H 122.135 0.576113 0.416672 0
M  V30 1340 H 124.737 1.88357 0.523641 0
M  V30 1341 H 123.441 3.71805 1.7375 0
M  V30 1342 H 122.972 2.55726 2.98944 0
M  V30 1343 H 124.987 2.55811 4.25176 0
M  V30 1344 N 124.16 -0.719506 1.40217 0
M  V30 1345 C 125.107 -1.83359 1.40172 0
M  V30 1346 C 126.077 -1.64065 0.259206 0
M  V30 1347 O 127.262 -1.85254 0.456677 0
M  V30 1348 C 124.402 -3.2103 1.26624 0
M  V30 1349 C 123.515 -3.51923 2.50548 0
M  V30 1350 C 122.65 -4.79079 2.29471 0
M  V30 1351 C 121.689 -5.02863 3.48992 0
M  V30 1352 N 120.826 -6.2123 3.27135 0
M  V30 1353 H 125.666 -1.82733 2.35399 0
M  V30 1354 H 123.203 -0.892688 1.16917 0
M  V30 1355 H 125.161 -4.00524 1.16776 0
M  V30 1356 H 123.791 -3.20895 0.350176 0
M  V30 1357 H 122.843 -2.67014 2.70939 0
M  V30 1358 H 124.155 -3.6541 3.39525 0
M  V30 1359 H 123.309 -5.66582 2.16955 0
M  V30 1360 H 122.048 -4.67794 1.37913 0
M  V30 1361 H 121.053 -4.13816 3.6199 0
M  V30 1362 H 122.278 -5.16023 4.41472 0
M  V30 1363 H 120.224 -6.11204 2.38256 0
M  V30 1364 H 120.141 -6.35375 4.09675 0
M  V30 1365 H 121.409 -7.11532 3.18344 0
M  V30 1366 N 125.638 -1.25649 -0.95132 0
M  V30 1367 C 126.863 -1.13443 -1.73624 0
M  V30 1368 C 127.288 0.307565 -1.85568 0
M  V30 1369 O 126.646 1.22282 -1.33854 0
M  V30 1370 C 126.694 -1.79723 -3.12621 0
M  V30 1371 O 125.798 -1.07912 -3.98031 0
M  V30 1372 H 125.139 -0.395872 -0.533086 0
M  V30 1373 H 127.669 -1.66276 -1.1922 0
M  V30 1374 H 127.679 -1.86141 -3.63064 0
M  V30 1375 H 126.354 -2.84633 -3.03244 0
M  V30 1376 H 124.931 -1.09398 -3.56492 0
M  V30 1377 N 127.117 1.15442 -1.07289 0
M  V30 1378 C 128.364 1.86213 -0.795668 0
M  V30 1379 C 128.692 1.82291 0.678238 0
M  V30 1380 O 127.947 1.24057 1.51355 0
M  V30 1381 C 128.246 3.3489 -1.24834 0
M  V30 1382 C 127.912 3.59007 -2.72809 0
M  V30 1383 C 126.574 3.65298 -3.13227 0
M  V30 1384 C 128.926 3.68762 -3.68326 0
M  V30 1385 C 126.254 3.78854 -4.4798 0
M  V30 1386 C 128.606 3.83842 -5.0284 0
M  V30 1387 C 127.27 3.88378 -5.4288 0
M  V30 1388 H 126.54 0.681403 -0.291155 0
M  V30 1389 H 129.187 1.36435 -1.34379 0
M  V30 1390 H 127.492 3.8687 -0.619595 0
M  V30 1391 H 129.189 3.88052 -1.01076 0
M  V30 1392 H 125.779 3.5475 -2.40521 0
M  V30 1393 H 129.963 3.63202 -3.38227 0
M  V30 1394 H 125.219 3.80623 -4.78472 0
M  V30 1395 H 129.393 3.90332 -5.76727 0
M  V30 1396 H 127.02 3.98635 -6.47298 0
M  V30 1397 N 128.595 0.856903 1.32268 0
M  V30 1398 C 129.505 0.306131 2.32594 0
M  V30 1399 C 130.521 -0.577209 1.64147 0
M  V30 1400 O 131.697 -0.477043 1.95669 0
M  V30 1401 C 128.762 -0.494561 3.43154 0
M  V30 1402 C 127.823 0.415186 4.27288 0
M  V30 1403 C 127.056 -0.347387 5.32568 0
M  V30 1404 O 127.279 -1.57708 5.48165 0
M  V30 1405 O 126.213 0.287982 6.01211 0
M  V30 1406 H 130.039 1.13737 2.81598 0
M  V30 1407 H 127.624 0.619902 1.35932 0
M  V30 1408 H 129.506 -0.948944 4.10576 0
M  V30 1409 H 128.181 -1.30257 2.96336 0
M  V30 1410 H 127.088 0.917793 3.62667 0
M  V30 1411 H 128.421 1.18844 4.77637 0
M  V30 1412 N 130.073 -1.45103 0.615059 0
M  V30 1413 C 131.021 -2.32331 -0.111791 0
M  V30 1414 C 132.015 -1.46409 -0.852102 0
M  V30 1415 O 133.221 -1.62849 -0.766821 0
M  V30 1416 H 129.596 -0.749993 -0.0549072 0
M  V30 1417 H 131.567 -2.91407 0.642225 0
M  V30 1418 C 130.316 -3.3015 -1.09071 0
M  V30 1419 H 129.639 -3.96265 -0.530485 0
M  V30 1420 H 131.079 -3.93898 -1.56908 0
M  V30 1421 C 129.538 -2.57875 -2.168 0
M  V30 1422 O 130.068 -2.36567 -3.24652 0
M  V30 1423 N 128.274 -2.17884 -1.92289 0
M  V30 1424 H 127.821 -2.35413 -1.04587 0
M  V30 1425 H 127.779 -1.6985 -2.64572 0
M  V30 1426 N 131.551 -0.354651 -1.53558 0
M  V30 1427 C 132.799 0.237972 -2.00694 0
M  V30 1428 C 133.12 1.50173 -1.24391 0
M  V30 1429 O 132.39 1.92673 -0.354135 0
M  V30 1430 H 130.97 0.0909256 -0.741446 0
M  V30 1431 H 133.632 -0.478368 -1.88938 0
M  V30 1432 H 132.728 0.47264 -3.085 0
M  V30 1433 N 133.029 1.57378 -0.0835403 0
M  V30 1434 C 134.278 1.93106 0.582498 0
M  V30 1435 C 134.591 0.96651 1.70053 0
M  V30 1436 O 135.797 1.21705 2.42693 0
M  V30 1437 C 134.253 3.43076 1.08751 0
M  V30 1438 C 133.861 4.48 -0.000146404 0
M  V30 1439 C 135.605 3.87785 1.72694 0
M  V30 1440 C 133.512 5.89113 0.519568 0
M  V30 1441 H 132.442 0.720775 0.221358 0
M  V30 1442 H 135.093 1.82821 -0.157675 0
M  V30 1443 H 133.475 3.48474 1.88101 0
M  V30 1444 H 134.649 4.54233 -0.775199 0
M  V30 1445 H 132.964 4.1283 -0.54406 0
M  V30 1446 H 135.561 4.90604 2.1263 0
M  V30 1447 H 135.904 3.25796 2.59158 0
M  V30 1448 H 136.437 3.8504 0.999457 0
M  V30 1449 H 133.176 6.54775 -0.308186 0
M  V30 1450 H 132.696 5.86376 1.26188 0
M  V30 1451 H 134.375 6.39346 0.992237 0
M  V30 1452 N 134.507 -0.190092 1.56449 0
M  V30 1453 C 135.755 -0.907908 1.80559 0
M  V30 1454 C 136.076 -1.83583 0.657438 0
M  V30 1455 O 135.346 -1.93203 -0.323924 0
M  V30 1456 H 133.926 -0.338247 0.666032 0
M  V30 1457 H 136.588 -0.194403 1.93928 0
M  V30 1458 H 135.684 -1.49604 2.73907 0
M  V30 1459 N 135.985 -1.50799 -0.457987 0
M  V30 1460 C 136.932 -1.70617 -1.5543 0
M  V30 1461 C 137.902 -0.547562 -1.56815 0
M  V30 1462 O 139.087 -0.779647 -1.74144 0
M  V30 1463 C 136.227 -1.81831 -2.93311 0
M  V30 1464 C 135.34 -3.09278 -3.01615 0
M  V30 1465 C 134.475 -3.11209 -4.30491 0
M  V30 1466 C 133.514 -4.33055 -4.32585 0
M  V30 1467 N 132.651 -4.32652 -5.52952 0
M  V30 1468 H 137.491 -2.64207 -1.37836 0
M  V30 1469 H 135.028 -1.30959 -0.669937 0
M  V30 1470 H 136.986 -1.86314 -3.73287 0
M  V30 1471 H 135.616 -0.916685 -3.0951 0
M  V30 1472 H 134.668 -3.14203 -2.1443 0
M  V30 1473 H 135.98 -3.99233 -2.99022 0
M  V30 1474 H 135.134 -3.14494 -5.18824 0
M  V30 1475 H 133.873 -2.19106 -4.35711 0
M  V30 1476 H 132.878 -4.29969 -3.42647 0
M  V30 1477 H 134.103 -5.264 -4.29046 0
M  V30 1478 H 132.049 -3.43409 -5.58933 0
M  V30 1479 H 131.966 -5.16392 -5.52155 0
M  V30 1480 H 133.234 -4.40101 -6.43375 0
M  V30 1481 N 137.463 0.71206 -1.40597 0
M  V30 1482 C 138.373 1.8562 -1.43466 0
M  V30 1483 C 139.389 1.70902 -0.326902 0
M  V30 1484 O 140.565 1.93105 -0.572043 0
M  V30 1485 C 137.63 3.21451 -1.29884 0
M  V30 1486 C 136.691 3.48398 -2.50833 0
M  V30 1487 C 135.924 4.77749 -2.3789 0
M  V30 1488 O 136.147 5.53089 -1.39459 0
M  V30 1489 O 135.081 5.05111 -3.27333 0
M  V30 1490 H 138.907 1.86155 -2.39958 0
M  V30 1491 H 136.492 0.86295 -1.21957 0
M  V30 1492 H 138.374 4.02579 -1.24531 0
M  V30 1493 H 137.049 3.21636 -0.364997 0
M  V30 1494 H 135.956 2.67265 -2.61763 0
M  V30 1495 H 137.289 3.53014 -3.4299 0
M  V30 1496 N 138.941 1.26152 0.944643 0
M  V30 1497 C 139.871 1.09902 2.06019 0
M  V30 1498 C 140.852 0.00519538 1.70099 0
M  V30 1499 O 142.037 0.176583 1.93396 0
M  V30 1500 C 139.167 0.727562 3.39594 0
M  V30 1501 C 138.121 1.77274 3.89561 0
M  V30 1502 C 137.447 1.25569 5.19747 0
M  V30 1503 C 138.747 3.17357 4.14827 0
M  V30 1504 H 140.441 2.03217 2.19871 0
M  V30 1505 H 137.987 0.978452 1.05652 0
M  V30 1506 H 139.94 0.600777 4.17095 0
M  V30 1507 H 138.664 -0.241287 3.25707 0
M  V30 1508 H 137.323 1.88814 3.14237 0
M  V30 1509 H 136.971 0.276783 5.02238 0
M  V30 1510 H 136.671 1.95433 5.54148 0
M  V30 1511 H 138.195 1.1415 5.99835 0
M  V30 1512 H 139.609 3.08914 4.82954 0
M  V30 1513 H 138.006 3.84781 4.60504 0
M  V30 1514 H 139.076 3.63673 3.20734 0
M  V30 1515 N 140.419 -1.14872 1.07899 0
M  V30 1516 C 141.369 -2.17809 0.674027 0
M  V30 1517 C 142.353 -1.58008 -0.303699 0
M  V30 1518 O 143.545 -1.76616 -0.11654 0
M  V30 1519 C 140.674 -3.43208 0.0793318 0
M  V30 1520 C 139.76 -4.10051 1.08253 0
M  V30 1521 N 140.151 -4.52296 2.2641 0
M  V30 1522 C 138.449 -4.36469 0.917124 0
M  V30 1523 C 139.15 -5.04199 2.901 0
M  V30 1524 N 138.126 -4.98088 2.17736 0
M  V30 1525 H 141.928 -2.48207 1.57386 0
M  V30 1526 H 139.442 -1.315 0.952976 0
M  V30 1527 H 141.439 -4.16272 -0.228719 0
M  V30 1528 H 140.099 -3.14291 -0.815551 0
M  V30 1529 H 141.11 -4.45504 2.64096 0
M  V30 1530 H 137.787 -4.17432 0.0756078 0
M  V30 1531 H 139.177 -5.46802 3.90458 0
M  V30 1532 N 141.898 -0.863906 -1.31812 0
M  V30 1533 C 142.808 -0.318461 -2.32428 0
M  V30 1534 C 143.824 0.568496 -1.64451 0
M  V30 1535 O 145 0.46666 -1.95919 0
M  V30 1536 C 142.065 0.476355 -3.43412 0
M  V30 1537 C 141.126 -0.43784 -4.27061 0
M  V30 1538 C 140.359 0.319138 -5.32745 0
M  V30 1539 O 140.582 1.54799 -5.48993 0
M  V30 1540 O 139.516 -0.319861 -6.01049 0
M  V30 1541 H 143.342 -1.15229 -2.80991 0
M  V30 1542 H 140.927 -0.627103 -1.35602 0
M  V30 1543 H 142.809 0.927156 -4.11074 0
M  V30 1544 H 141.484 1.28683 -2.97022 0
M  V30 1545 H 140.391 -0.937013 -3.62175 0
M  V30 1546 H 141.724 -1.21375 -4.77 0
M  V30 1547 N 143.376 1.44774 -0.622745 0
M  V30 1548 C 144.308 2.28856 0.125485 0
M  V30 1549 C 145.321 1.40811 0.817069 0
M  V30 1550 O 146.51 1.65044 0.679918 0
M  V30 1551 C 143.61 3.16963 1.19949 0
M  V30 1552 C 142.783 4.33374 0.592064 0
M  V30 1553 C 141.842 5.02577 1.55893 0
M  V30 1554 O 140.868 5.58873 1.07933 0
M  V30 1555 N 142.07 5.03256 2.89334 0
M  V30 1556 H 144.835 2.93713 -0.596068 0
M  V30 1557 H 142.396 1.55129 -0.463303 0
M  V30 1558 H 144.388 3.60123 1.84644 0
M  V30 1559 H 142.958 2.53913 1.82337 0
M  V30 1560 H 142.178 3.93509 -0.233322 0
M  V30 1561 H 143.466 5.08527 0.166738 0
M  V30 1562 H 142.864 4.58836 3.30887 0
M  V30 1563 H 141.421 5.50232 3.49412 0
M  V30 1564 N 144.854 0.36279 1.53368 0
M  V30 1565 C 145.784 -0.476976 2.28576 0
M  V30 1566 C 146.765 -1.08631 1.30894 0
M  V30 1567 O 147.95 -1.10409 1.59761 0
M  V30 1568 C 145.08 -1.61828 3.07293 0
M  V30 1569 C 144.034 -1.13633 4.1264 0
M  V30 1570 C 143.36 -2.36766 4.79423 0
M  V30 1571 C 144.66 -0.223061 5.21823 0
M  V30 1572 H 146.354 0.150474 2.99022 0
M  V30 1573 H 143.9 0.0738103 1.43811 0
M  V30 1574 H 145.853 -2.21237 3.58653 0
M  V30 1575 H 144.577 -2.27292 2.34533 0
M  V30 1576 H 143.236 -0.564945 3.62221 0
M  V30 1577 H 142.884 -3.0068 4.03238 0
M  V30 1578 H 142.584 -2.05192 5.50609 0
M  V30 1579 H 144.108 -2.96865 5.33576 0
M  V30 1580 H 145.522 -0.724545 5.68703 0
M  V30 1581 H 143.919 0.001678 6.001 0
M  V30 1582 H 144.989 0.735553 4.79289 0
M  V30 1583 N 146.332 -1.57332 0.0918853 0
M  V30 1584 C 147.578 -1.94524 -0.573425 0
M  V30 1585 C 147.911 -0.973578 -1.68033 0
M  V30 1586 O 147.186 -0.00609226 -1.94499 0
M  V30 1587 C 147.469 -3.41858 -1.13161 0
M  V30 1588 C 147.322 -4.4979 -0.0299747 0
M  V30 1589 C 148.641 -3.90435 -2.03098 0
M  V30 1590 H 145.76 -0.70734 -0.206975 0
M  V30 1591 H 148.402 -1.89309 0.161942 0
M  V30 1592 H 146.552 -3.46433 -1.7583 0
M  V30 1593 H 148.224 -4.57327 0.604112 0
M  V30 1594 H 146.467 -4.291 0.636833 0
M  V30 1595 H 147.138 -5.50069 -0.461287 0
M  V30 1596 H 149.614 -3.87992 -1.50338 0
M  V30 1597 H 148.49 -4.94097 -2.39081 0
M  V30 1598 H 148.751 -3.29541 -2.94712 0
M  V30 1599 N 147.81 0.181792 -1.56548 0
M  V30 1600 C 148.773 1.20894 -1.94724 0
M  V30 1601 C 149.773 1.37738 -0.829747 0
M  V30 1602 O 150.963 1.35323 -1.09697 0
M  V30 1603 C 148.095 2.57593 -2.23291 0
M  V30 1604 H 149.288 0.882275 -2.86629 0
M  V30 1605 H 146.841 0.423838 -1.50444 0
M  V30 1606 H 147.576 2.95291 -1.34067 0
M  V30 1607 H 147.361 2.46735 -3.04736 0
M  V30 1608 H 148.851 3.31637 -2.53785 0
M  V30 1609 N 149.288 1.51039 0.449983 0
M  V30 1610 C 150.218 1.74379 1.55288 0
M  V30 1611 C 151.199 0.593236 1.5942 0
M  V30 1612 O 152.384 0.834625 1.7535 0
M  V30 1613 C 149.514 1.85728 2.93466 0
M  V30 1614 C 148.468 3.01078 3.04197 0
M  V30 1615 C 147.794 2.97595 4.44231 0
M  V30 1616 C 149.094 4.41254 2.7945 0
M  V30 1617 H 150.788 2.66725 1.36008 0
M  V30 1618 H 148.334 1.2835 0.652864 0
M  V30 1619 H 150.287 2.0064 3.70569 0
M  V30 1620 H 149.011 0.900207 3.13949 0
M  V30 1621 H 147.67 2.85851 2.29531 0
M  V30 1622 H 147.318 1.99691 4.61663 0
M  V30 1623 H 147.018 3.75046 4.52343 0
M  V30 1624 H 148.542 3.14583 5.23326 0
M  V30 1625 H 149.956 4.56897 3.46292 0
M  V30 1626 H 148.353 5.20315 2.98985 0
M  V30 1627 H 149.423 4.52164 1.75144 0
M  V30 1628 N 150.766 -0.704594 1.40972 0
M  V30 1629 C 152.043 -1.45847 1.30338 0
M  V30 1630 C 152.423 -2.10973 -0.0732344 0
M  V30 1631 O 151.771 -2.00997 -1.08685 0
M  V30 1632 C 151.981 -2.48525 2.45023 0
M  V30 1633 C 153.329 -3.1404 2.8577 0
M  V30 1634 O 154.353 -2.58848 2.44696 0
M  V30 1635 O 153.212 -4.13981 3.56766 0
M  V30 1636 H 150.306 -0.649092 0.512454 0
M  V30 1637 H 152.852 -0.735836 1.52917 0
M  V30 1638 H 151.624 -1.98994 3.36923 0
M  V30 1639 H 151.247 -3.2831 2.24272 0
M  V30 1640 N 152.244 -1.26651 -0.937939 0
M  V30 1641 C 153.191 -1.0849 -2.03712 0
M  V30 1642 C 154.161 0.011033 -1.66096 0
M  V30 1643 O 155.346 -0.149353 -1.90215 0
M  V30 1644 C 152.486 -0.72735 -3.37348 0
M  V30 1645 C 151.599 -1.89986 -3.87981 0
M  V30 1646 C 150.734 -1.48513 -5.10017 0
M  V30 1647 C 149.773 -2.62575 -5.5292 0
M  V30 1648 N 148.91 -2.21762 -6.66158 0
M  V30 1649 H 153.75 -2.02551 -2.18579 0
M  V30 1650 H 151.287 -1.00844 -1.07093 0
M  V30 1651 H 153.245 -0.50092 -4.14182 0
M  V30 1652 H 151.875 0.176298 -3.22318 0
M  V30 1653 H 150.927 -2.23913 -3.07518 0
M  V30 1654 H 152.239 -2.75586 -4.15757 0
M  V30 1655 H 151.393 -1.21934 -5.94321 0
M  V30 1656 H 150.132 -0.60009 -4.83994 0
M  V30 1657 H 149.137 -2.8988 -4.67172 0
M  V30 1658 H 150.362 -3.51685 -5.80943 0
M  V30 1659 H 148.308 -1.35696 -6.41812 0
M  V30 1660 H 148.225 -3.00903 -6.93537 0
M  V30 1661 H 149.493 -1.98403 -7.53828 0
M  V30 1662 N 153.722 1.14298 -1.08507 0
M  V30 1663 C 154.654 2.1907 -0.673859 0
M  V30 1664 C 155.667 1.60381 0.279577 0
M  V30 1665 O 156.856 1.78374 0.0670754 0
M  V30 1666 C 153.956 3.38888 0.0290979 0
M  V30 1667 C 153.129 4.27103 -0.943494 0
M  V30 1668 C 152.188 5.25477 -0.275676 0
M  V30 1669 O 151.214 5.61709 -0.920401 0
M  V30 1670 N 152.416 5.7227 0.974013 0
M  V30 1671 H 155.181 2.54965 -1.57521 0
M  V30 1672 H 152.742 1.29528 -0.971287 0
M  V30 1673 H 154.734 4.01761 0.48683 0
M  V30 1674 H 153.304 3.01309 0.832555 0
M  V30 1675 H 152.524 3.61149 -1.58004 0
M  V30 1676 H 153.812 4.82905 -1.60251 0
M  V30 1677 H 153.21 5.44965 1.51755 0
M  V30 1678 H 151.767 6.37127 1.37522 0
M  V30 1679 N 155.201 0.870884 1.31352 0
M  V30 1680 C 156.149 0.316445 2.30437 0
M  V30 1681 C 157.143 -0.568965 1.59559 0
M  V30 1682 O 158.349 -0.454964 1.74155 0
M  V30 1683 H 154.724 0.0836521 0.747333 0
M  V30 1684 H 156.695 1.16606 2.74673 0
M  V30 1685 C 155.444 -0.46635 3.44558 0
M  V30 1686 H 154.767 0.205687 3.99271 0
M  V30 1687 H 156.207 -0.819614 4.16003 0
M  V30 1688 C 154.666 -1.65797 2.9328 0
M  V30 1689 O 155.196 -2.75728 2.92125 0
M  V30 1690 N 153.402 -1.49041 2.4947 0
M  V30 1691 H 152.949 -0.59612 2.50608 0
M  V30 1692 H 152.907 -2.28911 2.15516 0
M  V30 1693 N 156.679 -1.44442 0.630414 0
M  V30 1694 C 157.626 -2.30678 -0.0749355 0
M  V30 1695 C 158.596 -1.4344 -0.837502 0
M  V30 1696 O 159.781 -1.72343 -0.818684 0
M  V30 1697 C 156.921 -3.28706 -1.05103 0
M  V30 1698 C 156.034 -4.31046 -0.286954 0
M  V30 1699 C 155.169 -5.16167 -1.2548 0
M  V30 1700 C 154.208 -6.10216 -0.479843 0
M  V30 1701 N 153.345 -6.88039 -1.39811 0
M  V30 1702 H 158.185 -2.90454 0.666386 0
M  V30 1703 H 155.722 -1.43107 0.340404 0
M  V30 1704 H 157.68 -3.84027 -1.63031 0
M  V30 1705 H 156.31 -2.70632 -1.75949 0
M  V30 1706 H 155.362 -3.78203 0.408243 0
M  V30 1707 H 156.674 -4.97794 0.316657 0
M  V30 1708 H 155.828 -5.76002 -1.90544 0
M  V30 1709 H 154.567 -4.49491 -1.89233 0
M  V30 1710 H 153.572 -5.49491 0.184295 0
M  V30 1711 H 154.797 -6.78928 0.152965 0
M  V30 1712 H 152.743 -6.24032 -2.02287 0
M  V30 1713 H 152.66 -7.51223 -0.848508 0
M  V30 1714 H 153.928 -7.52397 -2.03762 0
M  V30 1715 N 158.157 -0.370918 -1.53173 0
M  V30 1716 C 159.107 0.489588 -2.22681 0
M  V30 1717 C 160.091 1.04442 -1.22395 0
M  V30 1718 O 161.283 0.973578 -1.47819 0
M  V30 1719 C 158.412 1.626 -3.02351 0
M  V30 1720 C 157.498 1.08379 -4.10018 0
M  V30 1721 N 157.889 0.265004 -5.05105 0
M  V30 1722 C 156.187 1.35809 -4.2482 0
M  V30 1723 C 156.888 -0.0324755 -5.81691 0
M  V30 1724 N 155.864 0.566581 -5.40639 0
M  V30 1725 H 159.666 -0.142729 -2.93553 0
M  V30 1726 H 157.18 -0.179221 -1.61408 0
M  V30 1727 H 159.177 2.2547 -3.50669 0
M  V30 1728 H 157.837 2.26132 -2.33011 0
M  V30 1729 H 158.848 -0.0962352 -5.17811 0
M  V30 1730 H 155.525 1.9958 -3.66707 0
M  V30 1731 H 156.915 -0.69473 -6.68299 0
M  V30 1732 N 159.635 1.57281 -0.100228 0
M  V30 1733 C 160.863 1.98879 0.570509 0
M  V30 1734 C 161.278 0.979476 1.61405 0
M  V30 1735 O 160.635 -0.0302288 1.82475 0
M  V30 1736 C 160.686 3.4052 1.2136 0
M  V30 1737 O 160.407 4.37588 0.211786 0
M  V30 1738 C 161.908 3.97149 1.96945 0
M  V30 1739 H 159.128 0.653428 0.152555 0
M  V30 1740 H 161.672 2.03697 -0.18103 0
M  V30 1741 H 159.827 3.367 1.91603 0
M  V30 1742 H 160.241 5.20118 0.676607 0
M  V30 1743 H 161.715 4.98393 2.37294 0
M  V30 1744 H 162.192 3.3525 2.83733 0
M  V30 1745 H 162.798 4.04458 1.31506 0
M  V30 1746 N 161.113 -0.173488 1.56642 0
M  V30 1747 C 162.338 -0.910149 1.86363 0
M  V30 1748 C 162.763 -1.75132 0.686318 0
M  V30 1749 O 162.121 -1.77595 -0.364643 0
M  V30 1750 C 162.169 -1.76447 3.14482 0
M  V30 1751 O 161.273 -2.86584 2.96553 0
M  V30 1752 H 160.614 -0.255086 0.613047 0
M  V30 1753 H 163.144 -0.172283 2.03873 0
M  V30 1754 H 163.154 -2.16483 3.45831 0
M  V30 1755 H 161.829 -1.14658 3.99783 0
M  V30 1756 H 160.406 -2.50146 2.76553 0
M  V30 1757 N 162.591 -1.51276 -0.441967 0
M  V30 1758 C 163.821 -1.67273 -1.21257 0
M  V30 1759 C 164.229 -0.367624 -1.85594 0
M  V30 1760 O 163.572 0.663349 -1.71305 0
M  V30 1761 C 163.634 -2.72807 -2.34129 0
M  V30 1762 C 163.298 -4.1554 -1.90198 0
M  V30 1763 C 164.295 -5.00471 -1.40801 0
M  V30 1764 C 161.98 -4.61616 -1.9803 0
M  V30 1765 C 163.974 -6.29536 -0.998174 0
M  V30 1766 C 161.661 -5.90679 -1.56658 0
M  V30 1767 C 162.659 -6.74466 -1.07633 0
M  V30 1768 O 162.347 -8.01116 -0.668459 0
M  V30 1769 H 162.079 -0.564614 -0.371734 0
M  V30 1770 H 164.633 -1.9843 -0.530521 0
M  V30 1771 H 162.863 -2.36954 -3.05597 0
M  V30 1772 H 164.552 -2.77729 -2.96009 0
M  V30 1773 H 165.318 -4.66079 -1.34148 0
M  V30 1774 H 161.197 -3.96526 -2.35135 0
M  V30 1775 H 164.741 -6.94885 -0.61482 0
M  V30 1776 H 160.638 -6.24586 -1.62979 0
M  V30 1777 H 161.406 -8.14633 -0.794722 0
M  V30 1778 N 164.069 0.697108 -1.41344 0
M  V30 1779 C 165.318 1.45279 -1.39918 0
M  V30 1780 C 165.631 1.95597 -0.0109624 0
M  V30 1781 O 166.837 2.71208 0.125919 0
M  V30 1782 C 165.293 2.62695 -2.46007 0
M  V30 1783 C 164.901 2.19169 -3.90729 0
M  V30 1784 C 166.645 3.40336 -2.53715 0
M  V30 1785 C 164.552 3.33535 -4.88373 0
M  V30 1786 H 163.482 0.545692 -0.520323 0
M  V30 1787 H 166.133 0.756929 -1.67161 0
M  V30 1788 H 164.515 3.34541 -2.11892 0
M  V30 1789 H 165.689 1.54623 -4.34083 0
M  V30 1790 H 164.004 1.54525 -3.86666 0
M  V30 1791 H 166.601 4.2547 -3.2385 0
M  V30 1792 H 166.944 3.85418 -1.5735 0
M  V30 1793 H 167.477 2.75546 -2.86913 0
M  V30 1794 H 164.216 2.93468 -5.86137 0
M  V30 1795 H 163.736 3.96936 -4.49668 0
M  V30 1796 H 165.415 3.99335 -5.09059 0
M  V30 1797 N 165.547 1.27147 0.931209 0
M  V30 1798 C 166.772 1.16191 1.71797 0
M  V30 1799 C 167.197 -0.278004 1.86034 0
M  V30 1800 O 166.555 -1.20137 1.35782 0
M  V30 1801 C 166.603 1.84673 3.09723 0
M  V30 1802 O 165.707 1.14231 3.96264 0
M  V30 1803 H 165.048 0.404303 0.526721 0
M  V30 1804 H 167.578 1.68152 1.1656 0
M  V30 1805 H 167.588 1.91893 3.60057 0
M  V30 1806 H 166.263 2.89421 2.98677 0
M  V30 1807 H 164.84 1.15056 3.54706 0
M  V30 1808 N 167.025 -1.13721 1.09112 0
M  V30 1809 C 168.273 -1.84559 0.823562 0
M  V30 1810 C 168.594 -1.83754 -0.652658 0
M  V30 1811 O 167.864 -1.29102 -1.47342 0
M  V30 1812 H 166.444 -0.683376 0.301673 0
M  V30 1813 H 169.106 -1.37771 1.37859 0
M  V30 1814 H 168.202 -2.8917 1.17419 0
M  V30 1815 N 168.503 -0.877838 -1.30888 0
M  V30 1816 C 169.914 -0.544193 -1.78593 0
M  V30 1817 C 170.265 0.939301 -1.72254 0
M  V30 1818 O 169.39 1.7337 -1.29505 0
M  V30 1819 C 169.985 -0.98105 -3.24285 0
M  V30 1820 C 168.544 -0.698935 -3.69854 0
M  V30 1821 C 167.691 -1.168 -2.51502 0
M  V30 1822 H 170.642 -1.06278 -1.17859 0
M  V30 1823 H 170.663 -0.307009 -3.79259 0
M  V30 1824 H 170.175 -2.06079 -3.28866 0
M  V30 1825 H 168.276 0.369112 -3.70767 0
M  V30 1826 H 168.389 -1.28148 -4.61644 0
M  V30 1827 H 166.753 -0.587535 -2.47831 0
M  V30 1828 H 167.536 -2.25533 -2.58824 0
M  V30 1829 N 169.982 1.44106 -0.638065 0
M  V30 1830 C 171.228 2.02815 -0.15409 0
M  V30 1831 C 171.583 1.49342 1.21304 0
M  V30 1832 O 170.876 0.670699 1.79478 0
M  V30 1833 C 171.07 3.5729 -0.0887327 0
M  V30 1834 C 170.899 4.2575 -1.44799 0
M  V30 1835 C 169.669 4.62443 -2.03653 0
M  V30 1836 C 171.867 4.55746 -2.38327 0
M  V30 1837 N 169.849 5.15903 -3.32741 0
M  V30 1838 C 171.22 5.10364 -3.52036 0
M  V30 1839 C 173.275 4.37703 -2.3732 0
M  V30 1840 C 171.978 5.48837 -4.64941 0
M  V30 1841 C 174.004 4.77229 -3.49294 0
M  V30 1842 C 173.366 5.31966 -4.61726 0
M  V30 1843 H 169.465 0.775519 -0.100466 0
M  V30 1844 H 172.049 1.755 -0.843071 0
M  V30 1845 H 170.22 3.84201 0.569548 0
M  V30 1846 H 171.952 4.02671 0.404711 0
M  V30 1847 H 168.707 4.46987 -1.56523 0
M  V30 1848 H 169.131 5.47102 -3.98758 0
M  V30 1849 H 173.773 3.94671 -1.51641 0
M  V30 1850 H 171.491 5.9082 -5.51323 0
M  V30 1851 H 175.077 4.64976 -3.49698 0
M  V30 1852 H 173.957 5.61986 -5.46939 0
M  V30 1853 N 171.46 0.379036 1.52974 0
M  V30 1854 C 172.707 -0.206421 2.01445 0
M  V30 1855 C 173.035 -1.47668 1.26587 0
M  V30 1856 O 172.29 -1.92514 0.351675 0
M  V30 1857 C 172.589 -0.53096 3.53434 0
M  V30 1858 C 172.255 0.646546 4.46241 0
M  V30 1859 C 170.917 0.969604 4.7133 0
M  V30 1860 C 173.269 1.43479 5.01062 0
M  V30 1861 C 170.597 2.08263 5.48492 0
M  V30 1862 C 172.949 2.53834 5.7944 0
M  V30 1863 C 171.613 2.86659 6.02812 0
M  V30 1864 H 170.883 -0.0755349 0.73714 0
M  V30 1865 H 173.53 0.514271 1.84465 0
M  V30 1866 H 171.835 -1.33285 3.68432 0
M  V30 1867 H 173.532 -0.996417 3.88423 0
M  V30 1868 H 170.122 0.384734 4.2687 0
M  V30 1869 H 174.306 1.19844 4.81613 0
M  V30 1870 H 169.562 2.34078 5.64816 0
M  V30 1871 H 173.736 3.15319 6.20924 0
M  V30 1872 H 171.363 3.73026 6.62387 0
M  V30 1873 N 172.938 -1.57226 0.108567 0
M  V30 1874 C 174.215 -1.86333 -0.594939 0
M  V30 1875 C 174.595 -1.00788 -1.85486 0
M  V30 1876 O 173.943 -0.0839293 -2.28346 0
M  V30 1877 C 174.153 -3.37265 -0.897405 0
M  V30 1878 C 175.501 -4.05629 -1.25501 0
M  V30 1879 O 176.525 -3.42224 -0.987998 0
M  V30 1880 O 175.384 -5.17531 -1.75567 0
M  V30 1881 H 172.478 -0.771018 -0.2991 0
M  V30 1882 H 175.024 -1.69102 0.142283 0
M  V30 1883 H 173.796 -3.913 -0.00413806 0
M  V30 1884 H 173.419 -3.59889 -1.69014 0
M  V30 1885 N 174.416 0.165178 -1.56732 0
M  V30 1886 C 175.349 1.23336 -1.91998 0
M  V30 1887 C 176.327 1.42476 -0.783531 0
M  V30 1888 O 177.511 1.57384 -1.03743 0
M  V30 1889 C 174.638 2.59533 -2.17625 0
M  V30 1890 C 173.684 2.57093 -3.40302 0
M  V30 1891 S 174.517 2.05571 -4.9447 0
M  V30 1892 C 175.673 3.43532 -5.23198 0
M  V30 1893 H 175.906 0.932387 -2.82301 0
M  V30 1894 H 173.439 0.370013 -1.49901 0
M  V30 1895 H 175.397 3.37918 -2.3307 0
M  V30 1896 H 174.058 2.86827 -1.28019 0
M  V30 1897 H 173.251 3.57308 -3.55453 0
M  V30 1898 H 172.853 1.86806 -3.24005 0
M  V30 1899 H 175.145 4.39559 -5.15552 0
M  V30 1900 H 176.088 3.33251 -6.2478 0
M  V30 1901 H 176.496 3.39828 -4.50752 0
M  V30 1902 N 175.894 1.51508 0.433938 0
M  V30 1903 C 177.124 1.67914 1.20369 0
M  V30 1904 C 177.532 0.377461 1.85397 0
M  V30 1905 O 176.875 -0.654255 1.71654 0
M  V30 1906 C 176.937 2.74045 2.32679 0
M  V30 1907 C 176.601 4.16543 1.87991 0
M  V30 1908 C 177.598 5.01211 1.38145 0
M  V30 1909 C 175.283 4.6266 1.95579 0
M  V30 1910 C 177.277 6.30056 0.964774 0
M  V30 1911 C 174.964 5.91501 1.53523 0
M  V30 1912 C 175.962 6.75027 1.04055 0
M  V30 1913 O 175.65 8.01459 0.625964 0
M  V30 1914 H 175.382 0.566578 0.368735 0
M  V30 1915 H 177.936 1.98709 0.51999 0
M  V30 1916 H 176.166 2.38572 3.04336 0
M  V30 1917 H 177.855 2.79295 2.94532 0
M  V30 1918 H 178.621 4.66783 1.31675 0
M  V30 1919 H 174.5 3.97767 2.33029 0
M  V30 1920 H 178.044 6.95202 0.57796 0
M  V30 1921 H 173.941 6.25442 1.59665 0
M  V30 1922 H 174.709 8.15043 0.751509 0
M  V30 1923 N 177.372 -0.689602 1.41712 0
M  V30 1924 C 178.302 -1.81577 1.46806 0
M  V30 1925 C 179.283 -1.66945 0.326105 0
M  V30 1926 O 180.468 -1.86588 0.538377 0
M  V30 1927 C 177.598 -3.19762 1.35535 0
M  V30 1928 C 176.552 -3.49107 2.47605 0
M  V30 1929 C 175.878 -4.86711 2.21397 0
M  V30 1930 C 177.178 -3.47483 3.89939 0
M  V30 1931 H 178.872 -1.7757 2.41058 0
M  V30 1932 H 176.418 -0.852887 1.16025 0
M  V30 1933 H 178.371 -3.98263 1.3771 0
M  V30 1934 H 177.095 -3.24409 0.377708 0
M  V30 1935 H 175.754 -2.72959 2.44722 0
M  V30 1936 H 175.402 -4.8799 1.21961 0
M  V30 1937 H 175.102 -5.0731 2.96497 0
M  V30 1938 H 176.626 -5.67515 2.25297 0
M  V30 1939 H 178.04 -4.1598 3.94505 0
M  V30 1940 H 176.437 -3.79615 4.64771 0
M  V30 1941 H 177.507 -2.46341 4.17665 0
M  V30 1942 N 178.85 -1.27639 -0.924453 0
M  V30 1943 C 180.075 -1.17101 -1.71179 0
M  V30 1944 C 180.5 0.268134 -1.86179 0
M  V30 1945 O 179.858 1.19415 -1.36418 0
M  V30 1946 C 179.906 -1.86313 -3.08739 0
M  V30 1947 O 179.01 -1.16331 -3.95652 0
M  V30 1948 H 178.351 -0.407091 -0.524569 0
M  V30 1949 H 180.881 -1.68767 -1.15666 0
M  V30 1950 H 180.891 -1.938 -3.59034 0
M  V30 1951 H 179.566 -2.91001 -2.97138 0
M  V30 1952 H 178.143 -1.16935 -3.54091 0
M  V30 1953 N 180.328 1.1314 -1.09713 0
M  V30 1954 C 181.291 2.16831 -0.742751 0
M  V30 1955 C 182.291 1.59159 0.229129 0
M  V30 1956 O 183.481 1.74199 0.00693237 0
M  V30 1957 C 180.613 3.40756 -0.0989168 0
M  V30 1958 H 181.806 2.49695 -1.66109 0
M  V30 1959 H 179.359 1.2802 -0.896699 0
M  V30 1960 H 180.094 3.13485 0.830514 0
M  V30 1961 H 179.879 3.83888 -0.798265 0
M  V30 1962 H 181.369 4.17386 0.133524 0
M  V30 1963 N 181.806 0.884767 1.30421 0
M  V30 1964 C 183.222 0.57874 1.48737 0
M  V30 1965 C 183.422 -0.883567 1.81095 0
M  V30 1966 O 182.478 -1.6648 1.89844 0
M  V30 1967 C 183.791 1.49171 2.61091 0
M  V30 1968 C 185.339 1.49532 2.74971 0
M  V30 1969 C 185.814 2.39421 3.90438 0
M  V30 1970 N 187.305 2.37383 3.97748 0
M  V30 1971 C 188.04 3.03647 4.86401 0
M  V30 1972 N 187.536 3.79136 5.79852 0
M  V30 1973 N 189.329 2.9288 4.79768 0
M  V30 1974 H 181.48 1.83075 1.0769 0
M  V30 1975 H 183.743 0.783637 0.533495 0
M  V30 1976 H 183.449 2.53291 2.44001 0
M  V30 1977 H 183.323 1.20113 3.57565 0
M  V30 1978 H 185.71 0.46163 2.91467 0
M  V30 1979 H 185.791 1.8262 1.79119 0
M  V30 1980 H 185.435 3.42874 3.74699 0
M  V30 1981 H 185.365 2.03649 4.85628 0
M  V30 1982 H 187.856 1.82525 3.30897 0
M  V30 1983 H 188.169 4.26789 6.4426 0
M  V30 1984 H 186.514 3.83243 5.79784 0
M  V30 1985 H 189.705 2.33433 4.05742 0
M  V30 1986 H 189.878 3.448 5.4865 0
M  V30 1987 N 183.284 -1.43765 0.645699 0
M  V30 1988 C 184.561 -1.9541 0.0862963 0
M  V30 1989 C 184.941 -1.58725 -1.39175 0
M  V30 1990 O 184.289 -0.868581 -2.11348 0
M  V30 1991 C 184.499 -3.47488 0.324565 0
M  V30 1992 C 185.847 -4.24001 0.225497 0
M  V30 1993 O 186.871 -3.55274 0.256715 0
M  V30 1994 O 185.73 -5.46313 0.142801 0
M  V30 1995 H 182.824 -0.826882 -0.0139483 0
M  V30 1996 H 185.37 -1.53743 0.718415 0
M  V30 1997 H 184.142 -3.67289 1.3496 0
M  V30 1998 H 183.765 -3.96135 -0.340987 0
M  V30 1999 N 184.763 -0.387143 -1.52771 0
M  V30 2000 C 185.988 0.198407 -2.06449 0
M  V30 2001 C 186.413 1.39918 -1.25716 0
M  V30 2002 O 185.771 1.79099 -0.281657 0
M  V30 2003 C 185.819 0.548893 -3.56398 0
M  V30 2004 O 184.923 1.64315 -3.78252 0
M  V30 2005 H 184.264 0.0237731 -0.663574 0
M  V30 2006 H 186.794 -0.553989 -1.96957 0
M  V30 2007 H 186.804 0.813812 -3.99801 0
M  V30 2008 H 185.479 -0.329005 -4.14597 0
M  V30 2009 H 184.056 1.37211 -3.46738 0
M  V30 2010 N 186.241 1.57166 -0.116904 0
M  V30 2011 C 187.487 1.95412 0.542405 0
M  V30 2012 C 187.82 1.00019 1.66463 0
M  V30 2013 O 187.095 0.0370346 1.94465 0
M  V30 2014 C 187.378 3.43615 1.07708 0
M  V30 2015 C 187.231 4.49781 -0.0415868 0
M  V30 2016 C 188.55 3.93616 1.96861 0
M  V30 2017 H 185.669 0.710543 0.195696 0
M  V30 2018 H 188.311 1.89027 -0.192038 0
M  V30 2019 H 186.461 3.49187 1.70296 0
M  V30 2020 H 188.133 4.56308 -0.676793 0
M  V30 2021 H 186.376 4.28033 -0.705019 0
M  V30 2022 H 187.047 5.50733 0.373717 0
M  V30 2023 H 189.523 3.90335 1.44146 0
M  V30 2024 H 188.399 4.97838 2.3119 0
M  V30 2025 H 188.66 3.34188 2.89432 0
M  V30 2026 N 187.719 -0.156864 1.56817 0
M  V30 2027 C 188.965 -0.872416 1.83076 0
M  V30 2028 C 189.298 -1.81261 0.697001 0
M  V30 2029 O 188.573 -1.92171 -0.30008 0
M  V30 2030 C 188.856 -1.65551 3.19789 0
M  V30 2031 C 188.709 -0.737467 4.43713 0
M  V30 2032 C 190.028 -2.62012 3.53606 0
M  V30 2033 H 187.147 -0.315715 0.665953 0
M  V30 2034 H 189.789 -0.138004 1.89498 0
M  V30 2035 H 187.939 -2.28159 3.14445 0
M  V30 2036 H 189.611 -0.123143 4.61136 0
M  V30 2037 H 187.854 -0.0464067 4.33775 0
M  V30 2038 H 188.525 -1.32122 5.35955 0
M  V30 2039 H 191.001 -2.09525 3.59497 0
M  V30 2040 H 189.877 -3.13861 4.50314 0
M  V30 2041 H 190.138 -3.42902 2.79053 0
M  V30 2042 N 189.197 -1.51736 -0.425897 0
M  V30 2043 C 190.127 -1.76827 -1.52494 0
M  V30 2044 C 191.108 -0.618524 -1.58456 0
M  V30 2045 O 192.293 -0.862416 -1.74 0
M  V30 2046 C 189.423 -1.90374 -2.90474 0
M  V30 2047 C 188.377 -3.0588 -2.99369 0
M  V30 2048 C 187.703 -3.04625 -4.3944 0
M  V30 2049 C 189.003 -4.45644 -2.72394 0
M  V30 2050 H 190.697 -2.68855 -1.31748 0
M  V30 2051 H 188.243 -1.29372 -0.632362 0
M  V30 2052 H 190.196 -2.0651 -3.6733 0
M  V30 2053 H 188.92 -0.95004 -3.12477 0
M  V30 2054 H 187.579 -2.89467 -2.24954 0
M  V30 2055 H 187.227 -2.0701 -4.58428 0
M  V30 2056 H 186.927 -3.82195 -4.46319 0
M  V30 2057 H 188.451 -3.22869 -5.18255 0
M  V30 2058 H 189.865 -4.62348 -3.38979 0
M  V30 2059 H 188.262 -5.25006 -2.9067 0
M  V30 2060 H 189.332 -4.54893 -1.67929 0
M  V30 2061 N 190.675 0.682077 -1.42076 0
M  V30 2062 C 191.623 1.81707 -1.45208 0
M  V30 2063 C 192.617 1.66183 -0.328591 0
M  V30 2064 O 193.823 1.7288 -0.501264 0
M  V30 2065 H 190.198 0.599014 -0.454628 0
M  V30 2066 H 192.169 1.76183 -2.40836 0
M  V30 2067 C 190.918 3.19816 -1.36428 0
M  V30 2068 H 190.241 3.32385 -2.22171 0
M  V30 2069 H 191.681 3.99272 -1.42681 0
M  V30 2070 C 190.14 3.36809 -0.078191 0
M  V30 2071 O 190.67 3.92124 0.87188 0
M  V30 2072 N 188.876 2.906 0.00229266 0
M  V30 2073 H 188.423 2.45772 -0.771616 0
M  V30 2074 H 188.381 3.02347 0.862179 0
M  V30 2075 N 192.153 1.28127 0.917671 0
M  V30 2076 C 193.4 1.15052 1.66641 0
M  V30 2077 C 193.728 -0.301677 1.92146 0
M  V30 2078 O 192.983 -1.23622 1.51711 0
M  V30 2079 C 193.282 1.89018 3.03327 0
M  V30 2080 C 192.948 3.38832 2.97496 0
M  V30 2081 C 191.61 3.79693 2.95613 0
M  V30 2082 C 193.962 4.34378 2.88036 0
M  V30 2083 C 191.29 5.14447 2.82066 0
M  V30 2084 C 193.642 5.69201 2.7603 0
M  V30 2085 C 192.306 6.09343 2.72502 0
M  V30 2086 H 191.576 0.421006 0.609783 0
M  V30 2087 H 194.223 1.58855 1.06945 0
M  V30 2088 H 192.528 1.37752 3.66785 0
M  V30 2089 H 194.225 1.76321 3.60156 0
M  V30 2090 H 190.815 3.06342 2.99754 0
M  V30 2091 H 194.999 4.03775 2.88581 0
M  V30 2092 H 190.255 5.44681 2.77728 0
M  V30 2093 H 194.429 6.42901 2.67678 0
M  V30 2094 H 192.056 7.13712 2.61762 0
M  V30 2095 N 193.631 -1.12557 1.10312 0
M  V30 2096 C 194.579 -2.20325 0.745629 0
M  V30 2097 C 195.573 -1.67429 -0.25763 0
M  V30 2098 O 196.779 -1.79612 -0.118132 0
M  V30 2099 H 193.154 -0.718118 0.223182 0
M  V30 2100 H 195.125 -2.47733 1.66346 0
M  V30 2101 C 193.874 -3.47168 0.192262 0
M  V30 2102 H 193.197 -3.88215 0.955475 0
M  V30 2103 H 194.637 -4.23995 -0.0198274 0
M  V30 2104 C 193.096 -3.19298 -1.07472 0
M  V30 2105 O 193.626 -3.3891 -2.15645 0
M  V30 2106 N 191.832 -2.73113 -0.992847 0
M  V30 2107 H 191.379 -2.57354 -0.112474 0
M  V30 2108 H 191.337 -2.54842 -1.84127 0
M  V30 2109 N 195.109 -0.891671 -1.2995 0
M  V30 2110 C 196.52 -0.563104 -1.78006 0
M  V30 2111 C 196.871 0.920978 -1.73241 0
M  V30 2112 O 195.996 1.71987 -1.31337 0
M  V30 2113 C 196.591 -1.01539 -3.23226 0
M  V30 2114 C 195.15 -0.738124 -3.69092 0
M  V30 2115 C 194.297 -1.19461 -2.50249 0
M  V30 2116 H 197.248 -1.07522 -1.16725 0
M  V30 2117 H 197.269 -0.347217 -3.78912 0
M  V30 2118 H 196.781 -2.09555 -3.26662 0
M  V30 2119 H 194.882 0.329766 -3.71138 0
M  V30 2120 H 194.995 -1.33037 -4.60259 0
M  V30 2121 H 193.359 -0.613787 -2.47194 0
M  V30 2122 H 194.142 -2.28265 -2.56417 0
M  V30 2123 N 196.587 1.43421 -0.653314 0
M  V30 2124 C 197.834 2.01812 -0.166745 0
M  V30 2125 C 198.162 1.51535 1.21931 0
M  V30 2126 O 197.417 0.698975 1.82792 0
M  V30 2127 C 197.716 3.57176 -0.126623 0
M  V30 2128 C 197.382 4.26798 -1.45444 0
M  V30 2129 C 196.044 4.45534 -1.81805 0
M  V30 2130 C 198.396 4.66225 -2.32989 0
M  V30 2131 C 195.724 5.00961 -3.05377 0
M  V30 2132 C 198.076 5.23021 -3.55853 0
M  V30 2133 C 196.74 5.39973 -3.9241 0
M  V30 2134 H 196.01 0.738484 -0.0610162 0
M  V30 2135 H 198.657 1.71896 -0.84404 0
M  V30 2136 H 196.962 3.86634 0.634123 0
M  V30 2137 H 198.659 4.00112 0.266723 0
M  V30 2138 H 195.249 4.12561 -1.16153 0
M  V30 2139 H 199.433 4.51443 -2.06187 0
M  V30 2140 H 194.689 5.12271 -3.3375 0
M  V30 2141 H 198.863 5.52518 -4.23907 0
M  V30 2142 H 196.49 5.82687 -4.88242 0
M  V30 2143 N 198.065 0.39524 1.52563 0
M  V30 2144 C 198.998 -0.4813 2.23067 0
M  V30 2145 C 199.976 -1.05927 1.23362 0
M  V30 2146 O 201.16 -1.10979 1.52368 0
M  V30 2147 C 198.287 -1.66676 2.9485 0
M  V30 2148 C 197.333 -1.21348 4.08873 0
M  V30 2149 S 198.166 -0.190102 5.35162 0
M  V30 2150 C 199.322 -1.38121 6.1047 0
M  V30 2151 H 199.555 0.117381 2.97068 0
M  V30 2152 H 197.088 0.179458 1.53354 0
M  V30 2153 H 199.046 -2.3466 3.36816 0
M  V30 2154 H 197.707 -2.23676 2.20518 0
M  V30 2155 H 196.9 -2.09877 4.58222 0
M  V30 2156 H 196.502 -0.612486 3.68951 0
M  V30 2157 H 198.794 -2.30726 6.37002 0
M  V30 2158 H 199.737 -0.928521 7.01986 0
M  V30 2159 H 200.145 -1.60071 5.41329 0
M  V30 2160 N 199.544 -1.57102 0.125237 0
M  V30 2161 C 200.507 -2.14471 -0.80838 0
M  V30 2162 C 201.507 -1.0811 -1.19033 0
M  V30 2163 O 202.697 -1.33856 -1.11482 0
M  V30 2164 C 199.829 -2.69005 -2.09402 0
M  V30 2165 H 201.022 -2.98297 -0.309696 0
M  V30 2166 H 198.575 -1.55807 -0.124051 0
M  V30 2167 H 199.31 -1.88785 -2.63687 0
M  V30 2168 H 199.095 -3.46799 -1.82957 0
M  V30 2169 H 200.585 -3.13278 -2.76128 0
M  V30 2170 N 201.022 0.148545 -1.56898 0
M  V30 2171 C 202.269 0.861418 -1.83264 0
M  V30 2172 C 202.597 1.81239 -0.705883 0
M  V30 2173 O 201.852 1.93305 0.305212 0
M  V30 2174 C 202.151 1.67064 -3.1595 0
M  V30 2175 C 201.817 0.866591 -4.42494 0
M  V30 2176 C 200.479 0.644762 -4.76861 0
M  V30 2177 C 202.831 0.30418 -5.20312 0
M  V30 2178 C 200.159 -0.15021 -5.86508 0
M  V30 2179 C 202.511 -0.477824 -6.30793 0
M  V30 2180 C 201.175 -0.710244 -6.63711 0
M  V30 2181 H 200.445 0.315215 -0.670612 0
M  V30 2182 H 203.092 0.125142 -1.91091 0
M  V30 2183 H 201.397 2.47698 -3.03567 0
M  V30 2184 H 203.094 2.22566 -3.33565 0
M  V30 2185 H 199.684 1.04955 -4.15551 0
M  V30 2186 H 203.868 0.462844 -4.94137 0
M  V30 2187 H 199.124 -0.339796 -6.10455 0
M  V30 2188 H 203.298 -0.92076 -6.90286 0
M  V30 2189 H 200.925 -1.3281 -7.48509 0
M  V30 2190 N 202.5 1.5196 0.417844 0
M  V30 2191 C 203.448 1.75278 1.52907 0
M  V30 2192 C 204.442 0.619611 1.57662 0
M  V30 2193 O 205.648 0.801457 1.61173 0
M  V30 2194 H 202.023 0.554141 0.508362 0
M  V30 2195 H 203.994 2.68389 1.30422 0
M  V30 2196 C 202.743 1.91262 2.90369 0
M  V30 2197 H 202.066 2.77872 2.8745 0
M  V30 2198 H 203.506 2.11581 3.67436 0
M  V30 2199 C 201.965 0.677431 3.30019 0
M  V30 2200 O 202.495 -0.158799 4.01386 0
M  V30 2201 N 200.701 0.515851 2.85985 0
M  V30 2202 H 200.248 1.19744 2.28077 0
M  V30 2203 H 200.206 -0.309315 3.12875 0
M  V30 2204 N 203.978 -0.674533 1.42435 0
M  V30 2205 C 205.389 -1.25514 1.38214 0
M  V30 2206 C 205.74 -1.96055 0.0755464 0
M  V30 2207 O 204.865 -2.00028 -0.8257 0
M  V30 2208 C 205.46 -2.28269 2.50357 0
M  V30 2209 C 204.019 -2.81856 2.49467 0
M  V30 2210 C 203.166 -1.56182 2.29134 0
M  V30 2211 H 206.117 -0.467902 1.51646 0
M  V30 2212 H 206.138 -3.10009 2.20624 0
M  V30 2213 H 205.65 -1.769 3.45439 0
M  V30 2214 H 203.751 -3.37346 1.58204 0
M  V30 2215 H 203.864 -3.30854 3.46515 0
M  V30 2216 H 202.228 -1.82761 1.774 0
M  V30 2217 H 203.011 -1.06778 3.26272 0
M  V30 2218 N 205.456 -1.28612 -0.910864 0
M  V30 2219 C 206.733 -1.06632 -1.63979 0
M  V30 2220 C 207.113 0.393351 -2.07403 0
M  V30 2221 O 206.461 1.37999 -1.82122 0
M  V30 2222 C 206.671 -2.0436 -2.8291 0
M  V30 2223 C 208.019 -2.34666 -3.5386 0
M  V30 2224 O 209.043 -2.02467 -2.93062 0
M  V30 2225 O 207.902 -2.89631 -4.63439 0
M  V30 2226 H 204.996 -0.407737 -0.7195 0
M  V30 2227 H 207.542 -1.39942 -0.959914 0
M  V30 2228 H 206.314 -3.02727 -2.47936 0
M  V30 2229 H 205.937 -1.71714 -3.58609 0
M  V30 2230 N 206.934 1.1197 -1.10907 0
M  V30 2231 C 208.345 1.65114 -0.871446 0
M  V30 2232 C 208.696 1.86885 0.597353 0
M  V30 2233 O 207.821 1.59896 1.45816 0
M  V30 2234 C 208.416 2.99944 -1.5754 0
M  V30 2235 C 206.975 3.50018 -1.38435 0
M  V30 2236 C 206.122 2.24941 -1.62164 0
M  V30 2237 H 209.073 0.956851 -1.2661 0
M  V30 2238 H 209.094 3.66651 -1.01721 0
M  V30 2239 H 208.606 2.84067 -2.64438 0
M  V30 2240 H 206.707 3.71071 -0.337214 0
M  V30 2241 H 206.82 4.29165 -2.12965 0
M  V30 2242 H 205.184 2.3229 -1.04467 0
M  V30 2243 H 205.967 2.11612 -2.70324 0
M  V30 2244 N 208.412 0.89855 1.29475 0
M  V30 2245 C 209.359 0.373819 2.27753 0
M  V30 2246 C 210.329 -0.543444 1.56958 0
M  V30 2247 O 211.514 -0.468934 1.84948 0
M  V30 2248 C 208.654 -0.393648 3.42848 0
M  V30 2249 C 207.767 0.554379 4.28428 0
M  V30 2250 C 206.902 -0.230026 5.30702 0
M  V30 2251 C 205.941 0.712599 6.07938 0
M  V30 2252 N 205.078 -0.0373283 7.0209 0
M  V30 2253 H 209.918 1.21699 2.72017 0
M  V30 2254 H 207.455 0.611456 1.33789 0
M  V30 2255 H 209.413 -0.85466 4.08352 0
M  V30 2256 H 208.043 -1.20128 2.99615 0
M  V30 2257 H 207.095 1.13391 3.63107 0
M  V30 2258 H 208.407 1.27597 4.82204 0
M  V30 2259 H 207.561 -0.752288 6.02018 0
M  V30 2260 H 206.3 -0.984758 4.77654 0
M  V30 2261 H 205.305 1.24637 5.35486 0
M  V30 2262 H 206.53 1.46664 6.63074 0
M  V30 2263 H 204.476 -0.774348 6.51414 0
M  V30 2264 H 204.393 0.624374 7.53417 0
M  V30 2265 H 205.661 -0.539891 7.77628 0
M  V30 2266 N 209.89 -1.43072 0.660911 0
M  V30 2267 C 211.115 -2.06584 0.183805 0
M  V30 2268 C 211.54 -1.49257 -1.14472 0
M  V30 2269 O 210.898 -0.605528 -1.70889 0
M  V30 2270 C 210.946 -3.60418 0.114434 0
M  V30 2271 O 210.05 -4.01981 -0.921137 0
M  V30 2272 H 209.391 -0.656669 0.0983994 0
M  V30 2273 H 211.921 -1.83447 0.906006 0
M  V30 2274 H 211.931 -4.07946 -0.0663394 0
M  V30 2275 H 210.606 -4.01519 1.08422 0
M  V30 2276 H 209.183 -3.66029 -0.71253 0
M  V30 2277 N 211.368 -0.403325 -1.52352 0
M  V30 2278 C 212.278 0.432009 -2.30588 0
M  V30 2279 C 213.294 1.05884 -1.38075 0
M  V30 2280 O 214.47 1.06161 -1.71148 0
M  V30 2281 C 211.535 1.53669 -3.10784 0
M  V30 2282 C 210.596 0.933525 -4.19027 0
M  V30 2283 C 209.829 1.98557 -4.9539 0
M  V30 2284 O 210.052 3.20283 -4.71991 0
M  V30 2285 O 208.986 1.59504 -5.80381 0
M  V30 2286 H 212.812 -0.205739 -3.03002 0
M  V30 2287 H 210.397 -0.166675 -1.48467 0
M  V30 2288 H 212.279 2.17814 -3.60742 0
M  V30 2289 H 210.954 2.15915 -2.41169 0
M  V30 2290 H 209.861 0.254954 -3.7323 0
M  V30 2291 H 211.194 0.35508 -4.90918 0
M  V30 2292 N 212.846 1.57033 -0.133567 0
M  V30 2293 C 214.076 1.99754 0.527429 0
M  V30 2294 C 214.484 1.01245 1.59832 0
M  V30 2295 O 213.827 -0.000645496 1.837 0
M  V30 2296 C 213.889 3.38903 1.19939 0
M  V30 2297 C 213.553 4.56174 0.274709 0
M  V30 2298 C 214.55 5.17563 -0.492398 0
M  V30 2299 C 212.235 5.01972 0.18153 0
M  V30 2300 C 214.229 6.2315 -1.34027 0
M  V30 2301 C 211.916 6.07416 -0.669958 0
M  V30 2302 C 212.914 6.67874 -1.42947 0
M  V30 2303 O 212.602 7.71279 -2.2668 0
M  V30 2304 H 212.334 0.660702 0.142999 0
M  V30 2305 H 214.888 2.04207 -0.221099 0
M  V30 2306 H 213.118 3.31248 1.99528 0
M  V30 2307 H 214.807 3.65818 1.75875 0
M  V30 2308 H 215.573 4.83087 -0.430367 0
M  V30 2309 H 211.452 4.54652 0.762422 0
M  V30 2310 H 214.996 6.70268 -1.93357 0
M  V30 2311 H 210.893 6.41321 -0.73333 0
M  V30 2312 H 211.661 7.88441 -2.1978 0
M  V30 2313 N 214.325 -0.140222 1.56975 0
M  V30 2314 C 215.273 -1.19207 1.99731 0
M  V30 2315 C 216.267 -1.44089 0.890777 0
M  V30 2316 O 217.473 -1.44301 1.07597 0
M  V30 2317 H 213.848 -0.40142 0.635898 0
M  V30 2318 H 215.819 -0.804813 2.87342 0
M  V30 2319 C 214.568 -2.51617 2.39967 0
M  V30 2320 H 213.891 -2.33303 3.24669 0
M  V30 2321 H 215.331 -3.23827 2.73701 0
M  V30 2322 C 213.79 -3.12654 1.25496 0
M  V30 2323 O 214.32 -3.97786 0.559371 0
M  V30 2324 N 212.526 -2.72206 1.01746 0
M  V30 2325 H 212.073 -2.03074 1.58489 0
M  V30 2326 H 212.031 -3.13377 0.253461 0
M  V30 2327 N 215.803 -1.52179 -0.40978 0
M  V30 2328 C 217.08 -1.56769 -1.16974 0
M  V30 2329 C 217.46 -0.348322 -2.08206 0
M  V30 2330 O 216.808 0.664862 -2.18613 0
M  V30 2331 C 217.018 -2.89603 -1.9476 0
M  V30 2332 C 218.366 -3.42579 -2.50849 0
M  V30 2333 O 219.39 -2.91338 -2.04941 0
M  V30 2334 O 218.249 -4.32054 -3.34652 0
M  V30 2335 H 215.343 -0.631439 -0.534054 0
M  V30 2336 H 217.889 -1.64507 -0.416613 0
M  V30 2337 H 216.661 -3.698 -1.27921 0
M  V30 2338 H 216.284 -2.85155 -2.77079 0
M  V30 2339 N 217.281 0.66697 -1.42791 0
M  V30 2340 C 218.213 1.7925 -1.42836 0
M  V30 2341 C 219.226 1.59496 -0.326333 0
M  V30 2342 O 220.415 1.6847 -0.589916 0
M  V30 2343 C 217.515 3.16476 -1.21229 0
M  V30 2344 C 216.688 3.63011 -2.44013 0
M  V30 2345 C 215.747 4.78993 -2.17834 0
M  V30 2346 O 214.773 4.89137 -2.91091 0
M  V30 2347 N 215.975 5.68248 -1.18635 0
M  V30 2348 H 218.74 1.79695 -2.39854 0
M  V30 2349 H 216.301 0.850338 -1.37771 0
M  V30 2350 H 218.293 3.91734 -1.01621 0
M  V30 2351 H 216.863 3.10884 -0.32706 0
M  V30 2352 H 216.083 2.78346 -2.79137 0
M  V30 2353 H 217.371 3.90845 -3.25757 0
M  V30 2354 H 216.769 5.62712 -0.580615 0
M  V30 2355 H 215.326 6.43285 -1.05013 0
M  V30 2356 N 218.759 1.29093 0.90403 0
M  V30 2357 C 219.689 1.16401 2.02418 0
M  V30 2358 C 220.67 0.0593085 1.69997 0
M  V30 2359 O 221.855 0.238021 1.92736 0
M  V30 2360 C 218.985 0.835233 3.37107 0
M  V30 2361 C 217.939 1.89578 3.83724 0
M  V30 2362 C 217.265 1.42041 5.15489 0
M  V30 2363 C 218.565 3.30394 4.04521 0
M  V30 2364 H 220.259 2.10109 2.13295 0
M  V30 2365 H 217.805 1.01157 1.02486 0
M  V30 2366 H 219.758 0.733169 4.14973 0
M  V30 2367 H 218.482 -0.137543 3.2631 0
M  V30 2368 H 217.141 1.98715 3.08071 0
M  V30 2369 H 216.789 0.436426 5.01103 0
M  V30 2370 H 216.489 2.12964 5.4765 0
M  V30 2371 H 218.013 1.33176 5.959 0
M  V30 2372 H 219.427 3.24123 4.72882 0
M  V30 2373 H 217.824 3.99237 4.48029 0
M  V30 2374 H 218.894 3.73692 3.09002 0
M  V30 2375 N 220.237 -1.11381 1.11499 0
M  V30 2376 C 221.465 -1.86934 0.88675 0
M  V30 2377 C 221.88 -1.80195 -0.563476 0
M  V30 2378 O 221.237 -1.18367 -1.38908 0
M  V30 2379 C 221.288 -3.35722 1.34064 0
M  V30 2380 O 221.009 -3.4232 2.73401 0
M  V30 2381 C 222.51 -4.2818 1.14791 0
M  V30 2382 H 219.73 -0.591117 0.317523 0
M  V30 2383 H 222.274 -1.40865 1.48248 0
M  V30 2384 H 220.429 -3.79294 0.788355 0
M  V30 2385 H 220.843 -4.34971 2.93087 0
M  V30 2386 H 222.317 -5.30817 1.5145 0
M  V30 2387 H 222.794 -4.39113 0.0875279 0
M  V30 2388 H 223.4 -3.90402 1.68721 0
M  V30 2389 N 221.715 -0.905404 -1.28997 0
M  V30 2390 C 223.131 -0.60233 -1.47798 0
M  V30 2391 C 223.331 0.854645 -1.82478 0
M  V30 2392 O 222.387 1.63439 -1.92468 0
M  V30 2393 C 223.7 -1.53306 -2.58685 0
M  V30 2394 C 225.248 -1.53887 -2.72558 0
M  V30 2395 C 225.723 -2.45602 -3.86579 0
M  V30 2396 N 227.214 -2.43681 -3.93921 0
M  V30 2397 C 227.949 -3.11347 -4.81509 0
M  V30 2398 N 227.445 -3.88313 -5.73746 0
M  V30 2399 N 229.238 -3.00476 -4.75048 0
M  V30 2400 H 221.389 -1.84765 -1.04764 0
M  V30 2401 H 223.652 -0.792025 -0.520961 0
M  V30 2402 H 223.358 -2.57141 -2.39941 0
M  V30 2403 H 223.232 -1.25787 -3.55609 0
M  V30 2404 H 225.619 -0.507941 -2.90696 0
M  V30 2405 H 225.7 -1.85447 -1.76191 0
M  V30 2406 H 225.344 -3.48792 -3.69197 0
M  V30 2407 H 225.274 -2.11349 -4.82327 0
M  V30 2408 H 227.765 -1.87767 -3.27951 0
M  V30 2409 H 228.078 -4.36985 -6.37389 0
M  V30 2410 H 226.423 -3.92419 -5.73614 0
M  V30 2411 H 229.614 -2.39858 -4.01977 0
M  V30 2412 H 229.787 -3.53485 -5.43095 0
M  V30 2413 N 223.193 1.4272 -0.668489 0
M  V30 2414 C 224.156 2.292 0.00448567 0
M  V30 2415 C 225.156 1.43001 0.735339 0
M  V30 2416 O 226.346 1.64461 0.57429 0
M  V30 2417 C 223.478 3.25375 1.01705 0
M  V30 2418 H 224.671 2.90199 -0.756608 0
M  V30 2419 H 222.224 1.50254 -0.430506 0
M  V30 2420 H 222.959 2.69301 1.80686 0
M  V30 2421 H 222.744 3.88944 0.496463 0
M  V30 2422 H 224.234 3.90245 1.48655 0
M  V30 2423 N 224.671 0.411399 1.52136 0
M  V30 2424 C 225.899 -0.163076 2.06256 0
M  V30 2425 C 226.314 -1.3867 1.28125 0
M  V30 2426 O 225.671 -1.79423 0.333721 0
M  V30 2427 C 225.722 -0.511252 3.57867 0
M  V30 2428 O 225.443 0.66378 4.33042 0
M  V30 2429 C 226.944 -1.13921 4.28412 0
M  V30 2430 H 224.164 -0.0193897 0.67072 0
M  V30 2431 H 226.708 0.583007 1.96013 0
M  V30 2432 H 224.863 -1.20723 3.6811 0
M  V30 2433 H 225.277 0.372601 5.23175 0
M  V30 2434 H 226.751 -1.33302 5.35663 0
M  V30 2435 H 227.228 -2.11296 3.85033 0
M  V30 2436 H 227.834 -0.483373 4.22544 0
M  V30 2437 N 226.149 -1.5696 0.141893 0
M  V30 2438 C 227.097 -2.17784 -0.816874 0
M  V30 2439 C 228.091 -1.1334 -1.25899 0
M  V30 2440 O 229.297 -1.316 -1.22806 0
M  V30 2441 H 225.672 -0.697278 -0.281615 0
M  V30 2442 H 227.643 -2.97087 -0.279621 0
M  V30 2443 C 226.392 -2.80983 -2.04802 0
M  V30 2444 H 225.715 -3.61062 -1.7168 0
M  V30 2445 H 227.155 -3.2705 -2.69841 0
M  V30 2446 C 225.614 -1.79228 -2.8527 0
M  V30 2447 O 226.144 -1.25962 -3.8144 0
M  V30 2448 N 224.35 -1.48647 -2.49704 0
M  V30 2449 H 223.897 -1.92155 -1.71564 0
M  V30 2450 H 223.855 -0.808115 -3.03837 0
M  V30 2451 N 227.627 0.131896 -1.57047 0
M  V30 2452 C 228.56 1.19236 -1.94571 0
M  V30 2453 C 229.538 1.40782 -0.813576 0
M  V30 2454 O 230.722 1.55148 -1.07058 0
M  V30 2455 C 227.849 2.54858 -2.23081 0
M  V30 2456 C 226.895 2.49817 -3.45679 0
M  V30 2457 S 227.728 1.95036 -4.98719 0
M  V30 2458 C 228.884 3.32357 -5.30367 0
M  V30 2459 H 229.117 0.872297 -2.84215 0
M  V30 2460 H 226.65 0.338134 -1.50652 0
M  V30 2461 H 228.608 3.32898 -2.40185 0
M  V30 2462 H 227.269 2.84047 -1.34074 0
M  V30 2463 H 226.462 3.49688 -3.62952 0
M  V30 2464 H 226.064 1.79892 -3.27895 0
M  V30 2465 H 228.356 4.28525 -5.2476 0
M  V30 2466 H 229.299 3.19923 -6.31708 0
M  V30 2467 H 229.707 3.3019 -4.57859 0
M  V30 2468 N 229.106 1.52395 0.401703 0
M  V30 2469 C 230.334 1.70676 1.16949 0
M  V30 2470 C 230.749 0.419503 1.8408 0
M  V30 2471 O 230.106 -0.605061 1.72178 0
M  V30 2472 C 230.157 2.84753 2.22706 0
M  V30 2473 O 229.878 4.08495 1.58314 0
M  V30 2474 C 231.379 3.14608 3.12309 0
M  V30 2475 H 228.599 0.571787 0.351142 0
M  V30 2476 H 231.143 1.98987 0.471652 0
M  V30 2477 H 229.298 2.58941 2.88147 0
M  V30 2478 H 229.712 4.72117 2.28485 0
M  V30 2479 H 231.186 3.97923 3.82572 0
M  V30 2480 H 231.663 2.28464 3.75101 0
M  V30 2481 H 232.269 3.42212 2.52529 0
M  V30 2482 N 230.584 -0.659388 1.43143 0
M  V30 2483 C 231.83 -1.42145 1.44647 0
M  V30 2484 C 232.163 -1.9408 0.0681907 0
M  V30 2485 O 231.438 -1.71899 -0.910007 0
M  V30 2486 C 231.721 -2.60735 2.48373 0
M  V30 2487 C 231.574 -2.14332 3.95451 0
M  V30 2488 C 232.893 -3.62951 2.48906 0
M  V30 2489 H 230.012 -0.51552 0.526696 0
M  V30 2490 H 232.654 -0.748069 1.74654 0
M  V30 2491 H 230.804 -3.18184 2.22916 0
M  V30 2492 H 232.476 -1.61932 4.31944 0
M  V30 2493 H 230.719 -1.4576 4.08578 0
M  V30 2494 H 231.39 -2.99583 4.63631 0
M  V30 2495 H 233.866 -3.1525 2.71582 0
M  V30 2496 H 232.742 -4.43487 3.23435 0
M  V30 2497 H 233.003 -4.15126 1.52061 0
M  V30 2498 N 232.062 -1.29571 -0.897171 0
M  V30 2499 C 233.287 -1.20705 -1.68656 0
M  V30 2500 C 233.712 0.228582 -1.86706 0
M  V30 2501 O 233.07 1.16494 -1.3892 0
M  V30 2502 C 233.118 -1.9282 -3.04717 0
M  V30 2503 O 232.222 -1.24697 -3.93096 0
M  V30 2504 H 231.563 -0.418126 -0.515816 0
M  V30 2505 H 234.093 -1.71183 -1.12061 0
M  V30 2506 H 234.103 -2.01372 -3.54843 0
M  V30 2507 H 232.778 -2.97239 -2.90899 0
M  V30 2508 H 231.355 -1.2442 -3.51531 0
M  V30 2509 N 233.54 1.10788 -1.12088 0
M  V30 2510 C 234.503 2.15207 -0.788577 0
M  V30 2511 C 235.503 1.59609 0.195317 0
M  V30 2512 O 236.693 1.74174 -0.0300193 0
M  V30 2513 C 233.825 3.4047 -0.171174 0
M  V30 2514 H 235.018 2.46116 -1.71368 0
M  V30 2515 H 232.571 1.26089 -0.923652 0
M  V30 2516 H 233.306 3.15176 0.763832 0
M  V30 2517 H 233.091 3.82109 -0.879514 0
M  V30 2518 H 234.581 4.17576 0.04496 0
M  V30 2519 N 235.018 0.912232 1.28515 0
M  V30 2520 C 236.267 0.540504 1.94323 0
M  V30 2521 C 236.58 -0.920044 1.72611 0
M  V30 2522 O 237.786 -1.39986 2.32629 0
M  V30 2523 C 236.242 0.915803 3.48053 0
M  V30 2524 C 235.85 2.39598 3.78546 0
M  V30 2525 C 237.594 0.614588 4.20027 0
M  V30 2526 C 235.501 2.71148 5.25578 0
M  V30 2527 H 234.431 0.198418 0.727424 0
M  V30 2528 H 237.082 1.11094 1.46049 0
M  V30 2529 H 235.464 0.274168 3.9505 0
M  V30 2530 H 236.638 3.08422 3.42364 0
M  V30 2531 H 234.953 2.66749 3.1974 0
M  V30 2532 H 237.55 0.827002 5.28266 0
M  V30 2533 H 237.893 -0.447531 4.13887 0
M  V30 2534 H 238.426 1.21462 3.78803 0
M  V30 2535 H 235.165 3.76207 5.36794 0
M  V30 2536 H 234.685 2.0696 5.62963 0
M  V30 2537 H 236.364 2.58072 5.93302 0
M  V30 2538 N 236.496 -1.42363 0.676048 0
M  V30 2539 C 237.912 -1.55811 0.345718 0
M  V30 2540 C 238.112 -1.65544 -1.14879 0
M  V30 2541 O 237.168 -1.62306 -1.93424 0
M  V30 2542 C 238.481 -2.80746 1.07713 0
M  V30 2543 C 240.029 -2.9452 1.05958 0
M  V30 2544 C 240.504 -4.22318 1.77233 0
M  V30 2545 N 241.995 -4.29233 1.74108 0
M  V30 2546 C 242.73 -5.26935 2.26113 0
M  V30 2547 N 242.226 -6.30783 2.86505 0
M  V30 2548 N 244.019 -5.18741 2.1648 0
M  V30 2549 H 236.17 -1.34289 1.6456 0
M  V30 2550 H 238.433 -0.646506 0.69335 0
M  V30 2551 H 238.139 -2.79696 2.13221 0
M  V30 2552 H 238.013 -3.71676 0.64316 0
M  V30 2553 H 240.4 -2.95097 0.0128255 0
M  V30 2554 H 240.481 -2.04817 1.53244 0
M  V30 2555 H 240.125 -4.22502 2.81877 0
M  V30 2556 H 240.055 -5.10958 1.27396 0
M  V30 2557 H 242.546 -3.54814 1.30059 0
M  V30 2558 H 242.859 -7.01691 3.23805 0
M  V30 2559 H 241.204 -6.31341 2.90575 0
M  V30 2560 H 244.395 -4.36533 1.68987 0
M  V30 2561 H 244.568 -5.94721 2.57316 0
M  V30 2562 N 237.974 -0.419461 -1.51915 0
M  V30 2563 C 239.221 0.152939 -2.01922 0
M  V30 2564 C 239.549 1.4426 -1.30458 0
M  V30 2565 O 238.804 1.91514 -0.402593 0
M  V30 2566 C 239.103 0.437067 -3.54717 0
M  V30 2567 C 238.769 -0.764632 -4.44369 0
M  V30 2568 C 237.431 -1.09423 -4.68594 0
M  V30 2569 C 239.783 -1.56713 -4.97082 0
M  V30 2570 C 237.111 -2.22732 -5.42777 0
M  V30 2571 C 239.463 -2.69107 -5.72507 0
M  V30 2572 C 238.127 -3.02541 -5.95 0
M  V30 2573 H 237.397 0.0559644 -0.738884 0
M  V30 2574 H 240.044 -0.562998 -1.83037 0
M  V30 2575 H 238.349 1.23469 -3.71837 0
M  V30 2576 H 240.046 0.893083 -3.90928 0
M  V30 2577 H 236.636 -0.497775 -4.257 0
M  V30 2578 H 240.82 -1.32571 -4.78266 0
M  V30 2579 H 236.076 -2.48971 -5.58411 0
M  V30 2580 H 240.25 -3.31671 -6.12346 0
M  V30 2581 H 237.877 -3.90457 -6.52264 0
M  V30 2582 N 239.452 1.56882 -0.150215 0
M  V30 2583 C 240.382 2.19935 0.784284 0
M  V30 2584 C 241.363 1.14854 1.25469 0
M  V30 2585 O 242.548 1.43209 1.31168 0
M  V30 2586 C 239.678 2.82349 2.02229 0
M  V30 2587 C 238.632 3.93285 1.68853 0
M  V30 2588 C 237.958 4.42649 2.99944 0
M  V30 2589 C 239.258 5.13904 0.932714 0
M  V30 2590 H 240.952 2.9828 0.258781 0
M  V30 2591 H 238.498 1.43473 0.123029 0
M  V30 2592 H 240.451 3.25126 2.68088 0
M  V30 2593 H 239.175 2.0134 2.57157 0
M  V30 2594 H 237.834 3.5113 1.05371 0
M  V30 2595 H 237.482 3.58458 3.52869 0
M  V30 2596 H 237.182 5.17476 2.78374 0
M  V30 2597 H 238.706 4.88099 3.66868 0
M  V30 2598 H 240.12 5.53506 1.49345 0
M  V30 2599 H 238.517 5.94515 0.81684 0
M  V30 2600 H 239.587 4.84842 -0.0749568 0
M  V30 2601 N 240.93 -0.123565 1.57115 0
M  V30 2602 C 241.877 -1.15177 2.00007 0
M  V30 2603 C 242.847 -1.41403 0.871454 0
M  V30 2604 O 244.032 -1.53346 1.13533 0
M  V30 2605 C 241.172 -2.47436 2.40561 0
M  V30 2606 C 240.285 -2.28184 3.66819 0
M  V30 2607 C 239.42 -3.53641 3.96373 0
M  V30 2608 C 238.459 -3.29528 5.15827 0
M  V30 2609 N 237.596 -4.47175 5.41275 0
M  V30 2610 H 242.436 -0.779008 2.87638 0
M  V30 2611 H 239.973 -0.373166 1.42288 0
M  V30 2612 H 241.931 -3.24584 2.62109 0
M  V30 2613 H 240.561 -2.82614 1.55978 0
M  V30 2614 H 239.613 -1.41976 3.52912 0
M  V30 2615 H 240.925 -2.0634 4.5412 0
M  V30 2616 H 240.079 -4.39209 4.18545 0
M  V30 2617 H 238.818 -3.78512 3.07538 0
M  V30 2618 H 237.823 -2.42349 4.93505 0
M  V30 2619 H 239.048 -3.06031 6.06236 0
M  V30 2620 H 236.994 -4.72175 4.55397 0
M  V30 2621 H 236.911 -4.28419 6.22891 0
M  V30 2622 H 238.179 -5.3389 5.67963 0
M  V30 2623 N 242.408 -1.52605 -0.393616 0
M  V30 2624 C 243.636 -1.71294 -1.16043 0
M  V30 2625 C 244.051 -0.429259 -1.83855 0
M  V30 2626 O 243.408 0.595921 -1.72496 0
M  V30 2627 C 243.459 -2.8593 -2.21193 0
M  V30 2628 O 243.18 -4.09329 -1.56146 0
M  V30 2629 C 244.681 -3.16259 -3.10636 0
M  V30 2630 H 241.901 -0.573641 -0.348104 0
M  V30 2631 H 244.445 -1.99234 -0.461092 0
M  V30 2632 H 242.6 -2.60465 -2.86769 0
M  V30 2633 H 243.014 -4.73323 -2.25978 0
M  V30 2634 H 244.488 -3.99946 -3.80456 0
M  V30 2635 H 244.965 -2.3045 -3.73884 0
M  V30 2636 H 245.571 -3.43547 -2.50711 0
M  V30 2637 N 243.887 0.651787 -1.4349 0
M  V30 2638 C 244.817 1.77621 -1.51569 0
M  V30 2639 C 245.798 1.66022 -0.370253 0
M  V30 2640 O 246.983 1.85095 -0.587658 0
M  V30 2641 C 244.113 3.16056 -1.43966 0
M  V30 2642 C 243.067 3.4242 -2.56774 0
M  V30 2643 C 242.393 4.8067 -2.34223 0
M  V30 2644 C 243.693 3.37023 -3.99015 0
M  V30 2645 H 245.387 1.71117 -2.45681 0
M  V30 2646 H 242.933 0.821825 -1.18246 0
M  V30 2647 H 244.886 3.94472 -1.48221 0
M  V30 2648 H 243.61 3.23293 -0.463586 0
M  V30 2649 H 242.269 2.66375 -2.51873 0
M  V30 2650 H 241.917 4.84585 -1.34856 0
M  V30 2651 H 241.617 4.9927 -3.09844 0
M  V30 2652 H 243.141 5.61342 -2.40265 0
M  V30 2653 H 244.555 4.05374 -4.05395 0
M  V30 2654 H 242.952 3.67159 -4.74673 0
M  V30 2655 H 244.022 2.3518 -4.2405 0
M  V30 2656 N 245.365 1.30045 0.890287 0
M  V30 2657 C 246.781 1.08261 1.17268 0
M  V30 2658 C 246.981 -0.160063 2.00863 0
M  V30 2659 O 246.037 -0.855181 2.37577 0
M  V30 2660 C 247.35 2.34323 1.8845 0
M  V30 2661 C 248.898 2.39735 2.01237 0
M  V30 2662 C 249.373 3.65625 2.7583 0
M  V30 2663 N 250.864 3.66402 2.83379 0
M  V30 2664 C 251.599 4.60498 3.41657 0
M  V30 2665 N 251.095 5.64933 4.01026 0
M  V30 2666 N 252.888 4.48051 3.39421 0
M  V30 2667 H 245.039 2.09777 0.332762 0
M  V30 2668 H 247.302 0.92446 0.209948 0
M  V30 2669 H 247.008 3.2498 1.34465 0
M  V30 2670 H 246.882 2.4256 2.88867 0
M  V30 2671 H 249.269 1.4956 2.54393 0
M  V30 2672 H 249.35 2.35476 0.999232 0
M  V30 2673 H 248.994 4.56156 2.23347 0
M  V30 2674 H 248.924 3.67144 3.77509 0
M  V30 2675 H 251.415 2.90896 2.41222 0
M  V30 2676 H 251.728 6.32841 4.43545 0
M  V30 2677 H 250.073 5.68732 3.99461 0
M  V30 2678 H 253.264 3.65649 2.92264 0
M  V30 2679 H 253.437 5.21565 3.84544 0
M  V30 2680 N 246.843 -1.10192 1.12674 0
M  V30 2681 C 247.806 -2.14786 0.799979 0
M  V30 2682 C 248.806 -1.59711 -0.18685 0
M  V30 2683 O 249.996 -1.74156 0.0392558 0
M  V30 2684 C 247.128 -3.40374 0.189228 0
M  V30 2685 H 248.321 -2.45203 1.72671 0
M  V30 2686 H 245.874 -1.25597 0.930326 0
M  V30 2687 H 246.609 -3.15577 -0.747107 0
M  V30 2688 H 246.394 -3.81637 0.899766 0
M  V30 2689 H 247.884 -4.17594 -0.0228143 0
M  V30 2690 N 248.321 -0.919034 -1.28029 0
M  V30 2691 C 249.569 -0.553838 -1.94363 0
M  V30 2692 C 249.89 0.906357 -1.72656 0
M  V30 2693 O 249.16 1.64143 -1.0693 0
M  V30 2694 H 247.74 -0.201834 -0.719216 0
M  V30 2695 H 250.402 -1.16954 -1.55909 0
M  V30 2696 H 249.498 -0.752758 -3.02886 0
M  V30 2697 N 249.799 1.42003 -0.683588 0
M  V30 2698 C 250.729 2.33487 -0.024866 0
M  V30 2699 C 251.71 1.51163 0.779975 0
M  V30 2700 O 252.895 1.79739 0.735362 0
M  V30 2701 C 250.025 3.3487 0.920836 0
M  V30 2702 C 248.979 4.27414 0.223958 0
M  V30 2703 C 248.305 5.19074 1.2832 0
M  V30 2704 C 249.605 5.14445 -0.90242 0
M  V30 2705 H 251.299 2.88819 -0.788921 0
M  V30 2706 H 248.845 1.38873 -0.38083 0
M  V30 2707 H 250.798 3.97787 1.39081 0
M  V30 2708 H 249.522 2.77861 1.71642 0
M  V30 2709 H 248.181 3.65904 -0.225864 0
M  V30 2710 H 247.829 4.58387 2.071 0
M  V30 2711 H 247.529 5.81822 0.821995 0
M  V30 2712 H 249.053 5.84867 1.75392 0
M  V30 2713 H 250.467 5.70998 -0.513272 0
M  V30 2714 H 248.864 5.86072 -1.28997 0
M  V30 2715 H 249.934 4.52322 -1.74737 0
M  V30 2716 N 251.277 0.427512 1.51691 0
M  V30 2717 C 252.207 -0.3796 2.30394 0
M  V30 2718 C 253.188 -1.02982 1.35384 0
M  V30 2719 O 254.373 -1.03534 1.643 0
M  V30 2720 C 251.503 -1.48649 3.1388 0
M  V30 2721 C 250.457 -0.960294 4.17088 0
M  V30 2722 C 249.783 -2.16219 4.89033 0
M  V30 2723 C 251.083 -0.00153679 5.223 0
M  V30 2724 H 252.777 0.277164 2.98114 0
M  V30 2725 H 250.323 0.134739 1.43368 0
M  V30 2726 H 252.276 -2.05826 3.67714 0
M  V30 2727 H 251 -2.1714 2.43962 0
M  V30 2728 H 249.659 -0.410806 3.64291 0
M  V30 2729 H 249.307 -2.83307 4.15628 0
M  V30 2730 H 249.007 -1.81654 5.58816 0
M  V30 2731 H 250.531 -2.73968 5.45687 0
M  V30 2732 H 251.945 -0.482687 5.71264 0
M  V30 2733 H 250.342 0.256199 5.99553 0
M  V30 2734 H 251.412 0.938174 4.75738 0
M  V30 2735 N 252.755 -1.56801 0.158532 0
M  V30 2736 C 253.665 -2.20916 -0.789518 0
M  V30 2737 C 254.681 -1.1969 -1.26294 0
M  V30 2738 O 255.857 -1.52308 -1.31773 0
M  V30 2739 C 252.922 -2.82727 -2.00665 0
M  V30 2740 C 251.983 -3.99114 -1.58134 0
M  V30 2741 C 251.216 -4.57968 -2.74045 0
M  V30 2742 O 251.439 -4.15704 -3.90572 0
M  V30 2743 O 250.373 -5.48047 -2.48855 0
M  V30 2744 H 254.199 -3.02464 -0.273681 0
M  V30 2745 H 251.784 -1.4924 -0.0690548 0
M  V30 2746 H 253.666 -3.21968 -2.71872 0
M  V30 2747 H 252.341 -2.04184 -2.51179 0
M  V30 2748 H 251.248 -3.64567 -0.839155 0
M  V30 2749 H 252.581 -4.79212 -1.12325 0
M  V30 2750 N 254.233 0.115231 -1.57178 0
M  V30 2751 C 255.644 0.67197 -1.74188 0
M  V30 2752 C 255.995 1.80125 -0.777777 0
M  V30 2753 O 255.12 2.16346 0.0484376 0
M  V30 2754 C 255.715 1.22573 -3.1585 0
M  V30 2755 C 254.274 1.72872 -3.34353 0
M  V30 2756 C 253.421 0.629972 -2.70049 0
M  V30 2757 H 256.372 -0.110712 -1.58313 0
M  V30 2758 H 256.393 2.09535 -3.17609 0
M  V30 2759 H 255.905 0.403598 -3.85996 0
M  V30 2760 H 254.006 2.5755 -2.69256 0
M  V30 2761 H 254.119 1.83557 -4.42542 0
M  V30 2762 H 252.483 1.0645 -2.31388 0
M  V30 2763 H 253.266 -0.181241 -3.42821 0
M  V30 2764 N 255.711 1.52812 0.385517 0
M  V30 2765 C 256.621 1.80766 1.49535 0
M  V30 2766 C 257.637 0.694651 1.59532 0
M  V30 2767 O 258.813 0.982611 1.75803 0
M  V30 2768 C 255.878 1.97381 2.85029 0
M  V30 2769 C 254.939 3.21295 2.84724 0
M  V30 2770 C 254.172 3.37108 4.13756 0
M  V30 2771 O 254.395 2.5765 5.08893 0
M  V30 2772 O 253.329 4.30378 4.20783 0
M  V30 2773 H 257.155 2.75015 1.28842 0
M  V30 2774 H 254.74 1.37946 0.573697 0
M  V30 2775 H 256.622 2.09996 3.65349 0
M  V30 2776 H 255.297 1.06322 3.05741 0
M  V30 2777 H 254.204 3.1412 2.03174 0
M  V30 2778 H 255.537 4.12212 2.68965 0
M  V30 2779 N 257.189 -0.644168 1.43834 0
M  V30 2780 C 258.435 -1.40603 1.46146 0
M  V30 2781 C 258.768 -1.93997 0.0887717 0
M  V30 2782 O 258.043 -1.72854 -0.891724 0
M  V30 2783 C 258.326 -2.58086 2.51124 0
M  V30 2784 C 258.179 -2.10126 3.97702 0
M  V30 2785 C 259.498 -3.60291 2.52742 0
M  V30 2786 H 256.617 -0.509905 0.532134 0
M  V30 2787 H 259.259 -0.729502 1.75437 0
M  V30 2788 H 257.409 -3.15801 2.26278 0
M  V30 2789 H 259.081 -1.57342 4.33637 0
M  V30 2790 H 257.324 -1.41419 4.10101 0
M  V30 2791 H 257.995 -2.94649 4.66783 0
M  V30 2792 H 260.471 -3.12352 2.7491 0
M  V30 2793 H 259.347 -4.40032 3.28121 0
M  V30 2794 H 259.608 -4.1349 1.56455 0
M  V30 2795 N 258.668 -1.30515 -0.883378 0
M  V30 2796 C 259.915 -1.1943 -1.63532 0
M  V30 2797 C 260.243 0.250627 -1.92878 0
M  V30 2798 O 259.498 1.19556 -1.54935 0
M  V30 2799 C 259.797 -1.96994 -2.98209 0
M  V30 2800 C 259.463 -3.466 -2.88408 0
M  V30 2801 C 258.125 -3.87397 -2.85442 0
M  V30 2802 C 260.477 -4.41863 -2.76418 0
M  V30 2803 C 257.805 -5.21745 -2.68327 0
M  V30 2804 C 260.157 -5.7632 -2.60841 0
M  V30 2805 C 258.821 -6.16354 -2.56251 0
M  V30 2806 H 258.091 -0.437025 -0.598406 0
M  V30 2807 H 260.738 -1.61635 -1.02696 0
M  V30 2808 H 259.043 -1.47429 -3.63004 0
M  V30 2809 H 260.74 -1.85808 -3.55354 0
M  V30 2810 H 257.33 -3.14182 -2.91527 0
M  V30 2811 H 261.514 -4.11285 -2.77775 0
M  V30 2812 H 256.77 -5.51853 -2.63189 0
M  V30 2813 H 260.944 -6.49772 -2.50538 0
M  V30 2814 H 258.571 -7.20401 -2.42748 0
M  V30 2815 N 260.146 1.09593 -1.13257 0
M  V30 2816 C 261.096 2.14345 -0.777179 0
M  V30 2817 C 262.08 1.59277 0.227966 0
M  V30 2818 O 263.272 1.76971 0.0321413 0
M  V30 2819 C 260.401 3.42439 -0.242991 0
M  V30 2820 C 259.487 4.04419 -1.27694 0
M  V30 2821 N 259.878 4.40979 -2.47732 0
M  V30 2822 C 258.176 4.31596 -1.12432 0
M  V30 2823 C 258.877 4.89784 -3.13826 0
M  V30 2824 N 257.853 4.87133 -2.41252 0
M  V30 2825 H 261.655 2.40415 -1.69049 0
M  V30 2826 H 259.169 1.26803 -1.01463 0
M  V30 2827 H 261.166 4.16889 0.0298496 0
M  V30 2828 H 259.826 3.17824 0.66467 0
M  V30 2829 H 260.837 4.32396 -2.85051 0
M  V30 2830 H 257.514 4.16595 -0.274684 0
M  V30 2831 H 258.904 5.2755 -4.16102 0
M  V30 2832 N 261.624 0.925811 1.2754 0
M  V30 2833 C 262.554 0.440748 2.29303 0
M  V30 2834 C 263.535 -0.497971 1.62648 0
M  V30 2835 O 264.72 -0.403126 1.8997 0
M  V30 2836 C 261.85 -0.309048 3.45922 0
M  V30 2837 C 260.804 0.54166 4.24559 0
M  V30 2838 C 260.13 -0.337191 5.33636 0
M  V30 2839 C 261.43 1.80516 4.90114 0
M  V30 2840 H 263.124 1.29121 2.70126 0
M  V30 2841 H 260.67 0.622323 1.29858 0
M  V30 2842 H 262.623 -0.659315 4.1621 0
M  V30 2843 H 261.347 -1.19352 3.04011 0
M  V30 2844 H 260.006 0.874609 3.56014 0
M  V30 2845 H 259.654 -1.22056 4.87966 0
M  V30 2846 H 259.354 0.228497 5.87156 0
M  V30 2847 H 260.878 -0.683072 6.06767 0
M  V30 2848 H 262.292 1.52307 5.52698 0
M  V30 2849 H 260.689 2.3142 5.53683 0
M  V30 2850 H 261.759 2.52581 4.13921 0
M  V30 2851 N 263.102 -1.41638 0.69111 0
M  V30 2852 C 264.05 -2.32597 0.0115199 0
M  V30 2853 C 265.044 -1.5072 -0.773296 0
M  V30 2854 O 266.25 -1.66685 -0.67942 0
M  V30 2855 H 262.625 -0.751849 -0.0150746 0
M  V30 2856 H 264.596 -2.87593 0.795791 0
M  V30 2857 C 263.345 -3.35467 -0.914172 0
M  V30 2858 H 262.668 -3.9852 -0.319687 0
M  V30 2859 H 264.108 -4.01662 -1.35808 0
M  V30 2860 C 262.567 -2.69004 -2.02826 0
M  V30 2861 O 263.097 -2.53444 -3.11655 0
M  V30 2862 N 261.303 -2.2777 -1.80469 0
M  V30 2863 H 260.85 -2.40626 -0.919615 0
M  V30 2864 H 260.808 -1.83635 -2.55197 0
M  V30 2865 N 264.58 -0.43555 -1.51462 0
M  V30 2866 C 265.991 0.0279871 -1.86679 0
M  V30 2867 C 266.342 1.42104 -1.35281 0
M  V30 2868 O 265.467 2.04667 -0.702878 0
M  V30 2869 C 266.062 0.0575626 -3.38751 0
M  V30 2870 C 264.621 0.465507 -3.7351 0
M  V30 2871 C 263.768 -0.342996 -2.75171 0
M  V30 2872 H 266.719 -0.651473 -1.44712 0
M  V30 2873 H 266.74 0.867421 -3.70481 0
M  V30 2874 H 266.252 -0.956448 -3.7613 0
M  V30 2875 H 264.353 1.48519 -3.41721 0
M  V30 2876 H 264.466 0.191546 -4.78717 0
M  V30 2877 H 262.83 0.198442 -2.53926 0
M  V30 2878 H 263.613 -1.35585 -3.15391 0
M  V30 2879 N 266.058 1.56714 -0.166846 0
M  V30 2880 C 267.021 2.16539 0.751232 0
M  V30 2881 C 268.021 1.11228 1.16125 0
M  V30 2882 O 269.211 1.36765 1.07894 0
M  V30 2883 C 266.343 2.74462 2.02196 0
M  V30 2884 H 267.536 2.99013 0.230499 0
M  V30 2885 H 265.089 1.56081 0.0826982 0
M  V30 2886 H 265.824 1.95709 2.58589 0
M  V30 2887 H 265.609 3.51527 1.73698 0
M  V30 2888 H 267.099 3.20489 2.67725 0
M  V30 2889 N 267.536 -0.106894 1.57237 0
M  V30 2890 C 268.483 -1.13049 2.01217 0
M  V30 2891 C 269.453 -1.40471 0.886403 0
M  V30 2892 O 270.638 -1.52133 1.15153 0
M  V30 2893 C 267.778 -2.4487 2.43172 0
M  V30 2894 C 266.891 -2.24281 3.69218 0
M  V30 2895 C 266.026 -3.49417 4.00101 0
M  V30 2896 C 265.065 -3.24038 5.19294 0
M  V30 2897 N 264.202 -4.41409 5.45988 0
M  V30 2898 H 269.042 -0.748456 2.88448 0
M  V30 2899 H 266.579 -0.358054 1.42676 0
M  V30 2900 H 268.537 -3.21786 2.65537 0
M  V30 2901 H 267.167 -2.80944 1.58967 0
M  V30 2902 H 266.219 -1.38224 3.54398 0
M  V30 2903 H 267.531 -2.01512 4.56283 0
M  V30 2904 H 266.685 -4.34746 4.2318 0
M  V30 2905 H 265.424 -3.75229 3.11535 0
M  V30 2906 H 264.429 -2.37102 4.96047 0
M  V30 2907 H 265.654 -2.99584 6.09447 0
M  V30 2908 H 263.6 -4.67319 4.60379 0
M  V30 2909 H 263.517 -4.21788 6.274 0
M  V30 2910 H 264.785 -5.27836 5.73593 0
M  V30 2911 N 269.014 -1.53014 -0.377408 0
M  V30 2912 C 270.239 -1.72818 -1.14668 0
M  V30 2913 C 270.664 -0.450725 -1.8262 0
M  V30 2914 O 270.022 0.59439 -1.7128 0
M  V30 2915 C 270.07 -2.88627 -2.16164 0
M  V30 2916 O 269.174 -2.56409 -3.22998 0
M  V30 2917 H 268.515 -0.574301 -0.333278 0
M  V30 2918 H 271.045 -1.99853 -0.438152 0
M  V30 2919 H 271.055 -3.14455 -2.59966 0
M  V30 2920 H 269.73 -3.81294 -1.66095 0
M  V30 2921 H 268.307 -2.4136 -2.84253 0
M  V30 2922 N 270.492 0.636531 -1.44174 0
M  V30 2923 C 271.769 1.39463 -1.37148 0
M  V30 2924 C 272.149 2.11082 -0.027507 0
M  V30 2925 O 271.497 2.05954 0.989716 0
M  V30 2926 C 271.707 2.36552 -2.56601 0
M  V30 2927 C 273.055 3.00048 -3.00427 0
M  V30 2928 O 274.079 2.46878 -2.56767 0
M  V30 2929 O 272.938 3.96488 -3.76111 0
M  V30 2930 H 270.032 0.623903 -0.542839 0
M  V30 2931 H 272.578 0.662039 -1.56253 0
M  V30 2932 H 271.35 1.82692 -3.46034 0
M  V30 2933 H 270.973 3.17236 -2.39681 0
M  V30 2934 N 271.97 1.30982 0.876444 0
M  V30 2935 C 273.198 1.23242 1.6619 0
M  V30 2936 C 273.613 -0.203345 1.87702 0
M  V30 2937 O 272.97 -1.13317 1.43057 0
M  V30 2938 C 273.021 1.96623 3.03351 0
M  V30 2939 O 272.742 3.34594 2.82804 0
M  V30 2940 C 274.243 1.95644 3.97792 0
M  V30 2941 H 271.463 0.426126 0.518322 0
M  V30 2942 H 274.007 1.7275 1.09442 0
M  V30 2943 H 272.162 1.50892 3.56806 0
M  V30 2944 H 272.576 3.71873 3.69879 0
M  V30 2945 H 274.05 2.51511 4.91372 0
M  V30 2946 H 274.527 0.937395 4.2908 0
M  V30 2947 H 275.133 2.41225 3.50272 0
M  V30 2948 N 273.449 -1.08991 1.13837 0
M  V30 2949 C 274.698 -1.80631 0.897509 0
M  V30 2950 C 275.011 -1.86872 -0.57777 0
M  V30 2951 O 276.217 -2.54866 -0.935701 0
M  V30 2952 C 274.673 -3.24517 1.55618 0
M  V30 2953 C 274.281 -3.26529 3.0673 0
M  V30 2954 C 276.025 -4.00882 1.3962 0
M  V30 2955 C 273.932 -4.64965 3.65461 0
M  V30 2956 H 272.862 -0.67691 0.332129 0
M  V30 2957 H 275.513 -1.2246 1.3666 0
M  V30 2958 H 273.895 -3.82778 1.01476 0
M  V30 2959 H 275.069 -2.78008 3.67489 0
M  V30 2960 H 273.384 -2.63656 3.22296 0
M  V30 2961 H 275.981 -5.03167 1.80906 0
M  V30 2962 H 276.324 -4.14896 0.341578 0
M  V30 2963 H 276.857 -3.49075 1.90766 0
M  V30 2964 H 273.596 -4.56153 4.70749 0
M  V30 2965 H 273.116 -5.13792 3.09481 0
M  V30 2966 H 274.795 -5.3394 3.654 0
M  V30 2967 N 274.927 -0.932562 -1.27047 0
M  V30 2968 C 276.155 -0.592031 -1.98249 0
M  V30 2969 C 276.57 0.831062 -1.69525 0
M  V30 2970 O 275.927 1.55299 -0.958561 0
M  V30 2971 C 275.978 -0.814279 -3.5221 0
M  V30 2972 O 275.699 -2.18139 -3.7993 0
M  V30 2973 C 277.2 -0.483121 -4.4066 0
M  V30 2974 H 274.42 -0.223896 -0.632544 0
M  V30 2975 H 276.964 -1.25091 -1.61779 0
M  V30 2976 H 275.119 -0.20213 -3.86872 0
M  V30 2977 H 275.533 -2.235 -4.74498 0
M  V30 2978 H 277.007 -0.689298 -5.47679 0
M  V30 2979 H 277.484 0.581546 -4.35333 0
M  V30 2980 H 278.09 -1.07362 -4.11526 0
M  V30 2981 N 276.405 1.4127 -0.698611 0
M  V30 2982 C 277.652 2.0118 -0.230865 0
M  V30 2983 C 277.98 1.55338 1.17049 0
M  V30 2984 O 277.235 0.756775 1.80475 0
M  V30 2985 C 277.534 3.56592 -0.240192 0
M  V30 2986 C 277.2 4.21955 -1.58948 0
M  V30 2987 C 275.862 4.39524 -1.95887 0
M  V30 2988 C 278.214 4.58576 -2.47704 0
M  V30 2989 C 275.542 4.90992 -3.2116 0
M  V30 2990 C 277.894 5.11435 -3.72313 0
M  V30 2991 C 276.558 5.27215 -4.0939 0
M  V30 2992 H 275.828 0.736169 -0.0844796 0
M  V30 2993 H 278.475 1.69124 -0.8983 0
M  V30 2994 H 276.78 3.88456 0.510797 0
M  V30 2995 H 278.477 4.00758 0.139296 0
M  V30 2996 H 275.067 4.08657 -1.29219 0
M  V30 2997 H 279.251 4.44654 -2.20445 0
M  V30 2998 H 274.507 5.01393 -3.49878 0
M  V30 2999 H 278.681 5.38752 -4.4127 0
M  V30 3000 H 276.308 5.66859 -5.06533 0
M  V30 3001 N 277.883 0.443576 1.51229 0
M  V30 3002 C 278.83 -0.364716 2.279 0
M  V30 3003 C 279.8 -1.0114 1.31757 0
M  V30 3004 O 280.985 -1.02912 1.60667 0
M  V30 3005 C 278.125 -1.45644 3.12861 0
M  V30 3006 C 277.238 -0.827269 4.24005 0
M  V30 3007 C 276.373 -1.89456 4.96266 0
M  V30 3008 C 275.412 -1.24416 5.99322 0
M  V30 3009 N 274.549 -2.25309 6.64966 0
M  V30 3010 H 279.389 0.295464 2.96532 0
M  V30 3011 H 276.926 0.157554 1.46254 0
M  V30 3012 H 278.884 -2.10076 3.6045 0
M  V30 3013 H 277.514 -2.08616 2.46331 0
M  V30 3014 H 276.566 -0.0710839 3.80334 0
M  V30 3015 H 277.878 -0.312481 4.9782 0
M  V30 3016 H 277.032 -2.61535 5.47434 0
M  V30 3017 H 275.771 -2.4431 4.22095 0
M  V30 3018 H 274.776 -0.508868 5.4744 0
M  V30 3019 H 276.001 -0.702882 6.75453 0
M  V30 3020 H 273.947 -2.79231 5.93604 0
M  V30 3021 H 273.864 -1.78739 7.34567 0
M  V30 3022 H 275.132 -2.96853 7.20763 0
M  V30 3023 N 279.361 -1.56624 0.175154 0
M  V30 3024 C 280.777 -1.58571 -0.180966 0
M  V30 3025 C 280.977 -1.19065 -1.6256 0
M  V30 3026 O 280.033 -0.904044 -2.35761 0
M  V30 3027 C 281.346 -3.00522 0.103326 0
M  V30 3028 C 282.894 -3.12972 0.0418426 0
M  V30 3029 C 283.369 -4.57022 0.299175 0
M  V30 3030 N 284.86 -4.62541 0.247086 0
M  V30 3031 C 285.595 -5.71857 0.420318 0
M  V30 3032 N 285.091 -6.89717 0.652816 0
M  V30 3033 N 286.884 -5.60972 0.355957 0
M  V30 3034 H 279.035 -1.80589 1.11809 0
M  V30 3035 H 281.298 -0.837178 0.444788 0
M  V30 3036 H 281.004 -3.33916 1.10422 0
M  V30 3037 H 280.878 -3.72344 -0.603299 0
M  V30 3038 H 283.265 -2.79403 -0.949636 0
M  V30 3039 H 283.346 -2.43578 0.781238 0
M  V30 3040 H 282.99 -4.913 1.28788 0
M  V30 3041 H 282.92 -5.24579 -0.460876 0
M  V30 3042 H 285.411 -3.77829 0.0731895 0
M  V30 3043 H 285.724 -7.68911 0.774347 0
M  V30 3044 H 284.069 -6.91572 0.689476 0
M  V30 3045 H 287.26 -4.67773 0.174882 0
M  V30 3046 H 287.433 -6.46111 0.494388 0
M  V30 3047 N 280.839 0.0985539 -1.57292 0
M  V30 3048 C 281.769 1.12064 -2.04851 0
M  V30 3049 C 282.75 1.41981 -0.936767 0
M  V30 3050 O 283.935 1.52071 -1.20781 0
M  V30 3051 C 281.065 2.44144 -2.47004 0
M  V30 3052 C 280.019 2.28643 -3.6181 0
M  V30 3053 C 279.345 3.65869 -3.89929 0
M  V30 3054 C 280.645 1.72986 -4.92822 0
M  V30 3055 H 282.339 0.724979 -2.9049 0
M  V30 3056 H 279.885 0.34729 -1.39749 0
M  V30 3057 H 281.838 3.15914 -2.78884 0
M  V30 3058 H 280.562 2.85639 -1.5836 0
M  V30 3059 H 279.221 1.59318 -3.30172 0
M  V30 3060 H 278.869 4.04885 -2.98458 0
M  V30 3061 H 278.569 3.56344 -4.67218 0
M  V30 3062 H 280.093 4.39112 -4.2428 0
M  V30 3063 H 281.507 2.34593 -5.23105 0
M  V30 3064 H 279.904 1.74229 -5.74251 0
M  V30 3065 H 280.974 0.689007 -4.7998 0
M  V30 3066 N 282.317 1.53212 0.369288 0
M  V30 3067 C 283.566 1.68436 1.10961 0
M  V30 3068 C 283.879 0.440738 1.9057 0
M  V30 3069 O 285.085 0.473446 2.6734 0
M  V30 3070 C 283.541 2.97744 2.0218 0
M  V30 3071 C 283.149 4.29355 1.279 0
M  V30 3072 C 284.893 3.22334 2.76226 0
M  V30 3073 C 282.8 5.49755 2.17999 0
M  V30 3074 H 281.73 0.627568 0.41794 0
M  V30 3075 H 284.381 1.79713 0.370884 0
M  V30 3076 H 282.763 2.8026 2.79768 0
M  V30 3077 H 283.937 4.57458 0.554007 0
M  V30 3078 H 282.252 4.11179 0.657311 0
M  V30 3079 H 284.849 4.09471 3.43857 0
M  V30 3080 H 285.192 2.38238 3.41392 0
M  V30 3081 H 285.725 3.40475 2.05723 0
M  V30 3082 H 282.464 6.36318 1.57417 0
M  V30 3083 H 281.984 5.25937 2.88359 0
M  V30 3084 H 283.663 5.84401 2.77641 0
M  V30 3085 N 283.795 -0.628877 1.44509 0
M  V30 3086 C 285.211 -0.947305 1.28446 0
M  V30 3087 C 285.411 -2.00275 0.221872 0
M  V30 3088 O 284.467 -2.49447 -0.391471 0
M  V30 3089 C 285.78 -1.40843 2.65676 0
M  V30 3090 C 287.328 -1.52379 2.73404 0
M  V30 3091 C 287.803 -2.01875 4.11109 0
M  V30 3092 N 289.294 -2.09142 4.13296 0
M  V30 3093 C 290.029 -2.48615 5.16699 0
M  V30 3094 N 289.525 -2.87209 6.30462 0
M  V30 3095 N 291.318 -2.48768 5.04054 0
M  V30 3096 H 283.469 0.0690977 2.12288 0
M  V30 3097 H 285.732 -0.0317164 0.947469 0
M  V30 3098 H 285.438 -0.707206 3.44516 0
M  V30 3099 H 285.312 -2.37902 2.92716 0
M  V30 3100 H 287.699 -2.21598 1.9488 0
M  V30 3101 H 287.78 -0.536898 2.50102 0
M  V30 3102 H 287.424 -1.3325 4.90109 0
M  V30 3103 H 287.354 -3.0144 4.31789 0
M  V30 3104 H 289.845 -1.81991 3.31191 0
M  V30 3105 H 290.158 -3.16149 7.05174 0
M  V30 3106 H 288.503 -2.84955 6.33897 0
M  V30 3107 H 291.694 -2.18009 4.14234 0
M  V30 3108 H 291.867 -2.79207 5.84763 0
M  V30 3109 N 285.273 -1.31445 -0.869486 0
M  V30 3110 C 286.52 -1.21158 -1.62256 0
M  V30 3111 C 286.848 0.230155 -1.93133 0
M  V30 3112 O 286.103 1.17906 -1.56194 0
M  V30 3113 C 286.402 -2.00145 -2.96102 0
M  V30 3114 C 286.068 -3.4964 -2.84715 0
M  V30 3115 C 284.73 -3.90403 -2.81317 0
M  V30 3116 C 287.082 -4.44769 -2.71716 0
M  V30 3117 C 284.41 -5.24561 -2.62778 0
M  V30 3118 C 286.762 -5.79054 -2.54714 0
M  V30 3119 C 285.426 -6.19037 -2.49699 0
M  V30 3120 H 284.696 -0.443348 -0.593737 0
M  V30 3121 H 287.343 -1.62715 -1.00976 0
M  V30 3122 H 285.648 -1.5127 -3.6142 0
M  V30 3123 H 287.345 -1.89566 -3.53363 0
M  V30 3124 H 283.935 -3.17256 -2.88178 0
M  V30 3125 H 288.119 -4.14208 -2.73397 0
M  V30 3126 H 283.375 -5.54613 -2.57321 0
M  V30 3127 H 287.549 -6.52393 -2.43632 0
M  V30 3128 H 285.176 -7.22935 -2.35093 0
M  V30 3129 N 286.751 1.08385 -1.14413 0
M  V30 3130 C 287.997 1.81044 -0.913834 0
M  V30 3131 C 288.33 1.86004 0.558209 0
M  V30 3132 O 287.605 1.33606 1.4135 0
M  V30 3133 C 287.888 3.26648 -1.51569 0
M  V30 3134 C 287.741 3.29895 -3.0576 0
M  V30 3135 C 289.06 4.23629 -1.19273 0
M  V30 3136 H 286.179 0.65727 -0.333414 0
M  V30 3137 H 288.821 1.26896 -1.41412 0
M  V30 3138 H 286.971 3.72889 -1.09023 0
M  V30 3139 H 288.643 2.91977 -3.57137 0
M  V30 3140 H 286.886 2.69163 -3.40197 0
M  V30 3141 H 287.557 4.32516 -3.42977 0
M  V30 3142 H 290.033 3.85727 -1.56057 0
M  V30 3143 H 288.909 5.23822 -1.64017 0
M  V30 3144 H 289.17 4.41968 -0.108068 0
M  V30 3145 N 288.23 0.939286 1.26551 0
M  V30 3146 C 289.641 0.628782 1.75793 0
M  V30 3147 C 289.992 -0.856046 1.7654 0
M  V30 3148 O 289.117 -1.66994 1.3763 0
M  V30 3149 C 289.712 1.13465 3.19235 0
M  V30 3150 C 288.271 0.874601 3.66098 0
M  V30 3151 C 287.418 1.28667 2.45642 0
M  V30 3152 H 290.369 1.1178 1.12654 0
M  V30 3153 H 290.39 0.487609 3.77363 0
M  V30 3154 H 289.902 2.21535 3.1866 0
M  V30 3155 H 288.003 -0.191793 3.72106 0
M  V30 3156 H 288.116 1.50028 4.55004 0
M  V30 3157 H 286.48 0.705109 2.44745 0
M  V30 3158 H 287.263 2.37625 2.47769 0
M  V30 3159 N 289.708 -1.40897 0.706093 0
M  V30 3160 C 290.933 -2.05895 0.249435 0
M  V30 3161 C 291.358 -1.52823 -1.09666 0
M  V30 3162 O 290.716 -0.659589 -1.68876 0
M  V30 3163 C 290.764 -3.59872 0.22904 0
M  V30 3164 O 289.868 -4.04708 -0.792784 0
M  V30 3165 H 289.209 -0.653206 0.119241 0
M  V30 3166 H 291.739 -1.80471 0.96391 0
M  V30 3167 H 291.749 -4.07951 0.0634791 0
M  V30 3168 H 290.424 -3.97866 1.21141 0
M  V30 3169 H 289.001 -3.68111 -0.59572 0
M  V30 3170 N 291.186 -0.45159 -1.50991 0
M  V30 3171 C 292.411 0.110667 -2.07105 0
M  V30 3172 C 292.836 1.3446 -1.31538 0
M  V30 3173 O 292.194 1.77743 -0.357365 0
M  V30 3174 C 292.242 0.397238 -3.58405 0
M  V30 3175 O 291.346 1.48124 -3.84881 0
M  V30 3176 H 290.687 -0.00439271 -0.663985 0
M  V30 3177 H 293.217 -0.637026 -1.9443 0
M  V30 3178 H 293.227 0.64351 -4.02893 0
M  V30 3179 H 291.902 -0.504553 -4.12828 0
M  V30 3180 H 290.479 1.22381 -3.52246 0
M  V30 3181 N 292.664 1.56529 -0.183458 0
M  V30 3182 C 293.594 2.21549 0.737456 0
M  V30 3183 C 294.575 1.17489 1.23005 0
M  V30 3184 O 295.76 1.45959 1.281 0
M  V30 3185 C 292.89 2.86575 1.96194 0
M  V30 3186 C 291.844 3.96778 1.60473 0
M  V30 3187 C 291.17 4.48911 2.90487 0
M  V30 3188 C 292.47 5.15767 0.823497 0
M  V30 3189 H 294.164 2.98761 0.195453 0
M  V30 3190 H 291.71 1.43702 0.0925686 0
M  V30 3191 H 293.663 3.30739 2.61131 0
M  V30 3192 H 292.387 2.06749 2.52828 0
M  V30 3193 H 291.046 3.53286 0.978997 0
M  V30 3194 H 290.694 3.65862 3.45186 0
M  V30 3195 H 290.394 5.23265 2.67335 0
M  V30 3196 H 291.918 4.95771 3.56432 0
M  V30 3197 H 293.332 5.56549 1.37571 0
M  V30 3198 H 291.729 5.96114 0.690551 0
M  V30 3199 H 292.799 4.84574 -0.177782 0
M  V30 3200 N 294.142 -0.090211 1.57342 0
M  V30 3201 C 295.367 -0.810082 1.90925 0
M  V30 3202 C 295.792 -1.71248 0.778187 0
M  V30 3203 O 295.15 -1.79278 -0.269991 0
M  V30 3204 C 295.198 -1.59529 3.23393 0
M  V30 3205 O 294.302 -2.70461 3.11327 0
M  V30 3206 H 293.643 -0.222231 0.625707 0
M  V30 3207 H 296.173 -0.0639716 2.045 0
M  V30 3208 H 296.183 -1.97847 3.5682 0
M  V30 3209 H 294.858 -0.933055 4.05299 0
M  V30 3210 H 293.435 -2.35135 2.89423 0
M  V30 3211 N 295.62 -1.53406 -0.361157 0
M  V30 3212 C 296.866 -1.70999 -1.1014 0
M  V30 3213 C 297.221 -0.458425 -1.86859 0
M  V30 3214 O 296.514 0.548654 -1.83577 0
M  V30 3215 C 296.708 -2.90211 -2.08596 0
M  V30 3216 C 296.537 -4.26841 -1.41553 0
M  V30 3217 C 295.307 -4.91621 -1.16778 0
M  V30 3218 C 297.505 -5.07212 -0.850915 0
M  V30 3219 N 295.487 -6.12164 -0.461312 0
M  V30 3220 C 296.858 -6.19394 -0.274046 0
M  V30 3221 C 298.913 -4.92218 -0.750036 0
M  V30 3222 C 297.616 -7.18221 0.393868 0
M  V30 3223 C 299.642 -5.91322 -0.095894 0
M  V30 3224 C 299.004 -7.0283 0.470081 0
M  V30 3225 H 295.103 -0.678939 -0.388028 0
M  V30 3226 H 297.687 -1.90811 -0.38722 0
M  V30 3227 H 295.858 -2.71931 -2.77323 0
M  V30 3228 H 297.59 -2.96606 -2.7533 0
M  V30 3229 H 294.345 -4.50849 -1.45024 0
M  V30 3230 H 294.769 -6.76888 -0.123312 0
M  V30 3231 H 299.411 -4.06192 -1.17337 0
M  V30 3232 H 297.129 -8.03835 0.82914 0
M  V30 3233 H 300.715 -5.81797 -0.0187075 0
M  V30 3234 H 299.595 -7.782 0.968241 0
M  V30 3235 N 297.098 0.621204 -1.44841 0
M  V30 3236 C 298.328 1.40548 -1.51426 0
M  V30 3237 C 298.736 1.88673 -0.141083 0
M  V30 3238 O 298.079 1.62053 0.865128 0
M  V30 3239 C 298.141 2.65325 -2.42576 0
M  V30 3240 C 297.805 2.3893 -3.89566 0
M  V30 3241 C 298.802 2.00138 -4.79834 0
M  V30 3242 C 296.487 2.52263 -4.3436 0
M  V30 3243 C 298.481 1.75021 -6.129 0
M  V30 3244 C 296.168 2.2676 -5.67471 0
M  V30 3245 C 297.166 1.88199 -6.56559 0
M  V30 3246 O 296.854 1.62986 -7.87204 0
M  V30 3247 H 296.586 0.437122 -0.515655 0
M  V30 3248 H 299.14 0.765987 -1.90583 0
M  V30 3249 H 297.37 3.31947 -1.98364 0
M  V30 3250 H 299.059 3.27347 -2.39998 0
M  V30 3251 H 299.825 1.89386 -4.46495 0
M  V30 3252 H 295.704 2.81246 -3.65269 0
M  V30 3253 H 299.248 1.44848 -6.82396 0
M  V30 3254 H 295.145 2.37125 -6.00368 0
M  V30 3255 H 295.913 1.7715 -7.991 0
M  V30 3256 N 298.576 1.31904 0.862503 0
M  V30 3257 C 299.824 1.21776 1.61292 0
M  V30 3258 C 300.145 -0.222413 1.93727 0
M  V30 3259 O 299.415 -1.1451 1.58947 0
M  V30 3260 H 297.995 0.447717 0.597962 0
M  V30 3261 H 300.657 1.65326 1.03215 0
M  V30 3262 H 299.753 1.7948 2.5533 0
M  V30 3263 N 300.054 -1.07777 1.14986 0
M  V30 3264 C 301.017 -2.13041 0.845358 0
M  V30 3265 C 302.017 -1.60071 -0.152931 0
M  V30 3266 O 303.207 -1.74033 0.0761879 0
M  V30 3267 C 300.339 -3.39896 0.261383 0
M  V30 3268 H 301.532 -2.41485 1.77834 0
M  V30 3269 H 299.085 -1.23595 0.956757 0
M  V30 3270 H 299.82 -3.17091 -0.68 0
M  V30 3271 H 299.605 -3.79642 0.980514 0
M  V30 3272 H 301.095 -4.17548 0.0657687 0
M  V30 3273 N 301.532 -0.945985 -1.26051 0
M  V30 3274 C 302.762 -0.612136 -1.97323 0
M  V30 3275 C 303.17 0.818171 -1.70595 0
M  V30 3276 O 302.513 1.55777 -0.973613 0
M  V30 3277 C 302.575 -0.780347 -3.50929 0
M  V30 3278 C 302.239 -2.18619 -4.01317 0
M  V30 3279 C 303.236 -3.16209 -4.12683 0
M  V30 3280 C 300.921 -2.50805 -4.35203 0
M  V30 3281 C 302.915 -4.44085 -4.57238 0
M  V30 3282 C 300.602 -3.78912 -4.79446 0
M  V30 3283 C 301.6 -4.75365 -4.90425 0
M  V30 3284 O 301.288 -6.01191 -5.3369 0
M  V30 3285 H 301.02 -0.229134 -0.635982 0
M  V30 3286 H 303.574 -1.27036 -1.61404 0
M  V30 3287 H 301.804 -0.0649864 -3.86645 0
M  V30 3288 H 303.493 -0.448842 -4.03411 0
M  V30 3289 H 304.259 -2.92668 -3.86744 0
M  V30 3290 H 300.138 -1.76463 -4.2589 0
M  V30 3291 H 303.682 -5.19373 -4.65723 0
M  V30 3292 H 299.579 -4.02265 -5.0483 0
M  V30 3293 H 300.347 -6.04442 -5.51899 0
M  V30 3294 N 303.011 1.40521 -0.713556 0
M  V30 3295 C 303.941 2.33381 -0.0743864 0
M  V30 3296 C 304.922 1.52784 0.747735 0
M  V30 3297 O 306.107 1.81258 0.697071 0
M  V30 3298 C 303.237 3.36748 0.849598 0
M  V30 3299 C 302.191 4.27793 0.133247 0
M  V30 3300 C 301.517 5.21679 1.17281 0
M  V30 3301 C 302.817 5.12415 -1.01134 0
M  V30 3302 H 304.511 2.87081 -0.850007 0
M  V30 3303 H 302.057 1.38034 -0.410201 0
M  V30 3304 H 304.01 4.00648 1.30612 0
M  V30 3305 H 302.734 2.81439 1.65709 0
M  V30 3306 H 301.393 3.65342 -0.303426 0
M  V30 3307 H 301.041 4.62677 1.9733 0
M  V30 3308 H 300.741 5.83435 0.698397 0
M  V30 3309 H 302.265 5.88456 1.62947 0
M  V30 3310 H 303.679 5.69781 -0.634274 0
M  V30 3311 H 302.076 5.83203 -1.41399 0
M  V30 3312 H 303.146 4.48514 -1.84292 0
M  V30 3313 N 304.489 0.459591 1.5075 0
M  V30 3314 C 305.735 -0.0994966 2.02556 0
M  V30 3315 C 306.068 -1.40399 1.3417 0
M  V30 3316 O 305.343 -1.88892 0.463683 0
M  V30 3317 C 305.626 -0.295242 3.58888 0
M  V30 3318 C 305.479 1.02947 4.37861 0
M  V30 3319 C 306.798 -1.05502 4.27267 0
M  V30 3320 H 303.917 -0.034686 0.736183 0
M  V30 3321 H 306.559 0.602938 1.8018 0
M  V30 3322 H 304.709 -0.893563 3.78084 0
M  V30 3323 H 306.381 1.66348 4.30263 0
M  V30 3324 H 304.624 1.62885 4.02058 0
M  V30 3325 H 305.295 0.846281 5.45474 0
M  V30 3326 H 307.771 -0.547993 4.12476 0
M  V30 3327 H 306.647 -1.16077 5.36486 0
M  V30 3328 H 306.908 -2.08875 3.89645 0
M  V30 3329 N 305.967 -1.56429 0.191757 0
M  V30 3330 C 306.915 -2.20273 -0.747174 0
M  V30 3331 C 307.909 -1.17288 -1.22229 0
M  V30 3332 O 309.115 -1.35441 -1.18557 0
M  V30 3333 H 305.49 -0.705885 -0.259289 0
M  V30 3334 H 307.461 -2.97826 -0.184963 0
M  V30 3335 C 306.21 -2.87356 -1.95759 0
M  V30 3336 H 305.533 -3.66341 -1.60106 0
M  V30 3337 H 306.973 -3.3547 -2.59299 0
M  V30 3338 C 305.432 -1.88213 -2.79423 0
M  V30 3339 O 305.962 -1.38033 -3.7724 0
M  V30 3340 N 304.168 -1.56516 -2.44849 0
M  V30 3341 H 303.715 -1.97516 -1.65364 0
M  V30 3342 H 303.673 -0.904369 -3.01112 0
M  V30 3343 N 307.445 0.0818655 -1.57387 0
M  V30 3344 C 308.408 1.08265 -2.02018 0
M  V30 3345 C 309.408 1.32183 -0.915664 0
M  V30 3346 O 310.598 1.28073 -1.18081 0
M  V30 3347 C 307.73 2.42871 -2.39221 0
M  V30 3348 H 308.923 0.698204 -2.91659 0
M  V30 3349 H 306.476 0.327303 -1.52835 0
M  V30 3350 H 307.211 2.86167 -1.52575 0
M  V30 3351 H 306.996 2.26855 -3.19811 0
M  V30 3352 H 308.486 3.14826 -2.74362 0
M  V30 3353 N 308.923 1.53595 0.353017 0
M  V30 3354 C 310.153 1.74058 1.11299 0
M  V30 3355 C 310.561 0.475205 1.83135 0
M  V30 3356 O 309.904 -0.562344 1.74881 0
M  V30 3357 C 309.966 2.85994 2.17825 0
M  V30 3358 C 309.63 4.25923 1.65647 0
M  V30 3359 C 310.627 5.07829 1.11383 0
M  V30 3360 C 308.312 4.72377 1.7078 0
M  V30 3361 C 310.306 6.34285 0.629439 0
M  V30 3362 C 307.993 5.98808 1.21953 0
M  V30 3363 C 308.991 6.79594 0.681265 0
M  V30 3364 O 308.679 8.03651 0.200248 0
M  V30 3365 H 308.411 0.585327 0.338183 0
M  V30 3366 H 310.965 2.01186 0.413927 0
M  V30 3367 H 309.195 2.54368 2.91262 0
M  V30 3368 H 310.884 2.94515 2.79313 0
M  V30 3369 H 311.65 4.73107 1.06746 0
M  V30 3370 H 307.529 4.0956 2.11617 0
M  V30 3371 H 311.073 6.97288 0.208636 0
M  V30 3372 H 306.97 6.33026 1.26287 0
M  V30 3373 H 307.738 8.1788 0.318416 0
M  V30 3374 N 310.401 -0.613514 1.45168 0
M  V30 3375 C 311.812 -1.19539 1.43413 0
M  V30 3376 C 312.163 -1.95558 0.158632 0
M  V30 3377 O 311.288 -2.0335 -0.740119 0
M  V30 3378 C 311.883 -2.17445 2.59813 0
M  V30 3379 C 310.442 -2.71022 2.61197 0
M  V30 3380 C 309.589 -1.46323 2.35552 0
M  V30 3381 H 312.54 -0.403163 1.53494 0
M  V30 3382 H 312.561 -3.00373 2.33574 0
M  V30 3383 H 312.073 -1.62089 3.52631 0
M  V30 3384 H 310.174 -3.30332 1.7237 0
M  V30 3385 H 310.287 -3.15859 3.60236 0
M  V30 3386 H 308.651 -1.75072 1.84992 0
M  V30 3387 H 309.434 -0.92844 3.30507 0
M  V30 3388 N 311.879 -1.3236 -0.855495 0
M  V30 3389 C 312.809 -1.23833 -1.97958 0
M  V30 3390 C 313.79 -0.122361 -1.69659 0
M  V30 3391 O 314.975 -0.30939 -1.9172 0
M  V30 3392 C 312.105 -0.959772 -3.33775 0
M  V30 3393 C 311.059 -2.03689 -3.76424 0
M  V30 3394 C 310.385 -1.61075 -5.09862 0
M  V30 3395 C 311.685 -3.4518 -3.9198 0
M  V30 3396 H 313.379 -2.1788 -2.0535 0
M  V30 3397 H 310.925 -1.04891 -0.986605 0
M  V30 3398 H 312.878 -0.886678 -4.11966 0
M  V30 3399 H 311.602 0.0163404 -3.26596 0
M  V30 3400 H 310.261 -2.10012 -3.00484 0
M  V30 3401 H 309.909 -0.622107 -4.99138 0
M  V30 3402 H 309.609 -2.33143 -5.39368 0
M  V30 3403 H 311.133 -1.55201 -5.90546 0
M  V30 3404 H 312.547 -3.4145 -4.60526 0
M  V30 3405 H 310.944 -4.1559 -4.32903 0
M  V30 3406 H 312.014 -3.84903 -2.94919 0
M  V30 3407 N 313.357 1.07166 -1.15556 0
M  V30 3408 C 314.634 1.76546 -0.842069 0
M  V30 3409 C 315.014 2.00453 0.661939 0
M  V30 3410 O 314.362 1.62452 1.60691 0
M  V30 3411 C 314.572 3.07266 -1.65495 0
M  V30 3412 C 315.92 3.81578 -1.86234 0
M  V30 3413 O 316.944 3.17083 -1.62287 0
M  V30 3414 O 315.803 4.97419 -2.26355 0
M  V30 3415 H 312.897 0.766756 -0.309862 0
M  V30 3416 H 315.443 1.13514 -1.26145 0
M  V30 3417 H 314.215 2.85494 -2.67598 0
M  V30 3418 H 313.838 3.7803 -1.23203 0
M  V30 3419 N 314.835 0.952656 1.25548 0
M  V30 3420 C 315.768 0.415525 2.24385 0
M  V30 3421 C 316.746 -0.502046 1.54655 0
M  V30 3422 O 317.93 -0.436875 1.83368 0
M  V30 3423 C 315.057 -0.401734 3.36309 0
M  V30 3424 C 314.103 0.455949 4.24056 0
M  V30 3425 S 314.936 1.88698 5.01152 0
M  V30 3426 C 316.092 1.07809 6.16545 0
M  V30 3427 H 316.325 1.25315 2.69599 0
M  V30 3428 H 313.858 0.756587 1.34592 0
M  V30 3429 H 315.816 -0.867329 4.01233 0
M  V30 3430 H 314.477 -1.21416 2.89684 0
M  V30 3431 H 313.67 -0.170776 5.03711 0
M  V30 3432 H 313.272 0.856675 3.64056 0
M  V30 3433 H 315.564 0.325816 6.76716 0
M  V30 3434 H 316.507 1.84849 6.83547 0
M  V30 3435 H 316.915 0.60909 5.61204 0
M  V30 3436 N 316.313 -1.40141 0.720998 0
M  V30 3437 C 317.538 -2.05618 0.271258 0
M  V30 3438 C 317.963 -1.53978 -1.08039 0
M  V30 3439 O 317.321 -0.677463 -1.68167 0
M  V30 3440 C 317.369 -3.59609 0.267197 0
M  V30 3441 O 316.473 -4.05526 -0.749814 0
M  V30 3442 H 315.814 -0.651904 0.126162 0
M  V30 3443 H 318.344 -1.79439 0.982997 0
M  V30 3444 H 318.354 -4.0786 0.106744 0
M  V30 3445 H 317.029 -3.96559 1.25354 0
M  V30 3446 H 315.606 -3.68722 -0.556644 0
M  V30 3447 N 317.792 -0.46758 -1.50504 0
M  V30 3448 C 318.724 0.364655 -2.26281 0
M  V30 3449 C 319.737 0.960151 -1.31472 0
M  V30 3450 O 320.926 0.849153 -1.57008 0
M  V30 3451 C 318.026 1.52509 -3.02645 0
M  V30 3452 C 317.199 1.04302 -4.24782 0
M  V30 3453 C 316.258 2.07709 -4.8347 0
M  V30 3454 O 315.284 1.65913 -5.44483 0
M  V30 3455 N 316.486 3.40485 -4.70159 0
M  V30 3456 H 319.251 -0.28495 -2.98342 0
M  V30 3457 H 316.812 -0.298163 -1.59131 0
M  V30 3458 H 318.804 2.21371 -3.38787 0
M  V30 3459 H 317.374 2.07945 -2.33404 0
M  V30 3460 H 316.594 0.180393 -3.93787 0
M  V30 3461 H 317.882 0.698798 -5.03978 0
M  V30 3462 H 317.28 3.77155 -4.21629 0
M  V30 3463 H 315.837 4.05156 -5.1058 0
M  V30 3464 N 319.27 1.56325 -0.20005 0
M  V30 3465 C 320.5 2.01811 0.442232 0
M  V30 3466 C 320.908 1.07932 1.55394 0
M  V30 3467 O 320.251 0.0772685 1.83537 0
M  V30 3468 C 320.313 3.43685 1.05457 0
M  V30 3469 C 319.977 4.56928 0.0809833 0
M  V30 3470 C 320.974 5.15009 -0.711471 0
M  V30 3471 C 318.659 5.0229 -0.0315364 0
M  V30 3472 C 320.653 6.16904 -1.60336 0
M  V30 3473 C 318.34 6.04028 -0.926981 0
M  V30 3474 C 319.338 6.6121 -1.71146 0
M  V30 3475 O 319.026 7.60971 -2.59189 0
M  V30 3476 H 318.758 0.666173 0.114848 0
M  V30 3477 H 321.312 2.03085 -0.307511 0
M  V30 3478 H 319.542 3.39413 1.85299 0
M  V30 3479 H 321.231 3.72948 1.60201 0
M  V30 3480 H 321.997 4.80827 -0.634873 0
M  V30 3481 H 317.876 4.57476 0.568902 0
M  V30 3482 H 321.42 6.61464 -2.21611 0
M  V30 3483 H 317.317 6.37634 -1.00468 0
M  V30 3484 H 318.085 7.7841 -2.53023 0
M  V30 3485 N 320.748 -0.0735177 1.57428 0
M  V30 3486 C 321.995 -0.772999 1.87166 0
M  V30 3487 C 322.323 -1.77665 0.791551 0
M  V30 3488 O 321.578 -1.94541 -0.212636 0
M  V30 3489 C 321.877 -1.51799 3.23561 0
M  V30 3490 C 321.543 -0.654484 4.46125 0
M  V30 3491 C 320.205 -0.416511 4.79394 0
M  V30 3492 C 322.557 -0.0555862 5.2117 0
M  V30 3493 C 319.885 0.429869 5.85123 0
M  V30 3494 C 322.237 0.778239 6.27795 0
M  V30 3495 C 320.901 1.0261 6.59566 0
M  V30 3496 H 320.171 -0.282861 0.684888 0
M  V30 3497 H 322.818 -0.0338272 1.9147 0
M  V30 3498 H 321.123 -2.32932 3.1504 0
M  V30 3499 H 322.82 -2.06397 3.43804 0
M  V30 3500 H 319.41 -0.850091 4.20085 0
M  V30 3501 H 323.594 -0.226558 4.95783 0
M  V30 3502 H 318.85 0.630665 6.08139 0
M  V30 3503 H 323.024 1.24906 6.85107 0
M  V30 3504 H 320.651 1.68371 7.4132 0
M  V30 3505 N 322.226 -1.5378 -0.344866 0
M  V30 3506 C 323.642 -1.44015 -0.687888 0
M  V30 3507 C 323.842 -0.595834 -1.92489 0
M  V30 3508 O 322.898 -0.0863064 -2.52352 0
M  V30 3509 C 324.211 -2.87481 -0.881758 0
M  V30 3510 C 325.759 -2.97247 -0.980459 0
M  V30 3511 C 326.234 -4.41819 -1.20665 0
M  V30 3512 N 327.725 -4.45339 -1.27389 0
M  V30 3513 C 328.46 -5.54333 -1.46639 0
M  V30 3514 N 327.956 -6.73335 -1.63071 0
M  V30 3515 N 329.749 -5.41944 -1.49176 0
M  V30 3516 H 321.9 -2.07169 0.468475 0
M  V30 3517 H 324.163 -0.93643 0.147655 0
M  V30 3518 H 323.869 -3.51672 -0.0443444 0
M  V30 3519 H 323.743 -3.32352 -1.78388 0
M  V30 3520 H 326.13 -2.33197 -1.8084 0
M  V30 3521 H 326.211 -2.5574 -0.0552713 0
M  V30 3522 H 325.855 -5.06449 -0.383652 0
M  V30 3523 H 325.785 -4.80917 -2.14539 0
M  V30 3524 H 328.276 -3.59585 -1.1622 0
M  V30 3525 H 328.589 -7.52165 -1.77391 0
M  V30 3526 H 326.934 -6.76282 -1.60209 0
M  V30 3527 H 330.125 -4.47932 -1.3592 0
M  V30 3528 H 330.298 -6.26946 -1.63837 0
M  V30 3529 N 323.704 0.605807 -1.45491 0
M  V30 3530 C 324.634 1.72709 -1.57143 0
M  V30 3531 C 325.615 1.6476 -0.422884 0
M  V30 3532 O 326.8 1.83132 -0.646247 0
M  V30 3533 C 323.93 3.11316 -1.53948 0
M  V30 3534 C 322.884 3.34077 -2.67537 0
M  V30 3535 C 322.21 4.72975 -2.49397 0
M  V30 3536 C 323.51 3.24158 -4.09535 0
M  V30 3537 H 325.204 1.63214 -2.51001 0
M  V30 3538 H 322.75 0.78379 -1.208 0
M  V30 3539 H 324.703 3.89557 -1.60696 0
M  V30 3540 H 323.427 3.21655 -0.566205 0
M  V30 3541 H 322.086 2.58227 -2.6022 0
M  V30 3542 H 321.734 4.8005 -1.50205 0
M  V30 3543 H 321.434 4.8916 -3.25571 0
M  V30 3544 H 322.958 5.53414 -2.58002 0
M  V30 3545 H 324.372 3.92271 -4.18086 0
M  V30 3546 H 322.769 3.51872 -4.86113 0
M  V30 3547 H 323.839 2.2157 -4.31317 0
M  V30 3548 N 325.182 1.32811 0.848464 0
M  V30 3549 C 326.429 1.23724 1.60308 0
M  V30 3550 C 326.757 -0.1994 1.93475 0
M  V30 3551 O 326.012 -1.15406 1.5805 0
M  V30 3552 C 326.311 2.04831 2.92881 0
M  V30 3553 C 325.977 3.54125 2.79117 0
M  V30 3554 C 324.639 3.94829 2.7507 0
M  V30 3555 C 326.991 4.49036 2.64606 0
M  V30 3556 C 324.319 5.28675 2.544 0
M  V30 3557 C 326.671 5.83033 2.4547 0
M  V30 3558 C 325.335 6.22931 2.39819 0
M  V30 3559 H 324.605 0.452737 0.586609 0
M  V30 3560 H 327.252 1.64301 0.983743 0
M  V30 3561 H 325.557 1.57001 3.58968 0
M  V30 3562 H 327.254 1.95164 3.50303 0
M  V30 3563 H 323.844 3.21801 2.83094 0
M  V30 3564 H 328.028 4.18505 2.66772 0
M  V30 3565 H 323.284 5.58637 2.48465 0
M  V30 3566 H 327.458 6.56186 2.33222 0
M  V30 3567 H 325.085 7.26584 2.23562 0
M  V30 3568 N 326.66 -1.06551 1.16123 0
M  V30 3569 C 327.608 -2.16063 0.861371 0
M  V30 3570 C 328.602 -1.6856 -0.168517 0
M  V30 3571 O 329.808 -1.79986 -0.0227579 0
M  V30 3572 H 326.183 -0.705278 0.260934 0
M  V30 3573 H 328.154 -2.38567 1.79244 0
M  V30 3574 C 326.903 -3.45661 0.376018 0
M  V30 3575 H 326.226 -3.82604 1.15992 0
M  V30 3576 H 327.666 -4.23504 0.204951 0
M  V30 3577 C 326.125 -3.24546 -0.903954 0
M  V30 3578 O 326.655 -3.49865 -1.97377 0
M  V30 3579 N 324.861 -2.77992 -0.846679 0
M  V30 3580 H 324.408 -2.57589 0.0241017 0
M  V30 3581 H 324.366 -2.64244 -1.70359 0
M  V30 3582 N 328.138 -0.959301 -1.25041 0
M  V30 3583 C 329.363 -0.633507 -1.97488 0
M  V30 3584 C 329.788 0.788555 -1.70773 0
M  V30 3585 O 329.146 1.53394 -0.966431 0
M  V30 3586 C 329.194 -0.904057 -3.49083 0
M  V30 3587 O 328.298 0.0147939 -4.12397 0
M  V30 3588 H 327.639 -0.240368 -0.618966 0
M  V30 3589 H 330.169 -1.28717 -1.59038 0
M  V30 3590 H 330.179 -0.832203 -3.99423 0
M  V30 3591 H 328.854 -1.94048 -3.67856 0
M  V30 3592 H 327.431 -0.109664 -3.72739 0
M  V30 3593 N 329.616 1.39756 -0.72842 0
M  V30 3594 C 330.844 2.04948 -0.283528 0
M  V30 3595 C 331.259 1.54908 1.0793 0
M  V30 3596 O 330.616 0.711135 1.68075 0
M  V30 3597 C 330.667 3.60498 -0.268957 0
M  V30 3598 O 330.388 4.08695 -1.57798 0
M  V30 3599 C 331.889 4.4288 0.192912 0
M  V30 3600 H 329.109 0.659243 -0.125056 0
M  V30 3601 H 331.653 1.78927 -0.990226 0
M  V30 3602 H 329.808 3.85444 0.388801 0
M  V30 3603 H 330.222 5.02977 -1.48709 0
M  V30 3604 H 331.696 5.51791 0.151952 0
M  V30 3605 H 332.173 4.21418 1.23708 0
M  V30 3606 H 332.779 4.23069 -0.435039 0
M  V30 3607 N 331.094 0.475555 1.50254 0
M  V30 3608 C 332.51 0.12997 1.5907 0
M  V30 3609 C 332.71 -1.36385 1.48328 0
M  V30 3610 O 331.766 -2.13754 1.34407 0
M  V30 3611 C 333.079 0.684139 2.92814 0
M  V30 3612 C 334.627 0.647965 3.0622 0
M  V30 3613 C 335.102 1.17975 4.42545 0
M  V30 3614 N 336.593 1.13936 4.48969 0
M  V30 3615 C 337.328 1.52129 5.52851 0
M  V30 3616 N 336.824 1.97793 6.63965 0
M  V30 3617 N 338.617 1.43704 5.4342 0
M  V30 3618 H 330.768 1.44706 1.55479 0
M  V30 3619 H 333.031 0.598691 0.735033 0
M  V30 3620 H 332.737 1.73079 3.06164 0
M  V30 3621 H 332.611 0.130204 3.76975 0
M  V30 3622 H 334.998 -0.38979 2.92514 0
M  V30 3623 H 335.079 1.23876 2.23805 0
M  V30 3624 H 334.723 2.21616 4.57 0
M  V30 3625 H 334.653 0.565138 5.23559 0
M  V30 3626 H 337.144 0.804488 3.69238 0
M  V30 3627 H 337.457 2.25072 7.39299 0
M  V30 3628 H 335.802 2.01749 6.65073 0
M  V30 3629 H 338.993 1.07867 4.55502 0
M  V30 3630 H 339.166 1.73794 6.24259 0
M  V30 3631 N 332.573 -1.56217 0.208337 0
M  V30 3632 C 333.503 -2.22694 -0.702116 0
M  V30 3633 C 334.484 -1.19432 -1.2112 0
M  V30 3634 O 335.669 -1.47978 -1.25762 0
M  V30 3635 C 332.799 -2.8966 -1.9161 0
M  V30 3636 C 331.753 -3.9928 -1.5414 0
M  V30 3637 C 331.079 -4.53476 -2.83308 0
M  V30 3638 C 332.379 -5.17012 -0.741339 0
M  V30 3639 H 334.073 -2.99034 -0.147898 0
M  V30 3640 H 331.619 -1.43831 -0.0696951 0
M  V30 3641 H 333.572 -3.34852 -2.55836 0
M  V30 3642 H 332.296 -2.10746 -2.49507 0
M  V30 3643 H 330.955 -3.54799 -0.922668 0
M  V30 3644 H 330.603 -3.71308 -3.39322 0
M  V30 3645 H 330.303 -5.27451 -2.58976 0
M  V30 3646 H 331.827 -5.01378 -3.485 0
M  V30 3647 H 333.241 -5.58667 -1.28699 0
M  V30 3648 H 331.638 -5.97137 -0.595627 0
M  V30 3649 H 332.708 -4.8423 0.254851 0
M  V30 3650 N 334.051 0.0651679 -1.57465 0
M  V30 3651 C 335.462 0.616213 -1.76238 0
M  V30 3652 C 335.813 1.7756 -0.834689 0
M  V30 3653 O 334.938 2.1639 -0.0204156 0
M  V30 3654 C 335.533 1.12462 -3.1959 0
M  V30 3655 C 334.092 1.62147 -3.39684 0
M  V30 3656 C 333.239 0.543739 -2.71917 0
M  V30 3657 H 336.19 -0.161022 -1.57881 0
M  V30 3658 H 336.211 1.99324 -3.24114 0
M  V30 3659 H 335.723 0.280592 -3.87084 0
M  V30 3660 H 333.824 2.48854 -2.77313 0
M  V30 3661 H 333.937 1.69385 -4.48158 0
M  V30 3662 H 332.301 0.990352 -2.34657 0
M  V30 3663 H 333.084 -0.290216 -3.42071 0
M  V30 3664 N 335.529 1.53961 0.336706 0
M  V30 3665 C 336.476 1.82428 1.41381 0
M  V30 3666 C 337.446 0.670444 1.51968 0
M  V30 3667 O 338.631 0.915565 1.67398 0
M  V30 3668 C 335.771 2.04564 2.77934 0
M  V30 3669 C 334.884 3.32267 2.76084 0
M  V30 3670 C 334.019 3.44434 4.04399 0
M  V30 3671 C 333.058 4.66061 3.96804 0
M  V30 3672 N 332.195 4.75224 5.16823 0
M  V30 3673 H 337.035 2.74324 1.16405 0
M  V30 3674 H 334.572 1.35869 0.563752 0
M  V30 3675 H 336.53 2.15388 3.57301 0
M  V30 3676 H 335.16 1.15974 3.01247 0
M  V30 3677 H 334.212 3.3025 1.88784 0
M  V30 3678 H 335.524 4.21733 2.66351 0
M  V30 3679 H 334.678 3.54728 4.92192 0
M  V30 3680 H 333.417 2.53037 4.16921 0
M  V30 3681 H 332.422 4.55838 3.07396 0
M  V30 3682 H 333.647 5.58829 3.85858 0
M  V30 3683 H 331.593 3.86739 5.29876 0
M  V30 3684 H 331.51 5.58636 5.09374 0
M  V30 3685 H 332.778 4.89835 6.06367 0
M  V30 3686 N 337.007 -0.598083 1.45811 0
M  V30 3687 C 338.418 -1.18011 1.44673 0
M  V30 3688 C 338.769 -1.95378 0.179364 0
M  V30 3689 O 337.894 -2.04124 -0.718509 0
M  V30 3690 C 338.489 -2.14677 2.62105 0
M  V30 3691 C 337.048 -2.68236 2.64057 0
M  V30 3692 C 336.195 -1.43816 2.37091 0
M  V30 3693 H 339.146 -0.38686 1.53913 0
M  V30 3694 H 339.167 -2.97878 2.36746 0
M  V30 3695 H 338.679 -1.5834 3.5433 0
M  V30 3696 H 336.78 -3.28486 1.75864 0
M  V30 3697 H 336.893 -3.12021 3.63566 0
M  V30 3698 H 335.257 -1.731 1.86838 0
M  V30 3699 H 336.04 -0.893333 3.31473 0
M  V30 3700 N 338.485 -1.33259 -0.841409 0
M  V30 3701 C 339.71 -1.2775 -1.63385 0
M  V30 3702 C 340.135 0.149188 -1.87507 0
M  V30 3703 O 339.493 1.10498 -1.43736 0
M  V30 3704 C 339.541 -2.05571 -2.96265 0
M  V30 3705 O 338.645 -1.41257 -3.87453 0
M  V30 3706 H 337.986 -0.439627 -0.497618 0
M  V30 3707 H 340.516 -1.75782 -1.04699 0
M  V30 3708 H 340.526 -2.16241 -3.45982 0
M  V30 3709 H 339.201 -3.09309 -2.7803 0
M  V30 3710 H 337.778 -1.39217 -3.45938 0
M  V30 3711 N 339.963 1.05934 -1.16686 0
M  V30 3712 C 341.379 1.30938 -0.912542 0
M  V30 3713 C 341.579 1.96803 0.432533 0
M  V30 3714 O 340.635 2.23693 1.17123 0
M  V30 3715 C 341.948 2.18649 -2.06429 0
M  V30 3716 C 343.496 2.32055 -2.10047 0
M  V30 3717 C 343.971 3.23122 -3.24586 0
M  V30 3718 N 345.462 3.30706 -3.24327 0
M  V30 3719 C 346.197 4.01273 -4.09594 0
M  V30 3720 N 345.693 4.74332 -5.04956 0
M  V30 3721 N 347.486 3.97361 -3.97569 0
M  V30 3722 H 339.637 0.615777 -2.03278 0
M  V30 3723 H 341.9 0.334077 -0.887185 0
M  V30 3724 H 341.606 1.77534 -3.03603 0
M  V30 3725 H 341.48 3.19252 -2.00894 0
M  V30 3726 H 343.867 2.72415 -1.13464 0
M  V30 3727 H 343.948 1.31107 -2.19647 0
M  V30 3728 H 343.592 2.83477 -4.2143 0
M  V30 3729 H 343.522 4.24057 -3.12223 0
M  V30 3730 H 346.013 2.78644 -2.55276 0
M  V30 3731 H 346.326 5.25716 -5.6643 0
M  V30 3732 H 344.671 4.733 -5.08933 0
M  V30 3733 H 347.862 3.39405 -3.22369 0
M  V30 3734 H 348.035 4.52089 -4.64241 0
M  V30 3735 N 341.441 0.965919 1.2453 0
M  V30 3736 C 342.718 0.543777 1.87889 0
M  V30 3737 C 343.098 -0.97909 1.87021 0
M  V30 3738 O 342.446 -1.84969 1.3416 0
M  V30 3739 C 342.656 1.13327 3.30088 0
M  V30 3740 C 344.004 1.21707 4.06783 0
M  V30 3741 O 345.028 1.08566 3.39252 0
M  V30 3742 O 343.887 1.42456 5.27606 0
M  V30 3743 H 340.981 0.181054 0.806938 0
M  V30 3744 H 343.527 1.06007 1.32516 0
M  V30 3745 H 342.299 2.17612 3.25209 0
M  V30 3746 H 341.922 0.600911 3.93033 0
M  V30 3747 N 342.919 -1.39368 0.735821 0
M  V30 3748 C 343.829 -2.34395 0.0979693 0
M  V30 3749 C 344.845 -1.58361 -0.720968 0
M  V30 3750 O 346.021 -1.90648 -0.649245 0
M  V30 3751 C 343.086 -3.37393 -0.797916 0
M  V30 3752 C 342.147 -4.29287 0.0333662 0
M  V30 3753 C 341.38 -5.27365 -0.819854 0
M  V30 3754 O 341.603 -5.31959 -2.05855 0
M  V30 3755 O 340.537 -6.01389 -0.248079 0
M  V30 3756 H 344.363 -2.90601 0.882315 0
M  V30 3757 H 341.948 -1.40909 0.4965 0
M  V30 3758 H 343.83 -4.00505 -1.31048 0
M  V30 3759 H 342.505 -2.83571 -1.56106 0
M  V30 3760 H 341.412 -3.69395 0.591475 0
M  V30 3761 H 342.745 -4.86317 0.758752 0
M  V30 3762 N 344.397 -0.483516 -1.5 0
M  V30 3763 C 345.327 0.293829 -2.31644 0
M  V30 3764 C 346.308 0.978864 -1.39112 0
M  V30 3765 O 347.493 0.973644 -1.68029 0
M  V30 3766 C 344.623 1.36897 -3.19181 0
M  V30 3767 C 343.577 0.804833 -4.20365 0
M  V30 3768 C 342.903 1.9792 -4.96721 0
M  V30 3769 C 344.203 -0.192313 -5.21946 0
M  V30 3770 H 345.897 -0.387616 -2.9688 0
M  V30 3771 H 343.443 -0.187856 -1.42769 0
M  V30 3772 H 345.396 1.92037 -3.751 0
M  V30 3773 H 344.12 2.07936 -2.51853 0
M  V30 3774 H 342.779 0.275319 -3.65565 0
M  V30 3775 H 342.427 2.67686 -4.25856 0
M  V30 3776 H 342.127 1.60789 -5.65173 0
M  V30 3777 H 343.651 2.53526 -5.55479 0
M  V30 3778 H 345.065 0.270333 -5.72662 0
M  V30 3779 H 343.462 -0.478543 -5.98189 0
M  V30 3780 H 344.532 -1.11409 -4.71928 0
M  V30 3781 N 345.875 1.56104 -0.216619 0
M  V30 3782 C 347.122 1.98172 0.416416 0
M  V30 3783 C 347.45 1.10413 1.60122 0
M  V30 3784 O 346.705 0.147967 1.9514 0
M  V30 3785 C 347.004 3.45923 0.898464 0
M  V30 3786 C 346.67 4.50559 -0.175288 0
M  V30 3787 C 345.332 4.78897 -0.470271 0
M  V30 3788 C 347.684 5.1334 -0.901728 0
M  V30 3789 C 345.012 5.67299 -1.4963 0
M  V30 3790 C 347.364 6.02853 -1.91705 0
M  V30 3791 C 346.028 6.29537 -2.21901 0
M  V30 3792 H 345.298 0.725164 0.152377 0
M  V30 3793 H 347.945 1.88839 -0.318103 0
M  V30 3794 H 346.25 3.52434 1.71165 0
M  V30 3795 H 347.947 3.75841 1.39803 0
M  V30 3796 H 344.537 4.28551 0.0647806 0
M  V30 3797 H 348.721 4.91521 -0.687072 0
M  V30 3798 H 343.977 5.86239 -1.73592 0
M  V30 3799 H 348.151 6.50552 -2.48505 0
M  V30 3800 H 345.778 6.97835 -3.01548 0
M  V30 3801 N 347.353 -0.0568162 1.57498 0
M  V30 3802 C 348.581 -0.765626 1.92213 0
M  V30 3803 C 348.996 -1.70353 0.813961 0
M  V30 3804 O 348.353 -1.81268 -0.211701 0
M  V30 3805 C 348.404 -1.5465 3.2675 0
M  V30 3806 O 348.125 -0.646278 4.33307 0
M  V30 3807 C 349.626 -2.35497 3.75574 0
M  V30 3808 H 346.846 -0.216835 0.634999 0
M  V30 3809 H 349.39 -0.0226146 2.04487 0
M  V30 3810 H 347.545 -2.24165 3.15957 0
M  V30 3811 H 347.959 -1.19093 5.108 0
M  V30 3812 H 349.433 -2.85722 4.72299 0
M  V30 3813 H 349.91 -3.15692 3.05344 0
M  V30 3814 H 350.516 -1.7111 3.8936 0
M  V30 3815 N 348.832 -1.54138 -0.328536 0
M  V30 3816 C 350.109 -1.62749 -1.08499 0
M  V30 3817 C 350.489 -0.458198 -2.06067 0
M  V30 3818 O 349.837 0.548046 -2.2183 0
M  V30 3819 C 350.047 -2.99519 -1.79135 0
M  V30 3820 C 351.395 -3.55394 -2.32337 0
M  V30 3821 O 352.419 -3.01792 -1.89209 0
M  V30 3822 O 351.278 -4.49186 -3.11279 0
M  V30 3823 H 348.372 -0.65886 -0.499832 0
M  V30 3824 H 350.918 -1.66484 -0.328826 0
M  V30 3825 H 349.69 -3.76061 -1.08139 0
M  V30 3826 H 349.313 -2.99441 -2.61574 0
M  V30 3827 N 350.31 0.590341 -1.46126 0
M  V30 3828 C 351.587 1.35029 -1.41515 0
M  V30 3829 C 351.967 2.10888 -0.0946472 0
M  V30 3830 O 351.315 2.08998 0.923693 0
M  V30 3831 C 351.525 2.28269 -2.63997 0
M  V30 3832 C 352.873 2.90338 -3.09821 0
M  V30 3833 O 353.897 2.38585 -2.64492 0
M  V30 3834 O 352.756 3.84321 -3.88535 0
M  V30 3835 H 349.85 0.606317 -0.562413 0
M  V30 3836 H 352.396 0.611994 -1.58281 0
M  V30 3837 H 351.168 1.71591 -3.51671 0
M  V30 3838 H 350.791 3.0945 -2.49652 0
M  V30 3839 N 351.788 1.33704 0.83433 0
M  V30 3840 C 352.735 1.24335 1.94447 0
M  V30 3841 C 353.705 0.120991 1.65659 0
M  V30 3842 O 354.89 0.300035 1.88426 0
M  V30 3843 C 352.03 0.993124 3.30501 0
M  V30 3844 C 351.143 2.20217 3.71657 0
M  V30 3845 C 350.278 1.88572 4.96602 0
M  V30 3846 C 349.317 3.05683 5.30306 0
M  V30 3847 N 348.454 2.73997 6.46429 0
M  V30 3848 H 353.294 2.1928 2.01792 0
M  V30 3849 H 350.831 1.09035 0.987404 0
M  V30 3850 H 352.789 0.828467 4.08892 0
M  V30 3851 H 351.419 0.0803902 3.227 0
M  V30 3852 H 350.471 2.47642 2.88752 0
M  V30 3853 H 351.783 3.07752 3.92543 0
M  V30 3854 H 350.937 1.68776 5.82752 0
M  V30 3855 H 349.676 0.982799 4.77695 0
M  V30 3856 H 348.681 3.26088 4.42659 0
M  V30 3857 H 349.906 3.96737 5.51159 0
M  V30 3858 H 347.852 1.86268 6.28999 0
M  V30 3859 H 347.769 3.55064 6.67432 0
M  V30 3860 H 349.037 2.57679 7.35678 0
M  V30 3861 N 353.266 -1.05314 1.17247 0
M  V30 3862 C 354.229 -2.112 0.890357 0
M  V30 3863 C 355.229 -1.60359 -0.118943 0
M  V30 3864 O 356.419 -1.73833 0.113086 0
M  V30 3865 C 353.551 -3.39266 0.333422 0
M  V30 3866 H 354.744 -2.37659 1.82916 0
M  V30 3867 H 352.297 -1.21538 0.982758 0
M  V30 3868 H 353.032 -3.18462 -0.612587 0
M  V30 3869 H 352.817 -3.77477 1.06082 0
M  V30 3870 H 354.307 -4.17315 0.154322 0
M  V30 3871 N 354.744 -0.972509 -1.24016 0
M  V30 3872 C 356.16 -0.679827 -1.44397 0
M  V30 3873 C 356.36 0.756716 -1.86751 0
M  V30 3874 O 355.416 1.53007 -2.00861 0
M  V30 3875 C 356.729 -1.66803 -2.50195 0
M  V30 3876 C 358.277 -1.68119 -2.64017 0
M  V30 3877 C 358.752 -2.65748 -3.73017 0
M  V30 3878 N 360.243 -2.64219 -3.8045 0
M  V30 3879 C 360.978 -3.36433 -4.64328 0
M  V30 3880 N 360.474 -4.1818 -5.52356 0
M  V30 3881 N 362.267 -3.25235 -4.58453 0
M  V30 3882 H 354.418 -1.90059 -0.948228 0
M  V30 3883 H 356.681 -0.818527 -0.478245 0
M  V30 3884 H 356.387 -2.69498 -2.25973 0
M  V30 3885 H 356.261 -1.4446 -3.48441 0
M  V30 3886 H 358.648 -0.661319 -2.87594 0
M  V30 3887 H 358.729 -1.94525 -1.66113 0
M  V30 3888 H 358.373 -3.67872 -3.50189 0
M  V30 3889 H 358.303 -2.36619 -4.70446 0
M  V30 3890 H 360.794 -2.04887 -3.17537 0
M  V30 3891 H 361.107 -4.70157 -6.13329 0
M  V30 3892 H 359.452 -4.22273 -5.52006 0
M  V30 3893 H 362.643 -2.60829 -3.88698 0
M  V30 3894 H 362.816 -3.81776 -5.23594 0
M  V30 3895 N 356.222 1.38976 -0.743202 0
M  V30 3896 C 357.172 2.27843 -0.084513 0
M  V30 3897 C 358.156 1.44677 0.704094 0
M  V30 3898 O 359.348 1.67511 0.571755 0
M  V30 3899 C 356.477 3.33466 0.815781 0
M  V30 3900 C 355.563 4.24095 0.0208844 0
M  V30 3901 N 355.954 4.95609 -1.0102 0
M  V30 3902 C 354.252 4.45303 0.249293 0
M  V30 3903 C 354.953 5.62287 -1.49024 0
M  V30 3904 N 353.929 5.37571 -0.807377 0
M  V30 3905 H 357.731 2.80593 -0.87436 0
M  V30 3906 H 355.245 1.51755 -0.578283 0
M  V30 3907 H 357.242 3.96008 1.30321 0
M  V30 3908 H 355.902 2.82276 1.6047 0
M  V30 3909 H 356.913 4.98849 -1.39176 0
M  V30 3910 H 353.59 4.0504 1.01237 0
M  V30 3911 H 354.98 6.29519 -2.34853 0
M  V30 3912 N 357.7 0.491464 1.49741 0
M  V30 3913 C 358.63 -0.28154 2.31796 0
M  V30 3914 C 359.611 -0.971473 1.3963 0
M  V30 3915 O 360.796 -0.964719 1.68543 0
M  V30 3916 C 357.926 -1.35203 3.19902 0
M  V30 3917 C 356.88 -0.782529 4.20786 0
M  V30 3918 C 356.206 -1.95283 4.97764 0
M  V30 3919 C 357.506 0.21999 5.21837 0
M  V30 3920 H 359.2 0.403355 2.96671 0
M  V30 3921 H 356.746 0.195425 1.42668 0
M  V30 3922 H 358.699 -1.90045 3.76113 0
M  V30 3923 H 357.423 -2.06598 2.52953 0
M  V30 3924 H 356.082 -0.255928 3.65706 0
M  V30 3925 H 355.73 -2.65423 4.2727 0
M  V30 3926 H 355.43 -1.57789 5.66018 0
M  V30 3927 H 356.954 -2.50577 5.56816 0
M  V30 3928 H 358.368 -0.23996 5.72798 0
M  V30 3929 H 356.765 0.51026 5.97927 0
M  V30 3930 H 357.835 1.13911 4.7133 0
M  V30 3931 N 359.178 -1.55987 0.224894 0
M  V30 3932 C 360.108 -2.23426 -0.678457 0
M  V30 3933 C 361.089 -1.20709 -1.19847 0
M  V30 3934 O 362.274 -1.49304 -1.24186 0
M  V30 3935 C 359.404 -2.91676 -1.88527 0
M  V30 3936 C 358.358 -4.00893 -1.49896 0
M  V30 3937 C 357.684 -4.56455 -2.78483 0
M  V30 3938 C 358.984 -5.17769 -0.686461 0
M  V30 3939 H 360.678 -2.99175 -0.116173 0
M  V30 3940 H 358.224 -1.43897 -0.054436 0
M  V30 3941 H 360.177 -3.37547 -2.5227 0
M  V30 3942 H 358.901 -2.1338 -2.47258 0
M  V30 3943 H 357.56 -3.55758 -0.884985 0
M  V30 3944 H 357.208 -3.74886 -3.35365 0
M  V30 3945 H 356.908 -5.30169 -2.53368 0
M  V30 3946 H 358.432 -5.05047 -3.43162 0
M  V30 3947 H 359.846 -5.60001 -1.22767 0
M  V30 3948 H 358.243 -5.97735 -0.532259 0
M  V30 3949 H 359.313 -4.83932 0.306196 0
M  V30 3950 N 360.656 0.0484629 -1.57525 0
M  V30 3951 C 361.902 0.744226 -1.88651 0
M  V30 3952 C 362.235 1.76029 -0.820212 0
M  V30 3953 O 361.51 1.93782 0.166985 0
M  V30 3954 C 361.793 1.43128 -3.30434 0
M  V30 3955 C 361.646 0.43005 -4.47739 0
M  V30 3956 C 362.965 2.37031 -3.70816 0
M  V30 3957 H 360.084 0.269089 -0.68612 0
M  V30 3958 H 362.726 0.00713532 -1.89999 0
M  V30 3959 H 360.876 2.05956 -3.29415 0
M  V30 3960 H 362.548 -0.194816 -4.60888 0
M  V30 3961 H 360.791 -0.252522 -4.33064 0
M  V30 3962 H 361.462 0.948874 -5.43783 0
M  V30 3963 H 363.938 1.84263 -3.73077 0
M  V30 3964 H 362.814 2.82094 -4.70865 0
M  V30 3965 H 363.075 3.22864 -3.02012 0
M  V30 3966 N 362.134 1.5431 0.320358 0
M  V30 3967 C 363.064 1.86912 1.3995 0
M  V30 3968 C 364.045 0.726211 1.53819 0
M  V30 3969 O 365.23 0.980233 1.67646 0
M  V30 3970 C 362.36 2.09932 2.7667 0
M  V30 3971 C 361.314 3.25776 2.77586 0
M  V30 3972 C 360.64 3.34173 4.17412 0
M  V30 3973 C 361.94 4.6335 2.41048 0
M  V30 3974 H 363.634 2.77292 1.12914 0
M  V30 3975 H 361.18 1.33421 0.541738 0
M  V30 3976 H 363.133 2.31324 3.52232 0
M  V30 3977 H 361.857 1.16304 3.0519 0
M  V30 3978 H 360.516 3.04276 2.04479 0
M  V30 3979 H 360.164 2.38098 4.43078 0
M  V30 3980 H 359.864 4.12033 4.18931 0
M  V30 3981 H 361.388 3.57803 4.94782 0
M  V30 3982 H 362.802 4.84602 3.06324 0
M  V30 3983 H 361.199 5.43782 2.53813 0
M  V30 3984 H 362.269 4.65381 1.36193 0
M  V30 3985 N 363.613 -0.582584 1.46437 0
M  V30 3986 C 365.029 -0.905962 1.31394 0
M  V30 3987 C 365.229 -1.99468 0.285476 0
M  V30 3988 O 364.285 -2.50566 -0.311914 0
M  V30 3989 C 365.598 -1.3232 2.70022 0
M  V30 3990 C 367.146 -1.43604 2.78113 0
M  V30 3991 C 367.621 -1.88694 4.17323 0
M  V30 3992 N 369.112 -1.95887 4.19741 0
M  V30 3993 C 369.847 -2.32051 5.24347 0
M  V30 3994 N 369.343 -2.67006 6.39281 0
M  V30 3995 N 371.136 -2.32606 5.11713 0
M  V30 3996 H 363.287 0.1366 2.1196 0
M  V30 3997 H 365.55 -0.00155736 0.947999 0
M  V30 3998 H 365.256 -0.597242 3.46592 0
M  V30 3999 H 365.13 -2.28469 3.00136 0
M  V30 4000 H 367.517 -2.15286 2.01832 0
M  V30 4001 H 367.598 -0.457059 2.51684 0
M  V30 4002 H 367.242 -1.1759 4.941 0
M  V30 4003 H 367.172 -2.8755 4.4116 0
M  V30 4004 H 369.663 -1.71362 3.36814 0
M  V30 4005 H 369.976 -2.93554 7.14875 0
M  V30 4006 H 368.321 -2.64644 6.42642 0
M  V30 4007 H 371.512 -2.04721 4.2096 0
M  V30 4008 H 371.685 -2.60462 5.93349 0
M  V30 4009 N 365.091 -1.34144 -0.827227 0
M  V30 4010 C 366.038 -1.25364 -1.93785 0
M  V30 4011 C 367.008 -0.129774 -1.65592 0
M  V30 4012 O 368.193 -0.310024 -1.88264 0
M  V30 4013 C 365.333 -1.01064 -3.2997 0
M  V30 4014 C 364.446 -2.22185 -3.70484 0
M  V30 4015 C 363.581 -1.91203 -4.95595 0
M  V30 4016 C 362.62 -3.08491 -5.28677 0
M  V30 4017 N 361.757 -2.77421 -6.44967 0
M  V30 4018 H 366.597 -2.20347 -2.00627 0
M  V30 4019 H 364.134 -1.09558 -0.981608 0
M  V30 4020 H 366.092 -0.850139 -4.08446 0
M  V30 4021 H 364.722 -0.0975026 -3.22653 0
M  V30 4022 H 363.774 -2.4917 -2.87434 0
M  V30 4023 H 365.086 -3.0983 -3.90905 0
M  V30 4024 H 364.24 -1.71864 -5.81848 0
M  V30 4025 H 362.979 -1.00812 -4.77167 0
M  V30 4026 H 361.984 -3.28431 -4.40923 0
M  V30 4027 H 363.209 -3.99655 -5.49047 0
M  V30 4028 H 361.155 -1.89601 -6.28003 0
M  V30 4029 H 361.072 -3.58598 -6.6554 0
M  V30 4030 H 362.34 -2.61577 -7.34301 0
M  V30 4031 N 366.569 1.04691 -1.17803 0
M  V30 4032 C 367.817 1.7743 -0.967617 0
M  V30 4033 C 368.138 1.88359 0.504574 0
M  V30 4034 O 367.408 1.40402 1.36617 0
M  V30 4035 H 365.988 0.657242 -0.355024 0
M  V30 4036 H 368.65 1.2638 -1.48371 0
M  V30 4037 H 367.746 2.78924 -1.40027 0
M  V30 4038 N 368.047 0.979072 1.23499 0
M  V30 4039 C 368.995 0.510604 2.26926 0
M  V30 4040 C 369.989 -0.431691 1.63807 0
M  V30 4041 O 371.195 -0.30573 1.77385 0
M  V30 4042 H 367.57 0.146688 0.737554 0
M  V30 4043 H 369.541 1.39466 2.63803 0
M  V30 4044 C 368.29 -0.172658 3.47271 0
M  V30 4045 H 367.613 0.543331 3.96091 0
M  V30 4046 H 369.053 -0.464101 4.21452 0
M  V30 4047 C 367.512 -1.40345 3.06276 0
M  V30 4048 O 368.042 -2.49978 3.14442 0
M  V30 4049 N 366.248 -1.27362 2.61203 0
M  V30 4050 H 365.795 -0.381584 2.54758 0
M  V30 4051 H 365.753 -2.09822 2.34141 0
M  V30 4052 N 369.525 -1.3858 0.750561 0
M  V30 4053 C 370.772 -2.00184 0.305373 0
M  V30 4054 C 371.1 -1.59575 -1.11203 0
M  V30 4055 O 370.355 -0.823236 -1.77542 0
M  V30 4056 C 370.654 -3.55455 0.372373 0
M  V30 4057 C 370.32 -4.15765 1.745 0
M  V30 4058 C 368.982 -4.31951 2.12065 0
M  V30 4059 C 371.334 -4.49067 2.64553 0
M  V30 4060 C 368.662 -4.78734 3.39162 0
M  V30 4061 C 371.014 -4.97265 3.91038 0
M  V30 4062 C 369.678 -5.11658 4.28676 0
M  V30 4063 H 368.948 -0.732526 0.111744 0
M  V30 4064 H 371.595 -1.65673 0.960451 0
M  V30 4065 H 369.9 -3.90084 -0.366272 0
M  V30 4066 H 371.597 -4.00999 0.00953918 0
M  V30 4067 H 368.187 -4.03579 1.44297 0
M  V30 4068 H 372.371 -4.36166 2.36796 0
M  V30 4069 H 367.627 -4.88062 3.68246 0
M  V30 4070 H 371.801 -5.22003 4.60962 0
M  V30 4071 H 369.428 -5.47668 5.27222 0
M  V30 4072 N 371.003 -0.499398 -1.49478 0
M  V30 4073 C 372.233 0.0424839 -2.06556 0
M  V30 4074 C 372.641 1.31514 -1.36018 0
M  V30 4075 O 371.984 1.78555 -0.431718 0
M  V30 4076 C 372.046 0.368074 -3.57611 0
M  V30 4077 C 371.71 -0.806631 -4.49825 0
M  V30 4078 C 372.707 -1.69667 -4.91436 0
M  V30 4079 C 370.392 -1.00498 -4.92144 0
M  V30 4080 C 372.386 -2.76923 -5.74101 0
M  V30 4081 C 370.073 -2.08072 -5.74586 0
M  V30 4082 C 371.071 -2.96119 -6.15469 0
M  V30 4083 O 370.759 -4.01836 -6.96264 0
M  V30 4084 H 370.491 -0.0165165 -0.675798 0
M  V30 4085 H 373.045 -0.695497 -1.93267 0
M  V30 4086 H 371.275 1.15963 -3.68903 0
M  V30 4087 H 372.964 0.848381 -3.96935 0
M  V30 4088 H 373.73 -1.55524 -4.59388 0
M  V30 4089 H 369.609 -0.329036 -4.59824 0
M  V30 4090 H 373.153 -3.45676 -6.05932 0
M  V30 4091 H 369.05 -2.22211 -6.06047 0
M  V30 4092 H 369.818 -3.9917 -7.14567 0
M  V30 4093 N 372.481 1.55866 -0.233164 0
M  V30 4094 C 373.73 1.97779 0.39579 0
M  V30 4095 C 374.043 1.12419 1.60066 0
M  V30 4096 O 375.249 1.44283 2.29988 0
M  V30 4097 C 373.705 3.5188 0.755556 0
M  V30 4098 C 373.313 4.45959 -0.427152 0
M  V30 4099 C 375.057 4.02479 1.34946 0
M  V30 4100 C 372.964 5.91383 -0.0443043 0
M  V30 4101 H 371.894 0.738592 0.15165 0
M  V30 4102 H 374.545 1.80486 -0.331212 0
M  V30 4103 H 372.927 3.64816 1.5403 0
M  V30 4104 H 374.101 4.44776 -1.20462 0
M  V30 4105 H 372.416 4.05765 -0.935068 0
M  V30 4106 H 375.013 5.08637 1.649 0
M  V30 4107 H 375.356 3.49014 2.26925 0
M  V30 4108 H 375.889 3.92813 0.62791 0
M  V30 4109 H 372.628 6.48857 -0.930874 0
M  V30 4110 H 372.148 5.95734 0.697238 0
M  V30 4111 H 373.827 6.45893 0.378334 0
M  V30 4112 N 373.959 -0.0401083 1.57549 0
M  V30 4113 C 375.206 -0.733125 1.88763 0
M  V30 4114 C 375.534 -1.75946 0.829058 0
M  V30 4115 O 374.789 -1.94949 -0.171323 0
M  V30 4116 C 375.088 -1.44902 3.26708 0
M  V30 4117 C 374.754 -0.559707 4.47413 0
M  V30 4118 C 373.416 -0.314731 4.8017 0
M  V30 4119 C 375.768 0.0549743 5.21171 0
M  V30 4120 C 373.096 0.553886 5.8408 0
M  V30 4121 C 375.448 0.911229 6.26003 0
M  V30 4122 C 374.112 1.16577 6.57241 0
M  V30 4123 H 373.382 -0.268269 0.690733 0
M  V30 4124 H 376.029 0.00679408 1.91499 0
M  V30 4125 H 374.334 -2.26197 3.1991 0
M  V30 4126 H 376.031 -1.99058 3.48105 0
M  V30 4127 H 372.621 -0.760793 4.21794 0
M  V30 4128 H 376.805 -0.121344 4.96152 0
M  V30 4129 H 372.061 0.759518 6.06664 0
M  V30 4130 H 376.235 1.3941 6.82303 0
M  V30 4131 H 373.862 1.84058 7.37582 0
M  V30 4132 N 375.437 -1.54477 -0.31217 0
M  V30 4133 C 376.714 -1.63891 -1.06767 0
M  V30 4134 C 377.094 -0.480028 -2.0557 0
M  V30 4135 O 376.442 0.524487 -2.22399 0
M  V30 4136 C 376.652 -3.01402 -1.75948 0
M  V30 4137 C 378 -3.57838 -2.28554 0
M  V30 4138 O 379.024 -3.03782 -1.85998 0
M  V30 4139 O 377.883 -4.52462 -3.06497 0
M  V30 4140 H 374.977 -0.664125 -0.492816 0
M  V30 4141 H 377.523 -1.66823 -0.311149 0
M  V30 4142 H 376.295 -3.77187 -1.04144 0
M  V30 4143 H 375.918 -3.02199 -2.58383 0
M  V30 4144 N 376.915 0.57481 -1.46744 0
M  V30 4145 C 378.161 1.3347 -1.52688 0
M  V30 4146 C 378.494 1.93353 -0.181229 0
M  V30 4147 O 377.769 1.76912 0.808237 0
M  V30 4148 C 378.052 2.45811 -2.63152 0
M  V30 4149 C 377.905 1.90912 -4.07275 0
M  V30 4150 C 379.224 3.47822 -2.69644 0
M  V30 4151 H 376.343 0.483935 -0.555856 0
M  V30 4152 H 378.985 0.644968 -1.78718 0
M  V30 4153 H 377.135 3.04646 -2.41088 0
M  V30 4154 H 378.807 1.36473 -4.4065 0
M  V30 4155 H 377.05 1.21691 -4.16382 0
M  V30 4156 H 377.721 2.72042 -4.80309 0
M  V30 4157 H 380.197 2.9888 -2.895 0
M  V30 4158 H 379.073 4.23876 -3.48742 0
M  V30 4159 H 379.334 4.05555 -1.76005 0
M  V30 4160 N 378.394 1.34581 0.820102 0
M  V30 4161 C 379.324 1.29038 1.94606 0
M  V30 4162 C 380.305 0.1673 1.69275 0
M  V30 4163 O 381.49 0.360112 1.90832 0
M  V30 4164 C 378.62 1.04793 3.31113 0
M  V30 4165 C 377.574 2.13597 3.70891 0
M  V30 4166 C 376.9 1.74537 5.05412 0
M  V30 4167 C 378.2 3.55451 3.8269 0
M  V30 4168 H 379.894 2.23248 1.99501 0
M  V30 4169 H 377.44 1.0747 0.958449 0
M  V30 4170 H 379.393 0.995592 4.0947 0
M  V30 4171 H 378.117 0.0702565 3.26524 0
M  V30 4172 H 376.776 2.17905 2.9481 0
M  V30 4173 H 376.424 0.754226 4.97313 0
M  V30 4174 H 376.124 2.47361 5.32997 0
M  V30 4175 H 377.648 1.70803 5.86224 0
M  V30 4176 H 379.062 3.5354 4.51312 0
M  V30 4177 H 377.459 4.26922 4.21732 0
M  V30 4178 H 378.529 3.92587 2.84611 0
M  V30 4179 N 379.872 -1.04064 1.18357 0
M  V30 4180 C 381.149 -1.74252 0.888581 0
M  V30 4181 C 381.529 -2.02138 -0.60856 0
M  V30 4182 O 380.877 -1.66656 -1.56327 0
M  V30 4183 C 381.087 -3.0277 1.73584 0
M  V30 4184 C 382.435 -3.76506 1.96286 0
M  V30 4185 O 383.459 -3.12668 1.70637 0
M  V30 4186 O 382.318 -4.91243 2.39464 0
M  V30 4187 H 379.412 -0.758271 0.330082 0
M  V30 4188 H 381.958 -1.1013 1.2911 0
M  V30 4189 H 380.73 -2.78299 2.75073 0
M  V30 4190 H 380.353 -3.74631 1.33183 0
M  V30 4191 N 381.35 -0.985608 -1.22978 0
M  V30 4192 C 382.282 -0.488154 -2.23941 0
M  V30 4193 C 383.295 0.41282 -1.57479 0
M  V30 4194 O 384.484 0.216121 -1.77187 0
M  V30 4195 C 381.584 0.312611 -3.37455 0
M  V30 4196 C 380.757 -0.582741 -4.33501 0
M  V30 4197 C 379.816 0.165064 -5.25941 0
M  V30 4198 O 378.842 -0.447077 -5.67442 0
M  V30 4199 N 380.044 1.44953 -5.62111 0
M  V30 4200 H 382.809 -1.3563 -2.67254 0
M  V30 4201 H 380.37 -0.859477 -1.37203 0
M  V30 4202 H 382.362 0.821357 -3.96277 0
M  V30 4203 H 380.932 1.0818 -2.93285 0
M  V30 4204 H 380.152 -1.27225 -3.73105 0
M  V30 4205 H 381.44 -1.19275 -4.94622 0
M  V30 4206 H 380.838 1.9683 -5.30353 0
M  V30 4207 H 379.395 1.90361 -6.23383 0
M  V30 4208 N 382.828 1.3818 -0.7579 0
M  V30 4209 C 384.105 1.94106 -0.241306 0
M  V30 4210 C 384.485 1.69282 1.26122 0
M  V30 4211 O 383.833 1.03378 2.03777 0
M  V30 4212 C 384.043 3.43809 -0.59967 0
M  V30 4213 C 385.391 4.20868 -0.561717 0
M  V30 4214 O 386.415 3.5211 -0.538222 0
M  V30 4215 O 385.274 5.43451 -0.576478 0
M  V30 4216 H 382.368 0.825376 -0.0518042 0
M  V30 4217 H 384.914 1.47548 -0.838315 0
M  V30 4218 H 383.686 3.55403 -1.6372 0
M  V30 4219 H 383.309 3.97592 0.0251197 0
M  V30 4220 N 384.306 0.507319 1.49211 0
M  V30 4221 C 385.554 -0.0348839 2.0207 0
M  V30 4222 C 385.875 -1.36898 1.38866 0
M  V30 4223 O 385.145 -1.88133 0.546151 0
M  V30 4224 H 383.725 -0.0158812 0.746831 0
M  V30 4225 H 386.387 0.665998 1.83168 0
M  V30 4226 H 385.483 -0.159917 3.1169 0
M  V30 4227 N 385.784 -1.5574 0.241426 0
M  V30 4228 C 386.732 -2.22538 -0.676718 0
M  V30 4229 C 387.726 -1.21117 -1.18436 0
M  V30 4230 O 388.932 -1.39144 -1.14188 0
M  V30 4231 H 385.307 -0.713776 -0.236701 0
M  V30 4232 H 387.278 -2.98264 -0.0901187 0
M  V30 4233 C 386.027 -2.93439 -1.86518 0
M  V30 4234 H 385.35 -3.7125 -1.4837 0
M  V30 4235 H 386.79 -3.43549 -2.48495 0
M  V30 4236 C 385.249 -1.97008 -2.73294 0
M  V30 4237 O 385.779 -1.49965 -3.72657 0
M  V30 4238 N 383.985 -1.64227 -2.39745 0
M  V30 4239 H 383.532 -2.02677 -1.58996 0
M  V30 4240 H 383.49 -0.999708 -2.98083 0
M  V30 4241 N 387.262 0.0317525 -1.57568 0
M  V30 4242 C 388.511 0.722131 -1.8833 0
M  V30 4243 C 388.824 1.76664 -0.839587 0
M  V30 4244 O 390.03 2.50942 -1.03635 0
M  V30 4245 C 388.486 1.33544 -3.34207 0
M  V30 4246 C 388.094 0.327415 -4.46802 0
M  V30 4247 C 389.838 2.00585 -3.7412 0
M  V30 4248 C 387.745 0.948915 -5.83738 0
M  V30 4249 H 386.675 0.273466 -0.702661 0
M  V30 4250 H 389.326 -0.0235811 -1.83485 0
M  V30 4251 H 387.708 2.13077 -3.33788 0
M  V30 4252 H 388.882 -0.441006 -4.58685 0
M  V30 4253 H 387.197 -0.240758 -4.15703 0
M  V30 4254 H 389.794 2.47932 -4.73744 0
M  V30 4255 H 390.137 2.82285 -3.05975 0
M  V30 4256 H 390.67 1.27831 -3.76702 0
M  V30 4257 H 387.409 0.171387 -6.55276 0
M  V30 4258 H 386.929 1.68724 -5.7558 0
M  V30 4259 H 388.608 1.45705 -6.3038 0
M  V30 4260 N 388.74 1.54641 0.303973 0
M  V30 4261 C 389.986 1.74038 1.04109 0
M  V30 4262 C 390.319 0.523051 1.87024 0
M  V30 4263 O 389.594 -0.479874 1.88487 0
M  V30 4264 C 389.877 3.02761 1.94955 0
M  V30 4265 C 389.73 4.34787 1.1524 0
M  V30 4266 C 391.049 3.27336 2.94175 0
M  V30 4267 H 388.168 0.63323 0.377079 0
M  V30 4268 H 390.81 1.87354 0.316001 0
M  V30 4269 H 388.96 2.9154 2.56782 0
M  V30 4270 H 390.632 4.57922 0.557236 0
M  V30 4271 H 388.875 4.31407 0.455053 0
M  V30 4272 H 389.546 5.21116 1.8205 0
M  V30 4273 H 392.022 3.38148 2.42477 0
M  V30 4274 H 390.898 4.18726 3.54908 0
M  V30 4275 H 391.159 2.45491 3.67677 0
M  V30 4276 N 390.218 -0.567019 1.47046 0
M  V30 4277 C 391.443 -1.3551 1.57009 0
M  V30 4278 C 391.868 -1.86841 0.217259 0
M  V30 4279 O 391.226 -1.62435 -0.805268 0
M  V30 4280 C 391.274 -2.50777 2.5912 0
M  V30 4281 O 390.378 -3.52706 2.13711 0
M  V30 4282 H 389.719 -0.402919 0.52778 0
M  V30 4283 H 392.249 -0.686241 1.92748 0
M  V30 4284 H 392.259 -2.97481 2.79229 0
M  V30 4285 H 390.934 -2.12771 3.57353 0
M  V30 4286 H 389.511 -3.12374 2.03659 0
M  V30 4287 N 391.696 -1.35014 -0.812953 0
M  V30 4288 C 393.107 -1.25035 -1.38648 0
M  V30 4289 C 393.458 0.119967 -1.95833 0
M  V30 4290 O 392.583 1.02069 -1.90816 0
M  V30 4291 C 393.178 -2.26394 -2.52054 0
M  V30 4292 C 391.737 -2.20175 -3.05287 0
M  V30 4293 C 390.884 -2.12451 -1.78213 0
M  V30 4294 H 393.835 -1.46235 -0.616516 0
M  V30 4295 H 393.856 -1.88672 -3.30429 0
M  V30 4296 H 393.368 -3.26116 -2.10404 0
M  V30 4297 H 391.469 -1.23841 -3.51417 0
M  V30 4298 H 391.582 -3.11863 -3.63701 0
M  V30 4299 H 389.946 -1.58328 -1.9951 0
M  V30 4300 H 390.729 -3.14024 -1.38723 0
M  V30 4301 N 393.175 1.03435 -1.18907 0
M  V30 4302 C 394.4 1.80919 -1.01406 0
M  V30 4303 C 394.825 1.83055 0.432721 0
M  V30 4304 O 394.183 1.25252 1.31079 0
M  V30 4305 C 394.231 3.24091 -1.58105 0
M  V30 4306 O 393.335 4.04434 -0.806669 0
M  V30 4307 H 392.676 0.558709 -0.358803 0
M  V30 4308 H 395.206 1.30223 -1.57807 0
M  V30 4309 H 395.216 3.74853 -1.61087 0
M  V30 4310 H 393.891 3.21851 -2.6341 0
M  V30 4311 H 392.468 3.63091 -0.849666 0
M  V30 4312 N 394.653 0.992116 1.22453 0
M  V30 4313 C 395.563 0.55065 2.28046 0
M  V30 4314 C 396.579 -0.400189 1.69335 0
M  V30 4315 O 397.755 -0.267215 1.99619 0
M  V30 4316 C 394.82 -0.128496 3.46462 0
M  V30 4317 C 393.881 0.865208 4.20491 0
M  V30 4318 C 393.114 0.218377 5.33253 0
M  V30 4319 O 393.337 -0.987894 5.6178 0
M  V30 4320 O 392.271 0.922845 5.94783 0
M  V30 4321 H 396.097 1.4291 2.67975 0
M  V30 4322 H 393.682 0.760326 1.28606 0
M  V30 4323 H 395.564 -0.508947 4.18315 0
M  V30 4324 H 394.239 -0.981526 3.0846 0
M  V30 4325 H 393.146 1.29658 3.50913 0
M  V30 4326 H 394.479 1.68741 4.62371 0
M  V30 4327 N 396.131 -1.37776 0.765217 0
M  V30 4328 C 397.38 -1.99092 0.323307 0
M  V30 4329 C 397.693 -1.61434 -1.10446 0
M  V30 4330 O 398.899 -2.15805 -1.64743 0
M  V30 4331 C 397.355 -3.56019 0.527098 0
M  V30 4332 C 396.963 -4.0262 1.96471 0
M  V30 4333 C 398.707 -4.2424 0.148483 0
M  V30 4334 C 396.614 -5.52233 2.11644 0
M  V30 4335 H 395.544 -0.744846 0.117137 0
M  V30 4336 H 398.195 -1.57391 0.943417 0
M  V30 4337 H 396.577 -3.95667 -0.162372 0
M  V30 4338 H 397.751 -3.74234 2.68859 0
M  V30 4339 H 396.066 -3.47161 2.29931 0
M  V30 4340 H 398.663 -5.34159 0.240456 0
M  V30 4341 H 399.006 -4.06446 -0.900422 0
M  V30 4342 H 399.539 -3.89872 0.79025 0
M  V30 4343 H 396.278 -5.74945 3.1483 0
M  V30 4344 H 395.798 -5.82324 1.4373 0
M  V30 4345 H 397.477 -6.18106 1.91193 0
M  V30 4346 N 397.609 -0.515225 -1.4894 0
M  V30 4347 C 398.541 0.292481 -2.27326 0
M  V30 4348 C 399.554 0.917838 -1.3446 0
M  V30 4349 O 400.743 0.798772 -1.5963 0
M  V30 4350 C 397.843 1.42803 -3.07344 0
M  V30 4351 C 397.016 0.907347 -4.27885 0
M  V30 4352 C 396.075 1.92222 -4.89834 0
M  V30 4353 O 395.101 1.48506 -5.49486 0
M  V30 4354 N 396.303 3.25355 -4.80754 0
M  V30 4355 H 399.068 -0.379721 -2.97285 0
M  V30 4356 H 396.629 -0.348638 -1.58102 0
M  V30 4357 H 398.621 2.10481 -3.45658 0
M  V30 4358 H 397.191 2.00414 -2.39902 0
M  V30 4359 H 396.411 0.0550218 -3.94162 0
M  V30 4360 H 397.699 0.538108 -5.05946 0
M  V30 4361 H 397.097 3.6355 -4.33414 0
M  V30 4362 H 395.654 3.88707 -5.23211 0
M  V30 4363 N 399.087 1.5561 -0.249682 0
M  V30 4364 C 400.05 2.20217 0.635394 0
M  V30 4365 C 401.05 1.17227 1.10066 0
M  V30 4366 O 402.24 1.42292 1.00492 0
M  V30 4367 C 399.372 2.84794 1.87363 0
M  V30 4368 H 400.565 2.99814 0.0716752 0
M  V30 4369 H 398.118 1.563 -0.000153234 0
M  V30 4370 H 398.853 2.09142 2.47851 0
M  V30 4371 H 398.638 3.60241 1.5482 0
M  V30 4372 H 400.128 3.3423 2.5036 0
M  V30 4373 N 400.565 -0.0233959 1.57583 0
M  V30 4374 C 401.515 -1.03023 2.03397 0
M  V30 4375 C 402.499 -1.31701 0.924315 0
M  V30 4376 O 403.691 -1.31191 1.18819 0
M  V30 4377 C 400.82 -2.32961 2.52159 0
M  V30 4378 C 399.906 -2.07349 3.69956 0
M  V30 4379 N 400.297 -1.51814 4.82479 0
M  V30 4380 C 398.595 -2.37606 3.77438 0
M  V30 4381 C 399.296 -1.42136 5.64068 0
M  V30 4382 N 398.272 -1.89891 5.09355 0
M  V30 4383 H 402.074 -0.594962 2.87815 0
M  V30 4384 H 399.588 -0.229586 1.60769 0
M  V30 4385 H 401.585 -3.05906 2.83244 0
M  V30 4386 H 400.245 -2.77162 1.69149 0
M  V30 4387 H 401.256 -1.20008 5.03804 0
M  V30 4388 H 397.933 -2.84842 3.05239 0
M  V30 4389 H 399.323 -0.996405 6.64471 0
M  V30 4390 N 402.043 -1.548 -0.295768 0
M  V30 4391 C 402.973 -1.89115 -1.36959 0
M  V30 4392 C 403.954 -0.75059 -1.52644 0
M  V30 4393 O 405.139 -1.00678 -1.66065 0
M  V30 4394 C 402.269 -2.14307 -2.73295 0
M  V30 4395 C 401.223 -3.30151 -2.72368 0
M  V30 4396 C 400.549 -3.40772 -4.12042 0
M  V30 4397 C 401.849 -4.67126 -2.33646 0
M  V30 4398 H 403.543 -2.79053 -1.08488 0
M  V30 4399 H 401.089 -1.34266 -0.520443 0
M  V30 4400 H 403.042 -2.36898 -3.48507 0
M  V30 4401 H 401.766 -1.21145 -3.03301 0
M  V30 4402 H 400.425 -3.0749 -1.99613 0
M  V30 4403 H 400.073 -2.45117 -4.39234 0
M  V30 4404 H 399.773 -4.18645 -4.12322 0
M  V30 4405 H 401.297 -3.6563 -4.89027 0
M  V30 4406 H 402.711 -4.89414 -2.98575 0
M  V30 4407 H 401.108 -5.47751 -2.45129 0
M  V30 4408 H 402.178 -4.67489 -1.28772 0
M  V30 4409 N 403.521 0.559213 -1.47345 0
M  V30 4410 C 404.468 1.66645 -1.59682 0
M  V30 4411 C 405.438 1.60168 -0.43994 0
M  V30 4412 O 406.623 1.79031 -0.659736 0
M  V30 4413 C 403.763 3.04969 -1.61518 0
M  V30 4414 C 402.876 3.21897 -2.88108 0
M  V30 4415 C 402.011 4.50608 -2.81294 0
M  V30 4416 C 401.05 4.60961 -4.02717 0
M  V30 4417 N 400.187 5.81024 -3.94151 0
M  V30 4418 H 405.027 1.55439 -2.54249 0
M  V30 4419 H 402.564 0.757219 -1.26113 0
M  V30 4420 H 404.522 3.85064 -1.60566 0
M  V30 4421 H 403.152 3.15015 -0.704645 0
M  V30 4422 H 402.204 2.35248 -2.98936 0
M  V30 4423 H 403.516 3.25412 -3.78032 0
M  V30 4424 H 402.67 5.3896 -2.7858 0
M  V30 4425 H 401.409 4.49568 -1.89049 0
M  V30 4426 H 400.414 3.71021 -4.05738 0
M  V30 4427 H 401.639 4.63761 -4.96087 0
M  V30 4428 H 399.585 5.80938 -3.04708 0
M  V30 4429 H 399.502 5.85909 -4.77752 0
M  V30 4430 H 400.77 6.71744 -3.9545 0
M  V30 4431 N 404.999 1.35443 0.805782 0
M  V30 4432 C 406.229 1.31687 1.59192 0
M  V30 4433 C 406.637 -0.10756 1.88894 0
M  V30 4434 O 405.98 -1.07017 1.49309 0
M  V30 4435 C 406.042 2.05686 2.94845 0
M  V30 4436 C 405.706 3.54868 2.87954 0
M  V30 4437 C 406.703 4.49444 2.61335 0
M  V30 4438 C 404.388 3.97528 3.07046 0
M  V30 4439 C 406.382 5.84655 2.53885 0
M  V30 4440 C 404.069 5.32833 2.99219 0
M  V30 4441 C 405.067 6.26209 2.72674 0
M  V30 4442 O 404.755 7.59032 2.64811 0
M  V30 4443 H 404.487 0.453878 0.50097 0
M  V30 4444 H 407.041 1.78892 1.0093 0
M  V30 4445 H 405.271 1.5312 3.55093 0
M  V30 4446 H 406.96 1.94998 3.55993 0
M  V30 4447 H 407.726 4.17804 2.46303 0
M  V30 4448 H 403.605 3.25233 3.26718 0
M  V30 4449 H 407.149 6.57508 2.33086 0
M  V30 4450 H 403.046 5.64087 3.13809 0
M  V30 4451 H 403.814 7.68967 2.80413 0
M  V30 4452 N 406.477 -1.02803 1.19454 0
M  V30 4453 C 407.726 -1.7562 0.991996 0
M  V30 4454 C 408.039 -1.89672 -0.477901 0
M  V30 4455 O 409.245 -2.59468 -0.799287 0
M  V30 4456 C 407.701 -3.15812 1.72601 0
M  V30 4457 C 407.309 -3.0981 3.23607 0
M  V30 4458 C 409.053 -3.92918 1.60674 0
M  V30 4459 C 406.96 -4.44939 3.89594 0
M  V30 4460 H 405.89 -0.658352 0.367543 0
M  V30 4461 H 408.541 -1.15044 1.42959 0
M  V30 4462 H 406.923 -3.7686 1.21624 0
M  V30 4463 H 408.097 -2.58138 3.81709 0
M  V30 4464 H 406.412 -2.46201 3.35819 0
M  V30 4465 H 409.009 -4.9287 2.07323 0
M  V30 4466 H 409.352 -4.12502 0.561025 0
M  V30 4467 H 409.885 -3.38472 2.09001 0
M  V30 4468 H 406.624 -4.30559 4.94267 0
M  V30 4469 H 406.144 -4.96664 3.36281 0
M  V30 4470 H 407.823 -5.1382 3.93189 0
M  V30 4471 N 407.956 -0.998596 -1.21925 0
M  V30 4472 C 408.886 -0.573688 -2.26343 0
M  V30 4473 C 409.867 0.402296 -1.65274 0
M  V30 4474 O 411.052 0.291683 -1.91997 0
M  V30 4475 C 408.182 0.106839 -3.47136 0
M  V30 4476 C 407.136 -0.788269 -4.20678 0
M  V30 4477 C 406.462 0.0254927 -5.34694 0
M  V30 4478 C 407.762 -2.08784 -4.78755 0
M  V30 4479 H 409.456 -1.44651 -2.62138 0
M  V30 4480 H 407.002 -0.696975 -1.26009 0
M  V30 4481 H 408.955 0.415531 -4.19346 0
M  V30 4482 H 407.679 1.01424 -3.10452 0
M  V30 4483 H 406.338 -1.08069 -3.50309 0
M  V30 4484 H 405.986 0.933989 -4.94253 0
M  V30 4485 H 405.686 -0.570437 -5.84825 0
M  V30 4486 H 407.21 0.328147 -6.09718 0
M  V30 4487 H 408.624 -1.84272 -5.42878 0
M  V30 4488 H 407.021 -2.63307 -5.39249 0
M  V30 4489 H 408.091 -2.76284 -3.98491 0
M  V30 4490 N 409.434 1.37368 -0.772513 0
M  V30 4491 C 410.659 2.0447 -0.347386 0
M  V30 4492 C 411.084 1.57882 1.0225 0
M  V30 4493 O 410.442 0.73941 1.65537 0
M  V30 4494 C 410.49 3.58369 -0.400479 0
M  V30 4495 O 409.594 4.0803 0.598789 0
M  V30 4496 H 408.935 0.646773 -0.15027 0
M  V30 4497 H 411.465 1.75667 -1.04892 0
M  V30 4498 H 411.475 4.07183 -0.258045 0
M  V30 4499 H 410.15 3.91633 -1.39986 0
M  V30 4500 H 408.727 3.70534 0.419411 0
M  V30 4501 N 410.912 0.523116 1.48665 0
M  V30 4502 C 412.189 -0.0775449 1.95446 0
M  V30 4503 C 412.569 -1.5197 1.4652 0
M  V30 4504 O 411.917 -2.17876 0.688657 0
M  V30 4505 C 412.127 0.0326135 3.48985 0
M  V30 4506 C 413.475 -0.130141 4.24401 0
M  V30 4507 O 414.499 -0.0415142 3.56176 0
M  V30 4508 O 413.358 -0.31491 5.45592 0
M  V30 4509 H 410.452 -0.0831012 0.822814 0
M  V30 4510 H 412.998 0.587227 1.59216 0
M  V30 4511 H 411.77 1.03748 3.77296 0
M  V30 4512 H 411.393 -0.671317 3.91892 0
M  V30 4513 N 412.39 -1.55475 0.257931 0
M  V30 4514 C 413.615 -2.04064 -0.370488 0
M  V30 4515 C 414.04 -1.13565 -1.49948 0
M  V30 4516 O 413.398 -0.130781 -1.80828 0
M  V30 4517 C 413.446 -3.50554 -0.845237 0
M  V30 4518 O 412.55 -3.63173 -1.95394 0
M  V30 4519 H 411.891 -0.659257 -0.0792243 0
M  V30 4520 H 414.421 -2.00903 0.387212 0
M  V30 4521 H 414.431 -3.91588 -1.14555 0
M  V30 4522 H 413.106 -4.15896 -0.0191259 0
M  V30 4523 H 411.683 -3.34039 -1.65748 0
M  V30 4524 N 413.868 0.0150385 -1.57593 0
M  V30 4525 C 415.093 0.718067 -1.94573 0
M  V30 4526 C 415.518 1.6734 -0.859005 0
M  V30 4527 O 414.876 1.80362 0.184147 0
M  V30 4528 C 414.924 1.43918 -3.30636 0
M  V30 4529 O 414.028 2.55299 -3.23876 0
M  V30 4530 H 413.369 0.192125 -0.635597 0
M  V30 4531 H 415.899 -0.0336708 -2.04572 0
M  V30 4532 H 415.909 1.80598 -3.65853 0
M  V30 4533 H 414.584 0.738619 -4.09289 0
M  V30 4534 H 413.161 2.21058 -3.00312 0
M  V30 4535 N 415.346 1.54954 0.287554 0
M  V30 4536 C 416.757 1.65732 0.859634 0
M  V30 4537 C 417.108 0.574767 1.87592 0
M  V30 4538 O 416.233 -0.286299 2.14498 0
M  V30 4539 C 416.828 3.00438 1.56597 0
M  V30 4540 C 415.387 3.13292 2.08627 0
M  V30 4541 C 414.534 2.61473 0.923416 0
M  V30 4542 H 417.485 1.5857 0.0642338 0
M  V30 4543 H 417.506 2.92613 2.43224 0
M  V30 4544 H 417.018 3.79207 0.826053 0
M  V30 4545 H 415.119 2.39268 2.85625 0
M  V30 4546 H 415.232 4.19647 2.31157 0
M  V30 4547 H 413.596 2.18264 1.31275 0
M  V30 4548 H 414.379 3.42733 0.197241 0
M  V30 4549 N 416.824 -0.551391 1.4764 0
M  V30 4550 C 417.787 -1.64007 1.60107 0
M  V30 4551 C 418.787 -1.53601 0.47576 0
M  V30 4552 O 419.977 -1.57655 0.740988 0
M  V30 4553 C 417.109 -3.03569 1.55108 0
M  V30 4554 H 418.302 -1.543 2.57161 0
M  V30 4555 H 415.855 -0.771776 1.35917 0
M  V30 4556 H 416.59 -3.18804 0.594519 0
M  V30 4557 H 416.375 -3.12532 2.36783 0
M  V30 4558 H 417.865 -3.82762 1.66982 0
M  V30 4559 N 418.302 -1.35869 -0.798587 0
M  V30 4560 C 419.713 -1.26498 -1.37314 0
M  V30 4561 C 420.064 0.0991899 -1.95949 0
M  V30 4562 O 419.189 1.0004 -1.91888 0
M  V30 4563 C 419.784 -2.29054 -2.49639 0
M  V30 4564 C 418.343 -2.234 -3.02935 0
M  V30 4565 C 417.49 -2.14329 -1.75949 0
M  V30 4566 H 420.441 -1.46881 -0.600971 0
M  V30 4567 H 420.462 -1.92166 -3.28409 0
M  V30 4568 H 419.974 -3.2833 -2.06933 0
M  V30 4569 H 418.075 -1.27562 -3.50084 0
M  V30 4570 H 418.188 -3.15703 -3.60372 0
M  V30 4571 H 416.552 -1.60435 -1.9782 0
M  V30 4572 H 417.335 -3.15477 -1.35384 0
M  V30 4573 N 419.78 1.02168 -1.19998 0
M  V30 4574 C 420.69 2.14069 -0.959774 0
M  V30 4575 C 421.706 1.73804 0.082655 0
M  V30 4576 O 422.882 2.01133 -0.103633 0
M  V30 4577 C 419.947 3.42936 -0.509459 0
M  V30 4578 C 419.008 3.97474 -1.62213 0
M  V30 4579 C 418.241 5.2019 -1.19321 0
M  V30 4580 O 418.464 5.70369 -0.0597726 0
M  V30 4581 O 417.398 5.67749 -1.99863 0
M  V30 4582 H 421.224 2.37199 -1.89658 0
M  V30 4583 H 418.809 1.12469 -0.983411 0
M  V30 4584 H 420.691 4.20551 -0.267322 0
M  V30 4585 H 419.366 3.21234 0.398821 0
M  V30 4586 H 418.273 3.21161 -1.9185 0
M  V30 4587 H 419.606 4.23555 -2.50723 0
M  V30 4588 N 421.258 1.00505 1.21394 0
M  V30 4589 C 422.505 0.687774 1.90462 0
M  V30 4590 C 422.833 -0.78147 1.7811 0
M  V30 4591 O 422.088 -1.58208 1.1519 0
M  V30 4592 C 422.387 1.0546 3.41486 0
M  V30 4593 C 422.053 2.51812 3.74034 0
M  V30 4594 C 420.715 2.91804 3.82628 0
M  V30 4595 C 423.067 3.46614 3.8924 0
M  V30 4596 C 420.395 4.2556 4.03876 0
M  V30 4597 C 422.747 4.80044 4.11995 0
M  V30 4598 C 421.411 5.19759 4.18816 0
M  V30 4599 H 420.681 0.251674 0.696951 0
M  V30 4600 H 423.328 1.26349 1.43903 0
M  V30 4601 H 421.633 0.397133 3.89782 0
M  V30 4602 H 423.33 0.786976 3.93202 0
M  V30 4603 H 419.92 2.1982 3.67936 0
M  V30 4604 H 424.104 3.16883 3.81967 0
M  V30 4605 H 419.36 4.55901 4.07387 0
M  V30 4606 H 423.534 5.53439 4.22704 0
M  V30 4607 H 421.161 6.23418 4.35033 0
M  V30 4608 N 422.737 -1.36956 0.779787 0
M  V30 4609 C 424.148 -1.82094 0.412156 0
M  V30 4610 C 424.499 -1.64926 -1.06273 0
M  V30 4611 O 423.624 -1.16483 -1.82375 0
M  V30 4612 C 424.219 -3.3059 0.741319 0
M  V30 4613 C 422.778 -3.73974 0.426641 0
M  V30 4614 C 421.925 -2.59368 0.980987 0
M  V30 4615 H 424.876 -1.25314 0.973758 0
M  V30 4616 H 424.897 -3.80489 0.028887 0
M  V30 4617 H 424.409 -3.43054 1.81482 0
M  V30 4618 H 422.51 -3.67076 -0.639215 0
M  V30 4619 H 422.623 -4.69778 0.940515 0
M  V30 4620 H 420.987 -2.51463 0.404757 0
M  V30 4621 H 421.77 -2.74621 2.06005 0
M  V30 4622 N 424.215 -0.530993 -1.48385 0
M  V30 4623 C 425.145 0.219985 -2.32461 0
M  V30 4624 C 426.126 0.934111 -1.42156 0
M  V30 4625 O 427.311 0.919694 -1.71042 0
M  V30 4626 C 424.441 1.26674 -3.23375 0
M  V30 4627 C 423.395 0.67069 -4.22712 0
M  V30 4628 C 422.721 1.82017 -5.02766 0
M  V30 4629 C 424.021 -0.358268 -5.2107 0
M  V30 4630 H 425.715 -0.48187 -2.95497 0
M  V30 4631 H 423.261 -0.233182 -1.42099 0
M  V30 4632 H 425.214 1.80006 -3.81019 0
M  V30 4633 H 423.938 1.99818 -2.58341 0
M  V30 4634 H 422.597 0.158878 -3.66256 0
M  V30 4635 H 422.245 2.54002 -4.34157 0
M  V30 4636 H 421.945 1.42727 -5.70003 0
M  V30 4637 H 423.469 2.35725 -5.63264 0
M  V30 4638 H 424.883 0.0880081 -5.73232 0
M  V30 4639 H 423.28 -0.66861 -5.96364 0
M  V30 4640 H 424.35 -1.26367 -4.68145 0
M  V30 4641 N 425.693 1.55336 -0.266172 0
M  V30 4642 C 426.656 2.20878 0.612001 0
M  V30 4643 C 427.656 1.18388 1.08816 0
M  V30 4644 O 428.846 1.4335 0.989774 0
M  V30 4645 C 425.978 2.86765 1.84332 0
M  V30 4646 H 427.171 2.99873 0.0398718 0
M  V30 4647 H 424.724 1.56291 -0.0167309 0
M  V30 4648 H 425.459 2.11759 2.45619 0
M  V30 4649 H 425.244 3.61862 1.5099 0
M  V30 4650 H 426.734 3.36867 2.46801 0
M  V30 4651 N 427.171 -0.0066808 1.57599 0
M  V30 4652 C 428.401 -0.703066 1.94269 0
M  V30 4653 C 428.809 -1.68206 0.866222 0
M  V30 4654 O 428.152 -1.82966 -0.164087 0
M  V30 4655 C 428.214 -1.49616 3.26887 0
M  V30 4656 C 427.878 -0.679494 4.5192 0
M  V30 4657 C 428.875 0.0299508 5.19891 0
M  V30 4658 C 426.56 -0.627433 4.98366 0
M  V30 4659 C 428.554 0.780514 6.32603 0
M  V30 4660 C 426.241 0.126861 6.10968 0
M  V30 4661 C 427.239 0.829574 6.77943 0
M  V30 4662 O 426.927 1.57157 7.88389 0
M  V30 4663 H 426.659 -0.201217 0.645359 0
M  V30 4664 H 429.213 0.0385326 2.05364 0
M  V30 4665 H 427.443 -2.28209 3.12182 0
M  V30 4666 H 429.132 -2.07726 3.48719 0
M  V30 4667 H 429.898 -0.00115963 4.85 0
M  V30 4668 H 425.777 -1.16392 4.46065 0
M  V30 4669 H 429.321 1.32954 6.84813 0
M  V30 4670 H 425.218 0.159815 6.45302 0
M  V30 4671 H 425.986 1.48758 8.04868 0
M  V30 4672 N 428.649 -1.55105 -0.279332 0
M  V30 4673 C 429.579 -1.90557 -1.34945 0
M  V30 4674 C 430.56 -0.766738 -1.51839 0
M  V30 4675 O 431.745 -1.02434 -1.64988 0
M  V30 4676 C 428.875 -2.17193 -2.71006 0
M  V30 4677 C 427.829 -3.33021 -2.68851 0
M  V30 4678 C 427.155 -3.45123 -4.08405 0
M  V30 4679 C 428.455 -4.69578 -2.28678 0
M  V30 4680 H 430.149 -2.80188 -1.05522 0
M  V30 4681 H 427.695 -1.34811 -0.506173 0
M  V30 4682 H 429.648 -2.40581 -3.45975 0
M  V30 4683 H 428.372 -1.24355 -3.01999 0
M  V30 4684 H 427.031 -3.0959 -1.9634 0
M  V30 4685 H 426.679 -2.49762 -4.3661 0
M  V30 4686 H 426.379 -4.22995 -4.07859 0
M  V30 4687 H 427.903 -3.70796 -4.85121 0
M  V30 4688 H 429.317 -4.92553 -2.93368 0
M  V30 4689 H 427.714 -5.5032 -2.39306 0
M  V30 4690 H 428.784 -4.68828 -1.23807 0
M  V30 4691 N 430.127 0.543554 -1.4793 0
M  V30 4692 C 431.355 1.32516 -1.58894 0
M  V30 4693 C 431.77 1.87215 -0.244131 0
M  V30 4694 O 431.127 1.65709 0.764652 0
M  V30 4695 C 431.178 2.48554 -2.62494 0
M  V30 4696 O 430.899 1.96112 -3.91755 0
M  V30 4697 C 432.4 3.40572 -2.8377 0
M  V30 4698 H 429.62 0.403472 -0.536145 0
M  V30 4699 H 432.164 0.657106 -1.93655 0
M  V30 4700 H 430.319 3.1127 -2.30629 0
M  V30 4701 H 430.733 2.71967 -4.4848 0
M  V30 4702 H 432.207 4.18375 -3.60093 0
M  V30 4703 H 432.684 3.94965 -1.92092 0
M  V30 4704 H 433.29 2.8366 -3.16887 0
M  V30 4705 N 431.605 1.3629 0.791371 0
M  V30 4706 C 432.83 1.33726 1.58531 0
M  V30 4707 C 433.255 -0.0794933 1.87932 0
M  V30 4708 O 432.613 -1.05087 1.47738 0
M  V30 4709 C 432.661 2.16425 2.88431 0
M  V30 4710 O 431.765 1.5554 3.81944 0
M  V30 4711 H 431.106 0.457793 0.480959 0
M  V30 4712 H 433.636 1.79547 0.981031 0
M  V30 4713 H 433.646 2.28933 3.37718 0
M  V30 4714 H 432.321 3.19415 2.66359 0
M  V30 4715 H 430.898 1.51961 3.40532 0
M  V30 4716 N 433.083 -1.0153 1.20538 0
M  V30 4717 C 433.993 -2.13557 0.971113 0
M  V30 4718 C 435.009 -1.73845 -0.0734366 0
M  V30 4719 O 436.185 -2.01075 0.114299 0
M  V30 4720 C 433.25 -3.42661 0.527639 0
M  V30 4721 C 432.311 -3.96608 1.64319 0
M  V30 4722 C 431.544 -5.1955 1.22078 0
M  V30 4723 O 431.767 -5.70329 0.0900198 0
M  V30 4724 O 430.701 -5.66681 2.02871 0
M  V30 4725 H 434.527 -2.3619 1.90913 0
M  V30 4726 H 432.112 -1.11946 0.989362 0
M  V30 4727 H 433.994 -4.20404 0.289621 0
M  V30 4728 H 432.669 -3.21441 -0.381779 0
M  V30 4729 H 431.576 -3.20139 1.93551 0
M  V30 4730 H 432.909 -4.22219 2.52966 0
M  V30 4731 N 434.561 -1.01147 -1.20859 0
M  V30 4732 C 435.509 -0.57059 -2.25493 0
M  V30 4733 C 436.503 0.388109 -1.64894 0
M  V30 4734 O 437.709 0.258592 -1.78133 0
M  V30 4735 H 434.084 -0.166191 -0.733406 0
M  V30 4736 H 436.055 -1.46411 -2.60012 0
M  V30 4737 C 434.804 0.0805241 -3.47607 0
M  V30 4738 H 434.127 -0.648156 -3.94511 0
M  V30 4739 H 435.567 0.352197 -4.22535 0
M  V30 4740 C 434.026 1.32175 -3.09889 0
M  V30 4741 O 434.556 2.41553 -3.20959 0
M  V30 4742 N 432.762 1.20392 -2.64488 0
M  V30 4743 H 432.309 0.313905 -2.5568 0
M  V30 4744 H 432.267 2.03541 -2.39621 0
M  V30 4745 N 436.039 1.36541 -0.78704 0
M  V30 4746 C 437.455 1.52571 -0.46844 0
M  V30 4747 C 437.655 1.7415 1.01361 0
M  V30 4748 O 436.711 1.77163 1.79915 0
M  V30 4749 C 438.024 2.71299 -1.29682 0
M  V30 4750 C 439.572 2.85169 -1.29027 0
M  V30 4751 C 440.047 4.06898 -2.10233 0
M  V30 4752 N 441.538 4.1404 -2.07666 0
M  V30 4753 C 442.273 5.07301 -2.67271 0
M  V30 4754 N 441.769 6.06021 -3.35724 0
M  V30 4755 N 443.562 4.99898 -2.57018 0
M  V30 4756 H 435.713 1.20788 -1.74711 0
M  V30 4757 H 437.976 0.589364 -0.742532 0
M  V30 4758 H 437.682 2.61868 -2.34773 0
M  V30 4759 H 437.556 3.6539 -0.936479 0
M  V30 4760 H 439.943 2.94062 -0.247284 0
M  V30 4761 H 440.024 1.91992 -1.69035 0
M  V30 4762 H 439.668 3.98766 -3.1456 0
M  V30 4763 H 439.598 4.99218 -1.67597 0
M  V30 4764 H 442.089 3.43357 -1.57843 0
M  V30 4765 H 442.402 6.73741 -3.78541 0
M  V30 4766 H 440.747 6.06253 -3.39826 0
M  V30 4767 H 443.938 4.21724 -2.03142 0
M  V30 4768 H 444.111 5.72392 -3.03761 0
M  V30 4769 N 437.518 0.538854 1.48102 0
M  V30 4770 C 438.795 -0.0568108 1.95517 0
M  V30 4771 C 439.175 -1.50408 1.48124 0
M  V30 4772 O 438.523 -2.17133 0.711727 0
M  V30 4773 C 438.733 0.0696262 3.48931 0
M  V30 4774 C 440.081 -0.0851202 4.24515 0
M  V30 4775 O 441.105 -0.0037347 3.562 0
M  V30 4776 O 439.964 -0.257025 5.45895 0
M  V30 4777 H 437.058 -0.0743695 0.823649 0
M  V30 4778 H 439.604 0.604081 1.58584 0
M  V30 4779 H 438.376 1.07744 3.76174 0
M  V30 4780 H 437.999 -0.629714 3.92582 0
M  V30 4781 N 438.996 -1.55193 0.274407 0
M  V30 4782 C 440.245 -1.98758 -0.343213 0
M  V30 4783 C 440.558 -1.16624 -1.5703 0
M  V30 4784 O 441.764 -1.5033 -2.26082 0
M  V30 4785 C 440.22 -3.53759 -0.661996 0
M  V30 4786 C 439.828 -4.4467 0.54524 0
M  V30 4787 C 441.572 -4.05916 -1.24228 0
M  V30 4788 C 439.479 -5.91058 0.201084 0
M  V30 4789 H 438.409 -0.742353 -0.132014 0
M  V30 4790 H 441.06 -1.79545 0.378948 0
M  V30 4791 H 439.442 -3.68772 -1.44304 0
M  V30 4792 H 440.616 -4.41426 1.32212 0
M  V30 4793 H 438.931 -4.03143 1.04232 0
M  V30 4794 H 441.528 -5.12831 -1.51357 0
M  V30 4795 H 441.871 -3.54908 -2.17592 0
M  V30 4796 H 442.404 -3.9434 -0.523542 0
M  V30 4797 H 439.143 -6.46161 1.10258 0
M  V30 4798 H 438.663 -5.97373 -0.539045 0
M  V30 4799 H 440.342 -6.46669 -0.206954 0
M  V30 4800 N 440.474 -0.00167713 -1.576 0
M  V30 4801 C 441.72 0.67819 -1.91761 0
M  V30 4802 C 442.075 1.71288 -0.876256 0
M  V30 4803 O 441.368 1.91276 0.111333 0
M  V30 4804 C 441.562 1.36189 -3.30435 0
M  V30 4805 C 441.391 0.394938 -4.47962 0
M  V30 4806 C 440.161 0.00472875 -5.053 0
M  V30 4807 C 442.359 -0.339521 -5.13178 0
M  V30 4808 N 440.341 -0.960257 -6.06343 0
M  V30 4809 C 441.712 -1.15914 -6.09068 0
M  V30 4810 C 443.767 -0.403177 -4.96265 0
M  V30 4811 C 442.47 -2.03661 -6.89866 0
M  V30 4812 C 444.496 -1.26788 -5.77649 0
M  V30 4813 C 443.858 -2.07535 -6.73134 0
M  V30 4814 H 439.957 0.221317 -0.750028 0
M  V30 4815 H 442.541 -0.0624182 -1.946 0
M  V30 4816 H 440.712 2.07278 -3.28467 0
M  V30 4817 H 442.444 1.99658 -3.52021 0
M  V30 4818 H 439.199 0.373452 -4.72125 0
M  V30 4819 H 439.623 -1.43817 -6.61548 0
M  V30 4820 H 444.265 0.206818 -4.22294 0
M  V30 4821 H 441.983 -2.65727 -7.63161 0
M  V30 4822 H 445.569 -1.32107 -5.66603 0
M  V30 4823 H 444.449 -2.73363 -7.35012 0
M  V30 4824 N 441.952 1.55251 0.271103 0
M  V30 4825 C 442.915 1.87484 1.31842 0
M  V30 4826 C 443.915 0.749545 1.42262 0
M  V30 4827 O 445.105 1.01771 1.4138 0
M  V30 4828 C 442.237 2.0818 2.69951 0
M  V30 4829 H 443.43 2.81108 1.0449 0
M  V30 4830 H 440.983 1.47771 0.509258 0
M  V30 4831 H 441.718 1.16944 3.02481 0
M  V30 4832 H 441.503 2.90114 2.63774 0
M  V30 4833 H 442.993 2.34385 3.4562 0
M  V30 4834 N 443.43 -0.535701 1.48216 0
M  V30 4835 C 444.34 -1.66785 1.64985 0
M  V30 4836 C 445.356 -1.65654 0.532414 0
M  V30 4837 O 446.532 -1.8471 0.80275 0
M  V30 4838 C 443.597 -3.0326 1.68031 0
M  V30 4839 C 442.658 -3.1529 2.9136 0
M  V30 4840 C 441.891 -4.45255 2.94252 0
M  V30 4841 O 442.114 -5.32011 2.05719 0
M  V30 4842 O 441.048 -4.6153 3.86359 0
M  V30 4843 H 444.874 -1.55576 2.60825 0
M  V30 4844 H 442.459 -0.70815 1.31551 0
M  V30 4845 H 444.341 -3.84436 1.72589 0
M  V30 4846 H 443.016 -3.14805 0.753628 0
M  V30 4847 H 441.923 -2.3343 2.92337 0
M  V30 4848 H 443.256 -3.08658 3.83394 0
M  V30 4849 N 444.908 -1.36708 -0.784132 0
M  V30 4850 C 445.838 -1.34153 -1.91116 0
M  V30 4851 C 446.819 -0.212121 -1.68772 0
M  V30 4852 O 448.004 -0.410581 -1.8981 0
M  V30 4853 C 445.134 -1.13535 -3.28218 0
M  V30 4854 C 444.088 -2.23356 -3.65097 0
M  V30 4855 C 443.414 -1.87875 -5.00607 0
M  V30 4856 C 444.714 -3.65473 -3.73131 0
M  V30 4857 H 446.408 -2.28459 -1.93512 0
M  V30 4858 H 443.954 -1.09973 -0.929618 0
M  V30 4859 H 445.907 -1.10381 -4.06687 0
M  V30 4860 H 444.631 -0.156804 -3.26223 0
M  V30 4861 H 443.29 -2.25645 -2.88929 0
M  V30 4862 H 442.938 -0.885814 -4.95139 0
M  V30 4863 H 442.638 -2.61406 -5.26252 0
M  V30 4864 H 444.162 -1.86286 -5.81489 0
M  V30 4865 H 445.576 -3.65382 -4.41779 0
M  V30 4866 H 443.973 -4.37953 -4.10265 0
M  V30 4867 H 445.043 -3.99995 -2.74102 0
M  V30 4868 N 446.386 1.0089 -1.21074 0
M  V30 4869 C 447.802 1.2695 -0.967257 0
M  V30 4870 C 448.002 1.9846 0.348673 0
M  V30 4871 O 447.058 2.28459 1.0753 0
M  V30 4872 C 448.371 2.09697 -2.15517 0
M  V30 4873 C 449.919 2.22937 -2.197 0
M  V30 4874 C 450.394 3.09064 -3.37999 0
M  V30 4875 N 451.885 3.16653 -3.38061 0
M  V30 4876 C 452.62 3.8354 -4.26245 0
M  V30 4877 N 452.116 4.52488 -5.2462 0
M  V30 4878 N 453.909 3.80141 -4.14064 0
M  V30 4879 H 446.06 0.529005 -2.05707 0
M  V30 4880 H 448.323 0.296148 -0.900556 0
M  V30 4881 H 448.029 1.64497 -3.10859 0
M  V30 4882 H 447.903 3.10444 -2.14253 0
M  V30 4883 H 450.29 2.67357 -1.24916 0
M  V30 4884 H 450.371 1.21673 -2.2501 0
M  V30 4885 H 450.015 2.65347 -4.33074 0
M  V30 4886 H 449.945 4.10433 -3.29928 0
M  V30 4887 H 452.436 2.67566 -2.66865 0
M  V30 4888 H 452.749 5.01219 -5.88217 0
M  V30 4889 H 451.094 4.51288 -5.28549 0
M  V30 4890 H 454.285 3.25427 -3.36474 0
M  V30 4891 H 454.458 4.31992 -4.82998 0
M  V30 4892 N 447.864 1.01787 1.20321 0
M  V30 4893 C 448.796 0.547357 2.22568 0
M  V30 4894 C 449.809 -0.370922 1.58518 0
M  V30 4895 O 450.998 -0.169067 1.77698 0
M  V30 4896 C 448.098 -0.223031 3.38165 0
M  V30 4897 C 447.271 0.697472 4.31803 0
M  V30 4898 C 446.33 -0.025562 5.26194 0
M  V30 4899 O 445.356 0.597367 5.66057 0
M  V30 4900 N 446.558 -1.29999 5.65757 0
M  V30 4901 H 449.323 1.42668 2.63564 0
M  V30 4902 H 446.884 0.895552 1.34876 0
M  V30 4903 H 448.876 -0.716002 3.98316 0
M  V30 4904 H 447.446 -1.00366 2.9605 0
M  V30 4905 H 446.666 1.37073 3.69601 0
M  V30 4906 H 447.954 1.32347 4.91286 0
M  V30 4907 H 447.352 -1.827 5.35385 0
M  V30 4908 H 445.909 -1.73766 6.28211 0
M  V30 4909 N 449.342 -1.36122 0.79427 0
M  V30 4910 C 450.289 -2.29982 0.194101 0
M  V30 4911 C 451.259 -1.52214 -0.664833 0
M  V30 4912 O 452.444 -1.80702 -0.612498 0
M  V30 4913 C 449.584 -3.38706 -0.661244 0
M  V30 4914 C 448.697 -4.31456 0.216766 0
M  V30 4915 C 447.832 -5.27265 -0.645411 0
M  V30 4916 C 446.871 -6.11653 0.233756 0
M  V30 4917 N 446.008 -6.99636 -0.587682 0
M  V30 4918 H 450.848 -2.80722 0.999965 0
M  V30 4919 H 448.385 -1.38172 0.504677 0
M  V30 4920 H 450.343 -4.00394 -1.17219 0
M  V30 4921 H 448.973 -2.89274 -1.43249 0
M  V30 4922 H 448.025 -3.7088 0.845724 0
M  V30 4923 H 449.337 -4.90724 0.893973 0
M  V30 4924 H 448.491 -5.94266 -1.22198 0
M  V30 4925 H 447.23 -4.68463 -1.35623 0
M  V30 4926 H 446.235 -5.4361 0.82269 0
M  V30 4927 H 447.46 -6.72531 0.942247 0
M  V30 4928 H 445.406 -6.43337 -1.2827 0
M  V30 4929 H 445.323 -7.55993 0.0317402 0
M  V30 4930 H 446.591 -7.71001 -1.14792 0
M  V30 4931 N 450.82 -0.546701 -1.47814 0
M  V30 4932 C 451.75 0.195317 -2.32682 0
M  V30 4933 C 452.731 0.918981 -1.43139 0
M  V30 4934 O 453.916 0.901501 -1.72008 0
M  V30 4935 C 451.046 1.23237 -3.247 0
M  V30 4936 C 450 0.625818 -4.234 0
M  V30 4937 C 449.326 1.76674 -5.04669 0
M  V30 4938 C 450.626 -0.413515 -5.2066 0
M  V30 4939 H 452.32 -0.513184 -2.94969 0
M  V30 4940 H 449.866 -0.248241 -1.41844 0
M  V30 4941 H 451.819 1.75955 -3.82907 0
M  V30 4942 H 450.543 1.97067 -2.60446 0
M  V30 4943 H 449.202 0.120023 -3.66403 0
M  V30 4944 H 448.85 2.49383 -4.36826 0
M  V30 4945 H 448.55 1.36673 -5.71484 0
M  V30 4946 H 450.074 2.29738 -5.65732 0
M  V30 4947 H 451.488 0.0272042 -5.73294 0
M  V30 4948 H 449.885 -0.731825 -5.95621 0
M  V30 4949 H 450.955 -1.31325 -4.66778 0
M  V30 4950 N 452.299 1.55045 -0.282633 0
M  V30 4951 C 453.232 2.18951 0.64311 0
M  V30 4952 C 454.21 1.15287 1.14664 0
M  V30 4953 O 455.394 1.43846 1.21822 0
M  V30 4954 C 452.521 2.81874 1.87789 0
M  V30 4955 C 451.567 3.98906 1.50919 0
M  V30 4956 S 452.4 5.3234 0.580884 0
M  V30 4957 C 453.556 5.98737 1.82387 0
M  V30 4958 H 453.789 2.97131 0.100138 0
M  V30 4959 H 451.322 1.54255 -0.0668514 0
M  V30 4960 H 453.28 3.18757 2.58658 0
M  V30 4961 H 451.941 2.03573 2.392 0
M  V30 4962 H 451.134 4.4165 2.42819 0
M  V30 4963 H 450.736 3.63485 0.88061 0
M  V30 4964 H 453.028 6.18427 2.76684 0
M  V30 4965 H 453.971 6.93318 1.4393 0
M  V30 4966 H 454.379 5.28177 1.99223 0
M  V30 4967 N 453.777 0.010035 1.57597 0
M  V30 4968 C 455.002 -0.687021 1.95691 0
M  V30 4969 C 455.427 -1.65952 0.885519 0
M  V30 4970 O 454.785 -1.80633 -0.15543 0
M  V30 4971 C 454.833 -1.3864 3.32884 0
M  V30 4972 O 453.937 -2.50115 3.27897 0
M  V30 4973 H 453.278 -0.181989 0.638573 0
M  V30 4974 H 455.808 0.0662122 2.04493 0
M  V30 4975 H 455.818 -1.74754 3.6868 0
M  V30 4976 H 454.493 -0.673411 4.10412 0
M  V30 4977 H 453.07 -2.16253 3.03791 0
M  V30 4978 N 455.255 -1.55392 -0.262866 0
M  V30 4979 C 456.48 -1.80847 -1.01533 0
M  V30 4980 C 456.905 -0.584946 -1.78774 0
M  V30 4981 O 456.263 0.465701 -1.75217 0
M  V30 4982 C 456.311 -3.03866 -1.94159 0
M  V30 4983 O 455.415 -2.79662 -3.03089 0
M  V30 4984 H 454.756 -0.597441 -0.289759 0
M  V30 4985 H 457.286 -2.02553 -0.288698 0
M  V30 4986 H 457.296 -3.32872 -2.35924 0
M  V30 4987 H 455.971 -3.92564 -1.37354 0
M  V30 4988 H 454.548 -2.61781 -2.65566 0
M  V30 4989 N 456.733 0.527833 -1.48498 0
M  V30 4990 C 457.981 1.28101 -1.56316 0
M  V30 4991 C 458.302 1.9352 -0.239781 0
M  V30 4992 O 457.572 1.81433 0.738849 0
M  V30 4993 H 456.152 0.475793 -0.575873 0
M  V30 4994 H 458.814 0.614052 -1.84974 0
M  V30 4995 H 457.91 2.05916 -2.34532 0
M  V30 4996 N 458.211 1.37122 0.776871 0
M  V30 4997 C 459.159 1.32549 1.91138 0
M  V30 4998 C 460.153 0.215119 1.68029 0
M  V30 4999 O 461.359 0.382852 1.75881 0
M  V30 5000 H 457.734 0.412952 0.62847 0
M  V30 5001 H 459.705 2.28332 1.92112 0
M  V30 5002 C 458.454 1.14422 3.28333 0
M  V30 5003 H 457.777 1.99115 3.46689 0
M  V30 5004 H 459.217 1.15272 4.0803 0
M  V30 5005 C 457.676 -0.150434 3.36564 0
M  V30 5006 O 458.206 -1.13584 3.85307 0
M  V30 5007 N 456.412 -0.19939 2.89915 0
M  V30 5008 H 455.959 0.603142 2.5044 0
M  V30 5009 H 455.917 -1.06526 2.95803 0
M  V30 5010 N 459.689 -1.00246 1.21608 0
M  V30 5011 C 460.599 -2.12515 0.993709 0
M  V30 5012 C 461.615 -1.73913 -0.0549939 0
M  V30 5013 O 462.791 -2.00943 0.135619 0
M  V30 5014 C 459.856 -3.42083 0.563953 0
M  V30 5015 C 458.917 -3.94843 1.68516 0
M  V30 5016 C 458.15 -5.18226 1.27582 0
M  V30 5017 O 458.373 -5.70201 0.150506 0
M  V30 5018 O 457.307 -5.64497 2.0887 0
M  V30 5019 H 461.133 -2.34152 1.93407 0
M  V30 5020 H 458.718 -1.10891 1.00118 0
M  V30 5021 H 460.6 -4.20073 0.334194 0
M  V30 5022 H 459.275 -3.21828 -0.347665 0
M  V30 5023 H 458.182 -3.18068 1.96935 0
M  V30 5024 H 459.515 -4.19512 2.5743 0
M  V30 5025 N 461.167 -1.02423 -1.1978 0
M  V30 5026 C 462.077 -0.610919 -2.26506 0
M  V30 5027 C 463.093 0.355152 -1.70337 0
M  V30 5028 O 464.269 0.214195 -2.00258 0
M  V30 5029 C 461.334 0.0365921 -3.46681 0
M  V30 5030 C 460.395 -0.976389 -4.18049 0
M  V30 5031 C 459.628 -0.359683 -5.32487 0
M  V30 5032 O 459.851 0.838601 -5.64202 0
M  V30 5033 O 458.785 -1.08022 -5.92127 0
M  V30 5034 H 462.611 -1.49965 -2.64091 0
M  V30 5035 H 460.196 -0.794156 -1.26545 0
M  V30 5036 H 462.078 0.39786 -4.19518 0
M  V30 5037 H 460.753 0.899398 -3.10954 0
M  V30 5038 H 459.66 -1.38916 -3.47352 0
M  V30 5039 H 460.993 -1.80941 -4.57735 0
M  V30 5040 N 462.645 1.35699 -0.801477 0
M  V30 5041 C 463.87 2.03687 -0.390678 0
M  V30 5042 C 464.295 1.60015 0.988778 0
M  V30 5043 O 463.653 0.774357 1.63931 0
M  V30 5044 C 463.701 3.57439 -0.476404 0
M  V30 5045 O 462.805 4.09208 0.512106 0
M  V30 5046 H 462.146 0.64344 -0.163956 0
M  V30 5047 H 464.676 1.73403 -1.08594 0
M  V30 5048 H 464.686 4.06544 -0.344357 0
M  V30 5049 H 463.361 3.88576 -1.48262 0
M  V30 5050 H 461.938 3.7134 0.340721 0
M  V30 5051 N 464.123 0.554532 1.47522 0
M  V30 5052 C 465.053 -0.182974 2.32782 0
M  V30 5053 C 466.034 -0.911377 1.43624 0
M  V30 5054 O 467.219 -0.892366 1.72483 0
M  V30 5055 C 464.349 -1.21513 3.25349 0
M  V30 5056 C 463.303 -0.603355 4.23726 0
M  V30 5057 C 462.629 -1.73995 5.05598 0
M  V30 5058 C 463.929 0.441121 5.20434 0
M  V30 5059 H 465.623 0.52882 2.94693 0
M  V30 5060 H 463.169 0.255759 1.41711 0
M  V30 5061 H 465.122 -1.73922 3.83835 0
M  V30 5062 H 463.846 -1.95683 2.61487 0
M  V30 5063 H 462.505 -0.10059 3.66462 0
M  V30 5064 H 462.153 -2.47063 4.38143 0
M  V30 5065 H 461.853 -1.3364 5.72201 0
M  V30 5066 H 463.377 -2.26735 5.66942 0
M  V30 5067 H 464.791 0.00319931 5.733 0
M  V30 5068 H 463.188 0.763402 5.95224 0
M  V30 5069 H 464.258 1.33799 4.66075 0
M  V30 5070 N 465.601 -1.54893 0.290851 0
M  V30 5071 C 467.017 -1.59476 -0.0628432 0
M  V30 5072 C 467.217 -1.30795 -1.5328 0
M  V30 5073 O 466.273 -1.07644 -2.28406 0
M  V30 5074 C 467.586 -2.98928 0.325962 0
M  V30 5075 C 469.134 -3.11799 0.273882 0
M  V30 5076 C 469.609 -4.53544 0.637359 0
M  V30 5077 N 471.1 -4.59433 0.589507 0
M  V30 5078 C 471.835 -5.67164 0.84335 0
M  V30 5079 N 471.331 -6.82975 1.16263 0
M  V30 5080 N 473.124 -5.56786 0.771091 0
M  V30 5081 H 465.275 -1.71798 1.24896 0
M  V30 5082 H 467.538 -0.801879 0.505663 0
M  V30 5083 H 467.244 -3.24805 1.34887 0
M  V30 5084 H 467.118 -3.75793 -0.325441 0
M  V30 5085 H 469.505 -2.85677 -0.739765 0
M  V30 5086 H 469.586 -2.37112 0.959766 0
M  V30 5087 H 469.23 -4.80394 1.64877 0
M  V30 5088 H 469.16 -5.26553 -0.0704866 0
M  V30 5089 H 471.651 -3.76245 0.353252 0
M  V30 5090 H 471.964 -7.61048 1.34257 0
M  V30 5091 H 470.309 -6.84552 1.20057 0
M  V30 5092 H 473.5 -4.65187 0.521383 0
M  V30 5093 H 473.673 -6.40664 0.972295 0
M  V30 5094 N 467.08 -0.0183926 -1.57589 0
M  V30 5095 C 468.027 0.967022 -2.09565 0
M  V30 5096 C 468.997 1.32983 -0.995225 0
M  V30 5097 O 470.182 1.42501 -1.26878 0
M  V30 5098 C 467.322 2.24772 -2.61861 0
M  V30 5099 C 466.435 1.94232 -3.85873 0
M  V30 5100 C 465.57 3.16518 -4.26603 0
M  V30 5101 C 464.609 2.81748 -5.43401 0
M  V30 5102 N 463.746 3.96626 -5.79338 0
M  V30 5103 H 468.586 0.516874 -2.93483 0
M  V30 5104 H 466.123 0.243544 -1.4507 0
M  V30 5105 H 468.081 2.99667 -2.90268 0
M  V30 5106 H 466.711 2.67423 -1.8079 0
M  V30 5107 H 465.763 1.09625 -3.64262 0
M  V30 5108 H 467.075 1.64616 -4.70853 0
M  V30 5109 H 466.229 3.99743 -4.56389 0
M  V30 5110 H 464.968 3.49286 -3.40368 0
M  V30 5111 H 463.973 1.96933 -5.1332 0
M  V30 5112 H 465.198 2.50207 -6.31327 0
M  V30 5113 H 463.144 4.29257 -4.96059 0
M  V30 5114 H 463.061 3.70598 -6.58933 0
M  V30 5115 H 464.329 4.80586 -6.13724 0
M  V30 5116 N 468.558 1.5553 0.254621 0
M  V30 5117 C 469.804 1.77262 0.985193 0
M  V30 5118 C 470.137 0.582286 1.85265 0
M  V30 5119 O 469.412 -0.419666 1.89919 0
M  V30 5120 C 469.695 3.0881 1.85225 0
M  V30 5121 C 469.548 4.38233 1.0135 0
M  V30 5122 C 470.867 3.3653 2.83612 0
M  V30 5123 H 467.986 0.644906 0.356742 0
M  V30 5124 H 470.628 1.88264 0.256236 0
M  V30 5125 H 468.778 2.99562 2.47376 0
M  V30 5126 H 470.45 4.59463 0.411269 0
M  V30 5127 H 468.693 4.32636 0.317574 0
M  V30 5128 H 469.364 5.26644 1.65379 0
M  V30 5129 H 471.84 3.45691 2.31596 0
M  V30 5130 H 470.716 4.29805 3.41407 0
M  V30 5131 H 470.977 2.57064 3.59681 0
M  V30 5132 N 470.036 -0.519951 1.48776 0
M  V30 5133 C 471.313 -1.28123 1.47797 0
M  V30 5134 C 471.693 -2.10196 0.195157 0
M  V30 5135 O 471.041 -2.13167 -0.822925 0
M  V30 5136 C 471.251 -2.15413 2.74587 0
M  V30 5137 C 472.599 -2.75225 3.23321 0
M  V30 5138 O 473.623 -2.25694 2.75574 0
M  V30 5139 O 472.482 -3.65346 4.06429 0
M  V30 5140 H 469.576 -0.578793 0.590701 0
M  V30 5141 H 472.122 -0.535779 1.6102 0
M  V30 5142 H 470.894 -1.54617 3.59457 0
M  V30 5143 H 470.517 -2.97186 2.64132 0
M  V30 5144 N 471.514 -1.37532 -0.769588 0
M  V30 5145 C 472.739 -1.36231 -1.56384 0
M  V30 5146 C 473.164 0.0495849 -1.88035 0
M  V30 5147 O 472.522 1.02723 -1.49391 0
M  V30 5148 C 472.57 -2.20986 -2.84952 0
M  V30 5149 O 471.674 -1.61597 -3.79421 0
M  V30 5150 H 471.015 -0.465387 -0.473615 0
M  V30 5151 H 473.545 -1.81085 -0.952342 0
M  V30 5152 H 473.555 -2.34277 -3.34034 0
M  V30 5153 H 472.23 -3.23612 -2.61243 0
M  V30 5154 H 470.807 -1.57359 -3.38072 0
M  V30 5155 N 472.992 0.995999 -1.22138 0
M  V30 5156 C 473.955 2.06711 -0.990109 0
M  V30 5157 C 474.955 1.60744 0.0422978 0
M  V30 5158 O 476.145 1.73095 -0.195895 0
M  V30 5159 C 473.277 3.37288 -0.49491 0
M  V30 5160 H 474.47 2.28661 -1.94047 0
M  V30 5161 H 472.023 1.16711 -1.03963 0
M  V30 5162 H 472.758 3.21022 0.459948 0
M  V30 5163 H 472.543 3.71986 -1.23971 0
M  V30 5164 H 474.033 4.16103 -0.353253 0
M  V30 5165 N 474.47 1.03057 1.19235 0
M  V30 5166 C 475.716 0.729098 1.89241 0
M  V30 5167 C 476.049 -0.740573 1.79525 0
M  V30 5168 O 475.324 -1.53946 1.18874 0
M  V30 5169 C 475.607 1.18304 3.40112 0
M  V30 5170 C 475.46 2.71406 3.5869 0
M  V30 5171 C 476.779 0.765161 4.33397 0
M  V30 5172 H 473.898 0.266338 0.687192 0
M  V30 5173 H 476.54 1.28079 1.40341 0
M  V30 5174 H 474.69 0.713672 3.81889 0
M  V30 5175 H 476.362 3.26303 3.26074 0
M  V30 5176 H 474.605 3.11717 3.01687 0
M  V30 5177 H 475.276 2.98225 4.64506 0
M  V30 5178 H 477.752 1.16889 3.99345 0
M  V30 5179 H 476.628 1.11065 5.37546 0
M  V30 5180 H 476.889 -0.332372 4.40849 0
M  V30 5181 N 475.948 -1.35272 0.808662 0
M  V30 5182 C 477.195 -1.98709 0.390003 0
M  V30 5183 C 477.523 -1.64148 -1.04335 0
M  V30 5184 O 476.778 -0.897797 -1.73891 0
M  V30 5185 C 477.077 -3.53556 0.522798 0
M  V30 5186 C 476.743 -4.0799 1.91977 0
M  V30 5187 C 475.405 -4.22568 2.30195 0
M  V30 5188 C 477.757 -4.37442 2.83361 0
M  V30 5189 C 475.085 -4.63918 3.59162 0
M  V30 5190 C 477.437 -4.80232 4.11776 0
M  V30 5191 C 476.101 -4.93016 4.49991 0
M  V30 5192 H 475.371 -0.727127 0.142712 0
M  V30 5193 H 478.018 -1.6145 1.02985 0
M  V30 5194 H 476.323 -3.91287 -0.200494 0
M  V30 5195 H 478.02 -4.00598 0.179608 0
M  V30 5196 H 474.61 -3.97096 1.61284 0
M  V30 5197 H 478.794 -4.25731 2.55083 0
M  V30 5198 H 474.05 -4.72005 3.88615 0
M  V30 5199 H 478.224 -5.01982 4.82687 0
M  V30 5200 H 475.851 -5.24814 5.49976 0
M  V30 5201 N 477.426 -0.562348 -1.47226 0
M  V30 5202 C 478.666 -0.0426374 -2.04356 0
M  V30 5203 C 479.03 1.28487 -1.42671 0
M  V30 5204 O 480.231 1.89259 -1.90878 0
M  V30 5205 C 478.502 0.0433826 -3.57374 0
M  V30 5206 S 480.061 0.508472 -4.35844 0
M  V30 5207 H 476.879 -0.0276234 -0.710463 0
M  V30 5208 H 479.481 -0.750245 -1.80531 0
M  V30 5209 H 478.185 -0.927072 -3.99792 0
M  V30 5210 H 477.716 0.774387 -3.85703 0
M  V30 5211 H 479.731 1.76719 -4.63665 0
M  V30 5212 N 478.904 1.54736 -0.299062 0
M  V30 5213 C 479.834 2.26409 0.571085 0
M  V30 5214 C 480.815 1.2629 1.13951 0
M  V30 5215 O 482 1.55059 1.16921 0
M  V30 5216 C 479.13 3.00338 1.74396 0
M  V30 5217 C 478.084 4.07588 1.30599 0
M  V30 5218 C 477.41 4.69222 2.56387 0
M  V30 5219 C 478.71 5.20455 0.438645 0
M  V30 5220 H 480.404 2.99388 -0.0266991 0
M  V30 5221 H 477.95 1.43993 -0.0142812 0
M  V30 5222 H 479.903 3.49198 2.35878 0
M  V30 5223 H 478.627 2.24934 2.36796 0
M  V30 5224 H 477.286 3.59575 0.71424 0
M  V30 5225 H 476.934 3.9046 3.17097 0
M  V30 5226 H 476.634 5.41653 2.27784 0
M  V30 5227 H 478.158 5.20844 3.18675 0
M  V30 5228 H 479.572 5.65221 0.959085 0
M  V30 5229 H 477.969 5.99594 0.246466 0
M  V30 5230 H 479.039 4.8192 -0.536738 0
M  V30 5231 N 480.382 0.0267497 1.57577 0
M  V30 5232 C 481.622 -0.65659 1.93567 0
M  V30 5233 C 481.986 -1.69429 0.903213 0
M  V30 5234 O 483.187 -2.42994 1.14923 0
M  V30 5235 C 481.458 -1.25912 3.34486 0
M  V30 5236 S 483.017 -1.96386 3.924 0
M  V30 5237 H 479.835 -0.216237 0.67732 0
M  V30 5238 H 482.437 0.0898475 1.95293 0
M  V30 5239 H 481.141 -0.491405 4.07447 0
M  V30 5240 H 480.672 -2.04291 3.36198 0
M  V30 5241 H 482.687 -3.24202 3.75643 0
M  V30 5242 N 481.861 -1.55662 -0.24637 0
M  V30 5243 C 482.791 -1.93377 -1.30873 0
M  V30 5244 C 483.772 -0.798773 -1.50179 0
M  V30 5245 O 484.957 -1.0591 -1.62778 0
M  V30 5246 C 482.087 -2.22893 -2.66338 0
M  V30 5247 C 481.041 -3.38649 -2.61727 0
M  V30 5248 C 480.367 -3.53708 -4.00992 0
M  V30 5249 C 481.667 -4.74323 -2.18666 0
M  V30 5250 H 483.361 -2.82363 -0.995552 0
M  V30 5251 H 480.907 -1.35854 -0.477464 0
M  V30 5252 H 482.86 -2.47866 -3.40794 0
M  V30 5253 H 481.584 -1.30733 -2.99293 0
M  V30 5254 H 480.243 -3.13685 -1.89729 0
M  V30 5255 H 479.891 -2.58967 -4.31214 0
M  V30 5256 H 479.591 -4.31551 -3.98795 0
M  V30 5257 H 481.115 -3.81003 -4.77147 0
M  V30 5258 H 482.529 -4.98665 -2.82854 0
M  V30 5259 H 480.926 -5.55273 -2.27579 0
M  V30 5260 H 481.996 -4.71349 -1.13834 0
M  V30 5261 N 483.339 0.512053 -1.4905 0
M  V30 5262 C 484.616 1.27337 -1.48474 0
M  V30 5263 C 484.996 2.1009 -0.206301 0
M  V30 5264 O 484.344 2.136 0.811609 0
M  V30 5265 C 484.554 2.13954 -2.75726 0
M  V30 5266 C 485.902 2.73507 -3.24776 0
M  V30 5267 O 486.926 2.24229 -2.76767 0
M  V30 5268 O 485.785 3.63186 -4.08361 0
M  V30 5269 H 482.879 0.575652 -0.593762 0
M  V30 5270 H 485.425 0.527232 -1.61302 0
M  V30 5271 H 484.197 1.52709 -3.60272 0
M  V30 5272 H 483.82 2.95782 -2.65705 0
M  V30 5273 N 484.817 1.37938 0.762283 0
M  V30 5274 C 486.094 1.24196 1.51112 0
M  V30 5275 C 486.474 -0.160409 2.1049 0
M  V30 5276 O 485.822 -1.16904 1.96331 0
M  V30 5277 C 486.032 2.34537 2.58445 0
M  V30 5278 C 487.38 2.7254 3.25588 0
M  V30 5279 O 488.404 2.33783 2.68745 0
M  V30 5280 O 487.263 3.39343 4.28379 0
M  V30 5281 H 484.357 0.485175 0.669727 0
M  V30 5282 H 486.903 1.49743 0.798438 0
M  V30 5283 H 485.675 3.28406 2.12756 0
M  V30 5284 H 485.298 2.10505 3.37303 0
M  V30 5285 N 486.295 -0.989507 1.22664 0
M  V30 5286 C 487.542 -1.72953 1.05325 0
M  V30 5287 C 487.87 -1.90104 -0.411168 0
M  V30 5288 O 487.125 -1.44386 -1.32103 0
M  V30 5289 C 487.424 -3.13649 1.71345 0
M  V30 5290 C 487.09 -3.16403 3.21248 0
M  V30 5291 C 485.752 -3.16862 3.62149 0
M  V30 5292 C 488.104 -3.12428 4.17179 0
M  V30 5293 C 485.432 -3.11051 4.97458 0
M  V30 5294 C 487.784 -3.08159 5.52468 0
M  V30 5295 C 486.448 -3.06935 5.92746 0
M  V30 5296 H 485.718 -0.632881 0.385412 0
M  V30 5297 H 488.365 -1.15863 1.52473 0
M  V30 5298 H 486.67 -3.74069 1.16532 0
M  V30 5299 H 488.367 -3.69658 1.55416 0
M  V30 5300 H 484.957 -3.16798 2.88682 0
M  V30 5301 H 489.141 -3.11221 3.86595 0
M  V30 5302 H 484.397 -3.0845 5.27891 0
M  V30 5303 H 488.571 -3.04039 6.26525 0
M  V30 5304 H 486.198 -3.02186 6.97558 0
M  V30 5305 N 487.773 -1.03688 -1.18687 0
M  V30 5306 C 489.184 -0.766488 -1.70241 0
M  V30 5307 C 489.535 0.713052 -1.82784 0
M  V30 5308 O 488.66 1.55529 -1.50465 0
M  V30 5309 C 489.255 -1.38475 -3.09209 0
M  V30 5310 C 487.814 -1.16276 -3.5799 0
M  V30 5311 C 486.961 -1.4778 -2.34641 0
M  V30 5312 H 489.912 -1.20378 -1.03415 0
M  V30 5313 H 489.933 -0.785939 -3.72295 0
M  V30 5314 H 489.445 -2.46157 -3.00048 0
M  V30 5315 H 487.546 -0.104508 -3.72453 0
M  V30 5316 H 487.659 -1.8571 -4.41643 0
M  V30 5317 H 486.023 -0.897366 -2.38368 0
M  V30 5318 H 486.806 -2.56562 -2.28102 0
M  V30 5319 N 489.251 1.34841 -0.815825 0
M  V30 5320 C 490.5 1.97755 -0.396976 0
M  V30 5321 C 490.813 1.65422 1.04379 0
M  V30 5322 O 492.019 2.21771 1.5662 0
M  V30 5323 C 490.475 3.53818 -0.658869 0
M  V30 5324 C 490.083 3.95051 -2.11278 0
M  V30 5325 C 491.827 4.23397 -0.305834 0
M  V30 5326 C 489.734 5.43997 -2.31994 0
M  V30 5327 H 488.664 0.739985 -0.1447 0
M  V30 5328 H 491.315 1.53781 -1.00118 0
M  V30 5329 H 489.697 3.95997 0.0154112 0
M  V30 5330 H 490.871 3.63998 -2.82564 0
M  V30 5331 H 489.186 3.38388 -2.42657 0
M  V30 5332 H 491.783 5.32899 -0.43854 0
M  V30 5333 H 492.126 4.09508 0.748952 0
M  V30 5334 H 492.659 3.8667 -0.934403 0
M  V30 5335 H 489.398 5.62865 -3.35952 0
M  V30 5336 H 488.918 5.76589 -1.65244 0
M  V30 5337 H 490.597 6.10584 -2.14001 0
M  V30 5338 N 490.729 0.570148 1.46925 0
M  V30 5339 C 491.676 -0.170257 2.30171 0
M  V30 5340 C 492.646 -0.896099 1.39855 0
M  V30 5341 O 493.831 -0.889248 1.68811 0
M  V30 5342 C 490.971 -1.18605 3.24079 0
M  V30 5343 C 490.084 -0.464947 4.29491 0
M  V30 5344 C 489.219 -1.46716 5.10537 0
M  V30 5345 C 488.258 -0.731758 6.0771 0
M  V30 5346 N 487.395 -1.68142 6.81669 0
M  V30 5347 H 492.235 0.545713 2.92961 0
M  V30 5348 H 489.772 0.280938 1.44392 0
M  V30 5349 H 491.73 -1.78771 3.76957 0
M  V30 5350 H 490.36 -1.86989 2.63125 0
M  V30 5351 H 489.412 0.251506 3.79568 0
M  V30 5352 H 490.724 0.110548 4.98677 0
M  V30 5353 H 489.878 -2.14199 5.6763 0
M  V30 5354 H 488.617 -2.07658 4.41282 0
M  V30 5355 H 487.622 -0.0430787 5.49783 0
M  V30 5356 H 488.847 -0.127904 6.7898 0
M  V30 5357 H 486.793 -2.27918 6.15134 0
M  V30 5358 H 486.71 -1.15841 7.47072 0
M  V30 5359 H 487.978 -2.347 7.43328 0
M  V30 5360 N 492.207 -1.54576 0.307264 0
M  V30 5361 C 493.484 -1.92377 -0.353605 0
M  V30 5362 C 493.864 -1.23517 -1.71192 0
M  V30 5363 O 493.212 -0.373101 -2.25433 0
M  V30 5364 C 493.422 -3.45928 -0.462039 0
M  V30 5365 C 494.77 -4.18278 -0.729975 0
M  V30 5366 O 495.794 -3.51997 -0.545605 0
M  V30 5367 O 494.653 -5.3563 -1.08454 0
M  V30 5368 H 491.747 -0.802747 -0.198812 0
M  V30 5369 H 494.293 -1.65929 0.355783 0
M  V30 5370 H 493.065 -3.88187 0.492592 0
M  V30 5371 H 492.688 -3.78431 -1.21965 0
M  V30 5372 N 493.685 -0.035106 -1.57561 0
M  V30 5373 C 494.615 0.942993 -2.13612 0
M  V30 5374 C 495.596 1.33531 -1.05373 0
M  V30 5375 O 496.781 1.41287 -1.33235 0
M  V30 5376 C 493.911 2.22332 -2.66807 0
M  V30 5377 C 492.865 1.97156 -3.79886 0
M  V30 5378 C 492.191 3.31506 -4.19533 0
M  V30 5379 C 493.491 1.30596 -5.05709 0
M  V30 5380 H 495.185 0.476179 -2.95589 0
M  V30 5381 H 492.731 0.227602 -1.4219 0
M  V30 5382 H 494.684 2.91142 -3.04654 0
M  V30 5383 H 493.408 2.7119 -1.81999 0
M  V30 5384 H 492.067 1.30763 -3.42486 0
M  V30 5385 H 491.715 3.78134 -3.31698 0
M  V30 5386 H 491.415 3.15465 -4.95738 0
M  V30 5387 H 492.939 4.01574 -4.59968 0
M  V30 5388 H 494.353 1.89416 -5.41105 0
M  V30 5389 H 492.75 1.24934 -5.86951 0
M  V30 5390 H 493.82 0.279742 -4.84092 0
M  V30 5391 N 495.163 1.55791 0.238111 0
M  V30 5392 C 496.409 1.78297 0.966337 0
M  V30 5393 C 496.742 0.601903 1.84637 0
M  V30 5394 O 496.017 -0.399499 1.90353 0
M  V30 5395 C 496.3 3.10758 1.81939 0
M  V30 5396 C 496.153 4.39283 0.966958 0
M  V30 5397 C 497.472 3.39519 2.80027 0
M  V30 5398 H 494.591 0.648654 0.349882 0
M  V30 5399 H 497.233 1.88525 0.236253 0
M  V30 5400 H 495.383 3.02168 2.44185 0
M  V30 5401 H 497.055 4.59873 0.362514 0
M  V30 5402 H 495.298 4.32948 0.271669 0
M  V30 5403 H 495.969 5.28368 1.59784 0
M  V30 5404 H 498.445 3.48128 2.27917 0
M  V30 5405 H 497.321 4.33402 3.36829 0
M  V30 5406 H 497.582 2.60864 3.56934 0
M  V30 5407 N 496.642 -0.504142 1.49319 0
M  V30 5408 C 497.592 -1.60284 1.62151 0
M  V30 5409 C 498.576 -1.53657 0.477315 0
M  V30 5410 O 499.768 -1.6124 0.730108 0
M  V30 5411 C 496.897 -2.98909 1.68844 0
M  V30 5412 C 495.983 -3.10544 2.8883 0
M  V30 5413 N 496.374 -2.92078 4.12946 0
M  V30 5414 C 494.672 -3.4164 2.86702 0
M  V30 5415 C 495.373 -3.07812 4.93585 0
M  V30 5416 N 494.349 -3.36549 4.26891 0
M  V30 5417 H 498.151 -1.44656 2.55835 0
M  V30 5418 H 495.665 -0.710198 1.46048 0
M  V30 5419 H 497.662 -3.77865 1.76134 0
M  V30 5420 H 496.322 -3.15609 0.762943 0
M  V30 5421 H 497.333 -2.68316 4.42975 0
M  V30 5422 H 494.01 -3.64537 2.03517 0
M  V30 5423 H 495.4 -2.98054 6.02174 0
M  V30 5424 N 498.12 -1.38341 -0.754957 0
M  V30 5425 C 499.05 -1.38176 -1.88227 0
M  V30 5426 C 500.031 -0.247873 -1.68284 0
M  V30 5427 O 501.216 -0.45075 -1.88896 0
M  V30 5428 C 498.346 -1.20471 -3.25736 0
M  V30 5429 C 497.3 -2.3105 -3.60278 0
M  V30 5430 C 496.626 -1.98452 -4.96509 0
M  V30 5431 C 497.926 -3.73305 -3.65295 0
M  V30 5432 H 499.62 -2.32512 -1.88622 0
M  V30 5433 H 497.166 -1.1192 -0.906082 0
M  V30 5434 H 499.119 -1.18982 -4.04254 0
M  V30 5435 H 497.843 -0.225965 -3.25817 0
M  V30 5436 H 496.502 -2.31723 -2.84078 0
M  V30 5437 H 496.15 -0.990641 -4.93148 0
M  V30 5438 H 495.85 -2.7251 -5.20588 0
M  V30 5439 H 497.374 -1.98578 -5.77407 0
M  V30 5440 H 498.788 -3.7467 -4.3393 0
M  V30 5441 H 497.185 -4.46557 -4.00883 0
M  V30 5442 H 498.255 -4.05719 -2.65556 0
M  V30 5443 N 499.598 0.982988 -1.23187 0
M  V30 5444 C 500.823 1.76455 -1.08988 0
M  V30 5445 C 501.248 1.84726 0.354691 0
M  V30 5446 O 500.606 1.30699 1.25649 0
M  V30 5447 C 500.654 3.17094 -1.71708 0
M  V30 5448 O 499.758 4.00648 -0.977477 0
M  V30 5449 H 499.099 0.542988 -0.382177 0
M  V30 5450 H 501.629 1.23413 -1.63188 0
M  V30 5451 H 501.639 3.67684 -1.76841 0
M  V30 5452 H 500.314 3.10389 -2.76823 0
M  V30 5453 H 498.891 3.59161 -1.0029 0
M  V30 5454 N 501.076 1.04316 1.18135 0
M  V30 5455 C 502.026 0.606731 2.19779 0
M  V30 5456 C 503.01 -0.352144 1.56999 0
M  V30 5457 O 504.202 -0.170795 1.76174 0
M  V30 5458 C 501.331 -0.0262443 3.4329 0
M  V30 5459 C 500.417 0.955928 4.13186 0
M  V30 5460 N 500.808 2.12395 4.59045 0
M  V30 5461 C 499.106 0.782473 4.39082 0
M  V30 5462 C 499.807 2.74458 5.12882 0
M  V30 5463 N 498.783 2.02316 5.04548 0
M  V30 5464 H 502.585 1.49679 2.5293 0
M  V30 5465 H 500.099 0.912088 1.34368 0
M  V30 5466 H 502.096 -0.356617 4.15372 0
M  V30 5467 H 500.756 -0.911811 3.11635 0
M  V30 5468 H 501.767 2.50272 4.53414 0
M  V30 5469 H 498.444 -0.0527906 4.17467 0
M  V30 5470 H 499.834 3.73459 5.5855 0
M  V30 5471 N 502.554 -1.34406 0.822964 0
M  V30 5472 C 503.502 -2.31428 0.233165 0
M  V30 5473 C 504.496 -1.57404 -0.626118 0
M  V30 5474 O 505.702 -1.72402 -0.517453 0
M  V30 5475 H 502.077 -0.749863 0.0566557 0
M  V30 5476 H 504.048 -2.78699 1.06628 0
M  V30 5477 C 502.797 -3.42653 -0.590264 0
M  V30 5478 H 502.12 -3.99753 0.0616129 0
M  V30 5479 H 503.56 -4.12778 -0.969054 0
M  V30 5480 C 502.019 -2.87112 -1.76262 0
M  V30 5481 O 502.549 -2.81995 -2.8608 0
M  V30 5482 N 500.755 -2.43934 -1.57938 0
M  V30 5483 H 500.302 -2.48296 -0.686078 0
M  V30 5484 H 500.26 -2.07123 -2.36532 0
M  V30 5485 N 504.032 -0.577932 -1.46621 0
M  V30 5486 C 504.965 0.206312 -2.27265 0
M  V30 5487 C 505.943 0.901306 -1.35334 0
M  V30 5488 O 507.127 0.916151 -1.64739 0
M  V30 5489 C 504.254 1.29563 -3.1294 0
M  V30 5490 C 503.3 0.706981 -4.206 0
M  V30 5491 S 504.133 -0.462459 -5.33499 0
M  V30 5492 C 505.289 0.628171 -6.2274 0
M  V30 5493 H 505.522 -0.477961 -2.93433 0
M  V30 5494 H 503.055 -0.364715 -1.50031 0
M  V30 5495 H 505.013 1.91935 -3.62865 0
M  V30 5496 H 503.674 1.95183 -2.46095 0
M  V30 5497 H 502.867 1.52565 -4.80354 0
M  V30 5498 H 502.469 0.159022 -3.73662 0
M  V30 5499 H 504.761 1.51506 -6.60342 0
M  V30 5500 H 505.704 0.0674961 -7.08068 0
M  V30 5501 H 506.112 0.930167 -5.56784 0
M  V30 5502 N 505.51 1.54411 -0.315457 0
M  V30 5503 C 506.44 2.27002 0.547039 0
M  V30 5504 C 507.421 1.27492 1.12605 0
M  V30 5505 O 508.606 1.5629 1.15269 0
M  V30 5506 C 505.736 3.02171 1.71201 0
M  V30 5507 C 504.69 4.0895 1.26268 0
M  V30 5508 C 504.016 4.71915 2.51396 0
M  V30 5509 C 505.316 5.20891 0.383419 0
M  V30 5510 H 507.01 2.99343 -0.0584517 0
M  V30 5511 H 504.556 1.4397 -0.0295527 0
M  V30 5512 H 506.509 3.51681 2.32161 0
M  V30 5513 H 505.233 2.27433 2.34397 0
M  V30 5514 H 503.892 3.60312 0.676062 0
M  V30 5515 H 503.54 3.93801 3.12937 0
M  V30 5516 H 503.24 5.44039 2.22026 0
M  V30 5517 H 504.764 5.24195 3.13133 0
M  V30 5518 H 506.178 5.66206 0.899082 0
M  V30 5519 H 504.575 5.99821 0.182857 0
M  V30 5520 H 505.645 4.81324 -0.587821 0
M  V30 5521 N 506.988 0.0434614 1.5754 0
M  V30 5522 C 507.938 -0.943039 2.07583 0
M  V30 5523 C 508.922 -1.27662 0.979342 0
M  V30 5524 O 510.114 -1.26034 1.24276 0
M  V30 5525 C 507.243 -2.22056 2.61813 0
M  V30 5526 C 506.329 -1.91471 3.78417 0
M  V30 5527 N 506.72 -1.31214 4.88484 0
M  V30 5528 C 505.018 -2.21384 3.87176 0
M  V30 5529 C 505.719 -1.18084 5.69588 0
M  V30 5530 N 504.695 -1.68116 5.16951 0
M  V30 5531 H 508.497 -0.472354 2.90079 0
M  V30 5532 H 506.011 -0.161191 1.61598 0
M  V30 5533 H 508.008 -2.93618 2.95963 0
M  V30 5534 H 506.668 -2.69738 1.80752 0
M  V30 5535 H 507.679 -0.985318 5.08441 0
M  V30 5536 H 504.356 -2.7164 3.17046 0
M  V30 5537 H 505.746 -0.713684 6.68099 0
M  V30 5538 N 508.466 -1.55915 -0.229846 0
M  V30 5539 C 509.714 -1.7819 -0.953565 0
M  V30 5540 C 510.035 -0.610504 -1.85197 0
M  V30 5541 O 509.305 0.372988 -1.92316 0
M  V30 5542 H 507.885 -0.657208 -0.355087 0
M  V30 5543 H 510.547 -1.9337 -0.243693 0
M  V30 5544 H 509.643 -2.70011 -1.56527 0
M  V30 5545 N 509.944 0.496216 -1.49584 0
M  V30 5546 C 511.221 1.25755 -1.49816 0
M  V30 5547 C 511.601 2.09859 -0.228572 0
M  V30 5548 O 510.949 2.14449 0.788908 0
M  V30 5549 C 511.159 2.11017 -2.7798 0
M  V30 5550 C 512.507 2.70047 -3.27658 0
M  V30 5551 O 513.531 2.21281 -2.79129 0
M  V30 5552 O 512.39 3.58834 -4.1219 0
M  V30 5553 H 509.484 0.569322 -0.599834 0
M  V30 5554 H 512.03 0.510094 -1.61852 0
M  V30 5555 H 510.802 1.48879 -3.61871 0
M  V30 5556 H 510.425 2.92947 -2.68827 0
M  V30 5557 N 511.423 1.38739 0.74761 0
M  V30 5558 C 512.671 1.35007 1.50391 0
M  V30 5559 C 512.992 -0.0574274 1.94915 0
M  V30 5560 O 512.262 -1.00628 1.6808 0
M  V30 5561 H 510.842 0.496784 0.557866 0
M  V30 5562 H 513.504 1.73479 0.888319 0
M  V30 5563 H 512.6 2.00474 2.392 0
M  V30 5564 N 512.901 -0.976442 1.23707 0
M  V30 5565 C 514.129 -1.75341 1.09833 0
M  V30 5566 C 514.544 -1.8553 -0.349885 0
M  V30 5567 O 513.901 -1.33732 -1.24185 0
M  V30 5568 C 513.952 -3.17833 1.72233 0
M  V30 5569 O 513.673 -3.08167 3.11391 0
M  V30 5570 C 515.174 -4.11906 1.63853 0
M  V30 5571 H 512.394 -0.550137 0.384175 0
M  V30 5572 H 514.938 -1.2265 1.63638 0
M  V30 5573 H 513.093 -3.67538 1.22452 0
M  V30 5574 H 513.507 -3.97897 3.41729 0
M  V30 5575 H 514.981 -5.09579 2.12211 0
M  V30 5576 H 515.458 -4.35109 0.598092 0
M  V30 5577 H 516.064 -3.68107 2.13019 0
M  V30 5578 N 514.379 -1.04941 -1.1758 0
M  V30 5579 C 515.327 -0.64204 -2.23563 0
M  V30 5580 C 516.321 0.335453 -1.66045 0
M  V30 5581 O 517.527 0.20179 -1.78865 0
M  V30 5582 H 513.902 -0.18944 -0.727748 0
M  V30 5583 H 515.873 -1.54609 -2.55223 0
M  V30 5584 C 514.622 -0.0301051 -3.47687 0
M  V30 5585 H 513.945 -0.773339 -3.92249 0
M  V30 5586 H 515.385 0.217592 -4.23441 0
M  V30 5587 C 513.844 1.2225 -3.13937 0
M  V30 5588 O 514.374 2.3122 -3.28482 0
M  V30 5589 N 512.58 1.11917 -2.68185 0
M  V30 5590 H 512.127 0.232403 -2.5655 0
M  V30 5591 H 512.085 1.95814 -2.45976 0
M  V30 5592 N 515.857 1.33968 -0.830081 0
M  V30 5593 C 517.273 1.51003 -0.516742 0
M  V30 5594 C 517.473 1.77286 0.957694 0
M  V30 5595 O 516.529 1.82797 1.74188 0
M  V30 5596 C 517.842 2.67036 -1.38247 0
M  V30 5597 C 519.39 2.80919 -1.38034 0
M  V30 5598 C 519.865 4.00004 -2.23071 0
M  V30 5599 N 521.356 4.07224 -2.20733 0
M  V30 5600 C 522.091 4.98541 -2.83275 0
M  V30 5601 N 521.587 5.95033 -3.54835 0
M  V30 5602 N 523.38 4.91469 -2.72791 0
M  V30 5603 H 515.531 1.15168 -1.78466 0
M  V30 5604 H 517.794 0.565443 -0.760906 0
M  V30 5605 H 517.5 2.54266 -2.42985 0
M  V30 5606 H 517.374 3.62226 -1.05225 0
M  V30 5607 H 519.761 2.93127 -0.340713 0
M  V30 5608 H 519.842 1.86517 -1.75057 0
M  V30 5609 H 519.486 3.88557 -3.27087 0
M  V30 5610 H 519.416 4.93634 -1.83394 0
M  V30 5611 H 521.907 3.38162 -1.68687 0
M  V30 5612 H 522.22 6.61357 -3.99784 0
M  V30 5613 H 520.565 5.95135 -3.58942 0
M  V30 5614 H 523.756 4.15048 -2.16456 0
M  V30 5615 H 523.929 5.62439 -3.21818 0
M  V30 5616 N 517.335 0.585699 1.46312 0
M  V30 5617 C 518.581 0.0808731 2.03239 0
M  V30 5618 C 518.936 -1.26609 1.44872 0
M  V30 5619 O 518.229 -1.81779 0.60556 0
M  V30 5620 C 518.423 -0.0401312 3.57377 0
M  V30 5621 C 518.252 1.29356 4.30694 0
M  V30 5622 C 517.022 1.86849 4.69484 0
M  V30 5623 C 519.22 2.21742 4.64042 0
M  V30 5624 N 517.202 3.13926 5.27564 0
M  V30 5625 C 518.573 3.33408 5.22723 0
M  V30 5626 C 520.628 2.21386 4.45974 0
M  V30 5627 C 519.331 4.44852 5.65242 0
M  V30 5628 C 521.357 3.31862 4.89511 0
M  V30 5629 C 520.719 4.42248 5.48266 0
M  V30 5630 H 516.818 0.072443 0.778637 0
M  V30 5631 H 519.402 0.779254 1.78426 0
M  V30 5632 H 517.573 -0.707686 3.81898 0
M  V30 5633 H 519.305 -0.549615 4.00951 0
M  V30 5634 H 516.06 1.40307 4.52339 0
M  V30 5635 H 516.484 3.78775 5.61122 0
M  V30 5636 H 521.126 1.37314 3.99881 0
M  V30 5637 H 518.844 5.29665 6.10312 0
M  V30 5638 H 522.43 3.32708 4.7728 0
M  V30 5639 H 521.31 5.26323 5.81338 0
M  V30 5640 N 518.813 -1.54241 0.323641 0
M  V30 5641 C 520.06 -2.0057 -0.27891 0
M  V30 5642 C 520.388 -1.21181 -1.52136 0
M  V30 5643 O 519.643 -0.282043 -1.93657 0
M  V30 5644 C 519.942 -3.5129 -0.658031 0
M  V30 5645 C 519.608 -4.48281 0.485252 0
M  V30 5646 C 518.27 -4.74519 0.799055 0
M  V30 5647 C 520.622 -5.05909 1.25322 0
M  V30 5648 C 517.95 -5.55643 1.88354 0
M  V30 5649 C 520.302 -5.88215 2.32779 0
M  V30 5650 C 518.966 -6.12755 2.64741 0
M  V30 5651 H 518.236 -0.733938 -0.10206 0
M  V30 5652 H 520.883 -1.862 0.447435 0
M  V30 5653 H 519.188 -3.63388 -1.4648 0
M  V30 5654 H 520.885 -3.84578 -1.1358 0
M  V30 5655 H 517.475 -4.27979 0.230593 0
M  V30 5656 H 521.659 -4.8562 1.02404 0
M  V30 5657 H 516.915 -5.72888 2.13564 0
M  V30 5658 H 521.089 -6.31888 2.92729 0
M  V30 5659 H 518.716 -6.75404 3.48904 0
M  V30 5660 N 520.291 -0.0518155 -1.57515 0
M  V30 5661 C 521.568 0.661727 -1.84067 0
M  V30 5662 C 521.948 1.88999 -0.940351 0
M  V30 5663 O 521.296 2.285 -0.00155404 0
M  V30 5664 C 521.506 1.01841 -3.3381 0
M  V30 5665 C 522.854 1.40043 -4.00841 0
M  V30 5666 O 523.878 1.11073 -3.38439 0
M  V30 5667 O 522.737 1.94111 -5.10865 0
M  V30 5668 H 519.831 0.326702 -0.759733 0
M  V30 5669 H 522.377 -0.0812277 -1.69505 0
M  V30 5670 H 521.149 0.145202 -3.91031 0
M  V30 5671 H 520.772 1.81879 -3.53562 0
M  V30 5672 N 521.769 1.56035 0.221574 0
M  V30 5673 C 522.716 1.92413 1.27459 0
M  V30 5674 C 523.686 0.781323 1.46576 0
M  V30 5675 O 524.871 1.03721 1.60145 0
M  V30 5676 C 522.011 2.24617 2.61995 0
M  V30 5677 C 521.124 3.51831 2.50677 0
M  V30 5678 C 520.259 3.73482 3.77736 0
M  V30 5679 C 519.298 4.94211 3.6114 0
M  V30 5680 N 518.435 5.12252 4.80148 0
M  V30 5681 H 523.275 2.82203 0.957355 0
M  V30 5682 H 520.812 1.39676 0.461415 0
M  V30 5683 H 522.77 2.41298 3.40339 0
M  V30 5684 H 521.4 1.38 2.91815 0
M  V30 5685 H 520.452 3.43343 1.63767 0
M  V30 5686 H 521.764 4.40328 2.34334 0
M  V30 5687 H 520.918 3.9026 4.64523 0
M  V30 5688 H 519.657 2.83266 3.97003 0
M  V30 5689 H 518.662 4.77384 2.72736 0
M  V30 5690 H 519.887 5.85912 3.43343 0
M  V30 5691 H 517.833 4.24978 4.99729 0
M  V30 5692 H 517.75 5.94881 4.66532 0
M  V30 5693 H 519.018 5.33465 5.68362 0
M  V30 5694 N 523.247 -0.488276 1.49845 0
M  V30 5695 C 524.472 -1.26997 1.63971 0
M  V30 5696 C 524.897 -1.85427 0.315994 0
M  V30 5697 O 524.255 -1.66475 -0.718032 0
M  V30 5698 C 524.303 -2.36689 2.72049 0
M  V30 5699 O 523.407 -3.40882 2.32107 0
M  V30 5700 H 522.748 -0.374376 0.548396 0
M  V30 5701 H 525.278 -0.583104 1.96115 0
M  V30 5702 H 525.288 -2.82262 2.94605 0
M  V30 5703 H 523.963 -1.93529 3.68129 0
M  V30 5704 H 522.54 -3.01139 2.19931 0
M  V30 5705 N 524.725 -1.39134 -0.740242 0
M  V30 5706 C 525.972 -1.36071 -1.49969 0
M  V30 5707 C 526.3 0.0450245 -1.94448 0
M  V30 5708 O 525.555 1.02482 -1.66721 0
M  V30 5709 C 525.854 -2.27457 -2.75678 0
M  V30 5710 C 525.52 -3.75185 -2.50094 0
M  V30 5711 C 524.182 -4.15439 -2.42825 0
M  V30 5712 C 526.534 -4.68643 -2.28086 0
M  V30 5713 C 523.862 -5.4722 -2.11584 0
M  V30 5714 C 526.214 -6.00695 -1.98363 0
M  V30 5715 C 524.878 -6.40018 -1.8956 0
M  V30 5716 H 524.148 -0.497921 -0.548777 0
M  V30 5717 H 526.795 -1.71599 -0.85007 0
M  V30 5718 H 525.1 -1.8503 -3.45356 0
M  V30 5719 H 526.797 -2.22384 -3.33686 0
M  V30 5720 H 523.387 -3.43279 -2.56627 0
M  V30 5721 H 527.571 -4.3838 -2.32672 0
M  V30 5722 H 522.827 -5.76615 -2.03287 0
M  V30 5723 H 527.001 -6.72644 -1.80341 0
M  V30 5724 H 524.628 -7.42051 -1.65117 0
M  V30 5725 N 526.204 0.969867 -1.24223 0
M  V30 5726 C 527.152 2.08535 -1.03034 0
M  V30 5727 C 528.146 1.69366 0.0340379 0
M  V30 5728 O 529.352 1.79597 -0.12034 0
M  V30 5729 H 525.727 0.682313 -0.316154 0
M  V30 5730 H 527.698 2.23569 -1.97635 0
M  V30 5731 C 526.447 3.4158 -0.649509 0
M  V30 5732 H 525.77 3.72177 -1.46028 0
M  V30 5733 H 527.21 4.20536 -0.540841 0
M  V30 5734 C 525.669 3.30703 0.643194 0
M  V30 5735 O 526.199 3.64443 1.68951 0
M  V30 5736 N 524.405 2.83841 0.623095 0
M  V30 5737 H 523.952 2.56583 -0.228719 0
M  V30 5738 H 523.91 2.76946 1.48823 0
M  V30 5739 N 527.682 1.05563 1.17022 0
M  V30 5740 C 528.612 0.681026 2.23348 0
M  V30 5741 C 529.593 -0.322983 1.67005 0
M  V30 5742 O 530.778 -0.199746 1.9317 0
M  V30 5743 C 527.908 0.0589053 3.4725 0
M  V30 5744 C 526.862 0.988082 4.16438 0
M  V30 5745 C 526.188 0.229646 5.34207 0
M  V30 5746 C 527.488 2.31388 4.68249 0
M  V30 5747 H 529.182 1.56993 2.54938 0
M  V30 5748 H 526.728 0.756302 1.2254 0
M  V30 5749 H 528.681 -0.214982 4.20851 0
M  V30 5750 H 527.405 -0.864968 3.14938 0
M  V30 5751 H 526.064 1.24659 3.44754 0
M  V30 5752 H 525.712 -0.697111 4.98146 0
M  V30 5753 H 525.412 0.848815 5.81437 0
M  V30 5754 H 526.936 -0.0368694 6.10589 0
M  V30 5755 H 528.35 2.09964 5.33468 0
M  V30 5756 H 526.747 2.88736 5.26072 0
M  V30 5757 H 527.817 2.94982 3.84855 0
M  V30 5758 N 529.16 -1.33526 0.837174 0
M  V30 5759 C 530.409 -1.97098 0.428387 0
M  V30 5760 C 530.722 -1.67062 -1.01734 0
M  V30 5761 O 531.928 -2.24235 -1.53072 0
M  V30 5762 C 530.384 -3.52725 0.715075 0
M  V30 5763 C 529.992 -3.9164 2.17537 0
M  V30 5764 C 531.736 -4.22857 0.373154 0
M  V30 5765 C 529.643 -5.40237 2.40619 0
M  V30 5766 H 528.573 -0.737589 0.156455 0
M  V30 5767 H 531.224 -1.52169 1.02552 0
M  V30 5768 H 529.606 -3.95971 0.0475904 0
M  V30 5769 H 530.78 -3.59456 2.88319 0
M  V30 5770 H 529.095 -3.34485 2.4801 0
M  V30 5771 H 531.692 -5.32133 0.523264 0
M  V30 5772 H 532.035 -4.10647 -0.683708 0
M  V30 5773 H 532.568 -3.85135 0.995801 0
M  V30 5774 H 529.307 -5.57449 3.44864 0
M  V30 5775 H 528.827 -5.73887 1.74396 0
M  V30 5776 H 530.506 -6.07102 2.23688 0
M  V30 5777 N 530.638 -0.59345 -1.46 0
M  V30 5778 C 531.887 -0.0808084 -2.01538 0
M  V30 5779 C 532.2 1.29112 -1.46934 0
M  V30 5780 O 533.406 1.8957 -1.94359 0
M  V30 5781 C 531.862 -0.0938311 -3.59778 0
M  V30 5782 C 531.47 -1.46474 -4.23379 0
M  V30 5783 C 533.214 0.364306 -4.22934 0
M  V30 5784 C 531.121 -1.4349 -5.73729 0
M  V30 5785 H 530.051 -0.0264407 -0.753536 0
M  V30 5786 H 532.702 -0.746689 -1.67621 0
M  V30 5787 H 531.084 0.638427 -3.9082 0
M  V30 5788 H 532.258 -2.21758 -4.03931 0
M  V30 5789 H 530.573 -1.86379 -3.7236 0
M  V30 5790 H 533.17 0.405584 -5.3316 0
M  V30 5791 H 533.513 1.38409 -3.92618 0
M  V30 5792 H 534.046 -0.31423 -3.96557 0
M  V30 5793 H 530.785 -2.43184 -6.08722 0
M  V30 5794 H 530.305 -0.724431 -5.95409 0
M  V30 5795 H 531.984 -1.15243 -6.36654 0
M  V30 5796 N 532.116 1.54067 -0.331816 0
M  V30 5797 C 533.079 2.23275 0.517768 0
M  V30 5798 C 534.079 1.22897 1.03697 0
M  V30 5799 O 535.269 1.47419 0.928084 0
M  V30 5800 C 532.401 2.94326 1.72004 0
M  V30 5801 H 533.594 2.99773 -0.0873507 0
M  V30 5802 H 531.147 1.56079 -0.0830042 0
M  V30 5803 H 531.882 2.21986 2.36417 0
M  V30 5804 H 531.667 3.67941 1.35507 0
M  V30 5805 H 533.157 3.47031 2.32291 0
M  V30 5806 N 533.594 0.0601682 1.57485 0
M  V30 5807 C 534.541 -0.91112 2.12055 0
M  V30 5808 C 535.511 -1.30298 1.03013 0
M  V30 5809 O 536.696 -1.39087 1.30612 0
M  V30 5810 C 533.836 -2.1775 2.67729 0
M  V30 5811 C 532.949 -1.83933 3.90887 0
M  V30 5812 C 532.084 -3.05096 4.34845 0
M  V30 5813 C 531.123 -2.67241 5.5068 0
M  V30 5814 N 530.26 -3.81127 5.8965 0
M  V30 5815 H 535.1 -0.43888 2.9475 0
M  V30 5816 H 532.637 -0.204995 1.45665 0
M  V30 5817 H 534.595 -2.91866 2.98111 0
M  V30 5818 H 533.225 -2.62535 1.87816 0
M  V30 5819 H 532.277 -0.999287 3.6704 0
M  V30 5820 H 533.589 -1.52074 4.75052 0
M  V30 5821 H 532.743 -3.87502 4.66827 0
M  V30 5822 H 531.482 -3.40139 3.49509 0
M  V30 5823 H 530.487 -1.83254 5.18361 0
M  V30 5824 H 531.712 -2.3338 6.37738 0
M  V30 5825 H 529.658 -4.15954 5.07266 0
M  V30 5826 H 529.575 -3.52997 6.68528 0
M  V30 5827 H 530.843 -4.64145 6.2625 0
M  V30 5828 N 535.072 -1.5615 -0.213296 0
M  V30 5829 C 536.349 -1.70349 -0.961281 0
M  V30 5830 C 536.729 -0.609791 -2.02101 0
M  V30 5831 O 536.077 0.381987 -2.25285 0
M  V30 5832 C 536.287 -3.11982 -1.56424 0
M  V30 5833 C 537.635 -3.71649 -2.05334 0
M  V30 5834 O 538.659 -3.14995 -1.66302 0
M  V30 5835 O 537.518 -4.71038 -2.77102 0
M  V30 5836 H 534.612 -0.694121 -0.449582 0
M  V30 5837 H 537.158 -1.68464 -0.204426 0
M  V30 5838 H 535.93 -3.83046 -0.799457 0
M  V30 5839 H 535.553 -3.18019 -2.38641 0
M  V30 5840 N 536.55 0.480323 -1.50102 0
M  V30 5841 C 537.798 1.23063 -1.60312 0
M  V30 5842 C 538.119 1.92659 -0.301226 0
M  V30 5843 O 537.389 1.83691 0.680753 0
M  V30 5844 H 535.969 0.457231 -0.590719 0
M  V30 5845 H 538.631 0.554893 -1.86834 0
M  V30 5846 H 537.727 1.9835 -2.40964 0
M  V30 5847 N 538.028 1.39524 0.732853 0
M  V30 5848 C 539.253 1.40329 1.52717 0
M  V30 5849 C 539.678 0.000286574 1.881 0
M  V30 5850 O 539.036 -0.987262 1.52062 0
M  V30 5851 C 539.084 2.28464 2.78992 0
M  V30 5852 O 538.188 1.716 3.75003 0
M  V30 5853 H 537.529 0.47778 0.461109 0
M  V30 5854 H 540.059 1.83546 0.903996 0
M  V30 5855 H 540.069 2.43051 3.27705 0
M  V30 5856 H 538.744 3.30425 2.52572 0
M  V30 5857 H 537.321 1.66267 3.33781 0
M  V30 5858 N 539.506 -0.963266 1.24736 0
M  V30 5859 C 540.734 -1.74166 1.11686 0
M  V30 5860 C 541.149 -1.8589 -0.330187 0
M  V30 5861 O 540.506 -1.35042 -1.2276 0
M  V30 5862 C 540.557 -3.15989 1.75595 0
M  V30 5863 O 540.278 -3.04847 3.14642 0
M  V30 5864 C 541.779 -4.10145 1.68213 0
M  V30 5865 H 538.999 -0.546031 0.389989 0
M  V30 5866 H 541.543 -1.20907 1.64929 0
M  V30 5867 H 539.698 -3.66219 1.26343 0
M  V30 5868 H 540.112 -3.9425 3.4593 0
M  V30 5869 H 541.586 -5.07299 2.17604 0
M  V30 5870 H 542.063 -4.3445 0.644208 0
M  V30 5871 H 542.669 -3.65827 2.16912 0
M  V30 5872 N 540.985 -1.06182 -1.16461 0
M  V30 5873 C 541.948 -0.675723 -2.19013 0
M  V30 5874 C 542.948 0.277963 -1.58379 0
M  V30 5875 O 544.138 0.0604962 -1.74095 0
M  V30 5876 C 541.27 0.00591459 -3.40899 0
M  V30 5877 H 542.463 -1.58353 -2.54685 0
M  V30 5878 H 540.016 -0.856908 -1.30716 0
M  V30 5879 H 540.751 0.92652 -3.10783 0
M  V30 5880 H 540.536 -0.67984 -3.86161 0
M  V30 5881 H 542.026 0.26181 -4.16778 0
M  V30 5882 N 542.463 1.3308 -0.844243 0
M  V30 5883 C 543.709 1.97898 -0.443206 0
M  V30 5884 C 544.042 1.66699 0.99625 0
M  V30 5885 O 543.317 0.949704 1.69738 0
M  V30 5886 C 543.6 3.53801 -0.670606 0
M  V30 5887 C 543.453 3.94667 -2.15772 0
M  V30 5888 C 544.772 4.39936 -0.120226 0
M  V30 5889 H 541.891 0.718861 -0.162504 0
M  V30 5890 H 544.533 1.57633 -1.06075 0
M  V30 5891 H 542.683 3.88229 -0.14496 0
M  V30 5892 H 544.355 3.70469 -2.74865 0
M  V30 5893 H 542.598 3.44203 -2.6402 0
M  V30 5894 H 543.269 5.03275 -2.26757 0
M  V30 5895 H 545.745 4.12183 -0.5696 0
M  V30 5896 H 544.621 5.4803 -0.308984 0
M  V30 5897 H 544.882 4.31184 0.976347 0
M  V30 5898 N 543.941 0.601185 1.45683 0
M  V30 5899 C 544.891 -0.142686 2.27553 0
M  V30 5900 C 545.875 -0.844598 1.3695 0
M  V30 5901 O 547.067 -0.735644 1.60988 0
M  V30 5902 C 544.196 -1.14364 3.23691 0
M  V30 5903 C 543.282 -0.442894 4.21781 0
M  V30 5904 N 543.673 0.51189 5.03203 0
M  V30 5905 C 541.971 -0.691277 4.4061 0
M  V30 5906 C 542.672 0.92318 5.74328 0
M  V30 5907 N 541.648 0.268308 5.42937 0
M  V30 5908 H 545.45 0.590736 2.87902 0
M  V30 5909 H 542.964 0.424365 1.56757 0
M  V30 5910 H 544.961 -1.6909 3.8107 0
M  V30 5911 H 543.621 -1.87768 2.64902 0
M  V30 5912 H 544.632 0.888329 5.10225 0
M  V30 5913 H 541.309 -1.41049 3.92952 0
M  V30 5914 H 542.699 1.71029 6.49768 0
M  V30 5915 N 545.419 -1.53889 0.339982 0
M  V30 5916 C 546.666 -2.00855 -0.257621 0
M  V30 5917 C 546.994 -1.22788 -1.50842 0
M  V30 5918 O 546.249 -0.302567 -1.93347 0
M  V30 5919 C 546.548 -3.51968 -0.620735 0
M  V30 5920 C 546.214 -4.47741 0.532771 0
M  V30 5921 C 544.876 -4.73645 0.849339 0
M  V30 5922 C 547.228 -5.04551 1.3068 0
M  V30 5923 C 544.556 -5.53614 1.94237 0
M  V30 5924 C 546.908 -5.85713 2.39005 0
M  V30 5925 C 545.572 -6.09912 2.71225 0
M  V30 5926 H 544.842 -0.734979 -0.0942703 0
M  V30 5927 H 547.489 -1.85714 0.467159 0
M  V30 5928 H 545.794 -3.64921 -1.42618 0
M  V30 5929 H 547.491 -3.85762 -1.09495 0
M  V30 5930 H 544.081 -4.27711 0.275973 0
M  V30 5931 H 548.265 -4.84507 1.07549 0
M  V30 5932 H 543.521 -5.7059 2.19628 0
M  V30 5933 H 547.695 -6.28748 2.99415 0
M  V30 5934 H 545.322 -6.71665 3.56047 0
M  V30 5935 N 546.897 -0.0685191 -1.57451 0
M  V30 5936 C 547.807 0.914677 -2.16034 0
M  V30 5937 C 548.823 1.32938 -1.12265 0
M  V30 5938 O 549.999 1.40275 -1.44516 0
M  V30 5939 C 547.064 2.16519 -2.70777 0
M  V30 5940 C 546.125 1.80721 -3.89408 0
M  V30 5941 C 545.358 2.9981 -4.41531 0
M  V30 5942 O 545.581 4.13727 -3.92666 0
M  V30 5943 O 544.515 2.79817 -5.32903 0
M  V30 5944 H 548.341 0.446364 -3.00402 0
M  V30 5945 H 545.926 0.154367 -1.486 0
M  V30 5946 H 547.808 2.89856 -3.05878 0
M  V30 5947 H 546.483 2.62454 -1.89471 0
M  V30 5948 H 545.39 1.04646 -3.59166 0
M  V30 5949 H 546.723 1.39571 -4.71997 0
M  V30 5950 N 548.375 1.56261 0.205012 0
M  V30 5951 C 549.325 1.90155 1.25798 0
M  V30 5952 C 550.309 0.766227 1.41484 0
M  V30 5953 O 551.501 1.02893 1.44021 0
M  V30 5954 C 548.63 2.23603 2.60493 0
M  V30 5955 C 547.716 3.43568 2.48639 0
M  V30 5956 N 548.107 4.61747 2.06455 0
M  V30 5957 C 546.405 3.4751 2.79558 0
M  V30 5958 C 547.106 5.43907 2.06253 0
M  V30 5959 N 546.082 4.84051 2.47377 0
M  V30 5960 H 549.884 2.79031 0.922986 0
M  V30 5961 H 547.398 1.57048 0.413501 0
M  V30 5962 H 549.395 2.46067 3.36537 0
M  V30 5963 H 548.055 1.36049 2.94823 0
M  V30 5964 H 549.066 4.86598 1.77321 0
M  V30 5965 H 545.743 2.70345 3.18151 0
M  V30 5966 H 547.133 6.48542 1.75622 0
M  V30 5967 N 549.853 -0.472356 1.50355 0
M  V30 5968 C 551.078 -1.25251 1.65309 0
M  V30 5969 C 551.503 -1.85081 0.335643 0
M  V30 5970 O 550.861 -1.67227 -0.700335 0
M  V30 5971 C 550.909 -2.3379 2.74544 0
M  V30 5972 O 550.013 -3.38401 2.35709 0
M  V30 5973 H 549.354 -0.368539 0.552336 0
M  V30 5974 H 551.884 -0.562271 1.96722 0
M  V30 5975 H 551.894 -2.79121 2.97583 0
M  V30 5976 H 550.569 -1.89614 3.70161 0
M  V30 5977 H 549.146 -2.9879 2.23112 0
M  V30 5978 N 551.331 -1.39911 -0.725443 0
M  V30 5979 C 552.577 -1.38862 -1.48624 0
M  V30 5980 C 552.932 0.0125913 -1.92396 0
M  V30 5981 O 552.225 0.981046 -1.64578 0
M  V30 5982 C 552.419 -2.30368 -2.7325 0
M  V30 5983 C 552.248 -3.79247 -2.41665 0
M  V30 5984 C 551.018 -4.48119 -2.3349 0
M  V30 5985 C 553.216 -4.70988 -2.06579 0
M  V30 5986 N 551.198 -5.82282 -1.94476 0
M  V30 5987 C 552.569 -5.93873 -1.78087 0
M  V30 5988 C 554.624 -4.58917 -1.9313 0
M  V30 5989 C 553.327 -7.06036 -1.37499 0
M  V30 5990 C 555.353 -5.71012 -1.53946 0
M  V30 5991 C 554.715 -6.92976 -1.26345 0
M  V30 5992 H 550.814 -0.563394 -0.54232 0
M  V30 5993 H 553.398 -1.75542 -0.842213 0
M  V30 5994 H 551.569 -1.95831 -3.35417 0
M  V30 5995 H 553.301 -2.20245 -3.39521 0
M  V30 5996 H 550.056 -4.01677 -2.50904 0
M  V30 5997 H 550.48 -6.53307 -1.77535 0
M  V30 5998 H 555.122 -3.65149 -2.13134 0
M  V30 5999 H 552.84 -7.99697 -1.16237 0
M  V30 6000 H 556.426 -5.63664 -1.44132 0
M  V30 6001 H 555.306 -7.78243 -0.964787 0
M  V30 6002 N 552.809 0.956637 -1.25245 0
M  V30 6003 C 554.057 1.69764 -1.09657 0
M  V30 6004 C 554.378 1.91583 0.363464 0
M  V30 6005 O 553.648 1.50149 1.25825 0
M  V30 6006 H 552.228 0.629097 -0.402798 0
M  V30 6007 H 554.89 1.15026 -1.57337 0
M  V30 6008 H 553.986 2.67769 -1.60331 0
M  V30 6009 N 554.287 1.06798 1.15896 0
M  V30 6010 C 555.564 0.701057 1.82605 0
M  V30 6011 C 555.944 -0.817066 1.94646 0
M  V30 6012 O 555.292 -1.72933 1.49353 0
M  V30 6013 C 555.502 1.40895 3.19296 0
M  V30 6014 C 556.85 1.55744 3.95005 0
M  V30 6015 O 557.874 1.36927 3.28831 0
M  V30 6016 O 556.733 1.86658 5.13635 0
M  V30 6017 H 553.827 0.248791 0.78869 0
M  V30 6018 H 556.373 1.16857 1.23055 0
M  V30 6019 H 555.145 2.4439 3.05596 0
M  V30 6020 H 554.768 0.931847 3.86526 0
M  V30 6021 N 555.766 -1.3263 0.851289 0
M  V30 6022 C 557.014 -1.96978 0.452128 0
M  V30 6023 C 557.335 -1.67715 -0.99482 0
M  V30 6024 O 556.605 -0.98259 -1.69476 0
M  V30 6025 H 555.185 -0.72873 0.164202 0
M  V30 6026 H 557.847 -1.61774 1.08698 0
M  V30 6027 H 556.943 -3.06387 0.594407 0
M  V30 6028 N 557.244 -0.608902 -1.45362 0
M  V30 6029 C 558.49 -0.104762 -2.02529 0
M  V30 6030 C 558.823 1.26191 -1.47613 0
M  V30 6031 O 558.098 1.8327 -0.65134 0
M  V30 6032 C 558.381 -0.0672661 -3.60037 0
M  V30 6033 C 558.234 -1.4647 -4.25284 0
M  V30 6034 C 559.553 0.619877 -4.35713 0
M  V30 6035 H 556.672 -0.0395438 -0.735938 0
M  V30 6036 H 559.314 -0.781126 -1.73201 0
M  V30 6037 H 557.464 0.50871 -3.85155 0
M  V30 6038 H 559.136 -2.08785 -4.11347 0
M  V30 6039 H 557.379 -2.02502 -3.83634 0
M  V30 6040 H 558.05 -1.39069 -5.34195 0
M  V30 6041 H 560.526 0.130297 -4.15896 0
M  V30 6042 H 559.402 0.615224 -5.45441 0
M  V30 6043 H 559.663 1.68621 -4.0868 0
M  V30 6044 N 558.722 1.53707 -0.348139 0
M  V30 6045 C 559.685 2.23812 0.494058 0
M  V30 6046 C 560.685 1.23989 1.02388 0
M  V30 6047 O 561.875 1.48395 0.912396 0
M  V30 6048 C 559.007 2.96133 1.68872 0
M  V30 6049 H 560.2 2.99663 -0.119141 0
M  V30 6050 H 557.753 1.55983 -0.0995539 0
M  V30 6051 H 558.488 2.24481 2.34049 0
M  V30 6052 H 558.273 3.69357 1.31596 0
M  V30 6053 H 559.763 3.49475 2.28597 0
M  V30 6054 N 560.2 0.0768682 1.57412 0
M  V30 6055 C 561.446 -0.591961 1.93968 0
M  V30 6056 C 561.779 -1.68954 0.9575 0
M  V30 6057 O 561.054 -1.94496 -0.0124675 0
M  V30 6058 C 561.337 -1.16418 3.40762 0
M  V30 6059 C 561.19 -0.0728933 4.49741 0
M  V30 6060 C 562.509 -2.06814 3.88479 0
M  V30 6061 H 559.628 -0.213716 0.705333 0
M  V30 6062 H 562.27 0.14387 1.89455 0
M  V30 6063 H 560.42 -1.79128 3.4474 0
M  V30 6064 H 562.092 0.560446 4.57883 0
M  V30 6065 H 560.335 0.595859 4.29688 0
M  V30 6066 H 561.006 -0.513755 5.49604 0
M  V30 6067 H 563.482 -1.54033 3.8654 0
M  V30 6068 H 562.358 -2.43785 4.91793 0
M  V30 6069 H 562.619 -2.97844 3.26713 0
M  V30 6070 N 561.678 -1.56367 -0.196722 0
M  V30 6071 C 562.608 -1.97442 -1.24655 0
M  V30 6072 C 563.589 -0.846147 -1.47561 0
M  V30 6073 O 564.774 -1.11035 -1.59326 0
M  V30 6074 C 561.904 -2.31253 -2.59112 0
M  V30 6075 C 560.858 -3.46804 -2.50821 0
M  V30 6076 C 560.184 -3.66286 -3.89536 0
M  V30 6077 C 561.484 -4.8104 -2.03465 0
M  V30 6078 H 563.178 -2.85388 -0.905216 0
M  V30 6079 H 560.724 -1.37304 -0.434002 0
M  V30 6080 H 562.677 -2.58583 -3.32736 0
M  V30 6081 H 561.401 -1.40188 -2.94983 0
M  V30 6082 H 560.06 -3.19563 -1.79653 0
M  V30 6083 H 559.708 -2.72555 -4.22756 0
M  V30 6084 H 559.408 -4.4402 -3.84864 0
M  V30 6085 H 560.932 -3.9599 -4.64784 0
M  V30 6086 H 562.346 -5.07411 -2.66846 0
M  V30 6087 H 560.743 -5.62232 -2.09798 0
M  V30 6088 H 561.813 -4.74732 -0.98781 0
M  V30 6089 N 563.156 0.464375 -1.50603 0
M  V30 6090 C 564.572 0.798684 -1.38178 0
M  V30 6091 C 564.772 1.96568 -0.44308 0
M  V30 6092 O 563.828 2.52252 0.111814 0
M  V30 6093 C 565.141 1.10444 -2.79683 0
M  V30 6094 C 566.689 1.2105 -2.88645 0
M  V30 6095 C 567.164 1.54934 -4.30998 0
M  V30 6096 N 568.655 1.61913 -4.3398 0
M  V30 6097 C 569.39 1.8965 -5.41129 0
M  V30 6098 N 568.886 2.15361 -6.58477 0
M  V30 6099 N 570.679 1.91207 -5.28579 0
M  V30 6100 H 562.83 -0.304603 -2.10204 0
M  V30 6101 H 565.093 -0.0737804 -0.945125 0
M  V30 6102 H 564.799 0.319934 -3.50242 0
M  V30 6103 H 564.673 2.03896 -3.17342 0
M  V30 6104 H 567.06 1.98567 -2.18301 0
M  V30 6105 H 567.141 0.255613 -2.5452 0
M  V30 6106 H 566.785 0.779549 -5.01882 0
M  V30 6107 H 566.715 2.51584 -4.62615 0
M  V30 6108 H 569.206 1.44055 -3.49366 0
M  V30 6109 H 569.519 2.35818 -7.35941 0
M  V30 6110 H 567.864 2.1274 -6.6164 0
M  V30 6111 H 571.055 1.70622 -4.35897 0
M  V30 6112 H 571.228 2.12488 -6.12171 0
M  V30 6113 N 564.634 1.40294 0.718013 0
M  V30 6114 C 565.881 1.3844 1.47786 0
M  V30 6115 C 566.209 -0.0140838 1.94495 0
M  V30 6116 O 565.464 -0.998165 1.68331 0
M  V30 6117 C 565.763 2.31814 2.72024 0
M  V30 6118 C 565.429 3.79117 2.44093 0
M  V30 6119 C 564.091 4.19249 2.36185 0
M  V30 6120 C 566.443 4.72212 2.20602 0
M  V30 6121 C 563.771 5.50516 2.02851 0
M  V30 6122 C 566.123 6.03775 1.88781 0
M  V30 6123 C 564.787 6.42953 1.79354 0
M  V30 6124 H 564.057 0.506588 0.540786 0
M  V30 6125 H 566.704 1.72929 0.822663 0
M  V30 6126 H 565.009 1.90501 3.42369 0
M  V30 6127 H 566.706 2.27664 3.30106 0
M  V30 6128 H 563.296 3.47318 2.51133 0
M  V30 6129 H 567.48 4.42026 2.25669 0
M  V30 6130 H 562.736 5.79776 1.94088 0
M  V30 6131 H 566.91 6.75428 1.69617 0
M  V30 6132 H 564.537 7.44584 1.53291 0
M  V30 6133 N 566.112 -0.949982 1.2575 0
M  V30 6134 C 567.359 -1.69515 1.10774 0
M  V30 6135 C 567.687 -1.91316 -0.350479 0
M  V30 6136 O 566.942 -1.48515 -1.27443 0
M  V30 6137 C 567.241 -3.08039 1.81237 0
M  V30 6138 C 566.907 -3.06023 3.31151 0
M  V30 6139 C 565.569 -3.0518 3.72047 0
M  V30 6140 C 567.921 -2.98998 4.26907 0
M  V30 6141 C 565.249 -2.95067 5.07102 0
M  V30 6142 C 567.601 -2.90426 5.61992 0
M  V30 6143 C 566.265 -2.87922 6.0221 0
M  V30 6144 H 565.535 -0.6203 0.405351 0
M  V30 6145 H 568.182 -1.10953 1.56082 0
M  V30 6146 H 566.487 -3.70172 1.28373 0
M  V30 6147 H 568.184 -3.64526 1.67098 0
M  V30 6148 H 564.774 -3.07453 2.98614 0
M  V30 6149 H 568.958 -2.98764 3.963 0
M  V30 6150 H 564.214 -2.915 5.37436 0
M  V30 6151 H 568.388 -2.83952 6.35881 0
M  V30 6152 H 566.015 -2.79841 7.06819 0
M  V30 6153 N 567.59 -1.07411 -1.15328 0
M  V30 6154 C 568.538 -0.689316 -2.22151 0
M  V30 6155 C 569.532 0.300156 -1.6672 0
M  V30 6156 O 570.738 0.163804 -1.79253 0
M  V30 6157 H 567.113 -0.204834 -0.723566 0
M  V30 6158 H 569.084 -1.59988 -2.51886 0
M  V30 6159 C 567.833 -0.103848 -3.47545 0
M  V30 6160 H 567.156 -0.856367 -3.90521 0
M  V30 6161 H 568.596 0.127725 -4.23808 0
M  V30 6162 C 567.055 1.15563 -3.1646 0
M  V30 6163 O 567.585 2.242 -3.33312 0
M  V30 6164 N 565.791 1.06203 -2.70498 0
M  V30 6165 H 565.338 0.177933 -2.56985 0
M  V30 6166 H 565.296 1.90553 -2.50074 0
M  V30 6167 N 569.068 1.32177 -0.85831 0
M  V30 6168 C 569.978 2.32561 -0.308606 0
M  V30 6169 C 570.994 1.64209 0.575462 0
M  V30 6170 O 572.17 1.95719 0.474961 0
M  V30 6171 C 569.235 3.43207 0.490909 0
M  V30 6172 C 568.296 4.27243 -0.419733 0
M  V30 6173 C 567.529 5.32605 0.341719 0
M  V30 6174 O 567.752 5.48332 1.57125 0
M  V30 6175 O 566.686 6.0118 -0.294379 0
M  V30 6176 H 570.512 2.81477 -1.14037 0
M  V30 6177 H 568.097 1.35866 -0.621349 0
M  V30 6178 H 569.979 4.10677 0.944574 0
M  V30 6179 H 568.654 2.96474 1.29941 0
M  V30 6180 H 567.561 3.62569 -0.921652 0
M  V30 6181 H 568.894 4.7751 -1.19352 0
M  V30 6182 N 570.547 0.616602 1.45037 0
M  V30 6183 C 571.793 0.115501 2.02471 0
M  V30 6184 C 572.126 -1.25406 1.4828 0
M  V30 6185 O 571.401 -1.82922 0.661051 0
M  V30 6186 C 571.684 0.0863588 3.59996 0
M  V30 6187 C 571.537 1.48723 4.24501 0
M  V30 6188 C 572.856 -0.596762 4.36035 0
M  V30 6189 H 569.975 0.0434461 0.735718 0
M  V30 6190 H 572.617 0.7903 1.72784 0
M  V30 6191 H 570.767 -0.488277 3.85419 0
M  V30 6192 H 572.439 2.10964 4.10234 0
M  V30 6193 H 570.682 2.04534 3.82555 0
M  V30 6194 H 571.353 1.419 5.3345 0
M  V30 6195 H 573.829 -0.10824 4.15959 0
M  V30 6196 H 572.705 -0.586289 5.4576 0
M  V30 6197 H 572.966 -1.66451 4.09569 0
M  V30 6198 N 572.025 -1.5352 0.356285 0
M  V30 6199 C 573.272 -2.01117 -0.236303 0
M  V30 6200 C 573.6 -1.24381 -1.49531 0
M  V30 6201 O 572.855 -0.323057 -1.93015 0
M  V30 6202 C 573.154 -3.52607 -0.583369 0
M  V30 6203 C 572.82 -4.47151 0.58023 0
M  V30 6204 C 571.482 -4.72718 0.899528 0
M  V30 6205 C 573.834 -5.03137 1.36024 0
M  V30 6206 C 571.162 -5.51523 2.00098 0
M  V30 6207 C 573.514 -5.83145 2.45204 0
M  V30 6208 C 572.178 -6.07001 2.77679 0
M  V30 6209 H 571.448 -0.735938 -0.0864695 0
M  V30 6210 H 574.095 -1.85209 0.48683 0
M  V30 6211 H 572.4 -3.66413 -1.38739 0
M  V30 6212 H 574.097 -3.86901 -1.05397 0
M  V30 6213 H 570.687 -4.27394 0.321322 0
M  V30 6214 H 574.871 -4.83339 1.12682 0
M  V30 6215 H 570.127 -5.68229 2.25668 0
M  V30 6216 H 574.301 -6.25537 3.06067 0
M  V30 6217 H 571.928 -6.67851 3.63151 0
M  V30 6218 N 573.503 -0.0852151 -1.57369 0
M  V30 6219 C 574.45 0.877268 -2.13478 0
M  V30 6220 C 575.42 1.28642 -1.05073 0
M  V30 6221 O 576.605 1.36992 -1.32808 0
M  V30 6222 C 573.745 2.13464 -2.71159 0
M  V30 6223 C 572.858 1.77691 -3.93764 0
M  V30 6224 C 571.993 2.98139 -4.39643 0
M  V30 6225 C 571.032 2.58447 -5.54862 0
M  V30 6226 N 570.169 3.71698 -5.95639 0
M  V30 6227 H 575.009 0.391933 -2.95411 0
M  V30 6228 H 572.546 0.181796 -1.45972 0
M  V30 6229 H 574.504 2.87086 -3.02717 0
M  V30 6230 H 573.134 2.59514 -1.91969 0
M  V30 6231 H 572.186 0.940768 -3.68583 0
M  V30 6232 H 573.498 1.44497 -4.77412 0
M  V30 6233 H 572.652 3.80026 -4.72933 0
M  V30 6234 H 571.391 3.34536 -3.54876 0
M  V30 6235 H 570.396 1.74984 -5.21211 0
M  V30 6236 H 571.621 2.23205 -6.41371 0
M  V30 6237 H 569.567 4.07831 -5.13819 0
M  V30 6238 H 569.484 3.42317 -6.74059 0
M  V30 6239 H 570.752 4.54123 -6.33555 0
M  V30 6240 N 574.981 1.5647 0.188427 0
M  V30 6241 C 576.258 1.71857 0.934058 0
M  V30 6242 C 576.638 0.641867 2.01105 0
M  V30 6243 O 575.986 -0.346098 2.25864 0
M  V30 6244 C 576.196 3.14431 1.5144 0
M  V30 6245 C 577.544 3.74869 1.99396 0
M  V30 6246 O 578.568 3.17601 1.61269 0
M  V30 6247 O 577.427 4.75387 2.69573 0
M  V30 6248 H 574.521 0.701186 0.438483 0
M  V30 6249 H 577.067 1.68768 0.177599 0
M  V30 6250 H 575.839 3.8427 0.738416 0
M  V30 6251 H 575.462 3.21775 2.33552 0
M  V30 6252 N 576.459 -0.456382 1.50847 0
M  V30 6253 C 577.684 -1.2349 1.66628 0
M  V30 6254 C 578.109 -1.84715 0.355254 0
M  V30 6255 O 577.467 -1.67961 -0.682559 0
M  V30 6256 C 577.515 -2.30865 2.77009 0
M  V30 6257 O 576.619 -3.35882 2.39285 0
M  V30 6258 H 575.96 -0.36266 0.556214 0
M  V30 6259 H 578.49 -0.541374 1.97308 0
M  V30 6260 H 578.5 -2.75949 3.00526 0
M  V30 6261 H 577.175 -1.85677 3.72152 0
M  V30 6262 H 575.752 -2.96406 2.26269 0
M  V30 6263 N 577.937 -1.40673 -0.710563 0
M  V30 6264 C 579.165 -1.42547 -1.4996 0
M  V30 6265 C 579.58 -0.0265485 -1.88781 0
M  V30 6266 O 578.937 0.950694 -1.55782 0
M  V30 6267 C 578.988 -2.32071 -2.77173 0
M  V30 6268 O 578.709 -3.66518 -2.39992 0
M  V30 6269 C 580.21 -2.42591 -3.71032 0
M  V30 6270 H 577.43 -0.486025 -0.462623 0
M  V30 6271 H 579.974 -1.84783 -0.876102 0
M  V30 6272 H 578.129 -1.93184 -3.35795 0
M  V30 6273 H 578.543 -4.14115 -3.21884 0
M  V30 6274 H 580.017 -3.09429 -4.57119 0
M  V30 6275 H 580.494 -1.4525 -4.14486 0
M  V30 6276 H 581.1 -2.82051 -3.18319 0
M  V30 6277 N 579.415 0.9433 -1.26252 0
M  V30 6278 C 580.347 2.04542 -1.03417 0
M  V30 6279 C 581.36 1.62799 0.0046911 0
M  V30 6280 O 582.549 1.76944 -0.235146 0
M  V30 6281 C 579.649 3.34511 -0.543671 0
M  V30 6282 C 578.822 4.05033 -1.65128 0
M  V30 6283 C 577.881 5.13273 -1.1592 0
M  V30 6284 O 576.907 5.38095 -1.85586 0
M  V30 6285 N 578.109 5.805 -0.00649279 0
M  V30 6286 H 580.874 2.24699 -1.98319 0
M  V30 6287 H 578.435 1.11264 -1.1761 0
M  V30 6288 H 580.427 4.04212 -0.198703 0
M  V30 6289 H 578.997 3.11042 0.311711 0
M  V30 6290 H 578.217 3.29275 -2.16729 0
M  V30 6291 H 579.505 4.48903 -2.39508 0
M  V30 6292 H 578.903 5.62767 0.575347 0
M  V30 6293 H 577.46 6.51201 0.279416 0
M  V30 6294 N 580.893 1.08022 1.14757 0
M  V30 6295 C 582.121 0.828847 1.89572 0
M  V30 6296 C 582.536 -0.618621 1.78377 0
M  V30 6297 O 581.893 -1.42482 1.1404 0
M  V30 6298 C 581.944 1.23677 3.39685 0
M  V30 6299 O 581.665 2.62746 3.50566 0
M  V30 6300 C 583.166 1.01569 4.31507 0
M  V30 6301 H 580.386 0.299196 0.600602 0
M  V30 6302 H 582.93 1.43846 1.45357 0
M  V30 6303 H 581.085 0.671347 3.81539 0
M  V30 6304 H 581.499 2.79573 4.43778 0
M  V30 6305 H 582.973 1.35055 5.35223 0
M  V30 6306 H 583.45 -0.0475433 4.39174 0
M  V30 6307 H 584.056 1.56636 3.95405 0
M  V30 6308 N 582.371 -1.3172 0.865308 0
M  V30 6309 C 583.782 -1.79104 0.527126 0
M  V30 6310 C 584.133 -1.7135 -0.955695 0
M  V30 6311 O 583.258 -1.27845 -1.74598 0
M  V30 6312 C 583.853 -3.25207 0.950061 0
M  V30 6313 C 582.412 -3.70504 0.663611 0
M  V30 6314 C 581.559 -2.52605 1.14395 0
M  V30 6315 H 584.51 -1.18868 1.05148 0
M  V30 6316 H 584.531 -3.79535 0.270805 0
M  V30 6317 H 584.043 -3.30818 2.02931 0
M  V30 6318 H 582.144 -3.70398 -0.404474 0
M  V30 6319 H 582.257 -4.62845 1.23737 0
M  V30 6320 H 580.621 -2.4838 0.563859 0
M  V30 6321 H 581.404 -2.60964 2.23053 0
M  V30 6322 N 583.85 -0.624285 -1.44708 0
M  V30 6323 C 584.812 0.0749638 -2.29077 0
M  V30 6324 C 585.812 0.778965 -1.40673 0
M  V30 6325 O 587.003 0.624591 -1.62618 0
M  V30 6326 C 584.135 1.11663 -3.22094 0
M  V30 6327 H 585.327 -0.667013 -2.92388 0
M  V30 6328 H 582.88 -0.384098 -1.51507 0
M  V30 6329 H 583.615 1.88881 -2.63618 0
M  V30 6330 H 583.401 0.61583 -3.87234 0
M  V30 6331 H 584.891 1.60585 -3.8549 0
M  V30 6332 N 585.328 1.53329 -0.364422 0
M  V30 6333 C 586.574 2.01537 0.225969 0
M  V30 6334 C 586.907 1.25128 1.48515 0
M  V30 6335 O 586.182 0.344653 1.91422 0
M  V30 6336 C 586.465 3.56339 0.519092 0
M  V30 6337 C 586.318 4.43441 -0.753639 0
M  V30 6338 C 587.637 4.19833 1.32015 0
M  V30 6339 H 584.756 0.732573 0.0806548 0
M  V30 6340 H 587.398 1.83597 -0.489084 0
M  V30 6341 H 585.548 3.71756 1.12825 0
M  V30 6342 H 587.22 4.39823 -1.39116 0
M  V30 6343 H 585.463 4.11457 -1.37424 0
M  V30 6344 H 586.134 5.49699 -0.503517 0
M  V30 6345 H 588.61 4.08242 0.804859 0
M  V30 6346 H 587.486 5.28177 1.49399 0
M  V30 6347 H 587.747 3.75821 2.32832 0
M  V30 6348 N 586.806 0.0935595 1.57322 0
M  V30 6349 C 588.034 -0.578934 1.98635 0
M  V30 6350 C 588.449 -1.61819 0.972626 0
M  V30 6351 O 587.806 -1.82461 -0.0379638 0
M  V30 6352 C 587.857 -1.22802 3.40003 0
M  V30 6353 O 587.578 -0.230334 4.37494 0
M  V30 6354 C 589.079 -1.98627 3.96311 0
M  V30 6355 H 586.299 -0.155324 0.652775 0
M  V30 6356 H 588.843 0.172393 2.03772 0
M  V30 6357 H 586.998 -1.93029 3.35885 0
M  V30 6358 H 587.412 -0.698649 5.19826 0
M  V30 6359 H 588.886 -2.39405 4.97382 0
M  V30 6360 H 589.363 -2.85151 3.34044 0
M  V30 6361 H 589.969 -1.3322 4.03897 0
M  V30 6362 N 588.284 -1.56567 -0.180126 0
M  V30 6363 C 589.695 -1.7126 -0.743422 0
M  V30 6364 C 590.046 -0.70263 -1.83187 0
M  V30 6365 O 589.171 0.137856 -2.1596 0
M  V30 6366 C 589.766 -3.10512 -1.35528 0
M  V30 6367 C 588.325 -3.26919 -1.8655 0
M  V30 6368 C 587.472 -2.67213 -0.741099 0
M  V30 6369 H 590.423 -1.58636 0.0451543 0
M  V30 6370 H 590.444 -3.08673 -2.22489 0
M  V30 6371 H 589.956 -3.83997 -0.562862 0
M  V30 6372 H 588.057 -2.58376 -2.68464 0
M  V30 6373 H 588.17 -4.34574 -2.01699 0
M  V30 6374 H 586.534 -2.26788 -1.15927 0
M  V30 6375 H 587.317 -3.43277 0.0393291 0
M  V30 6376 N 589.762 0.448376 -1.51087 0
M  V30 6377 C 590.694 1.56146 -1.67783 0
M  V30 6378 C 591.707 1.52913 -0.55871 0
M  V30 6379 O 592.896 1.57889 -0.83267 0
M  V30 6380 C 589.996 2.95057 -1.66716 0
M  V30 6381 C 589.169 3.22915 -2.95033 0
M  V30 6382 C 588.228 4.41495 -2.86302 0
M  V30 6383 O 587.254 4.40688 -3.60254 0
M  V30 6384 N 588.456 5.44443 -2.014 0
M  V30 6385 H 591.221 1.42232 -2.638 0
M  V30 6386 H 588.782 0.637153 -1.48835 0
M  V30 6387 H 590.774 3.72388 -1.58458 0
M  V30 6388 H 589.344 3.02624 -0.783403 0
M  V30 6389 H 588.564 2.33985 -3.17245 0
M  V30 6390 H 589.852 3.38349 -3.79996 0
M  V30 6391 H 589.25 5.4793 -1.40674 0
M  V30 6392 H 587.807 6.2067 -1.99029 0
M  V30 6393 N 591.24 1.41047 0.703093 0
M  V30 6394 C 592.465 1.43537 1.49706 0
M  V30 6395 C 592.89 0.0401853 1.88057 0
M  V30 6396 O 592.248 -0.954785 1.54122 0
M  V30 6397 C 592.296 2.3433 2.74084 0
M  V30 6398 O 591.4 1.79515 3.71279 0
M  V30 6399 H 590.741 0.487454 0.450871 0
M  V30 6400 H 593.271 1.85422 0.86486 0
M  V30 6401 H 593.281 2.49947 3.22476 0
M  V30 6402 H 591.956 3.35708 2.45506 0
M  V30 6403 H 590.533 1.7331 3.30179 0
M  V30 6404 N 592.718 -0.936591 1.26751 0
M  V30 6405 C 593.65 -2.03991 1.045 0
M  V30 6406 C 594.663 -1.628 0.00394261 0
M  V30 6407 O 595.852 -1.76817 0.244526 0
M  V30 6408 C 592.952 -3.34218 0.561403 0
M  V30 6409 C 592.125 -4.04151 1.67274 0
M  V30 6410 C 591.184 -5.12651 1.1864 0
M  V30 6411 O 590.21 -5.37104 1.88437 0
M  V30 6412 N 591.412 -5.80488 0.037278 0
M  V30 6413 H 594.177 -2.23644 1.99508 0
M  V30 6414 H 591.738 -1.10638 1.18198 0
M  V30 6415 H 593.73 -4.04101 0.220136 0
M  V30 6416 H 592.3 -3.11203 -0.295211 0
M  V30 6417 H 591.52 -3.28121 2.18472 0
M  V30 6418 H 592.808 -4.47626 2.41885 0
M  V30 6419 H 592.206 -5.63064 -0.545494 0
M  V30 6420 H 590.763 -6.5134 -0.244877 0
M  V30 6421 N 594.196 -1.08629 -1.14182 0
M  V30 6422 C 595.607 -0.838003 -1.66836 0
M  V30 6423 C 595.958 0.634885 -1.85644 0
M  V30 6424 O 595.083 1.49008 -1.56926 0
M  V30 6425 C 595.678 -1.51465 -3.03058 0
M  V30 6426 C 594.237 -1.31355 -3.52736 0
M  V30 6427 C 593.384 -1.57599 -2.28162 0
M  V30 6428 H 596.335 -1.24656 -0.982165 0
M  V30 6429 H 596.356 -0.943134 -3.68626 0
M  V30 6430 H 595.868 -2.58661 -2.89337 0
M  V30 6431 H 593.969 -0.262384 -3.71675 0
M  V30 6432 H 594.082 -2.04275 -4.33369 0
M  V30 6433 H 592.446 -0.997659 -2.34348 0
M  V30 6434 H 593.229 -2.66006 -2.17015 0
M  V30 6435 N 595.674 1.31259 -0.872281 0
M  V30 6436 C 596.637 2.26744 -0.334656 0
M  V30 6437 C 597.637 1.52307 0.515681 0
M  V30 6438 O 598.827 1.71148 0.324656 0
M  V30 6439 C 595.959 3.36841 0.524482 0
M  V30 6440 H 597.152 2.75812 -1.17762 0
M  V30 6441 H 594.705 1.42232 -0.648064 0
M  V30 6442 H 595.44 2.93069 1.38855 0
M  V30 6443 H 595.225 3.92009 -0.0844299 0
M  V30 6444 H 596.715 4.07944 0.892838 0
M  V30 6445 N 597.152 0.631951 1.44375 0
M  V30 6446 C 598.38 0.143867 2.06399 0
M  V30 6447 C 598.795 -1.18188 1.47231 0
M  V30 6448 O 598.152 -1.72511 0.595498 0
M  V30 6449 C 598.203 0.0238253 3.61492 0
M  V30 6450 O 597.924 1.29715 4.18456 0
M  V30 6451 C 599.425 -0.492856 4.40552 0
M  V30 6452 H 596.645 0.0800542 0.666207 0
M  V30 6453 H 599.189 0.866586 1.85231 0
M  V30 6454 H 597.344 -0.649338 3.81919 0
M  V30 6455 H 597.758 1.14252 5.11905 0
M  V30 6456 H 599.232 -0.525861 5.49489 0
M  V30 6457 H 599.709 -1.52006 4.12057 0
M  V30 6458 H 600.315 0.147085 4.25046 0
M  V30 6459 N 598.631 -1.53133 0.372548 0
M  V30 6460 C 599.859 -2.05774 -0.215515 0
M  V30 6461 C 600.274 -1.24555 -1.41886 0
M  V30 6462 O 599.631 -0.287951 -1.80214 0
M  V30 6463 C 599.682 -3.5645 -0.602161 0
M  V30 6464 O 599.403 -4.34591 0.553359 0
M  V30 6465 C 600.904 -4.25374 -1.24787 0
M  V30 6466 H 598.124 -0.670009 -0.0364529 0
M  V30 6467 H 600.668 -1.97434 0.532934 0
M  V30 6468 H 598.823 -3.64918 -1.30052 0
M  V30 6469 H 599.237 -5.23954 0.239336 0
M  V30 6470 H 600.711 -5.32097 -1.46891 0
M  V30 6471 H 601.188 -3.79531 -2.21026 0
M  V30 6472 H 601.794 -4.21177 -0.590752 0
M  V30 6473 N 600.109 -0.101901 -1.5727 0
M  V30 6474 C 601.386 0.602832 -1.86079 0
M  V30 6475 C 601.766 1.85912 -1 0
M  V30 6476 O 601.114 2.28379 -0.0742488 0
M  V30 6477 C 601.324 0.911694 -3.36881 0
M  V30 6478 C 602.672 1.2722 -4.05093 0
M  V30 6479 O 603.696 1.0025 -3.41802 0
M  V30 6480 O 602.555 1.7776 -5.16782 0
M  V30 6481 H 599.649 0.302366 -0.769743 0
M  V30 6482 H 602.195 -0.135113 -1.69161 0
M  V30 6483 H 600.967 0.0207256 -3.91295 0
M  V30 6484 H 600.59 1.70538 -3.59169 0
M  V30 6485 N 601.587 1.56661 0.17182 0
M  V30 6486 C 602.812 1.86459 0.908165 0
M  V30 6487 C 603.237 0.688181 1.75059 0
M  V30 6488 O 602.595 -0.362753 1.77634 0
M  V30 6489 C 602.643 3.14669 1.76112 0
M  V30 6490 O 601.747 2.96858 2.86268 0
M  V30 6491 H 601.088 0.613318 0.254434 0
M  V30 6492 H 603.618 2.03892 0.170113 0
M  V30 6493 H 603.628 3.46061 2.16115 0
M  V30 6494 H 602.303 3.99905 1.14233 0
M  V30 6495 H 600.88 2.76819 2.49852 0
M  V30 6496 N 603.065 -0.440357 1.51323 0
M  V30 6497 C 604.293 -1.21255 1.67645 0
M  V30 6498 C 604.708 -1.85088 0.37252 0
M  V30 6499 O 604.065 -1.70582 -0.648683 0
M  V30 6500 C 604.116 -2.29881 2.78993 0
M  V30 6501 O 603.837 -1.68659 4.04334 0
M  V30 6502 C 605.338 -3.20214 3.06558 0
M  V30 6503 H 602.558 -0.36558 0.562666 0
M  V30 6504 H 605.102 -0.52214 1.97722 0
M  V30 6505 H 603.257 -2.94643 2.51524 0
M  V30 6506 H 603.671 -2.40426 4.6615 0
M  V30 6507 H 605.145 -3.92575 3.88058 0
M  V30 6508 H 605.622 -3.80794 2.18844 0
M  V30 6509 H 606.228 -2.61156 3.35675 0
M  V30 6510 N 604.543 -1.41418 -0.695603 0
M  V30 6511 C 605.789 -1.40982 -1.4578 0
M  V30 6512 C 606.122 -0.0187763 -1.94191 0
M  V30 6513 O 605.397 0.95346 -1.69527 0
M  V30 6514 C 605.68 -2.41657 -2.66972 0
M  V30 6515 C 605.533 -3.89869 -2.24327 0
M  V30 6516 C 606.852 -2.39589 -3.69168 0
M  V30 6517 H 603.971 -0.513405 -0.528757 0
M  V30 6518 H 606.613 -1.72693 -0.792275 0
M  V30 6519 H 604.763 -2.14746 -3.23754 0
M  V30 6520 H 606.435 -4.27683 -1.72872 0
M  V30 6521 H 604.678 -4.04737 -1.56111 0
M  V30 6522 H 605.349 -4.55857 -3.11285 0
M  V30 6523 H 607.825 -2.63471 -3.2206 0
M  V30 6524 H 606.701 -3.12044 -4.51575 0
M  V30 6525 H 606.962 -1.41447 -4.18862 0
M  V30 6526 N 606.021 0.929856 -1.27246 0
M  V30 6527 C 607.249 1.71144 -1.16265 0
M  V30 6528 C 607.664 1.867 0.280786 0
M  V30 6529 O 607.021 1.38249 1.19136 0
M  V30 6530 C 607.072 3.11222 -1.83911 0
M  V30 6531 O 606.793 2.96398 -3.22614 0
M  V30 6532 C 608.294 4.05541 -1.79028 0
M  V30 6533 H 605.514 0.535499 -0.404328 0
M  V30 6534 H 608.058 1.16492 -1.68077 0
M  V30 6535 H 606.213 3.6274 -1.36009 0
M  V30 6536 H 606.627 3.8494 -3.56261 0
M  V30 6537 H 608.101 5.01351 -2.30978 0
M  V30 6538 H 608.578 4.32589 -0.759168 0
M  V30 6539 H 609.184 3.59947 -2.26535 0
M  V30 6540 N 607.499 1.09233 1.13605 0
M  V30 6541 C 608.745 0.828385 1.8511 0
M  V30 6542 C 609.078 -0.64437 1.83198 0
M  V30 6543 O 608.353 -1.47428 1.26867 0
M  V30 6544 C 608.636 1.36167 3.33363 0
M  V30 6545 C 608.489 2.90038 3.438 0
M  V30 6546 C 609.808 0.993819 4.28732 0
M  V30 6547 H 606.927 0.30239 0.672108 0
M  V30 6548 H 609.569 1.35339 1.33355 0
M  V30 6549 H 607.719 0.9151 3.77569 0
M  V30 6550 H 609.391 3.43128 3.08319 0
M  V30 6551 H 607.634 3.27271 2.84739 0
M  V30 6552 H 608.305 3.22428 4.48045 0
M  V30 6553 H 610.781 1.37893 3.92587 0
M  V30 6554 H 609.657 1.39403 5.30903 0
M  V30 6555 H 609.918 -0.0982206 4.41991 0
M  V30 6556 N 608.977 -1.30795 0.87923 0
M  V30 6557 C 609.909 -2.27241 0.299025 0
M  V30 6558 C 610.922 -1.53472 -0.543166 0
M  V30 6559 O 612.111 -1.74756 -0.363651 0
M  V30 6560 C 609.211 -3.33655 -0.593931 0
M  V30 6561 C 608.384 -4.36857 0.2179 0
M  V30 6562 C 607.443 -5.22715 -0.604646 0
M  V30 6563 O 606.469 -5.69192 -0.0293838 0
M  V30 6564 N 607.671 -5.48008 -1.91488 0
M  V30 6565 H 610.436 -2.77667 1.12788 0
M  V30 6566 H 607.997 -1.43914 0.741637 0
M  V30 6567 H 609.989 -3.88013 -1.15012 0
M  V30 6568 H 608.559 -2.83202 -1.32346 0
M  V30 6569 H 607.779 -3.82444 0.955536 0
M  V30 6570 H 609.067 -5.02869 0.774614 0
M  V30 6571 H 608.465 -5.1202 -2.40525 0
M  V30 6572 H 607.022 -6.05264 -2.41864 0
M  V30 6573 N 610.455 -0.639598 -1.44038 0
M  V30 6574 C 611.402 0.0602458 -2.30721 0
M  V30 6575 C 612.372 0.828352 -1.43971 0
M  V30 6576 O 613.557 0.807693 -1.72861 0
M  V30 6577 C 610.697 1.03008 -3.29368 0
M  V30 6578 C 609.81 0.259502 -4.3122 0
M  V30 6579 C 608.945 1.22191 -5.16955 0
M  V30 6580 C 607.984 0.440978 -6.10509 0
M  V30 6581 N 607.121 1.35428 -6.88915 0
M  V30 6582 H 611.961 -0.684867 -2.90023 0
M  V30 6583 H 609.498 -0.349509 -1.42888 0
M  V30 6584 H 611.456 1.60583 -3.85057 0
M  V30 6585 H 610.086 1.74222 -2.71747 0
M  V30 6586 H 609.138 -0.432317 -3.77935 0
M  V30 6587 H 610.45 -0.348347 -4.97582 0
M  V30 6588 H 609.604 1.86873 -5.77203 0
M  V30 6589 H 608.343 1.86367 -4.50687 0
M  V30 6590 H 607.348 -0.219279 -5.49363 0
M  V30 6591 H 608.573 -0.196192 -6.78817 0
M  V30 6592 H 606.519 1.9831 -6.25307 0
M  V30 6593 H 606.436 0.800657 -7.51748 0
M  V30 6594 H 607.704 1.98967 -7.53679 0
M  V30 6595 N 611.933 1.52934 -0.380664 0
M  V30 6596 C 612.863 2.29118 0.450268 0
M  V30 6597 C 613.844 1.32153 1.07096 0
M  V30 6598 O 615.029 1.61038 1.08537 0
M  V30 6599 C 612.159 3.09161 1.58231 0
M  V30 6600 C 611.113 4.13938 1.0881 0
M  V30 6601 C 610.439 4.82153 2.31155 0
M  V30 6602 C 611.739 5.22048 0.162146 0
M  V30 6603 H 613.433 2.98826 -0.185361 0
M  V30 6604 H 610.979 1.43715 -0.0905886 0
M  V30 6605 H 612.932 3.61211 2.17036 0
M  V30 6606 H 611.656 2.3717 2.2454 0
M  V30 6607 H 610.315 3.62855 0.522633 0
M  V30 6608 H 609.963 4.06719 2.95953 0
M  V30 6609 H 609.663 5.52966 1.98752 0
M  V30 6610 H 611.187 5.37004 2.90618 0
M  V30 6611 H 612.601 5.6951 0.658126 0
M  V30 6612 H 610.998 6.00057 -0.0717122 0
M  V30 6613 H 612.068 4.78398 -0.791438 0
M  V30 6614 N 613.412 0.11024 1.57214 0
M  V30 6615 C 614.36 -0.860586 2.16094 0
M  V30 6616 C 615.354 -1.28156 1.1078 0
M  V30 6617 O 616.56 -1.25433 1.29099 0
M  V30 6618 H 612.935 -0.295606 0.691463 0
M  V30 6619 H 614.906 -0.33942 2.96463 0
M  V30 6620 C 613.655 -2.10421 2.768 0
M  V30 6621 H 612.978 -1.7892 3.5753 0
M  V30 6622 H 614.418 -2.76375 3.21547 0
M  V30 6623 C 612.877 -2.88823 1.73444 0
M  V30 6624 O 613.407 -3.839 1.18251 0
M  V30 6625 N 611.613 -2.52649 1.43586 0
M  V30 6626 H 611.16 -1.754 1.8866 0
M  V30 6627 H 611.118 -3.05403 0.746735 0
M  V30 6628 N 614.89 -1.56749 -0.16351 0
M  V30 6629 C 616.137 -1.82434 -0.878866 0
M  V30 6630 C 616.465 -0.688557 -1.81904 0
M  V30 6631 O 615.72 0.323644 -1.93005 0
M  V30 6632 C 616.019 -3.14342 -1.70071 0
M  V30 6633 C 615.685 -4.41647 -0.908775 0
M  V30 6634 C 614.347 -4.76224 -0.690236 0
M  V30 6635 C 616.699 -5.19998 -0.353815 0
M  V30 6636 C 614.027 -5.86624 0.0942374 0
M  V30 6637 C 616.379 -6.3122 0.41761 0
M  V30 6638 C 615.043 -6.64358 0.646879 0
M  V30 6639 H 614.313 -0.667574 -0.3216 0
M  V30 6640 H 616.96 -1.90963 -0.14337 0
M  V30 6641 H 615.265 -3.0119 -2.50583 0
M  V30 6642 H 616.962 -3.31426 -2.25738 0
M  V30 6643 H 613.552 -4.1453 -1.08916 0
M  V30 6644 H 617.736 -4.93673 -0.509975 0
M  V30 6645 H 612.992 -6.10751 0.281529 0
M  V30 6646 H 617.166 -6.91133 0.854849 0
M  V30 6647 H 614.793 -7.49742 1.25662 0
M  V30 6648 N 616.368 0.432326 -1.51554 0
M  V30 6649 C 617.278 1.55023 -1.76082 0
M  V30 6650 C 618.294 1.61593 -0.645265 0
M  V30 6651 O 619.47 1.78742 -0.928086 0
M  V30 6652 C 616.535 2.90964 -1.88523 0
M  V30 6653 C 615.596 2.9447 -3.12388 0
M  V30 6654 C 614.829 4.23926 -3.24225 0
M  V30 6655 O 615.052 5.16576 -2.4188 0
M  V30 6656 O 613.986 4.33818 -4.17235 0
M  V30 6657 H 617.812 1.37238 -2.70923 0
M  V30 6658 H 615.397 0.615845 -1.36117 0
M  V30 6659 H 617.279 3.71633 -1.98662 0
M  V30 6660 H 615.954 3.08865 -0.9687 0
M  V30 6661 H 614.861 2.12737 -3.07723 0
M  V30 6662 H 616.194 2.81514 -4.03746 0
M  V30 6663 N 617.846 1.41785 0.688094 0
M  V30 6664 C 618.776 1.47 1.8142 0
M  V30 6665 C 619.757 0.327881 1.6691 0
M  V30 6666 O 620.942 0.540362 1.86531 0
M  V30 6667 C 618.072 1.35876 3.19617 0
M  V30 6668 C 617.026 2.47976 3.48844 0
M  V30 6669 C 616.352 2.21915 4.86475 0
M  V30 6670 C 617.652 3.90309 3.47068 0
M  V30 6671 H 619.346 2.41247 1.77314 0
M  V30 6672 H 616.892 1.16116 0.851651 0
M  V30 6673 H 618.845 1.38134 3.98117 0
M  V30 6674 H 617.569 0.38116 3.24368 0
M  V30 6675 H 616.228 2.45013 2.72698 0
M  V30 6676 H 615.876 1.2248 4.8786 0
M  V30 6677 H 615.576 2.97037 5.06994 0
M  V30 6678 H 617.1 2.25901 5.67275 0
M  V30 6679 H 618.514 3.94947 4.1556 0
M  V30 6680 H 616.911 4.65175 3.7912 0
M  V30 6681 H 617.981 4.17927 2.45896 0
M  V30 6682 N 619.324 -0.923095 1.27737 0
M  V30 6683 C 620.552 -1.70525 1.17171 0
M  V30 6684 C 620.967 -1.86847 -0.270881 0
M  V30 6685 O 620.324 -1.38879 -1.18401 0
M  V30 6686 C 620.375 -3.10242 1.85559 0
M  V30 6687 O 620.096 -2.94683 3.24182 0
M  V30 6688 C 621.597 -4.04586 1.81176 0
M  V30 6689 H 618.817 -0.533347 0.407163 0
M  V30 6690 H 621.361 -1.15599 1.68692 0
M  V30 6691 H 619.516 -3.62014 1.3793 0
M  V30 6692 H 619.93 -3.83045 3.58297 0
M  V30 6693 H 621.404 -5.00119 2.33633 0
M  V30 6694 H 621.881 -4.3218 0.782099 0
M  V30 6695 H 622.487 -3.58741 2.2844 0
M  V30 6696 N 620.802 -1.09834 -1.13024 0
M  V30 6697 C 622.079 -0.749225 -1.80682 0
M  V30 6698 C 622.459 0.765171 -1.96744 0
M  V30 6699 O 621.807 1.68912 -1.53886 0
M  V30 6700 C 622.017 -1.49311 -3.15448 0
M  V30 6701 C 623.365 -1.66162 -3.90737 0
M  V30 6702 O 624.389 -1.45597 -3.25085 0
M  V30 6703 O 623.248 -2.00211 -5.08505 0
M  V30 6704 H 620.342 -0.269614 -0.781817 0
M  V30 6705 H 622.888 -1.20078 -1.19914 0
M  V30 6706 H 621.66 -2.52407 -2.99009 0
M  V30 6707 H 621.283 -1.034 -3.8392 0
M  V30 6708 N 622.28 1.30327 -0.886154 0
M  V30 6709 C 623.243 2.26376 -0.358687 0
M  V30 6710 C 624.243 1.52845 0.499498 0
M  V30 6711 O 625.433 1.71483 0.306485 0
M  V30 6712 C 622.565 3.37379 0.488726 0
M  V30 6713 H 623.758 2.74547 -1.20681 0
M  V30 6714 H 621.311 1.41536 -0.663113 0
M  V30 6715 H 622.046 2.94526 1.35739 0
M  V30 6716 H 621.831 3.91897 -0.126003 0
M  V30 6717 H 623.321 4.08868 0.84952 0
M  V30 6718 N 623.758 0.647228 1.43697 0
M  V30 6719 C 624.688 -0.0345631 2.33474 0
M  V30 6720 C 625.669 -0.818193 1.4913 0
M  V30 6721 O 626.854 -0.780867 1.77809 0
M  V30 6722 C 623.984 -1.00576 3.32418 0
M  V30 6723 C 622.938 -0.33266 4.26705 0
M  V30 6724 C 622.264 -1.41489 5.1564 0
M  V30 6725 C 623.564 0.771204 5.16575 0
M  V30 6726 H 625.258 0.715163 2.90733 0
M  V30 6727 H 622.804 0.345364 1.39797 0
M  V30 6728 H 624.757 -1.49159 3.94119 0
M  V30 6729 H 623.481 -1.78657 2.73403 0
M  V30 6730 H 622.14 0.13267 3.6636 0
M  V30 6731 H 621.788 -2.18698 4.52968 0
M  V30 6732 H 621.488 -0.969799 5.79542 0
M  V30 6733 H 623.012 -1.9022 5.80214 0
M  V30 6734 H 624.426 0.36779 5.72119 0
M  V30 6735 H 622.823 1.1404 5.89165 0
M  V30 6736 H 623.893 1.63169 4.56622 0
M  V30 6737 N 625.236 -1.5273 0.388769 0
M  V30 6738 C 626.183 -2.26437 -0.446639 0
M  V30 6739 C 627.153 -1.28025 -1.05824 0
M  V30 6740 O 628.338 -1.56852 -1.08637 0
M  V30 6741 C 625.478 -3.07407 -1.56828 0
M  V30 6742 C 624.591 -4.20747 -0.979589 0
M  V30 6743 C 623.726 -4.89113 -2.07224 0
M  V30 6744 C 622.765 -5.94447 -1.45942 0
M  V30 6745 N 621.902 -6.56411 -2.49135 0
M  V30 6746 H 626.742 -2.97404 0.18837 0
M  V30 6747 H 624.279 -1.46727 0.104725 0
M  V30 6748 H 626.237 -3.52642 -2.22934 0
M  V30 6749 H 624.867 -2.3865 -2.17361 0
M  V30 6750 H 623.919 -3.7983 -0.208151 0
M  V30 6751 H 625.231 -4.9637 -0.491747 0
M  V30 6752 H 624.385 -5.3765 -2.81101 0
M  V30 6753 H 623.124 -4.13013 -2.59368 0
M  V30 6754 H 622.129 -5.4525 -0.705894 0
M  V30 6755 H 623.354 -6.7248 -0.945932 0
M  V30 6756 H 621.3 -5.83152 -3.00449 0
M  V30 6757 H 621.217 -7.27645 -2.05105 0
M  V30 6758 H 622.485 -7.09592 -3.22644 0
M  V30 6759 N 626.714 -0.118576 -1.57153 0
M  V30 6760 C 627.942 0.54726 -1.99531 0
M  V30 6761 C 628.357 1.60251 -0.998246 0
M  V30 6762 O 627.714 1.82498 0.00893106 0
M  V30 6763 C 627.765 1.17378 -3.41913 0
M  V30 6764 O 627.486 0.160703 -4.37805 0
M  V30 6765 C 628.987 1.92297 -3.9942 0
M  V30 6766 H 626.207 0.144919 -0.655164 0
M  V30 6767 H 628.751 -0.20479 -2.03472 0
M  V30 6768 H 626.906 1.87661 -3.38913 0
M  V30 6769 H 627.32 0.61586 -5.20872 0
M  V30 6770 H 628.794 2.31462 -5.01128 0
M  V30 6771 H 629.271 2.79801 -3.38538 0
M  V30 6772 H 629.877 1.26777 -4.05965 0
M  V30 6773 N 628.193 1.56834 0.155195 0
M  V30 6774 C 629.441 1.82536 0.867462 0
M  V30 6775 C 629.762 0.698168 1.82073 0
M  V30 6776 O 629.032 -0.280807 1.93877 0
M  V30 6777 H 627.612 0.673401 0.323327 0
M  V30 6778 H 630.274 1.94313 0.151156 0
M  V30 6779 H 629.37 2.77171 1.43466 0
M  V30 6780 N 629.671 -0.424282 1.51781 0
M  V30 6781 C 630.92 -1.16961 1.64326 0
M  V30 6782 C 631.233 -1.92035 0.371749 0
M  V30 6783 O 632.439 -2.68873 0.37676 0
M  V30 6784 C 630.895 -2.12782 2.90262 0
M  V30 6785 C 630.503 -1.43295 4.24465 0
M  V30 6786 C 632.247 -2.87667 3.12166 0
M  V30 6787 C 630.154 -2.37676 5.41538 0
M  V30 6788 H 629.084 -0.440293 0.612093 0
M  V30 6789 H 631.735 -0.435431 1.78259 0
M  V30 6790 H 630.117 -2.8969 2.69992 0
M  V30 6791 H 631.291 -0.718564 4.55163 0
M  V30 6792 H 629.606 -0.805118 4.08542 0
M  V30 6793 H 632.203 -3.58395 3.96808 0
M  V30 6794 H 632.546 -3.49758 2.25776 0
M  V30 6795 H 633.079 -2.17863 3.32837 0
M  V30 6796 H 629.818 -1.80255 6.30229 0
M  V30 6797 H 629.338 -3.07132 5.15199 0
M  V30 6798 H 631.017 -2.98529 5.74012 0
M  V30 6799 N 631.149 -1.42148 -0.680565 0
M  V30 6800 C 632.377 -1.45696 -1.46902 0
M  V30 6801 C 632.792 -0.0665858 -1.88683 0
M  V30 6802 O 632.149 0.917436 -1.57764 0
M  V30 6803 C 632.2 -2.37898 -2.72188 0
M  V30 6804 O 631.921 -3.71526 -2.32163 0
M  V30 6805 C 633.422 -2.50407 -3.65802 0
M  V30 6806 H 630.642 -0.495729 -0.45221 0
M  V30 6807 H 633.186 -1.866 -0.836709 0
M  V30 6808 H 631.341 -2.00263 -3.31622 0
M  V30 6809 H 631.755 -4.20849 -3.13027 0
M  V30 6810 H 633.229 -3.19056 -4.50452 0
M  V30 6811 H 633.706 -1.5401 -4.11312 0
M  V30 6812 H 634.312 -2.8874 -3.12265 0
M  V30 6813 N 632.627 0.916307 -1.28225 0
M  V30 6814 C 633.59 1.99996 -1.11957 0
M  V30 6815 C 634.59 1.60688 -0.0600152 0
M  V30 6816 O 635.78 1.71499 -0.30558 0
M  V30 6817 C 632.912 3.33458 -0.708411 0
M  V30 6818 H 634.105 2.15858 -2.08196 0
M  V30 6819 H 631.658 1.09863 -1.11175 0
M  V30 6820 H 632.393 3.23297 0.254859 0
M  V30 6821 H 632.178 3.63349 -1.47377 0
M  V30 6822 H 633.668 4.13014 -0.617164 0
M  V30 6823 N 634.105 1.10431 1.1244 0
M  V30 6824 C 635.068 0.756542 2.16354 0
M  V30 6825 C 636.068 -0.21899 1.59302 0
M  V30 6826 O 637.258 0.00415969 1.742 0
M  V30 6827 C 634.39 0.120612 3.40687 0
M  V30 6828 H 635.583 1.67696 2.48632 0
M  V30 6829 H 633.136 0.904832 1.27446 0
M  V30 6830 H 633.871 -0.810536 3.14008 0
M  V30 6831 H 633.656 0.822693 3.83372 0
M  V30 6832 H 635.146 -0.106945 4.17463 0
M  V30 6833 N 635.583 -1.29855 0.893053 0
M  V30 6834 C 636.53 -2.27909 0.364161 0
M  V30 6835 C 637.5 -1.56726 -0.550093 0
M  V30 6836 O 638.685 -1.84747 -0.47677 0
M  V30 6837 C 635.825 -3.42678 -0.408178 0
M  V30 6838 C 634.938 -4.28659 0.536212 0
M  V30 6839 C 634.073 -5.30599 -0.252521 0
M  V30 6840 C 633.112 -6.08234 0.686822 0
M  V30 6841 N 632.249 -7.02068 -0.0670902 0
M  V30 6842 H 637.089 -2.72531 1.20544 0
M  V30 6843 H 634.626 -1.34047 0.605779 0
M  V30 6844 H 636.584 -4.07986 -0.871962 0
M  V30 6845 H 635.214 -2.99103 -1.21397 0
M  V30 6846 H 634.266 -3.63584 1.1185 0
M  V30 6847 H 635.578 -4.8274 1.25552 0
M  V30 6848 H 634.732 -6.01694 -0.777801 0
M  V30 6849 H 633.471 -4.77233 -1.005 0
M  V30 6850 H 632.476 -5.3601 1.22366 0
M  V30 6851 H 633.701 -6.63689 1.43852 0
M  V30 6852 H 631.647 -6.5108 -0.801955 0
M  V30 6853 H 631.564 -7.53675 0.59243 0
M  V30 6854 H 632.832 -7.77392 -0.572851 0
M  V30 6855 N 637.061 -0.65484 -1.43351 0
M  V30 6856 C 637.971 0.0363603 -2.34572 0
M  V30 6857 C 638.987 0.810432 -1.53974 0
M  V30 6858 O 640.163 0.757308 -1.86619 0
M  V30 6859 C 637.228 0.989733 -3.32273 0
M  V30 6860 C 636.289 0.212414 -4.28774 0
M  V30 6861 C 635.522 1.12038 -5.21808 0
M  V30 6862 O 635.745 2.35967 -5.19303 0
M  V30 6863 O 634.679 0.59191 -5.98982 0
M  V30 6864 H 638.505 -0.714527 -2.95175 0
M  V30 6865 H 636.09 -0.415029 -1.4352 0
M  V30 6866 H 637.972 1.53759 -3.92347 0
M  V30 6867 H 636.647 1.72082 -2.74171 0
M  V30 6868 H 635.554 -0.379062 -3.72175 0
M  V30 6869 H 636.887 -0.479138 -4.89862 0
M  V30 6870 N 638.539 1.52521 -0.396863 0
M  V30 6871 C 639.486 2.26671 0.434624 0
M  V30 6872 C 640.456 1.28584 1.05144 0
M  V30 6873 O 641.641 1.57426 1.07804 0
M  V30 6874 C 638.781 3.08234 1.55196 0
M  V30 6875 C 637.894 4.21261 0.957262 0
M  V30 6876 C 637.029 4.90205 2.04627 0
M  V30 6877 C 636.068 5.95213 1.42787 0
M  V30 6878 N 635.205 6.57723 2.45651 0
M  V30 6879 H 640.045 2.973 -0.204139 0
M  V30 6880 H 637.582 1.46669 -0.112505 0
M  V30 6881 H 639.54 3.53819 2.2106 0
M  V30 6882 H 638.17 2.398 2.16092 0
M  V30 6883 H 637.222 3.79935 0.188005 0
M  V30 6884 H 638.534 4.96624 0.465416 0
M  V30 6885 H 637.688 5.39133 2.78246 0
M  V30 6886 H 636.427 4.14383 2.57174 0
M  V30 6887 H 635.432 5.45616 0.676968 0
M  V30 6888 H 636.657 6.72972 0.910255 0
M  V30 6889 H 634.603 5.84737 2.97353 0
M  V30 6890 H 634.52 7.28723 2.01243 0
M  V30 6891 H 635.788 7.11293 3.18876 0
M  V30 6892 N 640.017 0.126909 1.57088 0
M  V30 6893 C 641.264 -0.529168 1.95464 0
M  V30 6894 C 641.592 -1.6618 1.01067 0
M  V30 6895 O 640.847 -1.95667 0.0360254 0
M  V30 6896 C 641.146 -1.095 3.40212 0
M  V30 6897 C 640.812 -0.0829015 4.50824 0
M  V30 6898 C 639.474 0.195377 4.80803 0
M  V30 6899 C 641.826 0.606411 5.1766 0
M  V30 6900 C 639.154 1.16912 5.74933 0
M  V30 6901 C 641.506 1.56884 6.12838 0
M  V30 6902 C 640.17 1.85502 6.41206 0
M  V30 6903 H 639.44 -0.193636 0.715252 0
M  V30 6904 H 642.087 0.209489 1.90351 0
M  V30 6905 H 640.392 -1.91058 3.42059 0
M  V30 6906 H 642.089 -1.61087 3.67222 0
M  V30 6907 H 638.679 -0.309979 4.27478 0
M  V30 6908 H 642.863 0.404597 4.94648 0
M  V30 6909 H 638.119 1.3975 5.95214 0
M  V30 6910 H 642.293 2.10859 6.6371 0
M  V30 6911 H 639.92 2.61109 7.13951 0
M  V30 6912 N 641.495 -1.56914 -0.146875 0
M  V30 6913 C 642.772 -1.74273 -0.888165 0
M  V30 6914 C 643.152 -0.69496 -1.99333 0
M  V30 6915 O 642.5 0.286093 -2.26702 0
M  V30 6916 C 642.71 -3.18336 -1.43051 0
M  V30 6917 C 644.058 -3.80024 -1.89387 0
M  V30 6918 O 645.082 -3.21765 -1.52792 0
M  V30 6919 O 643.941 -4.82367 -2.56874 0
M  V30 6920 H 641.035 -0.712565 -0.419738 0
M  V30 6921 H 643.581 -1.6918 -0.132791 0
M  V30 6922 H 642.353 -3.86092 -0.636274 0
M  V30 6923 H 641.976 -3.27854 -2.24938 0
M  V30 6924 N 642.974 0.416227 -1.52004 0
M  V30 6925 C 643.937 1.48926 -1.74223 0
M  V30 6926 C 644.937 1.48693 -0.612119 0
M  V30 6927 O 646.127 1.50343 -0.879921 0
M  V30 6928 C 643.259 2.88372 -1.81809 0
M  V30 6929 H 644.452 1.3052 -2.70008 0
M  V30 6930 H 642.005 0.646271 -1.42313 0
M  V30 6931 H 642.74 3.12157 -0.879135 0
M  V30 6932 H 642.525 2.89944 -2.6396 0
M  V30 6933 H 644.015 3.66173 -2.00766 0
M  V30 6934 N 644.452 1.42507 0.673017 0
M  V30 6935 C 645.68 1.46473 1.46128 0
M  V30 6936 C 646.095 0.0765912 1.88645 0
M  V30 6937 O 645.452 -0.909057 1.58248 0
M  V30 6938 C 645.503 2.39339 2.70923 0
M  V30 6939 O 645.224 3.72752 2.3019 0
M  V30 6940 C 646.725 2.52343 3.64469 0
M  V30 6941 H 643.945 0.49812 0.449575 0
M  V30 6942 H 646.489 1.87041 0.826802 0
M  V30 6943 H 644.644 2.02019 3.30556 0
M  V30 6944 H 645.058 4.22503 3.10791 0
M  V30 6945 H 646.532 3.2144 4.48754 0
M  V30 6946 H 647.009 1.56189 4.1049 0
M  V30 6947 H 647.615 2.90392 3.10729 0
M  V30 6948 N 645.93 -0.909495 1.28709 0
M  V30 6949 C 646.863 -2.01388 1.07323 0
M  V30 6950 C 647.841 -1.62596 -0.0119757 0
M  V30 6951 O 649.025 -1.88003 0.136796 0
M  V30 6952 C 646.152 -3.32755 0.631797 0
M  V30 6953 C 645.198 -3.90532 1.71428 0
M  V30 6954 S 646.031 -4.20853 3.31124 0
M  V30 6955 C 647.187 -5.55276 2.88825 0
M  V30 6956 H 647.42 -2.19219 2.00824 0
M  V30 6957 H 644.953 -1.05489 1.12745 0
M  V30 6958 H 646.911 -4.08702 0.38381 0
M  V30 6959 H 645.572 -3.12818 -0.283451 0
M  V30 6960 H 644.765 -4.85385 1.35712 0
M  V30 6961 H 644.367 -3.21237 1.91528 0
M  V30 6962 H 646.659 -6.35341 2.3526 0
M  V30 6963 H 647.602 -5.95907 3.82492 0
M  V30 6964 H 648.01 -5.16666 2.27412 0
M  V30 6965 N 647.408 -1.11026 -1.11852 0
M  V30 6966 C 648.355 -0.764662 -2.17765 0
M  V30 6967 C 649.325 0.261854 -1.64023 0
M  V30 6968 O 650.51 0.139748 -1.90288 0
M  V30 6969 C 647.65 -0.209317 -3.44465 0
M  V30 6970 C 646.763 -1.29187 -4.12231 0
M  V30 6971 C 645.898 -0.697523 -5.266 0
M  V30 6972 C 644.937 -1.76023 -5.86244 0
M  V30 6973 N 644.074 -1.18569 -6.92016 0
M  V30 6974 H 648.914 -1.67202 -2.46673 0
M  V30 6975 H 646.451 -0.835065 -1.21099 0
M  V30 6976 H 648.409 0.130599 -4.16996 0
M  V30 6977 H 647.039 0.661251 -3.15955 0
M  V30 6978 H 646.091 -1.74881 -3.37818 0
M  V30 6979 H 647.403 -2.09607 -4.52622 0
M  V30 6980 H 646.557 -0.307412 -6.05921 0
M  V30 6981 H 645.296 0.138044 -4.87505 0
M  V30 6982 H 644.301 -2.1597 -5.05606 0
M  V30 6983 H 645.526 -2.59875 -6.27409 0
M  V30 6984 H 643.472 -0.371695 -6.54946 0
M  V30 6985 H 643.389 -1.92666 -7.31038 0
M  V30 6986 H 644.657 -0.82233 -7.7515 0
M  V30 6987 N 648.886 1.2938 -0.899927 0
M  V30 6988 C 650.114 1.99691 -0.541386 0
M  V30 6989 C 650.529 1.67355 0.873936 0
M  V30 6990 O 649.886 0.918728 1.57688 0
M  V30 6991 C 649.937 3.54168 -0.72438 0
M  V30 6992 O 649.658 3.85359 -2.08399 0
M  V30 6993 C 651.159 4.41746 -0.370819 0
M  V30 6994 H 648.379 0.638037 -0.207726 0
M  V30 6995 H 650.923 1.6491 -1.20934 0
M  V30 6996 H 649.078 3.87261 -0.103607 0
M  V30 6997 H 649.492 4.80032 -2.11352 0
M  V30 6998 H 650.966 5.49256 -0.549693 0
M  V30 6999 H 651.443 4.33712 0.692148 0
M  V30 7000 H 652.049 4.14125 -0.968543 0
M  V30 7001 N 650.364 0.662433 1.43002 0
M  V30 7002 C 651.294 -0.00979809 2.33498 0
M  V30 7003 C 652.275 -0.802329 1.49989 0
M  V30 7004 O 653.46 -0.761964 1.78627 0
M  V30 7005 C 650.59 -0.970446 3.33466 0
M  V30 7006 C 649.544 -0.287383 4.27034 0
M  V30 7007 C 648.87 -1.36012 5.17112 0
M  V30 7008 C 650.17 0.82595 5.15728 0
M  V30 7009 H 651.864 0.745959 2.89958 0
M  V30 7010 H 649.41 0.360172 1.39423 0
M  V30 7011 H 651.363 -1.44971 3.95679 0
M  V30 7012 H 650.087 -1.75748 2.75282 0
M  V30 7013 H 648.746 0.17152 3.66199 0
M  V30 7014 H 648.394 -2.13882 4.55262 0
M  V30 7015 H 648.094 -0.908276 5.80538 0
M  V30 7016 H 649.618 -1.84056 5.82199 0
M  V30 7017 H 651.032 0.42845 5.71697 0
M  V30 7018 H 649.429 1.20282 5.87922 0
M  V30 7019 H 650.499 1.68003 4.54866 0
M  V30 7020 N 651.842 -1.52309 0.404946 0
M  V30 7021 C 653.07 -2.06185 -0.171818 0
M  V30 7022 C 653.485 -1.27536 -1.39212 0
M  V30 7023 O 652.842 -0.326112 -1.79563 0
M  V30 7024 C 652.893 -3.57647 -0.526417 0
M  V30 7025 O 652.614 -4.3332 0.645417 0
M  V30 7026 C 654.115 -4.27925 -1.15736 0
M  V30 7027 H 651.335 -0.670632 -0.0222328 0
M  V30 7028 H 653.879 -1.96259 0.574692 0
M  V30 7029 H 652.034 -3.67595 -1.22282 0
M  V30 7030 H 652.448 -5.23328 0.35042 0
M  V30 7031 H 653.922 -5.35093 -1.35572 0
M  V30 7032 H 654.399 -3.84134 -2.12926 0
M  V30 7033 H 655.005 -4.22335 -0.501281 0
M  V30 7034 N 653.32 -0.135238 -1.57019 0
M  V30 7035 C 654.569 0.518694 -1.94917 0
M  V30 7036 C 654.882 1.66783 -1.0219 0
M  V30 7037 O 656.088 2.38561 -1.29619 0
M  V30 7038 C 654.544 0.974123 -3.46466 0
M  V30 7039 C 654.152 -0.147439 -4.47757 0
M  V30 7040 C 655.896 1.59851 -3.93253 0
M  V30 7041 C 653.803 0.325599 -5.90503 0
M  V30 7042 H 652.733 0.19754 -0.727663 0
M  V30 7043 H 655.384 -0.217698 -1.82204 0
M  V30 7044 H 653.766 1.76542 -3.5447 0
M  V30 7045 H 654.94 -0.924122 -4.51438 0
M  V30 7046 H 653.255 -0.679496 -4.10818 0
M  V30 7047 H 655.852 1.96385 -4.9733 0
M  V30 7048 H 656.195 2.48306 -3.3414 0
M  V30 7049 H 656.728 0.872323 -3.88118 0
M  V30 7050 H 653.467 -0.523295 -6.53408 0
M  V30 7051 H 652.987 1.06841 -5.90208 0
M  V30 7052 H 654.666 0.781498 -6.42263 0
M  V30 7053 N 654.798 1.5699 0.138552 0
M  V30 7054 C 656.075 1.74741 0.87891 0
M  V30 7055 C 656.455 0.705522 1.98961 0
M  V30 7056 O 655.803 -0.274066 2.2685 0
M  V30 7057 C 656.013 3.1909 1.4136 0
M  V30 7058 C 657.361 3.81023 1.87368 0
M  V30 7059 O 658.385 3.22571 1.51084 0
M  V30 7060 O 657.244 4.83722 2.54312 0
M  V30 7061 H 654.338 0.714781 0.415953 0
M  V30 7062 H 656.884 1.69248 0.123817 0
M  V30 7063 H 655.656 3.86424 0.61579 0
M  V30 7064 H 655.279 3.29043 2.23196 0
M  V30 7065 N 656.276 -0.40816 1.52223 0
M  V30 7066 C 657.516 -1.16418 1.68006 0
M  V30 7067 C 657.88 -1.87749 0.401793 0
M  V30 7068 O 659.081 -2.65245 0.435743 0
M  V30 7069 C 657.352 -2.13143 2.86889 0
M  V30 7070 S 658.911 -2.96839 3.2316 0
M  V30 7071 H 655.729 -0.394373 0.5916 0
M  V30 7072 H 658.331 -0.451349 1.90219 0
M  V30 7073 H 657.035 -1.59428 3.78168 0
M  V30 7074 H 656.566 -2.88963 2.66953 0
M  V30 7075 H 658.581 -4.151 2.71857 0
M  V30 7076 N 657.755 -1.42862 -0.66545 0
M  V30 7077 C 659.001 -1.44043 -1.42757 0
M  V30 7078 C 659.334 -0.0599629 -1.94107 0
M  V30 7079 O 658.609 0.917286 -1.71511 0
M  V30 7080 C 658.892 -2.47266 -2.61786 0
M  V30 7081 C 658.745 -3.94539 -2.16007 0
M  V30 7082 C 660.064 -2.47365 -3.64003 0
M  V30 7083 H 657.183 -0.524506 -0.517748 0
M  V30 7084 H 659.825 -1.74335 -0.755466 0
M  V30 7085 H 657.975 -2.21565 -3.19126 0
M  V30 7086 H 659.647 -4.31254 -1.63762 0
M  V30 7087 H 657.89 -4.07957 -1.47491 0
M  V30 7088 H 658.561 -4.62357 -3.01546 0
M  V30 7089 H 661.037 -2.70243 -3.16399 0
M  V30 7090 H 659.913 -3.21552 -4.44854 0
M  V30 7091 H 660.174 -1.50299 -4.15767 0
M  V30 7092 N 659.233 0.902656 -1.29189 0
M  V30 7093 C 660.165 2.01149 -1.09872 0
M  V30 7094 C 661.178 1.62732 -0.0471046 0
M  V30 7095 O 662.367 1.76107 -0.29132 0
M  V30 7096 C 659.467 3.32612 -0.649818 0
M  V30 7097 C 658.64 3.99574 -1.7793 0
M  V30 7098 C 657.699 5.09325 -1.32191 0
M  V30 7099 O 656.725 5.31919 -2.02611 0
M  V30 7100 N 657.927 5.80185 -0.191171 0
M  V30 7101 H 660.692 2.18276 -2.05368 0
M  V30 7102 H 658.253 1.07466 -1.2109 0
M  V30 7103 H 660.245 4.03375 -0.327199 0
M  V30 7104 H 658.815 3.11876 0.212597 0
M  V30 7105 H 658.035 3.22213 -2.27095 0
M  V30 7106 H 659.323 4.41056 -2.53668 0
M  V30 7107 H 658.721 5.64312 0.396016 0
M  V30 7108 H 657.278 6.5176 0.0721001 0
M  V30 7109 N 660.711 1.11618 1.11262 0
M  V30 7110 C 661.958 0.86618 1.8304 0
M  V30 7111 C 662.286 -0.608149 1.84748 0
M  V30 7112 O 661.541 -1.46508 1.29745 0
M  V30 7113 C 661.84 1.37529 3.2988 0
M  V30 7114 C 661.506 2.86317 3.4833 0
M  V30 7115 C 660.168 3.26945 3.53073 0
M  V30 7116 C 662.52 3.82136 3.54431 0
M  V30 7117 C 659.848 4.62117 3.61475 0
M  V30 7118 C 662.2 5.17128 3.64365 0
M  V30 7119 C 660.864 5.57312 3.67369 0
M  V30 7120 H 660.134 0.316958 0.66979 0
M  V30 7121 H 662.781 1.3949 1.31205 0
M  V30 7122 H 661.086 0.766842 3.84222 0
M  V30 7123 H 662.783 1.15817 3.83911 0
M  V30 7124 H 659.373 2.53889 3.45309 0
M  V30 7125 H 663.557 3.51847 3.50025 0
M  V30 7126 H 658.813 4.92655 3.62079 0
M  V30 7127 H 662.987 5.91208 3.68029 0
M  V30 7128 H 660.614 6.62045 3.73632 0
M  V30 7129 N 662.189 -1.289 0.906776 0
M  V30 7130 C 663.121 -2.26556 0.347159 0
M  V30 7131 C 664.134 -1.54589 -0.51049 0
M  V30 7132 O 665.323 -1.75489 -0.326501 0
M  V30 7133 C 662.423 -3.3484 -0.523024 0
M  V30 7134 C 661.596 -4.36296 0.310515 0
M  V30 7135 C 660.655 -5.23879 -0.493634 0
M  V30 7136 O 659.681 -5.69127 0.0913569 0
M  V30 7137 N 660.883 -5.51946 -1.7982 0
M  V30 7138 H 663.648 -2.75212 1.18652 0
M  V30 7139 H 661.209 -1.42309 0.771996 0
M  V30 7140 H 663.201 -3.90366 -1.06756 0
M  V30 7141 H 661.771 -2.85946 -1.26309 0
M  V30 7142 H 660.991 -3.80331 1.03644 0
M  V30 7143 H 662.279 -5.01113 0.881106 0
M  V30 7144 H 661.677 -5.17006 -2.2961 0
M  V30 7145 H 660.234 -6.10258 -2.28971 0
M  V30 7146 N 663.667 -0.670007 -1.42649 0
M  V30 7147 C 665.083 -0.33911 -1.55956 0
M  V30 7148 C 665.283 1.1558 -1.65056 0
M  V30 7149 O 664.339 1.94111 -1.61485 0
M  V30 7150 C 665.652 -1.06522 -2.812 0
M  V30 7151 C 667.2 -1.04708 -2.94966 0
M  V30 7152 C 667.675 -1.75442 -4.23065 0
M  V30 7153 N 669.166 -1.72286 -4.29967 0
M  V30 7154 C 669.901 -2.23877 -5.27889 0
M  V30 7155 N 669.397 -2.83829 -6.31991 0
M  V30 7156 N 671.19 -2.14279 -5.19654 0
M  V30 7157 H 663.341 -1.6399 -1.34986 0
M  V30 7158 H 665.604 -0.690603 -0.649439 0
M  V30 7159 H 665.31 -2.12033 -2.80597 0
M  V30 7160 H 665.184 -0.627398 -3.71946 0
M  V30 7161 H 667.571 -0.000315966 -2.951 0
M  V30 7162 H 667.652 -1.52374 -2.05465 0
M  V30 7163 H 667.296 -2.80084 -4.23693 0
M  V30 7164 H 667.226 -1.25229 -5.11493 0
M  V30 7165 H 669.717 -1.28554 -3.55362 0
M  V30 7166 H 670.03 -3.20827 -7.03057 0
M  V30 7167 H 668.375 -2.87896 -6.32567 0
M  V30 7168 H 671.566 -1.67135 -4.37245 0
M  V30 7169 H 671.739 -2.54792 -5.95806 0
M  V30 7170 N 665.145 1.52092 -0.413018 0
M  V30 7171 C 666.393 2.01456 0.161178 0
M  V30 7172 C 666.714 1.30034 1.45314 0
M  V30 7173 O 665.984 0.427435 1.9118 0
M  V30 7174 H 664.564 0.744376 0.0625526 0
M  V30 7175 H 667.226 1.86974 -0.550151 0
M  V30 7176 H 666.322 3.1008 0.354517 0
M  V30 7177 N 666.623 0.143563 1.56945 0
M  V30 7178 C 667.871 -0.507402 1.95627 0
M  V30 7179 C 668.192 -1.65626 1.02922 0
M  V30 7180 O 667.462 -1.95693 0.0901136 0
M  V30 7181 H 666.042 -0.190436 0.722318 0
M  V30 7182 H 668.704 0.218257 1.93674 0
M  V30 7183 H 667.8 -0.885816 2.99265 0
M  V30 7184 N 668.101 -1.57061 -0.130224 0
M  V30 7185 C 669.048 -1.99517 -1.16024 0
M  V30 7186 C 670.018 -0.865452 -1.41771 0
M  V30 7187 O 671.203 -1.12882 -1.53826 0
M  V30 7188 C 668.343 -2.3951 -2.48453 0
M  V30 7189 C 667.456 -3.65848 -2.29737 0
M  V30 7190 C 666.591 -3.9487 -3.55318 0
M  V30 7191 C 665.63 -5.14426 -3.31711 0
M  V30 7192 N 664.767 -5.39375 -4.49466 0
M  V30 7193 H 669.607 -2.87305 -0.791194 0
M  V30 7194 H 667.144 -1.42129 -0.379195 0
M  V30 7195 H 669.102 -2.60731 -3.25692 0
M  V30 7196 H 667.732 -1.54779 -2.83272 0
M  V30 7197 H 666.784 -3.52307 -1.4347 0
M  V30 7198 H 668.096 -4.53241 -2.08263 0
M  V30 7199 H 667.25 -4.16679 -4.4098 0
M  V30 7200 H 665.989 -3.05931 -3.79813 0
M  V30 7201 H 664.994 -4.92473 -2.44439 0
M  V30 7202 H 666.219 -6.04933 -3.08598 0
M  V30 7203 H 664.165 -4.53391 -4.74102 0
M  V30 7204 H 664.082 -6.21069 -4.31055 0
M  V30 7205 H 665.35 -5.65694 -5.36293 0
M  V30 7206 N 669.579 0.400081 -1.52437 0
M  V30 7207 C 670.489 1.51253 -1.79331 0
M  V30 7208 C 671.505 1.60188 -0.679396 0
M  V30 7209 O 672.681 1.76733 -0.965791 0
M  V30 7210 C 669.746 2.869 -1.94652 0
M  V30 7211 C 668.807 2.87777 -3.18564 0
M  V30 7212 C 668.04 4.16954 -3.33145 0
M  V30 7213 O 668.263 5.11329 -2.52783 0
M  V30 7214 O 667.197 4.2487 -4.26343 0
M  V30 7215 H 671.023 1.31461 -2.73773 0
M  V30 7216 H 668.608 0.586834 -1.37392 0
M  V30 7217 H 670.49 3.67336 -2.065 0
M  V30 7218 H 669.165 3.06741 -1.034 0
M  V30 7219 H 668.072 2.06162 -3.12167 0
M  V30 7220 H 669.405 2.72886 -4.09627 0
M  V30 7221 N 671.057 1.43213 0.657864 0
M  V30 7222 C 672.304 1.44584 1.41781 0
M  V30 7223 C 672.632 0.0684208 1.9438 0
M  V30 7224 O 671.887 -0.925872 1.72413 0
M  V30 7225 C 672.186 2.43143 2.61947 0
M  V30 7226 C 671.852 3.89128 2.27794 0
M  V30 7227 C 670.514 4.28889 2.18191 0
M  V30 7228 C 672.866 4.81144 2.00375 0
M  V30 7229 C 670.194 5.58625 1.79319 0
M  V30 7230 C 672.546 6.11239 1.63003 0
M  V30 7231 C 671.21 6.49981 1.51922 0
M  V30 7232 H 670.48 0.529069 0.518813 0
M  V30 7233 H 673.127 1.76263 0.748577 0
M  V30 7234 H 671.432 2.04851 3.33981 0
M  V30 7235 H 673.129 2.4146 3.20153 0
M  V30 7236 H 669.719 3.57657 2.36176 0
M  V30 7237 H 673.903 4.512 2.06718 0
M  V30 7238 H 669.159 5.87486 1.69323 0
M  V30 7239 H 673.333 6.82014 1.40817 0
M  V30 7240 H 670.96 7.50416 1.21572 0
M  V30 7241 N 672.536 -0.895792 1.29666 0
M  V30 7242 C 673.466 -2.01673 1.17688 0
M  V30 7243 C 674.447 -1.69955 0.0701317 0
M  V30 7244 O 675.632 -1.9258 0.250289 0
M  V30 7245 C 672.762 -3.36568 0.856681 0
M  V30 7246 C 671.716 -3.82509 1.92017 0
M  V30 7247 C 671.042 -5.14574 1.4532 0
M  V30 7248 C 672.342 -4.02409 3.32963 0
M  V30 7249 H 674.036 -2.11953 2.11463 0
M  V30 7250 H 671.582 -1.01839 1.01807 0
M  V30 7251 H 673.535 -4.14498 0.759577 0
M  V30 7252 H 672.259 -3.26391 -0.116763 0
M  V30 7253 H 670.918 -3.068 2.00673 0
M  V30 7254 H 670.566 -5.00815 0.468325 0
M  V30 7255 H 670.266 -5.46283 2.16447 0
M  V30 7256 H 671.79 -5.9504 1.36968 0
M  V30 7257 H 673.204 -4.70808 3.27127 0
M  V30 7258 H 671.601 -4.45478 4.02082 0
M  V30 7259 H 672.671 -3.06616 3.75652 0
M  V30 7260 N 674.014 -1.12206 -1.10668 0
M  V30 7261 C 674.961 -0.787716 -2.16942 0
M  V30 7262 C 675.931 0.244442 -1.64291 0
M  V30 7263 O 677.116 0.119558 -1.90425 0
M  V30 7264 C 674.256 -0.24584 -3.44223 0
M  V30 7265 C 673.369 -1.33552 -4.10838 0
M  V30 7266 C 672.504 -0.753337 -5.25831 0
M  V30 7267 C 671.543 -1.82231 -5.84344 0
M  V30 7268 N 670.68 -1.25902 -6.90719 0
M  V30 7269 H 675.52 -1.69809 -2.44885 0
M  V30 7270 H 673.057 -0.847862 -1.20207 0
M  V30 7271 H 675.015 0.0863639 -4.17111 0
M  V30 7272 H 673.645 0.627702 -3.16638 0
M  V30 7273 H 672.697 -1.78454 -3.35944 0
M  V30 7274 H 674.009 -2.14396 -4.50373 0
M  V30 7275 H 673.163 -0.37166 -6.05561 0
M  V30 7276 H 671.902 0.0863297 -4.87624 0
M  V30 7277 H 670.907 -2.2132 -5.03287 0
M  V30 7278 H 672.132 -2.66515 -6.24617 0
M  V30 7279 H 670.078 -0.44114 -6.54515 0
M  V30 7280 H 669.995 -2.00408 -7.28953 0
M  V30 7281 H 671.263 -0.904498 -7.74235 0
M  V30 7282 N 675.492 1.28418 -0.913599 0
M  V30 7283 C 676.439 2.27301 -0.400373 0
M  V30 7284 C 677.409 1.57582 0.52509 0
M  V30 7285 O 678.594 1.85482 0.447318 0
M  V30 7286 C 675.734 3.43284 0.35361 0
M  V30 7287 C 674.847 4.27752 -0.604341 0
M  V30 7288 C 673.982 5.30934 0.168075 0
M  V30 7289 C 673.021 6.07065 -0.783499 0
M  V30 7290 N 672.158 7.02086 -0.0446112 0
M  V30 7291 H 676.998 2.70579 -1.24865 0
M  V30 7292 H 674.535 1.33067 -0.627028 0
M  V30 7293 H 676.493 4.09322 0.806945 0
M  V30 7294 H 675.123 3.00997 1.16623 0
M  V30 7295 H 674.175 3.61759 -1.17621 0
M  V30 7296 H 675.487 4.80682 -1.33216 0
M  V30 7297 H 674.641 6.02855 0.681979 0
M  V30 7298 H 673.38 4.78771 0.928947 0
M  V30 7299 H 672.385 5.33995 -1.30878 0
M  V30 7300 H 673.61 6.61317 -1.54392 0
M  V30 7301 H 671.556 6.52273 0.698272 0
M  V30 7302 H 671.473 7.52637 -0.712258 0
M  V30 7303 H 672.741 7.78205 0.449102 0
M  V30 7304 N 676.97 0.677563 1.42291 0
M  V30 7305 C 677.902 -0.0380218 2.29168 0
M  V30 7306 C 678.915 -0.762714 1.43828 0
M  V30 7307 O 680.104 -0.616413 1.67519 0
M  V30 7308 C 677.204 -1.07761 3.21311 0
M  V30 7309 C 676.377 -0.42618 4.35319 0
M  V30 7310 C 675.436 -1.36592 5.08162 0
M  V30 7311 O 674.462 -0.865174 5.62586 0
M  V30 7312 N 675.664 -2.69909 5.13935 0
M  V30 7313 H 678.429 0.707766 2.91223 0
M  V30 7314 H 675.99 0.52219 1.53247 0
M  V30 7315 H 677.982 -1.70761 3.6691 0
M  V30 7316 H 676.552 -1.72511 2.60689 0
M  V30 7317 H 675.772 0.383385 3.92331 0
M  V30 7318 H 677.06 0.0275277 5.08793 0
M  V30 7319 H 676.458 -3.13129 4.71134 0
M  V30 7320 H 675.015 -3.2815 5.6317 0
M  V30 7321 N 678.448 -1.51871 0.421078 0
M  V30 7322 C 679.395 -2.27334 -0.398508 0
M  V30 7323 C 680.365 -1.30241 -1.03085 0
M  V30 7324 O 681.55 -1.59121 -1.05285 0
M  V30 7325 C 678.69 -3.10664 -1.50272 0
M  V30 7326 C 677.803 -4.2273 -0.890122 0
M  V30 7327 C 676.938 -4.93399 -1.96803 0
M  V30 7328 C 675.977 -5.97409 -1.333 0
M  V30 7329 N 675.114 -6.61548 -2.35156 0
M  V30 7330 H 679.954 -2.96938 0.251411 0
M  V30 7331 H 677.491 -1.46472 0.135825 0
M  V30 7332 H 679.449 -3.57292 -2.15403 0
M  V30 7333 H 678.079 -2.43207 -2.1225 0
M  V30 7334 H 677.131 -3.80186 -0.127537 0
M  V30 7335 H 678.443 -4.97302 -0.386349 0
M  V30 7336 H 677.597 -5.43491 -2.69633 0
M  V30 7337 H 676.336 -4.18421 -2.50549 0
M  V30 7338 H 675.341 -5.46624 -0.59008 0
M  V30 7339 H 676.566 -6.74335 -0.803076 0
M  V30 7340 H 674.512 -5.89394 -2.88012 0
M  V30 7341 H 674.429 -7.31832 -1.89624 0
M  V30 7342 H 675.697 -7.16276 -3.0752 0
M  V30 7343 N 679.926 -0.151884 -1.56866 0
M  V30 7344 C 680.856 0.781943 -2.20018 0
M  V30 7345 C 681.837 1.25347 -1.14987 0
M  V30 7346 O 683.022 1.31015 -1.43348 0
M  V30 7347 C 680.152 2.01928 -2.82564 0
M  V30 7348 C 679.106 1.68434 -3.93464 0
M  V30 7349 C 678.432 2.99472 -4.42968 0
M  V30 7350 C 679.732 0.927244 -5.14003 0
M  V30 7351 H 681.426 0.255607 -2.98307 0
M  V30 7352 H 678.972 0.121502 -1.43486 0
M  V30 7353 H 680.925 2.67741 -3.25411 0
M  V30 7354 H 679.649 2.56943 -2.01614 0
M  V30 7355 H 678.308 1.04998 -3.51242 0
M  V30 7356 H 677.956 3.52488 -3.58834 0
M  V30 7357 H 677.656 2.77823 -5.17772 0
M  V30 7358 H 679.18 3.66348 -4.88489 0
M  V30 7359 H 680.594 1.48756 -5.53665 0
M  V30 7360 H 678.991 0.810513 -5.94601 0
M  V30 7361 H 680.061 -0.0801163 -4.84834 0
M  V30 7362 N 681.404 1.57128 0.121893 0
M  V30 7363 C 682.629 1.89254 0.848385 0
M  V30 7364 C 683.054 0.743527 1.72781 0
M  V30 7365 O 682.412 -0.306056 1.78698 0
M  V30 7366 C 682.46 3.20113 1.66012 0
M  V30 7367 O 681.564 3.05815 2.76679 0
M  V30 7368 H 680.905 0.621103 0.234793 0
M  V30 7369 H 683.435 2.0433 0.10516 0
M  V30 7370 H 683.445 3.52761 2.04996 0
M  V30 7371 H 682.12 4.03336 1.01452 0
M  V30 7372 H 680.697 2.84627 2.40918 0
M  V30 7373 N 682.882 -0.391992 1.52647 0
M  V30 7374 C 684.293 -0.970064 1.5952 0
M  V30 7375 C 684.644 -1.91059 0.446207 0
M  V30 7376 O 683.769 -2.12062 -0.431125 0
M  V30 7377 C 684.364 -1.76614 2.89125 0
M  V30 7378 C 682.923 -2.29396 2.9842 0
M  V30 7379 C 682.07 -1.09864 2.54608 0
M  V30 7380 H 685.021 -0.171638 1.57769 0
M  V30 7381 H 685.042 -2.62511 2.75442 0
M  V30 7382 H 684.554 -1.08135 3.72731 0
M  V30 7383 H 682.655 -3.01196 2.19344 0
M  V30 7384 H 682.768 -2.59088 4.03002 0
M  V30 7385 H 681.132 -1.45777 2.08857 0
M  V30 7386 H 681.915 -0.429249 3.40606 0
M  V30 7387 N 684.36 -1.4356 -0.65026 0
M  V30 7388 C 685.637 -1.35811 -1.40765 0
M  V30 7389 C 686.017 -0.00736379 -2.11099 0
M  V30 7390 O 685.365 1.00932 -2.05 0
M  V30 7391 C 685.575 -2.54332 -2.3899 0
M  V30 7392 C 686.923 -2.97551 -3.02901 0
M  V30 7393 O 687.947 -2.544 -2.49317 0
M  V30 7394 O 686.806 -3.72311 -4.00059 0
M  V30 7395 H 683.9 -0.536861 -0.629054 0
M  V30 7396 H 686.446 -1.55615 -0.676919 0
M  V30 7397 H 685.218 -3.44274 -1.85986 0
M  V30 7398 H 684.841 -2.36643 -3.19509 0
M  V30 7399 N 685.838 0.888903 -1.30139 0
M  V30 7400 C 686.801 1.97576 -1.16174 0
M  V30 7401 C 687.801 1.60525 -0.094086 0
M  V30 7402 O 688.991 1.70812 -0.341889 0
M  V30 7403 C 686.123 3.3188 -0.778983 0
M  V30 7404 H 687.316 2.11393 -2.12728 0
M  V30 7405 H 684.869 1.0748 -1.1348 0
M  V30 7406 H 685.604 3.23765 0.186225 0
M  V30 7407 H 685.389 3.60141 -1.55051 0
M  V30 7408 H 686.879 4.11612 -0.704631 0
M  V30 7409 N 687.317 1.12792 1.10072 0
M  V30 7410 C 688.563 0.886857 1.82381 0
M  V30 7411 C 688.896 -0.58576 1.85155 0
M  V30 7412 O 688.171 -1.43317 1.31493 0
M  V30 7413 C 688.454 1.46703 3.28862 0
M  V30 7414 C 688.307 3.00829 3.34398 0
M  V30 7415 C 689.626 1.12971 4.25353 0
M  V30 7416 H 686.745 0.32362 0.662148 0
M  V30 7417 H 689.387 1.39513 1.28982 0
M  V30 7418 H 687.537 1.03476 3.74466 0
M  V30 7419 H 689.209 3.52764 2.97247 0
M  V30 7420 H 687.452 3.36164 2.74183 0
M  V30 7421 H 688.123 3.36519 4.3756 0
M  V30 7422 H 690.599 1.50313 3.88001 0
M  V30 7423 H 689.475 1.56223 5.26199 0
M  V30 7424 H 689.736 0.0424452 4.4208 0
M  V30 7425 N 688.795 -1.27931 0.920396 0
M  V30 7426 C 689.758 -2.25345 0.41858 0
M  V30 7427 C 690.758 -1.54116 -0.458798 0
M  V30 7428 O 691.948 -1.72235 -0.260912 0
M  V30 7429 C 689.08 -3.38556 -0.399104 0
M  V30 7430 H 690.273 -2.71251 1.27918 0
M  V30 7431 H 687.826 -1.39728 0.700406 0
M  V30 7432 H 688.561 -2.98021 -1.27882 0
M  V30 7433 H 688.346 -3.91426 0.229863 0
M  V30 7434 H 689.836 -4.10976 -0.740817 0
M  V30 7435 N 690.273 -0.685099 -1.4193 0
M  V30 7436 C 691.205 0.0258679 -2.29185 0
M  V30 7437 C 692.218 0.755076 -1.44231 0
M  V30 7438 O 693.407 0.60752 -1.67844 0
M  V30 7439 C 690.507 1.06055 -3.21878 0
M  V30 7440 C 689.68 0.403088 -4.35539 0
M  V30 7441 C 688.739 1.33895 -5.0888 0
M  V30 7442 O 687.765 0.835326 -5.63037 0
M  V30 7443 N 688.967 2.6718 -5.15359 0
M  V30 7444 H 691.732 -0.723201 -2.90843 0
M  V30 7445 H 689.293 -0.53031 -1.52968 0
M  V30 7446 H 691.285 1.68813 -3.6781 0
M  V30 7447 H 689.855 1.71126 -2.616 0
M  V30 7448 H 689.075 -0.404185 -3.92122 0
M  V30 7449 H 690.363 -0.0545098 -5.08771 0
M  V30 7450 H 689.761 3.10626 -4.72788 0
M  V30 7451 H 688.318 3.25159 -5.64903 0
M  V30 7452 N 691.751 1.51645 -0.429126 0
M  V30 7453 C 692.681 2.30434 0.377148 0
M  V30 7454 C 693.662 1.35493 1.02838 0
M  V30 7455 O 694.847 1.6441 1.03359 0
M  V30 7456 C 691.977 3.14038 1.48315 0
M  V30 7457 C 690.931 4.1719 0.955855 0
M  V30 7458 C 690.257 4.89263 2.15698 0
M  V30 7459 C 691.557 5.223 -0.00402136 0
M  V30 7460 H 693.251 2.98085 -0.280336 0
M  V30 7461 H 690.797 1.43354 -0.136265 0
M  V30 7462 H 692.75 3.67933 2.05435 0
M  V30 7463 H 691.474 2.44193 2.16881 0
M  V30 7464 H 690.133 3.64335 0.406929 0
M  V30 7465 H 689.781 4.15929 2.82864 0
M  V30 7466 H 689.481 5.59009 1.81059 0
M  V30 7467 H 691.005 5.45978 2.73387 0
M  V30 7468 H 692.419 5.71315 0.476607 0
M  V30 7469 H 690.816 5.99525 -0.26258 0
M  V30 7470 H 691.886 4.75638 -0.943236 0
M  V30 7471 N 693.229 0.160201 1.56784 0
M  V30 7472 C 694.192 -0.760405 2.16219 0
M  V30 7473 C 695.192 -1.16595 1.10735 0
M  V30 7474 O 696.382 -1.08472 1.36306 0
M  V30 7475 C 693.514 -2.03358 2.73603 0
M  V30 7476 H 694.707 -0.243173 2.98912 0
M  V30 7477 H 692.26 -0.0893139 1.56045 0
M  V30 7478 H 692.995 -2.59416 1.94612 0
M  V30 7479 H 692.78 -1.75186 3.50788 0
M  V30 7480 H 694.27 -2.69081 3.19351 0
M  V30 7481 N 694.707 -1.5719 -0.113559 0
M  V30 7482 C 695.954 -1.85138 -0.820382 0
M  V30 7483 C 696.282 -0.74608 -1.79622 0
M  V30 7484 O 695.537 0.262077 -1.93937 0
M  V30 7485 C 695.836 -3.19593 -1.59984 0
M  V30 7486 C 695.502 -4.44315 -0.767809 0
M  V30 7487 C 694.164 -4.78179 -0.538379 0
M  V30 7488 C 696.516 -5.2086 -0.188203 0
M  V30 7489 C 693.844 -5.86028 0.28082 0
M  V30 7490 C 696.196 -6.29572 0.618217 0
M  V30 7491 C 694.86 -6.61964 0.857912 0
M  V30 7492 H 694.13 -0.677467 -0.300199 0
M  V30 7493 H 696.777 -1.91322 -0.0825443 0
M  V30 7494 H 695.082 -3.0901 -2.40874 0
M  V30 7495 H 696.779 -3.3844 -2.1508 0
M  V30 7496 H 693.369 -4.17786 -0.956724 0
M  V30 7497 H 697.553 -4.95045 -0.352658 0
M  V30 7498 H 692.809 -6.09547 0.475693 0
M  V30 7499 H 696.983 -6.88064 1.0743 0
M  V30 7500 H 694.61 -7.45365 1.49451 0
M  V30 7501 N 696.185 0.383891 -1.52853 0
M  V30 7502 C 697.117 1.48889 -1.74255 0
M  V30 7503 C 698.13 1.50405 -0.623063 0
M  V30 7504 O 699.319 1.54215 -0.898887 0
M  V30 7505 C 696.419 2.87721 -1.79081 0
M  V30 7506 C 695.592 3.10111 -3.08464 0
M  V30 7507 C 694.651 4.28954 -3.0477 0
M  V30 7508 O 693.677 4.25012 -3.78621 0
M  V30 7509 N 694.879 5.35411 -2.24311 0
M  V30 7510 H 697.644 1.30915 -2.69595 0
M  V30 7511 H 695.205 0.573454 -1.51404 0
M  V30 7512 H 697.197 3.65333 -1.7411 0
M  V30 7513 H 695.767 2.99029 -0.911052 0
M  V30 7514 H 694.987 2.20319 -3.26884 0
M  V30 7515 H 696.275 3.21928 -3.94005 0
M  V30 7516 H 695.673 5.41471 -1.63787 0
M  V30 7517 H 694.23 6.1167 -2.25175 0
M  V30 7518 N 697.663 1.43903 0.642637 0
M  V30 7519 C 698.596 1.44339 1.76753 0
M  V30 7520 C 699.574 0.303558 1.59741 0
M  V30 7521 O 700.758 0.498775 1.81781 0
M  V30 7522 C 697.885 1.26508 3.14187 0
M  V30 7523 C 696.931 2.43905 3.49875 0
M  V30 7524 S 697.764 4.0645 3.48653 0
M  V30 7525 C 698.92 3.91021 4.88726 0
M  V30 7526 H 699.153 2.39523 1.76113 0
M  V30 7527 H 696.686 1.31061 0.81623 0
M  V30 7528 H 698.644 1.16908 3.93501 0
M  V30 7529 H 697.305 0.328548 3.12377 0
M  V30 7530 H 696.498 2.27262 4.49853 0
M  V30 7531 H 696.1 2.50186 2.77998 0
M  V30 7532 H 698.392 3.54 5.77659 0
M  V30 7533 H 699.335 4.9079 5.10423 0
M  V30 7534 H 699.743 3.23287 4.62759 0
M  V30 7535 N 699.141 -0.881989 1.30609 0
M  V30 7536 C 700.104 -1.96957 1.1722 0
M  V30 7537 C 701.104 -1.60472 0.102598 0
M  V30 7538 O 702.294 -1.70628 0.350943 0
M  V30 7539 C 699.426 -3.31463 0.796572 0
M  V30 7540 H 700.619 -2.10262 2.13846 0
M  V30 7541 H 698.172 -1.06877 1.14048 0
M  V30 7542 H 698.907 -3.23859 -0.169053 0
M  V30 7543 H 698.692 -3.59314 1.56959 0
M  V30 7544 H 700.182 -4.11233 0.72645 0
M  V30 7545 N 700.619 -1.13374 -1.09472 0
M  V30 7546 C 701.866 -0.89519 -1.81639 0
M  V30 7547 C 702.194 0.57868 -1.85692 0
M  V30 7548 O 701.449 1.44426 -1.32059 0
M  V30 7549 C 701.748 -1.42759 -3.2765 0
M  V30 7550 C 701.414 -2.91822 -3.43731 0
M  V30 7551 C 700.076 -3.32521 -3.47827 0
M  V30 7552 C 702.428 -3.87727 -3.48307 0
M  V30 7553 C 699.756 -4.6781 -3.54078 0
M  V30 7554 C 702.108 -5.22859 -3.56091 0
M  V30 7555 C 700.772 -5.63086 -3.58456 0
M  V30 7556 H 700.042 -0.327573 -0.664663 0
M  V30 7557 H 702.689 -1.4156 -1.28969 0
M  V30 7558 H 700.994 -0.827871 -3.82954 0
M  V30 7559 H 702.691 -1.2191 -3.8202 0
M  V30 7560 H 699.281 -2.5935 -3.41226 0
M  V30 7561 H 703.465 -3.57371 -3.44383 0
M  V30 7562 H 698.721 -4.98353 -3.54195 0
M  V30 7563 H 702.895 -5.96989 -3.58577 0
M  V30 7564 H 700.522 -6.67905 -3.63052 0
M  V30 7565 N 702.098 1.27442 -0.927168 0
M  V30 7566 C 703.028 2.29256 -0.443188 0
M  V30 7567 C 704.009 1.62701 0.49624 0
M  V30 7568 O 705.194 1.90013 0.401105 0
M  V30 7569 C 702.324 3.45955 0.305366 0
M  V30 7570 C 701.278 4.24501 -0.546178 0
M  V30 7571 C 700.604 5.33671 0.331512 0
M  V30 7572 C 701.904 4.89921 -1.81037 0
M  V30 7573 H 703.598 2.69988 -1.29409 0
M  V30 7574 H 701.144 1.29792 -0.623705 0
M  V30 7575 H 703.097 4.1628 0.654885 0
M  V30 7576 H 701.821 3.04138 1.19029 0
M  V30 7577 H 700.48 3.55921 -0.878398 0
M  V30 7578 H 700.128 4.88096 1.21537 0
M  V30 7579 H 699.828 5.87131 -0.234746 0
M  V30 7580 H 701.352 6.0684 0.676614 0
M  V30 7581 H 702.766 5.52536 -1.52895 0
M  V30 7582 H 701.163 5.53436 -2.32009 0
M  V30 7583 H 702.233 4.13652 -2.53021 0
M  V30 7584 N 703.576 0.692616 1.41565 0
M  V30 7585 C 704.992 0.363878 1.55397 0
M  V30 7586 C 705.192 -1.1294 1.66874 0
M  V30 7587 O 704.248 -1.91517 1.64552 0
M  V30 7588 C 705.561 1.10982 2.7947 0
M  V30 7589 C 707.109 1.09387 2.93263 0
M  V30 7590 C 707.584 1.8215 4.20221 0
M  V30 7591 N 709.075 1.79105 4.27172 0
M  V30 7592 C 709.81 2.32247 5.2426 0
M  V30 7593 N 709.306 2.93847 6.27396 0
M  V30 7594 N 711.099 2.22519 5.1618 0
M  V30 7595 H 703.25 1.66116 1.3236 0
M  V30 7596 H 705.513 0.700848 0.63837 0
M  V30 7597 H 705.219 2.1647 2.77188 0
M  V30 7598 H 705.093 0.686492 3.709 0
M  V30 7599 H 707.48 0.0472638 2.95062 0
M  V30 7600 H 707.561 1.55623 2.03015 0
M  V30 7601 H 707.205 2.86789 4.19183 0
M  V30 7602 H 707.135 1.33351 5.09436 0
M  V30 7603 H 709.626 1.34191 3.53272 0
M  V30 7604 H 709.939 3.31972 6.97864 0
M  V30 7605 H 708.284 2.97924 6.27906 0
M  V30 7606 H 711.475 1.7407 4.34531 0
M  V30 7607 H 711.648 2.64239 5.91677 0
M  V30 7608 N 705.054 -1.51416 0.437162 0
M  V30 7609 C 705.986 -2.255 -0.410171 0
M  V30 7610 C 706.999 -1.29511 -0.986444 0
M  V30 7611 O 708.188 -1.55266 -0.880614 0
M  V30 7612 C 705.288 -2.99511 -1.58575 0
M  V30 7613 C 704.461 -4.22595 -1.12839 0
M  V30 7614 C 703.52 -4.79187 -2.17407 0
M  V30 7615 O 702.546 -5.4103 -1.76849 0
M  V30 7616 N 703.748 -4.63204 -3.49889 0
M  V30 7617 H 706.513 -2.98856 0.224783 0
M  V30 7618 H 704.074 -1.59699 0.266041 0
M  V30 7619 H 706.066 -3.34258 -2.28152 0
M  V30 7620 H 704.636 -2.29167 -2.12606 0
M  V30 7621 H 703.856 -3.93344 -0.259695 0
M  V30 7622 H 705.144 -5.02468 -0.800196 0
M  V30 7623 H 704.542 -4.13945 -3.85573 0
M  V30 7624 H 703.099 -5.02313 -4.15361 0
M  V30 7625 N 706.532 -0.168513 -1.56696 0
M  V30 7626 C 707.762 0.482802 -2.0088 0
M  V30 7627 C 708.17 1.57537 -1.0478 0
M  V30 7628 O 707.513 1.83656 -0.0402746 0
M  V30 7629 C 707.575 1.1236 -3.4149 0
M  V30 7630 C 707.239 0.173027 -4.56672 0
M  V30 7631 C 708.236 -0.607565 -5.16338 0
M  V30 7632 C 705.921 0.0696691 -5.02252 0
M  V30 7633 C 707.915 -1.47874 -6.2001 0
M  V30 7634 C 705.602 -0.805096 -6.05773 0
M  V30 7635 C 706.6 -1.57789 -6.64524 0
M  V30 7636 O 706.288 -2.43804 -7.66038 0
M  V30 7637 H 706.02 0.128246 -0.663723 0
M  V30 7638 H 708.574 -0.266532 -2.03663 0
M  V30 7639 H 706.804 1.921 -3.35611 0
M  V30 7640 H 708.493 1.67683 -3.69645 0
M  V30 7641 H 709.259 -0.53787 -4.82008 0
M  V30 7642 H 705.138 0.660957 -4.56237 0
M  V30 7643 H 708.682 -2.0824 -6.65794 0
M  V30 7644 H 704.579 -0.876005 -6.39528 0
M  V30 7645 H 705.347 -2.37289 -7.83349 0
M  V30 7646 N 708.01 1.57248 0.105221 0
M  V30 7647 C 709.258 1.85204 0.808951 0
M  V30 7648 C 709.579 0.75574 1.7976 0
M  V30 7649 O 708.849 -0.218984 1.94672 0
M  V30 7650 H 707.429 0.683346 0.301739 0
M  V30 7651 H 710.091 1.94695 0.0892605 0
M  V30 7652 H 709.187 2.81595 1.34575 0
M  V30 7653 N 709.488 -0.375779 1.53054 0
M  V30 7654 C 710.42 -1.47963 1.75042 0
M  V30 7655 C 711.433 -1.50073 0.631031 0
M  V30 7656 O 712.622 -1.53736 0.907052 0
M  V30 7657 C 709.722 -2.86767 1.80604 0
M  V30 7658 C 708.895 -3.08471 3.10104 0
M  V30 7659 C 707.954 -4.27332 3.07041 0
M  V30 7660 O 706.98 -4.22998 3.80869 0
M  V30 7661 N 708.182 -5.34214 2.27147 0
M  V30 7662 H 710.947 -1.29484 2.70285 0
M  V30 7663 H 708.508 -0.565416 1.51706 0
M  V30 7664 H 710.5 -3.64404 1.76045 0
M  V30 7665 H 709.07 -2.98542 0.926897 0
M  V30 7666 H 708.29 -2.18583 3.28048 0
M  V30 7667 H 709.578 -3.19834 3.95706 0
M  V30 7668 H 708.976 -5.40594 1.66656 0
M  V30 7669 H 707.533 -6.10467 2.28415 0
M  V30 7670 N 710.966 -1.44241 -0.634997 0
M  V30 7671 C 712.194 -1.50296 -1.42193 0
M  V30 7672 C 712.609 -0.12658 -1.88375 0
M  V30 7673 O 711.966 0.86678 -1.60603 0
M  V30 7674 C 712.017 -2.46437 -2.64482 0
M  V30 7675 O 711.738 -3.78724 -2.20226 0
M  V30 7676 C 713.239 -2.61918 -3.57651 0
M  V30 7677 H 710.459 -0.509865 -0.43621 0
M  V30 7678 H 713.003 -1.89167 -0.776921 0
M  V30 7679 H 711.158 -2.10712 -3.25083 0
M  V30 7680 H 711.572 -4.30595 -2.9948 0
M  V30 7681 H 713.046 -3.33225 -4.40074 0
M  V30 7682 H 713.523 -1.67017 -4.06204 0
M  V30 7683 H 714.129 -2.98528 -3.02921 0
M  V30 7684 N 712.444 0.87505 -1.31075 0
M  V30 7685 C 713.69 1.63009 -1.20647 0
M  V30 7686 C 714.023 1.9276 0.236045 0
M  V30 7687 O 713.298 1.55559 1.16754 0
M  V30 7688 C 713.581 2.96357 -2.0456 0
M  V30 7689 C 713.434 2.73516 -3.57084 0
M  V30 7690 C 714.753 3.974 -1.89107 0
M  V30 7691 H 711.872 0.591518 -0.439631 0
M  V30 7692 H 714.514 1.0119 -1.60812 0
M  V30 7693 H 712.664 3.49119 -1.70435 0
M  V30 7694 H 714.336 2.27465 -4.01319 0
M  V30 7695 H 712.579 2.0784 -3.80769 0
M  V30 7696 H 713.25 3.68377 -4.11099 0
M  V30 7697 H 715.726 3.5383 -2.18961 0
M  V30 7698 H 714.602 4.88596 -2.5013 0
M  V30 7699 H 714.863 4.33794 -0.85296 0
M  V30 7700 N 713.922 1.13953 1.08869 0
M  V30 7701 C 714.885 0.824991 2.13838 0
M  V30 7702 C 715.885 -0.168198 1.59918 0
M  V30 7703 O 717.075 0.0595778 1.74098 0
M  V30 7704 C 714.207 0.228938 3.4013 0
M  V30 7705 H 715.4 1.75521 2.43171 0
M  V30 7706 H 712.953 0.94492 1.24503 0
M  V30 7707 H 713.688 -0.710227 3.16427 0
M  V30 7708 H 713.473 0.944243 3.80561 0
M  V30 7709 H 714.963 0.0259223 4.17592 0
M  V30 7710 N 715.4 -1.26948 0.933913 0
M  V30 7711 C 716.628 -1.98186 0.59414 0
M  V30 7712 C 717.043 -1.69614 -0.829257 0
M  V30 7713 O 716.4 -0.960213 -1.55197 0
M  V30 7714 C 716.451 -3.52123 0.818026 0
M  V30 7715 O 716.172 -3.79698 2.18543 0
M  V30 7716 C 717.673 -4.40608 0.48781 0
M  V30 7717 H 714.893 -0.632305 0.224569 0
M  V30 7718 H 717.437 -1.61646 1.25263 0
M  V30 7719 H 715.592 -3.86851 0.206246 0
M  V30 7720 H 716.006 -4.7426 2.24005 0
M  V30 7721 H 717.48 -5.47606 0.695126 0
M  V30 7722 H 717.957 -4.35394 -0.576913 0
M  V30 7723 H 718.563 -4.11411 1.078 0
M  V30 7724 N 716.879 -0.700114 -1.41195 0
M  V30 7725 C 718.109 -0.241828 -2.0518 0
M  V30 7726 C 718.517 1.1157 -1.52803 0
M  V30 7727 O 717.86 1.70926 -0.673042 0
M  V30 7728 C 717.922 -0.12695 -3.59276 0
M  V30 7729 C 717.586 -1.41725 -4.34469 0
M  V30 7730 C 718.583 -2.35604 -4.63451 0
M  V30 7731 C 716.268 -1.67189 -4.73659 0
M  V30 7732 C 718.262 -3.53204 -5.3059 0
M  V30 7733 C 715.949 -2.85073 -5.40534 0
M  V30 7734 C 716.947 -3.77904 -5.68927 0
M  V30 7735 O 716.635 -4.93723 -6.34424 0
M  V30 7736 H 716.367 -0.109247 -0.667114 0
M  V30 7737 H 718.921 -0.954538 -1.81873 0
M  V30 7738 H 717.151 0.641571 -3.81341 0
M  V30 7739 H 718.84 0.294748 -4.04828 0
M  V30 7740 H 719.606 -2.1719 -4.33651 0
M  V30 7741 H 715.485 -0.957935 -4.50937 0
M  V30 7742 H 719.029 -4.25679 -5.52669 0
M  V30 7743 H 714.926 -3.03402 -5.69752 0
M  V30 7744 H 715.694 -4.93597 -6.5292 0
M  V30 7745 N 718.357 1.51182 -0.445186 0
M  V30 7746 C 719.267 2.31692 0.368255 0
M  V30 7747 C 720.283 1.40942 1.02036 0
M  V30 7748 O 721.459 1.74011 1.01401 0
M  V30 7749 C 718.524 3.14903 1.45041 0
M  V30 7750 C 717.585 4.21442 0.817615 0
M  V30 7751 C 716.818 5.00677 1.8482 0
M  V30 7752 O 717.041 4.80644 3.07145 0
M  V30 7753 O 715.975 5.84559 1.43438 0
M  V30 7754 H 719.801 3.0232 -0.289219 0
M  V30 7755 H 717.386 1.47951 -0.207555 0
M  V30 7756 H 719.268 3.66612 2.07783 0
M  V30 7757 H 717.943 2.47031 2.09182 0
M  V30 7758 H 716.85 3.73791 0.151931 0
M  V30 7759 H 718.183 4.9171 0.219564 0
M  V30 7760 N 719.835 0.176821 1.56605 0
M  V30 7761 C 721.06 -0.47599 2.01864 0
M  V30 7762 C 721.485 -1.55645 1.05623 0
M  V30 7763 O 720.843 -1.81263 0.0366729 0
M  V30 7764 C 720.891 -1.02619 3.4569 0
M  V30 7765 O 719.995 -2.13996 3.52533 0
M  V30 7766 H 719.336 -0.113363 0.654251 0
M  V30 7767 H 721.866 0.28233 2.02643 0
M  V30 7768 H 721.876 -1.34742 3.85109 0
M  V30 7769 H 720.551 -0.235138 4.15235 0
M  V30 7770 H 719.128 -1.82876 3.24978 0
M  V30 7771 N 721.313 -1.57302 -0.09688 0
M  V30 7772 C 722.553 -1.87823 -0.806334 0
M  V30 7773 C 722.917 -0.767593 -1.75989 0
M  V30 7774 O 724.118 -0.955173 -2.51257 0
M  V30 7775 C 722.389 -3.23585 -1.51749 0
M  V30 7776 S 723.948 -3.75795 -2.26547 0
M  V30 7777 H 720.766 -0.658281 -0.268676 0
M  V30 7778 H 723.368 -1.95397 -0.0635476 0
M  V30 7779 H 722.072 -4.0234 -0.809348 0
M  V30 7780 H 721.603 -3.19145 -2.30021 0
M  V30 7781 H 723.618 -3.49068 -3.52656 0
M  V30 7782 N 722.791 0.367657 -1.53252 0
M  V30 7783 C 724.016 1.13566 -1.73544 0
M  V30 7784 C 724.441 1.82329 -0.462344 0
M  V30 7785 O 723.799 1.71655 0.583472 0
M  V30 7786 C 723.847 2.14322 -2.89997 0
M  V30 7787 O 722.951 3.21359 -2.58461 0
M  V30 7788 H 722.292 0.329614 -0.576412 0
M  V30 7789 H 724.822 0.425417 -2.00128 0
M  V30 7790 H 724.832 2.57958 -3.16104 0
M  V30 7791 H 723.507 1.63664 -3.82344 0
M  V30 7792 H 722.084 2.8271 -2.43165 0
M  V30 7793 N 724.269 1.44576 0.627338 0
M  V30 7794 C 725.497 1.51048 1.41394 0
M  V30 7795 C 725.912 0.136568 1.88305 0
M  V30 7796 O 725.269 -0.858251 1.6106 0
M  V30 7797 C 725.32 2.47837 2.63172 0
M  V30 7798 O 725.041 3.79887 2.18215 0
M  V30 7799 C 726.542 2.63811 3.56257 0
M  V30 7800 H 723.762 0.512171 0.4335 0
M  V30 7801 H 726.306 1.89576 0.766878 0
M  V30 7802 H 724.461 2.12433 3.23961 0
M  V30 7803 H 724.875 4.32177 2.97192 0
M  V30 7804 H 726.349 3.35554 4.38301 0
M  V30 7805 H 726.826 1.69169 4.05313 0
M  V30 7806 H 727.432 3.0013 3.01333 0
M  V30 7807 N 725.747 -0.868086 1.31537 0
M  V30 7808 C 726.71 -1.95703 1.19302 0
M  V30 7809 C 727.71 -1.60355 0.119612 0
M  V30 7810 O 728.9 -1.70247 0.36902 0
M  V30 7811 C 726.032 -3.30599 0.831684 0
M  V30 7812 H 727.225 -2.07982 2.16064 0
M  V30 7813 H 724.778 -1.05661 1.15176 0
M  V30 7814 H 725.513 -3.2402 -0.134694 0
M  V30 7815 H 725.298 -3.57629 1.60761 0
M  V30 7816 H 726.788 -4.10439 0.770026 0
M  V30 7817 N 727.225 -1.14528 -1.08264 0
M  V30 7818 C 728.188 -0.83632 -2.13397 0
M  V30 7819 C 729.188 0.159715 -1.60005 0
M  V30 7820 O 730.378 -0.0688098 -1.74064 0
M  V30 7821 C 727.51 -0.246973 -3.40004 0
M  V30 7822 H 728.703 -1.76808 -2.42237 0
M  V30 7823 H 726.256 -0.951509 -1.24 0
M  V30 7824 H 726.991 0.693436 -3.168 0
M  V30 7825 H 726.776 -0.964412 -3.80055 0
M  V30 7826 H 728.266 -0.0480679 -4.17572 0
M  V30 7827 N 728.703 1.26451 -0.940633 0
M  V30 7828 C 729.95 1.93778 -0.587909 0
M  V30 7829 C 730.278 1.73811 0.872935 0
M  V30 7830 O 729.533 1.06816 1.63978 0
M  V30 7831 C 729.832 3.46503 -0.875794 0
M  V30 7832 C 729.498 3.86609 -2.32043 0
M  V30 7833 C 728.16 3.97269 -2.71534 0
M  V30 7834 C 730.512 4.0672 -3.25927 0
M  V30 7835 C 727.84 4.25436 -4.04006 0
M  V30 7836 C 730.192 4.36375 -4.57995 0
M  V30 7837 C 728.856 4.45249 -4.97302 0
M  V30 7838 H 728.126 0.709084 -0.215131 0
M  V30 7839 H 730.773 1.50272 -1.18704 0
M  V30 7840 H 729.078 3.91319 -0.194124 0
M  V30 7841 H 730.775 3.96759 -0.581665 0
M  V30 7842 H 727.365 3.78858 -2.00411 0
M  V30 7843 H 731.549 3.97912 -2.96614 0
M  V30 7844 H 726.805 4.30519 -4.34124 0
M  V30 7845 H 730.979 4.50882 -5.30734 0
M  V30 7846 H 728.606 4.66829 -5.99979 0
M  V30 7847 N 730.181 0.707592 1.40822 0
M  V30 7848 C 731.128 0.0499029 2.30746 0
M  V30 7849 C 732.098 -0.758718 1.47759 0
M  V30 7850 O 733.283 -0.724299 1.76518 0
M  V30 7851 C 730.423 -0.871756 3.33908 0
M  V30 7852 C 729.536 -0.0534655 4.31967 0
M  V30 7853 C 728.671 -0.973869 5.22197 0
M  V30 7854 C 727.71 -0.149194 6.11918 0
M  V30 7855 N 726.847 -1.02404 6.94592 0
M  V30 7856 H 731.687 0.822461 2.86426 0
M  V30 7857 H 729.224 0.417285 1.41057 0
M  V30 7858 H 731.182 -1.42028 3.9228 0
M  V30 7859 H 729.812 -1.61058 2.7975 0
M  V30 7860 H 728.864 0.612142 3.75442 0
M  V30 7861 H 730.176 0.585354 4.95353 0
M  V30 7862 H 729.33 -1.59121 5.85462 0
M  V30 7863 H 728.069 -1.64652 4.59065 0
M  V30 7864 H 727.074 0.481137 5.47691 0
M  V30 7865 H 728.299 0.519841 6.77107 0
M  V30 7866 H 726.245 -1.6825 6.34057 0
M  V30 7867 H 726.162 -0.441076 7.54712 0
M  V30 7868 H 727.43 -1.62782 7.62314 0
M  V30 7869 N 731.66 -1.50943 0.453197 0
M  V30 7870 C 732.61 -2.25003 -0.368467 0
M  V30 7871 C 733.594 -1.27864 -0.976714 0
M  V30 7872 O 734.786 -1.52867 -0.892228 0
M  V30 7873 C 731.915 -3.10701 -1.46014 0
M  V30 7874 C 731.001 -4.15278 -0.860506 0
M  V30 7875 N 731.392 -5.05799 0.00849611 0
M  V30 7876 C 729.69 -4.31542 -1.1264 0
M  V30 7877 C 730.391 -5.80664 0.346951 0
M  V30 7878 N 729.367 -5.42912 -0.273426 0
M  V30 7879 H 733.169 -2.92352 0.301246 0
M  V30 7880 H 730.683 -1.60203 0.266233 0
M  V30 7881 H 732.68 -3.62348 -2.06179 0
M  V30 7882 H 731.34 -2.44898 -2.13202 0
M  V30 7883 H 732.351 -5.16533 0.376077 0
M  V30 7884 H 729.028 -3.76962 -1.7946 0
M  V30 7885 H 730.418 -6.63565 1.05507 0
M  V30 7886 N 733.138 -0.185124 -1.56509 0
M  V30 7887 C 734.386 0.455357 -1.96903 0
M  V30 7888 C 734.707 1.62839 -1.07277 0
M  V30 7889 O 733.977 1.95385 -0.141966 0
M  V30 7890 H 732.557 0.171218 -0.727113 0
M  V30 7891 H 735.219 -0.26953 -1.93027 0
M  V30 7892 H 734.315 0.80616 -3.01509 0
M  V30 7893 N 734.616 1.57351 0.0885366 0
M  V30 7894 C 736.032 1.53331 0.442916 0
M  V30 7895 C 736.232 0.902831 1.80142 0
M  V30 7896 O 735.288 0.498147 2.47537 0
M  V30 7897 C 736.601 2.98036 0.399372 0
M  V30 7898 C 738.149 3.09286 0.480759 0
M  V30 7899 C 738.624 4.5561 0.467296 0
M  V30 7900 N 740.115 4.60182 0.52786 0
M  V30 7901 C 740.85 5.70857 0.539388 0
M  V30 7902 N 740.346 6.90944 0.506729 0
M  V30 7903 N 742.139 5.59051 0.584691 0
M  V30 7904 H 734.29 1.96709 -0.801215 0
M  V30 7905 H 736.553 0.899639 -0.298922 0
M  V30 7906 H 736.259 3.47656 -0.531806 0
M  V30 7907 H 736.133 3.57066 1.21589 0
M  V30 7908 H 738.52 2.5965 1.40236 0
M  V30 7909 H 738.601 2.53197 -0.364023 0
M  V30 7910 H 738.245 5.05899 -0.450384 0
M  V30 7911 H 738.175 5.09544 1.32938 0
M  V30 7912 H 740.666 3.73757 0.558028 0
M  V30 7913 H 740.979 7.71055 0.518989 0
M  V30 7914 H 739.324 6.93384 0.473675 0
M  V30 7915 H 742.515 4.64138 0.607781 0
M  V30 7916 H 742.688 6.45307 0.590206 0
M  V30 7917 N 736.094 -0.359525 1.53444 0
M  V30 7918 C 737.322 -1.12198 1.73837 0
M  V30 7919 C 737.737 -1.82854 0.470107 0
M  V30 7920 O 737.094 -1.73781 -0.557349 0
M  V30 7921 C 737.145 -2.14769 2.90786 0
M  V30 7922 O 736.866 -1.46989 4.12706 0
M  V30 7923 C 738.367 -3.03514 3.231 0
M  V30 7924 H 735.587 -0.33524 0.581253 0
M  V30 7925 H 738.131 -0.416598 2.00212 0
M  V30 7926 H 736.286 -2.80896 2.66788 0
M  V30 7927 H 736.7 -2.15378 4.78239 0
M  V30 7928 H 738.174 -3.71453 4.08322 0
M  V30 7929 H 738.651 -3.68658 2.38721 0
M  V30 7930 H 739.257 -2.42996 3.49046 0
M  V30 7931 N 737.572 -1.44907 -0.619662 0
M  V30 7932 C 738.482 -1.55168 -1.75955 0
M  V30 7933 C 739.498 -0.43672 -1.6843 0
M  V30 7934 O 740.674 -0.695704 -1.89002 0
M  V30 7935 C 737.739 -1.50397 -3.12381 0
M  V30 7936 C 736.8 -2.72835 -3.31451 0
M  V30 7937 C 736.033 -2.68283 -4.61368 0
M  V30 7938 O 736.256 -1.74929 -5.42914 0
M  V30 7939 O 735.19 -3.59308 -4.82889 0
M  V30 7940 H 739.016 -2.51493 -1.7025 0
M  V30 7941 H 736.601 -1.27282 -0.782289 0
M  V30 7942 H 738.483 -1.50301 -3.93685 0
M  V30 7943 H 737.158 -0.572197 -3.18603 0
M  V30 7944 H 736.065 -2.78496 -2.49781 0
M  V30 7945 H 737.398 -3.65098 -3.30098 0
M  V30 7946 N 739.05 0.861098 -1.31996 0
M  V30 7947 C 740.278 1.6474 -1.25173 0
M  V30 7948 C 740.693 1.87926 0.181425 0
M  V30 7949 O 740.05 1.4437 1.1164 0
M  V30 7950 C 740.101 3.01036 -2.0015 0
M  V30 7951 O 739.822 2.7888 -3.37872 0
M  V30 7952 C 741.323 3.95481 -2.00273 0
M  V30 7953 H 738.543 0.513314 -0.432146 0
M  V30 7954 H 741.087 1.07419 -1.74016 0
M  V30 7955 H 739.242 3.55021 -1.55046 0
M  V30 7956 H 739.656 3.65514 -3.76165 0
M  V30 7957 H 741.13 4.88403 -2.57229 0
M  V30 7958 H 741.607 4.27957 -0.987407 0
M  V30 7959 H 742.213 3.47433 -2.45296 0
M  V30 7960 N 740.528 1.15101 1.07655 0
M  V30 7961 C 741.777 0.918528 1.79572 0
M  V30 7962 C 742.09 -0.555922 1.87534 0
M  V30 7963 O 743.296 -0.905893 2.55941 0
M  V30 7964 C 741.752 1.59394 3.22679 0
M  V30 7965 C 741.36 3.1052 3.22927 0
M  V30 7966 C 743.104 1.44289 3.99225 0
M  V30 7967 C 741.011 3.70862 4.60668 0
M  V30 7968 H 739.941 0.340006 0.672987 0
M  V30 7969 H 742.592 1.38079 1.20857 0
M  V30 7970 H 740.974 1.05936 3.81567 0
M  V30 7971 H 742.148 3.70708 2.737 0
M  V30 7972 H 740.463 3.25351 2.59876 0
M  V30 7973 H 743.06 1.86766 5.01022 0
M  V30 7974 H 743.403 0.389975 4.14469 0
M  V30 7975 H 743.936 1.94826 3.46825 0
M  V30 7976 H 740.675 4.7604 4.50628 0
M  V30 7977 H 740.195 3.15456 5.10145 0
M  V30 7978 H 741.874 3.71607 5.29639 0
M  V30 7979 N 742.006 -1.2595 0.947325 0
M  V30 7980 C 743.422 -1.45737 0.650597 0
M  V30 7981 C 743.622 -1.85189 -0.794188 0
M  V30 7982 O 742.678 -1.97738 -1.57022 0
M  V30 7983 C 743.991 -2.53505 1.61728 0
M  V30 7984 C 745.539 -2.67351 1.62765 0
M  V30 7985 C 746.014 -3.78296 2.58179 0
M  V30 7986 N 747.505 -3.85696 2.56501 0
M  V30 7987 C 748.24 -4.71012 3.2701 0
M  V30 7988 N 747.736 -5.60669 4.06966 0
M  V30 7989 N 749.529 -4.64912 3.15932 0
M  V30 7990 H 741.68 -0.986327 1.8811 0
M  V30 7991 H 743.943 -0.494639 0.808725 0
M  V30 7992 H 743.649 -2.31357 2.6489 0
M  V30 7993 H 743.523 -3.51281 1.3741 0
M  V30 7994 H 745.91 -2.88869 0.603241 0
M  V30 7995 H 745.991 -1.69998 1.91139 0
M  V30 7996 H 745.635 -3.5753 3.60742 0
M  V30 7997 H 745.565 -4.75117 2.27093 0
M  V30 7998 H 748.056 -3.21601 1.98447 0
M  V30 7999 H 748.369 -6.22677 4.57704 0
M  V30 8000 H 746.714 -5.60402 4.11066 0
M  V30 8001 H 749.905 -3.93874 2.52945 0
M  V30 8002 H 750.078 -5.3118 3.71149 0
M  V30 8003 N 743.484 -0.715051 -1.40445 0
M  V30 8004 C 744.895 -0.326763 -1.83818 0
M  V30 8005 C 745.246 1.13851 -1.59789 0
M  V30 8006 O 744.371 1.87611 -1.07848 0
M  V30 8007 C 744.966 -0.586297 -3.33688 0
M  V30 8008 C 743.525 -0.251724 -3.75557 0
M  V30 8009 C 742.672 -0.858928 -2.63662 0
M  V30 8010 H 745.623 -0.914241 -1.2972 0
M  V30 8011 H 745.644 0.148636 -3.8021 0
M  V30 8012 H 745.156 -1.65281 -3.51146 0
M  V30 8013 H 743.257 0.809754 -3.63695 0
M  V30 8014 H 743.37 -0.720348 -4.73654 0
M  V30 8015 H 741.734 -0.287013 -2.53078 0
M  V30 8016 H 742.517 -1.9297 -2.83932 0
M  V30 8017 N 744.962 1.50701 -0.461195 0
M  V30 8018 C 745.925 2.2686 0.326679 0
M  V30 8019 C 746.925 1.31243 0.929085 0
M  V30 8020 O 748.115 1.54754 0.799807 0
M  V30 8021 C 745.247 3.07844 1.46441 0
M  V30 8022 H 746.44 2.97954 -0.341095 0
M  V30 8023 H 743.993 1.54814 -0.214984 0
M  V30 8024 H 744.728 2.41223 2.16753 0
M  V30 8025 H 744.513 3.78101 1.03836 0
M  V30 8026 H 746.003 3.65469 2.02044 0
M  V30 8027 N 746.441 0.193421 1.56409 0
M  V30 8028 C 747.666 -0.454552 2.02358 0
M  V30 8029 C 748.091 -1.54516 1.07268 0
M  V30 8030 O 747.449 -1.81214 0.0558962 0
M  V30 8031 C 747.497 -0.989469 3.46759 0
M  V30 8032 O 746.601 -2.10244 3.54783 0
M  V30 8033 H 745.942 -0.106417 0.655417 0
M  V30 8034 H 748.472 0.303807 2.02332 0
M  V30 8035 H 748.482 -1.30649 3.86516 0
M  V30 8036 H 747.157 -0.191083 4.15461 0
M  V30 8037 H 745.734 -1.79419 3.26899 0
M  V30 8038 N 747.919 -1.57396 -0.0801906 0
M  V30 8039 C 749.165 -1.87113 -0.782083 0
M  V30 8040 C 749.498 -0.78458 -1.77646 0
M  V30 8041 O 748.773 0.205993 -1.93406 0
M  V30 8042 C 749.056 -3.27483 -1.49756 0
M  V30 8043 C 748.909 -4.46782 -0.520171 0
M  V30 8044 C 750.228 -3.65965 -2.44454 0
M  V30 8045 H 747.347 -0.680559 -0.282858 0
M  V30 8046 H 749.989 -1.89946 -0.0454139 0
M  V30 8047 H 748.139 -3.25199 -2.12551 0
M  V30 8048 H 749.811 -4.61187 0.101919 0
M  V30 8049 H 748.054 -4.33485 0.165219 0
M  V30 8050 H 748.725 -5.41761 -1.05824 0
M  V30 8051 H 751.201 -3.69289 -1.91742 0
M  V30 8052 H 750.077 -4.65086 -2.91524 0
M  V30 8053 H 750.338 -2.95446 -3.28883 0
M  V30 8054 N 749.397 0.351382 -1.53633 0
M  V30 8055 C 750.627 1.11113 -1.74176 0
M  V30 8056 C 751.035 1.83084 -0.477154 0
M  V30 8057 O 750.378 1.74941 0.560483 0
M  V30 8058 C 750.44 2.17521 -2.86225 0
M  V30 8059 C 750.104 1.65193 -4.26099 0
M  V30 8060 C 751.101 1.10842 -5.07947 0
M  V30 8061 C 748.786 1.70277 -4.72558 0
M  V30 8062 C 750.78 0.622689 -6.34351 0
M  V30 8063 C 748.467 1.21316 -5.98937 0
M  V30 8064 C 749.465 0.674033 -6.79666 0
M  V30 8065 O 749.153 0.191696 -8.03671 0
M  V30 8066 H 748.885 0.33756 -0.585687 0
M  V30 8067 H 751.439 0.411786 -2.0123 0
M  V30 8068 H 749.669 2.90991 -2.54678 0
M  V30 8069 H 751.358 2.78999 -2.94812 0
M  V30 8070 H 752.124 1.06243 -4.7322 0
M  V30 8071 H 748.003 2.11181 -4.09785 0
M  V30 8072 H 751.547 0.201216 -6.9731 0
M  V30 8073 H 747.444 1.25613 -6.3316 0
M  V30 8074 H 748.212 0.309712 -8.17914 0
M  V30 8075 N 750.875 1.45233 0.611969 0
M  V30 8076 C 752.103 1.52539 1.39784 0
M  V30 8077 C 752.518 0.156533 1.8815 0
M  V30 8078 O 751.875 -0.84112 1.61961 0
M  V30 8079 C 751.926 2.50614 2.60528 0
M  V30 8080 O 751.647 3.8218 2.14173 0
M  V30 8081 C 753.148 2.67574 3.53439 0
M  V30 8082 H 750.368 0.51674 0.428043 0
M  V30 8083 H 752.912 1.90379 0.746727 0
M  V30 8084 H 751.067 2.15858 3.2169 0
M  V30 8085 H 751.481 4.35305 2.92592 0
M  V30 8086 H 752.955 3.40184 4.34717 0
M  V30 8087 H 753.432 1.73458 4.03496 0
M  V30 8088 H 754.038 3.0331 2.98133 0
M  V30 8089 N 752.353 -0.854086 1.3245 0
M  V30 8090 C 753.3 -1.96271 1.21434 0
M  V30 8091 C 754.27 -1.6582 0.0963851 0
M  V30 8092 O 755.455 -1.88851 0.27203 0
M  V30 8093 C 752.595 -3.31939 0.943952 0
M  V30 8094 C 751.708 -3.74885 2.14675 0
M  V30 8095 C 750.843 -4.99347 1.81179 0
M  V30 8096 C 749.882 -5.34785 2.97777 0
M  V30 8097 N 749.019 -6.50425 2.6437 0
M  V30 8098 H 753.859 -2.05025 2.16261 0
M  V30 8099 H 751.396 -1.00348 1.07558 0
M  V30 8100 H 753.354 -4.10076 0.767675 0
M  V30 8101 H 751.984 -3.22784 0.0324763 0
M  V30 8102 H 751.036 -2.92396 2.43328 0
M  V30 8103 H 752.348 -3.97068 3.01891 0
M  V30 8104 H 751.502 -5.85193 1.60107 0
M  V30 8105 H 750.241 -4.79101 0.911777 0
M  V30 8106 H 749.246 -4.47451 3.1948 0
M  V30 8107 H 750.471 -5.56988 3.88511 0
M  V30 8108 H 748.417 -6.31695 1.7691 0
M  V30 8109 H 748.334 -6.7263 3.45116 0
M  V30 8110 H 749.602 -7.39422 2.46729 0
M  V30 8111 N 753.831 -1.1567 -1.07043 0
M  V30 8112 C 755.247 -0.900006 -1.31803 0
M  V30 8113 C 755.447 0.451293 -1.96381 0
M  V30 8114 O 754.503 1.19252 -2.22565 0
M  V30 8115 C 755.816 -2.04334 -2.20609 0
M  V30 8116 C 757.364 -2.07823 -2.34048 0
M  V30 8117 C 757.839 -3.21488 -3.26204 0
M  V30 8118 N 759.33 -3.21156 -3.33786 0
M  V30 8119 C 760.065 -4.05746 -4.05163 0
M  V30 8120 N 759.561 -5.00407 -4.79129 0
M  V30 8121 N 761.354 -3.93759 -4.01136 0
M  V30 8122 H 753.505 -2.02681 -0.635146 0
M  V30 8123 H 755.768 -0.883956 -0.342528 0
M  V30 8124 H 755.474 -3.01895 -1.80423 0
M  V30 8125 H 755.348 -1.97838 -3.21154 0
M  V30 8126 H 757.735 -1.1086 -2.73485 0
M  V30 8127 H 757.816 -2.18386 -1.33197 0
M  V30 8128 H 757.46 -4.18706 -2.87485 0
M  V30 8129 H 757.39 -3.08162 -4.27017 0
M  V30 8130 H 759.881 -2.52606 -2.81067 0
M  V30 8131 H 760.194 -5.61387 -5.31097 0
M  V30 8132 H 758.539 -5.04393 -4.78135 0
M  V30 8133 H 761.73 -3.19115 -3.42466 0
M  V30 8134 H 761.903 -4.59906 -4.56498 0
M  V30 8135 N 755.309 1.25446 -0.953992 0
M  V30 8136 C 756.549 1.94894 -0.616087 0
M  V30 8137 C 756.913 1.73067 0.831374 0
M  V30 8138 O 758.114 2.3643 1.27884 0
M  V30 8139 C 756.385 3.44147 -0.964225 0
M  V30 8140 S 757.944 4.32536 -0.738798 0
M  V30 8141 H 754.762 0.673967 -0.226472 0
M  V30 8142 H 757.364 1.52117 -1.22803 0
M  V30 8143 H 756.068 3.57537 -2.01484 0
M  V30 8144 H 755.599 3.91906 -0.342507 0
M  V30 8145 H 757.614 4.94659 0.390732 0
M  V30 8146 N 756.787 0.722489 1.40064 0
M  V30 8147 C 758.012 0.273446 2.05589 0
M  V30 8148 C 758.437 -1.07875 1.54093 0
M  V30 8149 O 757.795 -1.68095 0.679252 0
M  V30 8150 C 757.843 0.271023 3.5958 0
M  V30 8151 O 756.947 -0.745499 4.05606 0
M  V30 8152 H 756.288 0.126856 0.65177 0
M  V30 8153 H 758.818 0.984906 1.79334 0
M  V30 8154 H 758.828 0.111084 4.07849 0
M  V30 8155 H 757.503 1.25776 3.96425 0
M  V30 8156 H 756.08 -0.552719 3.68781 0
M  V30 8157 N 758.265 -1.50454 0.469181 0
M  V30 8158 C 759.175 -2.32248 -0.331349 0
M  V30 8159 C 760.191 -1.42548 -0.997807 0
M  V30 8160 O 761.367 -1.75602 -0.9862 0
M  V30 8161 C 758.432 -3.17171 -1.40012 0
M  V30 8162 C 757.493 -4.2269 -0.750463 0
M  V30 8163 C 756.726 -5.03554 -1.76831 0
M  V30 8164 O 756.949 -4.85469 -2.99459 0
M  V30 8165 O 755.883 -5.86767 -1.3412 0
M  V30 8166 H 759.709 -3.01821 0.337279 0
M  V30 8167 H 757.294 -1.47602 0.231066 0
M  V30 8168 H 759.176 -3.69871 -2.01924 0
M  V30 8169 H 757.851 -2.50328 -2.05226 0
M  V30 8170 H 756.758 -3.73986 -0.0924446 0
M  V30 8171 H 758.091 -4.91997 -0.14131 0
M  V30 8172 N 759.743 -0.201713 -1.56304 0
M  V30 8173 C 760.706 0.702811 -2.18159 0
M  V30 8174 C 761.706 1.13619 -1.13787 0
M  V30 8175 O 762.896 1.0482 -1.39134 0
M  V30 8176 C 760.028 1.96032 -2.78898 0
M  V30 8177 H 761.221 0.163836 -2.99452 0
M  V30 8178 H 758.774 0.04791 -1.56227 0
M  V30 8179 H 759.509 2.54165 -2.01421 0
M  V30 8180 H 759.294 1.65824 -3.55309 0
M  V30 8181 H 760.784 2.60519 -3.26373 0
M  V30 8182 N 761.222 1.57436 0.0718424 0
M  V30 8183 C 762.469 1.87248 0.771007 0
M  V30 8184 C 762.797 0.793441 1.7758 0
M  V30 8185 O 762.052 -0.210565 1.94564 0
M  V30 8186 C 762.351 3.23723 1.51455 0
M  V30 8187 C 762.017 4.46194 0.649736 0
M  V30 8188 C 760.679 4.79438 0.411409 0
M  V30 8189 C 763.031 5.21176 0.05004 0
M  V30 8190 C 760.359 5.85077 -0.436096 0
M  V30 8191 C 762.711 6.27712 -0.784919 0
M  V30 8192 C 761.375 6.59457 -1.03312 0
M  V30 8193 H 760.645 0.685188 0.282132 0
M  V30 8194 H 763.292 1.91474 0.0317896 0
M  V30 8195 H 761.597 3.15287 2.32597 0
M  V30 8196 H 763.294 3.44023 2.06031 0
M  V30 8197 H 759.884 4.20175 0.84562 0
M  V30 8198 H 764.068 4.95806 0.221282 0
M  V30 8199 H 759.324 6.08071 -0.637136 0
M  V30 8200 H 763.498 6.84974 -1.25635 0
M  V30 8201 H 761.125 7.4114 -1.6916 0
M  V30 8202 N 762.7 -0.34323 1.53817 0
M  V30 8203 C 763.946 -1.08504 1.71332 0
M  V30 8204 C 764.279 -1.88294 0.475285 0
M  V30 8205 O 763.554 -1.87205 -0.527688 0
M  V30 8206 C 763.837 -2.02597 2.97702 0
M  V30 8207 C 763.69 -1.26268 4.31713 0
M  V30 8208 C 765.009 -3.0241 3.19744 0
M  V30 8209 H 762.128 -0.393072 0.623429 0
M  V30 8210 H 764.77 -0.363579 1.86489 0
M  V30 8211 H 762.92 -2.64118 2.8491 0
M  V30 8212 H 764.592 -0.673594 4.56356 0
M  V30 8213 H 762.835 -0.564696 4.30109 0
M  V30 8214 H 763.506 -1.95253 5.16314 0
M  V30 8215 H 765.982 -2.51004 3.31868 0
M  V30 8216 H 764.858 -3.65449 4.09558 0
M  V30 8217 H 765.119 -3.73806 2.36054 0
M  V30 8218 N 764.178 -1.45556 -0.604258 0
M  V30 8219 C 765.594 -1.30035 -0.925368 0
M  V30 8220 C 765.794 -0.255833 -1.99869 0
M  V30 8221 O 764.85 0.349076 -2.50075 0
M  V30 8222 C 766.163 -2.68028 -1.36314 0
M  V30 8223 C 767.711 -2.75951 -1.47717 0
M  V30 8224 C 768.186 -4.14476 -1.94868 0
M  V30 8225 N 769.677 -4.16787 -2.02097 0
M  V30 8226 C 770.412 -5.20845 -2.39809 0
M  V30 8227 N 769.908 -6.35246 -2.76467 0
M  V30 8228 N 771.701 -5.08204 -2.40177 0
M  V30 8229 H 763.852 -2.1214 0.10512 0
M  V30 8230 H 766.115 -0.947871 -0.0156303 0
M  V30 8231 H 765.821 -3.45667 -0.648628 0
M  V30 8232 H 765.695 -2.96711 -2.329 0
M  V30 8233 H 768.082 -1.98613 -2.18258 0
M  V30 8234 H 768.163 -2.50977 -0.494371 0
M  V30 8235 H 767.807 -4.923 -1.24912 0
M  V30 8236 H 767.737 -4.36843 -2.94068 0
M  V30 8237 H 770.228 -3.34233 -1.76343 0
M  V30 8238 H 770.541 -7.10438 -3.04134 0
M  V30 8239 H 768.886 -6.38642 -2.74155 0
M  V30 8240 H 772.077 -4.17874 -2.10947 0
M  V30 8241 H 772.25 -5.89417 -2.69242 0
M  V30 8242 N 765.656 0.84705 -1.32902 0
M  V30 8243 C 766.566 1.98845 -1.2449 0
M  V30 8244 C 767.582 1.7329 -0.15702 0
M  V30 8245 O 768.758 1.978 -0.379104 0
M  V30 8246 C 765.823 3.32679 -0.975985 0
M  V30 8247 C 764.884 3.71405 -2.15306 0
M  V30 8248 C 764.117 4.98853 -1.89688 0
M  V30 8249 O 764.34 5.64134 -0.843168 0
M  V30 8250 O 763.274 5.34889 -2.76002 0
M  V30 8251 H 767.1 2.0888 -2.2046 0
M  V30 8252 H 764.685 0.978852 -1.12867 0
M  V30 8253 H 766.567 4.12885 -0.842826 0
M  V30 8254 H 765.242 3.23667 -0.0464954 0
M  V30 8255 H 764.149 2.91743 -2.34172 0
M  V30 8256 H 765.482 3.85073 -3.06561 0
M  V30 8257 N 767.134 1.16236 1.06428 0
M  V30 8258 C 768.545 0.950942 1.60667 0
M  V30 8259 C 768.896 -0.505491 1.89576 0
M  V30 8260 O 768.021 -1.37843 1.66818 0
M  V30 8261 C 768.616 1.71982 2.91904 0
M  V30 8262 C 767.175 1.55342 3.4285 0
M  V30 8263 C 766.322 1.72942 2.16763 0
M  V30 8264 H 769.273 1.31126 0.893959 0
M  V30 8265 H 769.294 1.19483 3.61253 0
M  V30 8266 H 768.806 2.77978 2.70831 0
M  V30 8267 H 766.907 0.5178 3.68985 0
M  V30 8268 H 767.02 2.33643 4.18267 0
M  V30 8269 H 765.384 1.15673 2.26918 0
M  V30 8270 H 766.167 2.80324 1.98175 0
M  V30 8271 N 768.612 -1.24939 0.960631 0
M  V30 8272 C 769.837 -1.9742 0.635608 0
M  V30 8273 C 770.262 -1.70857 -0.786737 0
M  V30 8274 O 769.62 -0.968063 -1.53291 0
M  V30 8275 C 769.668 -3.48987 0.907771 0
M  V30 8276 O 768.772 -4.12399 -0.0104053 0
M  V30 8277 H 768.113 -0.61871 0.241027 0
M  V30 8278 H 770.643 -1.58901 1.28886 0
M  V30 8279 H 770.653 -3.99334 0.836453 0
M  V30 8280 H 769.328 -3.6765 1.94439 0
M  V30 8281 H 767.905 -3.72727 0.113631 0
M  V30 8282 N 770.09 -0.729906 -1.39679 0
M  V30 8283 C 771.506 -0.404951 -1.54377 0
M  V30 8284 C 771.706 1.08476 -1.6981 0
M  V30 8285 O 770.762 1.87087 -1.69572 0
M  V30 8286 C 772.075 -1.18352 -2.76429 0
M  V30 8287 C 773.623 -1.17124 -2.9026 0
M  V30 8288 C 774.098 -1.93227 -4.15244 0
M  V30 8289 N 775.589 -1.90368 -4.22273 0
M  V30 8290 C 776.324 -2.46065 -5.17918 0
M  V30 8291 N 775.82 -3.10378 -6.19385 0
M  V30 8292 N 777.613 -2.36127 -5.10099 0
M  V30 8293 H 769.764 -1.69567 -1.27909 0
M  V30 8294 H 772.027 -0.717527 -0.619564 0
M  V30 8295 H 771.733 -2.23743 -2.71352 0
M  V30 8296 H 771.607 -0.784589 -3.6895 0
M  V30 8297 H 773.994 -0.125478 -2.94833 0
M  V30 8298 H 774.075 -1.60951 -1.98817 0
M  V30 8299 H 773.719 -2.97802 -4.11432 0
M  V30 8300 H 773.649 -1.4681 -5.05722 0
M  V30 8301 H 776.14 -1.4351 -3.4959 0
M  V30 8302 H 776.453 -3.50358 -6.88817 0
M  V30 8303 H 774.798 -3.14467 -6.19787 0
M  V30 8304 H 777.989 -1.85529 -4.29763 0
M  V30 8305 H 778.162 -2.79833 -5.84463 0
M  V30 8306 N 771.568 1.50203 -0.477153 0
M  V30 8307 C 772.518 2.25561 0.332625 0
M  V30 8308 C 773.502 1.29401 0.956249 0
M  V30 8309 O 774.694 1.54267 0.867795 0
M  V30 8310 C 771.823 3.12984 1.41052 0
M  V30 8311 C 770.909 4.16595 0.79433 0
M  V30 8312 N 771.3 5.05722 -0.0889633 0
M  V30 8313 C 769.598 4.33279 1.0576 0
M  V30 8314 C 770.299 5.80039 -0.439286 0
M  V30 8315 N 769.275 5.43278 0.187018 0
M  V30 8316 H 773.077 2.91836 -0.347718 0
M  V30 8317 H 770.591 1.59759 -0.291686 0
M  V30 8318 H 772.588 3.65582 2.00388 0
M  V30 8319 H 771.248 2.48258 2.09279 0
M  V30 8320 H 772.259 5.15869 -0.458205 0
M  V30 8321 H 768.936 3.79769 1.7344 0
M  V30 8322 H 770.326 6.61802 -1.1605 0
M  V30 8323 N 773.046 0.209999 1.56195 0
M  V30 8324 C 774.271 -0.433064 2.02828 0
M  V30 8325 C 774.696 -1.5337 1.08901 0
M  V30 8326 O 774.054 -1.81144 0.0751132 0
M  V30 8327 C 774.102 -0.952635 3.47789 0
M  V30 8328 O 773.206 -2.0647 3.56993 0
M  V30 8329 H 772.547 -0.0994594 0.656509 0
M  V30 8330 H 775.077 0.32525 2.01998 0
M  V30 8331 H 775.087 -1.26542 3.8788 0
M  V30 8332 H 773.762 -0.147007 4.1564 0
M  V30 8333 H 772.339 -1.75942 3.28784 0
M  V30 8334 N 774.524 -1.57472 -0.0634922 0
M  V30 8335 C 775.487 -2.03268 -1.059 0
M  V30 8336 C 776.487 -0.931028 -1.31105 0
M  V30 8337 O 777.677 -1.19567 -1.26686 0
M  V30 8338 C 774.809 -2.42039 -2.40062 0
M  V30 8339 H 776.002 -2.92454 -0.664119 0
M  V30 8340 H 773.555 -1.53206 -0.309444 0
M  V30 8341 H 774.29 -1.55904 -2.84367 0
M  V30 8342 H 774.075 -3.22437 -2.23108 0
M  V30 8343 H 775.565 -2.78017 -3.11603 0
M  V30 8344 N 776.003 0.335068 -1.53997 0
M  V30 8345 C 777.251 1.07223 -1.71312 0
M  V30 8346 C 777.572 1.88911 -0.483486 0
M  V30 8347 O 776.842 1.89344 0.50257 0
M  V30 8348 H 775.422 0.398846 -0.63161 0
M  V30 8349 H 778.084 0.374288 -1.91272 0
M  V30 8350 H 777.18 1.7448 -2.58772 0
M  V30 8351 N 777.481 1.45874 0.596531 0
M  V30 8352 C 778.391 1.57947 1.73464 0
M  V30 8353 C 779.407 0.463461 1.67714 0
M  V30 8354 O 780.583 0.725685 1.87872 0
M  V30 8355 C 777.648 1.55348 3.09948 0
M  V30 8356 C 776.709 2.78074 3.27068 0
M  V30 8357 C 775.942 2.75589 4.57041 0
M  V30 8358 O 776.165 1.83545 5.40063 0
M  V30 8359 O 775.099 3.66945 4.77111 0
M  V30 8360 H 778.925 2.54169 1.66228 0
M  V30 8361 H 776.51 1.2851 0.76194 0
M  V30 8362 H 778.392 1.56545 3.91244 0
M  V30 8363 H 777.067 0.622811 3.17652 0
M  V30 8364 H 775.974 2.82435 2.45319 0
M  V30 8365 H 777.307 3.70303 3.24248 0
M  V30 8366 N 778.959 -0.83999 1.33349 0
M  V30 8367 C 779.889 -1.965 1.26135 0
M  V30 8368 C 780.87 -1.69505 0.142152 0
M  V30 8369 O 782.055 -1.91346 0.331743 0
M  V30 8370 C 779.185 -3.32632 0.99866 0
M  V30 8371 C 778.139 -3.74021 2.08068 0
M  V30 8372 C 777.465 -5.07947 1.67014 0
M  V30 8373 C 778.765 -3.87925 3.49731 0
M  V30 8374 H 780.459 -2.02793 2.20262 0
M  V30 8375 H 778.005 -0.974297 1.06035 0
M  V30 8376 H 779.958 -4.10903 0.934696 0
M  V30 8377 H 778.682 -3.26593 0.0217759 0
M  V30 8378 H 777.341 -2.98012 2.13505 0
M  V30 8379 H 776.989 -4.98378 0.680316 0
M  V30 8380 H 776.689 -5.36611 2.39422 0
M  V30 8381 H 778.213 -5.88695 1.62082 0
M  V30 8382 H 779.627 -4.5651 3.46802 0
M  V30 8383 H 778.024 -4.28023 4.20614 0
M  V30 8384 H 779.094 -2.90407 3.88319 0
M  V30 8385 N 780.437 -1.16799 -1.0581 0
M  V30 8386 C 781.369 -0.836774 -2.13379 0
M  V30 8387 C 782.382 0.158116 -1.6203 0
M  V30 8388 O 783.571 -0.0673211 -1.78373 0
M  V30 8389 C 780.671 -0.225959 -3.38146 0
M  V30 8390 C 779.844 -1.26217 -4.18794 0
M  V30 8391 C 778.903 -0.670257 -5.21914 0
M  V30 8392 O 777.929 -1.34042 -5.53192 0
M  V30 8393 N 779.131 0.540683 -5.77977 0
M  V30 8394 H 781.896 -1.76257 -2.42391 0
M  V30 8395 H 779.457 -1.06599 -1.21853 0
M  V30 8396 H 781.449 0.18317 -4.04285 0
M  V30 8397 H 780.019 0.603494 -3.06719 0
M  V30 8398 H 779.239 -1.84729 -3.48237 0
M  V30 8399 H 780.527 -1.9613 -4.69479 0
M  V30 8400 H 779.925 1.10322 -5.54838 0
M  V30 8401 H 778.482 0.891958 -6.45668 0
M  V30 8402 N 781.915 1.24427 -0.967243 0
M  V30 8403 C 782.847 2.24641 -0.454856 0
M  V30 8404 C 783.86 1.56849 0.436152 0
M  V30 8405 O 785.049 1.76846 0.242401 0
M  V30 8406 C 782.149 3.36954 0.362672 0
M  V30 8407 C 781.322 4.34318 -0.518324 0
M  V30 8408 C 780.381 5.25638 0.243122 0
M  V30 8409 O 779.407 5.68043 -0.362791 0
M  V30 8410 N 780.609 5.59897 1.53282 0
M  V30 8411 H 783.374 2.69238 -1.31648 0
M  V30 8412 H 780.935 1.38464 -0.839015 0
M  V30 8413 H 782.927 3.95014 0.880094 0
M  V30 8414 H 781.497 2.91646 1.12522 0
M  V30 8415 H 780.717 3.74953 -1.21672 0
M  V30 8416 H 782.005 4.96338 -1.11919 0
M  V30 8417 H 781.403 5.27373 2.04682 0
M  V30 8418 H 779.96 6.20488 1.99594 0
M  V30 8419 N 783.393 0.737304 1.3929 0
M  V30 8420 C 784.326 0.0475454 2.2815 0
M  V30 8421 C 785.304 -0.745314 1.44512 0
M  V30 8422 O 786.488 -0.727387 1.739 0
M  V30 8423 C 783.615 -0.939803 3.254 0
M  V30 8424 C 782.661 -0.235153 4.25851 0
M  V30 8425 S 783.494 1.05252 5.25055 0
M  V30 8426 C 784.65 0.0678242 6.25863 0
M  V30 8427 H 784.883 0.801117 2.86303 0
M  V30 8428 H 782.416 0.529197 1.45048 0
M  V30 8429 H 784.374 -1.50417 3.81949 0
M  V30 8430 H 783.035 -1.66623 2.66262 0
M  V30 8431 H 782.228 -0.982336 4.94334 0
M  V30 8432 H 781.83 0.257245 3.73114 0
M  V30 8433 H 784.122 -0.771779 6.7309 0
M  V30 8434 H 785.065 0.719858 7.04431 0
M  V30 8435 H 785.473 -0.305604 5.63672 0
M  V30 8436 N 784.871 -1.49948 0.485112 0
M  V30 8437 C 785.804 -2.25531 -0.348027 0
M  V30 8438 C 786.782 -1.29433 -0.984172 0
M  V30 8439 O 787.966 -1.58687 -1.01738 0
M  V30 8440 C 785.093 -3.04225 -1.48878 0
M  V30 8441 C 784.139 -4.15355 -0.968616 0
M  V30 8442 S 784.972 -5.35347 0.127934 0
M  V30 8443 C 786.128 -6.17593 -1.01637 0
M  V30 8444 H 786.361 -2.95847 0.293529 0
M  V30 8445 H 783.894 -1.52018 0.27018 0
M  V30 8446 H 785.852 -3.50153 -2.14251 0
M  V30 8447 H 784.513 -2.33407 -2.1019 0
M  V30 8448 H 783.706 -4.69873 -1.82305 0
M  V30 8449 H 783.308 -3.71936 -0.392377 0
M  V30 8450 H 785.6 -6.49576 -1.92503 0
M  V30 8451 H 786.543 -7.0626 -0.510149 0
M  V30 8452 H 786.951 -5.49877 -1.27653 0
M  V30 8453 N 786.349 -0.21828 -1.56081 0
M  V30 8454 C 787.595 0.414921 -1.9851 0
M  V30 8455 C 787.928 1.59648 -1.10573 0
M  V30 8456 O 787.203 1.93818 -0.162695 0
M  V30 8457 C 787.486 0.852647 -3.4986 0
M  V30 8458 C 787.339 -0.33232 -4.48571 0
M  V30 8459 C 788.658 1.70998 -4.05521 0
M  V30 8460 H 785.777 0.149344 -0.72171 0
M  V30 8461 H 788.419 -0.313858 -1.8739 0
M  V30 8462 H 786.569 1.47362 -3.59467 0
M  V30 8463 H 788.241 -0.970418 -4.50977 0
M  V30 8464 H 786.484 -0.980302 -4.22578 0
M  V30 8465 H 787.155 0.0168407 -5.51997 0
M  V30 8466 H 789.631 1.18606 -3.98838 0
M  V30 8467 H 788.507 1.98517 -5.11744 0
M  V30 8468 H 788.768 2.67219 -3.52202 0
M  V30 8469 N 787.827 1.57504 0.0551401 0
M  V30 8470 C 788.737 2.08198 1.08124 0
M  V30 8471 C 789.753 1.01496 1.41331 0
M  V30 8472 O 790.929 1.33073 1.51174 0
M  V30 8473 C 787.994 2.52968 2.37083 0
M  V30 8474 C 787.055 3.7404 2.10696 0
M  V30 8475 C 786.288 4.16665 3.33505 0
M  V30 8476 O 786.511 3.59019 4.4324 0
M  V30 8477 O 785.445 5.09324 3.20737 0
M  V30 8478 H 789.271 2.95977 0.680518 0
M  V30 8479 H 786.856 1.46933 0.270401 0
M  V30 8480 H 788.738 2.82211 3.12946 0
M  V30 8481 H 787.413 1.6831 2.76502 0
M  V30 8482 H 786.32 3.49855 1.32484 0
M  V30 8483 H 787.653 4.59601 1.76148 0
M  V30 8484 N 789.305 -0.326896 1.54172 0
M  V30 8485 C 790.545 -1.07349 1.73941 0
M  V30 8486 C 790.909 -1.85355 0.50075 0
M  V30 8487 O 792.11 -2.62562 0.575731 0
M  V30 8488 C 790.381 -1.97636 2.97783 0
M  V30 8489 S 791.94 -2.79292 3.3844 0
M  V30 8490 H 788.758 -0.362459 0.611673 0
M  V30 8491 H 791.36 -0.349884 1.92344 0
M  V30 8492 H 790.064 -1.39158 3.86087 0
M  V30 8493 H 789.595 -2.74406 2.81895 0
M  V30 8494 H 791.61 -4.00106 2.93478 0
M  V30 8495 N 790.784 -1.46188 -0.588786 0
M  V30 8496 C 792.009 -1.5498 -1.37826 0
M  V30 8497 C 792.434 -0.189498 -1.87143 0
M  V30 8498 O 791.792 0.829293 -1.61222 0
M  V30 8499 C 791.84 -2.55369 -2.54596 0
M  V30 8500 O 790.944 -2.08452 -3.55839 0
M  V30 8501 H 790.285 -0.521741 -0.41071 0
M  V30 8502 H 792.815 -1.91708 -0.714779 0
M  V30 8503 H 792.825 -2.74782 -3.01594 0
M  V30 8504 H 791.5 -3.54155 -2.18052 0
M  V30 8505 H 790.077 -1.98999 -3.15363 0
M  V30 8506 N 792.262 0.832906 -1.33792 0
M  V30 8507 C 793.209 1.94314 -1.24541 0
M  V30 8508 C 794.179 1.65646 -0.122753 0
M  V30 8509 O 795.364 1.88394 -0.30204 0
M  V30 8510 C 792.504 3.30395 -0.996641 0
M  V30 8511 C 791.617 3.71422 -2.20612 0
M  V30 8512 C 790.752 4.96401 -1.89101 0
M  V30 8513 C 789.791 5.2998 -3.06247 0
M  V30 8514 N 788.928 6.46137 -2.74685 0
M  V30 8515 H 793.768 2.01559 -2.19495 0
M  V30 8516 H 791.305 0.986243 -1.09141 0
M  V30 8517 H 793.263 4.08803 -0.832817 0
M  V30 8518 H 791.893 3.22691 -0.0838242 0
M  V30 8519 H 790.945 2.88488 -2.47949 0
M  V30 8520 H 792.257 3.92215 -3.0817 0
M  V30 8521 H 791.411 5.82572 -1.69396 0
M  V30 8522 H 790.15 4.7759 -0.987882 0
M  V30 8523 H 789.155 4.42312 -3.26559 0
M  V30 8524 H 790.38 5.50737 -3.97323 0
M  V30 8525 H 788.326 6.28801 -1.86938 0
M  V30 8526 H 788.243 6.67054 -3.55774 0
M  V30 8527 H 789.511 7.35403 -2.58461 0
M  V30 8528 N 793.74 1.17359 1.05189 0
M  V30 8529 C 794.97 0.985099 1.81602 0
M  V30 8530 C 795.378 -0.469872 1.83273 0
M  V30 8531 O 794.721 -1.33806 1.25864 0
M  V30 8532 C 794.783 1.44956 3.2898 0
M  V30 8533 C 794.447 2.92666 3.50993 0
M  V30 8534 C 795.444 3.906 3.43115 0
M  V30 8535 C 793.129 3.30841 3.77954 0
M  V30 8536 C 795.123 5.24709 3.61883 0
M  V30 8537 C 792.81 4.65116 3.96371 0
M  V30 8538 C 793.808 5.61859 3.88335 0
M  V30 8539 O 793.496 6.93704 4.06238 0
M  V30 8540 H 793.228 0.348731 0.579105 0
M  V30 8541 H 795.782 1.56066 1.33539 0
M  V30 8542 H 794.012 0.817559 3.77959 0
M  V30 8543 H 795.701 1.22674 3.86919 0
M  V30 8544 H 796.467 3.62453 3.22262 0
M  V30 8545 H 792.346 2.5611 3.83313 0
M  V30 8546 H 795.89 6.00205 3.55527 0
M  V30 8547 H 791.787 4.92969 4.16715 0
M  V30 8548 H 792.555 7.00443 4.23463 0
M  V30 8549 N 795.218 -1.23913 0.973828 0
M  V30 8550 C 796.168 -2.22892 0.479933 0
M  V30 8551 C 797.152 -1.54726 -0.441434 0
M  V30 8552 O 798.344 -1.74908 -0.271358 0
M  V30 8553 C 795.473 -3.42577 -0.222702 0
M  V30 8554 C 794.559 -4.17981 0.717851 0
M  V30 8555 N 794.95 -4.7045 1.8577 0
M  V30 8556 C 793.248 -4.42841 0.529858 0
M  V30 8557 C 793.949 -5.27751 2.44651 0
M  V30 8558 N 792.925 -5.15302 1.73104 0
M  V30 8559 H 796.727 -2.61083 1.34956 0
M  V30 8560 H 794.241 -1.39368 0.83368 0
M  V30 8561 H 796.238 -4.1265 -0.593793 0
M  V30 8562 H 794.898 -3.05904 -1.0887 0
M  V30 8563 H 795.909 -4.66997 2.23908 0
M  V30 8564 H 792.586 -4.1648 -0.291664 0
M  V30 8565 H 793.976 -5.79011 3.40875 0
M  V30 8566 N 796.696 -0.74468 -1.38897 0
M  V30 8567 C 797.944 -0.296298 -1.99916 0
M  V30 8568 C 798.265 1.12325 -1.59399 0
M  V30 8569 O 797.535 1.76658 -0.846689 0
M  V30 8570 H 796.115 -0.106561 -0.73936 0
M  V30 8571 H 798.777 -0.956793 -1.69798 0
M  V30 8572 H 797.873 -0.352356 -3.10105 0
M  V30 8573 N 798.174 1.49689 -0.493057 0
M  V30 8574 C 799.106 2.26867 0.326195 0
M  V30 8575 C 800.119 1.33083 0.937697 0
M  V30 8576 O 801.308 1.58427 0.822382 0
M  V30 8577 C 798.408 3.0519 1.4735 0
M  V30 8578 C 797.581 4.26491 0.970767 0
M  V30 8579 C 796.64 4.86926 1.99473 0
M  V30 8580 O 795.666 5.47221 1.56647 0
M  V30 8581 N 796.868 4.75871 3.32456 0
M  V30 8582 H 799.633 2.97816 -0.335547 0
M  V30 8583 H 797.194 1.58602 -0.325129 0
M  V30 8584 H 799.186 3.42496 2.15589 0
M  V30 8585 H 797.756 2.369 2.03954 0
M  V30 8586 H 796.976 3.94036 0.113529 0
M  V30 8587 H 798.264 5.05092 0.613156 0
M  V30 8588 H 797.662 4.2797 3.69944 0
M  V30 8589 H 796.219 5.17383 3.96431 0
M  V30 8590 N 799.652 0.226554 1.55963 0
M  V30 8591 C 800.582 -0.676079 2.23498 0
M  V30 8592 C 801.563 -1.19718 1.20837 0
M  V30 8593 O 802.748 -1.24027 1.49436 0
M  V30 8594 C 799.878 -1.88217 2.91876 0
M  V30 8595 C 798.832 -1.4947 4.01052 0
M  V30 8596 C 798.158 -2.77997 4.56751 0
M  V30 8597 C 799.458 -0.680951 5.17842 0
M  V30 8598 H 801.152 -0.112989 2.99187 0
M  V30 8599 H 798.698 -0.0529046 1.43903 0
M  V30 8600 H 800.651 -2.51911 3.37815 0
M  V30 8601 H 799.375 -2.47031 2.13643 0
M  V30 8602 H 798.034 -0.881199 3.55852 0
M  V30 8603 H 797.682 -3.34966 3.75243 0
M  V30 8604 H 797.382 -2.52803 5.30438 0
M  V30 8605 H 798.906 -3.42625 5.05411 0
M  V30 8606 H 800.32 -1.22171 5.60131 0
M  V30 8607 H 798.717 -0.525898 5.97791 0
M  V30 8608 H 799.787 0.311346 4.83899 0
M  V30 8609 N 801.13 -1.57531 -0.0467866 0
M  V30 8610 C 802.358 -1.92696 -0.753371 0
M  V30 8611 C 802.773 -0.824792 -1.69831 0
M  V30 8612 O 802.13 0.200155 -1.81399 0
M  V30 8613 C 802.181 -3.27728 -1.52566 0
M  V30 8614 O 801.902 -4.3371 -0.618674 0
M  V30 8615 C 803.403 -3.77066 -2.33101 0
M  V30 8616 H 800.623 -0.636367 -0.212788 0
M  V30 8617 H 803.167 -2.04498 -0.00959361 0
M  V30 8618 H 801.322 -3.17378 -2.22148 0
M  V30 8619 H 801.736 -5.11548 -1.15839 0
M  V30 8620 H 803.21 -4.74109 -2.82709 0
M  V30 8621 H 803.687 -3.07348 -3.13741 0
M  V30 8622 H 804.293 -3.90442 -1.68628 0
M  V30 8623 N 802.608 0.318715 -1.54344 0
M  V30 8624 C 803.555 1.39242 -1.84066 0
M  V30 8625 C 804.525 1.51175 -0.688134 0
M  V30 8626 O 805.71 1.66318 -0.935039 0
M  V30 8627 C 802.85 2.75528 -2.07794 0
M  V30 8628 C 801.963 2.72187 -3.35467 0
M  V30 8629 C 801.098 4.00352 -3.4913 0
M  V30 8630 C 800.137 3.91338 -4.7066 0
M  V30 8631 N 799.274 5.11242 -4.81224 0
M  V30 8632 H 804.114 1.13196 -2.75664 0
M  V30 8633 H 801.651 0.547857 -1.36517 0
M  V30 8634 H 803.609 3.54763 -2.19543 0
M  V30 8635 H 802.239 2.99873 -1.19482 0
M  V30 8636 H 801.291 1.84917 -3.3243 0
M  V30 8637 H 802.603 2.61411 -4.24812 0
M  V30 8638 H 801.757 4.88019 -3.60448 0
M  V30 8639 H 800.496 4.1394 -2.57886 0
M  V30 8640 H 799.501 3.02055 -4.59394 0
M  V30 8641 H 800.726 3.7931 -5.63294 0
M  V30 8642 H 798.672 5.25327 -3.92897 0
M  V30 8643 H 798.589 5.0282 -5.64543 0
M  V30 8644 H 799.857 6.0061 -4.96879 0
M  V30 8645 N 804.086 1.46499 0.581025 0
M  V30 8646 C 804.996 1.59778 1.71779 0
M  V30 8647 C 806.012 0.481223 1.67213 0
M  V30 8648 O 807.188 0.74557 1.87091 0
M  V30 8649 C 804.253 1.58626 3.08283 0
M  V30 8650 C 803.314 2.81527 3.241 0
M  V30 8651 C 802.547 2.80421 4.54092 0
M  V30 8652 O 802.77 1.89262 5.38085 0
M  V30 8653 O 801.704 3.71984 4.73193 0
M  V30 8654 H 805.53 2.55918 1.63523 0
M  V30 8655 H 803.115 1.29311 0.748267 0
M  V30 8656 H 804.997 1.60686 3.89561 0
M  V30 8657 H 803.672 0.656467 3.16973 0
M  V30 8658 H 802.579 2.85021 2.42309 0
M  V30 8659 H 803.912 3.73721 3.20302 0
M  V30 8660 N 805.565 -0.825799 1.34232 0
M  V30 8661 C 806.528 -1.91808 1.25468 0
M  V30 8662 C 807.528 -1.59893 0.170567 0
M  V30 8663 O 808.718 -1.68986 0.422996 0
M  V30 8664 C 805.85 -3.27786 0.93644 0
M  V30 8665 H 807.043 -2.01003 2.22571 0
M  V30 8666 H 804.596 -1.01944 1.18479 0
M  V30 8667 H 805.331 -3.24285 -0.0315408 0
M  V30 8668 H 805.116 -3.52333 1.72057 0
M  V30 8669 H 806.606 -4.07782 0.900214 0
M  V30 8670 N 807.043 -1.17915 -1.04565 0
M  V30 8671 C 808.006 -0.903787 -2.10628 0
M  V30 8672 C 809.006 0.10873 -1.60432 0
M  V30 8673 O 810.196 -0.124152 -1.73757 0
M  V30 8674 C 807.328 -0.355017 -3.39046 0
M  V30 8675 H 808.521 -1.84425 -2.3649 0
M  V30 8676 H 806.074 -0.990477 -1.2091 0
M  V30 8677 H 806.809 0.592297 -3.18845 0
M  V30 8678 H 806.594 -1.08484 -3.76794 0
M  V30 8679 H 808.084 -0.180891 -4.17208 0
M  V30 8680 N 808.521 1.23394 -0.980386 0
M  V30 8681 C 809.454 2.23404 -0.465404 0
M  V30 8682 C 810.432 1.55735 0.467471 0
M  V30 8683 O 811.616 1.84295 0.395921 0
M  V30 8684 C 808.743 3.3712 0.32672 0
M  V30 8685 C 807.789 4.22935 -0.550296 0
M  V30 8686 S 808.622 4.96824 -1.99814 0
M  V30 8687 C 809.778 6.13991 -1.21516 0
M  V30 8688 H 810.011 2.6674 -1.31289 0
M  V30 8689 H 807.544 1.32874 -0.78638 0
M  V30 8690 H 809.502 4.03065 0.777738 0
M  V30 8691 H 808.163 2.92317 1.14933 0
M  V30 8692 H 807.356 5.03966 0.0585298 0
M  V30 8693 H 806.958 3.62058 -0.937558 0
M  V30 8694 H 809.25 6.75822 -0.476476 0
M  V30 8695 H 810.193 6.7926 -2.0003 0
M  V30 8696 H 810.601 5.59708 -0.733949 0
M  V30 8697 N 809.999 0.752036 1.385 0
M  V30 8698 C 811.247 0.306895 1.99756 0
M  V30 8699 C 811.568 -1.11478 1.59992 0
M  V30 8700 O 810.838 -1.76206 0.856045 0
M  V30 8701 H 809.418 0.11048 0.738785 0
M  V30 8702 H 812.08 0.965785 1.69289 0
M  V30 8703 H 811.176 0.368797 3.09913 0
M  V30 8704 N 811.477 -1.49425 0.500989 0
M  V30 8705 C 812.409 -2.27037 -0.314159 0
M  V30 8706 C 813.422 -1.33578 -0.930626 0
M  V30 8707 O 814.611 -1.58861 -0.813968 0
M  V30 8708 C 811.711 -3.05968 -1.45729 0
M  V30 8709 C 810.884 -4.27 -0.948135 0
M  V30 8710 C 809.943 -4.87977 -1.96888 0
M  V30 8711 O 808.969 -5.48044 -1.53743 0
M  V30 8712 N 810.171 -4.77627 -3.29928 0
M  V30 8713 H 812.936 -2.97634 0.351336 0
M  V30 8714 H 810.497 -1.58427 0.333536 0
M  V30 8715 H 812.489 -3.43634 -2.1377 0
M  V30 8716 H 811.059 -2.37978 -2.02695 0
M  V30 8717 H 810.279 -3.94091 -0.0926311 0
M  V30 8718 H 811.567 -5.0541 -0.586362 0
M  V30 8719 H 810.965 -4.29926 -3.67669 0
M  V30 8720 H 809.522 -5.19478 -3.93682 0
M  V30 8721 N 812.955 -0.234822 -1.55841 0
M  V30 8722 C 814.203 0.392483 -1.98252 0
M  V30 8723 C 814.524 1.59344 -1.12404 0
M  V30 8724 O 813.794 1.94834 -0.204055 0
M  V30 8725 H 812.374 0.147999 -0.732192 0
M  V30 8726 H 815.036 -0.330804 -1.92072 0
M  V30 8727 H 814.132 0.709829 -3.03921 0
M  V30 8728 N 814.433 1.57553 0.0384317 0
M  V30 8729 C 815.68 1.88841 0.731116 0
M  V30 8730 C 816.008 0.83093 1.75857 0
M  V30 8731 O 815.263 -0.169248 1.94967 0
M  V30 8732 C 815.562 3.26862 1.44554 0
M  V30 8733 C 815.228 4.47472 0.554946 0
M  V30 8734 C 813.89 4.80203 0.309621 0
M  V30 8735 C 816.242 5.21165 -0.0605204 0
M  V30 8736 C 813.57 5.8402 -0.560101 0
M  V30 8737 C 815.922 6.25905 -0.91789 0
M  V30 8738 C 814.586 6.57117 -1.17277 0
M  V30 8739 H 813.856 0.691018 0.267534 0
M  V30 8740 H 816.503 1.91498 -0.00883195 0
M  V30 8741 H 814.808 3.2015 2.25856 0
M  V30 8742 H 816.505 3.48316 1.98688 0
M  V30 8743 H 813.095 4.21874 0.756304 0
M  V30 8744 H 817.279 4.96164 0.116064 0
M  V30 8745 H 812.535 6.06583 -0.765974 0
M  V30 8746 H 816.709 6.82155 -1.40136 0
M  V30 8747 H 814.336 7.37385 -1.84843 0
M  V30 8748 N 815.911 -0.310526 1.54511 0
M  V30 8749 C 817.188 -1.06593 1.64004 0
M  V30 8750 C 817.568 -2.05519 0.482216 0
M  V30 8751 O 816.916 -2.22455 -0.52212 0
M  V30 8752 C 817.126 -1.75627 3.01589 0
M  V30 8753 C 818.474 -2.28173 3.58081 0
M  V30 8754 O 819.498 -1.85674 3.03979 0
M  V30 8755 O 818.357 -3.06015 4.52788 0
M  V30 8756 H 815.451 -0.492109 0.664649 0
M  V30 8757 H 817.997 -0.309374 1.66856 0
M  V30 8758 H 816.769 -1.03743 3.77297 0
M  V30 8759 H 816.392 -2.58061 3.02473 0
M  V30 8760 N 817.389 -1.46805 -0.573248 0
M  V30 8761 C 818.805 -1.31969 -0.897577 0
M  V30 8762 C 819.005 -0.298171 -1.99282 0
M  V30 8763 O 818.061 0.295953 -2.5076 0
M  V30 8764 C 819.374 -2.70859 -1.30598 0
M  V30 8765 C 820.922 -2.79022 -1.4183 0
M  V30 8766 C 821.397 -4.18516 -1.86033 0
M  V30 8767 N 822.888 -4.2098 -1.9321 0
M  V30 8768 C 823.623 -5.25814 -2.28707 0
M  V30 8769 N 823.119 -6.40968 -2.6293 0
M  V30 8770 N 824.912 -5.13184 -2.29343 0
M  V30 8771 H 817.063 -2.11869 0.150094 0
M  V30 8772 H 819.326 -0.947989 0.00447895 0
M  V30 8773 H 819.032 -3.46965 -0.575161 0
M  V30 8774 H 818.906 -3.01585 -2.26554 0
M  V30 8775 H 821.293 -2.03198 -2.13996 0
M  V30 8776 H 821.374 -2.51969 -0.441024 0
M  V30 8777 H 821.018 -4.94839 -1.14442 0
M  V30 8778 H 820.948 -4.42982 -2.84735 0
M  V30 8779 H 823.439 -3.37898 -1.69214 0
M  V30 8780 H 823.752 -7.16729 -2.88996 0
M  V30 8781 H 822.097 -6.44314 -2.60547 0
M  V30 8782 H 825.288 -4.22255 -2.02036 0
M  V30 8783 H 825.461 -5.94996 -2.56679 0
M  V30 8784 N 818.867 0.818669 -1.34668 0
M  V30 8785 C 819.817 1.91882 -1.23147 0
M  V30 8786 C 820.801 1.60378 -0.129509 0
M  V30 8787 O 821.993 1.73309 -0.359581 0
M  V30 8788 C 819.122 3.28612 -0.993436 0
M  V30 8789 C 818.208 3.66221 -2.13876 0
M  V30 8790 N 818.599 3.75361 -3.39024 0
M  V30 8791 C 816.897 3.96098 -2.04994 0
M  V30 8792 C 817.598 4.0836 -4.14266 0
M  V30 8793 N 816.574 4.21806 -3.429 0
M  V30 8794 H 820.376 1.97133 -2.17981 0
M  V30 8795 H 817.89 1.01257 -1.26967 0
M  V30 8796 H 819.887 4.0725 -0.891797 0
M  V30 8797 H 818.547 3.24655 -0.053824 0
M  V30 8798 H 819.558 3.58747 -3.73525 0
M  V30 8799 H 816.235 4.00236 -1.18816 0
M  V30 8800 H 817.625 4.226 -5.22359 0
M  V30 8801 N 820.346 1.18468 1.03938 0
M  V30 8802 C 821.276 0.936389 2.13902 0
M  V30 8803 C 822.257 -0.126381 1.6963 0
M  V30 8804 O 823.442 0.0264757 1.94182 0
M  V30 8805 C 820.572 0.462729 3.44204 0
M  V30 8806 C 819.526 1.46613 4.02105 0
M  V30 8807 C 818.852 0.84994 5.27902 0
M  V30 8808 C 820.152 2.84323 4.3813 0
M  V30 8809 H 821.846 1.85602 2.3493 0
M  V30 8810 H 819.392 0.893806 1.12903 0
M  V30 8811 H 821.345 0.276382 4.20493 0
M  V30 8812 H 820.069 -0.492477 3.22866 0
M  V30 8813 H 818.728 1.63944 3.27899 0
M  V30 8814 H 818.376 -0.112493 5.02874 0
M  V30 8815 H 818.076 1.51988 5.67603 0
M  V30 8816 H 819.6 0.674152 6.06867 0
M  V30 8817 H 821.014 2.70636 5.054 0
M  V30 8818 H 819.411 3.48012 4.88884 0
M  V30 8819 H 820.481 3.37776 3.47901 0
M  V30 8820 N 821.824 -1.22873 0.986916 0
M  V30 8821 C 823.071 -1.91462 0.659424 0
M  V30 8822 C 823.399 -1.76931 -0.807825 0
M  V30 8823 O 822.654 -1.12829 -1.59901 0
M  V30 8824 C 822.953 -3.43014 1.00379 0
M  V30 8825 C 822.619 -3.77731 2.46232 0
M  V30 8826 C 821.281 -3.86918 2.86091 0
M  V30 8827 C 823.633 -3.94343 3.40798 0
M  V30 8828 C 820.961 -4.10149 4.19518 0
M  V30 8829 C 823.313 -4.19076 4.73875 0
M  V30 8830 C 821.977 -4.26486 5.13484 0
M  V30 8831 H 821.247 -0.700611 0.2413 0
M  V30 8832 H 823.894 -1.45763 1.24199 0
M  V30 8833 H 822.199 -3.90329 0.339226 0
M  V30 8834 H 823.896 -3.94327 0.728518 0
M  V30 8835 H 820.486 -3.71159 2.14334 0
M  V30 8836 H 824.67 -3.86629 3.11178 0
M  V30 8837 H 819.926 -4.1411 4.49803 0
M  V30 8838 H 824.1 -4.30873 5.47102 0
M  V30 8839 H 821.727 -4.4424 6.16891 0
M  V30 8840 N 823.302 -0.75937 -1.38099 0
M  V30 8841 C 824.265 -0.14372 -2.28749 0
M  V30 8842 C 825.265 0.641338 -1.47457 0
M  V30 8843 O 826.455 0.466751 -1.67831 0
M  V30 8844 C 823.587 0.804545 -3.3127 0
M  V30 8845 H 824.78 -0.942663 -2.847 0
M  V30 8846 H 822.333 -0.526757 -1.47156 0
M  V30 8847 H 823.068 1.62895 -2.80421 0
M  V30 8848 H 822.853 0.243939 -3.9134 0
M  V30 8849 H 824.343 1.23111 -3.99041 0
M  V30 8850 N 824.78 1.49157 -0.508906 0
M  V30 8851 C 825.71 2.32109 0.254469 0
M  V30 8852 C 826.691 1.40754 0.955111 0
M  V30 8853 O 827.876 1.69658 0.944983 0
M  V30 8854 C 825.006 3.21458 1.3146 0
M  V30 8855 C 823.96 4.2167 0.733368 0
M  V30 8856 C 823.286 5.00009 1.8946 0
M  V30 8857 C 824.586 5.21544 -0.280875 0
M  V30 8858 H 826.28 2.9618 -0.43795 0
M  V30 8859 H 823.826 1.4243 -0.212062 0
M  V30 8860 H 825.779 3.78305 1.85643 0
M  V30 8861 H 824.503 2.55346 2.03632 0
M  V30 8862 H 823.162 3.65979 0.213231 0
M  V30 8863 H 822.81 4.30338 2.60419 0
M  V30 8864 H 822.51 5.67821 1.51173 0
M  V30 8865 H 824.034 5.59702 2.44061 0
M  V30 8866 H 825.448 5.73039 0.173095 0
M  V30 8867 H 823.845 5.97291 -0.580006 0
M  V30 8868 H 824.915 4.69969 -1.19404 0
M  V30 8869 N 826.258 0.243083 1.55714 0
M  V30 8870 C 827.674 -0.111853 1.59208 0
M  V30 8871 C 827.874 -1.5723 1.2602 0
M  V30 8872 O 826.93 -2.31608 1.00569 0
M  V30 8873 C 828.243 0.233885 2.99789 0
M  V30 8874 C 829.791 0.177873 3.12494 0
M  V30 8875 C 830.266 0.49759 4.55289 0
M  V30 8876 N 831.757 0.447949 4.61029 0
M  V30 8877 C 832.492 0.668545 5.69489 0
M  V30 8878 N 831.988 0.952064 6.86227 0
M  V30 8879 N 833.781 0.599512 5.58894 0
M  V30 8880 H 825.932 1.19554 1.75558 0
M  V30 8881 H 828.195 0.480765 0.817049 0
M  V30 8882 H 827.901 1.24835 3.28799 0
M  V30 8883 H 827.775 -0.440846 3.74615 0
M  V30 8884 H 830.162 -0.827263 2.83267 0
M  V30 8885 H 830.243 0.886399 2.39951 0
M  V30 8886 H 829.887 1.50026 4.85237 0
M  V30 8887 H 829.817 -0.232371 5.26087 0
M  V30 8888 H 832.308 0.237388 3.77154 0
M  V30 8889 H 832.621 1.10791 7.64817 0
M  V30 8890 H 830.966 0.989496 6.8792 0
M  V30 8891 H 834.157 0.378088 4.66571 0
M  V30 8892 H 834.33 0.774828 6.43351 0
M  V30 8893 N 827.736 -1.57571 -0.0300757 0
M  V30 8894 C 828.686 -2.02958 -1.03885 0
M  V30 8895 C 829.67 -0.918723 -1.32092 0
M  V30 8896 O 830.862 -1.18262 -1.31694 0
M  V30 8897 C 827.991 -2.51169 -2.34028 0
M  V30 8898 C 827.077 -3.69073 -2.08915 0
M  V30 8899 N 827.468 -4.81831 -1.53858 0
M  V30 8900 C 825.766 -3.76427 -2.39204 0
M  V30 8901 C 826.467 -5.6346 -1.44526 0
M  V30 8902 N 825.443 -5.08545 -1.92048 0
M  V30 8903 H 829.245 -2.8756 -0.607157 0
M  V30 8904 H 826.759 -1.6067 -0.236399 0
M  V30 8905 H 828.756 -2.81944 -3.07104 0
M  V30 8906 H 827.416 -1.67972 -2.77876 0
M  V30 8907 H 828.427 -5.03291 -1.22142 0
M  V30 8908 H 825.104 -3.04029 -2.86134 0
M  V30 8909 H 826.494 -6.64042 -1.02456 0
M  V30 8910 N 829.214 0.302327 -1.54673 0
M  V30 8911 C 830.144 1.37759 -1.88533 0
M  V30 8912 C 831.125 1.52961 -0.744113 0
M  V30 8913 O 832.31 1.6649 -0.999731 0
M  V30 8914 C 829.44 2.74201 -2.13146 0
M  V30 8915 C 828.394 2.73765 -3.28993 0
M  V30 8916 C 827.72 4.13483 -3.39022 0
M  V30 8917 C 829.02 2.35624 -4.66132 0
M  V30 8918 H 830.714 1.0967 -2.78591 0
M  V30 8919 H 828.26 0.52613 -1.34044 0
M  V30 8920 H 830.213 3.49508 -2.35419 0
M  V30 8921 H 828.937 3.03812 -1.19858 0
M  V30 8922 H 827.596 2.00914 -3.06642 0
M  V30 8923 H 827.244 4.40269 -2.43253 0
M  V30 8924 H 826.944 4.14093 -4.16894 0
M  V30 8925 H 828.468 4.90572 -3.63553 0
M  V30 8926 H 829.882 3.00647 -4.88143 0
M  V30 8927 H 828.279 2.47449 -5.46707 0
M  V30 8928 H 829.349 1.30753 -4.66939 0
M  V30 8929 N 830.692 1.47107 0.565454 0
M  V30 8930 C 831.655 1.58535 1.65527 0
M  V30 8931 C 832.655 0.461081 1.54048 0
M  V30 8932 O 833.845 0.725911 1.58355 0
M  V30 8933 C 830.977 1.52204 3.05036 0
M  V30 8934 H 832.17 2.55676 1.56747 0
M  V30 8935 H 829.723 1.35174 0.78471 0
M  V30 8936 H 830.458 0.564071 3.19357 0
M  V30 8937 H 830.243 2.3379 3.14777 0
M  V30 8938 H 831.733 1.63322 3.84338 0
M  V30 8939 N 832.17 -0.811516 1.35101 0
M  V30 8940 C 833.133 -1.90467 1.27495 0
M  V30 8941 C 834.133 -1.59703 0.187516 0
M  V30 8942 O 835.323 -1.68528 0.440896 0
M  V30 8943 C 832.455 -3.26774 0.971154 0
M  V30 8944 H 833.648 -1.98631 2.2469 0
M  V30 8945 H 831.201 -1.00681 1.19553 0
M  V30 8946 H 831.936 -3.243 0.0028557 0
M  V30 8947 H 831.721 -3.50488 1.75785 0
M  V30 8948 H 833.211 -4.06804 0.943414 0
M  V30 8949 N 833.648 -1.19017 -1.03309 0
M  V30 8950 C 834.611 -0.926076 -2.09658 0
M  V30 8951 C 835.611 0.0917077 -1.60538 0
M  V30 8952 O 836.801 -0.142574 -1.73616 0
M  V30 8953 C 833.933 -0.390958 -3.38651 0
M  V30 8954 H 835.126 -1.86923 -2.3452 0
M  V30 8955 H 832.679 -1.00325 -1.19853 0
M  V30 8956 H 833.414 0.558446 -3.19456 0
M  V30 8957 H 833.199 -1.12474 -3.75622 0
M  V30 8958 H 834.689 -0.225131 -4.16993 0
M  V30 8959 N 835.127 1.22348 -0.993418 0
M  V30 8960 C 836.074 2.24294 -0.544118 0
M  V30 8961 C 837.044 1.60602 0.42381 0
M  V30 8962 O 838.229 1.87952 0.328453 0
M  V30 8963 C 835.369 3.44837 0.134578 0
M  V30 8964 C 834.482 4.23043 -0.875151 0
M  V30 8965 C 833.617 5.30928 -0.169919 0
M  V30 8966 C 832.656 6.00853 -1.16798 0
M  V30 8967 N 831.793 7.00381 -0.491021 0
M  V30 8968 H 836.633 2.6209 -1.4182 0
M  V30 8969 H 834.17 1.2881 -0.710384 0
M  V30 8970 H 836.128 4.13625 0.544998 0
M  V30 8971 H 834.758 3.07804 0.972446 0
M  V30 8972 H 833.81 3.53546 -1.40389 0
M  V30 8973 H 835.122 4.71237 -1.63516 0
M  V30 8974 H 834.276 6.05972 0.297205 0
M  V30 8975 H 833.015 4.8371 0.622586 0
M  V30 8976 H 832.02 5.24591 -1.64573 0
M  V30 8977 H 833.245 6.50159 -1.96137 0
M  V30 8978 H 831.191 6.55393 0.282037 0
M  V30 8979 H 831.108 7.46584 -1.18947 0
M  V30 8980 H 832.376 7.79486 -0.0467169 0
M  V30 8981 N 836.605 0.766683 1.37694 0
M  V30 8982 C 837.853 0.328065 1.9942 0
M  V30 8983 C 838.174 -1.09775 1.61166 0
M  V30 8984 O 837.444 -1.75288 0.874686 0
M  V30 8985 H 836.024 0.11831 0.737572 0
M  V30 8986 H 838.686 0.983686 1.68255 0
M  V30 8987 H 837.782 0.401647 3.09505 0
M  V30 8988 N 838.083 -1.48885 0.516809 0
M  V30 8989 C 839.332 -2.01686 -0.0239899 0
M  V30 8990 C 839.645 -1.40029 -1.3657 0
M  V30 8991 O 840.851 -1.84249 -1.9941 0
M  V30 8992 C 839.307 -3.59779 -0.0931825 0
M  V30 8993 C 838.915 -4.30416 1.24283 0
M  V30 8994 C 840.659 -4.20471 -0.583507 0
M  V30 8995 C 838.566 -5.80408 1.13494 0
M  V30 8996 H 837.496 -0.753892 -0.0127376 0
M  V30 8997 H 840.147 -1.71273 0.65861 0
M  V30 8998 H 838.529 -3.86976 -0.840577 0
M  V30 8999 H 839.703 -4.14905 2.00476 0
M  V30 9000 H 838.018 -3.81539 1.66785 0
M  V30 9001 H 840.615 -5.30333 -0.681987 0
M  V30 9002 H 840.958 -3.84898 -1.58617 0
M  V30 9003 H 841.491 -3.97654 0.107814 0
M  V30 9004 H 838.23 -6.20532 2.11235 0
M  V30 9005 H 837.75 -5.98368 0.414167 0
M  V30 9006 H 839.429 -6.41781 0.820162 0
M  V30 9007 N 839.561 -0.251338 -1.55583 0
M  V30 9008 C 840.81 0.372681 -1.98227 0
M  V30 9009 C 841.123 1.58743 -1.1428 0
M  V30 9010 O 842.329 2.28289 -1.46957 0
M  V30 9011 C 840.785 0.714439 -3.52738 0
M  V30 9012 C 840.393 -0.479168 -4.4543 0
M  V30 9013 C 842.137 1.3024 -4.04027 0
M  V30 9014 C 840.044 -0.113318 -5.91291 0
M  V30 9015 H 838.974 0.14302 -0.740312 0
M  V30 9016 H 841.625 -0.352253 -1.80087 0
M  V30 9017 H 840.007 1.49762 -3.66589 0
M  V30 9018 H 841.181 -1.25644 -4.4334 0
M  V30 9019 H 839.496 -0.982359 -4.04646 0
M  V30 9020 H 842.093 1.58953 -5.10527 0
M  V30 9021 H 842.436 2.22837 -3.51638 0
M  V30 9022 H 842.969 0.582024 -3.93519 0
M  V30 9023 H 839.708 -1.00654 -6.47726 0
M  V30 9024 H 839.228 0.627666 -5.96507 0
M  V30 9025 H 840.907 0.30293 -6.4629 0
M  V30 9026 N 841.039 1.57585 0.0217189 0
M  V30 9027 C 841.969 2.10073 1.01939 0
M  V30 9028 C 842.95 1.0049 1.37243 0
M  V30 9029 O 844.135 1.28055 1.45999 0
M  V30 9030 C 841.265 2.58618 2.31806 0
M  V30 9031 C 840.219 3.72531 2.10724 0
M  V30 9032 C 839.545 4.07309 3.46415 0
M  V30 9033 C 840.845 5.00672 1.48743 0
M  V30 9034 H 842.539 2.9368 0.582432 0
M  V30 9035 H 840.085 1.41277 0.278715 0
M  V30 9036 H 842.038 2.9396 3.01936 0
M  V30 9037 H 840.762 1.72104 2.77575 0
M  V30 9038 H 839.421 3.37549 1.43025 0
M  V30 9039 H 839.069 3.17851 3.89846 0
M  V30 9040 H 838.769 4.84042 3.33132 0
M  V30 9041 H 840.293 4.45192 4.17895 0
M  V30 9042 H 841.707 5.33925 2.088 0
M  V30 9043 H 840.104 5.82065 1.46013 0
M  V30 9044 H 841.174 4.82769 0.45408 0
M  V30 9045 N 842.517 -0.29412 1.54831 0
M  V30 9046 C 843.928 -0.866651 1.65366 0
M  V30 9047 C 844.279 -1.87834 0.56681 0
M  V30 9048 O 843.404 -2.14374 -0.295389 0
M  V30 9049 C 843.999 -1.57869 2.99771 0
M  V30 9050 C 842.558 -2.09954 3.12404 0
M  V30 9051 C 841.705 -0.934492 2.6108 0
M  V30 9052 H 844.656 -0.0709551 1.58541 0
M  V30 9053 H 844.677 -2.44462 2.91579 0
M  V30 9054 H 844.189 -0.84212 3.78853 0
M  V30 9055 H 842.29 -2.86637 2.38055 0
M  V30 9056 H 842.403 -2.32934 4.18663 0
M  V30 9057 H 840.767 -1.32199 2.17705 0
M  V30 9058 H 841.55 -0.211768 3.42646 0
M  V30 9059 N 843.995 -1.47404 -0.557645 0
M  V30 9060 C 844.905 -1.62491 -1.69216 0
M  V30 9061 C 845.921 -0.507764 -1.66426 0
M  V30 9062 O 847.097 -0.775241 -1.85882 0
M  V30 9063 C 844.162 -1.63511 -3.05721 0
M  V30 9064 C 843.223 -2.86648 -3.1958 0
M  V30 9065 C 842.456 -2.87609 -4.49574 0
M  V30 9066 O 842.679 -1.97799 -5.35006 0
M  V30 9067 O 841.613 -3.79465 -4.67215 0
M  V30 9068 H 845.439 -2.58487 -1.59431 0
M  V30 9069 H 843.024 -1.30485 -0.7276 0
M  V30 9070 H 844.906 -1.66863 -3.86956 0
M  V30 9071 H 843.581 -0.706812 -3.15889 0
M  V30 9072 H 842.488 -2.8884 -2.37744 0
M  V30 9073 H 843.821 -3.7877 -3.14316 0
M  V30 9074 N 845.473 0.80434 -1.35529 0
M  V30 9075 C 846.403 1.93086 -1.31301 0
M  V30 9076 C 847.384 1.69068 -0.187044 0
M  V30 9077 O 848.569 1.90399 -0.382359 0
M  V30 9078 C 845.699 3.29867 -1.0865 0
M  V30 9079 C 844.653 3.68373 -2.17911 0
M  V30 9080 C 843.979 5.0334 -1.80423 0
M  V30 9081 C 845.279 3.78516 -3.59893 0
M  V30 9082 H 846.973 1.96882 -2.25561 0
M  V30 9083 H 844.519 0.945841 -1.08581 0
M  V30 9084 H 846.472 4.08281 -1.04331 0
M  V30 9085 H 845.196 3.2642 -0.108359 0
M  V30 9086 H 843.855 2.92247 -2.21331 0
M  V30 9087 H 843.503 4.96399 -0.812213 0
M  V30 9088 H 843.203 5.30074 -2.53565 0
M  V30 9089 H 844.727 5.84191 -1.77633 0
M  V30 9090 H 846.141 4.47155 -3.58783 0
M  V30 9091 H 844.538 4.16721 -4.31814 0
M  V30 9092 H 845.608 2.8001 -3.95882 0
M  V30 9093 N 846.951 1.19563 1.02676 0
M  V30 9094 C 848.181 1.0234 1.79472 0
M  V30 9095 C 848.589 -0.430891 1.84228 0
M  V30 9096 O 847.932 -1.31106 1.28674 0
M  V30 9097 C 847.994 1.51901 3.25832 0
M  V30 9098 C 847.658 3.00045 3.44706 0
M  V30 9099 C 848.655 3.9779 3.34752 0
M  V30 9100 C 846.34 3.38784 3.70851 0
M  V30 9101 C 848.334 5.32267 3.50672 0
M  V30 9102 C 846.021 4.73419 3.86416 0
M  V30 9103 C 847.019 5.69969 3.7633 0
M  V30 9104 O 846.707 7.02165 3.91432 0
M  V30 9105 H 846.439 0.360936 0.571578 0
M  V30 9106 H 848.993 1.58863 1.30198 0
M  V30 9107 H 847.223 0.897546 3.7614 0
M  V30 9108 H 848.912 1.30853 3.84229 0
M  V30 9109 H 849.678 3.69207 3.14502 0
M  V30 9110 H 845.557 2.64183 3.77794 0
M  V30 9111 H 849.101 6.07612 3.42715 0
M  V30 9112 H 844.998 5.01697 4.06165 0
M  V30 9113 H 845.766 7.09268 4.08511 0
M  V30 9114 N 848.429 -1.21819 0.999893 0
M  V30 9115 C 849.359 -2.26282 0.576096 0
M  V30 9116 C 850.34 -1.65317 -0.400537 0
M  V30 9117 O 851.525 -1.92028 -0.28964 0
M  V30 9118 C 848.655 -3.47147 -0.103145 0
M  V30 9119 C 847.609 -4.20594 0.792745 0
M  V30 9120 C 846.935 -5.34696 -0.0198026 0
M  V30 9121 C 848.235 -4.78533 2.09293 0
M  V30 9122 H 849.929 -2.61984 1.4493 0
M  V30 9123 H 847.475 -1.25935 0.698316 0
M  V30 9124 H 849.428 -4.1939 -0.411068 0
M  V30 9125 H 848.152 -3.1056 -1.01094 0
M  V30 9126 H 846.811 -3.50194 1.08442 0
M  V30 9127 H 846.459 -4.94352 -0.928729 0
M  V30 9128 H 846.159 -5.84764 0.576661 0
M  V30 9129 H 847.683 -6.09752 -0.321659 0
M  V30 9130 H 849.097 -5.42682 1.8485 0
M  V30 9131 H 847.494 -5.38968 2.63881 0
M  V30 9132 H 848.564 -3.98197 2.76708 0
M  V30 9133 N 849.908 -0.773975 -1.37286 0
M  V30 9134 C 851.185 -0.263942 -1.93811 0
M  V30 9135 C 851.565 1.24138 -1.70743 0
M  V30 9136 O 850.913 2.02557 -1.05749 0
M  V30 9137 C 851.123 -0.639753 -3.43086 0
M  V30 9138 C 852.471 -0.610796 -4.20184 0
M  V30 9139 O 853.495 -0.579278 -3.51458 0
M  V30 9140 O 852.354 -0.639862 -5.42741 0
M  V30 9141 H 849.448 -0.0614331 -0.824715 0
M  V30 9142 H 851.994 -0.855477 -1.46559 0
M  V30 9143 H 850.766 -1.67856 -3.53469 0
M  V30 9144 H 850.389 -0.0212827 -3.97594 0
M  V30 9145 N 851.386 1.48609 -0.524698 0
M  V30 9146 C 852.797 1.86516 -0.0828846 0
M  V30 9147 C 853.148 1.43478 1.33822 0
M  V30 9148 O 852.273 0.823139 2.00133 0
M  V30 9149 C 852.868 3.38495 -0.143639 0
M  V30 9150 C 851.427 3.75615 0.242951 0
M  V30 9151 C 850.574 2.72649 -0.505747 0
M  V30 9152 H 853.525 1.40589 -0.736233 0
M  V30 9153 H 853.546 3.74977 0.645955 0
M  V30 9154 H 853.058 3.69789 -1.17805 0
M  V30 9155 H 851.159 3.49935 1.27971 0
M  V30 9156 H 851.272 4.7901 -0.0929834 0
M  V30 9157 H 849.636 2.54656 0.0473482 0
M  V30 9158 H 850.419 3.06786 -1.54069 0
M  V30 9159 N 852.864 0.259585 1.55447 0
M  V30 9160 C 853.827 -0.621359 2.20617 0
M  V30 9161 C 854.827 -1.09317 1.17925 0
M  V30 9162 O 856.017 -0.995842 1.42929 0
M  V30 9163 C 853.149 -1.85546 2.85982 0
M  V30 9164 H 854.342 -0.0525833 2.99854 0
M  V30 9165 H 851.895 0.0101055 1.56297 0
M  V30 9166 H 852.63 -2.46515 2.10715 0
M  V30 9167 H 852.415 -1.52523 3.61219 0
M  V30 9168 H 853.905 -2.48227 3.35817 0
M  V30 9169 N 854.342 -1.57594 -0.0133615 0
M  V30 9170 C 855.572 -1.93969 -0.711295 0
M  V30 9171 C 855.98 -0.859084 -1.68572 0
M  V30 9172 O 855.323 0.171842 -1.82894 0
M  V30 9173 C 855.385 -3.2625 -1.51001 0
M  V30 9174 C 855.049 -4.51628 -0.698645 0
M  V30 9175 C 856.046 -5.19899 0.00791185 0
M  V30 9176 C 853.731 -4.98095 -0.648553 0
M  V30 9177 C 855.725 -6.32928 0.753691 0
M  V30 9178 C 853.412 -6.11017 0.10096 0
M  V30 9179 C 854.41 -6.78289 0.800828 0
M  V30 9180 O 854.098 -7.89048 1.53814 0
M  V30 9181 H 853.83 -0.6445 -0.203951 0
M  V30 9182 H 856.384 -2.05378 0.0298267 0
M  V30 9183 H 854.614 -3.11211 -2.29531 0
M  V30 9184 H 856.303 -3.47835 -2.09202 0
M  V30 9185 H 857.069 -4.84995 -0.0217192 0
M  V30 9186 H 852.948 -4.45568 -1.18282 0
M  V30 9187 H 856.492 -6.85371 1.3005 0
M  V30 9188 H 852.389 -6.45364 0.132459 0
M  V30 9189 H 853.157 -8.05492 1.45345 0
M  V30 9190 N 855.82 0.285905 -1.54985 0
M  V30 9191 C 857.068 1.01718 -1.74636 0
M  V30 9192 C 857.389 1.87277 -0.543342 0
M  V30 9193 O 856.659 1.90847 0.442078 0
M  V30 9194 H 855.239 0.378549 -0.643979 0
M  V30 9195 H 857.901 0.313247 -1.92366 0
M  V30 9196 H 856.997 1.66159 -2.64192 0
M  V30 9197 N 857.298 1.47698 0.54982 0
M  V30 9198 C 858.23 1.56806 1.67166 0
M  V30 9199 C 859.243 0.453709 1.5635 0
M  V30 9200 O 860.432 0.723663 1.63173 0
M  V30 9201 C 857.532 1.4632 3.05686 0
M  V30 9202 C 856.705 2.72452 3.42182 0
M  V30 9203 C 855.764 2.55698 4.59897 0
M  V30 9204 O 854.79 3.29534 4.64108 0
M  V30 9205 N 855.992 1.64009 5.56849 0
M  V30 9206 H 858.757 2.53545 1.59797 0
M  V30 9207 H 856.318 1.44171 0.736635 0
M  V30 9208 H 858.31 1.32835 3.82279 0
M  V30 9209 H 856.88 0.57634 3.07241 0
M  V30 9210 H 856.1 3.00644 2.54964 0
M  V30 9211 H 857.388 3.56172 3.63344 0
M  V30 9212 H 856.786 1.03186 5.5621 0
M  V30 9213 H 855.343 1.56473 6.3274 0
M  V30 9214 N 858.776 -0.797141 1.35954 0
M  V30 9215 C 860.025 -1.54983 1.29086 0
M  V30 9216 C 860.338 -1.95167 -0.130003 0
M  V30 9217 O 861.544 -2.69596 -0.32101 0
M  V30 9218 C 860 -2.79738 2.26439 0
M  V30 9219 C 859.608 -2.46753 3.73921 0
M  V30 9220 C 861.352 -3.57733 2.28533 0
M  V30 9221 C 859.259 -3.67858 4.63071 0
M  V30 9222 H 858.189 -0.581766 0.479651 0
M  V30 9223 H 860.84 -0.87541 1.61273 0
M  V30 9224 H 859.222 -3.48939 1.87236 0
M  V30 9225 H 860.396 -1.85499 4.21814 0
M  V30 9226 H 858.711 -1.81985 3.74527 0
M  V30 9227 H 861.308 -4.47699 2.92351 0
M  V30 9228 H 861.651 -3.95754 1.29169 0
M  V30 9229 H 862.184 -2.95504 2.66313 0
M  V30 9230 H 858.923 -3.34939 5.63468 0
M  V30 9231 H 858.443 -4.28305 4.19898 0
M  V30 9232 H 860.122 -4.34977 4.78961 0
M  V30 9233 N 860.254 -1.20106 -1.0204 0
M  V30 9234 C 861.202 -0.943231 -2.12617 0
M  V30 9235 C 862.196 0.104042 -1.6908 0
M  V30 9236 O 863.402 -0.0459732 -1.79941 0
M  V30 9237 H 859.777 -0.28767 -0.694802 0
M  V30 9238 H 861.748 -1.88221 -2.3155 0
M  V30 9239 C 860.497 -0.50771 -3.43973 0
M  V30 9240 H 859.82 -1.30514 -3.77897 0
M  V30 9241 H 861.26 -0.366486 -4.22413 0
M  V30 9242 C 859.719 0.77939 -3.27761 0
M  V30 9243 O 860.249 1.83876 -3.57145 0
M  V30 9244 N 858.455 0.739931 -2.81022 0
M  V30 9245 H 858.002 -0.122426 -2.57309 0
M  V30 9246 H 857.96 1.60147 -2.70556 0
M  V30 9247 N 861.732 1.21287 -1.00634 0
M  V30 9248 C 862.682 2.21541 -0.53886 0
M  V30 9249 C 863.666 1.55842 0.400256 0
M  V30 9250 O 864.858 1.75566 0.224889 0
M  V30 9251 C 861.987 3.43047 0.131796 0
M  V30 9252 C 861.073 4.1593 -0.828419 0
M  V30 9253 N 861.464 4.65359 -1.98178 0
M  V30 9254 C 859.762 4.41281 -0.647083 0
M  V30 9255 C 860.463 5.21079 -2.58557 0
M  V30 9256 N 859.439 5.10531 -1.86705 0
M  V30 9257 H 863.241 2.57413 -1.41831 0
M  V30 9258 H 860.755 1.37109 -0.870338 0
M  V30 9259 H 862.752 4.14079 0.484178 0
M  V30 9260 H 861.412 3.08683 1.00721 0
M  V30 9261 H 862.423 4.60896 -2.3621 0
M  V30 9262 H 859.1 4.17107 0.181139 0
M  V30 9263 H 860.49 5.6977 -3.56107 0
M  V30 9264 N 863.21 0.781244 1.36873 0
M  V30 9265 C 864.158 0.161889 2.32036 0
M  V30 9266 C 865.152 -0.674225 1.55405 0
M  V30 9267 O 866.358 -0.570223 1.70729 0
M  V30 9268 H 862.733 0.0335702 0.75125 0
M  V30 9269 H 864.704 0.980078 2.81846 0
M  V30 9270 C 863.453 -0.695352 3.40676 0
M  V30 9271 H 862.776 -0.0613425 3.99753 0
M  V30 9272 H 864.216 -1.09553 4.09602 0
M  V30 9273 C 862.675 -1.85008 2.81556 0
M  V30 9274 O 863.205 -2.94616 2.73065 0
M  V30 9275 N 861.411 -1.65364 2.38962 0
M  V30 9276 H 860.958 -0.762106 2.46068 0
M  V30 9277 H 860.916 -2.42789 1.99752 0
M  V30 9278 N 864.689 -1.48329 0.532571 0
M  V30 9279 C 865.935 -2.028 -0.000583219 0
M  V30 9280 C 866.268 -1.40858 -1.33688 0
M  V30 9281 O 865.543 -0.555261 -1.86406 0
M  V30 9282 C 865.826 -3.59901 -0.119846 0
M  V30 9283 C 865.679 -4.32318 1.2418 0
M  V30 9284 C 866.998 -4.31904 -0.845372 0
M  V30 9285 H 864.117 -0.736999 0.00126205 0
M  V30 9286 H 866.759 -1.77024 0.690102 0
M  V30 9287 H 864.909 -3.81993 -0.708092 0
M  V30 9288 H 866.581 -4.21637 1.87136 0
M  V30 9289 H 864.824 -3.93635 1.82301 0
M  V30 9290 H 865.495 -5.40697 1.11132 0
M  V30 9291 H 867.971 -4.14658 -0.346159 0
M  V30 9292 H 866.847 -5.41509 -0.897723 0
M  V30 9293 H 867.108 -3.99369 -1.89622 0
M  V30 9294 N 866.167 -0.267825 -1.55308 0
M  V30 9295 C 867.097 0.616585 -2.25212 0
M  V30 9296 C 868.078 1.16472 -1.23969 0
M  V30 9297 O 869.263 1.20021 -1.52672 0
M  V30 9298 C 866.393 1.80412 -2.96764 0
M  V30 9299 C 865.347 1.38784 -4.04874 0
M  V30 9300 C 864.673 2.65789 -4.63961 0
M  V30 9301 C 865.973 0.543415 -5.19465 0
M  V30 9302 H 867.667 0.0336257 -2.99381 0
M  V30 9303 H 865.213 0.0147328 -1.43992 0
M  V30 9304 H 867.166 2.42866 -3.44375 0
M  V30 9305 H 865.89 2.4128 -2.20118 0
M  V30 9306 H 864.549 0.786541 -3.58063 0
M  V30 9307 H 864.197 3.24899 -3.83992 0
M  V30 9308 H 863.897 2.38651 -5.36954 0
M  V30 9309 H 865.421 3.29104 -5.14318 0
M  V30 9310 H 866.835 1.07277 -5.63174 0
M  V30 9311 H 865.232 0.367219 -5.98975 0
M  V30 9312 H 866.302 -0.439534 -4.82904 0
M  V30 9313 N 867.645 1.57599 0.00500368 0
M  V30 9314 C 868.87 1.95026 0.705663 0
M  V30 9315 C 869.295 0.869643 1.6679 0
M  V30 9316 O 868.653 -0.172659 1.80476 0
M  V30 9317 C 868.701 3.31545 1.4181 0
M  V30 9318 O 867.805 3.25495 2.53232 0
M  V30 9319 H 867.146 0.636808 0.188074 0
M  V30 9320 H 869.676 2.04547 -0.046696 0
M  V30 9321 H 869.686 3.66996 1.78265 0
M  V30 9322 H 868.361 4.09751 0.712543 0
M  V30 9323 H 866.938 3.01714 2.19142 0
M  V30 9324 N 869.123 -0.277682 1.55134 0
M  V30 9325 C 870.351 -1.02826 1.7954 0
M  V30 9326 C 870.766 -1.80105 0.566373 0
M  V30 9327 O 870.123 -1.76491 -0.464448 0
M  V30 9328 C 870.174 -1.99053 3.01762 0
M  V30 9329 O 869.895 -1.24906 4.19917 0
M  V30 9330 C 871.396 -2.85961 3.38735 0
M  V30 9331 H 868.616 -0.303958 0.598206 0
M  V30 9332 H 871.16 -0.309884 2.02138 0
M  V30 9333 H 869.315 -2.66359 2.81303 0
M  V30 9334 H 869.729 -1.89725 4.88983 0
M  V30 9335 H 871.203 -3.49286 4.27438 0
M  V30 9336 H 871.68 -3.55486 2.57928 0
M  V30 9337 H 872.286 -2.24152 3.61436 0
M  V30 9338 N 870.601 -1.47988 -0.541979 0
M  V30 9339 C 871.826 -1.59286 -1.32826 0
M  V30 9340 C 872.251 -0.24894 -1.86445 0
M  V30 9341 O 871.609 0.777581 -1.63778 0
M  V30 9342 C 871.657 -2.6334 -2.46343 0
M  V30 9343 O 870.761 -2.19667 -3.49028 0
M  V30 9344 H 870.102 -0.534543 -0.393903 0
M  V30 9345 H 872.632 -1.93885 -0.653427 0
M  V30 9346 H 872.642 -2.84238 -2.92699 0
M  V30 9347 H 871.317 -3.60913 -2.06675 0
M  V30 9348 H 869.894 -2.08932 -3.08872 0
M  V30 9349 N 872.079 0.78992 -1.36375 0
M  V30 9350 C 873.307 1.57873 -1.3373 0
M  V30 9351 C 873.722 1.88624 0.0815544 0
M  V30 9352 O 873.079 1.50085 1.03831 0
M  V30 9353 C 873.13 2.90003 -2.15825 0
M  V30 9354 O 872.851 2.60578 -3.5218 0
M  V30 9355 C 874.352 3.84309 -2.20955 0
M  V30 9356 H 871.572 0.489685 -0.458748 0
M  V30 9357 H 874.116 0.980436 -1.79465 0
M  V30 9358 H 872.271 3.46303 -1.73646 0
M  V30 9359 H 872.685 3.4506 -3.95011 0
M  V30 9360 H 874.159 4.74081 -2.82756 0
M  V30 9361 H 874.636 4.22121 -1.21287 0
M  V30 9362 H 875.242 3.33942 -2.63368 0
M  V30 9363 N 873.557 1.20646 1.01402 0
M  V30 9364 C 874.487 0.98155 2.11867 0
M  V30 9365 C 875.468 -0.0903712 1.6986 0
M  V30 9366 O 876.653 0.0676586 1.94082 0
M  V30 9367 C 873.783 0.535636 3.43145 0
M  V30 9368 C 872.737 1.55109 3.98905 0
M  V30 9369 C 872.063 0.961725 5.2598 0
M  V30 9370 C 873.363 2.93552 4.32001 0
M  V30 9371 H 875.057 1.90544 2.3094 0
M  V30 9372 H 872.603 0.917554 1.10982 0
M  V30 9373 H 874.556 0.365512 4.19812 0
M  V30 9374 H 873.28 -0.423882 3.23838 0
M  V30 9375 H 871.939 1.70862 3.24348 0
M  V30 9376 H 871.587 -0.00580108 5.03 0
M  V30 9377 H 871.287 1.63993 5.64252 0
M  V30 9378 H 872.811 0.802726 6.053 0
M  V30 9379 H 874.225 2.81295 4.99546 0
M  V30 9380 H 872.622 3.58303 4.81393 0
M  V30 9381 H 873.692 3.4508 3.40658 0
M  V30 9382 N 875.035 -1.20752 1.01276 0
M  V30 9383 C 876.26 -1.94547 0.718769 0
M  V30 9384 C 876.685 -1.7404 -0.713563 0
M  V30 9385 O 876.043 -1.03221 -1.49047 0
M  V30 9386 C 876.091 -3.44823 1.05497 0
M  V30 9387 O 875.195 -4.12072 0.164516 0
M  V30 9388 H 874.536 -0.607931 0.267051 0
M  V30 9389 H 877.066 -1.53292 1.35509 0
M  V30 9390 H 877.076 -3.95427 1.00507 0
M  V30 9391 H 875.751 -3.59072 2.09858 0
M  V30 9392 H 874.328 -3.71909 0.271615 0
M  V30 9393 N 876.513 -0.788492 -1.36457 0
M  V30 9394 C 877.738 -0.371224 -2.04051 0
M  V30 9395 C 878.163 1.004 -1.59064 0
M  V30 9396 O 877.521 1.64663 -0.758679 0
M  V30 9397 C 877.569 -0.442275 -3.57877 0
M  V30 9398 O 876.673 0.55113 -4.08701 0
M  V30 9399 H 876.014 -0.157808 -0.644975 0
M  V30 9400 H 878.544 -1.06935 -1.74431 0
M  V30 9401 H 878.554 -0.305548 -4.06854 0
M  V30 9402 H 877.229 -1.44547 -3.89973 0
M  V30 9403 H 875.806 0.37614 -3.70998 0
M  V30 9404 N 877.991 1.48044 -0.54043 0
M  V30 9405 C 879.402 1.86418 -0.102662 0
M  V30 9406 C 879.753 1.4489 1.32293 0
M  V30 9407 O 878.878 0.844319 1.99249 0
M  V30 9408 C 879.473 3.38324 -0.179533 0
M  V30 9409 C 878.032 3.75852 0.203098 0
M  V30 9410 C 877.179 2.72097 -0.534637 0
M  V30 9411 H 880.13 1.398 -0.751103 0
M  V30 9412 H 880.151 3.75641 0.606147 0
M  V30 9413 H 879.663 3.68518 -1.21721 0
M  V30 9414 H 877.764 3.51272 1.24252 0
M  V30 9415 H 877.877 4.78884 -0.143784 0
M  V30 9416 H 876.241 2.54692 0.0203358 0
M  V30 9417 H 877.024 3.05135 -1.57314 0
M  V30 9418 N 879.47 0.276058 1.55163 0
M  V30 9419 C 880.433 -0.597924 2.21263 0
M  V30 9420 C 881.433 -1.0806 1.19078 0
M  V30 9421 O 882.623 -0.980626 1.43977 0
M  V30 9422 C 879.755 -1.82503 2.87933 0
M  V30 9423 H 880.948 -0.0207769 2.99893 0
M  V30 9424 H 878.501 0.0266823 1.56277 0
M  V30 9425 H 879.236 -2.44266 2.13318 0
M  V30 9426 H 879.021 -1.48683 3.62816 0
M  V30 9427 H 880.511 -2.44651 3.38431 0
M  V30 9428 N 880.948 -1.576 0.00335426 0
M  V30 9429 C 882.194 -1.90996 -0.681799 0
M  V30 9430 C 882.527 -0.877643 -1.73237 0
M  V30 9431 O 881.802 0.103183 -1.94226 0
M  V30 9432 C 882.085 -3.34961 -1.32187 0
M  V30 9433 C 881.938 -4.48911 -0.28261 0
M  V30 9434 C 883.257 -3.78408 -2.24711 0
M  V30 9435 H 880.376 -0.694596 -0.246386 0
M  V30 9436 H 883.018 -1.89919 0.055336 0
M  V30 9437 H 881.168 -3.36008 -1.95014 0
M  V30 9438 H 882.84 -4.59999 0.346241 0
M  V30 9439 H 881.083 -4.32 0.394768 0
M  V30 9440 H 881.754 -5.46609 -0.769576 0
M  V30 9441 H 884.23 -3.78934 -1.71897 0
M  V30 9442 H 883.106 -4.79885 -2.66461 0
M  V30 9443 H 883.367 -3.12464 -3.1276 0
M  V30 9444 N 882.426 0.269451 -1.5528 0
M  V30 9445 C 883.374 1.35303 -1.89198 0
M  V30 9446 C 884.368 1.50956 -0.768671 0
M  V30 9447 O 885.574 1.52699 -0.953054 0
M  V30 9448 H 881.949 0.452591 -0.600554 0
M  V30 9449 H 883.92 1.03949 -2.79709 0
M  V30 9450 C 882.669 2.70585 -2.18356 0
M  V30 9451 H 881.992 2.59332 -3.04281 0
M  V30 9452 H 883.432 3.45335 -2.46007 0
M  V30 9453 C 881.891 3.21954 -0.992327 0
M  V30 9454 O 882.421 4.01048 -0.228769 0
M  V30 9455 N 880.627 2.79682 -0.789062 0
M  V30 9456 H 880.174 2.15475 -1.41167 0
M  V30 9457 H 880.132 3.14399 0.00634776 0
M  V30 9458 N 883.904 1.48273 0.534124 0
M  V30 9459 C 884.834 1.6538 1.64839 0
M  V30 9460 C 885.815 0.502741 1.62501 0
M  V30 9461 O 887 0.734799 1.79762 0
M  V30 9462 C 884.13 1.68949 3.03436 0
M  V30 9463 C 883.084 2.83513 3.20631 0
M  V30 9464 C 882.41 2.72169 4.60248 0
M  V30 9465 C 883.71 4.24858 3.03797 0
M  V30 9466 H 885.404 2.58663 1.50777 0
M  V30 9467 H 882.95 1.24479 0.723937 0
M  V30 9468 H 884.903 1.79505 3.81256 0
M  V30 9469 H 883.627 0.722415 3.1851 0
M  V30 9470 H 882.286 2.72505 2.45227 0
M  V30 9471 H 881.934 1.7344 4.72152 0
M  V30 9472 H 881.634 3.49042 4.72698 0
M  V30 9473 H 883.158 2.84687 5.40172 0
M  V30 9474 H 884.572 4.36721 3.71413 0
M  V30 9475 H 882.969 5.02697 3.27743 0
M  V30 9476 H 884.039 4.41611 2.0027 0
M  V30 9477 N 885.382 -0.782676 1.36792 0
M  V30 9478 C 886.63 -1.53778 1.31136 0
M  V30 9479 C 886.951 -1.94706 -0.107014 0
M  V30 9480 O 886.221 -1.65465 -1.04872 0
M  V30 9481 H 884.801 -0.570328 0.482426 0
M  V30 9482 H 887.463 -0.932181 1.71162 0
M  V30 9483 H 886.559 -2.44224 1.94321 0
M  V30 9484 N 886.86 -1.21182 -1.00761 0
M  V30 9485 C 888.108 -1.02543 -1.74153 0
M  V30 9486 C 888.429 0.442372 -1.89916 0
M  V30 9487 O 887.699 1.31927 -1.44818 0
M  V30 9488 H 886.279 -0.37644 -0.645214 0
M  V30 9489 H 888.941 -1.52446 -1.21434 0
M  V30 9490 H 888.037 -1.49122 -2.7417 0
M  V30 9491 N 888.338 1.20213 -1.01915 0
M  V30 9492 C 889.585 1.89647 -0.709955 0
M  V30 9493 C 889.913 1.7901 0.760631 0
M  V30 9494 O 889.168 1.17028 1.56853 0
M  V30 9495 C 889.467 3.40232 -1.09438 0
M  V30 9496 C 889.133 3.7107 -2.5616 0
M  V30 9497 C 887.795 3.79196 -2.96249 0
M  V30 9498 C 890.147 3.85169 -3.51133 0
M  V30 9499 C 887.475 3.98882 -4.30244 0
M  V30 9500 C 889.827 4.06365 -4.8482 0
M  V30 9501 C 888.491 4.12722 -5.24611 0
M  V30 9502 H 887.761 0.693967 -0.259791 0
M  V30 9503 H 890.408 1.42419 -1.2802 0
M  V30 9504 H 888.713 3.89292 -0.442596 0
M  V30 9505 H 890.41 3.92257 -0.832811 0
M  V30 9506 H 887 3.65346 -2.24099 0
M  V30 9507 H 891.184 3.78243 -3.21319 0
M  V30 9508 H 886.44 4.02039 -4.60624 0
M  V30 9509 H 890.614 4.16216 -5.58334 0
M  V30 9510 H 888.241 4.27728 -6.28453 0
M  V30 9511 N 889.816 0.795718 1.36037 0
M  V30 9512 C 890.779 0.204318 2.28287 0
M  V30 9513 C 891.779 -0.602017 1.49105 0
M  V30 9514 O 892.969 -0.422089 1.69009 0
M  V30 9515 C 890.101 -0.716431 3.33287 0
M  V30 9516 H 891.294 1.01781 2.821 0
M  V30 9517 H 888.847 0.565588 1.45708 0
M  V30 9518 H 889.582 -1.55403 2.84641 0
M  V30 9519 H 889.367 -0.140096 3.9185 0
M  V30 9520 H 890.857 -1.12488 4.02164 0
M  V30 9521 N 891.294 -1.47756 0.548274 0
M  V30 9522 C 892.705 -1.8636 0.112547 0
M  V30 9523 C 893.056 -1.45589 -1.31523 0
M  V30 9524 O 892.181 -0.854874 -1.98799 0
M  V30 9525 C 892.776 -3.38224 0.197473 0
M  V30 9526 C 891.335 -3.75954 -0.183163 0
M  V30 9527 C 890.482 -2.7181 0.549059 0
M  V30 9528 H 893.433 -1.394 0.758506 0
M  V30 9529 H 893.454 -3.75957 -0.586217 0
M  V30 9530 H 892.966 -3.67868 1.23673 0
M  V30 9531 H 891.067 -3.51926 -1.22387 0
M  V30 9532 H 891.18 -4.78801 0.169178 0
M  V30 9533 H 889.544 -2.54699 -0.00682862 0
M  V30 9534 H 890.327 -3.04296 1.5893 0
M  V30 9535 N 892.772 -0.284283 -1.55015 0
M  V30 9536 C 894.018 0.330352 -2.00091 0
M  V30 9537 C 894.351 1.54814 -1.17244 0
M  V30 9538 O 893.626 1.92954 -0.244753 0
M  V30 9539 C 893.909 0.703492 -3.53161 0
M  V30 9540 C 893.762 -0.522275 -4.46758 0
M  V30 9541 C 895.081 1.53645 -4.12409 0
M  V30 9542 H 892.2 0.118599 -0.727395 0
M  V30 9543 H 894.842 -0.393054 -1.8589 0
M  V30 9544 H 892.992 1.31983 -3.65394 0
M  V30 9545 H 894.664 -1.16082 -4.46456 0
M  V30 9546 H 892.907 -1.15865 -4.1804 0
M  V30 9547 H 893.578 -0.217295 -5.51572 0
M  V30 9548 H 896.054 1.01583 -4.0351 0
M  V30 9549 H 894.93 1.76633 -5.19704 0
M  V30 9550 H 895.191 2.5204 -3.63219 0
M  V30 9551 N 894.251 1.57596 -0.0117121 0
M  V30 9552 C 895.497 1.91355 0.671661 0
M  V30 9553 C 895.83 0.886818 1.72769 0
M  V30 9554 O 895.105 -0.0928813 1.94278 0
M  V30 9555 C 895.388 3.35657 1.30409 0
M  V30 9556 C 895.241 4.49055 0.2588 0
M  V30 9557 C 896.56 3.79595 2.22701 0
M  V30 9558 H 893.679 0.695893 0.242698 0
M  V30 9559 H 896.321 1.89887 -0.0654071 0
M  V30 9560 H 894.471 3.37038 1.9323 0
M  V30 9561 H 896.143 4.59809 -0.370631 0
M  V30 9562 H 894.386 4.31785 -0.417672 0
M  V30 9563 H 895.057 5.4701 0.740578 0
M  V30 9564 H 897.533 3.7984 1.69885 0
M  V30 9565 H 896.409 4.81292 2.63912 0
M  V30 9566 H 896.67 3.14118 3.11098 0
M  V30 9567 N 895.729 -0.261212 1.5542 0
M  V30 9568 C 896.954 -1.01341 1.80955 0
M  V30 9569 C 897.379 -1.78711 0.586849 0
M  V30 9570 O 896.737 -1.75266 -0.463837 0
M  V30 9571 C 896.785 -1.93835 3.04073 0
M  V30 9572 O 895.889 -3.02791 2.79985 0
M  V30 9573 H 895.23 -0.289123 0.597749 0
M  V30 9574 H 897.76 -0.286543 2.02584 0
M  V30 9575 H 897.77 -2.3557 3.33123 0
M  V30 9576 H 896.445 -1.36936 3.9271 0
M  V30 9577 H 895.022 -2.65287 2.62063 0
M  V30 9578 N 897.207 -1.48554 -0.526253 0
M  V30 9579 C 898.484 -1.47252 -1.28748 0
M  V30 9580 C 898.864 -0.186245 -2.10277 0
M  V30 9581 O 898.212 0.831954 -2.12816 0
M  V30 9582 C 898.422 -2.73672 -2.16575 0
M  V30 9583 C 899.77 -3.22151 -2.76593 0
M  V30 9584 O 900.794 -2.74614 -2.2686 0
M  V30 9585 O 899.653 -4.04877 -3.67066 0
M  V30 9586 H 896.747 -0.588242 -0.581292 0
M  V30 9587 H 899.293 -1.60792 -0.5426 0
M  V30 9588 H 898.065 -3.58798 -1.56139 0
M  V30 9589 H 897.688 -2.6287 -2.98304 0
M  V30 9590 N 898.685 0.775411 -1.37205 0
M  V30 9591 C 899.933 1.53081 -1.3195 0
M  V30 9592 C 900.254 1.9476 0.0966864 0
M  V30 9593 O 899.524 1.66019 1.03993 0
M  V30 9594 H 898.104 0.567762 -0.485444 0
M  V30 9595 H 900.766 0.92309 -1.71654 0
M  V30 9596 H 899.862 2.4319 -1.95614 0
M  V30 9597 N 900.163 1.21714 1.00117 0
M  V30 9598 C 901.41 1.0367 1.73951 0
M  V30 9599 C 901.738 -0.429289 1.89703 0
M  V30 9600 O 900.993 -1.33475 1.43119 0
M  V30 9601 C 901.292 1.68345 3.15269 0
M  V30 9602 C 900.958 3.18214 3.19454 0
M  V30 9603 C 899.62 3.59109 3.20303 0
M  V30 9604 C 901.972 4.14179 3.16394 0
M  V30 9605 C 899.3 4.94467 3.15783 0
M  V30 9606 C 901.652 5.49502 3.13416 0
M  V30 9607 C 900.316 5.8979 3.12577 0
M  V30 9608 H 899.586 0.379355 0.63653 0
M  V30 9609 H 902.233 1.51361 1.17312 0
M  V30 9610 H 900.538 1.12957 3.75164 0
M  V30 9611 H 902.235 1.51882 3.71124 0
M  V30 9612 H 898.825 2.85646 3.19538 0
M  V30 9613 H 903.009 3.83607 3.14895 0
M  V30 9614 H 898.265 5.24923 3.13473 0
M  V30 9615 H 902.439 6.23595 3.10003 0
M  V30 9616 H 900.066 6.94643 3.08829 0
M  V30 9617 N 901.641 -1.19671 1.02551 0
M  V30 9618 C 902.889 -1.88894 0.71858 0
M  V30 9619 C 903.21 -1.79797 -0.754856 0
M  V30 9620 O 902.48 -1.20621 -1.54362 0
M  V30 9621 H 901.06 -0.699244 0.262806 0
M  V30 9622 H 903.722 -1.45298 1.29902 0
M  V30 9623 H 902.818 -2.95309 1.00989 0
M  V30 9624 N 903.119 -0.802921 -1.35613 0
M  V30 9625 C 904.365 -0.382141 -1.99167 0
M  V30 9626 C 904.698 1.04704 -1.63556 0
M  V30 9627 O 903.973 1.72578 -0.89706 0
M  V30 9628 C 904.256 -0.561493 -3.55695 0
M  V30 9629 C 904.109 -2.03534 -4.01116 0
M  V30 9630 C 905.428 0.0151135 -4.40097 0
M  V30 9631 H 902.547 -0.140322 -0.723518 0
M  V30 9632 H 905.189 -1.01177 -1.6082 0
M  V30 9633 H 903.339 -0.0255083 -3.88492 0
M  V30 9634 H 905.011 -2.63343 -3.78746 0
M  V30 9635 H 903.254 -2.5331 -3.52159 0
M  V30 9636 H 903.925 -2.11173 -5.1001 0
M  V30 9637 H 906.401 -0.442582 -4.1374 0
M  V30 9638 H 905.277 -0.140316 -5.48721 0
M  V30 9639 H 905.538 1.10848 -4.27978 0
M  V30 9640 N 904.597 1.47463 -0.556102 0
M  V30 9641 C 905.845 2.02075 -0.0315712 0
M  V30 9642 C 906.166 1.43292 1.32259 0
M  V30 9643 O 905.436 0.60771 1.86236 0
M  V30 9644 H 904.016 0.74695 -0.0086816 0
M  V30 9645 H 906.678 1.80879 -0.725859 0
M  V30 9646 H 905.774 3.12047 0.0573538 0
M  V30 9647 N 906.075 0.2925 1.54862 0
M  V30 9648 C 907.305 -0.321646 2.04081 0
M  V30 9649 C 907.713 -1.48712 1.16967 0
M  V30 9650 O 907.056 -1.82755 0.18609 0
M  V30 9651 C 907.118 -0.848678 3.49339 0
M  V30 9652 C 906.782 0.190416 4.56603 0
M  V30 9653 C 907.779 1.01595 5.09877 0
M  V30 9654 C 905.464 0.329666 5.01217 0
M  V30 9655 C 907.458 1.96676 6.06298 0
M  V30 9656 C 905.145 1.28393 5.9746 0
M  V30 9657 C 906.143 2.10097 6.49883 0
M  V30 9658 O 905.831 3.03907 7.44242 0
M  V30 9659 H 905.563 -0.075098 0.671816 0
M  V30 9660 H 908.117 0.427531 2.00901 0
M  V30 9661 H 906.347 -1.64823 3.49815 0
M  V30 9662 H 908.036 -1.37779 3.81801 0
M  V30 9663 H 908.802 0.919197 4.7621 0
M  V30 9664 H 904.681 -0.296317 4.60047 0
M  V30 9665 H 908.225 2.60488 6.47141 0
M  V30 9666 H 904.122 1.38144 6.30545 0
M  V30 9667 H 904.89 2.98787 7.62016 0
M  V30 9668 N 907.553 -1.57587 0.0200696 0
M  V30 9669 C 908.516 -2.08595 -0.949767 0
M  V30 9670 C 909.516 -0.999215 -1.25985 0
M  V30 9671 O 910.706 -1.26115 -1.2017 0
M  V30 9672 C 907.838 -2.54424 -2.26895 0
M  V30 9673 H 909.031 -2.95563 -0.508161 0
M  V30 9674 H 906.584 -1.54631 -0.227798 0
M  V30 9675 H 907.319 -1.70758 -2.75703 0
M  V30 9676 H 907.104 -3.3381 -2.05702 0
M  V30 9677 H 908.594 -2.94144 -2.96427 0
M  V30 9678 N 909.032 0.252966 -1.55557 0
M  V30 9679 C 910.278 0.983306 -1.77367 0
M  V30 9680 C 910.611 1.85203 -0.584258 0
M  V30 9681 O 909.886 1.89963 0.417644 0
M  V30 9682 C 910.169 1.84896 -3.09007 0
M  V30 9683 C 910.022 1.00883 -4.38341 0
M  V30 9684 C 911.341 2.83254 -3.36831 0
M  V30 9685 H 908.46 0.356056 -0.645286 0
M  V30 9686 H 911.102 0.254232 -1.88291 0
M  V30 9687 H 909.252 2.47058 -2.99825 0
M  V30 9688 H 910.924 0.40638 -4.59507 0
M  V30 9689 H 909.167 0.31297 -4.3267 0
M  V30 9690 H 909.838 1.64818 -5.2682 0
M  V30 9691 H 912.314 2.31228 -3.45937 0
M  V30 9692 H 911.19 3.40949 -4.30169 0
M  V30 9693 H 911.451 3.59407 -2.57447 0
M  V30 9694 N 910.51 1.48831 0.518367 0
M  V30 9695 C 911.46 1.60614 1.61824 0
M  V30 9696 C 912.444 0.462631 1.54106 0
M  V30 9697 O 913.636 0.714689 1.6193 0
M  V30 9698 C 910.765 1.65984 3.00507 0
M  V30 9699 C 909.851 2.85854 3.13286 0
M  V30 9700 N 910.242 4.1014 2.96005 0
M  V30 9701 C 908.54 2.83429 3.4436 0
M  V30 9702 C 909.241 4.90626 3.12508 0
M  V30 9703 N 908.217 4.2366 3.40607 0
M  V30 9704 H 912.019 2.54443 1.47091 0
M  V30 9705 H 909.533 1.45363 0.724102 0
M  V30 9706 H 911.53 1.72521 3.79529 0
M  V30 9707 H 910.19 0.732792 3.16323 0
M  V30 9708 H 911.201 4.40395 2.72531 0
M  V30 9709 H 907.878 2.0003 3.66462 0
M  V30 9710 H 909.268 5.99302 3.03786 0
M  V30 9711 N 911.988 -0.768124 1.37614 0
M  V30 9712 C 913.265 -1.51637 1.23554 0
M  V30 9713 C 913.645 -2.1042 -0.169331 0
M  V30 9714 O 912.993 -1.95834 -1.17735 0
M  V30 9715 C 913.203 -2.59436 2.33439 0
M  V30 9716 C 914.551 -3.2674 2.71157 0
M  V30 9717 O 915.575 -2.69733 2.32642 0
M  V30 9718 O 914.434 -4.29814 3.37524 0
M  V30 9719 H 911.528 -0.671778 0.482332 0
M  V30 9720 H 914.074 -0.804779 1.49403 0
M  V30 9721 H 912.846 -2.14146 3.27502 0
M  V30 9722 H 912.469 -3.38192 2.09073 0
M  V30 9723 N 913.466 -1.22244 -0.994698 0
M  V30 9724 C 914.414 -0.988118 -2.10568 0
M  V30 9725 C 915.408 0.0681541 -1.69263 0
M  V30 9726 O 916.614 -0.0841311 -1.79803 0
M  V30 9727 H 912.989 -0.302343 -0.688544 0
M  V30 9728 H 914.96 -1.93091 -2.27505 0
M  V30 9729 C 913.709 -0.580557 -3.42819 0
M  V30 9730 H 913.032 -1.385 -3.75044 0
M  V30 9731 H 914.472 -0.456004 -4.21541 0
M  V30 9732 C 912.931 0.709692 -3.2934 0
M  V30 9733 O 913.461 1.76259 -3.60965 0
M  V30 9734 N 911.667 0.680155 -2.82528 0
M  V30 9735 H 911.214 -0.176977 -2.56991 0
M  V30 9736 H 911.172 1.54372 -2.73892 0
M  V30 9737 N 914.944 1.19125 -1.03184 0
M  V30 9738 C 916.19 1.89428 -0.740857 0
M  V30 9739 C 916.545 1.78302 0.72291 0
M  V30 9740 O 915.838 1.16656 1.51994 0
M  V30 9741 C 916.032 3.39052 -1.13041 0
M  V30 9742 C 915.861 3.64739 -2.6305 0
M  V30 9743 C 914.631 3.82603 -3.30066 0
M  V30 9744 C 916.829 3.66052 -3.61262 0
M  V30 9745 N 914.811 3.95947 -4.69147 0
M  V30 9746 C 916.182 3.85003 -4.85976 0
M  V30 9747 C 918.237 3.49093 -3.55019 0
M  V30 9748 C 916.94 3.88753 -6.05197 0
M  V30 9749 C 918.966 3.54122 -4.73658 0
M  V30 9750 C 918.328 3.73561 -5.97187 0
M  V30 9751 H 914.427 0.71217 -0.323014 0
M  V30 9752 H 917.011 1.43146 -1.31974 0
M  V30 9753 H 915.182 3.8405 -0.579699 0
M  V30 9754 H 916.914 3.96887 -0.791369 0
M  V30 9755 H 913.669 3.81615 -2.80476 0
M  V30 9756 H 914.093 4.06461 -5.41404 0
M  V30 9757 H 918.735 3.33018 -2.60497 0
M  V30 9758 H 916.453 4.03619 -7.00084 0
M  V30 9759 H 920.039 3.42286 -4.70459 0
M  V30 9760 H 918.919 3.7733 -6.87453 0
M  V30 9761 N 916.422 0.810101 1.35185 0
M  V30 9762 C 917.671 0.388589 1.97921 0
M  V30 9763 C 917.984 -1.05079 1.64978 0
M  V30 9764 O 919.19 -1.57559 2.21105 0
M  V30 9765 C 917.646 0.643864 3.54094 0
M  V30 9766 C 917.254 2.09602 3.95943 0
M  V30 9767 C 918.998 0.287883 4.23523 0
M  V30 9768 C 916.905 2.29686 5.44976 0
M  V30 9769 H 915.835 0.141562 0.740592 0
M  V30 9770 H 918.486 0.994653 1.54204 0
M  V30 9771 H 916.868 -0.0321978 3.95987 0
M  V30 9772 H 918.042 2.81018 3.65192 0
M  V30 9773 H 916.357 2.4122 3.39414 0
M  V30 9774 H 918.954 0.415946 5.3308 0
M  V30 9775 H 919.297 -0.766305 4.09186 0
M  V30 9776 H 919.83 0.918004 3.87063 0
M  V30 9777 H 916.569 3.33563 5.64284 0
M  V30 9778 H 916.089 1.62798 5.77284 0
M  V30 9779 H 917.768 2.11411 6.11485 0
M  V30 9780 N 917.9 -1.47166 0.563914 0
M  V30 9781 C 919.148 -2.02056 0.0422873 0
M  V30 9782 C 919.469 -1.43992 -1.31497 0
M  V30 9783 O 918.739 -0.617578 -1.85911 0
M  V30 9784 H 917.319 -0.746893 0.0126427 0
M  V30 9785 H 919.981 -1.80492 0.735441 0
M  V30 9786 H 919.077 -3.12073 -0.0408044 0
M  V30 9787 N 919.378 -0.300708 -1.54705 0
M  V30 9788 C 920.618 0.30953 -2.02043 0
M  V30 9789 C 920.982 1.51114 -1.18442 0
M  V30 9790 O 922.183 2.19273 -1.55477 0
M  V30 9791 C 920.454 0.657489 -3.513 0
M  V30 9792 S 922.013 1.25063 -4.206 0
M  V30 9793 H 918.831 0.0950019 -0.704624 0
M  V30 9794 H 921.433 -0.428512 -1.90746 0
M  V30 9795 H 920.137 -0.225532 -4.0978 0
M  V30 9796 H 919.668 1.42633 -3.66633 0
M  V30 9797 H 921.683 2.53844 -4.26354 0
M  V30 9798 N 920.856 1.57574 -0.0284266 0
M  V30 9799 C 921.804 2.11332 0.971675 0
M  V30 9800 C 922.798 1.03974 1.33738 0
M  V30 9801 O 924.004 1.22409 1.31969 0
M  V30 9802 H 920.379 0.675174 0.331125 0
M  V30 9803 H 922.35 2.943 0.49296 0
M  V30 9804 C 921.099 2.65496 2.24516 0
M  V30 9805 H 920.422 3.47753 1.9725 0
M  V30 9806 H 921.862 3.06757 2.92705 0
M  V30 9807 C 920.321 1.58207 2.97443 0
M  V30 9808 O 920.851 0.981496 3.89525 0
M  V30 9809 N 919.057 1.30269 2.59766 0
M  V30 9810 H 918.604 1.79294 1.84963 0
M  V30 9811 H 918.562 0.587085 3.0887 0
M  V30 9812 N 922.334 -0.244713 1.55689 0
M  V30 9813 C 923.58 -0.973886 1.77886 0
M  V30 9814 C 923.913 -1.8489 0.594071 0
M  V30 9815 O 923.188 -1.90182 -0.407564 0
M  V30 9816 C 923.471 -1.83255 3.09983 0
M  V30 9817 C 923.324 -0.985571 4.3887 0
M  V30 9818 C 924.643 -2.81464 3.38329 0
M  V30 9819 H 921.762 -0.352629 0.647165 0
M  V30 9820 H 924.404 -0.244243 1.88424 0
M  V30 9821 H 922.554 -2.45464 3.01131 0
M  V30 9822 H 924.226 -0.382005 4.59716 0
M  V30 9823 H 922.469 -0.29002 4.32829 0
M  V30 9824 H 923.14 -1.62022 5.27686 0
M  V30 9825 H 925.616 -2.2939 3.47159 0
M  V30 9826 H 924.492 -3.38663 4.31971 0
M  V30 9827 H 924.753 -3.58037 2.59349 0
M  V30 9828 N 923.813 -1.49104 -0.510467 0
M  V30 9829 C 925.038 -1.62068 -1.29417 0
M  V30 9830 C 925.463 -0.288432 -1.85875 0
M  V30 9831 O 924.821 0.742667 -1.65391 0
M  V30 9832 C 924.869 -2.68506 -2.40701 0
M  V30 9833 O 923.973 -2.27021 -3.4429 0
M  V30 9834 H 923.314 -0.542778 -0.382476 0
M  V30 9835 H 925.844 -1.95228 -0.612154 0
M  V30 9836 H 925.854 -2.90383 -2.86604 0
M  V30 9837 H 924.529 -3.65216 -1.98973 0
M  V30 9838 H 923.106 -2.15436 -3.04371 0
M  V30 9839 N 925.291 0.760815 -1.38019 0
M  V30 9840 C 926.516 1.55513 -1.37224 0
M  V30 9841 C 926.941 1.88062 0.037611 0
M  V30 9842 O 926.299 1.50042 1.0177 0
M  V30 9843 C 926.347 2.83539 -2.22796 0
M  V30 9844 O 925.451 3.78384 -1.64009 0
M  V30 9845 H 924.792 0.470642 -0.468393 0
M  V30 9846 H 927.322 0.940792 -1.81687 0
M  V30 9847 H 927.332 3.32535 -2.36399 0
M  V30 9848 H 926.007 2.59178 -3.25269 0
M  V30 9849 H 924.584 3.37063 -1.59508 0
M  V30 9850 N 926.769 1.22769 0.988202 0
M  V30 9851 C 927.999 1.07998 1.76125 0
M  V30 9852 C 928.407 -0.372062 1.85506 0
M  V30 9853 O 927.75 -1.26946 1.3278 0
M  V30 9854 C 927.812 1.6219 3.20834 0
M  V30 9855 C 927.476 3.1086 3.34986 0
M  V30 9856 C 928.473 4.08239 3.21927 0
M  V30 9857 C 926.158 3.50411 3.59886 0
M  V30 9858 C 928.152 5.43154 3.33561 0
M  V30 9859 C 925.839 4.85473 3.71159 0
M  V30 9860 C 926.837 5.81653 3.58006 0
M  V30 9861 O 926.525 7.14263 3.68895 0
M  V30 9862 H 926.257 0.378937 0.559806 0
M  V30 9863 H 928.811 1.62925 1.25078 0
M  V30 9864 H 927.041 1.01676 3.73094 0
M  V30 9865 H 928.73 1.43011 3.79872 0
M  V30 9866 H 929.496 3.79025 3.02597 0
M  V30 9867 H 925.375 2.76068 3.69198 0
M  V30 9868 H 928.919 6.18207 3.23211 0
M  V30 9869 H 924.816 5.14365 3.89998 0
M  V30 9870 H 925.584 7.21906 3.85739 0
M  V30 9871 N 928.247 -1.18576 1.03814 0
M  V30 9872 C 929.658 -1.70159 0.768299 0
M  V30 9873 C 930.009 -1.8286 -0.711106 0
M  V30 9874 O 929.134 -1.5063 -1.55369 0
M  V30 9875 C 929.729 -3.09062 1.38804 0
M  V30 9876 C 928.288 -3.57866 1.16656 0
M  V30 9877 C 927.435 -2.34484 1.48029 0
M  V30 9878 H 930.386 -1.03287 1.20488 0
M  V30 9879 H 930.407 -3.72211 0.7899 0
M  V30 9880 H 929.919 -2.99785 2.46476 0
M  V30 9881 H 928.02 -3.72442 0.108471 0
M  V30 9882 H 928.133 -4.41445 1.8618 0
M  V30 9883 H 926.497 -2.38273 0.899902 0
M  V30 9884 H 927.28 -2.27829 2.56805 0
M  V30 9885 N 929.725 -0.817259 -1.34754 0
M  V30 9886 C 930.973 -0.401852 -1.98065 0
M  V30 9887 C 931.294 1.03718 -1.65129 0
M  V30 9888 O 930.564 1.71921 -0.939141 0
M  V30 9889 H 929.144 -0.145603 -0.732672 0
M  V30 9890 H 931.806 -1.04545 -1.64488 0
M  V30 9891 H 930.902 -0.516241 -3.07801 0
M  V30 9892 N 931.203 1.46865 -0.571711 0
M  V30 9893 C 932.619 1.57897 -0.23255 0
M  V30 9894 C 932.819 1.56836 1.26509 0
M  V30 9895 O 931.875 1.47947 2.04617 0
M  V30 9896 C 933.188 2.87778 -0.872036 0
M  V30 9897 C 934.736 3.01389 -0.844605 0
M  V30 9898 C 935.211 4.33991 -1.46343 0
M  V30 9899 N 936.702 4.40662 -1.42727 0
M  V30 9900 C 937.437 5.41858 -1.87557 0
M  V30 9901 N 936.933 6.49787 -2.4031 0
M  V30 9902 N 938.726 5.32992 -1.7854 0
M  V30 9903 H 930.877 1.45798 -1.54457 0
M  V30 9904 H 933.14 0.694785 -0.644964 0
M  V30 9905 H 932.846 2.94332 -1.92513 0
M  V30 9906 H 932.72 3.75345 -0.373677 0
M  V30 9907 H 935.107 2.94423 0.19984 0
M  V30 9908 H 935.188 2.15327 -1.38087 0
M  V30 9909 H 934.832 4.41714 -2.50701 0
M  V30 9910 H 934.762 5.18809 -0.902479 0
M  V30 9911 H 937.253 3.63263 -1.04155 0
M  V30 9912 H 937.566 7.23199 -2.72403 0
M  V30 9913 H 935.911 6.50637 -2.44329 0
M  V30 9914 H 939.102 4.47575 -1.37093 0
M  V30 9915 H 939.275 6.11716 -2.13794 0
M  V30 9916 N 932.681 0.308908 1.54543 0
M  V30 9917 C 933.629 -0.579326 2.2527 0
M  V30 9918 C 934.623 -1.13058 1.26152 0
M  V30 9919 O 935.829 -1.08031 1.43977 0
M  V30 9920 H 932.204 -0.205444 0.723392 0
M  V30 9921 H 934.175 0.0396415 2.98374 0
M  V30 9922 C 932.924 -1.73584 3.01271 0
M  V30 9923 H 932.247 -1.32089 3.77349 0
M  V30 9924 H 933.687 -2.33324 3.54028 0
M  V30 9925 C 932.146 -2.6447 2.08703 0
M  V30 9926 O 932.676 -3.65785 1.66025 0
M  V30 9927 N 930.882 -2.32379 1.74495 0
M  V30 9928 H 930.429 -1.50034 2.09398 0
M  V30 9929 H 930.387 -2.93454 1.12836 0
M  V30 9930 N 934.159 -1.57557 0.0367827 0
M  V30 9931 C 935.122 -2.09591 -0.927589 0
M  V30 9932 C 936.122 -1.01252 -1.24919 0
M  V30 9933 O 937.312 -1.27382 -1.18825 0
M  V30 9934 C 934.444 -2.56816 -2.24184 0
M  V30 9935 H 935.637 -2.96086 -0.476784 0
M  V30 9936 H 933.19 -1.54864 -0.211385 0
M  V30 9937 H 933.925 -1.73673 -2.73876 0
M  V30 9938 H 933.71 -3.35973 -2.0215 0
M  V30 9939 H 935.2 -2.97271 -2.93291 0
M  V30 9940 N 935.637 0.236453 -1.55816 0
M  V30 9941 C 937.053 0.585465 -1.48474 0
M  V30 9942 C 937.253 1.8785 -0.72902 0
M  V30 9943 O 936.309 2.51131 -0.262614 0
M  V30 9944 C 937.622 0.678506 -2.92945 0
M  V30 9945 C 939.17 0.770135 -3.03378 0
M  V30 9946 C 939.645 0.894649 -4.49177 0
M  V30 9947 N 941.136 0.959253 -4.53158 0
M  V30 9948 C 941.871 1.07505 -5.63232 0
M  V30 9949 N 941.367 1.15572 -6.83092 0
M  V30 9950 N 943.16 1.10902 -5.51051 0
M  V30 9951 H 935.311 -0.612241 -2.03385 0
M  V30 9952 H 937.574 -0.212796 -0.923808 0
M  V30 9953 H 937.28 -0.201757 -3.51121 0
M  V30 9954 H 937.154 1.54703 -3.44016 0
M  V30 9955 H 939.541 1.64085 -2.45276 0
M  V30 9956 H 939.622 -0.123753 -2.555 0
M  V30 9957 H 939.266 0.0284537 -5.07892 0
M  V30 9958 H 939.196 1.80373 -4.94745 0
M  V30 9959 H 941.687 0.907827 -3.66834 0
M  V30 9960 H 942 1.24343 -7.62731 0
M  V30 9961 H 940.345 1.12511 -6.85833 0
M  V30 9962 H 943.536 1.04255 -4.56343 0
M  V30 9963 H 943.709 1.19581 -6.36871 0
M  V30 9964 N 937.115 1.49373 0.502552 0
M  V30 9965 C 938.025 1.68659 1.63068 0
M  V30 9966 C 939.041 0.569182 1.64427 0
M  V30 9967 O 940.217 0.843695 1.82876 0
M  V30 9968 C 937.282 1.74745 2.99441 0
M  V30 9969 C 936.343 2.98311 3.08721 0
M  V30 9970 C 935.576 3.04097 4.38589 0
M  V30 9971 O 935.799 2.17519 5.27297 0
M  V30 9972 O 934.733 3.96544 4.52809 0
M  V30 9973 H 938.559 2.64226 1.49727 0
M  V30 9974 H 936.144 1.33096 0.67867 0
M  V30 9975 H 938.026 1.8111 3.80496 0
M  V30 9976 H 936.701 0.823565 3.13048 0
M  V30 9977 H 935.608 2.97465 2.2686 0
M  V30 9978 H 936.941 3.90174 3.00041 0
M  V30 9979 N 938.594 -0.753485 1.38421 0
M  V30 9980 C 939.841 -1.51261 1.34634 0
M  V30 9981 C 940.169 -1.94396 -0.0635771 0
M  V30 9982 O 939.424 -1.65736 -1.04068 0
M  V30 9983 C 939.723 -2.77836 2.24816 0
M  V30 9984 C 939.389 -2.53662 3.72782 0
M  V30 9985 C 938.051 -2.46779 4.13103 0
M  V30 9986 C 940.403 -2.32548 4.66445 0
M  V30 9987 C 937.731 -2.16796 5.45176 0
M  V30 9988 C 940.083 -2.04085 5.98775 0
M  V30 9989 C 938.747 -1.95658 6.3818 0
M  V30 9990 H 938.017 -0.553503 0.492661 0
M  V30 9991 H 940.664 -0.866406 1.7078 0
M  V30 9992 H 938.969 -3.47106 1.81726 0
M  V30 9993 H 940.666 -3.35793 2.19189 0
M  V30 9994 H 937.256 -2.59891 3.40815 0
M  V30 9995 H 941.44 -2.36845 4.3614 0
M  V30 9996 H 936.696 -2.0878 5.74648 0
M  V30 9997 H 940.87 -1.86751 6.70893 0
M  V30 9998 H 938.497 -1.7219 7.40442 0
M  V30 9999 N 940.072 -1.23292 -0.981677 0
M  V30 10000 C 941.002 -1.03738 -2.09191 0
M  V30 10001 C 941.983 0.0453041 -1.7004 0
M  V30 10002 O 943.168 -0.119092 -1.93834 0
M  V30 10003 C 940.298 -0.626426 -3.41604 0
M  V30 10004 C 939.252 -1.65631 -3.94652 0
M  V30 10005 C 938.578 -1.10084 -5.23245 0
M  V30 10006 C 939.878 -3.04903 -4.24066 0
M  V30 10007 H 941.572 -1.966 -2.25807 0
M  V30 10008 H 939.118 -0.946656 -1.0851 0
M  V30 10009 H 941.071 -0.476689 -4.18695 0
M  V30 10010 H 939.795 0.337873 -3.24848 0
M  V30 10011 H 938.454 -1.79402 -3.19704 0
M  V30 10012 H 938.102 -0.127562 -5.02838 0
M  V30 10013 H 937.802 -1.78896 -5.59705 0
M  V30 10014 H 939.326 -0.962928 -6.02959 0
M  V30 10015 H 940.74 -2.94441 -4.91912 0
M  V30 10016 H 939.137 -3.70941 -4.71724 0
M  V30 10017 H 940.207 -3.53991 -3.31389 0
M  V30 10018 N 941.55 1.18024 -1.04442 0
M  V30 10019 C 942.482 2.21294 -0.596799 0
M  V30 10020 C 943.495 1.59305 0.33552 0
M  V30 10021 O 944.684 1.7803 0.129443 0
M  V30 10022 C 941.784 3.38578 0.147648 0
M  V30 10023 C 940.957 4.30143 -0.793484 0
M  V30 10024 C 940.016 5.2612 -0.0916561 0
M  V30 10025 O 939.042 5.64586 -0.72331 0
M  V30 10026 N 940.244 5.68512 1.17364 0
M  V30 10027 H 943.009 2.6032 -1.48504 0
M  V30 10028 H 940.57 1.32847 -0.925374 0
M  V30 10029 H 942.562 3.99812 0.627098 0
M  V30 10030 H 941.132 2.98212 0.937466 0
M  V30 10031 H 940.352 3.66456 -1.45272 0
M  V30 10032 H 941.64 4.88216 -1.43258 0
M  V30 10033 H 941.038 5.39322 1.70729 0
M  V30 10034 H 939.595 6.31925 1.5973 0
M  V30 10035 N 943.028 0.824394 1.34319 0
M  V30 10036 C 944.268 0.419044 2.00058 0
M  V30 10037 C 944.632 -0.999504 1.63933 0
M  V30 10038 O 945.833 -1.50781 2.22527 0
M  V30 10039 C 944.104 0.616897 3.52036 0
M  V30 10040 S 945.663 0.304614 4.37741 0
M  V30 10041 H 942.481 0.158265 0.693162 0
M  V30 10042 H 945.083 1.07053 1.63585 0
M  V30 10043 H 943.787 1.64896 3.75816 0
M  V30 10044 H 943.318 -0.0492693 3.93369 0
M  V30 10045 H 945.333 -0.88114 4.88314 0
M  V30 10046 N 944.506 -1.46559 0.579492 0
M  V30 10047 C 945.752 -2.02699 0.0639363 0
M  V30 10048 C 946.085 -1.4504 -1.29139 0
M  V30 10049 O 945.36 -0.614284 -1.84545 0
M  V30 10050 C 945.643 -3.601 -0.00528618 0
M  V30 10051 C 945.496 -4.28149 1.37871 0
M  V30 10052 C 946.815 -4.34375 -0.707537 0
M  V30 10053 H 943.934 -0.736586 0.0247085 0
M  V30 10054 H 946.576 -1.74739 0.746071 0
M  V30 10055 H 944.726 -3.84052 -0.586206 0
M  V30 10056 H 946.398 -4.1547 2.00455 0
M  V30 10057 H 944.641 -3.87636 1.94732 0
M  V30 10058 H 945.312 -5.36888 1.28278 0
M  V30 10059 H 947.788 -4.15549 -0.214064 0
M  V30 10060 H 946.664 -5.44091 -0.724992 0
M  V30 10061 H 946.925 -4.052 -1.7682 0
M  V30 10062 N 945.984 -0.3171 -1.54377 0
M  V30 10063 C 946.894 0.560867 -2.27797 0
M  V30 10064 C 947.91 1.13473 -1.31908 0
M  V30 10065 O 949.086 1.15608 -1.64914 0
M  V30 10066 C 946.151 1.70886 -3.0166 0
M  V30 10067 C 945.212 1.16745 -4.13121 0
M  V30 10068 C 944.445 2.26073 -4.83453 0
M  V30 10069 O 944.668 3.46292 -4.53252 0
M  V30 10070 O 943.602 1.91856 -5.70504 0
M  V30 10071 H 947.428 -0.035193 -3.0368 0
M  V30 10072 H 945.013 -0.0830062 -1.49169 0
M  V30 10073 H 946.895 2.37736 -3.47936 0
M  V30 10074 H 945.57 2.29122 -2.28658 0
M  V30 10075 H 944.477 0.464224 -3.71209 0
M  V30 10076 H 945.81 0.630307 -4.88147 0
M  V30 10077 N 947.462 1.57535 -0.0451378 0
M  V30 10078 C 948.409 2.11176 0.931313 0
M  V30 10079 C 949.379 1.01765 1.31275 0
M  V30 10080 O 950.564 1.29279 1.40327 0
M  V30 10081 C 947.704 2.65639 2.20295 0
M  V30 10082 C 946.817 3.89114 1.87654 0
M  V30 10083 C 945.952 4.31914 3.09232 0
M  V30 10084 C 944.991 5.48105 2.72484 0
M  V30 10085 N 944.128 5.85986 3.86736 0
M  V30 10086 H 948.968 2.94318 0.466986 0
M  V30 10087 H 946.505 1.45462 0.218886 0
M  V30 10088 H 948.463 2.95312 2.94697 0
M  V30 10089 H 947.093 1.85303 2.64316 0
M  V30 10090 H 946.145 3.6607 1.03427 0
M  V30 10091 H 947.457 4.7358 1.56601 0
M  V30 10092 H 946.611 4.63108 3.91939 0
M  V30 10093 H 945.35 3.46247 3.43459 0
M  V30 10094 H 944.355 5.16589 1.88192 0
M  V30 10095 H 945.58 6.35482 2.39455 0
M  V30 10096 H 943.526 5.03273 4.20775 0
M  V30 10097 H 943.443 6.65129 3.5936 0
M  V30 10098 H 944.711 6.21793 4.701 0
M  V30 10099 N 948.94 -0.228186 1.55939 0
M  V30 10100 C 949.903 -1.26621 1.91049 0
M  V30 10101 C 950.903 -1.40141 0.788491 0
M  V30 10102 O 952.093 -1.3852 1.05631 0
M  V30 10103 C 949.225 -2.64108 2.15545 0
M  V30 10104 H 950.418 -0.966978 2.83883 0
M  V30 10105 H 947.971 -0.468313 1.49119 0
M  V30 10106 H 948.706 -2.99141 1.25241 0
M  V30 10107 H 948.491 -2.55673 2.97277 0
M  V30 10108 H 949.981 -3.39025 2.43827 0
M  V30 10109 N 950.418 -1.49637 -0.494624 0
M  V30 10110 C 951.348 -1.69692 -1.60396 0
M  V30 10111 C 952.329 -0.545648 -1.61111 0
M  V30 10112 O 953.514 -0.782202 -1.77751 0
M  V30 10113 C 950.644 -1.76934 -2.9885 0
M  V30 10114 C 949.598 -2.91915 -3.13001 0
M  V30 10115 C 948.924 -2.84276 -4.5287 0
M  V30 10116 C 950.224 -4.32764 -2.92426 0
M  V30 10117 H 951.918 -2.6257 -1.43866 0
M  V30 10118 H 949.464 -1.26355 -0.690679 0
M  V30 10119 H 951.417 -1.8955 -3.76362 0
M  V30 10120 H 950.141 -0.806609 -3.16483 0
M  V30 10121 H 948.8 -2.78911 -2.37916 0
M  V30 10122 H 948.448 -1.85897 -4.67388 0
M  V30 10123 H 948.148 -3.61452 -4.63278 0
M  V30 10124 H 949.672 -2.98909 -5.32434 0
M  V30 10125 H 951.086 -4.46415 -3.59703 0
M  V30 10126 H 949.483 -5.1121 -3.143 0
M  V30 10127 H 950.553 -4.46765 -1.88491 0
M  V30 10128 N 951.896 0.746133 -1.38819 0
M  V30 10129 C 952.806 1.89063 -1.38897 0
M  V30 10130 C 953.822 1.71648 -0.28513 0
M  V30 10131 O 954.998 1.94443 -0.524783 0
M  V30 10132 C 952.063 3.24523 -1.22007 0
M  V30 10133 C 951.124 3.54411 -2.42263 0
M  V30 10134 C 950.357 4.83408 -2.26169 0
M  V30 10135 O 950.58 5.56325 -1.25931 0
M  V30 10136 O 949.514 5.12943 -3.14918 0
M  V30 10137 H 953.34 1.91951 -2.35347 0
M  V30 10138 H 950.925 0.892433 -1.19816 0
M  V30 10139 H 952.807 4.05496 -1.14677 0
M  V30 10140 H 951.482 3.2243 -0.286455 0
M  V30 10141 H 950.389 2.73569 -2.55168 0
M  V30 10142 H 951.722 3.61273 -3.3428 0
M  V30 10143 N 953.375 1.23811 0.975125 0
M  V30 10144 C 954.652 0.9815 1.69192 0
M  V30 10145 C 955.032 -0.498373 2.05133 0
M  V30 10146 O 954.38 -1.47087 1.74864 0
M  V30 10147 C 954.59 1.89701 2.92941 0
M  V30 10148 C 955.938 2.16357 3.65342 0
M  V30 10149 O 956.962 1.87293 3.02985 0
M  V30 10150 O 955.821 2.65675 4.77576 0
M  V30 10151 H 952.915 0.370599 0.739314 0
M  V30 10152 H 955.461 1.34876 1.02988 0
M  V30 10153 H 954.233 2.89719 2.63018 0
M  V30 10154 H 953.856 1.53244 3.66881 0
M  V30 10155 N 954.853 -1.17469 1.05066 0
M  V30 10156 C 955.786 -2.2031 0.594863 0
M  V30 10157 C 956.764 -1.58196 -0.375878 0
M  V30 10158 O 957.948 -1.8629 -0.287798 0
M  V30 10159 C 955.075 -3.38452 -0.129614 0
M  V30 10160 C 954.121 -4.19007 0.795943 0
M  V30 10161 S 954.954 -4.8433 2.28441 0
M  V30 10162 C 956.11 -6.05862 1.57107 0
M  V30 10163 H 956.343 -2.58632 1.46618 0
M  V30 10164 H 953.876 -1.28063 0.862511 0
M  V30 10165 H 955.834 -4.06914 -0.541416 0
M  V30 10166 H 954.495 -2.98521 -0.976948 0
M  V30 10167 H 953.688 -5.0345 0.235396 0
M  V30 10168 H 953.29 -3.55976 1.14705 0
M  V30 10169 H 955.582 -6.71895 0.86969 0
M  V30 10170 H 956.525 -6.66442 2.39292 0
M  V30 10171 H 956.933 -5.54477 1.05903 0
M  V30 10172 N 956.331 -0.831506 -1.3388 0
M  V30 10173 C 957.578 -0.423674 -1.98018 0
M  V30 10174 C 957.906 1.01533 -1.65895 0
M  V30 10175 O 957.161 1.72342 -0.927183 0
M  V30 10176 C 957.46 -0.582733 -3.52617 0
M  V30 10177 C 957.126 -1.98874 -4.04673 0
M  V30 10178 C 955.788 -2.37334 -4.186 0
M  V30 10179 C 958.14 -2.90745 -4.3257 0
M  V30 10180 C 955.468 -3.66984 -4.57755 0
M  V30 10181 C 957.82 -4.19868 -4.73174 0
M  V30 10182 C 956.484 -4.58294 -4.85307 0
M  V30 10183 H 955.754 -0.155033 -0.7246 0
M  V30 10184 H 958.401 -1.05711 -1.59679 0
M  V30 10185 H 956.706 0.134052 -3.91571 0
M  V30 10186 H 958.403 -0.247576 -4.00235 0
M  V30 10187 H 954.993 -1.68001 -3.94301 0
M  V30 10188 H 959.177 -2.62272 -4.2134 0
M  V30 10189 H 954.433 -3.9657 -4.65341 0
M  V30 10190 H 958.607 -4.91138 -4.93717 0
M  V30 10191 H 956.234 -5.58805 -5.15404 0
M  V30 10192 N 957.809 1.4625 -0.587256 0
M  V30 10193 C 959.086 1.95599 -0.00750181 0
M  V30 10194 C 959.466 1.52989 1.45457 0
M  V30 10195 O 958.814 0.782731 2.14676 0
M  V30 10196 C 959.024 3.48513 -0.184309 0
M  V30 10197 C 960.372 4.24565 -0.0544972 0
M  V30 10198 O 961.396 3.5602 -0.113378 0
M  V30 10199 O 960.255 5.46445 0.0774075 0
M  V30 10200 H 957.349 0.825649 0.0472495 0
M  V30 10201 H 959.895 1.56512 -0.655893 0
M  V30 10202 H 958.667 3.72428 -1.20053 0
M  V30 10203 H 958.29 3.9444 0.500301 0
M  V30 10204 N 959.287 0.325282 1.54207 0
M  V30 10205 C 960.25 -0.527228 2.23054 0
M  V30 10206 C 961.25 -1.04217 1.22456 0
M  V30 10207 O 962.44 -0.934325 1.47024 0
M  V30 10208 C 959.572 -1.7325 2.93594 0
M  V30 10209 H 960.765 0.0746423 2.99807 0
M  V30 10210 H 958.318 0.0763872 1.56113 0
M  V30 10211 H 959.053 -2.37356 2.20981 0
M  V30 10212 H 958.838 -1.37065 3.67363 0
M  V30 10213 H 960.328 -2.3376 3.46043 0
M  V30 10214 N 960.765 -1.57509 0.0534917 0
M  V30 10215 C 961.695 -2.14698 -0.917999 0
M  V30 10216 C 962.676 -1.06924 -1.32292 0
M  V30 10217 O 963.861 -1.34875 -1.39723 0
M  V30 10218 C 960.991 -2.69383 -2.19203 0
M  V30 10219 C 959.945 -3.82161 -1.9271 0
M  V30 10220 C 959.271 -4.23373 -3.26587 0
M  V30 10221 C 960.571 -5.07199 -1.24686 0
M  V30 10222 H 962.265 -2.96125 -0.44165 0
M  V30 10223 H 959.811 -1.42446 -0.210993 0
M  V30 10224 H 961.764 -3.08031 -2.87567 0
M  V30 10225 H 960.488 -1.85151 -2.69048 0
M  V30 10226 H 959.147 -3.43989 -1.26757 0
M  V30 10227 H 958.795 -3.36089 -3.74237 0
M  V30 10228 H 958.495 -4.99385 -3.09658 0
M  V30 10229 H 960.019 -4.64623 -3.96178 0
M  V30 10230 H 961.433 -5.43279 -1.83088 0
M  V30 10231 H 959.83 -5.88369 -1.18076 0
M  V30 10232 H 960.9 -4.84386 -0.223227 0
M  V30 10233 N 962.243 0.219913 -1.56058 0
M  V30 10234 C 963.153 1.29349 -1.95719 0
M  V30 10235 C 964.169 1.5119 -0.861248 0
M  V30 10236 O 965.345 1.64289 -1.16495 0
M  V30 10237 C 962.41 2.6229 -2.26726 0
M  V30 10238 C 961.471 2.48738 -3.49897 0
M  V30 10239 C 960.704 3.75339 -3.79416 0
M  V30 10240 O 960.927 4.78427 -3.10586 0
M  V30 10241 O 959.861 3.72352 -4.72903 0
M  V30 10242 H 963.687 0.986979 -2.87215 0
M  V30 10243 H 961.272 0.42291 -1.43289 0
M  V30 10244 H 963.154 3.408 -2.47857 0
M  V30 10245 H 961.829 2.92619 -1.38404 0
M  V30 10246 H 960.736 1.68422 -3.34043 0
M  V30 10247 H 962.069 2.23347 -4.38608 0
M  V30 10248 N 963.721 1.49897 0.486681 0
M  V30 10249 C 964.969 1.59789 1.23742 0
M  V30 10250 C 965.29 0.293056 1.92785 0
M  V30 10251 O 964.56 -0.688534 1.83401 0
M  V30 10252 H 963.14 0.588775 0.459731 0
M  V30 10253 H 965.802 1.86597 0.562808 0
M  V30 10254 H 964.898 2.40121 1.9937 0
M  V30 10255 N 965.199 -0.738761 1.39212 0
M  V30 10256 C 966.146 -1.85273 1.37631 0
M  V30 10257 C 967.116 -1.64407 0.236572 0
M  V30 10258 O 968.301 -1.85866 0.431104 0
M  V30 10259 C 965.441 -3.22745 1.22188 0
M  V30 10260 C 964.554 -3.55342 2.45674 0
M  V30 10261 C 963.689 -4.82195 2.22847 0
M  V30 10262 C 962.728 -5.07625 3.42029 0
M  V30 10263 N 961.865 -6.25679 3.18543 0
M  V30 10264 H 966.705 -1.85959 2.32859 0
M  V30 10265 H 964.242 -0.908716 1.15675 0
M  V30 10266 H 966.2 -4.02095 1.11245 0
M  V30 10267 H 964.83 -3.21347 0.30592 0
M  V30 10268 H 963.882 -2.70722 2.67233 0
M  V30 10269 H 965.194 -3.70054 3.34457 0
M  V30 10270 H 964.348 -5.69518 2.09126 0
M  V30 10271 H 963.087 -4.6965 1.31454 0
M  V30 10272 H 962.092 -4.18765 3.56253 0
M  V30 10273 H 963.317 -5.22058 4.34319 0
M  V30 10274 H 961.263 -6.14429 2.2981 0
M  V30 10275 H 961.18 -6.40961 4.0088 0
M  V30 10276 H 962.448 -7.15851 3.08508 0
M  V30 10277 N 966.677 -1.24326 -0.968545 0
M  V30 10278 C 967.902 -1.1104 -1.75171 0
M  V30 10279 C 968.327 0.333109 -1.85127 0
M  V30 10280 O 967.685 1.24115 -1.32156 0
M  V30 10281 C 967.733 -1.75397 -3.15068 0
M  V30 10282 O 966.837 -1.02417 -3.9948 0
M  V30 10283 H 966.178 -0.388488 -0.538491 0
M  V30 10284 H 968.708 -1.64617 -1.215 0
M  V30 10285 H 968.718 -1.8112 -3.65595 0
M  V30 10286 H 967.393 -2.80427 -3.07138 0
M  V30 10287 H 965.97 -1.04475 -3.57966 0
M  V30 10288 N 968.156 1.1691 -1.05688 0
M  V30 10289 C 969.405 1.86629 -0.765022 0
M  V30 10290 C 969.718 1.82223 0.710918 0
M  V30 10291 O 970.924 2.47462 1.11691 0
M  V30 10292 C 969.38 3.34886 -1.3183 0
M  V30 10293 C 968.988 3.47781 -2.82404 0
M  V30 10294 C 970.732 4.099 -1.10372 0
M  V30 10295 C 968.639 4.9009 -3.31008 0
M  V30 10296 H 967.569 0.699082 -0.282491 0
M  V30 10297 H 970.22 1.31989 -1.27481 0
M  V30 10298 H 968.602 3.89094 -0.736312 0
M  V30 10299 H 969.776 3.03765 -3.46502 0
M  V30 10300 H 968.091 2.86193 -3.02461 0
M  V30 10301 H 970.688 5.14894 -1.4418 0
M  V30 10302 H 971.031 4.16279 -0.0417372 0
M  V30 10303 H 971.564 3.61913 -1.65117 0
M  V30 10304 H 968.303 4.88887 -4.36657 0
M  V30 10305 H 967.823 5.34756 -2.71655 0
M  V30 10306 H 969.502 5.58881 -3.25977 0
M  V30 10307 N 969.634 0.838594 1.33437 0
M  V30 10308 C 970.581 0.269609 2.2922 0
M  V30 10309 C 971.551 -0.614429 1.54318 0
M  V30 10310 O 972.736 -0.552756 1.82618 0
M  V30 10311 C 969.876 -0.549527 3.40697 0
M  V30 10312 C 968.989 0.358502 4.3051 0
M  V30 10313 C 968.124 -0.471709 5.29101 0
M  V30 10314 C 967.163 0.434728 6.10554 0
M  V30 10315 N 966.3 -0.357339 7.0119 0
M  V30 10316 H 971.14 1.09172 2.77282 0
M  V30 10317 H 968.677 0.549832 1.36438 0
M  V30 10318 H 970.635 -1.03992 4.04032 0
M  V30 10319 H 969.265 -1.33661 2.93828 0
M  V30 10320 H 968.317 0.967204 3.67899 0
M  V30 10321 H 969.629 1.05483 4.87519 0
M  V30 10322 H 968.783 -1.02594 5.97963 0
M  V30 10323 H 967.522 -1.20147 4.72669 0
M  V30 10324 H 966.527 1.00097 5.40611 0
M  V30 10325 H 967.752 1.16285 6.6907 0
M  V30 10326 H 965.698 -1.07049 6.47207 0
M  V30 10327 H 965.615 0.280277 7.5548 0
M  V30 10328 H 966.883 -0.893814 7.74359 0
M  V30 10329 N 971.112 -1.45937 0.595003 0
M  V30 10330 C 972.337 -2.07207 0.0894416 0
M  V30 10331 C 972.762 -1.43884 -1.21157 0
M  V30 10332 O 972.12 -0.526998 -1.73472 0
M  V30 10333 C 972.168 -3.60565 -0.0499828 0
M  V30 10334 O 971.272 -3.97364 -1.10342 0
M  V30 10335 H 970.613 -0.660471 0.0683627 0
M  V30 10336 H 973.143 -1.87386 0.82144 0
M  V30 10337 H 973.153 -4.0722 -0.252234 0
M  V30 10338 H 971.828 -4.06044 0.90006 0
M  V30 10339 H 970.405 -3.62401 -0.878645 0
M  V30 10340 O 972.629 -0.475622 -1.54338 0
M  V30 10341 H 973.32 0.048546 -1.93639 0
M  V30 END ATOM
M  V30 BEGIN BOND
M  V30 END BOND
M  V30 END CTAB
M  END
$$$$
