drugbank_target|Q9NPC2 Potassium channel subfamily K member 9 (DB00561; DB01159)
 OpenBabel12092120343D

  0  0  0     0  0            999 V3000
M  V30 BEGIN CTAB
M  V30 COUNTS 5933 6002 0 0 0
M  V30 BEGIN ATOM
M  V30 1 H -0.908 1.98254 -0.117106 0
M  V30 2 N 0 1.576 0 0
M  V30 3 C 0.933 2.03868 1.02534 0
M  V30 4 C 1.911 0.928543 1.3348 0
M  V30 5 O 3.095 1.19667 1.45644 0
M  V30 6 C 0.222 2.43627 2.35294 0
M  V30 7 C -0.732 3.65373 2.2001 0
M  V30 8 S 0.101 5.13292 1.52614 0
M  V30 9 C 1.257 5.56322 2.86805 0
M  V30 10 H 1.49 2.90518 0.631377 0
M  V30 11 H -0.977 1.52953 0.210867 0
M  V30 12 H 0.981 2.67203 3.11629 0
M  V30 13 H -0.358 1.57376 2.7183 0
M  V30 14 H -1.165 3.90944 3.18086 0
M  V30 15 H -1.563 3.418 1.51819 0
M  V30 16 H 0.729 5.58782 3.83104 0
M  V30 17 H 1.672 6.56266 2.65933 0
M  V30 18 H 2.08 4.83886 2.90714 0
M  V30 19 N 1.4781 -0.272755 1.55222 0
M  V30 20 C 2.4251 -1.33716 1.88119 0
M  V30 21 C 3.3951 -1.49066 0.73271 0
M  V30 22 O 4.5801 -1.63469 0.984002 0
M  V30 23 C 1.7201 -2.69238 2.15882 0
M  V30 24 C 0.8331 -2.62108 3.43399 0
M  V30 25 C -0.0319 -3.89811 3.60861 0
M  V30 26 C -0.9929 -3.77193 4.8207 0
M  V30 27 N -1.8559 -4.9673 4.96189 0
M  V30 28 H 2.9841 -1.04962 2.78903 0
M  V30 29 H 0.5211 -0.507088 1.38083 0
M  V30 30 H 2.4791 -3.48089 2.29978 0
M  V30 31 H 1.1091 -2.96194 1.28331 0
M  V30 32 H 0.1611 -1.74967 3.37773 0
M  V30 33 H 1.4731 -2.48685 4.32386 0
M  V30 34 H 0.6271 -4.77103 3.74777 0
M  V30 35 H -0.6339 -4.06102 2.7006 0
M  V30 36 H -1.6289 -2.88284 4.68159 0
M  V30 37 H -0.4039 -3.62421 5.74307 0
M  V30 38 H -2.4579 -5.13431 4.08319 0
M  V30 39 H -2.5409 -4.85839 5.79221 0
M  V30 40 H -1.2729 -5.85594 5.1449 0
M  V30 41 N 2.9562 -1.48159 -0.537278 0
M  V30 42 C 4.3722 -1.34118 -0.865129 0
M  V30 43 C 4.5722 -0.346678 -1.98495 0
M  V30 44 O 3.6282 0.234715 -2.51407 0
M  V30 45 C 4.9412 -2.73963 -1.23954 0
M  V30 46 C 6.4892 -2.82397 -1.34984 0
M  V30 47 C 6.9642 -4.22928 -1.75772 0
M  V30 48 N 8.4552 -4.25566 -1.82887 0
M  V30 49 C 9.1902 -5.31235 -2.15817 0
M  V30 50 N 8.6862 -6.47189 -2.47222 0
M  V30 51 N 10.4792 -5.18624 -2.16761 0
M  V30 52 H 2.6302 -2.1144 0.201715 0
M  V30 53 H 4.8932 -0.947598 0.0275949 0
M  V30 54 H 4.5992 -3.48264 -0.490381 0
M  V30 55 H 4.4732 -3.0702 -2.19132 0
M  V30 56 H 6.8602 -2.08356 -2.08978 0
M  V30 57 H 6.9412 -2.5297 -0.379448 0
M  V30 58 H 6.5852 -4.97482 -1.02341 0
M  V30 59 H 6.5152 -4.49794 -2.73848 0
M  V30 60 H 9.0062 -3.41924 -1.60924 0
M  V30 61 H 9.3192 -7.23564 -2.71433 0
M  V30 62 H 7.6642 -6.50476 -2.44757 0
M  V30 63 H 10.8552 -4.27056 -1.91679 0
M  V30 64 H 11.0282 -6.01078 -2.42093 0
M  V30 65 N 4.4343 0.785586 -1.36625 0
M  V30 66 C 5.3663 1.90711 -1.2713 0
M  V30 67 C 6.3793 1.61688 -0.189986 0
M  V30 68 O 7.5683 1.72864 -0.445014 0
M  V30 69 C 4.6683 3.25611 -0.939713 0
M  V30 70 C 3.8413 3.82385 -2.12369 0
M  V30 71 C 2.9003 4.95732 -1.76456 0
M  V30 72 O 1.9263 5.12047 -2.48589 0
M  V30 73 N 3.1283 5.76258 -0.700492 0
M  V30 74 H 5.8933 1.99376 -2.23762 0
M  V30 75 H 3.4543 0.964041 -1.30069 0
M  V30 76 H 5.4463 3.98937 -0.680554 0
M  V30 77 H 4.0163 3.12538 -0.0624074 0
M  V30 78 H 3.2363 3.01001 -2.54543 0
M  V30 79 H 4.5243 4.17047 -2.9146 0
M  V30 80 H 3.9223 5.65609 -0.101624 0
M  V30 81 H 2.4793 6.4987 -0.501165 0
M  V30 82 N 5.9124 1.20967 1.01018 0
M  V30 83 C 6.8604 0.961223 2.1181 0
M  V30 84 C 7.8544 -0.0897034 1.69162 0
M  V30 85 O 9.0604 0.0612271 1.79896 0
M  V30 86 H 5.4354 0.29355 0.692338 0
M  V30 87 H 7.4064 1.90178 2.29946 0
M  V30 88 C 6.1554 0.536854 3.4353 0
M  V30 89 H 5.4784 1.33713 3.76777 0
M  V30 90 H 6.9184 0.402286 4.22087 0
M  V30 91 C 5.3774 -0.751574 3.2841 0
M  V30 92 O 5.9074 -1.80841 3.58691 0
M  V30 93 N 4.1134 -0.716079 2.81639 0
M  V30 94 H 3.6604 0.144236 2.57196 0
M  V30 95 H 3.6184 -1.57847 2.71904 0
M  V30 96 N 7.3905 -1.2043 1.01659 0
M  V30 97 C 8.6365 -1.90079 0.706963 0
M  V30 98 C 8.9695 -1.78648 -0.761474 0
M  V30 99 O 8.2445 -1.17069 -1.55323 0
M  V30 100 C 8.5275 -3.41469 1.14327 0
M  V30 101 C 8.3805 -3.61833 2.67201 0
M  V30 102 C 9.6995 -4.34261 0.714529 0
M  V30 103 H 6.8185 -0.690254 0.2583 0
M  V30 104 H 9.4605 -1.41826 1.26433 0
M  V30 105 H 7.6105 -3.82696 0.669056 0
M  V30 106 H 9.2825 -3.2986 3.22475 0
M  V30 107 H 7.5255 -3.05304 3.08175 0
M  V30 108 H 8.1965 -4.67955 2.92783 0
M  V30 109 H 10.6725 -4.00682 1.12221 0
M  V30 110 H 9.5485 -5.38806 1.04784 0
M  V30 111 H 9.8095 -4.40431 -0.383799 0
M  V30 112 N 8.8686 -0.792821 -1.36206 0
M  V30 113 C 10.2846 -0.474903 -1.52371 0
M  V30 114 C 10.4846 1.00622 -1.74578 0
M  V30 115 O 9.5406 1.79162 -1.77924 0
M  V30 116 C 10.8536 -1.3083 -2.70747 0
M  V30 117 C 12.4016 -1.30234 -2.84619 0
M  V30 118 C 12.8766 -2.11956 -4.06004 0
M  V30 119 N 14.3676 -2.09419 -4.13156 0
M  V30 120 C 15.1026 -2.69419 -5.06163 0
M  V30 121 N 14.5986 -3.3829 -6.04592 0
M  V30 122 N 16.3916 -2.59134 -4.98804 0
M  V30 123 H 8.5426 -1.75222 -1.20046 0
M  V30 124 H 10.8056 -0.745024 -0.586211 0
M  V30 125 H 10.5116 -2.35881 -2.6087 0
M  V30 126 H 10.3856 -0.95196 -3.6499 0
M  V30 127 H 12.7726 -0.259748 -2.93955 0
M  V30 128 H 12.8536 -1.69847 -1.91274 0
M  V30 129 H 12.4976 -3.16248 -3.97429 0
M  V30 130 H 12.4276 -1.69711 -4.98503 0
M  V30 131 H 14.9186 -1.59297 -3.42685 0
M  V30 132 H 15.2316 -3.81394 -6.7213 0
M  V30 133 H 13.5766 -3.42393 -6.04807 0
M  V30 134 H 16.7676 -2.04927 -4.20859 0
M  V30 135 H 16.9406 -3.06185 -5.711 0
M  V30 136 N 10.3467 1.47872 -0.545128 0
M  V30 137 C 11.5747 2.06889 -0.021084 0
M  V30 138 C 11.9897 1.39955 1.2672 0
M  V30 139 O 11.3467 0.492036 1.75742 0
M  V30 140 C 11.3977 3.60996 0.190817 0
M  V30 141 O 11.1187 4.25419 -1.04644 0
M  V30 142 C 12.6197 4.36849 0.753521 0
M  V30 143 H 9.8397 0.669785 -0.0403635 0
M  V30 144 H 12.3837 1.90049 -0.755095 0
M  V30 145 H 10.5387 3.77391 0.87492 0
M  V30 146 H 10.9527 5.17785 -0.836611 0
M  V30 147 H 12.4267 5.45399 0.851139 0
M  V30 148 H 12.9037 4.02306 1.762 0
M  V30 149 H 13.5097 4.25169 0.105503 0
M  V30 150 N 11.8248 0.280983 1.55075 0
M  V30 151 C 12.7548 -0.597469 2.25727 0
M  V30 152 C 13.7358 -1.15417 1.24952 0
M  V30 153 O 14.9208 -1.18722 1.53684 0
M  V30 154 C 12.0508 -1.7789 2.98283 0
M  V30 155 C 11.0048 -1.35347 4.06036 0
M  V30 156 C 10.3308 -2.61846 4.66198 0
M  V30 157 C 11.6308 -0.499354 5.19907 0
M  V30 158 H 13.3248 -0.00824265 2.99399 0
M  V30 159 H 10.8708 -0.0025244 1.44 0
M  V30 160 H 12.8238 -2.39937 3.46422 0
M  V30 161 H 11.5478 -2.39405 2.22155 0
M  V30 162 H 10.2068 -0.756156 3.58717 0
M  V30 163 H 9.8548 -3.21632 3.86732 0
M  V30 164 H 9.5548 -2.3409 5.38958 0
M  V30 165 H 11.0788 -3.24732 5.1709 0
M  V30 166 H 12.4928 -1.02498 5.64063 0
M  V30 167 H 10.8898 -0.316424 5.99265 0
M  V30 168 H 11.9598 0.480459 4.82514 0
M  V30 169 N 13.3029 -1.57598 0.00835791 0
M  V30 170 C 14.5279 -1.95617 -0.689103 0
M  V30 171 C 14.9529 -0.883753 -1.66046 0
M  V30 172 O 14.3109 0.157352 -1.80616 0
M  V30 173 C 14.3589 -3.32736 -1.38994 0
M  V30 174 O 13.4629 -3.27631 -2.50463 0
M  V30 175 H 12.8039 -0.638379 -0.182668 0
M  V30 176 H 15.3339 -2.045 0.064036 0
M  V30 177 H 15.3439 -3.68494 -1.75147 0
M  V30 178 H 14.0189 -4.1034 -0.677778 0
M  V30 179 H 12.5959 -3.03561 -2.16576 0
M  V30 180 N 14.781 0.264519 -1.55364 0
M  V30 181 C 15.711 1.33121 -1.91836 0
M  V30 182 C 16.692 1.51101 -0.781192 0
M  V30 183 O 17.877 1.64003 -1.04003 0
M  V30 184 C 15.007 2.68921 -2.19769 0
M  V30 185 C 13.961 2.65661 -3.35571 0
M  V30 186 C 13.287 4.05093 -3.49004 0
M  V30 187 C 14.587 2.24187 -4.71739 0
M  V30 188 H 16.281 1.02844 -2.81182 0
M  V30 189 H 13.827 0.493286 -1.35287 0
M  V30 190 H 15.78 3.43663 -2.43872 0
M  V30 191 H 14.504 3.00799 -1.27231 0
M  V30 192 H 13.163 1.93377 -3.1145 0
M  V30 193 H 12.811 4.34206 -2.53917 0
M  V30 194 H 12.511 4.03804 -4.26868 0
M  V30 195 H 14.035 4.81561 -3.75408 0
M  V30 196 H 15.449 2.88654 -4.9533 0
M  V30 197 H 13.846 2.34044 -5.52579 0
M  V30 198 H 14.916 1.19327 -4.69988 0
M  V30 199 N 16.2591 1.48442 0.529413 0
M  V30 200 C 17.5081 1.55742 1.28169 0
M  V30 201 C 17.8211 0.236511 1.94165 0
M  V30 202 O 19.0271 0.187761 2.7085 0
M  V30 203 C 17.4831 2.74667 2.32564 0
M  V30 204 C 17.0911 4.13402 1.72636 0
M  V30 205 C 18.8351 2.9128 3.08798 0
M  V30 206 C 16.7421 5.23587 2.74975 0
M  V30 207 H 15.6721 0.579796 0.48203 0
M  V30 208 H 18.3231 1.74776 0.559056 0
M  V30 209 H 16.7051 2.49067 3.07866 0
M  V30 210 H 17.8791 4.49022 1.03519 0
M  V30 211 H 16.1941 4.0191 1.08892 0
M  V30 212 H 18.7911 3.70767 3.85274 0
M  V30 213 H 19.1341 2.00757 3.64695 0
M  V30 214 H 19.6671 3.16782 2.40611 0
M  V30 215 H 16.4061 6.16076 2.23897 0
M  V30 216 H 15.9261 4.92454 3.42417 0
M  V30 217 H 17.6051 5.51724 3.37949 0
M  V30 218 N 17.7372 -0.778329 1.37039 0
M  V30 219 C 18.9832 -1.53892 1.32079 0
M  V30 220 C 19.3162 -1.9396 -0.0965386 0
M  V30 221 O 18.5912 -1.63568 -1.05242 0
M  V30 222 C 18.8742 -2.80847 2.25382 0
M  V30 223 C 18.7272 -2.47076 3.75864 0
M  V30 224 C 20.0462 -3.82741 2.1725 0
M  V30 225 H 17.1652 -0.558303 0.48111 0
M  V30 226 H 19.8072 -0.893397 1.67685 0
M  V30 227 H 17.9572 -3.35931 1.95148 0
M  V30 228 H 19.6292 -1.97957 4.16666 0
M  V30 229 H 17.8722 -1.79863 3.94755 0
M  V30 230 H 18.5432 -3.37798 4.36574 0
M  V30 231 H 21.0192 -3.37133 2.43887 0
M  V30 232 H 19.8952 -4.69303 2.84686 0
M  V30 233 H 20.1562 -4.2652 1.16331 0
M  V30 234 N 19.2153 -1.21501 -1.00376 0
M  V30 235 C 20.4553 -1.04444 -1.75701 0
M  V30 236 C 20.8193 0.414644 -1.87469 0
M  V30 237 O 22.0203 0.705763 -2.59369 0
M  V30 238 C 20.2913 -1.72389 -3.13077 0
M  V30 239 S 21.8503 -1.70604 -4.04277 0
M  V30 240 H 18.6683 -0.374249 -0.604532 0
M  V30 241 H 21.2703 -1.54267 -1.20091 0
M  V30 242 H 19.9743 -2.77734 -3.02146 0
M  V30 243 H 19.5053 -1.22751 -3.73759 0
M  V30 244 H 21.5203 -0.748012 -4.9053 0
M  V30 245 N 20.6934 1.19889 -1.02296 0
M  V30 246 C 21.9214 1.9339 -0.735399 0
M  V30 247 C 22.3364 1.75148 0.704887 0
M  V30 248 O 21.6934 1.06954 1.47875 0
M  V30 249 C 21.7444 3.45313 -1.06962 0
M  V30 250 O 21.4654 3.62964 -2.45334 0
M  V30 251 C 22.9664 4.35948 -0.804021 0
M  V30 252 H 20.1864 0.61448 -0.269546 0
M  V30 253 H 22.7304 1.522 -1.36585 0
M  V30 254 H 20.8854 3.84359 -0.484455 0
M  V30 255 H 21.2994 4.56886 -2.57595 0
M  V30 256 H 22.7734 5.41174 -1.0879 0
M  V30 257 H 23.2504 4.3842 0.261691 0
M  V30 258 H 23.8564 4.02574 -1.37164 0
M  V30 259 N 22.1715 0.800033 1.35784 0
M  V30 260 C 23.4185 0.377342 1.98953 0
M  V30 261 C 23.7465 -1.05378 1.6348 0
M  V30 262 O 23.0015 -1.74459 0.886707 0
M  V30 263 C 23.3005 0.500276 3.53881 0
M  V30 264 C 22.9665 1.89375 4.09204 0
M  V30 265 C 21.6285 2.27499 4.24025 0
M  V30 266 C 23.9805 2.8057 4.39238 0
M  V30 267 C 21.3085 3.562 4.66195 0
M  V30 268 C 23.6605 4.0871 4.82844 0
M  V30 269 C 22.3245 4.46843 4.95871 0
M  V30 270 H 21.5945 0.138079 0.728021 0
M  V30 271 H 24.2415 1.01955 1.62103 0
M  V30 272 H 22.5465 -0.225405 3.91151 0
M  V30 273 H 24.2435 0.154097 4.00704 0
M  V30 274 H 20.8335 1.58753 3.98115 0
M  V30 275 H 25.0175 2.52367 4.27346 0
M  V30 276 H 20.2735 3.85602 4.74469 0
M  V30 277 H 24.4475 4.79481 5.05046 0
M  V30 278 H 22.0745 5.46623 5.28306 0
M  V30 279 N 23.6496 -1.47581 0.552962 0
M  V30 280 C 24.8776 -2.06875 0.0320556 0
M  V30 281 C 25.2926 -1.40625 -1.25976 0
M  V30 282 O 24.6496 -0.501349 -1.75479 0
M  V30 283 C 24.7006 -3.61092 -0.17167 0
M  V30 284 O 24.4216 -4.24858 1.06899 0
M  V30 285 C 25.9226 -4.37242 -0.730344 0
M  V30 286 H 23.1426 -0.669561 0.043915 0
M  V30 287 H 25.6866 -1.89646 0.765163 0
M  V30 288 H 23.8416 -3.7785 -0.854894 0
M  V30 289 H 24.2556 -5.17334 0.864059 0
M  V30 290 H 25.7296 -5.45842 -0.822203 0
M  V30 291 H 26.2066 -4.03235 -1.74064 0
M  V30 292 H 26.8126 -4.25219 -0.0829543 0
M  V30 293 N 25.1277 -0.289203 -1.54924 0
M  V30 294 C 26.3577 0.325989 -2.04012 0
M  V30 295 C 26.7657 1.48961 -1.1665 0
M  V30 296 O 26.1087 1.82794 -0.1822 0
M  V30 297 C 26.1707 0.856112 -3.49158 0
M  V30 298 C 25.8347 -0.180697 -4.56643 0
M  V30 299 C 26.8317 -1.0051 -5.10092 0
M  V30 300 C 24.5167 -0.318998 -5.01286 0
M  V30 301 C 26.5107 -1.95385 -6.06715 0
M  V30 302 C 24.1977 -1.27121 -5.97732 0
M  V30 303 C 25.1957 -2.08713 -6.50329 0
M  V30 304 O 24.8837 -3.02322 -7.44887 0
M  V30 305 H 24.6157 0.0765276 -0.671654 0
M  V30 306 H 27.1697 -0.423254 -2.00992 0
M  V30 307 H 25.3997 1.65567 -3.49463 0
M  V30 308 H 27.0887 1.38591 -3.81507 0
M  V30 309 H 27.8547 -0.90906 -4.76404 0
M  V30 310 H 23.7337 0.306108 -4.59983 0
M  V30 311 H 27.2777 -2.59111 -6.47694 0
M  V30 312 H 23.1747 -1.36801 -6.30837 0
M  V30 313 H 23.9427 -2.97165 -7.6265 0
M  V30 314 N 26.6058 1.57591 -0.0167156 0
M  V30 315 C 27.5358 2.12496 0.967858 0
M  V30 316 C 28.5168 1.03807 1.34752 0
M  V30 317 O 29.7018 1.31577 1.42833 0
M  V30 318 C 26.8318 2.64194 2.25431 0
M  V30 319 C 25.7858 3.77559 2.01576 0
M  V30 320 C 25.1118 4.15636 3.36379 0
M  V30 321 C 26.4118 5.04151 1.36489 0
M  V30 322 H 28.1058 2.95013 0.510643 0
M  V30 323 H 25.6518 1.41915 0.244181 0
M  V30 324 H 27.6048 3.01236 2.94678 0
M  V30 325 H 26.3288 1.78821 2.73296 0
M  V30 326 H 24.9878 3.40937 1.34751 0
M  V30 327 H 24.6358 3.27263 3.81979 0
M  V30 328 H 24.3358 4.92022 3.21229 0
M  V30 329 H 25.8598 4.5525 4.06915 0
M  V30 330 H 27.2738 5.38857 1.95718 0
M  V30 331 H 25.6708 5.85453 1.31776 0
M  V30 332 H 26.7408 4.83733 0.336219 0
M  V30 333 N 28.0839 -0.256276 1.55502 0
M  V30 334 C 29.0139 -1.32102 1.92539 0
M  V30 335 C 29.9949 -1.50684 0.789194 0
M  V30 336 O 31.1799 -1.63449 1.04872 0
M  V30 337 C 28.3099 -2.67752 2.21192 0
M  V30 338 C 27.2639 -2.63878 3.36975 0
M  V30 339 C 26.5899 -4.03236 3.51147 0
M  V30 340 C 27.8899 -2.21682 4.72921 0
M  V30 341 H 29.5839 -1.01351 2.81724 0
M  V30 342 H 27.1299 -0.486105 1.35547 0
M  V30 343 H 29.0829 -3.42365 2.45691 0
M  V30 344 H 27.8069 -3.0012 1.28824 0
M  V30 345 H 26.4659 -1.91722 3.12471 0
M  V30 346 H 26.1139 -4.32854 2.56216 0
M  V30 347 H 25.8139 -4.01535 4.29003 0
M  V30 348 H 27.3379 -4.79563 3.77957 0
M  V30 349 H 28.7519 -2.86023 4.96854 0
M  V30 350 H 27.1489 -2.3111 5.53812 0
M  V30 351 H 28.2189 -1.16833 4.70615 0
M  V30 352 N 29.562 -1.4872 -0.521534 0
M  V30 353 C 30.808 -1.574 -1.27879 0
M  V30 354 C 31.141 -0.250817 -1.92573 0
M  V30 355 O 30.416 0.743934 -1.79711 0
M  V30 356 C 30.699 -2.71843 -2.36164 0
M  V30 357 C 30.552 -4.13893 -1.76105 0
M  V30 358 C 31.871 -2.82008 -3.37875 0
M  V30 359 H 28.99 -0.572941 -0.463581 0
M  V30 360 H 31.632 -1.80927 -0.580119 0
M  V30 361 H 29.782 -2.51914 -2.95756 0
M  V30 362 H 31.454 -4.45284 -1.20499 0
M  V30 363 H 29.697 -4.20498 -1.06601 0
M  V30 364 H 30.368 -4.89804 -2.5455 0
M  V30 365 H 32.844 -3.00086 -2.88249 0
M  V30 366 H 31.72 -3.63796 -4.11028 0
M  V30 367 H 31.981 -1.90511 -3.98946 0
M  V30 368 N 31.0401 0.771051 -1.3745 0
M  V30 369 C 32.2881 1.52661 -1.32435 0
M  V30 370 C 32.6091 1.9479 0.0905024 0
M  V30 371 O 31.8791 1.66348 1.03466 0
M  V30 372 H 30.4591 0.566218 -0.487244 0
M  V30 373 H 33.1211 0.917636 -1.71946 0
M  V30 374 H 32.2171 2.42568 -1.96385 0
M  V30 375 N 32.5182 1.22032 0.997298 0
M  V30 376 C 33.4812 0.987909 2.06816 0
M  V30 377 C 34.4812 -0.0440084 1.6074 0
M  V30 378 O 35.6712 0.194053 1.73116 0
M  V30 379 C 32.8032 0.49132 3.37341 0
M  V30 380 H 33.9962 1.93803 2.28868 0
M  V30 381 H 31.5492 1.03838 1.16822 0
M  V30 382 H 32.2842 -0.463364 3.20973 0
M  V30 383 H 32.0692 1.23575 3.72118 0
M  V30 384 H 33.5592 0.348824 4.16141 0
M  V30 385 N 33.9963 -1.19345 1.0293 0
M  V30 386 C 34.9593 -2.20793 0.615069 0
M  V30 387 C 35.9593 -1.57553 -0.321533 0
M  V30 388 O 37.1493 -1.73862 -0.108483 0
M  V30 389 C 34.2813 -3.40754 -0.0999222 0
M  V30 390 H 35.4743 -2.58955 1.51269 0
M  V30 391 H 33.0273 -1.3303 0.820534 0
M  V30 392 H 33.7623 -3.0811 -1.01187 0
M  V30 393 H 33.5473 -3.87889 0.57309 0
M  V30 394 H 35.0373 -4.15898 -0.376645 0
M  V30 395 N 35.4744 -0.807222 -1.35358 0
M  V30 396 C 36.7204 -0.388463 -1.99045 0
M  V30 397 C 37.0534 1.04184 -1.63888 0
M  V30 398 O 36.3284 1.72292 -0.902535 0
M  V30 399 C 36.6114 -0.572783 -3.55515 0
M  V30 400 C 36.4644 -2.04807 -4.00468 0
M  V30 401 C 37.7834 0.00114064 -4.401 0
M  V30 402 H 34.9024 -0.142619 -0.723069 0
M  V30 403 H 37.5444 -1.01687 -1.60498 0
M  V30 404 H 35.6944 -0.0378425 -3.88482 0
M  V30 405 H 37.3664 -2.64544 -3.77908 0
M  V30 406 H 35.6094 -2.54427 -3.51353 0
M  V30 407 H 36.2804 -2.12792 -5.09337 0
M  V30 408 H 38.7564 -0.455716 -4.13597 0
M  V30 409 H 37.6324 -0.157737 -5.48673 0
M  V30 410 H 37.8934 1.09488 -4.28328 0
M  V30 411 N 36.9525 1.47285 -0.560781 0
M  V30 412 C 38.1995 2.02464 -0.038062 0
M  V30 413 C 38.5275 1.43474 1.31322 0
M  V30 414 O 37.7825 0.581311 1.86867 0
M  V30 415 C 38.0815 3.57258 0.100784 0
M  V30 416 C 37.7475 4.35184 -1.18007 0
M  V30 417 C 36.4095 4.56194 -1.53103 0
M  V30 418 C 38.7615 4.80098 -2.02867 0
M  V30 419 C 36.0895 5.19367 -2.729 0
M  V30 420 C 38.4415 5.44593 -3.21871 0
M  V30 421 C 37.1055 5.63835 -3.57276 0
M  V30 422 H 36.3755 0.740869 -0.0139279 0
M  V30 423 H 39.0225 1.76916 -0.733012 0
M  V30 424 H 37.3275 3.81819 0.878724 0
M  V30 425 H 39.0245 3.97606 0.520639 0
M  V30 426 H 35.6145 4.19113 -0.8968 0
M  V30 427 H 39.7985 4.63642 -1.7706 0
M  V30 428 H 35.0545 5.32459 -3.00496 0
M  V30 429 H 39.2285 5.78358 -3.87911 0
M  V30 430 H 36.8555 6.12557 -4.50197 0
M  V30 431 N 38.4306 0.297415 1.54768 0
M  V30 432 C 39.7076 -0.365847 1.92148 0
M  V30 433 C 40.0876 -1.71975 1.22424 0
M  V30 434 O 39.4356 -2.25666 0.358739 0
M  V30 435 C 39.6456 -0.484056 3.45627 0
M  V30 436 C 40.9936 -0.756594 4.17805 0
M  V30 437 O 42.0176 -0.568007 3.51642 0
M  V30 438 O 40.8766 -1.11863 5.34929 0
M  V30 439 H 37.9706 -0.203919 0.801465 0
M  V30 440 H 40.5166 0.34521 1.66152 0
M  V30 441 H 39.2886 0.467865 3.88493 0
M  V30 442 H 38.9116 -1.24372 3.77647 0
M  V30 443 N 39.9087 -1.5758 0.0250728 0
M  V30 444 C 40.8717 -2.08896 -0.943139 0
M  V30 445 C 41.8717 -1.00321 -1.25668 0
M  V30 446 O 43.0617 -1.26495 -1.19769 0
M  V30 447 C 40.1937 -2.55143 -2.26086 0
M  V30 448 H 41.3867 -2.95723 -0.498775 0
M  V30 449 H 38.9397 -1.54703 -0.222888 0
M  V30 450 H 39.6747 -1.71633 -2.75159 0
M  V30 451 H 39.4597 -3.34461 -2.04641 0
M  V30 452 H 40.9497 -2.95083 -2.95492 0
M  V30 453 N 41.3868 0.248026 -1.55636 0
M  V30 454 C 42.3168 1.31079 -1.93237 0
M  V30 455 C 43.2978 1.50264 -0.797174 0
M  V30 456 O 44.4828 1.62891 -1.05737 0
M  V30 457 C 41.6128 2.66575 -2.22609 0
M  V30 458 C 40.5668 2.62087 -3.3837 0
M  V30 459 C 39.8928 4.01369 -3.53281 0
M  V30 460 C 41.1928 2.19171 -4.7409 0
M  V30 461 H 42.8868 0.998556 -2.82257 0
M  V30 462 H 40.4328 0.47891 -1.35803 0
M  V30 463 H 42.3858 3.41057 -2.47503 0
M  V30 464 H 41.1098 2.99432 -1.30414 0
M  V30 465 H 39.7688 1.90063 -3.13483 0
M  V30 466 H 39.4168 4.31489 -2.58508 0
M  V30 467 H 39.1168 3.99254 -4.31127 0
M  V30 468 H 40.6408 4.77552 -3.80495 0
M  V30 469 H 42.0548 2.83384 -4.98363 0
M  V30 470 H 40.4518 2.2817 -5.5503 0
M  V30 471 H 41.5218 1.14336 -4.71227 0
M  V30 472 N 42.8649 1.48995 0.513639 0
M  V30 473 C 43.7749 1.67443 1.64317 0
M  V30 474 C 44.7909 0.556947 1.64846 0
M  V30 475 O 45.9669 0.830082 1.83498 0
M  V30 476 C 43.0319 1.72515 3.00732 0
M  V30 477 C 42.0929 2.96009 3.1093 0
M  V30 478 C 41.3259 3.00829 4.40837 0
M  V30 479 O 41.5489 2.13594 5.28898 0
M  V30 480 O 40.4829 3.93168 4.55744 0
M  V30 481 H 44.3089 2.63106 1.51687 0
M  V30 482 H 41.8939 1.32588 0.688543 0
M  V30 483 H 43.7759 1.78277 3.81831 0
M  V30 484 H 42.4509 0.800278 3.13651 0
M  V30 485 H 41.3579 2.9577 2.29065 0
M  V30 486 H 42.6909 3.87934 3.02933 0
M  V30 487 N 44.343 -0.763751 1.37857 0
M  V30 488 C 45.568 -1.55805 1.36893 0
M  V30 489 C 45.993 -1.88054 -0.0416135 0
M  V30 490 O 45.351 -1.49825 -1.02089 0
M  V30 491 C 45.399 -2.84012 2.22192 0
M  V30 492 O 44.503 -3.78732 1.63204 0
M  V30 493 H 43.844 -0.471638 0.46739 0
M  V30 494 H 46.374 -0.944657 1.81487 0
M  V30 495 H 46.384 -3.33037 2.35691 0
M  V30 496 H 45.059 -2.59869 3.24716 0
M  V30 497 H 43.636 -3.37402 1.58791 0
M  V30 498 N 45.8211 -1.22559 -0.990812 0
M  V30 499 C 47.0981 -0.959875 -1.70428 0
M  V30 500 C 47.4781 0.524455 -2.04481 0
M  V30 501 O 46.8261 1.49302 -1.72977 0
M  V30 502 C 47.0361 -1.85955 -2.95333 0
M  V30 503 C 48.3841 -2.11687 -3.68068 0
M  V30 504 O 49.4081 -1.8342 -3.05345 0
M  V30 505 O 48.2671 -2.59572 -4.80921 0
M  V30 506 H 45.3611 -0.361154 -0.743974 0
M  V30 507 H 47.9071 -1.33554 -1.04697 0
M  V30 508 H 46.6791 -2.86346 -2.66687 0
M  V30 509 H 46.3021 -1.4856 -3.68803 0
M  V30 510 N 47.2992 1.18797 -1.03562 0
M  V30 511 C 48.2492 2.20161 -0.592724 0
M  V30 512 C 49.2332 1.56772 0.362133 0
M  V30 513 O 50.4252 1.76062 0.182009 0
M  V30 514 C 47.5542 3.43266 0.0481024 0
M  V30 515 C 46.6402 4.13786 -0.9296 0
M  V30 516 N 47.0312 4.60388 -2.09467 0
M  V30 517 C 45.3292 4.39572 -0.754499 0
M  V30 518 C 46.0302 5.14619 -2.71187 0
M  V30 519 N 45.0062 5.05826 -1.991 0
M  V30 520 H 48.8082 2.53877 -1.48066 0
M  V30 521 H 46.3222 1.34946 -0.903514 0
M  V30 522 H 48.3192 4.15136 0.383058 0
M  V30 523 H 46.9792 3.11048 0.931636 0
M  V30 524 H 47.9902 4.54999 -2.47379 0
M  V30 525 H 44.6672 4.17425 0.0793713 0
M  V30 526 H 46.0572 5.60917 -3.69895 0
M  V30 527 N 48.7773 0.814389 1.34928 0
M  V30 528 C 49.6873 0.231978 2.3345 0
M  V30 529 C 50.7033 -0.629139 1.62228 0
M  V30 530 O 51.8793 -0.539052 1.94052 0
M  V30 531 C 48.9443 -0.603482 3.41407 0
M  V30 532 C 48.0053 0.279037 4.28392 0
M  V30 533 C 47.2383 -0.516643 5.31193 0
M  V30 534 O 47.4613 -1.75068 5.4287 0
M  V30 535 O 46.3953 0.0965652 6.01823 0
M  V30 536 H 50.2213 1.04721 2.85074 0
M  V30 537 H 47.8063 0.576343 1.37836 0
M  V30 538 H 49.6883 -1.07908 4.0735 0
M  V30 539 H 48.3633 -1.39618 2.92042 0
M  V30 540 H 47.2703 0.801948 3.65403 0
M  V30 541 H 48.6033 1.03588 4.81176 0
M  V30 542 N 50.2554 -1.46986 0.568584 0
M  V30 543 C 51.1884 -2.27129 -0.220779 0
M  V30 544 C 52.1664 -1.34757 -0.909905 0
M  V30 545 O 53.3504 -1.64152 -0.926622 0
M  V30 546 C 50.4774 -3.12108 -1.31553 0
M  V30 547 C 49.5234 -4.20141 -0.733748 0
M  V30 548 S 50.3564 -5.33783 0.428479 0
M  V30 549 C 51.5124 -6.22327 -0.667811 0
M  V30 550 H 51.7454 -2.93731 0.459267 0
M  V30 551 H 49.2784 -1.5026 0.355154 0
M  V30 552 H 51.2364 -3.61636 -1.94241 0
M  V30 553 H 49.8974 -2.44847 -1.96746 0
M  V30 554 H 49.0904 -4.79373 -1.5562 0
M  V30 555 H 48.6924 -3.73553 -0.182812 0
M  V30 556 H 50.9844 -6.59364 -1.55708 0
M  V30 557 H 51.9274 -7.0801 -0.11258 0
M  V30 558 H 52.3354 -5.5618 -0.965601 0
M  V30 559 N 51.7335 -0.305618 -1.54608 0
M  V30 560 C 53.1495 0.0476228 -1.59529 0
M  V30 561 C 53.3495 1.52025 -1.32252 0
M  V30 562 O 52.4055 2.27368 -1.09818 0
M  V30 563 C 53.7185 -0.354471 -2.98603 0
M  V30 564 C 55.2665 -0.303622 -3.11524 0
M  V30 565 C 55.7415 -0.680608 -4.52915 0
M  V30 566 N 57.2325 -0.63332 -4.5885 0
M  V30 567 C 57.9675 -0.897432 -5.66334 0
M  V30 568 N 57.4635 -1.22775 -6.81834 0
M  V30 569 N 59.2565 -0.824186 -5.56025 0
M  V30 570 H 51.4075 -1.2653 -1.70599 0
M  V30 571 H 53.6705 -0.513291 -0.797017 0
M  V30 572 H 53.3765 -1.3798 -3.23503 0
M  V30 573 H 53.2505 0.289568 -3.76087 0
M  V30 574 H 55.6375 0.712472 -2.8637 0
M  V30 575 H 55.7185 -0.982348 -2.36185 0
M  V30 576 H 55.3625 -1.69453 -4.78799 0
M  V30 577 H 55.2925 0.0202385 -5.26596 0
M  V30 578 H 57.7835 -0.389138 -3.75891 0
M  V30 579 H 58.0965 -1.41513 -7.59733 0
M  V30 580 H 56.4415 -1.26583 -6.83375 0
M  V30 581 H 59.6325 -0.565748 -4.64669 0
M  V30 582 H 59.8055 -1.03338 -6.39707 0
M  V30 583 N 53.2116 1.57565 -0.0334293 0
M  V30 584 C 54.1216 2.13943 0.962572 0
M  V30 585 C 55.1376 1.09276 1.35406 0
M  V30 586 O 56.3136 1.41355 1.4346 0
M  V30 587 C 53.3786 2.65887 2.22497 0
M  V30 588 C 52.4396 3.85286 1.8935 0
M  V30 589 C 51.6726 4.34743 3.09571 0
M  V30 590 O 51.8956 3.83352 4.22371 0
M  V30 591 O 50.8296 5.26538 2.91618 0
M  V30 592 H 54.6556 2.99333 0.513169 0
M  V30 593 H 52.2406 1.4822 0.18743 0
M  V30 594 H 54.1226 2.99346 2.96598 0
M  V30 595 H 52.7976 1.83578 2.6661 0
M  V30 596 H 51.7046 3.56746 1.1262 0
M  V30 597 H 53.0376 4.68771 1.5005 0
M  V30 598 N 54.6897 -0.239769 1.55765 0
M  V30 599 C 55.5997 -1.31831 1.94056 0
M  V30 600 C 56.6157 -1.52275 0.841925 0
M  V30 601 O 57.7917 -1.65759 1.14394 0
M  V30 602 C 54.8567 -2.65156 2.23368 0
M  V30 603 C 53.9177 -2.53173 3.46701 0
M  V30 604 C 53.1507 -3.8014 3.74606 0
M  V30 605 O 53.3737 -4.82343 3.04469 0
M  V30 606 O 52.3077 -3.78344 4.68123 0
M  V30 607 H 56.1337 -1.02347 2.85935 0
M  V30 608 H 53.7187 -0.441123 1.42739 0
M  V30 609 H 55.6007 -3.43929 2.43497 0
M  V30 610 H 54.2757 -2.94358 1.34666 0
M  V30 611 H 53.1827 -1.72662 3.31871 0
M  V30 612 H 54.5157 -2.28915 4.35728 0
M  V30 613 N 56.1678 -1.49265 -0.50573 0
M  V30 614 C 57.0778 -1.68312 -1.63427 0
M  V30 615 C 58.0938 -0.565682 -1.64548 0
M  V30 616 O 59.2698 -0.839801 -1.83055 0
M  V30 617 C 56.3348 -1.74107 -2.99813 0
M  V30 618 C 55.3958 -2.97653 -3.09356 0
M  V30 619 C 54.6288 -3.03163 -4.39236 0
M  V30 620 O 54.8518 -2.16396 -5.27758 0
M  V30 621 O 53.7858 -3.9558 -4.53652 0
M  V30 622 H 57.6118 -2.63907 -1.50289 0
M  V30 623 H 55.1968 -1.32951 -0.681502 0
M  V30 624 H 57.0788 -1.803 -3.80881 0
M  V30 625 H 55.7538 -0.816901 -3.13223 0
M  V30 626 H 54.6608 -2.96981 -2.27493 0
M  V30 627 H 55.9938 -3.89535 -3.00871 0
M  V30 628 N 57.6459 0.756429 -1.3826 0
M  V30 629 C 58.5929 1.87011 -1.35261 0
M  V30 630 C 59.5629 1.64695 -0.215616 0
M  V30 631 O 60.7479 1.864 -0.407399 0
M  V30 632 C 57.8879 3.24275 -1.18068 0
M  V30 633 C 57.0009 3.58442 -2.41129 0
M  V30 634 C 56.1359 4.84994 -2.16689 0
M  V30 635 C 55.1749 5.11939 -3.35537 0
M  V30 636 N 54.3119 6.29685 -3.10549 0
M  V30 637 H 59.1519 1.8891 -2.30472 0
M  V30 638 H 56.6889 0.923373 -1.14509 0
M  V30 639 H 58.6469 4.03479 -1.06116 0
M  V30 640 H 57.2769 3.21711 -0.264973 0
M  V30 641 H 56.3289 2.74103 -2.63764 0
M  V30 642 H 57.6409 3.74283 -3.29717 0
M  V30 643 H 56.7949 5.72135 -2.01857 0
M  V30 644 H 55.5339 4.71286 -1.25462 0
M  V30 645 H 54.5389 4.23268 -3.50891 0
M  V30 646 H 55.7639 5.27546 -4.27635 0
M  V30 647 H 53.7099 6.17306 -2.21967 0
M  V30 648 H 53.6269 6.46014 -3.92686 0
M  V30 649 H 54.8949 7.19722 -2.99367 0
M  V30 650 N 59.124 1.23083 0.984299 0
M  V30 651 C 60.054 1.03292 2.09411 0
M  V30 652 C 61.035 -0.048923 1.7003 0
M  V30 653 O 62.22 0.114967 1.93859 0
M  V30 654 C 59.35 0.619155 3.41736 0
M  V30 655 C 58.304 1.64791 3.95004 0
M  V30 656 C 57.63 1.0897 5.23478 0
M  V30 657 C 58.93 3.03999 4.24714 0
M  V30 658 H 60.624 1.96119 2.26225 0
M  V30 659 H 58.17 0.944344 1.08711 0
M  V30 660 H 60.123 0.467777 4.18796 0
M  V30 661 H 58.847 -0.344786 3.24775 0
M  V30 662 H 57.506 1.78721 3.20085 0
M  V30 663 H 57.154 0.11686 5.02864 0
M  V30 664 H 56.854 1.77704 5.60085 0
M  V30 665 H 58.378 0.950093 6.03163 0
M  V30 666 H 59.792 2.93393 4.92538 0
M  V30 667 H 58.189 3.69936 4.72512 0
M  V30 668 H 59.259 3.53285 3.32142 0
M  V30 669 N 60.6021 -1.18246 1.0419 0
M  V30 670 C 61.5491 -2.2192 0.634037 0
M  V30 671 C 62.5191 -1.62179 -0.358765 0
M  V30 672 O 63.7041 -1.89122 -0.252466 0
M  V30 673 C 60.8441 -3.451 0.00445535 0
M  V30 674 C 59.9571 -4.19174 1.04487 0
M  V30 675 C 59.0921 -5.29813 0.383676 0
M  V30 676 C 58.1311 -5.9566 1.4091 0
M  V30 677 N 57.2681 -6.97834 0.772784 0
M  V30 678 H 62.1081 -2.56164 1.52263 0
M  V30 679 H 59.6451 -1.25843 0.761701 0
M  V30 680 H 61.6031 -4.15485 -0.377919 0
M  V30 681 H 60.2331 -3.11472 -0.847652 0
M  V30 682 H 59.2851 -3.47604 1.54518 0
M  V30 683 H 60.5971 -4.64267 1.82368 0
M  V30 684 H 59.7511 -6.06677 -0.0528366 0
M  V30 685 H 58.4901 -4.85825 -0.427208 0
M  V30 686 H 57.4951 -5.17535 1.85574 0
M  V30 687 H 58.7201 -6.4173 2.22171 0
M  V30 688 H 56.6661 -6.55998 -0.0177708 0
M  V30 689 H 56.5831 -7.41186 1.48928 0
M  V30 690 H 57.8511 -7.78665 0.36071 0
M  V30 691 N 62.0802 -0.821533 -1.34494 0
M  V30 692 C 63.0432 -0.247847 -2.27856 0
M  V30 693 C 64.0432 0.573453 -1.50227 0
M  V30 694 O 65.2332 0.389759 -1.69784 0
M  V30 695 C 62.3652 0.652698 -3.34593 0
M  V30 696 H 63.5582 -1.07146 -2.80107 0
M  V30 697 H 61.1112 -0.593291 -1.44602 0
M  V30 698 H 61.8462 1.49943 -2.87555 0
M  V30 699 H 61.6312 0.065292 -3.92046 0
M  V30 700 H 63.1212 1.04793 -4.04238 0
M  V30 701 N 63.5583 1.46682 -0.576371 0
M  V30 702 C 64.4683 2.34032 0.163141 0
M  V30 703 C 65.4843 1.49367 0.892501 0
M  V30 704 O 66.6603 1.82252 0.857106 0
M  V30 705 C 63.7253 3.26435 1.16795 0
M  V30 706 C 62.7863 4.26998 0.443944 0
M  V30 707 C 62.0193 5.14986 1.40088 0
M  V30 708 O 62.2423 5.05785 2.637 0
M  V30 709 O 61.1763 5.94906 0.914917 0
M  V30 710 H 65.0023 2.98607 -0.55388 0
M  V30 711 H 62.5873 1.45554 -0.336821 0
M  V30 712 H 64.4693 3.83459 1.74748 0
M  V30 713 H 63.1443 2.64465 1.86655 0
M  V30 714 H 62.0513 3.7368 -0.177271 0
M  V30 715 H 63.3843 4.91736 -0.213566 0
M  V30 716 N 65.0364 0.313813 1.54444 0
M  V30 717 C 65.9464 -0.565714 2.27677 0
M  V30 718 C 66.9624 -1.13754 1.31666 0
M  V30 719 O 68.1384 -1.15959 1.64668 0
M  V30 720 C 65.2034 -1.71528 3.01296 0
M  V30 721 C 64.2644 -1.17624 4.12872 0
M  V30 722 C 63.4974 -2.27102 4.8297 0
M  V30 723 O 63.7204 -3.47256 4.52514 0
M  V30 724 O 62.6544 -1.9307 5.70094 0
M  V30 725 H 66.4804 0.0287296 3.03686 0
M  V30 726 H 64.0654 0.0798312 1.49187 0
M  V30 727 H 65.9474 -2.38476 3.4743 0
M  V30 728 H 64.6224 -2.29608 2.2817 0
M  V30 729 H 63.5294 -0.472124 3.71109 0
M  V30 730 H 64.8624 -0.640695 4.88012 0
M  V30 731 N 66.5145 -1.57545 0.0417849 0
M  V30 732 C 67.7635 -1.91494 -0.633492 0
M  V30 733 C 68.0765 -0.921084 -1.72556 0
M  V30 734 O 69.2825 -1.15228 -2.45835 0
M  V30 735 C 67.7385 -3.40072 -1.17808 0
M  V30 736 C 67.3465 -4.47843 -0.118633 0
M  V30 737 C 69.0905 -3.8307 -1.82915 0
M  V30 738 C 66.9975 -5.87529 -0.675578 0
M  V30 739 H 65.9275 -0.714653 -0.24039 0
M  V30 740 H 68.5785 -1.83175 0.109148 0
M  V30 741 H 66.9605 -3.43364 -1.97274 0
M  V30 742 H 68.1345 -4.56128 0.654494 0
M  V30 743 H 66.4495 -4.14128 0.434414 0
M  V30 744 H 69.0465 -4.84794 -2.25563 0
M  V30 745 H 69.3895 -3.1881 -2.67705 0
M  V30 746 H 69.9225 -3.82255 -1.10119 0
M  V30 747 H 66.6615 -6.55362 0.134475 0
M  V30 748 H 66.1815 -5.82824 -1.4169 0
M  V30 749 H 67.8605 -6.36491 -1.1614 0
M  V30 750 N 67.9926 0.231505 -1.5589 0
M  V30 751 C 69.4086 0.580748 -1.48659 0
M  V30 752 C 69.6086 1.87617 -0.73498 0
M  V30 753 O 68.6646 2.51046 -0.270586 0
M  V30 754 C 69.9776 0.669202 -2.93159 0
M  V30 755 C 71.5256 0.760499 -3.03621 0
M  V30 756 C 72.0006 0.880383 -4.49459 0
M  V30 757 N 73.4916 0.944861 -4.53461 0
M  V30 758 C 74.2266 1.05716 -5.63571 0
M  V30 759 N 73.7226 1.13403 -6.83456 0
M  V30 760 N 75.5156 1.09152 -5.514 0
M  V30 761 H 67.6666 -0.618695 -2.03189 0
M  V30 762 H 69.9296 -0.215728 -0.923128 0
M  V30 763 H 69.6356 -0.212904 -3.51055 0
M  V30 764 H 69.5096 1.5361 -3.44505 0
M  V30 765 H 71.8966 1.63305 -2.45796 0
M  V30 766 H 71.9776 -0.131864 -2.5546 0
M  V30 767 H 71.6216 0.0123284 -5.07899 0
M  V30 768 H 71.5516 1.78802 -4.95316 0
M  V30 769 H 74.0426 0.896176 -3.6712 0
M  V30 770 H 74.3556 1.21921 -7.63122 0
M  V30 771 H 72.7006 1.10333 -6.86186 0
M  V30 772 H 75.8916 1.02805 -4.56671 0
M  V30 773 H 76.0646 1.17558 -6.37247 0
M  V30 774 N 69.4707 1.49531 0.497807 0
M  V30 775 C 70.7197 1.58426 1.24837 0
M  V30 776 C 71.0327 0.277643 1.93619 0
M  V30 777 O 72.2387 0.24517 2.70391 0
M  V30 778 C 70.6947 2.79538 2.26686 0
M  V30 779 C 70.3027 4.16971 1.63828 0
M  V30 780 C 72.0467 2.97764 3.0255 0
M  V30 781 C 69.9537 5.29301 2.63807 0
M  V30 782 H 68.8837 0.58989 0.469623 0
M  V30 783 H 71.5347 1.75923 0.521857 0
M  V30 784 H 69.9167 2.55542 3.02514 0
M  V30 785 H 71.0907 4.51116 0.939711 0
M  V30 786 H 69.4057 4.04129 1.00342 0
M  V30 787 H 72.0027 3.78856 3.77323 0
M  V30 788 H 72.3457 2.08448 3.60354 0
M  V30 789 H 72.8787 3.21815 2.33838 0
M  V30 790 H 69.6177 6.20687 2.10779 0
M  V30 791 H 69.1377 4.99606 3.31894 0
M  V30 792 H 70.8167 5.58768 3.2617 0
M  V30 793 N 70.9488 -0.749086 1.3866 0
M  V30 794 C 71.8958 -1.86291 1.36251 0
M  V30 795 C 72.8658 -1.64578 0.224347 0
M  V30 796 O 74.0508 -1.86181 0.417279 0
M  V30 797 C 71.1908 -3.23644 1.19786 0
M  V30 798 C 70.3038 -3.57158 2.43027 0
M  V30 799 C 69.4388 -4.83838 2.19258 0
M  V30 800 C 68.4778 -5.10152 3.38247 0
M  V30 801 N 67.6148 -6.28029 3.13884 0
M  V30 802 H 72.4548 -1.87685 2.3147 0
M  V30 803 H 69.9918 -0.917287 1.14997 0
M  V30 804 H 71.9498 -4.0291 1.08254 0
M  V30 805 H 70.5798 -3.21566 0.282031 0
M  V30 806 H 69.6318 -2.72701 2.65214 0
M  V30 807 H 70.9438 -3.7253 3.31697 0
M  V30 808 H 70.0978 -5.71057 2.04888 0
M  V30 809 H 68.8368 -4.70614 1.2796 0
M  V30 810 H 67.8418 -4.21401 3.53131 0
M  V30 811 H 69.0668 -5.25271 4.30427 0
M  V30 812 H 67.0128 -6.1612 2.25238 0
M  V30 813 H 66.9298 -6.43922 3.96106 0
M  V30 814 H 68.1978 -7.18124 3.03179 0
M  V30 815 N 72.4269 -1.23603 -0.977757 0
M  V30 816 C 73.6749 -1.06759 -1.71601 0
M  V30 817 C 73.9959 0.395929 -1.90938 0
M  V30 818 O 73.2659 1.28356 -1.47992 0
M  V30 819 H 71.8459 -0.392062 -0.635843 0
M  V30 820 H 74.5079 -1.55362 -1.1768 0
M  V30 821 H 73.6039 -1.55763 -2.70452 0
M  V30 822 N 73.905 1.17692 -1.04816 0
M  V30 823 C 74.852 2.21581 -0.645797 0
M  V30 824 C 75.822 1.62367 0.350159 0
M  V30 825 O 77.007 1.89254 0.242433 0
M  V30 826 C 74.147 3.45092 -0.0227568 0
M  V30 827 C 73.26 4.18613 -1.06709 0
M  V30 828 C 72.395 5.29602 -0.411767 0
M  V30 829 C 71.434 5.94904 -1.44067 0
M  V30 830 N 70.571 6.97414 -0.809781 0
M  V30 831 H 75.411 2.55353 -1.5362 0
M  V30 832 H 72.948 1.25438 -0.768364 0
M  V30 833 H 74.906 4.15679 0.35588 0
M  V30 834 H 73.536 3.11917 0.831122 0
M  V30 835 H 72.588 3.46779 -1.5636 0
M  V30 836 H 73.9 4.63293 -1.84827 0
M  V30 837 H 73.054 6.06696 0.0206623 0
M  V30 838 H 71.793 4.86045 0.401438 0
M  V30 839 H 70.798 5.16544 -1.88316 0
M  V30 840 H 72.023 6.40542 -2.25571 0
M  V30 841 H 69.969 6.55998 -0.0170186 0
M  V30 842 H 69.886 7.40386 -1.52856 0
M  V30 843 H 71.154 7.78463 -0.401999 0
M  V30 844 N 75.3831 0.828654 1.34056 0
M  V30 845 C 76.6131 0.431993 2.02033 0
M  V30 846 C 77.0211 -0.96844 1.62536 0
M  V30 847 O 76.3641 -1.6391 0.829408 0
M  V30 848 C 76.4261 0.461224 3.56529 0
M  V30 849 C 76.0901 1.81599 4.1937 0
M  V30 850 C 77.0871 2.7777 4.39477 0
M  V30 851 C 74.7721 2.10604 4.56017 0
M  V30 852 C 76.7661 4.01115 4.95364 0
M  V30 853 C 74.4531 3.34207 5.11614 0
M  V30 854 C 75.4511 4.2928 5.31232 0
M  V30 855 O 75.1391 5.50699 5.8565 0
M  V30 856 H 74.8711 0.170943 0.654029 0
M  V30 857 H 77.4251 1.11988 1.72185 0
M  V30 858 H 75.6551 -0.283388 3.8566 0
M  V30 859 H 77.3441 0.0838149 4.05813 0
M  V30 860 H 78.1101 2.56659 4.11523 0
M  V30 861 H 73.9891 1.37402 4.40047 0
M  V30 862 H 77.5331 4.75333 5.10592 0
M  V30 863 H 73.4301 3.55179 5.38997 0
M  V30 864 H 74.1981 5.52298 6.04077 0
M  V30 865 N 76.8612 -1.46375 0.584142 0
M  V30 866 C 77.8092 -2.32042 -0.161047 0
M  V30 867 C 78.8032 -1.44569 -0.882966 0
M  V30 868 O 80.0092 -1.61186 -0.801191 0
M  V30 869 H 76.3842 -0.748659 -0.0708033 0
M  V30 870 H 78.3552 -2.92704 0.580269 0
M  V30 871 C 77.1042 -3.27762 -1.1605 0
M  V30 872 H 76.4272 -3.95051 -0.614419 0
M  V30 873 H 77.8672 -3.90481 -1.65228 0
M  V30 874 C 76.3262 -2.53218 -2.22221 0
M  V30 875 O 76.8562 -2.29628 -3.29597 0
M  V30 876 N 75.0622 -2.13756 -1.96868 0
M  V30 877 H 74.6092 -2.33142 -1.09557 0
M  V30 878 H 74.5672 -1.642 -2.68115 0
M  V30 879 N 78.3393 -0.321999 -1.54275 0
M  V30 880 C 79.5883 0.281931 -1.9972 0
M  V30 881 C 79.9013 1.53369 -1.21397 0
M  V30 882 O 81.1073 2.21352 -1.57211 0
M  V30 883 C 79.5633 0.5529 -3.55628 0
M  V30 884 C 79.1713 -0.681721 -4.42783 0
M  V30 885 C 80.9153 1.11687 -4.09544 0
M  V30 886 C 78.8223 -0.382742 -5.9016 0
M  V30 887 H 77.7523 0.109124 -0.746062 0
M  V30 888 H 80.4033 -0.43398 -1.78294 0
M  V30 889 H 78.7853 1.32896 -3.73035 0
M  V30 890 H 79.9593 -1.45723 -4.37151 0
M  V30 891 H 78.2743 -1.1658 -3.99748 0
M  V30 892 H 80.8713 1.35515 -5.17242 0
M  V30 893 H 81.2143 2.06575 -3.61431 0
M  V30 894 H 81.7473 0.402032 -3.95763 0
M  V30 895 H 78.4863 -1.30076 -6.42464 0
M  V30 896 H 78.0063 0.355094 -5.98748 0
M  V30 897 H 79.6853 0.00800157 -6.47 0
M  V30 898 N 79.8174 1.5752 -0.0501392 0
M  V30 899 C 81.0424 1.97376 0.636997 0
M  V30 900 C 81.4674 0.927466 1.63645 0
M  V30 901 O 80.8254 -0.10941 1.8097 0
M  V30 902 C 80.8734 3.36304 1.30123 0
M  V30 903 O 79.9774 3.34156 2.41689 0
M  V30 904 H 79.3184 0.642998 0.165679 0
M  V30 905 H 81.8484 2.04258 -0.118233 0
M  V30 906 H 81.8584 3.73008 1.65315 0
M  V30 907 H 80.5334 4.11993 0.568746 0
M  V30 908 H 79.1104 3.09196 2.08451 0
M  V30 909 N 81.2955 -0.223234 1.56011 0
M  V30 910 C 82.5205 -0.968978 1.83373 0
M  V30 911 C 82.9455 -1.77227 0.630254 0
M  V30 912 O 82.3035 -1.76345 -0.420959 0
M  V30 913 C 82.3515 -1.86363 3.08709 0
M  V30 914 O 81.4555 -2.95873 2.87285 0
M  V30 915 H 80.7965 -0.274461 0.604622 0
M  V30 916 H 83.3265 -0.237056 2.03222 0
M  V30 917 H 83.3365 -2.27376 3.38768 0
M  V30 918 H 82.0115 -1.27319 3.95933 0
M  V30 919 H 80.5885 -2.58818 2.68454 0
M  V30 920 N 82.7736 -1.49793 -0.48987 0
M  V30 921 C 83.6836 -1.70036 -1.61632 0
M  V30 922 C 84.6996 -0.583102 -1.63939 0
M  V30 923 O 85.8756 -0.859169 -1.82154 0
M  V30 924 C 82.9406 -1.77277 -2.97949 0
M  V30 925 C 82.0016 -3.00918 -3.06181 0
M  V30 926 C 81.2346 -3.07804 -4.35996 0
M  V30 927 O 81.4576 -2.21982 -5.25433 0
M  V30 928 O 80.3916 -4.00369 -4.49431 0
M  V30 929 H 84.2176 -2.65486 -1.47482 0
M  V30 930 H 81.8026 -1.33666 -0.667362 0
M  V30 931 H 83.6846 -1.84329 -3.78947 0
M  V30 932 H 82.3596 -0.850076 -3.12339 0
M  V30 933 H 81.2666 -2.99377 -2.2433 0
M  V30 934 H 82.5996 -3.92704 -2.96723 0
M  V30 935 N 84.2517 0.741722 -1.39055 0
M  V30 936 C 85.5287 1.49252 -1.26425 0
M  V30 937 C 85.9087 2.10705 0.129144 0
M  V30 938 O 85.2567 1.98045 1.13976 0
M  V30 939 C 85.4667 2.54934 -2.38347 0
M  V30 940 C 86.8147 3.21506 -2.77343 0
M  V30 941 O 87.8387 2.65245 -2.37747 0
M  V30 942 O 86.6977 4.23294 -3.45665 0
M  V30 943 H 83.7917 0.662451 -0.495064 0
M  V30 944 H 86.3377 0.776121 -1.50912 0
M  V30 945 H 85.1097 2.07857 -3.31529 0
M  V30 946 H 84.7327 3.34141 -2.15489 0
M  V30 947 N 85.7298 1.2412 0.971189 0
M  V30 948 C 86.9598 1.10415 1.7462 0
M  V30 949 C 87.3678 -0.346462 1.86001 0
M  V30 950 O 86.7108 -1.25104 1.34517 0
M  V30 951 C 86.7728 1.66596 3.18568 0
M  V30 952 C 86.4368 3.15446 3.3067 0
M  V30 953 C 87.4338 4.12636 3.16271 0
M  V30 954 C 85.1188 3.55337 3.55022 0
M  V30 955 C 87.1128 5.47699 3.26044 0
M  V30 956 C 84.7998 4.90542 3.64434 0
M  V30 957 C 85.7978 5.86532 3.49956 0
M  V30 958 O 85.4858 7.19279 3.59017 0
M  V30 959 H 85.2178 0.386616 0.55453 0
M  V30 960 H 87.7718 1.64633 1.22821 0
M  V30 961 H 86.0018 1.06808 3.71657 0
M  V30 962 H 87.6908 1.48232 3.77865 0
M  V30 963 H 88.4568 3.8316 2.97344 0
M  V30 964 H 84.3358 2.8113 3.65359 0
M  V30 965 H 87.8798 6.22603 3.14661 0
M  V30 966 H 83.7768 5.19691 3.82873 0
M  V30 967 H 84.5448 7.27153 3.75754 0
M  V30 968 N 87.2079 -1.17134 1.05439 0
M  V30 969 C 88.6239 -1.39454 0.776201 0
M  V30 970 C 88.8239 -1.91454 -0.628307 0
M  V30 971 O 87.8799 -2.10777 -1.39031 0
M  V30 972 C 89.1929 -2.38305 1.83388 0
M  V30 973 C 90.7409 -2.52006 1.85639 0
M  V30 974 C 91.2159 -3.54133 2.90437 0
M  V30 975 N 92.7069 -3.61653 2.89415 0
M  V30 976 C 93.4419 -4.4044 3.67152 0
M  V30 977 N 92.9379 -5.22721 4.54681 0
M  V30 978 N 94.7309 -4.35337 3.55581 0
M  V30 979 H 86.8819 -0.817134 1.96053 0
M  V30 980 H 89.1449 -0.421626 0.849079 0
M  V30 981 H 88.8509 -2.07173 2.84204 0
M  V30 982 H 88.7249 -3.37841 1.67761 0
M  V30 983 H 91.1119 -2.82447 0.85486 0
M  V30 984 H 91.1929 -1.52537 2.05344 0
M  V30 985 H 90.8369 -3.24431 3.90777 0
M  V30 986 H 90.7669 -4.53313 2.67983 0
M  V30 987 H 93.2579 -3.02909 2.25952 0
M  V30 988 H 93.5709 -5.80027 5.10674 0
M  V30 989 H 91.9159 -5.22093 4.58741 0
M  V30 990 H 95.1069 -3.70112 2.86592 0
M  V30 991 H 95.2799 -4.96494 4.1641 0
M  V30 992 N 88.686 -0.835752 -1.33615 0
M  V30 993 C 89.618 -0.224151 -2.28101 0
M  V30 994 C 90.631 0.593331 -1.51603 0
M  V30 995 O 91.82 0.420911 -1.73466 0
M  V30 996 C 88.92 0.703309 -3.31522 0
M  V30 997 C 88.093 -0.0741528 -4.37337 0
M  V30 998 C 87.152 0.776176 -5.20444 0
M  V30 999 O 86.178 0.216506 -5.68788 0
M  V30 1000 N 87.38 2.09401 -5.41416 0
M  V30 1001 H 90.145 -1.03598 -2.81225 0
M  V30 1002 H 87.706 -0.69392 -1.46275 0
M  V30 1003 H 89.698 1.27707 -3.84022 0
M  V30 1004 H 88.268 1.41585 -2.78698 0
M  V30 1005 H 87.488 -0.82928 -3.85378 0
M  V30 1006 H 88.776 -0.608863 -5.05144 0
M  V30 1007 H 88.174 2.57229 -5.03835 0
M  V30 1008 H 86.731 2.61633 -5.96985 0
M  V30 1009 N 90.1641 1.46063 -0.591896 0
M  V30 1010 C 91.0941 2.33172 0.123673 0
M  V30 1011 C 92.0751 1.45897 0.87453 0
M  V30 1012 O 93.2601 1.74698 0.848181 0
M  V30 1013 C 90.3901 3.28336 1.13194 0
M  V30 1014 C 89.3441 4.25124 0.495324 0
M  V30 1015 C 88.6701 5.09863 1.61071 0
M  V30 1016 C 89.9701 5.19143 -0.573425 0
M  V30 1017 H 91.6641 2.93252 -0.603646 0
M  V30 1018 H 89.2101 1.41014 -0.291741 0
M  V30 1019 H 91.1631 3.88137 1.64097 0
M  V30 1020 H 89.8871 2.66383 1.88965 0
M  V30 1021 H 88.5461 3.66599 0.00729452 0
M  V30 1022 H 88.1941 4.44288 2.35832 0
M  V30 1023 H 87.8941 5.75417 1.19035 0
M  V30 1024 H 89.4181 5.72529 2.12233 0
M  V30 1025 H 90.8321 5.73106 -0.1491 0
M  V30 1026 H 89.2291 5.93089 -0.914636 0
M  V30 1027 H 90.2991 4.62519 -1.45617 0
M  V30 1028 N 91.6422 0.330177 1.54103 0
M  V30 1029 C 92.5522 -0.541534 2.28264 0
M  V30 1030 C 93.5682 -1.12351 1.32866 0
M  V30 1031 O 94.7442 -1.14206 1.65888 0
M  V30 1032 C 91.8092 -1.68322 3.03098 0
M  V30 1033 C 90.8702 -1.13238 4.14096 0
M  V30 1034 C 90.1032 -2.21966 4.85352 0
M  V30 1035 O 90.3262 -3.42437 4.56172 0
M  V30 1036 O 89.2602 -1.87013 5.7211 0
M  V30 1037 H 93.0862 0.060938 3.03639 0
M  V30 1038 H 90.6712 0.09565 1.49093 0
M  V30 1039 H 92.5532 -2.34777 3.49939 0
M  V30 1040 H 91.2282 -2.27176 2.30593 0
M  V30 1041 H 90.1352 -0.432736 3.71589 0
M  V30 1042 H 91.4682 -0.588898 4.88664 0
M  V30 1043 N 93.1203 -1.57491 0.0584922 0
M  V30 1044 C 94.0503 -2.14988 -0.911178 0
M  V30 1045 C 95.0313 -1.07343 -1.31952 0
M  V30 1046 O 96.2163 -1.35318 -1.39294 0
M  V30 1047 C 93.3463 -2.70078 -2.18347 0
M  V30 1048 C 92.3003 -3.82771 -1.91495 0
M  V30 1049 C 91.6263 -4.24408 -3.25241 0
M  V30 1050 C 92.9263 -5.07592 -1.23075 0
M  V30 1051 H 94.6203 -2.96263 -0.432246 0
M  V30 1052 H 92.1663 -1.42512 -0.206469 0
M  V30 1053 H 94.1193 -3.08943 -2.86587 0
M  V30 1054 H 92.8433 -1.86005 -2.68458 0
M  V30 1055 H 91.5023 -3.44389 -1.25664 0
M  V30 1056 H 91.1503 -3.37275 -3.73168 0
M  V30 1057 H 90.8503 -5.00366 -3.08071 0
M  V30 1058 H 92.3743 -4.65879 -3.94701 0
M  V30 1059 H 93.7883 -5.43857 -1.81362 0
M  V30 1060 H 92.1853 -5.88741 -1.16207 0
M  V30 1061 H 93.2553 -4.84454 -0.207847 0
M  V30 1062 N 94.5984 0.214957 -1.56127 0
M  V30 1063 C 95.8444 0.939762 -1.79712 0
M  V30 1064 C 96.1774 1.83723 -0.629247 0
M  V30 1065 O 95.4524 1.90925 0.371197 0
M  V30 1066 C 95.7354 1.77306 -3.13424 0
M  V30 1067 C 95.5884 0.90164 -4.40671 0
M  V30 1068 C 96.9074 2.74956 -3.43638 0
M  V30 1069 H 94.0264 0.340214 -0.653776 0
M  V30 1070 H 96.6684 0.20824 -1.88855 0
M  V30 1071 H 94.8184 2.39673 -3.0576 0
M  V30 1072 H 96.4904 0.294206 -4.60361 0
M  V30 1073 H 94.7334 0.207368 -4.33304 0
M  V30 1074 H 95.4044 1.51923 -5.30682 0
M  V30 1075 H 97.8804 2.22724 -3.51473 0
M  V30 1076 H 96.7564 3.30358 -4.38355 0
M  V30 1077 H 97.0174 3.53023 -2.66134 0
M  V30 1078 N 96.0765 1.50051 0.48192 0
M  V30 1079 C 97.3255 1.59741 1.23149 0
M  V30 1080 C 97.6385 0.298163 1.93314 0
M  V30 1081 O 98.8445 0.273835 2.70116 0
M  V30 1082 C 97.3005 2.81926 2.23708 0
M  V30 1083 C 96.9085 4.18685 1.59396 0
M  V30 1084 C 98.6525 3.00956 2.99375 0
M  V30 1085 C 96.5595 5.3207 2.58178 0
M  V30 1086 H 95.4895 0.594838 0.46334 0
M  V30 1087 H 98.1405 1.76467 0.503169 0
M  V30 1088 H 96.5225 2.58736 2.99786 0
M  V30 1089 H 97.6965 4.52088 0.891811 0
M  V30 1090 H 96.0115 4.05171 0.960503 0
M  V30 1091 H 98.6085 3.82836 3.73283 0
M  V30 1092 H 98.9515 2.12258 3.58123 0
M  V30 1093 H 99.4845 3.24277 2.30411 0
M  V30 1094 H 96.2235 6.22888 2.04184 0
M  V30 1095 H 95.7435 5.03098 3.26577 0
M  V30 1096 H 97.4225 5.62196 3.20225 0
M  V30 1097 N 97.5546 -0.734337 1.39446 0
M  V30 1098 C 98.4846 -1.86155 1.40955 0
M  V30 1099 C 99.4656 -1.67898 0.272827 0
M  V30 1100 O 100.651 -1.88207 0.478743 0
M  V30 1101 C 97.7806 -3.23912 1.25294 0
M  V30 1102 C 96.7346 -3.56808 2.36373 0
M  V30 1103 C 96.0606 -4.93508 2.058 0
M  V30 1104 C 97.3606 -3.59713 3.78687 0
M  V30 1105 H 99.0546 -1.8515 2.35287 0
M  V30 1106 H 96.6006 -0.889367 1.13253 0
M  V30 1107 H 98.5536 -4.02443 1.2497 0
M  V30 1108 H 97.2776 -3.25446 0.274308 0
M  V30 1109 H 95.9366 -2.80606 2.35914 0
M  V30 1110 H 95.5846 -4.91623 1.06374 0
M  V30 1111 H 95.2846 -5.16486 2.80208 0
M  V30 1112 H 96.8086 -5.74396 2.07128 0
M  V30 1113 H 98.2226 -4.2832 3.81071 0
M  V30 1114 H 96.6196 -3.94209 4.52459 0
M  V30 1115 H 97.6896 -2.59504 4.09617 0
M  V30 1116 N 99.0327 -1.24633 -0.964593 0
M  V30 1117 C 99.9647 -0.999302 -2.06268 0
M  V30 1118 C 100.978 0.0323226 -1.62768 0
M  V30 1119 O 102.167 -0.205079 -1.77318 0
M  V30 1120 C 99.2667 -0.486816 -3.35385 0
M  V30 1121 C 98.4397 -1.5823 -4.07777 0
M  V30 1122 C 97.4987 -1.07191 -5.15166 0
M  V30 1123 O 96.5247 -1.76426 -5.41168 0
M  V30 1124 N 97.7267 0.0920373 -5.80427 0
M  V30 1125 H 100.492 -1.94477 -2.28033 0
M  V30 1126 H 98.0527 -1.15704 -1.13244 0
M  V30 1127 H 100.045 -0.130066 -4.04491 0
M  V30 1128 H 98.6147 0.364459 -3.10468 0
M  V30 1129 H 97.8347 -2.11109 -3.32906 0
M  V30 1130 H 99.1227 -2.31854 -4.52903 0
M  V30 1131 H 98.5207 0.670784 -5.61709 0
M  V30 1132 H 97.0777 0.389905 -6.50633 0
M  V30 1133 N 100.511 1.16574 -1.06058 0
M  V30 1134 C 101.736 1.91493 -0.796562 0
M  V30 1135 C 102.161 1.76773 0.642868 0
M  V30 1136 O 101.519 1.09142 1.44768 0
M  V30 1137 C 101.567 3.40293 -1.19303 0
M  V30 1138 O 100.671 4.11074 -0.330394 0
M  V30 1139 H 100.012 0.596678 -0.291326 0
M  V30 1140 H 102.542 1.47708 -1.41575 0
M  V30 1141 H 102.552 3.91057 -1.16356 0
M  V30 1142 H 101.227 3.50326 -2.24153 0
M  V30 1143 H 99.8038 3.70513 -0.421225 0
M  V30 1144 N 101.989 0.842826 1.3317 0
M  V30 1145 C 102.899 0.281444 2.32906 0
M  V30 1146 C 103.915 -0.594587 1.63526 0
M  V30 1147 O 105.091 -0.49777 1.95152 0
M  V30 1148 C 102.156 -0.530929 3.42611 0
M  V30 1149 C 101.217 0.369843 4.27704 0
M  V30 1150 C 100.45 -0.403853 5.3217 0
M  V30 1151 O 100.673 -1.63513 5.46461 0
M  V30 1152 O 99.6069 0.224199 6.01482 0
M  V30 1153 H 103.433 1.10744 2.82789 0
M  V30 1154 H 101.018 0.60545 1.36582 0
M  V30 1155 H 102.9 -0.992437 4.09547 0
M  V30 1156 H 101.575 -1.33392 2.94938 0
M  V30 1157 H 100.482 0.879275 3.6362 0
M  V30 1158 H 101.815 1.13771 4.78871 0
M  V30 1159 N 103.467 -1.45747 0.599634 0
M  V30 1160 C 104.878 -1.85853 0.177681 0
M  V30 1161 C 105.229 -1.50102 -1.26348 0
M  V30 1162 O 104.354 -0.923905 -1.95686 0
M  V30 1163 C 104.949 -3.37326 0.315688 0
M  V30 1164 C 103.508 -3.76365 -0.0515144 0
M  V30 1165 C 102.655 -2.69722 0.643822 0
M  V30 1166 H 105.606 -1.36661 0.806814 0
M  V30 1167 H 105.627 -3.77778 -0.454321 0
M  V30 1168 H 105.139 -3.63315 1.36468 0
M  V30 1169 H 103.24 -3.55993 -1.09999 0
M  V30 1170 H 103.353 -4.77916 0.336594 0
M  V30 1171 H 101.717 -2.54567 0.0822881 0
M  V30 1172 H 102.5 -2.98549 1.6948 0
M  V30 1173 N 104.945 -0.338344 -1.53925 0
M  V30 1174 C 105.895 0.536712 -2.21593 0
M  V30 1175 C 106.879 1.07015 -1.20153 0
M  V30 1176 O 108.071 1.00471 -1.45721 0
M  V30 1177 C 105.2 1.68977 -2.98834 0
M  V30 1178 C 104.286 1.17052 -4.07627 0
M  V30 1179 N 104.677 0.372085 -5.0443 0
M  V30 1180 C 102.975 1.44789 -4.21844 0
M  V30 1181 C 103.676 0.0909171 -5.81629 0
M  V30 1182 N 102.652 0.681131 -5.39316 0
M  V30 1183 H 106.454 -0.0804298 -2.9379 0
M  V30 1184 H 103.968 -0.144943 -1.61752 0
M  V30 1185 H 105.965 2.32857 -3.45808 0
M  V30 1186 H 104.625 2.31024 -2.28162 0
M  V30 1187 H 105.636 0.0136217 -5.17898 0
M  V30 1188 H 102.313 2.07313 -3.62391 0
M  V30 1189 H 103.703 -0.552817 -6.69622 0
M  V30 1190 N 106.423 1.57458 -0.0668435 0
M  V30 1191 C 107.839 1.56947 0.289772 0
M  V30 1192 C 108.039 1.07584 1.70376 0
M  V30 1193 O 107.095 0.739486 2.41429 0
M  V30 1194 C 108.408 3.0052 0.103943 0
M  V30 1195 C 109.956 3.12517 0.173857 0
M  V30 1196 C 110.431 4.57997 0.0163682 0
M  V30 1197 N 111.922 4.63144 0.0721352 0
M  V30 1198 C 112.657 5.73394 -0.0253794 0
M  V30 1199 N 112.153 6.92576 -0.176133 0
M  V30 1200 N 113.946 5.62091 0.0313305 0
M  V30 1201 H 106.097 1.87863 -0.991027 0
M  V30 1202 H 108.36 0.86583 -0.38606 0
M  V30 1203 H 108.066 3.40729 -0.871572 0
M  V30 1204 H 107.94 3.67304 0.858366 0
M  V30 1205 H 110.327 2.72197 1.13985 0
M  V30 1206 H 110.408 2.48381 -0.611586 0
M  V30 1207 H 110.052 4.99005 -0.946374 0
M  V30 1208 H 109.982 5.20158 0.821153 0
M  V30 1209 H 112.473 3.77436 0.187263 0
M  V30 1210 H 112.786 7.72418 -0.242821 0
M  V30 1211 H 111.131 6.94678 -0.211429 0
M  V30 1212 H 114.322 4.67867 0.147773 0
M  V30 1213 H 114.495 6.47982 -0.048121 0
M  V30 1214 N 107.901 -0.206675 1.56239 0
M  V30 1215 C 108.864 -1.23976 1.92776 0
M  V30 1216 C 109.864 -1.39041 0.807729 0
M  V30 1217 O 111.054 -1.37051 1.0753 0
M  V30 1218 C 108.186 -2.61112 2.19165 0
M  V30 1219 H 109.379 -0.927764 2.85189 0
M  V30 1220 H 106.932 -0.447718 1.4975 0
M  V30 1221 H 107.667 -2.97386 1.29352 0
M  V30 1222 H 107.452 -2.51552 3.00772 0
M  V30 1223 H 108.942 -3.35633 2.48476 0
M  V30 1224 N 109.379 -1.50304 -0.473955 0
M  V30 1225 C 110.627 -1.60832 -1.22382 0
M  V30 1226 C 110.948 -0.30939 -1.9253 0
M  V30 1227 O 110.218 0.67296 -1.83978 0
M  V30 1228 H 108.798 -0.592652 -0.454723 0
M  V30 1229 H 111.46 -1.87068 -0.546968 0
M  V30 1230 H 110.556 -2.41803 -1.97327 0
M  V30 1231 N 110.857 0.726932 -1.39834 0
M  V30 1232 C 112.103 1.48884 -1.377 0
M  V30 1233 C 112.436 1.94185 0.0244852 0
M  V30 1234 O 111.711 1.67361 0.990986 0
M  V30 1235 C 111.994 2.72288 -2.3565 0
M  V30 1236 C 111.847 2.32956 -3.84775 0
M  V30 1237 C 113.166 3.74414 -2.31306 0
M  V30 1238 H 110.285 0.540062 -0.5015 0
M  V30 1239 H 112.927 0.830547 -1.70886 0
M  V30 1240 H 111.077 3.28457 -2.07481 0
M  V30 1241 H 112.749 1.82356 -4.23726 0
M  V30 1242 H 110.992 1.65088 -4.01159 0
M  V30 1243 H 111.663 3.21362 -4.4881 0
M  V30 1244 H 114.139 3.27849 -2.56231 0
M  V30 1245 H 113.015 4.58414 -3.01907 0
M  V30 1246 H 113.276 4.21909 -1.32081 0
M  V30 1247 N 112.336 1.25143 0.95797 0
M  V30 1248 C 113.268 1.01023 2.05735 0
M  V30 1249 C 114.281 -0.0236902 1.62783 0
M  V30 1250 O 115.47 0.21448 1.77207 0
M  V30 1251 C 112.57 0.504595 3.35122 0
M  V30 1252 C 111.743 1.6039 4.06932 0
M  V30 1253 C 110.802 1.09922 5.14591 0
M  V30 1254 O 109.828 1.79293 5.40225 0
M  V30 1255 N 111.03 -0.0612545 5.80468 0
M  V30 1256 H 113.795 1.95683 2.26998 0
M  V30 1257 H 111.356 1.16303 1.12629 0
M  V30 1258 H 113.348 0.151516 4.04416 0
M  V30 1259 H 111.918 -0.347989 3.10657 0
M  V30 1260 H 111.138 2.12872 3.31782 0
M  V30 1261 H 112.426 2.34252 4.51667 0
M  V30 1262 H 111.824 -0.640985 5.62057 0
M  V30 1263 H 110.381 -0.355395 6.5083 0
M  V30 1264 N 113.814 -1.1601 1.06675 0
M  V30 1265 C 115.06 -1.87145 0.796766 0
M  V30 1266 C 115.415 -1.8037 -0.669658 0
M  V30 1267 O 114.708 -1.21116 -1.48463 0
M  V30 1268 C 114.902 -3.35547 1.23057 0
M  V30 1269 C 114.731 -3.56769 2.73762 0
M  V30 1270 C 113.501 -3.72635 3.41279 0
M  V30 1271 C 115.699 -3.55166 3.7197 0
M  V30 1272 N 113.681 -3.81845 4.80695 0
M  V30 1273 C 115.052 -3.70406 4.97191 0
M  V30 1274 C 117.107 -3.384 3.65226 0
M  V30 1275 C 115.81 -3.70615 6.16471 0
M  V30 1276 C 117.836 -3.39904 4.83962 0
M  V30 1277 C 117.198 -3.55667 6.08013 0
M  V30 1278 H 113.297 -0.702267 0.344014 0
M  V30 1279 H 115.881 -1.39165 1.36166 0
M  V30 1280 H 114.052 -3.82159 0.693456 0
M  V30 1281 H 115.784 -3.94363 0.908844 0
M  V30 1282 H 112.539 -3.73121 2.91681 0
M  V30 1283 H 112.963 -3.90209 5.53232 0
M  V30 1284 H 117.605 -3.25138 2.70269 0
M  V30 1285 H 115.323 -3.82658 7.11757 0
M  V30 1286 H 118.909 -3.28169 4.80413 0
M  V30 1287 H 117.789 -3.56755 6.98352 0
M  V30 1288 N 115.292 -0.849877 -1.32721 0
M  V30 1289 C 116.239 -0.289033 -2.28983 0
M  V30 1290 C 117.209 0.601324 -1.54833 0
M  V30 1291 O 118.394 0.537253 -1.8308 0
M  V30 1292 C 115.534 0.520623 -3.4115 0
M  V30 1293 C 114.647 -0.394989 -4.3019 0
M  V30 1294 C 113.782 0.426834 -5.29482 0
M  V30 1295 C 112.821 -0.486476 -6.10164 0
M  V30 1296 N 111.958 0.297879 -7.01468 0
M  V30 1297 H 116.798 -1.11519 -2.76347 0
M  V30 1298 H 114.335 -0.56138 -1.35967 0
M  V30 1299 H 116.293 1.00563 -4.04899 0
M  V30 1300 H 114.923 1.31165 -2.9495 0
M  V30 1301 H 113.975 -0.99836 -3.67065 0
M  V30 1302 H 115.287 -1.09612 -4.86607 0
M  V30 1303 H 114.441 0.975205 -5.98811 0
M  V30 1304 H 113.18 1.16136 -4.73671 0
M  V30 1305 H 112.185 -1.04677 -5.39743 0
M  V30 1306 H 113.41 -1.21953 -6.6806 0
M  V30 1307 H 111.356 1.01558 -6.48091 0
M  V30 1308 H 111.273 -0.344318 -7.55216 0
M  V30 1309 H 112.541 0.828131 -7.75089 0
M  V30 1310 N 116.77 1.45427 -0.607355 0
M  V30 1311 C 118.017 2.02241 -0.102455 0
M  V30 1312 C 118.345 1.4758 1.26691 0
M  V30 1313 O 117.6 0.640468 1.84923 0
M  V30 1314 C 117.899 3.57398 -0.0129263 0
M  V30 1315 C 117.565 4.3121 -1.31792 0
M  V30 1316 C 116.227 4.51092 -1.67539 0
M  V30 1317 C 118.579 4.73401 -2.18039 0
M  V30 1318 C 115.907 5.10422 -2.89285 0
M  V30 1319 C 118.259 5.34078 -3.39034 0
M  V30 1320 C 116.923 5.52184 -3.75033 0
M  V30 1321 H 116.193 0.740051 -0.037491 0
M  V30 1322 H 118.84 1.74494 -0.788926 0
M  V30 1323 H 117.145 3.84421 0.756806 0
M  V30 1324 H 118.842 3.99061 0.393881 0
M  V30 1325 H 115.432 4.16047 -1.02968 0
M  V30 1326 H 119.616 4.57774 -1.91721 0
M  V30 1327 H 114.872 5.22629 -3.17283 0
M  V30 1328 H 119.046 5.65724 -4.06115 0
M  V30 1329 H 116.673 5.97925 -4.69457 0
M  V30 1330 N 118.248 0.346503 1.53744 0
M  V30 1331 C 119.211 -0.496439 2.23759 0
M  V30 1332 C 120.211 -1.0252 1.2388 0
M  V30 1333 O 121.401 -0.913974 1.48297 0
M  V30 1334 C 118.533 -1.69187 2.95954 0
M  V30 1335 H 119.726 0.115952 2.99676 0
M  V30 1336 H 117.279 0.0978939 1.55993 0
M  V30 1337 H 118.014 -2.34288 2.24231 0
M  V30 1338 H 117.799 -1.31989 3.69217 0
M  V30 1339 H 119.289 -2.28969 3.49232 0
M  V30 1340 N 119.726 -1.57421 0.075193 0
M  V30 1341 C 120.974 -1.93236 -0.591974 0
M  V30 1342 C 121.295 -0.956241 -1.69944 0
M  V30 1343 O 120.565 -0.00494792 -1.95899 0
M  V30 1344 H 119.145 -0.713355 -0.22166 0
M  V30 1345 H 121.807 -1.9444 0.133848 0
M  V30 1346 H 120.903 -2.95131 -1.01509 0
M  V30 1347 N 121.204 0.198386 -1.56346 0
M  V30 1348 C 122.429 0.939682 -1.84891 0
M  V30 1349 C 122.854 1.76202 -0.658369 0
M  V30 1350 O 122.212 1.76993 0.392851 0
M  V30 1351 C 122.26 1.81428 -3.11635 0
M  V30 1352 O 121.364 2.91265 -2.91956 0
M  V30 1353 H 120.705 0.264807 -0.608912 0
M  V30 1354 H 123.235 0.204695 -2.03573 0
M  V30 1355 H 123.245 2.21958 -3.42343 0
M  V30 1356 H 121.92 1.21004 -3.97908 0
M  V30 1357 H 120.497 2.54514 -2.72538 0
M  V30 1358 N 122.682 1.50554 0.465978 0
M  V30 1359 C 123.929 1.61798 1.21768 0
M  V30 1360 C 124.257 0.320696 1.91838 0
M  V30 1361 O 123.512 -0.693724 1.82992 0
M  V30 1362 C 123.811 2.75152 2.28093 0
M  V30 1363 C 123.477 4.15454 1.75239 0
M  V30 1364 C 122.139 4.53628 1.60546 0
M  V30 1365 C 124.491 5.03121 1.36083 0
M  V30 1366 C 121.819 5.77204 1.05128 0
M  V30 1367 C 124.171 6.27249 0.821056 0
M  V30 1368 C 122.835 6.64221 0.660795 0
M  V30 1369 H 122.105 0.592063 0.445582 0
M  V30 1370 H 124.752 1.84503 0.512927 0
M  V30 1371 H 123.057 2.46556 3.04496 0
M  V30 1372 H 124.754 2.81055 2.86023 0
M  V30 1373 H 121.344 3.85341 1.87644 0
M  V30 1374 H 125.528 4.74257 1.46267 0
M  V30 1375 H 120.784 6.0452 0.91462 0
M  V30 1376 H 124.958 6.94537 0.509018 0
M  V30 1377 H 122.585 7.59854 0.229226 0
M  V30 1378 N 124.16 -0.719506 1.40217 0
M  V30 1379 C 125.39 -1.50646 1.41384 0
M  V30 1380 C 125.798 -1.89197 0.0107743 0
M  V30 1381 O 125.141 -1.55709 -0.974708 0
M  V30 1382 C 125.203 -2.81405 2.23722 0
M  V30 1383 C 124.867 -2.65199 3.72181 0
M  V30 1384 C 125.864 -2.32717 4.64907 0
M  V30 1385 C 123.549 -2.81586 4.1595 0
M  V30 1386 C 125.543 -2.16827 5.99387 0
M  V30 1387 C 123.23 -2.65313 5.50502 0
M  V30 1388 C 124.228 -2.32981 6.42035 0
M  V30 1389 O 123.916 -2.16827 7.74107 0
M  V30 1390 H 123.648 -0.471606 0.484318 0
M  V30 1391 H 126.202 -0.895456 1.84853 0
M  V30 1392 H 124.432 -3.44823 1.75026 0
M  V30 1393 H 126.121 -3.43102 2.16878 0
M  V30 1394 H 126.887 -2.19694 4.32388 0
M  V30 1395 H 122.766 -3.0574 3.45027 0
M  V30 1396 H 126.31 -1.91513 6.70797 0
M  V30 1397 H 122.207 -2.7792 5.82607 0
M  V30 1398 H 122.975 -2.31778 7.84998 0
M  V30 1399 N 125.638 -1.25649 -0.95132 0
M  V30 1400 C 126.885 -1.10594 -1.69633 0
M  V30 1401 C 127.213 0.352515 -1.91279 0
M  V30 1402 O 126.468 1.27601 -1.4838 0
M  V30 1403 C 126.767 -1.80909 -3.08231 0
M  V30 1404 C 126.433 -3.30825 -3.06375 0
M  V30 1405 C 125.095 -3.71722 -3.05576 0
M  V30 1406 C 127.447 -4.26589 -2.99452 0
M  V30 1407 C 124.775 -5.06788 -2.95606 0
M  V30 1408 C 127.127 -5.61683 -2.91024 0
M  V30 1409 C 125.791 -6.01904 -2.88562 0
M  V30 1410 H 125.061 -0.404691 -0.620731 0
M  V30 1411 H 127.708 -1.55964 -1.11119 0
M  V30 1412 H 126.013 -1.27979 -3.70309 0
M  V30 1413 H 127.71 -1.6671 -3.64704 0
M  V30 1414 H 124.3 -2.98287 -3.07771 0
M  V30 1415 H 128.484 -3.95982 -2.99185 0
M  V30 1416 H 123.74 -5.37126 -2.92071 0
M  V30 1417 H 127.914 -6.35578 -2.84629 0
M  V30 1418 H 125.541 -7.06521 -2.80593 0
M  V30 1419 N 127.117 1.15442 -1.07289 0
M  V30 1420 C 128.08 2.18358 -0.696591 0
M  V30 1421 C 129.08 1.58637 0.262837 0
M  V30 1422 O 130.27 1.74145 0.0438809 0
M  V30 1423 C 127.402 3.4089 -0.0266151 0
M  V30 1424 H 128.595 2.53162 -1.60776 0
M  V30 1425 H 126.148 1.29893 -0.869342 0
M  V30 1426 H 126.883 3.11653 0.896822 0
M  V30 1427 H 126.668 3.85495 -0.716657 0
M  V30 1428 H 128.158 4.17009 0.222028 0
M  V30 1429 N 128.595 0.856903 1.32268 0
M  V30 1430 C 129.844 0.457599 1.96441 0
M  V30 1431 C 130.157 -0.992426 1.68553 0
M  V30 1432 O 131.363 -1.49727 2.26482 0
M  V30 1433 C 129.819 0.767358 3.51624 0
M  V30 1434 C 129.427 2.23326 3.88367 0
M  V30 1435 C 131.171 0.435887 4.22256 0
M  V30 1436 C 129.078 2.48613 5.36606 0
M  V30 1437 H 128.008 0.167387 0.735185 0
M  V30 1438 H 130.659 1.048 1.5063 0
M  V30 1439 H 129.041 0.106367 3.95857 0
M  V30 1440 H 130.215 2.93623 3.55137 0
M  V30 1441 H 128.53 2.52948 3.30766 0
M  V30 1442 H 131.127 0.602202 5.31298 0
M  V30 1443 H 131.47 -0.622672 4.11617 0
M  V30 1444 H 132.003 1.05286 3.83614 0
M  V30 1445 H 128.742 3.53101 5.52268 0
M  V30 1446 H 128.262 1.82896 5.71235 0
M  V30 1447 H 129.941 2.32676 6.03714 0
M  V30 1448 N 130.073 -1.45103 0.615059 0
M  V30 1449 C 131.301 -2.06553 0.11977 0
M  V30 1450 C 131.716 -1.45842 -1.19898 0
M  V30 1451 O 131.073 -0.575325 -1.73194 0
M  V30 1452 C 131.124 -3.61495 -0.018364 0
M  V30 1453 O 130.845 -4.19942 1.24822 0
M  V30 1454 C 132.346 -4.39947 -0.544237 0
M  V30 1455 H 129.566 -0.667096 0.0722739 0
M  V30 1456 H 132.11 -1.8623 0.84491 0
M  V30 1457 H 130.265 -3.81135 -0.693865 0
M  V30 1458 H 130.679 -5.13204 1.0827 0
M  V30 1459 H 132.153 -5.48838 -0.589953 0
M  V30 1460 H 132.63 -4.10255 -1.56805 0
M  V30 1461 H 133.236 -4.25188 0.0974703 0
M  V30 1462 N 131.551 -0.354651 -1.53558 0
M  V30 1463 C 132.797 0.238797 -2.01389 0
M  V30 1464 C 133.13 1.49309 -1.2418 0
M  V30 1465 O 132.405 1.91638 -0.332457 0
M  V30 1466 C 132.688 0.541771 -3.56001 0
M  V30 1467 C 132.541 -0.725388 -4.43912 0
M  V30 1468 C 133.86 1.34685 -4.18984 0
M  V30 1469 H 130.979 0.0853177 -0.732045 0
M  V30 1470 H 133.621 -0.477384 -1.83905 0
M  V30 1471 H 131.771 1.15189 -3.71031 0
M  V30 1472 H 133.443 -1.36313 -4.407 0
M  V30 1473 H 131.686 -1.34801 -4.12324 0
M  V30 1474 H 132.357 -0.468505 -5.50008 0
M  V30 1475 H 134.833 0.830837 -4.07721 0
M  V30 1476 H 133.709 1.52759 -5.27215 0
M  V30 1477 H 133.97 2.35221 -3.74331 0
M  V30 1478 N 133.029 1.57378 -0.0835403 0
M  V30 1479 C 134.278 1.93106 0.582498 0
M  V30 1480 C 134.591 0.96651 1.70053 0
M  V30 1481 O 135.797 1.21705 2.42693 0
M  V30 1482 C 134.253 3.43076 1.08751 0
M  V30 1483 C 133.861 4.48 -0.000146404 0
M  V30 1484 C 135.605 3.87785 1.72694 0
M  V30 1485 C 133.512 5.89113 0.519568 0
M  V30 1486 H 132.442 0.720775 0.221358 0
M  V30 1487 H 135.093 1.82821 -0.157675 0
M  V30 1488 H 133.475 3.48474 1.88101 0
M  V30 1489 H 134.649 4.54233 -0.775199 0
M  V30 1490 H 132.964 4.1283 -0.54406 0
M  V30 1491 H 135.561 4.90604 2.1263 0
M  V30 1492 H 135.904 3.25796 2.59158 0
M  V30 1493 H 136.437 3.8504 0.999457 0
M  V30 1494 H 133.176 6.54775 -0.308186 0
M  V30 1495 H 132.696 5.86376 1.26188 0
M  V30 1496 H 134.375 6.39346 0.992237 0
M  V30 1497 N 134.507 -0.190092 1.56449 0
M  V30 1498 C 135.735 -0.925772 1.85033 0
M  V30 1499 C 136.15 -1.76638 0.666658 0
M  V30 1500 O 135.507 -1.78822 -0.364565 0
M  V30 1501 C 135.558 -1.81786 3.12468 0
M  V30 1502 O 135.279 -1.01118 4.26271 0
M  V30 1503 C 136.78 -2.6648 3.54265 0
M  V30 1504 H 134 -0.269872 0.614337 0
M  V30 1505 H 136.544 -0.195837 2.0356 0
M  V30 1506 H 134.699 -2.50136 2.95822 0
M  V30 1507 H 135.113 -1.61956 4.98869 0
M  V30 1508 H 136.587 -3.24722 4.46385 0
M  V30 1509 H 137.064 -3.40434 2.77491 0
M  V30 1510 H 137.67 -2.03493 3.73458 0
M  V30 1511 N 135.985 -1.50799 -0.457987 0
M  V30 1512 C 137.213 -1.66218 -1.23203 0
M  V30 1513 C 137.628 -0.350894 -1.85511 0
M  V30 1514 O 136.985 0.668546 -1.69814 0
M  V30 1515 C 137.036 -2.76291 -2.33121 0
M  V30 1516 O 136.757 -4.02338 -1.73366 0
M  V30 1517 C 138.258 -3.028 -3.2377 0
M  V30 1518 H 135.478 -0.558361 -0.372121 0
M  V30 1519 H 138.022 -1.97099 -0.545179 0
M  V30 1520 H 136.177 -2.48068 -2.97558 0
M  V30 1521 H 136.591 -4.63312 -2.4585 0
M  V30 1522 H 138.065 -3.8345 -3.97077 0
M  V30 1523 H 138.542 -2.14385 -3.83322 0
M  V30 1524 H 139.148 -3.32604 -2.65056 0
M  V30 1525 N 137.463 0.71206 -1.40597 0
M  V30 1526 C 138.712 1.46754 -1.38369 0
M  V30 1527 C 139.025 1.95598 0.0097839 0
M  V30 1528 O 140.231 2.71059 0.154677 0
M  V30 1529 C 138.687 2.65289 -2.43207 0
M  V30 1530 C 138.295 2.23301 -3.88382 0
M  V30 1531 C 140.039 3.43008 -2.50091 0
M  V30 1532 C 137.946 3.38696 -4.84808 0
M  V30 1533 H 136.876 0.55118 -0.514506 0
M  V30 1534 H 139.527 0.774616 -1.66349 0
M  V30 1535 H 137.909 3.36769 -2.08332 0
M  V30 1536 H 139.083 1.59218 -4.32419 0
M  V30 1537 H 137.398 1.58618 -3.85006 0
M  V30 1538 H 139.995 4.28881 -3.1932 0
M  V30 1539 H 140.338 3.87065 -1.53253 0
M  V30 1540 H 140.871 2.78574 -2.83974 0
M  V30 1541 H 137.61 2.99668 -5.82992 0
M  V30 1542 H 137.13 4.01683 -4.45433 0
M  V30 1543 H 138.809 4.04712 -5.04794 0
M  V30 1544 N 138.941 1.26152 0.944643 0
M  V30 1545 C 140.189 1.11271 1.6871 0
M  V30 1546 C 140.51 -0.345166 1.91921 0
M  V30 1547 O 139.78 -1.24387 1.51343 0
M  V30 1548 H 138.36 0.408783 0.625224 0
M  V30 1549 H 141.022 1.58427 1.1352 0
M  V30 1550 H 140.118 1.62879 2.66227 0
M  V30 1551 N 140.419 -1.14872 1.07899 0
M  V30 1552 C 141.649 -1.89386 0.825631 0
M  V30 1553 C 142.057 -1.78565 -0.625406 0
M  V30 1554 O 141.4 -1.13918 -1.44113 0
M  V30 1555 C 141.462 -3.40206 1.16191 0
M  V30 1556 C 141.126 -3.74812 2.61467 0
M  V30 1557 C 142.123 -3.75367 3.59716 0
M  V30 1558 C 139.808 -4.0495 2.97189 0
M  V30 1559 C 141.802 -4.05574 4.9172 0
M  V30 1560 C 139.489 -4.34821 4.29388 0
M  V30 1561 C 140.487 -4.35116 5.26463 0
M  V30 1562 O 140.175 -4.64267 6.56286 0
M  V30 1563 H 139.907 -0.606894 0.297751 0
M  V30 1564 H 142.461 -1.46438 1.44031 0
M  V30 1565 H 140.691 -3.8358 0.490214 0
M  V30 1566 H 142.38 -3.96018 0.890193 0
M  V30 1567 H 143.146 -3.52176 3.33462 0
M  V30 1568 H 139.025 -4.03876 2.22273 0
M  V30 1569 H 142.569 -4.05719 5.67484 0
M  V30 1570 H 138.466 -4.5748 4.55392 0
M  V30 1571 H 139.234 -4.82007 6.61522 0
M  V30 1572 N 141.898 -0.863906 -1.31812 0
M  V30 1573 C 143.146 -0.470904 -1.96537 0
M  V30 1574 C 143.467 0.978771 -1.68657 0
M  V30 1575 O 142.737 1.6853 -0.998717 0
M  V30 1576 H 141.317 -0.171148 -0.72713 0
M  V30 1577 H 143.979 -1.10236 -1.60729 0
M  V30 1578 H 143.075 -0.623616 -3.05806 0
M  V30 1579 N 143.376 1.44774 -0.622745 0
M  V30 1580 C 144.326 2.2774 0.108889 0
M  V30 1581 C 145.31 1.38189 0.824175 0
M  V30 1582 O 146.502 1.62063 0.711664 0
M  V30 1583 C 143.631 3.25353 1.09546 0
M  V30 1584 C 142.717 4.22392 0.380232 0
M  V30 1585 N 143.108 5.02388 -0.586535 0
M  V30 1586 C 141.406 4.41588 0.625792 0
M  V30 1587 C 142.107 5.72894 -1.00834 0
M  V30 1588 N 141.083 5.42479 -0.348878 0
M  V30 1589 H 144.885 2.86993 -0.63341 0
M  V30 1590 H 142.399 1.5611 -0.447589 0
M  V30 1591 H 144.396 3.83538 1.63414 0
M  V30 1592 H 143.056 2.6766 1.83815 0
M  V30 1593 H 144.067 5.0885 -0.963975 0
M  V30 1594 H 140.744 3.95003 1.352 0
M  V30 1595 H 142.134 6.47158 -1.80656 0
M  V30 1596 N 144.854 0.36279 1.53368 0
M  V30 1597 C 145.817 -0.472679 2.24273 0
M  V30 1598 C 146.817 -1.012 1.24961 0
M  V30 1599 O 148.007 -0.898194 1.49259 0
M  V30 1600 C 145.139 -1.66039 2.97731 0
M  V30 1601 H 146.332 0.14773 2.99536 0
M  V30 1602 H 143.885 0.114434 1.55881 0
M  V30 1603 H 144.62 -2.31896 2.26704 0
M  V30 1604 H 144.405 -1.28066 3.70596 0
M  V30 1605 H 145.895 -2.25252 3.51641 0
M  V30 1606 N 146.332 -1.57332 0.0918853 0
M  V30 1607 C 147.295 -2.12708 -0.85369 0
M  V30 1608 C 148.295 -1.05561 -1.213 0
M  V30 1609 O 149.485 -1.31461 -1.14296 0
M  V30 1610 C 146.617 -2.64503 -2.15061 0
M  V30 1611 H 147.81 -2.97573 -0.3729 0
M  V30 1612 H 145.363 -1.55509 -0.157072 0
M  V30 1613 H 146.098 -1.83149 -2.67632 0
M  V30 1614 H 145.883 -3.4284 -1.90272 0
M  V30 1615 H 147.373 -3.07351 -2.82711 0
M  V30 1616 N 147.81 0.181792 -1.56548 0
M  V30 1617 C 149.221 0.745244 -1.71181 0
M  V30 1618 C 149.572 1.83262 -0.70068 0
M  V30 1619 O 148.697 2.15946 0.140154 0
M  V30 1620 C 149.292 1.35859 -3.10367 0
M  V30 1621 C 147.851 1.86898 -3.2672 0
M  V30 1622 C 146.998 0.743942 -2.67134 0
M  V30 1623 H 149.949 -0.0434661 -1.5864 0
M  V30 1624 H 149.97 2.22817 -3.08436 0
M  V30 1625 H 149.482 0.566948 -3.83937 0
M  V30 1626 H 147.583 2.68738 -2.5809 0
M  V30 1627 H 147.696 2.02162 -4.34359 0
M  V30 1628 H 146.06 1.16169 -2.26665 0
M  V30 1629 H 146.843 -0.035676 -3.43281 0
M  V30 1630 N 149.288 1.51039 0.449983 0
M  V30 1631 C 150.536 1.62759 1.19808 0
M  V30 1632 C 150.857 0.339981 1.92013 0
M  V30 1633 O 150.127 -0.643606 1.85026 0
M  V30 1634 H 148.707 0.599811 0.445237 0
M  V30 1635 H 151.369 1.87914 0.517138 0
M  V30 1636 H 150.465 2.44911 1.93455 0
M  V30 1637 N 150.766 -0.704594 1.40972 0
M  V30 1638 C 151.994 -1.49354 1.43182 0
M  V30 1639 C 152.409 -1.88768 0.0345508 0
M  V30 1640 O 151.766 -1.56184 -0.944081 0
M  V30 1641 C 151.817 -2.76187 2.33244 0
M  V30 1642 O 151.538 -2.38436 3.67532 0
M  V30 1643 C 153.039 -3.7 2.44162 0
M  V30 1644 H 150.259 -0.460559 0.487982 0
M  V30 1645 H 152.803 -0.868261 1.85153 0
M  V30 1646 H 150.958 -3.34974 1.94606 0
M  V30 1647 H 151.372 -3.20126 4.15475 0
M  V30 1648 H 152.846 -4.55803 3.11364 0
M  V30 1649 H 153.323 -4.13867 1.47006 0
M  V30 1650 H 153.929 -3.17121 2.83398 0
M  V30 1651 N 152.244 -1.26651 -0.937939 0
M  V30 1652 C 153.521 -1.0313 -1.66204 0
M  V30 1653 C 153.901 0.437256 -2.06522 0
M  V30 1654 O 153.249 1.41831 -1.79154 0
M  V30 1655 C 153.459 -1.98314 -2.87181 0
M  V30 1656 C 154.807 -2.27107 -3.58758 0
M  V30 1657 O 155.831 -1.96205 -2.97291 0
M  V30 1658 O 154.69 -2.79736 -4.69479 0
M  V30 1659 H 151.784 -0.392384 -0.727986 0
M  V30 1660 H 154.33 -1.37874 -0.989382 0
M  V30 1661 H 153.102 -2.97399 -2.54302 0
M  V30 1662 H 152.725 -1.64068 -3.6217 0
M  V30 1663 N 153.722 1.14298 -1.08507 0
M  V30 1664 C 154.685 2.17607 -0.719711 0
M  V30 1665 C 155.685 1.58907 0.245997 0
M  V30 1666 O 156.875 1.74181 0.0254081 0
M  V30 1667 C 154.007 3.40842 -0.0627695 0
M  V30 1668 H 155.2 2.51443 -1.63452 0
M  V30 1669 H 152.753 1.28963 -0.88307 0
M  V30 1670 H 153.488 3.12587 0.863716 0
M  V30 1671 H 153.273 3.84713 -0.757504 0
M  V30 1672 H 154.763 4.17221 0.177786 0
M  V30 1673 N 155.201 0.870884 1.31352 0
M  V30 1674 C 156.449 0.48132 1.96285 0
M  V30 1675 C 156.77 -0.969813 1.69173 0
M  V30 1676 O 156.04 -1.67998 1.00764 0
M  V30 1677 H 154.62 0.175002 0.726212 0
M  V30 1678 H 157.282 1.11087 1.60143 0
M  V30 1679 H 156.378 0.639825 3.05471 0
M  V30 1680 N 156.679 -1.44442 0.630414 0
M  V30 1681 C 157.626 -2.30678 -0.0749355 0
M  V30 1682 C 158.596 -1.4344 -0.837502 0
M  V30 1683 O 159.781 -1.72343 -0.818684 0
M  V30 1684 C 156.921 -3.28706 -1.05103 0
M  V30 1685 C 156.034 -4.31046 -0.286954 0
M  V30 1686 C 155.169 -5.16167 -1.2548 0
M  V30 1687 C 154.208 -6.10216 -0.479843 0
M  V30 1688 N 153.345 -6.88039 -1.39811 0
M  V30 1689 H 158.185 -2.90454 0.666386 0
M  V30 1690 H 155.722 -1.43107 0.340404 0
M  V30 1691 H 157.68 -3.84027 -1.63031 0
M  V30 1692 H 156.31 -2.70632 -1.75949 0
M  V30 1693 H 155.362 -3.78203 0.408243 0
M  V30 1694 H 156.674 -4.97794 0.316657 0
M  V30 1695 H 155.828 -5.76002 -1.90544 0
M  V30 1696 H 154.567 -4.49491 -1.89233 0
M  V30 1697 H 153.572 -5.49491 0.184295 0
M  V30 1698 H 154.797 -6.78928 0.152965 0
M  V30 1699 H 152.743 -6.24032 -2.02287 0
M  V30 1700 H 152.66 -7.51223 -0.848508 0
M  V30 1701 H 153.928 -7.52397 -2.03762 0
M  V30 1702 N 158.157 -0.370918 -1.53173 0
M  V30 1703 C 159.12 0.460778 -2.24521 0
M  V30 1704 C 160.12 1.00536 -1.25496 0
M  V30 1705 O 161.31 0.890266 -1.49733 0
M  V30 1706 C 158.442 1.64457 -2.98608 0
M  V30 1707 H 159.635 -0.163613 -2.99453 0
M  V30 1708 H 157.188 -0.122699 -1.55818 0
M  V30 1709 H 157.923 2.30691 -2.2793 0
M  V30 1710 H 157.708 1.26099 -3.7127 0
M  V30 1711 H 159.198 2.23384 -3.5283 0
M  V30 1712 N 159.635 1.57281 -0.100228 0
M  V30 1713 C 160.882 1.94537 0.562268 0
M  V30 1714 C 161.21 0.982315 1.67871 0
M  V30 1715 O 160.465 0.00280936 1.957 0
M  V30 1716 C 160.764 3.38305 1.15259 0
M  V30 1717 C 160.43 4.50618 0.159409 0
M  V30 1718 C 159.092 4.81066 -0.113741 0
M  V30 1719 C 161.444 5.18615 -0.518461 0
M  V30 1720 C 158.772 5.76835 -1.07137 0
M  V30 1721 C 161.124 6.15412 -1.46459 0
M  V30 1722 C 159.788 6.44262 -1.74592 0
M  V30 1723 H 159.058 0.711863 0.205748 0
M  V30 1724 H 161.705 1.90679 -0.17715 0
M  V30 1725 H 160.01 3.38766 1.96836 0
M  V30 1726 H 161.707 3.64435 1.67297 0
M  V30 1727 H 158.297 4.2689 0.382491 0
M  V30 1728 H 162.481 4.95264 -0.320581 0
M  V30 1729 H 157.737 5.975 -1.29628 0
M  V30 1730 H 161.911 6.67194 -1.99564 0
M  V30 1731 H 159.538 7.1828 -2.48953 0
M  V30 1732 N 161.113 -0.173488 1.56642 0
M  V30 1733 C 162.353 -0.896984 1.83667 0
M  V30 1734 C 162.717 -1.79523 0.680842 0
M  V30 1735 O 163.918 -2.55616 0.831488 0
M  V30 1736 C 162.189 -1.67351 3.15798 0
M  V30 1737 S 163.748 -2.44607 3.64298 0
M  V30 1738 H 160.566 -0.300464 0.644393 0
M  V30 1739 H 163.168 -0.158775 1.94854 0
M  V30 1740 H 161.872 -1.00462 3.97914 0
M  V30 1741 H 161.403 -2.45313 3.07546 0
M  V30 1742 H 163.418 -3.69261 3.31452 0
M  V30 1743 N 162.591 -1.51276 -0.441967 0
M  V30 1744 C 163.524 -1.66933 -1.55591 0
M  V30 1745 C 164.502 -0.516958 -1.54163 0
M  V30 1746 O 165.686 -0.740209 -1.73358 0
M  V30 1747 C 162.813 -1.67866 -2.94174 0
M  V30 1748 C 161.859 -2.89013 -3.13646 0
M  V30 1749 S 162.692 -4.49897 -2.90436 0
M  V30 1750 C 163.848 -4.53568 -4.31308 0
M  V30 1751 H 164.081 -2.61155 -1.42076 0
M  V30 1752 H 161.614 -1.40902 -0.631341 0
M  V30 1753 H 163.572 -1.69089 -3.74058 0
M  V30 1754 H 162.233 -0.748296 -3.05056 0
M  V30 1755 H 161.426 -2.86054 -4.14957 0
M  V30 1756 H 161.028 -2.85509 -2.4158 0
M  V30 1757 H 163.32 -4.28924 -5.24434 0
M  V30 1758 H 164.263 -5.55355 -4.39303 0
M  V30 1759 H 164.671 -3.82943 -4.14747 0
M  V30 1760 N 164.069 0.697108 -1.41344 0
M  V30 1761 C 165.316 1.45714 -1.40619 0
M  V30 1762 C 165.644 1.94494 -0.0147907 0
M  V30 1763 O 164.899 1.69794 0.973066 0
M  V30 1764 C 165.198 2.68553 -2.35826 0
M  V30 1765 C 164.864 2.38438 -3.82698 0
M  V30 1766 C 163.526 2.29936 -4.22709 0
M  V30 1767 C 165.878 2.13567 -4.75435 0
M  V30 1768 C 163.206 1.94656 -5.53467 0
M  V30 1769 C 165.558 1.79797 -6.06511 0
M  V30 1770 C 164.222 1.69789 -6.45545 0
M  V30 1771 H 163.492 0.533206 -0.51456 0
M  V30 1772 H 166.139 0.796901 -1.74131 0
M  V30 1773 H 164.444 3.39503 -1.95563 0
M  V30 1774 H 166.141 3.2669 -2.32539 0
M  V30 1775 H 162.731 2.4595 -3.51008 0
M  V30 1776 H 166.915 2.19082 -4.45328 0
M  V30 1777 H 162.171 1.8546 -5.82593 0
M  V30 1778 H 166.345 1.59572 -6.77872 0
M  V30 1779 H 163.972 1.4222 -7.46778 0
M  V30 1780 N 165.547 1.27147 0.931209 0
M  V30 1781 C 166.777 1.15914 1.71019 0
M  V30 1782 C 167.185 -0.287112 1.87009 0
M  V30 1783 O 166.528 -1.20761 1.38429 0
M  V30 1784 C 166.59 1.76647 3.13107 0
M  V30 1785 C 166.254 3.25807 3.20467 0
M  V30 1786 C 167.251 4.22489 3.02983 0
M  V30 1787 C 164.936 3.66452 3.43538 0
M  V30 1788 C 166.93 5.57794 3.08454 0
M  V30 1789 C 164.617 5.01888 3.48643 0
M  V30 1790 C 165.615 5.97369 3.31119 0
M  V30 1791 O 165.303 7.30337 3.35952 0
M  V30 1792 H 165.035 0.404062 0.54195 0
M  V30 1793 H 167.589 1.68457 1.17521 0
M  V30 1794 H 165.819 1.18578 3.68071 0
M  V30 1795 H 167.508 1.60179 3.72958 0
M  V30 1796 H 168.274 3.92425 2.85004 0
M  V30 1797 H 164.153 2.92611 3.5623 0
M  V30 1798 H 167.697 6.32298 2.94694 0
M  V30 1799 H 163.594 5.31609 3.66145 0
M  V30 1800 H 164.362 7.38739 3.5243 0
M  V30 1801 N 167.025 -1.13721 1.09112 0
M  V30 1802 C 167.988 -2.17222 0.731241 0
M  V30 1803 C 168.988 -1.59035 -0.237566 0
M  V30 1804 O 170.178 -1.74192 -0.0161704 0
M  V30 1805 C 167.31 -3.40804 0.0808443 0
M  V30 1806 H 168.503 -2.50573 1.64783 0
M  V30 1807 H 166.056 -1.28493 0.889897 0
M  V30 1808 H 166.791 -3.1304 -0.847127 0
M  V30 1809 H 166.576 -3.84306 0.777896 0
M  V30 1810 H 168.066 -4.1731 -0.155657 0
M  V30 1811 N 168.503 -0.877838 -1.30888 0
M  V30 1812 C 169.749 -0.493426 -1.96706 0
M  V30 1813 C 170.082 0.953504 -1.6918 0
M  V30 1814 O 169.357 1.67266 -0.992594 0
M  V30 1815 C 169.64 -0.760429 -3.51979 0
M  V30 1816 C 169.493 -2.25747 -3.89048 0
M  V30 1817 C 170.812 -0.232148 -4.39487 0
M  V30 1818 H 167.931 -0.180746 -0.714493 0
M  V30 1819 H 170.573 -1.10052 -1.54882 0
M  V30 1820 H 168.723 -0.243715 -3.87735 0
M  V30 1821 H 170.395 -2.84204 -3.63354 0
M  V30 1822 H 168.638 -2.72694 -3.37373 0
M  V30 1823 H 169.309 -2.39491 -4.97341 0
M  V30 1824 H 171.785 -0.674314 -4.106 0
M  V30 1825 H 170.661 -0.448355 -5.47066 0
M  V30 1826 H 170.922 0.866297 -4.33529 0
M  V30 1827 N 169.982 1.44106 -0.638065 0
M  V30 1828 C 170.912 2.33448 0.0494287 0
M  V30 1829 C 171.893 1.48606 0.827672 0
M  V30 1830 O 173.078 1.77308 0.792173 0
M  V30 1831 C 170.208 3.31771 1.02691 0
M  V30 1832 C 169.162 4.26485 0.359823 0
M  V30 1833 C 168.488 5.14729 1.44769 0
M  V30 1834 C 169.788 5.17056 -0.738296 0
M  V30 1835 H 171.482 2.91183 -0.696636 0
M  V30 1836 H 169.028 1.40014 -0.336456 0
M  V30 1837 H 170.981 3.93161 1.51666 0
M  V30 1838 H 169.705 2.7226 1.80395 0
M  V30 1839 H 168.364 3.66437 -0.10934 0
M  V30 1840 H 168.012 4.51566 2.21578 0
M  V30 1841 H 167.712 5.78913 1.00668 0
M  V30 1842 H 169.236 5.78991 1.93911 0
M  V30 1843 H 170.65 5.72342 -0.331354 0
M  V30 1844 H 169.047 5.89879 -1.10286 0
M  V30 1845 H 170.117 4.57652 -1.60258 0
M  V30 1846 N 171.46 0.379036 1.52974 0
M  V30 1847 C 172.708 -0.206014 2.01047 0
M  V30 1848 C 173.029 -1.48175 1.26765 0
M  V30 1849 O 172.299 -1.92085 0.384743 0
M  V30 1850 H 170.879 -0.0791184 0.742798 0
M  V30 1851 H 173.541 0.508366 1.88153 0
M  V30 1852 H 172.637 -0.423501 3.09213 0
M  V30 1853 N 172.938 -1.57226 0.108567 0
M  V30 1854 C 174.187 -1.94008 -0.551703 0
M  V30 1855 C 174.5 -0.993442 -1.68494 0
M  V30 1856 O 175.706 -1.25551 -2.40726 0
M  V30 1857 C 174.162 -3.44763 -1.03279 0
M  V30 1858 C 173.77 -4.47943 0.0714193 0
M  V30 1859 C 175.514 -3.90483 -1.66503 0
M  V30 1860 C 173.421 -5.89865 -0.425779 0
M  V30 1861 H 172.351 -0.724206 -0.209863 0
M  V30 1862 H 175.002 -1.82547 0.186741 0
M  V30 1863 H 173.384 -3.51422 -1.82533 0
M  V30 1864 H 174.558 -4.52942 0.847365 0
M  V30 1865 H 172.873 -4.11913 0.609669 0
M  V30 1866 H 175.47 -4.93925 -2.04798 0
M  V30 1867 H 175.813 -3.29877 -2.53942 0
M  V30 1868 H 176.346 -3.86581 -0.938074 0
M  V30 1869 H 173.085 -6.54202 0.412316 0
M  V30 1870 H 172.605 -5.88309 -1.16843 0
M  V30 1871 H 174.284 -6.40844 -0.890397 0
M  V30 1872 N 174.416 0.165178 -1.56732 0
M  V30 1873 C 175.827 0.727046 -1.71962 0
M  V30 1874 C 176.178 1.82508 -0.720078 0
M  V30 1875 O 175.303 2.16082 0.117242 0
M  V30 1876 C 175.898 1.32559 -3.11791 0
M  V30 1877 C 174.457 1.83422 -3.28684 0
M  V30 1878 C 173.604 0.715567 -2.67908 0
M  V30 1879 H 176.555 -0.0602896 -1.58585 0
M  V30 1880 H 176.576 2.19533 -3.10782 0
M  V30 1881 H 176.088 0.526195 -3.84516 0
M  V30 1882 H 174.189 2.65986 -2.60926 0
M  V30 1883 H 174.302 1.97543 -4.36478 0
M  V30 1884 H 172.666 1.13758 -2.27884 0
M  V30 1885 H 173.449 -0.0720836 -3.43224 0
M  V30 1886 N 175.894 1.51508 0.433938 0
M  V30 1887 C 176.824 1.76016 1.53429 0
M  V30 1888 C 177.805 0.610112 1.58782 0
M  V30 1889 O 178.99 0.853177 1.74455 0
M  V30 1890 C 176.12 1.88831 2.9148 0
M  V30 1891 C 175.074 3.04288 3.00987 0
M  V30 1892 C 174.4 3.0229 4.4105 0
M  V30 1893 C 175.7 4.44193 2.74754 0
M  V30 1894 H 177.394 2.68152 1.33171 0
M  V30 1895 H 174.94 1.29035 0.639214 0
M  V30 1896 H 176.893 2.04559 3.6842 0
M  V30 1897 H 175.617 0.933455 3.12976 0
M  V30 1898 H 174.276 2.8827 2.26486 0
M  V30 1899 H 173.924 2.04576 4.59519 0
M  V30 1900 H 173.624 3.79822 4.4834 0
M  V30 1901 H 175.148 3.20116 5.1996 0
M  V30 1902 H 176.562 4.60544 3.41426 0
M  V30 1903 H 174.959 5.23457 2.9345 0
M  V30 1904 H 176.029 4.53996 1.70339 0
M  V30 1905 N 177.372 -0.689602 1.41712 0
M  V30 1906 C 178.6 -1.47827 1.44758 0
M  V30 1907 C 179.015 -1.88721 0.0545703 0
M  V30 1908 O 178.372 -1.57176 -0.927463 0
M  V30 1909 C 178.423 -2.73698 2.3616 0
M  V30 1910 O 178.144 -2.34524 3.7004 0
M  V30 1911 C 179.645 -3.67389 2.48072 0
M  V30 1912 H 176.865 -0.455357 0.49284 0
M  V30 1913 H 179.409 -0.848574 1.86063 0
M  V30 1914 H 177.564 -3.32891 1.98148 0
M  V30 1915 H 177.978 -3.15701 4.18847 0
M  V30 1916 H 179.452 -4.52475 3.16181 0
M  V30 1917 H 179.929 -4.12284 1.51388 0
M  V30 1918 H 180.535 -3.14097 2.86746 0
M  V30 1919 N 178.85 -1.27639 -0.924453 0
M  V30 1920 C 179.78 -1.13166 -2.04244 0
M  V30 1921 C 180.761 -0.032256 -1.70069 0
M  V30 1922 O 181.946 -0.207328 -1.9309 0
M  V30 1923 C 179.076 -0.781496 -3.38393 0
M  V30 1924 C 178.03 -1.83449 -3.86692 0
M  V30 1925 C 177.356 -1.33822 -5.17683 0
M  V30 1926 C 178.656 -3.23917 -4.09726 0
M  V30 1927 H 180.35 -2.06689 -2.1661 0
M  V30 1928 H 177.896 -0.995136 -1.04082 0
M  V30 1929 H 179.849 -0.667057 -4.16087 0
M  V30 1930 H 178.573 0.189439 -3.2605 0
M  V30 1931 H 177.232 -1.93789 -3.11193 0
M  V30 1932 H 176.88 -0.35665 -5.01734 0
M  V30 1933 H 176.58 -2.04224 -5.50968 0
M  V30 1934 H 178.104 -1.23679 -5.97943 0
M  V30 1935 H 179.518 -3.16559 -4.77978 0
M  V30 1936 H 177.915 -3.92059 -4.54324 0
M  V30 1937 H 178.985 -3.68729 -3.14908 0
M  V30 1938 N 180.328 1.1314 -1.09713 0
M  V30 1939 C 181.574 1.84757 -0.836224 0
M  V30 1940 C 181.907 1.8347 0.636598 0
M  V30 1941 O 181.182 1.27491 1.46889 0
M  V30 1942 C 181.465 3.32782 -1.37578 0
M  V30 1943 C 181.318 3.42567 -2.91493 0
M  V30 1944 C 182.637 4.28307 -1.01198 0
M  V30 1945 H 179.756 0.67082 -0.305236 0
M  V30 1946 H 182.398 1.3278 -1.35903 0
M  V30 1947 H 180.548 3.77177 -0.931097 0
M  V30 1948 H 182.22 3.06862 -3.44432 0
M  V30 1949 H 180.463 2.83349 -3.28475 0
M  V30 1950 H 181.134 4.46674 -3.24324 0
M  V30 1951 H 183.61 3.91999 -1.39556 0
M  V30 1952 H 182.486 5.30307 -1.41653 0
M  V30 1953 H 182.747 4.42029 0.0794833 0
M  V30 1954 N 181.806 0.884767 1.30421 0
M  V30 1955 C 182.739 0.295999 2.26272 0
M  V30 1956 C 183.717 -0.58332 1.51777 0
M  V30 1957 O 184.901 -0.53346 1.80794 0
M  V30 1958 C 182.028 -0.57944 3.33707 0
M  V30 1959 C 181.074 0.230525 4.25877 0
M  V30 1960 S 181.907 1.61867 5.1045 0
M  V30 1961 C 183.063 0.749756 6.21393 0
M  V30 1962 H 183.296 1.10848 2.75862 0
M  V30 1963 H 180.829 0.684178 1.38414 0
M  V30 1964 H 182.787 -1.07879 3.96071 0
M  V30 1965 H 181.448 -1.36601 2.82841 0
M  V30 1966 H 180.641 -0.437542 5.02097 0
M  V30 1967 H 180.243 0.662493 3.68086 0
M  V30 1968 H 182.535 -0.0333547 6.77492 0
M  V30 1969 H 183.478 1.48356 6.92384 0
M  V30 1970 H 183.886 0.310751 5.63644 0
M  V30 1971 N 183.284 -1.43765 0.645699 0
M  V30 1972 C 184.531 -2.01898 0.15604 0
M  V30 1973 C 184.859 -1.50887 -1.22733 0
M  V30 1974 O 184.114 -0.689271 -1.8316 0
M  V30 1975 C 184.413 -3.57238 0.107679 0
M  V30 1976 C 184.079 -4.27564 1.43178 0
M  V30 1977 C 182.741 -4.46492 1.7944 0
M  V30 1978 C 185.093 -4.67454 2.30513 0
M  V30 1979 C 182.421 -5.02573 3.02716 0
M  V30 1980 C 184.773 -5.24901 3.53074 0
M  V30 1981 C 183.437 -5.42046 3.89541 0
M  V30 1982 H 182.707 -0.738797 0.057099 0
M  V30 1983 H 185.354 -1.72341 0.834912 0
M  V30 1984 H 183.659 -3.86293 -0.654618 0
M  V30 1985 H 185.356 -3.99965 -0.287938 0
M  V30 1986 H 181.946 -4.13171 1.13963 0
M  V30 1987 H 186.13 -4.5253 2.0379 0
M  V30 1988 H 181.386 -5.14033 3.31028 0
M  V30 1989 H 185.56 -5.54758 4.20971 0
M  V30 1990 H 183.187 -5.85268 4.85145 0
M  V30 1991 N 184.763 -0.387143 -1.52771 0
M  V30 1992 C 185.695 0.484089 -2.2403 0
M  V30 1993 C 186.708 1.02849 -1.26198 0
M  V30 1994 O 187.897 0.931186 -1.52286 0
M  V30 1995 C 184.997 1.68337 -2.94136 0
M  V30 1996 C 184.17 1.26672 -4.18656 0
M  V30 1997 C 183.229 2.33045 -4.7178 0
M  V30 1998 O 182.255 1.94541 -5.34923 0
M  V30 1999 N 183.457 3.64929 -4.5145 0
M  V30 2000 H 186.222 -0.126404 -2.99433 0
M  V30 2001 H 183.783 -0.213392 -1.60488 0
M  V30 2002 H 185.775 2.39019 -3.26577 0
M  V30 2003 H 184.345 2.20025 -2.22053 0
M  V30 2004 H 183.565 0.388878 -3.92277 0
M  V30 2005 H 184.853 0.964964 -4.99566 0
M  V30 2006 H 184.251 3.98974 -4.01044 0
M  V30 2007 H 182.808 4.31651 -4.88386 0
M  V30 2008 N 186.241 1.57166 -0.116904 0
M  V30 2009 C 187.466 1.999 0.55271 0
M  V30 2010 C 187.891 0.996039 1.59564 0
M  V30 2011 O 187.249 -0.032556 1.81271 0
M  V30 2012 C 187.297 3.4152 1.15742 0
M  V30 2013 O 186.401 3.44106 2.27299 0
M  V30 2014 H 185.742 0.649447 0.138258 0
M  V30 2015 H 188.272 2.03573 -0.204759 0
M  V30 2016 H 188.282 3.79684 1.49346 0
M  V30 2017 H 186.957 4.14034 0.393493 0
M  V30 2018 H 185.534 3.17759 1.9515 0
M  V30 2019 N 187.719 -0.156864 1.56817 0
M  V30 2020 C 188.649 -1.19589 2.00551 0
M  V30 2021 C 189.63 -1.4536 0.883426 0
M  V30 2022 O 190.815 -1.56449 1.15054 0
M  V30 2023 C 187.945 -2.53143 2.37773 0
M  V30 2024 C 186.899 -2.41913 3.53075 0
M  V30 2025 C 186.225 -3.80088 3.76081 0
M  V30 2026 C 187.525 -1.91157 4.86062 0
M  V30 2027 H 189.219 -0.832293 2.87599 0
M  V30 2028 H 186.765 -0.398918 1.38364 0
M  V30 2029 H 188.718 -3.26047 2.66967 0
M  V30 2030 H 187.442 -2.91319 1.4765 0
M  V30 2031 H 186.101 -1.71462 3.24031 0
M  V30 2032 H 185.749 -4.15683 2.83225 0
M  V30 2033 H 185.449 -3.73439 4.53671 0
M  V30 2034 H 186.973 -4.54556 4.0769 0
M  V30 2035 H 188.387 -2.53846 5.14038 0
M  V30 2036 H 186.784 -1.95422 5.67389 0
M  V30 2037 H 187.854 -0.866673 4.77092 0
M  V30 2038 N 189.197 -1.51736 -0.425897 0
M  V30 2039 C 190.445 -1.64644 -1.17204 0
M  V30 2040 C 190.766 -0.370486 -1.91448 0
M  V30 2041 O 190.036 0.614088 -1.86026 0
M  V30 2042 H 188.616 -0.606819 -0.435638 0
M  V30 2043 H 191.278 -1.88713 -0.487177 0
M  V30 2044 H 190.374 -2.47958 -1.89534 0
M  V30 2045 N 190.675 0.682077 -1.42076 0
M  V30 2046 C 191.585 1.82535 -1.47371 0
M  V30 2047 C 192.601 1.7017 -0.363079 0
M  V30 2048 O 193.777 1.91848 -0.612875 0
M  V30 2049 C 190.842 3.18624 -1.36674 0
M  V30 2050 C 189.903 3.42999 -2.58167 0
M  V30 2051 C 189.136 4.72595 -2.4797 0
M  V30 2052 O 189.359 5.50006 -1.5116 0
M  V30 2053 O 188.293 4.98054 -3.37974 0
M  V30 2054 H 192.119 1.81023 -2.43853 0
M  V30 2055 H 189.704 0.836887 -1.2376 0
M  V30 2056 H 191.586 3.99847 -1.33043 0
M  V30 2057 H 190.261 3.20789 -0.433138 0
M  V30 2058 H 189.168 2.61653 -2.67373 0
M  V30 2059 H 190.501 3.45659 -3.50401 0
M  V30 2060 N 192.153 1.28127 0.917671 0
M  V30 2061 C 193.569 1.05749 1.19538 0
M  V30 2062 C 193.769 -0.202633 2.00479 0
M  V30 2063 O 192.825 -0.905382 2.3571 0
M  V30 2064 C 194.138 2.30273 1.93378 0
M  V30 2065 C 195.686 2.35412 2.06277 0
M  V30 2066 C 196.161 3.59692 2.83524 0
M  V30 2067 N 197.652 3.60309 2.91087 0
M  V30 2068 C 198.387 4.53147 3.51348 0
M  V30 2069 N 197.883 5.563 4.12919 0
M  V30 2070 N 199.676 4.40751 3.48849 0
M  V30 2071 H 191.827 2.09024 0.377184 0
M  V30 2072 H 194.09 0.919798 0.22951 0
M  V30 2073 H 193.796 3.22055 1.41328 0
M  V30 2074 H 193.67 2.36378 2.93947 0
M  V30 2075 H 196.057 1.4413 2.57508 0
M  V30 2076 H 196.138 2.33304 1.04895 0
M  V30 2077 H 195.782 4.51316 2.32973 0
M  V30 2078 H 195.712 3.59054 3.85211 0
M  V30 2079 H 198.203 2.85714 2.47338 0
M  V30 2080 H 198.516 6.2329 4.56869 0
M  V30 2081 H 196.861 5.60131 4.11435 0
M  V30 2082 H 200.052 3.59367 2.99955 0
M  V30 2083 H 200.225 5.13291 3.9552 0
M  V30 2084 N 193.631 -1.12557 1.10312 0
M  V30 2085 C 194.564 -2.1737 0.694674 0
M  V30 2086 C 195.542 -1.59745 -0.303373 0
M  V30 2087 O 196.726 -1.87408 -0.202578 0
M  V30 2088 C 193.853 -3.38691 0.0248052 0
M  V30 2089 C 192.899 -4.14943 0.986121 0
M  V30 2090 S 193.732 -4.73413 2.50281 0
M  V30 2091 C 194.888 -5.9807 1.84562 0
M  V30 2092 H 195.121 -2.5168 1.58255 0
M  V30 2093 H 192.654 -1.23998 0.919992 0
M  V30 2094 H 194.612 -4.08959 -0.355361 0
M  V30 2095 H 193.273 -3.02664 -0.839851 0
M  V30 2096 H 192.466 -5.01854 0.464651 0
M  V30 2097 H 192.068 -3.50377 1.30813 0
M  V30 2098 H 194.36 -6.67232 1.17507 0
M  V30 2099 H 195.303 -6.54841 2.69423 0
M  V30 2100 H 195.711 -5.49073 1.31069 0
M  V30 2101 N 195.109 -0.891671 -1.2995 0
M  V30 2102 C 196.057 -0.353066 -2.29905 0
M  V30 2103 C 197.051 0.543509 -1.60444 0
M  V30 2104 O 198.257 0.4272 -1.74857 0
M  V30 2105 H 194.632 -0.095531 -0.745907 0
M  V30 2106 H 196.603 -1.20961 -2.72784 0
M  V30 2107 C 195.352 0.411475 -3.45257 0
M  V30 2108 H 194.675 -0.269182 -3.98893 0
M  V30 2109 H 196.115 0.753328 -4.17254 0
M  V30 2110 C 194.574 1.6111 -2.9588 0
M  V30 2111 O 195.104 2.71045 -2.96475 0
M  V30 2112 N 193.31 1.45054 -2.51809 0
M  V30 2113 H 192.857 0.556175 -2.51524 0
M  V30 2114 H 192.815 2.25453 -2.1913 0
M  V30 2115 N 196.587 1.43421 -0.653314 0
M  V30 2116 C 197.815 2.06163 -0.174491 0
M  V30 2117 C 198.23 1.48969 1.1599 0
M  V30 2118 O 197.587 0.621042 1.71608 0
M  V30 2119 C 197.638 3.61417 -0.0774865 0
M  V30 2120 O 197.359 4.16485 -1.35912 0
M  V30 2121 C 198.86 4.41235 0.427402 0
M  V30 2122 H 196.08 0.664946 -0.0899353 0
M  V30 2123 H 198.624 1.83924 -0.893988 0
M  V30 2124 H 196.779 3.82841 0.59257 0
M  V30 2125 H 197.193 5.10153 -1.21839 0
M  V30 2126 H 198.667 5.5021 0.44423 0
M  V30 2127 H 199.144 4.14268 1.45873 0
M  V30 2128 H 199.75 4.2478 -0.210167 0
M  V30 2129 N 198.065 0.39524 1.52563 0
M  V30 2130 C 199.312 -0.185044 2.01653 0
M  V30 2131 C 199.64 -1.46317 1.28146 0
M  V30 2132 O 198.895 -1.9213 0.372074 0
M  V30 2133 C 199.194 -0.493444 3.53977 0
M  V30 2134 C 198.86 0.69384 4.4553 0
M  V30 2135 C 197.522 1.01954 4.70275 0
M  V30 2136 C 199.874 1.48785 4.99512 0
M  V30 2137 C 197.202 2.14069 5.46252 0
M  V30 2138 C 199.554 2.59965 5.76716 0
M  V30 2139 C 198.218 2.93037 5.99738 0
M  V30 2140 H 197.488 -0.0677123 0.7379 0
M  V30 2141 H 200.135 0.533807 1.8391 0
M  V30 2142 H 198.44 -1.29369 3.69825 0
M  V30 2143 H 200.137 -0.955163 3.89458 0
M  V30 2144 H 196.727 0.429987 4.26438 0
M  V30 2145 H 200.911 1.24946 4.80315 0
M  V30 2146 H 196.167 2.40056 5.62302 0
M  V30 2147 H 200.341 3.21887 6.17545 0
M  V30 2148 H 197.968 3.8003 6.58393 0
M  V30 2149 N 199.544 -1.57102 0.125237 0
M  V30 2150 C 200.79 -1.95697 -0.532035 0
M  V30 2151 C 201.123 -1.009 -1.6593 0
M  V30 2152 O 200.398 -0.047347 -1.94442 0
M  V30 2153 C 200.681 -3.44181 -1.05884 0
M  V30 2154 C 200.534 -4.49752 0.0654392 0
M  V30 2155 C 201.853 -3.94655 -1.9477 0
M  V30 2156 H 198.972 -0.711571 -0.191925 0
M  V30 2157 H 201.614 -1.88923 0.20206 0
M  V30 2158 H 199.764 -3.50085 -1.68442 0
M  V30 2159 H 201.436 -4.55943 0.700982 0
M  V30 2160 H 199.679 -4.27653 0.727709 0
M  V30 2161 H 200.35 -5.50924 -0.344505 0
M  V30 2162 H 202.826 -3.91094 -1.42074 0
M  V30 2163 H 201.702 -4.99057 -2.28546 0
M  V30 2164 H 201.963 -3.35718 -2.87656 0
M  V30 2165 N 201.022 0.148545 -1.56898 0
M  V30 2166 C 202.438 0.501131 -1.51528 0
M  V30 2167 C 202.638 1.83458 -0.833399 0
M  V30 2168 O 201.694 2.49259 -0.40328 0
M  V30 2169 C 203.007 0.512864 -2.96294 0
M  V30 2170 C 204.555 0.598487 -3.07225 0
M  V30 2171 C 205.03 0.640897 -4.53494 0
M  V30 2172 N 206.521 0.703163 -4.57832 0
M  V30 2173 C 207.256 0.756935 -5.68382 0
M  V30 2174 N 206.752 0.770147 -6.88506 0
M  V30 2175 N 208.545 0.797698 -5.56411 0
M  V30 2176 H 200.696 -0.725532 -1.99624 0
M  V30 2177 H 202.959 -0.264358 -0.910395 0
M  V30 2178 H 202.665 -0.398691 -3.49433 0
M  V30 2179 H 202.539 1.35133 -3.52163 0
M  V30 2180 H 204.926 1.50046 -2.54106 0
M  V30 2181 H 205.007 -0.267093 -2.54402 0
M  V30 2182 H 204.651 -0.256915 -5.0725 0
M  V30 2183 H 204.581 1.52295 -5.04097 0
M  V30 2184 H 207.072 0.700314 -3.71354 0
M  V30 2185 H 207.385 0.812983 -7.68512 0
M  V30 2186 H 205.73 0.738049 -6.9107 0
M  V30 2187 H 208.921 0.784535 -4.61479 0
M  V30 2188 H 209.094 0.83614 -6.42583 0
M  V30 2189 N 202.5 1.5196 0.417844 0
M  V30 2190 C 203.73 1.69181 1.18581 0
M  V30 2191 C 204.138 0.397104 1.84986 0
M  V30 2192 O 203.481 -0.636011 1.72339 0
M  V30 2193 C 203.543 2.76497 2.29759 0
M  V30 2194 C 203.207 4.18514 1.83563 0
M  V30 2195 C 204.204 5.02648 1.32821 0
M  V30 2196 C 201.889 4.64708 1.90661 0
M  V30 2197 C 203.883 6.31044 0.897894 0
M  V30 2198 C 201.57 5.93096 1.47241 0
M  V30 2199 C 202.568 6.76093 0.968891 0
M  V30 2200 O 202.256 8.02078 0.540924 0
M  V30 2201 H 201.988 0.570457 0.362705 0
M  V30 2202 H 204.542 1.99249 0.498885 0
M  V30 2203 H 202.772 2.41786 3.01789 0
M  V30 2204 H 204.461 2.82403 2.91553 0
M  V30 2205 H 205.227 4.68154 1.26716 0
M  V30 2206 H 201.106 4.00216 2.28797 0
M  V30 2207 H 204.65 6.95776 0.504192 0
M  V30 2208 H 200.547 6.271 1.53022 0
M  V30 2209 H 201.315 8.15794 0.66502 0
M  V30 2210 N 203.978 -0.674533 1.42435 0
M  V30 2211 C 204.908 -1.80009 1.48724 0
M  V30 2212 C 205.889 -1.6659 0.343793 0
M  V30 2213 O 207.074 -1.86007 0.558137 0
M  V30 2214 C 204.204 -3.18306 1.38919 0
M  V30 2215 C 203.158 -3.46461 2.51294 0
M  V30 2216 C 202.484 -4.84335 2.26547 0
M  V30 2217 C 203.784 -3.43328 3.93603 0
M  V30 2218 H 205.478 -1.75004 2.42928 0
M  V30 2219 H 203.024 -0.840533 1.16923 0
M  V30 2220 H 204.977 -3.9678 1.41927 0
M  V30 2221 H 203.701 -3.2399 0.412094 0
M  V30 2222 H 202.36 -2.70348 2.47604 0
M  V30 2223 H 202.008 -4.86669 1.2713 0
M  V30 2224 H 201.708 -5.04136 3.01861 0
M  V30 2225 H 203.232 -5.65094 2.31304 0
M  V30 2226 H 204.646 -4.11772 3.98894 0
M  V30 2227 H 203.043 -3.74664 4.68771 0
M  V30 2228 H 204.113 -2.41897 4.20255 0
M  V30 2229 N 205.456 -1.28612 -0.910864 0
M  V30 2230 C 206.386 -1.15326 -2.03032 0
M  V30 2231 C 207.367 -0.0502924 -1.70026 0
M  V30 2232 O 208.552 -0.227797 -1.92859 0
M  V30 2233 C 205.682 -0.817343 -3.37545 0
M  V30 2234 C 204.636 -1.8754 -3.84724 0
M  V30 2235 C 203.962 -1.39305 -5.16235 0
M  V30 2236 C 205.262 -3.28244 -4.06267 0
M  V30 2237 H 206.956 -2.08975 -2.14406 0
M  V30 2238 H 204.502 -1.00612 -1.03021 0
M  V30 2239 H 206.455 -0.711151 -4.15356 0
M  V30 2240 H 205.179 0.154846 -3.26233 0
M  V30 2241 H 203.838 -1.97079 -3.09121 0
M  V30 2242 H 203.486 -0.409846 -5.01328 0
M  V30 2243 H 203.186 -2.10057 -5.48771 0
M  V30 2244 H 204.71 -1.30014 -5.96598 0
M  V30 2245 H 206.124 -3.21611 -4.74594 0
M  V30 2246 H 204.521 -3.96855 -4.5014 0
M  V30 2247 H 205.591 -3.72048 -3.10979 0
M  V30 2248 N 206.934 1.1197 -1.10907 0
M  V30 2249 C 207.881 2.17846 -0.762345 0
M  V30 2250 C 208.851 1.63995 0.263599 0
M  V30 2251 O 210.036 1.90273 0.141773 0
M  V30 2252 C 207.176 3.44487 -0.205651 0
M  V30 2253 C 206.289 4.12369 -1.28748 0
M  V30 2254 C 205.424 5.26674 -0.691919 0
M  V30 2255 C 204.463 5.86431 -1.75399 0
M  V30 2256 N 203.6 6.92142 -1.17833 0
M  V30 2257 H 208.44 2.46851 -1.6694 0
M  V30 2258 H 205.977 1.21188 -0.833776 0
M  V30 2259 H 207.935 4.16981 0.135037 0
M  V30 2260 H 206.565 3.15884 0.664613 0
M  V30 2261 H 205.617 3.38003 -1.74522 0
M  V30 2262 H 206.929 4.52844 -2.09125 0
M  V30 2263 H 206.083 6.05953 -0.300963 0
M  V30 2264 H 204.822 4.8749 0.143232 0
M  V30 2265 H 203.827 5.05835 -2.15432 0
M  V30 2266 H 205.052 6.27685 -2.59208 0
M  V30 2267 H 202.998 6.54985 -0.364725 0
M  V30 2268 H 202.915 7.31242 -1.91887 0
M  V30 2269 H 204.183 7.75237 -0.81408 0
M  V30 2270 N 208.412 0.89855 1.29475 0
M  V30 2271 C 209.828 0.594483 1.48115 0
M  V30 2272 C 210.028 -0.86431 1.82022 0
M  V30 2273 O 209.084 -1.64457 1.91599 0
M  V30 2274 C 210.397 1.51932 2.59494 0
M  V30 2275 C 211.945 1.5244 2.7337 0
M  V30 2276 C 212.42 2.43548 3.87877 0
M  V30 2277 N 213.911 2.41589 3.95208 0
M  V30 2278 C 214.646 3.08789 4.83153 0
M  V30 2279 N 214.142 3.85265 5.75798 0
M  V30 2280 N 215.935 2.97952 4.76635 0
M  V30 2281 H 208.086 1.84207 1.05742 0
M  V30 2282 H 210.349 0.789251 0.525154 0
M  V30 2283 H 210.055 2.55865 2.41301 0
M  V30 2284 H 209.929 1.23899 3.56271 0
M  V30 2285 H 212.316 0.492518 2.90961 0
M  V30 2286 H 212.397 1.8451 1.77172 0
M  V30 2287 H 212.041 3.46829 3.71041 0
M  V30 2288 H 211.971 2.08788 4.83441 0
M  V30 2289 H 214.462 1.86025 3.28943 0
M  V30 2290 H 214.775 4.33598 6.39697 0
M  V30 2291 H 213.12 3.89371 5.75687 0
M  V30 2292 H 216.311 2.37723 4.03244 0
M  V30 2293 H 216.484 3.50599 5.44962 0
M  V30 2294 N 209.89 -1.43072 0.660911 0
M  V30 2295 C 211.139 -2.00942 0.174735 0
M  V30 2296 C 211.452 -1.52797 -1.22117 0
M  V30 2297 O 212.658 -2.02991 -1.80297 0
M  V30 2298 C 211.114 -3.58948 0.261559 0
M  V30 2299 C 210.722 -4.16085 1.66064 0
M  V30 2300 C 212.466 -4.24173 -0.166617 0
M  V30 2301 C 210.373 -5.6641 1.70098 0
M  V30 2302 H 209.303 -0.751483 0.0615631 0
M  V30 2303 H 211.954 -1.63955 0.824069 0
M  V30 2304 H 210.336 -3.93372 -0.455421 0
M  V30 2305 H 211.51 -3.93147 2.40359 0
M  V30 2306 H 209.825 -3.6326 2.03546 0
M  V30 2307 H 212.422 -5.34471 -0.156433 0
M  V30 2308 H 212.765 -3.98647 -1.19943 0
M  V30 2309 H 213.298 -3.94659 0.498875 0
M  V30 2310 H 210.037 -5.96715 2.71315 0
M  V30 2311 H 209.557 -5.91382 1.00139 0
M  V30 2312 H 211.236 -6.30585 1.44816 0
M  V30 2313 N 211.368 -0.403325 -1.52352 0
M  V30 2314 C 212.315 0.425011 -2.26853 0
M  V30 2315 C 213.285 1.04598 -1.29029 0
M  V30 2316 O 214.47 1.07135 -1.57882 0
M  V30 2317 C 211.61 1.53888 -3.08889 0
M  V30 2318 C 210.723 0.939396 -4.21663 0
M  V30 2319 C 209.858 2.02547 -4.91068 0
M  V30 2320 C 208.897 1.40263 -5.95813 0
M  V30 2321 N 208.034 2.4286 -6.58759 0
M  V30 2322 H 212.874 -0.21674 -2.97211 0
M  V30 2323 H 210.411 -0.118722 -1.4662 0
M  V30 2324 H 212.369 2.19558 -3.54753 0
M  V30 2325 H 210.999 2.15074 -2.40714 0
M  V30 2326 H 210.051 0.171898 -3.80011 0
M  V30 2327 H 211.363 0.44436 -4.96817 0
M  V30 2328 H 210.517 2.75958 -5.40308 0
M  V30 2329 H 209.256 2.55415 -4.15469 0
M  V30 2330 H 208.261 0.653833 -5.45898 0
M  V30 2331 H 209.486 0.881719 -6.73352 0
M  V30 2332 H 207.432 2.94871 -5.85992 0
M  V30 2333 H 207.349 1.98152 -7.2957 0
M  V30 2334 H 208.617 3.15858 -7.12639 0
M  V30 2335 N 212.846 1.57033 -0.133567 0
M  V30 2336 C 213.793 2.16074 0.811208 0
M  V30 2337 C 214.763 1.08979 1.2535 0
M  V30 2338 O 215.948 1.36958 1.32843 0
M  V30 2339 C 213.088 2.77595 2.05024 0
M  V30 2340 C 212.201 3.99042 1.65498 0
M  V30 2341 C 211.336 4.48603 2.84479 0
M  V30 2342 C 210.375 5.62547 2.41262 0
M  V30 2343 N 209.512 6.06787 3.53206 0
M  V30 2344 H 214.352 2.96477 0.300906 0
M  V30 2345 H 211.889 1.46462 0.136822 0
M  V30 2346 H 213.847 3.11402 2.77642 0
M  V30 2347 H 212.477 1.99859 2.53488 0
M  V30 2348 H 211.529 3.71302 0.826981 0
M  V30 2349 H 212.841 4.81629 1.29748 0
M  V30 2350 H 211.995 4.84395 3.65303 0
M  V30 2351 H 210.734 3.64995 3.23465 0
M  V30 2352 H 209.739 5.26345 1.58874 0
M  V30 2353 H 210.964 6.47931 2.03377 0
M  V30 2354 H 208.91 5.26117 3.91838 0
M  V30 2355 H 208.827 6.84266 3.21427 0
M  V30 2356 H 210.095 6.4722 4.34427 0
M  V30 2357 N 214.325 -0.140222 1.56975 0
M  V30 2358 C 215.565 -0.857823 1.85528 0
M  V30 2359 C 215.929 -1.78039 0.718768 0
M  V30 2360 O 217.13 -2.53795 0.885521 0
M  V30 2361 C 215.401 -1.60615 3.19277 0
M  V30 2362 S 216.96 -2.36824 3.69405 0
M  V30 2363 H 213.778 -0.286727 0.650622 0
M  V30 2364 H 216.38 -0.117408 1.95147 0
M  V30 2365 H 215.084 -0.919994 3.99955 0
M  V30 2366 H 214.615 -2.38735 3.12681 0
M  V30 2367 H 216.63 -3.62148 3.3921 0
M  V30 2368 N 215.803 -1.52179 -0.40978 0
M  V30 2369 C 217.043 -1.67882 -1.16597 0
M  V30 2370 C 217.407 -0.399795 -1.87791 0
M  V30 2371 O 218.608 -0.43292 -2.65291 0
M  V30 2372 C 216.879 -2.86662 -2.13448 0
M  V30 2373 S 218.438 -3.22843 -2.97183 0
M  V30 2374 H 215.256 -0.59118 -0.395002 0
M  V30 2375 H 217.858 -1.9017 -0.453373 0
M  V30 2376 H 216.562 -3.77998 -1.59831 0
M  V30 2377 H 216.093 -2.66645 -2.89247 0
M  V30 2378 H 218.108 -2.71415 -4.15389 0
M  V30 2379 N 217.281 0.66697 -1.42791 0
M  V30 2380 C 218.529 1.42417 -1.43394 0
M  V30 2381 C 218.85 1.94925 -0.0542373 0
M  V30 2382 O 218.12 1.73564 0.908415 0
M  V30 2383 H 216.7 0.528515 -0.527902 0
M  V30 2384 H 219.362 0.787562 -1.78279 0
M  V30 2385 H 218.458 2.27333 -2.13837 0
M  V30 2386 N 218.759 1.29093 0.90403 0
M  V30 2387 C 219.692 1.08176 2.00931 0
M  V30 2388 C 220.67 -0.005083 1.62599 0
M  V30 2389 O 221.854 0.144765 1.87943 0
M  V30 2390 C 218.981 0.645897 3.32484 0
M  V30 2391 C 218.027 1.73081 3.89801 0
M  V30 2392 S 218.86 3.32905 4.19446 0
M  V30 2393 C 220.016 2.91176 5.54046 0
M  V30 2394 H 220.249 2.01752 2.18365 0
M  V30 2395 H 217.782 1.13191 1.0501 0
M  V30 2396 H 219.74 0.401131 4.08535 0
M  V30 2397 H 218.401 -0.270188 3.12936 0
M  V30 2398 H 217.594 1.37768 4.84805 0
M  V30 2399 H 217.196 1.92888 3.20422 0
M  V30 2400 H 219.488 2.37952 6.34338 0
M  V30 2401 H 220.431 3.85014 5.94281 0
M  V30 2402 H 220.839 2.296 5.15698 0
M  V30 2403 N 220.237 -1.11381 1.11499 0
M  V30 2404 C 221.653 -1.35143 0.849031 0
M  V30 2405 C 221.853 -1.94515 -0.525938 0
M  V30 2406 O 220.909 -2.1785 -1.27662 0
M  V30 2407 C 222.222 -2.28249 1.95762 0
M  V30 2408 C 223.77 -2.41812 1.98736 0
M  V30 2409 C 224.245 -3.3824 3.088 0
M  V30 2410 N 225.736 -3.45803 3.08179 0
M  V30 2411 C 226.471 -4.20358 3.89982 0
M  V30 2412 N 225.967 -4.97884 4.8175 0
M  V30 2413 N 227.76 -4.15877 3.78157 0
M  V30 2414 H 219.911 -0.712062 2.00109 0
M  V30 2415 H 222.174 -0.376025 0.870235 0
M  V30 2416 H 221.88 -1.91817 2.94787 0
M  V30 2417 H 221.754 -3.28473 1.85433 0
M  V30 2418 H 224.141 -2.77518 1.00338 0
M  V30 2419 H 224.222 -1.41437 2.13141 0
M  V30 2420 H 223.866 -3.03261 4.07425 0
M  V30 2421 H 223.796 -4.38471 2.91635 0
M  V30 2422 H 226.287 -2.90506 2.41691 0
M  V30 2423 H 226.6 -5.52142 5.40702 0
M  V30 2424 H 224.945 -4.97043 4.85771 0
M  V30 2425 H 228.136 -3.544 3.05808 0
M  V30 2426 H 228.309 -4.73723 4.42143 0
M  V30 2427 N 221.715 -0.905404 -1.28997 0
M  V30 2428 C 222.663 -0.377431 -2.29517 0
M  V30 2429 C 223.657 0.526461 -1.61012 0
M  V30 2430 O 224.863 0.40863 -1.753 0
M  V30 2431 H 221.238 -0.103437 -0.744852 0
M  V30 2432 H 223.209 -1.23848 -2.71485 0
M  V30 2433 C 221.958 0.374833 -3.45674 0
M  V30 2434 H 221.281 -0.311474 -3.98585 0
M  V30 2435 H 222.721 0.70903 -4.1803 0
M  V30 2436 C 221.18 1.57963 -2.97572 0
M  V30 2437 O 221.71 2.67886 -2.99333 0
M  V30 2438 N 219.916 1.42375 -2.53333 0
M  V30 2439 H 219.463 0.529466 -2.521 0
M  V30 2440 H 219.421 2.23117 -2.21509 0
M  V30 2441 N 223.193 1.4272 -0.668489 0
M  V30 2442 C 224.421 2.05966 -0.196348 0
M  V30 2443 C 224.836 1.50191 1.14403 0
M  V30 2444 O 224.193 0.639208 1.7094 0
M  V30 2445 C 224.244 3.61314 -0.115815 0
M  V30 2446 O 223.965 4.1502 -1.40322 0
M  V30 2447 C 225.466 4.41663 0.380579 0
M  V30 2448 H 222.686 0.663954 -0.0969829 0
M  V30 2449 H 225.23 1.82966 -0.913446 0
M  V30 2450 H 223.385 3.83448 0.551931 0
M  V30 2451 H 223.799 5.08832 -1.27243 0
M  V30 2452 H 225.273 5.5065 0.385848 0
M  V30 2453 H 225.75 4.15792 1.41471 0
M  V30 2454 H 226.356 4.24534 -0.255209 0
M  V30 2455 N 224.671 0.411399 1.52136 0
M  V30 2456 C 225.948 -0.222308 1.94333 0
M  V30 2457 C 226.328 -1.6242 1.34844 0
M  V30 2458 O 225.676 -2.22384 0.525145 0
M  V30 2459 C 225.886 -0.226345 3.48265 0
M  V30 2460 C 227.234 -0.444592 4.22266 0
M  V30 2461 O 228.258 -0.305602 3.54887 0
M  V30 2462 O 227.117 -0.718749 5.41753 0
M  V30 2463 H 224.211 -0.143907 0.814383 0
M  V30 2464 H 226.757 0.467506 1.63133 0
M  V30 2465 H 225.529 0.75475 3.83952 0
M  V30 2466 H 225.152 -0.960163 3.85832 0
M  V30 2467 N 226.149 -1.5696 0.141893 0
M  V30 2468 C 227.395 -1.9625 -0.511248 0
M  V30 2469 C 227.728 -1.02654 -1.64851 0
M  V30 2470 O 227.003 -0.0679676 -1.94381 0
M  V30 2471 C 227.286 -3.45285 -1.02227 0
M  V30 2472 C 227.139 -4.49658 0.113138 0
M  V30 2473 C 228.458 -3.96698 -1.90574 0
M  V30 2474 H 225.577 -0.713567 -0.184367 0
M  V30 2475 H 228.219 -1.88698 0.222087 0
M  V30 2476 H 226.369 -3.51852 -1.64719 0
M  V30 2477 H 228.041 -4.55174 0.749302 0
M  V30 2478 H 226.284 -4.26857 0.773026 0
M  V30 2479 H 226.955 -5.51258 -0.286053 0
M  V30 2480 H 229.431 -3.92578 -1.37918 0
M  V30 2481 H 228.307 -5.01453 -2.2324 0
M  V30 2482 H 228.568 -3.3875 -2.84079 0
M  V30 2483 N 227.627 0.131896 -1.57047 0
M  V30 2484 C 228.852 0.860418 -1.8871 0
M  V30 2485 C 229.277 1.73251 -0.73251 0
M  V30 2486 O 228.635 1.785 0.317429 0
M  V30 2487 C 228.683 1.68047 -3.19049 0
M  V30 2488 O 227.787 2.7862 -3.04047 0
M  V30 2489 H 227.128 0.238743 -0.619595 0
M  V30 2490 H 229.658 0.118169 -2.04258 0
M  V30 2491 H 229.668 2.07238 -3.51449 0
M  V30 2492 H 228.343 1.04018 -4.02682 0
M  V30 2493 H 226.92 2.42726 -2.83088 0
M  V30 2494 N 229.106 1.52395 0.401703 0
M  V30 2495 C 230.039 1.70999 1.51111 0
M  V30 2496 C 231.017 0.55765 1.52738 0
M  V30 2497 O 232.201 0.785912 1.71335 0
M  V30 2498 C 229.328 1.75607 2.8962 0
M  V30 2499 C 228.374 2.97227 3.05873 0
M  V30 2500 S 229.207 4.57439 2.78405 0
M  V30 2501 C 230.363 4.64844 4.19131 0
M  V30 2502 H 230.596 2.6483 1.35102 0
M  V30 2503 H 228.129 1.42527 0.593762 0
M  V30 2504 H 230.087 1.78947 3.69443 0
M  V30 2505 H 228.748 0.828914 3.02965 0
M  V30 2506 H 227.941 2.96955 4.07227 0
M  V30 2507 H 227.543 2.91813 2.33925 0
M  V30 2508 H 229.835 4.42677 5.12877 0
M  V30 2509 H 230.778 5.66807 4.24424 0
M  V30 2510 H 231.186 3.93804 4.04448 0
M  V30 2511 N 230.584 -0.659388 1.43143 0
M  V30 2512 C 231.494 -1.80167 1.50256 0
M  V30 2513 C 232.51 -1.69571 0.390106 0
M  V30 2514 O 233.686 -1.90849 0.643319 0
M  V30 2515 C 230.751 -3.16409 1.41725 0
M  V30 2516 C 229.812 -3.38848 2.63591 0
M  V30 2517 C 229.045 -4.68591 2.55458 0
M  V30 2518 O 229.268 -5.47532 1.59891 0
M  V30 2519 O 228.202 -4.92614 3.45854 0
M  V30 2520 H 232.028 -1.77121 2.46702 0
M  V30 2521 H 229.613 -0.817092 1.25076 0
M  V30 2522 H 231.495 -3.9768 1.39387 0
M  V30 2523 H 230.17 -3.20059 0.484118 0
M  V30 2524 H 229.077 -2.57366 2.71502 0
M  V30 2525 H 230.41 -3.4004 3.55856 0
M  V30 2526 N 232.062 -1.29571 -0.897171 0
M  V30 2527 C 233.01 -1.14802 -2.02295 0
M  V30 2528 C 234.004 -0.0629637 -1.69283 0
M  V30 2529 O 235.21 -0.222945 -1.78614 0
M  V30 2530 H 231.585 -0.354692 -0.663097 0
M  V30 2531 H 233.556 -2.10108 -2.11889 0
M  V30 2532 C 232.305 -0.843966 -3.37302 0
M  V30 2533 H 231.628 -1.67093 -3.63208 0
M  V30 2534 H 233.068 -0.780672 -4.16751 0
M  V30 2535 C 231.527 0.452843 -3.33843 0
M  V30 2536 O 232.057 1.47813 -3.73516 0
M  V30 2537 N 230.263 0.459601 -2.86943 0
M  V30 2538 H 229.81 -0.375213 -2.54853 0
M  V30 2539 H 229.768 1.32726 -2.85011 0
M  V30 2540 N 233.54 1.10788 -1.12088 0
M  V30 2541 C 234.473 2.16237 -0.729168 0
M  V30 2542 C 235.451 1.60207 0.277921 0
M  V30 2543 O 236.635 1.87707 0.172737 0
M  V30 2544 C 233.762 3.38609 -0.0786848 0
M  V30 2545 C 232.808 4.13322 -1.05201 0
M  V30 2546 S 233.641 4.69371 -2.57781 0
M  V30 2547 C 234.797 5.95058 -1.94053 0
M  V30 2548 H 235.03 2.4913 -1.62239 0
M  V30 2549 H 232.563 1.22519 -0.939603 0
M  V30 2550 H 234.521 4.09473 0.290254 0
M  V30 2551 H 233.182 3.03962 0.791593 0
M  V30 2552 H 232.375 5.01051 -0.544433 0
M  V30 2553 H 231.977 3.48251 -1.36371 0
M  V30 2554 H 234.269 6.65278 -1.28107 0
M  V30 2555 H 235.212 6.50472 -2.79807 0
M  V30 2556 H 235.62 5.46918 -1.39787 0
M  V30 2557 N 235.018 0.912232 1.28515 0
M  V30 2558 C 236.264 0.545405 1.95328 0
M  V30 2559 C 236.597 -0.908313 1.71649 0
M  V30 2560 O 235.872 -1.64575 1.03659 0
M  V30 2561 C 236.155 0.853483 3.4984 0
M  V30 2562 C 236.008 2.35982 3.82926 0
M  V30 2563 C 237.327 0.348589 4.38717 0
M  V30 2564 H 234.446 0.199626 0.709449 0
M  V30 2565 H 237.088 1.1412 1.5191 0
M  V30 2566 H 235.238 0.34643 3.86952 0
M  V30 2567 H 236.91 2.93738 3.55691 0
M  V30 2568 H 235.153 2.81543 3.30024 0
M  V30 2569 H 235.824 2.52593 4.90816 0
M  V30 2570 H 238.3 0.78294 4.08668 0
M  V30 2571 H 237.176 0.593242 5.45685 0
M  V30 2572 H 237.437 -0.751049 4.35674 0
M  V30 2573 N 236.496 -1.42363 0.676048 0
M  V30 2574 C 237.724 -2.05859 0.207268 0
M  V30 2575 C 238.139 -1.50796 -1.13605 0
M  V30 2576 O 237.496 -0.648265 -1.70598 0
M  V30 2577 C 237.547 -3.61248 0.134975 0
M  V30 2578 O 237.268 -4.1427 1.42521 0
M  V30 2579 C 238.769 -4.41859 -0.357151 0
M  V30 2580 H 235.989 -0.663431 0.100503 0
M  V30 2581 H 238.533 -1.82479 0.923136 0
M  V30 2582 H 236.688 -3.83735 -0.531588 0
M  V30 2583 H 237.102 -5.0815 1.29939 0
M  V30 2584 H 238.576 -5.50847 -0.356641 0
M  V30 2585 H 239.053 -4.16536 -1.39264 0
M  V30 2586 H 239.659 -4.24392 0.27772 0
M  V30 2587 N 237.974 -0.419461 -1.51915 0
M  V30 2588 C 239.22 0.153166 -2.02221 0
M  V30 2589 C 239.553 1.43907 -1.30401 0
M  V30 2590 O 238.828 1.90055 -0.413438 0
M  V30 2591 C 239.111 0.390291 -3.57979 0
M  V30 2592 C 238.964 -0.913014 -4.40436 0
M  V30 2593 C 240.283 1.16794 -4.2432 0
M  V30 2594 H 237.402 0.0541924 -0.735005 0
M  V30 2595 H 240.044 -0.554955 -1.81715 0
M  V30 2596 H 238.194 0.993491 -3.75582 0
M  V30 2597 H 239.866 -1.54882 -4.34522 0
M  V30 2598 H 238.109 -1.52168 -4.06236 0
M  V30 2599 H 238.78 -0.701361 -5.47526 0
M  V30 2600 H 241.256 0.657161 -4.10878 0
M  V30 2601 H 240.132 1.3026 -5.3322 0
M  V30 2602 H 240.393 2.19132 -3.83971 0
M  V30 2603 N 239.452 1.56882 -0.150215 0
M  V30 2604 C 240.7 1.9584 0.499105 0
M  V30 2605 C 241.021 1.03623 1.65188 0
M  V30 2606 O 240.291 0.0984084 1.95653 0
M  V30 2607 H 238.871 0.723119 0.187373 0
M  V30 2608 H 241.533 1.9358 -0.226466 0
M  V30 2609 H 240.629 2.99638 0.873122 0
M  V30 2610 N 240.93 -0.123565 1.57115 0
M  V30 2611 C 242.177 -0.832153 1.84612 0
M  V30 2612 C 242.505 -1.80093 0.734627 0
M  V30 2613 O 241.76 -1.93766 -0.27442 0
M  V30 2614 C 242.059 -1.62016 3.18568 0
M  V30 2615 C 241.725 -0.796084 4.43817 0
M  V30 2616 C 240.387 -0.568816 4.77826 0
M  V30 2617 C 242.739 -0.221364 5.2073 0
M  V30 2618 C 240.067 0.243499 5.86194 0
M  V30 2619 C 242.419 0.578117 6.29953 0
M  V30 2620 C 241.083 0.815744 6.62497 0
M  V30 2621 H 240.353 -0.304507 0.675542 0
M  V30 2622 H 243 -0.0947248 1.91266 0
M  V30 2623 H 241.305 -2.42837 3.0747 0
M  V30 2624 H 243.002 -2.17231 3.37064 0
M  V30 2625 H 239.592 -0.983307 4.17168 0
M  V30 2626 H 243.776 -0.384173 4.94811 0
M  V30 2627 H 239.032 0.436871 6.09837 0
M  V30 2628 H 243.206 1.03046 6.88734 0
M  V30 2629 H 240.833 1.44701 7.46301 0
M  V30 2630 N 242.408 -1.52605 -0.393616 0
M  V30 2631 C 243.655 -1.67424 -1.1391 0
M  V30 2632 C 243.983 -0.411859 -1.90089 0
M  V30 2633 O 243.238 0.605626 -1.86093 0
M  V30 2634 C 243.537 -2.85721 -2.14705 0
M  V30 2635 C 243.203 -4.23342 -1.55218 0
M  V30 2636 C 241.865 -4.60771 -1.3872 0
M  V30 2637 C 244.217 -5.09041 -1.11924 0
M  V30 2638 C 241.545 -5.81563 -0.774689 0
M  V30 2639 C 243.897 -6.30452 -0.520853 0
M  V30 2640 C 242.561 -6.66617 -0.343134 0
M  V30 2641 H 241.831 -0.612648 -0.416826 0
M  V30 2642 H 244.478 -1.8674 -0.424315 0
M  V30 2643 H 242.783 -2.60803 -2.92385 0
M  V30 2644 H 244.48 -2.94382 -2.72288 0
M  V30 2645 H 241.07 -3.93855 -1.69045 0
M  V30 2646 H 245.254 -4.80695 -1.23473 0
M  V30 2647 H 240.51 -6.08196 -0.625154 0
M  V30 2648 H 244.684 -6.96175 -0.177065 0
M  V30 2649 H 242.311 -7.60083 0.133571 0
M  V30 2650 N 243.887 0.651787 -1.4349 0
M  V30 2651 C 245.112 1.44434 -1.48841 0
M  V30 2652 C 245.537 1.8779 -0.107955 0
M  V30 2653 O 244.895 1.57464 0.898602 0
M  V30 2654 C 244.943 2.65458 -2.44059 0
M  V30 2655 O 244.047 3.64566 -1.92784 0
M  V30 2656 H 243.388 0.433005 -0.503391 0
M  V30 2657 H 245.918 0.797451 -1.88419 0
M  V30 2658 H 245.928 3.13255 -2.6141 0
M  V30 2659 H 244.603 2.33244 -3.4434 0
M  V30 2660 H 243.18 3.23716 -1.851 0
M  V30 2661 N 245.365 1.30045 0.890287 0
M  V30 2662 C 246.605 1.19839 1.65584 0
M  V30 2663 C 246.969 -0.244175 1.90441 0
M  V30 2664 O 248.17 -0.469378 2.6467 0
M  V30 2665 C 246.441 1.99876 2.96284 0
M  V30 2666 S 248 2.06309 3.87275 0
M  V30 2667 H 244.818 0.427157 0.568382 0
M  V30 2668 H 247.42 1.64453 1.05715 0
M  V30 2669 H 246.124 3.03809 2.75913 0
M  V30 2670 H 245.655 1.55903 3.61189 0
M  V30 2671 H 247.67 1.18661 4.81803 0
M  V30 2672 N 246.843 -1.10192 1.12674 0
M  V30 2673 C 247.776 -2.15847 0.740625 0
M  V30 2674 C 248.754 -1.60352 -0.269421 0
M  V30 2675 O 249.938 -1.87796 -0.16278 0
M  V30 2676 C 247.065 -3.38562 0.096641 0
M  V30 2677 C 246.111 -4.12758 1.07391 0
M  V30 2678 S 246.944 -4.67997 2.60267 0
M  V30 2679 C 248.1 -5.94021 1.97206 0
M  V30 2680 H 248.333 -2.48266 1.63558 0
M  V30 2681 H 245.866 -1.22019 0.946087 0
M  V30 2682 H 247.824 -4.09621 -0.268535 0
M  V30 2683 H 246.485 -3.04377 -0.775462 0
M  V30 2684 H 245.678 -5.00755 0.570997 0
M  V30 2685 H 245.28 -3.47523 1.38216 0
M  V30 2686 H 247.572 -6.64589 1.31634 0
M  V30 2687 H 248.515 -6.48979 2.83253 0
M  V30 2688 H 248.923 -5.46169 1.42686 0
M  V30 2689 N 248.321 -0.919034 -1.28029 0
M  V30 2690 C 249.569 -0.553838 -1.94363 0
M  V30 2691 C 249.89 0.906357 -1.72656 0
M  V30 2692 O 249.16 1.64143 -1.0693 0
M  V30 2693 H 247.74 -0.201834 -0.719216 0
M  V30 2694 H 250.402 -1.16954 -1.55909 0
M  V30 2695 H 249.498 -0.752758 -3.02886 0
M  V30 2696 N 249.799 1.42003 -0.683588 0
M  V30 2697 C 251.027 2.05746 -0.218182 0
M  V30 2698 C 251.442 1.51396 1.12804 0
M  V30 2699 O 250.799 0.657303 1.70252 0
M  V30 2700 C 250.85 3.61171 -0.154131 0
M  V30 2701 O 250.571 4.13508 -1.44716 0
M  V30 2702 C 252.072 4.42042 0.333713 0
M  V30 2703 H 249.292 0.662888 -0.10402 0
M  V30 2704 H 251.836 1.81987 -0.9328 0
M  V30 2705 H 249.991 3.84012 0.511231 0
M  V30 2706 H 250.405 5.07453 -1.32632 0
M  V30 2707 H 251.879 5.51028 0.327423 0
M  V30 2708 H 252.356 4.17269 1.37053 0
M  V30 2709 H 252.962 4.24239 -0.300222 0
M  V30 2710 N 251.277 0.427512 1.51691 0
M  V30 2711 C 252.207 -0.3796 2.30394 0
M  V30 2712 C 253.188 -1.02982 1.35384 0
M  V30 2713 O 254.373 -1.03534 1.643 0
M  V30 2714 C 251.503 -1.48649 3.1388 0
M  V30 2715 C 250.457 -0.960294 4.17088 0
M  V30 2716 C 249.783 -2.16219 4.89033 0
M  V30 2717 C 251.083 -0.00153679 5.223 0
M  V30 2718 H 252.777 0.277164 2.98114 0
M  V30 2719 H 250.323 0.134739 1.43368 0
M  V30 2720 H 252.276 -2.05826 3.67714 0
M  V30 2721 H 251 -2.1714 2.43962 0
M  V30 2722 H 249.659 -0.410806 3.64291 0
M  V30 2723 H 249.307 -2.83307 4.15628 0
M  V30 2724 H 249.007 -1.81654 5.58816 0
M  V30 2725 H 250.531 -2.73968 5.45687 0
M  V30 2726 H 251.945 -0.482687 5.71264 0
M  V30 2727 H 250.342 0.256199 5.99553 0
M  V30 2728 H 251.412 0.938174 4.75738 0
M  V30 2729 N 252.755 -1.56801 0.158532 0
M  V30 2730 C 253.995 -1.98383 -0.49229 0
M  V30 2731 C 254.359 -1.04184 -1.61275 0
M  V30 2732 O 255.56 -1.34856 -2.32524 0
M  V30 2733 C 253.831 -3.4385 -0.974766 0
M  V30 2734 S 255.39 -4.07459 -1.62857 0
M  V30 2735 H 252.208 -0.693041 -0.158794 0
M  V30 2736 H 254.81 -1.93856 0.252974 0
M  V30 2737 H 253.514 -4.10131 -0.148688 0
M  V30 2738 H 253.045 -3.52115 -1.75438 0
M  V30 2739 H 255.06 -4.01458 -2.91627 0
M  V30 2740 N 254.233 0.115231 -1.57178 0
M  V30 2741 C 255.482 0.820945 -1.84237 0
M  V30 2742 C 255.795 1.80866 -0.744761 0
M  V30 2743 O 257.001 2.56083 -0.901871 0
M  V30 2744 C 255.457 1.51072 -3.26658 0
M  V30 2745 C 255.065 0.563795 -4.44438 0
M  V30 2746 C 256.809 2.20134 -3.62962 0
M  V30 2747 C 254.716 1.25701 -5.77887 0
M  V30 2748 H 253.646 0.310328 -0.687177 0
M  V30 2749 H 256.297 0.0737134 -1.83352 0
M  V30 2750 H 254.679 2.30471 -3.22024 0
M  V30 2751 H 255.853 -0.197247 -4.60378 0
M  V30 2752 H 254.168 -0.0200638 -4.16395 0
M  V30 2753 H 256.765 2.72696 -4.59936 0
M  V30 2754 H 257.108 2.98107 -2.90582 0
M  V30 2755 H 257.641 1.47619 -3.69396 0
M  V30 2756 H 254.38 0.518493 -6.53446 0
M  V30 2757 H 253.9 1.98997 -5.65827 0
M  V30 2758 H 255.579 1.78915 -6.2177 0
M  V30 2759 N 255.711 1.52812 0.385517 0
M  V30 2760 C 256.959 1.67694 1.12797 0
M  V30 2761 C 257.28 0.421115 1.90399 0
M  V30 2762 O 256.55 -0.564551 1.87589 0
M  V30 2763 H 255.13 0.618155 0.419396 0
M  V30 2764 H 257.792 1.89938 0.436972 0
M  V30 2765 H 256.888 2.52896 1.82894 0
M  V30 2766 N 257.189 -0.644168 1.43834 0
M  V30 2767 C 258.152 -1.73857 1.49353 0
M  V30 2768 C 259.152 -1.56315 0.377112 0
M  V30 2769 O 260.342 -1.62048 0.639226 0
M  V30 2770 C 257.474 -3.12819 1.35488 0
M  V30 2771 H 258.667 -1.70342 2.46827 0
M  V30 2772 H 256.22 -0.856652 1.30733 0
M  V30 2773 H 256.955 -3.2194 0.390569 0
M  V30 2774 H 256.74 -3.26958 2.16428 0
M  V30 2775 H 258.23 -3.92606 1.42302 0
M  V30 2776 N 258.668 -1.30515 -0.883378 0
M  V30 2777 C 259.631 -1.1701 -1.97082 0
M  V30 2778 C 260.631 -0.10089 -1.60483 0
M  V30 2779 O 261.821 -0.349127 -1.70666 0
M  V30 2780 C 258.953 -0.793045 -3.31547 0
M  V30 2781 H 260.146 -2.13622 -2.10489 0
M  V30 2782 H 257.699 -1.13935 -1.06998 0
M  V30 2783 H 258.434 0.172499 -3.23841 0
M  V30 2784 H 258.219 -1.56576 -3.5948 0
M  V30 2785 H 259.709 -0.722073 -4.1131 0
M  V30 2786 N 260.146 1.09593 -1.13257 0
M  V30 2787 C 261.109 2.14359 -0.811358 0
M  V30 2788 C 262.109 1.59808 0.178377 0
M  V30 2789 O 263.299 1.74132 -0.0484911 0
M  V30 2790 C 260.431 3.40269 -0.207276 0
M  V30 2791 H 261.624 2.44284 -1.73969 0
M  V30 2792 H 259.177 1.25102 -0.936973 0
M  V30 2793 H 259.912 3.15969 0.73036 0
M  V30 2794 H 259.697 3.81154 -0.919992 0
M  V30 2795 H 261.187 4.176 0.000667944 0
M  V30 2796 N 261.624 0.925811 1.2754 0
M  V30 2797 C 262.871 0.565255 1.94451 0
M  V30 2798 C 263.199 -0.89316 1.7278 0
M  V30 2799 O 262.454 -1.65213 1.04895 0
M  V30 2800 C 262.753 0.835296 3.47502 0
M  V30 2801 C 262.419 2.27515 3.89291 0
M  V30 2802 C 261.081 2.66879 4.00411 0
M  V30 2803 C 263.433 3.21158 4.10496 0
M  V30 2804 C 260.761 3.99014 4.30122 0
M  V30 2805 C 263.113 4.52871 4.4169 0
M  V30 2806 C 261.777 4.92072 4.51023 0
M  V30 2807 H 261.047 0.206841 0.711546 0
M  V30 2808 H 263.694 1.16942 1.51647 0
M  V30 2809 H 261.999 0.148442 3.91519 0
M  V30 2810 H 263.696 0.535322 3.97411 0
M  V30 2811 H 260.286 1.95976 3.81171 0
M  V30 2812 H 264.47 2.9195 4.01346 0
M  V30 2813 H 259.726 4.2907 4.35556 0
M  V30 2814 H 263.9 5.25436 4.57045 0
M  V30 2815 H 261.527 5.9449 4.738 0
M  V30 2816 N 263.102 -1.41638 0.69111 0
M  V30 2817 C 264.327 -2.06148 0.227583 0
M  V30 2818 C 264.752 -1.51652 -1.11281 0
M  V30 2819 O 264.11 -0.64164 -1.69566 0
M  V30 2820 C 264.158 -3.60095 0.190858 0
M  V30 2821 O 263.262 -4.03845 -0.835664 0
M  V30 2822 H 262.603 -0.654434 0.112306 0
M  V30 2823 H 265.133 -1.81484 0.944714 0
M  V30 2824 H 265.143 -4.07995 0.020207 0
M  V30 2825 H 263.818 -3.99129 1.16915 0
M  V30 2826 H 262.395 -3.67458 -0.63473 0
M  V30 2827 N 264.58 -0.43555 -1.51462 0
M  V30 2828 C 265.512 0.41257 -2.25456 0
M  V30 2829 C 266.525 0.987822 -1.29406 0
M  V30 2830 O 267.714 0.882266 -1.55172 0
M  V30 2831 C 264.814 1.58894 -2.99342 0
M  V30 2832 C 263.987 1.13288 -4.22474 0
M  V30 2833 C 263.046 2.17917 -4.78956 0
M  V30 2834 O 262.072 1.77425 -5.40841 0
M  V30 2835 N 263.274 3.50382 -4.62832 0
M  V30 2836 H 266.039 -0.221603 -2.9888 0
M  V30 2837 H 263.6 -0.264342 -1.59727 0
M  V30 2838 H 265.592 2.28508 -3.34015 0
M  V30 2839 H 264.162 2.12849 -2.28941 0
M  V30 2840 H 263.382 0.263881 -3.93316 0
M  V30 2841 H 264.67 0.805542 -5.02383 0
M  V30 2842 H 264.068 3.86013 -4.13534 0
M  V30 2843 H 262.625 4.15895 -5.01871 0
M  V30 2844 N 266.058 1.56714 -0.166846 0
M  V30 2845 C 267.298 1.98641 0.481763 0
M  V30 2846 C 267.662 1.05038 1.6072 0
M  V30 2847 O 268.863 1.36087 2.31805 0
M  V30 2848 C 267.134 3.44362 0.956517 0
M  V30 2849 S 268.693 4.08317 1.60694 0
M  V30 2850 H 265.511 0.693873 0.155116 0
M  V30 2851 H 268.113 1.93719 -0.263251 0
M  V30 2852 H 266.817 4.10204 0.126936 0
M  V30 2853 H 266.348 3.53041 1.73568 0
M  V30 2854 H 268.363 4.02999 2.89494 0
M  V30 2855 N 267.536 -0.106894 1.57237 0
M  V30 2856 C 268.446 -1.14911 2.0453 0
M  V30 2857 C 269.462 -1.44592 0.96795 0
M  V30 2858 O 270.638 -1.55468 1.2803 0
M  V30 2859 C 267.703 -2.45272 2.45036 0
M  V30 2860 C 266.764 -2.22879 3.66911 0
M  V30 2861 C 265.997 -3.47024 4.05475 0
M  V30 2862 O 266.22 -4.54804 3.44252 0
M  V30 2863 O 265.154 -3.3731 4.98504 0
M  V30 2864 H 268.98 -0.777461 2.9358 0
M  V30 2865 H 266.565 -0.318563 1.45964 0
M  V30 2866 H 268.447 -3.22055 2.71769 0
M  V30 2867 H 267.122 -2.81886 1.59129 0
M  V30 2868 H 266.029 -1.43915 3.45311 0
M  V30 2869 H 267.362 -1.91163 4.53561 0
M  V30 2870 N 269.014 -1.53014 -0.377408 0
M  V30 2871 C 269.924 -1.81557 -1.48574 0
M  V30 2872 C 270.94 -0.703102 -1.59162 0
M  V30 2873 O 272.116 -0.99192 -1.75279 0
M  V30 2874 C 269.181 -1.9889 -2.83978 0
M  V30 2875 C 268.242 -3.22801 -2.83016 0
M  V30 2876 C 267.475 -3.39298 -4.11962 0
M  V30 2877 O 267.698 -2.60345 -5.0752 0
M  V30 2878 O 266.632 -4.32604 -4.18494 0
M  V30 2879 H 270.458 -2.75695 -1.27382 0
M  V30 2880 H 268.043 -1.38248 -0.566373 0
M  V30 2881 H 269.925 -2.11931 -3.6423 0
M  V30 2882 H 268.6 -1.07942 -3.05172 0
M  V30 2883 H 267.507 -3.15193 -2.01505 0
M  V30 2884 H 268.84 -4.13632 -2.66775 0
M  V30 2885 N 270.492 0.636531 -1.44174 0
M  V30 2886 C 271.738 1.39649 -1.47884 0
M  V30 2887 C 272.093 1.92098 -0.107747 0
M  V30 2888 O 271.386 1.70391 0.876208 0
M  V30 2889 C 271.58 2.58309 -2.47005 0
M  V30 2890 C 271.409 2.17476 -3.93617 0
M  V30 2891 C 270.179 2.0501 -4.61843 0
M  V30 2892 C 272.377 1.76722 -4.82984 0
M  V30 2893 N 270.359 1.57683 -5.93304 0
M  V30 2894 C 271.73 1.40601 -6.03847 0
M  V30 2895 C 273.785 1.64054 -4.70096 0
M  V30 2896 C 272.488 0.930787 -7.13252 0
M  V30 2897 C 274.514 1.17937 -5.79521 0
M  V30 2898 C 273.876 0.827625 -6.99521 0
M  V30 2899 H 269.975 0.506027 -0.596205 0
M  V30 2900 H 272.559 0.730791 -1.80465 0
M  V30 2901 H 270.73 3.22514 -2.16423 0
M  V30 2902 H 272.462 3.25083 -2.41045 0
M  V30 2903 H 269.217 2.25294 -4.16581 0
M  V30 2904 H 269.641 1.36334 -6.63131 0
M  V30 2905 H 274.283 1.89882 -3.77762 0
M  V30 2906 H 272.001 0.660012 -8.054 0
M  V30 2907 H 275.587 1.08601 -5.71574 0
M  V30 2908 H 274.467 0.476231 -7.82753 0
M  V30 2909 N 271.97 1.30982 0.876444 0
M  V30 2910 C 273.195 1.23373 1.66715 0
M  V30 2911 C 273.62 -0.19885 1.87046 0
M  V30 2912 O 272.978 -1.1427 1.40756 0
M  V30 2913 C 273.026 1.97644 3.01611 0
M  V30 2914 O 272.13 1.30935 3.91062 0
M  V30 2915 H 271.471 0.426279 0.509099 0
M  V30 2916 H 274.001 1.72944 1.09323 0
M  V30 2917 H 274.011 2.06992 3.51594 0
M  V30 2918 H 272.686 3.01829 2.86133 0
M  V30 2919 H 271.263 1.29996 3.49507 0
M  V30 2920 N 273.449 -1.08991 1.13837 0
M  V30 2921 C 274.696 -1.81258 0.902882 0
M  V30 2922 C 275.024 -1.85936 -0.570803 0
M  V30 2923 O 274.279 -1.3267 -1.43865 0
M  V30 2924 C 274.578 -3.27042 1.44147 0
M  V30 2925 C 274.244 -3.4249 2.93276 0
M  V30 2926 C 272.906 -3.46414 3.33992 0
M  V30 2927 C 275.258 -3.4666 3.892 0
M  V30 2928 C 272.586 -3.52091 4.69307 0
M  V30 2929 C 274.938 -3.53872 5.24364 0
M  V30 2930 C 273.602 -3.56066 5.646 0
M  V30 2931 H 272.872 -0.663268 0.330388 0
M  V30 2932 H 275.519 -1.28368 1.42105 0
M  V30 2933 H 273.824 -3.82599 0.844097 0
M  V30 2934 H 275.521 -3.81499 1.23528 0
M  V30 2935 H 272.111 -3.40124 2.60794 0
M  V30 2936 H 276.295 -3.42865 3.58828 0
M  V30 2937 H 271.551 -3.52079 4.9985 0
M  V30 2938 H 275.725 -3.56043 5.98503 0
M  V30 2939 H 273.352 -3.60218 6.69438 0
M  V30 2940 N 274.927 -0.932562 -1.27047 0
M  V30 2941 C 276.174 -0.575559 -1.94148 0
M  V30 2942 C 276.502 0.883984 -1.73251 0
M  V30 2943 O 275.757 1.64655 -1.0577 0
M  V30 2944 C 276.056 -0.853713 -3.47054 0
M  V30 2945 C 275.722 -2.29577 -3.88079 0
M  V30 2946 C 274.384 -2.68999 -3.9899 0
M  V30 2947 C 276.736 -3.23331 -4.08787 0
M  V30 2948 C 274.064 -4.01289 -4.28 0
M  V30 2949 C 276.416 -4.55207 -4.39282 0
M  V30 2950 C 275.08 -4.94457 -4.48407 0
M  V30 2951 H 274.35 -0.210612 -0.710439 0
M  V30 2952 H 276.997 -1.17744 -1.51025 0
M  V30 2953 H 275.302 -0.169204 -3.91434 0
M  V30 2954 H 276.999 -0.55639 -3.97121 0
M  V30 2955 H 273.589 -1.97994 -3.80127 0
M  V30 2956 H 277.773 -2.94074 -3.99793 0
M  V30 2957 H 273.029 -4.31374 -4.33275 0
M  V30 2958 H 277.203 -5.27852 -4.54252 0
M  V30 2959 H 274.83 -5.96994 -4.7064 0
M  V30 2960 N 276.405 1.4127 -0.698611 0
M  V30 2961 C 277.355 2.27997 -0.0119836 0
M  V30 2962 C 278.339 1.42363 0.749765 0
M  V30 2963 O 279.531 1.65607 0.624758 0
M  V30 2964 C 276.66 3.30702 0.921458 0
M  V30 2965 C 275.746 4.23814 0.155796 0
M  V30 2966 N 276.137 4.98572 -0.852015 0
M  V30 2967 C 274.435 4.44284 0.390836 0
M  V30 2968 C 275.136 5.66744 -1.3106 0
M  V30 2969 N 274.112 5.39867 -0.635944 0
M  V30 2970 H 277.914 2.83232 -0.784649 0
M  V30 2971 H 275.428 1.53518 -0.529711 0
M  V30 2972 H 277.425 3.91661 1.42854 0
M  V30 2973 H 276.085 2.77028 1.69369 0
M  V30 2974 H 277.096 5.03024 -1.23235 0
M  V30 2975 H 273.773 4.01614 1.14071 0
M  V30 2976 H 275.163 6.36672 -2.14707 0
M  V30 2977 N 277.883 0.443576 1.51229 0
M  V30 2978 C 278.846 -0.353132 2.26463 0
M  V30 2979 C 279.846 -0.944338 1.3015 0
M  V30 2980 O 281.036 -0.817813 1.5381 0
M  V30 2981 C 278.168 -1.50023 3.06114 0
M  V30 2982 H 279.361 0.3063 2.98332 0
M  V30 2983 H 276.914 0.196902 1.55055 0
M  V30 2984 H 277.649 -2.19553 2.38677 0
M  V30 2985 H 277.434 -1.08241 3.76864 0
M  V30 2986 H 278.924 -2.06296 3.63087 0
M  V30 2987 N 279.361 -1.56624 0.175154 0
M  V30 2988 C 280.591 -2.01082 -0.474283 0
M  V30 2989 C 280.999 -1.05447 -1.57091 0
M  V30 2990 O 280.342 -0.0480595 -1.83637 0
M  V30 2991 C 280.404 -3.41963 -1.10911 0
M  V30 2992 C 280.068 -4.56742 -0.153666 0
M  V30 2993 C 281.065 -5.16076 0.629448 0
M  V30 2994 C 278.75 -5.02277 -0.0483776 0
M  V30 2995 C 280.744 -6.19377 1.50501 0
M  V30 2996 C 278.431 -6.05427 0.830768 0
M  V30 2997 C 279.429 -6.63849 1.60605 0
M  V30 2998 O 279.117 -7.64998 2.47049 0
M  V30 2999 H 278.849 -0.664261 -0.125432 0
M  V30 3000 H 281.403 -2.03549 0.275163 0
M  V30 3001 H 279.633 -3.36422 -1.90676 0
M  V30 3002 H 281.322 -3.70352 -1.66114 0
M  V30 3003 H 282.088 -4.81776 0.558297 0
M  V30 3004 H 277.967 -4.56513 -0.641611 0
M  V30 3005 H 281.511 -6.64906 2.1106 0
M  V30 3006 H 277.408 -6.39151 0.903107 0
M  V30 3007 H 278.176 -7.82336 2.40607 0
M  V30 3008 N 280.839 0.0985539 -1.57292 0
M  V30 3009 C 282.069 0.815135 -1.8984 0
M  V30 3010 C 282.477 1.7297 -0.766679 0
M  V30 3011 O 281.82 1.81698 0.270483 0
M  V30 3012 C 281.882 1.6842 -3.17608 0
M  V30 3013 C 281.546 0.94182 -4.4719 0
M  V30 3014 C 282.543 0.273212 -5.19182 0
M  V30 3015 C 280.228 0.916927 -4.9386 0
M  V30 3016 C 282.222 -0.410361 -6.36078 0
M  V30 3017 C 279.909 0.229567 -6.10669 0
M  V30 3018 C 280.907 -0.432902 -6.81627 0
M  V30 3019 O 280.595 -1.10925 -7.9621 0
M  V30 3020 H 280.327 0.238501 -0.632529 0
M  V30 3021 H 282.881 0.0812659 -2.05239 0
M  V30 3022 H 281.111 2.46022 -2.98345 0
M  V30 3023 H 282.8 2.27704 -3.36015 0
M  V30 3024 H 283.566 0.283927 -4.84168 0
M  V30 3025 H 279.445 1.42201 -4.3852 0
M  V30 3026 H 282.989 -0.928013 -6.914 0
M  V30 3027 H 278.886 0.216686 -6.45136 0
M  V30 3028 H 279.654 -1.01579 -8.12172 0
M  V30 3029 N 282.317 1.53212 0.369288 0
M  V30 3030 C 283.547 1.72868 1.13139 0
M  V30 3031 C 283.955 0.455754 1.83629 0
M  V30 3032 O 283.298 -0.580861 1.74275 0
M  V30 3033 C 283.36 2.83667 2.20847 0
M  V30 3034 C 283.024 4.24142 1.70155 0
M  V30 3035 C 284.021 5.06619 1.16763 0
M  V30 3036 C 281.706 4.70539 1.7578 0
M  V30 3037 C 283.7 6.33581 0.696678 0
M  V30 3038 C 281.387 5.97481 1.28297 0
M  V30 3039 C 282.385 6.78833 0.753307 0
M  V30 3040 O 282.073 8.03393 0.285475 0
M  V30 3041 H 281.805 0.581707 0.344373 0
M  V30 3042 H 284.359 2.00736 0.435243 0
M  V30 3043 H 282.589 2.51265 2.93944 0
M  V30 3044 H 284.278 2.91536 2.82421 0
M  V30 3045 H 285.044 4.71948 1.11758 0
M  V30 3046 H 280.923 4.07293 2.15949 0
M  V30 3047 H 284.467 6.97027 0.282581 0
M  V30 3048 H 280.364 6.31651 1.32994 0
M  V30 3049 H 281.132 8.17497 0.405145 0
M  V30 3050 N 283.795 -0.628877 1.44509 0
M  V30 3051 C 285.035 -1.39993 1.48934 0
M  V30 3052 C 285.399 -1.91627 0.119604 0
M  V30 3053 O 286.6 -2.68772 0.0385283 0
M  V30 3054 C 284.871 -2.53241 2.52198 0
M  V30 3055 S 286.43 -3.41383 2.75687 0
M  V30 3056 H 283.248 -0.477558 0.526744 0
M  V30 3057 H 285.85 -0.727804 1.81448 0
M  V30 3058 H 284.554 -2.13622 3.50419 0
M  V30 3059 H 284.085 -3.25278 2.21264 0
M  V30 3060 H 286.1 -4.50752 2.07453 0
M  V30 3061 N 285.273 -1.31445 -0.869486 0
M  V30 3062 C 286.52 -1.21158 -1.62256 0
M  V30 3063 C 286.848 0.230155 -1.93133 0
M  V30 3064 O 286.103 1.17906 -1.56194 0
M  V30 3065 C 286.402 -2.00145 -2.96102 0
M  V30 3066 C 286.068 -3.4964 -2.84715 0
M  V30 3067 C 284.73 -3.90403 -2.81317 0
M  V30 3068 C 287.082 -4.44769 -2.71716 0
M  V30 3069 C 284.41 -5.24561 -2.62778 0
M  V30 3070 C 286.762 -5.79054 -2.54714 0
M  V30 3071 C 285.426 -6.19037 -2.49699 0
M  V30 3072 H 284.696 -0.443348 -0.593737 0
M  V30 3073 H 287.343 -1.62715 -1.00976 0
M  V30 3074 H 285.648 -1.5127 -3.6142 0
M  V30 3075 H 287.345 -1.89566 -3.53363 0
M  V30 3076 H 283.935 -3.17256 -2.88178 0
M  V30 3077 H 288.119 -4.14208 -2.73397 0
M  V30 3078 H 283.375 -5.54613 -2.57321 0
M  V30 3079 H 287.549 -6.52393 -2.43632 0
M  V30 3080 H 285.176 -7.22935 -2.35093 0
M  V30 3081 N 286.751 1.08385 -1.14413 0
M  V30 3082 C 288 1.80153 -0.907076 0
M  V30 3083 C 288.313 1.87176 0.567851 0
M  V30 3084 O 289.519 2.55359 0.922172 0
M  V30 3085 C 287.975 3.23687 -1.57336 0
M  V30 3086 C 287.583 3.24897 -3.08457 0
M  V30 3087 C 289.327 4.00136 -1.41744 0
M  V30 3088 C 287.234 4.6302 -3.67921 0
M  V30 3089 H 286.164 0.675139 -0.335714 0
M  V30 3090 H 288.815 1.21733 -1.37307 0
M  V30 3091 H 287.197 3.82234 -1.03505 0
M  V30 3092 H 288.371 2.76055 -3.68958 0
M  V30 3093 H 286.686 2.61943 -3.2369 0
M  V30 3094 H 289.283 5.02201 -1.83572 0
M  V30 3095 H 289.626 4.14709 -0.363576 0
M  V30 3096 H 290.159 3.48058 -1.92614 0
M  V30 3097 H 286.898 4.5365 -4.73161 0
M  V30 3098 H 286.418 5.12143 -3.12201 0
M  V30 3099 H 288.097 5.31994 -3.68227 0
M  V30 3100 N 288.23 0.939286 1.26551 0
M  V30 3101 C 289.458 0.602536 1.97932 0
M  V30 3102 C 289.873 -0.82206 1.69964 0
M  V30 3103 O 289.23 -1.54789 0.966784 0
M  V30 3104 C 289.281 0.832946 3.51773 0
M  V30 3105 O 289.002 2.20151 3.78768 0
M  V30 3106 C 290.503 0.506483 4.40397 0
M  V30 3107 H 287.723 0.227248 0.631347 0
M  V30 3108 H 290.267 1.25948 1.61113 0
M  V30 3109 H 288.422 0.222644 3.8676 0
M  V30 3110 H 288.836 2.26013 4.73306 0
M  V30 3111 H 290.31 0.718333 5.47306 0
M  V30 3112 H 290.787 -0.558451 4.35635 0
M  V30 3113 H 291.393 1.09543 4.10951 0
M  V30 3114 N 289.708 -1.40897 0.706093 0
M  V30 3115 C 290.638 -2.33418 0.0620085 0
M  V30 3116 C 291.619 -1.52385 -0.755827 0
M  V30 3117 O 292.804 -1.80886 -0.706674 0
M  V30 3118 C 289.934 -3.36293 -0.867445 0
M  V30 3119 C 288.888 -4.27716 -0.155932 0
M  V30 3120 C 288.214 -5.2105 -1.20046 0
M  V30 3121 C 289.514 -5.12944 0.984149 0
M  V30 3122 H 291.208 -2.87527 0.83477 0
M  V30 3123 H 288.754 -1.38249 0.402875 0
M  V30 3124 H 290.707 -3.99949 -1.32735 0
M  V30 3125 H 289.431 -2.80556 -1.67199 0
M  V30 3126 H 288.09 -3.65498 0.284047 0
M  V30 3127 H 287.738 -4.61624 -1.99781 0
M  V30 3128 H 287.438 -5.83056 -0.729328 0
M  V30 3129 H 288.962 -5.87584 -1.66066 0
M  V30 3130 H 290.376 -5.70109 0.604048 0
M  V30 3131 H 288.773 -5.83945 1.38304 0
M  V30 3132 H 289.843 -4.49485 1.81911 0
M  V30 3133 N 291.186 -0.45159 -1.50991 0
M  V30 3134 C 292.414 0.108334 -2.06616 0
M  V30 3135 C 292.829 1.35224 -1.31757 0
M  V30 3136 O 292.186 1.78475 -0.381174 0
M  V30 3137 C 292.237 0.41619 -3.59096 0
M  V30 3138 O 291.958 -0.778361 -4.3113 0
M  V30 3139 C 293.459 1.02523 -4.31282 0
M  V30 3140 H 290.679 0.00159995 -0.670998 0
M  V30 3141 H 293.223 -0.634771 -1.94399 0
M  V30 3142 H 291.378 1.10921 -3.71181 0
M  V30 3143 H 291.792 -0.511181 -5.22003 0
M  V30 3144 H 293.266 1.19053 -5.39009 0
M  V30 3145 H 293.743 2.01013 -3.905 0
M  V30 3146 H 294.349 0.371173 -4.23677 0
M  V30 3147 N 292.664 1.56529 -0.183458 0
M  V30 3148 C 293.892 2.01623 0.464285 0
M  V30 3149 C 294.307 1.06366 1.55986 0
M  V30 3150 O 293.664 0.0665398 1.82379 0
M  V30 3151 C 293.715 3.46475 1.03139 0
M  V30 3152 O 293.436 4.38095 -0.0204675 0
M  V30 3153 C 294.937 4.0703 1.75617 0
M  V30 3154 H 292.157 0.660596 0.117704 0
M  V30 3155 H 294.701 2.02451 -0.288751 0
M  V30 3156 H 292.856 3.46383 1.73486 0
M  V30 3157 H 293.27 5.22973 0.399952 0
M  V30 3158 H 294.744 5.10271 2.10542 0
M  V30 3159 H 295.221 3.49819 2.65563 0
M  V30 3160 H 295.827 4.1086 1.09882 0
M  V30 3161 N 294.142 -0.090211 1.57342 0
M  V30 3162 C 295.391 -0.791531 1.8552 0
M  V30 3163 C 295.704 -1.79659 0.773441 0
M  V30 3164 O 296.91 -2.54616 0.942497 0
M  V30 3165 C 295.366 -1.45856 3.2902 0
M  V30 3166 C 294.974 -0.493017 4.45279 0
M  V30 3167 C 296.718 -2.14332 3.66418 0
M  V30 3168 C 294.625 -1.16491 5.79814 0
M  V30 3169 H 293.555 -0.299356 0.692027 0
M  V30 3170 H 296.206 -0.0445343 1.83446 0
M  V30 3171 H 294.588 -2.25318 3.2565 0
M  V30 3172 H 295.762 0.270464 4.60006 0
M  V30 3173 H 294.077 0.0863061 4.16311 0
M  V30 3174 H 296.674 -2.65344 4.64216 0
M  V30 3175 H 297.017 -2.93447 2.95287 0
M  V30 3176 H 297.55 -1.41724 3.71698 0
M  V30 3177 H 294.289 -0.41447 6.54188 0
M  V30 3178 H 293.809 -1.8997 5.68921 0
M  V30 3179 H 295.488 -1.69001 6.24538 0
M  V30 3180 N 295.62 -1.53406 -0.361157 0
M  V30 3181 C 296.868 -1.69467 -1.10115 0
M  V30 3182 C 297.189 -0.451352 -1.89705 0
M  V30 3183 O 296.459 0.534636 -1.88463 0
M  V30 3184 H 295.039 -0.624749 -0.409508 0
M  V30 3185 H 297.701 -1.90609 -0.406699 0
M  V30 3186 H 296.797 -2.55774 -1.78847 0
M  V30 3187 N 297.098 0.621204 -1.44841 0
M  V30 3188 C 298.345 1.38055 -1.48145 0
M  V30 3189 C 298.673 1.94143 -0.117867 0
M  V30 3190 O 297.928 1.74713 0.881694 0
M  V30 3191 C 298.227 2.55675 -2.4973 0
M  V30 3192 C 297.893 2.17817 -3.94799 0
M  V30 3193 C 296.555 2.07205 -4.34303 0
M  V30 3194 C 298.907 1.88065 -4.86087 0
M  V30 3195 C 296.235 1.65045 -5.63007 0
M  V30 3196 C 298.587 1.47394 -6.15189 0
M  V30 3197 C 297.251 1.35331 -6.53637 0
M  V30 3198 H 296.521 0.505181 -0.542101 0
M  V30 3199 H 299.168 0.703477 -1.78111 0
M  V30 3200 H 297.473 3.2866 -2.13284 0
M  V30 3201 H 299.17 3.13904 -2.4953 0
M  V30 3202 H 295.76 2.26998 -3.63552 0
M  V30 3203 H 299.944 1.95168 -4.56315 0
M  V30 3204 H 295.2 1.54317 -5.91605 0
M  V30 3205 H 299.374 1.23415 -6.85377 0
M  V30 3206 H 297.001 1.02435 -7.53267 0
M  V30 3207 N 298.576 1.31904 0.862503 0
M  V30 3208 C 299.824 1.21776 1.61292 0
M  V30 3209 C 300.145 -0.222413 1.93727 0
M  V30 3210 O 299.415 -1.1451 1.58947 0
M  V30 3211 H 297.995 0.447717 0.597962 0
M  V30 3212 H 300.657 1.65326 1.03215 0
M  V30 3213 H 299.753 1.7948 2.5533 0
M  V30 3214 N 300.054 -1.07777 1.14986 0
M  V30 3215 C 301.331 -1.7699 0.832695 0
M  V30 3216 C 301.711 -2.001 -0.672561 0
M  V30 3217 O 301.059 -1.61598 -1.6155 0
M  V30 3218 C 301.269 -3.08139 1.63863 0
M  V30 3219 C 302.617 -3.8256 1.84208 0
M  V30 3220 O 303.641 -3.17939 1.60603 0
M  V30 3221 O 302.5 -4.98612 2.23714 0
M  V30 3222 H 299.594 -0.768389 0.305791 0
M  V30 3223 H 302.14 -1.14182 1.25541 0
M  V30 3224 H 300.912 -2.86909 2.6608 0
M  V30 3225 H 300.535 -3.78678 1.21197 0
M  V30 3226 N 301.532 -0.945985 -1.26051 0
M  V30 3227 C 302.762 -0.612136 -1.97323 0
M  V30 3228 C 303.17 0.818171 -1.70595 0
M  V30 3229 O 302.513 1.55777 -0.973613 0
M  V30 3230 C 302.575 -0.780347 -3.50929 0
M  V30 3231 C 302.239 -2.18619 -4.01317 0
M  V30 3232 C 303.236 -3.16209 -4.12683 0
M  V30 3233 C 300.921 -2.50805 -4.35203 0
M  V30 3234 C 302.915 -4.44085 -4.57238 0
M  V30 3235 C 300.602 -3.78912 -4.79446 0
M  V30 3236 C 301.6 -4.75365 -4.90425 0
M  V30 3237 O 301.288 -6.01191 -5.3369 0
M  V30 3238 H 301.02 -0.229134 -0.635982 0
M  V30 3239 H 303.574 -1.27036 -1.61404 0
M  V30 3240 H 301.804 -0.0649864 -3.86645 0
M  V30 3241 H 303.493 -0.448842 -4.03411 0
M  V30 3242 H 304.259 -2.92668 -3.86744 0
M  V30 3243 H 300.138 -1.76463 -4.2589 0
M  V30 3244 H 303.682 -5.19373 -4.65723 0
M  V30 3245 H 299.579 -4.02265 -5.0483 0
M  V30 3246 H 300.347 -6.04442 -5.51899 0
M  V30 3247 N 303.011 1.40521 -0.713556 0
M  V30 3248 C 304.257 2.01221 -0.252564 0
M  V30 3249 C 304.59 1.56444 1.1506 0
M  V30 3250 O 303.865 0.783597 1.78017 0
M  V30 3251 C 304.148 3.58582 -0.330332 0
M  V30 3252 C 304.001 4.13437 -1.77173 0
M  V30 3253 C 305.32 4.39079 0.299641 0
M  V30 3254 H 302.439 0.731077 -0.0932471 0
M  V30 3255 H 305.081 1.67026 -0.905673 0
M  V30 3256 H 303.231 3.87844 0.225737 0
M  V30 3257 H 304.903 3.9498 -2.38303 0
M  V30 3258 H 303.146 3.67801 -2.3001 0
M  V30 3259 H 303.817 5.22597 -1.77755 0
M  V30 3260 H 306.293 4.15735 -0.174139 0
M  V30 3261 H 305.169 5.4848 0.214771 0
M  V30 3262 H 305.43 4.19915 1.38288 0
M  V30 3263 N 304.489 0.459591 1.5075 0
M  V30 3264 C 305.452 -0.329093 2.26825 0
M  V30 3265 C 306.452 -0.930481 1.31144 0
M  V30 3266 O 307.642 -0.801453 1.54669 0
M  V30 3267 C 304.774 -1.46768 3.07688 0
M  V30 3268 H 305.967 0.337924 2.9799 0
M  V30 3269 H 303.52 0.213336 1.54837 0
M  V30 3270 H 304.255 -2.17009 2.40993 0
M  V30 3271 H 304.04 -1.04238 3.77991 0
M  V30 3272 H 305.53 -2.02433 3.65254 0
M  V30 3273 N 305.967 -1.56429 0.191757 0
M  V30 3274 C 306.897 -2.21937 -0.725696 0
M  V30 3275 C 307.878 -1.1814 -1.2238 0
M  V30 3276 O 309.063 -1.46636 -1.27325 0
M  V30 3277 C 306.193 -2.87611 -1.94672 0
M  V30 3278 C 305.147 -3.97623 -1.58366 0
M  V30 3279 C 304.473 -4.50446 -2.88102 0
M  V30 3280 C 305.773 -5.16197 -0.796133 0
M  V30 3281 H 307.467 -2.98861 -0.179606 0
M  V30 3282 H 305.013 -1.43749 -0.0849464 0
M  V30 3283 H 306.966 -3.3212 -2.59373 0
M  V30 3284 H 305.69 -2.08087 -2.51728 0
M  V30 3285 H 304.349 -3.53801 -0.960247 0
M  V30 3286 H 303.997 -3.67688 -3.43241 0
M  V30 3287 H 303.697 -5.24675 -2.64556 0
M  V30 3288 H 305.221 -4.97654 -3.53798 0
M  V30 3289 H 306.635 -5.57271 -1.34618 0
M  V30 3290 H 305.032 -5.96471 -0.658928 0
M  V30 3291 H 306.102 -4.84473 0.203478 0
M  V30 3292 N 307.445 0.0818655 -1.57387 0
M  V30 3293 C 308.377 1.12484 -1.997 0
M  V30 3294 C 309.39 1.35564 -0.90146 0
M  V30 3295 O 310.579 1.33982 -1.17945 0
M  V30 3296 C 307.679 2.47778 -2.31213 0
M  V30 3297 C 306.852 2.44793 -3.62485 0
M  V30 3298 C 305.911 3.62117 -3.81782 0
M  V30 3299 O 304.937 3.44005 -4.53486 0
M  V30 3300 N 306.139 4.82094 -3.23367 0
M  V30 3301 H 308.904 0.764585 -2.89783 0
M  V30 3302 H 306.465 0.270664 -1.59621 0
M  V30 3303 H 308.457 3.24891 -2.41304 0
M  V30 3304 H 307.027 2.75843 -1.4707 0
M  V30 3305 H 306.247 1.53134 -3.6324 0
M  V30 3306 H 307.535 2.39889 -4.48699 0
M  V30 3307 H 306.933 4.99713 -2.65148 0
M  V30 3308 H 305.49 5.56753 -3.38923 0
M  V30 3309 N 308.923 1.53595 0.353017 0
M  V30 3310 C 310.151 1.74311 1.1146 0
M  V30 3311 C 310.566 0.477854 1.82653 0
M  V30 3312 O 309.923 -0.549977 1.74016 0
M  V30 3313 C 309.974 2.91694 2.13534 0
M  V30 3314 O 309.695 4.13325 1.45238 0
M  V30 3315 C 311.196 3.24384 3.02142 0
M  V30 3316 H 308.416 0.582669 0.332773 0
M  V30 3317 H 310.96 2.00386 0.408107 0
M  V30 3318 H 309.115 2.67977 2.79763 0
M  V30 3319 H 309.529 4.79148 2.13349 0
M  V30 3320 H 311.003 4.09893 3.69718 0
M  V30 3321 H 311.48 2.40282 3.67643 0
M  V30 3322 H 312.086 3.50073 2.41514 0
M  V30 3323 N 310.401 -0.613514 1.45168 0
M  V30 3324 C 311.348 -1.72456 1.53387 0
M  V30 3325 C 312.318 -1.6169 0.380191 0
M  V30 3326 O 313.503 -1.81356 0.592836 0
M  V30 3327 C 310.643 -3.10753 1.50088 0
M  V30 3328 C 309.756 -3.32368 2.75963 0
M  V30 3329 C 308.891 -4.60737 2.64376 0
M  V30 3330 C 307.93 -4.7559 3.85332 0
M  V30 3331 N 307.067 -5.95253 3.72315 0
M  V30 3332 H 311.907 -1.64768 2.48305 0
M  V30 3333 H 309.444 -0.803503 1.23216 0
M  V30 3334 H 311.402 -3.90758 1.46164 0
M  V30 3335 H 310.032 -3.17413 0.587243 0
M  V30 3336 H 309.084 -2.4618 2.89999 0
M  V30 3337 H 310.396 -3.39218 3.65695 0
M  V30 3338 H 309.55 -5.48928 2.58385 0
M  V30 3339 H 308.289 -4.56275 1.72233 0
M  V30 3340 H 307.294 -3.85824 3.91688 0
M  V30 3341 H 308.519 -4.81854 4.78533 0
M  V30 3342 H 306.465 -5.91847 2.82937 0
M  V30 3343 H 306.382 -6.03236 4.55677 0
M  V30 3344 H 307.65 -6.85958 3.70246 0
M  V30 3345 N 311.879 -1.3236 -0.855495 0
M  V30 3346 C 313.127 -1.22629 -1.60644 0
M  V30 3347 C 313.448 0.212136 -1.93843 0
M  V30 3348 O 312.718 1.13666 -1.59552 0
M  V30 3349 H 311.298 -0.450882 -0.595579 0
M  V30 3350 H 313.96 -1.65871 -1.02337 0
M  V30 3351 H 313.056 -1.80832 -2.54374 0
M  V30 3352 N 313.357 1.07166 -1.15556 0
M  V30 3353 C 314.32 2.12589 -0.856644 0
M  V30 3354 C 315.32 1.6015 0.14444 0
M  V30 3355 O 316.51 1.7399 -0.0854163 0
M  V30 3356 C 313.642 3.39753 -0.279405 0
M  V30 3357 H 314.835 2.40539 -1.79112 0
M  V30 3358 H 312.388 1.23086 -0.963298 0
M  V30 3359 H 313.123 3.17447 0.663174 0
M  V30 3360 H 312.908 3.79117 -1.00063 0
M  V30 3361 H 314.398 4.17507 -0.0879113 0
M  V30 3362 N 314.835 0.952656 1.25548 0
M  V30 3363 C 315.765 0.489287 2.28316 0
M  V30 3364 C 316.746 -0.463359 1.63667 0
M  V30 3365 O 317.931 -0.36274 1.90782 0
M  V30 3366 C 315.061 -0.235603 3.465 0
M  V30 3367 C 314.015 0.631593 4.23314 0
M  V30 3368 C 313.341 -0.223923 5.34231 0
M  V30 3369 C 314.641 1.90871 4.86174 0
M  V30 3370 H 316.335 1.34822 2.67326 0
M  V30 3371 H 313.881 0.649728 1.28509 0
M  V30 3372 H 315.834 -0.570882 4.17515 0
M  V30 3373 H 314.558 -1.12877 3.06474 0
M  V30 3374 H 313.217 0.949929 3.54079 0
M  V30 3375 H 312.865 -1.11678 4.90446 0
M  V30 3376 H 312.565 0.35299 5.86539 0
M  V30 3377 H 314.089 -0.554214 6.0808 0
M  V30 3378 H 315.503 1.63997 5.49343 0
M  V30 3379 H 313.9 2.43112 5.4865 0
M  V30 3380 H 314.97 2.61304 4.08471 0
M  V30 3381 N 316.313 -1.40141 0.720998 0
M  V30 3382 C 317.245 -2.29177 0.0324669 0
M  V30 3383 C 318.258 -1.46105 -0.718126 0
M  V30 3384 O 319.447 -1.69335 -0.564608 0
M  V30 3385 C 316.547 -3.24473 -0.978292 0
M  V30 3386 C 315.72 -4.36423 -0.292115 0
M  V30 3387 C 314.779 -5.12122 -1.20901 0
M  V30 3388 O 313.805 -5.64981 -0.691766 0
M  V30 3389 N 315.007 -5.21992 -2.53978 0
M  V30 3390 H 317.772 -2.88909 0.796984 0
M  V30 3391 H 315.333 -1.51569 0.569068 0
M  V30 3392 H 317.325 -3.71987 -1.59398 0
M  V30 3393 H 315.895 -2.65871 -1.64413 0
M  V30 3394 H 315.115 -3.90967 0.503847 0
M  V30 3395 H 316.403 -5.08467 0.183971 0
M  V30 3396 H 315.801 -4.8054 -2.98493 0
M  V30 3397 H 314.358 -5.72995 -3.10677 0
M  V30 3398 N 317.792 -0.46758 -1.50504 0
M  V30 3399 C 318.739 0.328413 -2.28452 0
M  V30 3400 C 319.709 0.990313 -1.33349 0
M  V30 3401 O 320.894 1.00343 -1.62284 0
M  V30 3402 C 318.034 1.40648 -3.15138 0
M  V30 3403 C 317.147 0.759709 -4.25267 0
M  V30 3404 C 316.282 1.81537 -4.99217 0
M  V30 3405 C 315.321 1.14866 -6.01226 0
M  V30 3406 N 314.458 2.14702 -6.68467 0
M  V30 3407 H 319.298 -0.342603 -2.96024 0
M  V30 3408 H 316.835 -0.180801 -1.45985 0
M  V30 3409 H 318.793 2.04315 -3.63746 0
M  V30 3410 H 317.423 2.04671 -2.49619 0
M  V30 3411 H 316.475 0.0105671 -3.80399 0
M  V30 3412 H 317.787 0.233243 -4.98254 0
M  V30 3413 H 316.941 2.52793 -5.51526 0
M  V30 3414 H 315.68 2.37564 -4.25928 0
M  V30 3415 H 314.685 0.42171 -5.4818 0
M  V30 3416 H 315.91 0.595334 -6.76485 0
M  V30 3417 H 313.856 2.69752 -5.97972 0
M  V30 3418 H 313.773 1.6703 -7.37317 0
M  V30 3419 H 315.041 2.85348 -7.25394 0
M  V30 3420 N 319.27 1.56325 -0.20005 0
M  V30 3421 C 320.217 2.1932 0.718833 0
M  V30 3422 C 321.187 1.14198 1.20615 0
M  V30 3423 O 322.372 1.42469 1.26914 0
M  V30 3424 C 319.512 2.86041 1.93066 0
M  V30 3425 C 318.625 4.05702 1.48425 0
M  V30 3426 C 317.76 4.60266 2.65196 0
M  V30 3427 C 316.799 5.72273 2.17185 0
M  V30 3428 N 315.936 6.21221 3.27152 0
M  V30 3429 H 320.776 2.97486 0.17489 0
M  V30 3430 H 318.313 1.46911 0.0745794 0
M  V30 3431 H 320.271 3.22897 2.64184 0
M  V30 3432 H 318.901 2.1043 2.44783 0
M  V30 3433 H 317.953 3.74475 0.668755 0
M  V30 3434 H 319.265 4.86699 1.09204 0
M  V30 3435 H 318.419 4.99453 3.4443 0
M  V30 3436 H 317.158 3.78386 3.07693 0
M  V30 3437 H 316.163 5.3261 1.36407 0
M  V30 3438 H 317.388 6.55974 1.75713 0
M  V30 3439 H 315.334 5.42263 3.69171 0
M  V30 3440 H 315.251 6.97284 2.92116 0
M  V30 3441 H 316.519 6.65063 4.06585 0
M  V30 3442 N 320.748 -0.0735177 1.57428 0
M  V30 3443 C 322.159 -0.625551 1.75908 0
M  V30 3444 C 322.51 -1.78 0.825261 0
M  V30 3445 O 321.635 -2.16398 0.00893964 0
M  V30 3446 C 322.23 -1.14155 3.18989 0
M  V30 3447 C 320.789 -1.63946 3.38819 0
M  V30 3448 C 319.936 -0.558151 2.71625 0
M  V30 3449 H 322.887 0.152647 1.57964 0
M  V30 3450 H 322.908 -2.0104 3.23053 0
M  V30 3451 H 322.42 -0.301116 3.8693 0
M  V30 3452 H 320.521 -2.50321 2.7599 0
M  V30 3453 H 320.634 -1.71759 4.47253 0
M  V30 3454 H 318.998 -1.00278 2.34129 0
M  V30 3455 H 319.781 0.272071 3.4222 0
M  V30 3456 N 322.226 -1.5378 -0.344866 0
M  V30 3457 C 323.156 -1.84662 -1.42906 0
M  V30 3458 C 324.137 -0.701648 -1.54955 0
M  V30 3459 O 325.322 -0.953438 -1.69184 0
M  V30 3460 C 322.452 -2.05503 -2.79974 0
M  V30 3461 C 321.406 -3.21318 -2.82734 0
M  V30 3462 C 320.732 -3.2749 -4.22675 0
M  V30 3463 C 322.032 -4.59456 -2.48389 0
M  V30 3464 H 323.726 -2.75461 -1.17311 0
M  V30 3465 H 321.272 -1.32542 -0.562896 0
M  V30 3466 H 323.225 -2.25691 -3.55867 0
M  V30 3467 H 321.949 -1.11434 -3.07002 0
M  V30 3468 H 320.608 -3.00984 -2.09294 0
M  V30 3469 H 320.256 -2.31019 -4.4681 0
M  V30 3470 H 319.956 -4.05316 -4.25433 0
M  V30 3471 H 321.48 -3.49887 -5.00412 0
M  V30 3472 H 322.894 -4.79667 -3.13995 0
M  V30 3473 H 321.291 -5.39675 -2.62432 0
M  V30 3474 H 322.361 -4.63155 -1.4358 0
M  V30 3475 N 323.704 0.605807 -1.45491 0
M  V30 3476 C 324.934 1.38934 -1.52908 0
M  V30 3477 C 325.342 1.88513 -0.161086 0
M  V30 3478 O 324.685 1.62962 0.847891 0
M  V30 3479 C 324.747 2.62737 -2.45376 0
M  V30 3480 C 324.411 2.34785 -3.92078 0
M  V30 3481 C 325.408 1.95038 -4.8193 0
M  V30 3482 C 323.093 2.47642 -4.37011 0
M  V30 3483 C 325.087 1.68511 -6.14722 0
M  V30 3484 C 322.774 2.20728 -5.69844 0
M  V30 3485 C 323.772 1.81225 -6.58519 0
M  V30 3486 O 323.46 1.54627 -7.88889 0
M  V30 3487 H 323.192 0.431629 -0.520262 0
M  V30 3488 H 325.746 0.74573 -1.91384 0
M  V30 3489 H 323.976 3.29824 -2.01874 0
M  V30 3490 H 325.665 3.24783 -2.43456 0
M  V30 3491 H 326.431 1.84639 -4.48479 0
M  V30 3492 H 322.31 2.77356 -3.68232 0
M  V30 3493 H 325.854 1.37602 -6.83894 0
M  V30 3494 H 321.751 2.30744 -6.02849 0
M  V30 3495 H 322.519 1.68665 -8.00933 0
M  V30 3496 N 325.182 1.32811 0.848464 0
M  V30 3497 C 326.428 1.23907 1.60546 0
M  V30 3498 C 326.761 -0.197161 1.93197 0
M  V30 3499 O 326.036 -1.13596 1.5788 0
M  V30 3500 C 326.319 2.10489 2.92175 0
M  V30 3501 C 326.172 3.62522 2.66266 0
M  V30 3502 C 327.491 1.97075 3.93509 0
M  V30 3503 H 324.61 0.451459 0.58254 0
M  V30 3504 H 327.252 1.62818 0.979296 0
M  V30 3505 H 325.402 1.77434 3.45614 0
M  V30 3506 H 327.074 4.05821 2.19334 0
M  V30 3507 H 325.317 3.84879 2.00126 0
M  V30 3508 H 325.988 4.18437 3.6002 0
M  V30 3509 H 328.464 2.26045 3.49346 0
M  V30 3510 H 327.34 2.59923 4.83457 0
M  V30 3511 H 327.601 0.940186 4.31987 0
M  V30 3512 N 326.66 -1.06551 1.16123 0
M  V30 3513 C 327.623 -2.12132 0.867906 0
M  V30 3514 C 328.623 -1.60224 -0.135944 0
M  V30 3515 O 329.813 -1.73943 0.0946422 0
M  V30 3516 C 326.945 -3.396 0.297419 0
M  V30 3517 H 328.138 -2.39586 1.80385 0
M  V30 3518 H 325.691 -1.22574 0.969812 0
M  V30 3519 H 326.426 -3.17794 -0.64633 0
M  V30 3520 H 326.211 -3.78581 1.02073 0
M  V30 3521 H 327.701 -4.17455 0.110052 0
M  V30 3522 N 328.138 -0.959301 -1.25041 0
M  V30 3523 C 329.385 -0.616611 -1.92884 0
M  V30 3524 C 329.713 0.847036 -1.75087 0
M  V30 3525 O 328.968 1.62374 -1.09239 0
M  V30 3526 C 329.267 -0.927136 -3.45165 0
M  V30 3527 C 328.933 -2.37757 -3.83122 0
M  V30 3528 C 327.595 -2.77402 -3.93194 0
M  V30 3529 C 329.947 -3.31929 -4.01836 0
M  V30 3530 C 327.275 -4.10277 -4.19392 0
M  V30 3531 C 329.627 -4.64423 -4.29528 0
M  V30 3532 C 328.291 -5.03857 -4.37818 0
M  V30 3533 H 327.561 -0.225634 -0.705812 0
M  V30 3534 H 330.208 -1.20921 -1.48493 0
M  V30 3535 H 328.513 -0.252195 -3.90987 0
M  V30 3536 H 330.21 -0.6405 -3.95852 0
M  V30 3537 H 326.8 -2.06013 -3.75841 0
M  V30 3538 H 330.984 -3.02488 -3.93465 0
M  V30 3539 H 326.24 -4.40467 -4.24027 0
M  V30 3540 H 330.414 -5.37369 -4.42953 0
M  V30 3541 H 328.041 -6.06843 -4.57871 0
M  V30 3542 N 329.616 1.39756 -0.72842 0
M  V30 3543 C 330.841 2.05472 -0.282159 0
M  V30 3544 C 331.266 1.54549 1.07221 0
M  V30 3545 O 330.624 0.686372 1.67805 0
M  V30 3546 C 330.672 3.59462 -0.286264 0
M  V30 3547 O 329.776 4.05918 0.728298 0
M  V30 3548 H 329.117 0.651226 -0.129618 0
M  V30 3549 H 331.647 1.78915 -0.992499 0
M  V30 3550 H 331.657 4.07798 -0.128373 0
M  V30 3551 H 330.332 3.95889 -1.27456 0
M  V30 3552 H 328.909 3.69012 0.537081 0
M  V30 3553 N 331.094 0.475555 1.50254 0
M  V30 3554 C 332.341 -0.0778919 2.0235 0
M  V30 3555 C 332.669 -1.39319 1.35722 0
M  V30 3556 O 331.924 -1.89888 0.473395 0
M  V30 3557 C 332.223 -0.305114 3.56095 0
M  V30 3558 C 331.889 0.92903 4.41225 0
M  V30 3559 C 330.551 1.26739 4.6421 0
M  V30 3560 C 332.903 1.75054 4.90923 0
M  V30 3561 C 330.231 2.42724 5.34137 0
M  V30 3562 C 332.583 2.9017 5.62125 0
M  V30 3563 C 331.247 3.24416 5.83362 0
M  V30 3564 H 330.517 -0.0285027 0.740452 0
M  V30 3565 H 333.164 0.630543 1.80821 0
M  V30 3566 H 331.469 -1.09584 3.76163 0
M  V30 3567 H 333.166 -0.747377 3.93974 0
M  V30 3568 H 329.756 0.655428 4.23559 0
M  V30 3569 H 333.94 1.50231 4.73016 0
M  V30 3570 H 329.196 2.69525 5.48786 0
M  V30 3571 H 333.37 3.54169 5.99614 0
M  V30 3572 H 330.997 4.14396 6.37323 0
M  V30 3573 N 332.573 -1.56217 0.208337 0
M  V30 3574 C 333.506 -2.15633 -0.746842 0
M  V30 3575 C 334.484 -1.09685 -1.20034 0
M  V30 3576 O 335.668 -1.3787 -1.28547 0
M  V30 3577 C 332.795 -2.72594 -2.01023 0
M  V30 3578 C 331.841 -3.91251 -1.69779 0
M  V30 3579 S 332.674 -5.28962 -0.834209 0
M  V30 3580 C 333.83 -5.89353 -2.10745 0
M  V30 3581 H 334.063 -2.96315 -0.241789 0
M  V30 3582 H 331.596 -1.54398 -0.00682183 0
M  V30 3583 H 333.554 -3.06053 -2.73572 0
M  V30 3584 H 332.215 -1.91929 -2.48641 0
M  V30 3585 H 331.408 -4.29562 -2.63614 0
M  V30 3586 H 331.01 -3.58869 -1.05303 0
M  V30 3587 H 333.302 -6.04522 -3.05875 0
M  V30 3588 H 334.245 -6.85661 -1.76845 0
M  V30 3589 H 334.653 -5.1807 -2.24196 0
M  V30 3590 N 334.051 0.0651679 -1.57465 0
M  V30 3591 C 335.281 0.774683 -1.91526 0
M  V30 3592 C 335.689 1.71305 -0.803196 0
M  V30 3593 O 335.032 1.82231 0.231881 0
M  V30 3594 C 335.094 1.61645 -3.21109 0
M  V30 3595 C 334.758 0.846753 -4.49087 0
M  V30 3596 C 335.755 0.163024 -5.19644 0
M  V30 3597 C 333.44 0.811966 -4.95694 0
M  V30 3598 C 335.434 -0.54519 -6.35064 0
M  V30 3599 C 333.121 0.0999836 -6.11018 0
M  V30 3600 C 334.119 -0.577388 -6.80555 0
M  V30 3601 O 333.807 -1.27789 -7.93678 0
M  V30 3602 H 333.539 0.225031 -0.637446 0
M  V30 3603 H 336.093 0.0377134 -2.05365 0
M  V30 3604 H 334.323 2.39638 -3.03497 0
M  V30 3605 H 336.012 2.20525 -3.40769 0
M  V30 3606 H 336.778 0.181163 -4.84662 0
M  V30 3607 H 332.657 1.32867 -4.41438 0
M  V30 3608 H 336.201 -1.07446 -6.89276 0
M  V30 3609 H 332.098 0.0797945 -6.45451 0
M  V30 3610 H 332.866 -1.18784 -8.09835 0
M  V30 3611 N 335.529 1.53961 0.336706 0
M  V30 3612 C 336.778 1.70751 1.07363 0
M  V30 3613 C 337.091 0.481061 1.89592 0
M  V30 3614 O 338.297 0.530046 2.66276 0
M  V30 3615 C 336.753 3.01965 1.95818 0
M  V30 3616 C 336.361 4.31971 1.18764 0
M  V30 3617 C 338.105 3.28121 2.69327 0
M  V30 3618 C 336.012 5.54255 2.06289 0
M  V30 3619 H 334.942 0.636292 0.404535 0
M  V30 3620 H 337.593 1.80459 0.332681 0
M  V30 3621 H 335.975 2.86132 2.7376 0
M  V30 3622 H 337.149 4.5853 0.456849 0
M  V30 3623 H 335.464 4.12481 0.569946 0
M  V30 3624 H 338.061 4.16673 3.35094 0
M  V30 3625 H 338.404 2.45426 3.36261 0
M  V30 3626 H 338.937 3.44762 1.98454 0
M  V30 3627 H 335.676 6.39513 1.43885 0
M  V30 3628 H 335.196 5.31935 2.77138 0
M  V30 3629 H 336.875 5.90159 2.65182 0
M  V30 3630 N 337.007 -0.598083 1.45811 0
M  V30 3631 C 337.937 -1.71873 1.58057 0
M  V30 3632 C 338.918 -1.64533 0.431615 0
M  V30 3633 O 340.103 -1.82787 0.65595 0
M  V30 3634 C 337.233 -3.10495 1.55597 0
M  V30 3635 C 336.187 -3.32654 2.69305 0
M  V30 3636 C 335.513 -4.71646 2.51902 0
M  V30 3637 C 336.813 -3.21981 4.11248 0
M  V30 3638 H 338.507 -1.61881 2.51863 0
M  V30 3639 H 336.053 -0.777372 1.21214 0
M  V30 3640 H 338.006 -3.88699 1.6276 0
M  V30 3641 H 336.73 -3.2135 0.583255 0
M  V30 3642 H 335.389 -2.56843 2.61586 0
M  V30 3643 H 335.037 -4.79246 1.52748 0
M  V30 3644 H 334.737 -4.87426 3.2816 0
M  V30 3645 H 336.261 -5.52038 2.60933 0
M  V30 3646 H 337.675 -3.90049 4.20161 0
M  V30 3647 H 336.072 -3.49289 4.87972 0
M  V30 3648 H 337.142 -2.1928 4.32486 0
M  V30 3649 N 338.485 -1.33259 -0.841409 0
M  V30 3650 C 339.731 -1.24757 -1.59886 0
M  V30 3651 C 340.064 0.186913 -1.93298 0
M  V30 3652 O 339.339 1.12757 -1.5848 0
M  V30 3653 C 339.622 -2.12036 -2.91055 0
M  V30 3654 C 339.475 -3.63929 -2.6434 0
M  V30 3655 C 340.794 -1.9916 -3.92458 0
M  V30 3656 H 337.913 -0.454542 -0.580138 0
M  V30 3657 H 340.555 -1.63335 -0.970647 0
M  V30 3658 H 338.705 -1.79265 -3.44669 0
M  V30 3659 H 340.377 -4.06978 -2.17178 0
M  V30 3660 H 338.62 -3.85935 -1.98082 0
M  V30 3661 H 339.291 -4.20341 -3.57796 0
M  V30 3662 H 341.767 -2.27895 -3.48143 0
M  V30 3663 H 340.643 -2.62484 -4.82072 0
M  V30 3664 H 340.904 -0.963082 -4.31482 0
M  V30 3665 N 339.963 1.05934 -1.16686 0
M  V30 3666 C 341.211 1.78447 -0.948744 0
M  V30 3667 C 341.532 1.87813 0.524523 0
M  V30 3668 O 340.802 1.38945 1.38098 0
M  V30 3669 H 339.382 0.660971 -0.348033 0
M  V30 3670 H 342.044 1.27947 -1.47022 0
M  V30 3671 H 341.14 2.80394 -1.37061 0
M  V30 3672 N 341.441 0.965919 1.2453 0
M  V30 3673 C 342.371 0.513476 2.27784 0
M  V30 3674 C 343.352 -0.445974 1.6415 0
M  V30 3675 O 344.537 -0.342485 1.91156 0
M  V30 3676 C 341.667 -0.198839 3.4673 0
M  V30 3677 C 340.621 0.676456 4.2262 0
M  V30 3678 C 339.947 -0.167248 5.34438 0
M  V30 3679 C 341.247 1.96017 4.84123 0
M  V30 3680 H 342.941 1.3765 2.65881 0
M  V30 3681 H 340.487 0.663321 1.27813 0
M  V30 3682 H 342.44 -0.526567 4.18097 0
M  V30 3683 H 341.164 -1.0962 3.07654 0
M  V30 3684 H 339.823 0.98743 3.53052 0
M  V30 3685 H 339.471 -1.0647 4.91603 0
M  V30 3686 H 339.171 0.415181 5.86131 0
M  V30 3687 H 340.695 -0.489688 6.08633 0
M  V30 3688 H 342.109 1.69814 5.47573 0
M  V30 3689 H 340.506 2.48918 5.4604 0
M  V30 3690 H 341.576 2.65622 4.05676 0
M  V30 3691 N 342.919 -1.39368 0.735821 0
M  V30 3692 C 344.147 -2.04795 0.294393 0
M  V30 3693 C 344.562 -1.55478 -1.07107 0
M  V30 3694 O 343.919 -0.720038 -1.67695 0
M  V30 3695 C 343.97 -3.6035 0.288071 0
M  V30 3696 O 343.691 -4.07852 1.59963 0
M  V30 3697 C 345.192 -4.42976 -0.169422 0
M  V30 3698 H 342.412 -0.658571 0.128551 0
M  V30 3699 H 344.956 -1.78399 0.999701 0
M  V30 3700 H 343.111 -3.85645 -0.368355 0
M  V30 3701 H 343.525 -5.02181 1.51375 0
M  V30 3702 H 344.999 -5.51864 -0.122687 0
M  V30 3703 H 345.476 -4.22068 -1.21472 0
M  V30 3704 H 346.082 -4.22832 0.457469 0
M  V30 3705 N 344.397 -0.483516 -1.5 0
M  V30 3706 C 345.643 0.0672592 -2.02688 0
M  V30 3707 C 345.976 1.38247 -1.36387 0
M  V30 3708 O 345.251 1.88131 -0.493675 0
M  V30 3709 C 345.534 0.238109 -3.59312 0
M  V30 3710 C 345.387 -1.099 -4.36168 0
M  V30 3711 C 346.706 0.986916 -4.28892 0
M  V30 3712 H 343.825 0.0229696 -0.736642 0
M  V30 3713 H 346.467 -0.631527 -1.79197 0
M  V30 3714 H 344.617 0.8333 -3.79458 0
M  V30 3715 H 346.289 -1.73172 -4.27562 0
M  V30 3716 H 344.532 -1.69261 -3.99416 0
M  V30 3717 H 345.203 -0.932954 -5.44059 0
M  V30 3718 H 347.679 0.482302 -4.13295 0
M  V30 3719 H 346.555 1.07527 -5.38265 0
M  V30 3720 H 346.816 2.0265 -3.92919 0
M  V30 3721 N 345.875 1.56104 -0.216619 0
M  V30 3722 C 347.124 1.97348 0.416744 0
M  V30 3723 C 347.437 1.10715 1.6125 0
M  V30 3724 O 348.643 1.41836 2.31506 0
M  V30 3725 C 347.099 3.51059 0.792835 0
M  V30 3726 C 346.707 4.46387 -0.379828 0
M  V30 3727 C 348.451 4.01026 1.39208 0
M  V30 3728 C 346.358 5.91397 0.0184223 0
M  V30 3729 H 345.288 0.736942 0.159475 0
M  V30 3730 H 347.939 1.80827 -0.31205 0
M  V30 3731 H 346.321 3.63162 1.57891 0
M  V30 3732 H 347.495 4.46029 -1.15737 0
M  V30 3733 H 345.81 4.06734 -0.891979 0
M  V30 3734 H 348.407 5.0686 1.70286 0
M  V30 3735 H 348.75 3.46587 2.30614 0
M  V30 3736 H 349.283 3.92125 0.669537 0
M  V30 3737 H 346.022 6.49807 -0.862002 0
M  V30 3738 H 345.542 5.94961 0.760384 0
M  V30 3739 H 347.221 6.45455 0.446818 0
M  V30 3740 N 347.353 -0.0568162 1.57498 0
M  V30 3741 C 348.601 -0.751617 1.87604 0
M  V30 3742 C 348.922 -1.77351 0.81066 0
M  V30 3743 O 348.192 -1.95254 -0.159018 0
M  V30 3744 H 346.772 -0.280583 0.692302 0
M  V30 3745 H 349.434 -0.0293483 1.94878 0
M  V30 3746 H 348.53 -1.25852 2.856 0
M  V30 3747 N 348.832 -1.54138 -0.328536 0
M  V30 3748 C 349.795 -1.82462 -1.38709 0
M  V30 3749 C 350.795 -0.696229 -1.44946 0
M  V30 3750 O 351.985 -0.964535 -1.4506 0
M  V30 3751 C 349.117 -1.98018 -2.77492 0
M  V30 3752 H 350.31 -2.77037 -1.14851 0
M  V30 3753 H 347.863 -1.45779 -0.563751 0
M  V30 3754 H 348.598 -1.05637 -3.06613 0
M  V30 3755 H 348.383 -2.80124 -2.74359 0
M  V30 3756 H 349.873 -2.21396 -3.54081 0
M  V30 3757 N 350.31 0.590341 -1.46126 0
M  V30 3758 C 351.557 1.34882 -1.5104 0
M  V30 3759 C 351.885 1.93849 -0.159021 0
M  V30 3760 O 351.14 1.76544 0.844436 0
M  V30 3761 C 351.439 2.5032 -2.55097 0
M  V30 3762 C 351.105 2.09394 -3.99331 0
M  V30 3763 C 349.767 1.97947 -4.38601 0
M  V30 3764 C 352.119 1.77712 -4.89967 0
M  V30 3765 C 349.447 1.53065 -5.66381 0
M  V30 3766 C 351.799 1.34312 -6.18177 0
M  V30 3767 C 350.463 1.21436 -6.56361 0
M  V30 3768 H 349.733 0.493568 -0.552695 0
M  V30 3769 H 352.38 0.665539 -1.79563 0
M  V30 3770 H 350.685 3.24062 -2.20207 0
M  V30 3771 H 352.382 3.08541 -2.56132 0
M  V30 3772 H 348.972 2.19235 -3.68285 0
M  V30 3773 H 353.156 1.85445 -4.60352 0
M  V30 3774 H 348.412 1.41733 -5.94745 0
M  V30 3775 H 352.586 1.08849 -6.87841 0
M  V30 3776 H 350.213 0.864345 -7.5527 0
M  V30 3777 N 351.788 1.33704 0.83433 0
M  V30 3778 C 352.718 1.26967 1.95963 0
M  V30 3779 C 353.699 0.149337 1.69443 0
M  V30 3780 O 354.884 0.339852 1.91203 0
M  V30 3781 C 352.014 1.01275 3.32206 0
M  V30 3782 C 350.968 2.09652 3.73136 0
M  V30 3783 C 350.294 1.69166 5.07235 0
M  V30 3784 C 351.594 3.51372 3.86439 0
M  V30 3785 H 353.288 2.2112 2.01857 0
M  V30 3786 H 350.834 1.06447 0.969793 0
M  V30 3787 H 352.787 0.952106 4.10503 0
M  V30 3788 H 351.511 0.0356203 3.26581 0
M  V30 3789 H 350.17 2.14766 2.97104 0
M  V30 3790 H 349.818 0.701437 4.98085 0
M  V30 3791 H 349.518 2.41694 5.35591 0
M  V30 3792 H 351.042 1.64576 5.88003 0
M  V30 3793 H 352.456 3.48734 4.55036 0
M  V30 3794 H 350.853 4.22425 4.26236 0
M  V30 3795 H 351.923 3.89546 2.88759 0
M  V30 3796 N 353.266 -1.05314 1.17247 0
M  V30 3797 C 354.214 -2.15137 0.884238 0
M  V30 3798 C 355.208 -1.68729 -0.15063 0
M  V30 3799 O 356.414 -1.8 -0.00366673 0
M  V30 3800 H 352.789 -0.702471 0.2684 0
M  V30 3801 H 354.76 -2.36652 1.81764 0
M  V30 3802 C 353.509 -3.45243 0.412659 0
M  V30 3803 H 352.832 -3.81352 1.20043 0
M  V30 3804 H 354.272 -4.23263 0.249858 0
M  V30 3805 C 352.731 -3.25487 -0.86948 0
M  V30 3806 O 353.261 -3.51938 -1.93655 0
M  V30 3807 N 351.467 -2.78875 -0.817147 0
M  V30 3808 H 351.014 -2.57549 0.0514211 0
M  V30 3809 H 350.972 -2.66036 -1.67547 0
M  V30 3810 N 354.744 -0.972509 -1.24016 0
M  V30 3811 C 355.674 -0.525548 -2.27509 0
M  V30 3812 C 356.655 0.437262 -1.64384 0
M  V30 3813 O 357.84 0.332343 -1.91335 0
M  V30 3814 C 354.97 0.180448 -3.46831 0
M  V30 3815 C 353.924 -0.698859 -4.22256 0
M  V30 3816 C 353.25 0.138903 -5.3452 0
M  V30 3817 C 354.55 -1.98582 -4.83076 0
M  V30 3818 H 356.244 -1.39058 -2.65148 0
M  V30 3819 H 353.79 -0.67009 -1.27459 0
M  V30 3820 H 355.743 0.504387 -4.18371 0
M  V30 3821 H 354.467 1.07987 -3.08231 0
M  V30 3822 H 353.126 -1.00614 -3.52523 0
M  V30 3823 H 352.774 1.03862 -4.9216 0
M  V30 3824 H 352.474 -0.446259 -5.85903 0
M  V30 3825 H 353.998 0.457404 -6.08884 0
M  V30 3826 H 355.412 -1.72715 -5.46665 0
M  V30 3827 H 353.809 -2.5181 -5.44713 0
M  V30 3828 H 354.879 -2.67769 -4.04262 0
M  V30 3829 N 356.222 1.38976 -0.743202 0
M  V30 3830 C 357.468 2.0064 -0.295189 0
M  V30 3831 C 357.801 1.5885 1.11716 0
M  V30 3832 O 357.076 0.821181 1.76315 0
M  V30 3833 C 357.359 3.578 -0.406318 0
M  V30 3834 C 357.212 4.09586 -1.85903 0
M  V30 3835 C 358.531 4.39616 0.206439 0
M  V30 3836 H 355.65 0.728935 -0.108733 0
M  V30 3837 H 358.292 1.65067 -0.940897 0
M  V30 3838 H 356.442 3.88235 0.143419 0
M  V30 3839 H 358.114 3.89837 -2.46627 0
M  V30 3840 H 356.357 3.6284 -2.3776 0
M  V30 3841 H 357.028 5.18708 -1.888 0
M  V30 3842 H 359.504 4.15273 -0.262283 0
M  V30 3843 H 358.38 5.48812 0.0983819 0
M  V30 3844 H 358.641 4.22754 1.2935 0
M  V30 3845 N 357.7 0.491464 1.49741 0
M  V30 3846 C 358.946 -0.0565092 2.02721 0
M  V30 3847 C 359.279 -1.37522 1.37118 0
M  V30 3848 O 358.554 -1.87866 0.503645 0
M  V30 3849 C 358.837 -0.219051 3.59433 0
M  V30 3850 C 358.69 1.12211 4.35579 0
M  V30 3851 C 360.009 -0.964157 4.29409 0
M  V30 3852 H 357.128 -0.0190627 0.736753 0
M  V30 3853 H 359.77 0.641021 1.7886 0
M  V30 3854 H 357.92 -0.813165 3.79895 0
M  V30 3855 H 359.592 1.75437 4.26637 0
M  V30 3856 H 357.835 1.71377 3.98513 0
M  V30 3857 H 358.506 0.961794 5.43556 0
M  V30 3858 H 360.982 -0.460378 4.13545 0
M  V30 3859 H 359.858 -1.04671 5.38828 0
M  V30 3860 H 360.119 -2.00563 3.93988 0
M  V30 3861 N 359.178 -1.55987 0.224894 0
M  V30 3862 C 360.108 -2.23426 -0.678457 0
M  V30 3863 C 361.089 -1.20709 -1.19847 0
M  V30 3864 O 362.274 -1.49304 -1.24186 0
M  V30 3865 C 359.404 -2.91676 -1.88527 0
M  V30 3866 C 358.358 -4.00893 -1.49896 0
M  V30 3867 C 357.684 -4.56455 -2.78483 0
M  V30 3868 C 358.984 -5.17769 -0.686461 0
M  V30 3869 H 360.678 -2.99175 -0.116173 0
M  V30 3870 H 358.224 -1.43897 -0.054436 0
M  V30 3871 H 360.177 -3.37547 -2.5227 0
M  V30 3872 H 358.901 -2.1338 -2.47258 0
M  V30 3873 H 357.56 -3.55758 -0.884985 0
M  V30 3874 H 357.208 -3.74886 -3.35365 0
M  V30 3875 H 356.908 -5.30169 -2.53368 0
M  V30 3876 H 358.432 -5.05047 -3.43162 0
M  V30 3877 H 359.846 -5.60001 -1.22767 0
M  V30 3878 H 358.243 -5.97735 -0.532259 0
M  V30 3879 H 359.313 -4.83932 0.306196 0
M  V30 3880 N 360.656 0.0484629 -1.57525 0
M  V30 3881 C 362.072 0.40375 -1.54409 0
M  V30 3882 C 362.272 1.77786 -0.948384 0
M  V30 3883 O 361.328 2.46189 -0.560983 0
M  V30 3884 C 362.641 0.323394 -2.98956 0
M  V30 3885 C 364.189 0.401892 -3.10409 0
M  V30 3886 C 364.664 0.351195 -4.56652 0
M  V30 3887 N 366.155 0.410576 -4.61377 0
M  V30 3888 C 366.89 0.393933 -5.72045 0
M  V30 3889 N 366.386 0.330724 -6.9201 0
M  V30 3890 N 368.179 0.442227 -5.60358 0
M  V30 3891 H 360.33 -0.851016 -1.94606 0
M  V30 3892 H 362.593 -0.321721 -0.89174 0
M  V30 3893 H 362.299 -0.62011 -3.4619 0
M  V30 3894 H 362.173 1.12463 -3.60044 0
M  V30 3895 H 364.56 1.33582 -2.63134 0
M  V30 3896 H 364.641 -0.428342 -2.52188 0
M  V30 3897 H 364.285 -0.578987 -5.04589 0
M  V30 3898 H 364.215 1.19928 -5.12762 0
M  V30 3899 H 366.706 0.462729 -3.75056 0
M  V30 3900 H 367.019 0.322592 -7.72126 0
M  V30 3901 H 365.364 0.29706 -6.94365 0
M  V30 3902 H 368.555 0.489464 -4.65534 0
M  V30 3903 H 368.728 0.425788 -6.466 0
M  V30 3904 N 362.134 1.5431 0.320358 0
M  V30 3905 C 363.381 1.72668 1.05792 0
M  V30 3906 C 363.709 0.502084 1.87908 0
M  V30 3907 O 362.964 -0.516149 1.88771 0
M  V30 3908 C 363.263 2.95639 2.00828 0
M  V30 3909 C 362.929 4.30265 1.34843 0
M  V30 3910 C 361.591 4.66865 1.16578 0
M  V30 3911 C 363.943 5.13801 0.875095 0
M  V30 3912 C 361.271 5.84597 0.496336 0
M  V30 3913 C 363.623 6.32219 0.219463 0
M  V30 3914 C 362.287 6.67495 0.0246915 0
M  V30 3915 H 361.557 0.631837 0.387121 0
M  V30 3916 H 364.204 1.88552 0.334735 0
M  V30 3917 H 362.509 2.74456 2.79609 0
M  V30 3918 H 364.206 3.07038 2.57932 0
M  V30 3919 H 360.796 4.01472 1.50061 0
M  V30 3920 H 364.98 4.86039 1.00398 0
M  V30 3921 H 360.236 6.10486 0.334264 0
M  V30 3922 H 364.41 6.96227 -0.155291 0
M  V30 3923 H 362.037 7.5858 -0.496065 0
M  V30 3924 N 363.613 -0.582584 1.46437 0
M  V30 3925 C 364.543 -1.70187 1.59871 0
M  V30 3926 C 365.524 -1.64066 0.449042 0
M  V30 3927 O 366.709 -1.82081 0.6753 0
M  V30 3928 C 363.839 -3.08827 1.58881 0
M  V30 3929 C 362.793 -3.29779 2.72819 0
M  V30 3930 C 362.119 -4.68947 2.5689 0
M  V30 3931 C 363.419 -3.17601 4.1464 0
M  V30 3932 H 365.113 -1.592 2.53566 0
M  V30 3933 H 362.659 -0.764472 1.22032 0
M  V30 3934 H 364.612 -3.86951 1.66873 0
M  V30 3935 H 363.336 -3.20713 0.617306 0
M  V30 3936 H 361.995 -2.54054 2.64296 0
M  V30 3937 H 361.643 -4.77599 1.57823 0
M  V30 3938 H 361.343 -4.83919 3.33312 0
M  V30 3939 H 362.867 -5.4924 2.66773 0
M  V30 3940 H 364.281 -3.8557 4.24274 0
M  V30 3941 H 362.678 -3.44094 4.9165 0
M  V30 3942 H 363.748 -2.14681 4.34788 0
M  V30 3943 N 365.091 -1.34144 -0.827227 0
M  V30 3944 C 366.319 -1.29325 -1.61501 0
M  V30 3945 C 366.734 0.13354 -1.88327 0
M  V30 3946 O 366.091 1.0793 -1.47164 0
M  V30 3947 C 366.142 -2.07746 -2.95844 0
M  V30 3948 O 365.863 -3.4486 -2.70191 0
M  V30 3949 C 367.364 -2.10273 -3.90256 0
M  V30 3950 H 364.584 -0.445069 -0.50215 0
M  V30 3951 H 367.128 -1.76693 -1.02955 0
M  V30 3952 H 365.283 -1.6403 -3.5096 0
M  V30 3953 H 365.697 -3.85345 -3.55822 0
M  V30 3954 H 367.171 -2.69575 -4.81698 0
M  V30 3955 H 367.648 -1.096 -4.25305 0
M  V30 3956 H 368.254 -2.54059 -3.41078 0
M  V30 3957 N 366.569 1.04691 -1.17803 0
M  V30 3958 C 367.502 2.12068 -0.842765 0
M  V30 3959 C 368.48 1.61455 0.192608 0
M  V30 3960 O 369.664 1.88359 0.072995 0
M  V30 3961 C 366.791 3.37715 -0.258063 0
M  V30 3962 C 365.837 4.07164 -1.26962 0
M  V30 3963 S 366.67 4.55047 -2.82299 0
M  V30 3964 C 367.826 5.83935 -2.25323 0
M  V30 3965 H 368.059 2.4018 -1.75217 0
M  V30 3966 H 365.592 1.17366 -1.00323 0
M  V30 3967 H 367.55 4.10435 0.0727935 0
M  V30 3968 H 366.211 3.0773 0.629357 0
M  V30 3969 H 365.404 4.9746 -0.809263 0
M  V30 3970 H 365.006 3.40533 -1.54639 0
M  V30 3971 H 367.298 6.57552 -1.63192 0
M  V30 3972 H 368.241 6.34725 -3.13894 0
M  V30 3973 H 368.649 5.3874 -1.68582 0
M  V30 3974 N 368.047 0.979072 1.23499 0
M  V30 3975 C 368.995 0.510604 2.26926 0
M  V30 3976 C 369.989 -0.431691 1.63807 0
M  V30 3977 O 371.195 -0.30573 1.77385 0
M  V30 3978 H 367.57 0.146688 0.737554 0
M  V30 3979 H 369.541 1.39466 2.63803 0
M  V30 3980 C 368.29 -0.172658 3.47271 0
M  V30 3981 H 367.613 0.543331 3.96091 0
M  V30 3982 H 369.053 -0.464101 4.21452 0
M  V30 3983 C 367.512 -1.40345 3.06276 0
M  V30 3984 O 368.042 -2.49978 3.14442 0
M  V30 3985 N 366.248 -1.27362 2.61203 0
M  V30 3986 H 365.795 -0.381584 2.54758 0
M  V30 3987 H 365.753 -2.09822 2.34141 0
M  V30 3988 N 369.525 -1.3858 0.750561 0
M  V30 3989 C 370.75 -2.04997 0.314812 0
M  V30 3990 C 371.175 -1.56235 -1.04749 0
M  V30 3991 O 370.533 -0.712981 -1.66692 0
M  V30 3992 C 370.581 -3.58961 0.343415 0
M  V30 3993 O 369.685 -4.07025 -0.663628 0
M  V30 3994 H 369.026 -0.649081 0.139962 0
M  V30 3995 H 371.556 -1.77313 1.02084 0
M  V30 3996 H 371.566 -4.07542 0.193233 0
M  V30 3997 H 370.241 -3.93811 1.33738 0
M  V30 3998 H 368.818 -3.6982 -0.478307 0
M  V30 3999 N 371.003 -0.499398 -1.49478 0
M  V30 4000 C 371.913 0.284489 -2.32869 0
M  V30 4001 C 372.929 0.968885 -1.44529 0
M  V30 4002 O 374.105 0.95062 -1.77553 0
M  V30 4003 C 371.17 1.33594 -3.19928 0
M  V30 4004 C 370.231 0.665149 -4.24116 0
M  V30 4005 C 369.464 1.6665 -5.07014 0
M  V30 4006 O 369.687 2.89618 -4.91404 0
M  V30 4007 O 368.621 1.22271 -5.8935 0
M  V30 4008 H 372.447 -0.39802 -3.01081 0
M  V30 4009 H 370.032 -0.260758 -1.47107 0
M  V30 4010 H 371.914 1.94431 -3.73864 0
M  V30 4011 H 370.589 2.0014 -2.54412 0
M  V30 4012 H 369.496 0.0170769 -3.74096 0
M  V30 4013 H 370.829 0.0421555 -4.92182 0
M  V30 4014 N 372.481 1.55866 -0.233164 0
M  V30 4015 C 373.758 1.90471 0.444988 0
M  V30 4016 C 374.138 1.15209 1.7689 0
M  V30 4017 O 373.486 0.265119 2.26957 0
M  V30 4018 C 373.696 3.4333 0.626559 0
M  V30 4019 C 375.044 4.14319 0.92871 0
M  V30 4020 O 376.068 3.48993 0.712926 0
M  V30 4021 O 374.927 5.29846 1.33887 0
M  V30 4022 H 372.021 0.792347 0.236885 0
M  V30 4023 H 374.567 1.67437 -0.276211 0
M  V30 4024 H 373.339 3.90095 -0.306822 0
M  V30 4025 H 372.962 3.72181 1.39881 0
M  V30 4026 N 373.959 -0.0401083 1.57549 0
M  V30 4027 C 374.869 -1.06133 2.0922 0
M  V30 4028 C 375.885 -1.40356 1.0284 0
M  V30 4029 O 377.061 -1.49897 1.34509 0
M  V30 4030 C 374.126 -2.34658 2.55218 0
M  V30 4031 C 373.187 -2.07117 3.76033 0
M  V30 4032 C 372.42 -3.29514 4.19829 0
M  V30 4033 O 372.643 -4.39794 3.63232 0
M  V30 4034 O 371.577 -3.15863 5.12362 0
M  V30 4035 H 375.403 -0.652244 2.96613 0
M  V30 4036 H 372.988 -0.256368 1.47184 0
M  V30 4037 H 374.87 -3.10239 2.85184 0
M  V30 4038 H 373.545 -2.74883 1.70941 0
M  V30 4039 H 372.452 -1.29139 3.51104 0
M  V30 4040 H 373.785 -1.71754 4.61261 0
M  V30 4041 N 375.437 -1.54477 -0.31217 0
M  V30 4042 C 376.853 -1.45442 -0.657185 0
M  V30 4043 C 377.053 -0.63653 -1.91182 0
M  V30 4044 O 376.109 -0.139815 -2.52113 0
M  V30 4045 C 377.422 -2.89287 -0.82058 0
M  V30 4046 C 378.97 -2.9926 -0.917188 0
M  V30 4047 C 379.445 -4.44279 -1.11267 0
M  V30 4048 N 380.936 -4.4794 -1.17914 0
M  V30 4049 C 381.671 -5.57318 -1.34848 0
M  V30 4050 N 381.167 -6.76642 -1.48752 0
M  V30 4051 N 382.96 -5.44986 -1.37647 0
M  V30 4052 H 375.111 -2.06129 0.512313 0
M  V30 4053 H 377.374 -0.933088 0.167485 0
M  V30 4054 H 377.08 -3.51687 0.0302604 0
M  V30 4055 H 376.954 -3.36061 -1.71298 0
M  V30 4056 H 379.341 -2.36981 -1.75852 0
M  V30 4057 H 379.422 -2.558 -0.00101257 0
M  V30 4058 H 379.066 -5.07149 -0.27614 0
M  V30 4059 H 378.996 -4.85359 -2.04289 0
M  V30 4060 H 381.487 -3.61969 -1.08567 0
M  V30 4061 H 381.8 -7.55758 -1.61397 0
M  V30 4062 H 380.145 -6.79529 -1.45828 0
M  V30 4063 H 383.336 -4.50715 -1.26388 0
M  V30 4064 H 383.509 -6.3028 -1.50501 0
M  V30 4065 N 376.915 0.57481 -1.46744 0
M  V30 4066 C 378.331 0.898981 -1.31873 0
M  V30 4067 C 378.531 1.99313 -0.29605 0
M  V30 4068 O 377.587 2.50728 0.298621 0
M  V30 4069 C 378.9 1.30886 -2.7072 0
M  V30 4070 C 380.448 1.42127 -2.78871 0
M  V30 4071 C 380.923 1.86478 -4.18318 0
M  V30 4072 N 382.414 1.93658 -4.20774 0
M  V30 4073 C 383.149 2.29267 -5.2557 0
M  V30 4074 N 382.645 2.63612 -6.40688 0
M  V30 4075 N 384.438 2.29889 -5.1294 0
M  V30 4076 H 376.589 -0.147839 -2.11885 0
M  V30 4077 H 378.852 -0.00347013 -0.947994 0
M  V30 4078 H 378.558 0.578853 -3.46904 0
M  V30 4079 H 378.432 2.26874 -3.01343 0
M  V30 4080 H 380.819 2.14213 -2.0297 0
M  V30 4081 H 380.9 0.443705 -2.51922 0
M  V30 4082 H 380.544 1.14968 -4.94717 0
M  V30 4083 H 380.474 2.85207 -4.42679 0
M  V30 4084 H 382.965 1.69574 -3.37718 0
M  V30 4085 H 383.278 2.89759 -7.16421 0
M  V30 4086 H 381.623 2.61232 -6.44036 0
M  V30 4087 H 384.814 2.02485 -4.22039 0
M  V30 4088 H 384.987 2.57312 -5.94722 0
M  V30 4089 N 378.394 1.34581 0.820102 0
M  V30 4090 C 379.671 1.17675 1.56244 0
M  V30 4091 C 380.051 -0.249541 2.0962 0
M  V30 4092 O 379.399 -1.25125 1.91196 0
M  V30 4093 C 379.609 2.23364 2.6816 0
M  V30 4094 C 380.957 2.58485 3.36854 0
M  V30 4095 O 381.981 2.22175 2.78418 0
M  V30 4096 O 380.84 3.20868 4.42386 0
M  V30 4097 H 377.934 0.456333 0.689702 0
M  V30 4098 H 380.48 1.46222 0.861231 0
M  V30 4099 H 379.252 3.19087 2.26493 0
M  V30 4100 H 378.875 1.96009 3.45928 0
M  V30 4101 N 379.872 -1.04064 1.18357 0
M  V30 4102 C 380.835 -2.10243 0.912707 0
M  V30 4103 C 381.835 -1.60477 -0.101928 0
M  V30 4104 O 383.025 -1.73703 0.131517 0
M  V30 4105 C 380.157 -3.38893 0.369387 0
M  V30 4106 H 381.35 -2.35706 1.85426 0
M  V30 4107 H 378.903 -1.20489 0.995594 0
M  V30 4108 H 379.638 -3.19094 -0.578776 0
M  V30 4109 H 379.423 -3.76331 1.1008 0
M  V30 4110 H 380.913 -4.17128 0.198575 0
M  V30 4111 N 381.35 -0.985608 -1.22978 0
M  V30 4112 C 382.26 -0.538548 -2.28335 0
M  V30 4113 C 383.276 0.409163 -1.69121 0
M  V30 4114 O 384.452 0.277797 -1.99475 0
M  V30 4115 C 381.517 0.146867 -3.46389 0
M  V30 4116 C 380.578 -0.842896 -4.20944 0
M  V30 4117 C 379.811 -0.190095 -5.33361 0
M  V30 4118 O 380.034 1.01767 -5.61248 0
M  V30 4119 O 378.968 -0.891289 -5.95264 0
M  V30 4120 H 382.794 -1.41487 -2.68729 0
M  V30 4121 H 380.379 -0.753495 -1.29007 0
M  V30 4122 H 382.261 0.531125 -4.1804 0
M  V30 4123 H 380.936 0.997871 -3.07935 0
M  V30 4124 H 379.843 -1.27795 -3.51595 0
M  V30 4125 H 381.176 -1.66287 -4.6326 0
M  V30 4126 N 382.828 1.3818 -0.7579 0
M  V30 4127 C 383.738 2.3421 -0.135247 0
M  V30 4128 C 384.754 1.59487 0.695683 0
M  V30 4129 O 385.93 1.91657 0.618832 0
M  V30 4130 C 382.995 3.3862 0.744139 0
M  V30 4131 C 382.056 4.2918 -0.101658 0
M  V30 4132 C 381.289 5.28603 0.735851 0
M  V30 4133 O 381.512 5.35166 1.97366 0
M  V30 4134 O 380.446 6.01707 0.152372 0
M  V30 4135 H 384.272 2.8916 -0.928436 0
M  V30 4136 H 381.857 1.40101 -0.518855 0
M  V30 4137 H 383.739 4.02539 1.2466 0
M  V30 4138 H 382.414 2.86019 1.51575 0
M  V30 4139 H 381.321 3.68407 -0.650167 0
M  V30 4140 H 382.654 4.85048 -0.836024 0
M  V30 4141 N 384.306 0.507319 1.49211 0
M  V30 4142 C 385.722 0.163682 1.58758 0
M  V30 4143 C 385.922 -1.33208 1.51188 0
M  V30 4144 O 384.978 -2.10855 1.38911 0
M  V30 4145 C 386.291 0.746095 2.91297 0
M  V30 4146 C 387.839 0.712773 3.04776 0
M  V30 4147 C 388.314 1.27336 4.39943 0
M  V30 4148 N 389.805 1.23433 4.46451 0
M  V30 4149 C 390.54 1.63821 5.495 0
M  V30 4150 N 390.036 2.11832 6.5962 0
M  V30 4151 N 391.829 1.55198 5.4025 0
M  V30 4152 H 383.98 1.47972 1.52375 0
M  V30 4153 H 386.243 0.614147 0.722168 0
M  V30 4154 H 385.949 1.79534 3.02424 0
M  V30 4155 H 385.823 0.210137 3.76614 0
M  V30 4156 H 388.21 -0.327656 2.93275 0
M  V30 4157 H 388.291 1.28595 2.21127 0
M  V30 4158 H 387.935 2.3126 4.52196 0
M  V30 4159 H 387.865 0.676066 5.22242 0
M  V30 4160 H 390.356 0.882627 3.67448 0
M  V30 4161 H 390.669 2.40703 7.34358 0
M  V30 4162 H 389.014 2.1581 6.60644 0
M  V30 4163 H 392.205 1.17505 4.53112 0
M  V30 4164 H 392.378 1.86997 6.20432 0
M  V30 4165 N 385.784 -1.5574 0.241426 0
M  V30 4166 C 386.747 -2.19877 -0.647063 0
M  V30 4167 C 387.747 -1.16642 -1.10686 0
M  V30 4168 O 388.937 -1.41757 -1.01245 0
M  V30 4169 C 386.069 -2.83797 -1.88871 0
M  V30 4170 H 387.262 -2.99772 -0.087574 0
M  V30 4171 H 384.815 -1.56298 -0.00813574 0
M  V30 4172 H 385.55 -2.07824 -2.48957 0
M  V30 4173 H 385.335 -3.59414 -1.56728 0
M  V30 4174 H 386.825 -3.32898 -2.52129 0
M  V30 4175 N 387.262 0.0317525 -1.57568 0
M  V30 4176 C 388.487 0.738664 -1.938 0
M  V30 4177 C 388.912 1.68242 -0.841208 0
M  V30 4178 O 388.27 1.80157 0.203267 0
M  V30 4179 C 388.318 1.47417 -3.29091 0
M  V30 4180 O 387.422 2.5872 -3.2115 0
M  V30 4181 H 386.763 0.198856 -0.633524 0
M  V30 4182 H 389.293 -0.0119713 -2.04596 0
M  V30 4183 H 389.303 1.84468 -3.63917 0
M  V30 4184 H 387.978 0.781988 -4.08482 0
M  V30 4185 H 386.555 2.24231 -2.97951 0
M  V30 4186 N 388.74 1.54641 0.303973 0
M  V30 4187 C 389.67 1.88386 1.3796 0
M  V30 4188 C 390.651 0.742485 1.5304 0
M  V30 4189 O 391.836 0.997959 1.66597 0
M  V30 4190 C 388.966 2.12854 2.74427 0
M  V30 4191 C 387.92 3.28702 2.74115 0
M  V30 4192 C 387.246 3.38582 4.13844 0
M  V30 4193 C 388.546 4.65881 2.3612 0
M  V30 4194 H 390.24 2.78474 1.09966 0
M  V30 4195 H 387.786 1.33988 0.527556 0
M  V30 4196 H 389.739 2.35047 3.49758 0
M  V30 4197 H 388.463 1.19535 3.03939 0
M  V30 4198 H 387.122 3.06428 2.0124 0
M  V30 4199 H 386.77 2.42784 4.40528 0
M  V30 4200 H 386.47 4.16453 4.14537 0
M  V30 4201 H 387.994 3.63031 4.90959 0
M  V30 4202 H 389.408 4.87823 3.01167 0
M  V30 4203 H 387.805 5.46444 2.48031 0
M  V30 4204 H 388.875 4.66799 1.3125 0
M  V30 4205 N 390.218 -0.567019 1.47046 0
M  V30 4206 C 391.181 -1.65696 1.58359 0
M  V30 4207 C 392.181 -1.54097 0.459441 0
M  V30 4208 O 393.371 -1.58432 0.724225 0
M  V30 4209 C 390.503 -3.05197 1.51879 0
M  V30 4210 H 391.696 -1.57019 2.5551 0
M  V30 4211 H 389.249 -0.786148 1.3509 0
M  V30 4212 H 389.984 -3.19417 0.560673 0
M  V30 4213 H 389.769 -3.15025 2.33455 0
M  V30 4214 H 391.259 -3.84511 1.62913 0
M  V30 4215 N 391.696 -1.35014 -0.812953 0
M  V30 4216 C 392.944 -1.27678 -1.56661 0
M  V30 4217 C 393.265 0.150359 -1.94419 0
M  V30 4218 O 392.535 1.08532 -1.63088 0
M  V30 4219 H 391.115 -0.469602 -0.580933 0
M  V30 4220 H 393.777 -1.69043 -0.970076 0
M  V30 4221 H 392.873 -1.88833 -2.48492 0
M  V30 4222 N 393.175 1.03435 -1.18907 0
M  V30 4223 C 394.123 2.13703 -0.918353 0
M  V30 4224 C 395.117 1.68947 0.123767 0
M  V30 4225 O 396.323 1.79983 -0.0249701 0
M  V30 4226 H 392.698 0.698112 -0.279542 0
M  V30 4227 H 394.669 2.33731 -1.85506 0
M  V30 4228 C 393.418 3.44542 -0.467532 0
M  V30 4229 H 392.741 3.79394 -1.26095 0
M  V30 4230 H 394.181 4.22812 -0.317164 0
M  V30 4231 C 392.64 3.26829 0.817588 0
M  V30 4232 O 393.17 3.54975 1.88031 0
M  V30 4233 N 391.376 2.80139 0.772677 0
M  V30 4234 H 390.923 2.57434 -0.0923883 0
M  V30 4235 H 390.881 2.68668 1.63294 0
M  V30 4236 N 394.653 0.992116 1.22453 0
M  V30 4237 C 396.069 0.702713 1.43297 0
M  V30 4238 C 396.269 -0.726909 1.87932 0
M  V30 4239 O 395.325 -1.49792 2.0327 0
M  V30 4240 C 396.638 1.70762 2.47509 0
M  V30 4241 C 398.186 1.72298 2.61309 0
M  V30 4242 C 398.661 2.71649 3.68742 0
M  V30 4243 N 400.152 2.70239 3.76199 0
M  V30 4244 C 400.887 3.43778 4.58917 0
M  V30 4245 N 400.383 4.26914 5.45633 0
M  V30 4246 N 402.176 3.32487 4.5322 0
M  V30 4247 H 394.327 1.91543 0.917871 0
M  V30 4248 H 396.59 0.826031 0.465162 0
M  V30 4249 H 396.296 2.73059 2.21657 0
M  V30 4250 H 396.17 1.49985 3.46099 0
M  V30 4251 H 398.557 0.706989 2.86506 0
M  V30 4252 H 398.638 1.97143 1.62997 0
M  V30 4253 H 398.282 3.73397 3.44292 0
M  V30 4254 H 398.212 2.44074 4.66622 0
M  V30 4255 H 400.703 2.09912 3.14237 0
M  V30 4256 H 401.016 4.79855 6.05771 0
M  V30 4257 H 399.361 4.31002 5.45218 0
M  V30 4258 H 402.552 2.6698 3.84499 0
M  V30 4259 H 402.725 3.90058 5.17454 0
M  V30 4260 N 396.131 -1.37776 0.765217 0
M  V30 4261 C 397.079 -2.32209 0.134798 0
M  V30 4262 C 398.073 -1.54607 -0.692315 0
M  V30 4263 O 399.279 -1.70052 -0.590109 0
M  V30 4264 H 395.654 -0.751591 0.0248005 0
M  V30 4265 H 397.625 -2.8297 0.947119 0
M  V30 4266 C 396.374 -3.39841 -0.735063 0
M  V30 4267 H 395.697 -3.99654 -0.107991 0
M  V30 4268 H 397.137 -4.08296 -1.14326 0
M  V30 4269 C 395.596 -2.79378 -1.88281 0
M  V30 4270 O 396.126 -2.69608 -2.97783 0
M  V30 4271 N 394.332 -2.37016 -1.68142 0
M  V30 4272 H 393.879 -2.45162 -0.790772 0
M  V30 4273 H 393.837 -1.96905 -2.45104 0
M  V30 4274 N 397.609 -0.515225 -1.4894 0
M  V30 4275 C 398.834 0.022727 -2.07388 0
M  V30 4276 C 399.259 1.2876 -1.37122 0
M  V30 4277 O 398.617 1.76067 -0.432431 0
M  V30 4278 C 398.665 0.244869 -3.59768 0
M  V30 4279 O 397.769 1.31667 -3.90817 0
M  V30 4280 H 397.11 -0.0325506 -0.663202 0
M  V30 4281 H 399.64 -0.718918 -1.91553 0
M  V30 4282 H 399.65 0.47205 -4.0526 0
M  V30 4283 H 398.325 -0.679194 -4.10317 0
M  V30 4284 H 396.902 1.07331 -3.5712 0
M  V30 4285 N 399.087 1.5561 -0.249682 0
M  V30 4286 C 400.02 2.17537 0.689408 0
M  V30 4287 C 400.998 1.12829 1.17083 0
M  V30 4288 O 402.182 1.41229 1.24846 0
M  V30 4289 C 399.309 2.77828 1.93725 0
M  V30 4290 C 398.355 3.95615 1.59346 0
M  V30 4291 S 399.188 5.30988 0.69367 0
M  V30 4292 C 400.344 5.94734 1.95046 0
M  V30 4293 H 400.577 2.96852 0.163142 0
M  V30 4294 H 398.11 1.54362 -0.0341166 0
M  V30 4295 H 400.068 3.13199 2.65361 0
M  V30 4296 H 398.729 1.98454 2.43465 0
M  V30 4297 H 397.922 4.364 2.52132 0
M  V30 4298 H 397.524 3.61535 0.957512 0
M  V30 4299 H 399.816 6.12419 2.89739 0
M  V30 4300 H 400.759 6.90109 1.58604 0
M  V30 4301 H 401.167 5.23832 2.10381 0
M  V30 4302 N 400.565 -0.0233959 1.57583 0
M  V30 4303 C 401.811 -0.714119 1.89811 0
M  V30 4304 C 402.144 -1.74702 0.848113 0
M  V30 4305 O 401.419 -1.94023 -0.136135 0
M  V30 4306 C 401.702 -1.37853 3.32669 0
M  V30 4307 C 401.555 -0.358764 4.48367 0
M  V30 4308 C 402.874 -2.31101 3.7454 0
M  V30 4309 H 399.993 -0.25814 0.690314 0
M  V30 4310 H 402.635 0.0230927 1.89986 0
M  V30 4311 H 400.785 -2.00689 3.3265 0
M  V30 4312 H 402.457 0.268115 4.6052 0
M  V30 4313 H 400.7 0.321387 4.32608 0
M  V30 4314 H 401.371 -0.862242 5.45224 0
M  V30 4315 H 403.847 -1.78304 3.75961 0
M  V30 4316 H 402.723 -2.74567 4.75294 0
M  V30 4317 H 402.984 -3.18018 3.0711 0
M  V30 4318 N 402.043 -1.548 -0.295768 0
M  V30 4319 C 403.292 -1.73538 -1.02798 0
M  V30 4320 C 403.605 -0.531159 -1.8825 0
M  V30 4321 O 404.811 -0.600458 -2.64777 0
M  V30 4322 C 403.267 -3.07051 -1.87744 0
M  V30 4323 C 402.875 -4.34968 -1.07269 0
M  V30 4324 C 404.619 -3.35146 -2.60533 0
M  V30 4325 C 402.526 -5.5953 -1.91521 0
M  V30 4326 H 401.456 -0.646794 -0.387522 0
M  V30 4327 H 404.107 -1.81278 -0.284718 0
M  V30 4328 H 402.489 -2.93289 -2.66078 0
M  V30 4329 H 403.663 -4.5958 -0.335117 0
M  V30 4330 H 401.978 -4.13847 -0.460384 0
M  V30 4331 H 404.575 -4.2541 -3.23929 0
M  V30 4332 H 404.918 -2.54255 -3.29636 0
M  V30 4333 H 405.451 -3.49902 -1.89244 0
M  V30 4334 H 402.19 -6.43103 -1.26878 0
M  V30 4335 H 401.71 -5.39096 -2.62937 0
M  V30 4336 H 403.389 -5.96982 -2.49442 0
M  V30 4337 N 403.521 0.559213 -1.47345 0
M  V30 4338 C 404.471 1.66192 -1.5609 0
M  V30 4339 C 405.455 1.55323 -0.419957 0
M  V30 4340 O 406.647 1.63839 -0.669762 0
M  V30 4341 C 403.776 3.0497 -1.57634 0
M  V30 4342 C 402.862 3.2105 -2.77106 0
M  V30 4343 N 403.253 3.07203 -4.01821 0
M  V30 4344 C 401.551 3.52046 -2.73825 0
M  V30 4345 C 402.252 3.25919 -4.81821 0
M  V30 4346 N 401.228 3.52161 -4.14106 0
M  V30 4347 H 405.03 1.54052 -2.5029 0
M  V30 4348 H 402.544 0.763914 -1.43311 0
M  V30 4349 H 404.541 3.84142 -1.61989 0
M  V30 4350 H 403.201 3.18224 -0.645281 0
M  V30 4351 H 404.212 2.84572 -4.32711 0
M  V30 4352 H 400.889 3.71839 -1.89848 0
M  V30 4353 H 402.279 3.20198 -5.90697 0
M  V30 4354 N 404.999 1.35443 0.805782 0
M  V30 4355 C 406.248 1.28097 1.55801 0
M  V30 4356 C 406.561 -0.142428 1.95081 0
M  V30 4357 O 407.767 -0.33817 2.69386 0
M  V30 4358 C 406.223 2.24653 2.81174 0
M  V30 4359 C 405.831 3.72342 2.49129 0
M  V30 4360 C 407.575 2.2625 3.59181 0
M  V30 4361 C 405.482 4.60719 3.70799 0
M  V30 4362 H 404.412 0.475937 0.584808 0
M  V30 4363 H 407.063 1.60712 0.885661 0
M  V30 4364 H 405.445 1.85011 3.50124 0
M  V30 4365 H 406.619 4.20624 1.88181 0
M  V30 4366 H 404.934 3.73361 1.84366 0
M  V30 4367 H 407.531 2.89495 4.49552 0
M  V30 4368 H 407.874 1.26647 3.96568 0
M  V30 4369 H 408.407 2.64426 2.97193 0
M  V30 4370 H 405.146 5.61324 3.3852 0
M  V30 4371 H 404.666 4.17163 4.3097 0
M  V30 4372 H 406.345 4.76182 4.38018 0
M  V30 4373 N 406.477 -1.02803 1.19454 0
M  V30 4374 C 407.888 -1.57667 0.999899 0
M  V30 4375 C 408.239 -1.91041 -0.446956 0
M  V30 4376 O 407.364 -1.70978 -1.32648 0
M  V30 4377 C 407.959 -2.86477 1.80877 0
M  V30 4378 C 406.518 -3.37911 1.65811 0
M  V30 4379 C 405.665 -2.11343 1.79526 0
M  V30 4380 H 408.616 -0.853214 1.33813 0
M  V30 4381 H 408.637 -3.57408 1.30536 0
M  V30 4382 H 408.149 -2.62155 2.86175 0
M  V30 4383 H 406.25 -3.67218 0.63102 0
M  V30 4384 H 406.363 -4.10885 2.46395 0
M  V30 4385 H 404.727 -2.23254 1.22596 0
M  V30 4386 H 405.51 -1.89461 2.86285 0
M  V30 4387 N 407.956 -0.998596 -1.21925 0
M  V30 4388 C 408.866 -0.562736 -2.27751 0
M  V30 4389 C 409.882 0.391203 -1.69545 0
M  V30 4390 O 411.058 0.256625 -1.99758 0
M  V30 4391 C 408.123 0.11012 -3.46525 0
M  V30 4392 C 407.184 -0.887495 -4.20026 0
M  V30 4393 C 406.417 -0.246654 -5.3313 0
M  V30 4394 O 406.64 0.958088 -5.62296 0
M  V30 4395 O 405.574 -0.954374 -5.94286 0
M  V30 4396 H 409.4 -1.44329 -2.67213 0
M  V30 4397 H 406.985 -0.767135 -1.28201 0
M  V30 4398 H 408.867 0.486756 -4.18579 0
M  V30 4399 H 407.542 0.965154 -3.08976 0
M  V30 4400 H 406.449 -1.31517 -3.5022 0
M  V30 4401 H 407.782 -1.71191 -4.6147 0
M  V30 4402 N 409.434 1.37368 -0.772513 0
M  V30 4403 C 410.344 2.34053 -0.160081 0
M  V30 4404 C 411.36 1.60216 0.678728 0
M  V30 4405 O 412.536 1.92303 0.59847 0
M  V30 4406 C 409.601 3.3939 0.708182 0
M  V30 4407 C 408.662 4.29048 -0.147172 0
M  V30 4408 C 407.895 5.29354 0.679744 0
M  V30 4409 O 408.118 5.3723 1.91678 0
M  V30 4410 O 407.052 6.01835 0.0885444 0
M  V30 4411 H 410.878 2.88159 -0.959053 0
M  V30 4412 H 408.463 1.39543 -0.533685 0
M  V30 4413 H 410.345 4.03839 1.20384 0
M  V30 4414 H 409.02 2.8761 1.48533 0
M  V30 4415 H 407.927 3.67697 -0.689205 0
M  V30 4416 H 409.26 4.84134 -0.887423 0
M  V30 4417 N 410.912 0.523116 1.48665 0
M  V30 4418 C 412.323 0.0808997 1.86525 0
M  V30 4419 C 412.674 -1.33975 1.43336 0
M  V30 4420 O 411.799 -2.00221 0.821009 0
M  V30 4421 C 412.394 0.140037 3.3851 0
M  V30 4422 C 410.953 -0.246948 3.75589 0
M  V30 4423 C 410.1 0.502845 2.72703 0
M  V30 4424 H 413.051 0.734736 1.40667 0
M  V30 4425 H 413.072 -0.649945 3.74908 0
M  V30 4426 H 412.584 1.17412 3.69914 0
M  V30 4427 H 410.685 -1.28343 3.49798 0
M  V30 4428 H 410.798 0.0878859 4.79019 0
M  V30 4429 H 409.162 -0.0500581 2.54651 0
M  V30 4430 H 409.945 1.53743 3.0695 0
M  V30 4431 N 412.39 -1.55475 0.257931 0
M  V30 4432 C 413.806 -1.59307 -0.0966563 0
M  V30 4433 C 414.006 -1.27514 -1.5602 0
M  V30 4434 O 413.062 -1.02774 -2.30637 0
M  V30 4435 C 414.375 -2.99552 0.262481 0
M  V30 4436 C 415.923 -3.1231 0.207683 0
M  V30 4437 C 416.398 -4.54793 0.541012 0
M  V30 4438 N 417.889 -4.6058 0.491921 0
M  V30 4439 C 418.624 -5.68825 0.722857 0
M  V30 4440 N 418.12 -6.85287 1.0175 0
M  V30 4441 N 419.913 -5.58296 0.652815 0
M  V30 4442 H 412.064 -1.74409 1.21224 0
M  V30 4443 H 414.327 -0.812424 0.48854 0
M  V30 4444 H 414.033 -3.27593 1.27967 0
M  V30 4445 H 413.907 -3.75019 -0.40508 0
M  V30 4446 H 416.294 -2.84044 -0.800195 0
M  V30 4447 H 416.375 -2.39095 0.909255 0
M  V30 4448 H 416.019 -4.83783 1.5465 0
M  V30 4449 H 415.949 -5.26285 -0.18216 0
M  V30 4450 H 418.44 -3.7691 0.273366 0
M  V30 4451 H 418.753 -7.63725 1.18084 0
M  V30 4452 H 417.098 -6.86945 1.05509 0
M  V30 4453 H 420.289 -4.66189 0.422592 0
M  V30 4454 H 420.462 -6.42582 0.836182 0
M  V30 4455 N 413.868 0.0150385 -1.57593 0
M  V30 4456 C 415.279 0.559832 -1.78109 0
M  V30 4457 C 415.63 1.74814 -0.890756 0
M  V30 4458 O 414.755 2.16216 -0.0892482 0
M  V30 4459 C 415.35 1.02238 -3.23006 0
M  V30 4460 C 413.909 1.51258 -3.44671 0
M  V30 4461 C 413.056 0.456955 -2.73509 0
M  V30 4462 H 416.007 -0.211169 -1.57289 0
M  V30 4463 H 416.028 1.88912 -3.30292 0
M  V30 4464 H 415.54 0.157302 -3.87781 0
M  V30 4465 H 413.641 2.39905 -2.8509 0
M  V30 4466 H 413.754 1.55042 -4.5332 0
M  V30 4467 H 412.118 0.915196 -2.37689 0
M  V30 4468 H 412.901 -0.398896 -3.40975 0
M  V30 4469 N 415.346 1.54954 0.287554 0
M  V30 4470 C 416.571 1.79209 1.04397 0
M  V30 4471 C 416.996 0.556431 1.79682 0
M  V30 4472 O 416.354 -0.493518 1.74454 0
M  V30 4473 C 416.402 3.00739 1.98969 0
M  V30 4474 O 415.506 2.74805 3.075 0
M  V30 4475 H 414.847 0.592755 0.299227 0
M  V30 4476 H 417.377 2.02068 0.320886 0
M  V30 4477 H 417.387 3.29077 2.4119 0
M  V30 4478 H 416.062 3.90329 1.43582 0
M  V30 4479 H 414.639 2.57523 2.69697 0
M  V30 4480 N 416.824 -0.551391 1.4764 0
M  V30 4481 C 418.24 -0.877887 1.33287 0
M  V30 4482 C 418.44 -1.98817 0.327721 0
M  V30 4483 O 417.496 -2.51171 -0.258695 0
M  V30 4484 C 418.809 -1.26563 2.72768 0
M  V30 4485 C 420.357 -1.37673 2.81097 0
M  V30 4486 C 420.832 -1.79799 4.21232 0
M  V30 4487 N 422.323 -1.8694 4.23802 0
M  V30 4488 C 423.058 -2.20876 5.29151 0
M  V30 4489 N 422.554 -2.53386 6.448 0
M  V30 4490 N 424.347 -2.217 5.16532 0
M  V30 4491 H 416.498 0.18153 2.11623 0
M  V30 4492 H 418.761 0.0185514 0.947818 0
M  V30 4493 H 418.467 -0.523591 3.47781 0
M  V30 4494 H 418.341 -2.22052 3.04915 0
M  V30 4495 H 420.728 -2.10956 2.06353 0
M  V30 4496 H 420.809 -0.40357 2.52596 0
M  V30 4497 H 420.453 -1.07083 4.96483 0
M  V30 4498 H 420.383 -2.78128 4.4716 0
M  V30 4499 H 422.874 -1.64179 3.40373 0
M  V30 4500 H 423.187 -2.78325 7.20941 0
M  V30 4501 H 421.532 -2.50953 6.48111 0
M  V30 4502 H 424.723 -1.95745 4.25207 0
M  V30 4503 H 424.896 -2.47818 5.98741 0
M  V30 4504 N 418.302 -1.35869 -0.798587 0
M  V30 4505 C 419.713 -1.26498 -1.37314 0
M  V30 4506 C 420.064 0.0991899 -1.95949 0
M  V30 4507 O 419.189 1.0004 -1.91888 0
M  V30 4508 C 419.784 -2.29054 -2.49639 0
M  V30 4509 C 418.343 -2.234 -3.02935 0
M  V30 4510 C 417.49 -2.14329 -1.75949 0
M  V30 4511 H 420.441 -1.46881 -0.600971 0
M  V30 4512 H 420.462 -1.92166 -3.28409 0
M  V30 4513 H 419.974 -3.2833 -2.06933 0
M  V30 4514 H 418.075 -1.27562 -3.50084 0
M  V30 4515 H 418.188 -3.15703 -3.60372 0
M  V30 4516 H 416.552 -1.60435 -1.9782 0
M  V30 4517 H 417.335 -3.15477 -1.35384 0
M  V30 4518 N 419.78 1.02168 -1.19998 0
M  V30 4519 C 421.196 1.27969 -0.953737 0
M  V30 4520 C 421.396 1.98079 0.369703 0
M  V30 4521 O 420.452 2.27306 1.09947 0
M  V30 4522 C 421.765 2.11971 -2.13281 0
M  V30 4523 C 423.313 2.25255 -2.17323 0
M  V30 4524 C 423.788 3.12632 -3.34702 0
M  V30 4525 N 425.279 3.2022 -3.34684 0
M  V30 4526 C 426.014 3.88039 -4.22153 0
M  V30 4527 N 425.51 4.58027 -5.19791 0
M  V30 4528 N 427.303 3.84511 -4.10009 0
M  V30 4529 H 419.454 0.550794 -2.05134 0
M  V30 4530 H 421.717 0.305683 -0.897364 0
M  V30 4531 H 421.423 1.67785 -3.09097 0
M  V30 4532 H 421.297 3.12699 -2.10949 0
M  V30 4533 H 423.684 2.68667 -1.22073 0
M  V30 4534 H 423.765 1.24053 -2.23706 0
M  V30 4535 H 423.409 2.69926 -4.30235 0
M  V30 4536 H 423.339 4.13909 -3.25556 0
M  V30 4537 H 425.83 2.70382 -2.64012 0
M  V30 4538 H 426.143 5.07429 -5.82868 0
M  V30 4539 H 424.488 4.56869 -5.23733 0
M  V30 4540 H 427.679 3.28978 -3.33003 0
M  V30 4541 H 427.852 4.3709 -4.78389 0
M  V30 4542 N 421.258 1.00505 1.21394 0
M  V30 4543 C 422.488 0.705584 1.94178 0
M  V30 4544 C 422.896 -0.735846 1.74304 0
M  V30 4545 O 422.239 -1.50954 1.04683 0
M  V30 4546 C 422.301 0.94689 3.46806 0
M  V30 4547 C 421.965 2.37517 3.90429 0
M  V30 4548 C 422.962 3.35539 3.97127 0
M  V30 4549 C 420.647 2.71284 4.22742 0
M  V30 4550 C 422.641 4.65395 4.3553 0
M  V30 4551 C 420.328 4.01356 4.60822 0
M  V30 4552 C 421.326 4.98223 4.67186 0
M  V30 4553 O 421.014 6.25969 5.04399 0
M  V30 4554 H 420.746 0.259216 0.624326 0
M  V30 4555 H 423.3 1.34592 1.55159 0
M  V30 4556 H 421.53 0.249386 3.85895 0
M  V30 4557 H 423.219 0.640804 4.0081 0
M  V30 4558 H 423.985 3.10786 3.7234 0
M  V30 4559 H 419.864 1.96581 4.16985 0
M  V30 4560 H 423.408 5.41002 4.40412 0
M  V30 4561 H 419.305 4.25893 4.85063 0
M  V30 4562 H 420.073 6.30085 5.22431 0
M  V30 4563 N 422.737 -1.36956 0.779787 0
M  V30 4564 C 423.684 -2.30175 0.169697 0
M  V30 4565 C 424.654 -1.51501 -0.68094 0
M  V30 4566 O 425.839 -1.80042 -0.631629 0
M  V30 4567 C 422.979 -3.37985 -0.697131 0
M  V30 4568 C 422.092 -4.31661 0.170992 0
M  V30 4569 C 421.227 -5.2655 -0.701298 0
M  V30 4570 C 420.266 -6.11867 0.168869 0
M  V30 4571 N 419.403 -6.98973 -0.661855 0
M  V30 4572 H 424.243 -2.81767 0.970135 0
M  V30 4573 H 421.78 -1.38699 0.489994 0
M  V30 4574 H 423.738 -3.99128 -1.2146 0
M  V30 4575 H 422.368 -2.87739 -1.46309 0
M  V30 4576 H 421.42 -3.71756 0.80634 0
M  V30 4577 H 422.732 -4.91644 0.841875 0
M  V30 4578 H 421.886 -5.92937 -1.28494 0
M  V30 4579 H 420.625 -4.66998 -1.40584 0
M  V30 4580 H 419.63 -5.44452 0.764986 0
M  V30 4581 H 420.855 -6.73493 0.870863 0
M  V30 4582 H 418.801 -6.41941 -1.35086 0
M  V30 4583 H 418.718 -7.55984 -0.0484447 0
M  V30 4584 H 419.986 -7.6974 -1.22963 0
M  V30 4585 N 424.215 -0.530993 -1.48385 0
M  V30 4586 C 425.178 0.220497 -2.28137 0
M  V30 4587 C 426.178 0.866851 -1.35434 0
M  V30 4588 O 427.368 0.726746 -1.58316 0
M  V30 4589 C 424.5 1.31921 -3.1434 0
M  V30 4590 H 425.693 -0.479714 -2.96038 0
M  V30 4591 H 423.246 -0.286968 -1.53643 0
M  V30 4592 H 423.981 2.05264 -2.51072 0
M  V30 4593 H 423.766 0.86085 -3.82533 0
M  V30 4594 H 425.256 1.84776 -3.74497 0
M  V30 4595 N 425.693 1.55336 -0.266172 0
M  V30 4596 C 426.97 1.91372 0.404486 0
M  V30 4597 C 427.35 1.18935 1.74407 0
M  V30 4598 O 426.698 0.3132 2.26343 0
M  V30 4599 C 426.908 3.44581 0.553593 0
M  V30 4600 C 428.256 4.16196 0.840618 0
M  V30 4601 O 429.28 3.50426 0.638739 0
M  V30 4602 O 428.139 5.32567 1.22618 0
M  V30 4603 H 425.233 0.797194 0.220025 0
M  V30 4604 H 427.779 1.66813 -0.311664 0
M  V30 4605 H 426.551 3.89357 -0.389498 0
M  V30 4606 H 426.174 3.75065 1.31955 0
M  V30 4607 N 427.171 -0.0066808 1.57599 0
M  V30 4608 C 428.417 -0.693947 1.90558 0
M  V30 4609 C 428.75 -1.73792 0.866594 0
M  V30 4610 O 428.025 -1.94156 -0.115548 0
M  V30 4611 C 428.308 -1.34317 3.34112 0
M  V30 4612 C 428.161 -0.311189 4.48722 0
M  V30 4613 C 429.48 -2.27116 3.7697 0
M  V30 4614 H 426.599 -0.250803 0.693013 0
M  V30 4615 H 429.241 0.043242 1.89951 0
M  V30 4616 H 427.391 -1.9715 3.3476 0
M  V30 4617 H 429.063 0.316944 4.6021 0
M  V30 4618 H 427.306 0.367253 4.32243 0
M  V30 4619 H 427.977 -0.804366 5.46108 0
M  V30 4620 H 430.453 -1.74306 3.77831 0
M  V30 4621 H 429.329 -2.69511 4.78179 0
M  V30 4622 H 429.59 -3.14743 3.10466 0
M  V30 4623 N 428.649 -1.55105 -0.279332 0
M  V30 4624 C 430.06 -1.66186 -0.850832 0
M  V30 4625 C 430.411 -0.584707 -1.87285 0
M  V30 4626 O 429.536 0.274919 -2.14647 0
M  V30 4627 C 430.131 -3.01264 -1.55001 0
M  V30 4628 C 428.69 -3.14394 -2.06963 0
M  V30 4629 C 427.837 -2.61959 -0.909536 0
M  V30 4630 H 430.788 -1.58602 -0.0558235 0
M  V30 4631 H 430.809 -2.93899 -2.41669 0
M  V30 4632 H 430.321 -3.7964 -0.805931 0
M  V30 4633 H 428.422 -2.4078 -2.84352 0
M  V30 4634 H 428.535 -4.20867 -2.28928 0
M  V30 4635 H 426.899 -2.18957 -1.30116 0
M  V30 4636 H 427.682 -3.42833 -0.179062 0
M  V30 4637 N 430.127 0.543554 -1.4793 0
M  V30 4638 C 431.404 1.30458 -1.4574 0
M  V30 4639 C 431.784 2.1048 -0.161692 0
M  V30 4640 O 431.132 2.11831 0.856734 0
M  V30 4641 C 431.342 2.19754 -2.71126 0
M  V30 4642 C 432.69 2.80334 -3.18901 0
M  V30 4643 O 433.714 2.30049 -2.71948 0
M  V30 4644 O 432.573 3.71766 -4.00565 0
M  V30 4645 H 429.667 0.588117 -0.581418 0
M  V30 4646 H 432.213 0.561328 -1.60147 0
M  V30 4647 H 430.985 1.60316 -3.56952 0
M  V30 4648 H 430.608 3.01351 -2.59371 0
M  V30 4649 N 431.605 1.3629 0.791371 0
M  V30 4650 C 432.535 1.33137 1.91825 0
M  V30 4651 C 433.516 0.203168 1.68882 0
M  V30 4652 O 434.701 0.400509 1.90025 0
M  V30 4653 C 431.831 1.11793 3.28816 0
M  V30 4654 C 430.785 2.21417 3.66277 0
M  V30 4655 C 430.111 1.85218 5.01596 0
M  V30 4656 C 431.411 3.63489 3.75064 0
M  V30 4657 H 433.105 2.2743 1.9472 0
M  V30 4658 H 430.651 1.09479 0.935437 0
M  V30 4659 H 432.604 1.08222 4.07266 0
M  V30 4660 H 431.328 0.139501 3.26302 0
M  V30 4661 H 429.987 2.2411 2.90121 0
M  V30 4662 H 429.635 0.859544 4.95602 0
M  V30 4663 H 429.335 2.58611 5.27631 0
M  V30 4664 H 430.859 1.832 5.82469 0
M  V30 4665 H 432.273 3.63034 4.43711 0
M  V30 4666 H 430.67 4.35771 4.12582 0
M  V30 4667 H 431.74 3.98536 2.76219 0
M  V30 4668 N 433.083 -1.0153 1.20538 0
M  V30 4669 C 434.015 -2.10224 0.913155 0
M  V30 4670 C 435.028 -1.62495 -0.0995998 0
M  V30 4671 O 436.217 -1.78014 0.131582 0
M  V30 4672 C 433.317 -3.37111 0.347717 0
M  V30 4673 C 432.49 -4.13971 1.41233 0
M  V30 4674 C 431.549 -5.19158 0.857976 0
M  V30 4675 O 430.575 -5.48 1.53897 0
M  V30 4676 N 431.777 -5.7955 -0.331966 0
M  V30 4677 H 434.542 -2.35879 1.84881 0
M  V30 4678 H 432.103 -1.17931 1.10923 0
M  V30 4679 H 434.095 -4.04683 -0.0373026 0
M  V30 4680 H 432.665 -3.08696 -0.492527 0
M  V30 4681 H 431.885 -3.41351 1.97163 0
M  V30 4682 H 433.173 -4.62103 2.12928 0
M  V30 4683 H 432.571 -5.58455 -0.902478 0
M  V30 4684 H 431.128 -6.48464 -0.65861 0
M  V30 4685 N 434.561 -1.01147 -1.20859 0
M  V30 4686 C 435.786 -0.716698 -1.94623 0
M  V30 4687 C 436.211 0.715415 -1.73964 0
M  V30 4688 O 435.569 1.49157 -1.03062 0
M  V30 4689 C 435.617 -1.0513 -3.44935 0
M  V30 4690 O 434.721 -0.160131 -4.12089 0
M  V30 4691 H 434.062 -0.266404 -0.608214 0
M  V30 4692 H 436.592 -1.35346 -1.53436 0
M  V30 4693 H 436.602 -1.00086 -3.95533 0
M  V30 4694 H 435.277 -2.09475 -3.59295 0
M  V30 4695 H 433.854 -0.267657 -3.71938 0
M  V30 4696 N 436.039 1.36541 -0.78704 0
M  V30 4697 C 437.285 1.99599 -0.358872 0
M  V30 4698 C 437.618 1.62323 1.06606 0
M  V30 4699 O 436.893 0.876858 1.73613 0
M  V30 4700 C 437.176 3.56327 -0.519944 0
M  V30 4701 C 437.029 4.03464 -1.98839 0
M  V30 4702 C 438.348 4.4005 0.0664737 0
M  V30 4703 H 435.467 0.725107 -0.131869 0
M  V30 4704 H 438.109 1.6199 -0.992936 0
M  V30 4705 H 436.259 3.88495 0.0198321 0
M  V30 4706 H 437.931 3.81793 -2.58905 0
M  V30 4707 H 436.174 3.55092 -2.49183 0
M  V30 4708 H 436.845 5.12439 -2.05207 0
M  V30 4709 H 439.321 4.14228 -0.394267 0
M  V30 4710 H 438.197 5.48847 -0.0762682 0
M  V30 4711 H 438.458 4.26655 1.15835 0
M  V30 4712 N 437.518 0.538854 1.48102 0
M  V30 4713 C 438.758 0.0101209 2.04397 0
M  V30 4714 C 439.122 -1.30741 1.40609 0
M  V30 4715 O 440.323 -1.92272 1.87843 0
M  V30 4716 C 438.594 -0.100232 3.57259 0
M  V30 4717 S 440.153 -0.577746 4.3498 0
M  V30 4718 H 436.971 0.0163171 0.710813 0
M  V30 4719 H 439.573 0.721429 1.81702 0
M  V30 4720 H 438.277 0.863351 4.01216 0
M  V30 4721 H 437.808 -0.835651 3.84422 0
M  V30 4722 H 439.823 -1.84073 4.60794 0
M  V30 4723 N 438.996 -1.55193 0.274407 0
M  V30 4724 C 440.221 -2.04446 -0.348824 0
M  V30 4725 C 440.646 -1.15149 -1.48735 0
M  V30 4726 O 440.004 -0.149952 -1.80679 0
M  V30 4727 C 440.052 -3.51431 -0.808009 0
M  V30 4728 O 439.156 -3.65225 -1.91531 0
M  V30 4729 H 438.497 -0.66006 -0.0722276 0
M  V30 4730 H 441.027 -2.00481 0.408498 0
M  V30 4731 H 441.037 -3.92781 -1.10395 0
M  V30 4732 H 439.712 -4.15892 0.0249865 0
M  V30 4733 H 438.289 -3.35778 -1.62196 0
M  V30 4734 N 440.474 -0.00167713 -1.576 0
M  V30 4735 C 441.714 0.687302 -1.92498 0
M  V30 4736 C 442.078 1.70844 -0.876144 0
M  V30 4737 O 443.279 2.44792 -1.11043 0
M  V30 4738 C 441.55 1.31217 -3.32441 0
M  V30 4739 S 443.109 2.02604 -3.89226 0
M  V30 4740 H 439.927 0.226985 -0.673794 0
M  V30 4741 H 442.529 -0.0587666 -1.95412 0
M  V30 4742 H 441.233 0.556164 -4.06614 0
M  V30 4743 H 440.764 2.09613 -3.32905 0
M  V30 4744 H 442.779 3.30137 -3.70438 0
M  V30 4745 N 441.952 1.55251 0.271103 0
M  V30 4746 C 443.18 1.79974 1.02064 0
M  V30 4747 C 443.595 0.574003 1.79863 0
M  V30 4748 O 442.952 -0.456962 1.76686 0
M  V30 4749 C 443.003 3.02603 1.97772 0
M  V30 4750 O 442.724 4.20443 1.23124 0
M  V30 4751 C 444.225 3.39944 2.84522 0
M  V30 4752 H 441.445 0.599489 0.301419 0
M  V30 4753 H 443.989 2.02268 0.301313 0
M  V30 4754 H 442.144 2.8243 2.65165 0
M  V30 4755 H 442.558 4.89783 1.87651 0
M  V30 4756 H 444.032 4.28915 3.47471 0
M  V30 4757 H 444.509 2.59432 3.54389 0
M  V30 4758 H 445.115 3.62383 2.22618 0
M  V30 4759 N 443.43 -0.535701 1.48216 0
M  V30 4760 C 444.67 -1.30238 1.57536 0
M  V30 4761 C 445.034 -1.90479 0.241229 0
M  V30 4762 O 446.235 -2.67983 0.20938 0
M  V30 4763 C 444.506 -2.3669 2.67792 0
M  V30 4764 S 446.065 -3.23159 2.9684 0
M  V30 4765 H 442.883 -0.443093 0.556048 0
M  V30 4766 H 445.485 -0.610937 1.85709 0
M  V30 4767 H 444.189 -1.90905 3.63296 0
M  V30 4768 H 443.72 -3.10548 2.41502 0
M  V30 4769 H 445.735 -4.36647 2.35699 0
M  V30 4770 N 444.908 -1.36708 -0.784132 0
M  V30 4771 C 446.138 -1.34203 -1.57077 0
M  V30 4772 C 446.546 0.0774945 -1.89041 0
M  V30 4773 O 445.889 1.04628 -1.50992 0
M  V30 4774 C 445.951 -2.10351 -2.91535 0
M  V30 4775 C 445.615 -3.59405 -2.82272 0
M  V30 4776 C 446.612 -4.53545 -2.54151 0
M  V30 4777 C 444.297 -4.02362 -3.00683 0
M  V30 4778 C 446.291 -5.8862 -2.44551 0
M  V30 4779 C 443.978 -5.37526 -2.90704 0
M  V30 4780 C 444.976 -6.30468 -2.62677 0
M  V30 4781 O 444.664 -7.63149 -2.52702 0
M  V30 4782 H 444.396 -0.461791 -0.493685 0
M  V30 4783 H 446.95 -1.80475 -0.980712 0
M  V30 4784 H 445.18 -1.5875 -3.52612 0
M  V30 4785 H 446.869 -2.00636 -3.52845 0
M  V30 4786 H 447.635 -4.21669 -2.39625 0
M  V30 4787 H 443.514 -3.30389 -3.21503 0
M  V30 4788 H 447.058 -6.61133 -2.22596 0
M  V30 4789 H 442.955 -5.69008 -3.04795 0
M  V30 4790 H 443.723 -7.73331 -2.68144 0
M  V30 4791 N 446.386 1.0089 -1.21074 0
M  V30 4792 C 447.802 1.2695 -0.967257 0
M  V30 4793 C 448.002 1.9846 0.348673 0
M  V30 4794 O 447.058 2.28459 1.0753 0
M  V30 4795 C 448.371 2.09697 -2.15517 0
M  V30 4796 C 449.919 2.22937 -2.197 0
M  V30 4797 C 450.394 3.09064 -3.37999 0
M  V30 4798 N 451.885 3.16653 -3.38061 0
M  V30 4799 C 452.62 3.8354 -4.26245 0
M  V30 4800 N 452.116 4.52488 -5.2462 0
M  V30 4801 N 453.909 3.80141 -4.14064 0
M  V30 4802 H 446.06 0.529005 -2.05707 0
M  V30 4803 H 448.323 0.296148 -0.900556 0
M  V30 4804 H 448.029 1.64497 -3.10859 0
M  V30 4805 H 447.903 3.10444 -2.14253 0
M  V30 4806 H 450.29 2.67357 -1.24916 0
M  V30 4807 H 450.371 1.21673 -2.2501 0
M  V30 4808 H 450.015 2.65347 -4.33074 0
M  V30 4809 H 449.945 4.10433 -3.29928 0
M  V30 4810 H 452.436 2.67566 -2.66865 0
M  V30 4811 H 452.749 5.01219 -5.88217 0
M  V30 4812 H 451.094 4.51288 -5.28549 0
M  V30 4813 H 454.285 3.25427 -3.36474 0
M  V30 4814 H 454.458 4.31992 -4.82998 0
M  V30 4815 N 447.864 1.01787 1.20321 0
M  V30 4816 C 449.089 0.727009 1.9424 0
M  V30 4817 C 449.514 -0.706179 1.74341 0
M  V30 4818 O 448.872 -1.48609 1.03852 0
M  V30 4819 C 448.92 1.06958 3.44372 0
M  V30 4820 O 448.024 0.181983 4.11998 0
M  V30 4821 H 447.365 0.269626 0.606793 0
M  V30 4822 H 449.895 1.36158 1.52716 0
M  V30 4823 H 449.905 1.02182 3.94997 0
M  V30 4824 H 448.58 2.11378 3.58179 0
M  V30 4825 H 447.157 0.287378 3.71791 0
M  V30 4826 N 449.342 -1.36122 0.79427 0
M  V30 4827 C 450.274 -2.28683 0.153903 0
M  V30 4828 C 451.287 -1.49707 -0.639669 0
M  V30 4829 O 452.476 -1.7209 -0.474054 0
M  V30 4830 C 449.576 -3.29202 -0.804921 0
M  V30 4831 C 448.749 -4.37358 -0.060366 0
M  V30 4832 C 447.808 -5.17811 -0.935849 0
M  V30 4833 O 446.834 -5.67853 -0.391309 0
M  V30 4834 N 448.036 -5.34721 -2.25951 0
M  V30 4835 H 450.801 -2.84278 0.949008 0
M  V30 4836 H 448.362 -1.4834 0.648611 0
M  V30 4837 H 450.354 -3.79914 -1.39455 0
M  V30 4838 H 448.924 -2.74212 -1.50088 0
M  V30 4839 H 448.144 -3.87746 0.710382 0
M  V30 4840 H 449.432 -5.06777 0.45324 0
M  V30 4841 H 448.83 -4.95687 -2.72601 0
M  V30 4842 H 447.387 -5.88657 -2.79867 0
M  V30 4843 N 450.82 -0.546701 -1.47814 0
M  V30 4844 C 452.097 0.0464413 -1.95545 0
M  V30 4845 C 452.477 1.4962 -1.48919 0
M  V30 4846 O 451.825 2.16752 -0.723232 0
M  V30 4847 C 452.035 -0.0881298 -3.48889 0
M  V30 4848 C 453.383 0.0626059 -4.24554 0
M  V30 4849 O 454.407 -0.0151555 -3.56197 0
M  V30 4850 O 453.266 0.228071 -5.46024 0
M  V30 4851 H 450.36 0.0700004 -0.824032 0
M  V30 4852 H 452.906 -0.612482 -1.58262 0
M  V30 4853 H 451.678 -1.09737 -3.75597 0
M  V30 4854 H 451.301 0.608886 -3.9291 0
M  V30 4855 N 452.299 1.55045 -0.282633 0
M  V30 4856 C 453.529 2.03872 0.334635 0
M  V30 4857 C 453.937 1.16018 1.49454 0
M  V30 4858 O 453.28 0.174449 1.8287 0
M  V30 4859 C 453.342 3.48791 0.870905 0
M  V30 4860 C 453.006 4.56715 -0.161338 0
M  V30 4861 C 454.003 5.10513 -0.983466 0
M  V30 4862 C 451.688 5.01417 -0.297745 0
M  V30 4863 C 453.682 6.07538 -1.92811 0
M  V30 4864 C 451.369 5.98265 -1.24586 0
M  V30 4865 C 452.367 6.51208 -2.05954 0
M  V30 4866 O 452.055 7.46162 -2.99162 0
M  V30 4867 H 451.787 0.671324 0.0793742 0
M  V30 4868 H 454.341 2.01169 -0.41473 0
M  V30 4869 H 452.571 3.48758 1.67047 0
M  V30 4870 H 454.26 3.80916 1.40207 0
M  V30 4871 H 455.026 4.76785 -0.888856 0
M  V30 4872 H 450.905 4.59849 0.325604 0
M  V30 4873 H 454.449 6.48787 -2.56363 0
M  V30 4874 H 450.346 6.31412 -1.34126 0
M  V30 4875 H 451.114 7.63903 -2.93929 0
M  V30 4876 N 453.777 0.010035 1.57597 0
M  V30 4877 C 455.025 -0.671371 1.90623 0
M  V30 4878 C 455.346 -1.73753 0.885151 0
M  V30 4879 O 454.616 -1.95752 -0.0760611 0
M  V30 4880 H 453.196 -0.250968 0.703579 0
M  V30 4881 H 455.858 0.0533325 1.94827 0
M  V30 4882 H 454.954 -1.13626 2.90681 0
M  V30 4883 N 455.255 -1.55392 -0.262866 0
M  V30 4884 C 456.503 -1.76127 -0.991147 0
M  V30 4885 C 456.824 -0.571083 -1.8645 0
M  V30 4886 O 456.094 0.413698 -1.91482 0
M  V30 4887 H 454.674 -0.649528 -0.368948 0
M  V30 4888 H 457.336 -1.9281 -0.284655 0
M  V30 4889 H 456.432 -2.6663 -1.62219 0
M  V30 4890 N 456.733 0.527833 -1.48498 0
M  V30 4891 C 458.149 0.856571 -1.34666 0
M  V30 4892 C 458.349 1.98271 -0.35931 0
M  V30 4893 O 457.405 2.51551 0.218703 0
M  V30 4894 C 458.718 1.22207 -2.74747 0
M  V30 4895 C 460.266 1.33183 -2.83251 0
M  V30 4896 C 460.741 1.73075 -4.24039 0
M  V30 4897 N 462.232 1.80174 -4.26722 0
M  V30 4898 C 462.967 2.1243 -5.32598 0
M  V30 4899 N 462.463 2.43096 -6.4875 0
M  V30 4900 N 464.256 2.13454 -5.19994 0
M  V30 4901 H 456.407 -0.215174 -2.11307 0
M  V30 4902 H 458.67 -0.0336281 -0.947403 0
M  V30 4903 H 458.376 0.468195 -3.4857 0
M  V30 4904 H 458.25 2.17173 -3.08409 0
M  V30 4905 H 460.637 2.07647 -2.09683 0
M  V30 4906 H 460.718 0.363333 -2.53206 0
M  V30 4907 H 460.362 0.991712 -4.98124 0
M  V30 4908 H 460.292 2.70979 -4.51529 0
M  V30 4909 H 462.783 1.58744 -3.42942 0
M  V30 4910 H 463.096 2.6682 -7.25277 0
M  V30 4911 H 461.441 2.40611 -6.52021 0
M  V30 4912 H 464.632 1.88956 -4.28268 0
M  V30 4913 H 464.805 2.38261 -6.02608 0
M  V30 4914 N 458.211 1.37122 0.776871 0
M  V30 4915 C 459.436 1.354 1.57104 0
M  V30 4916 C 459.861 -0.0595562 1.88006 0
M  V30 4917 O 459.219 -1.03514 1.48844 0
M  V30 4918 C 459.267 2.19472 2.8612 0
M  V30 4919 O 458.371 1.59582 3.80273 0
M  V30 4920 H 457.712 0.462869 0.476076 0
M  V30 4921 H 460.242 1.80577 0.961932 0
M  V30 4922 H 460.252 2.32502 3.35271 0
M  V30 4923 H 458.927 3.22222 2.62956 0
M  V30 4924 H 457.504 1.55564 3.38902 0
M  V30 4925 N 459.689 -1.00246 1.21608 0
M  V30 4926 C 460.935 -1.74319 1.03638 0
M  V30 4927 C 461.268 -1.89408 -0.428749 0
M  V30 4928 O 460.543 -1.43026 -1.3181 0
M  V30 4929 C 460.826 -3.15431 1.73711 0
M  V30 4930 C 460.679 -3.08049 3.27759 0
M  V30 4931 C 461.998 -4.14407 1.48173 0
M  V30 4932 H 459.117 -0.632741 0.377899 0
M  V30 4933 H 461.759 -1.16853 1.49818 0
M  V30 4934 H 459.909 -3.64493 1.34452 0
M  V30 4935 H 461.581 -2.66681 3.76403 0
M  V30 4936 H 459.824 -2.45088 3.57931 0
M  V30 4937 H 460.495 -4.07862 3.71958 0
M  V30 4938 H 462.971 -3.74061 1.82258 0
M  V30 4939 H 461.847 -5.11279 1.99713 0
M  V30 4940 H 462.108 -4.40174 0.412273 0
M  V30 4941 N 461.167 -1.02423 -1.1978 0
M  V30 4942 C 462.13 -0.605703 -2.21052 0
M  V30 4943 C 463.13 0.328209 -1.57415 0
M  V30 4944 O 464.32 0.115853 -1.73814 0
M  V30 4945 C 461.452 0.114366 -3.40708 0
M  V30 4946 H 462.645 -1.5017 -2.59594 0
M  V30 4947 H 460.198 -0.814888 -1.33376 0
M  V30 4948 H 460.933 1.02492 -3.07678 0
M  V30 4949 H 460.718 -0.556641 -3.88129 0
M  V30 4950 H 462.208 0.394272 -4.15735 0
M  V30 4951 N 462.645 1.35699 -0.801477 0
M  V30 4952 C 464.056 1.81415 -0.441073 0
M  V30 4953 C 464.407 1.66595 1.03636 0
M  V30 4954 O 463.532 1.19369 1.80499 0
M  V30 4955 C 464.127 3.29369 -0.793819 0
M  V30 4956 C 462.686 3.73248 -0.486083 0
M  V30 4957 C 461.833 2.57775 -1.02213 0
M  V30 4958 H 464.784 1.23749 -0.993572 0
M  V30 4959 H 464.805 3.80395 -0.0894158 0
M  V30 4960 H 464.317 3.40123 -1.86917 0
M  V30 4961 H 462.418 3.68046 0.580735 0
M  V30 4962 H 462.531 4.68222 -1.01513 0
M  V30 4963 H 460.895 2.50788 -0.444712 0
M  V30 4964 H 461.678 2.71309 -2.10348 0
M  V30 4965 N 464.123 0.554532 1.47522 0
M  V30 4966 C 465.055 -0.232106 2.28022 0
M  V30 4967 C 466.068 -0.881865 1.36847 0
M  V30 4968 O 467.257 -0.756168 1.61692 0
M  V30 4969 C 464.357 -1.34604 3.11022 0
M  V30 4970 C 463.53 -0.793582 4.30141 0
M  V30 4971 C 462.589 -1.79168 4.94758 0
M  V30 4972 O 461.615 -1.33886 5.5323 0
M  V30 4973 N 462.817 -3.12495 4.89211 0
M  V30 4974 H 465.582 0.458407 2.96173 0
M  V30 4975 H 463.143 0.390433 1.57122 0
M  V30 4976 H 465.135 -2.01243 3.51118 0
M  V30 4977 H 463.705 -1.93983 2.45131 0
M  V30 4978 H 462.925 0.0495025 3.94169 0
M  V30 4979 H 464.213 -0.403776 5.07195 0
M  V30 4980 H 463.611 -3.51931 4.42901 0
M  V30 4981 H 462.168 -3.74698 5.33333 0
M  V30 4982 N 465.601 -1.54893 0.290851 0
M  V30 4983 C 466.549 -2.24579 -0.605576 0
M  V30 4984 C 467.543 -1.24824 -1.14522 0
M  V30 4985 O 468.749 -1.42706 -1.09704 0
M  V30 4986 H 465.124 -0.720946 -0.213872 0
M  V30 4987 H 467.095 -2.984 0.0048173 0
M  V30 4988 C 465.844 -2.99224 -1.77088 0
M  V30 4989 H 465.167 -3.75782 -1.36484 0
M  V30 4990 H 466.607 -3.51281 -2.3744 0
M  V30 4991 C 465.066 -2.05602 -2.66888 0
M  V30 4992 O 465.596 -1.61745 -3.67698 0
M  V30 4993 N 463.802 -1.71771 -2.34399 0
M  V30 4994 H 463.349 -2.07633 -1.52468 0
M  V30 4995 H 463.307 -1.09403 -2.94751 0
M  V30 4996 N 467.08 -0.0183926 -1.57589 0
M  V30 4997 C 468.305 0.676634 -1.96052 0
M  V30 4998 C 468.73 1.6548 -0.894307 0
M  V30 4999 O 468.088 1.80712 0.145849 0
M  V30 5000 C 468.136 1.36872 -3.33614 0
M  V30 5001 O 467.24 2.48372 -3.29219 0
M  V30 5002 H 466.581 0.1786 -0.63953 0
M  V30 5003 H 469.111 -0.077056 -2.04455 0
M  V30 5004 H 469.121 1.72797 -3.69601 0
M  V30 5005 H 467.796 0.651636 -4.10763 0
M  V30 5006 H 466.373 2.14639 -3.04934 0
M  V30 5007 N 468.558 1.5553 0.254621 0
M  V30 5008 C 469.805 1.77 0.983736 0
M  V30 5009 C 470.133 0.58133 1.85609 0
M  V30 5010 O 469.388 -0.435621 1.9079 0
M  V30 5011 C 469.687 3.03891 1.88109 0
M  V30 5012 C 469.353 4.35597 1.16472 0
M  V30 5013 C 468.015 4.7139 0.966714 0
M  V30 5014 C 470.367 5.1705 0.656387 0
M  V30 5015 C 467.695 5.86176 0.247942 0
M  V30 5016 C 470.047 6.32581 -0.0488807 0
M  V30 5017 C 468.711 6.67 -0.258438 0
M  V30 5018 H 467.981 0.647688 0.359974 0
M  V30 5019 H 470.628 1.89802 0.254463 0
M  V30 5020 H 468.933 2.86068 2.67717 0
M  V30 5021 H 470.63 3.17701 2.44677 0
M  V30 5022 H 467.22 4.07475 1.32899 0
M  V30 5023 H 471.404 4.8986 0.796933 0
M  V30 5024 H 466.66 6.11354 0.075035 0
M  V30 5025 H 470.834 6.94942 -0.450444 0
M  V30 5026 H 468.461 7.55793 -0.817358 0
M  V30 5027 N 470.036 -0.519951 1.48776 0
M  V30 5028 C 471.261 -1.30447 1.6124 0
M  V30 5029 C 471.686 -1.86055 0.276591 0
M  V30 5030 O 471.044 -1.64915 -0.753183 0
M  V30 5031 C 471.092 -2.42406 2.66967 0
M  V30 5032 O 470.196 -3.45728 2.24824 0
M  V30 5033 H 469.537 -0.385924 0.540332 0
M  V30 5034 H 472.067 -0.624572 1.94834 0
M  V30 5035 H 472.077 -2.88447 2.88552 0
M  V30 5036 H 470.752 -2.01294 3.63941 0
M  V30 5037 H 469.329 -3.05737 2.13494 0
M  V30 5038 N 471.514 -1.37532 -0.769588 0
M  V30 5039 C 472.477 -1.33292 -1.86456 0
M  V30 5040 C 473.477 -0.236537 -1.59051 0
M  V30 5041 O 474.667 -0.492511 -1.67093 0
M  V30 5042 C 471.799 -1.07118 -3.23633 0
M  V30 5043 H 472.992 -2.30692 -1.91628 0
M  V30 5044 H 470.545 -1.22593 -0.969572 0
M  V30 5045 H 471.28 -0.102578 -3.24138 0
M  V30 5046 H 471.065 -1.86479 -3.44917 0
M  V30 5047 H 472.555 -1.06806 -4.03711 0
M  V30 5048 N 472.992 0.995999 -1.22138 0
M  V30 5049 C 473.939 2.08551 -0.988687 0
M  V30 5050 C 474.909 1.65864 0.0885021 0
M  V30 5051 O 476.094 1.90704 -0.0604589 0
M  V30 5052 C 473.234 3.40374 -0.569191 0
M  V30 5053 C 472.347 3.96421 -1.71681 0
M  V30 5054 C 471.482 5.1639 -1.2456 0
M  V30 5055 C 470.521 5.64567 -2.36497 0
M  V30 5056 N 469.658 6.75777 -1.90445 0
M  V30 5057 H 474.498 2.2779 -1.92135 0
M  V30 5058 H 472.035 1.1168 -0.957388 0
M  V30 5059 H 473.993 4.16068 -0.307166 0
M  V30 5060 H 472.623 3.21145 0.326462 0
M  V30 5061 H 471.675 3.17628 -2.09324 0
M  V30 5062 H 472.987 4.2816 -2.55891 0
M  V30 5063 H 472.141 5.99362 -0.940774 0
M  V30 5064 H 470.88 4.86266 -0.373662 0
M  V30 5065 H 469.885 4.80185 -2.67772 0
M  V30 5066 H 471.11 5.96716 -3.24202 0
M  V30 5067 H 469.056 6.47443 -1.05609 0
M  V30 5068 H 468.973 7.06818 -2.68223 0
M  V30 5069 H 470.241 7.62262 -1.63022 0
M  V30 5070 N 474.47 1.03057 1.19235 0
M  V30 5071 C 475.4 0.633497 2.24742 0
M  V30 5072 C 476.381 -0.358335 1.66283 0
M  V30 5073 O 477.566 -0.240676 1.92703 0
M  V30 5074 C 474.696 -0.0147648 3.47297 0
M  V30 5075 C 473.65 0.899527 4.18441 0
M  V30 5076 C 472.976 0.116281 5.34574 0
M  V30 5077 C 474.276 2.21404 4.73051 0
M  V30 5078 H 475.97 1.5155 2.58211 0
M  V30 5079 H 473.516 0.73014 1.24117 0
M  V30 5080 H 475.469 -0.304202 4.20301 0
M  V30 5081 H 474.193 -0.931577 3.13032 0
M  V30 5082 H 472.852 1.17319 3.47321 0
M  V30 5083 H 472.5 -0.802619 4.96555 0
M  V30 5084 H 472.2 0.725293 5.83107 0
M  V30 5085 H 473.724 -0.166376 6.10373 0
M  V30 5086 H 475.138 1.98601 5.37802 0
M  V30 5087 H 473.535 2.77512 5.32078 0
M  V30 5088 H 474.605 2.86752 3.91026 0
M  V30 5089 N 475.948 -1.35272 0.808662 0
M  V30 5090 C 476.911 -2.28082 0.226093 0
M  V30 5091 C 477.911 -1.49673 -0.587762 0
M  V30 5092 O 479.101 -1.69404 -0.405943 0
M  V30 5093 C 476.233 -3.33955 -0.684596 0
M  V30 5094 H 477.426 -2.81116 1.04469 0
M  V30 5095 H 474.979 -1.45162 0.579466 0
M  V30 5096 H 475.714 -2.86111 -1.5268 0
M  V30 5097 H 475.499 -3.91965 -0.102699 0
M  V30 5098 H 476.989 -4.03219 -1.08646 0
M  V30 5099 N 477.426 -0.562348 -1.47226 0
M  V30 5100 C 478.837 -0.130325 -1.86245 0
M  V30 5101 C 479.188 1.30128 -1.46838 0
M  V30 5102 O 478.313 1.97974 -0.873805 0
M  V30 5103 C 478.908 -0.229738 -3.3802 0
M  V30 5104 C 477.467 0.14728 -3.76112 0
M  V30 5105 C 476.614 -0.574971 -2.71274 0
M  V30 5106 H 479.565 -0.771773 -1.3867 0
M  V30 5107 H 479.586 0.550316 -3.76499 0
M  V30 5108 H 479.098 -1.27178 -3.66671 0
M  V30 5109 H 477.199 1.19023 -3.53078 0
M  V30 5110 H 477.312 -0.214858 -4.78618 0
M  V30 5111 H 475.676 -0.0174756 -2.54694 0
M  V30 5112 H 476.459 -1.61827 -3.02766 0
M  V30 5113 N 478.904 1.54736 -0.299062 0
M  V30 5114 C 479.854 2.20155 0.592932 0
M  V30 5115 C 480.838 1.1739 1.10038 0
M  V30 5116 O 482.03 1.43116 1.04147 0
M  V30 5117 C 479.159 2.94437 1.76527 0
M  V30 5118 C 478.245 4.04516 1.27388 0
M  V30 5119 N 478.636 5.03319 0.500339 0
M  V30 5120 C 476.934 4.18022 1.55478 0
M  V30 5121 C 477.635 5.81209 0.238909 0
M  V30 5122 N 476.611 5.37408 0.818163 0
M  V30 5123 H 480.413 2.93899 -0.00563596 0
M  V30 5124 H 477.927 1.62068 -0.103732 0
M  V30 5125 H 479.924 3.3977 2.41582 0
M  V30 5126 H 478.584 2.22209 2.36756 0
M  V30 5127 H 479.595 5.17696 0.145419 0
M  V30 5128 H 476.272 3.56998 2.16469 0
M  V30 5129 H 477.662 6.70812 -0.382223 0
M  V30 5130 N 480.382 0.0267497 1.57577 0
M  V30 5131 C 481.612 -0.6617 1.95717 0
M  V30 5132 C 482.02 -1.66331 0.901706 0
M  V30 5133 O 481.363 -1.83273 -0.125241 0
M  V30 5134 C 481.425 -1.42649 3.29987 0
M  V30 5135 C 481.089 -0.583482 4.5326 0
M  V30 5136 C 482.086 0.140221 5.19711 0
M  V30 5137 C 479.771 -0.521581 4.99585 0
M  V30 5138 C 481.765 0.914523 6.30805 0
M  V30 5139 C 479.452 0.256428 6.10562 0
M  V30 5140 C 480.45 0.973189 6.76031 0
M  V30 5141 O 480.138 1.73845 7.84878 0
M  V30 5142 H 479.87 -0.187483 0.649481 0
M  V30 5143 H 482.424 0.0820847 2.05236 0
M  V30 5144 H 480.654 -2.21536 3.16952 0
M  V30 5145 H 482.343 -2.00282 3.53047 0
M  V30 5146 H 483.109 0.101716 4.84893 0
M  V30 5147 H 478.988 -1.06904 4.48433 0
M  V30 5148 H 482.532 1.4745 6.81839 0
M  V30 5149 H 478.429 0.296657 6.44818 0
M  V30 5150 H 479.197 1.65797 8.01532 0
M  V30 5151 N 481.861 -1.55662 -0.24637 0
M  V30 5152 C 483.108 -1.77519 -0.974335 0
M  V30 5153 C 483.436 -0.591165 -1.85298 0
M  V30 5154 O 482.691 0.425497 -1.91018 0
M  V30 5155 C 482.99 -3.04885 -1.86494 0
M  V30 5156 C 482.656 -4.36209 -1.14161 0
M  V30 5157 C 481.318 -4.71896 -0.941701 0
M  V30 5158 C 483.67 -5.17391 -0.628957 0
M  V30 5159 C 480.998 -5.86299 -0.216852 0
M  V30 5160 C 483.35 -6.32546 0.0824273 0
M  V30 5161 C 482.014 -6.66853 0.293807 0
M  V30 5162 H 481.284 -0.649588 -0.356535 0
M  V30 5163 H 483.931 -1.89934 -0.244394 0
M  V30 5164 H 482.236 -2.87484 -2.66196 0
M  V30 5165 H 483.933 -3.18994 -2.42989 0
M  V30 5166 H 480.523 -4.08174 -1.30736 0
M  V30 5167 H 484.707 -4.90276 -0.770943 0
M  V30 5168 H 479.963 -6.11385 -0.0426124 0
M  V30 5169 H 484.137 -6.94693 0.487292 0
M  V30 5170 H 481.764 -7.55349 0.857428 0
M  V30 5171 N 483.339 0.512053 -1.4905 0
M  V30 5172 C 484.289 1.61142 -1.61298 0
M  V30 5173 C 485.273 1.53908 -0.46916 0
M  V30 5174 O 486.465 1.61625 -0.721547 0
M  V30 5175 C 483.594 2.998 -1.67256 0
M  V30 5176 C 482.68 3.12072 -2.87179 0
M  V30 5177 N 483.071 2.94263 -4.11391 0
M  V30 5178 C 481.369 3.43156 -2.84886 0
M  V30 5179 C 482.07 3.10426 -4.91946 0
M  V30 5180 N 481.046 3.38808 -4.251 0
M  V30 5181 H 484.848 1.46011 -2.55065 0
M  V30 5182 H 482.362 0.717934 -1.45669 0
M  V30 5183 H 484.359 3.78794 -1.74128 0
M  V30 5184 H 483.019 3.1601 -0.746195 0
M  V30 5185 H 484.03 2.70661 -4.41546 0
M  V30 5186 H 480.707 3.65611 -2.01581 0
M  V30 5187 H 482.097 3.01243 -6.00585 0
M  V30 5188 N 484.817 1.37938 0.762283 0
M  V30 5189 C 486.042 1.37059 1.55659 0
M  V30 5190 C 486.467 -0.0396123 1.88058 0
M  V30 5191 O 485.825 -1.01929 1.49934 0
M  V30 5192 C 485.873 2.22494 2.83776 0
M  V30 5193 O 484.977 1.63607 3.78559 0
M  V30 5194 H 484.318 0.467892 0.47114 0
M  V30 5195 H 486.848 1.81587 0.942725 0
M  V30 5196 H 486.858 2.36045 3.32786 0
M  V30 5197 H 485.533 3.24993 2.59524 0
M  V30 5198 H 484.11 1.5915 3.37233 0
M  V30 5199 N 486.295 -0.989507 1.22664 0
M  V30 5200 C 487.544 -1.72375 1.04737 0
M  V30 5201 C 487.857 -1.91096 -0.417316 0
M  V30 5202 O 489.063 -2.6188 -0.716334 0
M  V30 5203 C 487.519 -3.10161 1.82561 0
M  V30 5204 C 487.127 -2.99358 3.333 0
M  V30 5205 C 488.871 -3.87607 1.73093 0
M  V30 5206 C 486.778 -4.32319 4.03552 0
M  V30 5207 H 485.708 -0.646326 0.388302 0
M  V30 5208 H 488.359 -1.10437 1.46546 0
M  V30 5209 H 486.741 -3.728 1.33552 0
M  V30 5210 H 487.915 -2.45863 3.89728 0
M  V30 5211 H 486.23 -2.35392 3.43481 0
M  V30 5212 H 488.827 -4.86025 2.22899 0
M  V30 5213 H 489.17 -4.10509 0.691976 0
M  V30 5214 H 489.703 -3.31652 2.19663 0
M  V30 5215 H 486.442 -4.14616 5.07714 0
M  V30 5216 H 485.962 -4.85714 3.51911 0
M  V30 5217 H 487.641 -5.01051 4.09337 0
M  V30 5218 N 487.773 -1.03688 -1.18687 0
M  V30 5219 C 488.998 -0.757819 -1.93059 0
M  V30 5220 C 489.423 0.678353 -1.75442 0
M  V30 5221 O 488.781 1.46938 -1.06203 0
M  V30 5222 C 488.829 -1.12423 -3.42627 0
M  V30 5223 O 487.933 -0.247505 -4.11657 0
M  V30 5224 H 487.274 -0.279245 -0.602427 0
M  V30 5225 H 489.804 -1.3857 -1.5053 0
M  V30 5226 H 489.814 -1.08454 -3.93322 0
M  V30 5227 H 488.489 -2.17049 -3.54771 0
M  V30 5228 H 487.066 -0.34649 -3.71287 0
M  V30 5229 N 489.251 1.34841 -0.815825 0
M  V30 5230 C 490.481 2.02436 -0.412695 0
M  V30 5231 C 490.889 1.61604 0.983906 0
M  V30 5232 O 490.232 0.813729 1.64694 0
M  V30 5233 C 490.294 3.56953 -0.427182 0
M  V30 5234 C 489.958 4.21083 -1.77589 0
M  V30 5235 C 490.955 4.42107 -2.73564 0
M  V30 5236 C 488.64 4.58006 -2.06243 0
M  V30 5237 C 490.634 4.99169 -3.9637 0
M  V30 5238 C 488.321 5.1478 -3.2931 0
M  V30 5239 C 489.319 5.35304 -4.24191 0
M  V30 5240 O 489.007 5.90878 -5.45086 0
M  V30 5241 H 488.739 0.655631 -0.164695 0
M  V30 5242 H 491.293 1.73246 -1.1034 0
M  V30 5243 H 489.523 3.85372 0.320175 0
M  V30 5244 H 491.212 4.05875 -0.0450875 0
M  V30 5245 H 491.978 4.13953 -2.52721 0
M  V30 5246 H 487.857 4.41339 -1.33196 0
M  V30 5247 H 491.401 5.15105 -4.70439 0
M  V30 5248 H 487.298 5.42362 -3.5002 0
M  V30 5249 H 488.066 6.0932 -5.46508 0
M  V30 5250 N 490.729 0.570148 1.46925 0
M  V30 5251 C 491.676 -0.170257 2.30171 0
M  V30 5252 C 492.646 -0.896099 1.39855 0
M  V30 5253 O 493.831 -0.889248 1.68811 0
M  V30 5254 C 490.971 -1.18605 3.24079 0
M  V30 5255 C 490.084 -0.464947 4.29491 0
M  V30 5256 C 489.219 -1.46716 5.10537 0
M  V30 5257 C 488.258 -0.731758 6.0771 0
M  V30 5258 N 487.395 -1.68142 6.81669 0
M  V30 5259 H 492.235 0.545713 2.92961 0
M  V30 5260 H 489.772 0.280938 1.44392 0
M  V30 5261 H 491.73 -1.78771 3.76957 0
M  V30 5262 H 490.36 -1.86989 2.63125 0
M  V30 5263 H 489.412 0.251506 3.79568 0
M  V30 5264 H 490.724 0.110548 4.98677 0
M  V30 5265 H 489.878 -2.14199 5.6763 0
M  V30 5266 H 488.617 -2.07658 4.41282 0
M  V30 5267 H 487.622 -0.0430787 5.49783 0
M  V30 5268 H 488.847 -0.127904 6.7898 0
M  V30 5269 H 486.793 -2.27918 6.15134 0
M  V30 5270 H 486.71 -1.15841 7.47072 0
M  V30 5271 H 487.978 -2.347 7.43328 0
M  V30 5272 N 492.207 -1.54576 0.307264 0
M  V30 5273 C 493.456 -1.99442 -0.300976 0
M  V30 5274 C 493.769 -1.19928 -1.5452 0
M  V30 5275 O 494.975 -1.55092 -2.22842 0
M  V30 5276 C 493.431 -3.55084 -0.586809 0
M  V30 5277 C 493.039 -4.43413 0.639438 0
M  V30 5278 C 494.783 -4.0846 -1.1559 0
M  V30 5279 C 492.69 -5.90499 0.326411 0
M  V30 5280 H 491.62 -0.744986 -0.116238 0
M  V30 5281 H 494.271 -1.787 0.416947 0
M  V30 5282 H 492.653 -3.71749 -1.36449 0
M  V30 5283 H 493.827 -4.38522 1.41545 0
M  V30 5284 H 492.142 -4.00842 1.1276 0
M  V30 5285 H 494.739 -5.15926 -1.40445 0
M  V30 5286 H 495.082 -3.59443 -2.10015 0
M  V30 5287 H 495.615 -3.95362 -0.439778 0
M  V30 5288 H 492.354 -6.43676 1.23939 0
M  V30 5289 H 491.874 -5.98382 -0.412212 0
M  V30 5290 H 493.553 -6.46962 -0.0697393 0
M  V30 5291 N 493.685 -0.035106 -1.57561 0
M  V30 5292 C 494.595 0.960295 -2.14046 0
M  V30 5293 C 495.611 1.3529 -1.0942 0
M  V30 5294 O 496.787 1.43309 -1.41508 0
M  V30 5295 C 493.852 2.22214 -2.66124 0
M  V30 5296 C 492.913 1.8894 -3.85487 0
M  V30 5297 C 492.146 3.09109 -4.35072 0
M  V30 5298 O 492.369 4.21963 -3.83802 0
M  V30 5299 O 491.303 2.91058 -5.26848 0
M  V30 5300 H 495.129 0.509983 -2.99387 0
M  V30 5301 H 492.714 0.185853 -1.48239 0
M  V30 5302 H 494.596 2.96279 -2.99661 0
M  V30 5303 H 493.271 2.66414 -1.83862 0
M  V30 5304 H 492.178 1.12241 -3.56865 0
M  V30 5305 H 493.511 1.49551 -4.6893 0
M  V30 5306 N 495.163 1.55791 0.238111 0
M  V30 5307 C 496.073 1.94196 1.31625 0
M  V30 5308 C 497.089 0.843545 1.52185 0
M  V30 5309 O 498.265 1.1457 1.65637 0
M  V30 5310 C 495.33 2.2365 2.64918 0
M  V30 5311 C 494.391 3.46971 2.52804 0
M  V30 5312 C 493.624 3.7501 3.79741 0
M  V30 5313 O 493.847 3.04982 4.82019 0
M  V30 5314 O 492.781 4.68525 3.77846 0
M  V30 5315 H 496.607 2.86044 1.02043 0
M  V30 5316 H 494.192 1.42786 0.439603 0
M  V30 5317 H 496.074 2.43863 3.4367 0
M  V30 5318 H 494.749 1.34979 2.94215 0
M  V30 5319 H 493.656 3.32055 1.72309 0
M  V30 5320 H 494.989 4.35971 2.28451 0
M  V30 5321 N 496.642 -0.504142 1.49319 0
M  V30 5322 C 497.891 -1.25507 1.57895 0
M  V30 5323 C 498.204 -1.93735 0.269433 0
M  V30 5324 O 499.41 -2.70492 0.233706 0
M  V30 5325 C 497.866 -2.27869 2.78574 0
M  V30 5326 C 497.474 -1.65594 4.16272 0
M  V30 5327 C 499.218 -3.0381 2.96479 0
M  V30 5328 C 497.125 -2.66048 5.28178 0
M  V30 5329 H 496.055 -0.47212 0.587894 0
M  V30 5330 H 498.706 -0.52931 1.757 0
M  V30 5331 H 497.088 -3.03594 2.54257 0
M  V30 5332 H 498.262 -0.958826 4.50714 0
M  V30 5333 H 496.577 -1.02055 4.037 0
M  V30 5334 H 499.174 -3.78925 3.77253 0
M  V30 5335 H 499.517 -3.61235 2.06918 0
M  V30 5336 H 500.05 -2.352 3.20821 0
M  V30 5337 H 496.789 -2.13408 6.19788 0
M  V30 5338 H 496.309 -3.34009 4.98195 0
M  V30 5339 H 497.988 -3.28536 5.57381 0
M  V30 5340 N 498.12 -1.38341 -0.754957 0
M  V30 5341 C 499.345 -1.37882 -1.5493 0
M  V30 5342 C 499.77 0.0296385 -1.88077 0
M  V30 5343 O 499.128 1.01133 -1.50472 0
M  V30 5344 C 499.176 -2.23996 -2.82592 0
M  V30 5345 O 498.28 -1.65612 -3.77686 0
M  V30 5346 H 497.621 -0.470384 -0.468652 0
M  V30 5347 H 500.151 -1.82084 -0.933082 0
M  V30 5348 H 500.161 -2.37806 -3.3153 0
M  V30 5349 H 498.836 -3.26365 -2.57796 0
M  V30 5350 H 497.413 -1.60936 -3.36384 0
M  V30 5351 N 499.598 0.982988 -1.23187 0
M  V30 5352 C 501.009 1.53847 -1.05773 0
M  V30 5353 C 501.36 1.92568 0.375744 0
M  V30 5354 O 500.485 1.75783 1.26211 0
M  V30 5355 C 501.08 2.79567 -1.91384 0
M  V30 5356 C 499.639 3.31524 -1.78238 0
M  V30 5357 C 498.786 2.04534 -1.87246 0
M  V30 5358 H 501.737 0.802962 -1.36888 0
M  V30 5359 H 501.758 3.52317 -1.43711 0
M  V30 5360 H 501.27 2.51353 -2.95708 0
M  V30 5361 H 499.371 3.64623 -0.766875 0
M  V30 5362 H 499.484 4.01457 -2.61475 0
M  V30 5363 H 497.848 2.1855 -1.30797 0
M  V30 5364 H 498.631 1.78706 -2.9312 0
M  V30 5365 N 501.076 1.04316 1.18135 0
M  V30 5366 C 502.301 0.768047 1.92655 0
M  V30 5367 C 502.726 -0.66904 1.758 0
M  V30 5368 O 502.084 -1.46372 1.06981 0
M  V30 5369 C 502.132 1.14239 3.42026 0
M  V30 5370 O 501.236 0.269333 4.1152 0
M  V30 5371 H 500.577 0.282436 0.600937 0
M  V30 5372 H 503.107 1.39367 1.49793 0
M  V30 5373 H 503.117 1.10538 3.92741 0
M  V30 5374 H 501.792 2.18928 3.53615 0
M  V30 5375 H 500.369 0.366175 3.71098 0
M  V30 5376 N 502.554 -1.34406 0.822964 0
M  V30 5377 C 503.782 -2.02508 0.424039 0
M  V30 5378 C 504.197 -1.61975 -0.970022 0
M  V30 5379 O 503.554 -0.825228 -1.62777 0
M  V30 5380 C 503.605 -3.57789 0.516657 0
M  V30 5381 O 503.326 -3.96853 1.85577 0
M  V30 5382 C 504.827 -4.43157 0.112637 0
M  V30 5383 H 502.047 -0.649063 0.170173 0
M  V30 5384 H 504.591 -1.7168 1.11113 0
M  V30 5385 H 502.746 -3.87207 -0.122353 0
M  V30 5386 H 503.16 -4.91538 1.83005 0
M  V30 5387 H 504.634 -5.51527 0.228526 0
M  V30 5388 H 505.111 -4.28939 -0.943837 0
M  V30 5389 H 505.717 -4.19067 0.725449 0
M  V30 5390 N 504.032 -0.577932 -1.46621 0
M  V30 5391 C 504.962 0.145917 -2.33044 0
M  V30 5392 C 505.943 0.888412 -1.45056 0
M  V30 5393 O 507.128 0.864812 -1.73881 0
M  V30 5394 C 504.258 1.16322 -3.27241 0
M  V30 5395 C 503.212 0.535868 -4.24632 0
M  V30 5396 C 502.538 1.65929 -5.08303 0
M  V30 5397 C 503.838 -0.523861 -5.19666 0
M  V30 5398 H 505.532 -0.575636 -2.93814 0
M  V30 5399 H 503.078 -0.278272 -1.41286 0
M  V30 5400 H 505.031 1.67793 -3.86553 0
M  V30 5401 H 503.755 1.91498 -2.64567 0
M  V30 5402 H 502.414 0.0422759 -3.66576 0
M  V30 5403 H 502.062 2.40061 -4.42018 0
M  V30 5404 H 501.762 1.2452 -5.74255 0
M  V30 5405 H 503.286 2.17686 -5.70478 0
M  V30 5406 H 504.7 -0.0944059 -5.73222 0
M  V30 5407 H 503.097 -0.858 -5.93935 0
M  V30 5408 H 504.167 -1.41197 -4.63887 0
M  V30 5409 N 505.51 1.54411 -0.315457 0
M  V30 5410 C 506.457 2.24048 0.554166 0
M  V30 5411 C 507.427 1.2283 1.11812 0
M  V30 5412 O 508.612 1.51491 1.15997 0
M  V30 5413 C 505.752 2.99574 1.71316 0
M  V30 5414 C 504.865 4.15594 1.17922 0
M  V30 5415 C 504 4.78669 2.30324 0
M  V30 5416 C 503.039 5.86807 1.74137 0
M  V30 5417 N 502.176 6.43777 2.8017 0
M  V30 5418 H 507.016 2.97964 -0.0462602 0
M  V30 5419 H 504.553 1.47059 -0.0346009 0
M  V30 5420 H 506.511 3.41604 2.39505 0
M  V30 5421 H 505.141 2.28008 2.285 0
M  V30 5422 H 504.193 3.78404 0.389136 0
M  V30 5423 H 505.505 4.93459 0.728012 0
M  V30 5424 H 504.659 5.23626 3.06433 0
M  V30 5425 H 503.398 4.00168 2.78778 0
M  V30 5426 H 502.403 5.41261 0.965236 0
M  V30 5427 H 503.628 6.67201 1.2657 0
M  V30 5428 H 501.574 5.68153 3.2793 0
M  V30 5429 H 501.491 7.17031 2.39588 0
M  V30 5430 H 502.759 6.9339 3.56132 0
M  V30 5431 N 506.988 0.0434614 1.5754 0
M  V30 5432 C 507.936 -0.951465 2.1225 0
M  V30 5433 C 508.93 -1.3274 1.05245 0
M  V30 5434 O 510.136 -1.30795 1.23663 0
M  V30 5435 H 506.511 -0.324667 0.678303 0
M  V30 5436 H 508.482 -0.464855 2.94757 0
M  V30 5437 C 507.231 -2.21972 2.67626 0
M  V30 5438 H 506.554 -1.93923 3.4962 0
M  V30 5439 H 507.994 -2.89765 3.09536 0
M  V30 5440 C 506.453 -2.95919 1.61038 0
M  V30 5441 O 506.983 -3.8857 1.01862 0
M  V30 5442 N 505.189 -2.58511 1.32741 0
M  V30 5443 H 504.736 -1.83244 1.81051 0
M  V30 5444 H 504.694 -3.08296 0.616531 0
M  V30 5445 N 508.466 -1.55915 -0.229846 0
M  V30 5446 C 509.691 -1.8296 -0.976743 0
M  V30 5447 C 510.116 -0.622735 -1.77493 0
M  V30 5448 O 509.474 0.428431 -1.76165 0
M  V30 5449 C 509.522 -3.07916 -1.8767 0
M  V30 5450 O 508.626 -2.86028 -2.97088 0
M  V30 5451 H 507.967 -0.603453 -0.277021 0
M  V30 5452 H 510.497 -2.0312 -0.245669 0
M  V30 5453 H 510.507 -3.37802 -2.2881 0
M  V30 5454 H 509.182 -3.95389 -1.28996 0
M  V30 5455 H 507.759 -2.67355 -2.59954 0
M  V30 5456 N 509.944 0.496216 -1.49584 0
M  V30 5457 C 510.874 1.60576 -1.69521 0
M  V30 5458 C 511.855 1.61169 -0.543933 0
M  V30 5459 O 513.04 1.77834 -0.78031 0
M  V30 5460 C 510.17 2.99038 -1.76616 0
M  V30 5461 C 509.124 3.13312 -2.91581 0
M  V30 5462 C 508.45 4.53172 -2.83794 0
M  V30 5463 C 509.75 2.92886 -4.32452 0
M  V30 5464 H 511.444 1.44146 -2.62416 0
M  V30 5465 H 508.99 0.692024 -1.26282 0
M  V30 5466 H 510.943 3.76564 -1.8915 0
M  V30 5467 H 509.667 3.16568 -0.80324 0
M  V30 5468 H 508.326 2.38213 -2.78658 0
M  V30 5469 H 507.974 4.67585 -1.854 0
M  V30 5470 H 507.674 4.63662 -3.60958 0
M  V30 5471 H 509.198 5.32752 -2.98342 0
M  V30 5472 H 510.612 3.60178 -4.46032 0
M  V30 5473 H 509.009 3.14844 -5.10875 0
M  V30 5474 H 510.079 1.88966 -4.46565 0
M  V30 5475 N 511.423 1.38739 0.74761 0
M  V30 5476 C 512.67 1.35274 1.50689 0
M  V30 5477 C 512.998 -0.0553359 1.94421 0
M  V30 5478 O 512.253 -1.03365 1.66175 0
M  V30 5479 C 512.552 2.25992 2.7688 0
M  V30 5480 C 512.218 3.73854 2.5208 0
M  V30 5481 C 510.88 4.14145 2.45025 0
M  V30 5482 C 513.232 4.67427 2.30568 0
M  V30 5483 C 510.56 5.4609 2.14483 0
M  V30 5484 C 512.912 5.99635 2.01545 0
M  V30 5485 C 511.576 6.39004 1.92951 0
M  V30 5486 H 510.846 0.495003 0.55141 0
M  V30 5487 H 513.493 1.71145 0.859158 0
M  V30 5488 H 511.798 1.83196 3.46333 0
M  V30 5489 H 513.495 2.20611 3.34861 0
M  V30 5490 H 510.085 3.41913 2.58444 0
M  V30 5491 H 514.269 4.3714 2.34994 0
M  V30 5492 H 509.525 5.75528 2.06342 0
M  V30 5493 H 513.699 6.71678 1.83906 0
M  V30 5494 H 511.326 7.41165 1.6905 0
M  V30 5495 N 512.901 -0.976442 1.23707 0
M  V30 5496 C 514.312 -1.53284 1.06587 0
M  V30 5497 C 514.663 -1.92765 -0.365526 0
M  V30 5498 O 513.788 -1.7645 -1.25277 0
M  V30 5499 C 514.383 -2.78548 1.92864 0
M  V30 5500 C 512.942 -3.30574 1.79994 0
M  V30 5501 C 512.089 -2.03538 1.88328 0
M  V30 5502 H 515.04 -0.795692 1.37311 0
M  V30 5503 H 515.061 -3.5155 1.45577 0
M  V30 5504 H 514.573 -2.49782 2.97037 0
M  V30 5505 H 512.674 -3.64211 0.786202 0
M  V30 5506 H 512.787 -4.00065 2.636 0
M  V30 5507 H 511.151 -2.17853 1.31954 0
M  V30 5508 H 511.934 -1.77149 2.94063 0
M  V30 5509 N 514.379 -1.04941 -1.1758 0
M  V30 5510 C 515.604 -0.778253 -1.92245 0
M  V30 5511 C 516.029 0.659707 -1.76152 0
M  V30 5512 O 515.387 1.45803 -1.07755 0
M  V30 5513 C 515.435 -1.16051 -3.41416 0
M  V30 5514 O 514.539 -0.291153 -4.11371 0
M  V30 5515 H 513.88 -0.285619 -0.599431 0
M  V30 5516 H 516.41 -1.40159 -1.49052 0
M  V30 5517 H 516.42 -1.12619 -3.92149 0
M  V30 5518 H 515.095 -2.208 -3.52449 0
M  V30 5519 H 513.672 -0.385851 -3.70898 0
M  V30 5520 N 515.857 1.33968 -0.830081 0
M  V30 5521 C 517.268 1.80439 -0.479455 0
M  V30 5522 C 517.619 1.68756 1.00079 0
M  V30 5523 O 516.744 1.23171 1.77927 0
M  V30 5524 C 517.339 3.27611 -0.863505 0
M  V30 5525 C 515.898 3.72133 -0.565145 0
M  V30 5526 C 515.045 2.55549 -1.07657 0
M  V30 5527 H 517.996 1.21614 -1.0196 0
M  V30 5528 H 518.017 3.8012 -0.170083 0
M  V30 5529 H 517.529 3.36082 -1.94089 0
M  V30 5530 H 515.63 3.69196 0.502536 0
M  V30 5531 H 515.743 4.65963 -1.11422 0
M  V30 5532 H 514.107 2.49788 -0.497807 0
M  V30 5533 H 514.89 2.66786 -2.16055 0
M  V30 5534 N 517.335 0.585699 1.46312 0
M  V30 5535 C 518.584 0.0701192 2.01578 0
M  V30 5536 C 518.897 -1.29889 1.46247 0
M  V30 5537 O 520.103 -1.90598 1.93351 0
M  V30 5538 C 518.559 0.0747499 3.59822 0
M  V30 5539 C 518.167 1.44226 4.24149 0
M  V30 5540 C 519.911 -0.38673 4.22735 0
M  V30 5541 C 517.818 1.40446 5.74481 0
M  V30 5542 H 516.748 0.0224441 0.753666 0
M  V30 5543 H 519.399 0.737789 1.68015 0
M  V30 5544 H 517.781 -0.659144 3.90476 0
M  V30 5545 H 518.955 2.19612 4.05101 0
M  V30 5546 H 517.27 1.84401 3.73343 0
M  V30 5547 H 519.867 -0.433853 5.32937 0
M  V30 5548 H 520.21 -1.40489 3.91878 0
M  V30 5549 H 520.743 0.293195 3.96718 0
M  V30 5550 H 517.482 2.39952 6.10003 0
M  V30 5551 H 517.002 0.692845 5.95785 0
M  V30 5552 H 518.681 1.11865 6.37256 0
M  V30 5553 N 518.813 -1.54241 0.323641 0
M  V30 5554 C 520.038 -2.05452 -0.283605 0
M  V30 5555 C 520.463 -1.19823 -1.44997 0
M  V30 5556 O 519.821 -0.207358 -1.8011 0
M  V30 5557 C 519.869 -3.53823 -0.695795 0
M  V30 5558 O 518.973 -3.71134 -1.79815 0
M  V30 5559 H 518.314 -0.662024 -0.0511917 0
M  V30 5560 H 520.844 -1.99079 0.472073 0
M  V30 5561 H 520.854 -3.96094 -0.978434 0
M  V30 5562 H 519.529 -4.15602 0.157287 0
M  V30 5563 H 518.106 -3.40768 -1.51431 0
M  V30 5564 N 520.291 -0.0518155 -1.57515 0
M  V30 5565 C 521.516 0.634896 -1.97443 0
M  V30 5566 C 521.941 1.63546 -0.929207 0
M  V30 5567 O 521.299 1.80981 0.107484 0
M  V30 5568 C 521.347 1.29765 -3.36442 0
M  V30 5569 O 520.451 2.41333 -3.34413 0
M  V30 5570 H 519.792 0.164994 -0.643174 0
M  V30 5571 H 522.322 -0.120407 -2.04245 0
M  V30 5572 H 522.332 1.64918 -3.73184 0
M  V30 5573 H 521.007 0.564361 -4.12053 0
M  V30 5574 H 519.584 2.08122 -3.09418 0
M  V30 5575 N 521.769 1.56035 0.221574 0
M  V30 5576 C 523.018 1.78245 0.944016 0
M  V30 5577 C 523.331 0.620371 1.85501 0
M  V30 5578 O 524.537 0.726103 2.6161 0
M  V30 5579 C 522.993 3.15659 1.7288 0
M  V30 5580 C 522.601 4.39591 0.863942 0
M  V30 5581 C 524.345 3.47195 2.44246 0
M  V30 5582 C 522.252 5.6803 1.64607 0
M  V30 5583 H 521.182 0.664547 0.356222 0
M  V30 5584 H 523.833 1.8243 0.197904 0
M  V30 5585 H 522.215 3.0565 2.51781 0
M  V30 5586 H 523.389 4.60655 0.115464 0
M  V30 5587 H 521.704 4.15572 0.262407 0
M  V30 5588 H 524.301 4.40381 3.03263 0
M  V30 5589 H 524.644 2.69693 3.1713 0
M  V30 5590 H 525.177 3.58533 1.72334 0
M  V30 5591 H 521.916 6.48425 0.960507 0
M  V30 5592 H 521.436 5.51027 2.36917 0
M  V30 5593 H 523.115 6.08203 2.20675 0
M  V30 5594 N 523.247 -0.488276 1.49845 0
M  V30 5595 C 524.472 -1.26997 1.63971 0
M  V30 5596 C 524.897 -1.85427 0.315994 0
M  V30 5597 O 524.255 -1.66475 -0.718032 0
M  V30 5598 C 524.303 -2.36689 2.72049 0
M  V30 5599 O 523.407 -3.40882 2.32107 0
M  V30 5600 H 522.748 -0.374376 0.548396 0
M  V30 5601 H 525.278 -0.583104 1.96115 0
M  V30 5602 H 525.288 -2.82262 2.94605 0
M  V30 5603 H 523.963 -1.93529 3.68129 0
M  V30 5604 H 522.54 -3.01139 2.19931 0
M  V30 5605 N 524.725 -1.39134 -0.740242 0
M  V30 5606 C 526.136 -1.32208 -1.31825 0
M  V30 5607 C 526.487 0.0159919 -1.96193 0
M  V30 5608 O 525.612 0.918111 -1.95958 0
M  V30 5609 C 526.207 -2.39436 -2.39699 0
M  V30 5610 C 524.766 -2.36048 -2.93187 0
M  V30 5611 C 523.913 -2.21599 -1.66701 0
M  V30 5612 H 526.864 -1.49298 -0.538133 0
M  V30 5613 H 526.885 -2.05922 -3.19963 0
M  V30 5614 H 526.397 -3.36811 -1.92821 0
M  V30 5615 H 524.498 -1.42295 -3.44359 0
M  V30 5616 H 524.611 -3.30704 -3.46658 0
M  V30 5617 H 522.975 -1.68681 -1.90837 0
M  V30 5618 H 523.758 -3.20936 -1.21882 0
M  V30 5619 N 526.204 0.969867 -1.24223 0
M  V30 5620 C 527.452 1.70918 -1.0785 0
M  V30 5621 C 527.773 1.91186 0.383763 0
M  V30 5622 O 527.043 1.48806 1.27411 0
M  V30 5623 H 525.623 0.633334 -0.396103 0
M  V30 5624 H 528.285 1.16689 -1.56108 0
M  V30 5625 H 527.381 2.69455 -1.57482 0
M  V30 5626 N 527.682 1.05563 1.17022 0
M  V30 5627 C 528.612 0.681026 2.23348 0
M  V30 5628 C 529.593 -0.322983 1.67005 0
M  V30 5629 O 530.778 -0.199746 1.9317 0
M  V30 5630 C 527.908 0.0589053 3.4725 0
M  V30 5631 C 526.862 0.988082 4.16438 0
M  V30 5632 C 526.188 0.229646 5.34207 0
M  V30 5633 C 527.488 2.31388 4.68249 0
M  V30 5634 H 529.182 1.56993 2.54938 0
M  V30 5635 H 526.728 0.756302 1.2254 0
M  V30 5636 H 528.681 -0.214982 4.20851 0
M  V30 5637 H 527.405 -0.864968 3.14938 0
M  V30 5638 H 526.064 1.24659 3.44754 0
M  V30 5639 H 525.712 -0.697111 4.98146 0
M  V30 5640 H 525.412 0.848815 5.81437 0
M  V30 5641 H 526.936 -0.0368694 6.10589 0
M  V30 5642 H 528.35 2.09964 5.33468 0
M  V30 5643 H 526.747 2.88736 5.26072 0
M  V30 5644 H 527.817 2.94982 3.84855 0
M  V30 5645 N 529.16 -1.33526 0.837174 0
M  V30 5646 C 530.11 -2.2672 0.241269 0
M  V30 5647 C 531.094 -1.49183 -0.602756 0
M  V30 5648 O 532.286 -1.71052 -0.455002 0
M  V30 5649 C 529.415 -3.38294 -0.584125 0
M  V30 5650 C 528.501 -4.23231 0.271315 0
M  V30 5651 N 528.892 -4.87473 1.34922 0
M  V30 5652 C 527.19 -4.45962 0.0580589 0
M  V30 5653 C 527.891 -5.50685 1.87405 0
M  V30 5654 N 526.867 -5.30732 1.17578 0
M  V30 5655 H 530.669 -2.73903 1.06558 0
M  V30 5656 H 528.183 -1.47411 0.68145 0
M  V30 5657 H 530.18 -4.04044 -1.02731 0
M  V30 5658 H 528.84 -2.9266 -1.40643 0
M  V30 5659 H 529.851 -4.88077 1.7321 0
M  V30 5660 H 526.528 -4.11052 -0.730938 0
M  V30 5661 H 527.918 -6.11845 2.77661 0
M  V30 5662 N 530.638 -0.59345 -1.46 0
M  V30 5663 C 531.863 -0.0872365 -2.07216 0
M  V30 5664 C 532.288 1.2131 -1.43755 0
M  V30 5665 O 531.646 1.73528 -0.525152 0
M  V30 5666 C 531.694 0.0538197 -3.6056 0
M  V30 5667 O 530.798 1.10765 -3.97247 0
M  V30 5668 H 530.139 -0.0676598 -0.660544 0
M  V30 5669 H 532.669 -0.819445 -1.87473 0
M  V30 5670 H 532.679 0.256567 -4.07193 0
M  V30 5671 H 531.354 -0.895739 -4.0614 0
M  V30 5672 H 529.931 0.882501 -3.62307 0
M  V30 5673 N 532.116 1.54067 -0.331816 0
M  V30 5674 C 533.363 2.00715 0.268269 0
M  V30 5675 C 533.691 1.21986 1.51491 0
M  V30 5676 O 532.946 0.292309 1.93505 0
M  V30 5677 C 533.245 3.51634 0.639392 0
M  V30 5678 C 532.911 4.48018 -0.509019 0
M  V30 5679 C 531.573 4.74089 -0.824209 0
M  V30 5680 C 533.925 5.05237 -1.28003 0
M  V30 5681 C 531.253 5.54637 -1.91298 0
M  V30 5682 C 533.605 5.86972 -2.35895 0
M  V30 5683 C 532.269 6.11342 -2.67987 0
M  V30 5684 H 531.539 0.734469 0.0981667 0
M  V30 5685 H 534.186 1.8596 -0.457304 0
M  V30 5686 H 532.491 3.6416 1.44551 0
M  V30 5687 H 534.188 3.85175 1.11539 0
M  V30 5688 H 530.778 4.27851 -0.253287 0
M  V30 5689 H 534.962 4.8507 -1.04978 0
M  V30 5690 H 530.218 5.71747 -2.16599 0
M  V30 5691 H 534.392 6.30327 -2.96076 0
M  V30 5692 H 532.019 6.73544 -3.5248 0
M  V30 5693 N 533.594 0.0601682 1.57485 0
M  V30 5694 C 534.822 -0.620937 1.97363 0
M  V30 5695 C 535.237 -1.63846 0.938082 0
M  V30 5696 O 534.594 -1.82339 -0.0766578 0
M  V30 5697 C 534.645 -1.29987 3.37321 0
M  V30 5698 O 534.366 -0.323081 4.36907 0
M  V30 5699 C 535.867 -2.06989 3.92008 0
M  V30 5700 H 533.087 -0.169135 0.649334 0
M  V30 5701 H 535.631 0.129132 2.04092 0
M  V30 5702 H 533.786 -2.0011 3.31715 0
M  V30 5703 H 534.2 -0.808754 5.18227 0
M  V30 5704 H 535.674 -2.49901 4.92192 0
M  V30 5705 H 536.151 -2.92173 3.2792 0
M  V30 5706 H 536.757 -1.41757 4.0098 0
M  V30 5707 N 535.072 -1.5615 -0.213296 0
M  V30 5708 C 536.349 -1.70349 -0.961281 0
M  V30 5709 C 536.729 -0.609791 -2.02101 0
M  V30 5710 O 536.077 0.381987 -2.25285 0
M  V30 5711 C 536.287 -3.11982 -1.56424 0
M  V30 5712 C 537.635 -3.71649 -2.05334 0
M  V30 5713 O 538.659 -3.14995 -1.66302 0
M  V30 5714 O 537.518 -4.71038 -2.77102 0
M  V30 5715 H 534.612 -0.694121 -0.449582 0
M  V30 5716 H 537.158 -1.68464 -0.204426 0
M  V30 5717 H 535.93 -3.83046 -0.799457 0
M  V30 5718 H 535.553 -3.18019 -2.38641 0
M  V30 5719 N 536.55 0.480323 -1.50102 0
M  V30 5720 C 537.5 1.57685 -1.6468 0
M  V30 5721 C 538.484 1.52878 -0.5017 0
M  V30 5722 O 539.676 1.60058 -0.755668 0
M  V30 5723 C 536.805 2.96185 -1.73578 0
M  V30 5724 C 535.891 3.0591 -2.93734 0
M  V30 5725 N 536.282 2.85471 -4.1754 0
M  V30 5726 C 534.58 3.37036 -2.92101 0
M  V30 5727 C 535.281 2.99921 -4.9842 0
M  V30 5728 N 534.257 3.29715 -4.32191 0
M  V30 5729 H 538.059 1.40568 -2.58104 0
M  V30 5730 H 535.573 0.686874 -1.47159 0
M  V30 5731 H 537.57 3.75015 -1.82124 0
M  V30 5732 H 536.23 3.14356 -0.813057 0
M  V30 5733 H 537.241 2.61235 -4.47188 0
M  V30 5734 H 533.918 3.61253 -2.09291 0
M  V30 5735 H 535.308 2.88436 -6.06839 0
M  V30 5736 N 538.028 1.39524 0.732853 0
M  V30 5737 C 538.96 1.34318 1.85718 0
M  V30 5738 C 539.973 0.251576 1.60844 0
M  V30 5739 O 541.162 0.510685 1.71039 0
M  V30 5740 C 538.262 1.06334 3.21786 0
M  V30 5741 C 537.435 2.26813 3.73998 0
M  V30 5742 C 536.494 1.95253 4.88634 0
M  V30 5743 O 535.52 2.67957 5.02183 0
M  V30 5744 N 536.722 0.919984 5.73164 0
M  V30 5745 H 539.487 2.3121 1.90688 0
M  V30 5746 H 537.048 1.33654 0.91368 0
M  V30 5747 H 539.04 0.832363 3.96048 0
M  V30 5748 H 537.61 0.181682 3.12072 0
M  V30 5749 H 536.83 2.65849 2.91064 0
M  V30 5750 H 538.118 3.0717 4.05616 0
M  V30 5751 H 537.516 0.317487 5.64808 0
M  V30 5752 H 536.073 0.748905 6.47483 0
M  V30 5753 N 539.506 -0.963266 1.24736 0
M  V30 5754 C 540.922 -1.23273 1.01371 0
M  V30 5755 C 541.122 -1.99618 -0.274776 0
M  V30 5756 O 540.178 -2.32293 -0.989769 0
M  V30 5757 C 541.491 -2.01554 2.23152 0
M  V30 5758 C 543.039 -2.14629 2.27823 0
M  V30 5759 C 543.514 -2.96307 3.49237 0
M  V30 5760 N 545.005 -3.03887 3.49581 0
M  V30 5761 C 545.74 -3.67456 4.40186 0
M  V30 5762 N 545.236 -4.32706 5.41052 0
M  V30 5763 N 547.029 -3.64511 4.27888 0
M  V30 5764 H 539.18 -0.452294 2.07528 0
M  V30 5765 H 541.443 -0.262521 0.910926 0
M  V30 5766 H 541.149 -1.52847 3.1675 0
M  V30 5767 H 541.023 -3.02278 2.25628 0
M  V30 5768 H 543.41 -2.62537 1.34753 0
M  V30 5769 H 543.491 -1.13238 2.2937 0
M  V30 5770 H 543.135 -2.49091 4.42624 0
M  V30 5771 H 543.065 -3.97905 3.44933 0
M  V30 5772 H 545.556 -2.57477 2.76611 0
M  V30 5773 H 545.869 -4.79042 6.06415 0
M  V30 5774 H 544.214 -4.31361 5.44934 0
M  V30 5775 H 547.405 -3.12715 3.4832 0
M  V30 5776 H 547.578 -4.13768 4.98698 0
M  V30 5777 N 540.985 -1.06182 -1.16461 0
M  V30 5778 C 541.915 -0.692861 -2.22984 0
M  V30 5779 C 542.896 0.314122 -1.67174 0
M  V30 5780 O 544.081 0.189499 -1.93273 0
M  V30 5781 C 541.211 -0.07732 -3.47214 0
M  V30 5782 C 540.165 -1.01015 -4.15909 0
M  V30 5783 C 539.491 -0.257973 -5.34077 0
M  V30 5784 C 540.791 -2.33868 -4.67015 0
M  V30 5785 H 542.485 -1.58343 -2.54102 0
M  V30 5786 H 540.031 -0.76279 -1.22137 0
M  V30 5787 H 541.984 0.19266 -4.20959 0
M  V30 5788 H 540.708 0.848254 -3.15392 0
M  V30 5789 H 539.367 -1.26486 -3.44088 0
M  V30 5790 H 539.015 0.670684 -4.98509 0
M  V30 5791 H 538.715 -0.879638 -5.80979 0
M  V30 5792 H 540.239 0.00448788 -6.106 0
M  V30 5793 H 541.653 -2.1279 -5.32347 0
M  V30 5794 H 540.05 -2.91522 -5.24533 0
M  V30 5795 H 541.12 -2.97019 -3.83286 0
M  V30 5796 N 542.463 1.3308 -0.844243 0
M  V30 5797 C 543.396 2.27075 -0.226279 0
M  V30 5798 C 544.374 1.49911 0.629716 0
M  V30 5799 O 545.558 1.79068 0.588803 0
M  V30 5800 C 542.685 3.31767 0.681782 0
M  V30 5801 C 541.731 4.26384 -0.0994565 0
M  V30 5802 S 542.564 5.15186 -1.46094 0
M  V30 5803 C 543.72 6.23405 -0.558319 0
M  V30 5804 H 543.953 2.79141 -1.02312 0
M  V30 5805 H 541.486 1.40452 -0.641292 0
M  V30 5806 H 543.444 3.92566 1.20008 0
M  V30 5807 H 542.105 2.78507 1.45234 0
M  V30 5808 H 541.298 5.00514 0.591733 0
M  V30 5809 H 540.9 3.69949 -0.548991 0
M  V30 5810 H 543.192 6.77069 0.241672 0
M  V30 5811 H 544.135 6.96619 -1.26995 0
M  V30 5812 H 544.543 5.64333 -0.13728 0
M  V30 5813 N 543.941 0.601185 1.45683 0
M  V30 5814 C 544.888 -0.121396 2.30481 0
M  V30 5815 C 545.858 -0.866232 1.41724 0
M  V30 5816 O 547.043 -0.85324 1.70659 0
M  V30 5817 C 544.183 -1.11704 3.26521 0
M  V30 5818 C 543.296 -0.373741 4.3038 0
M  V30 5819 C 542.431 -1.35854 5.13534 0
M  V30 5820 C 541.47 -0.602689 6.09126 0
M  V30 5821 N 540.607 -1.53645 6.85082 0
M  V30 5822 H 545.447 0.607732 2.91737 0
M  V30 5823 H 542.984 0.311502 1.43764 0
M  V30 5824 H 544.942 -1.70735 3.80664 0
M  V30 5825 H 543.572 -1.81366 2.67032 0
M  V30 5826 H 542.624 0.331962 3.78949 0
M  V30 5827 H 543.936 0.2163 4.98331 0
M  V30 5828 H 543.09 -2.02111 5.72046 0
M  V30 5829 H 541.829 -1.98251 4.45587 0
M  V30 5830 H 540.834 0.0735482 5.49751 0
M  V30 5831 H 542.059 0.0161467 6.79098 0
M  V30 5832 H 540.005 -2.14819 6.1983 0
M  V30 5833 H 539.922 -0.999688 7.49361 0
M  V30 5834 H 541.19 -2.1888 7.48139 0
M  V30 5835 N 545.419 -1.53889 0.339982 0
M  V30 5836 C 546.835 -1.59595 -0.0120752 0
M  V30 5837 C 547.035 -1.35605 -1.49042 0
M  V30 5838 O 546.091 -1.14856 -2.24865 0
M  V30 5839 C 547.404 -2.9774 0.420898 0
M  V30 5840 C 548.952 -3.1077 0.37294 0
M  V30 5841 C 549.427 -4.51286 0.781327 0
M  V30 5842 N 550.918 -4.57325 0.735374 0
M  V30 5843 C 551.653 -5.64194 1.02336 0
M  V30 5844 N 551.149 -6.7893 1.37933 0
M  V30 5845 N 552.942 -5.54051 0.947838 0
M  V30 5846 H 545.093 -1.67738 1.30299 0
M  V30 5847 H 547.356 -0.785385 0.530918 0
M  V30 5848 H 547.062 -3.20349 1.45152 0
M  V30 5849 H 546.936 -3.76639 -0.205721 0
M  V30 5850 H 549.323 -2.87886 -0.648505 0
M  V30 5851 H 549.404 -2.33939 1.03472 0
M  V30 5852 H 549.048 -4.74905 1.80077 0
M  V30 5853 H 548.978 -5.26511 0.0970679 0
M  V30 5854 H 551.469 -3.74931 0.472773 0
M  V30 5855 H 551.782 -7.56392 1.58402 0
M  V30 5856 H 550.127 -6.80386 1.41774 0
M  V30 5857 H 553.318 -4.63293 0.669115 0
M  V30 5858 H 553.491 -6.37246 1.17563 0
M  V30 5859 N 546.897 -0.0685191 -1.57451 0
M  V30 5860 C 548.313 0.288101 -1.56978 0
M  V30 5861 C 548.513 1.70262 -1.07765 0
M  V30 5862 O 547.569 2.4135 -0.742054 0
M  V30 5863 C 548.882 0.100745 -3.00531 0
M  V30 5864 C 550.43 0.170531 -3.12535 0
M  V30 5865 C 550.905 0.0114944 -4.57999 0
M  V30 5866 N 552.396 0.0672065 -4.63151 0
M  V30 5867 C 553.131 -0.0314813 -5.73391 0
M  V30 5868 N 552.627 -0.183503 -6.92557 0
M  V30 5869 N 554.42 0.0253489 -5.62094 0
M  V30 5870 H 546.571 -0.993026 -1.87757 0
M  V30 5871 H 548.834 -0.386981 -0.865419 0
M  V30 5872 H 548.54 -0.875197 -3.40636 0
M  V30 5873 H 548.414 0.854457 -3.67395 0
M  V30 5874 H 550.801 1.13696 -2.72318 0
M  V30 5875 H 550.882 -0.614229 -2.48316 0
M  V30 5876 H 550.526 -0.951684 -4.98904 0
M  V30 5877 H 550.456 0.815617 -5.20245 0
M  V30 5878 H 552.947 0.183246 -3.77455 0
M  V30 5879 H 553.26 -0.251041 -7.72392 0
M  V30 5880 H 551.605 -0.218822 -6.94655 0
M  V30 5881 H 554.796 0.142794 -4.67882 0
M  V30 5882 H 554.969 -0.0550166 -6.47977 0
M  V30 5883 N 548.375 1.56261 0.205012 0
M  V30 5884 C 549.322 1.93754 1.25411 0
M  V30 5885 C 550.292 0.796826 1.45739 0
M  V30 5886 O 551.477 1.05414 1.59036 0
M  V30 5887 C 548.617 2.27383 2.59598 0
M  V30 5888 C 547.73 3.5447 2.46931 0
M  V30 5889 C 546.865 3.77468 3.73753 0
M  V30 5890 C 545.904 4.98014 3.55877 0
M  V30 5891 N 545.041 5.17316 4.74688 0
M  V30 5892 H 549.881 2.83203 0.92737 0
M  V30 5893 H 547.418 1.40158 0.446574 0
M  V30 5894 H 549.376 2.44895 3.37761 0
M  V30 5895 H 548.006 1.41088 2.90335 0
M  V30 5896 H 547.058 3.45061 1.60116 0
M  V30 5897 H 548.37 4.42789 2.29651 0
M  V30 5898 H 547.524 3.95165 4.60358 0
M  V30 5899 H 546.263 2.87461 3.93976 0
M  V30 5900 H 545.268 4.80249 2.67657 0
M  V30 5901 H 546.493 5.8952 3.37109 0
M  V30 5902 H 544.439 4.30255 4.95194 0
M  V30 5903 H 544.356 5.99796 4.60197 0
M  V30 5904 H 545.624 5.39463 5.62672 0
M  V30 5905 N 549.853 -0.472356 1.50355 0
M  V30 5906 C 551.078 -1.25251 1.65309 0
M  V30 5907 C 551.503 -1.85081 0.335643 0
M  V30 5908 O 550.861 -1.67227 -0.700335 0
M  V30 5909 C 550.909 -2.3379 2.74544 0
M  V30 5910 O 550.013 -3.38401 2.35709 0
M  V30 5911 H 549.354 -0.368539 0.552336 0
M  V30 5912 H 551.884 -0.562271 1.96722 0
M  V30 5913 H 551.894 -2.79121 2.97583 0
M  V30 5914 H 550.569 -1.89614 3.70161 0
M  V30 5915 H 549.146 -2.9879 2.23112 0
M  V30 5916 N 551.331 -1.39911 -0.725443 0
M  V30 5917 C 552.577 -1.37858 -1.48738 0
M  V30 5918 C 552.91 0.0224187 -1.94187 0
M  V30 5919 O 552.185 0.989204 -1.67466 0
M  V30 5920 C 552.468 -2.3594 -2.72038 0
M  V30 5921 C 552.321 -3.85023 -2.32546 0
M  V30 5922 C 553.64 -2.31704 -3.74167 0
M  V30 5923 H 550.759 -0.502074 -0.539528 0
M  V30 5924 H 553.401 -1.70974 -0.828728 0
M  V30 5925 H 551.551 -2.0783 -3.28236 0
M  V30 5926 H 553.223 -4.2392 -1.81905 0
M  V30 5927 H 551.466 -4.01334 -1.64661 0
M  V30 5928 H 552.137 -4.49152 -3.20884 0
M  V30 5929 H 554.613 -2.5658 -3.27576 0
M  V30 5930 H 553.489 -3.02395 -4.58092 0
M  V30 5931 H 553.75 -1.3253 -4.21768 0
M  V30 5932 O 552.848 0.866802 -1.36267 0
M  V30 5933 H 553.539 1.50585 -1.21835 0
M  V30 END ATOM
M  V30 BEGIN BOND
M  V30 END BOND
M  V30 END CTAB
M  END
$$$$
