drugbank_target|P22102 Trifunctional purine biosynthetic protein adenosine-3 (DB00642; DB02236; DB03546)
 OpenBabel12092119423D

  0  0  0     0  0            999 V3000
M  V30 BEGIN CTAB
M  V30 COUNTS 15272 15404 0 0 0
M  V30 BEGIN ATOM
M  V30 1 H -0.908 1.98254 -0.117106 0
M  V30 2 N 0 1.576 0 0
M  V30 3 C 0.933 2.03868 1.02534 0
M  V30 4 C 1.911 0.928543 1.3348 0
M  V30 5 O 3.095 1.19667 1.45644 0
M  V30 6 C 0.222 2.43627 2.35294 0
M  V30 7 C -0.732 3.65373 2.2001 0
M  V30 8 S 0.101 5.13292 1.52614 0
M  V30 9 C 1.257 5.56322 2.86805 0
M  V30 10 H 1.49 2.90518 0.631377 0
M  V30 11 H -0.977 1.52953 0.210867 0
M  V30 12 H 0.981 2.67203 3.11629 0
M  V30 13 H -0.358 1.57376 2.7183 0
M  V30 14 H -1.165 3.90944 3.18086 0
M  V30 15 H -1.563 3.418 1.51819 0
M  V30 16 H 0.729 5.58782 3.83104 0
M  V30 17 H 1.672 6.56266 2.65933 0
M  V30 18 H 2.08 4.83886 2.90714 0
M  V30 19 N 1.4781 -0.272755 1.55222 0
M  V30 20 C 2.4411 -1.32041 1.87344 0
M  V30 21 C 3.4411 -1.42342 0.74803 0
M  V30 22 O 4.6311 -1.41488 1.0162 0
M  V30 23 C 1.7631 -2.70173 2.07893 0
M  V30 24 H 2.9561 -1.04789 2.80997 0
M  V30 25 H 0.5091 -0.51083 1.47717 0
M  V30 26 H 1.2441 -3.02605 1.16622 0
M  V30 27 H 1.0291 -2.64082 2.89833 0
M  V30 28 H 2.5191 -3.45869 2.34017 0
M  V30 29 N 2.9562 -1.48159 -0.537278 0
M  V30 30 C 3.9192 -1.61665 -1.62472 0
M  V30 31 C 4.9192 -0.490395 -1.5314 0
M  V30 32 O 6.1092 -0.755998 -1.5694 0
M  V30 33 C 3.2412 -1.57997 -3.02076 0
M  V30 34 H 4.4342 -2.58621 -1.51839 0
M  V30 35 H 1.9872 -1.36647 -0.758771 0
M  V30 36 H 2.7222 -0.624913 -3.18222 0
M  V30 37 H 2.5072 -2.39755 -3.10258 0
M  V30 38 H 3.9972 -1.70627 -3.81151 0
M  V30 39 N 4.4343 0.785586 -1.36625 0
M  V30 40 C 5.8503 1.08419 -1.17122 0
M  V30 41 C 6.0503 2.015 0.00208491 0
M  V30 42 O 5.1063 2.43551 0.666278 0
M  V30 43 C 6.4193 1.69498 -2.48377 0
M  V30 44 C 7.9673 1.81821 -2.54775 0
M  V30 45 C 8.4423 2.46315 -3.86126 0
M  V30 46 N 9.9333 2.53779 -3.87492 0
M  V30 47 C 10.6683 3.045 -4.85868 0
M  V30 48 N 10.1643 3.55499 -5.94637 0
M  V30 49 N 11.9573 3.03247 -4.73284 0
M  V30 50 H 4.1083 0.167264 -2.1174 0
M  V30 51 H 6.3713 0.13682 -0.938075 0
M  V30 52 H 6.0773 1.08571 -3.34522 0
M  V30 53 H 5.9513 2.6896 -2.64462 0
M  V30 54 H 8.3383 2.41884 -1.69045 0
M  V30 55 H 8.4193 0.811532 -2.42586 0
M  V30 56 H 8.0633 1.86895 -4.72263 0
M  V30 57 H 7.9933 3.47561 -3.95612 0
M  V30 58 H 10.4843 2.17672 -3.08913 0
M  V30 59 H 10.7973 3.92562 -6.65669 0
M  V30 60 H 9.1423 3.5364 -5.98301 0
M  V30 61 H 12.3333 2.62696 -3.87438 0
M  V30 62 H 12.5063 3.42467 -5.50109 0
M  V30 63 N 5.9124 1.20967 1.01018 0
M  V30 64 C 7.1584 1.02526 1.74975 0
M  V30 65 C 7.4914 -0.4408 1.89131 0
M  V30 66 O 6.7664 -1.32718 1.42184 0
M  V30 67 C 7.0494 1.71699 3.1653 0
M  V30 68 C 6.9024 3.25791 3.10129 0
M  V30 69 C 8.2214 1.45531 4.15342 0
M  V30 70 H 5.3404 0.373863 0.635134 0
M  V30 71 H 7.9824 1.49071 1.17805 0
M  V30 72 H 6.1324 1.32128 3.65341 0
M  V30 73 H 7.8044 3.74697 2.69072 0
M  V30 74 H 6.0474 3.56363 2.47362 0
M  V30 75 H 6.7184 3.69353 4.10222 0
M  V30 76 H 9.1944 1.79872 3.75213 0
M  V30 77 H 8.0704 1.96453 5.1254 0
M  V30 78 H 8.3314 0.384237 4.40427 0
M  V30 79 N 7.3905 -1.2043 1.01659 0
M  V30 80 C 8.3205 -2.25466 0.607226 0
M  V30 81 C 9.3015 -1.65853 -0.377716 0
M  V30 82 O 10.4865 -1.92409 -0.263149 0
M  V30 83 C 7.6165 -3.47256 -0.0552949 0
M  V30 84 C 6.5705 -4.19462 0.850632 0
M  V30 85 C 5.8965 -5.34673 0.0538859 0
M  V30 86 C 7.1965 -4.75603 2.15868 0
M  V30 87 H 8.8905 -2.59962 1.48526 0
M  V30 88 H 6.4365 -1.2496 0.715605 0
M  V30 89 H 8.3895 -4.19917 -0.353233 0
M  V30 90 H 7.1135 -3.11924 -0.968045 0
M  V30 91 H 5.7725 -3.48667 1.13257 0
M  V30 92 H 5.4205 -4.95585 -0.860514 0
M  V30 93 H 5.1205 -5.83913 0.657192 0
M  V30 94 H 6.6445 -6.10138 -0.237598 0
M  V30 95 H 8.0585 -5.40083 1.92311 0
M  V30 96 H 6.4555 -5.3528 2.71284 0
M  V30 97 H 7.5255 -3.94346 2.82169 0
M  V30 98 N 8.8686 -0.792821 -1.36206 0
M  V30 99 C 10.1176 -0.363353 -1.984 0
M  V30 100 C 10.4306 1.07172 -1.63626 0
M  V30 101 O 11.6366 1.60362 -2.19081 0
M  V30 102 C 10.0926 -0.59872 -3.54885 0
M  V30 103 C 9.7006 -2.04543 -3.9858 0
M  V30 104 C 11.4446 -0.233926 -4.23855 0
M  V30 105 C 9.3516 -2.22727 -5.47856 0
M  V30 106 H 8.2816 -0.13212 -0.742334 0
M  V30 107 H 10.9326 -0.974935 -1.55458 0
M  V30 108 H 9.3146 0.0826222 -3.95914 0
M  V30 109 H 10.4886 -2.76345 -3.68741 0
M  V30 110 H 8.8036 -2.36879 -3.42458 0
M  V30 111 H 11.4006 -0.348027 -5.33566 0
M  V30 112 H 11.7436 0.818351 -4.08177 0
M  V30 113 H 12.2766 -0.868639 -3.882 0
M  V30 114 H 9.0156 -3.2635 -5.68486 0
M  V30 115 H 8.5356 -1.55434 -5.7931 0
M  V30 116 H 10.2146 -2.03607 -6.14128 0
M  V30 117 N 10.3467 1.47872 -0.545128 0
M  V30 118 C 11.5957 2.01695 -0.0145033 0
M  V30 119 C 11.9087 1.42609 1.33873 0
M  V30 120 O 13.1147 1.88021 1.95858 0
M  V30 121 C 11.5707 3.59892 0.0245068 0
M  V30 122 C 11.1787 4.27966 -1.32475 0
M  V30 123 C 12.9227 4.21507 0.50316 0
M  V30 124 C 10.8297 5.78136 -1.2455 0
M  V30 125 H 9.7597 0.753998 -0.00165172 0
M  V30 126 H 12.4107 1.69985 -0.691175 0
M  V30 127 H 10.7927 3.88509 0.766575 0
M  V30 128 H 11.9667 4.11003 -2.08357 0
M  V30 129 H 10.2817 3.78286 -1.74036 0
M  V30 130 H 12.8787 5.31538 0.580656 0
M  V30 131 H 13.2217 3.87855 1.51243 0
M  V30 132 H 13.7547 3.97376 -0.183681 0
M  V30 133 H 10.4937 6.16388 -2.23039 0
M  V30 134 H 10.0137 5.97469 -0.528282 0
M  V30 135 H 11.6927 6.40099 -0.942488 0
M  V30 136 N 11.8248 0.280983 1.55075 0
M  V30 137 C 13.0728 -0.333455 1.9933 0
M  V30 138 C 13.3938 -1.55937 1.17085 0
M  V30 139 O 12.6638 -1.94143 0.261805 0
M  V30 140 H 11.2438 -0.126197 0.736263 0
M  V30 141 H 13.9058 0.387678 1.91005 0
M  V30 142 H 13.0018 -0.619292 3.05894 0
M  V30 143 N 13.3029 -1.57598 0.00835791 0
M  V30 144 C 14.5279 -1.95617 -0.689103 0
M  V30 145 C 14.9529 -0.883753 -1.66046 0
M  V30 146 O 14.3109 0.157352 -1.80616 0
M  V30 147 C 14.3589 -3.32736 -1.38994 0
M  V30 148 O 13.4629 -3.27631 -2.50463 0
M  V30 149 H 12.8039 -0.638379 -0.182668 0
M  V30 150 H 15.3339 -2.045 0.064036 0
M  V30 151 H 15.3439 -3.68494 -1.75147 0
M  V30 152 H 14.0189 -4.1034 -0.677778 0
M  V30 153 H 12.5959 -3.03561 -2.16576 0
M  V30 154 N 14.781 0.264519 -1.55364 0
M  V30 155 C 16.029 0.993021 -1.76021 0
M  V30 156 C 16.35 1.86511 -0.569099 0
M  V30 157 O 15.62 1.91438 0.415735 0
M  V30 158 H 14.2 0.369639 -0.649135 0
M  V30 159 H 16.862 0.286707 -1.9278 0
M  V30 160 H 15.958 1.62502 -2.66457 0
M  V30 161 N 16.2591 1.48442 0.529413 0
M  V30 162 C 17.5071 1.56179 1.28267 0
M  V30 163 C 17.8281 0.237721 1.93546 0
M  V30 164 O 17.0981 -0.740779 1.81354 0
M  V30 165 H 15.6781 0.575367 0.476405 0
M  V30 166 H 18.3401 1.84909 0.61602 0
M  V30 167 H 17.4361 2.34312 2.06165 0
M  V30 168 N 17.7372 -0.778329 1.37039 0
M  V30 169 C 19.1532 -1.07796 1.17695 0
M  V30 170 C 19.3532 -2.01498 0.00860115 0
M  V30 171 O 18.4092 -2.43901 -0.653352 0
M  V30 172 C 19.7222 -1.68178 2.49272 0
M  V30 173 C 21.2702 -1.80467 2.55735 0
M  V30 174 C 21.7452 -2.44263 3.87427 0
M  V30 175 N 23.2362 -2.51721 3.88833 0
M  V30 176 C 23.9712 -3.01919 4.87476 0
M  V30 177 N 23.4672 -3.5234 5.96513 0
M  V30 178 N 25.2602 -3.00733 4.74885 0
M  V30 179 H 17.4112 -0.156032 2.11826 0
M  V30 180 H 19.6742 -0.131844 0.938787 0
M  V30 181 H 19.3802 -1.06796 3.35093 0
M  V30 182 H 19.2542 -2.67554 2.65885 0
M  V30 183 H 21.6412 -2.40984 1.70325 0
M  V30 184 H 21.7222 -0.798656 2.43013 0
M  V30 185 H 21.3662 -1.84388 4.73248 0
M  V30 186 H 21.2962 -3.45458 3.9745 0
M  V30 187 H 23.7872 -2.1603 3.10063 0
M  V30 188 H 24.1002 -3.89027 6.67741 0
M  V30 189 H 22.4452 -3.50462 6.00168 0
M  V30 190 H 25.6362 -2.60638 3.88826 0
M  V30 191 H 25.8092 -3.39545 5.51918 0
M  V30 192 N 19.2153 -1.21501 -1.00376 0
M  V30 193 C 20.1253 -0.991447 -2.12621 0
M  V30 194 C 21.1413 0.0568446 -1.73907 0
M  V30 195 O 22.3173 -0.13348 -2.00957 0
M  V30 196 C 19.3823 -0.560312 -3.42142 0
M  V30 197 C 18.4433 -1.68096 -3.95022 0
M  V30 198 C 17.6763 -1.2703 -5.18362 0
M  V30 199 O 17.8993 -0.144438 -5.70217 0
M  V30 200 O 16.8333 -2.08269 -5.64719 0
M  V30 201 H 20.6593 -1.93158 -2.34358 0
M  V30 202 H 18.2443 -0.999999 -1.10997 0
M  V30 203 H 20.1263 -0.329724 -4.20108 0
M  V30 204 H 18.8013 0.351089 -3.2179 0
M  V30 205 H 17.7083 -1.96597 -3.18278 0
M  V30 206 H 19.0413 -2.56983 -4.19786 0
M  V30 207 N 20.6934 1.19889 -1.02296 0
M  V30 208 C 21.6434 2.20777 -0.56934 0
M  V30 209 C 22.6274 1.56379 0.378741 0
M  V30 210 O 23.8194 1.75859 0.200673 0
M  V30 211 C 20.9484 3.43196 0.0845077 0
M  V30 212 C 20.0344 4.14749 -0.88566 0
M  V30 213 N 20.4254 4.62584 -2.04573 0
M  V30 214 C 18.7234 4.40347 -0.707835 0
M  V30 215 C 19.4244 5.17466 -2.65714 0
M  V30 216 N 18.4004 5.0791 -1.93723 0
M  V30 217 H 22.2024 2.55434 -1.45365 0
M  V30 218 H 19.7164 1.35897 -0.88915 0
M  V30 219 H 21.7134 4.14707 0.427067 0
M  V30 220 H 20.3734 3.10042 0.964574 0
M  V30 221 H 21.3844 4.57597 -2.4254 0
M  V30 222 H 18.0614 4.17317 0.12364 0
M  V30 223 H 19.4514 5.64808 -3.63925 0
M  V30 224 N 22.1715 0.800033 1.35784 0
M  V30 225 C 23.3995 0.389606 2.03199 0
M  V30 226 C 23.8145 -0.997375 1.60306 0
M  V30 227 O 23.1715 -1.64154 0.797481 0
M  V30 228 C 23.2225 0.455855 3.58614 0
M  V30 229 O 22.9435 1.78815 3.99946 0
M  V30 230 C 24.4445 0.0374032 4.43284 0
M  V30 231 H 21.6645 0.159132 0.651857 0
M  V30 232 H 24.2085 1.08183 1.73541 0
M  V30 233 H 22.3635 -0.188057 3.86943 0
M  V30 234 H 22.7775 1.74636 4.94573 0
M  V30 235 H 24.2515 0.134882 5.51835 0
M  V30 236 H 24.7285 -1.01651 4.27275 0
M  V30 237 H 25.3345 0.654215 4.20238 0
M  V30 238 N 23.6496 -1.47581 0.552962 0
M  V30 239 C 24.5796 -2.32762 -0.185451 0
M  V30 240 C 25.5606 -1.43527 -0.912905 0
M  V30 241 O 26.7456 -1.72388 -0.894201 0
M  V30 242 C 23.8756 -3.25219 -1.21859 0
M  V30 243 C 22.8296 -4.23661 -0.607864 0
M  V30 244 C 22.1556 -5.05413 -1.74533 0
M  V30 245 C 23.4556 -5.20481 0.435582 0
M  V30 246 H 25.1496 -2.94749 0.525684 0
M  V30 247 H 22.6956 -1.41738 0.254251 0
M  V30 248 H 24.6486 -3.8365 -1.7433 0
M  V30 249 H 23.3726 -2.61279 -1.95961 0
M  V30 250 H 22.0316 -3.66451 -0.104489 0
M  V30 251 H 21.6796 -4.3788 -2.47529 0
M  V30 252 H 21.3796 -5.72059 -1.34249 0
M  V30 253 H 22.9036 -5.66701 -2.27338 0
M  V30 254 H 24.3176 -5.733 -0.00290157 0
M  V30 255 H 22.7146 -5.95305 0.757067 0
M  V30 256 H 23.7846 -4.66217 1.33303 0
M  V30 257 N 25.1277 -0.289203 -1.54924 0
M  V30 258 C 26.0907 0.579144 -2.21762 0
M  V30 259 C 27.0907 1.07047 -1.1999 0
M  V30 260 O 28.2807 0.968384 -1.44803 0
M  V30 261 C 25.4127 1.80055 -2.8947 0
M  V30 262 H 26.6057 -0.00464908 -2.999 0
M  V30 263 H 24.1587 -0.0399306 -1.56249 0
M  V30 264 H 24.8937 2.42449 -2.15381 0
M  V30 265 H 24.6787 1.45602 -3.64064 0
M  V30 266 H 26.1687 2.41773 -3.40493 0
M  V30 267 N 26.6058 1.57591 -0.0167156 0
M  V30 268 C 27.8518 1.92399 0.659861 0
M  V30 269 C 28.2068 0.892561 1.70444 0
M  V30 270 O 27.4998 -0.0930755 1.91374 0
M  V30 271 C 27.6938 3.3172 1.33029 0
M  V30 272 C 27.5228 4.48319 0.352174 0
M  V30 273 C 26.2928 5.05281 -0.0434883 0
M  V30 274 C 28.4908 5.12831 -0.388474 0
M  V30 275 N 26.4728 6.05399 -1.01807 0
M  V30 276 C 27.8438 6.07934 -1.2172 0
M  V30 277 C 29.8988 4.95858 -0.450513 0
M  V30 278 C 28.6018 6.87891 -2.10235 0
M  V30 279 C 30.6278 5.76413 -1.32295 0
M  V30 280 C 29.9898 6.71123 -2.13948 0
M  V30 281 H 26.0888 0.752106 0.21415 0
M  V30 282 H 28.6728 1.94532 -0.0809846 0
M  V30 283 H 26.8438 3.3043 2.04134 0
M  V30 284 H 28.5758 3.5391 1.9629 0
M  V30 285 H 25.3308 4.7246 0.328384 0
M  V30 286 H 25.7548 6.60145 -1.50123 0
M  V30 287 H 30.3968 4.22472 0.166512 0
M  V30 288 H 28.1148 7.60591 -2.72997 0
M  V30 289 H 31.7008 5.65317 -1.37508 0
M  V30 290 H 30.5808 7.3237 -2.80364 0
M  V30 291 N 28.0839 -0.256276 1.55502 0
M  V30 292 C 29.0309 -1.31714 1.89526 0
M  V30 293 C 30.0009 -1.4828 0.748479 0
M  V30 294 O 31.1859 -1.62416 1.00128 0
M  V30 295 C 28.3259 -2.66933 2.18725 0
M  V30 296 C 27.4389 -2.58452 3.4616 0
M  V30 297 C 26.5739 -3.85961 3.64976 0
M  V30 298 C 25.6129 -3.72059 4.86044 0
M  V30 299 N 24.7499 -4.9144 5.01429 0
M  V30 300 H 29.5899 -1.01998 2.80001 0
M  V30 301 H 27.1269 -0.492413 1.38613 0
M  V30 302 H 29.0849 -3.4563 2.33657 0
M  V30 303 H 27.7149 -2.94816 1.31466 0
M  V30 304 H 26.7669 -1.71374 3.3961 0
M  V30 305 H 28.0789 -2.44085 4.34999 0
M  V30 306 H 27.2329 -4.73101 3.79816 0
M  V30 307 H 25.9719 -4.03215 2.74353 0
M  V30 308 H 24.9769 -2.83302 4.7119 0
M  V30 309 H 26.2019 -3.56309 5.78118 0
M  V30 310 H 24.1479 -5.09072 4.13741 0
M  V30 311 H 24.0649 -4.79668 5.84341 0
M  V30 312 H 25.3329 -5.80104 5.20672 0
M  V30 313 N 29.562 -1.4872 -0.521534 0
M  V30 314 C 30.492 -1.66771 -1.63431 0
M  V30 315 C 31.473 -0.516499 -1.62069 0
M  V30 316 O 32.658 -0.750013 -1.79132 0
M  V30 317 C 29.788 -1.71515 -3.01993 0
M  V30 318 C 28.742 -2.86222 -3.18216 0
M  V30 319 C 28.068 -2.76061 -4.57924 0
M  V30 320 C 29.368 -4.27419 -3.00184 0
M  V30 321 H 31.062 -2.59932 -1.48579 0
M  V30 322 H 28.608 -1.25089 -0.713358 0
M  V30 323 H 30.561 -1.82731 -3.7972 0
M  V30 324 H 29.285 -0.749393 -3.17886 0
M  V30 325 H 27.944 -2.74575 -2.42908 0
M  V30 326 H 27.592 -1.77437 -4.70665 0
M  V30 327 H 27.292 -3.53037 -4.69722 0
M  V30 328 H 28.816 -2.89256 -5.37739 0
M  V30 329 H 30.23 -4.39855 -3.67697 0
M  V30 330 H 28.627 -5.05458 -3.2347 0
M  V30 331 H 29.697 -4.43293 -1.96518 0
M  V30 332 N 31.0401 0.771051 -1.3745 0
M  V30 333 C 32.0031 1.86598 -1.33093 0
M  V30 334 C 33.0031 1.59076 -0.234845 0
M  V30 335 O 34.1931 1.67145 -0.490732 0
M  V30 336 C 31.3251 3.23747 -1.06773 0
M  V30 337 H 32.5181 1.91873 -2.30488 0
M  V30 338 H 30.0711 0.970876 -1.2249 0
M  V30 339 H 30.8061 3.24148 -0.099129 0
M  V30 340 H 30.5911 3.45115 -1.86112 0
M  V30 341 H 32.0811 4.03824 -1.06377 0
M  V30 342 N 32.5182 1.22032 0.997298 0
M  V30 343 C 33.4502 0.944263 2.08845 0
M  V30 344 C 34.4632 -0.0754663 1.62625 0
M  V30 345 O 35.6522 0.157994 1.77799 0
M  V30 346 C 32.7522 0.397723 3.36558 0
M  V30 347 C 31.9252 1.47362 4.11829 0
M  V30 348 C 30.9842 0.934951 5.17827 0
M  V30 349 O 30.0102 1.62016 5.45655 0
M  V30 350 N 31.2122 -0.245895 5.79979 0
M  V30 351 H 33.9772 1.88363 2.33109 0
M  V30 352 H 31.5382 1.12661 1.16272 0
M  V30 353 H 33.5302 0.0227771 4.04694 0
M  V30 354 H 32.1002 -0.446646 3.09393 0
M  V30 355 H 31.3202 2.02208 3.38386 0
M  V30 356 H 32.6082 2.19764 4.58891 0
M  V30 357 H 32.0062 -0.819475 5.59733 0
M  V30 358 H 30.5632 -0.562272 6.4937 0
M  V30 359 N 33.9963 -1.19345 1.0293 0
M  V30 360 C 35.2213 -1.93538 0.745511 0
M  V30 361 C 35.6463 -1.75007 -0.689511 0
M  V30 362 O 35.0043 -1.05265 -1.47611 0
M  V30 363 C 35.0523 -3.43336 1.10239 0
M  V30 364 O 34.1563 -4.11806 0.221289 0
M  V30 365 H 33.4973 -0.604193 0.275404 0
M  V30 366 H 36.0273 -1.5141 1.37609 0
M  V30 367 H 36.0373 -3.94004 1.05947 0
M  V30 368 H 34.7123 -3.56146 2.14786 0
M  V30 369 H 33.2893 -3.715 0.322842 0
M  V30 370 N 35.4744 -0.807222 -1.35358 0
M  V30 371 C 36.4244 -0.190706 -2.27201 0
M  V30 372 C 37.4084 0.635838 -1.47804 0
M  V30 373 O 38.6004 0.492991 -1.69996 0
M  V30 374 C 35.7294 0.659337 -3.36909 0
M  V30 375 C 34.8154 -0.176971 -4.23731 0
M  V30 376 N 35.2064 -1.24029 -4.90357 0
M  V30 377 C 33.5044 0.0412953 -4.45981 0
M  V30 378 C 34.2054 -1.75092 -5.54723 0
M  V30 379 N 33.1814 -1.05727 -5.33219 0
M  V30 380 H 36.9834 -1.0043 -2.76208 0
M  V30 381 H 34.4974 -0.648445 -1.48892 0
M  V30 382 H 36.4944 1.11706 -4.01656 0
M  V30 383 H 35.1544 1.47127 -2.89454 0
M  V30 384 H 36.1654 -1.62295 -4.91814 0
M  V30 385 H 32.8424 0.82232 -4.09322 0
M  V30 386 H 34.2324 -2.63963 -6.17878 0
M  V30 387 N 36.9525 1.47285 -0.560781 0
M  V30 388 C 37.9025 2.27073 0.205384 0
M  V30 389 C 38.8865 1.34569 0.882044 0
M  V30 390 O 40.0785 1.58899 0.77976 0
M  V30 391 C 37.2075 3.20414 1.23247 0
M  V30 392 C 36.2935 4.20399 0.559041 0
M  V30 393 N 36.6845 5.04423 -0.372927 0
M  V30 394 C 34.9825 4.38536 0.812522 0
M  V30 395 C 35.6835 5.76655 -0.764446 0
M  V30 396 N 34.6595 5.43471 -0.11848 0
M  V30 397 H 38.4615 2.89422 -0.511117 0
M  V30 398 H 35.9755 1.57868 -0.380975 0
M  V30 399 H 37.9725 3.76262 1.79534 0
M  V30 400 H 36.6325 2.59623 1.95002 0
M  V30 401 H 37.6435 5.1248 -0.747287 0
M  V30 402 H 34.3205 3.88913 1.51832 0
M  V30 403 H 35.7105 6.54238 -1.53045 0
M  V30 404 N 38.4306 0.297415 1.54768 0
M  V30 405 C 39.6766 -0.313376 2.00364 0
M  V30 406 C 40.0096 -1.53815 1.18553 0
M  V30 407 O 39.2846 -1.92739 0.261103 0
M  V30 408 C 39.5676 -0.673525 3.53745 0
M  V30 409 C 39.4206 0.560133 4.46299 0
M  V30 410 C 40.7396 -1.50143 4.13697 0
M  V30 411 H 37.8586 -0.112428 0.728374 0
M  V30 412 H 40.5006 0.4088 1.8555 0
M  V30 413 H 38.6506 -1.28881 3.665 0
M  V30 414 H 40.3226 1.19863 4.45455 0
M  V30 415 H 38.5656 1.19405 4.17043 0
M  V30 416 H 39.2366 0.26405 5.51368 0
M  V30 417 H 41.7126 -0.981588 4.04356 0
M  V30 418 H 40.5886 -1.72221 5.21182 0
M  V30 419 H 40.8496 -2.48952 3.65343 0
M  V30 420 N 39.9087 -1.5758 0.0250728 0
M  V30 421 C 40.8557 -2.09973 -0.958129 0
M  V30 422 C 41.8257 -1.00085 -1.3256 0
M  V30 423 O 43.0107 -1.27481 -1.41962 0
M  V30 424 C 40.1507 -2.62812 -2.2366 0
M  V30 425 C 39.2637 -3.86693 -1.92594 0
M  V30 426 C 38.3987 -4.27941 -3.14707 0
M  V30 427 C 37.4377 -5.44591 -2.79442 0
M  V30 428 N 36.5747 -5.81014 -3.94167 0
M  V30 429 H 41.4147 -2.937 -0.504428 0
M  V30 430 H 38.9517 -1.45172 -0.237392 0
M  V30 431 H 40.9097 -2.91536 -2.98434 0
M  V30 432 H 39.5397 -1.81922 -2.66654 0
M  V30 433 H 38.5917 -3.64723 -1.0808 0
M  V30 434 H 39.9037 -4.71547 -1.62619 0
M  V30 435 H 39.0577 -4.58079 -3.97804 0
M  V30 436 H 37.7967 -3.41845 -3.4784 0
M  V30 437 H 36.8017 -5.1415 -1.94755 0
M  V30 438 H 38.0267 -6.32382 -2.47528 0
M  V30 439 H 35.9727 -4.97874 -4.2715 0
M  V30 440 H 35.8897 -6.60498 -3.67801 0
M  V30 441 H 37.1577 -6.15756 -4.7798 0
M  V30 442 N 41.3868 0.248026 -1.55636 0
M  V30 443 C 42.3188 1.32993 -1.8667 0
M  V30 444 C 43.3318 1.44345 -0.752877 0
M  V30 445 O 44.5208 1.45715 -1.03098 0
M  V30 446 C 41.6208 2.70863 -2.03682 0
M  V30 447 C 40.7938 2.81792 -3.34532 0
M  V30 448 C 39.8528 4.005 -3.41301 0
M  V30 449 O 38.8788 3.9008 -4.14519 0
M  V30 450 N 40.0808 5.13618 -2.70512 0
M  V30 451 H 42.8458 1.06707 -2.8006 0
M  V30 452 H 40.4068 0.438129 -1.55859 0
M  V30 453 H 42.3988 3.48612 -2.05553 0
M  V30 454 H 40.9688 2.89862 -1.17041 0
M  V30 455 H 40.1888 1.90729 -3.44987 0
M  V30 456 H 41.4768 2.86043 -4.20781 0
M  V30 457 H 40.8748 5.24975 -2.10755 0
M  V30 458 H 39.4318 5.89505 -2.78077 0
M  V30 459 N 42.8649 1.48995 0.513639 0
M  V30 460 C 44.1109 1.58076 1.27042 0
M  V30 461 C 44.4439 0.261026 1.92438 0
M  V30 462 O 43.7189 -0.734393 1.80103 0
M  V30 463 C 44.0019 2.73091 2.34719 0
M  V30 464 C 43.8549 4.14821 1.73907 0
M  V30 465 C 45.1739 2.83796 3.36375 0
M  V30 466 H 42.2929 0.575391 0.460536 0
M  V30 467 H 44.9349 1.81232 0.570516 0
M  V30 468 H 43.0849 2.53479 2.94416 0
M  V30 469 H 44.7569 4.45917 1.18135 0
M  V30 470 H 42.9999 4.21058 1.0437 0
M  V30 471 H 43.6709 4.91147 2.51949 0
M  V30 472 H 46.1469 3.01611 2.86653 0
M  V30 473 H 45.0229 3.65971 4.09093 0
M  V30 474 H 45.2839 1.92624 3.9793 0
M  V30 475 N 44.343 -0.763751 1.37857 0
M  V30 476 C 45.273 -1.89103 1.36975 0
M  V30 477 C 46.254 -1.68439 0.237152 0
M  V30 478 O 47.439 -1.8918 0.438713 0
M  V30 479 C 44.569 -3.26496 1.18395 0
M  V30 480 C 43.523 -3.61741 2.28751 0
M  V30 481 C 42.849 -4.97762 1.95286 0
M  V30 482 C 44.149 -3.67665 3.70972 0
M  V30 483 H 45.843 -1.90099 2.31307 0
M  V30 484 H 43.389 -0.91319 1.11341 0
M  V30 485 H 45.342 -4.05003 1.16406 0
M  V30 486 H 44.066 -3.25955 0.205215 0
M  V30 487 H 42.725 -2.85547 2.29909 0
M  V30 488 H 42.373 -4.93769 0.959221 0
M  V30 489 H 42.073 -5.22313 2.69189 0
M  V30 490 H 43.597 -5.7866 1.94898 0
M  V30 491 H 45.011 -4.36307 3.719 0
M  V30 492 H 43.408 -4.03718 4.43995 0
M  V30 493 H 44.478 -2.68134 4.0402 0
M  V30 494 N 45.8211 -1.22559 -0.990812 0
M  V30 495 C 47.0671 -1.05297 -1.73322 0
M  V30 496 C 47.4001 0.410655 -1.89808 0
M  V30 497 O 46.6751 1.30439 -1.44277 0
M  V30 498 C 46.9581 -1.76713 -3.13759 0
M  V30 499 C 46.8111 -3.30684 -3.04907 0
M  V30 500 C 48.1301 -1.52121 -4.12974 0
M  V30 501 H 45.2491 -0.38392 -0.629106 0
M  V30 502 H 47.8911 -1.50926 -1.15418 0
M  V30 503 H 46.0411 -1.37924 -3.63193 0
M  V30 504 H 47.7131 -3.7893 -2.63077 0
M  V30 505 H 45.9561 -3.60253 -2.41661 0
M  V30 506 H 46.6271 -3.75833 -4.04294 0
M  V30 507 H 49.1031 -1.85819 -3.72304 0
M  V30 508 H 47.9791 -2.04582 -5.0935 0
M  V30 509 H 48.2401 -0.454257 -4.3976 0
M  V30 510 N 47.2992 1.18797 -1.03562 0
M  V30 511 C 48.2622 2.20464 -0.626769 0
M  V30 512 C 49.2622 1.57721 0.313173 0
M  V30 513 O 50.4522 1.73917 0.0992615 0
M  V30 514 C 47.5842 3.40802 0.0818498 0
M  V30 515 H 48.7772 2.58149 -1.5264 0
M  V30 516 H 46.3302 1.32593 -0.827578 0
M  V30 517 H 47.0652 3.08642 0.995518 0
M  V30 518 H 46.8502 3.8758 -0.593652 0
M  V30 519 H 48.3402 4.16092 0.354584 0
M  V30 520 N 48.7773 0.814389 1.34928 0
M  V30 521 C 50.1883 0.458364 1.80986 0
M  V30 522 C 50.5393 -1.02042 1.67577 0
M  V30 523 O 49.6643 -1.79352 1.21086 0
M  V30 524 C 50.2593 0.825212 3.28597 0
M  V30 525 C 48.8183 0.521677 3.72767 0
M  V30 526 C 47.9653 1.04668 2.56788 0
M  V30 527 H 50.9163 1.00533 1.22795 0
M  V30 528 H 50.9373 0.12571 3.80292 0
M  V30 529 H 50.4493 1.90154 3.38324 0
M  V30 530 H 48.5503 -0.545589 3.68584 0
M  V30 531 H 48.6633 1.05977 4.67232 0
M  V30 532 H 47.0273 0.468622 2.50352 0
M  V30 533 H 47.8103 2.12927 2.6929 0
M  V30 534 N 50.2554 -1.46986 0.568584 0
M  V30 535 C 51.5034 -2.02041 0.0487022 0
M  V30 536 C 51.8244 -1.44408 -1.31039 0
M  V30 537 O 51.0944 -0.623477 -1.85714 0
M  V30 538 H 49.6744 -0.746849 0.015014 0
M  V30 539 H 52.3364 -1.80257 0.741168 0
M  V30 540 H 51.4324 -3.12085 -0.0308961 0
M  V30 541 N 51.7335 -0.305618 -1.54608 0
M  V30 542 C 52.6815 0.584119 -2.25146 0
M  V30 543 C 53.6755 1.13326 -1.25911 0
M  V30 544 O 54.8815 1.08337 -1.43747 0
M  V30 545 H 51.2565 0.206983 -0.722954 0
M  V30 546 H 53.2275 -0.033291 -2.98381 0
M  V30 547 C 51.9765 1.74225 -3.009 0
M  V30 548 H 51.2995 1.32892 -3.77067 0
M  V30 549 H 52.7395 2.34077 -3.53531 0
M  V30 550 C 51.1985 2.64914 -2.0814 0
M  V30 551 O 51.7285 3.66137 -1.65246 0
M  V30 552 N 49.9345 2.3275 -1.74 0
M  V30 553 H 49.4815 1.50479 -2.09078 0
M  V30 554 H 49.4395 2.93694 -1.12211 0
M  V30 555 N 53.2116 1.57565 -0.0334293 0
M  V30 556 C 54.1746 2.09393 0.932048 0
M  V30 557 C 55.1746 1.00986 1.25134 0
M  V30 558 O 56.3646 1.27129 1.19096 0
M  V30 559 C 53.4966 2.56338 2.2473 0
M  V30 560 H 54.6896 2.95984 0.483085 0
M  V30 561 H 52.2426 1.54819 0.21468 0
M  V30 562 H 52.9776 1.7309 2.74245 0
M  V30 563 H 52.7626 3.35542 2.02865 0
M  V30 564 H 54.2526 2.96646 2.93923 0
M  V30 565 N 54.6897 -0.239769 1.55765 0
M  V30 566 C 55.9377 -0.964892 1.77579 0
M  V30 567 C 56.2587 -1.85582 0.598699 0
M  V30 568 O 55.5287 -1.92075 -0.385226 0
M  V30 569 H 54.1087 -0.359265 0.654933 0
M  V30 570 H 56.7707 -0.256001 1.93211 0
M  V30 571 H 55.8667 -1.58243 2.69009 0
M  V30 572 N 56.1678 -1.49265 -0.50573 0
M  V30 573 C 57.3958 -1.62215 -1.28429 0
M  V30 574 C 57.8108 -0.291697 -1.86533 0
M  V30 575 O 57.1678 0.722233 -1.67601 0
M  V30 576 C 57.2188 -2.68735 -2.41793 0
M  V30 577 O 56.9398 -3.96619 -1.86078 0
M  V30 578 C 58.4408 -2.92346 -3.3324 0
M  V30 579 H 55.6608 -0.546239 -0.389697 0
M  V30 580 H 58.2048 -1.95265 -0.607609 0
M  V30 581 H 56.3598 -2.38476 -3.053 0
M  V30 582 H 56.7738 -4.55256 -2.60465 0
M  V30 583 H 58.2478 -3.70623 -4.09075 0
M  V30 584 H 58.7248 -2.02081 -3.89948 0
M  V30 585 H 59.3308 -3.24003 -2.75503 0
M  V30 586 N 57.6459 0.756429 -1.3826 0
M  V30 587 C 58.6089 1.85176 -1.35065 0
M  V30 588 C 59.6089 1.58818 -0.251703 0
M  V30 589 O 60.7989 1.66615 -0.508433 0
M  V30 590 C 57.9309 3.22596 -1.10201 0
M  V30 591 H 59.1239 1.89417 -2.3251 0
M  V30 592 H 56.6769 0.95783 -1.23512 0
M  V30 593 H 57.4119 3.24025 -0.133504 0
M  V30 594 H 57.1969 3.43122 -1.89762 0
M  V30 595 H 58.6869 4.02673 -1.10654 0
M  V30 596 N 59.124 1.23083 0.984299 0
M  V30 597 C 60.364 1.07226 1.74017 0
M  V30 598 C 60.728 -0.384766 1.88105 0
M  V30 599 O 61.929 -0.664411 2.60459 0
M  V30 600 C 60.2 1.77348 3.10294 0
M  V30 601 S 61.759 1.77014 4.01512 0
M  V30 602 H 58.577 0.383819 0.598502 0
M  V30 603 H 61.179 1.56158 1.17622 0
M  V30 604 H 59.883 2.82506 2.97689 0
M  V30 605 H 59.414 1.28682 3.71759 0
M  V30 606 H 61.429 0.825956 4.89277 0
M  V30 607 N 60.6021 -1.18246 1.0419 0
M  V30 608 C 61.8271 -1.92736 0.765996 0
M  V30 609 C 62.2521 -1.75728 -0.67091 0
M  V30 610 O 61.6101 -1.06825 -1.46486 0
M  V30 611 C 61.6581 -3.42148 1.13875 0
M  V30 612 O 60.7621 -4.11548 0.264954 0
M  V30 613 H 60.1031 -0.601238 0.281797 0
M  V30 614 H 62.6331 -1.49942 1.39207 0
M  V30 615 H 62.6431 -3.92858 1.1012 0
M  V30 616 H 61.3181 -3.53848 2.18551 0
M  V30 617 H 59.8951 -3.71137 0.362226 0
M  V30 618 N 62.0802 -0.821533 -1.34494 0
M  V30 619 C 62.9902 -0.244355 -2.33324 0
M  V30 620 C 64.0062 0.620527 -1.62559 0
M  V30 621 O 65.1822 0.528754 -1.94335 0
M  V30 622 C 62.2472 0.585368 -3.41723 0
M  V30 623 C 61.3082 -0.301752 -4.28238 0
M  V30 624 C 60.5412 0.488466 -5.3146 0
M  V30 625 O 60.7642 1.72186 -5.4379 0
M  V30 626 O 59.6982 -0.12848 -6.01763 0
M  V30 627 H 63.5242 -1.06231 -2.84515 0
M  V30 628 H 61.1092 -0.583645 -1.37528 0
M  V30 629 H 62.9912 1.05747 -4.07916 0
M  V30 630 H 61.6662 1.38068 -2.92778 0
M  V30 631 H 60.5732 -0.821315 -3.64973 0
M  V30 632 H 61.9062 -1.06138 -4.8062 0
M  V30 633 N 63.5583 1.46682 -0.576371 0
M  V30 634 C 64.5053 2.30241 0.160499 0
M  V30 635 C 65.4753 1.40233 0.890162 0
M  V30 636 O 66.6603 1.69186 0.882084 0
M  V30 637 C 63.8003 3.24578 1.1723 0
M  V30 638 C 62.9133 4.29684 0.446736 0
M  V30 639 C 62.0483 5.11154 1.44551 0
M  V30 640 C 61.0873 6.08015 0.70599 0
M  V30 641 N 60.2243 6.82376 1.65251 0
M  V30 642 H 65.0643 2.92727 -0.558127 0
M  V30 643 H 62.6013 1.44272 -0.287056 0
M  V30 644 H 64.5593 3.77711 1.77172 0
M  V30 645 H 63.1893 2.63916 1.85872 0
M  V30 646 H 62.2413 3.79458 -0.267594 0
M  V30 647 H 63.5533 4.98626 -0.131686 0
M  V30 648 H 62.7073 5.68533 2.11791 0
M  V30 649 H 61.4463 4.42158 2.05786 0
M  V30 650 H 60.4513 5.49796 0.0197725 0
M  V30 651 H 61.6763 6.79028 0.09912 0
M  V30 652 H 59.6223 6.16094 2.25308 0
M  V30 653 H 59.5393 7.47556 1.12673 0
M  V30 654 H 60.8073 7.44316 2.31546 0
M  V30 655 N 65.0364 0.313813 1.54444 0
M  V30 656 C 66.2854 -0.292519 1.99568 0
M  V30 657 C 66.5984 -1.54011 1.20582 0
M  V30 658 O 67.8044 -2.22183 1.56035 0
M  V30 659 C 66.2604 -0.571752 3.55329 0
M  V30 660 C 65.8684 0.658229 4.43138 0
M  V30 661 C 67.6124 -1.13857 4.08946 0
M  V30 662 C 65.5194 0.351439 5.90355 0
M  V30 663 H 64.4494 -0.113079 0.745472 0
M  V30 664 H 67.1004 0.424518 1.78522 0
M  V30 665 H 65.4824 -1.34872 3.72325 0
M  V30 666 H 66.6564 1.43403 4.37918 0
M  V30 667 H 64.9714 1.14458 4.0036 0
M  V30 668 H 67.5684 -1.38257 5.16516 0
M  V30 669 H 67.9114 -2.08489 3.6033 0
M  V30 670 H 68.4444 -0.423015 3.95544 0
M  V30 671 H 65.1834 1.26667 6.43145 0
M  V30 672 H 64.7034 -0.386842 5.98551 0
M  V30 673 H 66.3824 -0.0423134 6.46986 0
M  V30 674 N 66.5145 -1.57545 0.0417849 0
M  V30 675 C 67.7395 -1.97035 -0.647455 0
M  V30 676 C 68.1645 -0.918775 -1.64135 0
M  V30 677 O 67.5225 0.119006 -1.80909 0
M  V30 678 C 67.5705 -3.35609 -1.31905 0
M  V30 679 O 66.6745 -3.3287 -2.43457 0
M  V30 680 H 66.0155 -0.64211 -0.169086 0
M  V30 681 H 68.5455 -2.04318 0.107399 0
M  V30 682 H 68.5555 -3.72126 -1.67291 0
M  V30 683 H 67.2305 -4.11685 -0.590586 0
M  V30 684 H 65.8075 -3.08087 -2.10088 0
M  V30 685 N 67.9926 0.231505 -1.5589 0
M  V30 686 C 68.9406 1.30649 -1.92441 0
M  V30 687 C 69.9346 1.49037 -0.805254 0
M  V30 688 O 71.1406 1.50329 -0.990007 0
M  V30 689 H 67.5156 0.437812 -0.611412 0
M  V30 690 H 69.4866 0.970973 -2.82161 0
M  V30 691 C 68.2356 2.65179 -2.24889 0
M  V30 692 H 67.5586 2.51835 -3.10514 0
M  V30 693 H 68.9986 3.39234 -2.54355 0
M  V30 694 C 67.4576 3.19439 -1.07054 0
M  V30 695 O 67.9876 4.00371 -0.326499 0
M  V30 696 N 66.1936 2.77675 -0.85703 0
M  V30 697 H 65.7406 2.11969 -1.46379 0
M  V30 698 H 65.6986 3.14321 -0.0703223 0
M  V30 699 N 69.4707 1.49531 0.497807 0
M  V30 700 C 70.6987 1.62893 1.27567 0
M  V30 701 C 71.1137 0.301585 1.86376 0
M  V30 702 O 70.4707 -0.713335 1.67982 0
M  V30 703 C 70.5217 2.70013 2.40364 0
M  V30 704 O 70.2427 3.976 1.83972 0
M  V30 705 C 71.7437 2.94109 3.31685 0
M  V30 706 H 68.9637 0.548298 0.386794 0
M  V30 707 H 71.5077 1.95584 0.597245 0
M  V30 708 H 69.6627 2.40092 3.04031 0
M  V30 709 H 70.0767 4.56631 2.58047 0
M  V30 710 H 71.5507 3.72788 4.07104 0
M  V30 711 H 72.0277 2.04147 3.88871 0
M  V30 712 H 72.6337 3.2546 2.73781 0
M  V30 713 N 70.9488 -0.749086 1.3866 0
M  V30 714 C 71.9118 -1.84457 1.36045 0
M  V30 715 C 72.9118 -1.58682 0.260122 0
M  V30 716 O 74.1018 -1.66343 0.517261 0
M  V30 717 C 71.2338 -3.22008 1.11911 0
M  V30 718 H 72.4268 -1.88182 2.33512 0
M  V30 719 H 69.9798 -0.951266 1.24019 0
M  V30 720 H 70.7148 -3.2395 0.150686 0
M  V30 721 H 70.4998 -3.42111 1.91579 0
M  V30 722 H 71.9898 -4.0208 1.12788 0
M  V30 723 N 72.4269 -1.23603 -0.977757 0
M  V30 724 C 73.6759 -1.06377 -1.71368 0
M  V30 725 C 73.9889 0.399062 -1.91486 0
M  V30 726 O 75.1949 0.691312 -2.62551 0
M  V30 727 C 73.6509 -1.85512 -3.08404 0
M  V30 728 C 73.2589 -3.36141 -2.96164 0
M  V30 729 C 75.0029 -1.76783 -3.85938 0
M  V30 730 C 72.9099 -4.07659 -4.28449 0
M  V30 731 H 71.8399 -0.394452 -0.642591 0
M  V30 732 H 74.4909 -1.47594 -1.09034 0
M  V30 733 H 72.8729 -1.37103 -3.71509 0
M  V30 734 H 74.0469 -3.92056 -2.42133 0
M  V30 735 H 72.3619 -3.45712 -2.32104 0
M  V30 736 H 74.9589 -2.27526 -4.83876 0
M  V30 737 H 75.3019 -0.731116 -4.0983 0
M  V30 738 H 75.8349 -2.22818 -3.2954 0
M  V30 739 H 72.5739 -5.11648 -4.09752 0
M  V30 740 H 72.0939 -3.5653 -4.82334 0
M  V30 741 H 73.7729 -4.141 -4.97122 0
M  V30 742 N 73.905 1.17692 -1.04816 0
M  V30 743 C 75.13 1.92327 -0.776207 0
M  V30 744 C 75.555 1.76082 0.661581 0
M  V30 745 O 74.913 1.076 1.45917 0
M  V30 746 C 74.961 3.41539 -1.15687 0
M  V30 747 O 74.065 4.11402 -0.286775 0
M  V30 748 H 73.406 0.599735 -0.284981 0
M  V30 749 H 75.936 1.49201 -1.4 0
M  V30 750 H 75.946 3.92269 -1.12202 0
M  V30 751 H 74.621 3.52684 -2.20425 0
M  V30 752 H 73.198 3.70939 -0.381903 0
M  V30 753 N 75.3831 0.828654 1.34056 0
M  V30 754 C 76.6321 0.415828 1.97367 0
M  V30 755 C 76.9451 -1.02796 1.6641 0
M  V30 756 O 78.1511 -1.54497 2.23255 0
M  V30 757 C 76.6071 0.692601 3.53173 0
M  V30 758 C 76.2151 2.15038 3.93017 0
M  V30 759 C 77.9591 0.346222 4.23086 0
M  V30 760 C 75.8661 2.37174 5.41758 0
M  V30 761 H 74.7961 0.151755 0.738571 0
M  V30 762 H 77.4471 1.01581 1.52819 0
M  V30 763 H 75.8291 0.0223764 3.95994 0
M  V30 764 H 77.0031 2.86024 3.61285 0
M  V30 765 H 75.3181 2.45875 3.36057 0
M  V30 766 H 77.9151 0.48937 5.32456 0
M  V30 767 H 78.2581 -0.709842 4.10204 0
M  V30 768 H 78.7911 0.971258 3.85761 0
M  V30 769 H 75.5301 3.41308 5.59633 0
M  V30 770 H 75.0501 1.70738 5.74986 0
M  V30 771 H 76.7291 2.19818 6.08514 0
M  V30 772 N 76.8612 -1.46375 0.584142 0
M  V30 773 C 78.0862 -2.07268 0.0740405 0
M  V30 774 C 78.5112 -1.42979 -1.22223 0
M  V30 775 O 77.8692 -0.514092 -1.73859 0
M  V30 776 C 77.9172 -3.60518 -0.0767769 0
M  V30 777 O 77.0212 -3.96533 -1.13292 0
M  V30 778 H 76.3622 -0.660961 0.0634524 0
M  V30 779 H 78.8922 -1.87991 0.807492 0
M  V30 780 H 78.9022 -4.07021 -0.282489 0
M  V30 781 H 77.5772 -4.06702 0.86986 0
M  V30 782 H 76.1542 -3.61738 -0.905553 0
M  V30 783 N 78.3393 -0.321999 -1.54275 0
M  V30 784 C 79.6163 0.335232 -1.92706 0
M  V30 785 C 79.9963 1.70006 -1.25145 0
M  V30 786 O 79.3443 2.25067 -0.394596 0
M  V30 787 C 79.5543 0.429008 -3.46353 0
M  V30 788 C 80.9023 0.690029 -4.18956 0
M  V30 789 O 81.9263 0.511992 -3.52501 0
M  V30 790 O 80.7853 1.03338 -5.36641 0
M  V30 791 H 77.8793 0.191143 -0.804608 0
M  V30 792 H 80.4253 -0.3716 -1.65581 0
M  V30 793 H 79.1973 -0.529611 -3.87699 0
M  V30 794 H 78.8203 1.18348 -3.79578 0
M  V30 795 N 79.8174 1.5752 -0.0501392 0
M  V30 796 C 80.7674 2.07981 0.934231 0
M  V30 797 C 81.7514 0.984745 1.27246 0
M  V30 798 O 82.9434 1.24809 1.25506 0
M  V30 799 C 80.0724 2.62751 2.20945 0
M  V30 800 C 79.1584 3.79225 1.89865 0
M  V30 801 N 79.5494 4.89036 1.29142 0
M  V30 802 C 77.8474 3.88111 2.19741 0
M  V30 803 C 78.5484 5.70084 1.15669 0
M  V30 804 N 77.5244 5.17659 1.65923 0
M  V30 805 H 81.3264 2.90277 0.460053 0
M  V30 806 H 78.8404 1.61665 0.15434 0
M  V30 807 H 80.8374 2.97205 2.9236 0
M  V30 808 H 79.4974 1.81894 2.6897 0
M  V30 809 H 80.5084 5.08854 0.963756 0
M  V30 810 H 77.1854 3.18194 2.70293 0
M  V30 811 H 78.5754 6.68395 0.685356 0
M  V30 812 N 81.2955 -0.223234 1.56011 0
M  V30 813 C 82.5235 -0.964812 1.83027 0
M  V30 814 C 82.9385 -1.78013 0.62904 0
M  V30 815 O 82.2955 -1.78008 -0.402414 0
M  V30 816 C 82.3465 -1.88373 3.08542 0
M  V30 817 O 82.0675 -1.10137 4.2403 0
M  V30 818 C 83.5685 -2.73934 3.48533 0
M  V30 819 H 80.7885 -0.282842 0.608475 0
M  V30 820 H 83.3325 -0.238971 2.03099 0
M  V30 821 H 81.4875 -2.56354 2.9045 0
M  V30 822 H 81.9015 -1.72501 4.95322 0
M  V30 823 H 83.3755 -3.34117 4.39397 0
M  V30 824 H 83.8525 -3.46244 2.70207 0
M  V30 825 H 84.4585 -2.11369 3.69057 0
M  V30 826 N 82.7736 -1.49793 -0.48987 0
M  V30 827 C 83.7366 -1.66752 -1.57246 0
M  V30 828 C 84.7366 -0.538867 -1.51502 0
M  V30 829 O 85.9266 -0.805545 -1.54456 0
M  V30 830 C 83.0586 -1.67528 -2.96896 0
M  V30 831 H 84.2516 -2.63321 -1.43534 0
M  V30 832 H 81.8046 -1.38992 -0.714914 0
M  V30 833 H 82.5396 -0.725837 -3.16073 0
M  V30 834 H 82.3246 -2.49504 -3.02473 0
M  V30 835 H 83.8146 -1.82667 -3.7553 0
M  V30 836 N 84.2517 0.741722 -1.39055 0
M  V30 837 C 85.1817 1.869 -1.39966 0
M  V30 838 C 86.1627 1.6804 -0.26392 0
M  V30 839 O 87.3477 1.88458 -0.468755 0
M  V30 840 C 84.4777 3.24572 -1.23574 0
M  V30 841 C 83.4317 3.58056 -2.34477 0
M  V30 842 C 82.7577 4.94593 -2.0318 0
M  V30 843 C 84.0577 3.61716 -3.76774 0
M  V30 844 H 85.7517 1.86395 -2.34302 0
M  V30 845 H 83.2977 0.895361 -1.1278 0
M  V30 846 H 85.2507 4.031 -1.22834 0
M  V30 847 H 83.9747 3.25587 -0.257045 0
M  V30 848 H 82.6337 2.81854 -2.34423 0
M  V30 849 H 82.2817 4.92181 -1.03765 0
M  V30 850 H 81.9817 5.17964 -2.77465 0
M  V30 851 H 83.5057 5.75486 -2.04079 0
M  V30 852 H 84.9197 4.30335 -3.78794 0
M  V30 853 H 83.3167 3.96603 -4.50362 0
M  V30 854 H 84.3867 2.61672 -4.08235 0
M  V30 855 N 85.7298 1.2412 0.971189 0
M  V30 856 C 86.6928 1.03156 2.04674 0
M  V30 857 C 87.6928 -0.00990322 1.60797 0
M  V30 858 O 88.8828 0.230729 1.72665 0
M  V30 859 C 86.0148 0.562765 3.36223 0
M  V30 860 H 87.2078 1.98614 2.24705 0
M  V30 861 H 84.7608 1.06293 1.14593 0
M  V30 862 H 85.4958 -0.395176 3.21883 0
M  V30 863 H 85.2808 1.31441 3.69413 0
M  V30 864 H 86.7708 0.437015 4.15307 0
M  V30 865 N 87.2079 -1.17134 1.05439 0
M  V30 866 C 88.1399 -2.2078 0.615539 0
M  V30 867 C 89.1529 -1.59584 -0.322001 0
M  V30 868 O 90.3419 -1.78133 -0.114344 0
M  V30 869 C 87.4419 -3.38691 -0.118938 0
M  V30 870 C 86.6149 -4.29454 0.829924 0
M  V30 871 C 85.6739 -5.26024 0.136258 0
M  V30 872 O 84.6999 -5.63952 0.77115 0
M  V30 873 N 85.9019 -5.69487 -1.1254 0
M  V30 874 H 88.6669 -2.59052 1.50705 0
M  V30 875 H 86.2279 -1.32058 0.936603 0
M  V30 876 H 88.2199 -4.00329 -0.593179 0
M  V30 877 H 86.7899 -2.98996 -0.91215 0
M  V30 878 H 86.0099 -3.65211 1.48373 0
M  V30 879 H 87.2979 -4.86984 1.47392 0
M  V30 880 H 86.6959 -5.4075 -1.6615 0
M  V30 881 H 85.2529 -6.33257 -1.54366 0
M  V30 882 N 88.686 -0.835752 -1.33615 0
M  V30 883 C 89.933 -0.429959 -1.97883 0
M  V30 884 C 90.261 1.01006 -1.66217 0
M  V30 885 O 89.516 1.72047 -0.93265 0
M  V30 886 C 89.815 -0.593925 -3.52431 0
M  V30 887 C 89.481 -2.00158 -4.04039 0
M  V30 888 C 88.143 -2.38662 -4.17844 0
M  V30 889 C 90.495 -2.92117 -4.31644 0
M  V30 890 C 87.823 -3.68435 -4.56588 0
M  V30 891 C 90.175 -4.21368 -4.71838 0
M  V30 892 C 88.839 -4.59833 -4.83849 0
M  V30 893 H 88.109 -0.157333 -0.724104 0
M  V30 894 H 90.756 -1.06217 -1.59343 0
M  V30 895 H 89.061 0.121619 -3.91611 0
M  V30 896 H 90.758 -0.260282 -4.00154 0
M  V30 897 H 87.348 -1.69252 -3.93766 0
M  V30 898 H 91.532 -2.63608 -4.20505 0
M  V30 899 H 86.788 -3.98046 -4.64079 0
M  V30 900 H 90.962 -4.92703 -4.92155 0
M  V30 901 H 88.589 -5.60438 -5.13627 0
M  V30 902 N 90.1641 1.46063 -0.591896 0
M  V30 903 C 91.4041 2.04228 -0.0838014 0
M  V30 904 C 91.7681 1.45231 1.25587 0
M  V30 905 O 92.9691 1.94653 1.85375 0
M  V30 906 C 91.2401 3.57389 -0.0286282 0
M  V30 907 S 92.7991 4.3678 0.420557 0
M  V30 908 H 89.6171 0.709762 -0.0419319 0
M  V30 909 H 92.2191 1.78983 -0.786465 0
M  V30 910 H 90.9231 3.97843 -1.00743 0
M  V30 911 H 90.4541 3.87185 0.69652 0
M  V30 912 H 92.4691 4.67131 1.67341 0
M  V30 913 N 91.6422 0.330177 1.54103 0
M  V30 914 C 92.5892 -0.532762 2.24567 0
M  V30 915 C 93.5592 -1.10635 1.23892 0
M  V30 916 O 94.7442 -1.14546 1.5259 0
M  V30 917 C 91.8842 -1.6845 3.01195 0
M  V30 918 C 90.9972 -1.13951 4.167 0
M  V30 919 C 90.1322 -2.25746 4.80845 0
M  V30 920 C 89.1712 -1.6853 5.88442 0
M  V30 921 N 88.3082 -2.74014 6.46421 0
M  V30 922 H 93.1482 0.0746905 2.97906 0
M  V30 923 H 90.6852 0.048632 1.4702 0
M  V30 924 H 92.6432 -2.36234 3.43874 0
M  V30 925 H 91.2732 -2.26314 2.30178 0
M  V30 926 H 90.3252 -0.35301 3.78758 0
M  V30 927 H 91.6372 -0.680892 4.94131 0
M  V30 928 H 90.7912 -3.01422 5.26526 0
M  V30 929 H 89.5302 -2.74947 4.0281 0
M  V30 930 H 88.5352 -0.913543 5.42157 0
M  V30 931 H 89.7602 -1.20198 6.68378 0
M  V30 932 H 87.7062 -3.22494 5.71256 0
M  V30 933 H 87.6232 -2.32735 7.19285 0
M  V30 934 H 88.8912 -3.49499 6.96757 0
M  V30 935 N 93.1203 -1.57491 0.0584922 0
M  V30 936 C 94.0303 -2.15448 -0.928414 0
M  V30 937 C 95.0463 -1.11416 -1.3365 0
M  V30 938 O 96.2223 -1.4362 -1.41193 0
M  V30 939 C 93.2873 -2.69393 -2.18239 0
M  V30 940 C 92.3483 -3.88249 -1.83196 0
M  V30 941 C 91.5813 -4.39613 -3.02616 0
M  V30 942 O 91.8043 -3.90023 -4.16219 0
M  V30 943 O 90.7383 -5.31111 -2.83204 0
M  V30 944 H 94.5643 -3.00112 -0.465483 0
M  V30 945 H 92.1493 -1.48499 -0.163826 0
M  V30 946 H 94.0313 -3.04026 -2.91798 0
M  V30 947 H 92.7063 -1.87796 -2.63656 0
M  V30 948 H 91.6133 -3.58492 -1.06931 0
M  V30 949 H 92.9463 -4.71098 -1.42573 0
M  V30 950 N 94.5984 0.214957 -1.56127 0
M  V30 951 C 95.5454 1.26642 -1.92952 0
M  V30 952 C 96.5154 1.46244 -0.78753 0
M  V30 953 O 97.7004 1.59704 -1.04399 0
M  V30 954 C 94.8404 2.6104 -2.25726 0
M  V30 955 C 93.9534 2.49183 -3.52891 0
M  V30 956 C 93.0884 3.76149 -3.7508 0
M  V30 957 C 92.1274 3.59041 -4.95738 0
M  V30 958 N 91.2644 4.77972 -5.14283 0
M  V30 959 H 96.1044 0.945384 -2.82607 0
M  V30 960 H 93.6414 0.455489 -1.3987 0
M  V30 961 H 95.5994 3.39313 -2.42739 0
M  V30 962 H 94.2294 2.91227 -1.39236 0
M  V30 963 H 93.2814 1.6231 -3.44034 0
M  V30 964 H 94.5934 2.32466 -4.41318 0
M  V30 965 H 93.7474 4.62865 -3.92226 0
M  V30 966 H 92.4864 3.95799 -2.84947 0
M  V30 967 H 91.4914 2.7071 -4.78535 0
M  V30 968 H 92.7164 3.40856 -5.87362 0
M  V30 969 H 90.6624 4.97923 -4.27093 0
M  V30 970 H 90.5794 4.64006 -5.96853 0
M  V30 971 H 91.8474 5.66096 -5.35869 0
M  V30 972 N 96.0765 1.50051 0.48192 0
M  V30 973 C 97.0235 1.68122 1.58125 0
M  V30 974 C 97.9935 0.522545 1.57666 0
M  V30 975 O 99.1785 0.751844 1.75362 0
M  V30 976 C 96.3185 1.77142 2.96167 0
M  V30 977 C 95.4315 3.0444 3.06497 0
M  V30 978 C 94.5665 3.04321 4.35387 0
M  V30 979 C 93.6055 4.26118 4.3942 0
M  V30 980 N 92.7425 4.238 5.59766 0
M  V30 981 H 97.5825 2.6198 1.42022 0
M  V30 982 H 95.1195 1.29877 0.690687 0
M  V30 983 H 97.0775 1.80352 3.76203 0
M  V30 984 H 95.7075 0.867329 3.1093 0
M  V30 985 H 94.7595 3.10752 2.19402 0
M  V30 986 H 96.0715 3.94426 3.05336 0
M  V30 987 H 95.2255 3.062 5.23762 0
M  V30 988 H 93.9645 2.12147 4.39141 0
M  V30 989 H 92.9695 4.24463 3.49444 0
M  V30 990 H 94.1945 5.19507 4.37366 0
M  V30 991 H 92.1405 3.34474 5.64326 0
M  V30 992 H 92.0575 5.07542 5.60301 0
M  V30 993 H 93.3255 4.2981 6.50295 0
M  V30 994 N 97.5546 -0.734337 1.39446 0
M  V30 995 C 98.8036 -1.48937 1.36017 0
M  V30 996 C 99.1166 -1.95557 -0.0409005 0
M  V30 997 O 100.323 -2.70779 -0.19778 0
M  V30 998 C 98.7786 -2.69125 2.38955 0
M  V30 999 C 98.3866 -2.29452 3.8478 0
M  V30 1000 C 100.131 -3.46944 2.44603 0
M  V30 1001 C 98.0376 -3.46366 4.79358 0
M  V30 1002 H 96.9676 -0.559296 0.505672 0
M  V30 1003 H 99.6186 -0.800983 1.65095 0
M  V30 1004 H 98.0006 -3.40041 2.02948 0
M  V30 1005 H 99.1746 -1.66077 4.29831 0
M  V30 1006 H 97.4896 -1.64723 3.82433 0
M  V30 1007 H 100.087 -4.33907 3.12456 0
M  V30 1008 H 100.43 -3.89454 1.47076 0
M  V30 1009 H 100.963 -2.83056 2.79507 0
M  V30 1010 H 97.7016 -3.08905 5.78151 0
M  V30 1011 H 97.2216 -4.08719 4.38986 0
M  V30 1012 H 98.9006 -4.12691 4.98292 0
M  V30 1013 N 99.0327 -1.24633 -0.964593 0
M  V30 1014 C 99.9427 -1.05859 -2.09359 0
M  V30 1015 C 100.959 0.00148855 -1.74 0
M  V30 1016 O 102.135 -0.197346 -2.00431 0
M  V30 1017 C 99.1997 -0.668879 -3.40187 0
M  V30 1018 C 98.2607 -1.80578 -3.89474 0
M  V30 1019 C 97.4937 -1.43457 -5.14058 0
M  V30 1020 O 97.7167 -0.325775 -5.69469 0
M  V30 1021 O 96.6507 -2.2613 -5.57807 0
M  V30 1022 H 100.477 -2.00516 -2.28094 0
M  V30 1023 H 98.0617 -1.03481 -1.0776 0
M  V30 1024 H 99.9437 -0.463211 -4.18846 0
M  V30 1025 H 98.6187 0.248536 -3.22744 0
M  V30 1026 H 97.5257 -2.06623 -3.11862 0
M  V30 1027 H 98.8587 -2.70208 -4.11398 0
M  V30 1028 N 100.511 1.16574 -1.06058 0
M  V30 1029 C 101.758 1.87047 -0.775873 0
M  V30 1030 C 102.086 1.81562 0.697534 0
M  V30 1031 O 101.341 1.22445 1.52662 0
M  V30 1032 C 101.64 3.36195 -1.21275 0
M  V30 1033 C 101.306 3.6188 -2.68986 0
M  V30 1034 C 99.9678 3.68599 -3.09335 0
M  V30 1035 C 102.32 3.72648 -3.64394 0
M  V30 1036 C 99.6478 3.83584 -4.43937 0
M  V30 1037 C 102 3.89154 -4.98741 0
M  V30 1038 C 100.664 3.94114 -5.3873 0
M  V30 1039 H 99.9338 0.684452 -0.283912 0
M  V30 1040 H 102.581 1.37853 -1.32925 0
M  V30 1041 H 100.886 3.87505 -0.578528 0
M  V30 1042 H 102.583 3.89103 -0.969542 0
M  V30 1043 H 99.1728 3.57281 -2.36744 0
M  V30 1044 H 103.357 3.66769 -3.34356 0
M  V30 1045 H 98.6128 3.85677 -4.74409 0
M  V30 1046 H 102.787 3.96427 -5.72554 0
M  V30 1047 H 100.414 4.05478 -6.43033 0
M  V30 1048 N 101.989 0.842826 1.3317 0
M  V30 1049 C 103.235 0.441099 1.97945 0
M  V30 1050 C 103.568 -0.998024 1.66593 0
M  V30 1051 O 102.843 -1.69839 0.947898 0
M  V30 1052 C 103.126 0.666841 3.53872 0
M  V30 1053 C 102.979 2.15352 3.94897 0
M  V30 1054 C 104.298 0.115544 4.39948 0
M  V30 1055 H 101.417 0.161739 0.719034 0
M  V30 1056 H 104.059 1.05907 1.57746 0
M  V30 1057 H 102.209 0.140828 3.88245 0
M  V30 1058 H 103.881 2.7447 3.70761 0
M  V30 1059 H 102.124 2.63653 3.44484 0
M  V30 1060 H 102.795 2.26221 5.03516 0
M  V30 1061 H 105.271 0.565213 4.12243 0
M  V30 1062 H 104.147 0.303152 5.48062 0
M  V30 1063 H 104.408 -0.980935 4.3108 0
M  V30 1064 N 103.467 -1.45747 0.599634 0
M  V30 1065 C 104.713 -2.02592 0.0918643 0
M  V30 1066 C 105.046 -1.46806 -1.27128 0
M  V30 1067 O 104.321 -0.639658 -1.83681 0
M  V30 1068 C 104.604 -3.60073 0.0443398 0
M  V30 1069 C 104.457 -4.26208 1.43759 0
M  V30 1070 C 105.776 -4.35309 -0.647608 0
M  V30 1071 H 102.895 -0.736175 0.034857 0
M  V30 1072 H 105.537 -1.73694 0.770081 0
M  V30 1073 H 103.687 -3.84823 -0.533224 0
M  V30 1074 H 105.359 -4.12668 2.06162 0
M  V30 1075 H 103.602 -3.84916 2.00056 0
M  V30 1076 H 104.273 -5.35069 1.35665 0
M  V30 1077 H 106.749 -4.15805 -0.156776 0
M  V30 1078 H 105.625 -5.45038 -0.649942 0
M  V30 1079 H 105.886 -4.07598 -1.71219 0
M  V30 1080 N 104.945 -0.338344 -1.53925 0
M  V30 1081 C 106.191 0.260143 -2.01125 0
M  V30 1082 C 106.524 1.50617 -1.22589 0
M  V30 1083 O 105.799 1.91979 -0.312113 0
M  V30 1084 C 106.082 0.579499 -3.55407 0
M  V30 1085 C 105.935 -0.678264 -4.44657 0
M  V30 1086 C 107.254 1.39122 -4.17532 0
M  V30 1087 H 104.373 0.0930772 -0.731099 0
M  V30 1088 H 107.015 -0.457852 -1.84401 0
M  V30 1089 H 105.165 1.19118 -3.69788 0
M  V30 1090 H 106.837 -1.31631 -4.42121 0
M  V30 1091 H 105.08 -1.3042 -4.13731 0
M  V30 1092 H 105.751 -0.410143 -5.50474 0
M  V30 1093 H 108.227 0.874035 -4.06817 0
M  V30 1094 H 107.103 1.58342 -5.25565 0
M  V30 1095 H 107.364 2.39178 -3.71815 0
M  V30 1096 N 106.423 1.57458 -0.0668435 0
M  V30 1097 C 107.671 1.92919 0.602214 0
M  V30 1098 C 107.992 0.947215 1.70449 0
M  V30 1099 O 107.262 -0.00544117 1.95899 0
M  V30 1100 H 105.842 0.71217 0.22544 0
M  V30 1101 H 108.504 1.94508 -0.123535 0
M  V30 1102 H 107.6 2.94589 1.03073 0
M  V30 1103 N 107.901 -0.206675 1.56239 0
M  V30 1104 C 109.312 -0.772383 1.69974 0
M  V30 1105 C 109.663 -1.84353 0.671436 0
M  V30 1106 O 108.788 -2.15695 -0.174491 0
M  V30 1107 C 109.383 -1.40779 3.08167 0
M  V30 1108 C 107.942 -1.92072 3.23706 0
M  V30 1109 C 107.089 -0.786347 2.65917 0
M  V30 1110 H 110.04 0.0182223 1.5869 0
M  V30 1111 H 110.061 -2.27696 3.04852 0
M  V30 1112 H 109.573 -0.627958 3.82986 0
M  V30 1113 H 107.674 -2.7281 2.53782 0
M  V30 1114 H 107.787 -2.09046 4.31087 0
M  V30 1115 H 106.151 -1.1976 2.24788 0
M  V30 1116 H 106.934 -0.0189416 3.43295 0
M  V30 1117 N 109.379 -1.50304 -0.473955 0
M  V30 1118 C 110.289 -1.7174 -1.5982 0
M  V30 1119 C 111.305 -0.600457 -1.63311 0
M  V30 1120 O 112.481 -0.878441 -1.81233 0
M  V30 1121 C 109.546 -1.80427 -2.96052 0
M  V30 1122 C 108.607 -3.04148 -3.02972 0
M  V30 1123 C 107.84 -3.12411 -4.32706 0
M  V30 1124 O 108.063 -2.27542 -5.23049 0
M  V30 1125 O 106.997 -4.05113 -4.45159 0
M  V30 1126 H 110.823 -2.67035 -1.44657 0
M  V30 1127 H 108.408 -1.34366 -0.653148 0
M  V30 1128 H 110.29 -1.88338 -3.7697 0
M  V30 1129 H 108.965 -0.883156 -3.11419 0
M  V30 1130 H 107.872 -3.0174 -2.21142 0
M  V30 1131 H 109.205 -3.95829 -2.92541 0
M  V30 1132 N 110.857 0.726932 -1.39834 0
M  V30 1133 C 111.82 1.82269 -1.38962 0
M  V30 1134 C 112.82 1.58248 -0.285334 0
M  V30 1135 O 114.01 1.65499 -0.54366 0
M  V30 1136 C 111.142 3.20186 -1.17019 0
M  V30 1137 H 112.335 1.84443 -2.36476 0
M  V30 1138 H 109.888 0.931416 -1.25516 0
M  V30 1139 H 110.623 3.23669 -0.202204 0
M  V30 1140 H 110.408 3.3902 -1.96998 0
M  V30 1141 H 111.898 4.00235 -1.1917 0
M  V30 1142 N 112.336 1.25143 0.95797 0
M  V30 1143 C 113.747 1.08851 1.51685 0
M  V30 1144 C 114.098 -0.33687 1.93286 0
M  V30 1145 O 113.223 -1.22644 1.7829 0
M  V30 1146 C 113.818 1.96978 2.75654 0
M  V30 1147 C 112.377 1.84881 3.27866 0
M  V30 1148 C 111.524 1.91329 2.0072 0
M  V30 1149 H 114.475 1.38478 0.77522 0
M  V30 1150 H 114.496 1.5078 3.4935 0
M  V30 1151 H 114.008 3.00712 2.45345 0
M  V30 1152 H 112.109 0.840182 3.63004 0
M  V30 1153 H 112.222 2.6951 3.96107 0
M  V30 1154 H 110.586 1.35174 2.15871 0
M  V30 1155 H 111.369 2.96661 1.72764 0
M  V30 1156 N 113.814 -1.1601 1.06675 0
M  V30 1157 C 114.744 -2.22688 0.702307 0
M  V30 1158 C 115.725 -1.67306 -0.307032 0
M  V30 1159 O 116.91 -1.93352 -0.181305 0
M  V30 1160 C 114.04 -3.47178 0.092038 0
M  V30 1161 C 112.994 -4.15477 1.02777 0
M  V30 1162 C 112.32 -5.33963 0.28061 0
M  V30 1163 C 113.62 -4.66019 2.35846 0
M  V30 1164 H 115.314 -2.53429 1.59419 0
M  V30 1165 H 112.86 -1.21813 0.767961 0
M  V30 1166 H 114.813 -4.21037 -0.174814 0
M  V30 1167 H 113.537 -3.15749 -0.834877 0
M  V30 1168 H 112.196 -3.43549 1.27944 0
M  V30 1169 H 111.844 -4.98788 -0.649545 0
M  V30 1170 H 111.544 -5.806 0.904258 0
M  V30 1171 H 113.068 -6.10596 0.021396 0
M  V30 1172 H 114.482 -5.3144 2.15045 0
M  V30 1173 H 112.879 -5.23293 2.93743 0
M  V30 1174 H 113.949 -3.82023 2.98641 0
M  V30 1175 N 115.292 -0.849877 -1.32721 0
M  V30 1176 C 116.255 -0.296122 -2.27279 0
M  V30 1177 C 117.255 0.541458 -1.5141 0
M  V30 1178 O 118.445 0.353658 -1.70572 0
M  V30 1179 C 115.577 0.581579 -3.35902 0
M  V30 1180 H 116.77 -1.13064 -2.77771 0
M  V30 1181 H 114.323 -0.62383 -1.43311 0
M  V30 1182 H 115.058 1.43809 -2.9067 0
M  V30 1183 H 114.843 -0.0178814 -3.92096 0
M  V30 1184 H 116.333 0.961951 -4.0637 0
M  V30 1185 N 116.77 1.45427 -0.607355 0
M  V30 1186 C 117.733 2.28974 0.101693 0
M  V30 1187 C 118.733 1.39754 0.795329 0
M  V30 1188 O 119.923 1.61878 0.643527 0
M  V30 1189 C 117.055 3.20768 1.15414 0
M  V30 1190 H 118.248 2.93147 -0.632844 0
M  V30 1191 H 115.801 1.51945 -0.366391 0
M  V30 1192 H 116.536 2.61395 1.91945 0
M  V30 1193 H 116.321 3.86489 0.66098 0
M  V30 1194 H 117.811 3.83589 1.65073 0
M  V30 1195 N 118.248 0.346503 1.53744 0
M  V30 1196 C 119.496 -0.248612 2.00565 0
M  V30 1197 C 119.817 -1.5083 1.23593 0
M  V30 1198 O 119.087 -1.92858 0.343912 0
M  V30 1199 H 117.667 -0.0948564 0.740953 0
M  V30 1200 H 120.329 0.468341 1.89189 0
M  V30 1201 H 119.425 -0.488994 3.08245 0
M  V30 1202 N 119.726 -1.57421 0.075193 0
M  V30 1203 C 120.975 -1.92794 -0.592731 0
M  V30 1204 C 121.288 -0.957478 -1.70563 0
M  V30 1205 O 122.494 -1.20417 -2.43335 0
M  V30 1206 C 120.95 -3.42495 -1.10569 0
M  V30 1207 C 120.558 -4.47994 -0.0236121 0
M  V30 1208 C 122.302 -3.86864 -1.74748 0
M  V30 1209 C 120.209 -5.88829 -0.550803 0
M  V30 1210 H 119.139 -0.719591 -0.225177 0
M  V30 1211 H 121.79 -1.82902 0.147978 0
M  V30 1212 H 120.172 -3.47471 -1.89947 0
M  V30 1213 H 121.346 -4.54637 0.751099 0
M  V30 1214 H 119.661 -4.13113 0.522159 0
M  V30 1215 H 122.258 -4.8947 -2.15229 0
M  V30 1216 H 122.601 -3.24417 -2.60882 0
M  V30 1217 H 123.134 -3.84504 -1.01986 0
M  V30 1218 H 119.873 -6.54929 0.273457 0
M  V30 1219 H 119.393 -5.85698 -1.29296 0
M  V30 1220 H 121.072 -6.38811 -1.02613 0
M  V30 1221 N 121.204 0.198386 -1.56346 0
M  V30 1222 C 122.45 0.920648 -1.80698 0
M  V30 1223 C 122.783 1.83045 -0.648697 0
M  V30 1224 O 122.058 1.91308 0.350925 0
M  V30 1225 C 122.341 1.73971 -3.15287 0
M  V30 1226 C 122.194 0.85485 -4.41602 0
M  V30 1227 C 123.513 2.71296 -3.46535 0
M  V30 1228 H 120.632 0.333261 -0.657348 0
M  V30 1229 H 123.274 0.188198 -1.89066 0
M  V30 1230 H 121.424 2.36416 -3.08285 0
M  V30 1231 H 123.096 0.245362 -4.60647 0
M  V30 1232 H 121.339 0.161398 -4.335 0
M  V30 1233 H 122.01 1.46286 -5.32264 0
M  V30 1234 H 124.486 2.18983 -3.53816 0
M  V30 1235 H 123.362 3.2569 -4.41834 0
M  V30 1236 H 123.623 3.5018 -2.69864 0
M  V30 1237 N 122.682 1.50554 0.465978 0
M  V30 1238 C 123.93 1.61479 1.21528 0
M  V30 1239 C 124.251 0.319596 1.92363 0
M  V30 1240 O 123.521 -0.663194 1.84333 0
M  V30 1241 H 122.101 0.595055 0.451573 0
M  V30 1242 H 124.763 1.87355 0.53704 0
M  V30 1243 H 123.859 2.42846 1.96042 0
M  V30 1244 N 124.16 -0.719506 1.40217 0
M  V30 1245 C 125.108 -1.85493 1.40339 0
M  V30 1246 C 126.102 -1.66995 0.284415 0
M  V30 1247 O 127.308 -1.74148 0.455252 0
M  V30 1248 H 123.683 -0.610857 0.438586 0
M  V30 1249 H 125.654 -1.82506 2.36081 0
M  V30 1250 C 124.403 -3.23321 1.27901 0
M  V30 1251 H 123.726 -3.38159 2.1328 0
M  V30 1252 H 125.166 -4.02914 1.32045 0
M  V30 1253 C 123.625 -3.36898 -0.0111355 0
M  V30 1254 O 124.155 -3.89674 -0.975538 0
M  V30 1255 N 122.361 -2.90492 -0.0793393 0
M  V30 1256 H 121.908 -2.47731 0.706183 0
M  V30 1257 H 121.866 -2.99955 -0.942038 0
M  V30 1258 N 125.638 -1.25649 -0.95132 0
M  V30 1259 C 126.568 -1.08808 -2.06599 0
M  V30 1260 C 127.549 0.00382547 -1.701 0
M  V30 1261 O 128.734 -0.166325 -1.93486 0
M  V30 1262 C 125.864 -0.709542 -3.39975 0
M  V30 1263 C 124.818 -1.75206 -3.90496 0
M  V30 1264 C 124.144 -1.22811 -5.20405 0
M  V30 1265 C 125.444 -3.15153 -4.16504 0
M  V30 1266 H 127.138 -2.02048 -2.20946 0
M  V30 1267 H 124.684 -0.972835 -1.06169 0
M  V30 1268 H 126.637 -0.578649 -4.17408 0
M  V30 1269 H 125.361 0.258556 -3.25575 0
M  V30 1270 H 124.02 -1.87145 -3.15234 0
M  V30 1271 H 123.668 -0.250145 -5.02378 0
M  V30 1272 H 123.368 -1.92492 -5.55176 0
M  V30 1273 H 124.892 -1.10968 -6.00432 0
M  V30 1274 H 126.306 -3.06349 -4.84586 0
M  V30 1275 H 124.703 -3.82333 -4.62538 0
M  V30 1276 H 125.773 -3.61966 -3.22658 0
M  V30 1277 N 127.117 1.15442 -1.07289 0
M  V30 1278 C 128.533 1.38201 -0.798288 0
M  V30 1279 C 128.733 1.92429 0.597769 0
M  V30 1280 O 127.789 2.12962 1.3566 0
M  V30 1281 C 129.102 2.35357 -1.87156 0
M  V30 1282 C 130.65 2.49021 -1.89624 0
M  V30 1283 C 131.125 3.49468 -2.96034 0
M  V30 1284 N 132.616 3.57003 -2.95132 0
M  V30 1285 C 133.351 4.34543 -3.74112 0
M  V30 1286 N 132.847 5.15421 -4.6294 0
M  V30 1287 N 134.64 4.29625 -3.62462 0
M  V30 1288 H 126.791 0.78584 -1.97328 0
M  V30 1289 H 129.054 0.408065 -0.855679 0
M  V30 1290 H 128.76 2.02626 -2.87464 0
M  V30 1291 H 128.634 3.35129 -1.73114 0
M  V30 1292 H 131.021 2.81051 -0.899687 0
M  V30 1293 H 131.102 1.4925 -2.07745 0
M  V30 1294 H 130.746 3.18173 -3.95889 0
M  V30 1295 H 130.676 4.48992 -2.75161 0
M  V30 1296 H 133.167 2.99276 -2.30743 0
M  V30 1297 H 133.48 5.7183 -5.19837 0
M  V30 1298 H 131.825 5.14729 -4.66989 0
M  V30 1299 H 135.016 3.65505 -2.92444 0
M  V30 1300 H 135.189 4.89807 -4.24256 0
M  V30 1301 N 128.595 0.856903 1.32268 0
M  V30 1302 C 129.82 0.474569 2.01897 0
M  V30 1303 C 130.245 -0.921766 1.63967 0
M  V30 1304 O 129.603 -1.60589 0.84148 0
M  V30 1305 C 129.651 0.623799 3.55164 0
M  V30 1306 O 128.755 -0.342459 4.10976 0
M  V30 1307 H 128.096 0.190422 0.63611 0
M  V30 1308 H 130.626 1.15672 1.68764 0
M  V30 1309 H 130.636 0.512169 4.04773 0
M  V30 1310 H 129.311 1.64202 3.82113 0
M  V30 1311 H 127.888 -0.18688 3.72431 0
M  V30 1312 N 130.073 -1.45103 0.615059 0
M  V30 1313 C 131.036 -2.29025 -0.0895485 0
M  V30 1314 C 132.036 -1.40174 -0.787906 0
M  V30 1315 O 133.226 -1.62217 -0.634933 0
M  V30 1316 C 130.358 -3.21376 -1.13711 0
M  V30 1317 H 131.551 -2.92807 0.648382 0
M  V30 1318 H 129.104 -1.51749 0.374444 0
M  V30 1319 H 129.839 -2.6241 -1.90556 0
M  V30 1320 H 129.624 -3.86834 -0.640475 0
M  V30 1321 H 131.114 -3.84459 -1.63036 0
M  V30 1322 N 131.551 -0.354651 -1.53558 0
M  V30 1323 C 132.799 0.237972 -2.00694 0
M  V30 1324 C 133.12 1.50173 -1.24391 0
M  V30 1325 O 132.39 1.92673 -0.354135 0
M  V30 1326 H 130.97 0.0909256 -0.741446 0
M  V30 1327 H 133.632 -0.478368 -1.88938 0
M  V30 1328 H 132.728 0.47264 -3.085 0
M  V30 1329 N 133.029 1.57378 -0.0835403 0
M  V30 1330 C 134.275 1.94217 0.583733 0
M  V30 1331 C 134.608 0.964653 1.68547 0
M  V30 1332 O 133.883 -0.00422258 1.945 0
M  V30 1333 C 134.166 3.41253 1.14972 0
M  V30 1334 C 134.019 4.49768 0.0538277 0
M  V30 1335 C 135.338 3.89352 2.05166 0
M  V30 1336 H 132.457 0.706233 0.210724 0
M  V30 1337 H 135.099 1.89392 -0.1519 0
M  V30 1338 H 133.249 3.45496 1.77665 0
M  V30 1339 H 134.921 4.57641 -0.579851 0
M  V30 1340 H 133.164 4.29432 -0.614068 0
M  V30 1341 H 133.835 5.49817 0.490452 0
M  V30 1342 H 136.311 3.87189 1.52393 0
M  V30 1343 H 135.187 4.92822 2.41698 0
M  V30 1344 H 135.448 3.27973 2.96456 0
M  V30 1345 N 134.507 -0.190092 1.56449 0
M  V30 1346 C 135.439 -1.25973 1.91477 0
M  V30 1347 C 136.452 -1.41452 0.805931 0
M  V30 1348 O 137.641 -1.41789 1.08435 0
M  V30 1349 C 134.741 -2.63117 2.13594 0
M  V30 1350 C 133.914 -2.69182 3.4476 0
M  V30 1351 C 132.973 -3.87557 3.5593 0
M  V30 1352 O 131.999 -3.74427 4.28711 0
M  V30 1353 N 133.201 -5.03224 2.89388 0
M  V30 1354 H 135.966 -0.962394 2.83828 0
M  V30 1355 H 133.527 -0.379981 1.57378 0
M  V30 1356 H 135.519 -3.40742 2.1835 0
M  V30 1357 H 134.089 -2.85319 1.27719 0
M  V30 1358 H 133.309 -1.77793 3.51828 0
M  V30 1359 H 134.597 -2.70229 4.31107 0
M  V30 1360 H 133.995 -5.16791 2.30094 0
M  V30 1361 H 132.552 -5.78778 2.99764 0
M  V30 1362 N 135.985 -1.50799 -0.457987 0
M  V30 1363 C 137.225 -1.64088 -1.21879 0
M  V30 1364 C 137.589 -0.339848 -1.88968 0
M  V30 1365 O 138.79 -0.348301 -2.66534 0
M  V30 1366 C 137.061 -2.79726 -2.2246 0
M  V30 1367 S 138.62 -3.13225 -3.07303 0
M  V30 1368 H 135.438 -0.578314 -0.41361 0
M  V30 1369 H 138.04 -1.88632 -0.513645 0
M  V30 1370 H 136.744 -3.72722 -1.71775 0
M  V30 1371 H 136.275 -2.57308 -2.97584 0
M  V30 1372 H 138.29 -2.58062 -4.23814 0
M  V30 1373 N 137.463 0.71206 -1.40597 0
M  V30 1374 C 138.71 1.47197 -1.39065 0
M  V30 1375 C 139.038 1.94499 0.00583891 0
M  V30 1376 O 138.293 1.68752 0.99102 0
M  V30 1377 C 138.592 2.71039 -2.32965 0
M  V30 1378 C 138.258 2.42484 -3.80148 0
M  V30 1379 C 136.92 2.34406 -4.20247 0
M  V30 1380 C 139.272 2.18598 -4.73143 0
M  V30 1381 C 136.6 2.00516 -5.51371 0
M  V30 1382 C 138.952 1.8622 -6.0457 0
M  V30 1383 C 137.616 1.76626 -6.43708 0
M  V30 1384 H 136.886 0.538634 -0.508876 0
M  V30 1385 H 139.533 0.815325 -1.73276 0
M  V30 1386 H 137.838 3.41558 -1.91951 0
M  V30 1387 H 139.535 3.29138 -2.29061 0
M  V30 1388 H 136.125 2.49659 -3.4838 0
M  V30 1389 H 140.309 2.23793 -4.42979 0
M  V30 1390 H 135.565 1.91628 -5.80593 0
M  V30 1391 H 139.739 1.66752 -6.76141 0
M  V30 1392 H 137.366 1.50133 -7.45228 0
M  V30 1393 N 138.941 1.26152 0.944643 0
M  V30 1394 C 140.189 1.11271 1.6871 0
M  V30 1395 C 140.51 -0.345166 1.91921 0
M  V30 1396 O 139.78 -1.24387 1.51343 0
M  V30 1397 H 138.36 0.408783 0.625224 0
M  V30 1398 H 141.022 1.58427 1.1352 0
M  V30 1399 H 140.118 1.62879 2.66227 0
M  V30 1400 N 140.419 -1.14872 1.07899 0
M  V30 1401 C 141.83 -1.67367 0.827363 0
M  V30 1402 C 142.181 -1.85236 -0.646693 0
M  V30 1403 O 141.306 -1.55974 -1.50004 0
M  V30 1404 C 141.901 -3.04016 1.49532 0
M  V30 1405 C 140.46 -3.53566 1.29106 0
M  V30 1406 C 139.607 -2.29161 1.56143 0
M  V30 1407 H 142.558 -0.990083 1.24028 0
M  V30 1408 H 142.579 -3.69219 0.919643 0
M  V30 1409 H 142.091 -2.90978 2.56814 0
M  V30 1410 H 140.192 -3.71835 0.238713 0
M  V30 1411 H 140.305 -4.34661 2.01511 0
M  V30 1412 H 138.669 -2.34978 0.982717 0
M  V30 1413 H 139.452 -2.18705 2.64619 0
M  V30 1414 N 141.898 -0.863906 -1.31812 0
M  V30 1415 C 143.126 -0.486111 -2.01108 0
M  V30 1416 C 143.541 0.919755 -1.64882 0
M  V30 1417 O 142.898 1.60162 -0.874893 0
M  V30 1418 C 142.949 -0.626435 -3.56031 0
M  V30 1419 O 142.67 -1.97693 -3.90959 0
M  V30 1420 C 144.171 -0.248857 -4.42601 0
M  V30 1421 H 141.391 -0.190052 -0.643523 0
M  V30 1422 H 143.935 -1.1634 -1.68182 0
M  V30 1423 H 142.09 0.00322717 -3.874 0
M  V30 1424 H 142.504 -1.98034 -4.85678 0
M  V30 1425 H 143.978 -0.398016 -5.50563 0
M  V30 1426 H 144.455 0.811489 -4.31638 0
M  V30 1427 H 145.061 -0.853971 -4.16638 0
M  V30 1428 N 143.376 1.44774 -0.622745 0
M  V30 1429 C 144.339 2.29069 0.0774015 0
M  V30 1430 C 145.339 1.4059 0.780461 0
M  V30 1431 O 146.529 1.62551 0.626322 0
M  V30 1432 C 143.661 3.21974 1.12006 0
M  V30 1433 H 144.854 2.92459 -0.663901 0
M  V30 1434 H 142.407 1.51548 -0.382486 0
M  V30 1435 H 143.142 2.63417 1.89162 0
M  V30 1436 H 142.927 3.87168 0.619951 0
M  V30 1437 H 144.417 3.85318 1.60995 0
M  V30 1438 N 144.854 0.36279 1.53368 0
M  V30 1439 C 145.764 -0.492994 2.29362 0
M  V30 1440 C 146.78 -1.09507 1.35219 0
M  V30 1441 O 147.956 -1.10662 1.68273 0
M  V30 1442 C 145.021 -1.61855 3.066 0
M  V30 1443 C 144.082 -1.04429 4.16405 0
M  V30 1444 C 143.315 -2.11621 4.89951 0
M  V30 1445 O 143.538 -3.32684 4.63333 0
M  V30 1446 O 142.472 -1.74835 5.75948 0
M  V30 1447 H 146.298 0.125331 3.03441 0
M  V30 1448 H 143.883 0.127253 1.48857 0
M  V30 1449 H 145.765 -2.27302 3.54841 0
M  V30 1450 H 144.44 -2.22233 2.3536 0
M  V30 1451 H 143.347 -0.353819 3.72423 0
M  V30 1452 H 144.68 -0.485113 4.89804 0
M  V30 1453 N 146.332 -1.57332 0.0918853 0
M  V30 1454 C 147.295 -2.12708 -0.85369 0
M  V30 1455 C 148.295 -1.05561 -1.213 0
M  V30 1456 O 149.485 -1.31461 -1.14296 0
M  V30 1457 C 146.617 -2.64503 -2.15061 0
M  V30 1458 H 147.81 -2.97573 -0.3729 0
M  V30 1459 H 145.363 -1.55509 -0.157072 0
M  V30 1460 H 146.098 -1.83149 -2.67632 0
M  V30 1461 H 145.883 -3.4284 -1.90272 0
M  V30 1462 H 147.373 -3.07351 -2.82711 0
M  V30 1463 N 147.81 0.181792 -1.56548 0
M  V30 1464 C 148.773 1.20894 -1.94724 0
M  V30 1465 C 149.773 1.37738 -0.829747 0
M  V30 1466 O 150.963 1.35323 -1.09697 0
M  V30 1467 C 148.095 2.57593 -2.23291 0
M  V30 1468 H 149.288 0.882275 -2.86629 0
M  V30 1469 H 146.841 0.423838 -1.50444 0
M  V30 1470 H 147.576 2.95291 -1.34067 0
M  V30 1471 H 147.361 2.46735 -3.04736 0
M  V30 1472 H 148.851 3.31637 -2.53785 0
M  V30 1473 N 149.288 1.51039 0.449983 0
M  V30 1474 C 150.22 1.67617 1.56324 0
M  V30 1475 C 151.233 0.557083 1.52972 0
M  V30 1476 O 152.422 0.830989 1.57977 0
M  V30 1477 C 149.522 1.66402 2.95235 0
M  V30 1478 C 148.695 2.9469 3.23229 0
M  V30 1479 C 147.754 2.85832 4.41799 0
M  V30 1480 O 146.78 3.59785 4.41071 0
M  V30 1481 N 147.982 2.00821 5.44657 0
M  V30 1482 H 150.747 2.63648 1.42512 0
M  V30 1483 H 148.308 1.48767 0.638737 0
M  V30 1484 H 150.3 1.58062 3.72557 0
M  V30 1485 H 148.87 0.780182 3.02708 0
M  V30 1486 H 148.09 3.16996 2.34323 0
M  V30 1487 H 149.378 3.79636 3.38754 0
M  V30 1488 H 148.776 1.40091 5.48079 0
M  V30 1489 H 147.333 1.98368 6.20881 0
M  V30 1490 N 150.766 -0.704594 1.40972 0
M  V30 1491 C 151.696 -1.83124 1.44872 0
M  V30 1492 C 152.677 -1.67281 0.30838 0
M  V30 1493 O 153.862 -1.87149 0.518556 0
M  V30 1494 C 150.992 -3.21181 1.32136 0
M  V30 1495 C 149.946 -3.51714 2.43888 0
M  V30 1496 C 149.272 -4.89032 2.16222 0
M  V30 1497 C 150.572 -3.516 3.86232 0
M  V30 1498 H 152.266 -1.80117 2.39161 0
M  V30 1499 H 149.812 -0.865145 1.15114 0
M  V30 1500 H 151.765 -3.99702 1.33479 0
M  V30 1501 H 150.489 -3.24791 0.343279 0
M  V30 1502 H 149.148 -2.75539 2.41813 0
M  V30 1503 H 148.796 -4.89256 1.16778 0
M  V30 1504 H 148.496 -5.10426 2.911 0
M  V30 1505 H 150.02 -5.69873 2.19265 0
M  V30 1506 H 151.434 -4.2014 3.9007 0
M  V30 1507 H 149.831 -3.84523 4.60719 0
M  V30 1508 H 150.901 -2.50757 4.15029 0
M  V30 1509 N 152.244 -1.26651 -0.937939 0
M  V30 1510 C 153.154 -1.10276 -2.07066 0
M  V30 1511 C 154.17 -0.0354197 -1.73964 0
M  V30 1512 O 155.346 -0.239816 -1.99967 0
M  V30 1513 C 152.411 -0.740887 -3.38691 0
M  V30 1514 C 151.472 -1.88799 -3.85556 0
M  V30 1515 C 150.705 -1.54329 -5.10899 0
M  V30 1516 O 150.928 -0.446494 -5.6865 0
M  V30 1517 O 149.862 -2.37911 -5.52885 0
M  V30 1518 H 153.688 -2.05309 -2.23789 0
M  V30 1519 H 151.273 -1.05743 -1.0554 0
M  V30 1520 H 153.155 -0.55195 -4.1777 0
M  V30 1521 H 151.83 0.180022 -3.23199 0
M  V30 1522 H 150.737 -2.13191 -3.07409 0
M  V30 1523 H 152.07 -2.78874 -4.05574 0
M  V30 1524 N 153.722 1.14298 -1.08507 0
M  V30 1525 C 154.947 1.8976 -0.837001 0
M  V30 1526 C 155.372 1.78097 0.605228 0
M  V30 1527 O 154.73 1.12188 1.4242 0
M  V30 1528 C 154.778 3.37685 -1.26495 0
M  V30 1529 O 153.882 4.10281 -0.417514 0
M  V30 1530 H 153.223 0.590365 -0.303917 0
M  V30 1531 H 155.753 1.44672 -1.44676 0
M  V30 1532 H 155.763 3.88501 -1.24625 0
M  V30 1533 H 154.438 3.45492 -2.31534 0
M  V30 1534 H 153.015 3.69536 -0.499722 0
M  V30 1535 N 155.201 0.870884 1.31352 0
M  V30 1536 C 156.426 0.495957 2.01383 0
M  V30 1537 C 156.851 -0.904324 1.64935 0
M  V30 1538 O 156.209 -1.59687 0.858466 0
M  V30 1539 C 156.257 0.661433 3.54482 0
M  V30 1540 O 155.361 -0.298851 4.11316 0
M  V30 1541 H 154.702 0.197158 0.634054 0
M  V30 1542 H 157.232 1.17455 1.67527 0
M  V30 1543 H 157.242 0.555072 4.04207 0
M  V30 1544 H 155.917 1.68246 3.8035 0
M  V30 1545 H 154.494 -0.147368 3.72609 0
M  V30 1546 N 156.679 -1.44442 0.630414 0
M  V30 1547 C 157.626 -2.30678 -0.0749355 0
M  V30 1548 C 158.596 -1.4344 -0.837502 0
M  V30 1549 O 159.781 -1.72343 -0.818684 0
M  V30 1550 C 156.921 -3.28706 -1.05103 0
M  V30 1551 C 156.034 -4.31046 -0.286954 0
M  V30 1552 C 155.169 -5.16167 -1.2548 0
M  V30 1553 C 154.208 -6.10216 -0.479843 0
M  V30 1554 N 153.345 -6.88039 -1.39811 0
M  V30 1555 H 158.185 -2.90454 0.666386 0
M  V30 1556 H 155.722 -1.43107 0.340404 0
M  V30 1557 H 157.68 -3.84027 -1.63031 0
M  V30 1558 H 156.31 -2.70632 -1.75949 0
M  V30 1559 H 155.362 -3.78203 0.408243 0
M  V30 1560 H 156.674 -4.97794 0.316657 0
M  V30 1561 H 155.828 -5.76002 -1.90544 0
M  V30 1562 H 154.567 -4.49491 -1.89233 0
M  V30 1563 H 153.572 -5.49491 0.184295 0
M  V30 1564 H 154.797 -6.78928 0.152965 0
M  V30 1565 H 152.743 -6.24032 -2.02287 0
M  V30 1566 H 152.66 -7.51223 -0.848508 0
M  V30 1567 H 153.928 -7.52397 -2.03762 0
M  V30 1568 N 158.157 -0.370918 -1.53173 0
M  V30 1569 C 159.573 -0.0200818 -1.59587 0
M  V30 1570 C 159.773 1.46279 -1.38581 0
M  V30 1571 O 158.829 2.22506 -1.19363 0
M  V30 1572 C 160.142 -0.4808 -2.96831 0
M  V30 1573 C 161.69 -0.435477 -3.09956 0
M  V30 1574 C 162.165 -0.872092 -4.4962 0
M  V30 1575 N 163.656 -0.827364 -4.55751 0
M  V30 1576 C 164.391 -1.13683 -5.62018 0
M  V30 1577 N 163.887 -1.51584 -6.76014 0
M  V30 1578 N 165.68 -1.05927 -5.52029 0
M  V30 1579 H 157.831 -1.33652 -1.65079 0
M  V30 1580 H 160.094 -0.546634 -0.774529 0
M  V30 1581 H 159.8 -1.51577 -3.1736 0
M  V30 1582 H 159.674 0.129796 -3.76977 0
M  V30 1583 H 162.061 0.590371 -2.89134 0
M  V30 1584 H 162.142 -1.08164 -2.31806 0
M  V30 1585 H 161.786 -1.89608 -4.71181 0
M  V30 1586 H 161.716 -0.203127 -5.26208 0
M  V30 1587 H 164.207 -0.548216 -3.73902 0
M  V30 1588 H 164.52 -1.73609 -7.53047 0
M  V30 1589 H 162.865 -1.55454 -6.77391 0
M  V30 1590 H 166.056 -0.762321 -4.61851 0
M  V30 1591 H 166.229 -1.30378 -6.34749 0
M  V30 1592 N 159.635 1.57281 -0.100228 0
M  V30 1593 C 160.882 1.94537 0.562268 0
M  V30 1594 C 161.21 0.982315 1.67871 0
M  V30 1595 O 160.465 0.00280936 1.957 0
M  V30 1596 C 160.764 3.38305 1.15259 0
M  V30 1597 C 160.43 4.50618 0.159409 0
M  V30 1598 C 159.092 4.81066 -0.113741 0
M  V30 1599 C 161.444 5.18615 -0.518461 0
M  V30 1600 C 158.772 5.76835 -1.07137 0
M  V30 1601 C 161.124 6.15412 -1.46459 0
M  V30 1602 C 159.788 6.44262 -1.74592 0
M  V30 1603 H 159.058 0.711863 0.205748 0
M  V30 1604 H 161.705 1.90679 -0.17715 0
M  V30 1605 H 160.01 3.38766 1.96836 0
M  V30 1606 H 161.707 3.64435 1.67297 0
M  V30 1607 H 158.297 4.2689 0.382491 0
M  V30 1608 H 162.481 4.95264 -0.320581 0
M  V30 1609 H 157.737 5.975 -1.29628 0
M  V30 1610 H 161.911 6.67194 -1.99564 0
M  V30 1611 H 159.538 7.1828 -2.48953 0
M  V30 1612 N 161.113 -0.173488 1.56642 0
M  V30 1613 C 162.076 -1.19859 1.95362 0
M  V30 1614 C 163.076 -1.37296 0.83704 0
M  V30 1615 O 164.266 -1.34739 1.10413 0
M  V30 1616 C 161.398 -2.56405 2.24654 0
M  V30 1617 H 162.591 -0.867062 2.87092 0
M  V30 1618 H 160.144 -0.415853 1.50666 0
M  V30 1619 H 160.879 -2.94576 1.35631 0
M  V30 1620 H 160.664 -2.45115 3.06041 0
M  V30 1621 H 162.154 -3.30287 2.5554 0
M  V30 1622 N 162.591 -1.51276 -0.441967 0
M  V30 1623 C 163.538 -1.72256 -1.53612 0
M  V30 1624 C 164.508 -0.564164 -1.56225 0
M  V30 1625 O 165.693 -0.798074 -1.73307 0
M  V30 1626 C 162.833 -1.84932 -2.91366 0
M  V30 1627 C 161.946 -3.12459 -2.98317 0
M  V30 1628 C 161.081 -3.15758 -4.27166 0
M  V30 1629 C 160.12 -4.37619 -4.27967 0
M  V30 1630 N 159.257 -4.38493 -5.48333 0
M  V30 1631 H 164.097 -2.65654 -1.35026 0
M  V30 1632 H 161.634 -1.31662 -0.656009 0
M  V30 1633 H 163.592 -1.90263 -3.7129 0
M  V30 1634 H 162.222 -0.949461 -3.08521 0
M  V30 1635 H 161.274 -3.1646 -2.11086 0
M  V30 1636 H 162.586 -4.02382 -2.94771 0
M  V30 1637 H 161.74 -3.19979 -5.15459 0
M  V30 1638 H 160.479 -2.23715 -4.33362 0
M  V30 1639 H 159.484 -4.33579 -3.38067 0
M  V30 1640 H 160.709 -5.30921 -4.23438 0
M  V30 1641 H 158.655 -3.49318 -5.55259 0
M  V30 1642 H 158.572 -5.22219 -5.46647 0
M  V30 1643 H 159.84 -4.469 -6.38671 0
M  V30 1644 N 164.069 0.697108 -1.41344 0
M  V30 1645 C 164.979 1.84088 -1.45427 0
M  V30 1646 C 165.995 1.70545 -0.34501 0
M  V30 1647 O 167.171 1.92488 -0.592492 0
M  V30 1648 C 164.236 3.20056 -1.33286 0
M  V30 1649 C 163.297 3.45718 -2.54514 0
M  V30 1650 C 162.53 4.75199 -2.42944 0
M  V30 1651 O 162.753 5.51579 -1.45318 0
M  V30 1652 O 161.687 5.0161 -3.32672 0
M  V30 1653 H 165.513 1.836 -2.41919 0
M  V30 1654 H 163.098 0.849966 -1.22866 0
M  V30 1655 H 164.98 4.01236 -1.28794 0
M  V30 1656 H 163.655 3.2123 -0.39909 0
M  V30 1657 H 162.562 2.64474 -2.64583 0
M  V30 1658 H 163.895 3.49356 -3.46715 0
M  V30 1659 N 165.547 1.27147 0.931209 0
M  V30 1660 C 166.794 1.13278 1.67852 0
M  V30 1661 C 167.122 -0.32204 1.91815 0
M  V30 1662 O 166.377 -1.25224 1.50391 0
M  V30 1663 C 166.676 1.8579 3.05314 0
M  V30 1664 C 166.342 3.35657 3.01073 0
M  V30 1665 C 165.004 3.76536 2.99623 0
M  V30 1666 C 167.356 4.31299 2.92627 0
M  V30 1667 C 164.684 5.11426 2.87506 0
M  V30 1668 C 167.036 5.66242 2.82051 0
M  V30 1669 C 165.7 6.06418 2.7895 0
M  V30 1670 H 164.97 0.414515 0.614214 0
M  V30 1671 H 167.617 1.57712 1.08624 0
M  V30 1672 H 165.922 1.33854 3.68226 0
M  V30 1673 H 167.619 1.72491 3.62005 0
M  V30 1674 H 164.209 3.03146 3.02986 0
M  V30 1675 H 168.393 4.00692 2.92848 0
M  V30 1676 H 163.649 5.41705 2.83489 0
M  V30 1677 H 167.823 6.40026 2.74481 0
M  V30 1678 H 165.45 7.10895 2.69318 0
M  V30 1679 N 167.025 -1.13721 1.09112 0
M  V30 1680 C 167.958 -2.18094 0.67158 0
M  V30 1681 C 168.936 -1.59414 -0.320299 0
M  V30 1682 O 170.12 -1.87183 -0.222444 0
M  V30 1683 C 167.247 -3.38698 -0.0111189 0
M  V30 1684 C 166.293 -4.15966 0.942055 0
M  V30 1685 S 167.126 -4.7604 2.45246 0
M  V30 1686 C 168.282 -5.99994 1.78208 0
M  V30 1687 H 168.515 -2.53344 1.55577 0
M  V30 1688 H 166.048 -1.24967 0.906789 0
M  V30 1689 H 168.006 -4.08559 -0.398716 0
M  V30 1690 H 166.667 -3.01756 -0.871905 0
M  V30 1691 H 165.86 -5.02318 0.411396 0
M  V30 1692 H 165.462 -3.51745 1.2709 0
M  V30 1693 H 167.754 -6.68441 1.10424 0
M  V30 1694 H 168.697 -6.57662 2.62463 0
M  V30 1695 H 169.105 -5.50432 1.25238 0
M  V30 1696 N 168.503 -0.877838 -1.30888 0
M  V30 1697 C 169.78 -0.413052 -1.91189 0
M  V30 1698 C 170.16 1.1056 -1.79832 0
M  V30 1699 O 169.508 1.93771 -1.21099 0
M  V30 1700 C 169.718 -0.903191 -3.3711 0
M  V30 1701 C 171.066 -0.93395 -4.14201 0
M  V30 1702 O 172.09 -0.849373 -3.45925 0
M  V30 1703 O 170.949 -1.05772 -5.36167 0
M  V30 1704 H 168.043 -0.125035 -0.817493 0
M  V30 1705 H 170.589 -0.966269 -1.39504 0
M  V30 1706 H 169.361 -1.94692 -3.39427 0
M  V30 1707 H 168.984 -0.328732 -3.96239 0
M  V30 1708 N 169.982 1.44106 -0.638065 0
M  V30 1709 C 171.398 1.56672 -0.304286 0
M  V30 1710 C 171.598 1.6244 1.19228 0
M  V30 1711 O 170.654 1.57121 1.9766 0
M  V30 1712 C 171.967 2.83503 -1.00231 0
M  V30 1713 C 173.515 2.97226 -0.981116 0
M  V30 1714 C 173.99 4.26868 -1.65974 0
M  V30 1715 N 175.481 4.33698 -1.62666 0
M  V30 1716 C 176.216 5.32745 -2.12063 0
M  V30 1717 N 175.712 6.38157 -2.6968 0
M  V30 1718 N 177.505 5.24299 -2.02651 0
M  V30 1719 H 169.656 1.38605 -1.60942 0
M  V30 1720 H 171.919 0.664661 -0.675965 0
M  V30 1721 H 171.625 2.85251 -2.0573 0
M  V30 1722 H 171.499 3.73251 -0.54439 0
M  V30 1723 H 173.886 2.95027 0.0654188 0
M  V30 1724 H 173.967 2.08808 -1.47759 0
M  V30 1725 H 173.611 4.29826 -2.70576 0
M  V30 1726 H 173.541 5.14156 -1.13804 0
M  V30 1727 H 176.032 3.58138 -1.20606 0
M  V30 1728 H 176.345 7.10029 -3.05087 0
M  V30 1729 H 174.69 6.38823 -2.73734 0
M  V30 1730 H 177.881 4.4086 -1.57353 0
M  V30 1731 H 178.054 6.01334 -2.41457 0
M  V30 1732 N 171.46 0.379036 1.52974 0
M  V30 1733 C 172.41 -0.477772 2.22938 0
M  V30 1734 C 173.394 -1.03792 1.22948 0
M  V30 1735 O 174.586 -0.965725 1.48333 0
M  V30 1736 C 171.715 -1.60994 3.03209 0
M  V30 1737 C 170.801 -1.06203 4.10587 0
M  V30 1738 N 171.192 -0.238214 5.05239 0
M  V30 1739 C 169.49 -1.33554 4.25534 0
M  V30 1740 C 170.191 0.0633235 5.81666 0
M  V30 1741 N 169.167 -0.537901 5.40932 0
M  V30 1742 H 172.969 0.158295 2.93473 0
M  V30 1743 H 170.483 0.187778 1.61311 0
M  V30 1744 H 172.48 -2.23607 3.5186 0
M  V30 1745 H 171.14 -2.24893 2.34207 0
M  V30 1746 H 172.151 0.123695 5.17752 0
M  V30 1747 H 168.828 -1.97632 3.6776 0
M  V30 1748 H 170.218 0.730161 6.67921 0
M  V30 1749 N 172.938 -1.57226 0.108567 0
M  V30 1750 C 174.186 -1.94448 -0.550853 0
M  V30 1751 C 174.507 -0.992074 -1.67878 0
M  V30 1752 O 173.777 -0.0465 -1.95845 0
M  V30 1753 H 172.357 -0.717897 -0.206479 0
M  V30 1754 H 175.019 -1.94112 0.175062 0
M  V30 1755 H 174.115 -2.97218 -0.952259 0
M  V30 1756 N 174.416 0.165178 -1.56732 0
M  V30 1757 C 175.665 0.879143 -1.81532 0
M  V30 1758 C 175.978 1.83144 -0.686842 0
M  V30 1759 O 177.184 2.58823 -0.819944 0
M  V30 1760 C 175.64 1.61388 -3.21686 0
M  V30 1761 C 175.248 0.704904 -4.4242 0
M  V30 1762 C 176.992 2.3157 -3.55774 0
M  V30 1763 C 174.899 1.44022 -5.73595 0
M  V30 1764 H 173.829 0.332033 -0.676957 0
M  V30 1765 H 176.48 0.132008 -1.83025 0
M  V30 1766 H 174.862 2.40599 -3.14529 0
M  V30 1767 H 176.036 -0.0506815 -4.60772 0
M  V30 1768 H 174.351 0.112419 -4.16248 0
M  V30 1769 H 176.948 2.8719 -4.51028 0
M  V30 1770 H 177.291 3.07201 -2.8095 0
M  V30 1771 H 177.824 1.59297 -3.64513 0
M  V30 1772 H 174.563 0.72612 -6.51466 0
M  V30 1773 H 174.083 2.16898 -5.5921 0
M  V30 1774 H 175.762 1.98606 -6.15764 0
M  V30 1775 N 175.894 1.51508 0.433938 0
M  V30 1776 C 177.305 1.56784 1.01369 0
M  V30 1777 C 177.656 0.393349 1.92217 0
M  V30 1778 O 176.781 -0.489441 2.10792 0
M  V30 1779 C 177.376 2.84144 1.8452 0
M  V30 1780 C 175.935 2.9198 2.37539 0
M  V30 1781 C 175.082 2.51482 1.16843 0
M  V30 1782 H 178.033 1.57236 0.215081 0
M  V30 1783 H 178.054 2.68098 2.70007 0
M  V30 1784 H 177.566 3.69607 1.18373 0
M  V30 1785 H 175.667 2.10955 3.0713 0
M  V30 1786 H 175.78 3.95704 2.70103 0
M  V30 1787 H 174.144 2.04758 1.51481 0
M  V30 1788 H 174.927 3.39293 0.523015 0
M  V30 1789 N 177.372 -0.689602 1.41712 0
M  V30 1790 C 178.6 -1.47827 1.44758 0
M  V30 1791 C 179.015 -1.88721 0.0545703 0
M  V30 1792 O 178.372 -1.57176 -0.927463 0
M  V30 1793 C 178.423 -2.73698 2.3616 0
M  V30 1794 O 178.144 -2.34524 3.7004 0
M  V30 1795 C 179.645 -3.67389 2.48072 0
M  V30 1796 H 176.865 -0.455357 0.49284 0
M  V30 1797 H 179.409 -0.848574 1.86063 0
M  V30 1798 H 177.564 -3.32891 1.98148 0
M  V30 1799 H 177.978 -3.15701 4.18847 0
M  V30 1800 H 179.452 -4.52475 3.16181 0
M  V30 1801 H 179.929 -4.12284 1.51388 0
M  V30 1802 H 180.535 -3.14097 2.86746 0
M  V30 1803 N 178.85 -1.27639 -0.924453 0
M  V30 1804 C 179.813 -1.10681 -2.00705 0
M  V30 1805 C 180.813 -0.0497823 -1.60723 0
M  V30 1806 O 182.003 -0.294654 -1.7169 0
M  V30 1807 C 179.135 -0.687164 -3.33902 0
M  V30 1808 H 180.328 -2.06817 -2.17179 0
M  V30 1809 H 177.881 -1.10473 -1.10569 0
M  V30 1810 H 178.616 0.275439 -3.23128 0
M  V30 1811 H 178.401 -1.45061 -3.6428 0
M  V30 1812 H 179.891 -0.590853 -4.13399 0
M  V30 1813 N 180.328 1.1314 -1.09713 0
M  V30 1814 C 181.26 2.18343 -0.697056 0
M  V30 1815 C 182.273 1.60669 0.262551 0
M  V30 1816 O 183.462 1.78435 0.0481527 0
M  V30 1817 C 180.562 3.38899 -0.00684728 0
M  V30 1818 C 179.735 4.26078 -0.988741 0
M  V30 1819 C 178.794 5.25155 -0.331394 0
M  V30 1820 O 177.82 5.60701 -0.979926 0
M  V30 1821 N 179.022 5.73271 0.913261 0
M  V30 1822 H 181.787 2.5328 -1.60216 0
M  V30 1823 H 179.348 1.28491 -0.984971 0
M  V30 1824 H 181.34 4.02255 0.444191 0
M  V30 1825 H 179.91 3.02175 0.800551 0
M  V30 1826 H 179.13 3.59453 -1.61826 0
M  V30 1827 H 180.418 4.81178 -1.65364 0
M  V30 1828 H 179.816 5.46544 1.45966 0
M  V30 1829 H 178.373 6.3855 1.30757 0
M  V30 1830 N 181.806 0.884767 1.30421 0
M  V30 1831 C 183.052 0.513218 1.96819 0
M  V30 1832 C 183.407 -0.927347 1.68577 0
M  V30 1833 O 182.7 -1.64644 0.979941 0
M  V30 1834 C 182.894 0.724318 3.49983 0
M  V30 1835 C 182.723 2.18385 3.93113 0
M  V30 1836 C 181.493 2.82839 4.18725 0
M  V30 1837 C 183.691 3.15763 4.05953 0
M  V30 1838 N 181.673 4.1939 4.48314 0
M  V30 1839 C 183.044 4.37387 4.39423 0
M  V30 1840 C 185.099 3.11555 3.88379 0
M  V30 1841 C 183.802 5.55343 4.5715 0
M  V30 1842 C 185.828 4.28782 4.07308 0
M  V30 1843 C 185.19 5.49172 4.41123 0
M  V30 1844 H 181.289 0.237123 0.745182 0
M  V30 1845 H 183.873 1.14246 1.57658 0
M  V30 1846 H 182.044 0.124565 3.882 0
M  V30 1847 H 183.776 0.31969 4.03435 0
M  V30 1848 H 180.531 2.33708 4.11919 0
M  V30 1849 H 180.955 4.89911 4.67243 0
M  V30 1850 H 185.597 2.19576 3.61312 0
M  V30 1851 H 183.315 6.47826 4.8306 0
M  V30 1852 H 186.901 4.26995 3.95179 0
M  V30 1853 H 185.781 6.38371 4.55469 0
M  V30 1854 N 183.284 -1.43765 0.645699 0
M  V30 1855 C 184.231 -2.30745 -0.0504648 0
M  V30 1856 C 185.201 -1.4432 -0.822241 0
M  V30 1857 O 186.386 -1.73202 -0.800358 0
M  V30 1858 C 183.526 -3.29802 -1.0161 0
M  V30 1859 C 182.639 -4.31326 -0.241219 0
M  V30 1860 C 181.774 -5.17469 -1.19998 0
M  V30 1861 C 180.813 -6.10691 -0.415094 0
M  V30 1862 N 179.95 -6.89483 -1.32506 0
M  V30 1863 H 184.79 -2.8973 0.697155 0
M  V30 1864 H 182.327 -1.42738 0.355563 0
M  V30 1865 H 184.285 -3.85734 -1.58949 0
M  V30 1866 H 182.915 -2.72483 -1.73069 0
M  V30 1867 H 181.967 -3.77749 0.448334 0
M  V30 1868 H 183.279 -4.9743 0.369437 0
M  V30 1869 H 182.433 -5.7799 -1.84424 0
M  V30 1870 H 181.172 -4.51473 -1.84455 0
M  V30 1871 H 180.177 -5.49265 0.242565 0
M  V30 1872 H 181.402 -6.78727 0.224966 0
M  V30 1873 H 179.348 -6.26142 -1.95657 0
M  V30 1874 H 179.265 -7.52081 -0.768783 0
M  V30 1875 H 180.533 -7.54516 -1.9577 0
M  V30 1876 N 184.763 -0.387143 -1.52771 0
M  V30 1877 C 185.726 0.436939 -2.24997 0
M  V30 1878 C 186.726 0.991991 -1.26555 0
M  V30 1879 O 187.916 0.874335 -1.50669 0
M  V30 1880 C 185.048 1.61281 -3.00335 0
M  V30 1881 H 186.241 -0.195365 -2.99263 0
M  V30 1882 H 183.794 -0.139218 -1.55679 0
M  V30 1883 H 184.529 2.2826 -2.30364 0
M  V30 1884 H 184.314 1.22154 -3.72587 0
M  V30 1885 H 185.804 2.19629 -3.5518 0
M  V30 1886 N 186.241 1.57166 -0.116904 0
M  V30 1887 C 187.488 1.95123 0.541603 0
M  V30 1888 C 187.816 1.00006 1.6682 0
M  V30 1889 O 187.071 0.0235658 1.95686 0
M  V30 1890 C 187.37 3.39508 1.11664 0
M  V30 1891 C 187.036 4.50762 0.111606 0
M  V30 1892 C 185.698 4.80918 -0.164758 0
M  V30 1893 C 188.05 5.18036 -0.573438 0
M  V30 1894 C 185.378 5.75666 -1.13249 0
M  V30 1895 C 187.73 6.13824 -1.52978 0
M  V30 1896 C 186.394 6.42374 -1.81415 0
M  V30 1897 H 185.664 0.714005 0.198187 0
M  V30 1898 H 188.311 1.9048 -0.197365 0
M  V30 1899 H 186.616 3.40835 1.93232 0
M  V30 1900 H 188.313 3.66189 1.63422 0
M  V30 1901 H 184.903 4.27272 0.337192 0
M  V30 1902 H 189.087 4.94896 -0.373092 0
M  V30 1903 H 184.343 5.96092 -1.35958 0
M  V30 1904 H 188.517 6.65039 -2.06629 0
M  V30 1905 H 186.144 7.15599 -2.56557 0
M  V30 1906 N 187.719 -0.156864 1.56817 0
M  V30 1907 C 188.947 -0.886316 1.86955 0
M  V30 1908 C 189.362 -1.75185 0.703975 0
M  V30 1909 O 188.719 -1.79555 -0.326552 0
M  V30 1910 C 188.77 -1.75117 3.16253 0
M  V30 1911 O 188.491 -0.920537 4.2832 0
M  V30 1912 C 189.992 -2.58905 3.59837 0
M  V30 1913 H 187.212 -0.25678 0.619923 0
M  V30 1914 H 189.756 -0.152615 2.0393 0
M  V30 1915 H 187.911 -2.43805 3.01062 0
M  V30 1916 H 188.325 -1.51337 5.02192 0
M  V30 1917 H 189.799 -3.1518 4.53172 0
M  V30 1918 H 190.276 -3.34472 2.84649 0
M  V30 1919 H 190.882 -1.95526 3.7769 0
M  V30 1920 N 189.197 -1.51736 -0.425897 0
M  V30 1921 C 190.144 -1.73875 -1.51776 0
M  V30 1922 C 191.114 -0.580702 -1.55618 0
M  V30 1923 O 192.299 -0.81641 -1.72451 0
M  V30 1924 C 189.439 -1.88012 -2.89388 0
M  V30 1925 C 188.552 -3.15606 -2.94986 0
M  V30 1926 C 187.687 -3.20271 -4.23793 0
M  V30 1927 C 186.726 -4.42134 -4.23302 0
M  V30 1928 N 185.863 -4.44284 -5.43651 0
M  V30 1929 H 190.703 -2.67071 -1.32201 0
M  V30 1930 H 188.24 -1.32351 -0.642008 0
M  V30 1931 H 190.198 -1.9419 -3.69251 0
M  V30 1932 H 188.828 -0.98213 -3.07496 0
M  V30 1933 H 187.88 -3.18681 -2.07717 0
M  V30 1934 H 189.192 -4.05486 -2.90486 0
M  V30 1935 H 188.346 -3.25428 -5.12036 0
M  V30 1936 H 187.085 -2.28299 -4.30965 0
M  V30 1937 H 186.09 -4.3714 -3.3345 0
M  V30 1938 H 187.315 -5.35382 -4.17783 0
M  V30 1939 H 185.261 -3.55188 -5.51523 0
M  V30 1940 H 185.178 -5.27988 -5.41078 0
M  V30 1941 H 186.446 -4.53649 -6.33895 0
M  V30 1942 N 190.675 0.682077 -1.42076 0
M  V30 1943 C 192.086 1.26246 -1.37546 0
M  V30 1944 C 192.437 1.96092 -0.0651481 0
M  V30 1945 O 191.562 1.99587 0.836297 0
M  V30 1946 C 192.157 2.29594 -2.49143 0
M  V30 1947 C 190.716 2.83175 -2.47969 0
M  V30 1948 C 189.863 1.57395 -2.28303 0
M  V30 1949 H 192.814 0.475937 -1.51395 0
M  V30 1950 H 192.835 3.11175 -2.18976 0
M  V30 1951 H 192.347 1.78729 -3.44496 0
M  V30 1952 H 190.448 3.3818 -1.56413 0
M  V30 1953 H 190.561 3.32687 -3.44755 0
M  V30 1954 H 188.925 1.83699 -1.76428 0
M  V30 1955 H 189.708 1.08507 -3.25701 0
M  V30 1956 N 192.153 1.28127 0.917671 0
M  V30 1957 C 193.063 1.13556 2.05286 0
M  V30 1958 C 194.079 0.0630914 1.73886 0
M  V30 1959 O 195.255 0.271598 1.9956 0
M  V30 1960 C 192.32 0.794676 3.3747 0
M  V30 1961 C 191.381 1.94909 3.82504 0
M  V30 1962 C 190.614 1.62437 5.0838 0
M  V30 1963 O 190.837 0.536905 5.67867 0
M  V30 1964 O 189.771 2.46677 5.4903 0
M  V30 1965 H 193.597 2.08844 2.20495 0
M  V30 1966 H 191.182 1.07409 1.03845 0
M  V30 1967 H 193.064 0.618344 4.16839 0
M  V30 1968 H 191.739 -0.128581 3.23445 0
M  V30 1969 H 190.646 2.18055 3.03978 0
M  V30 1970 H 191.979 2.85291 4.01086 0
M  V30 1971 N 193.631 -1.12557 1.10312 0
M  V30 1972 C 194.541 -2.21841 0.763142 0
M  V30 1973 C 195.557 -1.72354 -0.238801 0
M  V30 1974 O 196.733 -2.01249 -0.0778746 0
M  V30 1975 C 193.798 -3.46131 0.198632 0
M  V30 1976 C 192.859 -4.10464 1.25769 0
M  V30 1977 C 192.092 -5.28821 0.72002 0
M  V30 1978 O 192.315 -5.6859 -0.453993 0
M  V30 1979 O 191.249 -5.83437 1.47935 0
M  V30 1980 H 195.075 -2.53312 1.67532 0
M  V30 1981 H 192.66 -1.20867 0.878157 0
M  V30 1982 H 194.542 -4.2125 -0.112401 0
M  V30 1983 H 193.217 -3.16338 -0.686419 0
M  V30 1984 H 192.124 -3.3713 1.62156 0
M  V30 1985 H 193.457 -4.44408 2.11571 0
M  V30 1986 N 195.109 -0.891671 -1.2995 0
M  V30 1987 C 196.072 -0.36828 -2.26222 0
M  V30 1988 C 197.072 0.493014 -1.53056 0
M  V30 1989 O 198.262 0.299213 -1.71611 0
M  V30 1990 C 195.394 0.47442 -3.37583 0
M  V30 1991 H 196.587 -1.21844 -2.74033 0
M  V30 1992 H 194.14 -0.669107 -1.41254 0
M  V30 1993 H 194.875 1.34489 -2.95099 0
M  V30 1994 H 194.66 -0.142615 -3.91841 0
M  V30 1995 H 196.15 0.83218 -4.09224 0
M  V30 1996 N 196.587 1.43421 -0.653314 0
M  V30 1997 C 197.827 2.03689 -0.170346 0
M  V30 1998 C 198.191 1.50427 1.19314 0
M  V30 1999 O 199.392 2.0234 1.76952 0
M  V30 2000 C 197.663 3.56946 -0.180183 0
M  V30 2001 S 199.222 4.38171 0.234925 0
M  V30 2002 H 196.04 0.707345 -0.0719976 0
M  V30 2003 H 198.642 1.75486 -0.86167 0
M  V30 2004 H 197.346 3.93212 -1.17526 0
M  V30 2005 H 196.877 3.89791 0.531675 0
M  V30 2006 H 198.892 4.73808 1.47378 0
M  V30 2007 N 198.065 0.39524 1.52563 0
M  V30 2008 C 199.29 -0.187456 2.06551 0
M  V30 2009 C 199.715 -1.39249 1.26457 0
M  V30 2010 O 199.073 -1.78947 0.291151 0
M  V30 2011 C 199.121 -0.529985 3.56684 0
M  V30 2012 O 198.225 -1.62307 3.79118 0
M  V30 2013 H 197.566 -0.0202537 0.663691 0
M  V30 2014 H 200.096 0.564426 1.96661 0
M  V30 2015 H 200.106 -0.792598 4.00227 0
M  V30 2016 H 198.781 0.350987 4.14416 0
M  V30 2017 H 197.358 -1.3537 3.47461 0
M  V30 2018 N 199.544 -1.57102 0.125237 0
M  V30 2019 C 200.791 -1.95407 -0.531248 0
M  V30 2020 C 201.119 -1.0089 -1.66287 0
M  V30 2021 O 200.374 -0.0339431 -1.95671 0
M  V30 2022 C 200.673 -3.40096 -1.09862 0
M  V30 2023 C 200.339 -4.50815 -0.0876989 0
M  V30 2024 C 199.001 -4.80824 0.19026 0
M  V30 2025 C 201.353 -5.17724 0.600902 0
M  V30 2026 C 198.681 -5.75058 1.163 0
M  V30 2027 C 201.033 -6.13005 1.56231 0
M  V30 2028 C 199.697 -6.41403 1.8482 0
M  V30 2029 H 198.967 -0.715046 -0.194397 0
M  V30 2030 H 201.614 -1.90373 0.207463 0
M  V30 2031 H 199.919 -3.41855 -1.91422 0
M  V30 2032 H 201.616 -3.6705 -1.61478 0
M  V30 2033 H 198.206 -4.27444 -0.314528 0
M  V30 2034 H 202.39 -4.94691 0.399333 0
M  V30 2035 H 197.646 -5.95362 1.39117 0
M  V30 2036 H 201.82 -6.63934 2.10153 0
M  V30 2037 H 199.447 -7.14229 2.60349 0
M  V30 2038 N 201.022 0.148545 -1.56898 0
M  V30 2039 C 202.271 0.85984 -1.82454 0
M  V30 2040 C 202.584 1.82406 -0.706229 0
M  V30 2041 O 203.79 2.57938 -0.847349 0
M  V30 2042 C 202.246 1.57967 -3.2338 0
M  V30 2043 C 201.854 0.65794 -4.43142 0
M  V30 2044 C 203.598 2.27784 -3.58211 0
M  V30 2045 C 201.505 1.3793 -5.75091 0
M  V30 2046 H 200.435 0.324834 -0.68044 0
M  V30 2047 H 203.086 0.112588 -1.83154 0
M  V30 2048 H 201.468 2.37249 -3.17063 0
M  V30 2049 H 202.642 -0.0995497 -4.60692 0
M  V30 2050 H 200.957 0.0682643 -4.16344 0
M  V30 2051 H 203.554 2.8239 -4.54048 0
M  V30 2052 H 203.897 3.04204 -2.84193 0
M  V30 2053 H 204.43 1.55421 -3.66182 0
M  V30 2054 H 201.169 0.656982 -6.52199 0
M  V30 2055 H 200.689 2.10954 -5.61479 0
M  V30 2056 H 202.368 1.92063 -6.17835 0
M  V30 2057 N 202.5 1.5196 0.417844 0
M  V30 2058 C 203.43 1.77634 1.51554 0
M  V30 2059 C 204.411 0.626918 1.58126 0
M  V30 2060 O 205.596 0.871632 1.7354 0
M  V30 2061 C 202.726 1.91911 2.8946 0
M  V30 2062 C 201.68 3.07463 2.97743 0
M  V30 2063 C 201.006 3.06951 4.37819 0
M  V30 2064 C 202.306 4.47082 2.70027 0
M  V30 2065 H 204 2.6955 1.3032 0
M  V30 2066 H 201.546 1.29706 0.625492 0
M  V30 2067 H 203.499 2.08455 3.6623 0
M  V30 2068 H 202.223 0.966598 3.11969 0
M  V30 2069 H 200.882 2.90656 2.23416 0
M  V30 2070 H 200.53 2.09438 4.57323 0
M  V30 2071 H 200.23 3.84556 4.44286 0
M  V30 2072 H 201.754 3.25613 5.16535 0
M  V30 2073 H 203.168 4.6414 3.36522 0
M  V30 2074 H 201.565 5.2654 2.87881 0
M  V30 2075 H 202.635 4.55777 1.65514 0
M  V30 2076 N 203.978 -0.674533 1.42435 0
M  V30 2077 C 205.203 -1.46784 1.46524 0
M  V30 2078 C 205.628 -1.87938 0.078066 0
M  V30 2079 O 204.986 -1.56014 -0.92354 0
M  V30 2080 C 205.034 -2.69307 2.39805 0
M  V30 2081 O 204.138 -3.67587 1.86959 0
M  V30 2082 H 203.479 -0.440959 0.496439 0
M  V30 2083 H 206.009 -0.827326 1.87127 0
M  V30 2084 H 206.019 -3.17374 2.56393 0
M  V30 2085 H 204.694 -2.38692 3.40586 0
M  V30 2086 H 203.271 -3.2662 1.79927 0
M  V30 2087 N 205.456 -1.28612 -0.910864 0
M  V30 2088 C 206.419 -1.12803 -1.9952 0
M  V30 2089 C 207.419 -0.0668264 -1.60661 0
M  V30 2090 O 208.609 -0.312847 -1.71368 0
M  V30 2091 C 205.741 -0.72254 -3.33155 0
M  V30 2092 H 206.934 -2.09109 -2.14973 0
M  V30 2093 H 204.487 -1.11639 -1.09391 0
M  V30 2094 H 205.222 0.241152 -3.23402 0
M  V30 2095 H 205.007 -1.48916 -3.62721 0
M  V30 2096 H 206.497 -0.634666 -4.12749 0
M  V30 2097 N 206.934 1.1197 -1.10907 0
M  V30 2098 C 208.211 1.79959 -0.766432 0
M  V30 2099 C 208.591 1.97466 0.746363 0
M  V30 2100 O 207.939 1.55491 1.67436 0
M  V30 2101 C 208.149 3.14009 -1.52314 0
M  V30 2102 C 209.497 3.89134 -1.69883 0
M  V30 2103 O 210.521 3.2368 -1.48692 0
M  V30 2104 O 209.38 5.06572 -2.05054 0
M  V30 2105 H 206.474 0.779208 -0.277062 0
M  V30 2106 H 209.02 1.18762 -1.21217 0
M  V30 2107 H 207.792 2.96587 -2.55249 0
M  V30 2108 H 207.415 3.82915 -1.07059 0
M  V30 2109 N 208.412 0.89855 1.29475 0
M  V30 2110 C 209.659 0.523882 1.95606 0
M  V30 2111 C 209.987 -0.929608 1.70847 0
M  V30 2112 O 209.242 -1.67401 1.01367 0
M  V30 2113 C 209.541 0.761398 3.49195 0
M  V30 2114 C 209.207 2.19207 3.94029 0
M  V30 2115 C 207.869 2.58326 4.05982 0
M  V30 2116 C 210.221 3.12379 4.17216 0
M  V30 2117 C 207.549 3.898 4.38489 0
M  V30 2118 C 209.901 4.43401 4.51197 0
M  V30 2119 C 208.565 4.82394 4.61359 0
M  V30 2120 H 207.835 0.191702 0.715773 0
M  V30 2121 H 210.482 1.13699 1.54094 0
M  V30 2122 H 208.787 0.0653622 3.91745 0
M  V30 2123 H 210.484 0.450904 3.98457 0
M  V30 2124 H 207.074 1.87846 3.85242 0
M  V30 2125 H 211.258 2.83371 4.07449 0
M  V30 2126 H 206.514 4.19734 4.44559 0
M  V30 2127 H 210.688 5.15623 4.68087 0
M  V30 2128 H 208.315 5.84306 4.86303 0
M  V30 2129 N 209.89 -1.43072 0.660911 0
M  V30 2130 C 211.301 -1.84932 0.256348 0
M  V30 2131 C 211.652 -1.55325 -1.19868 0
M  V30 2132 O 210.777 -1.00607 -1.91591 0
M  V30 2133 C 211.372 -3.35684 0.458475 0
M  V30 2134 C 209.931 -3.76245 0.108161 0
M  V30 2135 C 209.078 -2.66749 0.757641 0
M  V30 2136 H 212.029 -1.33116 0.864051 0
M  V30 2137 H 212.05 -3.79365 -0.293683 0
M  V30 2138 H 211.562 -3.572 1.51755 0
M  V30 2139 H 209.663 -3.60338 -0.948014 0
M  V30 2140 H 209.776 -4.76058 0.538992 0
M  V30 2141 H 208.14 -2.53989 0.190185 0
M  V30 2142 H 208.923 -2.91092 1.81989 0
M  V30 2143 N 211.368 -0.403325 -1.52352 0
M  V30 2144 C 212.331 0.413051 -2.25447 0
M  V30 2145 C 213.331 0.978513 -1.276 0
M  V30 2146 O 214.521 0.858305 -1.51587 0
M  V30 2147 C 211.653 1.58087 -3.02029 0
M  V30 2148 H 212.846 -0.227094 -2.99039 0
M  V30 2149 H 210.399 -0.155722 -1.55522 0
M  V30 2150 H 211.134 2.25804 -2.32772 0
M  V30 2151 H 210.919 1.18195 -3.73861 0
M  V30 2152 H 212.409 2.1585 -3.57489 0
M  V30 2153 N 212.846 1.57033 -0.133567 0
M  V30 2154 C 213.776 2.1909 0.807567 0
M  V30 2155 C 214.757 1.13517 1.26681 0
M  V30 2156 O 215.942 1.41809 1.32679 0
M  V30 2157 C 213.072 2.80188 2.05212 0
M  V30 2158 C 212.026 3.91471 1.73015 0
M  V30 2159 C 211.352 4.39443 3.04622 0
M  V30 2160 C 212.652 5.12886 0.987168 0
M  V30 2161 H 214.346 2.97988 0.290403 0
M  V30 2162 H 211.892 1.43335 0.138239 0
M  V30 2163 H 213.845 3.22264 2.71521 0
M  V30 2164 H 212.569 1.98601 2.59278 0
M  V30 2165 H 211.228 3.49993 1.0909 0
M  V30 2166 H 210.876 3.54695 3.56651 0
M  V30 2167 H 210.576 5.14495 2.83847 0
M  V30 2168 H 212.1 4.8418 3.72024 0
M  V30 2169 H 213.514 5.51891 1.55208 0
M  V30 2170 H 211.911 5.93615 0.87985 0
M  V30 2171 H 212.981 4.84894 -0.0235286 0
M  V30 2172 N 214.325 -0.140222 1.56975 0
M  V30 2173 C 215.571 -0.852949 1.83991 0
M  V30 2174 C 215.904 -1.80512 0.716187 0
M  V30 2175 O 215.179 -1.92479 -0.279681 0
M  V30 2176 C 215.462 -1.6215 3.21527 0
M  V30 2177 C 215.315 -0.690363 4.4447 0
M  V30 2178 C 216.634 -2.58247 3.56366 0
M  V30 2179 H 213.753 -0.308634 0.669264 0
M  V30 2180 H 216.395 -0.117898 1.89634 0
M  V30 2181 H 214.545 -2.24812 3.16847 0
M  V30 2182 H 216.217 -0.0742264 4.6124 0
M  V30 2183 H 214.46 -0.000396433 4.338 0
M  V30 2184 H 215.131 -1.2643 5.37326 0
M  V30 2185 H 217.607 -2.05701 3.61699 0
M  V30 2186 H 216.483 -3.09067 4.53617 0
M  V30 2187 H 216.744 -3.39923 2.82674 0
M  V30 2188 N 215.803 -1.52179 -0.40978 0
M  V30 2189 C 217.049 -1.66453 -1.15851 0
M  V30 2190 C 217.382 -0.392972 -1.90182 0
M  V30 2191 O 216.657 0.608579 -1.84734 0
M  V30 2192 C 216.94 -2.88612 -2.15349 0
M  V30 2193 C 216.793 -4.25815 -1.44918 0
M  V30 2194 C 218.112 -3.06294 -3.16026 0
M  V30 2195 H 215.231 -0.60575 -0.419805 0
M  V30 2196 H 217.873 -1.84732 -0.444314 0
M  V30 2197 H 216.023 -2.73158 -2.76255 0
M  V30 2198 H 217.695 -4.52995 -0.871365 0
M  V30 2199 H 215.938 -4.27247 -0.751159 0
M  V30 2200 H 216.609 -5.07337 -2.17516 0
M  V30 2201 H 219.085 -3.20641 -2.65195 0
M  V30 2202 H 217.961 -3.93283 -3.8291 0
M  V30 2203 H 218.222 -2.19579 -3.83715 0
M  V30 2204 N 217.281 0.66697 -1.42791 0
M  V30 2205 C 218.228 1.7803 -1.4688 0
M  V30 2206 C 219.198 1.6299 -0.319919 0
M  V30 2207 O 220.383 1.83432 -0.525118 0
M  V30 2208 C 217.523 3.1611 -1.38451 0
M  V30 2209 C 216.636 3.42381 -2.63437 0
M  V30 2210 C 215.771 4.70232 -2.47094 0
M  V30 2211 C 214.81 4.89564 -3.67415 0
M  V30 2212 N 213.947 6.08661 -3.49966 0
M  V30 2213 H 218.787 1.7387 -2.42019 0
M  V30 2214 H 216.324 0.84868 -1.20149 0
M  V30 2215 H 218.282 3.95914 -1.31561 0
M  V30 2216 H 216.912 3.19374 -0.469033 0
M  V30 2217 H 215.964 2.56774 -2.80662 0
M  V30 2218 H 217.276 3.52557 -3.52853 0
M  V30 2219 H 216.43 5.5814 -2.37834 0
M  V30 2220 H 215.169 4.62353 -1.5518 0
M  V30 2221 H 214.174 4.00096 -3.77099 0
M  V30 2222 H 215.399 4.99282 -4.6032 0
M  V30 2223 H 213.345 6.0194 -2.60776 0
M  V30 2224 H 213.262 6.19733 -4.32975 0
M  V30 2225 H 214.53 6.99226 -3.44532 0
M  V30 2226 N 218.759 1.29093 0.90403 0
M  V30 2227 C 219.722 1.1386 1.98919 0
M  V30 2228 C 220.722 0.0753457 1.60623 0
M  V30 2229 O 221.912 0.321931 1.71199 0
M  V30 2230 C 219.044 0.740198 3.32767 0
M  V30 2231 H 220.237 2.10246 2.13861 0
M  V30 2232 H 217.79 1.12218 1.08797 0
M  V30 2233 H 218.525 -0.223997 3.23525 0
M  V30 2234 H 218.31 1.50838 3.61926 0
M  V30 2235 H 219.8 0.656546 4.12407 0
M  V30 2236 N 220.237 -1.11381 1.11499 0
M  V30 2237 C 221.462 -1.87475 0.887019 0
M  V30 2238 C 221.887 -1.79639 -0.557796 0
M  V30 2239 O 221.245 -1.15924 -1.39396 0
M  V30 2240 C 221.293 -3.34213 1.35403 0
M  V30 2241 O 220.397 -4.0903 0.526146 0
M  V30 2242 H 219.738 -0.582099 0.319463 0
M  V30 2243 H 222.268 -1.40785 1.48461 0
M  V30 2244 H 222.278 -3.8506 1.34881 0
M  V30 2245 H 220.953 -3.39232 2.40612 0
M  V30 2246 H 219.53 -3.68082 0.597522 0
M  V30 2247 N 221.715 -0.905404 -1.28997 0
M  V30 2248 C 222.963 -0.533192 -1.9494 0
M  V30 2249 C 223.284 0.924618 -1.71685 0
M  V30 2250 O 222.554 1.65268 -1.05183 0
M  V30 2251 H 221.134 -0.194194 -0.721317 0
M  V30 2252 H 223.796 -1.15294 -1.57141 0
M  V30 2253 H 222.892 -0.72059 -3.03667 0
M  V30 2254 N 223.193 1.4272 -0.668489 0
M  V30 2255 C 224.123 2.335 -0.000100175 0
M  V30 2256 C 225.104 1.50328 0.795964 0
M  V30 2257 O 226.289 1.78949 0.754385 0
M  V30 2258 C 223.419 3.33874 0.956302 0
M  V30 2259 C 222.373 4.27152 0.269278 0
M  V30 2260 C 221.699 5.17684 1.33818 0
M  V30 2261 C 222.999 5.15373 -0.847805 0
M  V30 2262 H 224.693 2.89639 -0.758244 0
M  V30 2263 H 222.239 1.39269 -0.366079 0
M  V30 2264 H 224.192 3.9629 1.43292 0
M  V30 2265 H 222.916 2.76025 1.74579 0
M  V30 2266 H 221.575 3.66123 -0.187042 0
M  V30 2267 H 221.223 4.56165 2.1195 0
M  V30 2268 H 220.923 5.80918 0.883659 0
M  V30 2269 H 222.447 5.82974 1.81586 0
M  V30 2270 H 223.861 5.7151 -0.452681 0
M  V30 2271 H 222.258 5.87407 -1.22773 0
M  V30 2272 H 223.328 4.5415 -1.69929 0
M  V30 2273 N 224.671 0.411399 1.52136 0
M  V30 2274 C 225.634 -0.401089 2.25663 0
M  V30 2275 C 226.634 -0.971732 1.28117 0
M  V30 2276 O 227.824 -0.850254 1.52041 0
M  V30 2277 C 224.956 -1.56483 3.02863 0
M  V30 2278 H 226.149 0.24295 2.98914 0
M  V30 2279 H 223.702 0.163968 1.55438 0
M  V30 2280 H 224.437 -2.24567 2.33967 0
M  V30 2281 H 224.222 -1.16211 3.74483 0
M  V30 2282 H 225.712 -2.13951 3.58629 0
M  V30 2283 N 226.149 -1.5696 0.141893 0
M  V30 2284 C 227.112 -2.15316 -0.785587 0
M  V30 2285 C 228.112 -1.09366 -1.1788 0
M  V30 2286 O 229.302 -1.35031 -1.10056 0
M  V30 2287 C 226.434 -2.71211 -2.06537 0
M  V30 2288 H 227.627 -2.98608 -0.278041 0
M  V30 2289 H 225.18 -1.5593 -0.107519 0
M  V30 2290 H 225.915 -1.91571 -2.6167 0
M  V30 2291 H 225.7 -3.4872 -1.79268 0
M  V30 2292 H 227.19 -3.16189 -2.72789 0
M  V30 2293 N 227.627 0.131896 -1.57047 0
M  V30 2294 C 228.875 0.840269 -1.83804 0
M  V30 2295 C 229.196 1.81017 -0.72512 0
M  V30 2296 O 228.466 1.94272 0.251995 0
M  V30 2297 H 227.046 0.313294 -0.678127 0
M  V30 2298 H 229.708 0.122294 -1.94516 0
M  V30 2299 H 228.804 1.39335 -2.79271 0
M  V30 2300 N 229.106 1.52395 0.401703 0
M  V30 2301 C 230.053 1.76268 1.48991 0
M  V30 2302 C 231.023 0.605386 1.54675 0
M  V30 2303 O 232.208 0.843742 1.7113 0
M  V30 2304 C 229.348 1.92592 2.86361 0
M  V30 2305 C 228.461 3.20259 2.89928 0
M  V30 2306 C 227.596 3.26972 4.18644 0
M  V30 2307 C 226.635 4.48812 4.16214 0
M  V30 2308 N 225.772 4.52877 5.36514 0
M  V30 2309 H 230.612 2.6914 1.27935 0
M  V30 2310 H 228.149 1.33355 0.620871 0
M  V30 2311 H 230.107 2.0004 3.66115 0
M  V30 2312 H 228.737 1.03093 3.05895 0
M  V30 2313 H 227.789 3.21945 2.02621 0
M  V30 2314 H 229.101 4.10056 2.83999 0
M  V30 2315 H 228.255 3.33533 5.06794 0
M  V30 2316 H 226.994 2.35126 4.27278 0
M  V30 2317 H 225.999 4.4239 3.26453 0
M  V30 2318 H 227.224 5.41961 4.09213 0
M  V30 2319 H 225.17 3.63917 5.45802 0
M  V30 2320 H 225.087 5.36529 5.32609 0
M  V30 2321 H 226.355 4.63676 6.26597 0
M  V30 2322 N 230.584 -0.659388 1.43143 0
M  V30 2323 C 231.832 -1.41654 1.44147 0
M  V30 2324 C 232.153 -1.94893 0.0645739 0
M  V30 2325 O 231.423 -1.74044 -0.899198 0
M  V30 2326 H 230.003 -0.525708 0.530697 0
M  V30 2327 H 232.665 -0.778097 1.78694 0
M  V30 2328 H 231.761 -2.26195 2.1504 0
M  V30 2329 N 232.062 -1.29571 -0.897171 0
M  V30 2330 C 233.308 -1.17863 -1.65034 0
M  V30 2331 C 233.641 0.268729 -1.92332 0
M  V30 2332 O 232.916 1.19378 -1.53555 0
M  V30 2333 C 233.199 -1.995 -2.99786 0
M  V30 2334 C 233.052 -3.5239 -2.79538 0
M  V30 2335 C 234.371 -1.82335 -4.00552 0
M  V30 2336 H 231.49 -0.429528 -0.598895 0
M  V30 2337 H 234.132 -1.59072 -1.03905 0
M  V30 2338 H 232.282 -1.64485 -3.51962 0
M  V30 2339 H 233.954 -3.97401 -2.34244 0
M  V30 2340 H 232.197 -3.77187 -2.14273 0
M  V30 2341 H 232.868 -4.04787 -3.75302 0
M  V30 2342 H 235.344 -2.12924 -3.57495 0
M  V30 2343 H 234.22 -2.41801 -4.92771 0
M  V30 2344 H 234.481 -0.779209 -4.35179 0
M  V30 2345 N 233.54 1.10788 -1.12088 0
M  V30 2346 C 234.789 1.82036 -0.868659 0
M  V30 2347 C 235.102 1.85929 0.607426 0
M  V30 2348 O 236.308 2.53346 0.97613 0
M  V30 2349 C 234.764 3.26951 -1.50435 0
M  V30 2350 C 234.372 3.31367 -3.01496 0
M  V30 2351 C 236.116 4.03053 -1.33225 0
M  V30 2352 C 234.023 4.7072 -3.58017 0
M  V30 2353 H 232.953 0.682108 -0.321318 0
M  V30 2354 H 235.604 1.24618 -1.34694 0
M  V30 2355 H 233.986 3.84343 -0.953735 0
M  V30 2356 H 235.16 2.83819 -3.6302 0
M  V30 2357 H 233.475 2.6875 -3.18061 0
M  V30 2358 H 236.072 5.05981 -1.72878 0
M  V30 2359 H 236.415 4.15387 -0.275529 0
M  V30 2360 H 236.948 3.52066 -1.85188 0
M  V30 2361 H 233.687 4.63585 -4.63432 0
M  V30 2362 H 233.207 5.1865 -3.01268 0
M  V30 2363 H 234.886 5.39685 -3.56859 0
M  V30 2364 N 235.018 0.912232 1.28515 0
M  V30 2365 C 236.264 0.545405 1.95328 0
M  V30 2366 C 236.597 -0.908313 1.71649 0
M  V30 2367 O 235.872 -1.64575 1.03659 0
M  V30 2368 C 236.155 0.853483 3.4984 0
M  V30 2369 C 236.008 2.35982 3.82926 0
M  V30 2370 C 237.327 0.348589 4.38717 0
M  V30 2371 H 234.446 0.199626 0.709449 0
M  V30 2372 H 237.088 1.1412 1.5191 0
M  V30 2373 H 235.238 0.34643 3.86952 0
M  V30 2374 H 236.91 2.93738 3.55691 0
M  V30 2375 H 235.153 2.81543 3.30024 0
M  V30 2376 H 235.824 2.52593 4.90816 0
M  V30 2377 H 238.3 0.78294 4.08668 0
M  V30 2378 H 237.176 0.593242 5.45685 0
M  V30 2379 H 237.437 -0.751049 4.35674 0
M  V30 2380 N 236.496 -1.42363 0.676048 0
M  V30 2381 C 237.459 -2.29199 0.00766941 0
M  V30 2382 C 238.459 -1.43389 -0.727745 0
M  V30 2383 O 239.649 -1.64764 -0.56556 0
M  V30 2384 C 236.781 -3.2591 -0.999785 0
M  V30 2385 H 237.974 -2.89794 0.771988 0
M  V30 2386 H 235.527 -1.50024 0.438468 0
M  V30 2387 H 236.262 -2.70256 -1.79255 0
M  V30 2388 H 236.047 -3.89202 -0.475829 0
M  V30 2389 H 237.537 -3.91028 -1.46583 0
M  V30 2390 N 237.974 -0.419461 -1.51915 0
M  V30 2391 C 238.921 0.400927 -2.27291 0
M  V30 2392 C 239.891 1.03224 -1.30131 0
M  V30 2393 O 241.076 1.05455 -1.59009 0
M  V30 2394 C 238.216 1.50603 -3.10504 0
M  V30 2395 C 237.329 0.89462 -4.22635 0
M  V30 2396 C 236.464 1.97328 -4.93189 0
M  V30 2397 C 235.503 1.33935 -5.97267 0
M  V30 2398 N 234.64 2.3586 -6.61298 0
M  V30 2399 H 239.48 -0.248251 -2.96964 0
M  V30 2400 H 237.017 -0.134266 -1.46486 0
M  V30 2401 H 238.975 2.15783 -3.57062 0
M  V30 2402 H 237.605 2.12509 -2.42981 0
M  V30 2403 H 236.657 0.131583 -3.80172 0
M  V30 2404 H 237.969 0.391641 -4.9726 0
M  V30 2405 H 237.123 2.70211 -5.43204 0
M  V30 2406 H 235.862 2.50994 -4.18155 0
M  V30 2407 H 234.867 0.595896 -5.46561 0
M  V30 2408 H 236.092 0.810252 -6.74249 0
M  V30 2409 H 234.038 2.88639 -5.89087 0
M  V30 2410 H 233.955 1.90403 -7.3163 0
M  V30 2411 H 235.223 3.08282 -7.15949 0
M  V30 2412 N 239.452 1.56882 -0.150215 0
M  V30 2413 C 240.677 2.01027 0.510184 0
M  V30 2414 C 241.102 1.02966 1.57415 0
M  V30 2415 O 240.46 0.00590158 1.81299 0
M  V30 2416 C 240.508 3.43899 1.08472 0
M  V30 2417 O 239.612 3.4885 2.19948 0
M  V30 2418 H 238.953 0.652233 0.124451 0
M  V30 2419 H 241.483 2.03093 -0.247894 0
M  V30 2420 H 241.493 3.82766 1.41259 0
M  V30 2421 H 240.168 4.14776 0.305582 0
M  V30 2422 H 238.745 3.21827 1.88366 0
M  V30 2423 N 240.93 -0.123565 1.57115 0
M  V30 2424 C 241.877 -1.15177 2.00007 0
M  V30 2425 C 242.847 -1.41403 0.871454 0
M  V30 2426 O 244.032 -1.53346 1.13533 0
M  V30 2427 C 241.172 -2.47436 2.40561 0
M  V30 2428 C 240.285 -2.28184 3.66819 0
M  V30 2429 C 239.42 -3.53641 3.96373 0
M  V30 2430 C 238.459 -3.29528 5.15827 0
M  V30 2431 N 237.596 -4.47175 5.41275 0
M  V30 2432 H 242.436 -0.779008 2.87638 0
M  V30 2433 H 239.973 -0.373166 1.42288 0
M  V30 2434 H 241.931 -3.24584 2.62109 0
M  V30 2435 H 240.561 -2.82614 1.55978 0
M  V30 2436 H 239.613 -1.41976 3.52912 0
M  V30 2437 H 240.925 -2.0634 4.5412 0
M  V30 2438 H 240.079 -4.39209 4.18545 0
M  V30 2439 H 238.818 -3.78512 3.07538 0
M  V30 2440 H 237.823 -2.42349 4.93505 0
M  V30 2441 H 239.048 -3.06031 6.06236 0
M  V30 2442 H 236.994 -4.72175 4.55397 0
M  V30 2443 H 236.911 -4.28419 6.22891 0
M  V30 2444 H 238.179 -5.3389 5.67963 0
M  V30 2445 N 242.408 -1.52605 -0.393616 0
M  V30 2446 C 243.318 -1.79971 -1.50492 0
M  V30 2447 C 244.334 -0.686181 -1.59899 0
M  V30 2448 O 245.51 -0.973274 -1.76322 0
M  V30 2449 C 242.575 -1.95867 -2.86072 0
M  V30 2450 C 241.636 -3.19781 -2.86424 0
M  V30 2451 C 240.869 -3.34909 -4.15538 0
M  V30 2452 O 241.092 -2.54948 -5.10253 0
M  V30 2453 O 240.026 -4.28141 -4.23059 0
M  V30 2454 H 243.852 -2.74328 -1.30299 0
M  V30 2455 H 241.437 -1.3764 -0.581005 0
M  V30 2456 H 243.319 -2.08056 -3.66457 0
M  V30 2457 H 241.994 -1.04699 -3.063 0
M  V30 2458 H 240.901 -3.13038 -2.04837 0
M  V30 2459 H 242.234 -4.1078 -2.71147 0
M  V30 2460 N 243.887 0.651787 -1.4349 0
M  V30 2461 C 244.797 1.79368 -1.5121 0
M  V30 2462 C 245.813 1.69361 -0.399093 0
M  V30 2463 O 246.989 1.90505 -0.653431 0
M  V30 2464 C 244.054 3.15653 -1.43401 0
M  V30 2465 C 243.115 3.37446 -2.65384 0
M  V30 2466 C 242.348 4.67229 -2.57939 0
M  V30 2467 O 242.571 5.46676 -1.62792 0
M  V30 2468 O 241.505 4.90773 -3.48462 0
M  V30 2469 H 245.331 1.7581 -2.47638 0
M  V30 2470 H 242.916 0.810447 -1.25507 0
M  V30 2471 H 244.798 3.96935 -1.41494 0
M  V30 2472 H 243.473 3.19798 -0.501085 0
M  V30 2473 H 242.38 2.55923 -2.72863 0
M  V30 2474 H 243.713 3.38148 -3.57654 0
M  V30 2475 N 245.365 1.30045 0.890287 0
M  V30 2476 C 246.328 1.15963 1.977 0
M  V30 2477 C 247.328 0.0923777 1.60534 0
M  V30 2478 O 248.518 0.340071 1.70848 0
M  V30 2479 C 245.65 0.775451 3.31963 0
M  V30 2480 H 246.843 2.12502 2.11619 0
M  V30 2481 H 244.396 1.13366 1.07601 0
M  V30 2482 H 245.131 -0.189671 3.23745 0
M  V30 2483 H 244.916 1.54668 3.60306 0
M  V30 2484 H 246.406 0.700251 4.11687 0
M  V30 2485 N 246.843 -1.10192 1.12674 0
M  V30 2486 C 248.083 -1.83825 0.893736 0
M  V30 2487 C 248.447 -1.83341 -0.570082 0
M  V30 2488 O 249.648 -2.52553 -0.920354 0
M  V30 2489 C 247.919 -3.26405 1.45582 0
M  V30 2490 S 249.478 -4.17136 1.36171 0
M  V30 2491 H 246.296 -0.633732 0.322342 0
M  V30 2492 H 248.898 -1.32581 1.43675 0
M  V30 2493 H 247.602 -3.24329 2.51473 0
M  V30 2494 H 247.133 -3.82721 0.910405 0
M  V30 2495 H 249.148 -4.95069 0.334863 0
M  V30 2496 N 248.321 -0.919034 -1.28029 0
M  V30 2497 C 249.268 -0.410005 -2.27129 0
M  V30 2498 C 250.238 0.518405 -1.57803 0
M  V30 2499 O 251.423 0.439451 -1.8567 0
M  V30 2500 C 248.563 0.339054 -3.4343 0
M  V30 2501 C 247.676 -0.622468 -4.27492 0
M  V30 2502 C 246.811 0.145567 -5.31001 0
M  V30 2503 C 245.85 -0.809226 -6.06727 0
M  V30 2504 N 244.987 -0.0743728 -7.02061 0
M  V30 2505 H 249.827 -1.26011 -2.70047 0
M  V30 2506 H 247.364 -0.632663 -1.328 0
M  V30 2507 H 249.322 0.789586 -4.0966 0
M  V30 2508 H 247.952 1.15346 -3.01488 0
M  V30 2509 H 247.004 -1.19153 -3.61257 0
M  V30 2510 H 248.316 -1.35252 -4.80113 0
M  V30 2511 H 247.47 0.656417 -6.03139 0
M  V30 2512 H 246.209 0.908643 -4.79161 0
M  V30 2513 H 245.214 -1.3314 -5.33436 0
M  V30 2514 H 246.439 -1.57194 -6.60656 0
M  V30 2515 H 244.385 0.670616 -6.52563 0
M  V30 2516 H 244.302 -0.744157 -7.52329 0
M  V30 2517 H 245.57 0.416109 -7.78389 0
M  V30 2518 N 249.799 1.42003 -0.683588 0
M  V30 2519 C 250.762 2.29191 -0.0198243 0
M  V30 2520 C 251.762 1.43773 0.72013 0
M  V30 2521 O 252.952 1.65061 0.556815 0
M  V30 2522 C 250.084 3.26435 0.982487 0
M  V30 2523 H 251.277 2.8938 -0.787345 0
M  V30 2524 H 248.83 1.49789 -0.446418 0
M  V30 2525 H 249.565 2.71203 1.77819 0
M  V30 2526 H 249.35 3.89449 0.455182 0
M  V30 2527 H 250.84 3.918 1.44508 0
M  V30 2528 N 251.277 0.427512 1.51691 0
M  V30 2529 C 252.523 -0.142439 2.02299 0
M  V30 2530 C 252.856 -1.43214 1.31162 0
M  V30 2531 O 252.131 -1.89833 0.423511 0
M  V30 2532 C 252.414 -0.371301 3.58181 0
M  V30 2533 C 252.267 0.936358 4.39946 0
M  V30 2534 C 253.586 -1.14542 4.24933 0
M  V30 2535 H 250.705 -0.0502937 0.735282 0
M  V30 2536 H 253.347 0.564584 1.81418 0
M  V30 2537 H 251.497 -0.973559 3.76104 0
M  V30 2538 H 253.169 1.57184 4.33694 0
M  V30 2539 H 251.412 1.5432 4.05423 0
M  V30 2540 H 252.083 0.730388 5.47147 0
M  V30 2541 H 254.559 -0.635362 4.11221 0
M  V30 2542 H 253.435 -1.27431 5.33903 0
M  V30 2543 H 253.696 -2.17093 3.85127 0
M  V30 2544 N 252.755 -1.56801 0.158532 0
M  V30 2545 C 253.687 -2.14488 -0.807923 0
M  V30 2546 C 254.7 -1.09721 -1.20271 0
M  V30 2547 O 255.889 -1.36956 -1.14478 0
M  V30 2548 C 252.989 -2.66217 -2.09718 0
M  V30 2549 C 252.162 -3.95507 -1.86796 0
M  V30 2550 C 251.221 -4.3243 -2.99818 0
M  V30 2551 O 250.247 -5.00543 -2.71008 0
M  V30 2552 N 251.449 -3.92947 -4.27285 0
M  V30 2553 H 254.214 -2.98042 -0.314816 0
M  V30 2554 H 251.775 -1.61881 -0.0246692 0
M  V30 2555 H 253.767 -2.87924 -2.84398 0
M  V30 2556 H 252.337 -1.87324 -2.50257 0
M  V30 2557 H 251.557 -3.82309 -0.96089 0
M  V30 2558 H 252.845 -4.79972 -1.68833 0
M  V30 2559 H 252.243 -3.38087 -4.53557 0
M  V30 2560 H 250.8 -4.19681 -4.9871 0
M  V30 2561 N 254.233 0.115231 -1.57178 0
M  V30 2562 C 255.143 1.15994 -2.03918 0
M  V30 2563 C 256.159 1.45103 -0.960268 0
M  V30 2564 O 257.335 1.56144 -1.27204 0
M  V30 2565 C 254.4 2.46568 -2.43732 0
M  V30 2566 C 253.461 2.24822 -3.65723 0
M  V30 2567 C 252.694 3.4917 -4.03629 0
M  V30 2568 O 252.917 4.56623 -3.41835 0
M  V30 2569 O 251.851 3.39949 -4.96708 0
M  V30 2570 H 255.677 0.793019 -2.93164 0
M  V30 2571 H 253.262 0.3263 -1.45793 0
M  V30 2572 H 255.144 3.23492 -2.70057 0
M  V30 2573 H 253.819 2.82726 -1.57631 0
M  V30 2574 H 252.726 1.45744 -3.44542 0
M  V30 2575 H 254.059 1.93566 -4.52541 0
M  V30 2576 N 255.711 1.52812 0.385517 0
M  V30 2577 C 256.96 1.67249 1.12741 0
M  V30 2578 C 257.273 0.4205 1.91027 0
M  V30 2579 O 258.479 0.445064 2.67827 0
M  V30 2580 C 256.935 2.95583 2.05326 0
M  V30 2581 C 256.543 4.27974 1.32447 0
M  V30 2582 C 258.287 3.19386 2.7963 0
M  V30 2583 C 256.194 5.47412 2.23818 0
M  V30 2584 H 255.124 0.6231 0.424573 0
M  V30 2585 H 257.775 1.79309 0.389924 0
M  V30 2586 H 256.157 2.77277 2.82725 0
M  V30 2587 H 257.331 4.56844 0.602495 0
M  V30 2588 H 255.646 4.10459 0.700885 0
M  V30 2589 H 258.243 4.05801 3.48181 0
M  V30 2590 H 258.586 2.34604 3.43899 0
M  V30 2591 H 259.119 3.38274 2.09322 0
M  V30 2592 H 255.858 6.34612 1.64157 0
M  V30 2593 H 255.378 5.22849 2.93921 0
M  V30 2594 H 257.057 5.81423 2.83824 0
M  V30 2595 N 257.189 -0.644168 1.43834 0
M  V30 2596 C 258.122 -1.76906 1.44151 0
M  V30 2597 C 259.1 -1.59774 0.301857 0
M  V30 2598 O 260.284 -1.81834 0.496841 0
M  V30 2599 C 257.411 -3.14321 1.26174 0
M  V30 2600 C 256.457 -3.50134 2.43533 0
M  V30 2601 S 257.29 -3.49085 4.06079 0
M  V30 2602 C 258.446 -4.89142 3.90501 0
M  V30 2603 H 258.679 -1.76368 2.39336 0
M  V30 2604 H 256.212 -0.817624 1.30974 0
M  V30 2605 H 258.17 -3.93625 1.16489 0
M  V30 2606 H 256.831 -3.12412 0.325224 0
M  V30 2607 H 256.024 -4.50095 2.26783 0
M  V30 2608 H 255.626 -2.78264 2.4989 0
M  V30 2609 H 257.918 -5.78036 3.53385 0
M  V30 2610 H 258.861 -5.10945 4.90246 0
M  V30 2611 H 259.269 -4.63102 3.22795 0
M  V30 2612 N 258.668 -1.30515 -0.883378 0
M  V30 2613 C 259.6 -1.12846 -1.99496 0
M  V30 2614 C 260.613 -0.0712571 -1.62644 0
M  V30 2615 O 261.802 -0.317432 -1.75655 0
M  V30 2616 C 258.902 -0.699123 -3.3161 0
M  V30 2617 C 258.075 -1.83842 -3.96889 0
M  V30 2618 C 257.134 -1.39737 -5.07307 0
M  V30 2619 O 256.16 -2.10485 -5.28852 0
M  V30 2620 N 257.362 -0.277279 -5.79837 0
M  V30 2621 H 260.127 -2.08585 -2.15203 0
M  V30 2622 H 257.688 -1.22672 -1.05656 0
M  V30 2623 H 259.68 -0.387044 -4.02845 0
M  V30 2624 H 258.25 0.166276 -3.12157 0
M  V30 2625 H 257.47 -2.31853 -3.18807 0
M  V30 2626 H 258.758 -2.60187 -4.37241 0
M  V30 2627 H 258.156 0.3122 -5.64838 0
M  V30 2628 H 256.713 -0.0246623 -6.51795 0
M  V30 2629 N 260.146 1.09593 -1.13257 0
M  V30 2630 C 261.056 2.19739 -0.821691 0
M  V30 2631 C 262.072 1.72926 0.19302 0
M  V30 2632 O 263.248 2.01385 0.0244895 0
M  V30 2633 C 260.313 3.45482 -0.290333 0
M  V30 2634 C 259.374 4.06985 -1.36607 0
M  V30 2635 C 258.607 5.26726 -0.859975 0
M  V30 2636 O 258.83 5.69594 0.303082 0
M  V30 2637 O 257.764 5.7931 -1.63351 0
M  V30 2638 H 261.59 2.48781 -1.74189 0
M  V30 2639 H 259.175 1.18496 -0.909894 0
M  V30 2640 H 261.057 4.214 0.000674022 0
M  V30 2641 H 259.732 3.18047 0.602306 0
M  V30 2642 H 258.639 3.32712 -1.71037 0
M  V30 2643 H 259.972 4.38643 -2.23279 0
M  V30 2644 N 261.624 0.925811 1.2754 0
M  V30 2645 C 262.571 0.422045 2.26908 0
M  V30 2646 C 263.541 -0.510029 1.58076 0
M  V30 2647 O 264.726 -0.429599 1.85901 0
M  V30 2648 C 261.866 -0.320837 3.43605 0
M  V30 2649 C 260.979 0.64513 4.27156 0
M  V30 2650 C 260.114 -0.117405 5.3107 0
M  V30 2651 C 259.153 0.841391 6.0629 0
M  V30 2652 N 258.29 0.111604 7.02011 0
M  V30 2653 H 263.13 1.27441 2.69375 0
M  V30 2654 H 260.667 0.639697 1.32462 0
M  V30 2655 H 262.625 -0.76785 4.10073 0
M  V30 2656 H 261.255 -1.13745 3.02096 0
M  V30 2657 H 260.307 1.21067 3.6062 0
M  V30 2658 H 261.619 1.37797 4.79389 0
M  V30 2659 H 260.773 -0.624422 6.03478 0
M  V30 2660 H 259.512 -0.883219 4.79636 0
M  V30 2661 H 258.517 1.35967 5.32722 0
M  V30 2662 H 259.742 1.60696 6.59813 0
M  V30 2663 H 257.688 -0.635999 6.5291 0
M  V30 2664 H 257.605 0.784044 7.51923 0
M  V30 2665 H 258.873 -0.374823 7.78598 0
M  V30 2666 N 263.102 -1.41638 0.69111 0
M  V30 2667 C 264.065 -2.29178 0.0319786 0
M  V30 2668 C 265.065 -1.44153 -0.712496 0
M  V30 2669 O 266.255 -1.65354 -0.548053 0
M  V30 2670 C 263.387 -3.26952 -0.965161 0
M  V30 2671 H 264.58 -2.88959 0.802681 0
M  V30 2672 H 262.133 -1.4955 0.454356 0
M  V30 2673 H 262.868 -2.72142 -1.76378 0
M  V30 2674 H 262.653 -3.89685 -0.434522 0
M  V30 2675 H 264.143 -3.92561 -1.42428 0
M  V30 2676 N 264.58 -0.43555 -1.51462 0
M  V30 2677 C 265.827 0.131514 -2.02072 0
M  V30 2678 C 266.155 1.42868 -1.31981 0
M  V30 2679 O 265.41 1.91076 -0.422883 0
M  V30 2680 C 265.709 0.39942 -3.55161 0
M  V30 2681 C 265.375 -0.81172 -4.43533 0
M  V30 2682 C 264.037 -1.14387 -4.67407 0
M  V30 2683 C 266.389 -1.61976 -4.95392 0
M  V30 2684 C 263.717 -2.28477 -5.40384 0
M  V30 2685 C 266.069 -2.75164 -5.6962 0
M  V30 2686 C 264.733 -3.08835 -5.91758 0
M  V30 2687 H 264.003 0.0481244 -0.739436 0
M  V30 2688 H 266.65 -0.58238 -1.8243 0
M  V30 2689 H 264.955 1.19519 -3.73125 0
M  V30 2690 H 266.652 0.85157 -3.91854 0
M  V30 2691 H 263.242 -0.542898 -4.25148 0
M  V30 2692 H 267.426 -1.37637 -4.76833 0
M  V30 2693 H 262.682 -2.5488 -5.55739 0
M  V30 2694 H 266.856 -3.38147 -6.08793 0
M  V30 2695 H 264.483 -3.97353 -6.48086 0
M  V30 2696 N 266.058 1.56714 -0.166846 0
M  V30 2697 C 267.306 1.96358 0.478305 0
M  V30 2698 C 267.627 1.0537 1.6408 0
M  V30 2699 O 266.897 0.119154 1.95537 0
M  V30 2700 H 265.477 0.725065 0.179692 0
M  V30 2701 H 268.139 1.93329 -0.246985 0
M  V30 2702 H 267.235 3.00547 0.841292 0
M  V30 2703 N 267.536 -0.106894 1.57237 0
M  V30 2704 C 268.499 -1.11466 2.0027 0
M  V30 2705 C 269.499 -1.33623 0.894519 0
M  V30 2706 O 270.689 -1.29935 1.16028 0
M  V30 2707 C 267.821 -2.46646 2.35327 0
M  V30 2708 H 269.014 -0.744516 2.90512 0
M  V30 2709 H 266.567 -0.351576 1.52295 0
M  V30 2710 H 267.302 -2.88558 1.48003 0
M  V30 2711 H 267.087 -2.31915 3.16161 0
M  V30 2712 H 268.577 -3.19151 2.69318 0
M  V30 2713 N 269.014 -1.53014 -0.377408 0
M  V30 2714 C 269.977 -1.77957 -1.44444 0
M  V30 2715 C 270.977 -0.649763 -1.47087 0
M  V30 2716 O 272.167 -0.917897 -1.48055 0
M  V30 2717 C 269.299 -1.89089 -2.83651 0
M  V30 2718 H 270.492 -2.73243 -1.23606 0
M  V30 2719 H 268.045 -1.43912 -0.609844 0
M  V30 2720 H 268.78 -0.958293 -3.09818 0
M  V30 2721 H 268.565 -2.71254 -2.83132 0
M  V30 2722 H 270.055 -2.1002 -3.60945 0
M  V30 2723 N 270.492 0.636531 -1.44174 0
M  V30 2724 C 271.74 1.39343 -1.46383 0
M  V30 2725 C 272.061 1.94766 -0.0955715 0
M  V30 2726 O 271.331 1.75452 0.871395 0
M  V30 2727 H 269.911 0.517199 -0.538994 0
M  V30 2728 H 272.573 0.74957 -1.7991 0
M  V30 2729 H 271.669 2.22746 -2.18611 0
M  V30 2730 N 271.97 1.30982 0.876444 0
M  V30 2731 C 272.88 1.2003 2.01569 0
M  V30 2732 C 273.896 0.11838 1.73597 0
M  V30 2733 O 275.072 0.33495 1.98595 0
M  V30 2734 C 272.137 0.901637 3.34771 0
M  V30 2735 C 271.198 2.06979 3.76109 0
M  V30 2736 C 270.431 1.78529 5.02954 0
M  V30 2737 O 270.654 0.717296 5.65872 0
M  V30 2738 O 269.588 2.64019 5.40905 0
M  V30 2739 H 273.414 2.15753 2.13739 0
M  V30 2740 H 270.999 1.10658 1.00375 0
M  V30 2741 H 272.881 0.750645 4.1466 0
M  V30 2742 H 271.556 -0.0256141 3.2369 0
M  V30 2743 H 270.463 2.27616 2.96887 0
M  V30 2744 H 271.796 2.97907 3.91807 0
M  V30 2745 N 273.449 -1.08991 1.13837 0
M  V30 2746 C 274.677 -1.85011 0.926202 0
M  V30 2747 C 275.092 -1.8135 -0.525127 0
M  V30 2748 O 274.449 -1.21287 -1.36366 0
M  V30 2749 C 274.5 -3.32802 1.41155 0
M  V30 2750 O 274.221 -3.36444 2.80601 0
M  V30 2751 C 275.722 -4.25649 1.23847 0
M  V30 2752 H 272.942 -0.584249 0.32999 0
M  V30 2753 H 275.486 -1.37688 1.51202 0
M  V30 2754 H 273.641 -3.77536 0.868631 0
M  V30 2755 H 274.055 -4.28657 3.02248 0
M  V30 2756 H 275.529 -5.27485 1.62675 0
M  V30 2757 H 276.006 -4.38828 0.18065 0
M  V30 2758 H 276.612 -3.86735 1.76964 0
M  V30 2759 N 274.927 -0.932562 -1.27047 0
M  V30 2760 C 276.176 -0.571351 -1.93439 0
M  V30 2761 C 276.489 0.892467 -1.74053 0
M  V30 2762 O 277.695 1.36267 -2.34826 0
M  V30 2763 C 276.151 -0.97106 -3.46552 0
M  V30 2764 C 275.759 -2.4559 -3.74686 0
M  V30 2765 C 277.503 -0.681333 -4.18997 0
M  V30 2766 C 275.41 -2.79475 -5.21198 0
M  V30 2767 H 274.34 -0.209966 -0.724176 0
M  V30 2768 H 276.991 -1.13403 -1.44263 0
M  V30 2769 H 275.373 -0.336983 -3.94564 0
M  V30 2770 H 276.547 -3.13829 -3.37414 0
M  V30 2771 H 274.862 -2.71802 -3.15456 0
M  V30 2772 H 277.459 -0.910939 -5.26883 0
M  V30 2773 H 277.802 0.381628 -4.14547 0
M  V30 2774 H 278.335 -1.27473 -3.76823 0
M  V30 2775 H 275.074 -3.847 -5.30741 0
M  V30 2776 H 274.594 -2.1589 -5.596 0
M  V30 2777 H 276.273 -2.67478 -5.89122 0
M  V30 2778 N 276.405 1.4127 -0.698611 0
M  V30 2779 C 277.651 2.01478 -0.231207 0
M  V30 2780 C 277.984 1.55215 1.16713 0
M  V30 2781 O 277.259 0.764672 1.78838 0
M  V30 2782 C 277.542 3.58912 -0.292281 0
M  V30 2783 C 277.395 4.15293 -1.72778 0
M  V30 2784 C 278.714 4.38736 0.346194 0
M  V30 2785 H 275.833 0.732025 -0.0854878 0
M  V30 2786 H 278.475 1.67977 -0.887906 0
M  V30 2787 H 276.625 3.87582 0.26686 0
M  V30 2788 H 278.297 3.97486 -2.341 0
M  V30 2789 H 276.54 3.7022 -2.26096 0
M  V30 2790 H 277.211 5.24452 -1.72202 0
M  V30 2791 H 279.687 4.15897 -0.130035 0
M  V30 2792 H 278.563 5.48221 0.272932 0
M  V30 2793 H 278.824 4.18425 1.42734 0
M  V30 2794 N 277.883 0.443576 1.51229 0
M  V30 2795 C 279.132 -0.122332 2.01329 0
M  V30 2796 C 279.445 -1.43237 1.33201 0
M  V30 2797 O 280.651 -2.0816 1.74304 0
M  V30 2798 C 279.107 -0.268551 3.58897 0
M  V30 2799 C 278.715 1.03142 4.35965 0
M  V30 2800 C 280.459 -0.787894 4.17124 0
M  V30 2801 C 278.366 0.850504 5.85252 0
M  V30 2802 H 277.296 -0.0494929 0.752374 0
M  V30 2803 H 279.947 0.574289 1.74282 0
M  V30 2804 H 278.329 -1.02832 3.82415 0
M  V30 2805 H 279.503 1.80001 4.24189 0
M  V30 2806 H 277.818 1.47977 3.89219 0
M  V30 2807 H 280.415 -0.939841 5.26375 0
M  V30 2808 H 280.758 -1.77201 3.76703 0
M  V30 2809 H 281.291 -0.0862669 3.97706 0
M  V30 2810 H 278.03 1.80718 6.30096 0
M  V30 2811 H 277.55 0.121825 5.99676 0
M  V30 2812 H 279.229 0.506163 6.45017 0
M  V30 2813 N 279.361 -1.56624 0.175154 0
M  V30 2814 C 280.271 -2.21741 -0.766042 0
M  V30 2815 C 281.287 -1.21023 -1.25018 0
M  V30 2816 O 282.463 -1.53697 -1.3015 0
M  V30 2817 C 279.528 -2.84839 -1.97655 0
M  V30 2818 C 278.589 -4.00769 -1.53892 0
M  V30 2819 C 277.822 -4.60849 -2.69173 0
M  V30 2820 O 278.045 -4.19823 -3.86141 0
M  V30 2821 O 276.979 -5.50655 -2.43028 0
M  V30 2822 H 280.805 -3.02738 -0.241585 0
M  V30 2823 H 278.39 -1.49305 -0.053222 0
M  V30 2824 H 280.272 -3.24834 -2.68442 0
M  V30 2825 H 278.947 -2.06836 -2.48999 0
M  V30 2826 H 277.854 -3.65436 -0.80044 0
M  V30 2827 H 279.187 -4.80376 -1.07236 0
M  V30 2828 N 280.839 0.0985539 -1.57292 0
M  V30 2829 C 281.749 1.13824 -2.05137 0
M  V30 2830 C 282.765 1.44076 -0.975604 0
M  V30 2831 O 283.941 1.54786 -1.28853 0
M  V30 2832 C 281.006 2.43969 -2.46333 0
M  V30 2833 C 280.067 2.2093 -3.68087 0
M  V30 2834 C 279.3 3.44869 -4.0731 0
M  V30 2835 O 279.523 4.52972 -3.46659 0
M  V30 2836 O 278.457 3.34661 -5.00285 0
M  V30 2837 H 282.283 0.761881 -2.93988 0
M  V30 2838 H 279.868 0.310818 -1.46131 0
M  V30 2839 H 281.75 3.20609 -2.73473 0
M  V30 2840 H 280.425 2.81038 -1.60621 0
M  V30 2841 H 279.332 1.42081 -3.46069 0
M  V30 2842 H 280.665 1.88755 -4.54568 0
M  V30 2843 N 282.317 1.53212 0.369288 0
M  V30 2844 C 283.247 1.82365 1.45826 0
M  V30 2845 C 284.228 0.676907 1.56051 0
M  V30 2846 O 285.413 0.926401 1.70679 0
M  V30 2847 C 282.543 2.01023 2.83208 0
M  V30 2848 C 281.497 3.1678 2.8781 0
M  V30 2849 C 280.823 3.20724 4.27832 0
M  V30 2850 C 282.123 4.55447 2.55667 0
M  V30 2851 H 283.817 2.73559 1.21678 0
M  V30 2852 H 281.363 1.3163 0.583911 0
M  V30 2853 H 283.316 2.20001 3.59413 0
M  V30 2854 H 282.04 1.06536 3.08736 0
M  V30 2855 H 280.699 2.97616 2.14056 0
M  V30 2856 H 280.347 2.23882 4.50429 0
M  V30 2857 H 280.047 3.98496 4.31827 0
M  V30 2858 H 281.571 3.41881 5.05915 0
M  V30 2859 H 282.985 4.74611 3.21586 0
M  V30 2860 H 281.382 5.35432 2.70984 0
M  V30 2861 H 282.452 4.60812 1.5093 0
M  V30 2862 N 283.795 -0.628877 1.44509 0
M  V30 2863 C 284.725 -1.75187 1.54376 0
M  V30 2864 C 285.706 -1.65411 0.396618 0
M  V30 2865 O 286.891 -1.84137 0.617031 0
M  V30 2866 C 284.021 -3.13725 1.48976 0
M  V30 2867 C 282.975 -3.38291 2.62189 0
M  V30 2868 C 282.301 -4.76883 2.41841 0
M  V30 2869 C 283.601 -3.30632 4.04326 0
M  V30 2870 H 285.295 -1.67187 2.48373 0
M  V30 2871 H 282.841 -0.802909 1.19538 0
M  V30 2872 H 284.794 -3.92064 1.54478 0
M  V30 2873 H 283.518 -3.22515 0.514961 0
M  V30 2874 H 282.177 -2.62334 2.56079 0
M  V30 2875 H 281.825 -4.82378 1.42548 0
M  V30 2876 H 281.525 -4.94278 3.17747 0
M  V30 2877 H 283.049 -5.57449 2.49165 0
M  V30 2878 H 284.463 -3.98873 4.11793 0
M  V30 2879 H 282.86 -3.59561 4.80454 0
M  V30 2880 H 283.93 -2.28404 4.27738 0
M  V30 2881 N 285.273 -1.31445 -0.869486 0
M  V30 2882 C 286.55 -1.11795 -1.60503 0
M  V30 2883 C 286.93 0.327168 -2.08549 0
M  V30 2884 O 286.278 1.32135 -1.8642 0
M  V30 2885 C 286.488 -2.13258 -2.76265 0
M  V30 2886 C 287.836 -2.45805 -3.46215 0
M  V30 2887 O 288.86 -2.11688 -2.86473 0
M  V30 2888 O 287.719 -3.04228 -4.5399 0
M  V30 2889 H 284.813 -0.430421 -0.706163 0
M  V30 2890 H 287.359 -1.42925 -0.914907 0
M  V30 2891 H 286.131 -3.10461 -2.3818 0
M  V30 2892 H 285.754 -1.83035 -3.52964 0
M  V30 2893 N 286.751 1.08385 -1.14413 0
M  V30 2894 C 287.999 1.80419 -0.910679 0
M  V30 2895 C 288.32 1.86658 0.564243 0
M  V30 2896 O 287.59 1.35985 1.41014 0
M  V30 2897 H 286.17 0.668204 -0.333934 0
M  V30 2898 H 288.832 1.31037 -1.44275 0
M  V30 2899 H 287.928 2.83238 -1.31082 0
M  V30 2900 N 288.23 0.939286 1.26551 0
M  V30 2901 C 289.14 0.453432 2.30176 0
M  V30 2902 C 290.156 -0.471649 1.67486 0
M  V30 2903 O 291.332 -0.35164 1.98306 0
M  V30 2904 C 288.397 -0.275326 3.45605 0
M  V30 2905 C 287.458 0.686084 4.23782 0
M  V30 2906 C 286.691 -0.00798994 5.33699 0
M  V30 2907 O 286.914 -1.22528 5.57085 0
M  V30 2908 O 285.848 0.669746 5.98162 0
M  V30 2909 H 289.674 1.31416 2.73795 0
M  V30 2910 H 287.259 0.705095 1.31715 0
M  V30 2911 H 289.141 -0.685911 4.1578 0
M  V30 2912 H 287.816 -1.11147 3.0402 0
M  V30 2913 H 286.723 1.14658 3.56096 0
M  V30 2914 H 288.056 1.48979 4.69112 0
M  V30 2915 N 289.708 -1.40897 0.706093 0
M  V30 2916 C 290.618 -2.3455 0.0482286 0
M  V30 2917 C 291.634 -1.56796 -0.754396 0
M  V30 2918 O 292.81 -1.89228 -0.689538 0
M  V30 2919 C 289.875 -3.35625 -0.869303 0
M  V30 2920 C 288.936 -4.29261 -0.0576994 0
M  V30 2921 C 288.169 -5.25508 -0.931531 0
M  V30 2922 O 288.392 -5.27472 -2.17092 0
M  V30 2923 O 287.326 -6.00727 -0.375587 0
M  V30 2924 H 291.152 -2.92407 0.820476 0
M  V30 2925 H 288.737 -1.4193 0.4665 0
M  V30 2926 H 290.619 -3.97635 -1.39514 0
M  V30 2927 H 289.294 -2.80196 -1.62086 0
M  V30 2928 H 288.201 -3.70566 0.512988 0
M  V30 2929 H 289.534 -4.87817 0.655426 0
M  V30 2930 N 291.186 -0.45159 -1.50991 0
M  V30 2931 C 292.432 0.110237 -2.025 0
M  V30 2932 C 292.765 1.41109 -1.33424 0
M  V30 2933 O 292.04 1.89135 -0.453659 0
M  V30 2934 C 292.323 0.314271 -3.58726 0
M  V30 2935 C 292.176 -1.00623 -4.38401 0
M  V30 2936 C 293.495 1.07767 -4.26702 0
M  V30 2937 H 290.614 0.0385897 -0.735989 0
M  V30 2938 H 293.256 -0.593374 -1.80497 0
M  V30 2939 H 291.406 0.913601 -3.77605 0
M  V30 2940 H 293.078 -1.64064 -4.31139 0
M  V30 2941 H 291.321 -1.6075 -4.02917 0
M  V30 2942 H 291.992 -0.817341 -5.45915 0
M  V30 2943 H 294.468 0.56986 -4.12179 0
M  V30 2944 H 293.344 1.18921 -5.35863 0
M  V30 2945 H 293.605 2.10939 -3.88532 0
M  V30 2946 N 292.664 1.56529 -0.183458 0
M  V30 2947 C 293.889 2.02064 0.467428 0
M  V30 2948 C 294.314 1.06282 1.55196 0
M  V30 2949 O 293.672 0.0443565 1.81246 0
M  V30 2950 C 293.72 3.46122 1.01153 0
M  V30 2951 O 292.824 3.53437 2.12499 0
M  V30 2952 H 292.165 0.654726 0.110588 0
M  V30 2953 H 294.695 2.02521 -0.290917 0
M  V30 2954 H 294.705 3.85676 1.33108 0
M  V30 2955 H 293.38 4.15331 0.217533 0
M  V30 2956 H 291.957 3.2575 1.81497 0
M  V30 2957 N 294.142 -0.090211 1.57342 0
M  V30 2958 C 295.382 -0.798365 1.88163 0
M  V30 2959 C 295.746 -1.75662 0.775046 0
M  V30 2960 O 296.947 -2.50849 0.965816 0
M  V30 2961 C 295.218 -1.50376 3.24225 0
M  V30 2962 S 296.777 -2.24952 3.76752 0
M  V30 2963 H 293.595 -0.265883 0.659414 0
M  V30 2964 H 296.197 -0.055264 1.95422 0
M  V30 2965 H 294.901 -0.792286 4.0268 0
M  V30 2966 H 294.432 -2.28666 3.20118 0
M  V30 2967 H 296.447 -3.51173 3.5056 0
M  V30 2968 N 295.62 -1.53406 -0.361157 0
M  V30 2969 C 296.55 -1.83136 -1.44857 0
M  V30 2970 C 297.531 -0.685174 -1.5569 0
M  V30 2971 O 298.716 -0.93544 -1.70186 0
M  V30 2972 C 295.846 -2.02522 -2.82138 0
M  V30 2973 C 294.8 -3.18302 -2.86126 0
M  V30 2974 C 294.126 -3.22989 -4.26125 0
M  V30 2975 C 295.426 -4.56796 -2.53248 0
M  V30 2976 H 297.12 -2.74201 -1.20226 0
M  V30 2977 H 294.666 -1.31938 -0.576922 0
M  V30 2978 H 296.619 -2.21904 -3.58241 0
M  V30 2979 H 295.343 -1.08172 -3.08166 0
M  V30 2980 H 294.002 -2.98747 -2.12475 0
M  V30 2981 H 293.65 -2.26267 -4.49235 0
M  V30 2982 H 293.35 -4.00781 -4.29708 0
M  V30 2983 H 294.874 -3.44559 -5.04094 0
M  V30 2984 H 296.288 -4.7631 -3.19064 0
M  V30 2985 H 294.685 -5.36862 -2.68141 0
M  V30 2986 H 295.755 -4.61606 -1.48484 0
M  V30 2987 N 297.098 0.621204 -1.44841 0
M  V30 2988 C 298.338 1.39201 -1.49674 0
M  V30 2989 C 298.702 1.91561 -0.129764 0
M  V30 2990 O 299.903 2.68748 -0.0527814 0
M  V30 2991 C 298.174 2.519 -2.53537 0
M  V30 2992 S 299.733 3.39916 -2.77494 0
M  V30 2993 H 296.551 0.474758 -0.529269 0
M  V30 2994 H 299.153 0.718171 -1.81831 0
M  V30 2995 H 297.857 2.11761 -3.51547 0
M  V30 2996 H 297.388 3.241 -2.22986 0
M  V30 2997 H 299.403 4.49646 -2.0984 0
M  V30 2998 N 298.576 1.31904 0.862503 0
M  V30 2999 C 299.823 1.22017 1.61611 0
M  V30 3000 C 300.151 -0.21991 1.93253 0
M  V30 3001 O 299.406 -1.17076 1.56817 0
M  V30 3002 C 299.705 2.01713 2.95037 0
M  V30 3003 C 299.371 3.51145 2.82857 0
M  V30 3004 C 298.033 3.91889 2.79243 0
M  V30 3005 C 300.385 4.46204 2.69353 0
M  V30 3006 C 297.713 5.25947 2.59993 0
M  V30 3007 C 300.065 5.80397 2.5164 0
M  V30 3008 C 298.729 6.20352 2.46413 0
M  V30 3009 H 297.999 0.44649 0.591378 0
M  V30 3010 H 300.646 1.63248 1.00111 0
M  V30 3011 H 298.951 1.53185 3.60613 0
M  V30 3012 H 300.648 1.91437 3.52353 0
M  V30 3013 H 297.238 3.1878 2.86491 0
M  V30 3014 H 301.422 4.15652 2.71196 0
M  V30 3015 H 296.678 5.5597 2.54376 0
M  V30 3016 H 300.852 6.53676 2.40169 0
M  V30 3017 H 298.479 7.24172 2.31256 0
M  V30 3018 N 300.054 -1.07777 1.14986 0
M  V30 3019 C 301.282 -1.84018 0.945773 0
M  V30 3020 C 301.697 -1.81897 -0.505863 0
M  V30 3021 O 301.054 -1.22726 -1.35072 0
M  V30 3022 C 301.105 -3.31287 1.44677 0
M  V30 3023 O 300.826 -3.33449 2.84154 0
M  V30 3024 C 302.327 -4.24311 1.28355 0
M  V30 3025 H 299.547 -0.580716 0.336169 0
M  V30 3026 H 302.091 -1.36077 1.52654 0
M  V30 3027 H 300.246 -3.76594 0.908625 0
M  V30 3028 H 300.66 -4.25427 3.06777 0
M  V30 3029 H 302.134 -5.2573 1.68261 0
M  V30 3030 H 302.611 -4.38612 0.227184 0
M  V30 3031 H 303.217 -3.84836 1.81056 0
M  V30 3032 N 301.532 -0.945985 -1.26051 0
M  V30 3033 C 302.809 -0.513816 -1.88731 0
M  V30 3034 C 303.189 1.00872 -1.8544 0
M  V30 3035 O 302.537 1.8708 -1.312 0
M  V30 3036 C 302.747 -1.08062 -3.31849 0
M  V30 3037 C 304.095 -1.1522 -4.08668 0
M  V30 3038 O 305.119 -1.03155 -3.40936 0
M  V30 3039 O 303.978 -1.34044 -5.29806 0
M  V30 3040 H 301.072 -0.168193 -0.809716 0
M  V30 3041 H 303.618 -1.03886 -1.34186 0
M  V30 3042 H 302.39 -2.1241 -3.2863 0
M  V30 3043 H 302.013 -0.538307 -3.93939 0
M  V30 3044 N 303.011 1.40521 -0.713556 0
M  V30 3045 C 304.259 2.00527 -0.251692 0
M  V30 3046 C 304.58 1.56857 1.15848 0
M  V30 3047 O 303.85 0.807127 1.785 0
M  V30 3048 H 302.43 0.741551 -0.0900646 0
M  V30 3049 H 305.092 1.71887 -0.918733 0
M  V30 3050 H 304.188 3.10813 -0.283192 0
M  V30 3051 N 304.489 0.459591 1.5075 0
M  V30 3052 C 305.436 -0.340524 2.28274 0
M  V30 3053 C 306.406 -0.997371 1.32822 0
M  V30 3054 O 307.591 -1.01202 1.61749 0
M  V30 3055 C 304.731 -1.42317 3.14388 0
M  V30 3056 C 303.844 -0.782251 4.24859 0
M  V30 3057 C 302.979 -1.84182 4.98247 0
M  V30 3058 C 302.018 -1.18053 6.00608 0
M  V30 3059 N 301.155 -2.18244 6.67319 0
M  V30 3060 H 305.995 0.326899 2.96202 0
M  V30 3061 H 303.532 0.173057 1.46078 0
M  V30 3062 H 305.49 -2.06241 3.62658 0
M  V30 3063 H 304.12 -2.05992 2.4853 0
M  V30 3064 H 303.172 -0.0307404 3.80388 0
M  V30 3065 H 304.484 -0.259663 4.98124 0
M  V30 3066 H 303.638 -2.55714 5.50177 0
M  V30 3067 H 302.377 -2.39819 4.24662 0
M  V30 3068 H 301.382 -0.450776 5.47949 0
M  V30 3069 H 302.607 -0.631202 6.7616 0
M  V30 3070 H 300.553 -2.72919 5.96533 0
M  V30 3071 H 300.47 -1.70938 7.36421 0
M  V30 3072 H 301.738 -2.89191 7.23871 0
M  V30 3073 N 305.967 -1.56429 0.191757 0
M  V30 3074 C 307.195 -2.01867 -0.453586 0
M  V30 3075 C 307.61 -1.07191 -1.5542 0
M  V30 3076 O 306.967 -0.0762108 -1.82341 0
M  V30 3077 C 307.018 -3.47017 -1.013 0
M  V30 3078 O 306.739 -4.38078 0.0437005 0
M  V30 3079 C 308.24 -4.07956 -1.73456 0
M  V30 3080 H 305.46 -0.661211 -0.114199 0
M  V30 3081 H 308.004 -2.02295 0.299483 0
M  V30 3082 H 306.159 -3.47298 -1.71647 0
M  V30 3083 H 306.573 -5.23178 -0.372212 0
M  V30 3084 H 308.047 -5.1138 -2.07833 0
M  V30 3085 H 308.524 -3.51222 -2.63704 0
M  V30 3086 H 309.13 -4.11437 -1.07702 0
M  V30 3087 N 307.445 0.0818655 -1.57387 0
M  V30 3088 C 308.691 0.784074 -1.8703 0
M  V30 3089 C 309.024 1.77729 -0.782689 0
M  V30 3090 O 308.299 1.93384 0.208051 0
M  V30 3091 C 308.582 1.50105 -3.27323 0
M  V30 3092 C 308.435 0.524925 -4.46727 0
M  V30 3093 C 309.754 2.44843 -3.65705 0
M  V30 3094 H 306.873 0.283582 -0.680257 0
M  V30 3095 H 309.515 0.0474352 -1.89941 0
M  V30 3096 H 307.665 2.12897 -3.24972 0
M  V30 3097 H 309.337 -0.0970111 -4.61198 0
M  V30 3098 H 307.58 -0.160606 -4.33503 0
M  V30 3099 H 308.251 1.064 -5.41648 0
M  V30 3100 H 310.727 1.92135 -3.69085 0
M  V30 3101 H 309.603 2.92018 -4.64776 0
M  V30 3102 H 309.864 3.29197 -2.95096 0
M  V30 3103 N 308.923 1.53595 0.353017 0
M  V30 3104 C 309.886 1.80232 1.41594 0
M  V30 3105 C 310.886 0.673081 1.46035 0
M  V30 3106 O 312.076 0.941335 1.46576 0
M  V30 3107 C 309.208 1.93578 2.80607 0
M  V30 3108 H 310.401 2.75174 1.19244 0
M  V30 3109 H 307.954 1.44864 0.586872 0
M  V30 3110 H 308.689 1.00746 3.08254 0
M  V30 3111 H 308.474 2.75724 2.78781 0
M  V30 3112 H 309.964 2.15735 3.57558 0
M  V30 3113 N 310.401 -0.613514 1.45168 0
M  V30 3114 C 311.812 -1.19539 1.43413 0
M  V30 3115 C 312.163 -1.95558 0.158632 0
M  V30 3116 O 311.288 -2.0335 -0.740119 0
M  V30 3117 C 311.883 -2.17445 2.59813 0
M  V30 3118 C 310.442 -2.71022 2.61197 0
M  V30 3119 C 309.589 -1.46323 2.35552 0
M  V30 3120 H 312.54 -0.403163 1.53494 0
M  V30 3121 H 312.561 -3.00373 2.33574 0
M  V30 3122 H 312.073 -1.62089 3.52631 0
M  V30 3123 H 310.174 -3.30332 1.7237 0
M  V30 3124 H 310.287 -3.15859 3.60236 0
M  V30 3125 H 308.651 -1.75072 1.84992 0
M  V30 3126 H 309.434 -0.92844 3.30507 0
M  V30 3127 N 311.879 -1.3236 -0.855495 0
M  V30 3128 C 312.812 -1.15559 -1.96777 0
M  V30 3129 C 313.79 -0.0552681 -1.62506 0
M  V30 3130 O 314.974 -0.214419 -1.87277 0
M  V30 3131 C 312.101 -0.768851 -3.29858 0
M  V30 3132 C 311.147 -1.87429 -3.83109 0
M  V30 3133 S 311.98 -3.48243 -4.06801 0
M  V30 3134 C 313.136 -3.11539 -5.42858 0
M  V30 3135 H 313.369 -2.09717 -2.10727 0
M  V30 3136 H 310.902 -1.17011 -1.00737 0
M  V30 3137 H 312.86 -0.55248 -4.06765 0
M  V30 3138 H 311.521 0.153857 -3.13723 0
M  V30 3139 H 310.714 -1.55667 -4.79358 0
M  V30 3140 H 310.316 -2.04647 -3.13042 0
M  V30 3141 H 312.608 -2.61331 -6.2507 0
M  V30 3142 H 313.551 -4.06806 -5.79582 0
M  V30 3143 H 313.959 -2.48582 -5.06821 0
M  V30 3144 N 313.357 1.07166 -1.15556 0
M  V30 3145 C 314.768 1.6127 -0.940693 0
M  V30 3146 C 315.119 1.89251 0.517551 0
M  V30 3147 O 314.244 1.65937 1.38903 0
M  V30 3148 C 314.839 2.92993 -1.7012 0
M  V30 3149 C 313.398 3.43832 -1.53156 0
M  V30 3150 C 312.545 2.1786 -1.71558 0
M  V30 3151 H 315.496 0.90229 -1.30554 0
M  V30 3152 H 315.517 3.62007 -1.17181 0
M  V30 3153 H 315.029 2.72596 -2.76248 0
M  V30 3154 H 313.13 3.69307 -0.494294 0
M  V30 3155 H 313.243 4.19747 -2.30975 0
M  V30 3156 H 311.607 2.2765 -1.14225 0
M  V30 3157 H 312.39 1.99956 -2.79056 0
M  V30 3158 N 314.835 0.952656 1.25548 0
M  V30 3159 C 316.246 0.647392 1.75116 0
M  V30 3160 C 316.597 -0.837274 1.77438 0
M  V30 3161 O 315.722 -1.65525 1.39393 0
M  V30 3162 C 316.317 1.16845 3.18014 0
M  V30 3163 C 314.876 0.913382 3.6515 0
M  V30 3164 C 314.023 1.31265 2.44264 0
M  V30 3165 H 316.974 1.12968 1.11462 0
M  V30 3166 H 316.995 0.527606 3.76824 0
M  V30 3167 H 316.507 2.24902 3.16292 0
M  V30 3168 H 314.608 -0.152316 3.72289 0
M  V30 3169 H 314.721 1.54845 4.53387 0
M  V30 3170 H 313.085 0.731028 2.43984 0
M  V30 3171 H 313.868 2.40239 2.45234 0
M  V30 3172 N 316.313 -1.40141 0.720998 0
M  V30 3173 C 317.276 -2.29058 0.0805834 0
M  V30 3174 C 318.276 -1.45632 -0.681758 0
M  V30 3175 O 319.466 -1.6648 -0.512856 0
M  V30 3176 C 316.598 -3.28925 -0.895593 0
M  V30 3177 H 317.791 -2.87191 0.863793 0
M  V30 3178 H 315.344 -1.48553 0.485975 0
M  V30 3179 H 316.079 -2.75822 -1.70566 0
M  V30 3180 H 315.864 -3.90519 -0.351766 0
M  V30 3181 H 317.354 -3.95494 -1.34069 0
M  V30 3182 N 317.792 -0.46758 -1.50504 0
M  V30 3183 C 318.724 0.364655 -2.26281 0
M  V30 3184 C 319.737 0.960151 -1.31472 0
M  V30 3185 O 320.926 0.849153 -1.57008 0
M  V30 3186 C 318.026 1.52509 -3.02645 0
M  V30 3187 C 317.199 1.04302 -4.24782 0
M  V30 3188 C 316.258 2.07709 -4.8347 0
M  V30 3189 O 315.284 1.65913 -5.44483 0
M  V30 3190 N 316.486 3.40485 -4.70159 0
M  V30 3191 H 319.251 -0.28495 -2.98342 0
M  V30 3192 H 316.812 -0.298163 -1.59131 0
M  V30 3193 H 318.804 2.21371 -3.38787 0
M  V30 3194 H 317.374 2.07945 -2.33404 0
M  V30 3195 H 316.594 0.180393 -3.93787 0
M  V30 3196 H 317.882 0.698798 -5.03978 0
M  V30 3197 H 317.28 3.77155 -4.21629 0
M  V30 3198 H 315.837 4.05156 -5.1058 0
M  V30 3199 N 319.27 1.56325 -0.20005 0
M  V30 3200 C 320.547 1.89484 0.48529 0
M  V30 3201 C 320.927 1.1143 1.79294 0
M  V30 3202 O 320.275 0.216919 2.27468 0
M  V30 3203 C 320.485 3.41923 0.699243 0
M  V30 3204 C 321.833 4.12256 1.01638 0
M  V30 3205 O 322.857 3.47402 0.786792 0
M  V30 3206 O 321.716 5.26887 1.45095 0
M  V30 3207 H 318.81 0.787144 0.253639 0
M  V30 3208 H 321.356 1.67985 -0.240633 0
M  V30 3209 H 320.128 3.90658 -0.224008 0
M  V30 3210 H 319.751 3.69131 1.47744 0
M  V30 3211 N 320.748 -0.0735177 1.57428 0
M  V30 3212 C 321.698 -1.09442 2.00016 0
M  V30 3213 C 322.682 -1.34575 0.881947 0
M  V30 3214 O 323.874 -1.34905 1.14585 0
M  V30 3215 C 321.003 -2.40865 2.4462 0
M  V30 3216 C 320.089 -2.19014 3.63172 0
M  V30 3217 N 320.48 -1.67087 4.77405 0
M  V30 3218 C 318.778 -2.49494 3.69688 0
M  V30 3219 C 319.479 -1.6001 5.5926 0
M  V30 3220 N 318.455 -2.05999 5.03056 0
M  V30 3221 H 322.257 -0.686227 2.85776 0
M  V30 3222 H 319.771 -0.280617 1.59957 0
M  V30 3223 H 321.768 -3.14763 2.73368 0
M  V30 3224 H 320.428 -2.82403 1.60246 0
M  V30 3225 H 321.439 -1.35975 4.99731 0
M  V30 3226 H 318.116 -2.94409 2.96023 0
M  V30 3227 H 319.506 -1.2073 6.60964 0
M  V30 3228 N 322.226 -1.5378 -0.344866 0
M  V30 3229 C 323.173 -1.81676 -1.42346 0
M  V30 3230 C 324.143 -0.662376 -1.52321 0
M  V30 3231 O 325.328 -0.906675 -1.67881 0
M  V30 3232 C 322.468 -2.03087 -2.79015 0
M  V30 3233 C 321.581 -3.30799 -2.77842 0
M  V30 3234 C 320.716 -3.42285 -4.0622 0
M  V30 3235 C 319.755 -4.6395 -3.9927 0
M  V30 3236 N 318.892 -4.72477 -5.19336 0
M  V30 3237 H 323.732 -2.73703 -1.17858 0
M  V30 3238 H 321.269 -1.35568 -0.570949 0
M  V30 3239 H 323.227 -2.1349 -3.58438 0
M  V30 3240 H 321.857 -1.14375 -3.01858 0
M  V30 3241 H 320.909 -3.29244 -1.90533 0
M  V30 3242 H 322.221 -4.20314 -2.68584 0
M  V30 3243 H 321.375 -3.52113 -4.94066 0
M  V30 3244 H 320.114 -2.50823 -4.18258 0
M  V30 3245 H 319.119 -4.54201 -3.09809 0
M  V30 3246 H 320.344 -5.56775 -3.88817 0
M  V30 3247 H 318.29 -3.83924 -5.3192 0
M  V30 3248 H 318.207 -5.55927 -5.12329 0
M  V30 3249 H 319.475 -4.86613 -6.08957 0
M  V30 3250 N 323.704 0.605807 -1.45491 0
M  V30 3251 C 325.12 0.926751 -1.29936 0
M  V30 3252 C 325.32 1.99896 -0.253706 0
M  V30 3253 O 324.376 2.50038 0.351737 0
M  V30 3254 C 325.689 1.36599 -2.67883 0
M  V30 3255 C 327.237 1.4801 -2.75793 0
M  V30 3256 C 327.712 1.95309 -4.14268 0
M  V30 3257 N 329.203 2.0254 -4.16571 0
M  V30 3258 C 329.938 2.40363 -5.20589 0
M  V30 3259 N 329.434 2.77143 -6.34952 0
M  V30 3260 N 331.227 2.40718 -5.07948 0
M  V30 3261 H 323.378 -0.102862 -2.12151 0
M  V30 3262 H 325.641 0.016639 -0.947854 0
M  V30 3263 H 325.347 0.652306 -3.45598 0
M  V30 3264 H 325.221 2.33215 -2.96463 0
M  V30 3265 H 327.608 2.1847 -1.98381 0
M  V30 3266 H 327.689 0.497041 -2.50925 0
M  V30 3267 H 327.333 1.25436 -4.92167 0
M  V30 3268 H 327.263 2.94532 -4.3653 0
M  V30 3269 H 329.754 1.76699 -3.34045 0
M  V30 3270 H 330.067 3.0489 -7.10114 0
M  V30 3271 H 328.412 2.74834 -6.3835 0
M  V30 3272 H 331.603 2.11392 -4.1765 0
M  V30 3273 H 331.776 2.69869 -5.89131 0
M  V30 3274 N 325.182 1.32811 0.848464 0
M  V30 3275 C 326.112 1.24882 1.97299 0
M  V30 3276 C 327.093 0.131357 1.69592 0
M  V30 3277 O 328.278 0.319553 1.91553 0
M  V30 3278 C 325.408 0.97746 3.33261 0
M  V30 3279 C 324.362 2.05682 3.75338 0
M  V30 3280 C 323.688 1.63777 5.09 0
M  V30 3281 C 324.988 3.47254 3.90144 0
M  V30 3282 H 326.682 2.18966 2.04191 0
M  V30 3283 H 324.228 1.05413 0.981029 0
M  V30 3284 H 326.181 0.908513 4.1149 0
M  V30 3285 H 324.905 0.000980011 3.266 0
M  V30 3286 H 323.564 2.11603 2.99366 0
M  V30 3287 H 323.212 0.648569 4.98801 0
M  V30 3288 H 322.912 2.36 5.38124 0
M  V30 3289 H 324.436 1.5833 5.89715 0
M  V30 3290 H 325.85 3.43888 4.58709 0
M  V30 3291 H 324.247 4.1788 4.30693 0
M  V30 3292 H 325.317 3.86462 2.92874 0
M  V30 3293 N 326.66 -1.06551 1.16123 0
M  V30 3294 C 327.59 -2.15935 0.88851 0
M  V30 3295 C 328.571 -1.69306 -0.164135 0
M  V30 3296 O 329.756 -1.94193 -0.0167857 0
M  V30 3297 C 326.886 -3.45149 0.385942 0
M  V30 3298 C 325.84 -4.05271 1.3762 0
M  V30 3299 C 325.166 -5.29664 0.732137 0
M  V30 3300 C 326.466 -4.44355 2.74493 0
M  V30 3301 H 328.16 -2.39006 1.80323 0
M  V30 3302 H 325.706 -1.14866 0.868435 0
M  V30 3303 H 327.659 -4.21004 0.182647 0
M  V30 3304 H 326.383 -3.21689 -0.564274 0
M  V30 3305 H 325.042 -3.3147 1.56599 0
M  V30 3306 H 324.69 -5.02499 -0.224483 0
M  V30 3307 H 324.39 -5.70848 1.39307 0
M  V30 3308 H 325.914 -6.08218 0.538802 0
M  V30 3309 H 327.328 -5.11303 2.59311 0
M  V30 3310 H 325.725 -4.96515 3.37035 0
M  V30 3311 H 326.795 -3.55339 3.29943 0
M  V30 3312 N 328.138 -0.959301 -1.25041 0
M  V30 3313 C 329.048 -0.489994 -2.29426 0
M  V30 3314 C 330.064 0.444944 -1.68215 0
M  V30 3315 O 331.24 0.320046 -1.98841 0
M  V30 3316 C 328.305 0.220309 -3.45999 0
M  V30 3317 C 327.366 -0.753418 -4.22637 0
M  V30 3318 C 326.599 -0.076918 -5.33645 0
M  V30 3319 O 326.822 1.13649 -5.58963 0
M  V30 3320 O 325.756 -0.764824 -5.97021 0
M  V30 3321 H 329.582 -1.35755 -2.71669 0
M  V30 3322 H 327.167 -0.725961 -1.30576 0
M  V30 3323 H 329.049 0.619677 -4.16819 0
M  V30 3324 H 327.724 1.06296 -3.0575 0
M  V30 3325 H 326.631 -1.20308 -3.54227 0
M  V30 3326 H 327.964 -1.56423 -4.66683 0
M  V30 3327 N 329.616 1.39756 -0.72842 0
M  V30 3328 C 330.864 2.00248 -0.272946 0
M  V30 3329 C 331.185 1.58077 1.14178 0
M  V30 3330 O 330.455 0.826014 1.77634 0
M  V30 3331 H 329.035 0.740554 -0.0979247 0
M  V30 3332 H 331.697 1.70903 -0.936912 0
M  V30 3333 H 330.793 3.10495 -0.316142 0
M  V30 3334 N 331.094 0.475555 1.50254 0
M  V30 3335 C 332.371 -0.139685 1.95101 0
M  V30 3336 C 332.751 -1.56555 1.41611 0
M  V30 3337 O 332.099 -2.19956 0.618993 0
M  V30 3338 C 332.309 -0.0784298 3.48912 0
M  V30 3339 C 333.657 -0.265095 4.23772 0
M  V30 3340 O 334.681 -0.154808 3.55863 0
M  V30 3341 O 333.54 -0.488327 5.44314 0
M  V30 3342 H 330.634 -0.109236 0.819754 0
M  V30 3343 H 333.18 0.536276 1.61004 0
M  V30 3344 H 331.952 0.916918 3.80405 0
M  V30 3345 H 331.575 -0.795655 3.89558 0
M  V30 3346 N 332.573 -1.56217 0.208337 0
M  V30 3347 C 333.821 -1.97558 -0.426076 0
M  V30 3348 C 334.142 -1.09683 -1.61229 0
M  V30 3349 O 333.412 -0.170956 -1.95153 0
M  V30 3350 H 331.992 -0.729575 -0.160405 0
M  V30 3351 H 334.654 -1.92606 0.298155 0
M  V30 3352 H 333.75 -3.02672 -0.761312 0
M  V30 3353 N 334.051 0.0651679 -1.57465 0
M  V30 3354 C 335.299 0.761555 -1.87202 0
M  V30 3355 C 335.62 1.77778 -0.801243 0
M  V30 3356 O 334.89 1.95166 0.16937 0
M  V30 3357 H 333.47 0.284251 -0.690804 0
M  V30 3358 H 336.132 0.0396827 -1.9486 0
M  V30 3359 H 335.228 1.27365 -2.84929 0
M  V30 3360 N 335.529 1.53961 0.336706 0
M  V30 3361 C 336.94 1.62914 0.911925 0
M  V30 3362 C 337.291 0.514795 1.89326 0
M  V30 3363 O 336.416 -0.354395 2.13478 0
M  V30 3364 C 337.011 2.95304 1.66076 0
M  V30 3365 C 335.57 3.06496 2.18489 0
M  V30 3366 C 334.717 2.58403 1.00613 0
M  V30 3367 H 337.668 1.58285 0.114649 0
M  V30 3368 H 337.689 2.84727 2.5241 0
M  V30 3369 H 337.201 3.76387 0.946276 0
M  V30 3370 H 335.302 2.3006 2.93092 0
M  V30 3371 H 335.415 4.1208 2.44391 0
M  V30 3372 H 333.779 2.13977 1.38152 0
M  V30 3373 H 334.562 3.41932 0.306179 0
M  V30 3374 N 337.007 -0.598083 1.45811 0
M  V30 3375 C 337.955 -1.72932 1.55555 0
M  V30 3376 C 338.949 -1.63984 0.424921 0
M  V30 3377 O 340.155 -1.69663 0.601205 0
M  V30 3378 H 336.53 -0.571489 0.488779 0
M  V30 3379 H 338.501 -1.61842 2.50699 0
M  V30 3380 C 337.25 -3.11318 1.54843 0
M  V30 3381 H 336.573 -3.18867 2.41172 0
M  V30 3382 H 338.013 -3.90274 1.65717 0
M  V30 3383 C 336.472 -3.3578 0.274427 0
M  V30 3384 O 337.002 -3.9654 -0.641778 0
M  V30 3385 N 335.208 -2.90119 0.167139 0
M  V30 3386 H 334.755 -2.40855 0.913596 0
M  V30 3387 H 334.713 -3.0686 -0.684435 0
M  V30 3388 N 338.485 -1.33259 -0.841409 0
M  V30 3389 C 339.713 -1.27605 -1.62864 0
M  V30 3390 C 340.128 0.153507 -1.88175 0
M  V30 3391 O 339.485 1.09485 -1.46011 0
M  V30 3392 C 339.536 -2.04596 -2.98031 0
M  V30 3393 O 339.257 -3.41975 -2.73834 0
M  V30 3394 C 340.758 -2.06122 -3.92465 0
M  V30 3395 H 337.978 -0.439718 -0.506842 0
M  V30 3396 H 340.522 -1.75591 -1.04824 0
M  V30 3397 H 338.677 -1.60299 -3.5268 0
M  V30 3398 H 339.091 -3.81549 -3.59889 0
M  V30 3399 H 340.565 -2.64451 -4.84531 0
M  V30 3400 H 341.042 -1.05083 -4.26444 0
M  V30 3401 H 341.648 -2.50427 -3.43753 0
M  V30 3402 N 339.963 1.05934 -1.16686 0
M  V30 3403 C 341.211 1.78447 -0.948744 0
M  V30 3404 C 341.532 1.87813 0.524523 0
M  V30 3405 O 340.802 1.38945 1.38098 0
M  V30 3406 H 339.382 0.660971 -0.348033 0
M  V30 3407 H 342.044 1.27947 -1.47022 0
M  V30 3408 H 341.14 2.80394 -1.37061 0
M  V30 3409 N 341.441 0.965919 1.2453 0
M  V30 3410 C 342.689 0.625593 1.92174 0
M  V30 3411 C 343.01 -0.841652 1.75901 0
M  V30 3412 O 342.28 -1.60061 1.12948 0
M  V30 3413 H 340.86 0.228388 0.71123 0
M  V30 3414 H 343.522 1.2266 1.51461 0
M  V30 3415 H 342.618 0.864653 2.99884 0
M  V30 3416 N 342.919 -1.39368 0.735821 0
M  V30 3417 C 343.852 -2.28155 0.0451175 0
M  V30 3418 C 344.83 -1.44433 -0.746852 0
M  V30 3419 O 346.014 -1.73823 -0.729237 0
M  V30 3420 C 343.141 -3.253 -0.943266 0
M  V30 3421 C 342.187 -4.25826 -0.239685 0
M  V30 3422 S 343.02 -5.25166 1.04693 0
M  V30 3423 C 344.176 -6.2587 0.0611639 0
M  V30 3424 H 344.409 -2.86388 0.79807 0
M  V30 3425 H 341.942 -1.45104 0.527653 0
M  V30 3426 H 343.9 -3.81789 -1.50824 0
M  V30 3427 H 342.561 -2.66085 -1.66906 0
M  V30 3428 H 341.754 -4.94229 -0.987596 0
M  V30 3429 H 341.356 -3.73141 0.253274 0
M  V30 3430 H 343.648 -6.73007 -0.778941 0
M  V30 3431 H 344.591 -7.04508 0.712362 0
M  V30 3432 H 344.999 -5.63639 -0.311602 0
M  V30 3433 N 344.397 -0.483516 -1.5 0
M  V30 3434 C 345.645 0.067027 -2.01989 0
M  V30 3435 C 345.966 1.3909 -1.36671 0
M  V30 3436 O 345.236 1.88978 -0.516152 0
M  V30 3437 H 343.816 0.0277606 -0.746484 0
M  V30 3438 H 346.478 -0.636773 -1.84204 0
M  V30 3439 H 345.574 0.209484 -3.11396 0
M  V30 3440 N 345.875 1.56104 -0.216619 0
M  V30 3441 C 346.838 2.18819 0.681962 0
M  V30 3442 C 347.838 1.14866 1.12528 0
M  V30 3443 O 349.028 1.40128 1.03488 0
M  V30 3444 C 346.16 2.80756 1.93362 0
M  V30 3445 H 347.353 2.99595 0.135254 0
M  V30 3446 H 344.906 1.56265 0.0330003 0
M  V30 3447 H 345.641 2.03837 2.52232 0
M  V30 3448 H 345.426 3.56876 1.62426 0
M  V30 3449 H 346.916 3.28844 2.57393 0
M  V30 3450 N 347.353 -0.0568162 1.57498 0
M  V30 3451 C 348.583 -0.764515 1.91934 0
M  V30 3452 C 348.991 -1.70877 0.81227 0
M  V30 3453 O 348.334 -1.82351 -0.222213 0
M  V30 3454 C 348.396 -1.5994 3.21962 0
M  V30 3455 C 348.06 -0.822925 4.4953 0
M  V30 3456 C 349.057 -0.135464 5.19723 0
M  V30 3457 C 346.742 -0.785666 4.96117 0
M  V30 3458 C 348.736 0.578861 6.34766 0
M  V30 3459 C 346.423 -0.0675784 6.11063 0
M  V30 3460 C 347.421 0.613471 6.80239 0
M  V30 3461 O 347.109 1.31996 7.92989 0
M  V30 3462 H 346.841 -0.221647 0.63863 0
M  V30 3463 H 349.395 -0.0268218 2.05382 0
M  V30 3464 H 347.625 -2.38026 3.04763 0
M  V30 3465 H 349.314 -2.18715 3.41934 0
M  V30 3466 H 350.08 -0.155458 4.84751 0
M  V30 3467 H 345.959 -1.30524 4.42136 0
M  V30 3468 H 349.503 1.111 6.88696 0
M  V30 3469 H 345.4 -0.0455636 6.45484 0
M  V30 3470 H 346.168 1.23077 8.09194 0
M  V30 3471 N 348.832 -1.54138 -0.328536 0
M  V30 3472 C 350.072 -1.73827 -1.07534 0
M  V30 3473 C 350.436 -0.498777 -1.85408 0
M  V30 3474 O 351.637 -0.572937 -2.62623 0
M  V30 3475 C 349.908 -2.97573 -1.97952 0
M  V30 3476 S 351.467 -3.38143 -2.79652 0
M  V30 3477 H 348.285 -0.611287 -0.36311 0
M  V30 3478 H 350.887 -1.92306 -0.351931 0
M  V30 3479 H 349.591 -3.85939 -1.39569 0
M  V30 3480 H 349.122 -2.81603 -2.74706 0
M  V30 3481 H 351.137 -2.93052 -4.00418 0
M  V30 3482 N 350.31 0.590341 -1.46126 0
M  V30 3483 C 351.721 1.17243 -1.45296 0
M  V30 3484 C 352.072 1.95281 -0.189723 0
M  V30 3485 O 351.197 2.04502 0.707674 0
M  V30 3486 C 351.792 2.13284 -2.6324 0
M  V30 3487 C 350.351 2.66832 -2.65476 0
M  V30 3488 C 349.498 1.42557 -2.3785 0
M  V30 3489 H 352.449 0.378692 -1.54116 0
M  V30 3490 H 352.47 2.96619 -2.38323 0
M  V30 3491 H 351.982 1.56459 -3.55165 0
M  V30 3492 H 350.083 3.27548 -1.77603 0
M  V30 3493 H 350.196 3.10088 -3.65215 0
M  V30 3494 H 348.56 1.72107 -1.87753 0
M  V30 3495 H 349.343 0.875741 -3.31942 0
M  V30 3496 N 351.788 1.33704 0.83433 0
M  V30 3497 C 352.751 1.24244 1.92603 0
M  V30 3498 C 353.751 0.160383 1.59998 0
M  V30 3499 O 354.941 0.412228 1.69252 0
M  V30 3500 C 352.073 0.91555 3.28376 0
M  V30 3501 H 353.266 2.21287 2.02416 0
M  V30 3502 H 350.819 1.17827 1.02696 0
M  V30 3503 H 351.554 -0.0521886 3.24258 0
M  V30 3504 H 351.339 1.69811 3.53422 0
M  V30 3505 H 352.829 0.874231 4.08347 0
M  V30 3506 N 353.266 -1.05314 1.17247 0
M  V30 3507 C 354.677 -1.59753 0.96623 0
M  V30 3508 C 355.028 -1.9005 -0.487378 0
M  V30 3509 O 354.153 -1.68126 -1.36245 0
M  V30 3510 C 354.748 -2.90249 1.74759 0
M  V30 3511 C 353.307 -3.41352 1.58606 0
M  V30 3512 C 352.454 -2.15103 1.75002 0
M  V30 3513 H 355.405 -0.881406 1.31973 0
M  V30 3514 H 355.426 -3.60097 1.22925 0
M  V30 3515 H 354.938 -2.68166 2.8055 0
M  V30 3516 H 353.039 -3.68474 0.552985 0
M  V30 3517 H 353.152 -4.16019 2.37624 0
M  V30 3518 H 351.516 -2.25804 1.17833 0
M  V30 3519 H 352.299 -1.95491 2.82202 0
M  V30 3520 N 354.744 -0.972509 -1.24016 0
M  V30 3521 C 355.676 -0.464375 -2.24446 0
M  V30 3522 C 356.689 0.4295 -1.57032 0
M  V30 3523 O 357.878 0.234902 -1.76948 0
M  V30 3524 C 354.978 0.348385 -3.37105 0
M  V30 3525 C 354.151 -0.53673 -4.34094 0
M  V30 3526 C 353.21 0.220838 -5.25736 0
M  V30 3527 O 352.236 -0.386867 -5.67884 0
M  V30 3528 N 353.438 1.50907 -5.60542 0
M  V30 3529 H 356.203 -1.32788 -2.68677 0
M  V30 3530 H 353.764 -0.844877 -1.38107 0
M  V30 3531 H 355.756 0.863341 -3.95384 0
M  V30 3532 H 354.326 1.11285 -2.92121 0
M  V30 3533 H 353.546 -1.23261 -3.74433 0
M  V30 3534 H 354.834 -1.14022 -4.95859 0
M  V30 3535 H 354.232 2.02444 -5.28236 0
M  V30 3536 H 352.789 1.96962 -6.21329 0
M  V30 3537 N 356.222 1.38976 -0.743202 0
M  V30 3538 C 357.468 2.0064 -0.295189 0
M  V30 3539 C 357.801 1.5885 1.11716 0
M  V30 3540 O 357.076 0.821181 1.76315 0
M  V30 3541 C 357.359 3.578 -0.406318 0
M  V30 3542 C 357.212 4.09586 -1.85903 0
M  V30 3543 C 358.531 4.39616 0.206439 0
M  V30 3544 H 355.65 0.728935 -0.108733 0
M  V30 3545 H 358.292 1.65067 -0.940897 0
M  V30 3546 H 356.442 3.88235 0.143419 0
M  V30 3547 H 358.114 3.89837 -2.46627 0
M  V30 3548 H 356.357 3.6284 -2.3776 0
M  V30 3549 H 357.028 5.18708 -1.888 0
M  V30 3550 H 359.504 4.15273 -0.262283 0
M  V30 3551 H 358.38 5.48812 0.0983819 0
M  V30 3552 H 358.641 4.22754 1.2935 0
M  V30 3553 N 357.7 0.491464 1.49741 0
M  V30 3554 C 358.925 -0.0557177 2.07325 0
M  V30 3555 C 359.35 -1.30925 1.35056 0
M  V30 3556 O 358.708 -1.76733 0.404365 0
M  V30 3557 C 358.756 -0.302074 3.59333 0
M  V30 3558 O 357.86 -1.37868 3.88672 0
M  V30 3559 H 357.201 0.0219956 0.663636 0
M  V30 3560 H 359.731 0.688352 1.92673 0
M  V30 3561 H 359.741 -0.536464 4.04458 0
M  V30 3562 H 358.416 0.61383 4.11345 0
M  V30 3563 H 356.993 -1.12999 3.55367 0
M  V30 3564 N 359.178 -1.55987 0.224894 0
M  V30 3565 C 360.126 -2.21808 -0.700283 0
M  V30 3566 C 361.12 -1.19854 -1.19714 0
M  V30 3567 O 362.326 -1.37925 -1.15658 0
M  V30 3568 H 358.701 -0.711226 -0.244258 0
M  V30 3569 H 360.672 -2.98152 -0.121749 0
M  V30 3570 C 359.421 -2.91444 -1.8962 0
M  V30 3571 H 358.744 -3.69655 -1.52299 0
M  V30 3572 H 360.184 -3.40894 -2.52125 0
M  V30 3573 C 358.643 -1.94098 -2.75368 0
M  V30 3574 O 359.173 -1.46004 -3.74227 0
M  V30 3575 N 357.379 -1.61675 -2.41474 0
M  V30 3576 H 356.926 -2.00979 -1.61137 0
M  V30 3577 H 356.884 -0.968036 -2.99126 0
M  V30 3578 N 360.656 0.0484629 -1.57525 0
M  V30 3579 C 361.933 0.777447 -1.79486 0
M  V30 3580 C 362.313 1.94597 -0.818251 0
M  V30 3581 O 361.661 2.28047 0.143767 0
M  V30 3582 C 361.871 1.22864 -3.26658 0
M  V30 3583 C 363.219 1.65251 -3.91123 0
M  V30 3584 O 364.243 1.32372 -3.3069 0
M  V30 3585 O 363.102 2.26207 -4.97486 0
M  V30 3586 H 360.196 0.374357 -0.737419 0
M  V30 3587 H 362.742 0.0267359 -1.69679 0
M  V30 3588 H 361.514 0.393589 -3.89316 0
M  V30 3589 H 361.137 2.03996 -3.41279 0
M  V30 3590 N 362.134 1.5431 0.320358 0
M  V30 3591 C 363.064 1.86912 1.3995 0
M  V30 3592 C 364.045 0.726211 1.53819 0
M  V30 3593 O 365.23 0.980233 1.67646 0
M  V30 3594 C 362.36 2.09932 2.7667 0
M  V30 3595 C 361.314 3.25776 2.77586 0
M  V30 3596 C 360.64 3.34173 4.17412 0
M  V30 3597 C 361.94 4.6335 2.41048 0
M  V30 3598 H 363.634 2.77292 1.12914 0
M  V30 3599 H 361.18 1.33421 0.541738 0
M  V30 3600 H 363.133 2.31324 3.52232 0
M  V30 3601 H 361.857 1.16304 3.0519 0
M  V30 3602 H 360.516 3.04276 2.04479 0
M  V30 3603 H 360.164 2.38098 4.43078 0
M  V30 3604 H 359.864 4.12033 4.18931 0
M  V30 3605 H 361.388 3.57803 4.94782 0
M  V30 3606 H 362.802 4.84602 3.06324 0
M  V30 3607 H 361.199 5.43782 2.53813 0
M  V30 3608 H 362.269 4.65381 1.36193 0
M  V30 3609 N 363.613 -0.582584 1.46437 0
M  V30 3610 C 364.543 -1.70187 1.59871 0
M  V30 3611 C 365.524 -1.64066 0.449042 0
M  V30 3612 O 366.709 -1.82081 0.6753 0
M  V30 3613 C 363.839 -3.08827 1.58881 0
M  V30 3614 C 362.793 -3.29779 2.72819 0
M  V30 3615 C 362.119 -4.68947 2.5689 0
M  V30 3616 C 363.419 -3.17601 4.1464 0
M  V30 3617 H 365.113 -1.592 2.53566 0
M  V30 3618 H 362.659 -0.764472 1.22032 0
M  V30 3619 H 364.612 -3.86951 1.66873 0
M  V30 3620 H 363.336 -3.20713 0.617306 0
M  V30 3621 H 361.995 -2.54054 2.64296 0
M  V30 3622 H 361.643 -4.77599 1.57823 0
M  V30 3623 H 361.343 -4.83919 3.33312 0
M  V30 3624 H 362.867 -5.4924 2.66773 0
M  V30 3625 H 364.281 -3.8557 4.24274 0
M  V30 3626 H 362.678 -3.44094 4.9165 0
M  V30 3627 H 363.748 -2.14681 4.34788 0
M  V30 3628 N 365.091 -1.34144 -0.827227 0
M  V30 3629 C 366.021 -1.28005 -1.95287 0
M  V30 3630 C 367.002 -0.158321 -1.69362 0
M  V30 3631 O 368.187 -0.349987 -1.9102 0
M  V30 3632 C 365.317 -1.03036 -3.31664 0
M  V30 3633 C 364.271 -2.11628 -3.72019 0
M  V30 3634 C 363.597 -1.71854 -5.0633 0
M  V30 3635 C 364.897 -3.53417 -3.8457 0
M  V30 3636 H 366.591 -2.22187 -2.00682 0
M  V30 3637 H 364.137 -1.0696 -0.964135 0
M  V30 3638 H 366.09 -0.973863 -4.09993 0
M  V30 3639 H 364.814 -0.0529391 -3.26557 0
M  V30 3640 H 363.473 -2.16339 -2.95961 0
M  V30 3641 H 363.121 -0.727841 -4.97706 0
M  V30 3642 H 362.821 -2.44531 -5.34302 0
M  V30 3643 H 364.345 -1.67692 -5.87122 0
M  V30 3644 H 365.759 -3.51142 -4.5318 0
M  V30 3645 H 364.156 -4.24679 -4.2399 0
M  V30 3646 H 365.226 -3.91072 -2.86689 0
M  V30 3647 N 366.569 1.04691 -1.17803 0
M  V30 3648 C 367.516 2.12557 -0.899343 0
M  V30 3649 C 368.486 1.65339 0.158771 0
M  V30 3650 O 369.671 1.90789 0.0204797 0
M  V30 3651 C 366.811 3.42481 -0.424315 0
M  V30 3652 C 365.924 4.03346 -1.54713 0
M  V30 3653 C 365.059 5.21208 -1.02546 0
M  V30 3654 C 364.098 5.74089 -2.12339 0
M  V30 3655 N 363.235 6.83247 -1.61612 0
M  V30 3656 H 368.075 2.35734 -1.823 0
M  V30 3657 H 365.612 1.1564 -0.909159 0
M  V30 3658 H 367.57 4.16996 -0.130421 0
M  V30 3659 H 366.2 3.19471 0.462377 0
M  V30 3660 H 365.252 3.2622 -1.95664 0
M  V30 3661 H 366.564 4.38628 -2.37501 0
M  V30 3662 H 365.718 6.02812 -0.685718 0
M  V30 3663 H 364.457 4.87414 -0.167084 0
M  V30 3664 H 363.462 4.91111 -2.47165 0
M  V30 3665 H 364.687 6.0993 -2.98601 0
M  V30 3666 H 362.633 6.5134 -0.780533 0
M  V30 3667 H 362.55 7.17559 -2.38003 0
M  V30 3668 H 363.818 7.68491 -1.30545 0
M  V30 3669 N 368.047 0.979072 1.23499 0
M  V30 3670 C 369.296 0.642751 1.91185 0
M  V30 3671 C 369.609 -0.827253 1.77245 0
M  V30 3672 O 370.815 -1.27458 2.39722 0
M  V30 3673 C 369.271 1.09901 3.42709 0
M  V30 3674 C 368.879 2.59327 3.65313 0
M  V30 3675 C 370.623 0.836371 4.16179 0
M  V30 3676 C 368.53 2.98627 5.10467 0
M  V30 3677 H 367.46 0.236698 0.715884 0
M  V30 3678 H 370.111 1.1868 1.39955 0
M  V30 3679 H 368.493 0.48319 3.93041 0
M  V30 3680 H 369.667 3.26136 3.25533 0
M  V30 3681 H 367.982 2.83323 3.05151 0
M  V30 3682 H 370.579 1.10586 5.23139 0
M  V30 3683 H 370.922 -0.227509 4.15678 0
M  V30 3684 H 371.455 1.41371 3.71832 0
M  V30 3685 H 368.194 4.04133 5.16098 0
M  V30 3686 H 367.714 2.3651 5.51201 0
M  V30 3687 H 369.393 2.89159 5.78788 0
M  V30 3688 N 369.525 -1.3858 0.750561 0
M  V30 3689 C 370.472 -2.30483 0.120835 0
M  V30 3690 C 371.442 -1.50022 -0.712923 0
M  V30 3691 O 372.627 -1.78662 -0.669676 0
M  V30 3692 C 369.767 -3.36431 -0.768666 0
M  V30 3693 C 368.88 -4.31927 0.0793922 0
M  V30 3694 C 368.015 -5.24944 -0.81283 0
M  V30 3695 C 367.054 -6.12088 0.0390447 0
M  V30 3696 N 366.191 -6.97412 -0.809969 0
M  V30 3697 H 371.031 -2.83761 0.91015 0
M  V30 3698 H 368.568 -1.39707 0.460463 0
M  V30 3699 H 370.526 -3.96462 -1.29898 0
M  V30 3700 H 369.156 -2.8457 -1.5238 0
M  V30 3701 H 368.208 -3.73382 0.727303 0
M  V30 3702 H 369.52 -4.93319 0.737401 0
M  V30 3703 H 368.674 -5.90078 -1.41042 0
M  V30 3704 H 367.413 -4.63911 -1.50458 0
M  V30 3705 H 366.418 -5.45952 0.649328 0
M  V30 3706 H 367.643 -6.75189 0.727809 0
M  V30 3707 H 365.589 -6.38931 -1.48672 0
M  V30 3708 H 365.506 -7.55712 -0.208789 0
M  V30 3709 H 366.774 -7.66959 -1.39263 0
M  V30 3710 N 371.003 -0.499398 -1.49478 0
M  V30 3711 C 372.28 0.108629 -1.95298 0
M  V30 3712 C 372.66 1.54282 -1.44084 0
M  V30 3713 O 372.008 2.18944 -0.653908 0
M  V30 3714 C 372.218 0.0229111 -3.48992 0
M  V30 3715 C 373.566 0.197643 -4.2414 0
M  V30 3716 O 374.59 0.0981735 -3.56065 0
M  V30 3717 O 373.449 0.401669 -5.45022 0
M  V30 3718 H 370.543 0.096181 -0.821388 0
M  V30 3719 H 373.089 -0.561822 -1.6013 0
M  V30 3720 H 371.861 -0.977321 -3.78899 0
M  V30 3721 H 371.484 0.733579 -3.90774 0
M  V30 3722 N 372.481 1.55866 -0.233164 0
M  V30 3723 C 373.709 2.02998 0.399905 0
M  V30 3724 C 374.124 1.11274 1.52524 0
M  V30 3725 O 373.481 0.124528 1.82075 0
M  V30 3726 C 373.532 3.4958 0.920639 0
M  V30 3727 O 373.253 4.37808 -0.159834 0
M  V30 3728 C 374.754 4.12411 1.62578 0
M  V30 3729 H 371.974 0.664006 0.0966281 0
M  V30 3730 H 374.518 2.0143 -0.353013 0
M  V30 3731 H 372.673 3.51727 1.62379 0
M  V30 3732 H 373.087 5.23981 0.23337 0
M  V30 3733 H 374.561 5.16711 1.94201 0
M  V30 3734 H 375.038 3.5809 2.54299 0
M  V30 3735 H 375.644 4.14148 0.967553 0
M  V30 3736 N 373.959 -0.0401083 1.57549 0
M  V30 3737 C 375.205 -0.734211 1.89043 0
M  V30 3738 C 375.538 -1.75591 0.829535 0
M  V30 3739 O 374.813 -1.93868 -0.156706 0
M  V30 3740 C 375.096 -1.41374 3.31188 0
M  V30 3741 C 374.949 -0.406299 4.47961 0
M  V30 3742 C 376.268 -2.35061 3.72068 0
M  V30 3743 H 373.387 -0.265447 0.687537 0
M  V30 3744 H 376.029 0.00294087 1.9 0
M  V30 3745 H 374.179 -2.04206 3.30503 0
M  V30 3746 H 375.851 0.219255 4.60779 0
M  V30 3747 H 374.094 0.275485 4.32924 0
M  V30 3748 H 374.765 -0.920022 5.44279 0
M  V30 3749 H 377.241 -1.82282 3.74049 0
M  V30 3750 H 376.117 -2.79593 4.72355 0
M  V30 3751 H 376.378 -3.21258 3.0372 0
M  V30 3752 N 375.437 -1.54477 -0.31217 0
M  V30 3753 C 376.367 -1.87652 -1.38957 0
M  V30 3754 C 377.348 -0.734358 -1.53431 0
M  V30 3755 O 378.533 -0.98911 -1.67123 0
M  V30 3756 C 375.663 -2.11396 -2.75552 0
M  V30 3757 C 374.617 -3.27243 -2.75855 0
M  V30 3758 C 373.943 -3.36382 -4.15633 0
M  V30 3759 C 375.243 -4.64622 -2.38587 0
M  V30 3760 H 376.937 -2.77887 -1.11442 0
M  V30 3761 H 374.483 -1.33707 -0.534655 0
M  V30 3762 H 376.436 -2.33189 -3.51 0
M  V30 3763 H 375.16 -1.17921 -3.04569 0
M  V30 3764 H 373.819 -3.05356 -2.02863 0
M  V30 3765 H 373.467 -2.40445 -4.41809 0
M  V30 3766 H 373.167 -4.14249 -4.1674 0
M  V30 3767 H 374.691 -3.60422 -4.92877 0
M  V30 3768 H 376.105 -4.86219 -3.03749 0
M  V30 3769 H 374.502 -5.45121 -2.50925 0
M  V30 3770 H 375.572 -4.66097 -1.33723 0
M  V30 3771 N 376.915 0.57481 -1.46744 0
M  V30 3772 C 377.847 1.69804 -1.53946 0
M  V30 3773 C 378.86 1.57098 -0.427106 0
M  V30 3774 O 380.049 1.64378 -0.695863 0
M  V30 3775 C 377.149 3.08125 -1.4111 0
M  V30 3776 C 376.322 3.46757 -2.66605 0
M  V30 3777 C 375.381 4.6417 -2.47855 0
M  V30 3778 O 374.407 4.69634 -3.21609 0
M  V30 3779 N 375.609 5.59553 -1.54534 0
M  V30 3780 H 378.374 1.64077 -2.50796 0
M  V30 3781 H 375.935 0.761 -1.429 0
M  V30 3782 H 377.927 3.84478 -1.26328 0
M  V30 3783 H 376.497 3.08175 -0.524109 0
M  V30 3784 H 375.717 2.6003 -2.96274 0
M  V30 3785 H 377.005 3.69337 -3.49954 0
M  V30 3786 H 376.403 5.57881 -0.937304 0
M  V30 3787 H 374.96 6.35304 -1.45711 0
M  V30 3788 N 378.394 1.34581 0.820102 0
M  V30 3789 C 379.81 1.14325 1.11364 0
M  V30 3790 C 380.01 -0.0533648 2.01429 0
M  V30 3791 O 379.066 -0.728044 2.41776 0
M  V30 3792 C 380.379 2.43983 1.75764 0
M  V30 3793 C 381.927 2.50065 1.88246 0
M  V30 3794 C 382.402 3.79732 2.56061 0
M  V30 3795 N 383.893 3.80908 2.63558 0
M  V30 3796 C 384.628 4.77961 3.16766 0
M  V30 3797 N 384.124 5.85397 3.70517 0
M  V30 3798 N 385.917 4.65413 3.15194 0
M  V30 3799 H 378.068 2.11246 0.221096 0
M  V30 3800 H 380.331 0.934289 0.160649 0
M  V30 3801 H 380.037 3.31651 1.1705 0
M  V30 3802 H 379.911 2.57531 2.75604 0
M  V30 3803 H 382.298 1.62834 2.46108 0
M  V30 3804 H 382.379 2.40442 0.873006 0
M  V30 3805 H 382.023 4.67354 1.98853 0
M  V30 3806 H 381.953 3.86639 3.57516 0
M  V30 3807 H 384.444 3.03274 2.25463 0
M  V30 3808 H 384.757 6.55463 4.09376 0
M  V30 3809 H 383.102 5.89107 3.68752 0
M  V30 3810 H 386.293 3.80627 2.72471 0
M  V30 3811 H 386.466 5.41216 3.56356 0
M  V30 3812 N 379.872 -1.04064 1.18357 0
M  V30 3813 C 381.1 -1.80916 1.00384 0
M  V30 3814 C 381.515 -1.83414 -0.447738 0
M  V30 3815 O 380.872 -1.26962 -1.31099 0
M  V30 3816 C 380.923 -3.26516 1.55144 0
M  V30 3817 O 380.644 -3.2424 2.94618 0
M  V30 3818 C 382.145 -4.20013 1.41789 0
M  V30 3819 H 379.365 -0.569728 0.354474 0
M  V30 3820 H 381.909 -1.31151 1.56906 0
M  V30 3821 H 380.064 -3.73512 1.02798 0
M  V30 3822 H 380.478 -4.15452 3.20156 0
M  V30 3823 H 381.952 -5.20111 1.84901 0
M  V30 3824 H 382.429 -4.37667 0.36661 0
M  V30 3825 H 383.035 -3.78881 1.93207 0
M  V30 3826 N 381.35 -0.985608 -1.22978 0
M  V30 3827 C 382.596 -0.65836 -1.91816 0
M  V30 3828 C 382.929 0.806692 -1.76653 0
M  V30 3829 O 382.204 1.58252 -1.13078 0
M  V30 3830 C 382.487 -1.056 -3.44268 0
M  V30 3831 C 382.34 -2.57906 -3.68516 0
M  V30 3832 C 383.659 -0.603781 -4.35939 0
M  V30 3833 H 380.778 -0.24065 -0.696604 0
M  V30 3834 H 383.42 -1.22783 -1.44998 0
M  V30 3835 H 381.57 -0.571445 -3.84274 0
M  V30 3836 H 383.242 -3.13976 -3.3796 0
M  V30 3837 H 381.485 -3.00305 -3.13048 0
M  V30 3838 H 382.156 -2.80779 -4.75255 0
M  V30 3839 H 384.632 -1.01987 -4.03408 0
M  V30 3840 H 383.508 -0.910383 -5.41298 0
M  V30 3841 H 383.769 0.495761 -4.39312 0
M  V30 3842 N 382.828 1.3818 -0.7579 0
M  V30 3843 C 384.105 1.94106 -0.241306 0
M  V30 3844 C 384.485 1.69282 1.26122 0
M  V30 3845 O 383.833 1.03378 2.03777 0
M  V30 3846 C 384.043 3.43809 -0.59967 0
M  V30 3847 C 385.391 4.20868 -0.561717 0
M  V30 3848 O 386.415 3.5211 -0.538222 0
M  V30 3849 O 385.274 5.43451 -0.576478 0
M  V30 3850 H 382.368 0.825376 -0.0518042 0
M  V30 3851 H 384.914 1.47548 -0.838315 0
M  V30 3852 H 383.686 3.55403 -1.6372 0
M  V30 3853 H 383.309 3.97592 0.0251197 0
M  V30 3854 N 384.306 0.507319 1.49211 0
M  V30 3855 C 385.554 -0.0348839 2.0207 0
M  V30 3856 C 385.875 -1.36898 1.38866 0
M  V30 3857 O 385.145 -1.88133 0.546151 0
M  V30 3858 H 383.725 -0.0158812 0.746831 0
M  V30 3859 H 386.387 0.665998 1.83168 0
M  V30 3860 H 385.483 -0.159917 3.1169 0
M  V30 3861 N 385.784 -1.5574 0.241426 0
M  V30 3862 C 386.717 -2.17168 -0.700935 0
M  V30 3863 C 387.695 -1.12206 -1.1768 0
M  V30 3864 O 388.879 -1.40565 -1.25593 0
M  V30 3865 C 386.006 -2.76796 -1.95196 0
M  V30 3866 C 385.052 -3.94764 -1.61442 0
M  V30 3867 S 385.885 -5.30613 -0.72182 0
M  V30 3868 C 387.041 -5.93691 -1.98197 0
M  V30 3869 H 387.274 -2.96761 -0.178882 0
M  V30 3870 H 384.807 -1.54378 0.0259299 0
M  V30 3871 H 386.765 -3.11787 -2.67019 0
M  V30 3872 H 385.426 -1.9716 -2.44514 0
M  V30 3873 H 384.619 -4.35057 -2.54443 0
M  V30 3874 H 384.221 -3.61022 -0.976672 0
M  V30 3875 H 386.513 -6.10874 -2.92983 0
M  V30 3876 H 387.456 -6.89258 -1.62262 0
M  V30 3877 H 387.864 -5.22709 -2.13156 0
M  V30 3878 N 387.262 0.0317525 -1.57568 0
M  V30 3879 C 388.194 1.06073 -2.03178 0
M  V30 3880 C 389.207 1.32627 -0.944132 0
M  V30 3881 O 390.396 1.30162 -1.22148 0
M  V30 3882 C 387.496 2.40297 -2.38978 0
M  V30 3883 C 386.669 2.33137 -3.70089 0
M  V30 3884 C 385.728 3.49787 -3.9311 0
M  V30 3885 O 384.754 3.29403 -4.64201 0
M  V30 3886 N 385.956 4.71562 -3.38541 0
M  V30 3887 H 388.721 0.672006 -2.92069 0
M  V30 3888 H 386.282 0.219745 -1.60402 0
M  V30 3889 H 388.274 3.1705 -2.51518 0
M  V30 3890 H 386.844 2.71024 -1.55771 0
M  V30 3891 H 386.064 1.415 -3.67928 0
M  V30 3892 H 387.352 2.25493 -4.56104 0
M  V30 3893 H 386.75 4.91024 -2.80912 0
M  V30 3894 H 385.307 5.45689 -3.56464 0
M  V30 3895 N 388.74 1.54641 0.303973 0
M  V30 3896 C 389.672 1.81754 1.39636 0
M  V30 3897 C 390.685 0.70035 1.46966 0
M  V30 3898 O 391.874 0.97778 1.49338 0
M  V30 3899 C 388.974 1.93785 2.7803 0
M  V30 3900 C 388.147 3.24156 2.93669 0
M  V30 3901 C 387.206 3.26641 4.12544 0
M  V30 3902 O 386.232 4.00187 4.04771 0
M  V30 3903 N 387.434 2.5182 5.23036 0
M  V30 3904 H 390.199 2.76031 1.16734 0
M  V30 3905 H 387.76 1.54178 0.494033 0
M  V30 3906 H 389.752 1.92852 3.55795 0
M  V30 3907 H 388.322 1.06515 2.93893 0
M  V30 3908 H 387.542 3.37887 2.03042 0
M  V30 3909 H 388.83 4.10195 3.01027 0
M  V30 3910 H 388.228 1.91692 5.32232 0
M  V30 3911 H 386.785 2.56644 5.99147 0
M  V30 3912 N 390.218 -0.567019 1.47046 0
M  V30 3913 C 391.128 -1.70247 1.6141 0
M  V30 3914 C 392.144 -1.66746 0.497157 0
M  V30 3915 O 393.32 -1.86371 0.763389 0
M  V30 3916 C 390.385 -3.06756 1.61561 0
M  V30 3917 C 389.446 -3.21399 2.84607 0
M  V30 3918 C 388.679 -4.51396 2.84741 0
M  V30 3919 O 388.902 -5.36255 1.94388 0
M  V30 3920 O 387.836 -4.69621 3.76483 0
M  V30 3921 H 391.662 -1.61073 2.57467 0
M  V30 3922 H 389.247 -0.735894 1.30019 0
M  V30 3923 H 391.129 -3.8801 1.64396 0
M  V30 3924 H 389.804 -3.16333 0.686684 0
M  V30 3925 H 388.711 -2.39579 2.8732 0
M  V30 3926 H 390.044 -3.16721 3.76761 0
M  V30 3927 N 391.696 -1.35014 -0.812953 0
M  V30 3928 C 392.944 -1.27678 -1.56661 0
M  V30 3929 C 393.265 0.150359 -1.94419 0
M  V30 3930 O 392.535 1.08532 -1.63088 0
M  V30 3931 H 391.115 -0.469602 -0.580933 0
M  V30 3932 H 393.777 -1.69043 -0.970076 0
M  V30 3933 H 392.873 -1.88833 -2.48492 0
M  V30 3934 N 393.175 1.03435 -1.18907 0
M  V30 3935 C 394.403 1.80381 -1.01342 0
M  V30 3936 C 394.818 1.83649 0.438005 0
M  V30 3937 O 394.175 1.27655 1.30424 0
M  V30 3938 C 394.226 3.25689 -1.56873 0
M  V30 3939 O 393.947 3.22673 -2.96334 0
M  V30 3940 C 395.448 4.19255 -1.44014 0
M  V30 3941 H 392.668 0.56784 -0.35749 0
M  V30 3942 H 395.212 1.30317 -1.576 0
M  V30 3943 H 393.367 3.72962 -1.04777 0
M  V30 3944 H 393.781 4.13748 -3.22355 0
M  V30 3945 H 395.255 5.19123 -1.87657 0
M  V30 3946 H 395.732 4.37467 -0.389815 0
M  V30 3947 H 396.338 3.77851 -1.95214 0
M  V30 3948 N 394.653 0.992116 1.22453 0
M  V30 3949 C 396.064 0.702776 1.72968 0
M  V30 3950 C 396.415 -0.780399 1.80012 0
M  V30 3951 O 395.54 -1.61007 1.44589 0
M  V30 3952 C 396.135 1.26903 3.14135 0
M  V30 3953 C 394.694 1.02909 3.62059 0
M  V30 3954 C 393.841 1.38969 2.39964 0
M  V30 3955 H 396.792 1.16457 1.07812 0
M  V30 3956 H 396.813 0.647223 3.74955 0
M  V30 3957 H 396.325 2.34851 3.08977 0
M  V30 3958 H 394.426 -0.0337979 3.72585 0
M  V30 3959 H 394.539 1.69191 4.48231 0
M  V30 3960 H 392.903 0.808279 2.41535 0
M  V30 3961 H 393.686 2.4792 2.37467 0
M  V30 3962 N 396.131 -1.37776 0.765217 0
M  V30 3963 C 397.361 -2.03828 0.337277 0
M  V30 3964 C 397.769 -1.57841 -1.04321 0
M  V30 3965 O 397.112 -0.752043 -1.67601 0
M  V30 3966 C 397.174 -3.58292 0.294407 0
M  V30 3967 C 396.838 -4.27384 1.61838 0
M  V30 3968 C 397.835 -4.51956 2.56967 0
M  V30 3969 C 395.52 -4.65345 1.89102 0
M  V30 3970 C 397.514 -5.13536 3.77571 0
M  V30 3971 C 395.201 -5.26647 3.09978 0
M  V30 3972 C 396.199 -5.50679 4.04032 0
M  V30 3973 O 395.887 -6.10702 5.2278 0
M  V30 3974 H 395.619 -0.661292 0.140248 0
M  V30 3975 H 398.173 -1.77222 1.03834 0
M  V30 3976 H 396.403 -3.83918 -0.462983 0
M  V30 3977 H 398.092 -4.05763 -0.105581 0
M  V30 3978 H 398.858 -4.23048 2.37183 0
M  V30 3979 H 394.737 -4.45978 1.16725 0
M  V30 3980 H 398.281 -5.3221 4.50997 0
M  V30 3981 H 394.178 -5.54979 3.29649 0
M  V30 3982 H 394.946 -6.29183 5.23517 0
M  V30 3983 N 397.609 -0.515225 -1.4894 0
M  V30 3984 C 398.837 0.0206034 -2.0689 0
M  V30 3985 C 399.252 1.29514 -1.37374 0
M  V30 3986 O 398.609 1.76698 -0.456529 0
M  V30 3987 C 398.66 0.26351 -3.60538 0
M  V30 3988 O 398.381 -0.960517 -4.27441 0
M  V30 3989 C 399.882 0.841383 -4.35242 0
M  V30 3990 H 397.102 -0.0268608 -0.670462 0
M  V30 3991 H 399.646 -0.716651 -1.91532 0
M  V30 3992 H 397.801 0.950777 -3.75552 0
M  V30 3993 H 398.215 -0.73212 -5.19365 0
M  V30 3994 H 399.689 0.96085 -5.43573 0
M  V30 3995 H 400.166 1.8427 -3.98674 0
M  V30 3996 H 400.772 0.191143 -4.2487 0
M  V30 3997 N 399.087 1.5561 -0.249682 0
M  V30 3998 C 400.335 1.98618 0.373548 0
M  V30 3999 C 400.656 1.13919 1.58264 0
M  V30 4000 O 399.926 0.222637 1.94631 0
M  V30 4001 H 398.506 0.733571 0.141006 0
M  V30 4002 H 401.168 1.91748 -0.349117 0
M  V30 4003 H 400.264 3.04584 0.680796 0
M  V30 4004 N 400.565 -0.0233959 1.57583 0
M  V30 4005 C 401.814 -0.712133 1.8871 0
M  V30 4006 C 402.127 -1.76217 0.848944 0
M  V30 4007 O 403.333 -2.50389 1.04964 0
M  V30 4008 C 401.789 -1.3177 3.3491 0
M  V30 4009 C 401.397 -0.303715 4.46969 0
M  V30 4010 C 403.141 -1.98598 3.75179 0
M  V30 4011 C 401.048 -0.917945 5.84233 0
M  V30 4012 H 399.978 -0.269735 0.704101 0
M  V30 4013 H 402.629 0.0333114 1.8347 0
M  V30 4014 H 401.011 -2.11304 3.34913 0
M  V30 4015 H 402.185 0.465325 4.58445 0
M  V30 4016 H 400.5 0.2628 4.1557 0
M  V30 4017 H 403.097 -2.45416 4.75053 0
M  V30 4018 H 403.44 -2.80659 3.07468 0
M  V30 4019 H 403.973 -1.25831 3.77374 0
M  V30 4020 H 400.712 -0.136633 6.55358 0
M  V30 4021 H 400.232 -1.65669 5.76467 0
M  V30 4022 H 401.911 -1.4236 6.31144 0
M  V30 4023 N 402.043 -1.548 -0.295768 0
M  V30 4024 C 402.973 -1.89115 -1.36959 0
M  V30 4025 C 403.954 -0.75059 -1.52644 0
M  V30 4026 O 405.139 -1.00678 -1.66065 0
M  V30 4027 C 402.269 -2.14307 -2.73295 0
M  V30 4028 C 401.223 -3.30151 -2.72368 0
M  V30 4029 C 400.549 -3.40772 -4.12042 0
M  V30 4030 C 401.849 -4.67126 -2.33646 0
M  V30 4031 H 403.543 -2.79053 -1.08488 0
M  V30 4032 H 401.089 -1.34266 -0.520443 0
M  V30 4033 H 403.042 -2.36898 -3.48507 0
M  V30 4034 H 401.766 -1.21145 -3.03301 0
M  V30 4035 H 400.425 -3.0749 -1.99613 0
M  V30 4036 H 400.073 -2.45117 -4.39234 0
M  V30 4037 H 399.773 -4.18645 -4.12322 0
M  V30 4038 H 401.297 -3.6563 -4.89027 0
M  V30 4039 H 402.711 -4.89414 -2.98575 0
M  V30 4040 H 401.108 -5.47751 -2.45129 0
M  V30 4041 H 402.178 -4.67489 -1.28772 0
M  V30 4042 N 403.521 0.559213 -1.47345 0
M  V30 4043 C 404.751 1.33999 -1.57251 0
M  V30 4044 C 405.159 1.87905 -0.220978 0
M  V30 4045 O 404.502 1.65577 0.795617 0
M  V30 4046 C 404.564 2.54798 -2.53611 0
M  V30 4047 C 404.228 2.22192 -3.99349 0
M  V30 4048 C 405.225 1.79607 -4.87891 0
M  V30 4049 C 402.91 2.33613 -4.44669 0
M  V30 4050 C 404.904 1.48868 -6.19772 0
M  V30 4051 C 402.591 2.02487 -5.76578 0
M  V30 4052 C 403.589 1.60183 -6.63951 0
M  V30 4053 O 403.277 1.29451 -7.93409 0
M  V30 4054 H 403.009 0.414858 -0.533731 0
M  V30 4055 H 405.563 0.684465 -1.9366 0
M  V30 4056 H 403.793 3.23235 -2.12265 0
M  V30 4057 H 405.482 3.16873 -2.53666 0
M  V30 4058 H 406.248 1.70278 -4.54126 0
M  V30 4059 H 402.127 2.65501 -3.76869 0
M  V30 4060 H 405.671 1.15775 -6.87926 0
M  V30 4061 H 401.568 2.11448 -6.09885 0
M  V30 4062 H 402.336 1.43098 -8.05894 0
M  V30 4063 N 404.999 1.35443 0.805782 0
M  V30 4064 C 405.962 1.28301 1.89925 0
M  V30 4065 C 406.962 0.194285 1.59622 0
M  V30 4066 O 408.152 0.448036 1.6834 0
M  V30 4067 C 405.284 0.984997 3.2636 0
M  V30 4068 H 406.477 2.2553 1.97677 0
M  V30 4069 H 404.03 1.19979 1.00173 0
M  V30 4070 H 404.765 0.016603 3.24296 0
M  V30 4071 H 404.55 1.77269 3.4974 0
M  V30 4072 H 406.04 0.960651 4.064 0
M  V30 4073 N 406.477 -1.02803 1.19454 0
M  V30 4074 C 407.725 -1.75869 0.995722 0
M  V30 4075 C 408.046 -1.89138 -0.474543 0
M  V30 4076 O 407.316 -1.42558 -1.34366 0
M  V30 4077 H 405.896 -0.651511 0.365435 0
M  V30 4078 H 408.558 -1.24004 1.50363 0
M  V30 4079 H 407.654 -2.76661 1.44447 0
M  V30 4080 N 407.956 -0.998596 -1.21925 0
M  V30 4081 C 409.205 -0.673085 -1.90138 0
M  V30 4082 C 409.518 0.79895 -1.78539 0
M  V30 4083 O 410.724 1.23628 -2.4172 0
M  V30 4084 C 409.18 -1.15339 -3.40918 0
M  V30 4085 C 408.788 -2.65106 -3.61141 0
M  V30 4086 C 410.532 -0.902476 -4.14796 0
M  V30 4087 C 408.439 -3.0671 -5.05651 0
M  V30 4088 H 407.369 -0.248057 -0.712028 0
M  V30 4089 H 410.02 -1.20891 -1.38049 0
M  V30 4090 H 408.402 -0.545658 -3.92223 0
M  V30 4091 H 409.576 -3.31274 -3.20304 0
M  V30 4092 H 407.891 -2.88142 -3.00605 0
M  V30 4093 H 410.488 -1.18895 -5.21314 0
M  V30 4094 H 410.831 0.161349 -4.15987 0
M  V30 4095 H 411.364 -1.47269 -3.69536 0
M  V30 4096 H 408.103 -4.12292 -5.09603 0
M  V30 4097 H 407.623 -2.45249 -5.47369 0
M  V30 4098 H 409.302 -2.9833 -5.74115 0
M  V30 4099 N 409.434 1.37368 -0.772513 0
M  V30 4100 C 410.367 2.27956 -0.105593 0
M  V30 4101 C 411.345 1.46362 0.708295 0
M  V30 4102 O 412.529 1.75695 0.682895 0
M  V30 4103 C 409.656 3.27687 0.856686 0
M  V30 4104 C 408.702 4.26312 0.1267 0
M  V30 4105 S 409.535 5.22206 -1.1858 0
M  V30 4106 C 410.691 6.25488 -0.227081 0
M  V30 4107 H 410.924 2.84171 -0.87372 0
M  V30 4108 H 408.457 1.43654 -0.565939 0
M  V30 4109 H 410.415 3.85653 1.40648 0
M  V30 4110 H 409.076 2.70417 1.59793 0
M  V30 4111 H 408.269 4.96674 0.856212 0
M  V30 4112 H 407.871 3.72339 -0.352117 0
M  V30 4113 H 410.163 6.74836 0.600231 0
M  V30 4114 H 411.106 7.02371 -0.898899 0
M  V30 4115 H 411.514 5.64267 0.162053 0
M  V30 4116 N 410.912 0.523116 1.48665 0
M  V30 4117 C 411.842 -0.23231 2.32342 0
M  V30 4118 C 412.823 -0.941637 1.41659 0
M  V30 4119 O 414.008 -0.928751 1.70552 0
M  V30 4120 C 411.138 -1.28387 3.22698 0
M  V30 4121 C 410.092 -0.693098 4.22351 0
M  V30 4122 C 409.418 -1.8468 5.01794 0
M  V30 4123 C 410.718 0.33063 5.21252 0
M  V30 4124 H 412.412 0.466192 2.95748 0
M  V30 4125 H 409.958 0.225643 1.42221 0
M  V30 4126 H 411.911 -1.82024 3.80059 0
M  V30 4127 H 410.635 -2.01186 2.57278 0
M  V30 4128 H 409.294 -0.178299 3.66166 0
M  V30 4129 H 408.942 -2.56301 4.32804 0
M  V30 4130 H 408.642 -1.45747 5.69238 0
M  V30 4131 H 410.166 -2.38709 5.62006 0
M  V30 4132 H 411.58 -0.118407 5.73178 0
M  V30 4133 H 409.977 0.636974 5.9671 0
M  V30 4134 H 411.047 1.23883 4.68808 0
M  V30 4135 N 412.39 -1.55475 0.257931 0
M  V30 4136 C 413.618 -2.03609 -0.367559 0
M  V30 4137 C 414.033 -1.13687 -1.50734 0
M  V30 4138 O 413.39 -0.153479 -1.81853 0
M  V30 4139 C 413.441 -3.51001 -0.864908 0
M  V30 4140 O 413.162 -4.37499 0.229465 0
M  V30 4141 C 414.663 -4.14946 -1.55997 0
M  V30 4142 H 411.883 -0.665459 -0.0860521 0
M  V30 4143 H 414.427 -2.00843 0.385014 0
M  V30 4144 H 412.582 -3.54266 -1.56762 0
M  V30 4145 H 412.996 -5.24286 -0.14998 0
M  V30 4146 H 414.47 -5.19735 -1.85956 0
M  V30 4147 H 414.947 -3.6209 -2.4857 0
M  V30 4148 H 415.553 -4.15635 -0.901543 0
M  V30 4149 N 413.868 0.0150385 -1.57593 0
M  V30 4150 C 414.815 1.01126 -2.07466 0
M  V30 4151 C 415.785 1.35064 -0.966794 0
M  V30 4152 O 416.97 1.4516 -1.23827 0
M  V30 4153 C 414.11 2.30276 -2.57035 0
M  V30 4154 C 413.223 2.02373 -3.81666 0
M  V30 4155 C 412.358 3.25496 -4.19793 0
M  V30 4156 C 411.397 2.93211 -5.37303 0
M  V30 4157 N 410.534 4.08826 -5.70794 0
M  V30 4158 H 415.374 0.57901 -2.92321 0
M  V30 4159 H 412.911 0.27426 -1.44521 0
M  V30 4160 H 414.869 3.05757 -2.83846 0
M  V30 4161 H 413.499 2.71197 -1.75077 0
M  V30 4162 H 412.551 1.17327 -3.61854 0
M  V30 4163 H 413.863 1.74567 -4.67256 0
M  V30 4164 H 413.017 4.09333 -4.47807 0
M  V30 4165 H 411.756 3.56428 -3.32882 0
M  V30 4166 H 410.761 2.07777 -5.09027 0
M  V30 4167 H 411.986 2.63542 -6.25877 0
M  V30 4168 H 409.932 4.39682 -4.86842 0
M  V30 4169 H 409.849 3.84491 -6.50924 0
M  V30 4170 H 411.117 4.93496 -6.03392 0
M  V30 4171 N 415.346 1.54954 0.287554 0
M  V30 4172 C 416.294 1.87606 1.37502 0
M  V30 4173 C 417.288 0.751001 1.51843 0
M  V30 4174 O 418.494 0.935169 1.53801 0
M  V30 4175 H 414.869 0.595231 0.459569 0
M  V30 4176 H 416.84 2.78477 1.07206 0
M  V30 4177 C 415.589 2.15183 2.73115 0
M  V30 4178 H 414.912 3.01234 2.62866 0
M  V30 4179 H 416.352 2.4196 3.48183 0
M  V30 4180 C 414.811 0.954686 3.2309 0
M  V30 4181 O 415.341 0.181949 4.01288 0
M  V30 4182 N 413.547 0.756368 2.80584 0
M  V30 4183 H 413.094 1.38643 2.17108 0
M  V30 4184 H 413.052 -0.0430391 3.14371 0
M  V30 4185 N 416.824 -0.551391 1.4764 0
M  V30 4186 C 418.072 -1.30572 1.54258 0
M  V30 4187 C 418.393 -1.93877 0.208963 0
M  V30 4188 O 417.663 -1.80234 -0.767619 0
M  V30 4189 H 416.243 -0.484894 0.568231 0
M  V30 4190 H 418.905 -0.643402 1.83974 0
M  V30 4191 H 418.001 -2.09621 2.31226 0
M  V30 4192 N 418.302 -1.35869 -0.798587 0
M  V30 4193 C 419.713 -1.26498 -1.37314 0
M  V30 4194 C 420.064 0.0991899 -1.95949 0
M  V30 4195 O 419.189 1.0004 -1.91888 0
M  V30 4196 C 419.784 -2.29054 -2.49639 0
M  V30 4197 C 418.343 -2.234 -3.02935 0
M  V30 4198 C 417.49 -2.14329 -1.75949 0
M  V30 4199 H 420.441 -1.46881 -0.600971 0
M  V30 4200 H 420.462 -1.92166 -3.28409 0
M  V30 4201 H 419.974 -3.2833 -2.06933 0
M  V30 4202 H 418.075 -1.27562 -3.50084 0
M  V30 4203 H 418.188 -3.15703 -3.60372 0
M  V30 4204 H 416.552 -1.60435 -1.9782 0
M  V30 4205 H 417.335 -3.15477 -1.35384 0
M  V30 4206 N 419.78 1.02168 -1.19998 0
M  V30 4207 C 420.727 2.10601 -0.944228 0
M  V30 4208 C 421.697 1.65639 0.123664 0
M  V30 4209 O 422.882 1.9079 -0.0199941 0
M  V30 4210 C 420.022 3.41504 -0.496865 0
M  V30 4211 C 419.135 3.99973 -1.63234 0
M  V30 4212 C 418.27 5.18915 -1.13579 0
M  V30 4213 C 417.309 5.69456 -2.24468 0
M  V30 4214 N 416.446 6.79665 -1.76068 0
M  V30 4215 H 421.286 2.31814 -1.8726 0
M  V30 4216 H 418.823 1.13686 -0.933483 0
M  V30 4217 H 420.781 4.16626 -0.218843 0
M  V30 4218 H 419.411 3.2038 0.394508 0
M  V30 4219 H 418.463 3.21997 -2.0254 0
M  V30 4220 H 419.775 4.33492 -2.46752 0
M  V30 4221 H 418.929 6.01222 -0.813429 0
M  V30 4222 H 417.668 4.8695 -0.270434 0
M  V30 4223 H 416.673 4.85757 -2.57526 0
M  V30 4224 H 417.898 6.03459 -3.11472 0
M  V30 4225 H 415.844 6.49538 -0.918516 0
M  V30 4226 H 415.761 7.12349 -2.5317 0
M  V30 4227 H 417.029 7.65549 -1.46817 0
M  V30 4228 N 421.258 1.00505 1.21394 0
M  V30 4229 C 422.504 0.688793 1.90745 0
M  V30 4230 C 422.837 -0.778486 1.77914 0
M  V30 4231 O 422.112 -1.56433 1.15581 0
M  V30 4232 C 422.395 1.11063 3.42545 0
M  V30 4233 C 422.248 2.63737 3.64367 0
M  V30 4234 C 423.567 0.673059 4.34923 0
M  V30 4235 H 420.686 0.251702 0.692687 0
M  V30 4236 H 423.328 1.25074 1.43026 0
M  V30 4237 H 421.478 0.632508 3.83317 0
M  V30 4238 H 423.15 3.19313 3.32922 0
M  V30 4239 H 421.393 3.05248 3.08231 0
M  V30 4240 H 422.064 2.88305 4.70727 0
M  V30 4241 H 424.54 1.08392 4.01734 0
M  V30 4242 H 423.416 0.996383 5.39781 0
M  V30 4243 H 423.677 -0.425808 4.40045 0
M  V30 4244 N 422.737 -1.36956 0.779787 0
M  V30 4245 C 423.667 -2.32761 0.185651 0
M  V30 4246 C 424.648 -1.56177 -0.673989 0
M  V30 4247 O 425.833 -1.84378 -0.609797 0
M  V30 4248 C 422.963 -3.40418 -0.687964 0
M  V30 4249 C 421.917 -4.27941 0.0710102 0
M  V30 4250 C 421.243 -5.26681 -0.922573 0
M  V30 4251 C 422.543 -5.07006 1.25467 0
M  V30 4252 H 424.237 -2.82698 0.986008 0
M  V30 4253 H 421.783 -1.3592 0.475592 0
M  V30 4254 H 423.736 -4.06423 -1.11348 0
M  V30 4255 H 422.46 -2.89025 -1.52093 0
M  V30 4256 H 421.119 -3.63478 0.47739 0
M  V30 4257 H 420.767 -4.71565 -1.7503 0
M  V30 4258 H 420.467 -5.86103 -0.419237 0
M  V30 4259 H 421.991 -5.9556 -1.34686 0
M  V30 4260 H 423.405 -5.66105 0.905401 0
M  V30 4261 H 421.802 -5.75793 1.69063 0
M  V30 4262 H 422.872 -4.3921 2.05481 0
M  V30 4263 N 424.215 -0.530993 -1.48385 0
M  V30 4264 C 425.125 0.23503 -2.3342 0
M  V30 4265 C 426.141 0.93801 -1.46552 0
M  V30 4266 O 427.317 0.912745 -1.7953 0
M  V30 4267 C 424.382 1.26778 -3.22689 0
M  V30 4268 C 423.443 0.575038 -4.25431 0
M  V30 4269 C 422.676 1.55858 -5.10435 0
M  V30 4270 O 422.899 2.79129 -4.97437 0
M  V30 4271 O 421.833 1.09742 -5.91811 0
M  V30 4272 H 425.659 -0.461794 -3.00169 0
M  V30 4273 H 423.244 -0.291903 -1.46521 0
M  V30 4274 H 425.126 1.86457 -3.77904 0
M  V30 4275 H 423.801 1.94699 -2.586 0
M  V30 4276 H 422.708 -0.0622782 -3.74048 0
M  V30 4277 H 424.041 -0.062253 -4.92161 0
M  V30 4278 N 425.693 1.55336 -0.266172 0
M  V30 4279 C 426.94 1.99397 0.353158 0
M  V30 4280 C 427.268 1.15451 1.56529 0
M  V30 4281 O 426.523 0.209974 1.9457 0
M  V30 4282 C 426.822 3.48606 0.787957 0
M  V30 4283 C 426.488 4.49773 -0.318541 0
M  V30 4284 C 425.15 4.77158 -0.62239 0
M  V30 4285 C 427.502 5.10212 -1.06459 0
M  V30 4286 C 424.83 5.62251 -1.67602 0
M  V30 4287 C 427.182 5.96449 -2.10788 0
M  V30 4288 C 425.846 6.22158 -2.41817 0
M  V30 4289 H 425.116 0.729644 0.12923 0
M  V30 4290 H 427.763 1.87732 -0.37802 0
M  V30 4291 H 426.068 3.57701 1.59866 0
M  V30 4292 H 427.765 3.80098 1.27775 0
M  V30 4293 H 424.355 4.2854 -0.0715925 0
M  V30 4294 H 428.539 4.89086 -0.843098 0
M  V30 4295 H 423.795 5.80419 -1.92155 0
M  V30 4296 H 427.969 6.42317 -2.69076 0
M  V30 4297 H 425.596 6.87888 -3.23596 0
M  V30 4298 N 427.171 -0.0066808 1.57599 0
M  V30 4299 C 428.119 -1.01851 2.09115 0
M  V30 4300 C 429.113 -1.36021 1.00969 0
M  V30 4301 O 430.319 -1.34663 1.19439 0
M  V30 4302 H 426.694 -0.346083 0.667631 0
M  V30 4303 H 428.665 -0.558394 2.93129 0
M  V30 4304 C 427.414 -2.30374 2.60429 0
M  V30 4305 H 426.737 -2.04947 3.43273 0
M  V30 4306 H 428.177 -2.99466 3.00161 0
M  V30 4307 C 426.636 -3.00893 1.51542 0
M  V30 4308 O 427.166 -3.91614 0.894484 0
M  V30 4309 N 425.372 -2.62603 1.2445 0
M  V30 4310 H 424.919 -1.88911 1.75129 0
M  V30 4311 H 424.877 -3.10101 0.518137 0
M  V30 4312 N 428.649 -1.55105 -0.279332 0
M  V30 4313 C 429.889 -1.7716 -1.01949 0
M  V30 4314 C 430.253 -0.557511 -1.83728 0
M  V30 4315 O 431.454 -0.656198 -2.60667 0
M  V30 4316 C 429.725 -3.0372 -1.88385 0
M  V30 4317 S 431.284 -3.46868 -2.68752 0
M  V30 4318 H 428.102 -0.62253 -0.343478 0
M  V30 4319 H 430.704 -1.93329 -0.290572 0
M  V30 4320 H 429.408 -3.90184 -1.2722 0
M  V30 4321 H 428.939 -2.902 -2.65608 0
M  V30 4322 H 430.954 -3.05643 -3.90892 0
M  V30 4323 N 430.127 0.543554 -1.4793 0
M  V30 4324 C 431.543 0.870806 -1.3375 0
M  V30 4325 C 431.743 1.9864 -0.338261 0
M  V30 4326 O 430.799 2.51305 0.245371 0
M  V30 4327 C 432.112 1.25114 -2.73435 0
M  V30 4328 C 433.66 1.3618 -2.81823 0
M  V30 4329 C 434.135 1.77563 -4.22179 0
M  V30 4330 N 435.626 1.8469 -4.24787 0
M  V30 4331 C 436.361 2.18067 -5.30315 0
M  V30 4332 N 435.857 2.49963 -6.46135 0
M  V30 4333 N 437.65 2.18958 -5.17701 0
M  V30 4334 H 429.801 -0.19275 -2.11524 0
M  V30 4335 H 432.064 -0.0235777 -0.947707 0
M  V30 4336 H 431.77 0.50514 -3.48053 0
M  V30 4337 H 431.644 2.20431 -3.06088 0
M  V30 4338 H 434.031 2.09859 -2.07468 0
M  V30 4339 H 434.112 0.390169 -2.52807 0
M  V30 4340 H 433.756 1.04449 -4.97044 0
M  V30 4341 H 433.686 2.75753 -4.48629 0
M  V30 4342 H 436.177 1.62372 -3.41239 0
M  V30 4343 H 436.49 2.74497 -7.22406 0
M  V30 4344 H 434.835 2.47513 -6.49432 0
M  V30 4345 H 438.026 1.93488 -4.2624 0
M  V30 4346 H 438.199 2.44639 -6.00047 0
M  V30 4347 N 431.605 1.3629 0.791371 0
M  V30 4348 C 432.852 1.30412 1.54916 0
M  V30 4349 C 433.18 -0.117162 1.94147 0
M  V30 4350 O 432.435 -1.08599 1.62803 0
M  V30 4351 C 432.734 2.17068 2.8393 0
M  V30 4352 C 432.4 3.65645 2.63846 0
M  V30 4353 C 431.062 4.0614 2.58077 0
M  V30 4354 C 433.414 4.59855 2.45322 0
M  V30 4355 C 430.742 5.3899 2.31748 0
M  V30 4356 C 433.094 5.9292 2.2052 0
M  V30 4357 C 431.758 6.32542 2.13183 0
M  V30 4358 H 431.028 0.47721 0.566879 0
M  V30 4359 H 433.675 1.68325 0.913172 0
M  V30 4360 H 431.98 1.72085 3.51986 0
M  V30 4361 H 433.677 2.09846 3.4171 0
M  V30 4362 H 430.267 3.33518 2.69191 0
M  V30 4363 H 434.451 4.29443 2.48782 0
M  V30 4364 H 429.707 5.68672 2.24548 0
M  V30 4365 H 433.881 6.65487 2.05182 0
M  V30 4366 H 431.508 7.35412 1.92544 0
M  V30 4367 N 433.083 -1.0153 1.20538 0
M  V30 4368 C 434.331 -1.74803 1.01432 0
M  V30 4369 C 434.652 -1.8963 -0.454456 0
M  V30 4370 O 433.922 -1.43975 -1.32846 0
M  V30 4371 H 432.502 -0.647598 0.372324 0
M  V30 4372 H 435.164 -1.22402 1.5167 0
M  V30 4373 H 434.26 -2.75114 1.47373 0
M  V30 4374 N 434.561 -1.01147 -1.20859 0
M  V30 4375 C 435.838 -0.613136 -1.85742 0
M  V30 4376 C 436.218 0.909004 -1.90526 0
M  V30 4377 O 435.566 1.79862 -1.40932 0
M  V30 4378 C 435.776 -1.255 -3.25654 0
M  V30 4379 C 437.124 -1.3672 -4.01986 0
M  V30 4380 O 438.148 -1.21082 -3.34989 0
M  V30 4381 O 437.007 -1.6194 -5.21956 0
M  V30 4382 H 434.101 -0.210878 -0.799662 0
M  V30 4383 H 436.647 -1.10853 -1.2849 0
M  V30 4384 H 435.419 -2.29532 -3.16908 0
M  V30 4385 H 435.042 -0.746369 -3.90532 0
M  V30 4386 N 436.039 1.36541 -0.78704 0
M  V30 4387 C 437.45 1.81873 -0.421807 0
M  V30 4388 C 437.801 1.65487 1.05397 0
M  V30 4389 O 436.926 1.17448 1.81755 0
M  V30 4390 C 437.521 3.30192 -0.758841 0
M  V30 4391 C 436.08 3.73743 -0.446468 0
M  V30 4392 C 435.227 2.58844 -0.994728 0
M  V30 4393 H 438.178 1.24796 -0.98039 0
M  V30 4394 H 438.199 3.80468 -0.0490648 0
M  V30 4395 H 437.711 3.42087 -1.83299 0
M  V30 4396 H 435.812 3.6741 0.619739 0
M  V30 4397 H 435.925 4.69272 -0.965415 0
M  V30 4398 H 434.289 2.51245 -0.418087 0
M  V30 4399 H 435.072 2.73525 -2.07458 0
M  V30 4400 N 437.518 0.538854 1.48102 0
M  V30 4401 C 438.428 -0.222648 2.33541 0
M  V30 4402 C 439.444 -0.930225 1.47047 0
M  V30 4403 O 440.62 -0.903211 1.80011 0
M  V30 4404 C 437.685 -1.25064 3.23357 0
M  V30 4405 C 436.746 -0.552469 4.2573 0
M  V30 4406 C 435.979 -1.53149 5.11254 0
M  V30 4407 O 436.202 -2.76487 4.9891 0
M  V30 4408 O 435.136 -1.06602 5.92385 0
M  V30 4409 H 438.962 0.477707 2.99919 0
M  V30 4410 H 436.547 0.299669 1.46364 0
M  V30 4411 H 438.429 -1.8445 3.78888 0
M  V30 4412 H 437.104 -1.93325 2.59629 0
M  V30 4413 H 436.011 0.082114 3.7401 0
M  V30 4414 H 437.344 0.0883526 4.92121 0
M  V30 4415 N 438.996 -1.55193 0.274407 0
M  V30 4416 C 440.236 -2.01488 -0.343778 0
M  V30 4417 C 440.6 -1.1586 -1.53103 0
M  V30 4418 O 441.801 -1.51732 -2.2188 0
M  V30 4419 C 440.072 -3.50134 -0.717021 0
M  V30 4420 S 441.631 -4.18417 -1.32184 0
M  V30 4421 H 438.449 -0.70291 -0.106948 0
M  V30 4422 H 441.051 -1.91446 0.396075 0
M  V30 4423 H 439.755 -4.10104 0.155947 0
M  V30 4424 H 439.286 -3.64159 -1.48835 0
M  V30 4425 H 441.301 -4.21984 -2.61044 0
M  V30 4426 N 440.474 -0.00167713 -1.576 0
M  V30 4427 C 441.406 1.0174 -2.05382 0
M  V30 4428 C 442.419 1.30595 -0.972052 0
M  V30 4429 O 443.608 1.27542 -1.24882 0
M  V30 4430 C 440.708 2.35174 -2.44022 0
M  V30 4431 C 439.881 2.25234 -3.74951 0
M  V30 4432 C 438.94 3.4137 -4.00441 0
M  V30 4433 O 437.966 3.19483 -4.71083 0
M  V30 4434 N 439.168 4.64275 -3.48467 0
M  V30 4435 H 441.933 0.609902 -2.93428 0
M  V30 4436 H 439.494 0.185672 -1.60832 0
M  V30 4437 H 441.486 3.11643 -2.58187 0
M  V30 4438 H 440.056 2.67659 -1.61485 0
M  V30 4439 H 439.276 1.33664 -3.70847 0
M  V30 4440 H 440.564 2.15767 -4.60784 0
M  V30 4441 H 439.962 4.84955 -2.91264 0
M  V30 4442 H 438.519 5.38005 -3.67959 0
M  V30 4443 N 441.952 1.55251 0.271103 0
M  V30 4444 C 443.198 1.76207 1.00394 0
M  V30 4445 C 443.531 0.562604 1.85872 0
M  V30 4446 O 442.806 -0.439785 1.89463 0
M  V30 4447 C 443.089 3.06828 1.8849 0
M  V30 4448 C 442.942 4.37134 1.05992 0
M  V30 4449 C 444.261 3.33503 2.87165 0
M  V30 4450 H 441.38 0.641086 0.363562 0
M  V30 4451 H 444.022 1.87982 0.276189 0
M  V30 4452 H 442.172 2.96921 2.5054 0
M  V30 4453 H 443.844 4.59001 0.459978 0
M  V30 4454 H 442.087 4.32275 0.363443 0
M  V30 4455 H 442.758 5.2486 1.70955 0
M  V30 4456 H 445.234 3.43215 2.3525 0
M  V30 4457 H 444.11 4.2616 3.45946 0
M  V30 4458 H 444.371 2.53235 3.62387 0
M  V30 4459 N 443.43 -0.535701 1.48216 0
M  V30 4460 C 444.679 -1.28828 1.55197 0
M  V30 4461 C 444.992 -1.94263 0.228278 0
M  V30 4462 O 446.198 -2.70927 0.176278 0
M  V30 4463 C 444.654 -2.33727 2.73678 0
M  V30 4464 C 444.262 -1.74386 4.12666 0
M  V30 4465 C 446.006 -3.1003 2.89968 0
M  V30 4466 C 443.913 -2.77192 5.22416 0
M  V30 4467 H 442.843 -0.484484 0.577747 0
M  V30 4468 H 445.494 -0.56646 1.74538 0
M  V30 4469 H 443.876 -3.08919 2.4776 0
M  V30 4470 H 445.05 -1.05421 4.48579 0
M  V30 4471 H 443.365 -1.10595 4.01445 0
M  V30 4472 H 445.962 -3.86842 3.6913 0
M  V30 4473 H 446.305 -3.65542 1.9921 0
M  V30 4474 H 446.838 -2.41952 3.15759 0
M  V30 4475 H 443.577 -2.26507 6.15122 0
M  V30 4476 H 443.097 -3.44502 4.90998 0
M  V30 4477 H 444.776 -3.40285 5.50286 0
M  V30 4478 N 444.908 -1.36708 -0.784132 0
M  V30 4479 C 445.838 -1.34153 -1.91116 0
M  V30 4480 C 446.819 -0.212121 -1.68772 0
M  V30 4481 O 448.004 -0.410581 -1.8981 0
M  V30 4482 C 445.134 -1.13535 -3.28218 0
M  V30 4483 C 444.088 -2.23356 -3.65097 0
M  V30 4484 C 443.414 -1.87875 -5.00607 0
M  V30 4485 C 444.714 -3.65473 -3.73131 0
M  V30 4486 H 446.408 -2.28459 -1.93512 0
M  V30 4487 H 443.954 -1.09973 -0.929618 0
M  V30 4488 H 445.907 -1.10381 -4.06687 0
M  V30 4489 H 444.631 -0.156804 -3.26223 0
M  V30 4490 H 443.29 -2.25645 -2.88929 0
M  V30 4491 H 442.938 -0.885814 -4.95139 0
M  V30 4492 H 442.638 -2.61406 -5.26252 0
M  V30 4493 H 444.162 -1.86286 -5.81489 0
M  V30 4494 H 445.576 -3.65382 -4.41779 0
M  V30 4495 H 443.973 -4.37953 -4.10265 0
M  V30 4496 H 445.043 -3.99995 -2.74102 0
M  V30 4497 N 446.386 1.0089 -1.21074 0
M  V30 4498 C 447.797 1.56056 -1.02486 0
M  V30 4499 C 448.148 1.91728 0.416506 0
M  V30 4500 O 447.273 1.73066 1.29912 0
M  V30 4501 C 447.868 2.83563 -1.85411 0
M  V30 4502 C 446.427 3.3523 -1.71166 0
M  V30 4503 C 445.574 2.0846 -1.82865 0
M  V30 4504 H 448.525 0.831818 -1.35154 0
M  V30 4505 H 448.546 3.55286 -1.36205 0
M  V30 4506 H 448.058 2.57569 -2.9031 0
M  V30 4507 H 446.159 3.66167 -0.689361 0
M  V30 4508 H 446.272 4.06913 -2.52901 0
M  V30 4509 H 444.636 2.21275 -1.26132 0
M  V30 4510 H 445.419 1.84883 -2.89263 0
M  V30 4511 N 447.864 1.01787 1.20321 0
M  V30 4512 C 448.794 0.609625 2.25401 0
M  V30 4513 C 449.775 -0.375951 1.65893 0
M  V30 4514 O 450.96 -0.261101 1.92437 0
M  V30 4515 C 448.09 -0.0515995 3.47262 0
M  V30 4516 C 447.044 0.855095 4.19371 0
M  V30 4517 C 446.37 0.0595757 5.34667 0
M  V30 4518 C 447.67 2.16374 4.75373 0
M  V30 4519 H 449.364 1.48803 2.59804 0
M  V30 4520 H 446.91 0.716934 1.24884 0
M  V30 4521 H 448.863 -0.348764 4.19954 0
M  V30 4522 H 447.587 -0.964726 3.12027 0
M  V30 4523 H 446.246 1.13628 3.48546 0
M  V30 4524 H 445.894 -0.85524 4.95676 0
M  V30 4525 H 445.594 0.663406 5.83843 0
M  V30 4526 H 447.118 -0.231105 6.10162 0
M  V30 4527 H 448.532 1.92885 5.39878 0
M  V30 4528 H 446.929 2.71853 5.34991 0
M  V30 4529 H 447.999 2.82589 3.94045 0
M  V30 4530 N 449.342 -1.36122 0.79427 0
M  V30 4531 C 450.272 -2.32551 0.210328 0
M  V30 4532 C 451.253 -1.56884 -0.657386 0
M  V30 4533 O 452.438 -1.85014 -0.590207 0
M  V30 4534 C 449.568 -3.41128 -0.651819 0
M  V30 4535 C 448.522 -4.27842 0.116395 0
M  V30 4536 C 447.848 -5.2763 -0.86666 0
M  V30 4537 C 449.148 -5.05647 1.30837 0
M  V30 4538 H 450.842 -2.81636 1.01594 0
M  V30 4539 H 448.388 -1.35407 0.489981 0
M  V30 4540 H 450.341 -4.07581 -1.07031 0
M  V30 4541 H 449.065 -2.90622 -1.49019 0
M  V30 4542 H 447.724 -3.62952 0.515915 0
M  V30 4543 H 447.372 -4.73395 -1.70019 0
M  V30 4544 H 447.072 -5.86514 -0.35705 0
M  V30 4545 H 448.596 -5.96955 -1.28361 0
M  V30 4546 H 450.01 -5.65113 0.965393 0
M  V30 4547 H 448.407 -5.73967 1.75161 0
M  V30 4548 H 449.477 -4.37006 2.10128 0
M  V30 4549 N 450.82 -0.546701 -1.47814 0
M  V30 4550 C 451.767 0.206854 -2.29871 0
M  V30 4551 C 452.737 0.918235 -1.38411 0
M  V30 4552 O 453.922 0.915991 -1.67375 0
M  V30 4553 C 451.062 1.23746 -3.22151 0
M  V30 4554 C 450.175 0.533216 -4.28697 0
M  V30 4555 C 449.31 1.5482 -5.08138 0
M  V30 4556 C 448.349 0.828347 -6.06469 0
M  V30 4557 N 447.486 1.78966 -6.78908 0
M  V30 4558 H 452.326 -0.499037 -2.93792 0
M  V30 4559 H 449.863 -0.25793 -1.44821 0
M  V30 4560 H 451.821 1.84746 -3.74065 0
M  V30 4561 H 450.451 1.91151 -2.60117 0
M  V30 4562 H 449.503 -0.191089 -3.7992 0
M  V30 4563 H 450.815 -0.0311987 -4.9879 0
M  V30 4564 H 449.969 2.23202 -5.6415 0
M  V30 4565 H 448.708 2.14652 -4.37922 0
M  V30 4566 H 447.713 0.130539 -5.49645 0
M  V30 4567 H 448.938 0.235907 -6.7869 0
M  V30 4568 H 446.884 2.37675 -6.1143 0
M  V30 4569 H 446.801 1.27712 -7.45135 0
M  V30 4570 H 448.069 2.46496 -7.395 0
M  V30 4571 N 452.299 1.55045 -0.282633 0
M  V30 4572 C 453.524 2.04628 0.337977 0
M  V30 4573 C 453.949 1.15937 1.48123 0
M  V30 4574 O 453.307 0.159532 1.80597 0
M  V30 4575 C 453.355 3.51854 0.78936 0
M  V30 4576 O 452.459 3.66236 1.89592 0
M  V30 4577 H 451.8 0.660434 0.0687261 0
M  V30 4578 H 454.33 2.00261 -0.419124 0
M  V30 4579 H 454.34 3.93361 1.08311 0
M  V30 4580 H 453.015 4.15873 -0.0470419 0
M  V30 4581 H 451.592 3.36633 1.60413 0
M  V30 4582 N 453.777 0.010035 1.57597 0
M  V30 4583 C 455.054 -0.710296 1.82248 0
M  V30 4584 C 455.434 -1.91426 0.889911 0
M  V30 4585 O 454.782 -2.28424 -0.0590292 0
M  V30 4586 C 454.992 -1.10655 3.30993 0
M  V30 4587 C 456.34 -1.50621 3.96987 0
M  V30 4588 O 457.364 -1.20007 3.35375 0
M  V30 4589 O 456.223 -2.07587 5.05539 0
M  V30 4590 H 453.317 -0.34673 0.750804 0
M  V30 4591 H 455.863 0.0362578 1.69661 0
M  V30 4592 H 454.635 -0.248826 3.90508 0
M  V30 4593 H 454.258 -1.91189 3.48615 0
M  V30 4594 N 455.255 -1.55392 -0.262866 0
M  V30 4595 C 456.185 -1.91978 -1.32917 0
M  V30 4596 C 457.166 -0.7828 -1.51017 0
M  V30 4597 O 458.351 -1.04178 -1.63892 0
M  V30 4598 C 455.481 -2.20055 -2.68687 0
M  V30 4599 C 454.435 -3.35854 -2.65304 0
M  V30 4600 C 453.761 -3.49435 -4.04721 0
M  V30 4601 C 455.061 -4.71977 -2.23685 0
M  V30 4602 H 456.755 -2.81292 -1.02544 0
M  V30 4603 H 454.301 -1.3534 -0.491846 0
M  V30 4604 H 456.254 -2.44237 -3.43404 0
M  V30 4605 H 454.978 -1.27551 -3.00663 0
M  V30 4606 H 453.637 -3.11655 -1.93045 0
M  V30 4607 H 453.285 -2.54379 -4.33936 0
M  V30 4608 H 452.985 -4.27297 -4.0335 0
M  V30 4609 H 454.509 -3.7592 -4.81161 0
M  V30 4610 H 455.923 -4.95637 -2.88127 0
M  V30 4611 H 454.32 -5.52828 -2.33456 0
M  V30 4612 H 455.39 -4.70115 -1.18827 0
M  V30 4613 N 456.733 0.527833 -1.48498 0
M  V30 4614 C 457.963 1.30633 -1.60058 0
M  V30 4615 C 458.371 1.87394 -0.260786 0
M  V30 4616 O 457.714 1.67227 0.760317 0
M  V30 4617 C 457.776 2.49361 -2.58958 0
M  V30 4618 C 457.44 2.13671 -4.03972 0
M  V30 4619 C 458.437 1.69217 -4.91591 0
M  V30 4620 C 456.122 2.24129 -4.49524 0
M  V30 4621 C 458.116 1.35689 -6.2279 0
M  V30 4622 C 455.803 1.90212 -5.80743 0
M  V30 4623 C 456.801 1.46063 -6.67199 0
M  V30 4624 O 456.489 1.12593 -7.95976 0
M  V30 4625 H 456.221 0.403444 -0.54241 0
M  V30 4626 H 458.775 0.643233 -1.95068 0
M  V30 4627 H 457.005 3.18659 -2.19073 0
M  V30 4628 H 458.694 3.11421 -2.6033 0
M  V30 4629 H 459.46 1.60607 -4.57636 0
M  V30 4630 H 455.339 2.57447 -3.82416 0
M  V30 4631 H 458.883 1.01157 -6.90227 0
M  V30 4632 H 454.78 1.98464 -6.14233 0
M  V30 4633 H 455.548 1.25972 -8.08748 0
M  V30 4634 N 458.211 1.37122 0.776871 0
M  V30 4635 C 459.121 1.34651 1.9211 0
M  V30 4636 C 460.137 0.246824 1.7224 0
M  V30 4637 O 461.313 0.48134 1.95563 0
M  V30 4638 C 458.378 1.14748 3.2716 0
M  V30 4639 C 457.439 2.34308 3.5972 0
M  V30 4640 C 456.672 2.15345 4.88326 0
M  V30 4641 O 456.895 1.13507 5.58992 0
M  V30 4642 O 455.829 3.03414 5.1983 0
M  V30 4643 H 459.655 2.31013 1.97146 0
M  V30 4644 H 457.24 1.17799 0.918901 0
M  V30 4645 H 459.122 1.05616 4.0795 0
M  V30 4646 H 457.797 0.214562 3.22988 0
M  V30 4647 H 456.704 2.49011 2.79185 0
M  V30 4648 H 458.037 3.26149 3.68629 0
M  V30 4649 N 459.689 -1.00246 1.21608 0
M  V30 4650 C 460.935 -1.74319 1.03638 0
M  V30 4651 C 461.268 -1.89408 -0.428749 0
M  V30 4652 O 460.543 -1.43026 -1.3181 0
M  V30 4653 C 460.826 -3.15431 1.73711 0
M  V30 4654 C 460.679 -3.08049 3.27759 0
M  V30 4655 C 461.998 -4.14407 1.48173 0
M  V30 4656 H 459.117 -0.632741 0.377899 0
M  V30 4657 H 461.759 -1.16853 1.49818 0
M  V30 4658 H 459.909 -3.64493 1.34452 0
M  V30 4659 H 461.581 -2.66681 3.76403 0
M  V30 4660 H 459.824 -2.45088 3.57931 0
M  V30 4661 H 460.495 -4.07862 3.71958 0
M  V30 4662 H 462.971 -3.74061 1.82258 0
M  V30 4663 H 461.847 -5.11279 1.99713 0
M  V30 4664 H 462.108 -4.40174 0.412273 0
M  V30 4665 N 461.167 -1.02423 -1.1978 0
M  V30 4666 C 462.416 -0.713265 -1.88667 0
M  V30 4667 C 462.729 0.7609 -1.80193 0
M  V30 4668 O 463.935 1.18473 -2.44288 0
M  V30 4669 C 462.391 -1.22545 -3.38394 0
M  V30 4670 C 461.999 -2.72706 -3.55437 0
M  V30 4671 C 463.743 -0.990257 -4.12788 0
M  V30 4672 C 461.65 -3.17367 -4.99031 0
M  V30 4673 H 460.58 -0.263105 -0.706606 0
M  V30 4674 H 463.231 -1.23792 -1.35454 0
M  V30 4675 H 461.613 -0.628732 -3.90977 0
M  V30 4676 H 462.787 -3.37993 -3.13205 0
M  V30 4677 H 461.102 -2.94453 -2.94425 0
M  V30 4678 H 463.699 -1.29926 -5.18675 0
M  V30 4679 H 464.042 0.0730761 -4.16236 0
M  V30 4680 H 464.575 -1.55074 -3.66329 0
M  V30 4681 H 461.314 -4.23009 -5.00743 0
M  V30 4682 H 460.834 -2.56805 -5.42044 0
M  V30 4683 H 462.513 -3.10441 -5.67658 0
M  V30 4684 N 462.645 1.35699 -0.801477 0
M  V30 4685 C 463.577 2.28598 -0.166028 0
M  V30 4686 C 464.59 1.50044 0.631721 0
M  V30 4687 O 465.779 1.72339 0.464921 0
M  V30 4688 C 462.879 3.29625 0.787451 0
M  V30 4689 C 462.052 4.37384 0.037171 0
M  V30 4690 C 461.111 5.183 0.908375 0
M  V30 4691 O 460.137 5.68053 0.361189 0
M  V30 4692 N 461.339 5.35912 2.23112 0
M  V30 4693 H 464.104 2.83771 -0.964071 0
M  V30 4694 H 461.665 1.47994 -0.656469 0
M  V30 4695 H 463.657 3.80648 1.37439 0
M  V30 4696 H 462.227 2.75004 1.48632 0
M  V30 4697 H 461.447 3.87364 -0.730935 0
M  V30 4698 H 462.735 5.0653 -0.480109 0
M  V30 4699 H 462.133 4.97125 2.69968 0
M  V30 4700 H 460.69 5.90133 2.76741 0
M  V30 4701 N 464.123 0.554532 1.47522 0
M  V30 4702 C 465.348 0.0322661 2.07375 0
M  V30 4703 C 465.773 -1.25079 1.40488 0
M  V30 4704 O 465.131 -1.74859 0.47896 0
M  V30 4705 C 465.179 -0.149397 3.6029 0
M  V30 4706 O 464.283 -1.21259 3.9417 0
M  V30 4707 H 463.624 0.0501228 0.662106 0
M  V30 4708 H 466.154 0.769452 1.8958 0
M  V30 4709 H 466.164 -0.364437 4.06369 0
M  V30 4710 H 464.839 0.787743 4.08372 0
M  V30 4711 H 463.416 -0.97825 3.5984 0
M  V30 4712 N 465.601 -1.54893 0.290851 0
M  V30 4713 C 466.829 -2.04343 -0.324288 0
M  V30 4714 C 467.244 -1.16859 -1.48289 0
M  V30 4715 O 466.601 -0.192018 -1.81487 0
M  V30 4716 C 466.652 -3.52756 -0.79026 0
M  V30 4717 O 466.373 -4.36913 0.322213 0
M  V30 4718 C 467.874 -4.18161 -1.4716 0
M  V30 4719 H 465.094 -0.667135 -0.0719173 0
M  V30 4720 H 467.638 -1.99981 0.427529 0
M  V30 4721 H 465.793 -3.57511 -1.49213 0
M  V30 4722 H 466.207 -5.24486 -0.0387372 0
M  V30 4723 H 467.681 -5.23562 -1.7489 0
M  V30 4724 H 468.158 -3.67282 -2.40834 0
M  V30 4725 H 468.764 -4.17454 -0.813178 0
M  V30 4726 N 467.08 -0.0183926 -1.57589 0
M  V30 4727 C 468.01 0.965596 -2.12599 0
M  V30 4728 C 468.991 1.34641 -1.0395 0
M  V30 4729 O 470.176 1.42693 -1.31729 0
M  V30 4730 C 467.306 2.25149 -2.64434 0
M  V30 4731 C 466.26 2.01175 -3.77773 0
M  V30 4732 C 465.586 3.35937 -4.15994 0
M  V30 4733 C 466.886 1.35953 -5.04296 0
M  V30 4734 H 468.58 0.507504 -2.95067 0
M  V30 4735 H 466.126 0.242671 -1.41941 0
M  V30 4736 H 468.079 2.94357 -3.01549 0
M  V30 4737 H 466.803 2.73105 -1.79112 0
M  V30 4738 H 465.462 1.34388 -3.4108 0
M  V30 4739 H 465.11 3.81631 -3.27669 0
M  V30 4740 H 464.81 3.20705 -4.92364 0
M  V30 4741 H 466.334 4.0643 -4.55683 0
M  V30 4742 H 467.748 1.95144 -5.39065 0
M  V30 4743 H 466.145 1.31152 -5.85593 0
M  V30 4744 H 467.215 0.331071 -4.83768 0
M  V30 4745 N 468.558 1.5553 0.254621 0
M  V30 4746 C 469.835 1.6774 1.00611 0
M  V30 4747 C 470.215 0.555993 2.03647 0
M  V30 4748 O 469.563 -0.441583 2.24193 0
M  V30 4749 C 469.773 3.07725 1.6464 0
M  V30 4750 C 471.121 3.66074 2.15116 0
M  V30 4751 O 472.145 3.10476 1.74595 0
M  V30 4752 O 471.004 4.63526 2.89493 0
M  V30 4753 H 468.098 0.681958 0.467828 0
M  V30 4754 H 470.644 1.67863 0.24902 0
M  V30 4755 H 469.416 3.80792 0.900734 0
M  V30 4756 H 469.039 3.1158 2.46989 0
M  V30 4757 N 470.036 -0.519951 1.48776 0
M  V30 4758 C 471.284 -1.2727 1.56993 0
M  V30 4759 C 471.605 -1.9339 0.25004 0
M  V30 4760 O 470.875 -1.81822 -0.729216 0
M  V30 4761 H 469.455 -0.472732 0.578389 0
M  V30 4762 H 472.117 -0.604234 1.85297 0
M  V30 4763 H 471.213 -2.04669 2.3562 0
M  V30 4764 N 471.514 -1.37532 -0.769588 0
M  V30 4765 C 472.444 -1.36172 -1.89682 0
M  V30 4766 C 473.425 -0.23001 -1.68538 0
M  V30 4767 O 474.61 -0.43069 -1.89364 0
M  V30 4768 C 471.74 -1.1701 -3.26995 0
M  V30 4769 C 470.694 -2.27216 -3.62708 0
M  V30 4770 C 470.02 -1.93174 -4.98586 0
M  V30 4771 C 471.32 -3.6941 -3.69234 0
M  V30 4772 H 473.014 -2.30499 -1.91078 0
M  V30 4773 H 470.56 -1.10953 -0.917902 0
M  V30 4774 H 472.513 -1.14688 -4.05493 0
M  V30 4775 H 471.237 -0.191395 -3.26039 0
M  V30 4776 H 469.896 -2.28697 -2.86519 0
M  V30 4777 H 469.544 -0.938281 -4.94171 0
M  V30 4778 H 469.244 -2.66973 -5.23449 0
M  V30 4779 H 470.768 -1.92443 -5.79481 0
M  V30 4780 H 472.182 -3.70047 -4.37879 0
M  V30 4781 H 470.579 -4.4228 -4.05597 0
M  V30 4782 H 471.649 -4.0288 -2.69844 0
M  V30 4783 N 472.992 0.995999 -1.22138 0
M  V30 4784 C 473.922 2.10387 -1.01289 0
M  V30 4785 C 474.903 1.69975 0.0651454 0
M  V30 4786 O 476.088 1.9396 -0.0964628 0
M  V30 4787 C 473.218 3.42312 -0.586517 0
M  V30 4788 C 472.172 3.96558 -1.61014 0
M  V30 4789 C 471.498 5.24494 -1.0397 0
M  V30 4790 C 472.798 4.27595 -2.99933 0
M  V30 4791 H 474.492 2.28086 -1.93951 0
M  V30 4792 H 472.038 1.09607 -0.933928 0
M  V30 4793 H 473.991 4.19223 -0.427793 0
M  V30 4794 H 472.715 3.24431 0.375761 0
M  V30 4795 H 471.374 3.21776 -1.75658 0
M  V30 4796 H 471.022 5.02953 -0.0688703 0
M  V30 4797 H 470.722 5.61755 -1.72352 0
M  V30 4798 H 472.246 6.04042 -0.892494 0
M  V30 4799 H 473.66 4.95315 -2.8868 0
M  V30 4800 H 472.057 4.76021 -3.6541 0
M  V30 4801 H 473.127 3.35498 -3.50099 0
M  V30 4802 N 474.47 1.03057 1.19235 0
M  V30 4803 C 475.71 0.736757 1.9066 0
M  V30 4804 C 476.074 -0.721521 1.77927 0
M  V30 4805 O 477.275 -1.12849 2.43964 0
M  V30 4806 C 475.546 1.17755 3.37444 0
M  V30 4807 S 477.105 1.00783 4.27069 0
M  V30 4808 H 473.923 0.268174 0.658486 0
M  V30 4809 H 476.525 1.32076 1.4414 0
M  V30 4810 H 475.229 2.23448 3.44237 0
M  V30 4811 H 474.76 0.586912 3.88997 0
M  V30 4812 H 476.775 -0.0806356 4.96134 0
M  V30 4813 N 475.948 -1.35272 0.808662 0
M  V30 4814 C 477.176 -2.02946 0.402537 0
M  V30 4815 C 477.591 -1.60937 -0.987147 0
M  V30 4816 O 476.948 -0.807917 -1.63643 0
M  V30 4817 C 476.999 -3.58317 0.47868 0
M  V30 4818 O 476.72 -3.98799 1.81358 0
M  V30 4819 C 478.221 -4.43251 0.0656281 0
M  V30 4820 H 475.441 -0.650831 0.163279 0
M  V30 4821 H 477.985 -1.72849 1.09286 0
M  V30 4822 H 476.14 -3.87055 -0.163415 0
M  V30 4823 H 476.554 -4.93451 1.77781 0
M  V30 4824 H 478.028 -5.51738 0.170017 0
M  V30 4825 H 478.505 -4.27913 -0.989278 0
M  V30 4826 H 479.111 -4.19813 0.68096 0
M  V30 4827 N 477.426 -0.562348 -1.47226 0
M  V30 4828 C 478.651 -0.0432632 -2.07355 0
M  V30 4829 C 479.076 1.24332 -1.41149 0
M  V30 4830 O 478.434 1.74603 -0.488226 0
M  V30 4831 C 478.482 0.130288 -3.60365 0
M  V30 4832 O 477.586 1.19166 -3.94808 0
M  V30 4833 H 476.927 -0.0536334 -0.66183 0
M  V30 4834 H 479.457 -0.779495 -1.89169 0
M  V30 4835 H 479.467 0.342881 -4.06557 0
M  V30 4836 H 478.142 -0.809389 -4.07948 0
M  V30 4837 H 476.719 0.959153 -3.60354 0
M  V30 4838 N 478.904 1.54736 -0.299062 0
M  V30 4839 C 479.834 2.26409 0.571085 0
M  V30 4840 C 480.815 1.2629 1.13951 0
M  V30 4841 O 482 1.55059 1.16921 0
M  V30 4842 C 479.13 3.00338 1.74396 0
M  V30 4843 C 478.084 4.07588 1.30599 0
M  V30 4844 C 477.41 4.69222 2.56387 0
M  V30 4845 C 478.71 5.20455 0.438645 0
M  V30 4846 H 480.404 2.99388 -0.0266991 0
M  V30 4847 H 477.95 1.43993 -0.0142812 0
M  V30 4848 H 479.903 3.49198 2.35878 0
M  V30 4849 H 478.627 2.24934 2.36796 0
M  V30 4850 H 477.286 3.59575 0.71424 0
M  V30 4851 H 476.934 3.9046 3.17097 0
M  V30 4852 H 476.634 5.41653 2.27784 0
M  V30 4853 H 478.158 5.20844 3.18675 0
M  V30 4854 H 479.572 5.65221 0.959085 0
M  V30 4855 H 477.969 5.99594 0.246466 0
M  V30 4856 H 479.039 4.8192 -0.536738 0
M  V30 4857 N 480.382 0.0267497 1.57577 0
M  V30 4858 C 481.793 -0.512413 1.79531 0
M  V30 4859 C 482.144 -1.72391 0.936791 0
M  V30 4860 O 481.269 -2.15903 0.146543 0
M  V30 4861 C 481.864 -0.936378 3.25603 0
M  V30 4862 C 480.423 -1.42067 3.4856 0
M  V30 4863 C 479.57 -0.384278 2.74624 0
M  V30 4864 H 482.521 0.252797 1.56674 0
M  V30 4865 H 482.542 -1.80088 3.35184 0
M  V30 4866 H 482.054 -0.0544332 3.88062 0
M  V30 4867 H 480.155 -2.32262 2.9135 0
M  V30 4868 H 480.268 -1.42968 4.57271 0
M  V30 4869 H 478.632 -0.851855 2.40032 0
M  V30 4870 H 479.415 0.489159 3.39797 0
M  V30 4871 N 481.861 -1.55662 -0.24637 0
M  V30 4872 C 483.107 -1.77782 -0.975779 0
M  V30 4873 C 483.44 -0.592103 -1.84953 0
M  V30 4874 O 482.715 0.409588 -1.90138 0
M  V30 4875 C 482.998 -3.09788 -1.83584 0
M  V30 4876 C 482.851 -4.38764 -0.990241 0
M  V30 4877 C 484.17 -3.38029 -2.81823 0
M  V30 4878 H 481.289 -0.646789 -0.353317 0
M  V30 4879 H 483.931 -1.88398 -0.246248 0
M  V30 4880 H 482.081 -3.00869 -2.45784 0
M  V30 4881 H 483.753 -4.59675 -0.386897 0
M  V30 4882 H 481.996 -4.32798 -0.294626 0
M  V30 4883 H 482.667 -5.27514 -1.62584 0
M  V30 4884 H 485.143 -3.46915 -2.2976 0
M  V30 4885 H 484.019 -4.3161 -3.39122 0
M  V30 4886 H 484.28 -2.58968 -3.58313 0
M  V30 4887 N 483.339 0.512053 -1.4905 0
M  V30 4888 C 484.585 1.26613 -1.59187 0
M  V30 4889 C 484.94 1.90494 -0.270163 0
M  V30 4890 O 484.233 1.77204 0.728648 0
M  V30 4891 C 484.427 2.36446 -2.68008 0
M  V30 4892 C 484.256 1.83334 -4.10632 0
M  V30 4893 C 483.026 1.65131 -4.77556 0
M  V30 4894 C 485.224 1.35153 -4.96224 0
M  V30 4895 N 483.206 1.06833 -6.04533 0
M  V30 4896 C 484.577 0.889186 -6.13591 0
M  V30 4897 C 486.632 1.23623 -4.82309 0
M  V30 4898 C 485.335 0.322953 -7.18575 0
M  V30 4899 C 487.361 0.683978 -5.87431 0
M  V30 4900 C 486.723 0.2318 -7.04018 0
M  V30 4901 H 482.822 0.453678 -0.636946 0
M  V30 4902 H 485.406 0.575217 -1.86009 0
M  V30 4903 H 483.577 3.03012 -2.42978 0
M  V30 4904 H 485.309 3.03485 -2.67729 0
M  V30 4905 H 482.064 1.89178 -4.34176 0
M  V30 4906 H 482.488 0.796425 -6.72299 0
M  V30 4907 H 487.13 1.57184 -3.92496 0
M  V30 4908 H 484.848 -0.024943 -8.08096 0
M  V30 4909 H 488.434 0.597694 -5.78722 0
M  V30 4910 H 487.314 -0.188869 -7.83973 0
M  V30 4911 N 484.817 1.37938 0.762283 0
M  V30 4912 C 485.747 1.37176 1.88958 0
M  V30 4913 C 486.728 0.238945 1.68413 0
M  V30 4914 O 487.913 0.440726 1.89133 0
M  V30 4915 C 485.043 1.18742 3.2637 0
M  V30 4916 C 483.997 2.29136 3.61498 0
M  V30 4917 C 483.323 1.95816 4.97554 0
M  V30 4918 C 484.623 3.71363 3.6727 0
M  V30 4919 H 486.317 2.31509 1.89853 0
M  V30 4920 H 483.863 1.11438 0.912005 0
M  V30 4921 H 485.816 1.16837 4.04879 0
M  V30 4922 H 484.54 0.208683 3.25933 0
M  V30 4923 H 483.199 2.30213 2.85303 0
M  V30 4924 H 482.847 0.964475 4.93667 0
M  V30 4925 H 482.547 2.69745 5.22026 0
M  V30 4926 H 484.071 1.95513 5.78452 0
M  V30 4927 H 485.485 3.72364 4.35911 0
M  V30 4928 H 483.882 4.44425 4.03245 0
M  V30 4929 H 484.952 4.04305 2.67704 0
M  V30 4930 N 486.295 -0.989507 1.22664 0
M  V30 4931 C 487.205 -2.11449 1.01619 0
M  V30 4932 C 488.221 -1.73962 -0.036545 0
M  V30 4933 O 489.397 -2.00788 0.156924 0
M  V30 4934 C 486.462 -3.41465 0.600204 0
M  V30 4935 C 485.523 -3.93033 1.72695 0
M  V30 4936 C 484.756 -5.16844 1.33071 0
M  V30 4937 O 484.979 -5.7001 0.210975 0
M  V30 4938 O 483.913 -5.6225 2.14845 0
M  V30 4939 H 487.739 -2.32088 1.9588 0
M  V30 4940 H 485.324 -1.09823 1.01289 0
M  V30 4941 H 487.206 -4.19695 0.37873 0
M  V30 4942 H 485.881 -3.22178 -0.313511 0
M  V30 4943 H 484.788 -3.15961 2.00298 0
M  V30 4944 H 486.121 -4.16758 2.61865 0
M  V30 4945 N 487.773 -1.03688 -1.18687 0
M  V30 4946 C 488.721 -0.618292 -2.24232 0
M  V30 4947 C 489.715 0.353045 -1.6568 0
M  V30 4948 O 490.921 0.220749 -1.78641 0
M  V30 4949 H 487.296 -0.181711 -0.729716 0
M  V30 4950 H 489.267 -1.51893 -2.56848 0
M  V30 4951 C 488.016 0.00677342 -3.47699 0
M  V30 4952 H 487.339 -0.731692 -3.93047 0
M  V30 4953 H 488.779 0.262492 -4.23187 0
M  V30 4954 C 487.238 1.25572 -3.12623 0
M  V30 4955 O 487.768 2.34691 -3.26011 0
M  V30 4956 N 485.974 1.14755 -2.66982 0
M  V30 4957 H 485.521 0.259601 -2.56289 0
M  V30 4958 H 485.479 1.98412 -2.43885 0
M  V30 4959 N 489.251 1.34841 -0.815825 0
M  V30 4960 C 490.201 2.27075 -0.205169 0
M  V30 4961 C 491.185 1.48205 0.626414 0
M  V30 4962 O 492.377 1.70306 0.482157 0
M  V30 4963 C 489.506 3.37322 0.637871 0
M  V30 4964 C 488.592 4.23609 -0.203948 0
M  V30 4965 N 488.983 4.89558 -1.27149 0
M  V30 4966 C 487.281 4.45998 0.0128971 0
M  V30 4967 C 487.982 5.53597 -1.7862 0
M  V30 4968 N 486.958 5.32535 -1.0912 0
M  V30 4969 H 490.76 2.75563 -1.02187 0
M  V30 4970 H 488.274 1.48477 -0.657912 0
M  V30 4971 H 490.271 4.02359 1.09146 0
M  V30 4972 H 488.931 2.90385 1.45281 0
M  V30 4973 H 489.942 4.9077 -1.65423 0
M  V30 4974 H 486.619 4.09837 0.79624 0
M  V30 4975 H 488.009 6.16184 -2.67892 0
M  V30 4976 N 490.729 0.570148 1.46925 0
M  V30 4977 C 491.957 0.0561966 2.06824 0
M  V30 4978 C 492.372 -1.24326 1.42086 0
M  V30 4979 O 491.729 -1.74882 0.521794 0
M  V30 4980 C 491.78 -0.129517 3.61268 0
M  V30 4981 O 491.501 1.1185 4.23581 0
M  V30 4982 C 493.002 -0.679266 4.38065 0
M  V30 4983 H 490.222 0.0517261 0.669003 0
M  V30 4984 H 492.766 0.787243 1.8874 0
M  V30 4985 H 490.921 -0.810739 3.78822 0
M  V30 4986 H 491.335 0.924375 5.1629 0
M  V30 4987 H 492.809 -0.758445 5.46765 0
M  V30 4988 H 493.286 -1.69346 4.05239 0
M  V30 4989 H 493.892 -0.0333237 4.25287 0
M  V30 4990 N 492.207 -1.54576 0.307264 0
M  V30 4991 C 493.17 -2.22423 -0.553224 0
M  V30 4992 C 494.17 -1.21231 -1.05639 0
M  V30 4993 O 495.36 -1.45923 -0.951419 0
M  V30 4994 C 492.492 -2.91552 -1.76664 0
M  V30 4995 H 493.685 -2.99874 0.0396484 0
M  V30 4996 H 491.238 -1.56192 0.0581629 0
M  V30 4997 H 491.973 -2.18196 -2.39918 0
M  V30 4998 H 491.758 -3.65738 -1.41343 0
M  V30 4999 H 493.248 -3.43292 -2.37783 0
M  V30 5000 N 493.685 -0.035106 -1.57561 0
M  V30 5001 C 494.615 0.942993 -2.13612 0
M  V30 5002 C 495.596 1.33531 -1.05373 0
M  V30 5003 O 496.781 1.41287 -1.33235 0
M  V30 5004 C 493.911 2.22332 -2.66807 0
M  V30 5005 C 492.865 1.97156 -3.79886 0
M  V30 5006 C 492.191 3.31506 -4.19533 0
M  V30 5007 C 493.491 1.30596 -5.05709 0
M  V30 5008 H 495.185 0.476179 -2.95589 0
M  V30 5009 H 492.731 0.227602 -1.4219 0
M  V30 5010 H 494.684 2.91142 -3.04654 0
M  V30 5011 H 493.408 2.7119 -1.81999 0
M  V30 5012 H 492.067 1.30763 -3.42486 0
M  V30 5013 H 491.715 3.78134 -3.31698 0
M  V30 5014 H 491.415 3.15465 -4.95738 0
M  V30 5015 H 492.939 4.01574 -4.59968 0
M  V30 5016 H 494.353 1.89416 -5.41105 0
M  V30 5017 H 492.75 1.24934 -5.86951 0
M  V30 5018 H 493.82 0.279742 -4.84092 0
M  V30 5019 N 495.163 1.55791 0.238111 0
M  V30 5020 C 496.391 1.82098 0.982233 0
M  V30 5021 C 496.806 0.612025 1.78605 0
M  V30 5022 O 496.163 -0.419381 1.77616 0
M  V30 5023 C 496.214 3.0673 1.91309 0
M  V30 5024 O 495.935 4.2296 1.14179 0
M  V30 5025 C 497.436 3.45903 2.77248 0
M  V30 5026 H 494.656 0.605748 0.288635 0
M  V30 5027 H 497.2 2.02862 0.258341 0
M  V30 5028 H 495.355 2.87991 2.59114 0
M  V30 5029 H 495.769 4.93653 1.7722 0
M  V30 5030 H 497.243 4.36189 3.38295 0
M  V30 5031 H 497.72 2.66891 3.48806 0
M  V30 5032 H 498.326 3.67024 2.14881 0
M  V30 5033 N 496.642 -0.504142 1.49319 0
M  V30 5034 C 497.888 -1.26033 1.58882 0
M  V30 5035 C 498.221 -1.92268 0.273274 0
M  V30 5036 O 497.496 -1.80567 -0.72291 0
M  V30 5037 C 497.779 -2.32976 2.7458 0
M  V30 5038 C 497.632 -1.71263 4.1592 0
M  V30 5039 C 498.951 -3.34561 2.85932 0
M  V30 5040 H 496.07 -0.456863 0.578312 0
M  V30 5041 H 498.712 -0.558965 1.81592 0
M  V30 5042 H 496.862 -2.92796 2.55348 0
M  V30 5043 H 498.534 -1.15294 4.4666 0
M  V30 5044 H 496.777 -1.01686 4.21714 0
M  V30 5045 H 497.448 -2.48816 4.92742 0
M  V30 5046 H 499.924 -2.84727 3.0343 0
M  V30 5047 H 498.8 -4.06754 3.68568 0
M  V30 5048 H 499.061 -3.96695 1.95154 0
M  V30 5049 N 498.12 -1.38341 -0.754957 0
M  V30 5050 C 499.366 -1.34672 -1.51628 0
M  V30 5051 C 499.699 0.0636036 -1.94096 0
M  V30 5052 O 498.974 1.0245 -1.6533 0
M  V30 5053 C 499.257 -2.30116 -2.76981 0
M  V30 5054 C 499.11 -3.80003 -2.4066 0
M  V30 5055 C 500.429 -2.23715 -3.78998 0
M  V30 5056 H 497.548 -0.490517 -0.550056 0
M  V30 5057 H 500.19 -1.69178 -0.864807 0
M  V30 5058 H 498.34 -2.00821 -3.3257 0
M  V30 5059 H 500.012 -4.19966 -1.90856 0
M  V30 5060 H 498.255 -3.97751 -1.73137 0
M  V30 5061 H 498.926 -4.42244 -3.30339 0
M  V30 5062 H 501.402 -2.49574 -3.32945 0
M  V30 5063 H 500.278 -2.9261 -4.64403 0
M  V30 5064 H 500.539 -1.23554 -4.24484 0
M  V30 5065 N 499.598 0.982988 -1.23187 0
M  V30 5066 C 500.531 2.07302 -0.953993 0
M  V30 5067 C 501.509 1.62249 0.106753 0
M  V30 5068 O 502.693 1.88481 -0.0269525 0
M  V30 5069 C 499.82 3.35873 -0.436716 0
M  V30 5070 C 498.866 3.99862 -1.48367 0
M  V30 5071 S 499.699 4.39443 -3.06023 0
M  V30 5072 C 500.855 5.7117 -2.55959 0
M  V30 5073 H 501.088 2.30554 -1.87702 0
M  V30 5074 H 498.621 1.11883 -1.06403 0
M  V30 5075 H 500.579 4.10244 -0.144872 0
M  V30 5076 H 499.24 3.10634 0.465351 0
M  V30 5077 H 498.433 4.92471 -1.07182 0
M  V30 5078 H 498.035 3.31857 -1.72473 0
M  V30 5079 H 500.327 6.47977 -1.97818 0
M  V30 5080 H 501.27 6.17194 -3.47098 0
M  V30 5081 H 501.678 5.29046 -1.96902 0
M  V30 5082 N 501.076 1.04316 1.18135 0
M  V30 5083 C 502.039 0.640794 2.2006 0
M  V30 5084 C 503.039 -0.303124 1.57917 0
M  V30 5085 O 504.229 -0.0881855 1.73977 0
M  V30 5086 C 501.361 -0.060148 3.40847 0
M  V30 5087 H 502.554 1.54281 2.57172 0
M  V30 5088 H 500.107 0.836004 1.32063 0
M  V30 5089 H 500.842 -0.975845 3.0927 0
M  V30 5090 H 500.627 0.618319 3.87194 0
M  V30 5091 H 502.117 -0.328082 4.16309 0
M  V30 5092 N 502.554 -1.34406 0.822964 0
M  V30 5093 C 503.779 -2.0304 0.423034 0
M  V30 5094 C 504.204 -1.61568 -0.963196 0
M  V30 5095 O 503.562 -0.800339 -1.62678 0
M  V30 5096 C 503.61 -3.56636 0.53321 0
M  V30 5097 O 502.714 -4.09971 -0.446939 0
M  V30 5098 H 502.055 -0.64075 0.174171 0
M  V30 5099 H 504.585 -1.71653 1.11339 0
M  V30 5100 H 504.595 -4.05945 0.408991 0
M  V30 5101 H 503.27 -3.86168 1.54425 0
M  V30 5102 H 501.847 -3.71835 -0.281601 0
M  V30 5103 N 504.032 -0.577932 -1.46621 0
M  V30 5104 C 504.979 0.158048 -2.30258 0
M  V30 5105 C 505.949 0.888669 -1.40328 0
M  V30 5106 O 507.134 0.880283 -1.6928 0
M  V30 5107 C 504.274 1.16884 -3.24703 0
M  V30 5108 C 503.387 0.442163 -4.29731 0
M  V30 5109 C 502.522 1.44007 -5.11308 0
M  V30 5110 C 501.561 0.69952 -6.0809 0
M  V30 5111 N 500.698 1.64525 -6.82551 0
M  V30 5112 H 505.538 -0.561242 -2.92667 0
M  V30 5113 H 503.075 -0.288591 -1.44241 0
M  V30 5114 H 505.033 1.7677 -3.779 0
M  V30 5115 H 503.663 1.85591 -2.64113 0
M  V30 5116 H 502.715 -0.271632 -3.79429 0
M  V30 5117 H 504.027 -0.136992 -4.98612 0
M  V30 5118 H 503.181 2.11186 -5.68758 0
M  V30 5119 H 501.92 2.05315 -4.42377 0
M  V30 5120 H 500.925 0.0139217 -5.49798 0
M  V30 5121 H 502.15 0.091894 -6.79038 0
M  V30 5122 H 500.096 2.24653 -6.16334 0
M  V30 5123 H 500.013 1.11878 -7.47676 0
M  V30 5124 H 501.281 2.30754 -7.44562 0
M  V30 5125 N 505.51 1.54411 -0.315457 0
M  V30 5126 C 506.758 2.00023 0.288971 0
M  V30 5127 C 507.079 1.20529 1.5329 0
M  V30 5128 O 506.349 0.304986 1.93511 0
M  V30 5129 H 504.929 0.738891 0.109766 0
M  V30 5130 H 507.591 1.90094 -0.430129 0
M  V30 5131 H 506.687 3.07198 0.550999 0
M  V30 5132 N 506.988 0.0434614 1.5754 0
M  V30 5133 C 508.218 -0.640905 1.96408 0
M  V30 5134 C 508.626 -1.65365 0.919297 0
M  V30 5135 O 507.969 -1.83395 -0.105795 0
M  V30 5136 C 508.031 -1.39141 3.31482 0
M  V30 5137 C 507.695 -0.535375 4.53853 0
M  V30 5138 C 508.692 0.195335 5.19533 0
M  V30 5139 C 506.377 -0.468564 5.0011 0
M  V30 5140 C 508.371 0.981377 6.298 0
M  V30 5141 C 506.058 0.321171 6.10255 0
M  V30 5142 C 507.056 1.04484 6.74961 0
M  V30 5143 O 506.744 1.8216 7.8299 0
M  V30 5144 H 506.476 -0.180584 0.651433 0
M  V30 5145 H 509.03 0.103848 2.05137 0
M  V30 5146 H 507.26 -2.18162 3.19284 0
M  V30 5147 H 508.949 -1.96526 3.55151 0
M  V30 5148 H 509.715 0.15314 4.84758 0
M  V30 5149 H 505.594 -1.02142 4.49542 0
M  V30 5150 H 509.138 1.54674 6.80237 0
M  V30 5151 H 505.035 0.365032 6.44467 0
M  V30 5152 H 505.803 1.74289 7.99728 0
M  V30 5153 N 508.466 -1.55915 -0.229846 0
M  V30 5154 C 509.877 -1.68809 -0.797531 0
M  V30 5155 C 510.228 -0.643995 -1.8533 0
M  V30 5156 O 509.353 0.206492 -2.15413 0
M  V30 5157 C 509.948 -3.06043 -1.45338 0
M  V30 5158 C 508.507 -3.20819 -1.96856 0
M  V30 5159 C 507.654 -2.6472 -0.825736 0
M  V30 5160 H 510.605 -1.58699 -0.00533733 0
M  V30 5161 H 510.626 -3.01438 -2.32196 0
M  V30 5162 H 510.138 -3.82012 -0.684743 0
M  V30 5163 H 508.239 -2.49704 -2.76548 0
M  V30 5164 H 508.352 -4.27937 -2.15423 0
M  V30 5165 H 506.716 -2.22985 -1.23084 0
M  V30 5166 H 507.499 -3.43229 -0.0699019 0
M  V30 5167 N 509.944 0.496216 -1.49584 0
M  V30 5168 C 511.192 1.24756 -1.58998 0
M  V30 5169 C 511.513 1.92968 -0.280775 0
M  V30 5170 O 510.783 1.82959 0.700198 0
M  V30 5171 H 509.363 0.463471 -0.585836 0
M  V30 5172 H 512.025 0.574678 -1.86235 0
M  V30 5173 H 511.121 2.00895 -2.38847 0
M  V30 5174 N 511.423 1.38739 0.74761 0
M  V30 5175 C 512.7 1.25791 1.49786 0
M  V30 5176 C 513.08 -0.138075 2.10648 0
M  V30 5177 O 512.428 -1.14815 1.9756 0
M  V30 5178 C 512.638 2.37265 2.55942 0
M  V30 5179 C 513.986 2.75978 3.22679 0
M  V30 5180 O 515.01 2.36621 2.6625 0
M  V30 5181 O 513.869 3.43867 4.24756 0
M  V30 5182 H 510.963 0.492251 0.664543 0
M  V30 5183 H 513.509 1.50582 0.782511 0
M  V30 5184 H 512.281 3.30644 2.0926 0
M  V30 5185 H 511.904 2.14071 3.35051 0
M  V30 5186 N 512.901 -0.976442 1.23707 0
M  V30 5187 C 514.131 -1.75087 1.09673 0
M  V30 5188 C 514.539 -1.85852 -0.354344 0
M  V30 5189 O 513.882 -1.33985 -1.25673 0
M  V30 5190 C 513.944 -3.19272 1.65245 0
M  V30 5191 C 513.608 -3.32004 3.14042 0
M  V30 5192 C 514.605 -3.18017 4.11292 0
M  V30 5193 C 512.29 -3.56525 3.53829 0
M  V30 5194 C 514.284 -3.28363 5.46312 0
M  V30 5195 C 511.971 -3.6651 4.88993 0
M  V30 5196 C 512.969 -3.52439 5.85043 0
M  V30 5197 O 512.657 -3.62063 7.1775 0
M  V30 5198 H 512.389 -0.556164 0.384262 0
M  V30 5199 H 514.943 -1.23518 1.64111 0
M  V30 5200 H 513.173 -3.72107 1.05231 0
M  V30 5201 H 514.862 -3.7849 1.46629 0
M  V30 5202 H 515.628 -2.98966 3.81896 0
M  V30 5203 H 511.507 -3.66547 2.79579 0
M  V30 5204 H 515.051 -3.17297 6.21263 0
M  V30 5205 H 510.948 -3.85072 5.18063 0
M  V30 5206 H 511.716 -3.78833 7.25553 0
M  V30 5207 N 514.379 -1.04941 -1.1758 0
M  V30 5208 C 515.607 -0.778294 -1.91703 0
M  V30 5209 C 516.022 0.665697 -1.76675 0
M  V30 5210 O 515.379 1.45456 -1.10222 0
M  V30 5211 C 515.43 -1.14628 -3.42845 0
M  V30 5212 O 515.151 -2.53359 -3.57409 0
M  V30 5213 C 516.652 -0.900931 -4.34049 0
M  V30 5214 H 513.872 -0.283167 -0.608323 0
M  V30 5215 H 516.416 -1.39942 -1.49119 0
M  V30 5216 H 514.571 -0.569953 -3.83184 0
M  V30 5217 H 514.985 -2.67709 -4.51035 0
M  V30 5218 H 516.459 -1.20817 -5.38616 0
M  V30 5219 H 516.936 0.163966 -4.38894 0
M  V30 5220 H 517.542 -1.46097 -3.99419 0
M  V30 5221 N 515.857 1.33968 -0.830081 0
M  V30 5222 C 516.804 2.29387 -0.255008 0
M  V30 5223 C 517.774 1.53923 0.624243 0
M  V30 5224 O 518.959 1.82262 0.564372 0
M  V30 5225 C 516.099 3.4034 0.571209 0
M  V30 5226 C 515.212 4.30729 -0.331083 0
M  V30 5227 C 514.347 5.2879 0.505389 0
M  V30 5228 C 513.386 6.10819 -0.395843 0
M  V30 5229 N 512.523 7.00948 0.401979 0
M  V30 5230 H 517.363 2.77972 -1.07404 0
M  V30 5231 H 514.9 1.36785 -0.541133 0
M  V30 5232 H 516.858 4.03361 1.06562 0
M  V30 5233 H 515.488 2.9297 1.35529 0
M  V30 5234 H 514.54 3.68507 -0.943759 0
M  V30 5235 H 515.852 4.88181 -1.02377 0
M  V30 5236 H 515.006 5.97297 1.06399 0
M  V30 5237 H 513.745 4.71894 1.23155 0
M  V30 5238 H 512.75 5.41238 -0.966529 0
M  V30 5239 H 513.975 6.69797 -1.12023 0
M  V30 5240 H 511.921 6.46512 1.11168 0
M  V30 5241 H 511.838 7.55643 -0.232167 0
M  V30 5242 H 513.106 7.73774 0.943102 0
M  V30 5243 N 517.335 0.585699 1.46312 0
M  V30 5244 C 518.583 0.072278 2.01971 0
M  V30 5245 C 518.904 -1.29345 1.45928 0
M  V30 5246 O 518.174 -1.84973 0.645109 0
M  V30 5247 H 516.754 0.023729 0.746623 0
M  V30 5248 H 519.416 0.762155 1.7938 0
M  V30 5249 H 518.512 0.00552767 3.121 0
M  V30 5250 N 518.813 -1.54241 0.323641 0
M  V30 5251 C 520.059 -2.00867 -0.279323 0
M  V30 5252 C 520.392 -1.21146 -1.5178 0
M  V30 5253 O 519.667 -0.29378 -1.92269 0
M  V30 5254 C 519.95 -3.54837 -0.613387 0
M  V30 5255 C 519.803 -4.45284 0.635803 0
M  V30 5256 C 521.122 -4.16186 -1.43099 0
M  V30 5257 H 518.241 -0.730177 -0.100049 0
M  V30 5258 H 520.883 -1.84829 0.440235 0
M  V30 5259 H 519.033 -3.68634 -1.22641 0
M  V30 5260 H 520.705 -4.43357 1.27406 0
M  V30 5261 H 518.948 -4.14956 1.26466 0
M  V30 5262 H 519.619 -5.5084 0.357597 0
M  V30 5263 H 522.095 -4.05964 -0.912814 0
M  V30 5264 H 520.971 -5.24031 -1.6335 0
M  V30 5265 H 521.232 -3.69516 -2.42715 0
M  V30 5266 N 520.291 -0.0518155 -1.57515 0
M  V30 5267 C 521.201 0.937539 -2.15052 0
M  V30 5268 C 522.217 1.34121 -1.10849 0
M  V30 5269 O 523.393 1.418 -1.4302 0
M  V30 5270 C 520.458 2.19379 -2.68466 0
M  V30 5271 C 519.519 1.84841 -3.87469 0
M  V30 5272 C 518.752 3.04477 -4.38326 0
M  V30 5273 O 518.975 4.17868 -3.88256 0
M  V30 5274 O 517.909 2.85453 -5.29906 0
M  V30 5275 H 521.735 0.478201 -2.99912 0
M  V30 5276 H 519.32 0.17012 -1.48428 0
M  V30 5277 H 521.202 2.93084 -3.02787 0
M  V30 5278 H 519.877 2.64449 -1.86677 0
M  V30 5279 H 518.784 1.08449 -3.58036 0
M  V30 5280 H 520.117 1.44569 -4.7049 0
M  V30 5281 N 521.769 1.56035 0.221574 0
M  V30 5282 C 523.018 1.78245 0.944016 0
M  V30 5283 C 523.331 0.620371 1.85501 0
M  V30 5284 O 524.537 0.726103 2.6161 0
M  V30 5285 C 522.993 3.15659 1.7288 0
M  V30 5286 C 522.601 4.39591 0.863942 0
M  V30 5287 C 524.345 3.47195 2.44246 0
M  V30 5288 C 522.252 5.6803 1.64607 0
M  V30 5289 H 521.182 0.664547 0.356222 0
M  V30 5290 H 523.833 1.8243 0.197904 0
M  V30 5291 H 522.215 3.0565 2.51781 0
M  V30 5292 H 523.389 4.60655 0.115464 0
M  V30 5293 H 521.704 4.15572 0.262407 0
M  V30 5294 H 524.301 4.40381 3.03263 0
M  V30 5295 H 524.644 2.69693 3.1713 0
M  V30 5296 H 525.177 3.58533 1.72334 0
M  V30 5297 H 521.916 6.48425 0.960507 0
M  V30 5298 H 521.436 5.51027 2.36917 0
M  V30 5299 H 523.115 6.08203 2.20675 0
M  V30 5300 N 523.247 -0.488276 1.49845 0
M  V30 5301 C 524.475 -1.26527 1.63702 0
M  V30 5302 C 524.89 -1.8618 0.313447 0
M  V30 5303 O 524.247 -1.68432 -0.702624 0
M  V30 5304 C 524.298 -2.3864 2.71538 0
M  V30 5305 O 524.019 -1.81437 3.98763 0
M  V30 5306 C 525.52 -3.29805 2.96215 0
M  V30 5307 H 522.74 -0.383295 0.55075 0
M  V30 5308 H 525.284 -0.584779 1.95961 0
M  V30 5309 H 523.439 -3.02496 2.42023 0
M  V30 5310 H 523.853 -2.55135 4.58265 0
M  V30 5311 H 525.327 -4.04722 3.75372 0
M  V30 5312 H 525.804 -3.87563 2.06619 0
M  V30 5313 H 526.41 -2.71703 3.27196 0
M  V30 5314 N 524.725 -1.39134 -0.740242 0
M  V30 5315 C 525.973 -1.35803 -1.49673 0
M  V30 5316 C 526.294 0.0470897 -1.94943 0
M  V30 5317 O 525.564 0.997347 -1.68611 0
M  V30 5318 H 524.144 -0.499736 -0.555224 0
M  V30 5319 H 526.806 -1.73947 -0.879107 0
M  V30 5320 H 525.902 -2.0174 -2.38133 0
M  V30 5321 N 526.204 0.969867 -1.24223 0
M  V30 5322 C 527.451 1.71256 -1.08063 0
M  V30 5323 C 527.779 1.90734 0.380872 0
M  V30 5324 O 527.034 1.46469 1.29789 0
M  V30 5325 C 527.333 3.10883 -1.76314 0
M  V30 5326 C 526.999 3.11252 -3.26241 0
M  V30 5327 C 525.661 3.1106 -3.67144 0
M  V30 5328 C 528.013 3.05751 -4.22097 0
M  V30 5329 C 525.341 3.03097 -5.02344 0
M  V30 5330 C 527.693 2.9933 -5.57301 0
M  V30 5331 C 526.357 2.97466 -5.97554 0
M  V30 5332 H 525.627 0.62667 -0.395431 0
M  V30 5333 H 528.274 1.13422 -1.54297 0
M  V30 5334 H 526.579 3.72168 -1.22468 0
M  V30 5335 H 528.276 3.67138 -1.61277 0
M  V30 5336 H 524.866 3.12165 -2.93685 0
M  V30 5337 H 529.05 3.05031 -3.91497 0
M  V30 5338 H 524.306 3.00013 -5.32731 0
M  V30 5339 H 528.48 2.94033 -6.31283 0
M  V30 5340 H 526.107 2.91051 -7.02277 0
M  V30 5341 N 527.682 1.05563 1.17022 0
M  V30 5342 C 529.093 0.793475 1.69 0
M  V30 5343 C 529.444 -0.683882 1.83895 0
M  V30 5344 O 528.569 -1.53116 1.5292 0
M  V30 5345 C 529.164 1.43376 3.06967 0
M  V30 5346 C 527.723 1.21956 3.56095 0
M  V30 5347 C 526.87 1.51494 2.3226 0
M  V30 5348 H 529.821 1.22008 1.01487 0
M  V30 5349 H 529.842 0.845068 3.70997 0
M  V30 5350 H 529.354 2.50899 2.96093 0
M  V30 5351 H 527.455 0.163749 3.7224 0
M  V30 5352 H 527.568 1.92713 4.38633 0
M  V30 5353 H 525.932 0.935175 2.3691 0
M  V30 5354 H 526.715 2.60159 2.23992 0
M  V30 5355 N 529.16 -1.33526 0.837174 0
M  V30 5356 C 530.07 -2.33023 0.271568 0
M  V30 5357 C 531.086 -1.63272 -0.601514 0
M  V30 5358 O 532.262 -1.94939 -0.506038 0
M  V30 5359 C 529.327 -3.42382 -0.545448 0
M  V30 5360 C 528.388 -4.27857 0.351709 0
M  V30 5361 C 527.621 -5.31994 -0.426409 0
M  V30 5362 O 527.844 -5.45763 -1.65828 0
M  V30 5363 O 526.778 -6.01572 0.1987 0
M  V30 5364 H 530.604 -2.83256 1.09545 0
M  V30 5365 H 528.189 -1.36837 0.599655 0
M  V30 5366 H 530.071 -4.09122 -1.00979 0
M  V30 5367 H 528.746 -2.94369 -1.34641 0
M  V30 5368 H 527.653 -3.6399 0.863853 0
M  V30 5369 H 528.986 -4.79349 1.1174 0
M  V30 5370 N 530.638 -0.59345 -1.46 0
M  V30 5371 C 531.601 0.123538 -2.28867 0
M  V30 5372 C 532.601 0.808628 -1.38989 0
M  V30 5373 O 533.791 0.658945 -1.61256 0
M  V30 5374 C 530.923 1.1847 -3.19653 0
M  V30 5375 H 532.116 -0.604843 -2.93737 0
M  V30 5376 H 529.669 -0.351875 -1.52288 0
M  V30 5377 H 530.404 1.94431 -2.59552 0
M  V30 5378 H 530.189 0.69783 -3.8584 0
M  V30 5379 H 531.679 1.68726 -3.81997 0
M  V30 5380 N 532.116 1.54067 -0.331816 0
M  V30 5381 C 533.048 2.22139 0.564538 0
M  V30 5382 C 534.061 1.22408 1.07332 0
M  V30 5383 O 535.25 1.4883 0.985481 0
M  V30 5384 C 532.35 2.87876 1.78831 0
M  V30 5385 C 531.523 4.13817 1.41682 0
M  V30 5386 C 530.582 4.63072 2.49901 0
M  V30 5387 O 529.608 5.27562 2.13699 0
M  V30 5388 N 530.81 4.38001 3.80967 0
M  V30 5389 H 533.575 2.99694 -0.0183736 0
M  V30 5390 H 531.136 1.61153 -0.155396 0
M  V30 5391 H 533.128 3.17747 2.50637 0
M  V30 5392 H 531.698 2.13977 2.27887 0
M  V30 5393 H 530.918 3.9062 0.530044 0
M  V30 5394 H 532.206 4.95762 1.14443 0
M  V30 5395 H 531.604 3.864 4.13173 0
M  V30 5396 H 530.161 4.72507 4.48977 0
M  V30 5397 N 533.594 0.0601682 1.57485 0
M  V30 5398 C 534.557 -0.896373 2.10945 0
M  V30 5399 C 535.557 -1.23402 1.03095 0
M  V30 5400 O 536.747 -1.16921 1.29132 0
M  V30 5401 C 533.879 -2.20346 2.60116 0
M  V30 5402 H 535.072 -0.432778 2.96761 0
M  V30 5403 H 532.625 -0.188372 1.55161 0
M  V30 5404 H 533.36 -2.71268 1.7772 0
M  V30 5405 H 533.145 -1.9714 3.38937 0
M  V30 5406 H 534.635 -2.88846 3.01592 0
M  V30 5407 N 535.072 -1.5615 -0.213296 0
M  V30 5408 C 536.002 -1.96109 -1.26742 0
M  V30 5409 C 536.983 -0.830448 -1.48451 0
M  V30 5410 O 538.168 -1.09339 -1.60495 0
M  V30 5411 C 535.298 -2.28492 -2.61551 0
M  V30 5412 C 534.252 -3.44124 -2.54485 0
M  V30 5413 C 533.578 -3.62134 -3.93399 0
M  V30 5414 C 534.878 -4.78855 -2.08556 0
M  V30 5415 H 536.572 -2.84412 -0.935434 0
M  V30 5416 H 534.118 -1.36836 -0.44854 0
M  V30 5417 H 536.071 -2.55039 -3.3546 0
M  V30 5418 H 534.795 -1.37052 -2.96453 0
M  V30 5419 H 533.454 -3.17639 -1.83033 0
M  V30 5420 H 533.102 -2.68055 -4.25623 0
M  V30 5421 H 532.802 -4.39913 -3.89551 0
M  V30 5422 H 534.326 -3.91038 -4.68958 0
M  V30 5423 H 535.74 -5.04552 -2.72213 0
M  V30 5424 H 534.137 -5.59975 -2.1575 0
M  V30 5425 H 535.207 -4.73657 -1.03811 0
M  V30 5426 N 536.55 0.480323 -1.50102 0
M  V30 5427 C 537.798 1.23063 -1.60312 0
M  V30 5428 C 538.119 1.92659 -0.301226 0
M  V30 5429 O 537.389 1.83691 0.680753 0
M  V30 5430 H 535.969 0.457231 -0.590719 0
M  V30 5431 H 538.631 0.554893 -1.86834 0
M  V30 5432 H 537.727 1.9835 -2.40964 0
M  V30 5433 N 538.028 1.39524 0.732853 0
M  V30 5434 C 538.958 1.41153 1.86005 0
M  V30 5435 C 539.939 0.274614 1.67869 0
M  V30 5436 O 541.124 0.480745 1.88155 0
M  V30 5437 C 538.254 1.25638 3.23778 0
M  V30 5438 C 537.208 2.36752 3.56556 0
M  V30 5439 C 536.534 2.06326 4.93289 0
M  V30 5440 C 537.834 3.79069 3.5931 0
M  V30 5441 H 539.528 2.35484 1.84899 0
M  V30 5442 H 537.074 1.13348 0.888162 0
M  V30 5443 H 539.027 1.25398 4.0231 0
M  V30 5444 H 537.751 0.277772 3.25417 0
M  V30 5445 H 536.41 2.36213 2.80355 0
M  V30 5446 H 536.058 1.06897 4.9151 0
M  V30 5447 H 535.758 2.80757 5.16187 0
M  V30 5448 H 537.282 2.07739 5.74175 0
M  V30 5449 H 538.696 3.81526 4.27914 0
M  V30 5450 H 537.093 4.52878 3.93728 0
M  V30 5451 H 538.163 4.09893 2.59068 0
M  V30 5452 N 539.506 -0.963266 1.24736 0
M  V30 5453 C 540.416 -2.09246 1.06082 0
M  V30 5454 C 541.432 -1.74 0.000363101 0
M  V30 5455 O 542.608 -2.0041 0.199479 0
M  V30 5456 C 539.673 -3.40115 0.672498 0
M  V30 5457 C 538.734 -3.89282 1.80993 0
M  V30 5458 C 537.967 -5.13905 1.44004 0
M  V30 5459 O 538.19 -5.69434 0.331835 0
M  V30 5460 O 537.124 -5.57566 2.26723 0
M  V30 5461 H 540.95 -2.27881 2.00759 0
M  V30 5462 H 538.535 -1.07649 1.03595 0
M  V30 5463 H 540.417 -4.18797 0.467668 0
M  V30 5464 H 539.092 -3.22771 -0.245102 0
M  V30 5465 H 537.999 -3.11642 2.06955 0
M  V30 5466 H 539.332 -4.1111 2.70646 0
M  V30 5467 N 540.985 -1.06182 -1.16461 0
M  V30 5468 C 542.231 -0.779015 -1.87241 0
M  V30 5469 C 542.564 0.692715 -1.81425 0
M  V30 5470 O 541.839 1.5074 -1.22913 0
M  V30 5471 C 542.122 -1.2728 -3.36856 0
M  V30 5472 C 541.975 -2.80821 -3.51368 0
M  V30 5473 C 543.294 -0.879799 -4.31216 0
M  V30 5474 H 540.413 -0.284464 -0.679889 0
M  V30 5475 H 543.055 -1.31755 -1.36896 0
M  V30 5476 H 541.205 -0.814673 -3.79862 0
M  V30 5477 H 542.877 -3.34833 -3.17308 0
M  V30 5478 H 541.12 -3.19606 -2.93316 0
M  V30 5479 H 541.791 -3.10435 -4.56436 0
M  V30 5480 H 544.267 -1.27436 -3.96105 0
M  V30 5481 H 543.143 -1.25278 -5.34412 0
M  V30 5482 H 543.404 0.215372 -4.41575 0
M  V30 5483 N 542.463 1.3308 -0.844243 0
M  V30 5484 C 543.71 1.97605 -0.44255 0
M  V30 5485 C 544.038 1.66856 0.999458 0
M  V30 5486 O 543.293 0.943586 1.7145 0
M  V30 5487 C 543.592 3.52045 -0.616354 0
M  V30 5488 C 543.258 4.02757 -2.02726 0
M  V30 5489 C 541.92 4.16316 -2.41317 0
M  V30 5490 C 544.272 4.29776 -2.9486 0
M  V30 5491 C 541.6 4.54232 -3.71335 0
M  V30 5492 C 543.952 4.69146 -4.24364 0
M  V30 5493 C 542.616 4.80911 -4.62904 0
M  V30 5494 H 541.886 0.723088 -0.161941 0
M  V30 5495 H 544.533 1.58663 -1.0723 0
M  V30 5496 H 542.838 3.91681 0.0966812 0
M  V30 5497 H 544.535 3.99981 -0.285756 0
M  V30 5498 H 541.125 3.9268 -1.71756 0
M  V30 5499 H 545.309 4.18818 -2.6628 0
M  V30 5500 H 540.565 4.61535 -4.00993 0
M  V30 5501 H 544.739 4.89008 -4.95827 0
M  V30 5502 H 542.366 5.10048 -5.63698 0
M  V30 5503 N 543.941 0.601185 1.45683 0
M  V30 5504 C 544.891 -0.142686 2.27553 0
M  V30 5505 C 545.875 -0.844598 1.3695 0
M  V30 5506 O 547.067 -0.735644 1.60988 0
M  V30 5507 C 544.196 -1.14364 3.23691 0
M  V30 5508 C 543.282 -0.442894 4.21781 0
M  V30 5509 N 543.673 0.51189 5.03203 0
M  V30 5510 C 541.971 -0.691277 4.4061 0
M  V30 5511 C 542.672 0.92318 5.74328 0
M  V30 5512 N 541.648 0.268308 5.42937 0
M  V30 5513 H 545.45 0.590736 2.87902 0
M  V30 5514 H 542.964 0.424365 1.56757 0
M  V30 5515 H 544.961 -1.6909 3.8107 0
M  V30 5516 H 543.621 -1.87768 2.64902 0
M  V30 5517 H 544.632 0.888329 5.10225 0
M  V30 5518 H 541.309 -1.41049 3.92952 0
M  V30 5519 H 542.699 1.71029 6.49768 0
M  V30 5520 N 545.419 -1.53889 0.339982 0
M  V30 5521 C 546.382 -2.23547 -0.50592 0
M  V30 5522 C 547.382 -1.23445 -1.03044 0
M  V30 5523 O 548.572 -1.47909 -0.920253 0
M  V30 5524 C 545.704 -2.95234 -1.7044 0
M  V30 5525 H 546.897 -2.99722 0.103247 0
M  V30 5526 H 544.45 -1.56033 0.0912804 0
M  V30 5527 H 545.185 -2.23236 -2.35236 0
M  V30 5528 H 544.97 -3.68654 -1.33553 0
M  V30 5529 H 546.46 -3.48258 -2.30447 0
M  V30 5530 N 546.897 -0.0685191 -1.57451 0
M  V30 5531 C 548.145 0.60016 -1.92983 0
M  V30 5532 C 548.466 1.70348 -0.949028 0
M  V30 5533 O 547.736 1.959 0.00335647 0
M  V30 5534 H 546.316 0.224682 -0.712409 0
M  V30 5535 H 548.978 -0.125605 -1.94495 0
M  V30 5536 H 548.074 1.02759 -2.94698 0
M  V30 5537 N 548.375 1.56261 0.205012 0
M  V30 5538 C 549.603 1.84141 0.943386 0
M  V30 5539 C 550.018 0.649772 1.77266 0
M  V30 5540 O 549.375 -0.381612 1.78466 0
M  V30 5541 C 549.426 3.10719 1.84759 0
M  V30 5542 O 549.147 4.25286 1.05181 0
M  V30 5543 C 550.648 3.51706 2.69848 0
M  V30 5544 H 547.868 0.611734 0.275721 0
M  V30 5545 H 550.412 2.03364 0.215253 0
M  V30 5546 H 548.567 2.93422 2.52947 0
M  V30 5547 H 548.981 4.97301 1.66709 0
M  V30 5548 H 550.455 4.43266 3.28967 0
M  V30 5549 H 550.932 2.7423 3.43067 0
M  V30 5550 H 551.538 3.71499 2.07047 0
M  V30 5551 N 549.853 -0.472356 1.50355 0
M  V30 5552 C 550.816 -1.5529 1.68576 0
M  V30 5553 C 551.816 -1.50863 0.556511 0
M  V30 5554 O 553.006 -1.53505 0.823516 0
M  V30 5555 C 550.138 -2.94921 1.70981 0
M  V30 5556 H 551.331 -1.40451 2.64978 0
M  V30 5557 H 548.884 -0.698645 1.39816 0
M  V30 5558 H 549.619 -3.15204 0.762675 0
M  V30 5559 H 549.404 -2.99541 2.53017 0
M  V30 5560 H 550.894 -3.73372 1.87037 0
M  V30 5561 N 551.331 -1.39911 -0.725443 0
M  V30 5562 C 552.261 -1.42138 -1.85254 0
M  V30 5563 C 553.242 -0.283513 -1.67721 0
M  V30 5564 O 554.427 -0.490717 -1.87898 0
M  V30 5565 C 551.557 -1.27354 -3.23107 0
M  V30 5566 C 550.511 -2.3864 -3.55296 0
M  V30 5567 C 549.837 -2.08939 -4.92188 0
M  V30 5568 C 551.137 -3.8097 -3.57295 0
M  V30 5569 H 552.831 -2.36461 -1.83648 0
M  V30 5570 H 550.377 -1.13817 -0.882138 0
M  V30 5571 H 552.33 -1.2753 -4.01639 0
M  V30 5572 H 551.054 -0.295025 -3.25265 0
M  V30 5573 H 549.713 -2.37696 -2.79099 0
M  V30 5574 H 549.361 -1.09502 -4.90936 0
M  V30 5575 H 549.061 -2.83491 -5.14691 0
M  V30 5576 H 550.585 -2.10781 -5.73065 0
M  V30 5577 H 551.999 -3.8379 -4.25885 0
M  V30 5578 H 550.396 -4.5496 -3.9132 0
M  V30 5579 H 551.466 -4.11261 -2.5689 0
M  V30 5580 N 552.809 0.956637 -1.25245 0
M  V30 5581 C 553.756 2.053 -1.05454 0
M  V30 5582 C 554.726 1.66062 0.0356889 0
M  V30 5583 O 555.911 1.90415 -0.121099 0
M  V30 5584 C 553.051 3.38391 -0.677191 0
M  V30 5585 C 552.164 3.90758 -1.84206 0
M  V30 5586 C 551.299 5.12165 -1.40926 0
M  V30 5587 C 550.338 5.56757 -2.54338 0
M  V30 5588 N 549.475 6.69376 -2.11848 0
M  V30 5589 H 554.315 2.21562 -1.99284 0
M  V30 5590 H 551.852 1.08578 -0.992434 0
M  V30 5591 H 553.81 4.1488 -0.43938 0
M  V30 5592 H 552.44 3.22021 0.224127 0
M  V30 5593 H 551.492 3.10808 -2.19323 0
M  V30 5594 H 552.804 4.19802 -2.69383 0
M  V30 5595 H 551.958 5.96065 -1.13098 0
M  V30 5596 H 550.697 4.84832 -0.528175 0
M  V30 5597 H 549.702 4.71423 -2.82913 0
M  V30 5598 H 550.927 5.861 -3.43022 0
M  V30 5599 H 548.873 6.43756 -1.26153 0
M  V30 5600 H 548.79 6.97927 -2.90574 0
M  V30 5601 H 550.058 7.5669 -1.87191 0
M  V30 5602 N 554.287 1.06798 1.15896 0
M  V30 5603 C 555.235 0.677525 2.22514 0
M  V30 5604 C 556.229 -0.308994 1.66558 0
M  V30 5605 O 557.435 -0.173308 1.79164 0
M  V30 5606 H 553.81 0.200994 0.724642 0
M  V30 5607 H 555.781 1.5865 2.52731 0
M  V30 5608 C 554.53 0.0854153 3.47595 0
M  V30 5609 H 553.853 0.835645 3.90969 0
M  V30 5610 H 555.293 -0.150199 4.23734 0
M  V30 5611 C 553.752 -1.1724 3.15843 0
M  V30 5612 O 554.282 -2.25965 3.32119 0
M  V30 5613 N 552.488 -1.07636 2.69931 0
M  V30 5614 H 552.035 -0.191559 2.56887 0
M  V30 5615 H 551.993 -1.91876 2.4906 0
M  V30 5616 N 555.766 -1.3263 0.851289 0
M  V30 5617 C 557.014 -1.96978 0.452128 0
M  V30 5618 C 557.335 -1.67715 -0.99482 0
M  V30 5619 O 556.605 -0.98259 -1.69476 0
M  V30 5620 H 555.185 -0.72873 0.164202 0
M  V30 5621 H 557.847 -1.61774 1.08698 0
M  V30 5622 H 556.943 -3.06387 0.594407 0
M  V30 5623 N 557.244 -0.608902 -1.45362 0
M  V30 5624 C 558.191 0.109172 -2.30542 0
M  V30 5625 C 559.161 0.858704 -1.42181 0
M  V30 5626 O 560.346 0.844178 -1.71109 0
M  V30 5627 C 557.486 1.09971 -3.27109 0
M  V30 5628 C 556.599 0.350911 -4.30572 0
M  V30 5629 C 555.734 1.33129 -5.14247 0
M  V30 5630 C 554.773 0.570377 -6.09437 0
M  V30 5631 N 553.91 1.5001 -6.85887 0
M  V30 5632 H 558.75 -0.623195 -2.91411 0
M  V30 5633 H 556.287 -0.319122 -1.43597 0
M  V30 5634 H 558.245 1.68714 -3.81564 0
M  V30 5635 H 556.875 1.79947 -2.67991 0
M  V30 5636 H 555.927 -0.352054 -3.78767 0
M  V30 5637 H 557.239 -0.242725 -4.98209 0
M  V30 5638 H 556.393 1.99074 -5.73109 0
M  V30 5639 H 555.132 1.95885 -4.46632 0
M  V30 5640 H 554.137 -0.102702 -5.49704 0
M  V30 5641 H 555.362 -0.0521607 -6.7908 0
M  V30 5642 H 553.308 2.11529 -6.2096 0
M  V30 5643 H 553.225 0.959934 -7.49881 0
M  V30 5644 H 554.493 2.14909 -7.49289 0
M  V30 5645 N 558.722 1.53707 -0.348139 0
M  V30 5646 C 559.968 2.01286 0.247332 0
M  V30 5647 C 560.301 1.23546 1.49834 0
M  V30 5648 O 559.576 0.324331 1.91777 0
M  V30 5649 C 559.859 3.55768 0.556858 0
M  V30 5650 C 559.712 4.44216 -0.706564 0
M  V30 5651 C 561.031 4.1841 1.3646 0
M  V30 5652 H 558.15 0.731677 0.0884201 0
M  V30 5653 H 560.792 1.84106 -0.469584 0
M  V30 5654 H 558.942 3.70539 1.16761 0
M  V30 5655 H 560.614 4.41274 -1.34444 0
M  V30 5656 H 558.857 4.12892 -1.33052 0
M  V30 5657 H 559.528 5.50202 -0.445186 0
M  V30 5658 H 562.004 4.07365 0.848113 0
M  V30 5659 H 560.88 5.26563 1.54992 0
M  V30 5660 H 561.141 3.7333 2.36805 0
M  V30 5661 N 560.2 0.0768682 1.57412 0
M  V30 5662 C 561.446 -0.591961 1.93968 0
M  V30 5663 C 561.779 -1.68954 0.9575 0
M  V30 5664 O 561.054 -1.94496 -0.0124675 0
M  V30 5665 C 561.337 -1.16418 3.40762 0
M  V30 5666 C 561.19 -0.0728933 4.49741 0
M  V30 5667 C 562.509 -2.06814 3.88479 0
M  V30 5668 H 559.628 -0.213716 0.705333 0
M  V30 5669 H 562.27 0.14387 1.89455 0
M  V30 5670 H 560.42 -1.79128 3.4474 0
M  V30 5671 H 562.092 0.560446 4.57883 0
M  V30 5672 H 560.335 0.595859 4.29688 0
M  V30 5673 H 561.006 -0.513755 5.49604 0
M  V30 5674 H 563.482 -1.54033 3.8654 0
M  V30 5675 H 562.358 -2.43785 4.91793 0
M  V30 5676 H 562.619 -2.97844 3.26713 0
M  V30 5677 N 561.678 -1.56367 -0.196722 0
M  V30 5678 C 562.906 -1.84639 -0.933608 0
M  V30 5679 C 563.321 -0.659164 -1.76919 0
M  V30 5680 O 562.678 0.372142 -1.78665 0
M  V30 5681 C 562.729 -3.11694 -1.83109 0
M  V30 5682 O 562.45 -4.25838 -1.02924 0
M  V30 5683 C 563.951 -3.53132 -2.67979 0
M  V30 5684 H 561.171 -0.613188 -0.272473 0
M  V30 5685 H 563.715 -2.03475 -0.204465 0
M  V30 5686 H 561.87 -2.94759 -2.51387 0
M  V30 5687 H 562.284 -4.98178 -1.64069 0
M  V30 5688 H 563.758 -4.45005 -3.26611 0
M  V30 5689 H 564.235 -2.76045 -3.41608 0
M  V30 5690 H 564.841 -3.72592 -2.05074 0
M  V30 5691 N 563.156 0.464375 -1.50603 0
M  V30 5692 C 564.106 1.55929 -1.66343 0
M  V30 5693 C 565.09 1.52338 -0.517887 0
M  V30 5694 O 566.282 1.59248 -0.772601 0
M  V30 5695 C 563.411 2.94327 -1.7671 0
M  V30 5696 C 562.497 3.02777 -2.96962 0
M  V30 5697 N 562.888 2.81026 -4.20545 0
M  V30 5698 C 561.186 3.33919 -2.95659 0
M  V30 5699 C 561.887 2.94618 -5.01573 0
M  V30 5700 N 560.863 3.25112 -4.35664 0
M  V30 5701 H 564.665 1.37822 -2.59581 0
M  V30 5702 H 562.179 0.671227 -1.47879 0
M  V30 5703 H 564.176 3.73063 -1.86091 0
M  V30 5704 H 562.836 3.13476 -0.846353 0
M  V30 5705 H 563.847 2.56477 -4.49933 0
M  V30 5706 H 560.524 3.59013 -2.13111 0
M  V30 5707 H 561.914 2.81984 -6.09865 0
M  V30 5708 N 564.634 1.40294 0.718013 0
M  V30 5709 C 565.882 1.38167 1.47494 0
M  V30 5710 C 566.203 -0.01607 1.94993 0
M  V30 5711 O 565.473 -0.970396 1.70177 0
M  V30 5712 H 564.053 0.508505 0.547203 0
M  V30 5713 H 566.715 1.75324 0.851322 0
M  V30 5714 H 565.811 2.05503 2.34894 0
M  V30 5715 N 566.112 -0.949982 1.2575 0
M  V30 5716 C 567.36 -1.6918 1.10555 0
M  V30 5717 C 567.681 -1.91773 -0.353298 0
M  V30 5718 O 566.951 -1.50814 -1.25027 0
M  V30 5719 H 565.531 -0.626952 0.406129 0
M  V30 5720 H 568.193 -1.1419 1.57945 0
M  V30 5721 H 567.289 -2.66915 1.61749 0
M  V30 5722 N 567.59 -1.07411 -1.15328 0
M  V30 5723 C 569.006 -0.799759 -1.38116 0
M  V30 5724 C 569.206 0.59572 -1.92493 0
M  V30 5725 O 568.262 1.35433 -2.13106 0
M  V30 5726 C 569.575 -1.87407 -2.35158 0
M  V30 5727 C 571.123 -1.89889 -2.48819 0
M  V30 5728 C 571.598 -2.96406 -3.49153 0
M  V30 5729 N 573.089 -2.95512 -3.56689 0
M  V30 5730 C 573.824 -3.74575 -4.34144 0
M  V30 5731 N 573.32 -4.63488 -5.14928 0
M  V30 5732 N 575.113 -3.62919 -4.29239 0
M  V30 5733 H 567.264 -1.97411 -0.78374 0
M  V30 5734 H 569.527 -0.856113 -0.407154 0
M  V30 5735 H 569.233 -2.8768 -2.0232 0
M  V30 5736 H 569.107 -1.73471 -3.34944 0
M  V30 5737 H 571.494 -0.902677 -2.80955 0
M  V30 5738 H 571.575 -2.07904 -1.49029 0
M  V30 5739 H 571.219 -3.96227 -3.17752 0
M  V30 5740 H 571.149 -2.75638 -4.48699 0
M  V30 5741 H 573.64 -2.31061 -2.99031 0
M  V30 5742 H 573.953 -5.20445 -5.71276 0
M  V30 5743 H 572.298 -4.67537 -5.14232 0
M  V30 5744 H 575.489 -2.92833 -3.65194 0
M  V30 5745 H 575.662 -4.24777 -4.89355 0
M  V30 5746 N 569.068 1.32177 -0.85831 0
M  V30 5747 C 570.314 1.97417 -0.46417 0
M  V30 5748 C 570.647 1.67746 0.978514 0
M  V30 5749 O 569.922 0.967654 1.68721 0
M  V30 5750 C 570.205 3.53069 -0.708094 0
M  V30 5751 C 570.058 3.92357 -2.19946 0
M  V30 5752 C 571.377 4.39783 -0.166881 0
M  V30 5753 H 568.496 0.717097 -0.17012 0
M  V30 5754 H 571.138 1.56499 -1.07741 0
M  V30 5755 H 569.288 3.88054 -0.186128 0
M  V30 5756 H 570.96 3.67533 -2.78779 0
M  V30 5757 H 569.203 3.41384 -2.67656 0
M  V30 5758 H 569.874 5.00841 -2.32082 0
M  V30 5759 H 572.35 4.11556 -0.613285 0
M  V30 5760 H 571.226 5.47671 -0.367093 0
M  V30 5761 H 571.487 4.32196 0.930559 0
M  V30 5762 N 570.547 0.616602 1.45037 0
M  V30 5763 C 571.477 -0.0840787 2.33349 0
M  V30 5764 C 572.458 -0.849641 1.4736 0
M  V30 5765 O 573.643 -0.818407 1.76113 0
M  V30 5766 C 570.773 -1.07604 3.3021 0
M  V30 5767 C 569.727 -0.423096 4.25904 0
M  V30 5768 C 569.053 -1.52394 5.12523 0
M  V30 5769 C 570.353 0.661457 5.18095 0
M  V30 5770 H 572.047 0.653333 2.92185 0
M  V30 5771 H 569.593 0.315634 1.40498 0
M  V30 5772 H 571.546 -1.57485 3.90866 0
M  V30 5773 H 570.27 -1.84416 2.69552 0
M  V30 5774 H 568.929 0.05493 3.66559 0
M  V30 5775 H 568.577 -2.28257 4.48227 0
M  V30 5776 H 568.277 -1.09251 5.77354 0
M  V30 5777 H 569.801 -2.02485 5.76049 0
M  V30 5778 H 571.215 0.246353 5.7277 0
M  V30 5779 H 569.612 1.01517 5.91451 0
M  V30 5780 H 570.682 1.53446 4.59981 0
M  V30 5781 N 572.025 -1.5352 0.356285 0
M  V30 5782 C 572.988 -2.24071 -0.482182 0
M  V30 5783 C 573.988 -1.24531 -1.01729 0
M  V30 5784 O 575.178 -1.48876 -0.904513 0
M  V30 5785 C 572.31 -2.97025 -1.67299 0
M  V30 5786 H 573.503 -2.99596 0.135031 0
M  V30 5787 H 571.056 -1.55928 0.107825 0
M  V30 5788 H 571.791 -2.25719 -2.32855 0
M  V30 5789 H 571.576 -3.7005 -1.29636 0
M  V30 5790 H 573.066 -3.50683 -2.26741 0
M  V30 5791 N 573.503 -0.0852151 -1.57369 0
M  V30 5792 C 574.749 0.581666 -1.94279 0
M  V30 5793 C 575.082 1.68444 -0.966446 0
M  V30 5794 O 574.357 1.945 0.00215277 0
M  V30 5795 C 574.64 1.14609 -3.41375 0
M  V30 5796 C 574.493 0.0490414 -4.49773 0
M  V30 5797 C 575.812 2.04751 -3.8957 0
M  V30 5798 H 572.931 0.209972 -0.706456 0
M  V30 5799 H 575.573 -0.153915 -1.89376 0
M  V30 5800 H 573.723 1.77297 -3.45685 0
M  V30 5801 H 575.395 -0.584721 -4.57579 0
M  V30 5802 H 573.638 -0.618638 -4.29366 0
M  V30 5803 H 574.309 0.484601 -5.49869 0
M  V30 5804 H 576.785 1.51981 -3.87351 0
M  V30 5805 H 575.661 2.41173 -4.93079 0
M  V30 5806 H 575.922 2.96107 -3.28288 0
M  V30 5807 N 574.981 1.5647 0.188427 0
M  V30 5808 C 576.209 1.85131 0.923803 0
M  V30 5809 C 576.624 0.668537 1.76567 0
M  V30 5810 O 575.981 -0.362662 1.7886 0
M  V30 5811 C 576.032 3.12661 1.81453 0
M  V30 5812 O 575.753 4.26378 1.00665 0
M  V30 5813 C 577.254 3.54548 2.66103 0
M  V30 5814 H 574.474 0.614624 0.269218 0
M  V30 5815 H 577.018 2.03581 0.193671 0
M  V30 5816 H 575.173 2.96088 2.49821 0
M  V30 5817 H 575.587 4.99041 1.61425 0
M  V30 5818 H 577.061 4.4673 3.24247 0
M  V30 5819 H 577.538 2.77853 3.40139 0
M  V30 5820 H 578.144 3.73674 2.03096 0
M  V30 5821 N 576.459 -0.456382 1.50847 0
M  V30 5822 C 577.422 -1.53493 1.70213 0
M  V30 5823 C 578.422 -1.50264 0.572481 0
M  V30 5824 O 579.612 -1.52623 0.839751 0
M  V30 5825 C 576.744 -2.93091 1.741 0
M  V30 5826 H 577.937 -1.37633 2.66453 0
M  V30 5827 H 575.49 -0.683776 1.4055 0
M  V30 5828 H 576.225 -3.14378 0.796063 0
M  V30 5829 H 576.01 -2.9684 2.5618 0
M  V30 5830 H 577.5 -3.71368 1.90987 0
M  V30 5831 N 577.937 -1.40673 -0.710563 0
M  V30 5832 C 579.186 -1.38525 -1.46607 0
M  V30 5833 C 579.499 0.0077024 -1.95598 0
M  V30 5834 O 580.705 0.151792 -2.71075 0
M  V30 5835 C 579.161 -2.43489 -2.6503 0
M  V30 5836 C 578.769 -3.88619 -2.22888 0
M  V30 5837 C 580.513 -2.50456 -3.42742 0
M  V30 5838 C 578.42 -4.85168 -3.3818 0
M  V30 5839 H 577.35 -0.515092 -0.550632 0
M  V30 5840 H 580.001 -1.66431 -0.772846 0
M  V30 5841 H 578.383 -2.0869 -3.36548 0
M  V30 5842 H 579.557 -4.32588 -1.58758 0
M  V30 5843 H 577.872 -3.85174 -1.58208 0
M  V30 5844 H 580.469 -3.19776 -4.28541 0
M  V30 5845 H 580.812 -1.53665 -3.86902 0
M  V30 5846 H 581.345 -2.84271 -2.78271 0
M  V30 5847 H 578.084 -5.8331 -2.99047 0
M  V30 5848 H 577.604 -4.4586 -4.01209 0
M  V30 5849 H 579.283 -5.05225 -4.04174 0
M  V30 5850 N 579.415 0.9433 -1.26252 0
M  V30 5851 C 580.831 1.21644 -1.03319 0
M  V30 5852 C 581.031 2.0003 0.242983 0
M  V30 5853 O 580.087 2.33838 0.952688 0
M  V30 5854 C 581.4 1.97978 -2.2633 0
M  V30 5855 C 582.948 2.10978 -2.31209 0
M  V30 5856 C 583.423 2.90713 -3.53907 0
M  V30 5857 N 584.914 2.98287 -3.54371 0
M  V30 5858 C 585.649 3.60406 -4.45976 0
M  V30 5859 N 585.145 4.24043 -5.47868 0
M  V30 5860 N 586.938 3.57658 -4.33633 0
M  V30 5861 H 579.089 0.419221 -2.08222 0
M  V30 5862 H 581.352 0.247995 -0.914988 0
M  V30 5863 H 581.058 1.47788 -3.19142 0
M  V30 5864 H 580.932 2.9865 -2.30408 0
M  V30 5865 H 583.319 2.6036 -1.38913 0
M  V30 5866 H 583.4 1.09575 -2.31143 0
M  V30 5867 H 583.044 2.42018 -4.46531 0
M  V30 5868 H 582.974 3.92367 -3.5122 0
M  V30 5869 H 585.465 2.53044 -2.80673 0
M  V30 5870 H 585.778 4.69334 -6.13959 0
M  V30 5871 H 584.123 4.22637 -5.51728 0
M  V30 5872 H 587.314 3.07134 -3.53251 0
M  V30 5873 H 587.487 4.05782 -5.05218 0
M  V30 5874 N 580.893 1.08022 1.14757 0
M  V30 5875 C 581.803 0.718292 2.23333 0
M  V30 5876 C 582.819 -0.273477 1.71837 0
M  V30 5877 O 583.995 -0.118406 2.01052 0
M  V30 5878 C 581.06 0.128855 3.4646 0
M  V30 5879 C 580.121 1.17473 4.12915 0
M  V30 5880 C 579.354 0.61333 5.30164 0
M  V30 5881 O 579.577 -0.568458 5.6756 0
M  V30 5882 O 578.511 1.3615 5.86299 0
M  V30 5883 H 582.337 1.62394 2.56636 0
M  V30 5884 H 579.922 0.853628 1.22611 0
M  V30 5885 H 581.804 -0.197249 4.20938 0
M  V30 5886 H 580.479 -0.750014 3.14891 0
M  V30 5887 H 579.386 1.5533 3.40328 0
M  V30 5888 H 580.719 2.02574 4.48581 0
M  V30 5889 N 582.371 -1.3172 0.865308 0
M  V30 5890 C 583.319 -2.30569 0.306674 0
M  V30 5891 C 584.313 -1.59317 -0.575724 0
M  V30 5892 O 585.519 -1.73961 -0.462343 0
M  V30 5893 H 581.894 -0.747681 0.0804834 0
M  V30 5894 H 583.865 -2.75165 1.15441 0
M  V30 5895 C 582.614 -3.44358 -0.480952 0
M  V30 5896 H 581.937 -3.99354 0.18876 0
M  V30 5897 H 583.377 -4.15652 -0.837241 0
M  V30 5898 C 581.836 -2.92574 -1.67039 0
M  V30 5899 O 582.366 -2.90954 -2.76964 0
M  V30 5900 N 580.572 -2.48835 -1.50097 0
M  V30 5901 H 580.119 -2.50353 -0.606738 0
M  V30 5902 H 580.077 -2.14543 -2.29823 0
M  V30 5903 N 583.85 -0.624285 -1.44708 0
M  V30 5904 C 584.779 0.0717025 -2.3339 0
M  V30 5905 C 585.76 0.841814 -1.47809 0
M  V30 5906 O 586.946 0.809056 -1.76544 0
M  V30 5907 C 584.076 1.05852 -3.30776 0
M  V30 5908 C 583.029 0.400503 -4.26122 0
M  V30 5909 C 582.356 1.49674 -5.13324 0
M  V30 5910 C 583.656 -0.688924 -5.17737 0
M  V30 5911 H 585.35 -0.668819 -2.91834 0
M  V30 5912 H 582.896 -0.32308 -1.40329 0
M  V30 5913 H 584.849 1.5541 -3.91696 0
M  V30 5914 H 583.572 1.82984 -2.70526 0
M  V30 5915 H 582.231 -0.0743687 -3.66525 0
M  V30 5916 H 581.88 2.25877 -4.49431 0
M  V30 5917 H 581.58 1.06188 -5.77926 0
M  V30 5918 H 583.104 1.99427 -5.77115 0
M  V30 5919 H 584.518 -0.276724 -5.72632 0
M  V30 5920 H 582.915 -1.04652 -5.90904 0
M  V30 5921 H 583.985 -1.55884 -4.5916 0
M  V30 5922 N 585.328 1.53329 -0.364422 0
M  V30 5923 C 586.577 2.00421 0.226747 0
M  V30 5924 C 586.89 1.25581 1.49963 0
M  V30 5925 O 588.096 1.63256 2.16933 0
M  V30 5926 C 586.552 3.57017 0.454618 0
M  V30 5927 C 586.16 4.40734 -0.803568 0
M  V30 5928 C 587.904 4.12468 1.00351 0
M  V30 5929 C 585.811 5.8888 -0.545345 0
M  V30 5930 H 584.741 0.748787 0.0885082 0
M  V30 5931 H 587.392 1.7703 -0.482983 0
M  V30 5932 H 585.774 3.76558 1.22558 0
M  V30 5933 H 586.948 4.32967 -1.57723 0
M  V30 5934 H 585.263 3.96381 -1.27559 0
M  V30 5935 H 587.86 5.20783 1.212 0
M  V30 5936 H 588.203 3.6699 1.9653 0
M  V30 5937 H 588.736 3.96721 0.29274 0
M  V30 5938 H 585.475 6.38633 -1.47743 0
M  V30 5939 H 584.995 5.99499 0.189842 0
M  V30 5940 H 586.674 6.46776 -0.170425 0
M  V30 5941 N 586.806 0.0935595 1.57322 0
M  V30 5942 C 588.031 -0.582324 1.99057 0
M  V30 5943 C 588.456 -1.61025 0.972242 0
M  V30 5944 O 587.814 -1.81202 -0.0594622 0
M  V30 5945 C 587.862 -1.20799 3.39765 0
M  V30 5946 O 586.966 -2.32382 3.40694 0
M  V30 5947 H 586.307 -0.147884 0.647323 0
M  V30 5948 H 588.837 0.174516 2.03854 0
M  V30 5949 H 588.847 -1.54966 3.77425 0
M  V30 5950 H 587.522 -0.454914 4.13405 0
M  V30 5951 H 586.099 -1.99845 3.14827 0
M  V30 5952 N 588.284 -1.56567 -0.180126 0
M  V30 5953 C 589.247 -1.94852 -1.20686 0
M  V30 5954 C 590.247 -0.831212 -1.3765 0
M  V30 5955 O 591.437 -1.09841 -1.35206 0
M  V30 5956 C 588.569 -2.23565 -2.57355 0
M  V30 5957 H 589.762 -2.86722 -0.879225 0
M  V30 5958 H 587.315 -1.50489 -0.422237 0
M  V30 5959 H 588.05 -1.34381 -2.95148 0
M  V30 5960 H 587.835 -3.04999 -2.46411 0
M  V30 5961 H 589.325 -2.54137 -3.31367 0
M  V30 5962 N 589.762 0.448376 -1.51087 0
M  V30 5963 C 590.692 1.55102 -1.74544 0
M  V30 5964 C 591.673 1.59357 -0.594932 0
M  V30 5965 O 592.858 1.75261 -0.836491 0
M  V30 5966 C 589.988 2.93268 -1.86041 0
M  V30 5967 C 588.942 3.03877 -3.01402 0
M  V30 5968 C 588.268 4.43914 -2.98068 0
M  V30 5969 C 589.568 2.7898 -4.41551 0
M  V30 5970 H 591.262 1.35724 -2.66869 0
M  V30 5971 H 588.808 0.651498 -1.28419 0
M  V30 5972 H 590.761 3.70356 -2.01034 0
M  V30 5973 H 589.485 3.13853 -0.903548 0
M  V30 5974 H 588.144 2.29227 -2.86096 0
M  V30 5975 H 587.792 4.6145 -2.00182 0
M  V30 5976 H 587.492 4.51944 -3.75527 0
M  V30 5977 H 589.016 5.22991 -3.1514 0
M  V30 5978 H 590.43 3.45805 -4.57265 0
M  V30 5979 H 588.827 2.98431 -5.20633 0
M  V30 5980 H 589.897 1.74663 -4.5235 0
M  V30 5981 N 591.24 1.41047 0.703093 0
M  V30 5982 C 592.15 1.44645 1.84703 0
M  V30 5983 C 593.166 0.337778 1.7069 0
M  V30 5984 O 594.342 0.584327 1.92737 0
M  V30 5985 C 591.407 1.31928 3.20618 0
M  V30 5986 C 590.468 2.53047 3.46794 0
M  V30 5987 C 589.701 2.40927 4.76224 0
M  V30 5988 O 589.924 1.42978 5.5219 0
M  V30 5989 O 588.858 3.30543 5.03016 0
M  V30 5990 H 592.684 2.41139 1.84624 0
M  V30 5991 H 590.269 1.22504 0.855167 0
M  V30 5992 H 592.151 1.27092 4.01778 0
M  V30 5993 H 590.826 0.385469 3.21397 0
M  V30 5994 H 589.733 2.6346 2.65593 0
M  V30 5995 H 591.066 3.45231 3.50822 0
M  V30 5996 N 592.718 -0.936591 1.26751 0
M  V30 5997 C 593.628 -2.06949 1.10496 0
M  V30 5998 C 594.644 -1.7396 0.037271 0
M  V30 5999 O 595.82 -1.99941 0.241944 0
M  V30 6000 C 592.885 -3.38612 0.744491 0
M  V30 6001 C 591.946 -3.85355 1.89209 0
M  V30 6002 C 591.179 -5.10735 1.54873 0
M  V30 6003 O 591.402 -5.68602 0.452546 0
M  V30 6004 O 590.336 -5.52632 2.38499 0
M  V30 6005 H 594.162 -2.23571 2.05547 0
M  V30 6006 H 591.747 -1.05428 1.05855 0
M  V30 6007 H 593.629 -4.17711 0.556396 0
M  V30 6008 H 592.304 -3.23218 -0.176582 0
M  V30 6009 H 591.211 -3.07182 2.13518 0
M  V30 6010 H 592.544 -4.05277 2.79305 0
M  V30 6011 N 594.196 -1.08629 -1.14182 0
M  V30 6012 C 595.159 -0.722027 -2.1753 0
M  V30 6013 C 596.159 0.244305 -1.58933 0
M  V30 6014 O 597.349 0.0235545 -1.74184 0
M  V30 6015 C 594.481 -0.0663966 -3.40835 0
M  V30 6016 H 595.674 -1.63719 -2.51269 0
M  V30 6017 H 593.227 -0.884442 -1.28869 0
M  V30 6018 H 593.962 0.860389 -3.12678 0
M  V30 6019 H 593.747 -0.761598 -3.84632 0
M  V30 6020 H 595.237 0.173346 -4.1724 0
M  V30 6021 N 595.674 1.31259 -0.872281 0
M  V30 6022 C 596.621 2.28459 -0.327857 0
M  V30 6023 C 597.591 1.55831 0.574957 0
M  V30 6024 O 598.776 1.83965 0.506101 0
M  V30 6025 C 595.916 3.41985 0.462644 0
M  V30 6026 C 595.029 4.29458 -0.467949 0
M  V30 6027 C 594.164 5.30131 0.336903 0
M  V30 6028 C 593.203 6.0925 -0.58997 0
M  V30 6029 N 592.34 7.01872 0.178775 0
M  V30 6030 H 597.18 2.74414 -1.16193 0
M  V30 6031 H 594.717 1.34994 -0.584376 0
M  V30 6032 H 596.675 4.06547 0.936759 0
M  V30 6033 H 595.305 2.97134 1.2614 0
M  V30 6034 H 594.357 3.65318 -1.06052 0
M  V30 6035 H 595.669 4.84677 -1.17856 0
M  V30 6036 H 594.823 6.0038 0.873427 0
M  V30 6037 H 593.562 4.75573 1.08079 0
M  V30 6038 H 592.567 5.37889 -1.13823 0
M  V30 6039 H 593.792 6.65894 -1.33275 0
M  V30 6040 H 591.738 6.49721 0.905435 0
M  V30 6041 H 591.655 7.54522 -0.472452 0
M  V30 6042 H 592.923 7.76382 0.696454 0
M  V30 6043 N 597.152 0.631951 1.44375 0
M  V30 6044 C 598.099 -0.0724807 2.30686 0
M  V30 6045 C 599.069 -0.835975 1.43529 0
M  V30 6046 O 600.254 -0.816849 1.7243 0
M  V30 6047 C 597.394 -1.04753 3.28817 0
M  V30 6048 C 596.507 -0.282367 4.31076 0
M  V30 6049 C 595.642 -1.2493 5.163 0
M  V30 6050 C 594.681 -0.473349 6.10267 0
M  V30 6051 N 593.818 -1.39079 6.88187 0
M  V30 6052 H 598.658 0.669477 2.90383 0
M  V30 6053 H 596.195 0.341927 1.43071 0
M  V30 6054 H 598.153 -1.62623 3.842 0
M  V30 6055 H 596.783 -1.75661 2.70819 0
M  V30 6056 H 595.835 0.412268 3.78159 0
M  V30 6057 H 597.147 0.321955 4.9776 0
M  V30 6058 H 596.301 -1.89931 5.76204 0
M  V30 6059 H 595.04 -1.88755 4.49692 0
M  V30 6060 H 594.045 0.190142 5.49471 0
M  V30 6061 H 595.27 0.16019 6.78911 0
M  V30 6062 H 593.216 -2.01623 6.24247 0
M  V30 6063 H 593.133 -0.840513 7.51313 0
M  V30 6064 H 594.401 -2.02961 7.52613 0
M  V30 6065 N 598.631 -1.53133 0.372548 0
M  V30 6066 C 599.879 -2.00958 -0.214534 0
M  V30 6067 C 600.2 -1.26135 -1.48711 0
M  V30 6068 O 599.47 -0.376597 -1.92246 0
M  V30 6069 H 598.05 -0.742456 -0.0822664 0
M  V30 6070 H 600.712 -1.88367 0.500385 0
M  V30 6071 H 599.808 -3.09031 -0.436605 0
M  V30 6072 N 600.109 -0.101901 -1.5727 0
M  V30 6073 C 601.039 0.851544 -2.17419 0
M  V30 6074 C 602.02 1.28942 -1.10941 0
M  V30 6075 O 603.205 1.35509 -1.39107 0
M  V30 6076 C 600.335 2.10816 -2.75996 0
M  V30 6077 C 599.289 1.80867 -3.87906 0
M  V30 6078 C 598.615 3.13413 -4.33216 0
M  V30 6079 C 599.915 1.0903 -5.10793 0
M  V30 6080 H 601.609 0.350381 -2.97343 0
M  V30 6081 H 599.155 0.16709 -1.43027 0
M  V30 6082 H 601.108 2.77959 -3.16729 0
M  V30 6083 H 599.832 2.63227 -1.93337 0
M  V30 6084 H 598.491 1.16119 -3.47724 0
M  V30 6085 H 598.139 3.63725 -3.47438 0
M  V30 6086 H 597.839 2.94155 -5.08671 0
M  V30 6087 H 599.363 3.81704 -4.76586 0
M  V30 6088 H 600.777 1.66295 -5.48652 0
M  V30 6089 H 599.174 0.99927 -5.91722 0
M  V30 6090 H 600.244 0.0741704 -4.84843 0
M  V30 6091 N 601.587 1.56661 0.17182 0
M  V30 6092 C 602.55 1.9549 1.19651 0
M  V30 6093 C 603.55 0.838501 1.37207 0
M  V30 6094 O 604.74 1.10556 1.34622 0
M  V30 6095 C 601.872 2.24927 2.56166 0
M  V30 6096 H 603.065 2.87184 0.864007 0
M  V30 6097 H 600.618 1.50711 0.41425 0
M  V30 6098 H 601.353 1.35944 2.94431 0
M  V30 6099 H 601.138 3.06301 2.4479 0
M  V30 6100 H 602.628 2.55891 3.30014 0
M  V30 6101 N 603.065 -0.440357 1.51323 0
M  V30 6102 C 604.028 -1.51679 1.71832 0
M  V30 6103 C 605.028 -1.49648 0.588386 0
M  V30 6104 O 606.218 -1.51724 0.855891 0
M  V30 6105 C 603.35 -2.91228 1.77199 0
M  V30 6106 H 604.543 -1.34799 2.67898 0
M  V30 6107 H 602.096 -0.66883 1.41267 0
M  V30 6108 H 602.831 -3.13516 0.829363 0
M  V30 6109 H 602.616 -2.94107 2.59314 0
M  V30 6110 H 604.106 -3.69321 1.94915 0
M  V30 6111 N 604.543 -1.41418 -0.695603 0
M  V30 6112 C 605.792 -1.40073 -1.4513 0
M  V30 6113 C 606.105 -0.0130439 -1.95596 0
M  V30 6114 O 607.311 0.123032 -2.71221 0
M  V30 6115 C 605.767 -2.46286 -2.62433 0
M  V30 6116 C 605.375 -3.90962 -2.18753 0
M  V30 6117 C 607.119 -2.54077 -3.40066 0
M  V30 6118 C 605.026 -4.88728 -3.33015 0
M  V30 6119 H 603.956 -0.520903 -0.545138 0
M  V30 6120 H 606.607 -1.67242 -0.75515 0
M  V30 6121 H 604.989 -2.12248 -3.34315 0
M  V30 6122 H 606.163 -4.34248 -1.54161 0
M  V30 6123 H 604.478 -3.86831 -1.54114 0
M  V30 6124 H 607.075 -3.24303 -4.25125 0
M  V30 6125 H 607.418 -1.5776 -3.8525 0
M  V30 6126 H 607.951 -2.87206 -2.75241 0
M  V30 6127 H 604.69 -5.86449 -2.92844 0
M  V30 6128 H 604.21 -4.50091 -3.96457 0
M  V30 6129 H 605.889 -5.09483 -3.98793 0
M  V30 6130 N 606.021 0.929856 -1.27246 0
M  V30 6131 C 606.968 2.03017 -1.09785 0
M  V30 6132 C 607.938 1.661 0.000456744 0
M  V30 6133 O 609.123 1.90116 -0.161462 0
M  V30 6134 C 606.263 3.36878 -0.748816 0
M  V30 6135 C 605.376 3.86763 -1.92453 0
M  V30 6136 C 604.511 5.09061 -1.51758 0
M  V30 6137 C 603.55 5.51237 -2.66091 0
M  V30 6138 N 602.687 6.64732 -2.25999 0
M  V30 6139 H 607.527 2.17285 -2.03939 0
M  V30 6140 H 605.064 1.06448 -1.01524 0
M  V30 6141 H 607.022 4.13855 -0.527283 0
M  V30 6142 H 605.652 3.22424 0.155771 0
M  V30 6143 H 604.704 3.06086 -2.25867 0
M  V30 6144 H 606.016 4.13994 -2.78227 0
M  V30 6145 H 605.17 5.93532 -1.25716 0
M  V30 6146 H 603.909 4.83602 -0.630896 0
M  V30 6147 H 602.914 4.65316 -2.92849 0
M  V30 6148 H 604.139 5.78692 -3.55377 0
M  V30 6149 H 602.085 6.40935 -1.3978 0
M  V30 6150 H 602.002 6.91607 -3.05313 0
M  V30 6151 H 603.27 7.52549 -2.03199 0
M  V30 6152 N 607.499 1.09233 1.13605 0
M  V30 6153 C 608.746 0.827159 1.84836 0
M  V30 6154 C 609.074 -0.647199 1.83416 0
M  V30 6155 O 608.329 -1.49228 1.26608 0
M  V30 6156 C 608.628 1.305 3.32723 0
M  V30 6157 C 608.294 2.78864 3.54325 0
M  V30 6158 C 606.956 3.19382 3.59928 0
M  V30 6159 C 609.308 3.74532 3.62457 0
M  V30 6160 C 606.636 4.54346 3.71196 0
M  V30 6161 C 608.988 5.09283 3.75252 0
M  V30 6162 C 607.652 5.49394 3.79108 0
M  V30 6163 H 606.922 0.302679 0.676363 0
M  V30 6164 H 609.569 1.36676 1.34134 0
M  V30 6165 H 607.874 0.68517 3.85762 0
M  V30 6166 H 609.571 1.07648 3.86281 0
M  V30 6167 H 606.161 2.46507 3.50617 0
M  V30 6168 H 610.345 3.44343 3.57409 0
M  V30 6169 H 605.601 4.84864 3.72447 0
M  V30 6170 H 609.775 5.83269 3.80487 0
M  V30 6171 H 607.402 6.5397 3.87591 0
M  V30 6172 N 608.977 -1.30795 0.87923 0
M  V30 6173 C 609.887 -2.32041 0.345565 0
M  V30 6174 C 610.903 -1.65103 -0.549265 0
M  V30 6175 O 612.079 -1.9645 -0.443763 0
M  V30 6176 C 609.144 -3.43944 -0.436245 0
M  V30 6177 C 608.205 -4.26521 0.48765 0
M  V30 6178 C 607.438 -5.33081 -0.256943 0
M  V30 6179 O 607.661 -5.50762 -1.48381 0
M  V30 6180 O 606.595 -6.00635 0.389985 0
M  V30 6181 H 610.421 -2.79627 1.18501 0
M  V30 6182 H 608.006 -1.3486 0.642885 0
M  V30 6183 H 609.888 -4.12128 -0.879119 0
M  V30 6184 H 608.563 -2.98504 -1.25208 0
M  V30 6185 H 607.47 -3.61057 0.979216 0
M  V30 6186 H 608.803 -4.75551 1.26933 0
M  V30 6187 N 610.455 -0.639598 -1.44038 0
M  V30 6188 C 611.703 -0.147188 -2.01563 0
M  V30 6189 C 612.024 1.2384 -1.50628 0
M  V30 6190 O 611.294 1.82452 -0.713316 0
M  V30 6191 H 609.874 -0.0514231 -0.745228 0
M  V30 6192 H 612.536 -0.828205 -1.76428 0
M  V30 6193 H 611.632 -0.121358 -3.11864 0
M  V30 6194 N 611.933 1.52934 -0.380664 0
M  V30 6195 C 612.896 2.24809 0.446473 0
M  V30 6196 C 613.896 1.26133 0.997347 0
M  V30 6197 O 615.086 1.50297 0.880714 0
M  V30 6198 C 612.218 2.99649 1.62553 0
M  V30 6199 H 613.411 2.99343 -0.182677 0
M  V30 6200 H 610.964 1.55736 -0.132618 0
M  V30 6201 H 611.699 2.29395 2.29235 0
M  V30 6202 H 611.484 3.72066 1.23732 0
M  V30 6203 H 612.974 3.54246 2.21133 0
M  V30 6204 N 613.412 0.11024 1.57214 0
M  V30 6205 C 614.661 -0.549638 1.94067 0
M  V30 6206 C 614.974 -1.68388 0.995234 0
M  V30 6207 O 616.18 -2.40593 1.25807 0
M  V30 6208 C 614.636 -1.02912 3.44873 0
M  V30 6209 C 614.244 0.0761861 4.47935 0
M  V30 6210 C 615.988 -1.66087 3.9066 0
M  V30 6211 C 613.895 -0.419502 5.8991 0
M  V30 6212 H 612.825 -0.209092 0.724428 0
M  V30 6213 H 615.476 0.188683 1.82527 0
M  V30 6214 H 613.858 -1.82159 3.51616 0
M  V30 6215 H 615.032 0.852185 4.52851 0
M  V30 6216 H 613.347 0.614052 4.11847 0
M  V30 6217 H 615.944 -2.04272 4.94143 0
M  V30 6218 H 616.287 -2.53591 3.30148 0
M  V30 6219 H 616.82 -0.933959 3.86681 0
M  V30 6220 H 613.559 0.419277 6.54158 0
M  V30 6221 H 613.079 -1.16217 5.88433 0
M  V30 6222 H 614.758 -0.883577 6.40938 0
M  V30 6223 N 614.89 -1.56749 -0.16351 0
M  V30 6224 C 616.12 -1.86307 -0.892936 0
M  V30 6225 C 616.528 -0.6945 -1.75992 0
M  V30 6226 O 615.871 0.345384 -1.80424 0
M  V30 6227 C 615.933 -3.10372 -1.81409 0
M  V30 6228 C 615.597 -4.42913 -1.12593 0
M  V30 6229 C 616.594 -5.17608 -0.487661 0
M  V30 6230 C 614.279 -4.89646 -1.12035 0
M  V30 6231 C 616.273 -6.3723 0.14699 0
M  V30 6232 C 613.96 -6.09197 -0.481883 0
M  V30 6233 C 614.958 -6.82834 0.150678 0
M  V30 6234 O 614.646 -8.00116 0.779065 0
M  V30 6235 H 614.378 -0.622126 -0.264452 0
M  V30 6236 H 616.932 -2.04728 -0.166063 0
M  V30 6237 H 615.162 -2.87917 -2.58148 0
M  V30 6238 H 616.851 -3.26312 -2.41403 0
M  V30 6239 H 617.617 -4.8258 -0.483888 0
M  V30 6240 H 613.496 -4.32265 -1.60212 0
M  V30 6241 H 617.04 -6.94646 0.641325 0
M  V30 6242 H 612.937 -6.43688 -0.483266 0
M  V30 6243 H 613.705 -8.15678 0.679089 0
M  V30 6244 N 616.368 0.432326 -1.51554 0
M  V30 6245 C 617.784 0.769195 -1.39841 0
M  V30 6246 C 617.984 1.95584 -0.484675 0
M  V30 6247 O 617.04 2.52433 0.0582829 0
M  V30 6248 C 618.353 1.04487 -2.81963 0
M  V30 6249 C 619.901 1.149 -2.91148 0
M  V30 6250 C 620.376 1.45758 -4.34187 0
M  V30 6251 N 621.867 1.52671 -4.37317 0
M  V30 6252 C 622.602 1.78129 -5.4503 0
M  V30 6253 N 622.098 2.01345 -6.62897 0
M  V30 6254 N 623.891 1.79953 -5.32516 0
M  V30 6255 H 616.042 -0.349122 -2.09511 0
M  V30 6256 H 618.305 -0.0938113 -0.943347 0
M  V30 6257 H 618.011 0.24557 -3.50842 0
M  V30 6258 H 617.885 1.97119 -3.21596 0
M  V30 6259 H 620.272 1.93891 -2.22464 0
M  V30 6260 H 620.353 0.201568 -2.55005 0
M  V30 6261 H 619.997 0.672917 -5.03423 0
M  V30 6262 H 619.927 2.41715 -4.67848 0
M  V30 6263 H 622.418 1.36612 -3.52343 0
M  V30 6264 H 622.731 2.20155 -7.40778 0
M  V30 6265 H 621.076 1.98657 -6.66003 0
M  V30 6266 H 624.267 1.61337 -4.39418 0
M  V30 6267 H 624.44 1.99455 -6.1654 0
M  V30 6268 N 617.846 1.41785 0.688094 0
M  V30 6269 C 618.793 1.44221 1.80191 0
M  V30 6270 C 619.763 0.295688 1.63447 0
M  V30 6271 O 620.948 0.49783 1.84191 0
M  V30 6272 C 618.088 1.33743 3.1813 0
M  V30 6273 C 617.201 2.58325 3.46254 0
M  V30 6274 C 616.336 2.40086 4.73848 0
M  V30 6275 C 615.375 3.60107 4.94964 0
M  V30 6276 N 614.512 3.40892 6.13789 0
M  V30 6277 H 619.352 2.39411 1.77444 0
M  V30 6278 H 616.889 1.18876 0.866423 0
M  V30 6279 H 618.847 1.25669 3.97823 0
M  V30 6280 H 617.477 0.42157 3.20035 0
M  V30 6281 H 616.529 2.7682 2.60912 0
M  V30 6282 H 617.841 3.4758 3.57756 0
M  V30 6283 H 616.995 2.29522 5.61609 0
M  V30 6284 H 615.734 1.483 4.64606 0
M  V30 6285 H 614.739 3.71118 4.05649 0
M  V30 6286 H 615.964 4.52857 5.06061 0
M  V30 6287 H 613.91 2.51812 6.05745 0
M  V30 6288 H 613.827 4.23727 6.26092 0
M  V30 6289 H 615.095 3.34114 7.04264 0
M  V30 6290 N 619.324 -0.923095 1.27737 0
M  V30 6291 C 620.601 -1.64989 1.05062 0
M  V30 6292 C 620.981 -2.07018 -0.413124 0
M  V30 6293 O 620.329 -1.80797 -1.39731 0
M  V30 6294 C 620.539 -2.84847 2.01652 0
M  V30 6295 C 621.887 -3.56083 2.31279 0
M  V30 6296 O 622.911 -2.94981 1.99662 0
M  V30 6297 O 621.77 -4.66182 2.85196 0
M  V30 6298 H 618.864 -0.723357 0.400853 0
M  V30 6299 H 621.41 -0.973224 1.3902 0
M  V30 6300 H 620.182 -2.50814 3.00347 0
M  V30 6301 H 619.805 -3.60231 1.68284 0
M  V30 6302 N 620.802 -1.09834 -1.13024 0
M  V30 6303 C 622.048 -0.83819 -1.84668 0
M  V30 6304 C 622.381 0.634645 -1.83537 0
M  V30 6305 O 621.656 1.46753 -1.27647 0
M  V30 6306 C 621.939 -1.37933 -3.32636 0
M  V30 6307 C 621.792 -2.91857 -3.42257 0
M  V30 6308 C 623.111 -1.01654 -4.28199 0
M  V30 6309 H 620.23 -0.30595 -0.670495 0
M  V30 6310 H 622.872 -1.36044 -1.32635 0
M  V30 6311 H 621.022 -0.935111 -3.77078 0
M  V30 6312 H 622.694 -3.44759 -3.06495 0
M  V30 6313 H 620.937 -3.28776 -2.83 0
M  V30 6314 H 621.608 -3.24799 -4.46329 0
M  V30 6315 H 624.084 -1.39973 -3.9185 0
M  V30 6316 H 622.96 -1.42217 -5.30156 0
M  V30 6317 H 623.221 0.0747794 -4.42037 0
M  V30 6318 N 622.28 1.30327 -0.886154 0
M  V30 6319 C 623.528 1.9571 -0.504195 0
M  V30 6320 C 623.849 1.70294 0.950003 0
M  V30 6321 O 623.119 1.02718 1.66811 0
M  V30 6322 H 621.699 0.72412 -0.183465 0
M  V30 6323 H 624.361 1.58835 -1.12949 0
M  V30 6324 H 623.457 3.04704 -0.675431 0
M  V30 6325 N 623.758 0.647228 1.43697 0
M  V30 6326 C 625.005 0.158188 2.01881 0
M  V30 6327 C 625.333 -1.22573 1.51017 0
M  V30 6328 O 624.588 -1.83086 0.69122 0
M  V30 6329 C 624.887 0.111481 3.57226 0
M  V30 6330 C 624.553 1.43633 4.27411 0
M  V30 6331 C 623.215 1.79915 4.463 0
M  V30 6332 C 625.567 2.31011 4.67208 0
M  V30 6333 C 622.895 3.03251 5.02251 0
M  V30 6334 C 625.247 3.53633 5.24525 0
M  V30 6335 C 623.911 3.90118 5.41631 0
M  V30 6336 H 623.181 0.0578851 0.738736 0
M  V30 6337 H 625.828 0.836746 1.72252 0
M  V30 6338 H 624.133 -0.650507 3.86362 0
M  V30 6339 H 625.83 -0.283682 3.99995 0
M  V30 6340 H 622.42 1.14403 4.1305 0
M  V30 6341 H 626.604 2.04272 4.52313 0
M  V30 6342 H 621.86 3.31575 5.13681 0
M  V30 6343 H 626.034 4.21561 5.5431 0
M  V30 6344 H 623.661 4.85768 5.84751 0
M  V30 6345 N 625.236 -1.5273 0.388769 0
M  V30 6346 C 626.652 -1.59553 0.0387049 0
M  V30 6347 C 626.852 -1.40278 -1.44652 0
M  V30 6348 O 625.908 -1.21951 -2.21098 0
M  V30 6349 C 627.221 -2.9625 0.515409 0
M  V30 6350 C 628.769 -3.09426 0.471621 0
M  V30 6351 C 629.244 -4.48572 0.924505 0
M  V30 6352 N 630.735 -4.54754 0.880496 0
M  V30 6353 C 631.47 -5.60653 1.20234 0
M  V30 6354 N 630.966 -6.74198 1.59463 0
M  V30 6355 N 632.759 -5.50755 1.12363 0
M  V30 6356 H 624.91 -1.63508 1.35569 0
M  V30 6357 H 627.173 -0.768097 0.555636 0
M  V30 6358 H 626.879 -3.15569 1.5527 0
M  V30 6359 H 626.753 -3.77102 -0.085792 0
M  V30 6360 H 629.14 -2.89804 -0.556588 0
M  V30 6361 H 629.221 -2.30528 1.10862 0
M  V30 6362 H 628.865 -4.68936 1.95094 0
M  V30 6363 H 628.795 -5.25935 0.264524 0
M  V30 6364 H 631.286 -3.73237 0.591815 0
M  V30 6365 H 631.599 -7.5097 1.82385 0
M  V30 6366 H 629.944 -6.75531 1.63349 0
M  V30 6367 H 633.135 -4.6093 0.816169 0
M  V30 6368 H 633.308 -6.33184 1.37777 0
M  V30 6369 N 626.714 -0.118576 -1.57153 0
M  V30 6370 C 627.677 0.817464 -2.14127 0
M  V30 6371 C 628.677 1.1949 -1.07604 0
M  V30 6372 O 629.867 1.12048 -1.33382 0
M  V30 6373 C 626.999 2.10541 -2.68115 0
M  V30 6374 H 628.192 0.322339 -2.98163 0
M  V30 6375 H 625.745 0.130655 -1.55753 0
M  V30 6376 H 626.48 2.64485 -1.87665 0
M  V30 6377 H 626.265 1.84425 -3.4602 0
M  V30 6378 H 627.755 2.77453 -3.12105 0
M  V30 6379 N 628.193 1.56834 0.155195 0
M  V30 6380 C 629.442 1.82088 0.867567 0
M  V30 6381 C 629.755 0.69849 1.82703 0
M  V30 6382 O 630.961 0.836407 2.58295 0
M  V30 6383 C 629.417 3.22707 1.59336 0
M  V30 6384 C 629.025 4.42859 0.676719 0
M  V30 6385 C 630.769 3.57242 2.293 0
M  V30 6386 C 628.676 5.74501 1.40367 0
M  V30 6387 H 627.606 0.679057 0.327715 0
M  V30 6388 H 630.257 1.83105 0.120351 0
M  V30 6389 H 628.639 3.16054 2.38591 0
M  V30 6390 H 629.813 4.60731 -0.0800196 0
M  V30 6391 H 628.128 4.16311 0.0859129 0
M  V30 6392 H 630.725 4.52847 2.84312 0
M  V30 6393 H 631.068 2.82901 3.05406 0
M  V30 6394 H 631.601 3.6552 1.56972 0
M  V30 6395 H 628.34 6.51915 0.684623 0
M  V30 6396 H 627.86 5.60579 2.13332 0
M  V30 6397 H 629.539 6.17016 1.94681 0
M  V30 6398 N 629.671 -0.424282 1.51781 0
M  V30 6399 C 630.634 -1.49848 1.73431 0
M  V30 6400 C 631.634 -1.49016 0.604225 0
M  V30 6401 O 632.824 -1.50808 0.871935 0
M  V30 6402 C 629.956 -2.89332 1.80277 0
M  V30 6403 H 631.149 -1.3195 2.69312 0
M  V30 6404 H 628.702 -0.653809 1.41968 0
M  V30 6405 H 629.437 -3.12618 0.862568 0
M  V30 6406 H 629.222 -2.9134 2.62419 0
M  V30 6407 H 630.712 -3.67233 1.98821 0
M  V30 6408 N 631.149 -1.42148 -0.680565 0
M  V30 6409 C 632.396 -1.4231 -1.44063 0
M  V30 6410 C 632.724 -0.037488 -1.94464 0
M  V30 6411 O 631.979 0.953184 -1.70918 0
M  V30 6412 C 632.278 -2.38945 -2.65782 0
M  V30 6413 C 631.944 -3.85455 -2.33956 0
M  V30 6414 C 630.606 -4.25364 -2.24987 0
M  V30 6415 C 632.958 -4.77895 -2.08004 0
M  V30 6416 C 630.286 -5.55701 -1.88184 0
M  V30 6417 C 632.638 -6.08568 -1.72706 0
M  V30 6418 C 631.302 -6.47482 -1.62244 0
M  V30 6419 H 630.572 -0.520748 -0.527164 0
M  V30 6420 H 633.219 -1.7505 -0.776524 0
M  V30 6421 H 631.524 -1.99511 -3.37198 0
M  V30 6422 H 633.221 -2.36336 -3.23954 0
M  V30 6423 H 629.811 -3.53855 -2.41836 0
M  V30 6424 H 633.995 -4.47854 -2.1387 0
M  V30 6425 H 629.251 -5.84718 -1.78648 0
M  V30 6426 H 633.425 -6.79688 -1.5165 0
M  V30 6427 H 631.052 -7.48387 -1.33496 0
M  V30 6428 N 632.627 0.916307 -1.28225 0
M  V30 6429 C 633.557 2.0352 -1.14464 0
M  V30 6430 C 634.538 1.70045 -0.0430844 0
M  V30 6431 O 635.723 1.92954 -0.219619 0
M  V30 6432 C 632.853 3.37889 -0.803027 0
M  V30 6433 C 631.807 3.85516 -1.85908 0
M  V30 6434 C 631.133 5.1682 -1.37116 0
M  V30 6435 C 632.433 4.07655 -3.26519 0
M  V30 6436 H 634.127 2.1529 -2.08064 0
M  V30 6437 H 631.673 1.03446 -1.00174 0
M  V30 6438 H 633.626 4.15654 -0.693537 0
M  V30 6439 H 632.35 3.26164 0.168674 0
M  V30 6440 H 631.009 3.09953 -1.95767 0
M  V30 6441 H 630.657 5.01497 -0.38859 0
M  V30 6442 H 630.357 5.49657 -2.07728 0
M  V30 6443 H 631.881 5.97143 -1.27484 0
M  V30 6444 H 633.295 4.75953 -3.19596 0
M  V30 6445 H 631.692 4.51818 -3.94943 0
M  V30 6446 H 632.762 3.12553 -3.70727 0
M  V30 6447 N 634.105 1.10431 1.1244 0
M  V30 6448 C 635.037 0.710945 2.17895 0
M  V30 6449 C 636.05 -0.252315 1.60833 0
M  V30 6450 O 637.239 -0.03679 1.78462 0
M  V30 6451 C 634.339 0.0284262 3.38888 0
M  V30 6452 C 633.512 1.01585 4.2544 0
M  V30 6453 C 632.571 0.364826 5.24934 0
M  V30 6454 O 631.597 1.01561 5.60066 0
M  V30 6455 N 632.799 -0.87674 5.73841 0
M  V30 6456 H 635.564 1.61826 2.52255 0
M  V30 6457 H 633.125 0.993132 1.27861 0
M  V30 6458 H 635.117 -0.418568 4.0253 0
M  V30 6459 H 633.687 -0.781294 3.02679 0
M  V30 6460 H 632.907 1.64111 3.58415 0
M  V30 6461 H 634.195 1.68425 4.80115 0
M  V30 6462 H 633.593 -1.42483 5.47462 0
M  V30 6463 H 632.15 -1.26688 6.39369 0
M  V30 6464 N 635.583 -1.29855 0.893053 0
M  V30 6465 C 636.515 -2.26911 0.32311 0
M  V30 6466 C 637.528 -1.54039 -0.526858 0
M  V30 6467 O 638.717 -1.75132 -0.345095 0
M  V30 6468 C 635.817 -3.34266 -0.558509 0
M  V30 6469 C 634.99 -4.36601 0.264222 0
M  V30 6470 C 634.049 -5.23326 -0.549171 0
M  V30 6471 O 633.075 -5.69192 0.0309883 0
M  V30 6472 N 634.277 -5.50008 -1.85664 0
M  V30 6473 H 637.042 -2.76455 1.15726 0
M  V30 6474 H 634.603 -1.4312 0.756859 0
M  V30 6475 H 636.595 -3.89211 -1.1089 0
M  V30 6476 H 635.165 -2.8459 -1.29334 0
M  V30 6477 H 634.385 -3.81409 0.996046 0
M  V30 6478 H 635.673 -5.02019 0.827906 0
M  V30 6479 H 635.071 -5.14542 -2.35081 0
M  V30 6480 H 633.628 -6.07796 -2.35431 0
M  V30 6481 N 637.061 -0.65484 -1.43351 0
M  V30 6482 C 638.472 -0.248506 -1.85039 0
M  V30 6483 C 638.823 1.20526 -1.54816 0
M  V30 6484 O 637.948 1.92016 -0.99794 0
M  V30 6485 C 638.543 -0.444241 -3.35875 0
M  V30 6486 C 637.102 -0.0922108 -3.76287 0
M  V30 6487 C 636.249 -0.746327 -2.67068 0
M  V30 6488 H 639.2 -0.8584 -1.33481 0
M  V30 6489 H 639.221 0.309762 -3.79237 0
M  V30 6490 H 638.733 -1.50239 -3.5784 0
M  V30 6491 H 636.834 0.96328 -3.59933 0
M  V30 6492 H 636.947 -0.518807 -4.76283 0
M  V30 6493 H 635.311 -0.179416 -2.54067 0
M  V30 6494 H 636.094 -1.80754 -2.91861 0
M  V30 6495 N 638.539 1.52521 -0.396863 0
M  V30 6496 C 639.955 1.5953 -0.0471659 0
M  V30 6497 C 640.155 1.41044 1.43906 0
M  V30 6498 O 639.211 1.23122 2.20448 0
M  V30 6499 C 640.524 2.95972 -0.531113 0
M  V30 6500 C 642.072 3.09172 -0.488024 0
M  V30 6501 C 642.547 4.48075 -0.948281 0
M  V30 6502 N 644.038 4.54281 -0.9046 0
M  V30 6503 C 644.773 5.60007 -1.23205 0
M  V30 6504 N 644.269 6.73343 -1.63036 0
M  V30 6505 N 646.062 5.50151 -1.15282 0
M  V30 6506 H 638.213 1.62786 -1.36435 0
M  V30 6507 H 640.476 0.76514 -0.559701 0
M  V30 6508 H 640.182 3.14741 -1.56942 0
M  V30 6509 H 640.056 3.77143 0.0657922 0
M  V30 6510 H 642.443 2.90095 0.541211 0
M  V30 6511 H 642.524 2.29937 -1.12083 0
M  V30 6512 H 642.168 4.67894 -1.97578 0
M  V30 6513 H 642.098 5.25788 -0.292412 0
M  V30 6514 H 644.589 3.72918 -0.6116 0
M  V30 6515 H 644.902 7.49992 -1.86365 0
M  V30 6516 H 643.247 6.74655 -1.66929 0
M  V30 6517 H 646.438 4.6049 -0.840602 0
M  V30 6518 H 646.611 6.32444 -1.41133 0
M  V30 6519 N 640.017 0.126909 1.57088 0
M  V30 6520 C 641.242 -0.53997 2.00248 0
M  V30 6521 C 641.667 -1.58927 1.00618 0
M  V30 6522 O 641.025 -1.81288 -0.0210131 0
M  V30 6523 C 641.073 -1.13565 3.4225 0
M  V30 6524 O 640.177 -2.25103 3.45547 0
M  V30 6525 H 639.518 -0.13412 0.650314 0
M  V30 6526 H 642.048 0.217718 2.03438 0
M  V30 6527 H 642.058 -1.46925 3.80627 0
M  V30 6528 H 640.733 -0.367122 4.14277 0
M  V30 6529 H 639.31 -1.93123 3.18995 0
M  V30 6530 N 641.495 -1.56914 -0.146875 0
M  V30 6531 C 642.425 -2.01308 -1.1831 0
M  V30 6532 C 643.406 -0.892664 -1.44795 0
M  V30 6533 O 644.591 -1.16048 -1.55713 0
M  V30 6534 C 641.721 -2.3938 -2.51624 0
M  V30 6535 C 640.675 -3.54608 -2.3966 0
M  V30 6536 C 640.001 -3.78493 -3.77686 0
M  V30 6537 C 641.301 -4.87269 -1.88058 0
M  V30 6538 H 642.995 -2.88123 -0.813964 0
M  V30 6539 H 640.541 -1.38615 -0.3901 0
M  V30 6540 H 642.494 -2.69037 -3.24341 0
M  V30 6541 H 641.218 -1.49502 -2.90373 0
M  V30 6542 H 639.877 -3.25116 -1.69396 0
M  V30 6543 H 639.525 -2.85866 -4.13871 0
M  V30 6544 H 639.225 -4.56039 -3.70543 0
M  V30 6545 H 640.749 -4.10576 -4.51951 0
M  V30 6546 H 642.163 -5.15644 -2.50568 0
M  V30 6547 H 640.56 -5.68622 -1.91805 0
M  V30 6548 H 641.63 -4.77634 -0.836277 0
M  V30 6549 N 642.974 0.416227 -1.52004 0
M  V30 6550 C 644.202 1.18573 -1.69553 0
M  V30 6551 C 644.617 1.84472 -0.401919 0
M  V30 6552 O 643.974 1.71593 0.621463 0
M  V30 6553 C 644.025 2.25413 -2.82615 0
M  V30 6554 O 643.746 1.62205 -4.06966 0
M  V30 6555 C 645.247 3.15297 -3.11613 0
M  V30 6556 H 642.467 0.356582 -0.56841 0
M  V30 6557 H 645.011 0.490618 -1.98528 0
M  V30 6558 H 643.166 2.90604 -2.56179 0
M  V30 6559 H 643.58 2.3298 -4.69916 0
M  V30 6560 H 645.054 3.86351 -3.94255 0
M  V30 6561 H 645.531 3.77264 -2.24874 0
M  V30 6562 H 646.137 2.55783 -3.39787 0
M  V30 6563 N 644.452 1.42507 0.673017 0
M  V30 6564 C 645.682 1.46261 1.45916 0
M  V30 6565 C 646.09 0.0729724 1.89059 0
M  V30 6566 O 645.433 -0.922987 1.58829 0
M  V30 6567 C 645.495 2.32853 2.73898 0
M  V30 6568 C 645.159 3.80699 2.52819 0
M  V30 6569 C 646.156 4.72307 2.17306 0
M  V30 6570 C 643.841 4.24983 2.67758 0
M  V30 6571 C 645.835 6.06192 1.97003 0
M  V30 6572 C 643.522 5.58927 2.4707 0
M  V30 6573 C 644.52 6.49348 2.11746 0
M  V30 6574 O 644.208 7.80817 1.91259 0
M  V30 6575 H 643.94 0.499561 0.455428 0
M  V30 6576 H 646.494 1.87697 0.834196 0
M  V30 6577 H 644.724 1.86268 3.38882 0
M  V30 6578 H 646.413 2.28041 3.35786 0
M  V30 6579 H 647.179 4.39378 2.05359 0
M  V30 6580 H 643.058 3.54893 2.94231 0
M  V30 6581 H 646.602 6.76731 1.69355 0
M  V30 6582 H 642.499 5.91429 2.58615 0
M  V30 6583 H 643.267 7.92194 2.05843 0
M  V30 6584 N 645.93 -0.909495 1.28709 0
M  V30 6585 C 646.877 -2.01245 1.13 0
M  V30 6586 C 647.847 -1.6608 0.0259684 0
M  V30 6587 O 649.032 -1.89835 0.191687 0
M  V30 6588 C 646.172 -3.35644 0.802315 0
M  V30 6589 C 645.285 -3.83653 1.98582 0
M  V30 6590 C 644.42 -5.06582 1.59837 0
M  V30 6591 C 643.459 -5.46934 2.74827 0
M  V30 6592 N 642.596 -6.61053 2.36546 0
M  V30 6593 H 647.436 -2.14013 2.0737 0
M  V30 6594 H 644.973 -1.0482 1.03205 0
M  V30 6595 H 646.931 -4.12963 0.593057 0
M  V30 6596 H 645.561 -3.22631 -0.104457 0
M  V30 6597 H 644.613 -3.02454 2.30708 0
M  V30 6598 H 645.925 -4.09515 2.84779 0
M  V30 6599 H 645.079 -5.91457 1.35143 0
M  V30 6600 H 643.818 -4.82537 0.707753 0
M  V30 6601 H 642.823 -4.60599 3.00215 0
M  V30 6602 H 644.048 -5.72965 3.64538 0
M  V30 6603 H 641.994 -6.3863 1.49959 0
M  V30 6604 H 641.911 -6.86662 3.16277 0
M  V30 6605 H 643.179 -7.49221 2.15146 0
M  V30 6606 N 647.408 -1.11026 -1.11852 0
M  V30 6607 C 648.318 -0.777252 -2.2135 0
M  V30 6608 C 649.334 0.227821 -1.72502 0
M  V30 6609 O 650.51 0.0650587 -2.01295 0
M  V30 6610 C 647.575 -0.220668 -3.45997 0
M  V30 6611 C 646.636 -1.2838 -4.09655 0
M  V30 6612 C 645.869 -0.753678 -5.28352 0
M  V30 6613 O 646.092 0.417779 -5.68868 0
M  V30 6614 O 645.026 -1.51647 -5.82483 0
M  V30 6615 H 648.852 -1.69141 -2.5224 0
M  V30 6616 H 646.437 -0.885836 -1.20305 0
M  V30 6617 H 648.319 0.0855756 -4.21313 0
M  V30 6618 H 646.994 0.666262 -3.16769 0
M  V30 6619 H 645.901 -1.64299 -3.3609 0
M  V30 6620 H 647.234 -2.14396 -4.43052 0
M  V30 6621 N 648.886 1.2938 -0.899927 0
M  V30 6622 C 650.111 2.00228 -0.540692 0
M  V30 6623 C 650.536 1.66909 0.867359 0
M  V30 6624 O 649.894 0.893824 1.57735 0
M  V30 6625 C 649.942 3.52921 -0.740232 0
M  V30 6626 O 649.046 4.11879 0.207154 0
M  V30 6627 H 648.387 0.629505 -0.211233 0
M  V30 6628 H 650.917 1.6487 -1.21158 0
M  V30 6629 H 650.927 4.0287 -0.644973 0
M  V30 6630 H 649.602 3.76508 -1.76677 0
M  V30 6631 H 648.179 3.72845 0.0643315 0
M  V30 6632 N 650.364 0.662433 1.43002 0
M  V30 6633 C 651.612 0.179237 2.01304 0
M  V30 6634 C 651.933 -1.21428 1.52579 0
M  V30 6635 O 651.203 -1.81294 0.742252 0
M  V30 6636 H 649.783 0.0632725 0.744316 0
M  V30 6637 H 652.445 0.856169 1.75088 0
M  V30 6638 H 651.541 0.170957 3.11631 0
M  V30 6639 N 651.842 -1.52309 0.404946 0
M  V30 6640 C 653.088 -2.02065 -0.172455 0
M  V30 6641 C 653.421 -1.29022 -1.45145 0
M  V30 6642 O 652.696 -0.395284 -1.90441 0
M  V30 6643 C 652.979 -3.5759 -0.424433 0
M  V30 6644 C 652.832 -4.41287 0.870945 0
M  V30 6645 C 654.151 -4.23186 -1.20837 0
M  V30 6646 H 651.27 -0.734454 -0.0612035 0
M  V30 6647 H 653.912 -1.82236 0.53759 0
M  V30 6648 H 652.062 -3.74617 -1.02929 0
M  V30 6649 H 653.734 -4.3598 1.50729 0
M  V30 6650 H 651.977 -4.07669 1.48284 0
M  V30 6651 H 652.648 -5.48171 0.649083 0
M  V30 6652 H 655.124 -4.10232 -0.696338 0
M  V30 6653 H 654 -5.31953 -1.35343 0
M  V30 6654 H 654.261 -3.81862 -2.22786 0
M  V30 6655 N 653.32 -0.135238 -1.57019 0
M  V30 6656 C 654.597 0.563227 -1.87316 0
M  V30 6657 C 654.977 1.83749 -1.03921 0
M  V30 6658 O 654.325 2.2817 -0.122675 0
M  V30 6659 C 654.535 0.840031 -3.3874 0
M  V30 6660 C 655.883 1.18598 -4.077 0
M  V30 6661 O 656.907 0.92977 -3.43851 0
M  V30 6662 O 655.766 1.66758 -5.20436 0
M  V30 6663 H 652.86 0.285971 -0.775983 0
M  V30 6664 H 655.406 -0.170965 -1.68837 0
M  V30 6665 H 654.178 -0.0622785 -3.9125 0
M  V30 6666 H 653.801 1.62882 -3.62706 0
M  V30 6667 N 654.798 1.5699 0.138552 0
M  V30 6668 C 656.047 1.82998 0.848205 0
M  V30 6669 C 656.36 0.717829 1.81952 0
M  V30 6670 O 657.566 0.863756 2.57394 0
M  V30 6671 C 656.022 3.24379 1.55904 0
M  V30 6672 C 655.63 4.43552 0.62971 0
M  V30 6673 C 657.374 3.59654 2.25498 0
M  V30 6674 C 655.281 5.75957 1.34266 0
M  V30 6675 H 654.211 0.682495 0.320495 0
M  V30 6676 H 656.862 1.83222 0.100924 0
M  V30 6677 H 655.244 3.18567 2.35226 0
M  V30 6678 H 656.418 4.6062 -0.128882 0
M  V30 6679 H 654.733 4.16379 0.0417526 0
M  V30 6680 H 657.33 4.55837 2.79493 0
M  V30 6681 H 657.673 2.86124 3.02388 0
M  V30 6682 H 658.206 3.67164 1.53087 0
M  V30 6683 H 654.945 6.52604 0.615441 0
M  V30 6684 H 654.465 5.62811 2.07375 0
M  V30 6685 H 656.144 6.19046 1.88126 0
M  V30 6686 N 656.276 -0.40816 1.52223 0
M  V30 6687 C 657.239 -1.48 1.7501 0
M  V30 6688 C 658.239 -1.48367 0.619996 0
M  V30 6689 O 659.429 -1.49874 0.887881 0
M  V30 6690 C 656.561 -2.87403 1.83336 0
M  V30 6691 H 657.754 -1.29086 2.70697 0
M  V30 6692 H 655.307 -0.638715 1.42654 0
M  V30 6693 H 656.042 -3.11686 0.895677 0
M  V30 6694 H 655.827 -2.8854 2.65494 0
M  V30 6695 H 657.317 -3.65103 2.02705 0
M  V30 6696 N 657.755 -1.42862 -0.66545 0
M  V30 6697 C 658.718 -1.46756 -1.76055 0
M  V30 6698 C 659.718 -0.353866 -1.56858 0
M  V30 6699 O 660.908 -0.615099 -1.62979 0
M  V30 6700 C 658.04 -1.30829 -3.14796 0
M  V30 6701 H 659.233 -2.44271 -1.73987 0
M  V30 6702 H 656.786 -1.29447 -0.875965 0
M  V30 6703 H 657.521 -0.342733 -3.22484 0
M  V30 6704 H 657.306 -2.11551 -3.30134 0
M  V30 6705 H 658.796 -1.36458 -3.94676 0
M  V30 6706 N 659.233 0.902656 -1.29189 0
M  V30 6707 C 660.481 1.6496 -1.16758 0
M  V30 6708 C 660.802 1.92952 0.28188 0
M  V30 6709 O 660.072 1.55351 1.19344 0
M  V30 6710 H 658.652 0.611447 -0.429118 0
M  V30 6711 H 661.314 1.0825 -1.62074 0
M  V30 6712 H 660.41 2.60728 -1.71544 0
M  V30 6713 N 660.711 1.11618 1.11262 0
M  V30 6714 C 661.659 0.771291 2.1944 0
M  V30 6715 C 662.653 -0.238073 1.67719 0
M  V30 6716 O 663.859 -0.0971628 1.79738 0
M  V30 6717 H 660.234 0.231548 0.715465 0
M  V30 6718 H 662.205 1.69226 2.45775 0
M  V30 6719 C 660.954 0.232765 3.4692 0
M  V30 6720 H 660.277 1.00072 3.87073 0
M  V30 6721 H 661.717 0.0296561 4.2399 0
M  V30 6722 C 660.176 -1.03738 3.20531 0
M  V30 6723 O 660.706 -2.11675 3.41404 0
M  V30 6724 N 658.912 -0.960906 2.74253 0
M  V30 6725 H 658.459 -0.0824323 2.57468 0
M  V30 6726 H 658.417 -1.8114 2.56974 0
M  V30 6727 N 662.189 -1.289 0.906776 0
M  V30 6728 C 663.122 -2.25737 0.334362 0
M  V30 6729 C 664.1 -1.52745 -0.557474 0
M  V30 6730 O 665.284 -1.81673 -0.502697 0
M  V30 6731 C 662.411 -3.34642 -0.522716 0
M  V30 6732 C 661.457 -4.25424 0.302777 0
M  V30 6733 S 662.29 -5.07629 1.70508 0
M  V30 6734 C 663.446 -6.20031 0.855118 0
M  V30 6735 H 663.679 -2.73941 1.15514 0
M  V30 6736 H 661.212 -1.37233 0.707573 0
M  V30 6737 H 663.17 -3.97845 -1.01141 0
M  V30 6738 H 661.831 -2.85119 -1.31781 0
M  V30 6739 H 661.024 -5.02767 -0.352257 0
M  V30 6740 H 660.626 -3.66908 0.724873 0
M  V30 6741 H 662.918 -6.77451 0.0816418 0
M  V30 6742 H 663.861 -6.89767 1.60087 0
M  V30 6743 H 664.269 -5.63035 0.406375 0
M  V30 6744 N 663.667 -0.670007 -1.42649 0
M  V30 6745 C 664.597 -0.00258501 -2.335 0
M  V30 6746 C 665.578 0.794364 -1.50412 0
M  V30 6747 O 666.763 0.75248 -1.79029 0
M  V30 6748 C 663.893 0.952748 -3.33976 0
M  V30 6749 C 662.847 0.264733 -4.2718 0
M  V30 6750 C 662.173 1.33267 -5.17826 0
M  V30 6751 C 663.473 -0.853289 -5.15283 0
M  V30 6752 H 665.167 -0.761326 -2.89559 0
M  V30 6753 H 662.713 -0.367561 -1.3923 0
M  V30 6754 H 664.666 1.4287 -3.96442 0
M  V30 6755 H 663.39 1.74285 -2.7621 0
M  V30 6756 H 662.049 -0.190938 -3.66102 0
M  V30 6757 H 661.697 2.11464 -4.5639 0
M  V30 6758 H 661.397 0.877476 -5.81011 0
M  V30 6759 H 662.921 1.80965 -5.83167 0
M  V30 6760 H 664.335 -0.458763 -5.71462 0
M  V30 6761 H 662.732 -1.23398 -5.87276 0
M  V30 6762 H 663.802 -1.70412 -4.53969 0
M  V30 6763 N 665.145 1.52092 -0.413018 0
M  V30 6764 C 666.391 2.02154 0.161737 0
M  V30 6765 C 666.724 1.29789 1.44459 0
M  V30 6766 O 665.999 0.405378 1.90229 0
M  V30 6767 C 666.282 3.5781 0.405463 0
M  V30 6768 C 666.135 4.40819 -0.894335 0
M  V30 6769 C 667.454 4.23821 1.18591 0
M  V30 6770 H 664.573 0.734769 0.0573077 0
M  V30 6771 H 667.215 1.81948 -0.547247 0
M  V30 6772 H 665.365 3.75158 1.0094 0
M  V30 6773 H 667.037 4.35175 -1.53039 0
M  V30 6774 H 665.28 4.06877 -1.50444 0
M  V30 6775 H 665.951 5.47819 -0.678144 0
M  V30 6776 H 668.427 4.10596 0.674573 0
M  V30 6777 H 667.303 5.32663 1.3252 0
M  V30 6778 H 667.564 3.83038 2.20758 0
M  V30 6779 N 666.623 0.143563 1.56945 0
M  V30 6780 C 667.57 -0.797433 2.16586 0
M  V30 6781 C 668.54 -1.24654 1.09775 0
M  V30 6782 O 669.725 -1.31968 1.37801 0
M  V30 6783 C 666.865 -2.03253 2.78895 0
M  V30 6784 C 665.978 -1.62954 4.00087 0
M  V30 6785 C 665.113 -2.81617 4.50406 0
M  V30 6786 C 664.152 -2.37675 5.64072 0
M  V30 6787 N 663.289 -3.49335 6.09023 0
M  V30 6788 H 668.129 -0.282023 2.96662 0
M  V30 6789 H 665.666 -0.127494 1.46546 0
M  V30 6790 H 667.624 -2.75653 3.13163 0
M  V30 6791 H 666.254 -2.52211 2.01469 0
M  V30 6792 H 665.306 -0.803322 3.71821 0
M  V30 6793 H 666.618 -1.26679 4.82446 0
M  V30 6794 H 665.772 -3.62212 4.86711 0
M  V30 6795 H 664.511 -3.21134 3.67048 0
M  V30 6796 H 663.516 -1.55519 5.27346 0
M  V30 6797 H 664.741 -1.99247 6.49213 0
M  V30 6798 H 662.687 -3.8848 5.28601 0
M  V30 6799 H 662.604 -3.17064 6.86299 0
M  V30 6800 H 663.872 -4.30297 6.49973 0
M  V30 6801 N 668.101 -1.57061 -0.130224 0
M  V30 6802 C 669.048 -1.99517 -1.16024 0
M  V30 6803 C 670.018 -0.865452 -1.41771 0
M  V30 6804 O 671.203 -1.12882 -1.53826 0
M  V30 6805 C 668.343 -2.3951 -2.48453 0
M  V30 6806 C 667.456 -3.65848 -2.29737 0
M  V30 6807 C 666.591 -3.9487 -3.55318 0
M  V30 6808 C 665.63 -5.14426 -3.31711 0
M  V30 6809 N 664.767 -5.39375 -4.49466 0
M  V30 6810 H 669.607 -2.87305 -0.791194 0
M  V30 6811 H 667.144 -1.42129 -0.379195 0
M  V30 6812 H 669.102 -2.60731 -3.25692 0
M  V30 6813 H 667.732 -1.54779 -2.83272 0
M  V30 6814 H 666.784 -3.52307 -1.4347 0
M  V30 6815 H 668.096 -4.53241 -2.08263 0
M  V30 6816 H 667.25 -4.16679 -4.4098 0
M  V30 6817 H 665.989 -3.05931 -3.79813 0
M  V30 6818 H 664.994 -4.92473 -2.44439 0
M  V30 6819 H 666.219 -6.04933 -3.08598 0
M  V30 6820 H 664.165 -4.53391 -4.74102 0
M  V30 6821 H 664.082 -6.21069 -4.31055 0
M  V30 6822 H 665.35 -5.65694 -5.36293 0
M  V30 6823 N 669.579 0.400081 -1.52437 0
M  V30 6824 C 670.828 1.14332 -1.66166 0
M  V30 6825 C 671.141 1.91419 -0.402253 0
M  V30 6826 O 672.347 2.6824 -0.419487 0
M  V30 6827 C 670.803 2.08137 -2.9361 0
M  V30 6828 C 670.411 1.36524 -4.26691 0
M  V30 6829 C 672.155 2.82664 -3.16703 0
M  V30 6830 C 670.062 2.29031 -5.45251 0
M  V30 6831 H 668.992 0.430499 -0.61902 0
M  V30 6832 H 671.643 0.407017 -1.78929 0
M  V30 6833 H 670.025 2.85358 -2.74567 0
M  V30 6834 H 671.199 0.646061 -4.56249 0
M  V30 6835 H 669.514 0.74002 -4.09771 0
M  V30 6836 H 672.111 3.52037 -4.0246 0
M  V30 6837 H 672.454 3.46122 -2.31312 0
M  V30 6838 H 672.987 2.12541 -3.36261 0
M  V30 6839 H 669.726 1.70206 -6.33017 0
M  V30 6840 H 669.246 2.98896 -5.2002 0
M  V30 6841 H 670.925 2.89359 -5.78689 0
M  V30 6842 N 671.057 1.43213 0.657864 0
M  V30 6843 C 671.989 1.43974 1.78337 0
M  V30 6844 C 673.002 0.336482 1.59285 0
M  V30 6845 O 674.191 0.600631 1.68091 0
M  V30 6846 C 671.291 1.23242 3.15697 0
M  V30 6847 C 670.464 2.46319 3.61449 0
M  V30 6848 C 669.523 2.2088 4.77597 0
M  V30 6849 O 668.549 2.942 4.87273 0
M  V30 6850 N 669.751 1.22251 5.67481 0
M  V30 6851 H 672.516 2.40993 1.78164 0
M  V30 6852 H 670.077 1.3831 0.841549 0
M  V30 6853 H 672.069 1.04113 3.91079 0
M  V30 6854 H 670.639 0.346849 3.1067 0
M  V30 6855 H 669.859 2.80904 2.76563 0
M  V30 6856 H 671.147 3.28239 3.88763 0
M  V30 6857 H 670.545 0.616433 5.62331 0
M  V30 6858 H 669.102 1.09107 6.42603 0
M  V30 6859 N 672.536 -0.895792 1.29666 0
M  V30 6860 C 673.947 -1.46195 1.1612 0
M  V30 6861 C 674.298 -1.94699 -0.242195 0
M  V30 6862 O 673.423 -1.8406 -1.13802 0
M  V30 6863 C 674.018 -2.65718 2.10189 0
M  V30 6864 C 672.577 -3.18458 2.00653 0
M  V30 6865 C 671.724 -1.91149 2.00891 0
M  V30 6866 H 674.675 -0.706756 1.42094 0
M  V30 6867 H 674.696 -3.4158 1.6764 0
M  V30 6868 H 674.208 -2.30386 3.12321 0
M  V30 6869 H 672.309 -3.58474 1.01623 0
M  V30 6870 H 672.422 -3.82491 2.88509 0
M  V30 6871 H 670.786 -2.09021 1.45542 0
M  V30 6872 H 671.569 -1.58089 3.04734 0
M  V30 6873 N 674.014 -1.12206 -1.10668 0
M  V30 6874 C 674.944 -0.810086 -2.18997 0
M  V30 6875 C 675.925 0.225065 -1.68604 0
M  V30 6876 O 677.11 0.086783 -1.94006 0
M  V30 6877 C 674.24 -0.261262 -3.46316 0
M  V30 6878 C 673.194 -1.2292 -4.09969 0
M  V30 6879 C 672.52 -0.540713 -5.31959 0
M  V30 6880 C 673.82 -2.58295 -4.53962 0
M  V30 6881 H 675.514 -1.7159 -2.45352 0
M  V30 6882 H 673.06 -0.82646 -1.17922 0
M  V30 6883 H 675.013 -0.0307522 -4.21389 0
M  V30 6884 H 673.737 0.679879 -3.19445 0
M  V30 6885 H 672.396 -1.44548 -3.369 0
M  V30 6886 H 672.044 0.405492 -5.01363 0
M  V30 6887 H 671.744 -1.18637 -5.75499 0
M  V30 6888 H 673.268 -0.319184 -6.09765 0
M  V30 6889 H 674.682 -2.40709 -5.20319 0
M  V30 6890 H 673.079 -3.18916 -5.08343 0
M  V30 6891 H 674.149 -3.16918 -3.67002 0
M  V30 6892 N 675.492 1.28418 -0.913599 0
M  V30 6893 C 676.455 2.25564 -0.406624 0
M  V30 6894 C 677.455 1.5387 0.466965 0
M  V30 6895 O 678.645 1.72094 0.270042 0
M  V30 6896 C 675.777 3.38339 0.417053 0
M  V30 6897 H 676.97 2.71926 -1.26477 0
M  V30 6898 H 674.523 1.40098 -0.692986 0
M  V30 6899 H 675.258 2.97339 1.29461 0
M  V30 6900 H 675.043 3.91542 -0.209102 0
M  V30 6901 H 676.533 4.10578 0.762602 0
M  V30 6902 N 676.97 0.677563 1.42291 0
M  V30 6903 C 677.917 0.000947061 2.308 0
M  V30 6904 C 678.887 -0.789889 1.46116 0
M  V30 6905 O 680.072 -0.761578 1.74942 0
M  V30 6906 C 677.212 -0.942387 3.31984 0
M  V30 6907 C 676.325 -0.14508 4.31756 0
M  V30 6908 C 675.46 -1.08442 5.20013 0
M  V30 6909 C 674.499 -0.278958 6.11464 0
M  V30 6910 N 673.636 -1.17115 6.92263 0
M  V30 6911 H 678.476 0.761521 2.88106 0
M  V30 6912 H 676.013 0.38727 1.41911 0
M  V30 6913 H 677.971 -1.50317 3.89179 0
M  V30 6914 H 676.601 -1.66956 2.76271 0
M  V30 6915 H 675.653 0.532368 3.76656 0
M  V30 6916 H 676.965 0.48015 4.96484 0
M  V30 6917 H 676.119 -1.71504 5.81955 0
M  V30 6918 H 674.858 -1.74353 4.55469 0
M  V30 6919 H 673.863 0.364856 5.48588 0
M  V30 6920 H 675.088 0.376099 6.78058 0
M  V30 6921 H 673.034 -1.81661 6.30345 0
M  V30 6922 H 672.951 -0.601063 7.53607 0
M  V30 6923 H 674.219 -1.78915 7.58689 0
M  V30 6924 N 678.448 -1.51871 0.421078 0
M  V30 6925 C 679.411 -2.25914 -0.386712 0
M  V30 6926 C 680.411 -1.28733 -0.963555 0
M  V30 6927 O 681.601 -1.52579 -0.840556 0
M  V30 6928 C 678.733 -3.03853 -1.54551 0
M  V30 6929 H 679.926 -2.98754 0.261978 0
M  V30 6930 H 677.479 -1.5533 0.173862 0
M  V30 6931 H 678.214 -2.35392 -2.23072 0
M  V30 6932 H 677.999 -3.75215 -1.13824 0
M  V30 6933 H 679.489 -3.59984 -2.11663 0
M  V30 6934 N 679.926 -0.151884 -1.56866 0
M  V30 6935 C 681.154 0.504813 -2.00647 0
M  V30 6936 C 681.569 1.58098 -1.03201 0
M  V30 6937 O 680.926 1.82476 -0.0297814 0
M  V30 6938 C 680.977 1.10099 -3.44326 0
M  V30 6939 O 680.698 0.0678021 -4.38048 0
M  V30 6940 C 682.199 1.83782 -4.03409 0
M  V30 6941 H 679.419 0.130989 -0.65809 0
M  V30 6942 H 681.963 -0.247903 -2.02992 0
M  V30 6943 H 680.118 1.8043 -3.42817 0
M  V30 6944 H 680.532 0.505237 -5.22061 0
M  V30 6945 H 682.006 2.2078 -5.05925 0
M  V30 6946 H 682.483 2.72557 -3.44397 0
M  V30 6947 H 683.089 1.18138 -4.08563 0
M  V30 6948 N 681.404 1.57128 0.121893 0
M  V30 6949 C 682.629 1.89254 0.848385 0
M  V30 6950 C 683.054 0.743527 1.72781 0
M  V30 6951 O 682.412 -0.306056 1.78698 0
M  V30 6952 C 682.46 3.20113 1.66012 0
M  V30 6953 O 681.564 3.05815 2.76679 0
M  V30 6954 H 680.905 0.621103 0.234793 0
M  V30 6955 H 683.435 2.0433 0.10516 0
M  V30 6956 H 683.445 3.52761 2.04996 0
M  V30 6957 H 682.12 4.03336 1.01452 0
M  V30 6958 H 680.697 2.84627 2.40918 0
M  V30 6959 N 682.882 -0.391992 1.52647 0
M  V30 6960 C 684.298 -0.731848 1.41831 0
M  V30 6961 C 684.498 -1.9423 0.536361 0
M  V30 6962 O 683.554 -2.52499 0.00866571 0
M  V30 6963 C 684.867 -0.969743 2.84634 0
M  V30 6964 C 686.415 -1.0714 2.94092 0
M  V30 6965 C 686.89 -1.34195 4.37899 0
M  V30 6966 N 688.381 -1.41023 4.41211 0
M  V30 6967 C 689.116 -1.63616 5.49561 0
M  V30 6968 N 688.612 -1.83699 6.68002 0
M  V30 6969 N 690.405 -1.65771 5.371 0
M  V30 6970 H 682.556 0.404547 2.08512 0
M  V30 6971 H 684.819 0.11879 0.940528 0
M  V30 6972 H 684.525 -0.152465 3.51369 0
M  V30 6973 H 684.399 -1.88523 3.26709 0
M  V30 6974 H 686.786 -1.87925 2.27526 0
M  V30 6975 H 686.867 -0.133887 2.55449 0
M  V30 6976 H 686.511 -0.539207 5.0503 0
M  V30 6977 H 686.441 -2.29226 4.74092 0
M  V30 6978 H 688.932 -1.27223 3.55841 0
M  V30 6979 H 689.245 -2.00437 7.46354 0
M  V30 6980 H 687.59 -1.8093 6.71036 0
M  V30 6981 H 690.781 -1.4963 4.43541 0
M  V30 6982 H 690.954 -1.83038 6.21612 0
M  V30 6983 N 684.36 -1.4356 -0.65026 0
M  V30 6984 C 685.585 -1.48995 -1.44275 0
M  V30 6985 C 686.01 -0.109954 -1.87778 0
M  V30 6986 O 685.368 0.896926 -1.57559 0
M  V30 6987 C 685.416 -2.44341 -2.65198 0
M  V30 6988 O 684.52 -1.93172 -3.6436 0
M  V30 6989 H 683.861 -0.503852 -0.432469 0
M  V30 6990 H 686.391 -1.88504 -0.795446 0
M  V30 6991 H 686.401 -2.61743 -3.12977 0
M  V30 6992 H 685.076 -3.44588 -2.32877 0
M  V30 6993 H 683.653 -1.85445 -3.23519 0
M  V30 6994 N 685.838 0.888903 -1.30139 0
M  V30 6995 C 687.086 1.63713 -1.18501 0
M  V30 6996 C 687.407 1.9324 0.261399 0
M  V30 6997 O 686.677 1.56608 1.17689 0
M  V30 6998 H 685.257 0.606861 -0.435579 0
M  V30 6999 H 687.919 1.06525 -1.63213 0
M  V30 7000 H 687.015 2.58894 -1.743 0
M  V30 7001 N 687.317 1.12792 1.10072 0
M  V30 7002 C 688.557 0.895691 1.8373 0
M  V30 7003 C 688.921 -0.568131 1.83402 0
M  V30 7004 O 690.122 -0.917666 2.52651 0
M  V30 7005 C 688.393 1.4593 3.2625 0
M  V30 7006 S 689.952 1.36615 4.16991 0
M  V30 7007 H 686.77 0.323017 0.633389 0
M  V30 7008 H 689.372 1.43816 1.32428 0
M  V30 7009 H 688.076 2.51818 3.24062 0
M  V30 7010 H 687.607 0.914478 3.82624 0
M  V30 7011 H 689.622 0.340131 4.95033 0
M  V30 7012 N 688.795 -1.27931 0.920396 0
M  V30 7013 C 689.742 -2.27085 0.412422 0
M  V30 7014 C 690.712 -1.57858 -0.516725 0
M  V30 7015 O 691.897 -1.85717 -0.437475 0
M  V30 7016 C 689.037 -3.43466 -0.335399 0
M  V30 7017 C 688.15 -4.27425 0.627017 0
M  V30 7018 C 687.285 -5.31016 -0.139916 0
M  V30 7019 C 686.324 -6.06641 0.815683 0
M  V30 7020 N 685.461 -7.02052 0.0818439 0
M  V30 7021 H 690.301 -2.69913 1.26298 0
M  V30 7022 H 687.838 -1.32732 0.634076 0
M  V30 7023 H 689.796 -4.09744 -0.785226 0
M  V30 7024 H 688.426 -3.01611 -1.15025 0
M  V30 7025 H 687.478 -3.6113 1.19537 0
M  V30 7026 H 688.79 -4.79969 1.35763 0
M  V30 7027 H 687.944 -6.03208 -0.649998 0
M  V30 7028 H 686.683 -4.79257 -0.903543 0
M  V30 7029 H 685.688 -5.33294 1.33708 0
M  V30 7030 H 686.913 -6.60489 1.57897 0
M  V30 7031 H 684.859 -6.52634 -0.663671 0
M  V30 7032 H 684.776 -7.52249 0.752163 0
M  V30 7033 H 686.044 -7.78432 -0.407825 0
M  V30 7034 N 690.273 -0.685099 -1.4193 0
M  V30 7035 C 691.519 -0.211971 -2.01689 0
M  V30 7036 C 691.852 1.18189 -1.54094 0
M  V30 7037 O 691.127 1.79559 -0.747572 0
M  V30 7038 C 691.41 -0.258019 -3.59174 0
M  V30 7039 C 691.263 -1.68807 -4.16922 0
M  V30 7040 C 692.582 0.388044 -4.38386 0
M  V30 7041 H 689.701 -0.0784987 -0.732808 0
M  V30 7042 H 692.343 -0.871837 -1.68816 0
M  V30 7043 H 690.493 0.303832 -3.8731 0
M  V30 7044 H 692.165 -2.30296 -3.99702 0
M  V30 7045 H 690.408 -2.22553 -3.72361 0
M  V30 7046 H 691.079 -1.6719 -5.26072 0
M  V30 7047 H 693.555 -0.0903432 -4.16002 0
M  V30 7048 H 692.431 0.325232 -5.47936 0
M  V30 7049 H 692.692 1.4672 -4.17044 0
M  V30 7050 N 691.751 1.51645 -0.429126 0
M  V30 7051 C 693.028 1.94579 0.199614 0
M  V30 7052 C 693.408 1.3673 1.60836 0
M  V30 7053 O 692.756 0.551062 2.21756 0
M  V30 7054 C 692.966 3.48506 0.185685 0
M  V30 7055 C 694.314 4.22756 0.395282 0
M  V30 7056 O 695.338 3.55219 0.264165 0
M  V30 7057 O 694.197 5.42555 0.655475 0
M  V30 7058 H 691.291 0.816007 0.134393 0
M  V30 7059 H 693.837 1.62577 -0.486513 0
M  V30 7060 H 692.609 3.83045 -0.799508 0
M  V30 7061 H 692.232 3.86927 0.91507 0
M  V30 7062 N 693.229 0.160201 1.56784 0
M  V30 7063 C 694.159 -0.770264 2.2043 0
M  V30 7064 C 695.14 -1.24736 1.15651 0
M  V30 7065 O 696.325 -1.30253 1.44041 0
M  V30 7066 C 693.455 -2.00427 2.83631 0
M  V30 7067 C 692.409 -1.66345 3.94352 0
M  V30 7068 C 691.735 -2.97119 4.4455 0
M  V30 7069 C 693.035 -0.899972 5.14488 0
M  V30 7070 H 694.729 -0.239783 2.98438 0
M  V30 7071 H 692.275 -0.113891 1.43549 0
M  V30 7072 H 694.228 -2.66012 3.26827 0
M  V30 7073 H 692.952 -2.5587 2.02973 0
M  V30 7074 H 691.611 -1.03133 3.51794 0
M  V30 7075 H 691.259 -3.5058 3.60698 0
M  V30 7076 H 690.959 -2.75073 5.19238 0
M  V30 7077 H 692.483 -3.63753 4.90425 0
M  V30 7078 H 693.897 -1.45818 5.54446 0
M  V30 7079 H 692.294 -0.778968 5.95023 0
M  V30 7080 H 693.364 0.105827 4.84785 0
M  V30 7081 N 694.707 -1.5719 -0.113559 0
M  V30 7082 C 695.955 -1.84772 -0.818761 0
M  V30 7083 C 696.276 -0.746196 -1.80158 0
M  V30 7084 O 695.546 0.229305 -1.94553 0
M  V30 7085 H 694.126 -0.681737 -0.305359 0
M  V30 7086 H 696.788 -1.94645 -0.0995845 0
M  V30 7087 H 695.884 -2.80878 -1.36067 0
M  V30 7088 N 696.185 0.383891 -1.52853 0
M  V30 7089 C 697.433 1.12619 -1.67814 0
M  V30 7090 C 697.754 1.90354 -0.423141 0
M  V30 7091 O 697.024 1.87649 0.562554 0
M  V30 7092 H 695.604 0.418738 -0.618601 0
M  V30 7093 H 698.266 0.43495 -1.89985 0
M  V30 7094 H 697.362 1.82624 -2.5309 0
M  V30 7095 N 697.663 1.43903 0.642637 0
M  V30 7096 C 698.91 1.46079 1.40239 0
M  V30 7097 C 699.238 0.0890335 1.94296 0
M  V30 7098 O 698.493 -0.907533 1.73385 0
M  V30 7099 C 698.792 2.45907 2.59354 0
M  V30 7100 C 698.458 3.91522 2.23654 0
M  V30 7101 C 697.12 4.31179 2.1363 0
M  V30 7102 C 699.472 4.83242 1.95261 0
M  V30 7103 C 696.8 5.60495 1.73384 0
M  V30 7104 C 699.152 6.12933 1.56511 0
M  V30 7105 C 697.816 6.51556 1.4502 0
M  V30 7106 H 697.086 0.534542 0.513172 0
M  V30 7107 H 699.733 1.77047 0.72984 0
M  V30 7108 H 698.038 2.08381 3.3179 0
M  V30 7109 H 699.735 2.44842 3.17574 0
M  V30 7110 H 696.325 3.60142 2.32369 0
M  V30 7111 H 700.509 4.53367 2.0192 0
M  V30 7112 H 695.765 5.89249 1.63082 0
M  V30 7113 H 699.939 6.83469 1.33576 0
M  V30 7114 H 697.566 7.51663 1.13606 0
M  V30 7115 N 699.141 -0.881989 1.30609 0
M  V30 7116 C 700.104 -1.96957 1.1722 0
M  V30 7117 C 701.104 -1.60472 0.102598 0
M  V30 7118 O 702.294 -1.70628 0.350943 0
M  V30 7119 C 699.426 -3.31463 0.796572 0
M  V30 7120 H 700.619 -2.10262 2.13846 0
M  V30 7121 H 698.172 -1.06877 1.14048 0
M  V30 7122 H 698.907 -3.23859 -0.169053 0
M  V30 7123 H 698.692 -3.59314 1.56959 0
M  V30 7124 H 700.182 -4.11233 0.72645 0
M  V30 7125 N 700.619 -1.13374 -1.09472 0
M  V30 7126 C 701.867 -0.893422 -1.8128 0
M  V30 7127 C 702.188 0.582029 -1.86111 0
M  V30 7128 O 701.458 1.42305 -1.34633 0
M  V30 7129 H 700.038 -0.327543 -0.67136 0
M  V30 7130 H 702.7 -1.43018 -1.32408 0
M  V30 7131 H 701.796 -1.28374 -2.84476 0
M  V30 7132 N 702.098 1.27442 -0.927168 0
M  V30 7133 C 703.028 2.29256 -0.443188 0
M  V30 7134 C 704.009 1.62701 0.49624 0
M  V30 7135 O 705.194 1.90013 0.401105 0
M  V30 7136 C 702.324 3.45955 0.305366 0
M  V30 7137 C 701.278 4.24501 -0.546178 0
M  V30 7138 C 700.604 5.33671 0.331512 0
M  V30 7139 C 701.904 4.89921 -1.81037 0
M  V30 7140 H 703.598 2.69988 -1.29409 0
M  V30 7141 H 701.144 1.29792 -0.623705 0
M  V30 7142 H 703.097 4.1628 0.654885 0
M  V30 7143 H 701.821 3.04138 1.19029 0
M  V30 7144 H 700.48 3.55921 -0.878398 0
M  V30 7145 H 700.128 4.88096 1.21537 0
M  V30 7146 H 699.828 5.87131 -0.234746 0
M  V30 7147 H 701.352 6.0684 0.676614 0
M  V30 7148 H 702.766 5.52536 -1.52895 0
M  V30 7149 H 701.163 5.53436 -2.32009 0
M  V30 7150 H 702.233 4.13652 -2.53021 0
M  V30 7151 N 703.576 0.692616 1.41565 0
M  V30 7152 C 704.823 0.222335 2.01276 0
M  V30 7153 C 705.151 -1.17706 1.5484 0
M  V30 7154 O 704.406 -1.80795 0.749118 0
M  V30 7155 C 704.705 0.225073 3.56691 0
M  V30 7156 C 704.371 1.57158 4.22625 0
M  V30 7157 C 703.033 1.94022 4.40351 0
M  V30 7158 C 705.385 2.45758 4.59622 0
M  V30 7159 C 702.713 3.19076 4.92349 0
M  V30 7160 C 705.065 3.70141 5.13009 0
M  V30 7161 C 703.729 4.07152 5.28946 0
M  V30 7162 H 702.999 0.0813581 0.73652 0
M  V30 7163 H 705.646 0.891123 1.69503 0
M  V30 7164 H 703.951 -0.527259 3.88236 0
M  V30 7165 H 705.648 -0.156283 4.00695 0
M  V30 7166 H 702.238 1.27486 4.09201 0
M  V30 7167 H 706.422 2.18558 4.45585 0
M  V30 7168 H 701.678 3.4775 5.02872 0
M  V30 7169 H 705.852 4.38983 5.40617 0
M  V30 7170 H 703.479 5.04125 5.69001 0
M  V30 7171 N 705.054 -1.51416 0.437162 0
M  V30 7172 C 706.331 -1.94682 -0.189292 0
M  V30 7173 C 706.711 -1.37581 -1.60108 0
M  V30 7174 O 706.059 -0.562815 -2.2146 0
M  V30 7175 C 706.269 -3.48599 -0.167201 0
M  V30 7176 C 707.617 -4.2296 -0.372856 0
M  V30 7177 O 708.641 -3.55354 -0.245323 0
M  V30 7178 O 707.5 -5.42895 -0.626693 0
M  V30 7179 H 704.594 -0.816708 -0.130063 0
M  V30 7180 H 707.14 -1.62316 0.495128 0
M  V30 7181 H 705.912 -3.82616 0.81981 0
M  V30 7182 H 705.535 -3.87406 -0.894537 0
M  V30 7183 N 706.532 -0.168513 -1.56696 0
M  V30 7184 C 707.462 0.758563 -2.20835 0
M  V30 7185 C 708.443 1.24121 -1.1631 0
M  V30 7186 O 709.628 1.29487 -1.4473 0
M  V30 7187 C 706.758 1.9892 -2.8469 0
M  V30 7188 C 705.712 1.64252 -3.95228 0
M  V30 7189 C 705.038 2.94757 -4.46119 0
M  V30 7190 C 706.338 0.872675 -5.14958 0
M  V30 7191 H 708.032 0.223953 -2.98561 0
M  V30 7192 H 705.578 0.106277 -1.43607 0
M  V30 7193 H 707.531 2.64275 -3.28233 0
M  V30 7194 H 706.255 2.5479 -2.04327 0
M  V30 7195 H 704.914 1.01266 -3.52336 0
M  V30 7196 H 704.562 3.48662 -3.62552 0
M  V30 7197 H 704.262 2.72316 -5.2069 0
M  V30 7198 H 705.786 3.61147 -4.92347 0
M  V30 7199 H 707.2 1.42875 -5.55211 0
M  V30 7200 H 705.597 0.747402 -5.95428 0
M  V30 7201 H 706.667 -0.131535 -4.84722 0
M  V30 7202 N 708.01 1.57248 0.105221 0
M  V30 7203 C 708.957 2.01338 1.12835 0
M  V30 7204 C 709.927 0.887897 1.40377 0
M  V30 7205 O 711.112 1.15315 1.5201 0
M  V30 7206 C 708.252 2.43432 2.44611 0
M  V30 7207 C 707.365 3.69457 2.23888 0
M  V30 7208 C 706.5 4.00473 3.48991 0
M  V30 7209 C 705.539 5.19638 3.23485 0
M  V30 7210 N 704.676 5.46457 4.40828 0
M  V30 7211 H 709.516 2.88527 0.745386 0
M  V30 7212 H 707.053 1.42714 0.356535 0
M  V30 7213 H 709.011 2.65879 3.21503 0
M  V30 7214 H 707.641 1.59266 2.80774 0
M  V30 7215 H 706.693 3.54545 1.37847 0
M  V30 7216 H 708.005 4.56497 2.01026 0
M  V30 7217 H 707.159 4.23642 4.34295 0
M  V30 7218 H 705.898 3.11935 3.74897 0
M  V30 7219 H 704.903 4.96299 2.36574 0
M  V30 7220 H 706.128 6.09766 2.98935 0
M  V30 7221 H 704.074 4.60876 4.66829 0
M  V30 7222 H 703.991 6.27849 4.2112 0
M  V30 7223 H 705.259 5.74155 5.27225 0
M  V30 7224 N 709.488 -0.375779 1.53054 0
M  V30 7225 C 710.451 -1.44254 1.7811 0
M  V30 7226 C 711.451 -1.47018 0.651328 0
M  V30 7227 O 712.641 -1.47957 0.919472 0
M  V30 7228 C 709.773 -2.8345 1.89391 0
M  V30 7229 H 710.966 -1.23316 2.73374 0
M  V30 7230 H 708.519 -0.608312 1.43977 0
M  V30 7231 H 709.254 -3.09716 0.961589 0
M  V30 7232 H 709.039 -2.82844 2.71555 0
M  V30 7233 H 710.529 -3.60722 2.10404 0
M  V30 7234 N 710.966 -1.44241 -0.634997 0
M  V30 7235 C 711.929 -1.50457 -1.72903 0
M  V30 7236 C 712.929 -0.387058 -1.56072 0
M  V30 7237 O 714.119 -0.649531 -1.61638 0
M  V30 7238 C 711.251 -1.37477 -3.1195 0
M  V30 7239 H 712.444 -2.47907 -1.68767 0
M  V30 7240 H 709.997 -1.31276 -0.84831 0
M  V30 7241 H 710.732 -0.41106 -3.21684 0
M  V30 7242 H 710.517 -2.18506 -3.25573 0
M  V30 7243 H 712.007 -1.44799 -3.91692 0
M  V30 7244 N 712.444 0.87505 -1.31075 0
M  V30 7245 C 713.692 1.62447 -1.20231 0
M  V30 7246 C 714.013 1.93506 0.240888 0
M  V30 7247 O 713.283 1.57847 1.16022 0
M  V30 7248 H 711.863 0.602207 -0.441991 0
M  V30 7249 H 714.525 1.04788 -1.64334 0
M  V30 7250 H 713.621 2.57031 -1.77036 0
M  V30 7251 N 713.922 1.13953 1.08869 0
M  V30 7252 C 715.169 0.90481 1.81161 0
M  V30 7253 C 715.497 -0.568824 1.85996 0
M  V30 7254 O 714.752 -1.43723 1.32823 0
M  V30 7255 C 715.051 1.44495 3.26888 0
M  V30 7256 C 714.717 2.93641 3.42178 0
M  V30 7257 C 713.379 3.34361 3.46059 0
M  V30 7258 C 715.731 3.89568 3.46246 0
M  V30 7259 C 713.059 4.69681 3.51592 0
M  V30 7260 C 715.411 5.2474 3.53314 0
M  V30 7261 C 714.075 5.64979 3.55465 0
M  V30 7262 H 713.345 0.331094 0.662916 0
M  V30 7263 H 715.992 1.42242 1.28217 0
M  V30 7264 H 714.297 0.848169 3.82509 0
M  V30 7265 H 715.994 1.23934 3.81368 0
M  V30 7266 H 712.584 2.61156 3.39846 0
M  V30 7267 H 716.768 3.59192 3.42483 0
M  V30 7268 H 712.024 5.00224 3.51547 0
M  V30 7269 H 716.198 5.98882 3.55406 0
M  V30 7270 H 713.825 6.69821 3.59505 0
M  V30 7271 N 715.4 -1.26948 0.933913 0
M  V30 7272 C 716.347 -2.26635 0.436484 0
M  V30 7273 C 717.317 -1.58397 -0.499953 0
M  V30 7274 O 718.502 -1.86171 -0.417753 0
M  V30 7275 C 715.642 -3.43803 -0.298951 0
M  V30 7276 C 714.755 -4.26736 0.672316 0
M  V30 7277 C 713.89 -5.31134 -0.0835872 0
M  V30 7278 C 712.929 -6.05742 0.879979 0
M  V30 7279 N 712.066 -7.01926 0.156301 0
M  V30 7280 H 716.906 -2.68558 1.29154 0
M  V30 7281 H 714.443 -1.32052 0.648118 0
M  V30 7282 H 716.401 -4.10554 -0.741723 0
M  V30 7283 H 715.031 -3.02814 -1.1182 0
M  V30 7284 H 714.083 -3.59842 1.23361 0
M  V30 7285 H 715.395 -4.78502 1.40846 0
M  V30 7286 H 714.549 -6.03863 -0.585984 0
M  V30 7287 H 713.288 -4.80188 -0.852661 0
M  V30 7288 H 712.293 -5.31846 1.39357 0
M  V30 7289 H 713.518 -6.58777 1.64894 0
M  V30 7290 H 711.464 -6.53301 -0.594413 0
M  V30 7291 H 711.381 -7.51409 0.831906 0
M  V30 7292 H 712.649 -7.78821 -0.325239 0
M  V30 7293 N 716.879 -0.700114 -1.41195 0
M  V30 7294 C 718.156 -0.160836 -1.94938 0
M  V30 7295 C 718.536 1.33014 -1.63922 0
M  V30 7296 O 717.884 2.07878 -0.948636 0
M  V30 7297 C 718.094 -0.456991 -3.45995 0
M  V30 7298 C 719.442 -0.387207 -4.22831 0
M  V30 7299 O 720.466 -0.392164 -3.54035 0
M  V30 7300 O 719.325 -0.351267 -5.4537 0
M  V30 7301 H 716.419 -0.0176304 -0.826812 0
M  V30 7302 H 718.965 -0.776586 -1.50888 0
M  V30 7303 H 717.737 -1.48884 -3.61869 0
M  V30 7304 H 717.36 0.189503 -3.97148 0
M  V30 7305 N 718.357 1.51182 -0.445186 0
M  V30 7306 C 719.768 1.86693 0.0160999 0
M  V30 7307 C 720.119 1.36183 1.4124 0
M  V30 7308 O 719.244 0.715895 2.04215 0
M  V30 7309 C 719.839 3.38781 0.0359918 0
M  V30 7310 C 718.398 3.73799 0.441715 0
M  V30 7311 C 717.545 2.74947 -0.360511 0
M  V30 7312 H 720.496 1.44294 -0.660674 0
M  V30 7313 H 720.517 3.71026 0.843813 0
M  V30 7314 H 720.029 3.75513 -0.980378 0
M  V30 7315 H 718.13 3.42659 1.4634 0
M  V30 7316 H 718.243 4.78829 0.16106 0
M  V30 7317 H 716.607 2.54047 0.182269 0
M  V30 7318 H 717.39 3.14521 -1.3759 0
M  V30 7319 N 719.835 0.176821 1.56605 0
M  V30 7320 C 720.765 -0.746841 2.21234 0
M  V30 7321 C 721.746 -1.23502 1.16967 0
M  V30 7322 O 722.931 -1.28718 1.45414 0
M  V30 7323 C 720.061 -1.97407 2.8574 0
M  V30 7324 C 719.015 -1.62153 3.96094 0
M  V30 7325 C 718.341 -2.92387 4.47676 0
M  V30 7326 C 719.641 -0.845353 5.15413 0
M  V30 7327 H 721.335 -0.208116 2.98676 0
M  V30 7328 H 718.881 -0.0986594 1.43662 0
M  V30 7329 H 720.834 -2.62531 3.2963 0
M  V30 7330 H 719.558 -2.53703 2.05676 0
M  V30 7331 H 718.217 -0.993964 3.52868 0
M  V30 7332 H 717.865 -3.46734 3.64396 0
M  V30 7333 H 717.565 -2.69551 5.22127 0
M  V30 7334 H 719.089 -3.5853 4.94255 0
M  V30 7335 H 720.503 -1.39929 5.55961 0
M  V30 7336 H 718.9 -0.715814 5.95815 0
M  V30 7337 H 719.97 0.157239 4.84645 0
M  V30 7338 N 721.313 -1.57302 -0.09688 0
M  V30 7339 C 722.243 -2.0497 -1.11846 0
M  V30 7340 C 723.224 -0.938278 -1.41882 0
M  V30 7341 O 724.409 -1.20943 -1.51942 0
M  V30 7342 C 721.539 -2.47264 -2.43881 0
M  V30 7343 C 720.493 -3.62053 -2.28257 0
M  V30 7344 C 719.819 -3.90318 -3.65453 0
M  V30 7345 C 721.119 -4.93005 -1.72461 0
M  V30 7346 H 722.813 -2.90567 -0.721888 0
M  V30 7347 H 720.359 -1.39786 -0.345803 0
M  V30 7348 H 722.312 -2.7922 -3.15617 0
M  V30 7349 H 721.036 -1.58664 -2.8547 0
M  V30 7350 H 719.695 -3.30341 -1.58967 0
M  V30 7351 H 719.343 -2.98889 -4.04567 0
M  V30 7352 H 719.043 -4.67597 -3.55846 0
M  V30 7353 H 720.567 -4.24747 -4.3866 0
M  V30 7354 H 721.981 -5.23354 -2.34036 0
M  V30 7355 H 720.378 -5.74436 -1.73618 0
M  V30 7356 H 721.448 -4.80053 -0.683898 0
M  V30 7357 N 722.791 0.367657 -1.53252 0
M  V30 7358 C 723.754 1.43308 -1.78873 0
M  V30 7359 C 724.754 1.46671 -0.659115 0
M  V30 7360 O 725.944 1.47468 -0.927306 0
M  V30 7361 C 723.076 2.82442 -1.90892 0
M  V30 7362 H 724.269 1.21864 -2.74024 0
M  V30 7363 H 721.822 0.600668 -1.44297 0
M  V30 7364 H 722.557 3.09202 -0.978 0
M  V30 7365 H 722.342 2.81399 -2.73051 0
M  V30 7366 H 723.832 3.59601 -2.12314 0
M  V30 7367 N 724.269 1.44576 0.627338 0
M  V30 7368 C 725.494 1.51271 1.41887 0
M  V30 7369 C 725.919 0.139814 1.8758 0
M  V30 7370 O 725.277 -0.871746 1.58966 0
M  V30 7371 C 725.325 2.48529 2.61277 0
M  V30 7372 O 724.429 1.98944 3.61241 0
M  V30 7373 H 723.77 0.510668 0.424399 0
M  V30 7374 H 726.3 1.89746 0.765356 0
M  V30 7375 H 726.31 2.66689 3.08773 0
M  V30 7376 H 724.985 3.48249 2.27366 0
M  V30 7377 H 723.562 1.90568 3.20528 0
M  V30 7378 N 725.747 -0.868086 1.31537 0
M  V30 7379 C 726.995 -1.61807 1.21091 0
M  V30 7380 C 727.316 -1.93631 -0.230623 0
M  V30 7381 O 726.586 -1.5846 -1.15183 0
M  V30 7382 H 725.166 -0.599854 0.445178 0
M  V30 7383 H 727.828 -1.03915 1.64887 0
M  V30 7384 H 726.924 -2.56088 1.78396 0
M  V30 7385 N 727.225 -1.14528 -1.08264 0
M  V30 7386 C 728.453 -0.937964 -1.84418 0
M  V30 7387 C 728.868 0.51357 -1.81681 0
M  V30 7388 O 728.225 1.35591 -1.22153 0
M  V30 7389 C 728.276 -1.43272 -3.31897 0
M  V30 7390 O 727.997 -2.82738 -3.34651 0
M  V30 7391 C 729.498 -1.26555 -4.24851 0
M  V30 7392 H 726.718 -0.333704 -0.582136 0
M  V30 7393 H 729.262 -1.52076 -1.36723 0
M  V30 7394 H 727.417 -0.892653 -3.76975 0
M  V30 7395 H 727.831 -3.04971 -4.26724 0
M  V30 7396 H 729.305 -1.66031 -5.26439 0
M  V30 7397 H 729.782 -0.208589 -4.38704 0
M  V30 7398 H 730.388 -1.79423 -3.856 0
M  V30 7399 N 728.703 1.26451 -0.940633 0
M  V30 7400 C 729.98 1.88947 -0.505811 0
M  V30 7401 C 730.36 1.85011 1.01657 0
M  V30 7402 O 729.708 1.30406 1.87634 0
M  V30 7403 C 729.918 3.32304 -1.06654 0
M  V30 7404 C 731.266 4.09153 -1.13486 0
M  V30 7405 O 732.29 3.41371 -1.01708 0
M  V30 7406 O 731.149 5.30369 -1.31797 0
M  V30 7407 H 728.243 0.810422 -0.164759 0
M  V30 7408 H 730.789 1.34625 -1.03316 0
M  V30 7409 H 729.561 3.29527 -2.11015 0
M  V30 7410 H 729.184 3.94164 -0.521603 0
M  V30 7411 N 730.181 0.707592 1.40822 0
M  V30 7412 C 731.429 0.243189 2.00632 0
M  V30 7413 C 731.75 -1.16512 1.56365 0
M  V30 7414 O 731.02 -1.78841 0.799553 0
M  V30 7415 H 729.6 0.0869203 0.741926 0
M  V30 7416 H 732.262 0.911438 1.72275 0
M  V30 7417 H 731.358 0.270014 3.1093 0
M  V30 7418 N 731.66 -1.50943 0.453197 0
M  V30 7419 C 732.906 -2.02512 -0.108082 0
M  V30 7420 C 733.239 -1.33574 -1.40967 0
M  V30 7421 O 732.514 -0.455671 -1.89087 0
M  V30 7422 C 732.797 -3.58759 -0.310453 0
M  V30 7423 C 732.65 -4.38293 1.0109 0
M  V30 7424 C 733.969 -4.26816 -1.07313 0
M  V30 7425 H 731.088 -0.73603 -0.0378064 0
M  V30 7426 H 733.73 -1.80433 0.595295 0
M  V30 7427 H 731.88 -3.77702 -0.909582 0
M  V30 7428 H 733.552 -4.30964 1.64523 0
M  V30 7429 H 731.795 -4.02745 1.61179 0
M  V30 7430 H 732.466 -5.45828 0.82315 0
M  V30 7431 H 734.942 -4.1224 -0.565473 0
M  V30 7432 H 733.818 -5.35989 -1.1835 0
M  V30 7433 H 734.079 -3.88757 -2.10525 0
M  V30 7434 N 733.138 -0.185124 -1.56509 0
M  V30 7435 C 734.386 0.455357 -1.96903 0
M  V30 7436 C 734.707 1.62839 -1.07277 0
M  V30 7437 O 733.977 1.95385 -0.141966 0
M  V30 7438 H 732.557 0.171218 -0.727113 0
M  V30 7439 H 735.219 -0.26953 -1.93027 0
M  V30 7440 H 734.315 0.80616 -3.01509 0
M  V30 7441 N 734.616 1.57351 0.0885366 0
M  V30 7442 C 735.844 1.90631 0.804196 0
M  V30 7443 C 736.259 0.779474 1.71958 0
M  V30 7444 O 735.616 -0.248179 1.80805 0
M  V30 7445 C 735.667 3.23568 1.61202 0
M  V30 7446 O 735.388 4.31917 0.733447 0
M  V30 7447 C 736.889 3.70753 2.43016 0
M  V30 7448 H 734.109 0.630501 0.229585 0
M  V30 7449 H 736.653 2.044 0.0638092 0
M  V30 7450 H 734.808 3.11377 2.30485 0
M  V30 7451 H 735.222 5.08297 1.29361 0
M  V30 7452 H 736.696 4.66447 2.9518 0
M  V30 7453 H 737.173 2.98922 3.2178 0
M  V30 7454 H 737.779 3.85834 1.7892 0
M  V30 7455 N 736.094 -0.359525 1.53444 0
M  V30 7456 C 737.041 -1.44073 1.8031 0
M  V30 7457 C 738.011 -1.52946 0.647811 0
M  V30 7458 O 739.196 -1.68739 0.890614 0
M  V30 7459 C 736.336 -2.80941 2.00416 0
M  V30 7460 C 735.449 -2.80986 3.28132 0
M  V30 7461 C 734.584 -4.09468 3.38393 0
M  V30 7462 C 733.623 -4.03679 4.60119 0
M  V30 7463 N 732.76 -5.23821 4.675 0
M  V30 7464 H 737.6 -1.20464 2.72566 0
M  V30 7465 H 735.137 -0.583859 1.35017 0
M  V30 7466 H 737.095 -3.60459 2.1006 0
M  V30 7467 H 735.725 -3.02936 1.11489 0
M  V30 7468 H 734.777 -1.93666 3.27411 0
M  V30 7469 H 736.089 -2.72583 4.17732 0
M  V30 7470 H 735.243 -4.97404 3.47382 0
M  V30 7471 H 733.982 -4.20632 2.4682 0
M  V30 7472 H 732.987 -3.14129 4.51224 0
M  V30 7473 H 734.212 -3.94112 5.5304 0
M  V30 7474 H 732.158 -5.35559 3.7883 0
M  V30 7475 H 732.075 -5.17611 5.51013 0
M  V30 7476 H 733.343 -6.13572 4.8078 0
M  V30 7477 N 737.572 -1.44907 -0.619662 0
M  V30 7478 C 738.502 -1.55488 -1.742 0
M  V30 7479 C 739.483 -0.407143 -1.65156 0
M  V30 7480 O 740.668 -0.628743 -1.8374 0
M  V30 7481 C 737.798 -1.5097 -3.1277 0
M  V30 7482 C 736.752 -2.64337 -3.36615 0
M  V30 7483 C 736.078 -2.44872 -4.75333 0
M  V30 7484 C 737.378 -4.06423 -3.28051 0
M  V30 7485 H 739.072 -2.49432 -1.65602 0
M  V30 7486 H 736.618 -1.20047 -0.795281 0
M  V30 7487 H 738.571 -1.56971 -3.91073 0
M  V30 7488 H 737.295 -0.535486 -3.2218 0
M  V30 7489 H 735.954 -2.57744 -2.60698 0
M  V30 7490 H 735.602 -1.45617 -4.81461 0
M  V30 7491 H 735.302 -3.20888 -4.92244 0
M  V30 7492 H 736.826 -2.52709 -5.55851 0
M  V30 7493 H 738.24 -4.14324 -3.96243 0
M  V30 7494 H 736.637 -4.82733 -3.56495 0
M  V30 7495 H 737.707 -4.29183 -2.25676 0
M  V30 7496 N 739.05 0.861098 -1.31996 0
M  V30 7497 C 739.997 1.96912 -1.20392 0
M  V30 7498 C 740.967 1.65869 -0.0875899 0
M  V30 7499 O 742.152 1.88992 -0.262011 0
M  V30 7500 C 739.292 3.32435 -0.926335 0
M  V30 7501 C 738.405 3.76018 -2.12684 0
M  V30 7502 C 737.54 5.00301 -1.78529 0
M  V30 7503 C 736.579 5.36357 -2.94937 0
M  V30 7504 N 735.716 6.51818 -2.60917 0
M  V30 7505 H 740.556 2.06169 -2.1517 0
M  V30 7506 H 738.093 1.00917 -1.07024 0
M  V30 7507 H 740.051 4.10478 -0.745917 0
M  V30 7508 H 738.681 3.22796 -0.0153578 0
M  V30 7509 H 737.733 2.93683 -2.41774 0
M  V30 7510 H 739.045 3.98664 -2.99781 0
M  V30 7511 H 738.199 5.86034 -1.57001 0
M  V30 7512 H 736.938 4.79578 -0.886356 0
M  V30 7513 H 735.943 4.49139 -3.17103 0
M  V30 7514 H 737.168 5.59041 -3.85552 0
M  V30 7515 H 735.114 6.32624 -1.73558 0
M  V30 7516 H 735.031 6.7445 -3.41544 0
M  V30 7517 H 736.299 7.4072 -2.42804 0
M  V30 7518 N 740.528 1.15101 1.07655 0
M  V30 7519 C 741.777 0.918528 1.79572 0
M  V30 7520 C 742.09 -0.555922 1.87534 0
M  V30 7521 O 743.296 -0.905893 2.55941 0
M  V30 7522 C 741.752 1.59394 3.22679 0
M  V30 7523 C 741.36 3.1052 3.22927 0
M  V30 7524 C 743.104 1.44289 3.99225 0
M  V30 7525 C 741.011 3.70862 4.60668 0
M  V30 7526 H 739.941 0.340006 0.672987 0
M  V30 7527 H 742.592 1.38079 1.20857 0
M  V30 7528 H 740.974 1.05936 3.81567 0
M  V30 7529 H 742.148 3.70708 2.737 0
M  V30 7530 H 740.463 3.25351 2.59876 0
M  V30 7531 H 743.06 1.86766 5.01022 0
M  V30 7532 H 743.403 0.389975 4.14469 0
M  V30 7533 H 743.936 1.94826 3.46825 0
M  V30 7534 H 740.675 4.7604 4.50628 0
M  V30 7535 H 740.195 3.15456 5.10145 0
M  V30 7536 H 741.874 3.71607 5.29639 0
M  V30 7537 N 742.006 -1.2595 0.947325 0
M  V30 7538 C 742.969 -2.24407 0.466285 0
M  V30 7539 C 743.969 -1.55054 -0.426005 0
M  V30 7540 O 745.159 -1.7275 -0.224319 0
M  V30 7541 C 742.291 -3.39326 -0.327201 0
M  V30 7542 H 743.484 -2.68477 1.33642 0
M  V30 7543 H 741.037 -1.38211 0.729887 0
M  V30 7544 H 741.772 -3.00667 -1.21532 0
M  V30 7545 H 741.557 -3.9085 0.312839 0
M  V30 7546 H 743.047 -4.12455 -0.653477 0
M  V30 7547 N 743.484 -0.715051 -1.40445 0
M  V30 7548 C 744.416 -0.0227516 -2.29189 0
M  V30 7549 C 745.429 0.724313 -1.458 0
M  V30 7550 O 746.618 0.571781 -1.69094 0
M  V30 7551 C 743.718 0.992038 -3.24055 0
M  V30 7552 C 742.891 0.310613 -4.36296 0
M  V30 7553 C 741.95 1.23071 -5.11605 0
M  V30 7554 O 740.976 0.71571 -5.64682 0
M  V30 7555 N 742.178 2.56188 -5.2091 0
M  V30 7556 H 744.943 -0.78473 -2.89244 0
M  V30 7557 H 742.504 -0.562637 -1.51809 0
M  V30 7558 H 744.496 1.60973 -3.71308 0
M  V30 7559 H 743.066 1.65538 -2.65171 0
M  V30 7560 H 742.286 -0.487269 -3.91177 0
M  V30 7561 H 743.574 -0.162415 -5.08541 0
M  V30 7562 H 742.972 3.00527 -4.7927 0
M  V30 7563 H 741.529 3.13103 -5.71673 0
M  V30 7564 N 744.962 1.50701 -0.461195 0
M  V30 7565 C 745.892 2.31182 0.328184 0
M  V30 7566 C 746.873 1.37644 0.999408 0
M  V30 7567 O 748.058 1.66565 0.99848 0
M  V30 7568 C 745.188 3.17113 1.41621 0
M  V30 7569 C 744.142 4.19124 0.867148 0
M  V30 7570 C 743.468 4.93728 2.05272 0
M  V30 7571 C 744.768 5.22174 -0.114808 0
M  V30 7572 H 746.462 2.97423 -0.343501 0
M  V30 7573 H 744.008 1.43033 -0.166641 0
M  V30 7574 H 745.961 3.72208 1.97584 0
M  V30 7575 H 744.685 2.48739 2.11652 0
M  V30 7576 H 743.344 3.65116 0.329557 0
M  V30 7577 H 742.992 4.21835 2.73978 0
M  V30 7578 H 742.692 5.62724 1.69161 0
M  V30 7579 H 744.216 5.51654 2.61744 0
M  V30 7580 H 745.63 5.72198 0.355316 0
M  V30 7581 H 744.027 5.98833 -0.389689 0
M  V30 7582 H 745.097 4.7353 -1.04391 0
M  V30 7583 N 746.441 0.193421 1.56409 0
M  V30 7584 C 747.681 -0.447977 1.9943 0
M  V30 7585 C 748.045 -1.58915 1.07751 0
M  V30 7586 O 749.246 -2.29462 1.40002 0
M  V30 7587 C 747.517 -0.89793 3.45936 0
M  V30 7588 S 749.076 -1.5374 4.10986 0
M  V30 7589 H 745.894 -0.143316 0.696406 0
M  V30 7590 H 748.496 0.296093 1.93245 0
M  V30 7591 H 747.2 -0.0572927 4.1036 0
M  V30 7592 H 746.731 -1.67551 3.55936 0
M  V30 7593 H 748.746 -2.82612 4.07854 0
M  V30 7594 N 747.919 -1.57396 -0.0801906 0
M  V30 7595 C 748.867 -2.04136 -1.11495 0
M  V30 7596 C 749.861 -0.945137 -1.40583 0
M  V30 7597 O 751.067 -1.13028 -1.40088 0
M  V30 7598 H 747.442 -0.65076 -0.37685 0
M  V30 7599 H 749.413 -2.90205 -0.694526 0
M  V30 7600 C 748.162 -2.49399 -2.42272 0
M  V30 7601 H 747.485 -3.33339 -2.20737 0
M  V30 7602 H 748.925 -2.85864 -3.13142 0
M  V30 7603 C 747.384 -1.37341 -3.07635 0
M  V30 7604 O 747.914 -0.710829 -3.95361 0
M  V30 7605 N 746.12 -1.12064 -2.68123 0
M  V30 7606 H 745.667 -1.66126 -1.96875 0
M  V30 7607 H 745.625 -0.372916 -3.12181 0
M  V30 7608 N 749.397 0.351382 -1.53633 0
M  V30 7609 C 750.344 1.43115 -1.81071 0
M  V30 7610 C 751.314 1.52601 -0.655913 0
M  V30 7611 O 752.499 1.68264 -0.89955 0
M  V30 7612 C 749.639 2.79874 -2.01903 0
M  V30 7613 C 748.752 2.79242 -3.29618 0
M  V30 7614 C 747.887 4.07667 -3.40559 0
M  V30 7615 C 746.926 4.01233 -4.62254 0
M  V30 7616 N 746.063 5.21334 -4.70271 0
M  V30 7617 H 750.903 1.19017 -2.73201 0
M  V30 7618 H 748.44 0.576691 -1.35324 0
M  V30 7619 H 750.398 3.5934 -2.11969 0
M  V30 7620 H 749.028 3.0234 -1.13094 0
M  V30 7621 H 748.08 1.91927 -3.28433 0
M  V30 7622 H 749.392 2.70363 -4.19172 0
M  V30 7623 H 748.546 4.95555 -3.50015 0
M  V30 7624 H 747.285 4.19317 -2.49047 0
M  V30 7625 H 746.29 3.11732 -4.52884 0
M  V30 7626 H 747.515 3.91173 -5.55122 0
M  V30 7627 H 745.461 5.33543 -3.81665 0
M  V30 7628 H 745.378 5.14681 -5.5375 0
M  V30 7629 H 746.646 6.11014 -4.84027 0
M  V30 7630 N 750.875 1.45233 0.611969 0
M  V30 7631 C 751.825 1.49997 1.71711 0
M  V30 7632 C 752.809 0.363689 1.56736 0
M  V30 7633 O 754.001 0.610261 1.66147 0
M  V30 7634 C 751.13 1.46537 3.10454 0
M  V30 7635 C 750.216 2.65351 3.30831 0
M  V30 7636 N 750.607 3.90485 3.21489 0
M  V30 7637 C 748.905 2.60955 3.61688 0
M  V30 7638 C 749.606 4.69758 3.43078 0
M  V30 7639 N 748.582 4.01141 3.66861 0
M  V30 7640 H 752.384 2.44574 1.62975 0
M  V30 7641 H 749.898 1.40464 0.815082 0
M  V30 7642 H 751.895 1.48035 3.89732 0
M  V30 7643 H 750.555 0.530139 3.20343 0
M  V30 7644 H 751.566 4.22171 2.99987 0
M  V30 7645 H 748.243 1.76319 3.78441 0
M  V30 7646 H 749.633 5.7877 3.41285 0
M  V30 7647 N 752.353 -0.854086 1.3245 0
M  V30 7648 C 753.63 -1.59188 1.1366 0
M  V30 7649 C 754.01 -2.08917 -0.302807 0
M  V30 7650 O 753.358 -1.8795 -1.29951 0
M  V30 7651 C 753.568 -2.73757 2.16467 0
M  V30 7652 C 754.916 -3.43323 2.49829 0
M  V30 7653 O 755.94 -2.83983 2.15017 0
M  V30 7654 O 754.799 -4.50409 3.09506 0
M  V30 7655 H 751.893 -0.701092 0.438633 0
M  V30 7656 H 754.439 -0.898165 1.43983 0
M  V30 7657 H 753.211 -2.3454 3.1322 0
M  V30 7658 H 752.834 -3.50804 1.87142 0
M  V30 7659 N 753.831 -1.1567 -1.07043 0
M  V30 7660 C 755.059 -0.957471 -1.83412 0
M  V30 7661 C 755.474 0.494271 -1.82215 0
M  V30 7662 O 754.831 1.34288 -1.23584 0
M  V30 7663 C 754.882 -1.46784 -3.30359 0
M  V30 7664 O 754.603 -2.86271 -3.31633 0
M  V30 7665 C 756.104 -1.31054 -4.23485 0
M  V30 7666 H 753.324 -0.33986 -0.578564 0
M  V30 7667 H 755.868 -1.53518 -1.35102 0
M  V30 7668 H 754.023 -0.932586 -3.76007 0
M  V30 7669 H 754.437 -3.0948 -4.23465 0
M  V30 7670 H 755.911 -1.71605 -5.24648 0
M  V30 7671 H 756.388 -0.255107 -4.38458 0
M  V30 7672 H 756.994 -1.83503 -3.83676 0
M  V30 7673 N 755.309 1.25446 -0.953992 0
M  V30 7674 C 756.558 1.92441 -0.604101 0
M  V30 7675 C 756.871 1.75543 0.862796 0
M  V30 7676 O 758.077 2.37106 1.32262 0
M  V30 7677 C 756.533 3.44854 -1.02974 0
M  V30 7678 C 756.141 3.70464 -2.51914 0
M  V30 7679 C 757.885 4.1778 -0.752352 0
M  V30 7680 C 755.792 5.1638 -2.88281 0
M  V30 7681 H 754.722 0.720508 -0.222227 0
M  V30 7682 H 757.373 1.42318 -1.15836 0
M  V30 7683 H 755.755 3.93935 -0.403904 0
M  V30 7684 H 756.929 3.32038 -3.19511 0
M  V30 7685 H 755.244 3.10797 -2.77117 0
M  V30 7686 H 757.841 5.25261 -1.00024 0
M  V30 7687 H 758.184 4.15135 0.311212 0
M  V30 7688 H 758.717 3.74605 -1.33851 0
M  V30 7689 H 755.456 5.24135 -3.93653 0
M  V30 7690 H 754.976 5.55855 -2.25357 0
M  V30 7691 H 756.655 5.84497 -2.77439 0
M  V30 7692 N 756.787 0.722489 1.40064 0
M  V30 7693 C 758.035 0.264455 2.00362 0
M  V30 7694 C 758.356 -1.14847 1.57592 0
M  V30 7695 O 757.626 -1.77982 0.818477 0
M  V30 7696 H 756.206 0.0947846 0.740962 0
M  V30 7697 H 758.868 0.929659 1.71299 0
M  V30 7698 H 757.964 0.302977 3.10626 0
M  V30 7699 N 758.265 -1.50454 0.469181 0
M  V30 7700 C 759.197 -2.26319 -0.362247 0
M  V30 7701 C 760.21 -1.31574 -0.958751 0
M  V30 7702 O 761.399 -1.57099 -0.847482 0
M  V30 7703 C 758.499 -3.02808 -1.52187 0
M  V30 7704 C 757.672 -4.24893 -1.03849 0
M  V30 7705 C 756.731 -4.83691 -2.07194 0
M  V30 7706 O 755.757 -5.44659 -1.65333 0
M  V30 7707 N 756.959 -4.70522 -3.39985 0
M  V30 7708 H 759.724 -2.98312 0.288124 0
M  V30 7709 H 757.285 -1.59099 0.299856 0
M  V30 7710 H 759.277 -3.39023 -2.21011 0
M  V30 7711 H 757.847 -2.33625 -2.07697 0
M  V30 7712 H 757.067 -3.93806 -0.176203 0
M  V30 7713 H 758.355 -5.04053 -0.693435 0
M  V30 7714 H 757.753 -4.2203 -3.76706 0
M  V30 7715 H 756.31 -5.11011 -4.04612 0
M  V30 7716 N 759.743 -0.201713 -1.56304 0
M  V30 7717 C 761.02 0.483273 -1.89536 0
M  V30 7718 C 761.4 1.79176 -1.11621 0
M  V30 7719 O 760.748 2.27445 -0.219339 0
M  V30 7720 C 760.958 0.695604 -3.41998 0
M  V30 7721 C 762.306 1.012 -4.12364 0
M  V30 7722 O 763.33 0.783094 -3.47485 0
M  V30 7723 O 762.189 1.44534 -5.27041 0
M  V30 7724 H 759.283 0.252801 -0.787414 0
M  V30 7725 H 761.829 -0.24242 -1.6796 0
M  V30 7726 H 760.601 -0.228165 -3.90634 0
M  V30 7727 H 760.224 1.47351 -3.69288 0
M  V30 7728 N 761.222 1.57436 0.0718424 0
M  V30 7729 C 762.152 2.06724 1.08571 0
M  V30 7730 C 763.133 0.960731 1.40371 0
M  V30 7731 O 764.318 1.23345 1.49999 0
M  V30 7732 C 761.448 2.51112 2.39916 0
M  V30 7733 C 760.402 3.65639 2.22469 0
M  V30 7734 C 759.728 3.96082 3.59198 0
M  V30 7735 C 761.028 4.95687 1.64596 0
M  V30 7736 H 762.722 2.91679 0.675569 0
M  V30 7737 H 760.268 1.40319 0.32352 0
M  V30 7738 H 762.221 2.84206 3.11135 0
M  V30 7739 H 760.945 1.63186 2.8291 0
M  V30 7740 H 759.604 3.32828 1.53691 0
M  V30 7741 H 759.252 3.05287 3.99761 0
M  V30 7742 H 758.952 4.73199 3.48362 0
M  V30 7743 H 760.476 4.31672 4.31847 0
M  V30 7744 H 761.89 5.27011 2.25681 0
M  V30 7745 H 760.287 5.77126 1.64457 0
M  V30 7746 H 761.357 4.8108 0.60744 0
M  V30 7747 N 762.7 -0.34323 1.53817 0
M  V30 7748 C 763.946 -1.08504 1.71332 0
M  V30 7749 C 764.279 -1.88294 0.475285 0
M  V30 7750 O 763.554 -1.87205 -0.527688 0
M  V30 7751 C 763.837 -2.02597 2.97702 0
M  V30 7752 C 763.69 -1.26268 4.31713 0
M  V30 7753 C 765.009 -3.0241 3.19744 0
M  V30 7754 H 762.128 -0.393072 0.623429 0
M  V30 7755 H 764.77 -0.363579 1.86489 0
M  V30 7756 H 762.92 -2.64118 2.8491 0
M  V30 7757 H 764.592 -0.673594 4.56356 0
M  V30 7758 H 762.835 -0.564696 4.30109 0
M  V30 7759 H 763.506 -1.95253 5.16314 0
M  V30 7760 H 765.982 -2.51004 3.31868 0
M  V30 7761 H 764.858 -3.65449 4.09558 0
M  V30 7762 H 765.119 -3.73806 2.36054 0
M  V30 7763 N 764.178 -1.45556 -0.604258 0
M  V30 7764 C 765.141 -1.54091 -1.69672 0
M  V30 7765 C 766.141 -0.420076 -1.55216 0
M  V30 7766 O 767.331 -0.683671 -1.60224 0
M  V30 7767 C 764.463 -1.44063 -3.08964 0
M  V30 7768 H 765.656 -2.51431 -1.6347 0
M  V30 7769 H 763.209 -1.33046 -0.820273 0
M  V30 7770 H 763.944 -0.479201 -3.2074 0
M  V30 7771 H 763.729 -2.25362 -3.20865 0
M  V30 7772 H 765.219 -1.53075 -3.88533 0
M  V30 7773 N 765.656 0.84705 -1.32902 0
M  V30 7774 C 766.589 1.96038 -1.1681 0
M  V30 7775 C 767.567 1.62468 -0.0656144 0
M  V30 7776 O 768.751 1.87136 -0.226339 0
M  V30 7777 C 765.878 3.29362 -0.789839 0
M  V30 7778 C 764.924 3.81908 -1.89865 0
M  V30 7779 S 765.757 4.04576 -3.50826 0
M  V30 7780 C 766.913 5.40863 -3.14989 0
M  V30 7781 H 767.146 2.09387 -2.11055 0
M  V30 7782 H 764.679 0.999896 -1.1765 0
M  V30 7783 H 766.637 4.06405 -0.578369 0
M  V30 7784 H 765.298 3.13815 0.133878 0
M  V30 7785 H 764.491 4.78357 -1.58716 0
M  V30 7786 H 764.093 3.11733 -2.06636 0
M  V30 7787 H 766.385 6.23393 -2.65306 0
M  V30 7788 H 767.328 5.7698 -4.10488 0
M  V30 7789 H 767.736 5.05228 -2.51804 0
M  V30 7790 N 767.134 1.16236 1.06428 0
M  V30 7791 C 768.374 0.95369 1.80787 0
M  V30 7792 C 768.738 -0.509495 1.85117 0
M  V30 7793 O 769.939 -0.836822 2.55442 0
M  V30 7794 C 768.21 1.56235 3.21443 0
M  V30 7795 S 769.769 1.49812 4.12434 0
M  V30 7796 H 766.587 0.343004 0.622792 0
M  V30 7797 H 769.189 1.47957 1.27785 0
M  V30 7798 H 767.893 2.62 3.15886 0
M  V30 7799 H 767.424 1.03574 3.79521 0
M  V30 7800 H 769.439 0.49745 4.937 0
M  V30 7801 N 768.612 -1.24939 0.960631 0
M  V30 7802 C 769.858 -1.93104 0.61958 0
M  V30 7803 C 770.191 -1.74991 -0.84212 0
M  V30 7804 O 769.466 -1.09867 -1.60498 0
M  V30 7805 C 769.749 -3.46326 0.986422 0
M  V30 7806 C 769.602 -3.73638 2.50429 0
M  V30 7807 C 770.921 -4.37067 0.515827 0
M  V30 7808 H 768.04 -0.701311 0.226566 0
M  V30 7809 H 770.682 -1.47442 1.19836 0
M  V30 7810 H 768.832 -3.85348 0.493907 0
M  V30 7811 H 770.504 -3.44217 3.07103 0
M  V30 7812 H 768.747 -3.19035 2.93937 0
M  V30 7813 H 769.418 -4.80815 2.71147 0
M  V30 7814 H 771.894 -4.05381 0.938389 0
M  V30 7815 H 770.77 -5.43022 0.80114 0
M  V30 7816 H 771.031 -4.38224 -0.584171 0
M  V30 7817 N 770.09 -0.729906 -1.39679 0
M  V30 7818 C 771.038 -0.0756589 -2.32477 0
M  V30 7819 C 772.032 0.731438 -1.52795 0
M  V30 7820 O 773.238 0.633195 -1.68495 0
M  V30 7821 H 769.613 -0.00566492 -0.751979 0
M  V30 7822 H 771.584 -0.874797 -2.85289 0
M  V30 7823 C 770.333 0.821313 -3.37861 0
M  V30 7824 H 769.656 0.209666 -3.9925 0
M  V30 7825 H 771.096 1.24679 -4.05254 0
M  V30 7826 C 769.555 1.9533 -2.74495 0
M  V30 7827 O 770.085 3.04548 -2.61942 0
M  V30 7828 N 768.291 1.74119 -2.3266 0
M  V30 7829 H 767.838 0.852908 -2.4307 0
M  V30 7830 H 767.796 2.50036 -1.90603 0
M  V30 7831 N 771.568 1.50203 -0.477153 0
M  V30 7832 C 772.845 1.95115 0.137609 0
M  V30 7833 C 773.225 1.41778 1.56404 0
M  V30 7834 O 772.573 0.621333 2.1989 0
M  V30 7835 C 772.783 3.4892 0.0747168 0
M  V30 7836 C 774.131 4.238 0.260585 0
M  V30 7837 O 775.155 3.5588 0.151021 0
M  V30 7838 O 774.014 5.44366 0.482534 0
M  V30 7839 H 771.108 0.81987 0.108364 0
M  V30 7840 H 773.654 1.60946 -0.537989 0
M  V30 7841 H 772.426 3.80308 -0.920966 0
M  V30 7842 H 772.049 3.89642 0.791509 0
M  V30 7843 N 773.046 0.209999 1.56195 0
M  V30 7844 C 774.295 -0.425106 1.97169 0
M  V30 7845 C 774.608 -1.61718 1.10031 0
M  V30 7846 O 775.814 -2.32105 1.40853 0
M  V30 7847 C 774.27 -0.80771 3.50719 0
M  V30 7848 C 773.878 0.360902 4.46544 0
M  V30 7849 C 775.622 -1.40906 4.00432 0
M  V30 7850 C 773.529 -0.0434919 5.91384 0
M  V30 7851 H 772.459 -0.162598 0.736259 0
M  V30 7852 H 775.11 0.304382 1.80958 0
M  V30 7853 H 773.492 -1.59429 3.62489 0
M  V30 7854 H 774.666 1.13846 4.46515 0
M  V30 7855 H 772.981 0.874729 4.07109 0
M  V30 7856 H 775.578 -1.72433 5.06133 0
M  V30 7857 H 775.921 -2.32081 3.45607 0
M  V30 7858 H 776.454 -0.686154 3.91838 0
M  V30 7859 H 773.193 0.834448 6.50167 0
M  V30 7860 H 772.713 -0.785598 5.94633 0
M  V30 7861 H 774.392 -0.474176 6.4526 0
M  V30 7862 N 774.524 -1.57472 -0.0634922 0
M  V30 7863 C 775.454 -2.07297 -1.07473 0
M  V30 7864 C 776.435 -0.968162 -1.39859 0
M  V30 7865 O 777.62 -1.24139 -1.49343 0
M  V30 7866 C 774.75 -2.52381 -2.38581 0
M  V30 7867 C 773.704 -3.66813 -2.20526 0
M  V30 7868 C 773.03 -3.97982 -3.57092 0
M  V30 7869 C 774.33 -4.96553 -1.61965 0
M  V30 7870 H 776.024 -2.92033 -0.660092 0
M  V30 7871 H 773.57 -1.40488 -0.316074 0
M  V30 7872 H 775.523 -2.85852 -3.09624 0
M  V30 7873 H 774.247 -1.64684 -2.8204 0
M  V30 7874 H 772.906 -3.33639 -1.51924 0
M  V30 7875 H 772.554 -3.07403 -3.98136 0
M  V30 7876 H 772.254 -4.7504 -3.45848 0
M  V30 7877 H 773.778 -4.33956 -4.29552 0
M  V30 7878 H 775.192 -5.28201 -2.22883 0
M  V30 7879 H 773.589 -5.7799 -1.61394 0
M  V30 7880 H 774.659 -4.81396 -0.581918 0
M  V30 7881 N 776.003 0.335068 -1.53997 0
M  V30 7882 C 776.966 1.39481 -1.81872 0
M  V30 7883 C 777.966 1.4524 -0.690078 0
M  V30 7884 O 779.156 1.45467 -0.958377 0
M  V30 7885 C 776.288 2.78329 -1.9684 0
M  V30 7886 H 777.481 1.16024 -2.76547 0
M  V30 7887 H 775.034 0.569926 -1.45539 0
M  V30 7888 H 775.769 3.07058 -1.04337 0
M  V30 7889 H 775.554 2.75544 -2.78958 0
M  V30 7890 H 777.044 3.55016 -2.19894 0
M  V30 7891 N 777.481 1.45874 0.596531 0
M  V30 7892 C 778.413 1.51408 1.7207 0
M  V30 7893 C 779.426 0.403738 1.57714 0
M  V30 7894 O 780.615 0.671384 1.65393 0
M  V30 7895 C 777.715 1.3652 3.10186 0
M  V30 7896 C 776.888 2.61428 3.50677 0
M  V30 7897 C 775.947 2.40937 4.67799 0
M  V30 7898 O 774.973 3.14602 4.74357 0
M  V30 7899 N 776.175 1.4621 5.61785 0
M  V30 7900 H 778.94 2.48333 1.67782 0
M  V30 7901 H 776.501 1.41755 0.782129 0
M  V30 7902 H 778.493 1.20606 3.86311 0
M  V30 7903 H 777.063 0.478302 3.08919 0
M  V30 7904 H 776.283 2.92381 2.644 0
M  V30 7905 H 777.571 3.44432 3.74491 0
M  V30 7906 H 776.969 0.854382 5.59211 0
M  V30 7907 H 775.526 1.36264 6.37397 0
M  V30 7908 N 778.959 -0.83999 1.33349 0
M  V30 7909 C 780.207 -1.59202 1.24496 0
M  V30 7910 C 780.528 -1.94077 -0.189499 0
M  V30 7911 O 779.798 -1.60868 -1.11796 0
M  V30 7912 H 778.378 -0.590276 0.457802 0
M  V30 7913 H 781.04 -1.00394 1.67054 0
M  V30 7914 H 780.136 -2.52247 1.83788 0
M  V30 7915 N 780.437 -1.16799 -1.0581 0
M  V30 7916 C 781.4 -0.881396 -2.11575 0
M  V30 7917 C 782.4 0.12574 -1.60308 0
M  V30 7918 O 783.59 -0.105716 -1.73879 0
M  V30 7919 C 780.722 -0.319037 -3.39404 0
M  V30 7920 H 781.915 -1.81907 -2.38432 0
M  V30 7921 H 779.468 -0.977597 -1.21954 0
M  V30 7922 H 780.203 0.626082 -3.18199 0
M  V30 7923 H 779.988 -1.04481 -3.77923 0
M  V30 7924 H 781.478 -0.13663 -4.17376 0
M  V30 7925 N 781.915 1.24427 -0.967243 0
M  V30 7926 C 782.825 2.29109 -0.504592 0
M  V30 7927 C 783.841 1.68495 0.434224 0
M  V30 7928 O 785.017 1.99041 0.307379 0
M  V30 7929 C 782.082 3.46133 0.198273 0
M  V30 7930 C 781.143 4.22149 -0.780313 0
M  V30 7931 C 780.376 5.33585 -0.110896 0
M  V30 7932 O 780.599 5.59676 1.10088 0
M  V30 7933 O 779.533 5.96522 -0.802823 0
M  V30 7934 H 783.359 2.708 -1.37482 0
M  V30 7935 H 780.944 1.30111 -0.73426 0
M  V30 7936 H 782.826 4.17205 0.593124 0
M  V30 7937 H 781.501 3.0642 1.04347 0
M  V30 7938 H 780.408 3.53454 -1.22561 0
M  V30 7939 H 781.741 4.65677 -1.59392 0
M  V30 7940 N 783.393 0.737304 1.3929 0
M  V30 7941 C 784.804 0.355966 1.83275 0
M  V30 7942 C 785.155 -1.11295 1.6158 0
M  V30 7943 O 784.28 -1.85871 1.10819 0
M  V30 7944 C 784.875 0.63931 3.32713 0
M  V30 7945 C 783.434 0.31144 3.75109 0
M  V30 7946 C 782.581 0.900765 2.62262 0
M  V30 7947 H 785.532 0.934763 1.28249 0
M  V30 7948 H 785.553 -0.0881293 3.80398 0
M  V30 7949 H 785.065 1.70847 3.48472 0
M  V30 7950 H 783.166 -0.751791 3.64937 0
M  V30 7951 H 783.279 0.795611 4.72448 0
M  V30 7952 H 781.643 0.327239 2.52589 0
M  V30 7953 H 782.426 1.97463 2.80826 0
M  V30 7954 N 784.871 -1.49948 0.485112 0
M  V30 7955 C 785.801 -2.31675 -0.291364 0
M  V30 7956 C 786.782 -1.39216 -0.977383 0
M  V30 7957 O 787.967 -1.68133 -0.971855 0
M  V30 7958 C 785.097 -3.19326 -1.36558 0
M  V30 7959 C 784.051 -4.2045 -0.800359 0
M  V30 7960 C 783.377 -4.96931 -1.97391 0
M  V30 7961 C 784.677 -5.21925 0.197867 0
M  V30 7962 H 786.371 -2.96839 0.390775 0
M  V30 7963 H 783.917 -1.42749 0.189375 0
M  V30 7964 H 785.87 -3.75304 -1.91638 0
M  V30 7965 H 784.594 -2.52074 -2.07668 0
M  V30 7966 H 783.253 -3.65594 -0.271428 0
M  V30 7967 H 782.901 -4.26141 -2.67232 0
M  V30 7968 H 782.601 -5.65344 -1.60187 0
M  V30 7969 H 784.125 -5.55749 -2.52935 0
M  V30 7970 H 785.539 -5.72691 -0.264239 0
M  V30 7971 H 783.936 -5.98138 0.484908 0
M  V30 7972 H 785.006 -4.71809 1.11912 0
M  V30 7973 N 786.349 -0.21828 -1.56081 0
M  V30 7974 C 787.596 0.414307 -1.98216 0
M  V30 7975 C 787.924 1.60005 -1.10584 0
M  V30 7976 O 787.179 1.95124 -0.150043 0
M  V30 7977 C 787.478 0.894782 -3.46018 0
M  V30 7978 C 787.144 -0.180083 -4.5054 0
M  V30 7979 C 785.806 -0.475367 -4.78846 0
M  V30 7980 C 788.158 -0.907191 -5.13244 0
M  V30 7981 C 785.486 -1.50233 -5.67139 0
M  V30 7982 C 787.838 -1.92347 -6.02649 0
M  V30 7983 C 786.502 -2.22571 -6.293 0
M  V30 7984 H 785.772 0.151606 -0.725325 0
M  V30 7985 H 788.419 -0.320113 -1.88806 0
M  V30 7986 H 786.724 1.7079 -3.52616 0
M  V30 7987 H 788.421 1.39403 -3.75989 0
M  V30 7988 H 785.011 0.06022 -4.28558 0
M  V30 7989 H 789.195 -0.692303 -4.91448 0
M  V30 7990 H 784.451 -1.74215 -5.86054 0
M  V30 7991 H 788.625 -2.49197 -6.50288 0
M  V30 7992 H 786.252 -3.0229 -6.97513 0
M  V30 7993 N 787.827 1.57504 0.0551401 0
M  V30 7994 C 789.074 1.88055 0.751104 0
M  V30 7995 C 789.402 0.812231 1.76729 0
M  V30 7996 O 788.657 -0.189918 1.94776 0
M  V30 7997 C 788.956 3.25311 1.48013 0
M  V30 7998 C 788.622 4.46858 0.602375 0
M  V30 7999 C 787.284 4.79847 0.360536 0
M  V30 8000 C 789.636 5.212 -0.00524047 0
M  V30 8001 C 786.964 5.84582 -0.498127 0
M  V30 8002 C 789.316 6.26844 -0.851453 0
M  V30 8003 C 787.98 6.58324 -1.103 0
M  V30 8004 H 787.25 0.688142 0.274848 0
M  V30 8005 H 789.897 1.91497 0.0114795 0
M  V30 8006 H 788.202 3.17737 2.29239 0
M  V30 8007 H 789.899 3.46189 2.02371 0
M  V30 8008 H 786.489 4.21049 0.801007 0
M  V30 8009 H 790.673 4.96013 0.168682 0
M  V30 8010 H 785.929 6.07361 -0.701594 0
M  V30 8011 H 790.103 6.83603 -1.32893 0
M  V30 8012 H 787.73 7.39304 -1.77011 0
M  V30 8013 N 789.305 -0.326896 1.54172 0
M  V30 8014 C 790.235 -1.40741 1.86317 0
M  V30 8015 C 791.216 -1.54125 0.719684 0
M  V30 8016 O 792.401 -1.6806 0.973117 0
M  V30 8017 C 789.531 -2.77557 2.08757 0
M  V30 8018 C 788.485 -2.78965 3.24596 0
M  V30 8019 C 787.811 -4.18824 3.32401 0
M  V30 8020 C 789.111 -2.4301 4.62324 0
M  V30 8021 H 790.805 -1.14088 2.76811 0
M  V30 8022 H 788.351 -0.547389 1.3319 0
M  V30 8023 H 790.304 -3.53209 2.29829 0
M  V30 8024 H 789.028 -3.0568 1.15009 0
M  V30 8025 H 787.687 -2.05767 3.03406 0
M  V30 8026 H 787.335 -4.44083 2.36218 0
M  V30 8027 H 787.035 -4.20673 4.10253 0
M  V30 8028 H 788.559 -4.96294 3.55703 0
M  V30 8029 H 789.973 -3.08375 4.83299 0
M  V30 8030 H 788.37 -2.56116 5.42701 0
M  V30 8031 H 789.44 -1.38165 4.64799 0
M  V30 8032 N 790.784 -1.46188 -0.588786 0
M  V30 8033 C 792.061 -1.41659 -1.34878 0
M  V30 8034 C 792.441 -0.0968913 -2.10878 0
M  V30 8035 O 791.789 0.921468 -2.09096 0
M  V30 8036 C 791.999 -2.6424 -2.27988 0
M  V30 8037 C 793.347 -3.1013 -2.90008 0
M  V30 8038 O 794.371 -2.64745 -2.38303 0
M  V30 8039 O 793.23 -3.88944 -3.83908 0
M  V30 8040 H 790.324 -0.563058 -0.605718 0
M  V30 8041 H 792.87 -1.58346 -0.610309 0
M  V30 8042 H 791.642 -3.51853 -1.71217 0
M  V30 8043 H 791.265 -2.49982 -3.09184 0
M  V30 8044 N 792.262 0.832906 -1.33792 0
M  V30 8045 C 793.492 1.61813 -1.28453 0
M  V30 8046 C 793.9 1.88639 0.145595 0
M  V30 8047 O 793.243 1.47122 1.10004 0
M  V30 8048 C 793.305 2.98929 -1.99704 0
M  V30 8049 C 792.969 2.95045 -3.48995 0
M  V30 8050 C 793.966 2.70337 -4.44088 0
M  V30 8051 C 791.651 3.14993 -3.91261 0
M  V30 8052 C 793.645 2.65612 -5.79421 0
M  V30 8053 C 791.332 3.09893 -5.26697 0
M  V30 8054 C 792.33 2.85235 -6.20588 0
M  V30 8055 O 792.018 2.8005 -7.53543 0
M  V30 8056 H 791.75 0.510013 -0.443693 0
M  V30 8057 H 794.304 1.04514 -1.76822 0
M  V30 8058 H 792.534 3.58106 -1.45935 0
M  V30 8059 H 794.223 3.59849 -1.87786 0
M  V30 8060 H 794.989 2.54671 -4.12756 0
M  V30 8061 H 790.868 3.33204 -3.18584 0
M  V30 8062 H 794.412 2.46285 -6.52679 0
M  V30 8063 H 790.309 3.2511 -5.5765 0
M  V30 8064 H 791.077 2.95849 -7.63162 0
M  V30 8065 N 793.74 1.17359 1.05189 0
M  V30 8066 C 794.987 0.961987 1.78191 0
M  V30 8067 C 795.315 -0.509363 1.87712 0
M  V30 8068 O 794.57 -1.39425 1.37329 0
M  V30 8069 C 794.869 1.54821 3.22126 0
M  V30 8070 C 794.535 3.04378 3.32663 0
M  V30 8071 C 793.197 3.45201 3.35246 0
M  V30 8072 C 795.549 4.00387 3.33677 0
M  V30 8073 C 792.877 4.80629 3.36471 0
M  V30 8074 C 795.229 5.35715 3.36441 0
M  V30 8075 C 793.893 5.76002 3.37311 0
M  V30 8076 H 793.163 0.352016 0.652047 0
M  V30 8077 H 795.81 1.46249 1.23627 0
M  V30 8078 H 794.115 0.969432 3.79617 0
M  V30 8079 H 795.812 1.36004 3.77232 0
M  V30 8080 H 792.402 2.71836 3.31366 0
M  V30 8081 H 796.586 3.69906 3.30882 0
M  V30 8082 H 791.842 5.11155 3.35455 0
M  V30 8083 H 796.016 6.09886 3.36173 0
M  V30 8084 H 793.643 6.80919 3.38013 0
M  V30 8085 N 795.218 -1.23913 0.973828 0
M  V30 8086 C 796.443 -1.96735 0.656511 0
M  V30 8087 C 796.868 -1.71682 -0.768571 0
M  V30 8088 O 796.226 -0.984267 -1.52256 0
M  V30 8089 C 796.274 -3.48004 0.944735 0
M  V30 8090 O 795.378 -4.12387 0.0333357 0
M  V30 8091 H 794.719 -0.616119 0.247575 0
M  V30 8092 H 797.249 -1.57525 1.30564 0
M  V30 8093 H 797.259 -3.98424 0.87876 0
M  V30 8094 H 795.934 -3.65567 1.98328 0
M  V30 8095 H 794.511 -3.72585 0.153157 0
M  V30 8096 N 796.696 -0.74468 -1.38897 0
M  V30 8097 C 797.936 -0.301691 -2.02161 0
M  V30 8098 C 798.3 1.09338 -1.57826 0
M  V30 8099 O 799.501 1.63499 -2.13358 0
M  V30 8100 C 797.772 -0.410601 -3.55034 0
M  V30 8101 S 799.331 -0.0488802 -4.38773 0
M  V30 8102 H 796.149 -0.117583 -0.70121 0
M  V30 8103 H 798.751 -0.973334 -1.69548 0
M  V30 8104 H 797.455 -1.42705 -3.8479 0
M  V30 8105 H 796.986 0.278531 -3.92413 0
M  V30 8106 H 799.001 1.16434 -4.82346 0
M  V30 8107 N 798.174 1.49689 -0.493057 0
M  V30 8108 C 799.422 2.02027 0.0541642 0
M  V30 8109 C 799.743 1.37554 1.38217 0
M  V30 8110 O 799.013 0.528174 1.88646 0
M  V30 8111 H 797.593 0.746646 0.0230069 0
M  V30 8112 H 800.255 1.83795 -0.648489 0
M  V30 8113 H 799.351 3.11523 0.189652 0
M  V30 8114 N 799.652 0.226554 1.55963 0
M  V30 8115 C 800.599 -0.681504 2.20509 0
M  V30 8116 C 801.569 -1.1866 1.16229 0
M  V30 8117 O 802.754 -1.24478 1.44602 0
M  V30 8118 C 799.894 -1.88183 2.89277 0
M  V30 8119 C 799.007 -1.41517 4.08163 0
M  V30 8120 C 798.142 -2.57346 4.647 0
M  V30 8121 C 797.181 -2.07441 5.75877 0
M  V30 8122 N 796.318 -3.16561 6.26685 0
M  V30 8123 H 801.158 -0.124372 2.9774 0
M  V30 8124 H 798.695 -0.0496333 1.47016 0
M  V30 8125 H 800.653 -2.58666 3.27335 0
M  V30 8126 H 799.283 -2.41177 2.14555 0
M  V30 8127 H 798.335 -0.605099 3.75557 0
M  V30 8128 H 799.647 -1.00928 4.88482 0
M  V30 8129 H 798.801 -3.35903 5.05227 0
M  V30 8130 H 797.54 -3.01227 3.83554 0
M  V30 8131 H 796.545 -1.27347 5.34848 0
M  V30 8132 H 797.77 -1.64554 6.58862 0
M  V30 8133 H 795.716 -3.59914 5.48451 0
M  V30 8134 H 795.633 -2.80239 7.02141 0
M  V30 8135 H 796.901 -3.95238 6.71868 0
M  V30 8136 N 801.13 -1.57531 -0.0467866 0
M  V30 8137 C 802.06 -2.08425 -1.05268 0
M  V30 8138 C 803.041 -0.982941 -1.38825 0
M  V30 8139 O 804.226 -1.25716 -1.48018 0
M  V30 8140 C 801.356 -2.54897 -2.35891 0
M  V30 8141 C 800.31 -3.69132 -2.16623 0
M  V30 8142 C 799.636 -4.01747 -3.52851 0
M  V30 8143 C 800.936 -4.98243 -1.56689 0
M  V30 8144 H 802.63 -2.92716 -0.62908 0
M  V30 8145 H 800.176 -1.40816 -0.301156 0
M  V30 8146 H 802.129 -2.8912 -3.06574 0
M  V30 8147 H 800.853 -1.67666 -2.80278 0
M  V30 8148 H 799.512 -3.35231 -1.48377 0
M  V30 8149 H 799.16 -3.11608 -3.94853 0
M  V30 8150 H 798.86 -4.78681 -3.4079 0
M  V30 8151 H 800.384 -4.38487 -4.24925 0
M  V30 8152 H 801.798 -5.30535 -2.17268 0
M  V30 8153 H 800.195 -5.79669 -1.55255 0
M  V30 8154 H 801.265 -4.81986 -0.530827 0
M  V30 8155 N 802.608 0.318715 -1.54344 0
M  V30 8156 C 803.885 1.07461 -1.63437 0
M  V30 8157 C 804.265 2.05771 -0.47131 0
M  V30 8158 O 803.613 2.22175 0.53391 0
M  V30 8159 C 803.823 1.77224 -3.00654 0
M  V30 8160 C 805.171 2.30069 -3.56866 0
M  V30 8161 O 806.195 1.87284 -3.0299 0
M  V30 8162 O 805.054 3.08412 -4.51159 0
M  V30 8163 H 802.148 0.495627 -0.66203 0
M  V30 8164 H 804.694 0.318218 -1.6669 0
M  V30 8165 H 803.466 1.05742 -3.76742 0
M  V30 8166 H 803.089 2.59662 -3.01101 0
M  V30 8167 N 804.086 1.46499 0.581025 0
M  V30 8168 C 805.016 1.60052 1.70017 0
M  V30 8169 C 805.997 0.450788 1.64018 0
M  V30 8170 O 807.182 0.677237 1.82009 0
M  V30 8171 C 804.312 1.5921 3.08658 0
M  V30 8172 C 803.266 2.73169 3.29488 0
M  V30 8173 C 802.592 2.57389 4.68674 0
M  V30 8174 C 803.892 4.14978 3.1716 0
M  V30 8175 H 805.586 2.53735 1.5893 0
M  V30 8176 H 803.132 1.22113 0.763173 0
M  V30 8177 H 805.085 1.67285 3.86773 0
M  V30 8178 H 803.809 0.620718 3.20647 0
M  V30 8179 H 802.468 2.64566 2.53773 0
M  V30 8180 H 802.116 1.58331 4.77431 0
M  V30 8181 H 801.816 3.33826 4.83564 0
M  V30 8182 H 803.34 2.67358 5.48956 0
M  V30 8183 H 804.754 4.24684 3.85119 0
M  V30 8184 H 803.151 4.92016 3.4357 0
M  V30 8185 H 804.221 4.35016 2.14218 0
M  V30 8186 N 805.565 -0.825799 1.34232 0
M  V30 8187 C 806.79 -1.61883 1.29648 0
M  V30 8188 C 807.215 -1.87669 -0.127295 0
M  V30 8189 O 806.573 -1.45016 -1.08813 0
M  V30 8190 C 806.621 -2.93846 2.09014 0
M  V30 8191 O 805.725 -3.85778 1.4577 0
M  V30 8192 H 805.066 -0.492454 0.445405 0
M  V30 8193 H 807.596 -1.02641 1.76992 0
M  V30 8194 H 807.606 -3.43435 2.20264 0
M  V30 8195 H 806.281 -2.74401 3.12533 0
M  V30 8196 H 804.858 -3.4429 1.43245 0
M  V30 8197 N 807.043 -1.17915 -1.04565 0
M  V30 8198 C 808.289 -0.972863 -1.77942 0
M  V30 8199 C 808.622 0.496753 -1.87739 0
M  V30 8200 O 807.897 1.3688 -1.38181 0
M  V30 8201 C 808.18 -1.62227 -3.21488 0
M  V30 8202 C 808.033 -3.16441 -3.19664 0
M  V30 8203 C 809.352 -1.33137 -4.19479 0
M  V30 8204 H 806.471 -0.354843 -0.645953 0
M  V30 8205 H 809.113 -1.45508 -1.22178 0
M  V30 8206 H 807.263 -1.21224 -3.69103 0
M  V30 8207 H 808.935 -3.66544 -2.80077 0
M  V30 8208 H 807.178 -3.48863 -2.57832 0
M  V30 8209 H 807.849 -3.57012 -4.21006 0
M  V30 8210 H 810.325 -1.68654 -3.80388 0
M  V30 8211 H 809.201 -1.81151 -5.18146 0
M  V30 8212 H 809.462 -0.253319 -4.41374 0
M  V30 8213 N 808.521 1.23394 -0.980386 0
M  V30 8214 C 809.749 1.95844 -0.667286 0
M  V30 8215 C 810.164 1.72574 0.765735 0
M  V30 8216 O 809.521 1.01715 1.51526 0
M  V30 8217 C 809.572 3.48844 -0.948151 0
M  V30 8218 O 809.293 3.71325 -2.32485 0
M  V30 8219 C 810.794 4.38494 -0.651002 0
M  V30 8220 H 808.014 0.623535 -0.247882 0
M  V30 8221 H 810.558 1.56885 -1.31176 0
M  V30 8222 H 808.713 3.85819 -0.349681 0
M  V30 8223 H 809.127 4.65619 -2.41452 0
M  V30 8224 H 810.601 5.44648 -0.897887 0
M  V30 8225 H 811.078 4.37236 0.414922 0
M  V30 8226 H 811.684 4.07127 -1.22995 0
M  V30 8227 N 809.999 0.752036 1.385 0
M  V30 8228 C 810.909 0.125318 2.34265 0
M  V30 8229 C 811.925 -0.702437 1.59191 0
M  V30 8230 O 813.101 -0.626951 1.91393 0
M  V30 8231 C 810.166 -0.758486 3.38301 0
M  V30 8232 C 809.227 0.0834636 4.29219 0
M  V30 8233 C 808.46 -0.758252 5.28286 0
M  V30 8234 O 808.683 -1.99632 5.34325 0
M  V30 8235 O 807.617 -0.177878 6.01637 0
M  V30 8236 H 811.443 0.91617 2.89551 0
M  V30 8237 H 809.028 0.512911 1.4032 0
M  V30 8238 H 810.91 -1.26365 4.02007 0
M  V30 8239 H 809.585 -1.52786 2.85374 0
M  V30 8240 H 808.492 0.634545 3.68679 0
M  V30 8241 H 809.825 0.815455 4.85398 0
M  V30 8242 N 811.477 -1.49425 0.500989 0
M  V30 8243 C 812.44 -2.27646 -0.266416 0
M  V30 8244 C 813.44 -1.3366 -0.893961 0
M  V30 8245 O 814.63 -1.5682 -0.758495 0
M  V30 8246 C 811.762 -3.11618 -1.38227 0
M  V30 8247 H 812.955 -2.96945 0.419973 0
M  V30 8248 H 810.508 -1.5419 0.255954 0
M  V30 8249 H 811.243 -2.46885 -2.10281 0
M  V30 8250 H 811.028 -3.80721 -0.937746 0
M  V30 8251 H 812.518 -3.70698 -1.92283 0
M  V30 8252 N 812.955 -0.234822 -1.55841 0
M  V30 8253 C 814.201 0.393843 -1.98939 0
M  V30 8254 C 814.534 1.58466 -1.1226 0
M  V30 8255 O 813.809 1.93635 -0.183242 0
M  V30 8256 C 814.092 0.815492 -3.50745 0
M  V30 8257 C 813.945 -0.379878 -4.48193 0
M  V30 8258 C 815.264 1.66687 -4.07312 0
M  V30 8259 H 812.383 0.141681 -0.723253 0
M  V30 8260 H 815.025 -0.333716 -1.87046 0
M  V30 8261 H 813.175 1.43541 -3.6101 0
M  V30 8262 H 814.847 -1.0182 -4.49923 0
M  V30 8263 H 813.09 -1.02507 -4.21515 0
M  V30 8264 H 813.761 -0.0417069 -5.51984 0
M  V30 8265 H 816.237 1.14369 -4.00074 0
M  V30 8266 H 815.113 1.93078 -5.13821 0
M  V30 8267 H 815.374 2.63468 -3.55017 0
M  V30 8268 N 814.433 1.57553 0.0384317 0
M  V30 8269 C 815.679 1.89121 0.732199 0
M  V30 8270 C 816.012 0.831404 1.75503 0
M  V30 8271 O 815.287 -0.154642 1.93884 0
M  V30 8272 C 815.57 3.31338 1.41021 0
M  V30 8273 C 815.423 4.48004 0.401532 0
M  V30 8274 C 816.742 3.72318 2.34665 0
M  V30 8275 H 813.861 0.687819 0.264715 0
M  V30 8276 H 816.503 1.89999 -0.00496279 0
M  V30 8277 H 814.653 3.3072 2.03854 0
M  V30 8278 H 816.325 4.60755 -0.224159 0
M  V30 8279 H 814.568 4.32895 -0.280092 0
M  V30 8280 H 815.239 5.44377 0.91423 0
M  V30 8281 H 817.715 3.74243 1.81883 0
M  V30 8282 H 816.591 4.72652 2.7909 0
M  V30 8283 H 816.852 3.04062 3.20934 0
M  V30 8284 N 815.911 -0.310526 1.54511 0
M  V30 8285 C 816.874 -1.3657 1.84068 0
M  V30 8286 C 817.874 -1.44123 0.713097 0
M  V30 8287 O 819.064 -1.43924 0.981399 0
M  V30 8288 C 816.196 -2.75162 2.01243 0
M  V30 8289 H 817.389 -1.1161 2.78358 0
M  V30 8290 H 814.942 -0.546699 1.46427 0
M  V30 8291 H 815.677 -3.05359 1.09208 0
M  V30 8292 H 815.462 -2.71071 2.83307 0
M  V30 8293 H 816.952 -3.51473 2.25514 0
M  V30 8294 N 817.389 -1.46805 -0.573248 0
M  V30 8295 C 818.637 -1.52302 -1.32847 0
M  V30 8296 C 818.958 -0.180159 -1.94166 0
M  V30 8297 O 818.228 0.794291 -1.79075 0
M  V30 8298 H 816.808 -0.56097 -0.493276 0
M  V30 8299 H 819.47 -1.82998 -0.670642 0
M  V30 8300 H 818.566 -2.28089 -2.13031 0
M  V30 8301 N 818.867 0.818669 -1.34668 0
M  V30 8302 C 820.116 1.57017 -1.26604 0
M  V30 8303 C 820.429 1.94936 0.161036 0
M  V30 8304 O 821.635 2.69051 0.36386 0
M  V30 8305 C 820.091 2.83305 -2.2196 0
M  V30 8306 C 819.699 2.52671 -3.69948 0
M  V30 8307 C 821.443 3.61324 -2.22813 0
M  V30 8308 C 819.35 3.75178 -4.5716 0
M  V30 8309 H 818.28 0.589323 -0.470335 0
M  V30 8310 H 820.931 0.900956 -1.59859 0
M  V30 8311 H 819.313 3.51874 -1.81661 0
M  V30 8312 H 820.487 1.92186 -4.18809 0
M  V30 8313 H 818.802 1.8792 -3.71584 0
M  V30 8314 H 821.399 4.52294 -2.85192 0
M  V30 8315 H 821.742 3.97759 -1.22857 0
M  V30 8316 H 822.275 2.99703 -2.61578 0
M  V30 8317 H 819.014 3.43861 -5.58068 0
M  V30 8318 H 818.534 4.34931 -4.13031 0
M  V30 8319 H 820.213 4.42542 -4.71981 0
M  V30 8320 N 820.346 1.18468 1.03938 0
M  V30 8321 C 821.309 0.914944 2.10146 0
M  V30 8322 C 822.309 -0.10022 1.60487 0
M  V30 8323 O 823.499 0.133365 1.73689 0
M  V30 8324 C 820.631 0.372993 3.38853 0
M  V30 8325 H 821.824 1.85677 2.35508 0
M  V30 8326 H 819.377 0.996876 1.20383 0
M  V30 8327 H 820.112 -0.57538 3.19155 0
M  V30 8328 H 819.897 1.1048 3.76213 0
M  V30 8329 H 821.387 0.203014 4.17106 0
M  V30 8330 N 821.824 -1.22873 0.986916 0
M  V30 8331 C 822.771 -2.2458 0.532215 0
M  V30 8332 C 823.741 -1.60375 -0.432322 0
M  V30 8333 O 824.926 -1.87775 -0.338416 0
M  V30 8334 C 822.066 -3.44761 -0.152864 0
M  V30 8335 C 821.179 -4.23501 0.852704 0
M  V30 8336 C 820.314 -5.31011 0.14176 0
M  V30 8337 C 819.353 -6.01464 1.1361 0
M  V30 8338 N 818.49 -7.00631 0.453871 0
M  V30 8339 H 823.33 -2.62838 1.40428 0
M  V30 8340 H 820.867 -1.29185 0.703543 0
M  V30 8341 H 822.825 -4.1333 -0.566926 0
M  V30 8342 H 821.455 -3.07284 -0.988756 0
M  V30 8343 H 820.507 -3.54286 1.38512 0
M  V30 8344 H 821.819 -4.72097 1.61014 0
M  V30 8345 H 820.973 -6.05805 -0.329337 0
M  V30 8346 H 819.712 -4.83373 -0.648229 0
M  V30 8347 H 818.717 -5.25456 1.61789 0
M  V30 8348 H 819.942 -6.5119 1.92686 0
M  V30 8349 H 817.888 -6.55235 -0.316791 0
M  V30 8350 H 817.805 -7.47204 1.14986 0
M  V30 8351 H 819.073 -7.795 0.00537823 0
M  V30 8352 N 823.302 -0.75937 -1.38099 0
M  V30 8353 C 824.265 -0.14372 -2.28749 0
M  V30 8354 C 825.265 0.641338 -1.47457 0
M  V30 8355 O 826.455 0.466751 -1.67831 0
M  V30 8356 C 823.587 0.804545 -3.3127 0
M  V30 8357 H 824.78 -0.942663 -2.847 0
M  V30 8358 H 822.333 -0.526757 -1.47156 0
M  V30 8359 H 823.068 1.62895 -2.80421 0
M  V30 8360 H 822.853 0.243939 -3.9134 0
M  V30 8361 H 824.343 1.23111 -3.99041 0
M  V30 8362 N 824.78 1.49157 -0.508906 0
M  V30 8363 C 826.02 2.04376 0.0310623 0
M  V30 8364 C 826.384 1.37946 1.33547 0
M  V30 8365 O 827.585 1.83931 1.96017 0
M  V30 8366 C 825.856 3.56985 0.172191 0
M  V30 8367 S 827.415 4.33728 0.665267 0
M  V30 8368 H 824.233 0.710997 -0.00199266 0
M  V30 8369 H 826.835 1.83119 -0.684674 0
M  V30 8370 H 825.539 4.02874 -0.78234 0
M  V30 8371 H 825.07 3.82661 0.912933 0
M  V30 8372 H 827.085 4.56992 1.9332 0
M  V30 8373 N 826.258 0.243083 1.55714 0
M  V30 8374 C 827.506 -0.381964 1.98458 0
M  V30 8375 C 827.827 -1.58745 1.13247 0
M  V30 8376 O 827.097 -1.94723 0.214384 0
M  V30 8377 H 825.677 -0.144114 0.732967 0
M  V30 8378 H 828.339 0.340985 1.91894 0
M  V30 8379 H 827.435 -0.693702 3.04293 0
M  V30 8380 N 827.736 -1.57571 -0.0300757 0
M  V30 8381 C 828.683 -2.06492 -1.03101 0
M  V30 8382 C 829.653 -0.953862 -1.3598 0
M  V30 8383 O 830.838 -1.22436 -1.46335 0
M  V30 8384 C 827.978 -2.54826 -2.32718 0
M  V30 8385 C 827.091 -3.79718 -2.06006 0
M  V30 8386 C 826.226 -4.16668 -3.29487 0
M  V30 8387 C 825.265 -5.3448 -2.98324 0
M  V30 8388 N 824.402 -5.66867 -4.14254 0
M  V30 8389 H 829.242 -2.91755 -0.606877 0
M  V30 8390 H 826.779 -1.44252 -0.288038 0
M  V30 8391 H 828.737 -2.80916 -3.08451 0
M  V30 8392 H 827.367 -1.72481 -2.72856 0
M  V30 8393 H 826.419 -3.60718 -1.20774 0
M  V30 8394 H 827.731 -4.65569 -1.79017 0
M  V30 8395 H 826.885 -4.43881 -4.13588 0
M  V30 8396 H 825.624 -3.29466 -3.59588 0
M  V30 8397 H 824.629 -5.07021 -2.12625 0
M  V30 8398 H 825.854 -6.23334 -2.69502 0
M  V30 8399 H 823.8 -4.82625 -4.44308 0
M  V30 8400 H 823.717 -6.47226 -3.90685 0
M  V30 8401 H 824.985 -5.98656 -4.99231 0
M  V30 8402 N 829.214 0.302327 -1.54673 0
M  V30 8403 C 830.177 1.35592 -1.8479 0
M  V30 8404 C 831.177 1.43743 -0.72073 0
M  V30 8405 O 832.367 1.43402 -0.989017 0
M  V30 8406 C 829.499 2.74091 -2.02699 0
M  V30 8407 H 830.692 1.10132 -2.78946 0
M  V30 8408 H 828.245 0.538926 -1.46715 0
M  V30 8409 H 828.98 3.04775 -1.10826 0
M  V30 8410 H 828.765 2.69565 -2.8474 0
M  V30 8411 H 830.255 3.50272 -2.27374 0
M  V30 8412 N 830.692 1.47107 0.565454 0
M  V30 8413 C 831.94 1.53005 1.32038 0
M  V30 8414 C 832.261 0.190453 1.94068 0
M  V30 8415 O 831.531 -0.784783 1.79494 0
M  V30 8416 H 830.111 0.563578 0.490294 0
M  V30 8417 H 832.773 1.83351 0.660928 0
M  V30 8418 H 831.869 2.29215 2.11818 0
M  V30 8419 N 832.17 -0.811516 1.35101 0
M  V30 8420 C 833.41 -1.58177 1.29458 0
M  V30 8421 C 833.774 -1.91555 -0.130688 0
M  V30 8422 O 834.975 -2.6699 -0.311428 0
M  V30 8423 C 833.246 -2.83896 2.17112 0
M  V30 8424 S 834.805 -3.74344 2.28936 0
M  V30 8425 H 831.623 -0.542021 0.460146 0
M  V30 8426 H 834.225 -0.957653 1.70438 0
M  V30 8427 H 832.929 -2.57391 3.19653 0
M  V30 8428 H 832.46 -3.51297 1.7707 0
M  V30 8429 H 834.475 -4.73909 1.47054 0
M  V30 8430 N 833.648 -1.19017 -1.03309 0
M  V30 8431 C 834.611 -0.926076 -2.09658 0
M  V30 8432 C 835.611 0.0917077 -1.60538 0
M  V30 8433 O 836.801 -0.142574 -1.73616 0
M  V30 8434 C 833.933 -0.390958 -3.38651 0
M  V30 8435 H 835.126 -1.86923 -2.3452 0
M  V30 8436 H 832.679 -1.00325 -1.19853 0
M  V30 8437 H 833.414 0.558446 -3.19456 0
M  V30 8438 H 833.199 -1.12474 -3.75622 0
M  V30 8439 H 834.689 -0.225131 -4.16993 0
M  V30 8440 N 835.127 1.22348 -0.993418 0
M  V30 8441 C 836.057 2.26584 -0.564088 0
M  V30 8442 C 837.038 1.65102 0.409298 0
M  V30 8443 O 838.223 1.91872 0.299819 0
M  V30 8444 C 835.353 3.47087 0.121554 0
M  V30 8445 C 834.307 4.21009 -0.770429 0
M  V30 8446 C 833.633 5.34678 0.0481586 0
M  V30 8447 C 834.933 4.79636 -2.06752 0
M  V30 8448 H 836.627 2.62749 -1.43538 0
M  V30 8449 H 834.173 1.26303 -0.691628 0
M  V30 8450 H 836.126 4.19166 0.433303 0
M  V30 8451 H 834.85 3.1002 1.0274 0
M  V30 8452 H 833.509 3.50764 -1.06583 0
M  V30 8453 H 833.157 4.93852 0.954933 0
M  V30 8454 H 832.857 5.85061 -0.545641 0
M  V30 8455 H 834.381 6.09573 0.353991 0
M  V30 8456 H 835.795 5.43654 -1.81969 0
M  V30 8457 H 834.192 5.4036 -2.61019 0
M  V30 8458 H 835.262 3.99659 -2.74592 0
M  V30 8459 N 836.605 0.766683 1.37694 0
M  V30 8460 C 837.535 0.163432 2.32927 0
M  V30 8461 C 838.516 -0.688861 1.55527 0
M  V30 8462 O 839.701 -0.627363 1.83787 0
M  V30 8463 C 836.831 -0.720416 3.39746 0
M  V30 8464 C 835.785 0.0301718 4.27989 0
M  V30 8465 C 835.111 -0.972788 5.25776 0
M  V30 8466 C 836.411 1.20623 5.0818 0
M  V30 8467 H 838.105 0.958988 2.83626 0
M  V30 8468 H 835.651 0.462601 1.36367 0
M  V30 8469 H 837.604 -1.15221 4.05342 0
M  V30 8470 H 836.328 -1.54844 2.8756 0
M  V30 8471 H 834.987 0.442685 3.63917 0
M  V30 8472 H 834.635 -1.79522 4.69873 0
M  V30 8473 H 834.335 -0.475145 5.85676 0
M  V30 8474 H 835.859 -1.40362 5.94248 0
M  V30 8475 H 837.273 0.851341 5.66944 0
M  V30 8476 H 835.67 1.63561 5.7738 0
M  V30 8477 H 836.74 2.01281 4.41151 0
M  V30 8478 N 838.083 -1.48885 0.516809 0
M  V30 8479 C 839.331 -2.02088 -0.0220166 0
M  V30 8480 C 839.652 -1.39735 -1.36011 0
M  V30 8481 O 838.922 -0.558119 -1.87781 0
M  V30 8482 H 837.502 -0.746917 -0.0111255 0
M  V30 8483 H 840.164 -1.8274 0.677647 0
M  V30 8484 H 839.26 -3.11786 -0.140067 0
M  V30 8485 N 839.561 -0.251338 -1.55583 0
M  V30 8486 C 840.809 0.371434 -1.98657 0
M  V30 8487 C 841.13 1.58143 -1.14087 0
M  V30 8488 O 840.4 1.94607 -0.224708 0
M  V30 8489 H 838.98 0.140225 -0.733721 0
M  V30 8490 H 841.642 -0.351157 -1.9171 0
M  V30 8491 H 840.738 0.677554 -3.04657 0
M  V30 8492 N 841.039 1.57585 0.0217189 0
M  V30 8493 C 841.949 2.10444 1.03684 0
M  V30 8494 C 842.965 1.04472 1.39146 0
M  V30 8495 O 844.141 1.36249 1.48317 0
M  V30 8496 C 841.206 2.5794 2.31664 0
M  V30 8497 C 840.267 3.78425 2.02714 0
M  V30 8498 C 839.5 4.23646 3.24592 0
M  V30 8499 O 839.723 3.6834 4.35525 0
M  V30 8500 O 838.657 5.16013 3.09862 0
M  V30 8501 H 842.483 2.97354 0.617584 0
M  V30 8502 H 840.068 1.47473 0.239174 0
M  V30 8503 H 841.95 2.88785 3.06889 0
M  V30 8504 H 840.625 1.74138 2.7287 0
M  V30 8505 H 839.532 3.52587 1.25033 0
M  V30 8506 H 840.865 4.63234 1.66359 0
M  V30 8507 N 842.517 -0.29412 1.54831 0
M  V30 8508 C 843.745 -1.04724 1.78439 0
M  V30 8509 C 844.16 -1.80695 0.547239 0
M  V30 8510 O 843.517 -1.75989 -0.483141 0
M  V30 8511 C 843.568 -2.02242 2.99634 0
M  V30 8512 O 843.289 -1.29352 4.18568 0
M  V30 8513 C 844.79 -2.89537 3.35683 0
M  V30 8514 H 842.01 -0.310285 0.594949 0
M  V30 8515 H 844.554 -0.331306 2.01798 0
M  V30 8516 H 842.709 -2.69328 2.78462 0
M  V30 8517 H 843.123 -1.94901 4.86943 0
M  V30 8518 H 844.597 -3.538 4.23709 0
M  V30 8519 H 845.074 -3.58201 2.54143 0
M  V30 8520 H 845.68 -2.27973 3.59038 0
M  V30 8521 N 843.995 -1.47404 -0.557645 0
M  V30 8522 C 844.958 -1.59411 -1.64684 0
M  V30 8523 C 845.958 -0.469244 -1.53801 0
M  V30 8524 O 847.148 -0.734298 -1.57967 0
M  V30 8525 C 844.28 -1.5382 -3.04224 0
M  V30 8526 H 845.473 -2.56504 -1.55389 0
M  V30 8527 H 843.026 -1.35588 -0.777531 0
M  V30 8528 H 843.761 -0.581 -3.19053 0
M  V30 8529 H 843.546 -2.35456 -3.13533 0
M  V30 8530 H 845.036 -1.65358 -3.83466 0
M  V30 8531 N 845.473 0.80434 -1.35529 0
M  V30 8532 C 846.383 1.94784 -1.30753 0
M  V30 8533 C 847.399 1.72703 -0.212071 0
M  V30 8534 O 848.575 1.96494 -0.441841 0
M  V30 8535 C 845.64 3.29406 -1.08133 0
M  V30 8536 C 844.701 3.64367 -2.27013 0
M  V30 8537 C 843.934 4.92566 -2.05463 0
M  V30 8538 O 844.157 5.61166 -1.02222 0
M  V30 8539 O 843.091 5.25838 -2.92879 0
M  V30 8540 H 846.917 2.01761 -2.26994 0
M  V30 8541 H 844.502 0.942448 -1.15924 0
M  V30 8542 H 846.384 4.09995 -0.973756 0
M  V30 8543 H 845.059 3.23355 -0.149444 0
M  V30 8544 H 843.966 2.84146 -2.43335 0
M  V30 8545 H 845.299 3.75125 -3.18656 0
M  V30 8546 N 846.951 1.19563 1.02676 0
M  V30 8547 C 847.884 0.878638 2.10607 0
M  V30 8548 C 848.862 -0.165176 1.61759 0
M  V30 8549 O 850.046 -0.041014 1.88455 0
M  V30 8550 C 847.173 0.315347 3.37229 0
M  V30 8551 C 846.219 1.33855 4.04951 0
M  V30 8552 S 847.052 2.89982 4.50189 0
M  V30 8553 C 848.208 2.35202 5.80027 0
M  V30 8554 H 848.441 1.79268 2.37171 0
M  V30 8555 H 845.974 1.023 1.15646 0
M  V30 8556 H 847.932 -0.00311911 4.105 0
M  V30 8557 H 846.593 -0.577035 3.08754 0
M  V30 8558 H 845.786 0.893581 4.96015 0
M  V30 8559 H 845.388 1.60397 3.37859 0
M  V30 8560 H 847.68 1.74329 6.54687 0
M  V30 8561 H 848.623 3.24622 6.29306 0
M  V30 8562 H 849.031 1.77702 5.35801 0
M  V30 8563 N 848.429 -1.21819 0.999893 0
M  V30 8564 C 849.84 -1.72517 0.713775 0
M  V30 8565 C 850.191 -1.80505 -0.768922 0
M  V30 8566 O 849.316 -1.45611 -1.60083 0
M  V30 8567 C 849.911 -3.13321 1.28901 0
M  V30 8568 C 848.47 -3.61396 1.05212 0
M  V30 8569 C 847.617 -2.39074 1.40494 0
M  V30 8570 H 850.568 -1.07068 1.17141 0
M  V30 8571 H 850.589 -3.74535 0.671084 0
M  V30 8572 H 850.101 -3.07475 2.36814 0
M  V30 8573 H 848.202 -3.72599 -0.0100732 0
M  V30 8574 H 848.315 -4.47145 1.72042 0
M  V30 8575 H 846.679 -2.41015 0.823642 0
M  V30 8576 H 847.462 -2.35884 2.49427 0
M  V30 8577 N 849.908 -0.773975 -1.37286 0
M  V30 8578 C 851.185 -0.263942 -1.93811 0
M  V30 8579 C 851.565 1.24138 -1.70743 0
M  V30 8580 O 850.913 2.02557 -1.05749 0
M  V30 8581 C 851.123 -0.639753 -3.43086 0
M  V30 8582 C 852.471 -0.610796 -4.20184 0
M  V30 8583 O 853.495 -0.579278 -3.51458 0
M  V30 8584 O 852.354 -0.639862 -5.42741 0
M  V30 8585 H 849.448 -0.0614331 -0.824715 0
M  V30 8586 H 851.994 -0.855477 -1.46559 0
M  V30 8587 H 850.766 -1.67856 -3.53469 0
M  V30 8588 H 850.389 -0.0212827 -3.97594 0
M  V30 8589 N 851.386 1.48609 -0.524698 0
M  V30 8590 C 852.319 2.26374 0.288109 0
M  V30 8591 C 853.297 1.31997 0.949509 0
M  V30 8592 O 854.481 1.61329 0.974946 0
M  V30 8593 C 851.608 3.08065 1.4076 0
M  V30 8594 C 850.654 4.17777 0.858152 0
M  V30 8595 S 851.487 5.3482 -0.269827 0
M  V30 8596 C 852.643 6.2007 0.852266 0
M  V30 8597 H 852.876 2.94965 -0.371865 0
M  V30 8598 H 850.409 1.51248 -0.31039 0
M  V30 8599 H 852.367 3.5571 2.04892 0
M  V30 8600 H 851.028 2.38898 2.03928 0
M  V30 8601 H 850.221 4.74542 1.69783 0
M  V30 8602 H 849.823 3.72846 0.293627 0
M  V30 8603 H 852.115 6.54451 1.75213 0
M  V30 8604 H 853.058 7.07364 0.322717 0
M  V30 8605 H 853.466 5.53068 1.13029 0
M  V30 8606 N 852.864 0.259585 1.55447 0
M  V30 8607 C 854.094 -0.364863 2.03353 0
M  V30 8608 C 854.502 -1.5116 1.13786 0
M  V30 8609 O 853.845 -1.83109 0.147283 0
M  V30 8610 C 853.907 -0.922587 3.4746 0
M  V30 8611 C 853.571 0.0935207 4.56904 0
M  V30 8612 C 854.568 0.907571 5.11917 0
M  V30 8613 C 852.253 0.223276 5.01804 0
M  V30 8614 C 854.247 1.83771 6.10333 0
M  V30 8615 C 851.934 1.15691 6.00049 0
M  V30 8616 C 852.932 1.96264 6.54194 0
M  V30 8617 O 852.62 2.88052 7.50521 0
M  V30 8618 H 852.352 -0.0893313 0.670072 0
M  V30 8619 H 854.906 0.384821 2.01763 0
M  V30 8620 H 853.136 -1.72206 3.4624 0
M  V30 8621 H 854.825 -1.45846 3.78792 0
M  V30 8622 H 855.591 0.817979 4.78052 0
M  V30 8623 H 851.47 -0.393834 4.59315 0
M  V30 8624 H 855.014 2.46703 6.52521 0
M  V30 8625 H 850.911 1.24738 6.33333 0
M  V30 8626 H 851.679 2.82557 7.68182 0
M  V30 8627 N 854.342 -1.57594 -0.0133615 0
M  V30 8628 C 855.753 -1.78168 -0.557937 0
M  V30 8629 C 856.104 -0.892616 -1.74719 0
M  V30 8630 O 855.229 -0.0915491 -2.16206 0
M  V30 8631 C 855.824 -3.23115 -1.01894 0
M  V30 8632 C 854.383 -3.44831 -1.50892 0
M  V30 8633 C 853.53 -2.73558 -0.454044 0
M  V30 8634 H 856.481 -1.57266 0.212843 0
M  V30 8635 H 856.502 -3.30493 -1.8856 0
M  V30 8636 H 856.014 -3.87798 -0.153175 0
M  V30 8637 H 854.115 -2.85345 -2.39602 0
M  V30 8638 H 854.228 -4.53485 -1.54559 0
M  V30 8639 H 852.592 -2.37787 -0.912666 0
M  V30 8640 H 853.375 -3.40932 0.402524 0
M  V30 8641 N 855.82 0.285905 -1.54985 0
M  V30 8642 C 857.231 0.857869 -1.65824 0
M  V30 8643 C 857.582 1.87531 -0.576763 0
M  V30 8644 O 856.707 2.14528 0.284016 0
M  V30 8645 C 857.302 1.56277 -3.00604 0
M  V30 8646 C 855.861 2.08294 -3.13513 0
M  V30 8647 C 855.008 0.920633 -2.61571 0
M  V30 8648 H 857.959 0.0625463 -1.58577 0
M  V30 8649 H 857.98 2.42912 -2.92872 0
M  V30 8650 H 857.492 0.822017 -3.79295 0
M  V30 8651 H 855.593 2.8537 -2.39572 0
M  V30 8652 H 855.706 2.3071 -4.19892 0
M  V30 8653 H 854.07 1.31043 -2.18403 0
M  V30 8654 H 854.853 0.193594 -3.42754 0
M  V30 8655 N 857.298 1.47698 0.54982 0
M  V30 8656 C 858.546 1.54397 1.30407 0
M  V30 8657 C 858.867 0.211026 1.93855 0
M  V30 8658 O 858.137 -0.765701 1.80316 0
M  V30 8659 H 856.717 0.568747 0.484289 0
M  V30 8660 H 859.379 1.84042 0.641444 0
M  V30 8661 H 858.475 2.31449 2.09375 0
M  V30 8662 N 858.776 -0.797141 1.35954 0
M  V30 8663 C 859.686 -1.94088 1.31784 0
M  V30 8664 C 860.702 -1.72588 0.221227 0
M  V30 8665 O 861.878 -1.96256 0.452255 0
M  V30 8666 C 858.943 -3.28828 1.09878 0
M  V30 8667 C 858.004 -3.63158 2.28942 0
M  V30 8668 C 857.237 -4.91469 2.08072 0
M  V30 8669 O 857.46 -5.60616 1.05196 0
M  V30 8670 O 856.394 -5.24277 2.95664 0
M  V30 8671 H 860.22 -2.00554 2.28061 0
M  V30 8672 H 857.805 -0.936288 1.16422 0
M  V30 8673 H 859.687 -4.09473 0.995485 0
M  V30 8674 H 858.362 -3.23271 0.16659 0
M  V30 8675 H 857.269 -2.82851 2.44839 0
M  V30 8676 H 858.602 -3.7343 3.20641 0
M  V30 8677 N 860.254 -1.20106 -1.0204 0
M  V30 8678 C 861.484 -1.0329 -1.78927 0
M  V30 8679 C 861.892 0.421115 -1.84454 0
M  V30 8680 O 861.235 1.30422 -1.29367 0
M  V30 8681 C 861.297 -1.53627 -3.25021 0
M  V30 8682 C 860.961 -3.01869 -3.4311 0
M  V30 8683 C 861.958 -3.9956 -3.32638 0
M  V30 8684 C 859.643 -3.40746 -3.6905 0
M  V30 8685 C 861.637 -5.34119 -3.47844 0
M  V30 8686 C 859.324 -4.75462 -3.839 0
M  V30 8687 C 860.322 -5.71957 -3.73302 0
M  V30 8688 O 860.01 -7.04231 -3.87703 0
M  V30 8689 H 859.742 -0.363962 -0.569656 0
M  V30 8690 H 862.296 -1.59551 -1.29354 0
M  V30 8691 H 860.526 -0.917481 -3.75658 0
M  V30 8692 H 862.215 -1.32889 -3.8353 0
M  V30 8693 H 862.981 -3.70869 -3.12539 0
M  V30 8694 H 858.86 -2.66182 -3.76388 0
M  V30 8695 H 862.404 -6.09421 -3.39488 0
M  V30 8696 H 858.301 -5.03844 -4.03499 0
M  V30 8697 H 859.069 -7.11425 -4.04744 0
M  V30 8698 N 861.732 1.21287 -1.00634 0
M  V30 8699 C 863.009 1.86 -0.605257 0
M  V30 8700 C 863.389 1.90139 0.917072 0
M  V30 8701 O 862.737 1.40169 1.80458 0
M  V30 8702 C 862.947 3.26183 -1.24119 0
M  V30 8703 C 864.295 4.02562 -1.35015 0
M  V30 8704 O 865.319 3.35499 -1.19661 0
M  V30 8705 O 864.178 5.22638 -1.59726 0
M  V30 8706 H 861.272 0.800549 -0.207486 0
M  V30 8707 H 863.818 1.28959 -1.10307 0
M  V30 8708 H 862.59 3.17878 -2.28186 0
M  V30 8709 H 862.213 3.90845 -0.729807 0
M  V30 8710 N 863.21 0.781244 1.36873 0
M  V30 8711 C 864.14 0.188128 2.32741 0
M  V30 8712 C 865.121 -0.672326 1.56249 0
M  V30 8713 O 866.306 -0.607835 1.84442 0
M  V30 8714 C 863.436 -0.684341 3.40491 0
M  V30 8715 C 862.39 0.0755641 4.27933 0
M  V30 8716 C 861.716 -0.916968 5.26779 0
M  V30 8717 C 863.016 1.26006 5.06873 0
M  V30 8718 H 864.71 0.989016 2.82593 0
M  V30 8719 H 862.256 0.477038 1.35869 0
M  V30 8720 H 864.209 -1.10915 4.06541 0
M  V30 8721 H 862.933 -1.51785 2.89187 0
M  V30 8722 H 861.592 0.481258 3.63427 0
M  V30 8723 H 861.24 -1.74528 4.71751 0
M  V30 8724 H 860.94 -0.413 5.86147 0
M  V30 8725 H 862.464 -1.34052 5.95703 0
M  V30 8726 H 863.878 0.911425 5.66009 0
M  V30 8727 H 862.275 1.69676 5.75613 0
M  V30 8728 H 863.345 2.05948 4.38991 0
M  V30 8729 N 864.689 -1.48329 0.532571 0
M  V30 8730 C 865.652 -2.2816 -0.218069 0
M  V30 8731 C 866.652 -1.35526 -0.865409 0
M  V30 8732 O 867.842 -1.58394 -0.725061 0
M  V30 8733 C 864.974 -3.1448 -1.31586 0
M  V30 8734 H 866.167 -2.95987 0.482865 0
M  V30 8735 H 863.72 -1.53612 0.288603 0
M  V30 8736 H 864.455 -2.5129 -2.04997 0
M  V30 8737 H 864.24 -3.82625 -0.856779 0
M  V30 8738 H 865.73 -3.74693 -1.84377 0
M  V30 8739 N 866.167 -0.267825 -1.55308 0
M  V30 8740 C 867.415 0.350343 -1.9904 0
M  V30 8741 C 867.736 1.56924 -1.15758 0
M  V30 8742 O 867.006 1.94358 -0.245336 0
M  V30 8743 H 865.586 0.132435 -0.735167 0
M  V30 8744 H 868.248 -0.371471 -1.91327 0
M  V30 8745 H 867.344 0.645203 -3.05358 0
M  V30 8746 N 867.645 1.57599 0.00500368 0
M  V30 8747 C 868.892 1.90349 0.690895 0
M  V30 8748 C 869.22 0.868045 1.74055 0
M  V30 8749 O 868.475 -0.127855 1.95282 0
M  V30 8750 C 868.774 3.29855 1.37588 0
M  V30 8751 C 868.44 4.48548 0.459906 0
M  V30 8752 C 867.102 4.80752 0.207693 0
M  V30 8753 C 869.454 5.20919 -0.171054 0
M  V30 8754 C 866.782 5.82701 -0.683855 0
M  V30 8755 C 869.134 6.23818 -1.05045 0
M  V30 8756 C 867.798 6.54481 -1.31189 0
M  V30 8757 H 867.068 0.696538 0.252816 0
M  V30 8758 H 869.715 1.91436 -0.0494495 0
M  V30 8759 H 868.02 3.24869 2.19015 0
M  V30 8760 H 869.717 3.52452 1.91255 0
M  V30 8761 H 866.307 4.23384 0.666648 0
M  V30 8762 H 870.491 4.96299 0.0107942 0
M  V30 8763 H 865.747 6.04822 -0.894467 0
M  V30 8764 H 869.921 6.79029 -1.54574 0
M  V30 8765 H 867.548 7.33299 -2.00442 0
M  V30 8766 N 869.123 -0.277682 1.55134 0
M  V30 8767 C 870.086 -1.32635 1.86924 0
M  V30 8768 C 871.086 -1.42578 0.743507 0
M  V30 8769 O 872.276 -1.4181 1.01171 0
M  V30 8770 C 869.408 -2.70832 2.07034 0
M  V30 8771 H 870.601 -1.0568 2.80663 0
M  V30 8772 H 868.154 -0.515517 1.47554 0
M  V30 8773 H 868.889 -3.02974 1.15661 0
M  V30 8774 H 868.674 -2.65001 2.88993 0
M  V30 8775 H 870.164 -3.46611 2.32918 0
M  V30 8776 N 870.601 -1.47988 -0.541979 0
M  V30 8777 C 871.847 -1.55623 -1.30036 0
M  V30 8778 C 872.18 -0.224254 -1.92901 0
M  V30 8779 O 871.455 0.768629 -1.78668 0
M  V30 8780 C 871.738 -2.68562 -2.39888 0
M  V30 8781 C 871.591 -4.11426 -1.81792 0
M  V30 8782 C 872.91 -2.77325 -3.41729 0
M  V30 8783 H 870.029 -0.566498 -0.471433 0
M  V30 8784 H 872.671 -1.8011 -0.604998 0
M  V30 8785 H 870.821 -2.47814 -2.992 0
M  V30 8786 H 872.493 -4.43581 -1.26624 0
M  V30 8787 H 870.736 -4.18989 -1.12386 0
M  V30 8788 H 871.407 -4.8625 -2.61276 0
M  V30 8789 H 873.883 -2.96085 -2.92357 0
M  V30 8790 H 872.759 -3.58097 -4.16002 0
M  V30 8791 H 873.02 -1.84995 -4.01534 0
M  V30 8792 N 872.079 0.78992 -1.36375 0
M  V30 8793 C 873.327 1.54472 -1.30319 0
M  V30 8794 C 873.648 1.94647 0.117338 0
M  V30 8795 O 872.918 1.64906 1.05748 0
M  V30 8796 H 871.498 0.572879 -0.479394 0
M  V30 8797 H 874.16 0.941245 -1.70665 0
M  V30 8798 H 873.256 2.45252 -1.93024 0
M  V30 8799 N 873.557 1.20646 1.01402 0
M  V30 8800 C 874.52 0.959314 2.08158 0
M  V30 8801 C 875.52 -0.0661558 1.60664 0
M  V30 8802 O 876.71 0.170177 1.73367 0
M  V30 8803 C 873.842 0.444785 3.37986 0
M  V30 8804 H 875.035 1.90631 2.31517 0
M  V30 8805 H 872.588 1.02219 1.18241 0
M  V30 8806 H 873.323 -0.507553 3.20304 0
M  V30 8807 H 873.108 1.18435 3.73785 0
M  V30 8808 H 874.598 0.291443 4.16582 0
M  V30 8809 N 875.035 -1.20752 1.01276 0
M  V30 8810 C 875.968 -2.22091 0.524472 0
M  V30 8811 C 876.946 -1.5692 -0.426017 0
M  V30 8812 O 878.13 -1.8528 -0.346919 0
M  V30 8813 C 875.257 -3.37868 -0.237224 0
M  V30 8814 C 874.303 -4.21327 0.662236 0
M  V30 8815 S 875.136 -4.91352 2.12916 0
M  V30 8816 C 876.292 -6.10553 1.37752 0
M  V30 8817 H 876.525 -2.63166 1.38315 0
M  V30 8818 H 874.058 -1.30742 0.821332 0
M  V30 8819 H 876.016 -4.04985 -0.670599 0
M  V30 8820 H 874.677 -2.95261 -1.07143 0
M  V30 8821 H 873.87 -5.03944 0.0751085 0
M  V30 8822 H 873.472 -3.59445 1.03322 0
M  V30 8823 H 875.764 -6.74322 0.655491 0
M  V30 8824 H 876.707 -6.73717 2.17969 0
M  V30 8825 H 877.115 -5.57566 0.882088 0
M  V30 8826 N 876.513 -0.788492 -1.36457 0
M  V30 8827 C 877.423 -0.187385 -2.3385 0
M  V30 8828 C 878.439 0.659984 -1.60998 0
M  V30 8829 O 879.615 0.575986 -1.92988 0
M  V30 8830 C 876.68 0.668525 -3.40194 0
M  V30 8831 C 875.741 -0.197234 -4.28847 0
M  V30 8832 C 874.974 0.61792 -5.30111 0
M  V30 8833 O 875.197 1.85396 -5.3943 0
M  V30 8834 O 874.131 0.0183016 -6.01897 0
M  V30 8835 H 877.957 -0.992617 -2.87021 0
M  V30 8836 H 875.542 -0.549934 -1.3891 0
M  V30 8837 H 877.424 1.15663 -4.05216 0
M  V30 8838 H 876.099 1.45166 -2.89324 0
M  V30 8839 H 875.006 -0.73207 -3.66867 0
M  V30 8840 H 876.339 -0.943863 -4.83065 0
M  V30 8841 N 877.991 1.48044 -0.54043 0
M  V30 8842 C 879.407 1.58354 -0.199006 0
M  V30 8843 C 879.607 1.54118 1.29807 0
M  V30 8844 O 878.663 1.43573 2.07709 0
M  V30 8845 C 879.976 2.89563 -0.810797 0
M  V30 8846 C 881.524 3.03113 -0.780486 0
M  V30 8847 C 881.999 4.36997 -1.37104 0
M  V30 8848 N 883.49 4.43591 -1.33347 0
M  V30 8849 C 884.225 5.45714 -1.76021 0
M  V30 8850 N 883.721 6.54738 -2.26473 0
M  V30 8851 N 885.514 5.36659 -1.67194 0
M  V30 8852 H 877.665 1.49041 -1.51329 0
M  V30 8853 H 879.928 0.708309 -0.630081 0
M  V30 8854 H 879.634 2.9835 -1.86227 0
M  V30 8855 H 879.508 3.76053 -0.293977 0
M  V30 8856 H 881.895 2.93932 0.262246 0
M  V30 8857 H 881.976 2.18207 -1.33489 0
M  V30 8858 H 881.62 4.46932 -2.41276 0
M  V30 8859 H 881.55 5.20607 -0.792229 0
M  V30 8860 H 884.041 3.65391 -0.964259 0
M  V30 8861 H 884.354 7.28814 -2.57002 0
M  V30 8862 H 882.699 6.55673 -2.30473 0
M  V30 8863 H 885.89 4.50382 -1.27569 0
M  V30 8864 H 886.063 6.16113 -2.00771 0
M  V30 8865 N 879.47 0.276058 1.55163 0
M  V30 8866 C 880.747 -0.392292 1.91626 0
M  V30 8867 C 881.127 -1.73646 1.20043 0
M  V30 8868 O 880.475 -2.26139 0.327606 0
M  V30 8869 C 880.685 -0.531641 3.44927 0
M  V30 8870 C 882.033 -0.8141 4.16722 0
M  V30 8871 O 883.057 -0.616413 3.50826 0
M  V30 8872 O 881.916 -1.19224 5.33337 0
M  V30 8873 H 879.01 -0.214945 0.798579 0
M  V30 8874 H 881.556 0.32228 1.66612 0
M  V30 8875 H 880.328 0.414282 3.89101 0
M  V30 8876 H 879.951 -1.29564 3.75897 0
M  V30 8877 N 880.948 -1.576 0.00335426 0
M  V30 8878 C 881.88 -2.0549 -1.01521 0
M  V30 8879 C 882.893 -0.973441 -1.30491 0
M  V30 8880 O 884.082 -1.25017 -1.27409 0
M  V30 8881 C 881.182 -2.44272 -2.34914 0
M  V30 8882 C 880.355 -3.75191 -2.24835 0
M  V30 8883 C 879.414 -4.00804 -3.40944 0
M  V30 8884 O 878.44 -4.71423 -3.18981 0
M  V30 8885 N 879.642 -3.48961 -4.63904 0
M  V30 8886 H 882.407 -2.93493 -0.60678 0
M  V30 8887 H 879.968 -1.60851 -0.18396 0
M  V30 8888 H 881.96 -2.58518 -3.11369 0
M  V30 8889 H 880.53 -1.6177 -2.67487 0
M  V30 8890 H 879.75 -3.70989 -1.3327 0
M  V30 8891 H 881.038 -4.61013 -2.15277 0
M  V30 8892 H 880.436 -2.9178 -4.84645 0
M  V30 8893 H 878.993 -3.68531 -5.37613 0
M  V30 8894 N 882.426 0.269451 -1.5528 0
M  V30 8895 C 883.373 1.33316 -1.88403 0
M  V30 8896 C 884.343 1.48909 -0.735881 0
M  V30 8897 O 885.528 1.63259 -0.987479 0
M  V30 8898 C 882.668 2.68778 -2.16454 0
M  V30 8899 C 881.781 2.61377 -3.43956 0
M  V30 8900 C 880.916 3.89042 -3.6169 0
M  V30 8901 C 879.955 3.76166 -4.82872 0
M  V30 8902 N 879.092 4.95673 -4.97245 0
M  V30 8903 H 883.932 1.04368 -2.79126 0
M  V30 8904 H 881.469 0.504147 -1.38191 0
M  V30 8905 H 883.427 3.47599 -2.30719 0
M  V30 8906 H 882.057 2.9592 -1.28961 0
M  V30 8907 H 881.109 1.74247 -3.38145 0
M  V30 8908 H 882.421 2.47764 -4.32914 0
M  V30 8909 H 881.575 4.76304 -3.75791 0
M  V30 8910 H 880.314 4.05526 -2.70924 0
M  V30 8911 H 879.319 2.87287 -4.68771 0
M  V30 8912 H 880.544 3.61198 -5.75077 0
M  V30 8913 H 878.49 5.12561 -4.09411 0
M  V30 8914 H 878.407 4.84605 -5.80254 0
M  V30 8915 H 879.675 5.84498 -5.15735 0
M  V30 8916 N 883.904 1.48273 0.534124 0
M  V30 8917 C 884.834 1.6538 1.64839 0
M  V30 8918 C 885.815 0.502741 1.62501 0
M  V30 8919 O 887 0.734799 1.79762 0
M  V30 8920 C 884.13 1.68949 3.03436 0
M  V30 8921 C 883.084 2.83513 3.20631 0
M  V30 8922 C 882.41 2.72169 4.60248 0
M  V30 8923 C 883.71 4.24858 3.03797 0
M  V30 8924 H 885.404 2.58663 1.50777 0
M  V30 8925 H 882.95 1.24479 0.723937 0
M  V30 8926 H 884.903 1.79505 3.81256 0
M  V30 8927 H 883.627 0.722415 3.1851 0
M  V30 8928 H 882.286 2.72505 2.45227 0
M  V30 8929 H 881.934 1.7344 4.72152 0
M  V30 8930 H 881.634 3.49042 4.72698 0
M  V30 8931 H 883.158 2.84687 5.40172 0
M  V30 8932 H 884.572 4.36721 3.71413 0
M  V30 8933 H 882.969 5.02697 3.27743 0
M  V30 8934 H 884.039 4.41611 2.0027 0
M  V30 8935 N 885.382 -0.782676 1.36792 0
M  V30 8936 C 886.793 -1.35828 1.28092 0
M  V30 8937 C 887.144 -1.96052 -0.076315 0
M  V30 8938 O 886.269 -1.93042 -0.977935 0
M  V30 8939 C 886.864 -2.46949 2.31952 0
M  V30 8940 C 885.423 -3.00307 2.2692 0
M  V30 8941 C 884.57 -1.73436 2.16368 0
M  V30 8942 H 887.521 -0.583788 1.47572 0
M  V30 8943 H 887.542 -3.26144 1.95986 0
M  V30 8944 H 887.054 -2.03087 3.30722 0
M  V30 8945 H 885.155 -3.48571 1.31639 0
M  V30 8946 H 885.268 -3.56663 3.19887 0
M  V30 8947 H 883.632 -1.95934 1.62733 0
M  V30 8948 H 884.415 -1.31693 3.17036 0
M  V30 8949 N 886.86 -1.21182 -1.00761 0
M  V30 8950 C 887.81 -0.936247 -2.0789 0
M  V30 8951 C 888.794 0.107482 -1.60541 0
M  V30 8952 O 889.986 -0.1011 -1.76711 0
M  V30 8953 C 887.115 -0.499949 -3.3964 0
M  V30 8954 C 886.201 -1.5776 -3.93666 0
M  V30 8955 N 886.592 -2.80208 -4.2109 0
M  V30 8956 C 884.89 -1.44586 -4.21913 0
M  V30 8957 C 885.591 -3.49787 -4.64784 0
M  V30 8958 N 884.567 -2.7722 -4.676 0
M  V30 8959 H 888.369 -1.86659 -2.27015 0
M  V30 8960 H 885.883 -1.10716 -1.1881 0
M  V30 8961 H 887.88 -0.283897 -4.15932 0
M  V30 8962 H 886.54 0.423659 -3.21924 0
M  V30 8963 H 887.551 -3.16776 -4.09724 0
M  V30 8964 H 884.228 -0.587346 -4.13348 0
M  V30 8965 H 885.618 -4.54615 -4.94747 0
M  V30 8966 N 888.338 1.20213 -1.01915 0
M  V30 8967 C 889.268 2.25336 -0.612023 0
M  V30 8968 C 890.249 1.65933 0.374186 0
M  V30 8969 O 891.434 1.92464 0.259053 0
M  V30 8970 C 888.564 3.47267 0.047904 0
M  V30 8971 C 887.518 4.1928 -0.859557 0
M  V30 8972 C 886.844 5.3466 -0.0652655 0
M  V30 8973 C 888.144 4.75143 -2.1688 0
M  V30 8974 H 889.838 2.59645 -1.49079 0
M  V30 8975 H 887.384 1.24808 -0.718263 0
M  V30 8976 H 889.337 4.19991 0.344294 0
M  V30 8977 H 888.061 3.12129 0.961404 0
M  V30 8978 H 886.72 3.48425 -1.13999 0
M  V30 8979 H 886.368 4.95767 0.849964 0
M  V30 8980 H 886.068 5.83772 -0.669618 0
M  V30 8981 H 887.592 6.10187 0.224612 0
M  V30 8982 H 889.006 5.39672 -1.9346 0
M  V30 8983 H 887.403 5.34702 -2.72422 0
M  V30 8984 H 888.473 3.93744 -2.83008 0
M  V30 8985 N 889.816 0.795718 1.36037 0
M  V30 8986 C 890.726 0.199784 2.33748 0
M  V30 8987 C 891.742 -0.651436 1.61345 0
M  V30 8988 O 892.918 -0.565743 1.93291 0
M  V30 8989 C 889.983 -0.650475 3.40543 0
M  V30 8990 C 889.044 0.219974 4.28736 0
M  V30 8991 C 888.277 -0.589798 5.30431 0
M  V30 8992 O 888.5 -1.82532 5.40406 0
M  V30 8993 O 887.434 0.0136187 6.01898 0
M  V30 8994 H 891.26 1.00782 2.8649 0
M  V30 8995 H 888.845 0.557293 1.38617 0
M  V30 8996 H 890.727 -1.13512 4.05824 0
M  V30 8997 H 889.402 -1.4363 2.9009 0
M  V30 8998 H 888.309 0.751516 3.66474 0
M  V30 8999 H 889.642 0.969468 4.82558 0
M  V30 9000 N 891.294 -1.47756 0.548274 0
M  V30 9001 C 892.71 -1.58247 0.207401 0
M  V30 9002 C 892.91 -1.54804 -1.28988 0
M  V30 9003 O 891.966 -1.44673 -2.06944 0
M  V30 9004 C 893.279 -2.89129 0.826142 0
M  V30 9005 C 894.827 -3.02695 0.79655 0
M  V30 9006 C 895.302 -4.36264 1.3942 0
M  V30 9007 N 896.793 -4.42877 1.35698 0
M  V30 9008 C 897.528 -5.44773 1.78913 0
M  V30 9009 N 897.024 -6.53528 2.29942 0
M  V30 9010 N 898.817 -5.35765 1.70038 0
M  V30 9011 H 890.968 -1.48236 1.52117 0
M  V30 9012 H 893.231 -0.704957 0.633829 0
M  V30 9013 H 892.937 -2.97358 1.87806 0
M  V30 9014 H 892.811 -3.75891 0.313916 0
M  V30 9015 H 895.198 -2.94067 -0.246655 0
M  V30 9016 H 895.279 -2.17496 1.34644 0
M  V30 9017 H 894.923 -4.45646 2.43642 0
M  V30 9018 H 894.853 -5.20179 0.819827 0
M  V30 9019 H 897.344 -3.64874 0.983623 0
M  V30 9020 H 897.657 -7.27441 2.60863 0
M  V30 9021 H 896.002 -6.54442 2.33947 0
M  V30 9022 H 899.193 -4.49699 1.29955 0
M  V30 9023 H 899.366 -6.1504 2.04035 0
M  V30 9024 N 892.772 -0.284283 -1.55015 0
M  V30 9025 C 894.021 0.33055 -1.98973 0
M  V30 9026 C 894.334 1.56284 -1.17621 0
M  V30 9027 O 895.54 2.2512 -1.51767 0
M  V30 9028 C 893.996 0.639457 -3.54174 0
M  V30 9029 C 893.604 -0.573543 -4.44313 0
M  V30 9030 C 895.348 1.21641 -4.06699 0
M  V30 9031 C 893.255 -0.238715 -5.90918 0
M  V30 9032 H 892.185 0.127285 -0.743179 0
M  V30 9033 H 894.836 -0.390372 -1.793 0
M  V30 9034 H 893.218 1.41953 -3.69683 0
M  V30 9035 H 894.392 -1.3502 -4.40575 0
M  V30 9036 H 892.707 -1.06797 -4.02472 0
M  V30 9037 H 895.304 1.48088 -5.13784 0
M  V30 9038 H 895.647 2.15328 -3.56286 0
M  V30 9039 H 896.18 0.498422 -3.94665 0
M  V30 9040 H 892.919 -1.1437 -6.45445 0
M  V30 9041 H 892.439 0.500997 -5.97704 0
M  V30 9042 H 894.118 0.165774 -6.46788 0
M  V30 9043 N 894.251 1.57596 -0.0117121 0
M  V30 9044 C 895.479 1.9536 0.681334 0
M  V30 9045 C 895.894 0.887255 1.66653 0
M  V30 9046 O 895.251 -0.132692 1.82017 0
M  V30 9047 C 895.302 3.33165 1.40298 0
M  V30 9048 O 895.023 4.35707 0.45728 0
M  V30 9049 C 896.524 3.85458 2.18946 0
M  V30 9050 H 893.744 0.643826 0.189023 0
M  V30 9051 H 896.288 2.04392 -0.066311 0
M  V30 9052 H 894.443 3.25404 2.10216 0
M  V30 9053 H 894.857 5.15495 0.96773 0
M  V30 9054 H 896.331 4.84275 2.64918 0
M  V30 9055 H 896.808 3.18781 3.02118 0
M  V30 9056 H 897.414 3.96431 1.5402 0
M  V30 9057 N 895.729 -0.261212 1.5542 0
M  V30 9058 C 896.639 -1.34493 1.92221 0
M  V30 9059 C 897.655 -1.53421 0.82086 0
M  V30 9060 O 898.831 -1.6732 1.12099 0
M  V30 9061 C 895.896 -2.68209 2.19692 0
M  V30 9062 C 894.957 -2.57927 3.43179 0
M  V30 9063 C 894.19 -3.85266 3.69331 0
M  V30 9064 O 894.413 -4.86493 2.97793 0
M  V30 9065 O 893.347 -3.8476 4.62865 0
M  V30 9066 H 897.173 -1.06278 2.84497 0
M  V30 9067 H 894.758 -0.460752 1.42118 0
M  V30 9068 H 896.64 -3.47252 2.38734 0
M  V30 9069 H 895.315 -2.96186 1.30597 0
M  V30 9070 H 894.222 -1.77219 3.2946 0
M  V30 9071 H 895.555 -2.34898 4.32532 0
M  V30 9072 N 897.207 -1.48554 -0.526253 0
M  V30 9073 C 898.455 -1.56452 -1.27935 0
M  V30 9074 C 898.776 -0.24184 -1.93495 0
M  V30 9075 O 898.046 0.736917 -1.81511 0
M  V30 9076 H 896.626 -0.576379 -0.47518 0
M  V30 9077 H 899.288 -1.85039 -0.612083 0
M  V30 9078 H 898.384 -2.34751 -2.05666 0
M  V30 9079 N 898.685 0.775411 -1.37205 0
M  V30 9080 C 899.962 1.5229 -1.22748 0
M  V30 9081 C 900.342 2.10327 0.180487 0
M  V30 9082 O 899.69 1.95206 1.18772 0
M  V30 9083 C 899.9 2.60671 -2.3206 0
M  V30 9084 C 901.248 3.28173 -2.6942 0
M  V30 9085 O 902.272 2.70963 -2.31208 0
M  V30 9086 O 901.131 4.31598 -3.3524 0
M  V30 9087 H 898.225 0.674326 -0.478762 0
M  V30 9088 H 900.771 0.812691 -1.48975 0
M  V30 9089 H 899.543 2.1588 -3.26361 0
M  V30 9090 H 899.166 3.39296 -2.07277 0
M  V30 9091 N 900.163 1.21714 1.00117 0
M  V30 9092 C 901.409 1.03823 1.74208 0
M  V30 9093 C 901.742 -0.426733 1.89454 0
M  V30 9094 O 901.017 -1.31658 1.43166 0
M  V30 9095 C 901.3 1.74047 3.15246 0
M  V30 9096 C 901.153 3.28087 3.077 0
M  V30 9097 C 902.472 1.48614 4.14249 0
M  V30 9098 H 899.591 0.378573 0.632338 0
M  V30 9099 H 902.233 1.49942 1.16694 0
M  V30 9100 H 900.383 1.3484 3.64349 0
M  V30 9101 H 902.055 3.76686 2.6628 0
M  V30 9102 H 900.298 3.58191 2.44707 0
M  V30 9103 H 900.969 3.72392 4.07466 0
M  V30 9104 H 903.445 1.82656 3.73866 0
M  V30 9105 H 902.321 2.00257 5.11066 0
M  V30 9106 H 902.582 0.416957 4.40129 0
M  V30 9107 N 901.641 -1.19671 1.02551 0
M  V30 9108 C 902.887 -1.89548 0.721069 0
M  V30 9109 C 903.22 -1.79209 -0.748176 0
M  V30 9110 O 902.495 -1.1822 -1.54448 0
M  V30 9111 C 902.778 -3.4061 1.16861 0
M  V30 9112 C 902.631 -3.59838 2.69883 0
M  V30 9113 C 903.95 -4.33718 0.746782 0
M  V30 9114 H 901.069 -0.688315 0.263422 0
M  V30 9115 H 903.711 -1.40883 1.27483 0
M  V30 9116 H 901.861 -3.82188 0.697477 0
M  V30 9117 H 903.533 -3.27454 3.24917 0
M  V30 9118 H 901.776 -3.03005 3.10435 0
M  V30 9119 H 902.447 -4.65766 2.96253 0
M  V30 9120 H 904.923 -3.99837 1.15195 0
M  V30 9121 H 903.799 -5.38012 1.08786 0
M  V30 9122 H 904.06 -4.40704 -0.351057 0
M  V30 9123 N 903.119 -0.802921 -1.35613 0
M  V30 9124 C 904.365 -0.382141 -1.99167 0
M  V30 9125 C 904.698 1.04704 -1.63556 0
M  V30 9126 O 903.973 1.72578 -0.89706 0
M  V30 9127 C 904.256 -0.561493 -3.55695 0
M  V30 9128 C 904.109 -2.03534 -4.01116 0
M  V30 9129 C 905.428 0.0151135 -4.40097 0
M  V30 9130 H 902.547 -0.140322 -0.723518 0
M  V30 9131 H 905.189 -1.01177 -1.6082 0
M  V30 9132 H 903.339 -0.0255083 -3.88492 0
M  V30 9133 H 905.011 -2.63343 -3.78746 0
M  V30 9134 H 903.254 -2.5331 -3.52159 0
M  V30 9135 H 903.925 -2.11173 -5.1001 0
M  V30 9136 H 906.401 -0.442582 -4.1374 0
M  V30 9137 H 905.277 -0.140316 -5.48721 0
M  V30 9138 H 905.538 1.10848 -4.27978 0
M  V30 9139 N 904.597 1.47463 -0.556102 0
M  V30 9140 C 905.845 2.02075 -0.0315712 0
M  V30 9141 C 906.166 1.43292 1.32259 0
M  V30 9142 O 905.436 0.60771 1.86236 0
M  V30 9143 H 904.016 0.74695 -0.0086816 0
M  V30 9144 H 906.678 1.80879 -0.725859 0
M  V30 9145 H 905.774 3.12047 0.0573538 0
M  V30 9146 N 906.075 0.2925 1.54862 0
M  V30 9147 C 907.324 -0.319994 1.99146 0
M  V30 9148 C 907.637 -1.55658 1.18448 0
M  V30 9149 O 908.843 -2.24312 1.52959 0
M  V30 9150 C 907.299 -0.620665 3.54508 0
M  V30 9151 C 906.907 0.597098 4.44003 0
M  V30 9152 C 908.651 -1.19482 4.07338 0
M  V30 9153 C 906.558 0.270049 5.90783 0
M  V30 9154 H 905.488 -0.123342 0.743843 0
M  V30 9155 H 908.139 0.399876 1.7909 0
M  V30 9156 H 906.521 -1.3999 3.7043 0
M  V30 9157 H 907.695 1.37354 4.39853 0
M  V30 9158 H 906.01 1.0893 4.019 0
M  V30 9159 H 908.607 -1.45362 5.14562 0
M  V30 9160 H 908.95 -2.13435 3.57423 0
M  V30 9161 H 909.483 -0.477485 3.94924 0
M  V30 9162 H 906.222 1.17791 6.4483 0
M  V30 9163 H 905.742 -0.469292 5.97961 0
M  V30 9164 H 907.421 -0.131471 6.46866 0
M  V30 9165 N 907.553 -1.57587 0.0200696 0
M  V30 9166 C 908.516 -2.08595 -0.949767 0
M  V30 9167 C 909.516 -0.999215 -1.25985 0
M  V30 9168 O 910.706 -1.26115 -1.2017 0
M  V30 9169 C 907.838 -2.54424 -2.26895 0
M  V30 9170 H 909.031 -2.95563 -0.508161 0
M  V30 9171 H 906.584 -1.54631 -0.227798 0
M  V30 9172 H 907.319 -1.70758 -2.75703 0
M  V30 9173 H 907.104 -3.3381 -2.05702 0
M  V30 9174 H 908.594 -2.94144 -2.96427 0
M  V30 9175 N 909.032 0.252966 -1.55557 0
M  V30 9176 C 910.257 1.0038 -1.8149 0
M  V30 9177 C 910.682 1.78397 -0.596318 0
M  V30 9178 O 910.04 1.7551 0.454535 0
M  V30 9179 C 910.088 1.9222 -3.05096 0
M  V30 9180 O 909.192 3.01302 -2.81587 0
M  V30 9181 H 908.533 0.285949 -0.599274 0
M  V30 9182 H 911.063 0.275795 -2.02733 0
M  V30 9183 H 911.073 2.338 -3.34368 0
M  V30 9184 H 909.748 1.34852 -3.93431 0
M  V30 9185 H 908.325 2.63894 -2.63466 0
M  V30 9186 N 910.51 1.48831 0.518367 0
M  V30 9187 C 911.735 1.61379 1.30275 0
M  V30 9188 C 912.16 0.278571 1.86026 0
M  V30 9189 O 911.518 -0.751427 1.64995 0
M  V30 9190 C 911.566 2.67225 2.42122 0
M  V30 9191 O 910.67 2.25192 3.45489 0
M  V30 9192 H 910.011 0.540742 0.385349 0
M  V30 9193 H 912.541 1.949 0.622498 0
M  V30 9194 H 912.551 2.88859 2.8814 0
M  V30 9195 H 911.226 3.64155 2.00907 0
M  V30 9196 H 909.803 2.13819 3.05509 0
M  V30 9197 N 911.988 -0.768124 1.37614 0
M  V30 9198 C 913.236 -1.52379 1.3276 0
M  V30 9199 C 913.557 -1.94809 -0.0863564 0
M  V30 9200 O 912.827 -1.66568 -1.03112 0
M  V30 9201 H 911.407 -0.565179 0.488448 0
M  V30 9202 H 914.069 -0.913974 1.72141 0
M  V30 9203 H 913.165 -2.4215 1.96901 0
M  V30 9204 N 913.466 -1.22244 -0.994698 0
M  V30 9205 C 914.396 -1.01513 -2.10279 0
M  V30 9206 C 915.377 0.0633365 -1.69982 0
M  V30 9207 O 916.562 -0.0985268 -1.9395 0
M  V30 9208 C 913.692 -0.59016 -3.42249 0
M  V30 9209 C 912.646 -1.61436 -3.96387 0
M  V30 9210 C 911.972 -1.04528 -5.24383 0
M  V30 9211 C 913.272 -3.00388 -4.27276 0
M  V30 9212 H 914.966 -1.94194 -2.2788 0
M  V30 9213 H 912.512 -0.935094 -1.09508 0
M  V30 9214 H 914.465 -0.432254 -4.19177 0
M  V30 9215 H 913.189 0.372308 -3.24471 0
M  V30 9216 H 911.848 -1.76001 -3.21589 0
M  V30 9217 H 911.496 -0.0742225 -5.02945 0
M  V30 9218 H 911.196 -1.72949 -5.61571 0
M  V30 9219 H 912.72 -0.898922 -6.03947 0
M  V30 9220 H 914.134 -2.89207 -4.95007 0
M  V30 9221 H 912.531 -3.65916 -4.75631 0
M  V30 9222 H 913.601 -3.50456 -3.35125 0
M  V30 9223 N 914.944 1.19125 -1.03184 0
M  V30 9224 C 915.894 2.20348 -0.585731 0
M  V30 9225 C 916.878 1.56656 0.367109 0
M  V30 9226 O 918.07 1.76003 0.187598 0
M  V30 9227 C 915.199 3.43249 0.0590006 0
M  V30 9228 C 914.285 4.1408 -0.916457 0
M  V30 9229 N 914.676 4.61051 -2.08005 0
M  V30 9230 C 912.974 4.39809 -0.74054 0
M  V30 9231 C 913.675 5.15477 -2.69552 0
M  V30 9232 N 912.651 5.06456 -1.97493 0
M  V30 9233 H 916.453 2.54346 -1.47259 0
M  V30 9234 H 913.967 1.35232 -0.899225 0
M  V30 9235 H 915.964 4.15013 0.396236 0
M  V30 9236 H 914.624 3.1075 0.941507 0
M  V30 9237 H 915.635 4.55782 -2.45934 0
M  V30 9238 H 912.312 4.17397 0.0926238 0
M  V30 9239 H 913.702 5.62088 -3.68112 0
M  V30 9240 N 916.422 0.810101 1.35185 0
M  V30 9241 C 917.647 0.40364 2.03434 0
M  V30 9242 C 918.072 -0.97857 1.60641 0
M  V30 9243 O 917.43 -1.63435 0.784779 0
M  V30 9244 C 917.478 0.499154 3.57129 0
M  V30 9245 O 916.582 -0.486039 4.09526 0
M  V30 9246 H 915.923 0.168049 0.642383 0
M  V30 9247 H 918.453 1.09696 1.72708 0
M  V30 9248 H 918.463 0.370236 4.06317 0
M  V30 9249 H 917.138 1.50733 3.87624 0
M  V30 9250 H 915.715 -0.31707 3.7155 0
M  V30 9251 N 917.9 -1.47166 0.563914 0
M  V30 9252 C 918.848 -2.31798 -0.193009 0
M  V30 9253 C 919.842 -1.43338 -0.902805 0
M  V30 9254 O 921.048 -1.60067 -0.823328 0
M  V30 9255 H 917.423 -0.747613 -0.0811139 0
M  V30 9256 H 919.394 -2.93476 0.539876 0
M  V30 9257 C 918.143 -3.26131 -1.20555 0
M  V30 9258 H 917.466 -3.94166 -0.668803 0
M  V30 9259 H 918.906 -3.88167 -1.70593 0
M  V30 9260 C 917.365 -2.50132 -2.25689 0
M  V30 9261 O 917.895 -2.25064 -3.3273 0
M  V30 9262 N 916.101 -2.11022 -1.99795 0
M  V30 9263 H 915.648 -2.3161 -1.1276 0
M  V30 9264 H 915.606 -1.60489 -2.70353 0
M  V30 9265 N 919.378 -0.300708 -1.54705 0
M  V30 9266 C 920.626 0.308044 -1.99739 0
M  V30 9267 C 920.947 1.54433 -1.19061 0
M  V30 9268 O 920.217 1.93794 -0.286507 0
M  V30 9269 H 918.797 0.116811 -0.73781 0
M  V30 9270 H 921.459 -0.41197 -1.90496 0
M  V30 9271 H 920.555 0.580287 -3.06658 0
M  V30 9272 N 920.856 1.57574 -0.0284266 0
M  V30 9273 C 922.103 1.91772 0.650364 0
M  V30 9274 C 922.431 0.904769 1.72175 0
M  V30 9275 O 921.686 -0.0864038 1.95509 0
M  V30 9276 C 921.985 3.32699 1.3056 0
M  V30 9277 C 921.651 4.49423 0.364658 0
M  V30 9278 C 920.313 4.81084 0.105672 0
M  V30 9279 C 922.665 5.20439 -0.28151 0
M  V30 9280 C 919.993 5.81119 -0.8073 0
M  V30 9281 C 922.345 6.21449 -1.18253 0
M  V30 9282 C 921.009 6.51551 -1.45042 0
M  V30 9283 H 920.279 0.701744 0.237985 0
M  V30 9284 H 922.926 1.91288 -0.0900448 0
M  V30 9285 H 921.231 3.29441 2.12075 0
M  V30 9286 H 922.928 3.5643 1.83736 0
M  V30 9287 H 919.518 4.24703 0.576692 0
M  V30 9288 H 923.702 4.9621 -0.0944806 0
M  V30 9289 H 918.958 6.02788 -1.02256 0
M  V30 9290 H 923.132 6.75597 -1.68942 0
M  V30 9291 H 920.759 7.28882 -2.15951 0
M  V30 9292 N 922.334 -0.244713 1.55689 0
M  V30 9293 C 923.559 -0.994157 1.8202 0
M  V30 9294 C 923.984 -1.78079 0.60577 0
M  V30 9295 O 923.342 -1.75748 -0.445221 0
M  V30 9296 C 923.39 -1.90599 3.06111 0
M  V30 9297 O 922.494 -2.99804 2.8318 0
M  V30 9298 H 921.835 -0.282767 0.600782 0
M  V30 9299 H 924.365 -0.26504 2.02876 0
M  V30 9300 H 924.375 -2.32023 3.35603 0
M  V30 9301 H 923.05 -1.32763 3.9414 0
M  V30 9302 H 921.627 -2.62493 2.64862 0
M  V30 9303 N 923.813 -1.49104 -0.510467 0
M  V30 9304 C 924.743 -1.67981 -1.62187 0
M  V30 9305 C 925.724 -0.528529 -1.6168 0
M  V30 9306 O 926.909 -0.763305 -1.7857 0
M  V30 9307 C 924.039 -1.73755 -3.0071 0
M  V30 9308 C 922.993 -2.88579 -3.1608 0
M  V30 9309 C 922.319 -2.79457 -4.5586 0
M  V30 9310 C 923.619 -4.29638 -2.97 0
M  V30 9311 H 925.313 -2.61029 -1.46643 0
M  V30 9312 H 922.859 -1.25615 -0.704042 0
M  V30 9313 H 924.812 -1.85548 -3.78352 0
M  V30 9314 H 923.536 -0.772996 -3.17321 0
M  V30 9315 H 922.195 -2.76372 -2.40861 0
M  V30 9316 H 921.843 -1.80929 -4.69333 0
M  V30 9317 H 921.543 -3.56518 -4.67086 0
M  V30 9318 H 923.067 -2.93245 -5.35574 0
M  V30 9319 H 924.481 -4.42575 -3.64418 0
M  V30 9320 H 922.878 -5.07847 -3.19704 0
M  V30 9321 H 923.948 -4.44741 -1.93219 0
M  V30 9322 N 925.291 0.760815 -1.38019 0
M  V30 9323 C 926.537 1.52198 -1.34028 0
M  V30 9324 C 926.87 1.94067 0.0718309 0
M  V30 9325 O 926.145 1.64895 1.0315 0
M  V30 9326 C 926.428 2.77954 -2.2894 0
M  V30 9327 C 926.281 2.42269 -3.7898 0
M  V30 9328 C 927.6 3.79943 -2.22107 0
M  V30 9329 H 924.719 0.552131 -0.488181 0
M  V30 9330 H 927.361 0.871971 -1.6881 0
M  V30 9331 H 925.511 3.33419 -1.9941 0
M  V30 9332 H 927.183 1.92635 -4.19153 0
M  V30 9333 H 925.426 1.74822 -3.97014 0
M  V30 9334 H 926.097 3.32211 -4.4084 0
M  V30 9335 H 928.573 3.34 -2.4816 0
M  V30 9336 H 927.449 4.6564 -2.90639 0
M  V30 9337 H 927.71 4.25004 -1.21753 0
M  V30 9338 N 926.769 1.22769 0.988202 0
M  V30 9339 C 928.185 0.988665 1.2529 0
M  V30 9340 C 928.385 -0.314938 1.99024 0
M  V30 9341 O 927.441 -1.03637 2.30251 0
M  V30 9342 C 928.754 2.19046 2.06009 0
M  V30 9343 C 930.302 2.23452 2.19176 0
M  V30 9344 C 930.777 3.43196 3.03283 0
M  V30 9345 N 932.268 3.43387 3.10869 0
M  V30 9346 C 933.003 4.32693 3.7625 0
M  V30 9347 N 932.499 5.32224 4.43519 0
M  V30 9348 N 934.292 4.20457 3.73058 0
M  V30 9349 H 926.443 2.06575 0.494014 0
M  V30 9350 H 928.706 0.905452 0.28082 0
M  V30 9351 H 928.412 3.13607 1.59197 0
M  V30 9352 H 928.286 2.19492 3.06763 0
M  V30 9353 H 930.673 1.29436 2.65199 0
M  V30 9354 H 930.754 2.27042 1.17836 0
M  V30 9355 H 930.398 4.37515 2.57959 0
M  V30 9356 H 930.328 3.36847 4.04774 0
M  V30 9357 H 932.819 2.71368 2.62998 0
M  V30 9358 H 933.132 5.9664 4.91163 0
M  V30 9359 H 931.477 5.36133 4.42252 0
M  V30 9360 H 934.668 3.41949 3.19669 0
M  V30 9361 H 934.841 4.90261 4.23731 0
M  V30 9362 N 928.247 -1.18576 1.03814 0
M  V30 9363 C 929.194 -2.2212 0.626988 0
M  V30 9364 C 930.164 -1.62064 -0.363912 0
M  V30 9365 O 931.349 -1.89041 -0.258469 0
M  V30 9366 C 928.489 -3.45099 -0.00650133 0
M  V30 9367 C 927.602 -4.19503 1.03156 0
M  V30 9368 C 926.737 -5.29932 0.366852 0
M  V30 9369 C 925.776 -5.96104 1.39018 0
M  V30 9370 N 924.913 -6.98076 0.750625 0
M  V30 9371 H 929.753 -2.56646 1.51449 0
M  V30 9372 H 927.29 -1.26084 0.757702 0
M  V30 9373 H 929.248 -4.15363 -0.391108 0
M  V30 9374 H 927.878 -3.11201 -0.857536 0
M  V30 9375 H 926.93 -3.48092 1.53414 0
M  V30 9376 H 928.242 -4.64843 1.80893 0
M  V30 9377 H 927.396 -6.06657 -0.0720979 0
M  V30 9378 H 926.135 -4.85687 -0.442631 0
M  V30 9379 H 925.14 -5.18122 1.8393 0
M  V30 9380 H 926.365 -6.42432 2.20132 0
M  V30 9381 H 924.311 -6.55989 -0.0385981 0
M  V30 9382 H 924.228 -7.41655 1.46574 0
M  V30 9383 H 925.496 -7.78776 0.335986 0
M  V30 9384 N 929.725 -0.817259 -1.34754 0
M  V30 9385 C 930.974 -0.39908 -1.97713 0
M  V30 9386 C 931.287 1.04203 -1.65533 0
M  V30 9387 O 932.493 1.56384 -2.21937 0
M  V30 9388 C 930.949 -0.662634 -3.53747 0
M  V30 9389 C 930.557 -2.11699 -3.94826 0
M  V30 9390 C 932.301 -0.31034 -4.23364 0
M  V30 9391 C 930.208 -2.32573 -5.4375 0
M  V30 9392 H 929.138 -0.145488 -0.739831 0
M  V30 9393 H 931.789 -1.00282 -1.53674 0
M  V30 9394 H 930.171 0.0111972 -3.95998 0
M  V30 9395 H 931.345 -2.82951 -3.63697 0
M  V30 9396 H 929.66 -2.43017 -3.3813 0
M  V30 9397 H 932.257 -0.44421 -5.32852 0
M  V30 9398 H 932.6 0.744594 -4.09587 0
M  V30 9399 H 933.133 -0.938518 -3.8657 0
M  V30 9400 H 929.872 -3.36551 -5.62507 0
M  V30 9401 H 929.392 -1.65858 -5.76412 0
M  V30 9402 H 931.071 -2.14651 -6.10356 0
M  V30 9403 N 931.203 1.46865 -0.571711 0
M  V30 9404 C 932.449 2.0273 -0.0531858 0
M  V30 9405 C 932.782 1.44353 1.29907 0
M  V30 9406 O 932.057 0.604488 1.84868 0
M  V30 9407 C 932.34 3.60092 0.0243831 0
M  V30 9408 C 932.193 4.28874 -1.35599 0
M  V30 9409 C 933.512 4.33994 0.730563 0
M  V30 9410 H 930.631 0.736706 -0.0208018 0
M  V30 9411 H 933.273 1.75132 -0.736794 0
M  V30 9412 H 931.423 3.83736 0.606565 0
M  V30 9413 H 933.095 4.16527 -1.98249 0
M  V30 9414 H 931.338 3.88664 -1.92674 0
M  V30 9415 H 932.009 5.37561 -1.25429 0
M  V30 9416 H 934.485 4.1543 0.236098 0
M  V30 9417 H 933.361 5.43699 0.753836 0
M  V30 9418 H 933.622 4.04257 1.78967 0
M  V30 9419 N 932.681 0.308908 1.54543 0
M  V30 9420 C 933.644 -0.550857 2.22482 0
M  V30 9421 C 934.644 -1.0551 1.21344 0
M  V30 9422 O 935.834 -0.949866 1.46025 0
M  V30 9423 C 932.966 -1.76354 2.9174 0
M  V30 9424 H 934.159 0.0428395 2.99869 0
M  V30 9425 H 931.712 0.059825 1.56185 0
M  V30 9426 H 932.447 -2.39686 2.18451 0
M  V30 9427 H 932.232 -1.40954 3.65889 0
M  V30 9428 H 933.722 -2.37417 3.43545 0
M  V30 9429 N 934.159 -1.57557 0.0367827 0
M  V30 9430 C 935.106 -2.10679 -0.942499 0
M  V30 9431 C 936.076 -1.01068 -1.31812 0
M  V30 9432 O 937.261 -1.28533 -1.41011 0
M  V30 9433 C 934.401 -2.64467 -2.21701 0
M  V30 9434 C 933.514 -3.88114 -1.89715 0
M  V30 9435 C 932.649 -4.30268 -3.11518 0
M  V30 9436 C 931.688 -5.46652 -2.75387 0
M  V30 9437 N 930.825 -5.83927 -3.89838 0
M  V30 9438 H 935.665 -2.94066 -0.482588 0
M  V30 9439 H 933.202 -1.45344 -0.226597 0
M  V30 9440 H 935.16 -2.93745 -2.96259 0
M  V30 9441 H 933.79 -1.83898 -2.65295 0
M  V30 9442 H 932.842 -3.65516 -1.05366 0
M  V30 9443 H 934.154 -4.72743 -1.5911 0
M  V30 9444 H 933.308 -4.61023 -3.94389 0
M  V30 9445 H 932.047 -3.44421 -3.4529 0
M  V30 9446 H 931.052 -5.15583 -1.90929 0
M  V30 9447 H 932.277 -6.34204 -2.42822 0
M  V30 9448 H 930.223 -5.01035 -4.23438 0
M  V30 9449 H 930.14 -6.63214 -3.62883 0
M  V30 9450 H 931.408 -6.19291 -4.73391 0
M  V30 9451 N 935.637 0.236453 -1.55816 0
M  V30 9452 C 936.862 0.98449 -1.82545 0
M  V30 9453 C 937.287 1.77755 -0.615206 0
M  V30 9454 O 936.645 1.75982 0.435895 0
M  V30 9455 C 936.693 1.88973 -3.07118 0
M  V30 9456 O 935.797 2.98298 -2.84766 0
M  V30 9457 H 935.138 0.279577 -0.602273 0
M  V30 9458 H 937.668 0.254277 -2.03014 0
M  V30 9459 H 937.678 2.3024 -3.36829 0
M  V30 9460 H 936.353 1.30671 -3.94839 0
M  V30 9461 H 934.93 2.61085 -2.6625 0
M  V30 9462 N 937.115 1.49373 0.502552 0
M  V30 9463 C 938.34 1.62752 1.28556 0
M  V30 9464 C 938.765 0.298285 1.8572 0
M  V30 9465 O 938.123 -0.733885 1.65782 0
M  V30 9466 C 938.171 2.69778 2.39274 0
M  V30 9467 O 937.275 2.28843 3.43081 0
M  V30 9468 H 936.616 0.544799 0.379592 0
M  V30 9469 H 939.146 1.9555 0.601792 0
M  V30 9470 H 939.156 2.91899 2.8506 0
M  V30 9471 H 937.831 3.66266 1.97033 0
M  V30 9472 H 936.408 2.17047 3.03224 0
M  V30 9473 N 938.594 -0.753485 1.38421 0
M  V30 9474 C 939.524 -1.8808 1.38377 0
M  V30 9475 C 940.505 -1.68258 0.249664 0
M  V30 9476 O 941.69 -1.88848 0.45276 0
M  V30 9477 C 938.82 -3.25608 1.20818 0
M  V30 9478 C 937.774 -3.60032 2.31433 0
M  V30 9479 C 937.1 -4.96297 1.9898 0
M  V30 9480 C 938.4 -3.64898 3.73694 0
M  V30 9481 H 940.094 -1.88375 2.32713 0
M  V30 9482 H 937.64 -0.90489 1.12017 0
M  V30 9483 H 939.593 -4.04127 1.19412 0
M  V30 9484 H 938.317 -3.25793 0.229433 0
M  V30 9485 H 936.976 -2.83831 2.32025 0
M  V30 9486 H 936.624 -4.93043 0.995889 0
M  V30 9487 H 936.324 -5.20298 2.73063 0
M  V30 9488 H 937.848 -5.77196 1.99193 0
M  V30 9489 H 939.262 -4.33531 3.75132 0
M  V30 9490 H 937.659 -4.00407 4.46983 0
M  V30 9491 H 938.729 -2.65124 4.06002 0
M  V30 9492 N 940.072 -1.23292 -0.981677 0
M  V30 9493 C 941.004 -0.970782 -2.07626 0
M  V30 9494 C 942.017 0.0547506 -1.62708 0
M  V30 9495 O 943.206 -0.180623 -1.77584 0
M  V30 9496 C 940.306 -0.44055 -3.36024 0
M  V30 9497 C 939.479 -1.52595 -4.09919 0
M  V30 9498 C 938.538 -1.00082 -5.16595 0
M  V30 9499 O 937.564 -1.68951 -5.43548 0
M  V30 9500 N 938.766 0.172017 -5.80245 0
M  V30 9501 H 941.531 -1.91316 -2.30691 0
M  V30 9502 H 939.092 -1.14133 -1.14828 0
M  V30 9503 H 941.084 -0.0743111 -4.04632 0
M  V30 9504 H 939.654 0.407211 -3.09936 0
M  V30 9505 H 938.874 -2.06501 -3.35784 0
M  V30 9506 H 940.162 -2.2559 -4.56055 0
M  V30 9507 H 939.56 0.748129 -5.60731 0
M  V30 9508 H 938.117 0.479532 -6.50034 0
M  V30 9509 N 941.55 1.18024 -1.04442 0
M  V30 9510 C 942.78 1.91753 -0.769044 0
M  V30 9511 C 943.188 1.76629 0.678141 0
M  V30 9512 O 942.531 1.09589 1.47431 0
M  V30 9513 C 942.593 3.43505 -1.0604 0
M  V30 9514 C 942.257 3.82409 -2.50225 0
M  V30 9515 C 943.254 3.8588 -3.48414 0
M  V30 9516 C 940.939 4.13594 -2.85036 0
M  V30 9517 C 942.933 4.19993 -4.79463 0
M  V30 9518 C 940.62 4.47377 -4.1629 0
M  V30 9519 C 941.618 4.50553 -5.13314 0
M  V30 9520 O 941.306 4.83546 -6.42214 0
M  V30 9521 H 941.038 0.615466 -0.279603 0
M  V30 9522 H 943.592 1.5065 -1.3962 0
M  V30 9523 H 941.822 3.84866 -0.376125 0
M  V30 9524 H 943.511 3.98486 -0.772235 0
M  V30 9525 H 944.277 3.6192 -3.2286 0
M  V30 9526 H 940.156 4.10297 -2.10185 0
M  V30 9527 H 943.7 4.22387 -5.55189 0
M  V30 9528 H 939.597 4.70798 -4.4161 0
M  V30 9529 H 940.365 5.01433 -6.46921 0
M  V30 9530 N 943.028 0.824394 1.34319 0
M  V30 9531 C 944.253 0.425194 2.02995 0
M  V30 9532 C 944.678 -0.961476 1.6167 0
M  V30 9533 O 944.036 -1.62593 0.80207 0
M  V30 9534 C 944.084 0.537004 3.56579 0
M  V30 9535 O 943.188 -0.442576 4.10018 0
M  V30 9536 H 942.529 0.174853 0.640564 0
M  V30 9537 H 945.059 1.11522 1.71534 0
M  V30 9538 H 945.069 0.413311 4.05901 0
M  V30 9539 H 943.744 1.54836 3.86004 0
M  V30 9540 H 942.321 -0.277644 3.71865 0
M  V30 9541 N 944.506 -1.46559 0.579492 0
M  V30 9542 C 945.731 -2.0729 0.0674595 0
M  V30 9543 C 946.156 -1.4259 -1.22677 0
M  V30 9544 O 945.514 -0.50857 -1.74021 0
M  V30 9545 C 945.562 -3.60492 -0.0882227 0
M  V30 9546 O 944.666 -3.96172 -1.14551 0
M  V30 9547 H 944.007 -0.661159 0.0613536 0
M  V30 9548 H 946.537 -1.88247 0.801519 0
M  V30 9549 H 946.547 -4.06929 -0.295411 0
M  V30 9550 H 945.222 -4.06976 0.856943 0
M  V30 9551 H 943.799 -3.61448 -0.917033 0
M  V30 9552 N 945.984 -0.3171 -1.54377 0
M  V30 9553 C 947.395 0.172287 -1.85903 0
M  V30 9554 C 947.746 1.52141 -1.23885 0
M  V30 9555 O 946.871 2.0949 -0.542476 0
M  V30 9556 C 947.466 0.319392 -3.37291 0
M  V30 9557 C 946.025 0.752998 -3.68791 0
M  V30 9558 C 945.172 -0.129143 -2.76999 0
M  V30 9559 H 948.123 -0.537597 -1.49317 0
M  V30 9560 H 948.144 1.15137 -3.62662 0
M  V30 9561 H 947.656 -0.662671 -3.82401 0
M  V30 9562 H 945.757 1.74504 -3.2921 0
M  V30 9563 H 945.87 0.561228 -4.75801 0
M  V30 9564 H 944.234 0.394242 -2.5163 0
M  V30 9565 H 945.017 -1.10785 -3.24933 0
M  V30 9566 N 947.462 1.57535 -0.0451378 0
M  V30 9567 C 948.425 2.1008 0.916461 0
M  V30 9568 C 949.425 1.01913 1.2438 0
M  V30 9569 O 950.615 1.2801 1.18148 0
M  V30 9570 C 947.747 2.58001 2.22818 0
M  V30 9571 H 948.94 2.96334 0.461076 0
M  V30 9572 H 946.493 1.54974 0.203169 0
M  V30 9573 H 947.228 1.75123 2.72951 0
M  V30 9574 H 947.013 3.3704 2.00366 0
M  V30 9575 H 948.503 2.98822 2.9171 0
M  V30 9576 N 948.94 -0.228186 1.55939 0
M  V30 9577 C 950.351 -0.795734 1.68893 0
M  V30 9578 C 950.702 -1.85261 0.645967 0
M  V30 9579 O 949.827 -2.15434 -0.2042 0
M  V30 9580 C 950.422 -1.45013 3.06197 0
M  V30 9581 C 948.981 -1.96514 3.21028 0
M  V30 9582 C 948.128 -0.822918 2.64808 0
M  V30 9583 H 951.079 -0.0036485 1.587 0
M  V30 9584 H 951.1 -2.31875 3.01685 0
M  V30 9585 H 950.612 -0.680678 3.82084 0
M  V30 9586 H 948.713 -2.76282 2.49998 0
M  V30 9587 H 948.826 -2.14967 4.28166 0
M  V30 9588 H 947.19 -1.22846 2.23116 0
M  V30 9589 H 947.973 -0.0662493 3.43236 0
M  V30 9590 N 950.418 -1.49637 -0.494624 0
M  V30 9591 C 951.695 -1.4995 -1.25596 0
M  V30 9592 C 952.075 -0.230805 -2.09834 0
M  V30 9593 O 951.423 0.786625 -2.14533 0
M  V30 9594 C 951.633 -2.78204 -2.10721 0
M  V30 9595 C 952.981 -3.27946 -2.69698 0
M  V30 9596 O 954.005 -2.79365 -2.20984 0
M  V30 9597 O 952.864 -4.12571 -3.58395 0
M  V30 9598 H 949.958 -0.60044 -0.568684 0
M  V30 9599 H 952.504 -1.61906 -0.508371 0
M  V30 9600 H 951.276 -3.62029 -1.48494 0
M  V30 9601 H 950.899 -2.69139 -2.92661 0
M  V30 9602 N 951.896 0.746133 -1.38819 0
M  V30 9603 C 953.144 1.50247 -1.35167 0
M  V30 9604 C 953.465 1.94921 0.0553531 0
M  V30 9605 O 952.735 1.68187 1.00449 0
M  V30 9606 H 951.315 0.557337 -0.497377 0
M  V30 9607 H 953.977 0.886472 -1.73573 0
M  V30 9608 H 953.073 2.38986 -2.00728 0
M  V30 9609 N 953.375 1.23811 0.975125 0
M  V30 9610 C 954.615 1.08517 1.73215 0
M  V30 9611 C 954.979 -0.370777 1.88386 0
M  V30 9612 O 956.18 -0.645036 2.60946 0
M  V30 9613 C 954.451 1.79649 3.08968 0
M  V30 9614 S 956.01 1.79993 4.00185 0
M  V30 9615 H 952.828 0.388256 0.595633 0
M  V30 9616 H 955.43 1.57028 1.16458 0
M  V30 9617 H 954.134 2.8471 2.95581 0
M  V30 9618 H 953.665 1.31441 3.70792 0
M  V30 9619 H 955.68 0.862294 4.8865 0
M  V30 9620 N 954.853 -1.17469 1.05066 0
M  V30 9621 C 956.101 -1.87327 0.758485 0
M  V30 9622 C 956.422 -1.81358 -0.716549 0
M  V30 9623 O 955.692 -1.23868 -1.51768 0
M  V30 9624 H 954.272 -0.693512 0.277579 0
M  V30 9625 H 956.934 -1.4251 1.32954 0
M  V30 9626 H 956.03 -2.93101 1.0723 0
M  V30 9627 N 956.331 -0.831506 -1.3388 0
M  V30 9628 C 957.608 -0.345907 -1.92517 0
M  V30 9629 C 957.988 1.16784 -1.75854 0
M  V30 9630 O 957.336 1.97889 -1.14245 0
M  V30 9631 C 957.546 -0.784692 -3.40064 0
M  V30 9632 C 958.894 -0.78846 -4.17215 0
M  V30 9633 O 959.918 -0.727823 -3.48685 0
M  V30 9634 O 958.777 -0.869481 -5.39539 0
M  V30 9635 H 955.871 -0.0963568 -0.821367 0
M  V30 9636 H 958.417 -0.916868 -1.42799 0
M  V30 9637 H 957.189 -1.82697 -3.46031 0
M  V30 9638 H 956.812 -0.189897 -3.97146 0
M  V30 9639 N 957.809 1.4625 -0.587256 0
M  V30 9640 C 958.741 2.28482 0.181256 0
M  V30 9641 C 959.754 1.38777 0.851163 0
M  V30 9642 O 960.943 1.63336 0.719963 0
M  V30 9643 C 958.043 3.13944 1.27643 0
M  V30 9644 C 957.216 4.31802 0.697569 0
M  V30 9645 C 956.275 4.98626 1.68102 0
M  V30 9646 O 955.301 5.56075 1.21529 0
M  V30 9647 N 956.503 4.96051 3.0152 0
M  V30 9648 H 959.268 2.95079 -0.524267 0
M  V30 9649 H 956.829 1.56213 -0.425336 0
M  V30 9650 H 958.821 3.55513 1.93371 0
M  V30 9651 H 957.391 2.49391 1.88475 0
M  V30 9652 H 956.611 3.93961 -0.137293 0
M  V30 9653 H 957.899 5.07969 0.290696 0
M  V30 9654 H 957.297 4.5063 3.41978 0
M  V30 9655 H 955.854 5.41547 3.62725 0
M  V30 9656 N 959.287 0.325282 1.54207 0
M  V30 9657 C 960.515 -0.27869 2.05014 0
M  V30 9658 C 960.93 -1.45649 1.20133 0
M  V30 9659 O 960.287 -1.81014 0.232398 0
M  V30 9660 C 960.338 -0.711486 3.54429 0
M  V30 9661 O 960.059 0.419458 4.36087 0
M  V30 9662 C 961.56 -1.37809 4.21336 0
M  V30 9663 H 958.78 -0.0570388 0.668571 0
M  V30 9664 H 961.324 0.47197 1.98979 0
M  V30 9665 H 959.479 -1.41212 3.60746 0
M  V30 9666 H 959.893 0.0781037 5.24442 0
M  V30 9667 H 961.367 -1.63184 5.27328 0
M  V30 9668 H 961.844 -2.32593 3.72555 0
M  V30 9669 H 962.45 -0.719987 4.19161 0
M  V30 9670 N 960.765 -1.57509 0.0534917 0
M  V30 9671 C 961.695 -2.14698 -0.917999 0
M  V30 9672 C 962.676 -1.06924 -1.32292 0
M  V30 9673 O 963.861 -1.34875 -1.39723 0
M  V30 9674 C 960.991 -2.69383 -2.19203 0
M  V30 9675 C 959.945 -3.82161 -1.9271 0
M  V30 9676 C 959.271 -4.23373 -3.26587 0
M  V30 9677 C 960.571 -5.07199 -1.24686 0
M  V30 9678 H 962.265 -2.96125 -0.44165 0
M  V30 9679 H 959.811 -1.42446 -0.210993 0
M  V30 9680 H 961.764 -3.08031 -2.87567 0
M  V30 9681 H 960.488 -1.85151 -2.69048 0
M  V30 9682 H 959.147 -3.43989 -1.26757 0
M  V30 9683 H 958.795 -3.36089 -3.74237 0
M  V30 9684 H 958.495 -4.99385 -3.09658 0
M  V30 9685 H 960.019 -4.64623 -3.96178 0
M  V30 9686 H 961.433 -5.43279 -1.83088 0
M  V30 9687 H 959.83 -5.88369 -1.18076 0
M  V30 9688 H 960.9 -4.84386 -0.223227 0
M  V30 9689 N 962.243 0.219913 -1.56058 0
M  V30 9690 C 963.491 0.942199 -1.78793 0
M  V30 9691 C 963.812 1.84804 -0.622284 0
M  V30 9692 O 963.082 1.9255 0.360735 0
M  V30 9693 H 961.662 0.350895 -0.659455 0
M  V30 9694 H 964.324 0.231376 -1.93522 0
M  V30 9695 H 963.42 1.54804 -2.71002 0
M  V30 9696 N 963.721 1.49897 0.486681 0
M  V30 9697 C 964.998 1.50614 1.24799 0
M  V30 9698 C 965.378 0.24193 2.09709 0
M  V30 9699 O 964.726 -0.775237 2.14947 0
M  V30 9700 C 964.936 2.79318 2.09243 0
M  V30 9701 C 966.284 3.29371 2.67955 0
M  V30 9702 O 967.308 2.80533 2.19499 0
M  V30 9703 O 966.167 4.14466 3.56202 0
M  V30 9704 H 963.261 0.603447 0.565491 0
M  V30 9705 H 965.807 1.62174 0.499778 0
M  V30 9706 H 964.579 3.62812 1.46572 0
M  V30 9707 H 964.202 2.70687 2.91229 0
M  V30 9708 N 965.199 -0.738761 1.39212 0
M  V30 9709 C 966.129 -1.86602 1.40364 0
M  V30 9710 C 967.11 -1.67984 0.267495 0
M  V30 9711 O 968.295 -1.88358 0.472765 0
M  V30 9712 C 965.425 -3.24308 1.24265 0
M  V30 9713 C 964.379 -3.57557 2.35239 0
M  V30 9714 C 963.705 -4.94159 2.04233 0
M  V30 9715 C 965.005 -3.60914 3.77543 0
M  V30 9716 H 966.699 -1.85896 2.34698 0
M  V30 9717 H 964.245 -0.892959 1.1297 0
M  V30 9718 H 966.198 -4.02838 1.23692 0
M  V30 9719 H 964.922 -3.25531 0.263974 0
M  V30 9720 H 963.581 -2.81354 2.35022 0
M  V30 9721 H 963.229 -4.91959 1.04813 0
M  V30 9722 H 962.929 -5.17373 2.78567 0
M  V30 9723 H 964.453 -5.7505 2.05303 0
M  V30 9724 H 965.867 -4.29528 3.79709 0
M  V30 9725 H 964.264 -3.95644 4.51205 0
M  V30 9726 H 965.334 -2.60803 4.08791 0
M  V30 9727 N 966.677 -1.24326 -0.968545 0
M  V30 9728 C 967.607 -1.05951 -2.08079 0
M  V30 9729 C 968.588 0.0272666 -1.70078 0
M  V30 9730 O 969.773 -0.139644 -1.93697 0
M  V30 9731 C 966.903 -0.662623 -3.4092 0
M  V30 9732 C 965.857 -1.69807 -3.92873 0
M  V30 9733 C 965.183 -1.15628 -5.22048 0
M  V30 9734 C 966.483 -3.09383 -4.20808 0
M  V30 9735 H 968.177 -1.98984 -2.23709 0
M  V30 9736 H 965.723 -0.958112 -1.075 0
M  V30 9737 H 967.676 -0.521071 -4.18166 0
M  V30 9738 H 966.4 0.303399 -3.25188 0
M  V30 9739 H 965.059 -1.82783 -3.17783 0
M  V30 9740 H 964.707 -0.180888 -5.02675 0
M  V30 9741 H 964.407 -1.84822 -5.57776 0
M  V30 9742 H 965.931 -1.02683 -6.01904 0
M  V30 9743 H 967.345 -2.99642 -4.88761 0
M  V30 9744 H 965.742 -3.75923 -4.67763 0
M  V30 9745 H 966.812 -3.57486 -3.27616 0
M  V30 9746 N 968.156 1.1691 -1.05688 0
M  V30 9747 C 969.086 2.23275 -0.683402 0
M  V30 9748 C 970.067 1.6704 0.321206 0
M  V30 9749 O 971.252 1.93191 0.197691 0
M  V30 9750 C 968.382 3.47244 -0.0626006 0
M  V30 9751 C 967.336 4.16333 -0.992513 0
M  V30 9752 C 966.662 5.34182 -0.23533 0
M  V30 9753 C 967.962 4.68002 -2.31886 0
M  V30 9754 H 969.656 2.54771 -1.57264 0
M  V30 9755 H 967.202 1.2246 -0.757606 0
M  V30 9756 H 969.155 4.20874 0.210503 0
M  V30 9757 H 967.879 3.1503 0.861616 0
M  V30 9758 H 966.538 3.44622 -1.25026 0
M  V30 9759 H 966.186 4.9822 0.69181 0
M  V30 9760 H 965.886 5.81346 -0.855002 0
M  V30 9761 H 967.41 6.10592 0.0303717 0
M  V30 9762 H 968.824 5.33244 -2.10531 0
M  V30 9763 H 967.221 5.25764 -2.89296 0
M  V30 9764 H 968.291 3.84541 -2.95391 0
M  V30 9765 N 969.634 0.838594 1.33437 0
M  V30 9766 C 970.862 0.447644 2.01999 0
M  V30 9767 C 971.277 -0.951053 1.63096 0
M  V30 9768 O 970.634 -1.61802 0.844169 0
M  V30 9769 C 970.685 0.558378 3.57162 0
M  V30 9770 O 970.406 1.90196 3.94661 0
M  V30 9771 C 971.907 0.164348 4.42995 0
M  V30 9772 H 969.127 0.177736 0.647032 0
M  V30 9773 H 971.671 1.13109 1.70372 0
M  V30 9774 H 969.826 -0.0771563 3.87323 0
M  V30 9775 H 970.24 1.88729 4.89369 0
M  V30 9776 H 971.714 0.292876 5.51222 0
M  V30 9777 H 972.191 -0.893713 4.30011 0
M  V30 9778 H 972.797 0.774306 4.18192 0
M  V30 9779 N 971.112 -1.45937 0.595003 0
M  V30 9780 C 972.523 -1.85908 0.171779 0
M  V30 9781 C 972.874 -1.497 -1.26824 0
M  V30 9782 O 971.999 -0.917688 -1.95978 0
M  V30 9783 C 972.594 -3.37425 0.304976 0
M  V30 9784 C 971.153 -3.76346 -0.0634635 0
M  V30 9785 C 970.3 -2.69926 0.635255 0
M  V30 9786 H 973.251 -1.36916 0.802471 0
M  V30 9787 H 973.272 -3.77632 -0.466313 0
M  V30 9788 H 972.784 -3.63747 1.35314 0
M  V30 9789 H 970.885 -3.55642 -1.11129 0
M  V30 9790 H 970.998 -4.78021 0.321419 0
M  V30 9791 H 969.362 -2.54592 0.0742054 0
M  V30 9792 H 970.145 -2.99086 1.68531 0
M  V30 9793 N 972.59 -0.333456 -1.54032 0
M  V30 9794 C 973.818 0.267813 -2.05159 0
M  V30 9795 C 974.233 1.4501 -1.20903 0
M  V30 9796 O 973.59 1.80888 -0.241994 0
M  V30 9797 C 973.641 0.69268 -3.54802 0
M  V30 9798 O 973.362 -0.442579 -4.35859 0
M  V30 9799 C 974.863 1.35572 -4.2206 0
M  V30 9800 H 972.083 0.0534924 -0.668864 0
M  V30 9801 H 974.627 -0.482515 -1.98726 0
M  V30 9802 H 972.782 1.39297 -3.6149 0
M  V30 9803 H 973.196 -0.105915 -5.24393 0
M  V30 9804 H 974.67 1.60385 -5.28186 0
M  V30 9805 H 975.147 2.30614 -3.73783 0
M  V30 9806 H 975.753 0.697748 -4.19537 0
M  V30 9807 N 974.068 1.57479 -0.061844 0
M  V30 9808 C 975.484 1.56855 0.294753 0
M  V30 9809 C 975.684 1.07042 1.70717 0
M  V30 9810 O 974.74 0.731817 2.41662 0
M  V30 9811 C 976.053 3.00486 0.113484 0
M  V30 9812 C 977.601 3.1246 0.183778 0
M  V30 9813 C 978.076 4.5799 0.0309092 0
M  V30 9814 N 979.567 4.63119 0.0868393 0
M  V30 9815 C 980.302 5.734 -0.00717446 0
M  V30 9816 N 979.798 6.92628 -0.154144 0
M  V30 9817 N 981.591 5.62078 0.0491763 0
M  V30 9818 H 973.742 1.88176 -0.985058 0
M  V30 9819 H 976.005 0.867051 -0.383309 0
M  V30 9820 H 975.711 3.41004 -0.86075 0
M  V30 9821 H 975.585 3.67029 0.870023 0
M  V30 9822 H 977.972 2.71834 1.14849 0
M  V30 9823 H 978.053 2.48574 -0.603697 0
M  V30 9824 H 977.697 4.99303 -0.930526 0
M  V30 9825 H 977.627 5.19895 0.837664 0
M  V30 9826 H 980.118 3.77374 0.199245 0
M  V30 9827 H 980.431 7.72492 -0.218296 0
M  V30 9828 H 978.776 6.94742 -0.189372 0
M  V30 9829 H 981.967 4.67817 0.162626 0
M  V30 9830 H 982.14 6.47994 -0.0275478 0
M  V30 9831 N 975.546 -0.211634 1.56173 0
M  V30 9832 C 976.795 -0.932647 1.78842 0
M  V30 9833 C 977.108 -1.85103 0.63217 0
M  V30 9834 O 978.314 -2.61143 0.742746 0
M  V30 9835 C 976.77 -1.70866 3.16753 0
M  V30 9836 C 976.378 -0.835934 4.40132 0
M  V30 9837 C 978.122 -2.4203 3.48743 0
M  V30 9838 C 976.029 -1.60987 5.69067 0
M  V30 9839 H 974.959 -0.351983 0.666801 0
M  V30 9840 H 977.61 -0.186284 1.82552 0
M  V30 9841 H 975.992 -2.4983 3.07247 0
M  V30 9842 H 977.166 -0.0861298 4.60719 0
M  V30 9843 H 975.481 -0.235941 4.15731 0
M  V30 9844 H 978.078 -3.00453 4.42303 0
M  V30 9845 H 978.421 -3.15406 2.71707 0
M  V30 9846 H 978.954 -1.70048 3.59623 0
M  V30 9847 H 975.693 -0.9192 6.49023 0
M  V30 9848 H 975.213 -2.33403 5.52524 0
M  V30 9849 H 976.892 -2.16798 6.09596 0
M  V30 9850 N 977.024 -1.50153 -0.478725 0
M  V30 9851 C 978.254 -1.64266 -1.253 0
M  V30 9852 C 978.662 -0.322256 -1.86435 0
M  V30 9853 O 978.005 0.704925 -1.69636 0
M  V30 9854 C 978.067 -2.67017 -2.40712 0
M  V30 9855 C 977.731 -4.10779 -2.00274 0
M  V30 9856 C 978.728 -4.96889 -1.52963 0
M  V30 9857 C 976.413 -4.5665 -2.09228 0
M  V30 9858 C 978.407 -6.26914 -1.15139 0
M  V30 9859 C 976.094 -5.86683 -1.71015 0
M  V30 9860 C 977.092 -6.71641 -1.24048 0
M  V30 9861 O 976.78 -7.99248 -0.863617 0
M  V30 9862 H 976.512 -0.555382 -0.385392 0
M  V30 9863 H 979.066 -1.97078 -0.578751 0
M  V30 9864 H 977.296 -2.29432 -3.11284 0
M  V30 9865 H 978.985 -2.70428 -3.02694 0
M  V30 9866 H 979.751 -4.62669 -1.45474 0
M  V30 9867 H 975.63 -3.90674 -2.44735 0
M  V30 9868 H 979.174 -6.93179 -0.784089 0
M  V30 9869 H 975.071 -6.20426 -1.78162 0
M  V30 9870 H 975.839 -8.12452 -0.993139 0
M  V30 9871 N 978.502 0.731368 -1.39602 0
M  V30 9872 C 979.727 1.52567 -1.40492 0
M  V30 9873 C 980.152 1.881 -0.00228828 0
M  V30 9874 O 979.51 1.52167 0.985643 0
M  V30 9875 C 979.558 2.78749 -2.2876 0
M  V30 9876 O 978.662 3.7482 -1.71999 0
M  V30 9877 H 978.003 0.460601 -0.478271 0
M  V30 9878 H 980.533 0.902042 -1.83642 0
M  V30 9879 H 980.543 3.27446 -2.43399 0
M  V30 9880 H 979.218 2.5222 -3.30693 0
M  V30 9881 H 977.795 3.33604 -1.66622 0
M  V30 9882 N 979.98 1.24838 0.961938 0
M  V30 9883 C 980.93 1.01276 2.04272 0
M  V30 9884 C 981.914 -0.0478239 1.60829 0
M  V30 9885 O 983.106 0.166616 1.76214 0
M  V30 9886 C 980.235 0.625659 3.37551 0
M  V30 9887 C 979.321 1.72262 3.87539 0
M  V30 9888 N 979.712 2.95644 4.104 0
M  V30 9889 C 978.01 1.60146 4.16256 0
M  V30 9890 C 978.711 3.66796 4.51482 0
M  V30 9891 N 977.687 2.94383 4.56989 0
M  V30 9892 H 981.489 1.94956 2.19931 0
M  V30 9893 H 979.003 1.15049 1.14619 0
M  V30 9894 H 981 0.438072 4.14592 0
M  V30 9895 H 979.66 -0.303887 3.23275 0
M  V30 9896 H 980.671 3.31764 3.97685 0
M  V30 9897 H 977.348 0.740353 4.10883 0
M  V30 9898 H 978.738 4.72664 4.77534 0
M  V30 9899 N 981.458 -1.16348 1.06306 0
M  V30 9900 C 982.683 -1.91323 0.800636 0
M  V30 9901 C 983.108 -1.7691 -0.639105 0
M  V30 9902 O 982.466 -1.0945 -1.44535 0
M  V30 9903 C 982.514 -3.40038 1.20027 0
M  V30 9904 O 981.618 -4.11003 0.339142 0
M  V30 9905 H 980.959 -0.596057 0.292595 0
M  V30 9906 H 983.489 -1.47406 1.41889 0
M  V30 9907 H 983.499 -3.90808 1.17188 0
M  V30 9908 H 982.174 -3.49848 2.24898 0
M  V30 9909 H 980.751 -3.70423 0.42911 0
M  V30 9910 N 982.937 -0.845659 -1.3299 0
M  V30 9911 C 983.867 -0.298957 -2.31578 0
M  V30 9912 C 984.848 0.597012 -1.59279 0
M  V30 9913 O 986.033 0.519142 -1.87132 0
M  V30 9914 C 983.163 0.521109 -3.43368 0
M  V30 9915 C 982.117 -0.279651 -4.27085 0
M  V30 9916 C 981.443 0.664591 -5.30554 0
M  V30 9917 C 982.743 -1.50046 -5.00283 0
M  V30 9918 H 984.437 -1.12272 -2.77552 0
M  V30 9919 H 981.983 -0.54132 -1.33438 0
M  V30 9920 H 983.936 0.913921 -4.1137 0
M  V30 9921 H 982.66 1.37815 -2.96099 0
M  V30 9922 H 981.319 -0.654106 -3.60717 0
M  V30 9923 H 980.967 1.51822 -4.79541 0
M  V30 9924 H 980.667 0.132871 -5.8745 0
M  V30 9925 H 982.191 1.05477 -6.01421 0
M  V30 9926 H 983.605 -1.18044 -5.61016 0
M  V30 9927 H 982.002 -1.96946 -5.66862 0
M  V30 9928 H 983.072 -2.26659 -4.28665 0
M  V30 9929 N 984.415 1.45619 -0.602734 0
M  V30 9930 C 985.345 2.33258 0.106342 0
M  V30 9931 C 986.326 1.46543 0.863664 0
M  V30 9932 O 987.511 1.75324 0.835175 0
M  V30 9933 C 984.641 3.29168 1.10751 0
M  V30 9934 C 983.595 4.25481 0.463717 0
M  V30 9935 C 982.921 5.11046 1.57278 0
M  V30 9936 C 984.221 5.18702 -0.61199 0
M  V30 9937 H 985.915 2.92795 -0.625423 0
M  V30 9938 H 983.461 1.40793 -0.302213 0
M  V30 9939 H 985.414 3.89346 1.61208 0
M  V30 9940 H 984.138 2.6778 1.8698 0
M  V30 9941 H 982.797 3.66595 -0.0199496 0
M  V30 9942 H 982.445 4.46029 2.32524 0
M  V30 9943 H 982.145 5.76286 1.14755 0
M  V30 9944 H 983.669 5.74091 2.07972 0
M  V30 9945 H 985.083 5.72979 -0.191686 0
M  V30 9946 H 983.48 5.92393 -0.958686 0
M  V30 9947 H 984.55 4.61424 -1.4905 0
M  V30 9948 N 985.893 0.34162 1.53853 0
M  V30 9949 C 987.304 -0.14269 1.86154 0
M  V30 9950 C 987.655 -1.50151 1.2629 0
M  V30 9951 O 986.78 -2.08601 0.575735 0
M  V30 9952 C 987.375 -0.265691 3.37757 0
M  V30 9953 C 985.934 -0.694231 3.69942 0
M  V30 9954 C 985.081 0.173195 2.76759 0
M  V30 9955 H 988.032 0.561284 1.48443 0
M  V30 9956 H 988.053 -1.09352 3.64448 0
M  V30 9957 H 987.565 0.723424 3.81298 0
M  V30 9958 H 985.666 -1.69244 3.31945 0
M  V30 9959 H 985.779 -0.485461 4.76634 0
M  V30 9960 H 984.143 -0.35416 2.52226 0
M  V30 9961 H 984.926 1.15941 3.23129 0
M  V30 9962 N 987.371 -1.57444 0.0701946 0
M  V30 9963 C 988.617 -1.93716 -0.600178 0
M  V30 9964 C 988.95 -0.950329 -1.69359 0
M  V30 9965 O 988.225 0.0207123 -1.94489 0
M  V30 9966 C 988.508 -3.40266 -1.17861 0
M  V30 9967 C 988.361 -4.49706 -0.0919575 0
M  V30 9968 C 989.68 -3.87599 -2.08459 0
M  V30 9969 H 986.799 -0.704421 -0.216704 0
M  V30 9970 H 989.441 -1.89514 0.135838 0
M  V30 9971 H 987.591 -3.43977 -1.80587 0
M  V30 9972 H 989.263 -4.58116 0.541031 0
M  V30 9973 H 987.506 -4.29937 0.577639 0
M  V30 9974 H 988.177 -5.49381 -0.537048 0
M  V30 9975 H 990.653 -3.85883 -1.5567 0
M  V30 9976 H 989.529 -4.90755 -2.45867 0
M  V30 9977 H 989.79 -3.25448 -2.99226 0
M  V30 9978 N 988.849 0.203349 -1.56283 0
M  V30 9979 C 989.779 1.2549 -1.96912 0
M  V30 9980 C 990.76 1.47919 -0.839884 0
M  V30 9981 O 991.945 1.59795 -1.10359 0
M  V30 9982 C 989.075 2.6009 -2.30153 0
M  V30 9983 C 988.029 2.52289 -3.45738 0
M  V30 9984 C 987.355 3.91086 -3.64632 0
M  V30 9985 C 988.655 2.05503 -4.80173 0
M  V30 9986 H 990.349 0.917306 -2.85002 0
M  V30 9987 H 987.895 0.439818 -1.37119 0
M  V30 9988 H 989.848 3.33829 -2.5717 0
M  V30 9989 H 988.572 2.95574 -1.38937 0
M  V30 9990 H 987.231 1.81006 -3.18798 0
M  V30 9991 H 986.879 4.23908 -2.7076 0
M  V30 9992 H 986.579 3.86742 -4.42385 0
M  V30 9993 H 988.103 4.66459 -3.94016 0
M  V30 9994 H 989.517 2.68995 -5.06275 0
M  V30 9995 H 987.914 2.1218 -5.61337 0
M  V30 9996 H 988.984 1.00793 -4.74309 0
M  V30 9997 N 990.327 1.50405 0.470755 0
M  V30 9998 C 991.743 1.37838 0.804534 0
M  V30 9999 C 991.943 0.434743 1.96754 0
M  V30 10000 O 990.999 -0.122507 2.52203 0
M  V30 10001 C 992.312 2.79212 1.11629 0
M  V30 10002 C 993.86 2.88129 1.22272 0
M  V30 10003 C 994.335 4.30337 1.5676 0
M  V30 10004 N 995.826 4.3329 1.63751 0
M  V30 10005 C 996.561 5.4032 1.91942 0
M  V30 10006 N 996.057 6.57558 2.18151 0
M  V30 10007 N 997.85 5.27764 1.93446 0
M  V30 10008 H 990.001 2.10332 -0.295689 0
M  V30 10009 H 992.264 0.945429 -0.0697733 0
M  V30 10010 H 991.97 3.50103 0.334778 0
M  V30 10011 H 991.844 3.16475 2.0524 0
M  V30 10012 H 994.231 2.17457 1.9949 0
M  V30 10013 H 994.312 2.54409 0.2664 0
M  V30 10014 H 993.956 5.01547 0.800817 0
M  V30 10015 H 993.886 4.61545 2.53543 0
M  V30 10016 H 996.377 3.48752 1.45535 0
M  V30 10017 H 996.69 7.34935 2.38936 0
M  V30 10018 H 995.035 6.60732 2.15542 0
M  V30 10019 H 998.226 4.35169 1.72468 0
M  V30 10020 H 998.399 6.11264 2.15081 0
M  V30 10021 N 991.805 -0.723954 1.39988 0
M  V30 10022 C 993.03 -1.5182 1.41299 0
M  V30 10023 C 993.455 -1.88096 0.0122636 0
M  V30 10024 O 992.813 -1.52687 -0.977559 0
M  V30 10025 C 992.861 -2.77532 2.30235 0
M  V30 10026 O 991.965 -3.73903 1.73984 0
M  V30 10027 H 991.306 -0.458058 0.480707 0
M  V30 10028 H 993.836 -0.892291 1.84118 0
M  V30 10029 H 993.846 -3.2615 2.45132 0
M  V30 10030 H 992.521 -2.50462 3.32026 0
M  V30 10031 H 991.098 -3.32715 1.68389 0
M  V30 10032 N 993.283 -1.25346 -0.955304 0
M  V30 10033 C 994.531 -1.09837 -1.69647 0
M  V30 10034 C 994.852 0.361425 -1.91621 0
M  V30 10035 O 994.122 1.25666 -1.50283 0
M  V30 10036 H 992.702 -0.403467 -0.628668 0
M  V30 10037 H 995.364 -1.57459 -1.14859 0
M  V30 10038 H 994.46 -1.60616 -2.67598 0
M  V30 10039 N 994.761 1.15782 -1.06922 0
M  V30 10040 C 995.711 2.18373 -0.655537 0
M  V30 10041 C 996.695 1.57745 0.317084 0
M  V30 10042 O 997.887 1.76511 0.131509 0
M  V30 10043 C 995.016 3.43263 -0.0502314 0
M  V30 10044 C 994.102 4.10954 -1.04773 0
M  V30 10045 N 994.493 4.542 -2.22567 0
M  V30 10046 C 992.791 4.3723 -0.880087 0
M  V30 10047 C 993.492 5.06641 -2.85815 0
M  V30 10048 N 992.468 4.99917 -2.13505 0
M  V30 10049 H 996.27 2.49533 -1.55276 0
M  V30 10050 H 993.784 1.32303 -0.941793 0
M  V30 10051 H 995.781 4.16063 0.264003 0
M  V30 10052 H 994.441 3.13588 0.842167 0
M  V30 10053 H 995.452 4.47727 -2.60309 0
M  V30 10054 H 992.129 4.17481 -0.0402148 0
M  V30 10055 H 993.519 5.50092 -3.85808 0
M  V30 10056 N 996.239 0.8527 1.3254 0
M  V30 10057 C 997.485 0.455798 1.97612 0
M  V30 10058 C 997.818 -0.985616 1.6733 0
M  V30 10059 O 997.093 -1.69129 0.960493 0
M  V30 10060 C 997.376 0.69312 3.53366 0
M  V30 10061 C 997.229 2.18281 3.93285 0
M  V30 10062 C 998.548 0.148236 4.3985 0
M  V30 10063 H 995.667 0.167078 0.717812 0
M  V30 10064 H 998.309 1.07076 1.56954 0
M  V30 10065 H 996.459 0.169677 3.88129 0
M  V30 10066 H 998.131 2.77218 3.68711 0
M  V30 10067 H 996.374 2.66206 3.42515 0
M  V30 10068 H 997.045 2.29957 5.01821 0
M  V30 10069 H 999.521 0.595834 4.11812 0
M  V30 10070 H 998.397 0.343873 5.47822 0
M  V30 10071 H 998.658 -0.948872 4.31797 0
M  V30 10072 N 997.718 -1.45297 0.610449 0
M  V30 10073 C 998.665 -2.30553 -0.106718 0
M  V30 10074 C 999.635 -1.42272 -0.85719 0
M  V30 10075 O 1000.82 -1.71199 -0.842357 0
M  V30 10076 C 997.96 -3.27226 -1.09623 0
M  V30 10077 C 997.073 -4.3061 -0.346329 0
M  V30 10078 C 996.208 -5.14389 -1.32581 0
M  V30 10079 C 995.247 -6.09497 -0.563892 0
M  V30 10080 N 994.384 -6.86047 -1.4928 0
M  V30 10081 H 999.224 -2.91344 0.626296 0
M  V30 10082 H 996.761 -1.43563 0.32065 0
M  V30 10083 H 998.719 -3.81744 -1.68308 0
M  V30 10084 H 997.349 -2.68182 -1.79662 0
M  V30 10085 H 996.401 -3.7873 0.356084 0
M  V30 10086 H 997.713 -4.98183 0.248026 0
M  V30 10087 H 996.867 -5.73321 -1.98464 0
M  V30 10088 H 995.606 -4.4684 -1.9541 0
M  V30 10089 H 994.611 -5.49693 0.108551 0
M  V30 10090 H 995.836 -6.79074 0.0593872 0
M  V30 10091 H 993.782 -6.21185 -2.10868 0
M  V30 10092 H 993.699 -7.49983 -0.951953 0
M  V30 10093 H 994.967 -7.49518 -2.14112 0
M  V30 10094 N 999.196 -0.349774 -1.5367 0
M  V30 10095 C 1000.16 0.491676 -2.23864 0
M  V30 10096 C 1001.16 1.02256 -1.24098 0
M  V30 10097 O 1002.35 0.910816 -1.48492 0
M  V30 10098 C 999.481 1.68557 -2.96313 0
M  V30 10099 H 1000.67 -0.12233 -2.9965 0
M  V30 10100 H 998.227 -0.101214 -1.55972 0
M  V30 10101 H 998.962 2.3381 -2.2473 0
M  V30 10102 H 998.747 1.31203 -3.69497 0
M  V30 10103 H 1000.24 2.28225 -3.49718 0
M  V30 10104 N 1000.67 1.57404 -0.0785433 0
M  V30 10105 C 1001.92 1.93744 0.589024 0
M  V30 10106 C 1002.25 0.959087 1.69209 0
M  V30 10107 O 1001.5 -0.0241604 1.95685 0
M  V30 10108 C 1001.8 3.36684 1.1991 0
M  V30 10109 C 1001.47 4.50356 0.221493 0
M  V30 10110 C 1000.13 4.81177 -0.0474347 0
M  V30 10111 C 1002.48 5.1928 -0.446941 0
M  V30 10112 C 999.811 5.78257 -0.99177 0
M  V30 10113 C 1002.16 6.17372 -1.37964 0
M  V30 10114 C 1000.83 6.46607 -1.65697 0
M  V30 10115 H 1000.1 0.70896 0.215539 0
M  V30 10116 H 1002.74 1.90905 -0.150856 0
M  V30 10117 H 1001.05 3.36022 2.01486 0
M  V30 10118 H 1002.75 3.62095 1.72303 0
M  V30 10119 H 999.336 4.26322 0.441284 0
M  V30 10120 H 1003.52 4.95658 -0.252298 0
M  V30 10121 H 998.776 5.9923 -1.21381 0
M  V30 10122 H 1002.95 6.6988 -1.9035 0
M  V30 10123 H 1000.58 7.21643 -2.39031 0
M  V30 10124 N 1002.15 -0.195058 1.56388 0
M  V30 10125 C 1003.11 -1.2254 1.93692 0
M  V30 10126 C 1004.11 -1.38437 0.81804 0
M  V30 10127 O 1005.3 -1.36248 1.08545 0
M  V30 10128 C 1002.44 -2.59476 2.21099 0
M  V30 10129 H 1003.63 -0.906544 2.8587 0
M  V30 10130 H 1001.18 -0.436577 1.50079 0
M  V30 10131 H 1001.92 -2.96417 1.31558 0
M  V30 10132 H 1001.7 -2.4931 3.02634 0
M  V30 10133 H 1003.19 -3.33777 2.50964 0
M  V30 10134 N 1003.63 -1.50653 -0.462772 0
M  V30 10135 C 1004.58 -1.66509 -1.55752 0
M  V30 10136 C 1005.56 -0.519508 -1.52282 0
M  V30 10137 O 1006.76 -0.774296 -1.59166 0
M  V30 10138 C 1003.88 -1.77023 -2.94139 0
M  V30 10139 C 1002.97 -2.97284 -3.02461 0
M  V30 10140 N 1003.36 -4.20843 -2.80579 0
M  V30 10141 C 1001.66 -2.96014 -3.33604 0
M  V30 10142 C 1002.36 -5.01886 -2.94084 0
M  V30 10143 N 1001.34 -4.3601 -3.24648 0
M  V30 10144 H 1005.14 -2.59727 -1.37546 0
M  V30 10145 H 1002.65 -1.47951 -0.669653 0
M  V30 10146 H 1004.65 -1.86488 -3.72864 0
M  V30 10147 H 1003.31 -0.849688 -3.13385 0
M  V30 10148 H 1004.32 -4.50206 -2.55998 0
M  V30 10149 H 1001 -2.13493 -3.58786 0
M  V30 10150 H 1002.39 -6.10164 -2.81334 0
M  V30 10151 N 1005.11 0.71652 -1.4037 0
M  V30 10152 C 1006.36 1.47193 -1.37903 0
M  V30 10153 C 1006.67 1.95593 0.0159939 0
M  V30 10154 O 1007.88 2.71009 0.163282 0
M  V30 10155 C 1006.33 2.6606 -2.42363 0
M  V30 10156 C 1005.94 2.24533 -3.87671 0
M  V30 10157 C 1007.68 3.438 -2.49001 0
M  V30 10158 C 1005.59 3.40234 -4.8373 0
M  V30 10159 H 1004.52 0.552811 -0.512753 0
M  V30 10160 H 1007.17 0.779894 -1.66102 0
M  V30 10161 H 1005.55 3.37429 -2.07262 0
M  V30 10162 H 1006.73 1.6059 -4.31911 0
M  V30 10163 H 1005.04 1.59839 -3.845 0
M  V30 10164 H 1007.64 4.29893 -3.17956 0
M  V30 10165 H 1007.98 3.8755 -1.52023 0
M  V30 10166 H 1008.52 2.79474 -2.83088 0
M  V30 10167 H 1005.26 3.01517 -5.82037 0
M  V30 10168 H 1004.78 4.03095 -4.44156 0
M  V30 10169 H 1006.45 4.06312 -5.03507 0
M  V30 10170 N 1006.59 1.25851 0.948643 0
M  V30 10171 C 1007.81 1.13711 1.72851 0
M  V30 10172 C 1008.23 -0.308471 1.86263 0
M  V30 10173 O 1007.59 -1.21175 1.36465 0
M  V30 10174 C 1007.64 1.79271 3.13918 0
M  V30 10175 O 1007.36 3.18179 3.01154 0
M  V30 10176 C 1008.86 1.72988 4.08154 0
M  V30 10177 H 1006.08 0.396334 0.541443 0
M  V30 10178 H 1008.62 1.66329 1.18974 0
M  V30 10179 H 1006.78 1.30609 3.64719 0
M  V30 10180 H 1007.19 3.50507 3.90186 0
M  V30 10181 H 1008.67 2.2351 5.04725 0
M  V30 10182 H 1009.14 0.694866 4.33668 0
M  V30 10183 H 1009.75 2.21166 3.63271 0
M  V30 10184 N 1008.06 -1.15214 1.07534 0
M  V30 10185 C 1009.31 -1.85676 0.79805 0
M  V30 10186 C 1009.63 -1.82837 -0.677919 0
M  V30 10187 O 1008.9 -1.27059 -1.49107 0
M  V30 10188 H 1007.48 -0.687468 0.292227 0
M  V30 10189 H 1010.15 -1.39658 1.35947 0
M  V30 10190 H 1009.24 -2.9076 1.13423 0
M  V30 10191 N 1009.54 -0.859717 -1.32086 0
M  V30 10192 C 1010.79 -0.464662 -1.96686 0
M  V30 10193 C 1011.11 0.98412 -1.68345 0
M  V30 10194 O 1010.38 1.68847 -0.993361 0
M  V30 10195 H 1008.96 -0.168838 -0.727669 0
M  V30 10196 H 1011.62 -1.09726 -1.61079 0
M  V30 10197 H 1010.72 -0.613904 -3.06003 0
M  V30 10198 N 1011.02 1.44971 -0.618145 0
M  V30 10199 C 1012.27 2.0176 -0.11725 0
M  V30 10200 C 1012.59 1.48773 1.26062 0
M  V30 10201 O 1011.86 0.686152 1.83491 0
M  V30 10202 H 1010.44 0.745909 -0.0403545 0
M  V30 10203 H 1013.1 1.77638 -0.801923 0
M  V30 10204 H 1012.2 3.1201 -0.0750477 0
M  V30 10205 N 1012.5 0.357919 1.53482 0
M  V30 10206 C 1013.43 -0.484231 2.28424 0
M  V30 10207 C 1014.41 -1.09046 1.30548 0
M  V30 10208 O 1015.59 -1.10916 1.59409 0
M  V30 10209 C 1012.72 -1.62803 3.06778 0
M  V30 10210 C 1011.68 -1.14943 4.12277 0
M  V30 10211 C 1011 -2.38287 4.78669 0
M  V30 10212 C 1012.3 -0.239627 5.2175 0
M  V30 10213 H 1014 0.140979 2.99068 0
M  V30 10214 H 1011.54 0.069244 1.43833 0
M  V30 10215 H 1013.5 -2.22374 3.57949 0
M  V30 10216 H 1012.22 -2.28036 2.3381 0
M  V30 10217 H 1010.88 -0.576442 3.6204 0
M  V30 10218 H 1010.53 -3.01959 4.02281 0
M  V30 10219 H 1010.23 -2.06939 5.49955 0
M  V30 10220 H 1011.75 -2.98558 5.32631 0
M  V30 10221 H 1013.17 -0.742597 5.6847 0
M  V30 10222 H 1011.56 -0.0173747 6.00097 0
M  V30 10223 H 1012.63 0.720333 4.7952 0
M  V30 10224 N 1013.98 -1.5736 0.0868897 0
M  V30 10225 C 1014.91 -2.16596 -0.872252 0
M  V30 10226 C 1015.89 -1.09706 -1.29995 0
M  V30 10227 O 1017.07 -1.37808 -1.36831 0
M  V30 10228 C 1014.2 -2.73972 -2.1344 0
M  V30 10229 C 1013.16 -3.86163 -1.8456 0
M  V30 10230 C 1012.48 -4.30206 -3.17533 0
M  V30 10231 C 1013.78 -5.0973 -1.13899 0
M  V30 10232 H 1015.48 -2.96995 -0.378738 0
M  V30 10233 H 1013.02 -1.42861 -0.18073 0
M  V30 10234 H 1014.98 -3.14062 -2.80968 0
M  V30 10235 H 1013.7 -1.90817 -2.6506 0
M  V30 10236 H 1012.36 -3.466 -1.19432 0
M  V30 10237 H 1012.01 -3.43951 -3.67024 0
M  V30 10238 H 1011.71 -5.05841 -2.98996 0
M  V30 10239 H 1013.23 -4.72922 -3.86234 0
M  V30 10240 H 1014.64 -5.4704 -1.71523 0
M  V30 10241 H 1013.04 -5.90741 -1.05569 0
M  V30 10242 H 1014.11 -4.8475 -0.120432 0
M  V30 10243 N 1015.45 0.186762 -1.56489 0
M  V30 10244 C 1016.36 1.25169 -1.98419 0
M  V30 10245 C 1017.38 1.49329 -0.893124 0
M  V30 10246 O 1018.56 1.61781 -1.19954 0
M  V30 10247 C 1015.62 2.57422 -2.32239 0
M  V30 10248 C 1014.68 2.4126 -3.55095 0
M  V30 10249 C 1013.92 3.67206 -3.87292 0
M  V30 10250 O 1014.14 4.71731 -3.20665 0
M  V30 10251 O 1013.07 3.62238 -4.80695 0
M  V30 10252 H 1016.9 0.925834 -2.89244 0
M  V30 10253 H 1014.48 0.392421 -1.44154 0
M  V30 10254 H 1016.37 3.35466 -2.5503 0
M  V30 10255 H 1015.04 2.89618 -1.44579 0
M  V30 10256 H 1013.95 1.61299 -3.37541 0
M  V30 10257 H 1015.28 2.13994 -4.43247 0
M  V30 10258 N 1016.93 1.50896 0.454776 0
M  V30 10259 C 1017.88 1.71497 1.57136 0
M  V30 10260 C 1018.87 0.58098 1.59126 0
M  V30 10261 O 1020.08 0.761916 1.63079 0
M  V30 10262 H 1016.46 0.54158 0.521724 0
M  V30 10263 H 1018.43 2.65129 1.36928 0
M  V30 10264 C 1017.18 1.84125 2.94947 0
M  V30 10265 H 1016.5 2.7078 2.9414 0
M  V30 10266 H 1017.94 2.02558 3.72487 0
M  V30 10267 C 1016.4 0.596752 3.31573 0
M  V30 10268 O 1016.93 -0.256632 4.00879 0
M  V30 10269 N 1015.13 0.445958 2.87158 0
M  V30 10270 H 1014.68 1.14146 2.30929 0
M  V30 10271 H 1014.64 -0.385519 3.12027 0
M  V30 10272 N 1018.41 -0.709066 1.40748 0
M  V30 10273 C 1019.66 -1.4646 1.38681 0
M  V30 10274 C 1019.97 -1.95599 -0.0056209 0
M  V30 10275 O 1021.18 -2.71091 -0.148907 0
M  V30 10276 C 1019.63 -2.64771 2.43771 0
M  V30 10277 C 1019.24 -2.22474 3.88856 0
M  V30 10278 C 1020.99 -3.42475 2.50821 0
M  V30 10279 C 1018.89 -3.37663 4.85528 0
M  V30 10280 H 1017.82 -0.550084 0.515678 0
M  V30 10281 H 1020.47 -0.771074 1.66513 0
M  V30 10282 H 1018.86 -3.36325 2.09048 0
M  V30 10283 H 1020.03 -1.58297 4.32757 0
M  V30 10284 H 1018.35 -1.57798 3.85342 0
M  V30 10285 H 1020.94 -4.28201 3.20232 0
M  V30 10286 H 1021.29 -3.86738 1.54076 0
M  V30 10287 H 1021.82 -2.77969 2.84567 0
M  V30 10288 H 1018.56 -2.98426 5.83628 0
M  V30 10289 H 1018.08 -4.00734 4.46287 0
M  V30 10290 H 1019.76 -4.03636 5.05655 0
M  V30 10291 N 1019.89 -1.26353 -0.941956 0
M  V30 10292 C 1021.3 -1.10774 -1.50287 0
M  V30 10293 C 1021.65 0.312229 -1.937 0
M  V30 10294 O 1020.78 1.20364 -1.79838 0
M  V30 10295 C 1021.37 -2.00473 -2.73123 0
M  V30 10296 C 1019.93 -1.89042 -3.25485 0
M  V30 10297 C 1019.08 -1.93869 -1.98267 0
M  V30 10298 H 1022.03 -1.39454 -0.757523 0
M  V30 10299 H 1022.05 -1.55216 -3.47402 0
M  V30 10300 H 1021.56 -3.03812 -2.41495 0
M  V30 10301 H 1019.66 -0.886341 -3.61904 0
M  V30 10302 H 1019.78 -2.74533 -3.92643 0
M  V30 10303 H 1018.14 -1.37912 -2.14132 0
M  V30 10304 H 1018.92 -2.98837 -1.68972 0
M  V30 10305 N 1021.37 1.14642 -1.08144 0
M  V30 10306 C 1022.78 1.37604 -0.808537 0
M  V30 10307 C 1022.98 1.92868 0.583452 0
M  V30 10308 O 1022.04 2.13964 1.34073 0
M  V30 10309 C 1023.35 2.3396 -1.889 0
M  V30 10310 C 1024.9 2.47605 -1.9147 0
M  V30 10311 C 1025.38 3.47258 -2.98623 0
M  V30 10312 N 1026.87 3.548 -2.97777 0
M  V30 10313 C 1027.6 4.31751 -3.77331 0
M  V30 10314 N 1027.1 5.11966 -4.66757 0
M  V30 10315 N 1028.89 4.2692 -3.65645 0
M  V30 10316 H 1021.04 0.771154 -1.97906 0
M  V30 10317 H 1023.3 0.401694 -0.858688 0
M  V30 10318 H 1023.01 2.00484 -2.88962 0
M  V30 10319 H 1022.88 3.33833 -1.756 0
M  V30 10320 H 1025.27 2.80375 -0.920548 0
M  V30 10321 H 1025.35 1.47702 -2.08848 0
M  V30 10322 H 1025 3.15223 -3.98243 0
M  V30 10323 H 1024.93 4.46935 -2.7849 0
M  V30 10324 H 1027.42 2.97553 -2.3296 0
M  V30 10325 H 1027.73 5.67951 -5.24072 0
M  V30 10326 H 1026.08 5.11245 -4.70801 0
M  V30 10327 H 1029.27 3.63322 -2.95152 0
M  V30 10328 H 1029.44 4.8664 -4.27885 0
M  V30 10329 N 1022.85 0.866709 1.31628 0
M  V30 10330 C 1024.09 0.476731 1.97117 0
M  V30 10331 C 1024.42 -0.967813 1.68366 0
M  V30 10332 O 1023.7 -1.68101 0.978377 0
M  V30 10333 C 1023.98 0.730561 3.52611 0
M  V30 10334 C 1023.84 2.2244 3.90948 0
M  V30 10335 C 1025.15 0.19488 4.39668 0
M  V30 10336 H 1022.27 0.174682 0.715999 0
M  V30 10337 H 1024.92 1.08735 1.5581 0
M  V30 10338 H 1023.07 0.210834 3.87927 0
M  V30 10339 H 1024.74 2.81113 3.6575 0
M  V30 10340 H 1022.98 2.69824 3.39673 0
M  V30 10341 H 1023.65 2.35266 4.99353 0
M  V30 10342 H 1026.13 0.639478 4.11157 0
M  V30 10343 H 1025 0.401958 5.47426 0
M  V30 10344 H 1025.26 -0.90302 4.32779 0
M  V30 10345 N 1024.32 -1.44642 0.625825 0
M  V30 10346 C 1025.25 -2.33397 -0.0692188 0
M  V30 10347 C 1026.23 -1.47898 -0.840241 0
M  V30 10348 O 1027.42 -1.7663 -0.807176 0
M  V30 10349 C 1024.55 -3.30888 -1.055 0
M  V30 10350 C 1023.5 -4.26164 -0.395968 0
M  V30 10351 C 1022.83 -5.13483 -1.49128 0
M  V30 10352 C 1024.13 -5.17663 0.694433 0
M  V30 10353 H 1025.82 -2.91763 0.671925 0
M  V30 10354 H 1023.37 -1.40294 0.324573 0
M  V30 10355 H 1025.32 -3.91861 -1.54993 0
M  V30 10356 H 1024.05 -2.7072 -1.82696 0
M  V30 10357 H 1022.71 -3.66516 0.0782691 0
M  V30 10358 H 1022.35 -4.49672 -2.25399 0
M  V30 10359 H 1022.05 -5.78038 -1.05573 0
M  V30 10360 H 1023.58 -5.77327 -1.98813 0
M  V30 10361 H 1024.99 -5.72602 0.282818 0
M  V30 10362 H 1023.39 -5.90793 1.05281 0
M  V30 10363 H 1024.46 -4.58994 1.56372 0
M  V30 10364 N 1025.8 -0.366053 -1.5329 0
M  V30 10365 C 1027.21 0.113056 -1.86357 0
M  V30 10366 C 1027.56 1.48123 -1.28662 0
M  V30 10367 O 1026.69 2.07658 -0.608849 0
M  V30 10368 C 1027.28 0.211923 -3.38137 0
M  V30 10369 C 1025.84 0.635289 -3.71 0
M  V30 10370 C 1024.99 -0.217203 -2.76448 0
M  V30 10371 H 1027.94 -0.584829 -1.47531 0
M  V30 10372 H 1027.96 1.0354 -3.66142 0
M  V30 10373 H 1027.47 -0.783994 -3.80099 0
M  V30 10374 H 1025.57 1.63942 -3.34595 0
M  V30 10375 H 1025.69 0.409571 -4.77346 0
M  V30 10376 H 1024.05 0.313988 -2.52757 0
M  V30 10377 H 1024.83 -1.21067 -3.21244 0
M  V30 10378 N 1027.28 1.57312 -0.0952337 0
M  V30 10379 C 1028.19 2.17556 0.877877 0
M  V30 10380 C 1029.21 1.14505 1.31014 0
M  V30 10381 O 1030.38 1.46876 1.37802 0
M  V30 10382 C 1027.45 2.74413 2.11892 0
M  V30 10383 C 1026.51 3.92419 1.74085 0
M  V30 10384 C 1025.74 4.46556 2.92273 0
M  V30 10385 O 1025.96 3.99631 4.07002 0
M  V30 10386 O 1024.9 5.37576 2.70732 0
M  V30 10387 H 1028.72 3.01116 0.395312 0
M  V30 10388 H 1026.31 1.48841 0.129123 0
M  V30 10389 H 1028.19 3.10754 2.84622 0
M  V30 10390 H 1026.87 1.93899 2.59201 0
M  V30 10391 H 1025.77 3.6089 0.985346 0
M  V30 10392 H 1027.11 4.74298 1.31539 0
M  V30 10393 N 1028.76 -0.17846 1.56586 0
M  V30 10394 C 1029.7 -1.22104 1.95855 0
M  V30 10395 C 1030.67 -1.44366 0.821447 0
M  V30 10396 O 1031.86 -1.57224 1.08098 0
M  V30 10397 C 1029 -2.55701 2.31757 0
M  V30 10398 C 1028.11 -2.40879 3.5861 0
M  V30 10399 C 1027.25 -3.67293 3.83757 0
M  V30 10400 C 1026.29 -3.47373 5.03982 0
M  V30 10401 N 1025.42 -4.65839 5.25298 0
M  V30 10402 H 1030.26 -0.879168 2.84736 0
M  V30 10403 H 1027.8 -0.422721 1.40895 0
M  V30 10404 H 1029.76 -3.33556 2.50592 0
M  V30 10405 H 1028.39 -2.87898 1.45995 0
M  V30 10406 H 1027.44 -1.54236 3.47729 0
M  V30 10407 H 1028.75 -2.22102 4.46623 0
M  V30 10408 H 1027.91 -4.53584 4.02922 0
M  V30 10409 H 1026.65 -3.89041 2.94107 0
M  V30 10410 H 1025.65 -2.59467 4.84723 0
M  V30 10411 H 1026.88 -3.27055 5.95157 0
M  V30 10412 H 1024.82 -4.8782 4.38598 0
M  V30 10413 H 1024.74 -4.4995 6.0752 0
M  V30 10414 H 1026.01 -5.53435 5.48936 0
M  V30 10415 N 1030.24 -1.51135 -0.446768 0
M  V30 10416 C 1031.17 -1.74709 -1.54916 0
M  V30 10417 C 1032.15 -0.596628 -1.59293 0
M  V30 10418 O 1033.33 -0.838356 -1.75172 0
M  V30 10419 C 1030.46 -1.86353 -2.9307 0
M  V30 10420 C 1029.42 -3.01725 -3.03556 0
M  V30 10421 C 1028.74 -2.9854 -4.43597 0
M  V30 10422 C 1030.04 -4.41848 -2.7851 0
M  V30 10423 H 1031.74 -2.67014 -1.3544 0
M  V30 10424 H 1029.28 -1.28489 -0.650131 0
M  V30 10425 H 1031.23 -2.01428 -3.70141 0
M  V30 10426 H 1029.96 -0.906887 -3.13756 0
M  V30 10427 H 1028.62 -2.86339 -2.28922 0
M  V30 10428 H 1028.27 -2.00673 -4.61237 0
M  V30 10429 H 1027.97 -3.76008 -4.51544 0
M  V30 10430 H 1029.49 -3.15696 -5.22655 0
M  V30 10431 H 1030.9 -4.57633 -3.45319 0
M  V30 10432 H 1029.3 -5.2095 -2.97877 0
M  V30 10433 H 1030.37 -4.52536 -1.74182 0
M  V30 10434 N 1031.71 0.701592 -1.41122 0
M  V30 10435 C 1032.96 1.45871 -1.39879 0
M  V30 10436 C 1033.28 1.94999 -0.00668769 0
M  V30 10437 O 1032.55 1.71298 0.95047 0
M  V30 10438 H 1031.13 0.541231 -0.514857 0
M  V30 10439 H 1033.79 0.830803 -1.76306 0
M  V30 10440 H 1032.89 2.32479 -2.0823 0
M  V30 10441 N 1033.19 1.2685 0.935242 0
M  V30 10442 C 1034.44 1.12912 1.6846 0
M  V30 10443 C 1034.77 -0.325708 1.91449 0
M  V30 10444 O 1034.05 -1.23884 1.49944 0
M  V30 10445 C 1034.33 1.90513 3.05576 0
M  V30 10446 C 1034.18 3.43936 2.89876 0
M  V30 10447 C 1035.5 1.70363 4.05789 0
M  V30 10448 H 1032.62 0.411559 0.611382 0
M  V30 10449 H 1035.26 1.55917 1.08582 0
M  V30 10450 H 1033.41 1.53963 3.5669 0
M  V30 10451 H 1035.08 3.90272 2.45939 0
M  V30 10452 H 1033.33 3.70659 2.25376 0
M  V30 10453 H 1034 3.93467 3.87153 0
M  V30 10454 H 1036.47 2.02217 3.63659 0
M  V30 10455 H 1035.35 2.27066 4.99732 0
M  V30 10456 H 1035.61 0.649674 4.373 0
M  V30 10457 N 1034.67 -1.14067 1.0875 0
M  V30 10458 C 1035.95 -1.81389 0.73195 0
M  V30 10459 C 1036.33 -1.96005 -0.78391 0
M  V30 10460 O 1035.68 -1.52267 -1.70373 0
M  V30 10461 C 1035.89 -3.16858 1.46294 0
M  V30 10462 C 1037.23 -3.92305 1.62426 0
M  V30 10463 O 1038.26 -3.26459 1.42488 0
M  V30 10464 O 1037.12 -5.10393 1.9535 0
M  V30 10465 H 1034.21 -0.784354 0.262141 0
M  V30 10466 H 1036.76 -1.21054 1.18929 0
M  V30 10467 H 1035.53 -3.01404 2.49542 0
M  V30 10468 H 1035.15 -3.84889 0.997318 0
M  V30 10469 N 1036.15 -0.873678 -1.31166 0
M  V30 10470 C 1037.08 -0.348011 -2.30892 0
M  V30 10471 C 1038.06 0.563092 -1.60509 0
M  V30 10472 O 1039.24 0.479332 -1.88192 0
M  V30 10473 C 1036.37 0.448158 -3.44396 0
M  V30 10474 C 1035.33 -0.370179 -4.26396 0
M  V30 10475 C 1034.65 0.551903 -5.31844 0
M  V30 10476 C 1035.95 -1.60624 -4.96988 0
M  V30 10477 H 1037.65 -1.18134 -2.75109 0
M  V30 10478 H 1035.19 -0.569502 -1.3226 0
M  V30 10479 H 1037.15 0.826458 -4.13216 0
M  V30 10480 H 1035.87 1.31503 -2.98956 0
M  V30 10481 H 1034.53 -0.730472 -3.59249 0
M  V30 10482 H 1034.18 1.41616 -4.82653 0
M  V30 10483 H 1033.88 0.00823478 -5.87599 0
M  V30 10484 H 1035.4 0.926965 -6.03523 0
M  V30 10485 H 1036.82 -1.29917 -5.58386 0
M  V30 10486 H 1035.21 -2.08926 -5.62557 0
M  V30 10487 H 1036.28 -2.357 -4.23761 0
M  V30 10488 N 1037.63 1.44308 -0.633487 0
M  V30 10489 C 1038.9 1.95476 -0.0697262 0
M  V30 10490 C 1039.28 1.57539 1.40516 0
M  V30 10491 O 1038.63 0.850632 2.12077 0
M  V30 10492 C 1038.84 3.4775 -0.295093 0
M  V30 10493 C 1040.19 4.24177 -0.189542 0
M  V30 10494 O 1041.21 3.55479 -0.226586 0
M  V30 10495 O 1040.07 5.46415 -0.096479 0
M  V30 10496 H 1037.17 0.826734 0.0209582 0
M  V30 10497 H 1039.71 1.54347 -0.705354 0
M  V30 10498 H 1038.48 3.6842 -1.31841 0
M  V30 10499 H 1038.11 3.95832 0.37456 0
M  V30 10500 N 1039.1 0.374177 1.53094 0
M  V30 10501 C 1040.07 -0.455999 2.24618 0
M  V30 10502 C 1041.07 -1.00269 1.25709 0
M  V30 10503 O 1042.26 -0.887077 1.49922 0
M  V30 10504 C 1039.39 -1.63822 2.98957 0
M  V30 10505 H 1040.58 0.169986 2.99418 0
M  V30 10506 H 1038.14 0.126015 1.55791 0
M  V30 10507 H 1038.87 -2.30205 2.28421 0
M  V30 10508 H 1038.66 -1.25308 3.71538 0
M  V30 10509 H 1040.15 -2.22633 3.53305 0
M  V30 10510 N 1040.58 -1.57259 0.103575 0
M  V30 10511 C 1041.51 -2.1153 -0.882472 0
M  V30 10512 C 1042.53 -1.05446 -1.24036 0
M  V30 10513 O 1043.72 -1.32867 -1.192 0
M  V30 10514 C 1040.82 -2.58717 -2.18903 0
M  V30 10515 C 1039.99 -3.8873 -2.00519 0
M  V30 10516 C 1039.05 -4.21675 -3.14764 0
M  V30 10517 O 1038.07 -4.90755 -2.88355 0
M  V30 10518 N 1039.28 -3.77757 -4.40772 0
M  V30 10519 H 1042.04 -2.96758 -0.418901 0
M  V30 10520 H 1039.6 -1.61696 -0.0812921 0
M  V30 10521 H 1041.59 -2.77797 -2.94297 0
M  V30 10522 H 1040.16 -1.78454 -2.56657 0
M  V30 10523 H 1039.38 -3.78714 -1.09406 0
M  V30 10524 H 1040.67 -4.73771 -1.85522 0
M  V30 10525 H 1040.07 -3.22011 -4.65108 0
M  V30 10526 H 1038.63 -4.01975 -5.13088 0
M  V30 10527 N 1042.06 0.170153 -1.56679 0
M  V30 10528 C 1043.29 0.902134 -1.86197 0
M  V30 10529 C 1043.7 1.75775 -0.689098 0
M  V30 10530 O 1043.06 1.79271 0.341763 0
M  V30 10531 C 1043.11 1.77792 -3.14757 0
M  V30 10532 O 1042.83 0.956817 -4.27524 0
M  V30 10533 C 1044.33 2.61947 -3.57629 0
M  V30 10534 H 1041.55 0.262026 -0.617724 0
M  V30 10535 H 1044.1 0.169899 -2.03793 0
M  V30 10536 H 1042.25 2.46348 -2.98984 0
M  V30 10537 H 1042.67 1.5559 -5.00891 0
M  V30 10538 H 1044.14 3.19011 -4.50484 0
M  V30 10539 H 1044.62 3.36873 -2.81803 0
M  V30 10540 H 1045.22 1.98721 -3.76019 0
M  V30 10541 N 1043.54 1.5137 0.438746 0
M  V30 10542 C 1044.78 1.65173 1.18698 0
M  V30 10543 C 1045.14 0.362753 1.88949 0
M  V30 10544 O 1044.43 -0.641351 1.80547 0
M  V30 10545 C 1044.63 2.79221 2.23093 0
M  V30 10546 C 1044.46 4.19085 1.63088 0
M  V30 10547 C 1043.23 4.85042 1.41642 0
M  V30 10548 C 1045.42 5.02225 1.10789 0
M  V30 10549 N 1043.41 6.09024 0.772198 0
M  V30 10550 C 1044.78 6.17197 0.588854 0
M  V30 10551 C 1046.83 4.87764 0.999516 0
M  V30 10552 C 1045.53 7.19295 -0.0279103 0
M  V30 10553 C 1047.56 5.90068 0.396648 0
M  V30 10554 C 1046.92 7.04311 -0.111855 0
M  V30 10555 H 1043.02 0.658316 0.422071 0
M  V30 10556 H 1045.61 1.88593 0.483808 0
M  V30 10557 H 1043.78 2.57468 2.908 0
M  V30 10558 H 1045.51 2.82213 2.90066 0
M  V30 10559 H 1042.26 4.42886 1.67776 0
M  V30 10560 H 1042.69 6.75383 0.467568 0
M  V30 10561 H 1047.33 3.99695 1.37853 0
M  V30 10562 H 1045.05 8.07013 -0.419056 0
M  V30 10563 H 1048.63 5.80948 0.314715 0
M  V30 10564 H 1047.51 7.82118 -0.571021 0
M  V30 10565 N 1045.02 -0.694098 1.41492 0
M  V30 10566 C 1046.43 -1.00487 1.23994 0
M  V30 10567 C 1046.63 -2.01078 0.130346 0
M  V30 10568 O 1045.69 -2.47403 -0.504775 0
M  V30 10569 C 1047 -1.52808 2.58979 0
M  V30 10570 C 1048.55 -1.64684 2.66173 0
M  V30 10571 C 1049.02 -2.20406 4.01479 0
M  V30 10572 N 1050.52 -2.27765 4.03333 0
M  V30 10573 C 1051.25 -2.7191 5.04829 0
M  V30 10574 N 1050.75 -3.1565 6.16714 0
M  V30 10575 N 1052.54 -2.71487 4.9219 0
M  V30 10576 H 1044.69 -0.027746 2.12382 0
M  V30 10577 H 1046.95 -0.0748741 0.945039 0
M  V30 10578 H 1046.66 -0.863519 3.40934 0
M  V30 10579 H 1046.53 -2.50998 2.81566 0
M  V30 10580 H 1048.92 -2.30251 1.84576 0
M  V30 10581 H 1049 -0.65035 2.47395 0
M  V30 10582 H 1048.65 -1.55454 4.83525 0
M  V30 10583 H 1048.58 -3.2081 4.17599 0
M  V30 10584 H 1051.07 -1.96899 3.22551 0
M  V30 10585 H 1051.38 -3.47966 6.90029 0
M  V30 10586 H 1049.72 -3.13555 6.20248 0
M  V30 10587 H 1052.92 -2.36666 4.03865 0
M  V30 10588 H 1053.09 -3.05573 5.71427 0
M  V30 10589 N 1046.49 -1.27344 -0.928501 0
M  V30 10590 C 1047.74 -1.13019 -1.67061 0
M  V30 10591 C 1048.06 0.323614 -1.92904 0
M  V30 10592 O 1049.26 0.587752 -2.65062 0
M  V30 10593 C 1047.72 -1.97471 -3.00887 0
M  V30 10594 C 1047.33 -3.47504 -2.82746 0
M  V30 10595 C 1049.07 -1.91792 -3.78703 0
M  V30 10596 C 1046.98 -4.24158 -4.12122 0
M  V30 10597 H 1045.91 -0.419364 -0.626618 0
M  V30 10598 H 1048.56 -1.51759 -1.03158 0
M  V30 10599 H 1046.94 -1.51576 -3.65843 0
M  V30 10600 H 1048.11 -4.01256 -2.26562 0
M  V30 10601 H 1046.43 -3.54554 -2.18359 0
M  V30 10602 H 1049.03 -2.46339 -4.74575 0
M  V30 10603 H 1049.37 -0.891375 -4.06645 0
M  V30 10604 H 1049.9 -2.35578 -3.20543 0
M  V30 10605 H 1046.64 -5.27333 -3.89359 0
M  V30 10606 H 1046.16 -3.75183 -4.67972 0
M  V30 10607 H 1047.84 -4.33288 -4.80489 0
M  V30 10608 N 1047.97 1.13488 -1.09353 0
M  V30 10609 C 1049.38 1.66299 -0.848609 0
M  V30 10610 C 1049.73 1.86044 0.623051 0
M  V30 10611 O 1048.86 1.57871 1.48005 0
M  V30 10612 C 1049.45 3.02087 -1.53391 0
M  V30 10613 C 1048.01 3.51893 -1.33598 0
M  V30 10614 C 1047.16 2.27154 -1.59048 0
M  V30 10615 H 1050.11 0.974208 -1.25279 0
M  V30 10616 H 1050.13 3.68018 -0.966587 0
M  V30 10617 H 1049.64 2.87684 -2.60498 0
M  V30 10618 H 1047.75 3.715 -0.286045 0
M  V30 10619 H 1047.86 4.32059 -2.0703 0
M  V30 10620 H 1046.22 2.33708 -1.01256 0
M  V30 10621 H 1047.01 2.15317 -2.67383 0
M  V30 10622 N 1049.45 0.880621 1.30701 0
M  V30 10623 C 1050.87 0.574015 1.4892 0
M  V30 10624 C 1051.07 -0.889312 1.80813 0
M  V30 10625 O 1050.12 -1.67082 1.89314 0
M  V30 10626 C 1051.44 1.48341 2.61563 0
M  V30 10627 C 1052.98 1.48658 2.75445 0
M  V30 10628 C 1053.46 2.3818 3.91196 0
M  V30 10629 N 1054.95 2.36119 3.985 0
M  V30 10630 C 1055.69 3.02101 4.87363 0
M  V30 10631 N 1055.18 3.77293 5.81052 0
M  V30 10632 N 1056.97 2.91356 4.80696 0
M  V30 10633 H 1049.13 1.82732 1.08271 0
M  V30 10634 H 1051.39 0.781939 0.535981 0
M  V30 10635 H 1051.09 2.52515 2.44804 0
M  V30 10636 H 1050.97 1.18977 3.57944 0
M  V30 10637 H 1053.36 0.452374 2.91612 0
M  V30 10638 H 1053.44 1.8205 1.79698 0
M  V30 10639 H 1053.08 3.41683 3.75786 0
M  V30 10640 H 1053.01 2.02106 4.86272 0
M  V30 10641 H 1055.5 1.81474 3.31475 0
M  V30 10642 H 1055.81 4.24742 6.45612 0
M  V30 10643 H 1054.16 3.81401 5.80998 0
M  V30 10644 H 1057.35 2.32143 4.06481 0
M  V30 10645 H 1057.52 3.43056 5.49742 0
M  V30 10646 N 1050.93 -1.4397 0.641131 0
M  V30 10647 C 1052.18 -2.02246 0.14985 0
M  V30 10648 C 1052.51 -1.50387 -1.22871 0
M  V30 10649 O 1051.78 -0.692003 -1.81773 0
M  V30 10650 C 1052.07 -3.59798 0.147449 0
M  V30 10651 C 1051.92 -4.21916 1.55907 0
M  V30 10652 C 1053.24 -4.36985 -0.522667 0
M  V30 10653 H 1050.36 -0.734875 0.0559274 0
M  V30 10654 H 1053 -1.71418 0.819513 0
M  V30 10655 H 1051.15 -3.86193 -0.422789 0
M  V30 10656 H 1052.82 -4.06594 2.17896 0
M  V30 10657 H 1051.06 -3.79028 2.10998 0
M  V30 10658 H 1051.74 -5.30964 1.50934 0
M  V30 10659 H 1054.21 -4.16083 -0.0376226 0
M  V30 10660 H 1053.09 -5.46676 -0.493572 0
M  V30 10661 H 1053.35 -4.12335 -1.59475 0
M  V30 10662 N 1052.41 -0.382291 -1.52893 0
M  V30 10663 C 1053.65 0.202133 -2.01489 0
M  V30 10664 C 1053.98 1.47399 -1.26901 0
M  V30 10665 O 1053.24 1.92439 -0.355771 0
M  V30 10666 C 1053.54 0.523437 -3.53546 0
M  V30 10667 C 1053.2 -0.656042 -4.46102 0
M  V30 10668 C 1051.86 -0.979633 -4.71123 0
M  V30 10669 C 1054.22 -1.44545 -5.00756 0
M  V30 10670 C 1051.54 -2.0943 -5.48047 0
M  V30 10671 C 1053.9 -2.55066 -5.78899 0
M  V30 10672 C 1052.56 -2.87942 -6.02201 0
M  V30 10673 H 1051.83 0.0739659 -0.737299 0
M  V30 10674 H 1054.48 -0.518196 -1.84356 0
M  V30 10675 H 1052.78 1.325 -3.68715 0
M  V30 10676 H 1054.48 0.988148 -3.88634 0
M  V30 10677 H 1051.07 -0.393818 -4.26787 0
M  V30 10678 H 1055.25 -1.20869 -4.81357 0
M  V30 10679 H 1050.51 -2.3528 -5.64317 0
M  V30 10680 H 1054.68 -3.1664 -6.20252 0
M  V30 10681 H 1052.31 -3.74435 -6.61591 0
M  V30 10682 N 1053.89 1.57202 -0.111913 0
M  V30 10683 C 1055.11 1.99723 0.559054 0
M  V30 10684 C 1055.54 0.990968 1.59879 0
M  V30 10685 O 1054.89 -0.038311 1.8126 0
M  V30 10686 C 1054.94 3.41151 1.16826 0
M  V30 10687 O 1054.05 3.43383 2.2839 0
M  V30 10688 H 1053.39 0.649004 0.140319 0
M  V30 10689 H 1055.92 2.03637 -0.198295 0
M  V30 10690 H 1055.93 3.79208 1.50551 0
M  V30 10691 H 1054.6 4.13907 0.406637 0
M  V30 10692 H 1053.18 3.17138 1.96158 0
M  V30 10693 N 1055.36 -0.161842 1.56767 0
M  V30 10694 C 1056.61 -0.873481 1.8369 0
M  V30 10695 C 1056.96 -1.79455 0.693817 0
M  V30 10696 O 1056.26 -1.89089 -0.309181 0
M  V30 10697 C 1056.45 -1.69736 3.14522 0
M  V30 10698 C 1056.28 -0.857568 4.41447 0
M  V30 10699 C 1055.05 -0.528952 5.02524 0
M  V30 10700 C 1057.25 -0.194734 5.13931 0
M  V30 10701 N 1055.23 0.325994 6.13034 0
M  V30 10702 C 1056.6 0.520973 6.17807 0
M  V30 10703 C 1058.66 -0.113874 4.9777 0
M  V30 10704 C 1057.36 1.30988 7.07273 0
M  V30 10705 C 1059.39 0.661731 5.87686 0
M  V30 10706 C 1058.75 1.36577 6.91033 0
M  V30 10707 H 1054.85 -0.297939 0.723019 0
M  V30 10708 H 1057.43 -0.139816 1.94197 0
M  V30 10709 H 1055.6 -2.40238 3.05189 0
M  V30 10710 H 1057.33 -2.35103 3.29407 0
M  V30 10711 H 1054.09 -0.861267 4.65703 0
M  V30 10712 H 1054.51 0.744055 6.72899 0
M  V30 10713 H 1059.15 -0.643832 4.17869 0
M  V30 10714 H 1056.87 1.85115 7.86612 0
M  V30 10715 H 1060.46 0.726092 5.77251 0
M  V30 10716 H 1059.34 1.9563 7.59407 0
M  V30 10717 N 1056.84 -1.516 -0.430713 0
M  V30 10718 C 1057.77 -1.76342 -1.53054 0
M  V30 10719 C 1058.75 -0.61349 -1.58652 0
M  V30 10720 O 1059.94 -0.856888 -1.74273 0
M  V30 10721 C 1057.07 -1.8945 -2.91077 0
M  V30 10722 C 1056.02 -3.04928 -3.00339 0
M  V30 10723 C 1055.35 -3.03228 -4.40405 0
M  V30 10724 C 1056.65 -4.44777 -2.73808 0
M  V30 10725 H 1058.34 -2.68435 -1.326 0
M  V30 10726 H 1055.89 -1.29171 -0.636466 0
M  V30 10727 H 1057.84 -2.05343 -3.67984 0
M  V30 10728 H 1056.56 -0.940114 -3.12777 0
M  V30 10729 H 1055.22 -2.88751 -2.25872 0
M  V30 10730 H 1054.87 -2.05553 -4.59083 0
M  V30 10731 H 1054.57 -3.80776 -4.47531 0
M  V30 10732 H 1056.1 -3.21222 -5.19277 0
M  V30 10733 H 1057.51 -4.6127 -3.40445 0
M  V30 10734 H 1055.91 -5.2408 -2.92335 0
M  V30 10735 H 1056.98 -4.54358 -1.69372 0
M  V30 10736 N 1058.32 0.686584 -1.41858 0
M  V30 10737 C 1059.25 1.81202 -1.40352 0
M  V30 10738 C 1060.26 1.5993 -0.304322 0
M  V30 10739 O 1061.45 1.69267 -0.566643 0
M  V30 10740 C 1058.55 3.18116 -1.16856 0
M  V30 10741 C 1057.73 3.66339 -2.38987 0
M  V30 10742 C 1056.79 4.8195 -2.11212 0
M  V30 10743 O 1055.81 4.93102 -2.84323 0
M  V30 10744 N 1057.01 5.69829 -1.10793 0
M  V30 10745 H 1059.78 1.82983 -2.37355 0
M  V30 10746 H 1057.34 0.869244 -1.36586 0
M  V30 10747 H 1059.33 3.93097 -0.962125 0
M  V30 10748 H 1057.9 3.11306 -0.284186 0
M  V30 10749 H 1057.12 2.82166 -2.75274 0
M  V30 10750 H 1058.41 3.95297 -3.2034 0
M  V30 10751 H 1057.81 5.63459 -0.503012 0
M  V30 10752 H 1056.36 6.44671 -0.961379 0
M  V30 10753 N 1059.8 1.27835 0.921735 0
M  V30 10754 C 1060.73 1.06874 2.02758 0
M  V30 10755 C 1061.74 0.0229418 1.62784 0
M  V30 10756 O 1062.93 0.265145 1.7652 0
M  V30 10757 C 1060.03 0.60037 3.3354 0
M  V30 10758 C 1059.2 1.71979 4.02172 0
M  V30 10759 C 1058.26 1.24615 5.11231 0
M  V30 10760 O 1057.29 1.94692 5.34868 0
M  V30 10761 N 1058.49 0.105021 5.80405 0
M  V30 10762 H 1061.26 2.02105 2.213 0
M  V30 10763 H 1058.82 1.19481 1.09251 0
M  V30 10764 H 1060.81 0.267281 4.03816 0
M  V30 10765 H 1059.38 -0.258872 3.11526 0
M  V30 10766 H 1058.6 2.22287 3.25549 0
M  V30 10767 H 1059.89 2.47092 4.44773 0
M  V30 10768 H 1059.29 -0.479745 5.63662 0
M  V30 10769 H 1057.84 -0.168846 6.51581 0
M  V30 10770 N 1061.28 -1.12907 1.09954 0
M  V30 10771 C 1062.19 -2.22082 0.756095 0
M  V30 10772 C 1063.2 -1.72277 -0.244272 0
M  V30 10773 O 1064.38 -2.01224 -0.0842637 0
M  V30 10774 C 1061.44 -3.46192 0.187642 0
M  V30 10775 C 1060.5 -4.10861 1.24465 0
M  V30 10776 C 1059.74 -5.29047 0.703227 0
M  V30 10777 O 1059.96 -5.68443 -0.472043 0
M  V30 10778 O 1058.89 -5.83904 1.46082 0
M  V30 10779 H 1062.72 -2.53842 1.66727 0
M  V30 10780 H 1060.3 -1.21145 0.874316 0
M  V30 10781 H 1062.19 -4.21212 -0.125774 0
M  V30 10782 H 1060.86 -3.16119 -0.696459 0
M  V30 10783 H 1059.77 -3.37643 1.61085 0
M  V30 10784 H 1061.1 -4.45078 2.10159 0
M  V30 10785 N 1062.75 -0.88754 -1.30232 0
M  V30 10786 C 1064 -0.506277 -1.95656 0
M  V30 10787 C 1064.32 0.948191 -1.70395 0
M  V30 10788 O 1063.59 1.66701 -1.02895 0
M  V30 10789 H 1062.17 -0.184235 -0.723924 0
M  V30 10790 H 1064.83 -1.13118 -1.58715 0
M  V30 10791 H 1063.93 -0.678673 -3.04632 0
M  V30 10792 N 1064.23 1.43628 -0.648757 0
M  V30 10793 C 1065.18 2.27899 0.0677939 0
M  V30 10794 C 1066.17 1.39653 0.799115 0
M  V30 10795 O 1067.36 1.6332 0.682317 0
M  V30 10796 C 1064.49 3.27276 1.0366 0
M  V30 10797 C 1063.57 4.23009 0.303982 0
M  V30 10798 N 1063.96 5.01248 -0.677056 0
M  V30 10799 C 1062.26 4.42645 0.546041 0
M  V30 10800 C 1062.96 5.70982 -1.11151 0
M  V30 10801 N 1061.94 5.41762 -0.446669 0
M  V30 10802 H 1065.74 2.85804 -0.685073 0
M  V30 10803 H 1063.26 1.55277 -0.475674 0
M  V30 10804 H 1065.25 3.86423 1.5647 0
M  V30 10805 H 1063.91 2.70932 1.78958 0
M  V30 10806 H 1064.92 5.07028 -1.0556 0
M  V30 10807 H 1061.6 3.97377 1.28053 0
M  V30 10808 H 1062.99 6.43794 -1.923 0
M  V30 10809 N 1065.71 0.390394 1.52688 0
M  V30 10810 C 1066.64 -0.43567 2.294 0
M  V30 10811 C 1067.62 -1.06253 1.32832 0
M  V30 10812 O 1068.81 -1.07509 1.61726 0
M  V30 10813 C 1065.94 -1.56259 3.10162 0
M  V30 10814 C 1064.89 -1.06172 4.14622 0
M  V30 10815 C 1064.22 -2.2808 4.83615 0
M  V30 10816 C 1065.52 -0.128902 5.22141 0
M  V30 10817 H 1067.21 0.204384 2.98702 0
M  V30 10818 H 1064.76 0.0997377 1.43654 0
M  V30 10819 H 1066.71 -2.14732 3.62585 0
M  V30 10820 H 1065.43 -2.23025 2.38595 0
M  V30 10821 H 1064.09 -0.499518 3.63181 0
M  V30 10822 H 1063.74 -2.93358 4.08595 0
M  V30 10823 H 1063.44 -1.95227 5.5422 0
M  V30 10824 H 1064.96 -2.87193 5.38844 0
M  V30 10825 H 1066.38 -0.621849 5.69917 0
M  V30 10826 H 1064.78 0.109919 5.99999 0
M  V30 10827 H 1065.85 0.821884 4.77884 0
M  V30 10828 N 1067.19 -1.57141 0.120249 0
M  V30 10829 C 1068.41 -2.00017 -0.548454 0
M  V30 10830 C 1068.84 -0.999433 -1.59352 0
M  V30 10831 O 1068.2 0.0286978 -1.81277 0
M  V30 10832 C 1068.24 -3.41766 -1.15015 0
M  V30 10833 O 1067.35 -3.44589 -2.26566 0
M  V30 10834 H 1066.69 -0.649739 -0.136875 0
M  V30 10835 H 1069.22 -2.03529 0.209092 0
M  V30 10836 H 1069.23 -3.80001 -1.48537 0
M  V30 10837 H 1067.9 -4.14117 -0.384681 0
M  V30 10838 H 1066.48 -3.18174 -1.94473 0
M  V30 10839 N 1068.67 0.153526 -1.5685 0
M  V30 10840 C 1069.58 1.20932 -2.01029 0
M  V30 10841 C 1070.59 1.47401 -0.924598 0
M  V30 10842 O 1071.77 1.592 -1.23359 0
M  V30 10843 C 1068.83 2.52438 -2.37647 0
M  V30 10844 C 1067.89 2.33673 -3.60132 0
M  V30 10845 C 1067.13 3.58909 -3.94994 0
M  V30 10846 O 1067.35 4.64823 -3.30599 0
M  V30 10847 O 1066.28 3.5196 -4.8827 0
M  V30 10848 H 1070.11 0.864273 -2.91143 0
M  V30 10849 H 1067.7 0.361755 -1.44954 0
M  V30 10850 H 1069.58 3.29981 -2.62088 0
M  V30 10851 H 1068.25 2.86486 -1.5069 0
M  V30 10852 H 1067.16 1.54102 -3.40886 0
M  V30 10853 H 1068.49 2.04544 -4.47686 0
M  V30 10854 N 1070.14 1.51827 0.422667 0
M  V30 10855 C 1071.05 1.77066 1.53899 0
M  V30 10856 C 1072.07 0.655541 1.61179 0
M  V30 10857 O 1073.25 0.939448 1.78147 0
M  V30 10858 C 1070.31 1.90372 2.89758 0
M  V30 10859 C 1069.37 3.14256 2.92475 0
M  V30 10860 C 1068.61 3.26918 4.21853 0
M  V30 10861 O 1068.83 2.45164 5.15025 0
M  V30 10862 O 1067.76 4.19989 4.31153 0
M  V30 10863 H 1071.59 2.71791 1.35511 0
M  V30 10864 H 1069.17 1.36506 0.607165 0
M  V30 10865 H 1071.06 2.01024 3.70361 0
M  V30 10866 H 1069.73 0.988347 3.08242 0
M  V30 10867 H 1068.64 3.09072 2.10773 0
M  V30 10868 H 1069.97 4.0553 2.78937 0
M  V30 10869 N 1071.62 -0.679052 1.4222 0
M  V30 10870 C 1072.53 -1.82221 1.47759 0
M  V30 10871 C 1073.55 -1.70092 0.3667 0
M  V30 10872 O 1074.72 -1.91718 0.616957 0
M  V30 10873 C 1071.79 -3.18332 1.37351 0
M  V30 10874 C 1070.85 -3.42449 2.58896 0
M  V30 10875 C 1070.08 -4.72067 2.48976 0
M  V30 10876 O 1070.31 -5.49683 1.5233 0
M  V30 10877 O 1069.24 -4.97333 3.39033 0
M  V30 10878 H 1073.07 -1.80504 2.44238 0
M  V30 10879 H 1070.65 -0.834251 1.23938 0
M  V30 10880 H 1072.53 -3.99563 1.33893 0
M  V30 10881 H 1071.21 -3.20696 0.439965 0
M  V30 10882 H 1070.12 -2.61083 2.6793 0
M  V30 10883 H 1071.45 -3.44912 3.51136 0
M  V30 10884 N 1073.1 -1.28322 -0.914942 0
M  V30 10885 C 1074.03 -1.06469 -2.01841 0
M  V30 10886 C 1075.01 0.0188681 -1.62589 0
M  V30 10887 O 1076.2 -0.128825 -1.88059 0
M  V30 10888 C 1073.32 -0.617685 -3.3302 0
M  V30 10889 C 1072.37 -1.6977 -3.91255 0
M  V30 10890 S 1073.2 -3.29337 -4.22253 0
M  V30 10891 C 1074.36 -2.86468 -5.56495 0
M  V30 10892 H 1074.59 -1.99893 -2.20068 0
M  V30 10893 H 1072.12 -1.12297 -1.05966 0
M  V30 10894 H 1074.08 -0.366481 -4.08861 0
M  V30 10895 H 1072.74 0.296709 -3.12695 0
M  V30 10896 H 1071.94 -1.33653 -4.85956 0
M  V30 10897 H 1071.54 -1.90164 -3.22046 0
M  V30 10898 H 1073.83 -2.32565 -6.36333 0
M  V30 10899 H 1074.77 -3.79962 -5.97523 0
M  V30 10900 H 1075.18 -2.2522 -5.17626 0
M  V30 10901 N 1074.58 1.12322 -1.10551 0
M  V30 10902 C 1075.54 2.16273 -0.758844 0
M  V30 10903 C 1076.54 1.59325 0.217294 0
M  V30 10904 O 1077.73 1.74199 -0.00601346 0
M  V30 10905 C 1074.86 3.40674 -0.124238 0
M  V30 10906 H 1076.06 2.48454 -1.6796 0
M  V30 10907 H 1073.61 1.2735 -0.906188 0
M  V30 10908 H 1074.34 3.14094 0.807194 0
M  V30 10909 H 1074.13 3.83284 -0.826772 0
M  V30 10910 H 1075.62 4.17474 0.102502 0
M  V30 10911 N 1076.06 0.894434 1.2976 0
M  V30 10912 C 1077.47 0.589778 1.48303 0
M  V30 10913 C 1077.67 -0.870085 1.81746 0
M  V30 10914 O 1076.73 -1.65065 1.91076 0
M  V30 10915 C 1078.04 1.51107 2.59975 0
M  V30 10916 C 1079.59 1.51571 2.73853 0
M  V30 10917 C 1080.06 2.42316 3.88648 0
M  V30 10918 N 1081.56 2.40333 3.95973 0
M  V30 10919 C 1082.29 3.07254 4.84131 0
M  V30 10920 N 1081.79 3.83435 5.77018 0
M  V30 10921 N 1083.58 2.96438 4.77578 0
M  V30 10922 H 1075.73 1.83871 1.06327 0
M  V30 10923 H 1077.99 0.78758 0.527657 0
M  V30 10924 H 1077.7 2.55097 2.42112 0
M  V30 10925 H 1077.57 1.22767 3.56662 0
M  V30 10926 H 1079.96 0.483277 2.91116 0
M  V30 10927 H 1080.04 1.83946 1.77757 0
M  V30 10928 H 1079.69 3.4565 3.72141 0
M  V30 10929 H 1079.62 2.07252 4.84101 0
M  V30 10930 H 1082.11 1.84979 3.29532 0
M  V30 10931 H 1082.42 4.31565 6.4107 0
M  V30 10932 H 1080.76 3.87542 5.7692 0
M  V30 10933 H 1083.96 2.36442 4.03996 0
M  V30 10934 H 1084.13 3.48867 5.46073 0
M  V30 10935 N 1077.53 -1.43282 0.656365 0
M  V30 10936 C 1078.76 -2.06125 0.178879 0
M  V30 10937 C 1079.18 -1.49216 -1.15672 0
M  V30 10938 O 1078.53 -0.624693 -1.71475 0
M  V30 10939 C 1078.59 -3.614 0.0851785 0
M  V30 10940 O 1078.31 -4.16194 1.36798 0
M  V30 10941 C 1079.81 -4.41325 -0.41801 0
M  V30 10942 H 1077.03 -0.664753 0.0913504 0
M  V30 10943 H 1079.57 -1.83733 0.897901 0
M  V30 10944 H 1077.73 -3.82966 -0.584421 0
M  V30 10945 H 1078.14 -5.09892 1.22924 0
M  V30 10946 H 1079.61 -5.50303 -0.432519 0
M  V30 10947 H 1080.09 -4.14577 -1.44991 0
M  V30 10948 H 1080.7 -4.24735 0.219208 0
M  V30 10949 N 1079.01 -0.398486 -1.52479 0
M  V30 10950 C 1080.26 0.180752 -2.01692 0
M  V30 10951 C 1080.59 1.46044 -1.28457 0
M  V30 10952 O 1079.84 1.92051 -0.376162 0
M  V30 10953 C 1080.14 0.485909 -3.54081 0
M  V30 10954 C 1079.81 -0.703321 -4.45381 0
M  V30 10955 C 1078.47 -1.02955 -4.70057 0
M  V30 10956 C 1080.82 -1.49848 -4.99194 0
M  V30 10957 C 1078.15 -2.15231 -5.45795 0
M  V30 10958 C 1080.5 -2.61192 -5.76161 0
M  V30 10959 C 1079.17 -2.94313 -5.99113 0
M  V30 10960 H 1078.44 0.0661417 -0.738042 0
M  V30 10961 H 1081.08 -0.53772 -1.83796 0
M  V30 10962 H 1079.39 1.28582 -3.701 0
M  V30 10963 H 1081.09 0.946872 -3.89661 0
M  V30 10964 H 1077.68 -0.439062 -4.26345 0
M  V30 10965 H 1081.86 -1.25968 -4.80048 0
M  V30 10966 H 1077.12 -2.41252 -5.61789 0
M  V30 10967 H 1081.29 -3.23201 -6.16858 0
M  V30 10968 H 1078.92 -3.81431 -6.57583 0
M  V30 10969 N 1080.49 1.57075 -0.12858 0
M  V30 10970 C 1081.44 2.17084 0.835308 0
M  V30 10971 C 1082.43 1.12268 1.26855 0
M  V30 10972 O 1083.64 1.30554 1.23917 0
M  V30 10973 H 1080.01 0.694866 0.287516 0
M  V30 10974 H 1081.99 2.96839 0.304798 0
M  V30 10975 C 1080.73 2.79237 2.07177 0
M  V30 10976 H 1080.06 3.59594 1.74735 0
M  V30 10977 H 1081.5 3.24751 2.72604 0
M  V30 10978 C 1079.96 1.76803 2.86779 0
M  V30 10979 O 1080.49 1.22723 3.82494 0
M  V30 10980 N 1078.69 1.46525 2.50956 0
M  V30 10981 H 1078.24 1.90694 1.73187 0
M  V30 10982 H 1078.2 0.782326 3.04511 0
M  V30 10983 N 1081.97 -0.145205 1.5693 0
M  V30 10984 C 1083.21 -0.863709 1.85255 0
M  V30 10985 C 1083.57 -1.78266 0.713112 0
M  V30 10986 O 1084.77 -2.54075 0.877459 0
M  V30 10987 C 1083.05 -1.61628 3.18765 0
M  V30 10988 S 1084.6 -2.37996 3.68651 0
M  V30 10989 H 1081.42 -0.288792 0.649708 0
M  V30 10990 H 1084.02 -0.123603 1.95109 0
M  V30 10991 H 1082.73 -0.932688 3.99661 0
M  V30 10992 H 1082.26 -2.39726 3.11921 0
M  V30 10993 H 1084.27 -3.63223 3.38058 0
M  V30 10994 N 1083.45 -1.52049 -0.414609 0
M  V30 10995 C 1084.7 -1.65511 -1.15977 0
M  V30 10996 C 1085.02 -0.384703 -1.91168 0
M  V30 10997 O 1084.29 0.600247 -1.86477 0
M  V30 10998 H 1082.87 -0.610039 -0.431116 0
M  V30 10999 H 1085.53 -1.8907 -0.473139 0
M  V30 11000 H 1084.62 -2.4936 -1.87686 0
M  V30 11001 N 1084.93 0.6715 -1.42579 0
M  V30 11002 C 1086.17 1.43366 -1.43436 0
M  V30 11003 C 1086.5 1.94131 -0.0517339 0
M  V30 11004 O 1085.78 1.71121 0.924548 0
M  V30 11005 C 1086.06 2.62832 -2.46154 0
M  V30 11006 C 1085.92 2.17677 -3.9362 0
M  V30 11007 C 1087.23 3.65049 -2.4582 0
M  V30 11008 H 1084.35 0.519967 -0.522306 0
M  V30 11009 H 1087 0.762849 -1.74013 0
M  V30 11010 H 1085.15 3.20062 -2.2021 0
M  V30 11011 H 1086.82 1.65588 -4.30556 0
M  V30 11012 H 1085.06 1.49219 -4.07328 0
M  V30 11013 H 1085.73 3.03503 -4.61075 0
M  V30 11014 H 1088.21 3.17541 -2.68899 0
M  V30 11015 H 1087.08 4.46213 -3.19664 0
M  V30 11016 H 1087.34 4.16401 -1.48536 0
M  V30 11017 N 1086.4 1.28806 0.908124 0
M  V30 11018 C 1087.65 1.16058 1.65454 0
M  V30 11019 C 1087.97 -0.290057 1.92831 0
M  V30 11020 O 1087.24 -1.20001 1.54843 0
M  V30 11021 H 1085.82 0.426522 0.61326 0
M  V30 11022 H 1088.48 1.61614 1.08936 0
M  V30 11023 H 1087.58 1.70437 2.61453 0
M  V30 11024 N 1087.88 -1.11734 1.11145 0
M  V30 11025 C 1088.84 -2.15868 0.770303 0
M  V30 11026 C 1089.84 -1.59438 -0.208842 0
M  V30 11027 O 1091.03 -1.74193 0.0152516 0
M  V30 11028 C 1088.17 -3.40603 0.142303 0
M  V30 11029 H 1089.36 -2.4756 1.69276 0
M  V30 11030 H 1086.91 -1.26867 0.912929 0
M  V30 11031 H 1087.65 -3.14517 -0.790526 0
M  V30 11032 H 1087.43 -3.8284 0.847087 0
M  V30 11033 H 1088.92 -4.17523 -0.0803608 0
M  V30 11034 N 1089.36 -0.901303 -1.29284 0
M  V30 11035 C 1090.61 -0.528826 -1.95784 0
M  V30 11036 C 1090.94 0.922833 -1.70873 0
M  V30 11037 O 1090.21 1.65448 -1.0226 0
M  V30 11038 C 1090.5 -0.823793 -3.50551 0
M  V30 11039 C 1090.35 -2.32727 -3.84913 0
M  V30 11040 C 1091.67 -0.311382 -4.38997 0
M  V30 11041 H 1088.79 -0.193604 -0.711116 0
M  V30 11042 H 1091.43 -1.12828 -1.52872 0
M  V30 11043 H 1089.58 -0.313612 -3.87232 0
M  V30 11044 H 1091.25 -2.90712 -3.58168 0
M  V30 11045 H 1089.49 -2.78735 -3.32399 0
M  V30 11046 H 1090.17 -2.48423 -4.9294 0
M  V30 11047 H 1092.64 -0.748265 -4.09317 0
M  V30 11048 H 1091.52 -0.546957 -5.46168 0
M  V30 11049 H 1091.78 0.787959 -4.35021 0
M  V30 11050 N 1090.84 1.42931 -0.663954 0
M  V30 11051 C 1091.77 2.33499 0.00731327 0
M  V30 11052 C 1092.75 1.50074 0.800733 0
M  V30 11053 O 1093.93 1.78708 0.760062 0
M  V30 11054 C 1091.06 3.33569 0.966897 0
M  V30 11055 C 1090.02 4.27064 0.282839 0
M  V30 11056 C 1089.34 5.17257 1.35461 0
M  V30 11057 C 1090.64 5.1564 -0.831438 0
M  V30 11058 H 1092.34 2.89879 -0.749044 0
M  V30 11059 H 1089.88 1.39385 -0.361656 0
M  V30 11060 H 1091.84 3.95833 1.44549 0
M  V30 11061 H 1090.56 2.75469 1.75455 0
M  V30 11062 H 1089.22 3.6618 -0.175417 0
M  V30 11063 H 1088.87 4.5549 2.13397 0
M  V30 11064 H 1088.57 5.80634 0.902098 0
M  V30 11065 H 1090.09 5.82395 1.83436 0
M  V30 11066 H 1091.51 5.71651 -0.434534 0
M  V30 11067 H 1089.9 5.87794 -1.20908 0
M  V30 11068 H 1090.97 4.54687 -1.68487 0
M  V30 11069 N 1092.32 0.406567 1.52266 0
M  V30 11070 C 1093.56 -0.170305 2.02084 0
M  V30 11071 C 1093.89 -1.45008 1.29176 0
M  V30 11072 O 1093.17 -1.90399 0.39731 0
M  V30 11073 C 1093.45 -0.420627 3.57635 0
M  V30 11074 C 1093.31 0.87564 4.41194 0
M  V30 11075 C 1094.62 -1.20387 4.23314 0
M  V30 11076 H 1091.74 -0.0604219 0.734519 0
M  V30 11077 H 1094.39 0.539529 1.82179 0
M  V30 11078 H 1092.54 -1.0253 3.74726 0
M  V30 11079 H 1094.21 1.51192 4.35819 0
M  V30 11080 H 1092.45 1.48718 4.07511 0
M  V30 11081 H 1093.12 0.654916 5.48101 0
M  V30 11082 H 1095.6 -0.691972 4.10306 0
M  V30 11083 H 1094.47 -1.34776 5.32096 0
M  V30 11084 H 1094.73 -2.2238 3.82099 0
M  V30 11085 N 1093.79 -1.57004 0.136909 0
M  V30 11086 C 1095.04 -1.96087 -0.517477 0
M  V30 11087 C 1095.37 -1.0213 -1.65176 0
M  V30 11088 O 1094.65 -0.0617958 -1.94402 0
M  V30 11089 C 1094.93 -3.44958 -1.03323 0
M  V30 11090 C 1094.78 -4.49691 0.0988609 0
M  V30 11091 C 1096.1 -3.96091 -1.91832 0
M  V30 11092 H 1093.22 -0.712978 -0.186632 0
M  V30 11093 H 1095.86 -1.88767 0.216095 0
M  V30 11094 H 1094.01 -3.51327 -1.65836 0
M  V30 11095 H 1095.69 -4.55409 0.734847 0
M  V30 11096 H 1093.93 -4.271 0.75947 0
M  V30 11097 H 1094.6 -5.51165 -0.303554 0
M  V30 11098 H 1097.08 -3.92139 -1.39164 0
M  V30 11099 H 1095.95 -5.00742 -2.24831 0
M  V30 11100 H 1096.21 -3.37846 -2.85153 0
M  V30 11101 N 1095.27 0.136881 -1.57004 0
M  V30 11102 C 1096.5 0.866405 -1.88436 0
M  V30 11103 C 1096.92 1.73483 -0.727006 0
M  V30 11104 O 1096.28 1.78398 0.323094 0
M  V30 11105 C 1096.33 1.69059 -3.18514 0
M  V30 11106 O 1095.43 2.79584 -3.03161 0
M  V30 11107 H 1094.77 0.240709 -0.618834 0
M  V30 11108 H 1097.3 0.124653 -2.0422 0
M  V30 11109 H 1097.31 2.08353 -3.50789 0
M  V30 11110 H 1095.99 1.05296 -4.0235 0
M  V30 11111 H 1094.57 2.43623 -2.82315 0
M  V30 11112 N 1096.75 1.52266 0.40654 0
M  V30 11113 C 1097.7 1.75794 1.4955 0
M  V30 11114 C 1098.67 0.600472 1.54866 0
M  V30 11115 O 1099.85 0.838305 1.71397 0
M  V30 11116 C 1096.99 1.91682 2.86971 0
M  V30 11117 C 1096.11 3.19337 2.90943 0
M  V30 11118 C 1095.24 3.25641 4.1968 0
M  V30 11119 C 1094.28 4.47488 4.17637 0
M  V30 11120 N 1093.42 4.51171 5.37949 0
M  V30 11121 H 1098.26 2.68733 1.28789 0
M  V30 11122 H 1095.79 1.33157 0.625102 0
M  V30 11123 H 1097.75 1.98877 3.66748 0
M  V30 11124 H 1096.38 1.02121 3.06221 0
M  V30 11125 H 1095.43 3.21301 2.03642 0
M  V30 11126 H 1096.75 4.09153 2.85299 0
M  V30 11127 H 1095.9 3.31922 5.07851 0
M  V30 11128 H 1094.64 2.33769 4.28023 0
M  V30 11129 H 1093.64 4.41351 3.27856 0
M  V30 11130 H 1094.87 5.40659 4.10932 0
M  V30 11131 H 1092.81 3.62182 5.46955 0
M  V30 11132 H 1092.73 5.34835 5.3431 0
M  V30 11133 H 1094 4.61685 6.28066 0
M  V30 11134 N 1098.23 -0.663929 1.42933 0
M  V30 11135 C 1099.14 -1.80643 1.49683 0
M  V30 11136 C 1100.15 -1.69694 0.38472 0
M  V30 11137 O 1101.33 -1.91052 0.637256 0
M  V30 11138 C 1098.4 -3.16858 1.4072 0
M  V30 11139 C 1097.46 -3.39684 2.62514 0
M  V30 11140 C 1096.69 -4.69399 2.53969 0
M  V30 11141 O 1096.91 -5.48037 1.58152 0
M  V30 11142 O 1095.85 -4.93709 3.44289 0
M  V30 11143 H 1099.67 -1.77903 2.46138 0
M  V30 11144 H 1097.26 -0.821059 1.24816 0
M  V30 11145 H 1099.14 -3.9812 1.38124 0
M  V30 11146 H 1097.81 -3.20211 0.473954 0
M  V30 11147 H 1096.72 -2.58227 2.70684 0
M  V30 11148 H 1098.05 -3.41169 3.54774 0
M  V30 11149 N 1099.71 -1.29285 -0.901281 0
M  V30 11150 C 1100.64 -1.10086 -2.01032 0
M  V30 11151 C 1101.65 -0.0488364 -1.62727 0
M  V30 11152 O 1102.84 -0.293194 -1.76076 0
M  V30 11153 C 1099.94 -0.653357 -3.32542 0
M  V30 11154 C 1099.11 -1.78355 -3.99385 0
M  V30 11155 C 1098.17 -1.32733 -5.09184 0
M  V30 11156 O 1097.2 -2.03177 -5.31703 0
M  V30 11157 N 1098.4 -0.197345 -5.80164 0
M  V30 11158 H 1101.17 -2.056 -2.18057 0
M  V30 11159 H 1098.73 -1.21204 -1.07337 0
M  V30 11160 H 1100.72 -0.331491 -4.0334 0
M  V30 11161 H 1099.29 0.209278 -3.11899 0
M  V30 11162 H 1098.51 -2.27438 -3.21972 0
M  V30 11163 H 1099.8 -2.54137 -4.40785 0
M  V30 11164 H 1099.19 0.390011 -5.64354 0
M  V30 11165 H 1097.75 0.0651642 -6.51767 0
M  V30 11166 N 1101.18 1.11143 -1.11736 0
M  V30 11167 C 1102.41 1.86745 -0.890727 0
M  V30 11168 C 1102.83 1.80315 0.55964 0
M  V30 11169 O 1102.18 1.18663 1.38656 0
M  V30 11170 C 1102.24 3.35436 -1.34779 0
M  V30 11171 O 1101.96 3.41738 -2.74129 0
M  V30 11172 C 1103.46 4.27935 -1.15702 0
M  V30 11173 H 1100.68 0.59044 -0.318781 0
M  V30 11174 H 1103.22 1.40549 -1.48547 0
M  V30 11175 H 1101.38 3.79125 -0.796425 0
M  V30 11176 H 1101.79 4.34347 -2.94012 0
M  V30 11177 H 1103.26 5.30494 -1.52579 0
M  V30 11178 H 1103.74 4.39093 -0.0968735 0
M  V30 11179 H 1104.35 3.90042 -1.69551 0
M  V30 11180 N 1102.66 0.908147 1.28804 0
M  V30 11181 C 1103.57 0.397167 2.31214 0
M  V30 11182 C 1104.59 -0.512352 1.66286 0
M  V30 11183 O 1105.76 -0.399893 1.9739 0
M  V30 11184 C 1102.83 -0.359522 3.44831 0
M  V30 11185 C 1101.89 0.582539 4.25329 0
M  V30 11186 C 1101.12 -0.138133 5.33521 0
M  V30 11187 O 1101.35 -1.36076 5.53931 0
M  V30 11188 O 1100.28 0.523682 5.99618 0
M  V30 11189 H 1104.11 1.247 2.76918 0
M  V30 11190 H 1101.69 0.672766 1.33395 0
M  V30 11191 H 1103.57 -0.787098 4.13984 0
M  V30 11192 H 1102.25 -1.18528 3.01219 0
M  V30 11193 H 1101.16 1.0594 3.58786 0
M  V30 11194 H 1102.49 1.37495 4.72605 0
M  V30 11195 N 1104.14 -1.42577 0.671525 0
M  V30 11196 C 1105.07 -2.2915 -0.0477361 0
M  V30 11197 C 1106.09 -1.43503 -0.768805 0
M  V30 11198 O 1107.27 -1.67256 -0.623509 0
M  V30 11199 C 1104.37 -3.20851 -1.09122 0
M  V30 11200 C 1103.55 -4.35134 -0.44463 0
M  V30 11201 C 1102.61 -5.07579 -1.38745 0
M  V30 11202 O 1101.63 -5.62215 -0.889015 0
M  V30 11203 N 1102.83 -5.12786 -2.72086 0
M  V30 11204 H 1105.6 -2.9152 0.695415 0
M  V30 11205 H 1103.16 -1.53467 0.515689 0
M  V30 11206 H 1105.15 -3.66183 -1.72315 0
M  V30 11207 H 1103.72 -2.59956 -1.73614 0
M  V30 11208 H 1102.94 -3.9249 0.36675 0
M  V30 11209 H 1104.23 -5.088 0.00595927 0
M  V30 11210 H 1103.63 -4.69802 -3.15123 0
M  V30 11211 H 1102.19 -5.61774 -3.30535 0
M  V30 11212 N 1105.62 -0.414636 -1.52048 0
M  V30 11213 C 1106.87 0.16073 -2.01059 0
M  V30 11214 C 1107.18 1.45753 -1.30443 0
M  V30 11215 O 1108.39 2.11448 -1.703 0
M  V30 11216 C 1106.84 0.336993 -3.58319 0
M  V30 11217 C 1106.45 -0.948037 -4.37854 0
M  V30 11218 C 1108.19 0.867353 -4.15545 0
M  V30 11219 C 1106.1 -0.738662 -5.86769 0
M  V30 11220 H 1105.03 0.0638419 -0.751292 0
M  V30 11221 H 1107.68 -0.540925 -1.75346 0
M  V30 11222 H 1106.06 1.10111 -3.80383 0
M  V30 11223 H 1107.24 -1.71873 -4.27547 0
M  V30 11224 H 1105.55 -1.40522 -3.91972 0
M  V30 11225 H 1108.15 1.04012 -5.24486 0
M  V30 11226 H 1108.49 1.84358 -3.73253 0
M  V30 11227 H 1109.03 0.162148 -3.97469 0
M  V30 11228 H 1105.77 -1.6866 -6.3343 0
M  V30 11229 H 1105.29 -0.00736294 -5.998 0
M  V30 11230 H 1106.96 -0.382978 -6.45866 0
M  V30 11231 N 1107.1 1.56929 -0.145233 0
M  V30 11232 C 1108.03 2.19685 0.791263 0
M  V30 11233 C 1109.01 1.14455 1.25833 0
M  V30 11234 O 1110.19 1.42791 1.31622 0
M  V30 11235 C 1107.32 2.81705 2.03124 0
M  V30 11236 C 1106.28 3.92746 1.70101 0
M  V30 11237 C 1105.6 4.41694 3.01347 0
M  V30 11238 C 1106.9 5.13606 0.949025 0
M  V30 11239 H 1108.6 2.98196 0.26825 0
M  V30 11240 H 1106.14 1.43434 0.127584 0
M  V30 11241 H 1108.1 3.24273 2.69119 0
M  V30 11242 H 1106.82 2.00523 2.57795 0
M  V30 11243 H 1105.48 3.50794 1.06486 0
M  V30 11244 H 1105.13 3.57336 3.54006 0
M  V30 11245 H 1104.83 5.1659 2.80016 0
M  V30 11246 H 1106.35 4.86931 3.68416 0
M  V30 11247 H 1107.76 5.53029 1.51102 0
M  V30 11248 H 1106.16 5.94252 0.835711 0
M  V30 11249 H 1107.23 4.84863 -0.0595631 0
M  V30 11250 N 1108.58 -0.128553 1.57075 0
M  V30 11251 C 1109.99 -0.481794 1.52154 0
M  V30 11252 C 1110.19 -1.82381 0.856694 0
M  V30 11253 O 1109.25 -2.48725 0.434989 0
M  V30 11254 C 1110.56 -0.475091 2.96923 0
M  V30 11255 C 1112.11 -0.559315 3.07962 0
M  V30 11256 C 1112.58 -0.583095 4.54273 0
M  V30 11257 N 1114.07 -0.644803 4.5869 0
M  V30 11258 C 1114.81 -0.684493 5.693 0
M  V30 11259 N 1114.31 -0.682407 6.89431 0
M  V30 11260 N 1116.1 -0.726777 5.57382 0
M  V30 11261 H 1108.25 0.750894 1.98684 0
M  V30 11262 H 1110.51 0.27593 0.906955 0
M  V30 11263 H 1110.22 0.443157 3.48897 0
M  V30 11264 H 1110.09 -1.30637 3.53856 0
M  V30 11265 H 1112.48 -1.46798 2.55997 0
M  V30 11266 H 1112.56 0.299468 2.54041 0
M  V30 11267 H 1112.2 0.32149 5.06881 0
M  V30 11268 H 1112.13 -1.45863 5.05996 0
M  V30 11269 H 1114.63 -0.652967 3.72216 0
M  V30 11270 H 1114.94 -0.715051 7.69485 0
M  V30 11271 H 1113.28 -0.649984 6.91954 0
M  V30 11272 H 1116.47 -0.725704 4.6244 0
M  V30 11273 H 1116.65 -0.754242 6.43596 0
M  V30 11274 N 1110.05 -1.5248 -0.398459 0
M  V30 11275 C 1111.33 -1.57634 -1.15805 0
M  V30 11276 C 1111.71 -0.363785 -2.07942 0
M  V30 11277 O 1111.06 0.648598 -2.19101 0
M  V30 11278 C 1111.27 -2.91042 -1.92602 0
M  V30 11279 C 1112.62 -3.44433 -2.48296 0
M  V30 11280 O 1113.64 -2.92853 -2.0277 0
M  V30 11281 O 1112.5 -4.34529 -3.31432 0
M  V30 11282 H 1109.59 -0.63539 -0.529347 0
M  V30 11283 H 1112.14 -1.64812 -0.404376 0
M  V30 11284 H 1110.91 -3.7074 -1.25169 0
M  V30 11285 H 1110.53 -2.87206 -2.74952 0
M  V30 11286 N 1111.53 0.65634 -1.43283 0
M  V30 11287 C 1112.78 1.41212 -1.44021 0
M  V30 11288 C 1113.09 1.95485 -0.0669783 0
M  V30 11289 O 1114.3 2.71457 0.0481909 0
M  V30 11290 C 1112.76 2.55541 -2.5343 0
M  V30 11291 C 1112.36 2.07889 -3.96845 0
M  V30 11292 C 1114.11 3.3293 -2.63359 0
M  V30 11293 C 1112.01 3.19411 -4.97726 0
M  V30 11294 H 1110.94 0.530566 -0.535739 0
M  V30 11295 H 1113.6 0.708743 -1.6926 0
M  V30 11296 H 1111.98 3.28335 -2.21387 0
M  V30 11297 H 1113.15 1.42127 -4.38334 0
M  V30 11298 H 1111.47 1.43388 -3.90933 0
M  V30 11299 H 1114.06 4.1602 -3.35903 0
M  V30 11300 H 1114.41 3.80753 -1.68324 0
M  V30 11301 H 1114.94 2.67216 -2.94687 0
M  V30 11302 H 1111.68 2.7656 -5.94302 0
M  V30 11303 H 1111.2 3.83895 -4.60853 0
M  V30 11304 H 1112.88 3.84591 -5.20287 0
M  V30 11305 N 1113.01 1.29761 0.894412 0
M  V30 11306 C 1113.94 1.1115 2.00445 0
M  V30 11307 C 1114.95 0.0574655 1.62699 0
M  V30 11308 O 1116.14 0.302528 1.75918 0
M  V30 11309 C 1113.24 0.670984 3.32191 0
M  V30 11310 C 1112.42 1.80471 3.98433 0
M  V30 11311 C 1111.48 1.35431 5.08473 0
M  V30 11312 O 1110.5 2.05994 5.30618 0
M  V30 11313 N 1111.7 0.22811 5.80052 0
M  V30 11314 H 1114.47 2.06753 2.16964 0
M  V30 11315 H 1112.03 1.21772 1.06692 0
M  V30 11316 H 1114.02 0.352877 4.03159 0
M  V30 11317 H 1112.59 -0.192735 3.12005 0
M  V30 11318 H 1111.81 2.29142 3.20761 0
M  V30 11319 H 1113.1 2.56471 4.39431 0
M  V30 11320 H 1112.5 -0.360076 5.64553 0
M  V30 11321 H 1111.05 -0.0305985 6.51793 0
M  V30 11322 N 1114.49 -1.10549 1.12324 0
M  V30 11323 C 1115.42 -2.16657 0.747826 0
M  V30 11324 C 1116.43 -1.61238 -0.224981 0
M  V30 11325 O 1117.62 -1.78499 -0.00649408 0
M  V30 11326 C 1114.72 -3.38791 0.0859421 0
M  V30 11327 C 1113.89 -4.23655 1.08792 0
M  V30 11328 C 1112.95 -5.24239 0.453871 0
M  V30 11329 O 1111.98 -5.58262 1.11052 0
M  V30 11330 N 1113.18 -5.75246 -0.779215 0
M  V30 11331 H 1115.95 -2.49472 1.66084 0
M  V30 11332 H 1113.51 -1.26157 1.01469 0
M  V30 11333 H 1115.5 -4.03182 -0.350186 0
M  V30 11334 H 1114.07 -3.03961 -0.729807 0
M  V30 11335 H 1113.29 -3.55578 1.70171 0
M  V30 11336 H 1114.58 -4.77187 1.76549 0
M  V30 11337 H 1113.98 -5.49802 -1.3317 0
M  V30 11338 H 1112.53 -6.41428 -1.15818 0
M  V30 11339 N 1115.97 -0.914965 -1.28321 0
M  V30 11340 C 1116.92 -0.375436 -2.24888 0
M  V30 11341 C 1117.9 0.51313 -1.52498 0
M  V30 11342 O 1119.09 0.352654 -1.73451 0
M  V30 11343 C 1116.22 0.382266 -3.41165 0
M  V30 11344 C 1115.31 -0.522089 -4.20874 0
M  V30 11345 N 1115.7 -1.63623 -4.78603 0
M  V30 11346 C 1114 -0.322703 -4.44831 0
M  V30 11347 C 1114.7 -2.19766 -5.38589 0
M  V30 11348 N 1113.67 -1.48878 -5.22816 0
M  V30 11349 H 1117.47 -1.2263 -2.67094 0
M  V30 11350 H 1114.99 -0.767759 -1.43106 0
M  V30 11351 H 1116.99 0.785641 -4.0943 0
M  V30 11352 H 1115.65 1.23021 -3.00493 0
M  V30 11353 H 1116.66 -2.01879 -4.76933 0
M  V30 11354 H 1113.33 0.485627 -4.14666 0
M  V30 11355 H 1114.72 -3.13494 -5.94282 0
M  V30 11356 N 1117.44 1.42219 -0.679077 0
M  V30 11357 C 1118.39 2.308 -0.00340316 0
M  V30 11358 C 1119.36 1.462 0.788334 0
M  V30 11359 O 1120.55 1.75023 0.759716 0
M  V30 11360 C 1117.69 3.32084 0.938854 0
M  V30 11361 C 1116.8 4.31772 0.140485 0
M  V30 11362 C 1115.93 5.20128 1.07888 0
M  V30 11363 C 1114.97 6.11493 0.27245 0
M  V30 11364 N 1114.11 6.92388 1.16378 0
M  V30 11365 H 1118.95 2.88024 -0.764587 0
M  V30 11366 H 1116.49 1.41869 -0.38878 0
M  V30 11367 H 1118.44 3.89339 1.49903 0
M  V30 11368 H 1117.07 2.76448 1.66662 0
M  V30 11369 H 1116.13 3.76599 -0.536376 0
M  V30 11370 H 1117.44 4.96432 -0.485433 0
M  V30 11371 H 1116.59 5.82137 1.70884 0
M  V30 11372 H 1115.33 4.55655 1.73868 0
M  V30 11373 H 1114.34 5.48549 -0.370693 0
M  V30 11374 H 1115.56 6.78017 -0.383315 0
M  V30 11375 H 1113.51 6.30538 1.8099 0
M  V30 11376 H 1113.42 7.5367 0.593043 0
M  V30 11377 H 1114.69 7.58879 1.78107 0
M  V30 11378 N 1118.92 0.422693 1.51826 0
M  V30 11379 C 1119.83 -0.40261 2.31119 0
M  V30 11380 C 1120.85 -1.04117 1.39412 0
M  V30 11381 O 1122.02 -1.03973 1.72486 0
M  V30 11382 C 1119.09 -1.49699 3.12716 0
M  V30 11383 C 1118.15 -0.880088 4.20182 0
M  V30 11384 C 1117.38 -1.92232 4.97878 0
M  V30 11385 O 1117.61 -3.14246 4.76031 0
M  V30 11386 O 1116.54 -1.521 5.82365 0
M  V30 11387 H 1120.37 0.244308 3.02716 0
M  V30 11388 H 1117.95 0.185569 1.48243 0
M  V30 11389 H 1119.83 -2.13202 3.63487 0
M  V30 11390 H 1118.51 -2.12826 2.43899 0
M  V30 11391 H 1117.41 -0.207404 3.73525 0
M  V30 11392 H 1118.75 -0.292535 4.9133 0
M  V30 11393 N 1120.4 -1.5685 0.153553 0
M  V30 11394 C 1121.31 -2.20664 -0.796528 0
M  V30 11395 C 1122.33 -1.19289 -1.26674 0
M  V30 11396 O 1123.5 -1.51889 -1.32256 0
M  V30 11397 C 1120.57 -2.82088 -2.01561 0
M  V30 11398 C 1119.63 -3.9861 -1.59401 0
M  V30 11399 C 1118.86 -4.57096 -2.75498 0
M  V30 11400 O 1119.08 -4.14462 -3.9189 0
M  V30 11401 O 1118.02 -5.47254 -2.50593 0
M  V30 11402 H 1121.84 -3.02376 -0.283282 0
M  V30 11403 H 1119.43 -1.49218 -0.0737927 0
M  V30 11404 H 1121.31 -3.21103 -2.72893 0
M  V30 11405 H 1119.99 -2.03385 -2.51826 0
M  V30 11406 H 1118.89 -3.64299 -0.850725 0
M  V30 11407 H 1120.23 -4.78853 -1.13845 0
M  V30 11408 N 1121.88 0.120221 -1.57141 0
M  V30 11409 C 1122.84 1.13159 -1.99318 0
M  V30 11410 C 1123.84 1.34376 -0.883158 0
M  V30 11411 O 1125.03 1.30914 -1.14922 0
M  V30 11412 C 1122.16 2.48632 -2.33227 0
M  V30 11413 H 1123.36 0.769119 -2.8987 0
M  V30 11414 H 1120.91 0.364475 -1.51991 0
M  V30 11415 H 1121.64 2.89802 -1.45551 0
M  V30 11416 H 1121.43 2.34587 -3.14184 0
M  V30 11417 H 1122.92 3.21423 -2.66603 0
M  V30 11418 N 1123.36 1.52689 0.390367 0
M  V30 11419 C 1124.6 1.68866 1.13383 0
M  V30 11420 C 1124.96 0.422683 1.877 0
M  V30 11421 O 1124.25 -0.583587 1.82496 0
M  V30 11422 C 1124.44 2.86177 2.14096 0
M  V30 11423 C 1124.27 4.24062 1.49672 0
M  V30 11424 C 1123.04 4.89303 1.26139 0
M  V30 11425 C 1125.24 5.05496 0.947554 0
M  V30 11426 N 1123.22 6.11172 0.578051 0
M  V30 11427 C 1124.59 6.18758 0.392199 0
M  V30 11428 C 1126.65 4.90697 0.843832 0
M  V30 11429 C 1125.35 7.18842 -0.256734 0
M  V30 11430 C 1127.38 5.91032 0.208722 0
M  V30 11431 C 1126.74 7.03599 -0.33587 0
M  V30 11432 H 1122.84 0.671411 0.400914 0
M  V30 11433 H 1125.42 1.90037 0.423563 0
M  V30 11434 H 1123.59 2.66589 2.82462 0
M  V30 11435 H 1125.33 2.91298 2.80941 0
M  V30 11436 H 1122.08 4.48 1.53601 0
M  V30 11437 H 1122.51 6.76529 0.252464 0
M  V30 11438 H 1127.15 4.03879 1.25067 0
M  V30 11439 H 1124.87 8.05271 -0.675589 0
M  V30 11440 H 1128.45 5.81655 0.129732 0
M  V30 11441 H 1127.33 7.79906 -0.819557 0
M  V30 11442 N 1124.83 -0.648732 1.43629 0
M  V30 11443 C 1126.08 -1.41066 1.45699 0
M  V30 11444 C 1126.41 -1.94024 0.082612 0
M  V30 11445 O 1125.69 -1.7257 -0.897207 0
M  V30 11446 C 1125.97 -2.58882 2.50304 0
M  V30 11447 C 1125.82 -2.11387 3.97033 0
M  V30 11448 C 1127.14 -3.61092 2.51597 0
M  V30 11449 H 1124.26 -0.511591 0.530512 0
M  V30 11450 H 1126.9 -0.735069 1.75205 0
M  V30 11451 H 1125.05 -3.16518 2.25274 0
M  V30 11452 H 1126.73 -1.58718 4.33136 0
M  V30 11453 H 1124.97 -1.4272 4.0965 0
M  V30 11454 H 1125.64 -2.96129 4.65845 0
M  V30 11455 H 1128.12 -3.13223 2.73917 0
M  V30 11456 H 1126.99 -4.41071 3.26722 0
M  V30 11457 H 1127.25 -4.13985 1.55141 0
M  V30 11458 N 1126.31 -1.30234 -0.887518 0
M  V30 11459 C 1127.56 -1.18277 -1.63381 0
M  V30 11460 C 1127.87 0.262079 -1.93836 0
M  V30 11461 O 1129.08 0.503127 -2.66797 0
M  V30 11462 C 1127.54 -2.06944 -2.94452 0
M  V30 11463 C 1127.14 -3.56323 -2.71547 0
M  V30 11464 C 1128.89 -2.03743 -3.7241 0
M  V30 11465 C 1126.8 -4.37054 -3.98419 0
M  V30 11466 H 1125.73 -0.439087 -0.612959 0
M  V30 11467 H 1128.38 -1.54964 -0.982779 0
M  V30 11468 H 1126.76 -1.63138 -3.60835 0
M  V30 11469 H 1127.93 -4.08261 -2.13681 0
M  V30 11470 H 1126.25 -3.61321 -2.06969 0
M  V30 11471 H 1128.84 -2.61312 -4.66497 0
M  V30 11472 H 1129.19 -1.02029 -4.03603 0
M  V30 11473 H 1129.72 -2.45657 -3.12886 0
M  V30 11474 H 1126.46 -5.39453 -3.72385 0
M  V30 11475 H 1125.98 -3.89881 -4.55799 0
M  V30 11476 H 1127.66 -4.48356 -4.66462 0
M  V30 11477 N 1127.79 1.09952 -1.12909 0
M  V30 11478 C 1129.04 1.81657 -0.885729 0
M  V30 11479 C 1129.36 1.85863 0.589913 0
M  V30 11480 O 1128.63 1.34028 1.42875 0
M  V30 11481 H 1127.21 0.672743 -0.324694 0
M  V30 11482 H 1129.87 1.33013 -1.42456 0
M  V30 11483 H 1128.97 2.85018 -1.27167 0
M  V30 11484 N 1129.27 0.921757 1.27833 0
M  V30 11485 C 1130.49 0.574599 1.99281 0
M  V30 11486 C 1130.92 -0.838905 1.68357 0
M  V30 11487 O 1130.28 -1.56196 0.920468 0
M  V30 11488 C 1130.32 0.800027 3.51613 0
M  V30 11489 O 1129.43 -0.137215 4.12172 0
M  V30 11490 H 1128.77 0.221887 0.625829 0
M  V30 11491 H 1131.3 1.23939 1.62789 0
M  V30 11492 H 1131.31 0.71326 4.01717 0
M  V30 11493 H 1129.98 1.83042 3.73455 0
M  V30 11494 H 1128.56 -0.00103872 3.729 0
M  V30 11495 N 1130.75 -1.41857 0.686609 0
M  V30 11496 C 1131.99 -2.01666 0.214118 0
M  V30 11497 C 1132.33 -1.5422 -1.18025 0
M  V30 11498 O 1131.6 -0.749482 -1.7948 0
M  V30 11499 C 1131.88 -3.59147 0.261841 0
M  V30 11500 C 1131.74 -4.16742 1.69251 0
M  V30 11501 C 1133.06 -4.38427 -0.383378 0
M  V30 11502 H 1130.17 -0.732724 0.0792785 0
M  V30 11503 H 1132.82 -1.68724 0.873633 0
M  V30 11504 H 1130.97 -3.87342 -0.29971 0
M  V30 11505 H 1132.64 -3.99456 2.30722 0
M  V30 11506 H 1130.88 -3.72124 2.2295 0
M  V30 11507 H 1131.55 -5.25894 1.6775 0
M  V30 11508 H 1134.03 -4.15992 0.0947701 0
M  V30 11509 H 1132.9 -5.4797 -0.319401 0
M  V30 11510 H 1133.17 -4.172 -1.46276 0
M  V30 11511 N 1132.22 -0.430739 -1.51599 0
M  V30 11512 C 1133.47 0.138133 -2.02329 0
M  V30 11513 C 1133.8 1.42934 -1.31466 0
M  V30 11514 O 1133.08 1.89743 -0.427551 0
M  V30 11515 C 1133.36 0.363677 -3.58259 0
M  V30 11516 C 1133.21 -0.94572 -4.39746 0
M  V30 11517 C 1134.53 1.13637 -4.25176 0
M  V30 11518 H 1131.65 0.0487287 -0.735387 0
M  V30 11519 H 1134.29 -0.568444 -1.81297 0
M  V30 11520 H 1132.44 0.965552 -3.7631 0
M  V30 11521 H 1134.12 -1.58107 -4.33359 0
M  V30 11522 H 1132.36 -1.55183 -4.05094 0
M  V30 11523 H 1133.03 -0.742031 -5.4699 0
M  V30 11524 H 1135.51 0.626608 -4.11355 0
M  V30 11525 H 1134.38 1.26294 -5.34173 0
M  V30 11526 H 1134.64 2.16273 -3.85588 0
M  V30 11527 N 1133.7 1.56767 -0.161869 0
M  V30 11528 C 1134.67 2.16299 0.758104 0
M  V30 11529 C 1135.67 1.10859 1.16478 0
M  V30 11530 O 1136.86 1.36422 1.08327 0
M  V30 11531 C 1133.99 2.73819 2.03067 0
M  V30 11532 H 1135.18 2.98938 0.239992 0
M  V30 11533 H 1132.73 1.56054 0.0876532 0
M  V30 11534 H 1133.47 1.94887 2.59209 0
M  V30 11535 H 1133.25 3.50974 1.74813 0
M  V30 11536 H 1134.74 3.19638 2.68741 0
M  V30 11537 N 1135.18 -0.111886 1.57202 0
M  V30 11538 C 1136.6 -0.465629 1.52657 0
M  V30 11539 C 1136.8 -1.81463 0.875989 0
M  V30 11540 O 1135.85 -2.4825 0.461345 0
M  V30 11541 C 1137.17 -0.443571 2.9741 0
M  V30 11542 C 1138.71 -0.52662 3.08538 0
M  V30 11543 C 1139.19 -0.53488 4.54866 0
M  V30 11544 N 1140.68 -0.596117 4.59348 0
M  V30 11545 C 1141.41 -0.624073 5.69994 0
M  V30 11546 N 1140.91 -0.609245 6.90116 0
M  V30 11547 N 1142.7 -0.667619 5.58121 0
M  V30 11548 H 1134.85 0.771925 1.97876 0
M  V30 11549 H 1137.12 0.285534 0.903977 0
M  V30 11550 H 1136.82 0.480138 3.48407 0
M  V30 11551 H 1136.7 -1.26876 3.55221 0
M  V30 11552 H 1139.08 -1.44075 2.57539 0
M  V30 11553 H 1139.17 0.326396 2.53709 0
M  V30 11554 H 1138.81 0.375233 5.06512 0
M  V30 11555 H 1138.74 -1.40488 5.07514 0
M  V30 11556 H 1141.23 -0.613452 3.72888 0
M  V30 11557 H 1141.54 -0.633396 7.702 0
M  V30 11558 H 1139.89 -0.576557 6.92604 0
M  V30 11559 H 1143.08 -0.676616 4.63184 0
M  V30 11560 H 1143.25 -0.685938 6.44359 0
M  V30 11561 N 1136.66 -1.52894 -0.382264 0
M  V30 11562 C 1137.62 -1.77497 -1.45008 0
M  V30 11563 C 1138.62 -0.64509 -1.47293 0
M  V30 11564 O 1139.81 -0.913192 -1.48346 0
M  V30 11565 C 1136.94 -1.88188 -2.8425 0
M  V30 11566 H 1138.14 -2.72849 -1.24473 0
M  V30 11567 H 1135.69 -1.43717 -0.61441 0
M  V30 11568 H 1136.42 -0.948451 -3.10121 0
M  V30 11569 H 1136.21 -2.70353 -2.83992 0
M  V30 11570 H 1137.7 -2.08873 -3.6161 0
M  V30 11571 N 1138.14 0.641106 -1.43971 0
M  V30 11572 C 1139.05 1.78239 -1.52538 0
M  V30 11573 C 1140.06 1.6906 -0.411668 0
M  V30 11574 O 1141.24 1.90014 -0.66757 0
M  V30 11575 C 1138.3 3.14579 -1.45743 0
M  V30 11576 C 1137.37 3.35464 -2.67885 0
M  V30 11577 C 1136.6 4.65299 -2.61404 0
M  V30 11578 O 1136.82 5.45451 -1.66851 0
M  V30 11579 O 1135.76 4.8817 -3.521 0
M  V30 11580 H 1139.58 1.73965 -2.48937 0
M  V30 11581 H 1137.17 0.801098 -1.26106 0
M  V30 11582 H 1139.05 3.95873 -1.4444 0
M  V30 11583 H 1137.72 3.19417 -0.524837 0
M  V30 11584 H 1136.63 2.53888 -2.74758 0
M  V30 11585 H 1137.96 3.35481 -3.60157 0
M  V30 11586 N 1139.62 1.30703 0.880598 0
M  V30 11587 C 1140.86 1.19541 1.62955 0
M  V30 11588 C 1141.18 -0.249089 1.93403 0
M  V30 11589 O 1140.45 -1.1669 1.57354 0
M  V30 11590 H 1139.03 0.439434 0.604075 0
M  V30 11591 H 1141.7 1.63888 1.05483 0
M  V30 11592 H 1140.79 1.75945 2.57779 0
M  V30 11593 N 1141.09 -1.09351 1.1349 0
M  V30 11594 C 1142.32 -1.85844 0.92069 0
M  V30 11595 C 1142.74 -1.80616 -0.525303 0
M  V30 11596 O 1142.1 -1.1842 -1.37282 0
M  V30 11597 C 1142.15 -3.31716 1.4141 0
M  V30 11598 O 1141.25 -4.08014 0.599838 0
M  V30 11599 H 1140.59 -0.576242 0.32991 0
M  V30 11600 H 1143.12 -1.38084 1.50976 0
M  V30 11601 H 1143.13 -3.82564 1.41805 0
M  V30 11602 H 1141.81 -3.34837 2.46692 0
M  V30 11603 H 1140.39 -3.66944 0.663816 0
M  V30 11604 N 1142.57 -0.928524 -1.27343 0
M  V30 11605 C 1143.98 -0.613856 -1.7632 0
M  V30 11606 C 1144.33 0.870983 -1.75808 0
M  V30 11607 O 1143.46 1.68155 -1.36209 0
M  V30 11608 C 1144.05 -1.10755 -3.20186 0
M  V30 11609 C 1142.61 -0.843532 -3.66826 0
M  V30 11610 C 1141.76 -1.26579 -2.46724 0
M  V30 11611 H 1144.71 -1.10821 -1.13598 0
M  V30 11612 H 1144.73 -0.455598 -3.77763 0
M  V30 11613 H 1144.24 -2.18825 -3.20526 0
M  V30 11614 H 1142.34 0.223334 -3.7193 0
M  V30 11615 H 1142.46 -1.46165 -4.56259 0
M  V30 11616 H 1140.82 -0.684334 -2.45334 0
M  V30 11617 H 1141.6 -2.35516 -2.49774 0
M  V30 11618 N 1144.05 1.41491 -0.694123 0
M  V30 11619 C 1145.47 1.55358 -0.365532 0
M  V30 11620 C 1145.67 1.66994 1.12762 0
M  V30 11621 O 1144.72 1.64756 1.91342 0
M  V30 11622 C 1146.03 2.79352 -1.11279 0
M  V30 11623 C 1147.58 2.93147 -1.097 0
M  V30 11624 C 1148.06 4.20027 -1.82597 0
M  V30 11625 N 1149.55 4.26981 -1.7956 0
M  V30 11626 C 1150.28 5.24013 -2.32805 0
M  V30 11627 N 1149.78 6.27083 -2.94515 0
M  V30 11628 N 1151.57 5.15943 -2.23069 0
M  V30 11629 H 1143.72 1.32183 -1.66257 0
M  V30 11630 H 1145.99 0.637624 -0.701527 0
M  V30 11631 H 1145.69 2.76958 -2.16765 0
M  V30 11632 H 1145.57 3.70827 -0.690439 0
M  V30 11633 H 1147.95 2.95057 -0.0504037 0
M  V30 11634 H 1148.03 2.02849 -1.55839 0
M  V30 11635 H 1147.68 4.18878 -2.87235 0
M  V30 11636 H 1147.61 5.09294 -1.33893 0
M  V30 11637 H 1150.1 3.53129 -1.34567 0
M  V30 11638 H 1150.41 6.97511 -3.32714 0
M  V30 11639 H 1148.76 6.27589 -2.98592 0
M  V30 11640 H 1151.95 4.34346 -1.74532 0
M  V30 11641 H 1152.12 5.91396 -2.64868 0
M  V30 11642 N 1145.53 0.438773 1.51369 0
M  V30 11643 C 1146.77 -0.127401 2.02399 0
M  V30 11644 C 1147.11 -1.42235 1.32223 0
M  V30 11645 O 1146.38 -1.89513 0.437607 0
M  V30 11646 C 1146.66 -0.344673 3.58447 0
M  V30 11647 C 1146.52 0.969027 4.39238 0
M  V30 11648 C 1147.84 -1.11381 4.25773 0
M  V30 11649 H 1144.96 -0.0448281 0.735635 0
M  V30 11650 H 1147.6 0.57805 1.80993 0
M  V30 11651 H 1145.75 -0.945582 3.76817 0
M  V30 11652 H 1147.42 1.60403 4.32514 0
M  V30 11653 H 1145.66 1.57329 4.04265 0
M  V30 11654 H 1146.33 0.771029 5.46589 0
M  V30 11655 H 1148.81 -0.604785 4.11681 0
M  V30 11656 H 1147.69 -1.23459 5.34835 0
M  V30 11657 H 1147.95 -2.14225 3.8673 0
M  V30 11658 N 1147.01 -1.56678 0.170181 0
M  V30 11659 C 1147.95 -2.17909 -0.760556 0
M  V30 11660 C 1148.92 -1.11875 -1.22773 0
M  V30 11661 O 1150.11 -1.40021 -1.2961 0
M  V30 11662 C 1147.25 -2.82305 -1.9849 0
M  V30 11663 C 1146.36 -4.02796 -1.5614 0
M  V30 11664 C 1145.5 -4.55121 -2.73932 0
M  V30 11665 C 1144.53 -5.68025 -2.28067 0
M  V30 11666 N 1143.67 -6.14865 -3.38947 0
M  V30 11667 H 1148.51 -2.97098 -0.231629 0
M  V30 11668 H 1146.05 -1.46742 -0.102602 0
M  V30 11669 H 1148.01 -3.17797 -2.70298 0
M  V30 11670 H 1146.64 -2.05721 -2.48755 0
M  V30 11671 H 1145.69 -3.73131 -0.740097 0
M  V30 11672 H 1147 -4.84526 -1.18472 0
M  V30 11673 H 1146.15 -4.92789 -3.53898 0
M  V30 11674 H 1144.89 -3.72445 -3.14858 0
M  V30 11675 H 1143.9 -5.2991 -1.46546 0
M  V30 11676 H 1145.12 -6.52501 -1.88199 0
M  V30 11677 H 1143.07 -5.35119 -3.79452 0
M  V30 11678 H 1142.99 -6.91582 -3.05369 0
M  V30 11679 H 1144.25 -6.57183 -4.19203 0
M  V30 11680 N 1148.48 0.103547 -1.57259 0
M  V30 11681 C 1149.73 0.809774 -1.85931 0
M  V30 11682 C 1150.06 1.78791 -0.758122 0
M  V30 11683 O 1149.34 1.93079 0.234682 0
M  V30 11684 C 1149.62 1.54601 -3.25224 0
M  V30 11685 C 1149.47 0.586439 -4.45961 0
M  V30 11686 C 1150.79 2.4986 -3.62296 0
M  V30 11687 H 1147.91 0.29293 -0.676285 0
M  V30 11688 H 1150.55 0.0736065 -1.89857 0
M  V30 11689 H 1148.7 2.17355 -3.22008 0
M  V30 11690 H 1150.38 -0.0334441 -4.61288 0
M  V30 11691 H 1148.62 -0.10085 -4.33683 0
M  V30 11692 H 1149.29 1.13855 -5.40131 0
M  V30 11693 H 1151.77 1.97203 -3.66402 0
M  V30 11694 H 1150.64 2.98396 -4.60707 0
M  V30 11695 H 1150.9 3.33233 -2.90531 0
M  V30 11696 N 1149.96 1.53094 0.37415 0
M  V30 11697 C 1150.91 1.78927 1.45787 0
M  V30 11698 C 1151.88 0.633187 1.53558 0
M  V30 11699 O 1153.06 0.874472 1.69581 0
M  V30 11700 C 1150.2 1.97726 2.8284 0
M  V30 11701 C 1149.32 3.25436 2.84104 0
M  V30 11702 C 1148.45 3.3447 4.12678 0
M  V30 11703 C 1147.49 4.56246 4.08051 0
M  V30 11704 N 1146.63 4.6248 5.28258 0
M  V30 11705 H 1151.47 2.71404 1.2306 0
M  V30 11706 H 1149 1.34453 0.596716 0
M  V30 11707 H 1150.96 2.06611 3.62447 0
M  V30 11708 H 1149.59 1.08593 3.03986 0
M  V30 11709 H 1148.64 3.25548 1.96781 0
M  V30 11710 H 1149.96 4.15112 2.76556 0
M  V30 11711 H 1149.11 3.4262 5.00696 0
M  V30 11712 H 1147.85 2.42795 4.22968 0
M  V30 11713 H 1146.85 4.48206 3.1842 0
M  V30 11714 H 1148.08 5.49254 3.99371 0
M  V30 11715 H 1146.03 3.73703 5.3915 0
M  V30 11716 H 1145.94 5.46049 5.22845 0
M  V30 11717 H 1147.21 4.74903 6.18132 0
M  V30 11718 N 1151.44 -0.633461 1.44309 0
M  V30 11719 C 1152.39 -1.76674 1.51292 0
M  V30 11720 C 1153.38 -1.64972 0.384807 0
M  V30 11721 O 1154.59 -1.71079 0.559653 0
M  V30 11722 H 1150.96 -0.583238 0.474697 0
M  V30 11723 H 1152.93 -1.67907 2.46678 0
M  V30 11724 C 1151.68 -3.15002 1.47205 0
M  V30 11725 H 1151.01 -3.24653 2.33325 0
M  V30 11726 H 1152.45 -3.94199 1.56151 0
M  V30 11727 C 1150.9 -3.3635 0.192464 0
M  V30 11728 O 1151.43 -3.94857 -0.738285 0
M  V30 11729 N 1149.64 -2.9044 0.0963424 0
M  V30 11730 H 1149.19 -2.43011 0.85459 0
M  V30 11731 H 1149.15 -3.05099 -0.759061 0
M  V30 11732 N 1152.92 -1.31168 -0.873655 0
M  V30 11733 C 1153.85 -1.21094 -1.99646 0
M  V30 11734 C 1154.83 -0.0989684 -1.69812 0
M  V30 11735 O 1156.01 -0.282939 -1.92128 0
M  V30 11736 C 1153.14 -0.913684 -3.35066 0
M  V30 11737 C 1152.1 -1.98482 -3.79195 0
M  V30 11738 C 1151.42 -1.54033 -5.12033 0
M  V30 11739 C 1152.72 -3.39745 -3.96699 0
M  V30 11740 H 1154.42 -2.1503 -2.08333 0
M  V30 11741 H 1151.96 -1.03521 -1.00097 0
M  V30 11742 H 1153.92 -0.829821 -4.13149 0
M  V30 11743 H 1152.64 0.0613471 -3.26542 0
M  V30 11744 H 1151.3 -2.05851 -3.03349 0
M  V30 11745 H 1150.95 -0.553261 -4.99948 0
M  V30 11746 H 1150.65 -2.25688 -5.4253 0
M  V30 11747 H 1152.17 -1.47047 -5.92629 0
M  V30 11748 H 1153.59 -3.35071 -4.65188 0
M  V30 11749 H 1151.98 -4.09585 -4.38589 0
M  V30 11750 H 1153.05 -3.80802 -3.00196 0
M  V30 11751 N 1154.4 1.08748 -1.14068 0
M  V30 11752 C 1155.65 1.8044 -0.901352 0
M  V30 11753 C 1155.96 1.86995 0.573791 0
M  V30 11754 O 1157.16 2.55065 0.930275 0
M  V30 11755 C 1155.62 3.24185 -1.56308 0
M  V30 11756 C 1155.23 3.25875 -3.07424 0
M  V30 11757 C 1156.97 4.00584 -1.40473 0
M  V30 11758 C 1154.88 4.64186 -3.66449 0
M  V30 11759 H 1153.81 0.676201 -0.333569 0
M  V30 11760 H 1156.46 1.22169 -1.3692 0
M  V30 11761 H 1154.84 3.82561 -1.0229 0
M  V30 11762 H 1156.02 2.77225 -3.6808 0
M  V30 11763 H 1154.33 2.62969 -3.22856 0
M  V30 11764 H 1156.93 5.02781 -1.81976 0
M  V30 11765 H 1157.27 4.14823 -0.350408 0
M  V30 11766 H 1157.8 3.48668 -1.91508 0
M  V30 11767 H 1154.54 4.5515 -4.71719 0
M  V30 11768 H 1154.06 5.13132 -3.10574 0
M  V30 11769 H 1155.74 5.33161 -3.66536 0
M  V30 11770 N 1155.87 0.935264 1.26849 0
M  V30 11771 C 1156.78 0.446122 2.30319 0
M  V30 11772 C 1157.8 -0.476965 1.67335 0
M  V30 11773 O 1158.98 -0.357934 1.98194 0
M  V30 11774 C 1156.04 -0.286297 3.45516 0
M  V30 11775 C 1155.1 0.672626 4.23998 0
M  V30 11776 C 1154.34 -0.0249345 5.33694 0
M  V30 11777 O 1154.56 -1.24296 5.56693 0
M  V30 11778 O 1153.49 0.650752 5.98372 0
M  V30 11779 H 1157.32 1.30546 2.74211 0
M  V30 11780 H 1154.9 0.70091 1.31938 0
M  V30 11781 H 1156.79 -0.699109 4.1556 0
M  V30 11782 H 1155.46 -1.12112 3.03665 0
M  V30 11783 H 1154.37 1.13527 3.56458 0
M  V30 11784 H 1155.7 1.47489 4.69583 0
M  V30 11785 N 1157.35 -1.41121 0.701616 0
M  V30 11786 C 1158.58 -2.05973 0.242896 0
M  V30 11787 C 1159 -1.52474 -1.10151 0
M  V30 11788 O 1158.36 -0.654224 -1.69085 0
M  V30 11789 C 1158.41 -3.59943 0.217614 0
M  V30 11790 O 1157.51 -4.04454 -0.805629 0
M  V30 11791 H 1156.85 -0.653581 0.117166 0
M  V30 11792 H 1159.38 -1.80777 0.958175 0
M  V30 11793 H 1159.39 -4.07969 0.0505267 0
M  V30 11794 H 1158.07 -3.98249 1.19877 0
M  V30 11795 H 1156.65 -3.6792 -0.607404 0
M  V30 11796 N 1158.83 -0.446794 -1.51134 0
M  V30 11797 C 1159.76 0.405311 -2.24572 0
M  V30 11798 C 1160.74 1.01679 -1.26886 0
M  V30 11799 O 1161.93 1.05743 -1.56047 0
M  V30 11800 C 1159.05 1.56573 -3.00338 0
M  V30 11801 C 1158.1 1.07401 -4.12756 0
M  V30 11802 S 1158.93 0.00835038 -5.35499 0
M  V30 11803 C 1160.09 1.17321 -6.14806 0
M  V30 11804 H 1160.32 -0.218143 -2.96499 0
M  V30 11805 H 1157.85 -0.231405 -1.52656 0
M  V30 11806 H 1159.81 2.23092 -3.44587 0
M  V30 11807 H 1158.47 2.16062 -2.27982 0
M  V30 11808 H 1157.67 1.94204 -4.65082 0
M  V30 11809 H 1157.27 0.486906 -3.70817 0
M  V30 11810 H 1159.56 2.08972 -6.44466 0
M  V30 11811 H 1160.5 0.689723 -7.04733 0
M  V30 11812 H 1160.91 1.41605 -5.4645 0
M  V30 11813 N 1160.31 1.56586 -0.178487 0
M  V30 11814 C 1161.24 2.155 0.780543 0
M  V30 11815 C 1162.25 1.11244 1.18864 0
M  V30 11816 O 1163.44 1.38403 1.12725 0
M  V30 11817 C 1160.54 2.68867 2.0631 0
M  V30 11818 C 1159.72 3.97854 1.81744 0
M  V30 11819 C 1158.77 4.36213 2.94287 0
M  V30 11820 O 1157.8 5.03954 2.64612 0
M  V30 11821 N 1159 3.98356 4.22247 0
M  V30 11822 H 1161.77 2.98419 0.276836 0
M  V30 11823 H 1159.33 1.61899 0.00405241 0
M  V30 11824 H 1161.32 2.91522 2.80708 0
M  V30 11825 H 1159.89 1.90496 2.47851 0
M  V30 11826 H 1159.11 3.83502 0.912127 0
M  V30 11827 H 1160.4 4.82083 1.62707 0
M  V30 11828 H 1159.8 3.43835 4.49215 0
M  V30 11829 H 1158.35 4.25998 4.93325 0
M  V30 11830 N 1161.79 -0.095206 1.57312 0
M  V30 11831 C 1163.04 -0.797417 1.85268 0
M  V30 11832 C 1163.35 -1.79903 0.767733 0
M  V30 11833 O 1164.55 -2.54914 0.934409 0
M  V30 11834 C 1163.01 -1.469 3.28555 0
M  V30 11835 C 1162.62 -0.507152 4.4512 0
M  V30 11836 C 1164.36 -2.15494 3.65735 0
M  V30 11837 C 1162.27 -1.18331 5.79441 0
M  V30 11838 H 1161.2 -0.301552 0.691074 0
M  V30 11839 H 1163.85 -0.0503584 1.83431 0
M  V30 11840 H 1162.23 -2.26351 3.24933 0
M  V30 11841 H 1163.41 0.255858 4.60089 0
M  V30 11842 H 1161.72 0.0730882 4.16336 0
M  V30 11843 H 1164.32 -2.66816 4.63371 0
M  V30 11844 H 1164.66 -2.94383 2.94354 0
M  V30 11845 H 1165.19 -1.42903 3.71246 0
M  V30 11846 H 1161.93 -0.435238 6.54053 0
M  V30 11847 H 1161.45 -1.91775 5.68315 0
M  V30 11848 H 1163.13 -1.70983 6.23998 0
M  V30 11849 N 1163.26 -1.53291 -0.366026 0
M  V30 11850 C 1164.21 -1.80367 -1.4687 0
M  V30 11851 C 1165.21 -0.672767 -1.55468 0
M  V30 11852 O 1166.41 -0.8557 -1.5836 0
M  V30 11853 H 1162.79 -0.571076 -0.48926 0
M  V30 11854 H 1164.76 -2.72661 -1.21237 0
M  V30 11855 C 1163.51 -2.01008 -2.8371 0
M  V30 11856 H 1162.83 -2.87468 -2.77853 0
M  V30 11857 H 1164.27 -2.2393 -3.60043 0
M  V30 11858 C 1162.73 -0.789054 -3.27529 0
M  V30 11859 O 1163.26 0.0224712 -4.01694 0
M  V30 11860 N 1161.47 -0.612621 -2.84069 0
M  V30 11861 H 1161.01 -1.27416 -2.23881 0
M  V30 11862 H 1160.97 0.202943 -3.13744 0
M  V30 11863 N 1164.74 0.6258 -1.44643 0
M  V30 11864 C 1165.99 1.38251 -1.47414 0
M  V30 11865 C 1166.31 1.94689 -0.110043 0
M  V30 11866 O 1165.58 1.76095 0.858333 0
M  V30 11867 H 1164.16 0.513179 -0.542823 0
M  V30 11868 H 1166.82 0.736179 -1.80462 0
M  V30 11869 H 1165.92 2.21115 -2.2026 0
M  V30 11870 N 1166.22 1.31629 0.866686 0
M  V30 11871 C 1167.45 1.24609 1.65793 0
M  V30 11872 C 1167.87 -0.184944 1.87189 0
M  V30 11873 O 1167.23 -1.1322 1.41601 0
M  V30 11874 C 1167.28 1.9988 3.00134 0
M  V30 11875 O 1166.38 1.33838 3.90079 0
M  V30 11876 H 1165.72 0.430051 0.505917 0
M  V30 11877 H 1168.25 1.73752 1.08035 0
M  V30 11878 H 1168.26 2.09599 3.50046 0
M  V30 11879 H 1166.94 3.03947 2.83882 0
M  V30 11880 H 1165.51 1.3259 3.48532 0
M  V30 11881 N 1167.7 -1.08142 1.14644 0
M  V30 11882 C 1168.95 -1.80849 0.917685 0
M  V30 11883 C 1169.28 -1.86123 -0.554249 0
M  V30 11884 O 1168.55 -1.33907 -1.41065 0
M  V30 11885 C 1168.84 -3.26325 1.52264 0
M  V30 11886 C 1168.69 -3.29244 3.06461 0
M  V30 11887 C 1170.01 -4.23375 1.20175 0
M  V30 11888 H 1167.13 -0.656559 0.334812 0
M  V30 11889 H 1169.77 -1.26595 1.41682 0
M  V30 11890 H 1167.92 -3.72656 1.09817 0
M  V30 11891 H 1169.59 -2.91216 3.57758 0
M  V30 11892 H 1167.83 -2.68438 3.40769 0
M  V30 11893 H 1168.51 -4.31785 3.43897 0
M  V30 11894 H 1170.98 -3.85394 1.56877 0
M  V30 11895 H 1169.86 -5.23472 1.65132 0
M  V30 11896 H 1170.12 -4.41944 0.117474 0
M  V30 11897 N 1169.18 -0.941978 -1.26351 0
M  V30 11898 C 1170.11 -0.469913 -2.28723 0
M  V30 11899 C 1171.09 0.477218 -1.63269 0
M  V30 11900 O 1172.27 0.378902 -1.90468 0
M  V30 11901 C 1169.4 0.264971 -3.46288 0
M  V30 11902 C 1168.36 -0.595682 -4.23834 0
M  V30 11903 C 1167.68 0.269208 -5.34022 0
M  V30 11904 C 1168.98 -1.86743 -4.87775 0
M  V30 11905 H 1170.68 -1.32551 -2.6846 0
M  V30 11906 H 1168.22 -0.638809 -1.29055 0
M  V30 11907 H 1170.18 0.606259 -4.17016 0
M  V30 11908 H 1168.9 1.15471 -3.05506 0
M  V30 11909 H 1167.56 -0.919875 -3.54872 0
M  V30 11910 H 1167.21 1.15832 -4.89481 0
M  V30 11911 H 1166.91 -0.30325 -5.86817 0
M  V30 11912 H 1168.43 0.605748 -6.07588 0
M  V30 11913 H 1169.85 -1.59333 -5.50714 0
M  V30 11914 H 1168.24 -2.38452 -5.50691 0
M  V30 11915 H 1169.31 -2.57831 -4.10671 0
M  V30 11916 N 1170.66 1.40747 -0.709091 0
M  V30 11917 C 1171.6 2.30741 -0.0523584 0
M  V30 11918 C 1172.57 1.4784 0.757145 0
M  V30 11919 O 1173.76 1.76595 0.72242 0
M  V30 11920 C 1170.9 3.34 0.868203 0
M  V30 11921 C 1170.01 4.31972 0.0488686 0
M  V30 11922 C 1169.15 5.223 0.968311 0
M  V30 11923 C 1168.18 6.11934 0.142682 0
M  V30 11924 N 1167.32 6.947 1.01665 0
M  V30 11925 H 1172.16 2.86338 -0.825509 0
M  V30 11926 H 1169.7 1.41013 -0.418785 0
M  V30 11927 H 1171.66 3.92431 1.41611 0
M  V30 11928 H 1170.29 2.79921 1.6076 0
M  V30 11929 H 1169.34 3.75377 -0.616137 0
M  V30 11930 H 1170.65 4.95291 -0.590625 0
M  V30 11931 H 1169.8 5.85631 1.58498 0
M  V30 11932 H 1168.54 4.5924 1.64164 0
M  V30 11933 H 1167.55 5.47639 -0.486965 0
M  V30 11934 H 1168.77 6.77052 -0.527046 0
M  V30 11935 H 1166.72 6.34236 1.67575 0
M  V30 11936 H 1166.64 7.54759 0.433045 0
M  V30 11937 H 1167.9 7.62487 1.6197 0
M  V30 11938 N 1172.13 0.454803 1.50895 0
M  V30 11939 C 1173.08 -0.361974 2.29766 0
M  V30 11940 C 1174.08 -1.00519 1.36353 0
M  V30 11941 O 1175.28 -0.938159 1.53618 0
M  V30 11942 H 1171.66 -0.135559 0.739681 0
M  V30 11943 H 1173.63 0.323853 2.96637 0
M  V30 11944 C 1172.38 -1.44078 3.16444 0
M  V30 11945 H 1171.7 -0.955212 3.88221 0
M  V30 11946 H 1173.14 -1.98518 3.74655 0
M  V30 11947 C 1171.6 -2.43374 2.32961 0
M  V30 11948 O 1172.13 -3.48295 2.00133 0
M  V30 11949 N 1170.33 -2.14689 1.95849 0
M  V30 11950 H 1169.88 -1.29392 2.22745 0
M  V30 11951 H 1169.84 -2.81363 1.40292 0
M  V30 11952 N 1173.61 -1.56489 0.186789 0
M  V30 11953 C 1174.86 -1.96952 -0.453261 0
M  V30 11954 C 1175.18 -1.07451 -1.62725 0
M  V30 11955 O 1174.45 -0.144046 -1.9537 0
M  V30 11956 H 1173.03 -0.727295 -0.170445 0
M  V30 11957 H 1175.69 -1.92999 0.271584 0
M  V30 11958 H 1174.79 -3.01594 -0.802951 0
M  V30 11959 N 1175.09 0.086862 -1.5736 0
M  V30 11960 C 1176.31 0.806017 -1.91097 0
M  V30 11961 C 1176.74 1.71082 -0.78183 0
M  V30 11962 O 1176.1 1.79335 0.266175 0
M  V30 11963 C 1176.15 1.5884 -3.23732 0
M  V30 11964 O 1175.25 2.69798 -3.11902 0
M  V30 11965 H 1174.59 0.220899 -0.626179 0
M  V30 11966 H 1177.12 0.059619 -2.04513 0
M  V30 11967 H 1177.13 1.97088 -3.5724 0
M  V30 11968 H 1175.81 0.924426 -4.05496 0
M  V30 11969 H 1174.38 2.34519 -2.89923 0
M  V30 11970 N 1176.57 1.53483 0.357892 0
M  V30 11971 C 1177.5 1.83444 1.44466 0
M  V30 11972 C 1178.48 0.688486 1.55544 0
M  V30 11973 O 1179.66 0.93906 1.69986 0
M  V30 11974 C 1176.79 2.03122 2.81707 0
M  V30 11975 C 1175.75 3.1891 2.85448 0
M  V30 11976 C 1175.07 3.23895 4.25436 0
M  V30 11977 C 1176.37 4.57334 2.52275 0
M  V30 11978 H 1178.07 2.74456 1.19642 0
M  V30 11979 H 1175.61 1.3206 0.574112 0
M  V30 11980 H 1177.57 2.22666 3.57768 0
M  V30 11981 H 1176.29 1.08827 3.07935 0
M  V30 11982 H 1174.95 2.99199 2.11838 0
M  V30 11983 H 1174.6 2.27223 4.48753 0
M  V30 11984 H 1174.3 4.01694 4.28854 0
M  V30 11985 H 1175.82 3.45632 5.0336 0
M  V30 11986 H 1177.24 4.76988 3.1805 0
M  V30 11987 H 1175.63 5.37431 2.66998 0
M  V30 11988 H 1176.7 4.61921 1.47501 0
M  V30 11989 N 1178.05 -0.61812 1.44973 0
M  V30 11990 C 1179.27 -1.40429 1.51945 0
M  V30 11991 C 1179.69 -1.88215 0.148556 0
M  V30 11992 O 1179.05 -1.61603 -0.847978 0
M  V30 11993 C 1179.1 -2.61588 2.49507 0
M  V30 11994 O 1178.82 -2.15791 3.81269 0
M  V30 11995 C 1180.32 -3.5457 2.66074 0
M  V30 11996 H 1177.54 -0.43023 0.514921 0
M  V30 11997 H 1180.08 -0.754791 1.90061 0
M  V30 11998 H 1178.24 -3.22602 2.14492 0
M  V30 11999 H 1178.65 -2.94434 4.34061 0
M  V30 12000 H 1180.13 -4.36155 3.38338 0
M  V30 12001 H 1180.6 -4.04227 1.71746 0
M  V30 12002 H 1181.21 -2.99416 3.02043 0
M  V30 12003 N 1179.52 -1.32087 -0.859693 0
M  V30 12004 C 1180.47 -1.20549 -1.98924 0
M  V30 12005 C 1181.47 -0.111422 -1.69033 0
M  V30 12006 O 1182.67 -0.27401 -1.77902 0
M  V30 12007 H 1179.05 -0.373538 -0.652667 0
M  V30 12008 H 1181.02 -2.16091 -2.05785 0
M  V30 12009 C 1179.77 -0.940226 -3.34746 0
M  V30 12010 H 1179.09 -1.77427 -3.58273 0
M  V30 12011 H 1180.53 -0.899712 -4.14344 0
M  V30 12012 C 1178.99 0.357042 -3.35003 0
M  V30 12013 O 1179.52 1.37054 -3.77596 0
M  V30 12014 N 1177.72 0.37723 -2.88141 0
M  V30 12015 H 1177.27 -0.448051 -2.53674 0
M  V30 12016 H 1177.23 1.24509 -2.88695 0
M  V30 12017 N 1181 1.07532 -1.15215 0
M  V30 12018 C 1181.95 2.12909 -0.815714 0
M  V30 12019 C 1182.94 1.59662 0.1992 0
M  V30 12020 O 1184.13 1.77 0.000215597 0
M  V30 12021 C 1181.26 3.41945 -0.304717 0
M  V30 12022 C 1180.34 4.0205 -1.34968 0
M  V30 12023 N 1180.73 4.36439 -2.55646 0
M  V30 12024 C 1179.03 4.29498 -1.20199 0
M  V30 12025 C 1179.73 4.84044 -3.22609 0
M  V30 12026 N 1178.71 4.82702 -2.5 0
M  V30 12027 H 1182.51 2.37327 -1.73358 0
M  V30 12028 H 1180.02 1.24952 -1.03734 0
M  V30 12029 H 1182.02 4.16875 -0.0453503 0
M  V30 12030 H 1180.68 3.18971 0.607235 0
M  V30 12031 H 1181.69 4.27184 -2.92804 0
M  V30 12032 H 1178.37 4.16032 -0.349781 0
M  V30 12033 H 1179.76 5.19959 -4.2555 0
M  V30 12034 N 1182.48 0.948665 1.2585 0
M  V30 12035 C 1183.73 0.600236 1.934 0
M  V30 12036 C 1184.06 -0.86185 1.74363 0
M  V30 12037 O 1183.31 -1.63294 1.07858 0
M  V30 12038 C 1183.61 0.89784 3.45939 0
M  V30 12039 C 1183.28 2.345 3.85124 0
M  V30 12040 C 1181.94 2.74058 3.95532 0
M  V30 12041 C 1184.29 3.2851 4.04636 0
M  V30 12042 C 1181.62 4.06707 4.22855 0
M  V30 12043 C 1183.97 4.60764 4.3345 0
M  V30 12044 C 1182.63 5.00127 4.42074 0
M  V30 12045 H 1181.9 0.219642 0.707699 0
M  V30 12046 H 1184.55 1.19658 1.49513 0
M  V30 12047 H 1182.86 0.219037 3.91187 0
M  V30 12048 H 1184.55 0.606916 3.96381 0
M  V30 12049 H 1181.14 2.02819 3.77574 0
M  V30 12050 H 1185.33 2.99141 3.96015 0
M  V30 12051 H 1180.58 4.36856 4.27746 0
M  V30 12052 H 1184.76 5.33594 4.47493 0
M  V30 12053 H 1182.38 6.02939 4.63 0
M  V30 12054 N 1183.96 -1.40369 0.716545 0
M  V30 12055 C 1185.18 -2.05704 0.264729 0
M  V30 12056 C 1185.61 -1.53634 -1.08527 0
M  V30 12057 O 1184.97 -0.67212 -1.68381 0
M  V30 12058 C 1185.01 -3.59692 0.255778 0
M  V30 12059 O 1184.12 -4.05286 -0.762686 0
M  V30 12060 H 1183.46 -0.652301 0.124092 0
M  V30 12061 H 1185.99 -1.7975 0.977295 0
M  V30 12062 H 1186 -4.07892 0.0937944 0
M  V30 12063 H 1184.67 -3.96955 1.24095 0
M  V30 12064 H 1183.25 -3.68543 -0.568347 0
M  V30 12065 N 1185.44 -0.462799 -1.50652 0
M  V30 12066 C 1186.68 0.0950445 -2.02277 0
M  V30 12067 C 1187.01 1.40465 -1.34536 0
M  V30 12068 O 1186.27 1.90283 -0.457279 0
M  V30 12069 C 1186.57 0.335294 -3.55824 0
M  V30 12070 C 1186.23 -0.891589 -4.41997 0
M  V30 12071 C 1184.89 -1.22799 -4.65268 0
M  V30 12072 C 1187.25 -1.70885 -4.9239 0
M  V30 12073 C 1184.57 -2.38186 -5.36175 0
M  V30 12074 C 1186.93 -2.85394 -5.64564 0
M  V30 12075 C 1185.59 -3.19458 -5.86091 0
M  V30 12076 H 1184.86 0.0347793 -0.740183 0
M  V30 12077 H 1187.51 -0.61519 -1.8135 0
M  V30 12078 H 1185.81 1.12769 -3.7522 0
M  V30 12079 H 1187.51 0.780752 -3.93326 0
M  V30 12080 H 1184.1 -0.619495 -4.24099 0
M  V30 12081 H 1188.28 -1.46215 -4.74273 0
M  V30 12082 H 1183.54 -2.64862 -5.51052 0
M  V30 12083 H 1187.71 -3.49073 -6.02595 0
M  V30 12084 H 1185.34 -4.08978 -6.40813 0
M  V30 12085 N 1186.91 1.56388 -0.195085 0
M  V30 12086 C 1187.82 2.22698 0.737743 0
M  V30 12087 C 1188.84 1.22605 1.23466 0
M  V30 12088 O 1190.02 1.55342 1.28183 0
M  V30 12089 C 1187.08 2.87333 1.94011 0
M  V30 12090 C 1186.14 4.02696 1.48776 0
M  V30 12091 C 1185.38 4.64239 2.63282 0
M  V30 12092 O 1185.6 4.24706 3.80763 0
M  V30 12093 O 1184.53 5.53705 2.35996 0
M  V30 12094 H 1188.36 3.03021 0.203013 0
M  V30 12095 H 1185.94 1.49361 0.0342044 0
M  V30 12096 H 1187.83 3.28226 2.64284 0
M  V30 12097 H 1186.5 2.0999 2.46345 0
M  V30 12098 H 1185.41 3.66426 0.753839 0
M  V30 12099 H 1186.74 4.81703 1.01109 0
M  V30 12100 N 1188.39 -0.0785156 1.57404 0
M  V30 12101 C 1189.34 -1.09402 2.03224 0
M  V30 12102 C 1190.31 -1.38849 0.911596 0
M  V30 12103 O 1191.49 -1.50031 1.17878 0
M  V30 12104 C 1188.63 -2.40444 2.47549 0
M  V30 12105 C 1187.75 -2.17585 3.73203 0
M  V30 12106 C 1186.88 -3.42143 4.06339 0
M  V30 12107 C 1185.92 -3.14619 5.25054 0
M  V30 12108 N 1185.06 -4.31489 5.5386 0
M  V30 12109 H 1189.9 -0.696307 2.89751 0
M  V30 12110 H 1187.44 -0.332261 1.43298 0
M  V30 12111 H 1189.39 -3.16944 2.71298 0
M  V30 12112 H 1188.02 -2.78031 1.64009 0
M  V30 12113 H 1187.08 -1.3181 3.56834 0
M  V30 12114 H 1188.39 -1.93249 4.59844 0
M  V30 12115 H 1187.54 -4.27042 4.30953 0
M  V30 12116 H 1186.28 -3.69549 3.18253 0
M  V30 12117 H 1185.29 -2.28116 5.00243 0
M  V30 12118 H 1186.51 -2.88543 6.14752 0
M  V30 12119 H 1184.46 -4.58939 4.68734 0
M  V30 12120 H 1184.37 -4.10403 6.34906 0
M  V30 12121 H 1185.64 -5.17404 5.83021 0
M  V30 12122 N 1189.87 -1.5367 -0.349747 0
M  V30 12123 C 1190.82 -1.81223 -1.42922 0
M  V30 12124 C 1191.79 -0.657536 -1.52531 0
M  V30 12125 O 1192.97 -0.90134 -1.68168 0
M  V30 12126 C 1190.11 -2.022 -2.79659 0
M  V30 12127 C 1189.23 -3.29915 -2.78891 0
M  V30 12128 C 1188.36 -3.40993 -4.07305 0
M  V30 12129 C 1187.4 -4.6268 -4.00741 0
M  V30 12130 N 1186.54 -4.70826 -5.20833 0
M  V30 12131 H 1191.38 -2.73328 -1.18727 0
M  V30 12132 H 1188.91 -1.35386 -0.57525 0
M  V30 12133 H 1190.87 -2.12351 -3.59114 0
M  V30 12134 H 1189.5 -1.13416 -3.0222 0
M  V30 12135 H 1188.55 -3.28637 -1.91577 0
M  V30 12136 H 1189.87 -4.19459 -2.69917 0
M  V30 12137 H 1189.02 -3.50542 -4.95182 0
M  V30 12138 H 1187.76 -2.49493 -4.19052 0
M  V30 12139 H 1186.76 -4.53215 -3.11249 0
M  V30 12140 H 1187.99 -5.55538 -3.90582 0
M  V30 12141 H 1185.93 -3.82233 -5.33136 0
M  V30 12142 H 1185.85 -5.54297 -5.14092 0
M  V30 12143 H 1187.12 -4.84677 -6.10499 0
M  V30 12144 N 1191.35 0.610423 -1.45298 0
M  V30 12145 C 1192.3 1.7213 -1.53753 0
M  V30 12146 C 1193.27 1.61609 -0.383632 0
M  V30 12147 O 1194.45 1.8123 -0.596694 0
M  V30 12148 C 1191.59 3.10433 -1.50749 0
M  V30 12149 C 1190.7 3.3178 -2.76669 0
M  V30 12150 C 1189.84 4.60173 -2.65356 0
M  V30 12151 C 1188.88 4.74769 -3.86343 0
M  V30 12152 N 1188.01 5.94459 -3.73581 0
M  V30 12153 H 1192.85 1.64239 -2.48655 0
M  V30 12154 H 1190.39 0.800879 -1.23387 0
M  V30 12155 H 1192.35 3.90446 -1.46996 0
M  V30 12156 H 1190.98 3.17288 -0.593998 0
M  V30 12157 H 1190.03 2.45563 -2.90522 0
M  V30 12158 H 1191.34 3.38439 -3.66416 0
M  V30 12159 H 1190.5 5.48377 -2.59553 0
M  V30 12160 H 1189.24 4.55907 -1.73204 0
M  V30 12161 H 1188.24 3.8499 -3.92509 0
M  V30 12162 H 1189.47 4.80834 -4.79557 0
M  V30 12163 H 1187.41 5.91243 -2.84196 0
M  V30 12164 H 1187.33 6.02265 -4.5696 0
M  V30 12165 H 1188.6 6.85168 -3.71705 0
M  V30 12166 N 1192.83 1.32541 0.852676 0
M  V30 12167 C 1193.79 1.21578 1.94297 0
M  V30 12168 C 1194.79 0.138318 1.60204 0
M  V30 12169 O 1195.98 0.388864 1.69804 0
M  V30 12170 C 1193.11 0.870209 3.29606 0
M  V30 12171 H 1194.3 2.18476 2.05446 0
M  V30 12172 H 1191.86 1.16401 1.0431 0
M  V30 12173 H 1192.59 -0.0968698 3.24155 0
M  V30 12174 H 1192.38 1.64924 3.55728 0
M  V30 12175 H 1193.87 0.817874 4.09513 0
M  V30 12176 N 1194.3 -1.0692 1.15784 0
M  V30 12177 C 1195.72 -1.31707 0.901408 0
M  V30 12178 C 1195.92 -1.96429 -0.449203 0
M  V30 12179 O 1194.98 -2.22692 -1.19015 0
M  V30 12180 C 1196.29 -2.20391 2.04568 0
M  V30 12181 C 1197.84 -2.33827 2.08072 0
M  V30 12182 C 1198.31 -3.25862 3.21835 0
M  V30 12183 N 1199.8 -3.33444 3.21511 0
M  V30 12184 C 1200.54 -4.04731 4.06177 0
M  V30 12185 N 1200.03 -4.78596 5.00917 0
M  V30 12186 N 1201.83 -4.00717 3.94185 0
M  V30 12187 H 1193.98 -0.632989 2.02749 0
M  V30 12188 H 1196.24 -0.341587 0.88432 0
M  V30 12189 H 1195.95 -1.80102 3.02087 0
M  V30 12190 H 1195.82 -3.20943 1.9818 0
M  V30 12191 H 1198.21 -2.73367 1.11151 0
M  V30 12192 H 1198.29 -1.32964 2.18527 0
M  V30 12193 H 1197.93 -2.8704 4.19012 0
M  V30 12194 H 1197.86 -4.26689 3.08617 0
M  V30 12195 H 1200.35 -2.80798 2.52905 0
M  V30 12196 H 1200.67 -5.30499 5.61952 0
M  V30 12197 H 1199.01 -4.77598 5.04902 0
M  V30 12198 H 1202.2 -3.42126 3.1948 0
M  V30 12199 H 1202.38 -4.56008 4.60392 0
M  V30 12200 N 1195.78 -0.955326 -1.25345 0
M  V30 12201 C 1197.03 -0.611388 -1.93365 0
M  V30 12202 C 1197.36 0.84953 -1.74633 0
M  V30 12203 O 1196.64 1.60962 -1.09185 0
M  V30 12204 C 1196.92 -0.971732 -3.46741 0
M  V30 12205 C 1196.77 -2.48843 -3.74696 0
M  V30 12206 C 1198.09 -0.497295 -4.37281 0
M  V30 12207 H 1195.21 -0.223591 -0.702265 0
M  V30 12208 H 1197.85 -1.1921 -1.47949 0
M  V30 12209 H 1196 -0.477568 -3.85554 0
M  V30 12210 H 1197.67 -3.05641 -3.45516 0
M  V30 12211 H 1195.92 -2.92582 -3.20278 0
M  V30 12212 H 1196.59 -2.69107 -4.8196 0
M  V30 12213 H 1199.06 -0.921196 -4.05775 0
M  V30 12214 H 1197.94 -0.778113 -5.43357 0
M  V30 12215 H 1198.2 0.602743 -4.37972 0
M  V30 12216 N 1197.26 1.39987 -0.723979 0
M  V30 12217 C 1198.22 2.29041 -0.0854583 0
M  V30 12218 C 1199.22 1.45777 0.678657 0
M  V30 12219 O 1200.41 1.66588 0.509311 0
M  V30 12220 C 1197.55 3.29115 0.88859 0
M  V30 12221 H 1198.74 2.87006 -0.869903 0
M  V30 12222 H 1196.29 1.48449 -0.489136 0
M  V30 12223 H 1197.03 2.76184 1.69979 0
M  V30 12224 H 1196.81 3.90593 0.343454 0
M  V30 12225 H 1198.3 3.95778 1.33227 0
M  V30 12226 N 1198.74 0.470782 1.50404 0
M  V30 12227 C 1199.99 -0.0844409 2.02624 0
M  V30 12228 C 1200.32 -1.39398 1.3521 0
M  V30 12229 O 1199.59 -1.88542 0.477707 0
M  V30 12230 C 1199.88 -0.268563 3.59097 0
M  V30 12231 C 1199.73 1.06198 4.37084 0
M  V30 12232 C 1201.05 -1.02324 4.28039 0
M  V30 12233 H 1198.17 -0.0292141 0.736421 0
M  V30 12234 H 1200.81 0.616312 1.79726 0
M  V30 12235 H 1198.96 -0.865441 3.78738 0
M  V30 12236 H 1200.63 1.69541 4.29015 0
M  V30 12237 H 1198.87 1.65868 4.00837 0
M  V30 12238 H 1199.55 0.886795 5.4483 0
M  V30 12239 H 1202.02 -0.517325 4.12872 0
M  V30 12240 H 1200.9 -1.12087 5.37334 0
M  V30 12241 H 1201.16 -2.05974 3.91187 0
M  V30 12242 N 1200.22 -1.56282 0.203376 0
M  V30 12243 C 1201.15 -2.2247 -0.709183 0
M  V30 12244 C 1202.13 -1.19046 -1.21499 0
M  V30 12245 O 1203.31 -1.47578 -1.26231 0
M  V30 12246 C 1200.44 -2.8905 -1.92529 0
M  V30 12247 C 1199.4 -3.98789 -1.55407 0
M  V30 12248 C 1198.72 -4.52574 -2.84747 0
M  V30 12249 C 1200.02 -5.16774 -0.75775 0
M  V30 12250 H 1201.72 -2.98986 -0.157392 0
M  V30 12251 H 1199.26 -1.43808 -0.0742613 0
M  V30 12252 H 1201.22 -3.34038 -2.56898 0
M  V30 12253 H 1199.94 -2.09952 -2.50175 0
M  V30 12254 H 1198.6 -3.54504 -0.933928 0
M  V30 12255 H 1198.25 -3.70229 -3.40499 0
M  V30 12256 H 1197.95 -5.26627 -2.6065 0
M  V30 12257 H 1199.47 -5.00269 -3.5009 0
M  V30 12258 H 1200.89 -5.58256 -1.30472 0
M  V30 12259 H 1199.28 -5.96945 -0.614583 0
M  V30 12260 H 1200.35 -4.84308 0.239476 0
M  V30 12261 N 1201.7 0.070167 -1.57444 0
M  V30 12262 C 1202.94 0.767842 -1.86513 0
M  V30 12263 C 1203.26 1.78659 -0.796257 0
M  V30 12264 O 1204.46 2.53395 -0.974845 0
M  V30 12265 C 1202.92 1.41654 -3.30851 0
M  V30 12266 C 1202.53 0.436273 -4.45871 0
M  V30 12267 C 1204.27 2.09649 -3.69117 0
M  V30 12268 C 1202.18 1.09098 -5.8125 0
M  V30 12269 H 1201.11 0.290519 -0.695784 0
M  V30 12270 H 1203.76 0.0211697 -1.83488 0
M  V30 12271 H 1202.14 2.21153 -3.28493 0
M  V30 12272 H 1203.32 -0.329022 -4.59624 0
M  V30 12273 H 1201.63 -0.139314 -4.16167 0
M  V30 12274 H 1204.23 2.59411 -4.67558 0
M  V30 12275 H 1204.57 2.89663 -2.99 0
M  V30 12276 H 1205.1 1.36979 -3.73472 0
M  V30 12277 H 1201.84 0.331128 -6.54663 0
M  V30 12278 H 1201.36 1.8271 -5.71294 0
M  V30 12279 H 1203.04 1.61034 -6.2664 0
M  V30 12280 N 1203.17 1.53854 0.341593 0
M  V30 12281 C 1204.4 1.75447 1.10604 0
M  V30 12282 C 1204.82 0.493225 1.81518 0
M  V30 12283 O 1204.18 -0.554253 1.7262 0
M  V30 12284 C 1204.23 2.93593 2.09369 0
M  V30 12285 O 1203.33 2.63878 3.16926 0
M  V30 12286 H 1202.67 0.581923 0.319783 0
M  V30 12287 H 1205.2 2.00822 0.391388 0
M  V30 12288 H 1205.21 3.20437 2.52556 0
M  V30 12289 H 1203.89 3.85067 1.57151 0
M  V30 12290 H 1202.47 2.47929 2.78542 0
M  V30 12291 N 1204.65 -0.602709 1.4562 0
M  V30 12292 C 1205.9 -1.35889 1.49595 0
M  V30 12293 C 1206.22 -1.9449 0.141002 0
M  V30 12294 O 1205.49 -1.77438 -0.830209 0
M  V30 12295 H 1204.07 -0.504478 0.550918 0
M  V30 12296 H 1206.73 -0.707376 1.8161 0
M  V30 12297 H 1205.83 -2.17583 2.2375 0
M  V30 12298 N 1206.13 -1.32992 -0.845635 0
M  V30 12299 C 1207.36 -1.27087 -1.63268 0
M  V30 12300 C 1207.77 0.159481 -1.88125 0
M  V30 12301 O 1207.13 1.09948 -1.45663 0
M  V30 12302 C 1207.18 -2.03649 -2.98679 0
M  V30 12303 O 1206.9 -3.41104 -2.74918 0
M  V30 12304 C 1208.4 -2.04875 -3.93117 0
M  V30 12305 H 1205.62 -0.438107 -0.508236 0
M  V30 12306 H 1208.17 -1.75257 -1.05381 0
M  V30 12307 H 1206.32 -1.59178 -3.53187 0
M  V30 12308 H 1206.74 -3.80405 -3.61099 0
M  V30 12309 H 1208.21 -2.62911 -4.85368 0
M  V30 12310 H 1208.69 -1.03728 -4.26775 0
M  V30 12311 H 1209.29 -2.49334 -3.44547 0
M  V30 12312 N 1207.61 1.06304 -1.1635 0
M  V30 12313 C 1208.86 1.78747 -0.943074 0
M  V30 12314 C 1209.18 1.87646 0.530483 0
M  V30 12315 O 1208.45 1.38506 1.38538 0
M  V30 12316 H 1207.03 0.662072 -0.345932 0
M  V30 12317 H 1209.69 1.28413 -1.46615 0
M  V30 12318 H 1208.78 2.80828 -1.3617 0
M  V30 12319 N 1209.09 0.96196 1.24836 0
M  V30 12320 C 1210.31 0.637709 1.97353 0
M  V30 12321 C 1210.74 -0.784919 1.7094 0
M  V30 12322 O 1210.09 -1.53188 0.969694 0
M  V30 12323 C 1210.14 0.911485 3.4889 0
M  V30 12324 O 1209.25 -0.00601668 4.124 0
M  V30 12325 H 1208.59 0.241685 0.618453 0
M  V30 12326 H 1211.12 1.29055 1.58764 0
M  V30 12327 H 1211.13 0.840702 3.99245 0
M  V30 12328 H 1209.8 1.9483 3.67442 0
M  V30 12329 H 1208.38 0.117597 3.72715 0
M  V30 12330 N 1210.56 -1.39601 0.731392 0
M  V30 12331 C 1211.51 -2.32469 0.0781328 0
M  V30 12332 C 1212.51 -1.52873 -0.729811 0
M  V30 12333 O 1213.71 -1.68563 -0.631402 0
M  V30 12334 H 1210.09 -0.751972 0.00646515 0
M  V30 12335 H 1212.06 -2.85196 0.877833 0
M  V30 12336 C 1210.81 -3.37948 -0.817717 0
M  V30 12337 H 1210.13 -3.99272 -0.205417 0
M  V30 12338 H 1211.57 -4.05387 -1.24248 0
M  V30 12339 C 1210.03 -2.74703 -1.95038 0
M  V30 12340 O 1210.56 -2.62266 -3.04269 0
M  V30 12341 N 1208.76 -2.32845 -1.73872 0
M  V30 12342 H 1208.31 -2.43161 -0.850321 0
M  V30 12343 H 1208.27 -1.90869 -2.49833 0
M  V30 12344 N 1212.04 -0.478751 -1.50152 0
M  V30 12345 C 1212.97 0.301182 -2.31549 0
M  V30 12346 C 1213.95 0.983276 -1.38801 0
M  V30 12347 O 1215.14 0.978973 -1.67719 0
M  V30 12348 C 1212.27 1.3791 -3.18745 0
M  V30 12349 C 1211.22 0.818175 -4.20107 0
M  V30 12350 C 1210.55 1.99496 -4.9609 0
M  V30 12351 C 1211.85 -0.17574 -5.22004 0
M  V30 12352 H 1213.54 -0.378188 -2.97002 0
M  V30 12353 H 1211.09 -0.183323 -1.42828 0
M  V30 12354 H 1213.04 1.93227 -3.74488 0
M  V30 12355 H 1211.77 2.08735 -2.51192 0
M  V30 12356 H 1210.42 0.286924 -3.65475 0
M  V30 12357 H 1210.07 2.69036 -4.25004 0
M  V30 12358 H 1209.77 1.62582 -5.6466 0
M  V30 12359 H 1211.3 2.55288 -5.54671 0
M  V30 12360 H 1212.71 0.288513 -5.72574 0
M  V30 12361 H 1211.11 -0.459549 -5.98338 0
M  V30 12362 H 1212.18 -1.09911 -4.72279 0
M  V30 12363 N 1213.52 1.56172 -0.211661 0
M  V30 12364 C 1214.45 2.17107 0.734657 0
M  V30 12365 C 1215.47 1.1374 1.16478 0
M  V30 12366 O 1216.65 1.40763 1.09764 0
M  V30 12367 C 1213.75 2.73182 2.00561 0
M  V30 12368 C 1212.93 4.0162 1.73264 0
M  V30 12369 C 1211.99 4.42357 2.84968 0
M  V30 12370 O 1211.01 5.09453 2.53863 0
M  V30 12371 N 1212.21 4.07223 4.13702 0
M  V30 12372 H 1214.98 2.98939 0.213475 0
M  V30 12373 H 1212.54 1.61872 -0.0302898 0
M  V30 12374 H 1214.53 2.97411 2.74461 0
M  V30 12375 H 1213.1 1.9571 2.43754 0
M  V30 12376 H 1212.32 3.85351 0.830575 0
M  V30 12377 H 1213.61 4.85426 1.52445 0
M  V30 12378 H 1213.01 3.53286 4.4182 0
M  V30 12379 H 1211.57 4.36366 4.84178 0
M  V30 12380 N 1215 -0.0618163 1.57479 0
M  V30 12381 C 1215.96 -1.05684 2.0338 0
M  V30 12382 C 1216.96 -1.31006 0.932423 0
M  V30 12383 O 1218.15 -1.26559 1.19702 0
M  V30 12384 C 1215.28 -2.39805 2.42294 0
M  V30 12385 H 1216.48 -0.661006 2.92525 0
M  V30 12386 H 1214.03 -0.307814 1.53239 0
M  V30 12387 H 1214.76 -2.84201 1.56207 0
M  V30 12388 H 1214.55 -2.22764 3.22674 0
M  V30 12389 H 1216.04 -3.11307 2.78349 0
M  V30 12390 N 1216.48 -1.54033 -0.333429 0
M  V30 12391 C 1217.41 -1.85719 -1.4153 0
M  V30 12392 C 1218.39 -0.713144 -1.54429 0
M  V30 12393 O 1219.57 -0.965984 -1.68471 0
M  V30 12394 C 1216.7 -2.07578 -2.78439 0
M  V30 12395 C 1215.66 -3.23411 -2.80338 0
M  V30 12396 C 1214.98 -3.30622 -4.2023 0
M  V30 12397 C 1216.28 -4.6129 -2.44968 0
M  V30 12398 H 1217.98 -2.76325 -1.15261 0
M  V30 12399 H 1215.52 -1.32957 -0.55303 0
M  V30 12400 H 1217.48 -2.28329 -3.5418 0
M  V30 12401 H 1216.2 -1.13713 -3.06165 0
M  V30 12402 H 1214.86 -3.02531 -2.07052 0
M  V30 12403 H 1214.51 -2.34333 -4.45081 0
M  V30 12404 H 1214.21 -4.08466 -4.22409 0
M  V30 12405 H 1215.73 -3.53596 -4.97798 0
M  V30 12406 H 1217.14 -4.81987 -3.10421 0
M  V30 12407 H 1215.54 -5.41611 -2.58414 0
M  V30 12408 H 1216.61 -4.6421 -1.40134 0
M  V30 12409 N 1217.95 0.594978 -1.45938 0
M  V30 12410 C 1219.2 1.34976 -1.49881 0
M  V30 12411 C 1219.52 1.95025 -0.14983 0
M  V30 12412 O 1220.72 2.71417 -0.0669868 0
M  V30 12413 C 1219.18 2.44563 -2.6404 0
M  V30 12414 C 1218.79 1.9087 -4.05306 0
M  V30 12415 C 1220.53 3.21461 -2.77242 0
M  V30 12416 C 1218.44 2.98013 -5.10825 0
M  V30 12417 H 1217.37 0.507366 -0.55776 0
M  V30 12418 H 1220.02 0.636316 -1.72114 0
M  V30 12419 H 1218.4 3.1865 -2.35114 0
M  V30 12420 H 1219.57 1.23408 -4.43968 0
M  V30 12421 H 1217.89 1.26678 -3.96663 0
M  V30 12422 H 1220.49 4.01399 -3.53246 0
M  V30 12423 H 1220.83 3.73271 -1.84321 0
M  V30 12424 H 1221.36 2.54477 -3.05756 0
M  V30 12425 H 1218.1 2.51104 -6.05497 0
M  V30 12426 H 1217.62 3.64003 -4.7672 0
M  V30 12427 H 1219.3 3.62178 -5.36131 0
M  V30 12428 N 1219.43 1.33438 0.838571 0
M  V30 12429 C 1220.71 1.1551 1.5785 0
M  V30 12430 C 1221.09 -0.278405 2.09256 0
M  V30 12431 O 1220.44 -1.27748 1.89453 0
M  V30 12432 C 1220.65 2.19647 2.71212 0
M  V30 12433 C 1222 2.53818 3.40384 0
M  V30 12434 O 1223.02 2.18317 2.81454 0
M  V30 12435 O 1221.88 3.14741 4.46766 0
M  V30 12436 H 1218.97 0.446785 0.695925 0
M  V30 12437 H 1221.52 1.45021 0.8813 0
M  V30 12438 H 1220.29 3.15936 2.30869 0
M  V30 12439 H 1219.91 1.91224 3.48596 0
M  V30 12440 N 1220.91 -1.05686 1.16912 0
M  V30 12441 C 1222.14 -1.82821 0.979348 0
M  V30 12442 C 1222.56 -1.82196 -0.467575 0
M  V30 12443 O 1221.92 -1.22727 -1.33445 0
M  V30 12444 C 1221.97 -3.2705 1.51891 0
M  V30 12445 O 1221.07 -4.05899 0.729341 0
M  V30 12446 H 1220.41 -0.565455 0.348076 0
M  V30 12447 H 1222.94 -1.33211 1.55293 0
M  V30 12448 H 1222.95 -3.77859 1.53904 0
M  V30 12449 H 1221.63 -3.26819 2.5722 0
M  V30 12450 H 1220.2 -3.64646 0.780221 0
M  V30 12451 N 1222.39 -0.968567 -1.24324 0
M  V30 12452 C 1223.62 -0.648568 -1.96472 0
M  V30 12453 C 1224.03 0.782168 -1.71836 0
M  V30 12454 O 1223.39 1.5249 -1.00265 0
M  V30 12455 C 1223.44 -0.91482 -3.49733 0
M  V30 12456 O 1223.16 -2.28931 -3.73527 0
M  V30 12457 C 1224.66 -0.609131 -4.39095 0
M  V30 12458 H 1221.88 -0.241921 -0.625872 0
M  V30 12459 H 1224.43 -1.29673 -1.5813 0
M  V30 12460 H 1222.58 -0.31285 -3.86135 0
M  V30 12461 H 1222.99 -2.36998 -4.67902 0
M  V30 12462 H 1224.47 -0.845875 -5.4548 0
M  V30 12463 H 1224.95 0.456625 -4.3682 0
M  V30 12464 H 1225.55 -1.19105 -4.08282 0
M  V30 12465 N 1223.87 1.39211 -0.738786 0
M  V30 12466 C 1225.28 1.54116 -0.414773 0
M  V30 12467 C 1225.48 1.70497 1.07392 0
M  V30 12468 O 1224.54 1.7076 1.86003 0
M  V30 12469 C 1225.85 2.7567 -1.2011 0
M  V30 12470 C 1227.4 2.89508 -1.1897 0
M  V30 12471 C 1227.87 4.14005 -1.95868 0
M  V30 12472 N 1229.37 4.21052 -1.93053 0
M  V30 12473 C 1230.1 5.16341 -2.49358 0
M  V30 12474 N 1229.6 6.17396 -3.14316 0
M  V30 12475 N 1231.39 5.08585 -2.3937 0
M  V30 12476 H 1223.54 1.26827 -1.70378 0
M  V30 12477 H 1225.8 0.614983 -0.721457 0
M  V30 12478 H 1225.51 2.69922 -2.25467 0
M  V30 12479 H 1225.38 3.68443 -0.808065 0
M  V30 12480 H 1227.77 2.94747 -0.144248 0
M  V30 12481 H 1227.85 1.97788 -1.62214 0
M  V30 12482 H 1227.5 4.09527 -3.00416 0
M  V30 12483 H 1227.43 5.04776 -1.50028 0
M  V30 12484 H 1229.92 3.48669 -1.45733 0
M  V30 12485 H 1230.23 6.86572 -3.54737 0
M  V30 12486 H 1228.57 6.17772 -3.18407 0
M  V30 12487 H 1231.77 4.28573 -1.88262 0
M  V30 12488 H 1231.94 5.8267 -2.83549 0
M  V30 12489 N 1225.34 0.486708 1.49896 0
M  V30 12490 C 1226.25 -0.304222 2.32619 0
M  V30 12491 C 1227.27 -0.981103 1.43702 0
M  V30 12492 O 1228.45 -0.965639 1.76741 0
M  V30 12493 C 1225.51 -1.36301 3.18783 0
M  V30 12494 C 1224.57 -0.701082 4.23537 0
M  V30 12495 C 1223.81 -1.70943 5.05583 0
M  V30 12496 O 1224.03 -2.93773 4.88931 0
M  V30 12497 O 1222.96 -1.27263 5.88292 0
M  V30 12498 H 1226.79 0.37248 3.01407 0
M  V30 12499 H 1224.37 0.248277 1.47323 0
M  V30 12500 H 1226.26 -1.97594 3.72202 0
M  V30 12501 H 1224.93 -2.0229 2.52706 0
M  V30 12502 H 1223.84 -0.0487926 3.74068 0
M  V30 12503 H 1225.17 -0.0838817 4.92129 0
M  V30 12504 N 1226.82 -1.56058 0.219941 0
M  V30 12505 C 1228.23 -1.84462 -0.288203 0
M  V30 12506 C 1228.59 -1.14128 -1.59591 0
M  V30 12507 O 1227.71 -0.410411 -2.12473 0
M  V30 12508 C 1228.31 -3.34634 -0.529689 0
M  V30 12509 C 1226.86 -3.63361 -0.982145 0
M  V30 12510 C 1226.01 -2.77265 -0.0443292 0
M  V30 12511 H 1228.96 -1.52387 0.44317 0
M  V30 12512 H 1228.98 -3.54752 -1.3759 0
M  V30 12513 H 1228.5 -3.85796 0.422243 0
M  V30 12514 H 1226.6 -3.17653 -1.94749 0
M  V30 12515 H 1226.71 -4.71361 -0.857668 0
M  V30 12516 H 1225.07 -2.48672 -0.550825 0
M  V30 12517 H 1225.86 -3.31225 0.902491 0
M  V30 12518 N 1228.3 0.053464 -1.57509 0
M  V30 12519 C 1229.25 1.08014 -2.05999 0
M  V30 12520 C 1230.24 1.38958 -0.968862 0
M  V30 12521 O 1231.45 1.3815 -1.15389 0
M  V30 12522 H 1227.82 0.36575 -0.657062 0
M  V30 12523 H 1229.8 0.645169 -2.91342 0
M  V30 12524 C 1228.54 2.38004 -2.53475 0
M  V30 12525 H 1227.87 2.15048 -3.37038 0
M  V30 12526 H 1229.31 3.08244 -2.91138 0
M  V30 12527 C 1227.77 3.05259 -1.42543 0
M  V30 12528 O 1228.3 3.94097 -0.777832 0
M  V30 12529 N 1226.5 2.66182 -1.16599 0
M  V30 12530 H 1226.05 1.94027 -1.69444 0
M  V30 12531 H 1226.01 3.11503 -0.42585 0
M  V30 12532 N 1229.78 1.54207 0.325255 0
M  V30 12533 C 1231 1.7661 1.08736 0
M  V30 12534 C 1231.43 0.512449 1.80985 0
M  V30 12535 O 1230.79 -0.535913 1.73198 0
M  V30 12536 C 1230.84 2.95797 2.06243 0
M  V30 12537 O 1229.94 2.67225 3.14109 0
M  V30 12538 H 1229.28 0.585282 0.313593 0
M  V30 12539 H 1231.81 2.01225 0.370066 0
M  V30 12540 H 1231.82 3.23097 2.49143 0
M  V30 12541 H 1230.5 3.86712 1.53058 0
M  V30 12542 H 1229.07 2.50869 2.75897 0
M  V30 12543 N 1231.26 -0.58723 1.46251 0
M  V30 12544 C 1232.48 -1.37661 1.55126 0
M  V30 12545 C 1232.91 -1.87123 0.191489 0
M  V30 12546 O 1232.27 -1.6131 -0.827576 0
M  V30 12547 C 1232.31 -2.54324 2.5564 0
M  V30 12548 O 1231.42 -3.55617 2.0883 0
M  V30 12549 H 1230.76 -0.410154 0.522178 0
M  V30 12550 H 1233.29 -0.712738 1.91784 0
M  V30 12551 H 1233.3 -3.01301 2.75103 0
M  V30 12552 H 1231.97 -2.17675 3.54387 0
M  V30 12553 H 1230.55 -3.15151 1.99335 0
M  V30 12554 N 1232.74 -1.33881 -0.831482 0
M  V30 12555 C 1233.7 -1.24654 -1.92339 0
M  V30 12556 C 1234.7 -0.163788 -1.59964 0
M  V30 12557 O 1235.89 -0.415829 -1.69164 0
M  V30 12558 C 1233.02 -0.922537 -3.2818 0
M  V30 12559 H 1234.21 -2.21717 -2.01944 0
M  V30 12560 H 1231.77 -1.18046 -1.02445 0
M  V30 12561 H 1232.5 0.0452872 -3.24268 0
M  V30 12562 H 1232.29 -1.70562 -3.53059 0
M  V30 12563 H 1233.78 -0.88292 -4.0816 0
M  V30 12564 N 1234.21 1.05064 -1.1747 0
M  V30 12565 C 1235.15 2.12842 -0.850344 0
M  V30 12566 C 1236.16 1.62128 0.147796 0
M  V30 12567 O 1237.35 1.78327 -0.0786774 0
M  V30 12568 C 1234.45 3.37995 -0.247486 0
M  V30 12569 C 1233.62 4.17981 -1.28881 0
M  V30 12570 C 1232.68 5.21476 -0.703476 0
M  V30 12571 O 1231.71 5.52327 -1.37561 0
M  V30 12572 N 1232.91 5.78309 0.50387 0
M  V30 12573 H 1235.67 2.41264 -1.77797 0
M  V30 12574 H 1233.23 1.21172 -1.07373 0
M  V30 12575 H 1235.23 4.04394 0.157424 0
M  V30 12576 H 1233.8 3.07097 0.583952 0
M  V30 12577 H 1233.02 3.47054 -1.86942 0
M  V30 12578 H 1234.3 4.6822 -1.99116 0
M  V30 12579 H 1233.7 5.5553 1.06787 0
M  V30 12580 H 1232.26 6.46223 0.850828 0
M  V30 12581 N 1235.69 0.975146 1.23809 0
M  V30 12582 C 1236.94 0.636678 1.91388 0
M  V30 12583 C 1237.25 -0.832876 1.76982 0
M  V30 12584 O 1238.46 -1.28218 2.39316 0
M  V30 12585 C 1236.92 1.08813 3.43057 0
M  V30 12586 C 1236.52 2.58165 3.66135 0
M  V30 12587 C 1238.27 0.823154 4.16443 0
M  V30 12588 C 1236.17 2.97004 5.11412 0
M  V30 12589 H 1235.1 0.234424 0.716632 0
M  V30 12590 H 1237.76 1.18235 1.40331 0
M  V30 12591 H 1236.14 0.470709 3.93192 0
M  V30 12592 H 1237.31 3.25101 3.26567 0
M  V30 12593 H 1235.63 2.82353 3.06049 0
M  V30 12594 H 1238.22 1.08925 5.23488 0
M  V30 12595 H 1238.57 -0.240705 4.15604 0
M  V30 12596 H 1239.1 1.4019 3.72279 0
M  V30 12597 H 1235.84 4.02492 5.17378 0
M  V30 12598 H 1235.36 2.34759 5.51949 0
M  V30 12599 H 1237.04 2.8732 5.79704 0
M  V30 12600 N 1237.17 -1.38817 0.746158 0
M  V30 12601 C 1238.45 -1.94303 0.224841 0
M  V30 12602 C 1238.83 -1.68207 -1.27552 0
M  V30 12603 O 1238.17 -1.01647 -2.04646 0
M  V30 12604 C 1238.38 -3.44306 0.5705 0
M  V30 12605 C 1239.73 -4.21329 0.526015 0
M  V30 12606 O 1240.76 -3.52554 0.508351 0
M  V30 12607 O 1239.62 -5.4392 0.530383 0
M  V30 12608 H 1236.71 -0.825785 0.0448047 0
M  V30 12609 H 1239.26 -1.48253 0.825775 0
M  V30 12610 H 1238.03 -3.56779 1.60701 0
M  V30 12611 H 1237.65 -3.97556 -0.0588271 0
M  V30 12612 N 1238.65 -0.49465 -1.49636 0
M  V30 12613 C 1239.9 0.0539277 -2.01628 0
M  V30 12614 C 1240.21 1.38634 -1.37986 0
M  V30 12615 O 1241.42 2.02123 -1.81269 0
M  V30 12616 C 1239.87 0.146582 -3.59601 0
M  V30 12617 C 1239.48 -1.1788 -4.32213 0
M  V30 12618 C 1241.22 0.645862 -4.19558 0
M  V30 12619 C 1239.13 -1.04866 -5.82028 0
M  V30 12620 H 1238.06 0.0239278 -0.75362 0
M  V30 12621 H 1240.71 -0.633112 -1.72232 0
M  V30 12622 H 1239.09 0.897931 -3.85685 0
M  V30 12623 H 1240.27 -1.94295 -4.17835 0
M  V30 12624 H 1238.58 -1.61102 -3.83973 0
M  V30 12625 H 1241.18 0.76064 -5.29262 0
M  V30 12626 H 1241.52 1.64313 -3.82501 0
M  V30 12627 H 1242.06 -0.04877 -3.9777 0
M  V30 12628 H 1238.79 -2.02 -6.23599 0
M  V30 12629 H 1238.31 -0.325293 -5.98917 0
M  V30 12630 H 1239.99 -0.724799 -6.42927 0
M  V30 12631 N 1240.13 1.55939 -0.228214 0
M  V30 12632 C 1241.37 1.9877 0.402272 0
M  V30 12633 C 1241.7 1.11587 1.5894 0
M  V30 12634 O 1240.98 0.175032 1.93711 0
M  V30 12635 C 1241.26 3.50396 0.830353 0
M  V30 12636 C 1241.12 4.4835 -0.360876 0
M  V30 12637 C 1242.43 4.06602 1.68413 0
M  V30 12638 H 1239.55 0.722646 0.144746 0
M  V30 12639 H 1242.2 1.87186 -0.325784 0
M  V30 12640 H 1240.35 3.60398 1.4507 0
M  V30 12641 H 1242.02 4.5035 -0.999113 0
M  V30 12642 H 1240.26 4.21946 -1.00719 0
M  V30 12643 H 1240.93 5.51997 -0.0183074 0
M  V30 12644 H 1243.41 3.99585 1.16064 0
M  V30 12645 H 1242.28 5.12998 1.95254 0
M  V30 12646 H 1242.54 3.53897 2.64971 0
M  V30 12647 N 1241.6 -0.0451101 1.57535 0
M  V30 12648 C 1242.85 -0.738072 1.87711 0
M  V30 12649 C 1243.17 -1.7737 0.824579 0
M  V30 12650 O 1244.37 -2.51812 1.01503 0
M  V30 12651 C 1242.83 -1.36373 3.33062 0
M  V30 12652 C 1242.44 -0.365283 4.46508 0
M  V30 12653 C 1244.18 -2.0375 3.72406 0
M  V30 12654 C 1242.09 -0.998371 5.82912 0
M  V30 12655 H 1241.02 -0.279413 0.700317 0
M  V30 12656 H 1243.67 0.00802425 1.83498 0
M  V30 12657 H 1242.05 -2.15899 3.31969 0
M  V30 12658 H 1243.22 0.402102 4.59042 0
M  V30 12659 H 1241.54 0.205505 4.15893 0
M  V30 12660 H 1244.14 -2.51939 4.71625 0
M  V30 12661 H 1244.48 -2.84869 3.03571 0
M  V30 12662 H 1245.01 -1.3102 3.75604 0
M  V30 12663 H 1241.75 -0.226935 6.55107 0
M  V30 12664 H 1241.27 -1.73598 5.74129 0
M  V30 12665 H 1242.95 -1.51044 6.29122 0
M  V30 12666 N 1243.08 -1.54377 -0.317073 0
M  V30 12667 C 1244.31 -1.77184 -1.07798 0
M  V30 12668 C 1244.73 -0.52204 -1.80711 0
M  V30 12669 O 1244.09 0.52672 -1.7348 0
M  V30 12670 C 1244.14 -2.96887 -2.04671 0
M  V30 12671 O 1243.24 -2.68887 -3.12688 0
M  V30 12672 H 1242.58 -0.586937 -0.310485 0
M  V30 12673 H 1245.11 -2.01419 -0.35939 0
M  V30 12674 H 1245.12 -3.24414 -2.47426 0
M  V30 12675 H 1243.8 -3.87518 -1.51005 0
M  V30 12676 H 1242.38 -2.52329 -2.74562 0
M  V30 12677 N 1244.56 0.579466 -1.4656 0
M  V30 12678 C 1245.51 1.70937 -1.57744 0
M  V30 12679 C 1246.5 1.6343 -0.44577 0
M  V30 12680 O 1247.71 1.68884 -0.622762 0
M  V30 12681 H 1244.08 0.565218 -0.496017 0
M  V30 12682 H 1246.05 1.58636 -2.52739 0
M  V30 12683 C 1244.8 3.09321 -1.58794 0
M  V30 12684 H 1244.13 3.1577 -2.45213 0
M  V30 12685 H 1245.57 3.88132 -1.70674 0
M  V30 12686 C 1244.03 3.35404 -0.317165 0
M  V30 12687 O 1244.56 3.97325 0.591228 0
M  V30 12688 N 1242.76 2.89883 -0.204071 0
M  V30 12689 H 1242.31 2.39672 -0.944194 0
M  V30 12690 H 1242.27 3.07706 0.645303 0
M  V30 12691 N 1246.04 1.3432 0.824371 0
M  V30 12692 C 1246.99 1.25776 1.93517 0
M  V30 12693 C 1247.96 0.133298 1.65564 0
M  V30 12694 O 1249.14 0.31403 1.88198 0
M  V30 12695 C 1246.28 1.01766 3.29754 0
M  V30 12696 C 1245.39 2.22973 3.7001 0
M  V30 12697 C 1244.53 1.92258 4.95187 0
M  V30 12698 C 1243.57 3.09616 5.2802 0
M  V30 12699 N 1242.7 2.78793 6.44375 0
M  V30 12700 H 1247.54 2.20774 2.00157 0
M  V30 12701 H 1245.08 1.09766 0.979274 0
M  V30 12702 H 1247.04 0.858831 4.08265 0
M  V30 12703 H 1245.67 0.10437 3.22631 0
M  V30 12704 H 1244.72 2.49781 2.86903 0
M  V30 12705 H 1246.03 3.10661 3.90245 0
M  V30 12706 H 1245.19 1.73102 5.81481 0
M  V30 12707 H 1243.93 1.01827 4.76951 0
M  V30 12708 H 1242.93 3.29368 4.40223 0
M  V30 12709 H 1244.16 4.00822 5.48196 0
M  V30 12710 H 1242.1 1.90938 6.27598 0
M  V30 12711 H 1242.02 3.60014 6.64775 0
M  V30 12712 H 1243.29 2.63139 7.33743 0
M  V30 12713 N 1247.52 -1.0444 1.18026 0
M  V30 12714 C 1248.48 -2.10532 0.906028 0
M  V30 12715 C 1249.48 -1.60443 -0.107022 0
M  V30 12716 O 1250.67 -1.73744 0.126001 0
M  V30 12717 C 1247.8 -3.39008 0.358625 0
M  V30 12718 H 1248.99 -2.36293 1.84677 0
M  V30 12719 H 1246.55 -1.20805 0.991763 0
M  V30 12720 H 1247.28 -3.18908 -0.588904 0
M  V30 12721 H 1247.07 -3.76678 1.08884 0
M  V30 12722 H 1248.56 -4.17189 0.185331 0
M  V30 12723 N 1248.99 -0.981699 -1.2329 0
M  V30 12724 C 1249.96 -0.527992 -2.23036 0
M  V30 12725 C 1250.96 0.383083 -1.5617 0
M  V30 12726 O 1252.15 0.176595 -1.73303 0
M  V30 12727 C 1249.28 0.233501 -3.40099 0
M  V30 12728 H 1250.47 -1.40995 -2.64689 0
M  V30 12729 H 1248.03 -0.767724 -1.36146 0
M  V30 12730 H 1248.76 1.13194 -3.03904 0
M  V30 12731 H 1248.55 -0.420505 -3.89839 0
M  V30 12732 H 1250.04 0.539485 -4.14101 0
M  V30 12733 N 1250.47 1.3842 -0.753509 0
M  V30 12734 C 1251.72 2.00415 -0.310091 0
M  V30 12735 C 1252.05 1.59675 1.10532 0
M  V30 12736 O 1251.33 0.834261 1.757 0
M  V30 12737 C 1251.61 3.57488 -0.432897 0
M  V30 12738 C 1251.46 4.08193 -1.88941 0
M  V30 12739 C 1252.78 4.39757 0.173763 0
M  V30 12740 H 1249.9 0.728107 -0.114147 0
M  V30 12741 H 1252.54 1.64363 -0.953138 0
M  V30 12742 H 1250.69 3.88331 0.114563 0
M  V30 12743 H 1252.36 3.87993 -2.49517 0
M  V30 12744 H 1250.61 3.61063 -2.4045 0
M  V30 12745 H 1251.28 5.17291 -1.9265 0
M  V30 12746 H 1253.75 4.15066 -0.293137 0
M  V30 12747 H 1252.63 5.4887 0.057594 0
M  V30 12748 H 1252.89 4.23704 1.26205 0
M  V30 12749 N 1251.95 0.502579 1.49372 0
M  V30 12750 C 1252.91 -0.263993 2.27675 0
M  V30 12751 C 1253.91 -0.892538 1.33755 0
M  V30 12752 O 1255.1 -0.756826 1.56901 0
M  V30 12753 C 1252.24 -1.37895 3.11765 0
M  V30 12754 H 1253.43 0.423132 2.969 0
M  V30 12755 H 1250.98 0.257595 1.54163 0
M  V30 12756 H 1251.72 -2.10018 2.47109 0
M  V30 12757 H 1251.5 -0.933694 3.80821 0
M  V30 12758 H 1252.99 -1.91889 3.70902 0
M  V30 12759 N 1253.43 -1.55816 0.23648 0
M  V30 12760 C 1254.68 -1.98294 -0.390373 0
M  V30 12761 C 1255 -1.12573 -1.59224 0
M  V30 12762 O 1254.27 -0.206128 -1.94813 0
M  V30 12763 H 1252.85 -0.732349 -0.14722 0
M  V30 12764 H 1255.51 -1.92037 0.332848 0
M  V30 12765 H 1254.61 -3.03996 -0.706595 0
M  V30 12766 N 1254.91 0.036755 -1.57557 0
M  V30 12767 C 1255.84 1.03939 -2.09091 0
M  V30 12768 C 1256.82 1.38196 -0.991761 0
M  V30 12769 O 1258 1.47214 -1.26656 0
M  V30 12770 C 1255.13 2.34263 -2.56394 0
M  V30 12771 C 1254.09 2.14269 -3.70504 0
M  V30 12772 C 1253.41 3.50286 -4.03985 0
M  V30 12773 C 1254.71 1.53514 -4.9923 0
M  V30 12774 H 1256.41 0.610429 -2.93111 0
M  V30 12775 H 1253.95 0.292183 -1.41005 0
M  V30 12776 H 1255.91 3.04727 -2.91066 0
M  V30 12777 H 1254.63 2.79205 -1.69447 0
M  V30 12778 H 1253.29 1.46239 -3.36169 0
M  V30 12779 H 1252.94 3.92861 -3.14116 0
M  V30 12780 H 1252.64 3.37735 -4.80842 0
M  V30 12781 H 1254.16 4.22124 -4.41184 0
M  V30 12782 H 1255.57 2.13885 -5.31908 0
M  V30 12783 H 1253.97 1.51561 -5.80646 0
M  V30 12784 H 1255.04 0.500126 -4.82314 0
M  V30 12785 N 1256.39 1.54543 0.308881 0
M  V30 12786 C 1257.66 1.64118 1.06418 0
M  V30 12787 C 1258.04 0.484402 2.05467 0
M  V30 12788 O 1257.39 -0.519752 2.2251 0
M  V30 12789 C 1257.6 3.01776 1.75306 0
M  V30 12790 C 1258.95 3.58324 2.27792 0
M  V30 12791 O 1259.97 3.04177 1.85351 0
M  V30 12792 O 1258.83 4.53113 3.05533 0
M  V30 12793 H 1255.93 0.665172 0.491401 0
M  V30 12794 H 1258.47 1.66889 0.307598 0
M  V30 12795 H 1257.24 3.77407 1.03341 0
M  V30 12796 H 1256.87 3.02748 2.57739 0
M  V30 12797 N 1257.86 -0.571685 1.46866 0
M  V30 12798 C 1258.81 -1.67992 1.58263 0
M  V30 12799 C 1259.78 -1.60535 0.426345 0
M  V30 12800 O 1260.97 -1.79584 0.644534 0
M  V30 12801 C 1258.11 -3.06327 1.58927 0
M  V30 12802 C 1257.22 -3.24328 2.85369 0
M  V30 12803 C 1256.35 -4.52976 2.77464 0
M  V30 12804 C 1255.39 -4.64359 3.98795 0
M  V30 12805 N 1254.53 -5.84345 3.89211 0
M  V30 12806 H 1259.37 -1.57589 2.52922 0
M  V30 12807 H 1256.91 -0.767883 1.25467 0
M  V30 12808 H 1258.86 -3.86411 1.57296 0
M  V30 12809 H 1257.49 -3.15601 0.677912 0
M  V30 12810 H 1256.55 -2.37774 2.96931 0
M  V30 12811 H 1257.86 -3.28605 3.7526 0
M  V30 12812 H 1257.01 -5.41303 2.74001 0
M  V30 12813 H 1255.75 -4.51155 1.85231 0
M  V30 12814 H 1254.76 -3.74448 4.02578 0
M  V30 12815 H 1255.98 -4.6795 4.92137 0
M  V30 12816 H 1253.93 -5.835 2.99772 0
M  V30 12817 H 1253.84 -5.89938 4.72768 0
M  V30 12818 H 1255.11 -6.75072 3.89741 0
M  V30 12819 N 1259.34 -1.34755 -0.817236 0
M  V30 12820 C 1260.3 -1.26687 -1.91006 0
M  V30 12821 C 1261.3 -0.180745 -1.59781 0
M  V30 12822 O 1262.49 -0.433748 -1.68714 0
M  V30 12823 C 1259.63 -0.957293 -3.27183 0
M  V30 12824 H 1260.82 -2.23846 -1.99582 0
M  V30 12825 H 1258.37 -1.19125 -1.01187 0
M  V30 12826 H 1259.11 0.0108917 -3.24298 0
M  V30 12827 H 1258.89 -1.74297 -3.5123 0
M  V30 12828 H 1260.38 -0.926161 -4.072 0
M  V30 12829 N 1260.82 1.03812 -1.18578 0
M  V30 12830 C 1261.73 2.15371 -0.930182 0
M  V30 12831 C 1262.75 1.73673 0.106599 0
M  V30 12832 O 1263.92 2.01257 -0.0759054 0
M  V30 12833 C 1260.99 3.43606 -0.462151 0
M  V30 12834 C 1260.05 3.99671 -1.5672 0
M  V30 12835 C 1259.28 5.21785 -1.12141 0
M  V30 12836 O 1259.5 5.70397 0.0188357 0
M  V30 12837 O 1258.44 5.70449 -1.9202 0
M  V30 12838 H 1262.26 2.39791 -1.86371 0
M  V30 12839 H 1259.85 1.13814 -0.967819 0
M  V30 12840 H 1261.73 4.2088 -0.20934 0
M  V30 12841 H 1260.41 3.20654 0.443052 0
M  V30 12842 H 1259.31 3.23774 -1.87406 0
M  V30 12843 H 1260.65 4.2697 -2.44862 0
M  V30 12844 N 1262.3 0.988223 1.22768 0
M  V30 12845 C 1263.71 0.69816 1.4352 0
M  V30 12846 C 1263.91 -0.732872 1.877 0
M  V30 12847 O 1262.97 -1.50436 2.02793 0
M  V30 12848 C 1264.28 1.69975 2.4805 0
M  V30 12849 C 1265.83 1.71467 2.61855 0
M  V30 12850 C 1266.31 2.70477 3.69603 0
M  V30 12851 N 1267.8 2.69043 3.77055 0
M  V30 12852 C 1268.53 3.42319 4.60006 0
M  V30 12853 N 1268.03 4.2518 5.46986 0
M  V30 12854 N 1269.82 3.31047 4.54274 0
M  V30 12855 H 1261.97 1.91251 0.923948 0
M  V30 12856 H 1264.23 0.82455 0.467783 0
M  V30 12857 H 1263.94 2.72354 2.22523 0
M  V30 12858 H 1263.81 1.48885 3.46573 0
M  V30 12859 H 1266.2 0.697889 2.86729 0
M  V30 12860 H 1266.28 1.96625 1.63622 0
M  V30 12861 H 1265.93 3.72302 3.45476 0
M  V30 12862 H 1265.86 2.42591 4.67394 0
M  V30 12863 H 1268.35 2.08914 3.14902 0
M  V30 12864 H 1268.66 4.77929 6.07292 0
M  V30 12865 H 1267.01 4.29268 5.46584 0
M  V30 12866 H 1270.2 2.65758 3.85345 0
M  V30 12867 H 1270.37 3.88413 5.1869 0
M  V30 12868 N 1263.78 -1.38018 0.760839 0
M  V30 12869 C 1264.74 -2.28734 0.146154 0
M  V30 12870 C 1265.74 -1.47525 -0.639768 0
M  V30 12871 O 1266.93 -1.6788 -0.464964 0
M  V30 12872 C 1264.06 -3.31356 -0.801019 0
M  V30 12873 H 1265.25 -2.84599 0.945692 0
M  V30 12874 H 1262.81 -1.471 0.528323 0
M  V30 12875 H 1263.54 -2.80594 -1.62597 0
M  V30 12876 H 1263.33 -3.91366 -0.239775 0
M  V30 12877 H 1264.82 -3.99171 -1.22687 0
M  V30 12878 N 1265.25 -0.510493 -1.49103 0
M  V30 12879 C 1266.5 0.0305831 -2.02077 0
M  V30 12880 C 1266.82 1.36602 -1.39157 0
M  V30 12881 O 1266.09 1.88016 -0.550154 0
M  V30 12882 H 1264.67 0.0142916 -0.746863 0
M  V30 12883 H 1267.33 -0.669895 -1.83026 0
M  V30 12884 H 1266.43 0.153283 -3.11723 0
M  V30 12885 N 1266.73 1.55688 -0.24474 0
M  V30 12886 C 1267.98 1.98067 0.381081 0
M  V30 12887 C 1268.29 1.13606 1.59227 0
M  V30 12888 O 1269.5 1.45988 2.2891 0
M  V30 12889 C 1267.96 3.52432 0.729385 0
M  V30 12890 C 1267.56 4.45629 -0.460282 0
M  V30 12891 C 1269.31 4.03471 1.31952 0
M  V30 12892 C 1267.21 5.91334 -0.088252 0
M  V30 12893 H 1266.14 0.739699 0.146157 0
M  V30 12894 H 1268.8 1.80235 -0.344615 0
M  V30 12895 H 1267.18 3.65951 1.51315 0
M  V30 12896 H 1268.35 4.43868 -1.23764 0
M  V30 12897 H 1266.67 4.05059 -0.965197 0
M  V30 12898 H 1269.26 5.09849 1.61116 0
M  V30 12899 H 1269.61 3.50691 2.24325 0
M  V30 12900 H 1270.14 3.93269 0.5987 0
M  V30 12901 H 1266.88 6.48147 -0.979069 0
M  V30 12902 H 1266.4 5.96235 0.652947 0
M  V30 12903 H 1268.08 6.46156 0.330324 0
M  V30 12904 N 1268.21 -0.0283989 1.57574 0
M  V30 12905 C 1269.62 -0.574912 1.77628 0
M  V30 12906 C 1269.97 -1.75563 0.875903 0
M  V30 12907 O 1269.1 -2.16284 0.0709141 0
M  V30 12908 C 1269.69 -1.04972 3.22128 0
M  V30 12909 C 1268.25 -1.54175 3.43376 0
M  V30 12910 C 1267.4 -0.480127 2.73112 0
M  V30 12911 H 1270.35 0.197826 1.57462 0
M  V30 12912 H 1270.37 -1.91705 3.28678 0
M  V30 12913 H 1269.88 -0.190173 3.87634 0
M  V30 12914 H 1267.98 -2.42313 2.83046 0
M  V30 12915 H 1268.1 -1.58879 4.51989 0
M  V30 12916 H 1266.46 -0.935314 2.36905 0
M  V30 12917 H 1267.24 0.369973 3.41301 0
M  V30 12918 N 1269.69 -1.54705 -0.300681 0
M  V30 12919 C 1270.92 -1.77993 -1.0548 0
M  V30 12920 C 1271.33 -0.539574 -1.80926 0
M  V30 12921 O 1270.69 0.490597 -1.75782 0
M  V30 12922 C 1270.74 -2.98774 -2.0351 0
M  V30 12923 O 1270.46 -4.18016 -1.31126 0
M  V30 12924 C 1271.96 -3.34452 -2.90958 0
M  V30 12925 H 1269.18 -0.593628 -0.312805 0
M  V30 12926 H 1271.72 -2.01656 -0.339858 0
M  V30 12927 H 1269.88 -2.77318 -2.70506 0
M  V30 12928 H 1270.29 -4.86113 -1.96963 0
M  V30 12929 H 1271.77 -4.22206 -3.55593 0
M  V30 12930 H 1272.24 -2.52622 -3.59275 0
M  V30 12931 H 1272.85 -3.58069 -2.29493 0
M  V30 12932 N 1271.17 0.563888 -1.47167 0
M  V30 12933 C 1272.58 0.889156 -1.32537 0
M  V30 12934 C 1272.78 1.99088 -0.310854 0
M  V30 12935 O 1271.84 2.50943 0.27998 0
M  V30 12936 C 1273.15 1.28871 -2.71685 0
M  V30 12937 C 1274.7 1.40051 -2.79919 0
M  V30 12938 C 1275.17 1.83364 -4.19692 0
M  V30 12939 N 1276.67 1.90526 -4.22201 0
M  V30 12940 C 1277.4 2.25355 -5.2726 0
M  V30 12941 N 1276.9 2.58844 -6.42629 0
M  V30 12942 N 1278.69 2.26071 -5.14634 0
M  V30 12943 H 1270.84 -0.163581 -2.11769 0
M  V30 12944 H 1273.1 -0.0105151 -0.947942 0
M  V30 12945 H 1272.81 0.553057 -3.47324 0
M  V30 12946 H 1272.68 2.24629 -3.03021 0
M  V30 12947 H 1275.07 2.12698 -2.04557 0
M  V30 12948 H 1275.15 0.424971 -2.52245 0
M  V30 12949 H 1274.8 1.11289 -4.95557 0
M  V30 12950 H 1274.73 2.81909 -4.44786 0
M  V30 12951 H 1277.22 1.67059 -3.38968 0
M  V30 12952 H 1277.53 2.84427 -7.18555 0
M  V30 12953 H 1275.87 2.56439 -6.4596 0
M  V30 12954 H 1279.07 1.99343 -4.23533 0
M  V30 12955 H 1279.24 2.52885 -5.96618 0
M  V30 12956 N 1272.64 1.35187 0.810078 0
M  V30 12957 C 1273.89 1.28454 1.56931 0
M  V30 12958 C 1274.22 -0.141747 1.93682 0
M  V30 12959 O 1273.5 -1.09028 1.61069 0
M  V30 12960 C 1273.78 2.18771 2.86027 0
M  V30 12961 C 1273.63 3.69999 2.55774 0
M  V30 12962 C 1274.95 2.08265 3.87703 0
M  V30 12963 H 1272.07 0.467959 0.569371 0
M  V30 12964 H 1274.71 1.65556 0.932262 0
M  V30 12965 H 1272.86 1.8726 3.40391 0
M  V30 12966 H 1274.54 4.11936 2.07621 0
M  V30 12967 H 1272.78 3.90453 1.89021 0
M  V30 12968 H 1273.45 4.28577 3.47888 0
M  V30 12969 H 1275.93 2.35958 3.42729 0
M  V30 12970 H 1274.8 2.73663 4.75815 0
M  V30 12971 H 1275.06 1.06352 4.29117 0
M  V30 12972 N 1274.12 -1.03182 1.19127 0
M  V30 12973 C 1275.37 -1.75934 0.986415 0
M  V30 12974 C 1275.68 -1.89519 -0.48392 0
M  V30 12975 O 1276.89 -2.59213 -0.80752 0
M  V30 12976 C 1275.35 -3.16358 1.71597 0
M  V30 12977 C 1274.95 -3.10836 3.22622 0
M  V30 12978 C 1276.7 -3.93426 1.59425 0
M  V30 12979 C 1274.61 -4.46174 3.88179 0
M  V30 12980 H 1273.54 -0.659516 0.365451 0
M  V30 12981 H 1276.19 -1.15497 1.42593 0
M  V30 12982 H 1274.57 -3.77245 1.20426 0
M  V30 12983 H 1275.74 -2.59348 3.80887 0
M  V30 12984 H 1274.06 -2.47266 3.35035 0
M  V30 12985 H 1276.65 -4.93526 2.05757 0
M  V30 12986 H 1277 -4.12678 0.547926 0
M  V30 12987 H 1277.53 -3.39134 2.07925 0
M  V30 12988 H 1274.27 -4.32126 4.92897 0
M  V30 12989 H 1273.79 -4.97729 3.34702 0
M  V30 12990 H 1275.47 -5.15066 3.91556 0
M  V30 12991 N 1275.6 -0.99472 -1.22242 0
M  V30 12992 C 1276.55 -0.53946 -2.26258 0
M  V30 12993 C 1277.54 0.410796 -1.64344 0
M  V30 12994 O 1278.75 0.283116 -1.7776 0
M  V30 12995 H 1275.12 -0.156069 -0.735627 0
M  V30 12996 H 1277.09 -1.42814 -2.62005 0
M  V30 12997 C 1275.84 0.12842 -3.47463 0
M  V30 12998 H 1275.17 -0.593727 -3.95367 0
M  V30 12999 H 1276.61 0.410393 -4.22009 0
M  V30 13000 C 1275.07 1.36433 -3.08038 0
M  V30 13001 O 1275.6 2.45953 -3.176 0
M  V30 13002 N 1273.8 1.24026 -2.62804 0
M  V30 13003 H 1273.35 0.349111 -2.55223 0
M  V30 13004 H 1273.31 2.06824 -2.36794 0
M  V30 13005 N 1277.08 1.37613 -0.768148 0
M  V30 13006 C 1278.03 2.27654 -0.125596 0
M  V30 13007 C 1279.01 1.45923 0.677883 0
M  V30 13008 O 1280.2 1.68515 0.541448 0
M  V30 13009 C 1277.33 3.34884 0.7555 0
M  V30 13010 C 1276.42 4.24064 -0.0556137 0
M  V30 13011 N 1276.81 4.93707 -1.09943 0
M  V30 13012 C 1275.11 4.4568 0.168932 0
M  V30 13013 C 1275.81 5.59508 -1.59142 0
M  V30 13014 N 1274.79 5.36027 -0.904208 0
M  V30 13015 H 1278.59 2.7897 -0.924828 0
M  V30 13016 H 1276.1 1.50687 -0.605561 0
M  V30 13017 H 1278.1 3.98294 1.23157 0
M  V30 13018 H 1276.76 2.85124 1.55352 0
M  V30 13019 H 1277.77 4.96258 -1.48151 0
M  V30 13020 H 1274.45 4.068 0.939144 0
M  V30 13021 H 1275.84 6.2518 -2.4617 0
M  V30 13022 N 1278.56 0.518393 1.4883 0
M  V30 13023 C 1279.5 -0.250684 2.29435 0
M  V30 13024 C 1280.47 -0.944481 1.36634 0
M  V30 13025 O 1281.66 -0.947766 1.65596 0
M  V30 13026 C 1278.8 -1.29871 3.1973 0
M  V30 13027 C 1277.91 -0.61493 4.27601 0
M  V30 13028 C 1277.05 -1.64489 5.05091 0
M  V30 13029 C 1276.09 -0.943932 6.04778 0
M  V30 13030 N 1275.22 -1.91889 6.75369 0
M  V30 13031 H 1280.06 0.44288 2.94691 0
M  V30 13032 H 1277.6 0.230246 1.45287 0
M  V30 13033 H 1279.56 -1.91851 3.70471 0
M  V30 13034 H 1278.19 -1.96081 2.56422 0
M  V30 13035 H 1277.24 0.118552 3.80215 0
M  V30 13036 H 1278.55 -0.063994 4.98759 0
M  V30 13037 H 1277.71 -2.33928 5.59788 0
M  V30 13038 H 1276.44 -2.2297 4.33746 0
M  V30 13039 H 1275.45 -0.235407 5.49296 0
M  V30 13040 H 1276.67 -0.365383 6.78116 0
M  V30 13041 H 1274.62 -2.493 6.06783 0
M  V30 13042 H 1274.54 -1.41909 7.42562 0
M  V30 13043 H 1275.81 -2.60563 7.34661 0
M  V30 13044 N 1280.03 -1.55556 0.252993 0
M  V30 13045 C 1280.96 -2.24613 -0.638047 0
M  V30 13046 C 1281.95 -1.22852 -1.1765 0
M  V30 13047 O 1283.13 -1.51519 -1.21472 0
M  V30 13048 C 1280.26 -2.95029 -1.83236 0
M  V30 13049 C 1279.21 -4.03531 -1.42641 0
M  V30 13050 C 1278.54 -4.61404 -2.70204 0
M  V30 13051 C 1279.84 -5.18923 -0.592958 0
M  V30 13052 H 1281.53 -2.99335 -0.0621918 0
M  V30 13053 H 1279.08 -1.43972 -0.0284722 0
M  V30 13054 H 1281.03 -3.42042 -2.46141 0
M  V30 13055 H 1279.76 -2.17805 -2.43369 0
M  V30 13056 H 1278.42 -3.57296 -0.820672 0
M  V30 13057 H 1278.06 -3.80874 -3.28548 0
M  V30 13058 H 1277.76 -5.34652 -2.43764 0
M  V30 13059 H 1279.29 -5.11154 -3.33997 0
M  V30 13060 H 1280.7 -5.62124 -1.12646 0
M  V30 13061 H 1279.1 -5.98598 -0.424358 0
M  V30 13062 H 1280.17 -4.83301 0.393434 0
M  V30 13063 N 1281.51 0.0200419 -1.57587 0
M  V30 13064 C 1282.74 0.719511 -1.93666 0
M  V30 13065 C 1283.15 1.68934 -0.85193 0
M  V30 13066 O 1282.49 1.8282 0.179593 0
M  V30 13067 C 1282.56 1.52382 -3.25607 0
M  V30 13068 C 1282.22 0.717784 -4.51328 0
M  V30 13069 C 1283.22 0.0141272 -5.19898 0
M  V30 13070 C 1280.9 0.669662 -4.97816 0
M  V30 13071 C 1282.9 -0.726853 -6.33242 0
M  V30 13072 C 1280.58 -0.0750577 -6.11054 0
M  V30 13073 C 1281.58 -0.772067 -6.78622 0
M  V30 13074 O 1281.27 -1.50468 -7.89693 0
M  V30 13075 H 1281 0.206681 -0.643629 0
M  V30 13076 H 1283.55 -0.0211203 -2.05389 0
M  V30 13077 H 1281.78 2.30848 -3.10236 0
M  V30 13078 H 1283.47 2.10675 -3.46945 0
M  V30 13079 H 1284.24 0.0422784 -4.84982 0
M  V30 13080 H 1280.12 1.20169 -4.45062 0
M  V30 13081 H 1283.66 -1.27143 -6.85916 0
M  V30 13082 H 1279.56 -0.1051 -6.45414 0
M  V30 13083 H 1280.33 -1.41929 -8.06101 0
M  V30 13084 N 1282.99 1.54862 0.292472 0
M  V30 13085 C 1283.94 1.86403 1.36098 0
M  V30 13086 C 1284.91 0.713694 1.49985 0
M  V30 13087 O 1286.09 0.963134 1.64707 0
M  V30 13088 C 1283.23 2.1244 2.71962 0
M  V30 13089 C 1282.35 3.40038 2.66454 0
M  V30 13090 C 1281.48 3.55875 3.94368 0
M  V30 13091 C 1280.52 4.77235 3.83293 0
M  V30 13092 N 1279.66 4.89832 5.03 0
M  V30 13093 H 1284.5 2.77546 1.085 0
M  V30 13094 H 1282.03 1.37427 0.524607 0
M  V30 13095 H 1283.99 2.25533 3.50985 0
M  V30 13096 H 1282.62 1.24554 2.97802 0
M  V30 13097 H 1281.67 3.35521 1.79248 0
M  V30 13098 H 1282.99 4.29188 2.54163 0
M  V30 13099 H 1282.14 3.68679 4.8183 0
M  V30 13100 H 1280.88 2.64874 4.09503 0
M  V30 13101 H 1279.88 4.64455 2.94214 0
M  V30 13102 H 1281.11 5.69651 3.69695 0
M  V30 13103 H 1279.05 4.01756 5.18582 0
M  V30 13104 H 1278.97 5.72996 4.93165 0
M  V30 13105 H 1280.24 5.07001 5.92089 0
M  V30 13106 N 1284.47 -0.556076 1.47464 0
M  V30 13107 C 1285.42 -1.68406 1.60444 0
M  V30 13108 C 1286.41 -1.627 0.471713 0
M  V30 13109 O 1287.62 -1.67871 0.649551 0
M  V30 13110 H 1283.99 -0.557255 0.504946 0
M  V30 13111 H 1285.96 -1.54595 2.55231 0
M  V30 13112 C 1284.71 -3.06756 1.63695 0
M  V30 13113 H 1284.03 -3.11829 2.50206 0
M  V30 13114 H 1285.47 -3.85368 1.76827 0
M  V30 13115 C 1283.93 -3.34857 0.370485 0
M  V30 13116 O 1284.46 -3.98216 -0.527942 0
M  V30 13117 N 1282.67 -2.89521 0.250163 0
M  V30 13118 H 1282.22 -2.3814 0.982204 0
M  V30 13119 H 1282.17 -3.08694 -0.596268 0
M  V30 13120 N 1285.95 -1.35615 -0.802897 0
M  V30 13121 C 1287.36 -1.15733 -1.099 0
M  V30 13122 C 1287.56 0.0277094 -2.01481 0
M  V30 13123 O 1286.62 0.697196 -2.42684 0
M  V30 13124 C 1287.93 -2.46201 -1.72643 0
M  V30 13125 C 1289.48 -2.52442 -1.85046 0
M  V30 13126 C 1289.96 -3.82962 -2.51205 0
M  V30 13127 N 1291.45 -3.84234 -2.58686 0
M  V30 13128 C 1292.18 -4.81956 -3.10654 0
M  V30 13129 N 1291.68 -5.90068 -3.63032 0
M  V30 13130 N 1293.47 -4.69389 -3.09241 0
M  V30 13131 H 1285.62 -2.11511 -0.194177 0
M  V30 13132 H 1287.88 -0.936259 -0.148739 0
M  V30 13133 H 1287.59 -3.33114 -1.12817 0
M  V30 13134 H 1287.46 -2.6102 -2.72302 0
M  V30 13135 H 1289.85 -1.65955 -2.44014 0
M  V30 13136 H 1289.93 -2.41534 -0.842316 0
M  V30 13137 H 1289.58 -4.69848 -1.92885 0
M  V30 13138 H 1289.51 -3.9116 -3.52564 0
M  V30 13139 H 1292 -3.0612 -2.21582 0
M  V30 13140 H 1292.31 -6.60623 -4.00996 0
M  V30 13141 H 1290.66 -5.93755 -3.6122 0
M  V30 13142 H 1293.85 -3.84066 -2.67602 0
M  V30 13143 H 1294.02 -5.4571 -3.49435 0
M  V30 13144 N 1287.43 1.02549 -1.19673 0
M  V30 13145 C 1288.67 1.76265 -1.00293 0
M  V30 13146 C 1289 1.88555 0.464816 0
M  V30 13147 O 1288.28 1.40484 1.34515 0
M  V30 13148 C 1288.56 3.18688 -1.6766 0
M  V30 13149 C 1288.42 3.14247 -3.21821 0
M  V30 13150 C 1289.73 4.17159 -1.40238 0
M  V30 13151 H 1286.85 0.639837 -0.365756 0
M  V30 13152 H 1289.5 1.19691 -1.4756 0
M  V30 13153 H 1287.65 3.66992 -1.27472 0
M  V30 13154 H 1289.32 2.73815 -3.71245 0
M  V30 13155 H 1287.56 2.51874 -3.53188 0
M  V30 13156 H 1288.23 4.14886 -3.64107 0
M  V30 13157 H 1290.71 3.77471 -1.75086 0
M  V30 13158 H 1289.58 5.14997 -1.89919 0
M  V30 13159 H 1289.84 4.4088 -0.328197 0
M  V30 13160 N 1288.9 1.00119 1.21713 0
M  V30 13161 C 1289.81 0.567582 2.27631 0
M  V30 13162 C 1290.83 -0.387593 1.69628 0
M  V30 13163 O 1292.01 -0.252372 1.99813 0
M  V30 13164 C 1289.07 -0.102745 3.46548 0
M  V30 13165 C 1288.13 0.896433 4.19836 0
M  V30 13166 C 1287.36 0.258 5.33076 0
M  V30 13167 O 1287.59 -0.946118 5.62499 0
M  V30 13168 O 1286.52 0.967021 5.94081 0
M  V30 13169 H 1290.35 1.44898 2.66905 0
M  V30 13170 H 1287.93 0.769862 1.28037 0
M  V30 13171 H 1289.81 -0.477846 4.18682 0
M  V30 13172 H 1288.49 -0.958576 3.09181 0
M  V30 13173 H 1287.4 1.32262 3.49939 0
M  V30 13174 H 1288.73 1.72173 4.61104 0
M  V30 13175 N 1290.38 -1.37203 0.775435 0
M  V30 13176 C 1291.63 -1.99601 0.341431 0
M  V30 13177 C 1291.96 -1.61555 -1.08306 0
M  V30 13178 O 1291.21 -0.855126 -1.76029 0
M  V30 13179 C 1291.51 -3.54725 0.436426 0
M  V30 13180 C 1291.18 -4.1255 1.8197 0
M  V30 13181 C 1289.84 -4.28056 2.19822 0
M  V30 13182 C 1292.19 -4.44222 2.7261 0
M  V30 13183 C 1289.52 -4.72538 3.47742 0
M  V30 13184 C 1291.87 -4.90131 3.99943 0
M  V30 13185 C 1290.53 -5.03842 4.37835 0
M  V30 13186 H 1289.8 -0.730391 0.124938 0
M  V30 13187 H 1292.45 -1.63914 0.990177 0
M  V30 13188 H 1290.76 -3.90681 -0.295852 0
M  V30 13189 H 1292.45 -4.00916 0.0818664 0
M  V30 13190 H 1289.04 -4.00911 1.51553 0
M  V30 13191 H 1293.23 -4.31824 2.44625 0
M  V30 13192 H 1288.48 -4.81341 3.76989 0
M  V30 13193 H 1292.66 -5.13604 4.70302 0
M  V30 13194 H 1290.28 -5.3807 5.37015 0
M  V30 13195 N 1291.86 -0.526279 -1.48553 0
M  V30 13196 C 1293.14 0.073385 -1.95462 0
M  V30 13197 C 1293.52 1.51658 -1.46843 0
M  V30 13198 O 1292.86 2.17729 -0.693293 0
M  V30 13199 C 1293.07 -0.040041 -3.48977 0
M  V30 13200 C 1294.42 0.121108 -4.24427 0
M  V30 13201 O 1295.45 0.0339335 -3.56184 0
M  V30 13202 O 1294.31 0.303297 -5.45658 0
M  V30 13203 H 1291.4 0.0813498 -0.822989 0
M  V30 13204 H 1293.95 -0.590614 -1.59091 0
M  V30 13205 H 1292.72 -1.0455 -3.77074 0
M  V30 13206 H 1292.34 0.662975 -3.92034 0
M  V30 13207 N 1293.34 1.5542 -0.261239 0
M  V30 13208 C 1294.56 2.04142 0.366144 0
M  V30 13209 C 1294.99 1.13884 1.49706 0
M  V30 13210 O 1294.35 0.134629 1.80799 0
M  V30 13211 C 1294.39 3.50733 0.837774 0
M  V30 13212 O 1293.5 3.63588 1.94621 0
M  V30 13213 H 1292.84 0.659424 0.077821 0
M  V30 13214 H 1295.37 2.0082 -0.391487 0
M  V30 13215 H 1295.38 3.91831 1.13721 0
M  V30 13216 H 1294.05 4.15899 0.0102742 0
M  V30 13217 H 1292.63 3.34391 1.65037 0
M  V30 13218 N 1294.82 -0.0116844 1.57596 0
M  V30 13219 C 1295.78 -0.991601 2.0664 0
M  V30 13220 C 1296.78 -1.27973 0.973629 0
M  V30 13221 O 1297.97 -1.22686 1.23668 0
M  V30 13222 C 1295.1 -2.31975 2.49801 0
M  V30 13223 H 1296.29 -0.567607 2.9448 0
M  V30 13224 H 1293.85 -0.258906 1.54141 0
M  V30 13225 H 1294.58 -2.79087 1.65169 0
M  V30 13226 H 1294.37 -2.12386 3.29598 0
M  V30 13227 H 1295.86 -3.02294 2.88112 0
M  V30 13228 N 1296.29 -1.55015 -0.284256 0
M  V30 13229 C 1297.54 -1.74297 -1.01506 0
M  V30 13230 C 1297.86 -0.545134 -1.8785 0
M  V30 13231 O 1299.06 -0.620118 -2.64323 0
M  V30 13232 C 1297.52 -3.08438 -1.85456 0
M  V30 13233 C 1297.13 -4.35753 -1.04034 0
M  V30 13234 C 1298.87 -3.37073 -2.58035 0
M  V30 13235 C 1296.78 -5.60938 -1.87358 0
M  V30 13236 H 1295.71 -0.649656 -0.382705 0
M  V30 13237 H 1298.36 -1.81484 -0.271239 0
M  V30 13238 H 1296.74 -2.95259 -2.63891 0
M  V30 13239 H 1297.91 -4.59816 -0.300954 0
M  V30 13240 H 1296.23 -4.14178 -0.429616 0
M  V30 13241 H 1298.83 -4.27806 -3.20759 0
M  V30 13242 H 1299.17 -2.56698 -3.27738 0
M  V30 13243 H 1299.7 -3.51299 -1.86638 0
M  V30 13244 H 1296.44 -6.44029 -1.22096 0
M  V30 13245 H 1295.96 -5.41035 -2.58923 0
M  V30 13246 H 1297.64 -5.98819 -2.44999 0
M  V30 13247 N 1297.77 0.548248 -1.47757 0
M  V30 13248 C 1299.05 1.3092 -1.45325 0
M  V30 13249 C 1299.43 2.1053 -0.155008 0
M  V30 13250 O 1298.78 2.11558 0.863455 0
M  V30 13251 C 1298.99 2.20614 -2.70426 0
M  V30 13252 C 1300.33 2.81345 -3.18009 0
M  V30 13253 O 1301.36 2.30911 -2.71216 0
M  V30 13254 O 1300.22 3.73036 -3.99383 0
M  V30 13255 H 1297.31 0.58996 -0.579548 0
M  V30 13256 H 1299.86 0.56641 -1.59968 0
M  V30 13257 H 1298.63 1.61449 -3.56441 0
M  V30 13258 H 1298.25 3.02173 -2.58413 0
M  V30 13259 N 1299.25 1.36039 0.795694 0
M  V30 13260 C 1300.18 1.32528 1.92246 0
M  V30 13261 C 1301.16 0.197805 1.68946 0
M  V30 13262 O 1302.35 0.394474 1.90151 0
M  V30 13263 C 1299.48 1.10748 3.29169 0
M  V30 13264 C 1298.43 2.20253 3.66978 0
M  V30 13265 C 1297.76 1.83624 5.02181 0
M  V30 13266 C 1299.06 3.62296 3.76216 0
M  V30 13267 H 1300.75 2.2681 1.95442 0
M  V30 13268 H 1298.3 1.09181 0.938908 0
M  V30 13269 H 1300.25 1.06929 4.07608 0
M  V30 13270 H 1298.97 0.129141 3.26345 0
M  V30 13271 H 1297.63 2.23187 2.90832 0
M  V30 13272 H 1297.28 0.843804 4.95872 0
M  V30 13273 H 1296.98 2.56935 5.28449 0
M  V30 13274 H 1298.5 1.81349 5.83048 0
M  V30 13275 H 1299.92 3.61623 4.44861 0
M  V30 13276 H 1298.31 4.34459 4.13963 0
M  V30 13277 H 1299.38 3.97657 2.77483 0
M  V30 13278 N 1300.73 -1.01913 1.20215 0
M  V30 13279 C 1301.97 -1.7573 1.01226 0
M  V30 13280 C 1302.31 -1.88799 -0.45481 0
M  V30 13281 O 1301.58 -1.41196 -1.33768 0
M  V30 13282 C 1301.87 -3.17795 1.69348 0
M  V30 13283 C 1301.72 -3.12536 3.23483 0
M  V30 13284 C 1303.04 -4.16409 1.42448 0
M  V30 13285 H 1300.16 -0.637889 0.369144 0
M  V30 13286 H 1302.8 -1.18907 1.48193 0
M  V30 13287 H 1300.95 -3.66311 1.29416 0
M  V30 13288 H 1302.62 -2.71843 3.72692 0
M  V30 13289 H 1300.86 -2.49997 3.54519 0
M  V30 13290 H 1301.53 -4.12949 3.66302 0
M  V30 13291 H 1304.01 -3.76537 1.77086 0
M  V30 13292 H 1302.89 -5.13983 1.92648 0
M  V30 13293 H 1303.15 -4.407 0.351574 0
M  V30 13294 N 1302.21 -1.00763 -1.2118 0
M  V30 13295 C 1303.14 -0.590493 -2.2591 0
M  V30 13296 C 1304.12 0.390002 -1.65569 0
M  V30 13297 O 1305.3 0.277406 -1.92208 0
M  V30 13298 C 1302.43 0.0810388 -3.47205 0
M  V30 13299 C 1301.39 -0.81951 -4.20081 0
M  V30 13300 C 1300.71 -0.014244 -5.34698 0
M  V30 13301 C 1302.01 -2.12336 -4.7719 0
M  V30 13302 H 1303.71 -1.46595 -2.61056 0
M  V30 13303 H 1301.25 -0.706321 -1.25487 0
M  V30 13304 H 1303.21 0.384355 -4.19644 0
M  V30 13305 H 1301.93 0.991145 -3.11197 0
M  V30 13306 H 1300.59 -1.10669 -3.49497 0
M  V30 13307 H 1300.24 0.897233 -4.94933 0
M  V30 13308 H 1299.94 -0.613883 -5.84384 0
M  V30 13309 H 1301.46 0.282827 -6.09945 0
M  V30 13310 H 1302.87 -1.88301 -5.41494 0
M  V30 13311 H 1301.27 -2.67308 -5.37277 0
M  V30 13312 H 1302.34 -2.79238 -3.96427 0
M  V30 13313 N 1303.68 1.3679 -0.7827 0
M  V30 13314 C 1304.59 2.33928 -0.17747 0
M  V30 13315 C 1305.61 1.60716 0.666802 0
M  V30 13316 O 1306.79 1.92742 0.584162 0
M  V30 13317 C 1303.85 3.39907 0.68294 0
M  V30 13318 C 1302.91 4.28926 -0.179053 0
M  V30 13319 C 1302.15 5.29844 0.640386 0
M  V30 13320 O 1302.37 5.38639 1.87681 0
M  V30 13321 O 1301.3 6.01884 0.0438164 0
M  V30 13322 H 1305.13 2.87439 -0.980441 0
M  V30 13323 H 1302.71 1.39142 -0.54404 0
M  V30 13324 H 1304.6 4.04722 1.17379 0
M  V30 13325 H 1303.27 2.88706 1.46391 0
M  V30 13326 H 1302.18 3.67174 -0.716512 0
M  V30 13327 H 1303.51 4.83461 -0.923377 0
M  V30 13328 N 1305.16 0.53415 1.48272 0
M  V30 13329 C 1306.07 -0.230062 2.33469 0
M  V30 13330 C 1307.09 -0.934889 1.46751 0
M  V30 13331 O 1308.26 -0.908921 1.79724 0
M  V30 13332 C 1305.33 -1.2609 3.22958 0
M  V30 13333 C 1304.39 -0.565983 4.25553 0
M  V30 13334 C 1303.62 -1.54771 5.10766 0
M  V30 13335 O 1303.85 -2.7807 4.9803 0
M  V30 13336 O 1302.78 -1.08482 5.92043 0
M  V30 13337 H 1306.61 0.468182 3.0007 0
M  V30 13338 H 1304.19 0.29502 1.46458 0
M  V30 13339 H 1306.07 -1.85652 3.783 0
M  V30 13340 H 1304.75 -1.94148 2.59014 0
M  V30 13341 H 1303.66 0.0702391 3.74034 0
M  V30 13342 H 1304.99 0.0727277 4.92146 0
M  V30 13343 N 1306.64 -1.55279 0.269478 0
M  V30 13344 C 1307.89 -1.99471 -0.348913 0
M  V30 13345 C 1308.22 -1.15784 -1.56283 0
M  V30 13346 O 1307.47 -0.214115 -1.94525 0
M  V30 13347 C 1307.77 -3.48773 -0.780535 0
M  V30 13348 C 1307.44 -4.49705 0.328113 0
M  V30 13349 C 1306.1 -4.77024 0.632544 0
M  V30 13350 C 1308.45 -5.09984 1.07544 0
M  V30 13351 C 1305.78 -5.61893 1.68798 0
M  V30 13352 C 1308.13 -5.95999 2.12057 0
M  V30 13353 C 1306.79 -6.21642 2.4314 0
M  V30 13354 H 1306.06 -0.729918 -0.127676 0
M  V30 13355 H 1308.71 -1.87651 0.382015 0
M  V30 13356 H 1307.02 -3.5804 -1.59105 0
M  V30 13357 H 1308.71 -3.80369 -1.26966 0
M  V30 13358 H 1305.3 -4.28524 0.0807131 0
M  V30 13359 H 1309.49 -4.88906 0.853506 0
M  V30 13360 H 1304.74 -5.80009 1.93389 0
M  V30 13361 H 1308.92 -6.41743 2.70442 0
M  V30 13362 H 1306.54 -6.87198 3.25059 0
M  V30 13363 N 1308.12 0.00332656 -1.576 0
M  V30 13364 C 1309.34 0.703587 -1.95101 0
M  V30 13365 C 1309.77 1.66697 -0.871418 0
M  V30 13366 O 1309.13 1.80494 0.170739 0
M  V30 13367 C 1309.17 1.41457 -3.31696 0
M  V30 13368 O 1308.28 2.52885 -3.25765 0
M  V30 13369 H 1307.62 0.187396 -0.637008 0
M  V30 13370 H 1310.15 -0.0488727 -2.04542 0
M  V30 13371 H 1310.16 1.77874 -3.67185 0
M  V30 13372 H 1308.83 0.708182 -4.09826 0
M  V30 13373 H 1307.41 2.18821 -3.01947 0
M  V30 13374 N 1309.6 1.55164 0.276031 0
M  V30 13375 C 1310.85 1.74833 1.0058 0
M  V30 13376 C 1311.16 0.555089 1.87558 0
M  V30 13377 O 1312.36 0.634127 2.63991 0
M  V30 13378 C 1310.82 3.09417 1.83818 0
M  V30 13379 C 1310.43 4.36299 1.01721 0
M  V30 13380 C 1312.17 3.38437 2.56244 0
M  V30 13381 C 1310.08 5.61923 1.8438 0
M  V30 13382 H 1309.01 0.651676 0.379254 0
M  V30 13383 H 1311.66 1.81626 0.26161 0
M  V30 13384 H 1310.04 2.96654 2.62321 0
M  V30 13385 H 1311.22 4.59969 0.276565 0
M  V30 13386 H 1309.53 4.144 0.407645 0
M  V30 13387 H 1312.13 4.29501 3.18485 0
M  V30 13388 H 1312.47 2.58432 3.26372 0
M  V30 13389 H 1313 3.52284 1.84773 0
M  V30 13390 H 1309.74 6.44667 1.18679 0
M  V30 13391 H 1309.26 5.424 2.56051 0
M  V30 13392 H 1310.94 6.0011 2.4182 0
M  V30 13393 N 1311.07 -0.540404 1.48045 0
M  V30 13394 C 1312.35 -1.30148 1.46017 0
M  V30 13395 C 1312.73 -2.10445 0.166171 0
M  V30 13396 O 1312.08 -2.12013 -0.852223 0
M  V30 13397 C 1312.29 -2.19177 2.71593 0
M  V30 13398 C 1313.64 -2.79655 3.19497 0
M  V30 13399 O 1314.66 -2.2947 2.72437 0
M  V30 13400 O 1313.52 -3.70912 4.01356 0
M  V30 13401 H 1310.61 -0.586879 0.582668 0
M  V30 13402 H 1313.16 -0.557918 1.60267 0
M  V30 13403 H 1311.93 -1.59556 3.57292 0
M  V30 13404 H 1311.56 -3.00798 2.60012 0
M  V30 13405 N 1312.55 -1.36459 -0.788468 0
M  V30 13406 C 1313.8 -1.3007 -1.54158 0
M  V30 13407 C 1314.11 0.117574 -1.95246 0
M  V30 13408 O 1315.32 0.303837 -2.69795 0
M  V30 13409 C 1313.78 -2.28216 -2.78291 0
M  V30 13410 C 1313.38 -3.75484 -2.44368 0
M  V30 13411 C 1315.13 -2.30806 -3.56271 0
M  V30 13412 C 1313.04 -4.65404 -3.64902 0
M  V30 13413 H 1311.97 -0.483345 -0.5787 0
M  V30 13414 H 1314.62 -1.61827 -0.865123 0
M  V30 13415 H 1313 -1.89454 -3.4774 0
M  V30 13416 H 1314.17 -4.22986 -1.82809 0
M  V30 13417 H 1312.49 -3.75678 -1.79597 0
M  V30 13418 H 1315.08 -2.95196 -4.45829 0
M  V30 13419 H 1315.43 -1.31687 -3.94923 0
M  V30 13420 H 1315.96 -2.68189 -2.93802 0
M  V30 13421 H 1312.7 -5.65589 -3.31344 0
M  V30 13422 H 1312.22 -4.22617 -4.25623 0
M  V30 13423 H 1313.9 -4.81721 -4.31919 0
M  V30 13424 N 1314.03 1.01274 -1.20754 0
M  V30 13425 C 1315.28 1.75191 -1.02156 0
M  V30 13426 C 1315.61 1.89038 0.444791 0
M  V30 13427 O 1314.88 1.41903 1.33018 0
M  V30 13428 C 1315.17 3.16892 -1.71031 0
M  V30 13429 C 1315.02 3.10816 -3.25136 0
M  V30 13430 C 1316.34 4.15648 -1.44654 0
M  V30 13431 H 1313.46 0.635922 -0.372521 0
M  V30 13432 H 1316.1 1.18119 -1.48822 0
M  V30 13433 H 1314.25 3.6562 -1.31357 0
M  V30 13434 H 1315.92 2.69863 -3.74128 0
M  V30 13435 H 1314.17 2.48113 -3.5584 0
M  V30 13436 H 1314.84 4.11001 -3.68487 0
M  V30 13437 H 1317.31 3.75592 -1.7908 0
M  V30 13438 H 1316.19 5.12954 -1.95371 0
M  V30 13439 H 1316.45 4.40507 -0.37494 0
M  V30 13440 N 1315.51 1.01404 1.20644 0
M  V30 13441 C 1316.75 0.710412 1.91657 0
M  V30 13442 C 1317.11 -0.745972 1.76916 0
M  V30 13443 O 1318.31 -1.162 2.42386 0
M  V30 13444 C 1316.59 1.13093 3.39035 0
M  V30 13445 S 1318.14 0.948885 4.28418 0
M  V30 13446 H 1314.96 0.259074 0.662119 0
M  V30 13447 H 1317.56 1.30077 1.45946 0
M  V30 13448 H 1316.27 2.18682 3.47284 0
M  V30 13449 H 1315.8 0.533248 3.89769 0
M  V30 13450 H 1317.81 -0.149 4.95976 0
M  V30 13451 N 1316.99 -1.36373 0.789944 0
M  V30 13452 C 1317.92 -2.32616 0.202944 0
M  V30 13453 C 1318.9 -1.56674 -0.662364 0
M  V30 13454 O 1320.08 -1.84826 -0.596078 0
M  V30 13455 C 1317.21 -3.4092 -0.662646 0
M  V30 13456 C 1316.17 -4.27877 0.102811 0
M  V30 13457 C 1315.49 -5.27352 -0.883407 0
M  V30 13458 C 1316.79 -5.0606 1.29231 0
M  V30 13459 H 1318.49 -2.81958 1.00699 0
M  V30 13460 H 1316.03 -1.35562 0.48568 0
M  V30 13461 H 1317.99 -4.07239 -1.08324 0
M  V30 13462 H 1316.71 -2.90147 -1.4994 0
M  V30 13463 H 1315.37 -3.63114 0.504389 0
M  V30 13464 H 1315.02 -4.72853 -1.71521 0
M  V30 13465 H 1314.72 -5.86398 -0.375669 0
M  V30 13466 H 1316.24 -5.96545 -1.30256 0
M  V30 13467 H 1317.66 -5.65417 0.947446 0
M  V30 13468 H 1316.05 -5.74521 1.73338 0
M  V30 13469 H 1317.12 -4.37671 2.08739 0
M  V30 13470 N 1318.47 -0.542005 -1.47987 0
M  V30 13471 C 1319.43 0.203537 -2.28294 0
M  V30 13472 C 1320.43 0.856762 -1.36074 0
M  V30 13473 O 1321.62 0.71496 -1.58852 0
M  V30 13474 C 1318.75 1.29581 -3.15312 0
M  V30 13475 H 1319.94 -0.501701 -2.95674 0
M  V30 13476 H 1317.5 -0.298378 -1.53426 0
M  V30 13477 H 1318.23 2.03393 -2.5259 0
M  V30 13478 H 1318.02 0.832398 -3.83163 0
M  V30 13479 H 1319.51 1.81988 -3.75859 0
M  V30 13480 N 1319.94 1.55134 -0.277709 0
M  V30 13481 C 1321.19 1.99259 0.337662 0
M  V30 13482 C 1321.51 1.16755 1.56183 0
M  V30 13483 O 1320.78 0.257707 1.94198 0
M  V30 13484 H 1319.36 0.735995 0.127751 0
M  V30 13485 H 1322.02 1.91087 -0.383646 0
M  V30 13486 H 1321.12 3.05763 0.625747 0
M  V30 13487 N 1321.42 0.00503138 1.57599 0
M  V30 13488 C 1322.67 -0.678761 1.90785 0
M  V30 13489 C 1323 -1.73499 0.87911 0
M  V30 13490 O 1322.25 -1.95359 -0.115418 0
M  V30 13491 C 1322.55 -1.35485 3.30724 0
M  V30 13492 C 1322.22 -0.431335 4.48832 0
M  V30 13493 C 1320.88 -0.177078 4.80874 0
M  V30 13494 C 1323.23 0.204219 5.208 0
M  V30 13495 C 1320.56 0.720944 5.82254 0
M  V30 13496 C 1322.91 1.09015 6.23136 0
M  V30 13497 C 1321.57 1.35353 6.53633 0
M  V30 13498 H 1320.84 -0.248376 0.698133 0
M  V30 13499 H 1323.49 0.061638 1.91401 0
M  V30 13500 H 1321.8 -2.16942 3.26257 0
M  V30 13501 H 1323.49 -1.89007 3.53663 0
M  V30 13502 H 1320.08 -0.639676 4.238 0
M  V30 13503 H 1324.27 0.0208074 4.96296 0
M  V30 13504 H 1319.52 0.93296 6.0424 0
M  V30 13505 H 1323.7 1.58894 6.78031 0
M  V30 13506 H 1321.32 2.05107 7.32008 0
M  V30 13507 N 1322.9 -1.55308 -0.267798 0
M  V30 13508 C 1323.83 -1.8348 -1.35685 0
M  V30 13509 C 1324.81 -0.688228 -1.47317 0
M  V30 13510 O 1325.99 -0.931781 -1.6386 0
M  V30 13511 C 1323.12 -2.00103 -2.7327 0
M  V30 13512 C 1322.17 -3.22675 -2.78896 0
M  V30 13513 S 1323 -4.79895 -2.37615 0
M  V30 13514 C 1324.16 -4.99497 -3.77165 0
M  V30 13515 H 1324.39 -2.75565 -1.11585 0
M  V30 13516 H 1321.92 -1.47146 -0.467703 0
M  V30 13517 H 1323.88 -2.10364 -3.52501 0
M  V30 13518 H 1322.54 -1.08897 -2.94619 0
M  V30 13519 H 1321.73 -3.31209 -3.7989 0
M  V30 13520 H 1321.34 -3.11031 -2.07691 0
M  V30 13521 H 1323.63 -4.85558 -4.72483 0
M  V30 13522 H 1324.57 -6.01534 -3.73581 0
M  V30 13523 H 1324.98 -4.2745 -3.68709 0
M  V30 13524 N 1324.38 0.532545 -1.4833 0
M  V30 13525 C 1325.79 0.860843 -1.34394 0
M  V30 13526 C 1325.99 1.98384 -0.353013 0
M  V30 13527 O 1325.05 2.5148 0.226688 0
M  V30 13528 C 1326.36 1.23079 -2.74358 0
M  V30 13529 C 1327.91 1.34082 -2.82827 0
M  V30 13530 C 1328.39 1.74421 -4.23487 0
M  V30 13531 N 1329.88 1.81528 -4.26148 0
M  V30 13532 C 1330.61 2.1412 -5.31921 0
M  V30 13533 N 1330.11 2.45154 -6.47975 0
M  V30 13534 N 1331.9 2.15104 -5.19314 0
M  V30 13535 H 1324.05 -0.208464 -2.11375 0
M  V30 13536 H 1326.31 -0.03062 -0.947505 0
M  V30 13537 H 1326.02 0.47926 -3.48419 0
M  V30 13538 H 1325.89 2.18151 -3.07718 0
M  V30 13539 H 1328.28 2.08311 -2.09022 0
M  V30 13540 H 1328.36 0.37137 -2.5309 0
M  V30 13541 H 1328.01 1.00752 -4.97807 0
M  V30 13542 H 1327.94 2.72411 -4.50666 0
M  V30 13543 H 1330.43 1.59832 -3.42436 0
M  V30 13544 H 1330.74 2.69121 -7.24426 0
M  V30 13545 H 1329.09 2.42679 -6.51254 0
M  V30 13546 H 1332.28 1.90315 -4.27666 0
M  V30 13547 H 1332.45 2.40173 -6.01848 0
M  V30 13548 N 1325.86 1.36875 0.78122 0
M  V30 13549 C 1327.1 1.30886 1.53466 0
M  V30 13550 C 1327.42 -0.107218 1.95306 0
M  V30 13551 O 1328.62 -0.289525 2.69952 0
M  V30 13552 C 1327.08 2.29688 2.77076 0
M  V30 13553 C 1326.69 3.76775 2.42373 0
M  V30 13554 C 1328.43 2.32692 3.55042 0
M  V30 13555 C 1326.34 4.67332 3.62428 0
M  V30 13556 H 1325.27 0.486408 0.576128 0
M  V30 13557 H 1327.92 1.62283 0.856529 0
M  V30 13558 H 1326.3 1.91296 3.4673 0
M  V30 13559 H 1327.48 4.2395 1.80563 0
M  V30 13560 H 1325.79 3.76625 1.77602 0
M  V30 13561 H 1328.39 2.97556 4.44257 0
M  V30 13562 H 1328.73 1.33779 3.94219 0
M  V30 13563 H 1329.26 2.69743 2.92375 0
M  V30 13564 H 1326 5.67339 3.2834 0
M  V30 13565 H 1325.52 4.24868 4.23376 0
M  V30 13566 H 1327.2 4.84005 4.29358 0
M  V30 13567 N 1327.33 -1.00632 1.21289 0
M  V30 13568 C 1328.26 -2.11238 0.995021 0
M  V30 13569 C 1329.24 -1.69914 -0.0795537 0
M  V30 13570 O 1330.43 -1.94035 0.0800152 0
M  V30 13571 C 1327.56 -3.42797 0.557475 0
M  V30 13572 C 1326.51 -3.97909 1.57646 0
M  V30 13573 C 1325.84 -5.25357 0.995197 0
M  V30 13574 C 1327.14 -4.30123 2.96297 0
M  V30 13575 H 1328.83 -2.29722 1.9201 0
M  V30 13576 H 1326.38 -1.10395 0.924602 0
M  V30 13577 H 1328.33 -4.19571 0.392236 0
M  V30 13578 H 1327.06 -3.24101 -0.403253 0
M  V30 13579 H 1325.72 -3.23254 1.72924 0
M  V30 13580 H 1325.36 -5.02993 0.026227 0
M  V30 13581 H 1325.06 -5.63196 1.67583 0
M  V30 13582 H 1326.59 -6.04777 0.841251 0
M  V30 13583 H 1328 -4.97744 2.8447 0
M  V30 13584 H 1326.4 -4.79101 3.61361 0
M  V30 13585 H 1327.47 -3.38454 3.47242 0
M  V30 13586 N 1328.81 -1.02043 -1.20104 0
M  V30 13587 C 1330.04 -0.731142 -1.94085 0
M  V30 13588 C 1330.46 0.702467 -1.74491 0
M  V30 13589 O 1329.82 1.48387 -1.04168 0
M  V30 13590 C 1329.87 -1.07691 -3.44144 0
M  V30 13591 O 1328.97 -0.190751 -4.11959 0
M  V30 13592 H 1328.31 -0.270917 -0.606218 0
M  V30 13593 H 1330.84 -1.36483 -1.52426 0
M  V30 13594 H 1330.85 -1.03023 -3.94779 0
M  V30 13595 H 1329.53 -2.1214 -3.57728 0
M  V30 13596 H 1328.1 -0.29529 -3.71729 0
M  V30 13597 N 1330.29 1.35952 -0.797165 0
M  V30 13598 C 1331.54 1.98639 -0.372405 0
M  V30 13599 C 1331.86 1.63571 1.06158 0
M  V30 13600 O 1331.13 0.913516 1.73297 0
M  V30 13601 H 1329.71 0.734753 -0.13471 0
M  V30 13602 H 1332.37 1.66022 -1.02092 0
M  V30 13603 H 1331.47 3.08533 -0.47049 0
M  V30 13604 N 1331.77 0.549846 1.47697 0
M  V30 13605 C 1333.18 0.11453 1.86348 0
M  V30 13606 C 1333.53 -1.31368 1.45729 0
M  V30 13607 O 1332.66 -1.98707 0.856989 0
M  V30 13608 C 1333.25 0.201072 3.38203 0
M  V30 13609 C 1331.81 -0.179162 3.75973 0
M  V30 13610 C 1330.96 0.551951 2.71751 0
M  V30 13611 H 1333.91 0.759989 1.39319 0
M  V30 13612 H 1333.93 -0.582216 3.76019 0
M  V30 13613 H 1333.44 1.24065 3.67736 0
M  V30 13614 H 1331.54 -1.22013 3.52056 0
M  V30 13615 H 1331.65 0.174273 4.78783 0
M  V30 13616 H 1330.02 -0.00411819 2.547 0
M  V30 13617 H 1330.8 1.59254 3.04127 0
M  V30 13618 N 1333.25 -1.54984 0.285932 0
M  V30 13619 C 1334.49 -1.9983 -0.327737 0
M  V30 13620 C 1334.82 -1.17435 -1.55046 0
M  V30 13621 O 1334.08 -0.234735 -1.94287 0
M  V30 13622 C 1334.38 -3.49581 -0.7435 0
M  V30 13623 C 1334.04 -4.49331 0.375792 0
M  V30 13624 C 1332.7 -4.76327 0.683103 0
M  V30 13625 C 1335.06 -5.08815 1.12947 0
M  V30 13626 C 1332.38 -5.60071 1.74748 0
M  V30 13627 C 1334.74 -5.93716 2.18366 0
M  V30 13628 C 1333.4 -6.19028 2.4972 0
M  V30 13629 H 1332.67 -0.731231 -0.119928 0
M  V30 13630 H 1335.32 -1.87235 0.401896 0
M  V30 13631 H 1333.62 -3.59708 -1.55298 0
M  V30 13632 H 1335.32 -3.81694 -1.22924 0
M  V30 13633 H 1331.91 -4.28414 0.126159 0
M  V30 13634 H 1336.09 -4.87973 0.905313 0
M  V30 13635 H 1331.35 -5.77925 1.9953 0
M  V30 13636 H 1335.52 -6.38838 2.77233 0
M  V30 13637 H 1333.15 -6.83711 3.3233 0
M  V30 13638 N 1334.72 -0.0133892 -1.57594 0
M  V30 13639 C 1335.97 0.669624 -1.91426 0
M  V30 13640 C 1336.3 1.72675 -0.888656 0
M  V30 13641 O 1335.58 1.94288 0.0908138 0
M  V30 13642 C 1335.86 1.30051 -3.35796 0
M  V30 13643 C 1335.71 0.254021 -4.49082 0
M  V30 13644 C 1337.03 2.22297 -3.79832 0
M  V30 13645 H 1334.15 0.241958 -0.69615 0
M  V30 13646 H 1336.79 -0.0674278 -1.8988 0
M  V30 13647 H 1334.94 1.92871 -3.37243 0
M  V30 13648 H 1336.62 -0.375524 -4.59769 0
M  V30 13649 H 1334.86 -0.422267 -4.3174 0
M  V30 13650 H 1335.53 0.734756 -5.47088 0
M  V30 13651 H 1338.01 1.69481 -3.8002 0
M  V30 13652 H 1336.88 2.634 -4.81572 0
M  V30 13653 H 1337.14 3.10764 -3.14449 0
M  V30 13654 N 1336.2 1.55448 0.259558 0
M  V30 13655 C 1337.13 1.85678 1.34373 0
M  V30 13656 C 1338.15 0.742155 1.449 0
M  V30 13657 O 1339.34 1.02015 1.46476 0
M  V30 13658 C 1336.44 2.01668 2.72366 0
M  V30 13659 C 1335.61 3.32434 2.84265 0
M  V30 13660 C 1334.67 3.38322 4.03019 0
M  V30 13661 O 1333.69 4.11616 3.93143 0
M  V30 13662 N 1334.9 2.66697 5.1561 0
M  V30 13663 H 1337.66 2.79261 1.08781 0
M  V30 13664 H 1335.22 1.5553 0.449672 0
M  V30 13665 H 1337.21 2.02963 3.50126 0
M  V30 13666 H 1335.78 1.14889 2.90722 0
M  V30 13667 H 1335 3.43564 1.93281 0
M  V30 13668 H 1336.29 4.18649 2.89155 0
M  V30 13669 H 1335.69 2.06857 5.26523 0
M  V30 13670 H 1334.25 2.73699 5.91551 0
M  V30 13671 N 1337.68 -0.524672 1.4861 0
M  V30 13672 C 1338.63 -1.62872 1.63527 0
M  V30 13673 C 1339.6 -1.59097 0.477202 0
M  V30 13674 O 1340.78 -1.77443 0.701341 0
M  V30 13675 C 1337.92 -3.01116 1.68592 0
M  V30 13676 C 1337.04 -3.15085 2.95542 0
M  V30 13677 C 1336.17 -4.4392 2.91734 0
M  V30 13678 C 1335.21 -4.51436 4.13366 0
M  V30 13679 N 1334.35 -5.71667 4.07605 0
M  V30 13680 H 1339.19 -1.49462 2.57808 0
M  V30 13681 H 1336.72 -0.727578 1.27846 0
M  V30 13682 H 1338.68 -3.81212 1.6951 0
M  V30 13683 H 1337.31 -3.13285 0.777975 0
M  V30 13684 H 1336.36 -2.28207 3.04345 0
M  V30 13685 H 1337.68 -3.165 3.85524 0
M  V30 13686 H 1336.83 -5.32312 2.91083 0
M  V30 13687 H 1335.57 -4.45034 1.9949 0
M  V30 13688 H 1334.57 -3.6145 4.14287 0
M  V30 13689 H 1335.8 -4.52057 5.06776 0
M  V30 13690 H 1333.74 -5.73668 3.18184 0
M  V30 13691 H 1333.66 -5.74599 4.91297 0
M  V30 13692 H 1334.93 -6.62331 4.1102 0
M  V30 13693 N 1339.16 -1.37287 -0.77395 0
M  V30 13694 C 1340.4 -1.33577 -1.53391 0
M  V30 13695 C 1340.76 0.0798979 -1.92234 0
M  V30 13696 O 1340.05 1.03803 -1.61045 0
M  V30 13697 C 1340.25 -2.20667 -2.81142 0
M  V30 13698 C 1340.08 -3.70559 -2.54786 0
M  V30 13699 C 1338.85 -4.39675 -2.49025 0
M  V30 13700 C 1341.04 -4.63472 -2.22932 0
M  V30 13701 N 1339.03 -5.75121 -2.14729 0
M  V30 13702 C 1340.4 -5.87279 -1.98756 0
M  V30 13703 C 1342.45 -4.51879 -2.09068 0
M  V30 13704 C 1341.15 -7.00793 -1.62117 0
M  V30 13705 C 1343.18 -5.65276 -1.7383 0
M  V30 13706 C 1342.54 -6.88132 -1.50513 0
M  V30 13707 H 1338.64 -0.544075 -0.561699 0
M  V30 13708 H 1341.23 -1.72487 -0.903115 0
M  V30 13709 H 1339.4 -1.83976 -3.42063 0
M  V30 13710 H 1341.13 -2.08231 -3.47019 0
M  V30 13711 H 1337.88 -3.92653 -2.64804 0
M  V30 13712 H 1338.31 -6.46696 -2.00284 0
M  V30 13713 H 1342.95 -3.57468 -2.25779 0
M  V30 13714 H 1340.67 -7.9514 -1.44145 0
M  V30 13715 H 1344.25 -5.58276 -1.63765 0
M  V30 13716 H 1343.13 -7.74391 -1.23648 0
M  V30 13717 N 1340.64 0.999871 -1.21821 0
M  V30 13718 C 1341.58 2.10985 -0.979183 0
M  V30 13719 C 1342.58 1.69232 0.0753287 0
M  V30 13720 O 1343.78 1.79837 -0.0765083 0
M  V30 13721 H 1340.16 0.689819 -0.299421 0
M  V30 13722 H 1342.13 2.28322 -1.92124 0
M  V30 13723 C 1340.88 3.43062 -0.56602 0
M  V30 13724 H 1340.2 3.75627 -1.36909 0
M  V30 13725 H 1341.64 4.2173 -0.43813 0
M  V30 13726 C 1340.1 3.29036 0.723647 0
M  V30 13727 O 1340.63 3.60214 1.77788 0
M  V30 13728 N 1338.84 2.82237 0.692126 0
M  V30 13729 H 1338.38 2.57064 -0.166082 0
M  V30 13730 H 1338.34 2.73235 1.55532 0
M  V30 13731 N 1342.11 1.02678 1.19562 0
M  V30 13732 C 1343.36 0.72059 1.88817 0
M  V30 13733 C 1343.68 -0.752942 1.79877 0
M  V30 13734 O 1342.95 -1.54233 1.20785 0
M  V30 13735 H 1341.53 0.26355 0.698964 0
M  V30 13736 H 1344.2 1.30056 1.4516 0
M  V30 13737 H 1343.29 1.01303 2.95202 0
M  V30 13738 N 1343.59 -1.35528 0.804364 0
M  V30 13739 C 1344.54 -2.29832 0.211186 0
M  V30 13740 C 1345.51 -1.52704 -0.653503 0
M  V30 13741 O 1346.69 -1.81152 -0.599052 0
M  V30 13742 C 1343.83 -3.39188 -0.636054 0
M  V30 13743 C 1342.95 -4.31283 0.248824 0
M  V30 13744 C 1342.08 -5.2773 -0.60621 0
M  V30 13745 C 1341.12 -6.11463 0.279205 0
M  V30 13746 N 1340.26 -7.00054 -0.535672 0
M  V30 13747 H 1345.1 -2.79971 1.0208 0
M  V30 13748 H 1342.64 -1.37793 0.514931 0
M  V30 13749 H 1344.59 -4.01254 -1.14241 0
M  V30 13750 H 1343.22 -2.90331 -1.41095 0
M  V30 13751 H 1342.28 -3.70241 0.873263 0
M  V30 13752 H 1343.59 -4.90046 0.930417 0
M  V30 13753 H 1342.74 -5.95158 -1.17778 0
M  V30 13754 H 1341.48 -4.69458 -1.32138 0
M  V30 13755 H 1340.49 -5.42984 0.863066 0
M  V30 13756 H 1341.71 -6.71813 0.9922 0
M  V30 13757 H 1339.66 -6.44273 -1.23486 0
M  V30 13758 H 1339.57 -7.55949 0.0879213 0
M  V30 13759 H 1340.84 -7.71833 -1.09059 0
M  V30 13760 N 1345.07 -0.557671 -1.47404 0
M  V30 13761 C 1346 0.237612 -2.2696 0
M  V30 13762 C 1346.98 0.919871 -1.34079 0
M  V30 13763 O 1348.17 0.938767 -1.63461 0
M  V30 13764 C 1345.29 1.33863 -3.11124 0
M  V30 13765 C 1344.34 0.764877 -4.19585 0
M  V30 13766 S 1345.17 -0.388893 -5.34086 0
M  V30 13767 C 1346.33 0.713932 -6.21815 0
M  V30 13768 H 1346.56 -0.437477 -2.94064 0
M  V30 13769 H 1344.09 -0.344004 -1.50519 0
M  V30 13770 H 1346.05 1.96917 -3.60186 0
M  V30 13771 H 1344.71 1.98556 -2.43381 0
M  V30 13772 H 1343.91 1.5917 -4.78206 0
M  V30 13773 H 1343.51 0.210502 -3.73407 0
M  V30 13774 H 1345.8 1.60592 -6.58192 0
M  V30 13775 H 1346.74 0.165069 -7.07908 0
M  V30 13776 H 1347.15 1.00681 -5.55449 0
M  V30 13777 N 1346.55 1.54831 -0.294147 0
M  V30 13778 C 1347.48 2.26226 0.57827 0
M  V30 13779 C 1348.46 1.25928 1.14351 0
M  V30 13780 O 1349.65 1.54687 1.17412 0
M  V30 13781 C 1346.78 2.99783 1.75349 0
M  V30 13782 C 1345.73 4.07171 1.31892 0
M  V30 13783 C 1345.06 4.68406 2.57876 0
M  V30 13784 C 1346.36 5.20313 0.455167 0
M  V30 13785 H 1348.05 2.99395 -0.0171936 0
M  V30 13786 H 1345.6 1.43997 -0.00970944 0
M  V30 13787 H 1347.55 3.48448 2.36986 0
M  V30 13788 H 1346.27 2.24181 2.37509 0
M  V30 13789 H 1344.93 3.59346 0.725653 0
M  V30 13790 H 1344.58 3.89451 3.18335 0
M  V30 13791 H 1344.28 5.40927 2.29502 0
M  V30 13792 H 1345.8 5.1983 3.20327 0
M  V30 13793 H 1347.22 5.64913 0.977026 0
M  V30 13794 H 1345.61 5.99512 0.265501 0
M  V30 13795 H 1346.68 4.82088 -0.521434 0
M  V30 13796 N 1348.03 0.0217466 1.57585 0
M  V30 13797 C 1348.98 -0.980624 2.10918 0
M  V30 13798 C 1349.97 -1.34178 1.03406 0
M  V30 13799 O 1351.18 -1.32487 1.21849 0
M  V30 13800 H 1347.55 -0.333984 0.673764 0
M  V30 13801 H 1349.52 -0.505431 2.94088 0
M  V30 13802 C 1348.27 -2.25639 2.64542 0
M  V30 13803 H 1347.59 -1.98722 3.46914 0
M  V30 13804 H 1349.03 -2.94003 3.05513 0
M  V30 13805 C 1347.49 -2.98111 1.56945 0
M  V30 13806 O 1348.02 -3.89937 0.964975 0
M  V30 13807 N 1346.23 -2.60316 1.29166 0
M  V30 13808 H 1345.78 -1.85722 1.78508 0
M  V30 13809 H 1345.73 -3.09116 0.573987 0
M  V30 13810 N 1349.51 -1.55583 -0.251311 0
M  V30 13811 C 1350.75 -1.76411 -0.977859 0
M  V30 13812 C 1351.07 -0.584857 -1.86651 0
M  V30 13813 O 1352.27 -0.676046 -2.62948 0
M  V30 13814 C 1350.73 -3.12302 -1.78872 0
M  V30 13815 C 1350.34 -4.37862 -0.947674 0
M  V30 13816 C 1352.08 -3.42471 -2.50827 0
M  V30 13817 C 1349.99 -5.64786 -1.75417 0
M  V30 13818 H 1348.92 -0.657628 -0.368839 0
M  V30 13819 H 1351.57 -1.82019 -0.232682 0
M  V30 13820 H 1349.95 -3.0079 -2.57569 0
M  V30 13821 H 1351.13 -4.60351 -0.203352 0
M  V30 13822 H 1349.44 -4.14996 -0.341666 0
M  V30 13823 H 1352.04 -4.34514 -3.11612 0
M  V30 13824 H 1352.38 -2.63592 -3.22219 0
M  V30 13825 H 1352.91 -3.55179 -1.79145 0
M  V30 13826 H 1349.65 -6.46474 -1.08407 0
M  V30 13827 H 1349.17 -5.46405 -2.47389 0
M  V30 13828 H 1350.85 -6.03881 -2.32242 0
M  V30 13829 N 1350.98 0.516783 -1.48886 0
M  V30 13830 C 1351.93 1.61653 -1.60786 0
M  V30 13831 C 1352.92 1.54056 -0.464271 0
M  V30 13832 O 1354.11 1.61853 -0.716412 0
M  V30 13833 C 1351.24 3.0033 -1.66304 0
M  V30 13834 C 1350.32 3.12982 -2.86187 0
M  V30 13835 N 1350.72 2.95568 -4.10455 0
M  V30 13836 C 1349.01 3.44059 -2.83795 0
M  V30 13837 C 1349.71 3.11986 -4.90958 0
M  V30 13838 N 1348.69 3.40156 -4.24022 0
M  V30 13839 H 1352.49 1.4682 -2.546 0
M  V30 13840 H 1350.01 0.722555 -1.4544 0
M  V30 13841 H 1352 3.79345 -1.72924 0
M  V30 13842 H 1350.66 3.16245 -0.736158 0
M  V30 13843 H 1351.67 2.72062 -4.40684 0
M  V30 13844 H 1348.35 3.66249 -2.0042 0
M  V30 13845 H 1349.74 3.03149 -5.99625 0
M  V30 13846 N 1352.46 1.37696 0.766659 0
M  V30 13847 C 1353.87 1.29668 1.34324 0
M  V30 13848 C 1354.22 -0.0534297 1.96127 0
M  V30 13849 O 1353.35 -0.95534 1.94171 0
M  V30 13850 C 1353.94 2.34818 2.44225 0
M  V30 13851 C 1352.5 2.3041 2.97638 0
M  V30 13852 C 1351.65 2.18378 1.70899 0
M  V30 13853 H 1354.6 1.48244 0.566526 0
M  V30 13854 H 1354.62 1.99778 3.23835 0
M  V30 13855 H 1354.13 3.3307 1.99214 0
M  V30 13856 H 1352.23 1.35698 3.47011 0
M  V30 13857 H 1352.35 3.24028 3.52906 0
M  V30 13858 H 1350.71 1.65008 1.94021 0
M  V30 13859 H 1351.49 3.18551 1.27985 0
M  V30 13860 N 1353.94 -0.993397 1.22349 0
M  V30 13861 C 1355.16 -1.77373 1.07488 0
M  V30 13862 C 1355.59 -1.84418 -0.37034 0
M  V30 13863 O 1354.95 -1.29629 -1.26752 0
M  V30 13864 C 1355 -3.18538 1.69014 0
M  V30 13865 O 1354.1 -4.01463 0.943474 0
M  V30 13866 H 1353.44 -0.546209 0.37756 0
M  V30 13867 H 1355.97 -1.24792 1.62136 0
M  V30 13868 H 1355.98 -3.6917 1.73717 0
M  V30 13869 H 1354.66 -3.12725 2.74182 0
M  V30 13870 H 1353.23 -3.59998 0.972415 0
M  V30 13871 N 1355.42 -1.03311 -1.19015 0
M  V30 13872 C 1356.35 -0.638279 -2.24607 0
M  V30 13873 C 1357.33 0.354795 -1.66359 0
M  V30 13874 O 1358.51 0.236574 -1.92754 0
M  V30 13875 C 1355.64 0.00737316 -3.47299 0
M  V30 13876 C 1354.6 -0.908431 -4.18248 0
M  V30 13877 C 1353.92 -0.127658 -5.34548 0
M  V30 13878 C 1355.22 -2.2241 -4.72579 0
M  V30 13879 H 1356.92 -1.52099 -2.57888 0
M  V30 13880 H 1354.46 -0.732779 -1.23961 0
M  V30 13881 H 1356.42 0.295256 -4.20364 0
M  V30 13882 H 1355.14 0.924912 -3.1323 0
M  V30 13883 H 1353.8 -1.18058 -3.47071 0
M  V30 13884 H 1353.45 0.792048 -4.96725 0
M  V30 13885 H 1353.15 -0.737702 -5.82951 0
M  V30 13886 H 1354.67 0.153385 -6.10407 0
M  V30 13887 H 1356.09 -1.99745 -5.37378 0
M  V30 13888 H 1354.48 -2.78644 -5.31486 0
M  V30 13889 H 1355.55 -2.87584 -3.90415 0
M  V30 13890 N 1356.9 1.35099 -0.81154 0
M  V30 13891 C 1357.83 2.32264 -0.239925 0
M  V30 13892 C 1358.81 1.57708 0.637354 0
M  V30 13893 O 1359.99 1.85751 0.566598 0
M  V30 13894 C 1357.12 3.41931 0.608325 0
M  V30 13895 C 1356.08 4.27659 -0.170869 0
M  V30 13896 C 1355.4 5.28691 0.799398 0
M  V30 13897 C 1356.7 5.0394 -1.37266 0
M  V30 13898 H 1358.4 2.8032 -1.05172 0
M  V30 13899 H 1355.94 1.34773 -0.507185 0
M  V30 13900 H 1357.89 4.08911 1.01832 0
M  V30 13901 H 1356.62 2.92496 1.45306 0
M  V30 13902 H 1355.28 3.62265 -0.562094 0
M  V30 13903 H 1354.93 4.75521 1.63977 0
M  V30 13904 H 1354.63 5.86921 0.282331 0
M  V30 13905 H 1356.15 5.98542 1.20749 0
M  V30 13906 H 1357.56 5.63838 -1.03728 0
M  V30 13907 H 1355.96 5.7169 -1.82456 0
M  V30 13908 H 1357.03 4.34295 -2.15676 0
M  V30 13909 N 1358.37 0.56548 1.47106 0
M  V30 13910 C 1359.78 0.134289 1.86216 0
M  V30 13911 C 1360.14 -1.29815 1.47114 0
M  V30 13912 O 1359.26 -1.97787 0.878017 0
M  V30 13913 C 1359.86 0.236931 3.37971 0
M  V30 13914 C 1358.41 -0.139275 3.76142 0
M  V30 13915 C 1357.56 0.580743 2.71151 0
M  V30 13916 H 1360.51 0.774723 1.38505 0
M  V30 13917 H 1360.53 -0.542301 3.76616 0
M  V30 13918 H 1360.05 1.27958 3.66399 0
M  V30 13919 H 1358.15 -1.18272 3.53331 0
M  V30 13920 H 1358.26 0.225045 4.78571 0
M  V30 13921 H 1356.62 0.0228963 2.5469 0
M  V30 13922 H 1357.41 1.62471 3.0242 0
M  V30 13923 N 1359.85 -1.54672 0.302354 0
M  V30 13924 C 1361.08 -2.05041 -0.311891 0
M  V30 13925 C 1361.5 -1.17814 -1.46634 0
M  V30 13926 O 1360.86 -0.182517 -1.80379 0
M  V30 13927 C 1360.91 -3.52831 -0.744489 0
M  V30 13928 O 1360.01 -3.68621 -1.84913 0
M  V30 13929 H 1359.35 -0.661255 -0.0603102 0
M  V30 13930 H 1361.88 -1.99711 0.444593 0
M  V30 13931 H 1361.89 -3.94708 -1.03293 0
M  V30 13932 H 1360.57 -4.1578 0.0999976 0
M  V30 13933 H 1359.15 -3.38649 -1.56113 0
M  V30 13934 N 1361.33 -0.0301034 -1.57571 0
M  V30 13935 C 1362.58 0.648323 -1.91841 0
M  V30 13936 C 1362.91 1.72078 -0.906601 0
M  V30 13937 O 1362.16 1.95518 0.0843233 0
M  V30 13938 C 1362.46 1.30206 -3.32838 0
M  V30 13939 C 1362.13 0.359876 -4.49462 0
M  V30 13940 C 1360.79 0.100552 -4.81095 0
M  V30 13941 C 1363.14 -0.287048 -5.20409 0
M  V30 13942 C 1360.47 -0.813484 -5.81033 0
M  V30 13943 C 1362.82 -1.18914 -6.21323 0
M  V30 13944 C 1361.48 -1.45735 -6.51397 0
M  V30 13945 H 1360.75 0.237238 -0.701997 0
M  V30 13946 H 1363.4 -0.0920804 -1.91278 0
M  V30 13947 H 1361.71 2.11724 -3.29667 0
M  V30 13948 H 1363.4 1.83356 -3.56625 0
M  V30 13949 H 1359.99 0.572172 -4.24764 0
M  V30 13950 H 1364.18 -0.0997611 -4.962 0
M  V30 13951 H 1359.43 -1.02897 -6.02679 0
M  V30 13952 H 1363.61 -1.69661 -6.75417 0
M  V30 13953 H 1361.23 -2.16727 -7.28652 0
M  V30 13954 N 1362.81 1.55714 0.243056 0
M  V30 13955 C 1363.76 1.90638 1.30099 0
M  V30 13956 C 1364.73 0.761049 1.47639 0
M  V30 13957 O 1365.91 1.01505 1.61559 0
M  V30 13958 C 1363.05 2.20985 2.65065 0
M  V30 13959 C 1362.16 3.48343 2.55501 0
M  V30 13960 C 1361.3 3.68241 3.82847 0
M  V30 13961 C 1360.34 4.89187 3.67916 0
M  V30 13962 N 1359.47 5.05586 4.87162 0
M  V30 13963 H 1364.31 2.80857 0.996155 0
M  V30 13964 H 1361.85 1.39027 0.480619 0
M  V30 13965 H 1363.81 2.36585 3.43632 0
M  V30 13966 H 1362.44 1.33966 2.93689 0
M  V30 13967 H 1361.49 3.41054 1.68483 0
M  V30 13968 H 1362.8 4.37057 2.4038 0
M  V30 13969 H 1361.96 3.83822 4.69857 0
M  V30 13970 H 1360.7 2.77768 4.00869 0
M  V30 13971 H 1359.7 4.7358 2.79289 0
M  V30 13972 H 1360.93 5.81124 3.51385 0
M  V30 13973 H 1358.87 4.18051 5.05538 0
M  V30 13974 H 1358.79 5.88395 4.74686 0
M  V30 13975 H 1360.06 5.25582 5.7566 0
M  V30 13976 N 1364.29 -0.50888 1.49158 0
M  V30 13977 C 1365.53 -1.261 1.57934 0
M  V30 13978 C 1365.86 -1.93199 0.264405 0
M  V30 13979 O 1365.13 -1.82359 -0.715684 0
M  V30 13980 H 1363.71 -0.468421 0.581886 0
M  V30 13981 H 1366.37 -0.590447 1.85741 0
M  V30 13982 H 1365.46 -2.02913 2.37135 0
M  V30 13983 N 1365.76 -1.381 -0.759346 0
M  V30 13984 C 1366.99 -1.37389 -1.55367 0
M  V30 13985 C 1367.41 0.0356097 -1.88066 0
M  V30 13986 O 1366.77 1.0161 -1.5015 0
M  V30 13987 C 1366.82 -2.23098 -2.83302 0
M  V30 13988 O 1365.92 -1.64412 -3.7821 0
M  V30 13989 H 1365.27 -0.468894 -0.470143 0
M  V30 13990 H 1367.8 -1.81787 -0.938858 0
M  V30 13991 H 1367.81 -2.36753 -3.32283 0
M  V30 13992 H 1366.48 -3.25544 -2.58831 0
M  V30 13993 H 1365.06 -1.59867 -3.36893 0
M  V30 13994 N 1367.24 0.986894 -1.22875 0
M  V30 13995 C 1368.19 2.09935 -1.00151 0
M  V30 13996 C 1369.18 1.69303 0.0573751 0
M  V30 13997 O 1370.39 1.79746 -0.0955781 0
M  V30 13998 H 1366.77 0.686605 -0.306721 0
M  V30 13999 H 1368.74 2.26271 -1.94535 0
M  V30 14000 C 1367.49 3.42442 -0.602374 0
M  V30 14001 H 1366.81 3.74154 -1.40886 0
M  V30 14002 H 1368.25 4.21242 -0.482836 0
M  V30 14003 C 1366.71 3.29785 0.688707 0
M  V30 14004 O 1367.24 3.6208 1.73957 0
M  V30 14005 N 1365.44 2.82956 0.662152 0
M  V30 14006 H 1364.99 2.56873 -0.193337 0
M  V30 14007 H 1364.95 2.74869 1.52625 0
M  V30 14008 N 1368.72 1.0394 1.18466 0
M  V30 14009 C 1369.68 0.633804 2.20262 0
M  V30 14010 C 1370.68 -0.308136 1.5782 0
M  V30 14011 O 1371.87 -0.0937087 1.73948 0
M  V30 14012 C 1369.01 -0.0709693 3.40826 0
M  V30 14013 H 1370.2 1.53463 2.57661 0
M  V30 14014 H 1367.75 0.831806 1.32328 0
M  V30 14015 H 1368.49 -0.985659 3.08958 0
M  V30 14016 H 1368.27 0.606023 3.87388 0
M  V30 14017 H 1369.76 -0.341298 4.16203 0
M  V30 14018 N 1370.2 -1.34667 0.818693 0
M  V30 14019 C 1371.15 -2.27031 0.210001 0
M  V30 14020 C 1372.13 -1.48338 -0.623258 0
M  V30 14021 O 1373.32 -1.70409 -0.478531 0
M  V30 14022 C 1370.45 -3.37457 -0.63069 0
M  V30 14023 C 1369.54 -4.23565 0.212964 0
M  V30 14024 N 1369.93 -4.89286 1.28191 0
M  V30 14025 C 1368.23 -4.46 -0.00340477 0
M  V30 14026 C 1368.93 -5.53216 1.79798 0
M  V30 14027 N 1367.91 -5.32302 1.10253 0
M  V30 14028 H 1371.71 -2.75345 1.02773 0
M  V30 14029 H 1369.22 -1.48336 0.661071 0
M  V30 14030 H 1371.22 -4.0259 -1.0829 0
M  V30 14031 H 1369.88 -2.90694 -1.44663 0
M  V30 14032 H 1370.89 -4.90417 1.66467 0
M  V30 14033 H 1367.57 -4.10005 -0.787516 0
M  V30 14034 H 1368.96 -6.15613 2.69203 0
M  V30 14035 N 1371.68 -0.573274 -1.46804 0
M  V30 14036 C 1372.59 0.168081 -2.33997 0
M  V30 14037 C 1373.6 0.895652 -1.49178 0
M  V30 14038 O 1374.78 0.860951 -1.8207 0
M  V30 14039 C 1371.84 1.17483 -3.26188 0
M  V30 14040 C 1370.9 0.452956 -4.26904 0
M  V30 14041 C 1370.14 1.41175 -5.1469 0
M  V30 14042 O 1370.36 2.64767 -5.05227 0
M  V30 14043 O 1369.29 0.927472 -5.94711 0
M  V30 14044 H 1373.12 -0.547576 -2.98723 0
M  V30 14045 H 1370.71 -0.333747 -1.45624 0
M  V30 14046 H 1372.59 1.75557 -3.8309 0
M  V30 14047 H 1371.26 1.87213 -2.6407 0
M  V30 14048 H 1370.17 -0.169383 -3.73716 0
M  V30 14049 H 1371.5 -0.203186 -4.9178 0
M  V30 14050 N 1373.15 1.5451 -0.310553 0
M  V30 14051 C 1374.09 2.2134 0.595098 0
M  V30 14052 C 1375.1 1.20917 1.09009 0
M  V30 14053 O 1376.29 1.47458 1.0059 0
M  V30 14054 C 1373.39 2.85384 1.82782 0
M  V30 14055 C 1372.56 4.11826 1.47372 0
M  V30 14056 C 1371.62 4.59584 2.56259 0
M  V30 14057 O 1370.65 5.24567 2.20949 0
M  V30 14058 N 1371.85 4.32709 3.86967 0
M  V30 14059 H 1374.61 2.99691 0.0229291 0
M  V30 14060 H 1372.17 1.61351 -0.133173 0
M  V30 14061 H 1374.17 3.14263 2.54992 0
M  V30 14062 H 1372.74 2.10816 2.30815 0
M  V30 14063 H 1371.96 3.89853 0.583826 0
M  V30 14064 H 1373.24 4.94138 1.21265 0
M  V30 14065 H 1372.64 3.80669 4.18458 0
M  V30 14066 H 1371.2 4.66275 4.55446 0
M  V30 14067 N 1374.63 0.0384594 1.57553 0
M  V30 14068 C 1375.6 -0.925358 2.0969 0
M  V30 14069 C 1376.6 -1.24811 1.01385 0
M  V30 14070 O 1377.79 -1.1869 1.27508 0
M  V30 14071 C 1374.92 -2.2391 2.57055 0
M  V30 14072 H 1376.11 -0.473633 2.96136 0
M  V30 14073 H 1373.66 -0.209736 1.54886 0
M  V30 14074 H 1374.4 -2.73691 1.73964 0
M  V30 14075 H 1374.18 -2.01793 3.36188 0
M  V30 14076 H 1375.67 -2.92974 2.97583 0
M  V30 14077 N 1376.11 -1.55841 -0.234795 0
M  V30 14078 C 1377.04 -1.94344 -1.29432 0
M  V30 14079 C 1378.02 -0.809912 -1.49581 0
M  V30 14080 O 1379.21 -1.07117 -1.61986 0
M  V30 14081 C 1376.34 -2.24866 -2.64675 0
M  V30 14082 C 1375.29 -3.40584 -2.59203 0
M  V30 14083 C 1374.62 -3.56678 -3.98353 0
M  V30 14084 C 1375.92 -4.75935 -2.15135 0
M  V30 14085 H 1377.61 -2.83096 -0.97454 0
M  V30 14086 H 1375.16 -1.36205 -0.467355 0
M  V30 14087 H 1377.11 -2.50392 -3.38942 0
M  V30 14088 H 1375.83 -1.32953 -2.98314 0
M  V30 14089 H 1374.49 -3.15087 -1.87393 0
M  V30 14090 H 1374.14 -2.62164 -4.29277 0
M  V30 14091 H 1373.84 -4.34503 -3.95577 0
M  V30 14092 H 1375.37 -3.84538 -4.74302 0
M  V30 14093 H 1376.78 -5.00753 -2.7914 0
M  V30 14094 H 1375.18 -5.56949 -2.23446 0
M  V30 14095 H 1376.25 -4.72182 -1.10328 0
M  V30 14096 N 1377.59 0.500963 -1.49426 0
M  V30 14097 C 1378.5 1.62889 -1.68833 0
M  V30 14098 C 1379.52 1.64367 -0.570932 0
M  V30 14099 O 1380.69 1.82786 -0.845641 0
M  V30 14100 C 1377.76 2.99255 -1.75063 0
M  V30 14101 C 1376.82 3.08404 -2.9864 0
M  V30 14102 C 1376.05 4.38266 -3.04564 0
M  V30 14103 O 1376.27 5.27065 -2.1808 0
M  V30 14104 O 1375.21 4.52387 -3.97026 0
M  V30 14105 H 1379.03 1.49446 -2.64385 0
M  V30 14106 H 1376.62 0.677254 -1.33168 0
M  V30 14107 H 1378.5 3.80303 -1.81515 0
M  V30 14108 H 1377.18 3.1296 -0.826896 0
M  V30 14109 H 1376.08 2.26544 -2.97706 0
M  V30 14110 H 1377.42 2.99626 -3.90494 0
M  V30 14111 N 1379.07 1.38501 0.752011 0
M  V30 14112 C 1380.3 1.38032 1.54125 0
M  V30 14113 C 1380.71 -0.0295066 1.88777 0
M  V30 14114 O 1380.07 -0.996522 1.52891 0
M  V30 14115 C 1380.12 2.23741 2.83941 0
M  V30 14116 O 1379.84 3.59232 2.50767 0
M  V30 14117 C 1381.34 2.31469 3.7807 0
M  V30 14118 H 1378.56 0.472077 0.476848 0
M  V30 14119 H 1381.1 1.82101 0.930572 0
M  V30 14120 H 1379.26 1.8313 3.41383 0
M  V30 14121 H 1379.67 4.04376 3.34036 0
M  V30 14122 H 1381.15 2.95722 4.66103 0
M  V30 14123 H 1381.62 1.32882 4.18616 0
M  V30 14124 H 1382.23 2.72477 3.26552 0
M  V30 14125 N 1380.55 -0.980364 1.23396 0
M  V30 14126 C 1381.79 -1.71826 1.06397 0
M  V30 14127 C 1382.11 -1.90854 -0.399958 0
M  V30 14128 O 1381.38 -1.47721 -1.28668 0
M  V30 14129 H 1379.96 -0.636669 0.390719 0
M  V30 14130 H 1382.63 -1.18008 1.55113 0
M  V30 14131 H 1381.72 -2.7078 1.55192 0
M  V30 14132 N 1382.02 -1.04567 -1.17913 0
M  V30 14133 C 1383.27 -0.753137 -1.88297 0
M  V30 14134 C 1383.6 0.717651 -1.80453 0
M  V30 14135 O 1382.88 1.5242 -1.20824 0
M  V30 14136 C 1383.16 -1.22626 -3.38578 0
M  V30 14137 C 1383.01 -2.75952 -3.55205 0
M  V30 14138 C 1384.33 -0.82029 -4.32388 0
M  V30 14139 H 1381.45 -0.275067 -0.683745 0
M  V30 14140 H 1384.09 -1.29856 -1.38699 0
M  V30 14141 H 1382.24 -0.762246 -3.80949 0
M  V30 14142 H 1383.92 -3.30429 -3.21892 0
M  V30 14143 H 1382.16 -3.15534 -2.97693 0
M  V30 14144 H 1382.83 -3.04116 -4.60671 0
M  V30 14145 H 1385.31 -1.21965 -3.97824 0
M  V30 14146 H 1384.18 -1.17902 -5.36088 0
M  V30 14147 H 1384.44 0.276205 -4.41236 0
M  V30 14148 N 1383.5 1.34231 -0.825823 0
M  V30 14149 C 1384.73 2.02417 -0.428348 0
M  V30 14150 C 1385.14 1.62181 0.966573 0
M  V30 14151 O 1384.5 0.828691 1.62601 0
M  V30 14152 C 1384.55 3.57678 -0.524271 0
M  V30 14153 O 1384.27 3.96458 -1.86422 0
M  V30 14154 C 1385.77 4.43132 -0.122069 0
M  V30 14155 H 1382.99 0.648699 -0.171554 0
M  V30 14156 H 1385.54 1.71443 -1.11478 0
M  V30 14157 H 1383.69 3.87232 0.114112 0
M  V30 14158 H 1384.11 4.91147 -1.84051 0
M  V30 14159 H 1385.58 5.51477 -0.240264 0
M  V30 14160 H 1386.06 4.29139 0.934705 0
M  V30 14161 H 1386.66 4.18912 -0.734366 0
M  V30 14162 N 1384.98 0.581051 1.46498 0
M  V30 14163 C 1386.23 0.0660934 2.02692 0
M  V30 14164 C 1386.56 -1.28985 1.45178 0
M  V30 14165 O 1385.83 -1.84479 0.616247 0
M  V30 14166 C 1386.12 -0.00145411 3.601 0
M  V30 14167 C 1385.97 1.38327 4.28002 0
M  V30 14168 C 1387.29 -0.702914 4.3445 0
M  V30 14169 H 1384.41 0.0254923 0.736559 0
M  V30 14170 H 1387.05 0.74793 1.7466 0
M  V30 14171 H 1385.2 -0.582118 3.84114 0
M  V30 14172 H 1386.87 2.00897 4.15257 0
M  V30 14173 H 1385.11 1.95144 3.87429 0
M  V30 14174 H 1385.79 1.28849 5.36751 0
M  V30 14175 H 1388.26 -0.209641 4.15572 0
M  V30 14176 H 1387.14 -0.719202 5.44168 0
M  V30 14177 H 1387.4 -1.76389 4.05388 0
M  V30 14178 N 1386.46 -1.54343 0.318742 0
M  V30 14179 C 1387.69 -2.04894 -0.287378 0
M  V30 14180 C 1388.1 -1.19514 -1.46157 0
M  V30 14181 O 1387.46 -0.224722 -1.81111 0
M  V30 14182 C 1387.51 -3.54124 -0.726505 0
M  V30 14183 O 1387.23 -4.36261 0.400968 0
M  V30 14184 C 1388.73 -4.20748 -1.39594 0
M  V30 14185 H 1385.95 -0.668323 -0.0598724 0
M  V30 14186 H 1388.49 -1.99177 0.463531 0
M  V30 14187 H 1386.65 -3.60145 -1.4274 0
M  V30 14188 H 1387.06 -5.2447 0.0558714 0
M  V30 14189 H 1388.54 -5.26632 -1.65418 0
M  V30 14190 H 1389.01 -3.71566 -2.3417 0
M  V30 14191 H 1389.62 -4.18852 -0.737749 0
M  V30 14192 N 1387.94 -0.0468143 -1.5753 0
M  V30 14193 C 1389.18 0.626699 -1.92138 0
M  V30 14194 C 1389.5 1.7164 -0.925463 0
M  V30 14195 O 1388.77 1.95876 0.0303531 0
M  V30 14196 H 1387.35 0.234479 -0.709245 0
M  V30 14197 H 1390.02 -0.0987892 -1.94649 0
M  V30 14198 H 1389.11 1.06811 -2.93254 0
M  V30 14199 N 1389.41 1.55964 0.226527 0
M  V30 14200 C 1390.65 1.80518 0.958774 0
M  V30 14201 C 1391.02 0.619549 1.81729 0
M  V30 14202 O 1392.22 0.744294 2.5829 0
M  V30 14203 C 1390.49 3.09939 1.77968 0
M  V30 14204 S 1392.05 3.5579 2.56824 0
M  V30 14205 H 1388.87 0.633829 0.322151 0
M  V30 14206 H 1391.47 1.94203 0.224786 0
M  V30 14207 H 1390.17 3.94277 1.13903 0
M  V30 14208 H 1389.7 2.99047 2.55605 0
M  V30 14209 H 1391.72 3.18734 3.80293 0
M  V30 14210 N 1390.89 -0.493031 1.4969 0
M  V30 14211 C 1392.12 -1.27046 1.633 0
M  V30 14212 C 1392.54 -1.86278 0.307534 0
M  V30 14213 O 1391.89 -1.68208 -0.707968 0
M  V30 14214 C 1391.94 -2.39501 2.70779 0
M  V30 14215 O 1391.66 -1.82702 3.98185 0
M  V30 14216 C 1393.17 -3.30744 2.95166 0
M  V30 14217 H 1390.39 -0.385042 0.54953 0
M  V30 14218 H 1392.93 -0.590998 1.95774 0
M  V30 14219 H 1391.08 -3.03263 2.41061 0
M  V30 14220 H 1391.5 -2.56588 4.57452 0
M  V30 14221 H 1392.97 -4.05912 3.74085 0
M  V30 14222 H 1393.45 -3.88217 2.05387 0
M  V30 14223 H 1394.06 -2.72741 3.26332 0
M  V30 14224 N 1392.37 -1.38898 -0.744656 0
M  V30 14225 C 1393.62 -1.35795 -1.50623 0
M  V30 14226 C 1393.95 0.0491775 -1.94138 0
M  V30 14227 O 1393.22 1.01219 -1.66087 0
M  V30 14228 C 1393.51 -2.32168 -2.75263 0
M  V30 14229 C 1393.36 -3.81781 -2.3783 0
M  V30 14230 C 1394.68 -2.26526 -3.77325 0
M  V30 14231 H 1391.8 -0.494591 -0.546396 0
M  V30 14232 H 1394.44 -1.69816 -0.852211 0
M  V30 14233 H 1392.59 -2.03287 -3.31069 0
M  V30 14234 H 1394.26 -4.21373 -1.8773 0
M  V30 14235 H 1392.51 -3.99027 -1.70176 0
M  V30 14236 H 1393.18 -4.44687 -3.27044 0
M  V30 14237 H 1395.65 -2.52041 -3.31081 0
M  V30 14238 H 1394.53 -2.96053 -4.62216 0
M  V30 14239 H 1394.79 -1.26705 -4.23554 0
M  V30 14240 N 1393.85 0.973806 -1.23914 0
M  V30 14241 C 1394.8 2.05229 -0.993221 0
M  V30 14242 C 1395.78 1.60776 0.0631684 0
M  V30 14243 O 1396.97 1.76365 -0.149794 0
M  V30 14244 C 1394.1 3.38132 -0.593421 0
M  V30 14245 C 1393.19 3.89165 -1.68556 0
M  V30 14246 N 1393.58 4.13203 -2.91714 0
M  V30 14247 C 1391.88 4.17765 -1.56167 0
M  V30 14248 C 1392.58 4.54961 -3.62471 0
M  V30 14249 N 1391.56 4.59778 -2.90009 0
M  V30 14250 H 1395.36 2.21781 -1.92848 0
M  V30 14251 H 1392.87 1.15711 -1.1395 0
M  V30 14252 H 1394.87 4.14991 -0.398491 0
M  V30 14253 H 1393.53 3.2297 0.33472 0
M  V30 14254 H 1394.54 4.00832 -3.27954 0
M  V30 14255 H 1391.22 4.11571 -0.701112 0
M  V30 14256 H 1392.61 4.82022 -4.68085 0
M  V30 14257 N 1395.33 1.05191 1.17357 0
M  V30 14258 C 1396.57 0.761984 1.87617 0
M  V30 14259 C 1396.9 -0.710976 1.8104 0
M  V30 14260 O 1396.16 -1.53566 1.21309 0
M  V30 14261 C 1396.46 1.18779 3.37085 0
M  V30 14262 C 1396.12 2.66296 3.63864 0
M  V30 14263 C 1394.78 3.06594 3.70882 0
M  V30 14264 C 1397.14 3.61622 3.75339 0
M  V30 14265 C 1394.46 4.41081 3.86865 0
M  V30 14266 C 1396.82 4.95842 3.9284 0
M  V30 14267 C 1395.48 5.35793 3.98097 0
M  V30 14268 H 1394.75 0.27883 0.686538 0
M  V30 14269 H 1397.4 1.31899 1.38834 0
M  V30 14270 H 1395.7 0.549782 3.87923 0
M  V30 14271 H 1397.4 0.940667 3.89811 0
M  V30 14272 H 1393.99 2.34089 3.59027 0
M  V30 14273 H 1398.17 3.31628 3.69238 0
M  V30 14274 H 1393.43 4.71536 3.89183 0
M  V30 14275 H 1397.6 5.696 4.00661 0
M  V30 14276 H 1395.23 6.40009 4.10234 0
M  V30 14277 N 1396.8 -1.33791 0.83293 0
M  V30 14278 C 1398.05 -1.98266 0.426412 0
M  V30 14279 C 1398.38 -1.65848 -1.01035 0
M  V30 14280 O 1397.66 -0.93528 -1.70537 0
M  V30 14281 C 1397.94 -3.54356 0.640586 0
M  V30 14282 C 1397.79 -3.96482 2.12419 0
M  V30 14283 C 1399.11 -4.40022 0.0829237 0
M  V30 14284 H 1396.23 -0.720213 0.156404 0
M  V30 14285 H 1398.87 -1.58527 1.04735 0
M  V30 14286 H 1397.02 -3.88338 0.11204 0
M  V30 14287 H 1398.7 -3.72786 2.71714 0
M  V30 14288 H 1396.94 -3.46429 2.61092 0
M  V30 14289 H 1397.61 -5.05179 2.22482 0
M  V30 14290 H 1400.09 -4.12651 0.534634 0
M  V30 14291 H 1398.96 -5.48272 0.262511 0
M  V30 14292 H 1399.22 -4.30341 -1.01287 0
M  V30 14293 N 1398.28 -0.588812 -1.46187 0
M  V30 14294 C 1399.25 0.130803 -2.28826 0
M  V30 14295 C 1400.25 0.813037 -1.38731 0
M  V30 14296 O 1401.44 0.664061 -1.61046 0
M  V30 14297 C 1398.57 1.19484 -3.19275 0
M  V30 14298 H 1399.76 -0.595514 -2.93928 0
M  V30 14299 H 1397.31 -0.347038 -1.52399 0
M  V30 14300 H 1398.05 1.95254 -2.58933 0
M  V30 14301 H 1397.83 0.710077 -3.85617 0
M  V30 14302 H 1399.32 1.69938 -3.81459 0
M  V30 14303 N 1399.76 1.54172 -0.326923 0
M  V30 14304 C 1400.67 2.28149 0.546351 0
M  V30 14305 C 1401.69 1.32628 1.12631 0
M  V30 14306 O 1402.86 1.65647 1.14556 0
M  V30 14307 C 1399.93 3.02742 1.68962 0
M  V30 14308 C 1398.99 4.13856 1.14112 0
M  V30 14309 C 1398.22 4.84882 2.2299 0
M  V30 14310 O 1398.44 4.55448 3.43399 0
M  V30 14311 O 1397.38 5.71714 1.8822 0
M  V30 14312 H 1401.2 3.03651 -0.0545288 0
M  V30 14313 H 1398.79 1.49113 -0.0925027 0
M  V30 14314 H 1400.67 3.49443 2.35515 0
M  V30 14315 H 1399.35 2.30113 2.27662 0
M  V30 14316 H 1398.25 3.71497 0.440579 0
M  V30 14317 H 1399.59 4.88539 0.599211 0
M  V30 14318 N 1401.24 0.0551678 1.57503 0
M  V30 14319 C 1402.52 -0.657808 1.84207 0
M  V30 14320 C 1402.9 -1.88798 0.944372 0
M  V30 14321 O 1402.24 -2.28499 0.00641728 0
M  V30 14322 C 1402.45 -1.0113 3.34026 0
M  V30 14323 C 1403.8 -1.39189 4.01138 0
M  V30 14324 O 1404.83 -1.10353 3.38675 0
M  V30 14325 O 1403.68 -1.93023 5.11277 0
M  V30 14326 H 1400.78 -0.325084 0.760427 0
M  V30 14327 H 1403.32 0.0848352 1.69488 0
M  V30 14328 H 1402.1 -0.13688 3.91061 0
M  V30 14329 H 1401.72 -1.81126 3.53948 0
M  V30 14330 N 1402.72 -1.56081 -0.218252 0
M  V30 14331 C 1403.96 -1.79513 -0.943553 0
M  V30 14332 C 1404.3 -0.625367 -1.83855 0
M  V30 14333 O 1403.57 0.375226 -1.90846 0
M  V30 14334 C 1403.85 -3.13049 -1.77967 0
M  V30 14335 C 1403.71 -4.40479 -0.910939 0
M  V30 14336 C 1405.03 -3.43057 -2.7568 0
M  V30 14337 H 1402.14 -0.653057 -0.341593 0
M  V30 14338 H 1404.79 -1.88811 -0.212226 0
M  V30 14339 H 1402.94 -3.05254 -2.40318 0
M  V30 14340 H 1404.61 -4.60298 -0.303922 0
M  V30 14341 H 1402.85 -4.33259 -0.216513 0
M  V30 14342 H 1403.52 -5.3036 -1.53042 0
M  V30 14343 H 1406 -3.51002 -2.23465 0
M  V30 14344 H 1404.87 -4.37657 -3.31282 0
M  V30 14345 H 1405.14 -2.65389 -3.53584 0
M  V30 14346 N 1404.2 0.485086 -1.49949 0
M  V30 14347 C 1405.47 1.24639 -1.50747 0
M  V30 14348 C 1405.85 2.09683 -0.244162 0
M  V30 14349 O 1405.2 2.1503 0.772949 0
M  V30 14350 C 1405.41 2.08946 -2.7954 0
M  V30 14351 C 1406.76 2.67604 -3.29656 0
M  V30 14352 O 1407.78 2.192 -2.80766 0
M  V30 14353 O 1406.64 3.55761 -4.14845 0
M  V30 14354 H 1403.74 0.564849 -0.604049 0
M  V30 14355 H 1406.28 0.498052 -1.62227 0
M  V30 14356 H 1405.05 1.46185 -3.62968 0
M  V30 14357 H 1404.68 2.90941 -2.70997 0
M  V30 14358 N 1405.67 1.39291 0.737279 0
M  V30 14359 C 1406.64 1.37607 1.83294 0
M  V30 14360 C 1407.64 0.273594 1.58455 0
M  V30 14361 O 1408.83 0.531375 1.65898 0
M  V30 14362 C 1405.96 1.14642 3.21045 0
M  V30 14363 H 1407.15 2.35102 1.86191 0
M  V30 14364 H 1404.7 1.24822 0.940696 0
M  V30 14365 H 1405.44 0.178202 3.2381 0
M  V30 14366 H 1405.22 1.94479 3.40471 0
M  V30 14367 H 1406.71 1.162 4.01108 0
M  V30 14368 N 1407.15 -0.967221 1.24429 0
M  V30 14369 C 1408.4 -1.70688 1.08213 0
M  V30 14370 C 1408.72 -1.91268 -0.379693 0
M  V30 14371 O 1407.99 -1.49077 -1.27094 0
M  V30 14372 H 1406.57 -0.632489 0.39745 0
M  V30 14373 H 1409.23 -1.16356 1.56356 0
M  V30 14374 H 1408.33 -2.69119 1.58055 0
M  V30 14375 N 1408.63 -1.05812 -1.16797 0
M  V30 14376 C 1409.56 -0.622584 -2.20582 0
M  V30 14377 C 1410.57 0.316905 -1.59686 0
M  V30 14378 O 1411.76 0.108657 -1.78169 0
M  V30 14379 C 1408.86 0.108124 -3.38727 0
M  V30 14380 C 1408.04 -0.84363 -4.29187 0
M  V30 14381 C 1407.1 -0.15305 -5.25977 0
M  V30 14382 O 1406.12 -0.78915 -5.63703 0
M  V30 14383 N 1407.32 1.10721 -5.69843 0
M  V30 14384 H 1410.09 -1.51532 -2.5857 0
M  V30 14385 H 1407.65 -0.940815 -1.31758 0
M  V30 14386 H 1409.64 0.580395 -4.00517 0
M  V30 14387 H 1408.21 0.902599 -2.99286 0
M  V30 14388 H 1407.43 -1.49538 -3.64735 0
M  V30 14389 H 1408.72 -1.48946 -4.86511 0
M  V30 14390 H 1408.12 1.64423 -5.41278 0
M  V30 14391 H 1406.67 1.52344 -6.33746 0
M  V30 14392 N 1410.11 1.33347 -0.840014 0
M  V30 14393 C 1411.36 1.97007 -0.432581 0
M  V30 14394 C 1411.67 1.67278 1.01378 0
M  V30 14395 O 1412.88 2.2456 1.52595 0
M  V30 14396 C 1411.33 3.52572 -0.72258 0
M  V30 14397 C 1410.94 3.91176 -2.1837 0
M  V30 14398 C 1412.68 4.22776 -0.382153 0
M  V30 14399 C 1410.59 5.39724 -2.41768 0
M  V30 14400 H 1409.52 0.737255 -0.158024 0
M  V30 14401 H 1412.17 1.5195 -1.02876 0
M  V30 14402 H 1410.55 3.9596 -0.0560179 0
M  V30 14403 H 1411.73 3.58842 -2.89083 0
M  V30 14404 H 1410.04 3.33956 -2.48721 0
M  V30 14405 H 1412.64 5.32021 -0.534588 0
M  V30 14406 H 1412.98 4.10792 0.674967 0
M  V30 14407 H 1413.52 3.84922 -1.004 0
M  V30 14408 H 1410.25 5.56713 -3.4605 0
M  V30 14409 H 1409.77 5.73514 -1.75617 0
M  V30 14410 H 1411.45 6.06624 -2.2498 0
M  V30 14411 N 1411.59 0.596556 1.45873 0
M  V30 14412 C 1412.83 0.0850976 2.0152 0
M  V30 14413 C 1413.15 -1.28799 1.47208 0
M  V30 14414 O 1414.35 -1.89156 1.94762 0
M  V30 14415 C 1412.81 0.101488 3.59757 0
M  V30 14416 C 1412.42 1.47374 4.23066 0
M  V30 14417 C 1414.16 -0.355303 4.2301 0
M  V30 14418 C 1412.07 1.44711 5.73422 0
M  V30 14419 H 1411 0.0280444 0.753478 0
M  V30 14420 H 1413.65 0.750255 1.67462 0
M  V30 14421 H 1412.03 -0.630108 3.90955 0
M  V30 14422 H 1413.21 2.22617 4.03458 0
M  V30 14423 H 1411.52 1.87171 3.71962 0
M  V30 14424 H 1414.12 -0.394236 5.33245 0
M  V30 14425 H 1414.46 -1.37573 3.92911 0
M  V30 14426 H 1414.99 0.32267 3.96489 0
M  V30 14427 H 1411.73 2.44479 6.08203 0
M  V30 14428 H 1411.25 0.737102 5.95254 0
M  V30 14429 H 1412.93 1.16598 6.36407 0
M  V30 14430 N 1413.06 -1.53996 0.335095 0
M  V30 14431 C 1413.99 -2.2768 -0.518087 0
M  V30 14432 C 1414.97 -1.28915 -1.10972 0
M  V30 14433 O 1416.16 -1.57745 -1.1327 0
M  V30 14434 C 1413.29 -3.04327 -1.67339 0
M  V30 14435 C 1412.24 -4.10525 -1.2105 0
M  V30 14436 C 1411.57 -4.75078 -2.45366 0
M  V30 14437 C 1412.87 -5.21337 -0.317055 0
M  V30 14438 H 1414.56 -2.99244 0.0965669 0
M  V30 14439 H 1412.11 -1.4392 0.0478842 0
M  V30 14440 H 1414.06 -3.54608 -2.27664 0
M  V30 14441 H 1412.79 -2.30399 -2.31481 0
M  V30 14442 H 1411.45 -3.61144 -0.630124 0
M  V30 14443 H 1411.09 -3.97754 -3.07897 0
M  V30 14444 H 1410.79 -5.46822 -2.1508 0
M  V30 14445 H 1412.32 -5.2814 -3.06432 0
M  V30 14446 H 1413.73 -5.67305 -0.826905 0
M  V30 14447 H 1412.13 -6.00006 -0.106458 0
M  V30 14448 H 1413.2 -4.80536 0.649068 0
M  V30 14449 N 1414.54 -0.0635198 -1.57472 0
M  V30 14450 C 1415.47 0.93602 -2.09216 0
M  V30 14451 C 1416.49 1.2668 -1.02255 0
M  V30 14452 O 1417.68 1.22543 -1.2979 0
M  V30 14453 C 1414.78 2.25417 -2.53062 0
M  V30 14454 C 1413.95 2.10347 -3.83501 0
M  V30 14455 C 1413.01 3.25394 -4.13528 0
M  V30 14456 O 1412.03 3.00751 -4.83257 0
M  V30 14457 N 1413.24 4.50243 -3.66417 0
M  V30 14458 H 1416 0.494288 -2.95596 0
M  V30 14459 H 1413.56 0.122416 -1.61437 0
M  V30 14460 H 1415.55 3.01272 -2.70217 0
M  V30 14461 H 1414.12 2.61116 -1.71864 0
M  V30 14462 H 1413.34 1.19009 -3.75807 0
M  V30 14463 H 1414.63 1.97519 -4.68896 0
M  V30 14464 H 1414.03 4.73152 -3.1007 0
M  V30 14465 H 1412.59 5.23152 -3.88787 0
M  V30 14466 N 1416.02 1.56195 0.209972 0
M  V30 14467 C 1416.93 1.96539 1.28101 0
M  V30 14468 C 1417.95 0.870858 1.50639 0
M  V30 14469 O 1419.12 1.17539 1.63544 0
M  V30 14470 C 1416.19 2.28392 2.60841 0
M  V30 14471 C 1415.25 3.51474 2.46505 0
M  V30 14472 C 1414.48 3.81798 3.72915 0
M  V30 14473 O 1414.7 3.13627 4.76439 0
M  V30 14474 O 1413.64 4.75264 3.69334 0
M  V30 14475 H 1417.46 2.87838 0.968671 0
M  V30 14476 H 1415.05 1.43556 0.413777 0
M  V30 14477 H 1416.93 2.50022 3.39215 0
M  V30 14478 H 1415.61 1.40264 2.91732 0
M  V30 14479 H 1414.51 3.35109 1.66292 0
M  V30 14480 H 1415.85 4.40021 2.2055 0
M  V30 14481 N 1417.5 -0.477127 1.50204 0
M  V30 14482 C 1418.46 -1.55824 1.68082 0
M  V30 14483 C 1419.46 -1.51039 0.551719 0
M  V30 14484 O 1420.65 -1.53766 0.818638 0
M  V30 14485 C 1417.78 -2.95462 1.70044 0
M  V30 14486 H 1418.98 -1.41292 2.64531 0
M  V30 14487 H 1416.53 -0.70308 1.39594 0
M  V30 14488 H 1417.26 -3.15445 0.752663 0
M  V30 14489 H 1417.05 -3.00343 2.52065 0
M  V30 14490 H 1418.54 -3.73964 1.85851 0
M  V30 14491 N 1418.98 -1.3968 -0.729882 0
M  V30 14492 C 1420.22 -1.37385 -1.49175 0
M  V30 14493 C 1420.56 0.0285839 -1.94179 0
M  V30 14494 O 1419.83 0.994516 -1.67152 0
M  V30 14495 C 1420.11 -2.35075 -2.72785 0
M  V30 14496 C 1419.97 -3.84282 -2.33767 0
M  V30 14497 C 1421.29 -2.30515 -3.74901 0
M  V30 14498 H 1418.4 -0.500359 -0.541119 0
M  V30 14499 H 1421.05 -1.7071 -0.834152 0
M  V30 14500 H 1419.2 -2.06787 -3.28894 0
M  V30 14501 H 1420.87 -4.2334 -1.8325 0
M  V30 14502 H 1419.11 -4.00809 -1.65935 0
M  V30 14503 H 1419.78 -4.48131 -3.22309 0
M  V30 14504 H 1422.26 -2.55539 -3.28389 0
M  V30 14505 H 1421.13 -3.00939 -4.5905 0
M  V30 14506 H 1421.4 -1.3119 -4.22187 0
M  V30 14507 N 1420.45 0.960609 -1.2494 0
M  V30 14508 C 1421.87 1.51915 -1.0853 0
M  V30 14509 C 1422.22 1.93215 0.340949 0
M  V30 14510 O 1421.34 1.78031 1.2302 0
M  V30 14511 C 1421.94 2.76069 -1.96396 0
M  V30 14512 C 1420.5 3.28255 -1.84189 0
M  V30 14513 C 1419.64 2.01124 -1.90905 0
M  V30 14514 H 1422.59 0.778141 -1.38314 0
M  V30 14515 H 1422.61 3.49668 -1.50042 0
M  V30 14516 H 1422.13 2.45979 -3.00193 0
M  V30 14517 H 1420.23 3.6318 -0.832518 0
M  V30 14518 H 1420.34 3.96675 -2.68673 0
M  V30 14519 H 1418.7 2.16155 -1.34718 0
M  V30 14520 H 1419.49 1.73389 -2.96295 0
M  V30 14521 N 1421.93 1.0643 1.16234 0
M  V30 14522 C 1423.18 0.782998 1.87075 0
M  V30 14523 C 1423.51 -0.688852 1.81572 0
M  V30 14524 O 1422.79 -1.50478 1.23234 0
M  V30 14525 C 1423.07 1.27997 3.36584 0
M  V30 14526 C 1422.92 2.81568 3.5077 0
M  V30 14527 C 1424.24 0.888975 4.31028 0
M  V30 14528 H 1421.36 0.28591 0.679282 0
M  V30 14529 H 1424 1.32046 1.36615 0
M  V30 14530 H 1422.15 0.822756 3.79688 0
M  V30 14531 H 1423.82 3.35508 3.16595 0
M  V30 14532 H 1422.07 3.2023 2.92635 0
M  V30 14533 H 1422.74 3.11406 4.55774 0
M  V30 14534 H 1425.21 1.28279 3.95833 0
M  V30 14535 H 1424.09 1.26416 5.34144 0
M  V30 14536 H 1424.35 -0.205973 4.4162 0
M  V30 14537 N 1423.41 -1.329 0.847073 0
M  V30 14538 C 1424.36 -2.29044 0.284199 0
M  V30 14539 C 1425.33 -1.54706 -0.604591 0
M  V30 14540 O 1426.51 -1.82966 -0.541116 0
M  V30 14541 C 1423.65 -3.4104 -0.527822 0
M  V30 14542 C 1422.77 -4.30273 0.385907 0
M  V30 14543 C 1421.9 -5.29391 -0.438009 0
M  V30 14544 C 1420.94 -6.10265 0.473596 0
M  V30 14545 N 1420.08 -7.01403 -0.312684 0
M  V30 14546 H 1424.92 -2.76582 1.10935 0
M  V30 14547 H 1422.45 -1.36085 0.558508 0
M  V30 14548 H 1424.41 -4.04686 -1.01417 0
M  V30 14549 H 1423.04 -2.94673 -1.31787 0
M  V30 14550 H 1422.09 -3.67275 0.99061 0
M  V30 14551 H 1423.41 -4.86837 1.08585 0
M  V30 14552 H 1422.56 -5.98604 -0.987842 0
M  V30 14553 H 1421.3 -4.73424 -1.17135 0
M  V30 14554 H 1420.3 -5.39963 1.03537 0
M  V30 14555 H 1421.53 -6.68316 1.20543 0
M  V30 14556 H 1419.47 -6.47875 -1.02926 0
M  V30 14557 H 1419.39 -7.55286 0.328376 0
M  V30 14558 H 1420.66 -7.74912 -0.844489 0
M  V30 14559 N 1424.89 -0.604284 -1.45555 0
M  V30 14560 C 1426.3 -0.267665 -1.57339 0
M  V30 14561 C 1426.5 1.22984 -1.59616 0
M  V30 14562 O 1425.56 2.0127 -1.52468 0
M  V30 14563 C 1426.87 -0.935923 -2.85764 0
M  V30 14564 C 1428.42 -0.911531 -2.99433 0
M  V30 14565 C 1428.9 -1.55974 -4.30623 0
M  V30 14566 N 1430.39 -1.52507 -4.37374 0
M  V30 14567 C 1431.12 -1.9958 -5.37546 0
M  V30 14568 N 1430.62 -2.54724 -6.44273 0
M  V30 14569 N 1432.41 -1.90368 -5.28882 0
M  V30 14570 H 1424.56 -1.57666 -1.42321 0
M  V30 14571 H 1426.83 -0.66028 -0.680245 0
M  V30 14572 H 1426.53 -1.99022 -2.89971 0
M  V30 14573 H 1426.41 -0.457194 -3.74419 0
M  V30 14574 H 1428.79 0.134206 -2.94795 0
M  V30 14575 H 1428.87 -1.42849 -2.12197 0
M  V30 14576 H 1428.52 -2.60479 -4.3602 0
M  V30 14577 H 1428.45 -1.01782 -5.1667 0
M  V30 14578 H 1430.94 -1.12221 -3.60853 0
M  V30 14579 H 1431.25 -2.88445 -7.16951 0
M  V30 14580 H 1429.6 -2.58761 -6.45033 0
M  V30 14581 H 1432.79 -1.47029 -4.4441 0
M  V30 14582 H 1432.96 -2.27367 -6.06802 0
M  V30 14583 N 1426.37 1.53816 -0.343257 0
M  V30 14584 C 1427.61 2.00512 0.252845 0
M  V30 14585 C 1427.94 1.23274 1.51091 0
M  V30 14586 O 1427.21 0.339841 1.9293 0
M  V30 14587 H 1425.79 0.740751 0.0964202 0
M  V30 14588 H 1428.45 1.89288 -0.464347 0
M  V30 14589 H 1427.54 3.08142 0.495499 0
M  V30 14590 N 1427.84 0.0718701 1.57436 0
M  V30 14591 C 1429.12 -0.638233 1.84894 0
M  V30 14592 C 1429.5 -1.87786 0.964343 0
M  V30 14593 O 1428.85 -2.28479 0.0306523 0
M  V30 14594 C 1429.06 -0.975817 3.3508 0
M  V30 14595 C 1430.41 -1.34927 4.02591 0
M  V30 14596 O 1431.43 -1.06754 3.39826 0
M  V30 14597 O 1430.29 -1.87589 5.13296 0
M  V30 14598 H 1427.38 -0.317 0.763832 0
M  V30 14599 H 1429.93 0.102807 1.69388 0
M  V30 14600 H 1428.7 -0.0953948 3.91184 0
M  V30 14601 H 1428.33 -1.77362 3.55849 0
M  V30 14602 N 1429.32 -1.56304 -0.201686 0
M  V30 14603 C 1430.55 -1.84341 -0.939465 0
M  V30 14604 C 1430.97 -0.653544 -1.77128 0
M  V30 14605 O 1430.32 0.377813 -1.78546 0
M  V30 14606 C 1430.37 -3.11111 -1.84098 0
M  V30 14607 O 1430.09 -4.25509 -1.04276 0
M  V30 14608 C 1431.6 -3.52279 -2.69099 0
M  V30 14609 H 1428.82 -0.61232 -0.274419 0
M  V30 14610 H 1431.36 -2.03409 -0.210924 0
M  V30 14611 H 1429.51 -2.9396 -2.52322 0
M  V30 14612 H 1429.93 -4.97655 -1.6565 0
M  V30 14613 H 1431.4 -4.43965 -3.28023 0
M  V30 14614 H 1431.88 -2.74959 -3.42482 0
M  V30 14615 H 1432.49 -3.71939 -2.06256 0
M  V30 14616 N 1430.8 0.469154 -1.50455 0
M  V30 14617 C 1432.05 1.2229 -1.6178 0
M  V30 14618 C 1432.38 1.91577 -0.318073 0
M  V30 14619 O 1431.65 1.82205 0.68057 0
M  V30 14620 C 1431.94 2.26504 -2.79943 0
M  V30 14621 C 1431.79 1.61509 -4.19804 0
M  V30 14622 C 1433.11 3.27796 -2.93662 0
M  V30 14623 H 1430.23 0.443241 -0.588817 0
M  V30 14624 H 1432.87 0.516431 -1.82847 0
M  V30 14625 H 1431.02 2.86757 -2.62112 0
M  V30 14626 H 1432.69 1.04838 -4.49229 0
M  V30 14627 H 1430.94 0.918162 -4.23972 0
M  V30 14628 H 1431.61 2.37248 -4.98415 0
M  V30 14629 H 1434.08 2.77568 -3.09992 0
M  V30 14630 H 1432.96 3.98041 -3.77961 0
M  V30 14631 H 1433.22 3.92033 -2.04359 0
M  V30 14632 N 1432.28 1.40065 0.722464 0
M  V30 14633 C 1433.24 1.39544 1.81825 0
M  V30 14634 C 1434.24 0.290385 1.58156 0
M  V30 14635 O 1435.43 0.54894 1.65325 0
M  V30 14636 C 1432.56 1.18041 3.19811 0
M  V30 14637 H 1433.76 2.37063 1.83687 0
M  V30 14638 H 1431.31 1.25813 0.927404 0
M  V30 14639 H 1432.04 0.212536 3.23603 0
M  V30 14640 H 1431.83 1.98079 3.38389 0
M  V30 14641 H 1433.32 1.20447 3.99853 0
M  V30 14642 N 1433.76 -0.95397 1.25448 0
M  V30 14643 C 1434.99 -1.73331 1.12977 0
M  V30 14644 C 1435.4 -1.86131 -0.316364 0
M  V30 14645 O 1434.76 -1.35951 -1.21753 0
M  V30 14646 C 1434.81 -3.14675 1.77938 0
M  V30 14647 O 1434.53 -3.025 3.16899 0
M  V30 14648 C 1436.03 -4.08884 1.71256 0
M  V30 14649 H 1433.25 -0.543118 0.394036 0
M  V30 14650 H 1435.79 -1.19678 1.65823 0
M  V30 14651 H 1433.95 -3.6527 1.29062 0
M  V30 14652 H 1434.36 -3.91668 3.4885 0
M  V30 14653 H 1435.84 -5.05668 2.21368 0
M  V30 14654 H 1436.31 -4.33959 0.676476 0
M  V30 14655 H 1436.92 -3.64205 2.19624 0
M  V30 14656 N 1435.24 -1.07045 -1.15668 0
M  V30 14657 C 1436.17 -0.709413 -2.22463 0
M  V30 14658 C 1437.15 0.30169 -1.67403 0
M  V30 14659 O 1438.33 0.175131 -1.93409 0
M  V30 14660 C 1435.46 -0.103121 -3.47147 0
M  V30 14661 C 1434.42 -1.04103 -4.15146 0
M  V30 14662 C 1433.74 -0.297656 -5.33871 0
M  V30 14663 C 1435.04 -2.37332 -4.65264 0
M  V30 14664 H 1436.74 -1.60227 -2.52918 0
M  V30 14665 H 1434.28 -0.771846 -1.21567 0
M  V30 14666 H 1436.23 0.161371 -4.21091 0
M  V30 14667 H 1434.96 0.824792 -3.16014 0
M  V30 14668 H 1433.62 -1.2904 -3.43139 0
M  V30 14669 H 1433.27 0.633618 -4.98993 0
M  V30 14670 H 1432.97 -0.922789 -5.80309 0
M  V30 14671 H 1434.49 -0.0408892 -6.10586 0
M  V30 14672 H 1435.9 -2.1674 -5.30751 0
M  V30 14673 H 1434.3 -2.95412 -5.22352 0
M  V30 14674 H 1435.37 -2.99859 -3.81068 0
M  V30 14675 N 1436.71 1.32449 -0.85411 0
M  V30 14676 C 1437.94 2.01997 -0.470307 0
M  V30 14677 C 1438.36 1.63772 0.925225 0
M  V30 14678 O 1437.72 0.838089 1.60766 0
M  V30 14679 C 1437.77 3.55294 -0.616301 0
M  V30 14680 O 1436.87 4.10902 0.351133 0
M  V30 14681 H 1436.21 0.63651 -0.189079 0
M  V30 14682 H 1438.74 1.69008 -1.15315 0
M  V30 14683 H 1438.75 4.0488 -0.503624 0
M  V30 14684 H 1437.43 3.82459 -1.63396 0
M  V30 14685 H 1436.01 3.72391 0.194741 0
M  V30 14686 N 1438.19 0.611994 1.45232 0
M  V30 14687 C 1439.1 -0.105981 2.3436 0
M  V30 14688 C 1440.12 -0.855785 1.515 0
M  V30 14689 O 1441.29 -0.812376 1.84289 0
M  V30 14690 C 1438.36 -1.08794 3.29188 0
M  V30 14691 C 1437.42 -0.339611 4.27955 0
M  V30 14692 C 1436.65 -1.27479 5.18252 0
M  V30 14693 O 1436.88 -2.51279 5.12069 0
M  V30 14694 O 1435.81 -0.769469 5.96961 0
M  V30 14695 H 1439.64 0.626584 2.97166 0
M  V30 14696 H 1437.22 0.37224 1.44688 0
M  V30 14697 H 1439.1 -1.65338 3.8761 0
M  V30 14698 H 1437.78 -1.80145 2.68941 0
M  V30 14699 H 1436.68 0.268408 3.73136 0
M  V30 14700 H 1438.02 0.333501 4.91069 0
M  V30 14701 N 1439.67 -1.53632 0.351409 0
M  V30 14702 C 1441.09 -1.596 -0.000214515 0
M  V30 14703 C 1441.29 -1.36709 -1.4803 0
M  V30 14704 O 1440.34 -1.16524 -2.24006 0
M  V30 14705 C 1441.65 -2.97419 0.443013 0
M  V30 14706 C 1443.2 -3.10485 0.396025 0
M  V30 14707 C 1443.68 -4.50693 0.814843 0
M  V30 14708 N 1445.17 -4.56766 0.76934 0
M  V30 14709 C 1445.9 -5.63418 1.06526 0
M  V30 14710 N 1445.4 -6.77887 1.42974 0
M  V30 14711 N 1447.19 -5.53331 0.988986 0
M  V30 14712 H 1439.34 -1.66765 1.31542 0
M  V30 14713 H 1441.61 -0.781418 0.53674 0
M  V30 14714 H 1441.31 -3.19262 1.47529 0
M  V30 14715 H 1441.19 -3.76781 -0.177725 0
M  V30 14716 H 1443.57 -2.8836 -0.627092 0
M  V30 14717 H 1443.65 -2.33163 1.05207 0
M  V30 14718 H 1443.3 -4.73554 1.83601 0
M  V30 14719 H 1443.23 -5.26424 0.136193 0
M  V30 14720 H 1445.72 -3.74569 0.500623 0
M  V30 14721 H 1446.03 -7.55194 1.64018 0
M  V30 14722 H 1444.38 -6.79314 1.46827 0
M  V30 14723 H 1447.57 -4.62783 0.703526 0
M  V30 14724 H 1447.74 -6.36355 1.22295 0
M  V30 14725 N 1441.15 -0.0802183 -1.57396 0
M  V30 14726 C 1442.39 0.587831 -1.94094 0
M  V30 14727 C 1442.73 1.6875 -0.961093 0
M  V30 14728 O 1442 1.94498 0.00832799 0
M  V30 14729 C 1442.28 1.15692 -3.41009 0
M  V30 14730 C 1442.14 0.0633211 -4.49755 0
M  V30 14731 C 1443.46 2.05987 -3.88918 0
M  V30 14732 H 1440.58 0.212214 -0.705786 0
M  V30 14733 H 1443.22 -0.147902 -1.89423 0
M  V30 14734 H 1441.37 1.78394 -3.4512 0
M  V30 14735 H 1443.04 -0.57019 -4.57763 0
M  V30 14736 H 1441.28 -0.605003 -4.2956 0
M  V30 14737 H 1441.95 0.502056 -5.49712 0
M  V30 14738 H 1444.43 1.5321 -3.86867 0
M  V30 14739 H 1443.31 2.42737 -4.92311 0
M  V30 14740 H 1443.57 2.97147 -3.27347 0
M  V30 14741 N 1442.63 1.56409 0.193394 0
M  V30 14742 C 1443.57 1.94681 1.23968 0
M  V30 14743 C 1444.54 0.807634 1.45143 0
M  V30 14744 O 1445.73 1.06593 1.58248 0
M  V30 14745 C 1442.87 2.29306 2.57901 0
M  V30 14746 C 1441.98 3.56296 2.4429 0
M  V30 14747 C 1441.12 3.80235 3.70938 0
M  V30 14748 C 1440.15 5.00645 3.52167 0
M  V30 14749 N 1439.29 5.20829 4.70831 0
M  V30 14750 H 1444.13 2.83884 0.906298 0
M  V30 14751 H 1441.67 1.40486 0.436146 0
M  V30 14752 H 1443.63 2.47398 3.35932 0
M  V30 14753 H 1442.26 1.43241 2.89278 0
M  V30 14754 H 1441.31 3.46241 1.57547 0
M  V30 14755 H 1442.62 4.44483 2.26354 0
M  V30 14756 H 1441.77 3.98575 4.57408 0
M  V30 14757 H 1440.51 2.90381 3.91829 0
M  V30 14758 H 1439.52 4.82225 2.64081 0
M  V30 14759 H 1440.74 5.92009 3.32719 0
M  V30 14760 H 1438.69 4.33923 4.91983 0
M  V30 14761 H 1438.61 6.03199 4.55726 0
M  V30 14762 H 1439.87 5.4363 5.58648 0
M  V30 14763 N 1444.1 -0.461169 1.50702 0
M  V30 14764 C 1445.03 -1.56576 1.73223 0
M  V30 14765 C 1446.01 -1.59855 0.581401 0
M  V30 14766 O 1447.2 -1.75964 0.821602 0
M  V30 14767 C 1444.33 -2.94835 1.83548 0
M  V30 14768 C 1443.28 -3.06421 2.98815 0
M  V30 14769 C 1442.61 -4.46425 2.94293 0
M  V30 14770 C 1443.91 -2.82714 4.3917 0
M  V30 14771 H 1445.6 -1.37982 2.65709 0
M  V30 14772 H 1443.15 -0.662362 1.27862 0
M  V30 14773 H 1445.1 -3.72047 1.97887 0
M  V30 14774 H 1443.83 -3.14608 0.876906 0
M  V30 14775 H 1442.49 -2.31644 2.84142 0
M  V30 14776 H 1442.13 -4.63131 1.96262 0
M  V30 14777 H 1441.83 -4.55111 3.71682 0
M  V30 14778 H 1443.36 -5.25644 3.10695 0
M  V30 14779 H 1444.77 -3.4967 4.54317 0
M  V30 14780 H 1443.17 -3.02835 5.18084 0
M  V30 14781 H 1444.24 -1.78492 4.50853 0
M  V30 14782 N 1445.58 -1.40446 -0.715026 0
M  V30 14783 C 1446.54 -1.40506 -1.81082 0
M  V30 14784 C 1447.54 -0.298768 -1.58 0
M  V30 14785 O 1448.73 -0.5577 -1.65031 0
M  V30 14786 C 1445.87 -1.19735 -3.19181 0
M  V30 14787 H 1447.06 -2.38034 -1.82427 0
M  V30 14788 H 1444.61 -1.26303 -0.920718 0
M  V30 14789 H 1445.35 -0.229695 -3.23486 0
M  V30 14790 H 1445.13 -1.99871 -3.37334 0
M  V30 14791 H 1446.62 -1.22566 -3.99208 0
M  V30 14792 N 1447.06 0.947303 -1.25952 0
M  V30 14793 C 1447.97 2.07878 -1.08738 0
M  V30 14794 C 1448.99 1.73985 -0.0225212 0
M  V30 14795 O 1450.16 2.00139 -0.224984 0
M  V30 14796 C 1447.23 3.39231 -0.715756 0
M  V30 14797 C 1446.29 3.86945 -1.85935 0
M  V30 14798 C 1445.52 5.1203 -1.50537 0
M  V30 14799 O 1445.74 5.68965 -0.404323 0
M  V30 14800 O 1444.68 5.54634 -2.33805 0
M  V30 14801 H 1448.5 2.25305 -2.03645 0
M  V30 14802 H 1446.09 1.06321 -1.04958 0
M  V30 14803 H 1447.97 4.18167 -0.520962 0
M  V30 14804 H 1446.65 3.23057 0.203978 0
M  V30 14805 H 1445.55 3.08981 -2.10906 0
M  V30 14806 H 1446.89 4.0763 -2.75859 0
M  V30 14807 N 1448.54 1.07657 1.15099 0
M  V30 14808 C 1449.49 0.669428 2.17951 0
M  V30 14809 C 1450.47 -0.307034 1.57943 0
M  V30 14810 O 1451.66 -0.120267 1.76591 0
M  V30 14811 C 1448.79 0.0720873 3.43224 0
M  V30 14812 C 1447.88 1.07388 4.10279 0
M  V30 14813 N 1448.27 2.25455 4.52773 0
M  V30 14814 C 1446.57 0.907909 4.36661 0
M  V30 14815 C 1447.27 2.89035 5.0481 0
M  V30 14816 N 1446.25 2.16684 4.98547 0
M  V30 14817 H 1450.05 1.56862 2.48539 0
M  V30 14818 H 1447.56 0.950198 1.317 0
M  V30 14819 H 1449.56 -0.237505 4.16223 0
M  V30 14820 H 1448.22 -0.822183 3.14118 0
M  V30 14821 H 1449.23 2.63155 4.4606 0
M  V30 14822 H 1445.91 0.0667966 4.17447 0
M  V30 14823 H 1447.3 3.89303 5.47625 0
M  V30 14824 N 1450.02 -1.31994 0.861122 0
M  V30 14825 C 1450.96 -2.28729 0.308476 0
M  V30 14826 C 1451.93 -1.55338 -0.588148 0
M  V30 14827 O 1453.12 -1.8353 -0.52168 0
M  V30 14828 C 1450.26 -3.4158 -0.491621 0
M  V30 14829 C 1449.37 -4.29839 0.431522 0
M  V30 14830 C 1448.51 -5.29826 -0.381836 0
M  V30 14831 C 1447.55 -6.09728 0.538296 0
M  V30 14832 N 1446.68 -7.01696 -0.238274 0
M  V30 14833 H 1451.52 -2.75389 1.13863 0
M  V30 14834 H 1449.06 -1.35485 0.572911 0
M  V30 14835 H 1451.02 -4.05738 -0.971193 0
M  V30 14836 H 1449.65 -2.96054 -1.28654 0
M  V30 14837 H 1448.7 -3.66204 1.02951 0
M  V30 14838 H 1450.01 -4.85658 1.13742 0
M  V30 14839 H 1449.17 -5.99618 -0.924297 0
M  V30 14840 H 1447.9 -4.7464 -1.12107 0
M  V30 14841 H 1446.91 -5.38834 1.09259 0
M  V30 14842 H 1448.13 -6.67 1.27625 0
M  V30 14843 H 1446.08 -6.4893 -0.960486 0
M  V30 14844 H 1446 -7.54896 0.408466 0
M  V30 14845 H 1447.27 -7.75764 -0.762252 0
M  V30 14846 N 1451.49 -0.619688 -1.44906 0
M  V30 14847 C 1452.74 -0.117147 -2.0136 0
M  V30 14848 C 1453.06 1.2644 -1.49239 0
M  V30 14849 O 1454.26 1.86034 -1.97747 0
M  V30 14850 C 1452.72 -0.15871 -3.5955 0
M  V30 14851 C 1452.33 -1.54086 -4.20668 0
M  V30 14852 C 1454.07 0.287961 -4.23522 0
M  V30 14853 C 1451.98 -1.53816 -5.71047 0
M  V30 14854 H 1450.91 -0.040028 -0.752937 0
M  V30 14855 H 1453.56 -0.776802 -1.66247 0
M  V30 14856 H 1451.94 0.56783 -3.91908 0
M  V30 14857 H 1453.11 -2.29007 -3.99865 0
M  V30 14858 H 1451.43 -1.93065 -3.68938 0
M  V30 14859 H 1454.03 0.309351 -5.33804 0
M  V30 14860 H 1454.37 1.31305 -3.9505 0
M  V30 14861 H 1454.9 -0.385707 -3.95926 0
M  V30 14862 H 1451.64 -2.54124 -6.04236 0
M  V30 14863 H 1451.16 -0.831708 -5.94006 0
M  V30 14864 H 1452.84 -1.26708 -6.34472 0
M  V30 14865 N 1452.97 1.53444 -0.359552 0
M  V30 14866 C 1454.22 2.01166 0.232022 0
M  V30 14867 C 1454.55 1.24699 1.49266 0
M  V30 14868 O 1453.8 0.327164 1.92946 0
M  V30 14869 C 1454.1 3.5273 0.575863 0
M  V30 14870 C 1453.77 4.47027 -0.589746 0
M  V30 14871 C 1452.43 4.72525 -0.909587 0
M  V30 14872 C 1454.78 5.02846 -1.37095 0
M  V30 14873 C 1452.11 5.51096 -2.01271 0
M  V30 14874 C 1454.46 5.82622 -2.46444 0
M  V30 14875 C 1453.13 6.06409 -2.7897 0
M  V30 14876 H 1452.4 0.73612 0.084903 0
M  V30 14877 H 1455.04 1.85105 -0.490771 0
M  V30 14878 H 1453.35 3.66708 1.37959 0
M  V30 14879 H 1455.04 3.87125 1.04573 0
M  V30 14880 H 1451.63 4.27324 -0.330418 0
M  V30 14881 H 1455.82 4.83098 -1.1371 0
M  V30 14882 H 1451.07 5.67747 -2.26877 0
M  V30 14883 H 1455.25 6.24884 -3.07398 0
M  V30 14884 H 1452.88 6.67077 -3.64572 0
M  V30 14885 N 1454.45 0.0885642 1.57351 0
M  V30 14886 C 1455.86 -0.441569 1.81403 0
M  V30 14887 C 1456.21 -1.68582 1.00372 0
M  V30 14888 O 1455.34 -2.15162 0.231153 0
M  V30 14889 C 1455.93 -0.807886 3.29027 0
M  V30 14890 C 1454.49 -1.2828 3.53866 0
M  V30 14891 C 1453.64 -0.276217 2.75921 0
M  V30 14892 H 1456.59 0.314083 1.55561 0
M  V30 14893 H 1456.61 -1.66797 3.41993 0
M  V30 14894 H 1456.12 0.0978886 3.87977 0
M  V30 14895 H 1454.22 -2.2065 3.0024 0
M  V30 14896 H 1454.34 -1.24914 4.62529 0
M  V30 14897 H 1452.7 -0.757007 2.4319 0
M  V30 14898 H 1453.48 0.622123 3.37616 0
M  V30 14899 N 1455.93 -1.56509 -0.185096 0
M  V30 14900 C 1456.89 -1.94468 -1.21305 0
M  V30 14901 C 1457.89 -0.826838 -1.37913 0
M  V30 14902 O 1459.08 -1.09411 -1.35554 0
M  V30 14903 C 1456.21 -2.22747 -2.58063 0
M  V30 14904 H 1457.41 -2.86442 -0.888323 0
M  V30 14905 H 1454.96 -1.50354 -0.427012 0
M  V30 14906 H 1455.69 -1.33443 -2.95573 0
M  V30 14907 H 1455.48 -3.04215 -2.47378 0
M  V30 14908 H 1456.97 -2.53084 -3.32172 0
M  V30 14909 N 1457.41 0.45317 -1.50944 0
M  V30 14910 C 1458.37 1.5313 -1.7054 0
M  V30 14911 C 1459.37 1.50142 -0.575678 0
M  V30 14912 O 1460.56 1.52444 -0.842997 0
M  V30 14913 C 1457.69 2.92719 -1.74723 0
M  V30 14914 H 1458.88 1.37066 -2.66745 0
M  V30 14915 H 1456.44 0.680783 -1.40695 0
M  V30 14916 H 1457.17 3.14208 -0.802753 0
M  V30 14917 H 1456.96 2.96295 -2.56811 0
M  V30 14918 H 1458.45 3.7096 -1.91777 0
M  V30 14919 N 1458.88 1.40823 0.707568 0
M  V30 14920 C 1459.81 1.44485 1.83429 0
M  V30 14921 C 1460.8 0.304848 1.67346 0
M  V30 14922 O 1461.98 0.514605 1.87258 0
M  V30 14923 C 1459.11 1.31458 3.21459 0
M  V30 14924 C 1458.06 2.43145 3.52228 0
M  V30 14925 C 1457.39 2.15189 4.89487 0
M  V30 14926 C 1458.69 3.85489 3.52414 0
M  V30 14927 H 1460.38 2.38781 1.80622 0
M  V30 14928 H 1457.93 1.14931 0.867572 0
M  V30 14929 H 1459.88 1.32635 3.99983 0
M  V30 14930 H 1458.61 0.336422 3.24863 0
M  V30 14931 H 1457.27 2.41231 2.76049 0
M  V30 14932 H 1456.91 1.15745 4.89502 0
M  V30 14933 H 1456.61 2.90022 5.11039 0
M  V30 14934 H 1458.14 2.18062 5.70334 0
M  V30 14935 H 1459.55 3.89183 4.20963 0
M  V30 14936 H 1457.95 4.59906 3.85495 0
M  V30 14937 H 1459.02 4.14499 2.51632 0
M  V30 14938 N 1460.36 -0.94061 1.26453 0
M  V30 14939 C 1461.29 -2.04322 1.03852 0
M  V30 14940 C 1462.31 -1.628 -0.00122618 0
M  V30 14941 O 1463.5 -1.76894 0.238911 0
M  V30 14942 C 1460.6 -3.34394 0.550789 0
M  V30 14943 C 1459.77 -4.0468 1.6599 0
M  V30 14944 C 1458.83 -5.13025 1.17012 0
M  V30 14945 O 1457.85 -5.37699 1.8673 0
M  V30 14946 N 1459.06 -5.80497 0.0188478 0
M  V30 14947 H 1461.82 -2.24276 1.98797 0
M  V30 14948 H 1459.38 -1.11013 1.17846 0
M  V30 14949 H 1461.37 -4.04169 0.207305 0
M  V30 14950 H 1459.94 -3.11108 -0.30509 0
M  V30 14951 H 1459.16 -3.28813 2.17429 0
M  V30 14952 H 1460.45 -4.48392 2.40463 0
M  V30 14953 H 1459.85 -5.62888 -0.563368 0
M  V30 14954 H 1458.41 -6.51259 -0.265556 0
M  V30 14955 N 1461.84 -1.08266 -1.14527 0
M  V30 14956 C 1462.77 -0.732968 -2.21698 0
M  V30 14957 C 1463.75 0.283917 -1.67714 0
M  V30 14958 O 1464.94 0.154607 -1.93584 0
M  V30 14959 C 1462.07 -0.139935 -3.47018 0
M  V30 14960 C 1461.02 -1.08501 -4.14019 0
M  V30 14961 C 1460.35 -0.354263 -5.33525 0
M  V30 14962 C 1461.65 -2.42254 -4.62721 0
M  V30 14963 H 1463.34 -1.629 -2.51205 0
M  V30 14964 H 1460.89 -0.784696 -1.20742 0
M  V30 14965 H 1462.84 0.1167 -4.21238 0
M  V30 14966 H 1461.56 0.791228 -3.16871 0
M  V30 14967 H 1460.22 -1.32672 -3.41751 0
M  V30 14968 H 1459.87 0.580658 -4.99637 0
M  V30 14969 H 1459.57 -0.984287 -5.79297 0
M  V30 14970 H 1461.09 -0.105648 -6.10509 0
M  V30 14971 H 1462.51 -2.22357 -5.28422 0
M  V30 14972 H 1460.91 -3.00935 -5.1919 0
M  V30 14973 H 1461.98 -3.03884 -3.77866 0
M  V30 14974 N 1463.32 1.31536 -0.86811 0
M  V30 14975 C 1464.57 1.97066 -0.478829 0
M  V30 14976 C 1464.9 1.68469 0.966021 0
M  V30 14977 O 1464.17 0.980166 1.67997 0
M  V30 14978 C 1464.46 3.52533 -0.734313 0
M  V30 14979 C 1464.31 3.90711 -2.22856 0
M  V30 14980 C 1465.63 4.39647 -0.199559 0
M  V30 14981 H 1462.75 0.715813 -0.175444 0
M  V30 14982 H 1465.39 1.55694 -1.08901 0
M  V30 14983 H 1463.54 3.87905 -0.214962 0
M  V30 14984 H 1465.21 3.65451 -2.81502 0
M  V30 14985 H 1463.45 3.39385 -2.70185 0
M  V30 14986 H 1464.13 4.99103 -2.35797 0
M  V30 14987 H 1466.6 4.11088 -0.643853 0
M  V30 14988 H 1465.48 5.47383 -0.407783 0
M  V30 14989 H 1465.74 4.32875 0.898414 0
M  V30 14990 N 1464.8 0.627364 1.44575 0
M  V30 14991 C 1465.76 -0.0700881 2.29093 0
M  V30 14992 C 1466.76 -0.775969 1.40838 0
M  V30 14993 O 1467.95 -0.621129 1.6275 0
M  V30 14994 C 1465.08 -1.10977 3.2233 0
M  V30 14995 H 1466.28 0.673234 2.92246 0
M  V30 14996 H 1463.83 0.387322 1.51425 0
M  V30 14997 H 1464.56 -1.8832 2.64019 0
M  V30 14998 H 1464.35 -0.607587 3.87364 0
M  V30 14999 H 1465.84 -1.59764 3.8583 0
M  V30 15000 N 1466.28 -1.53251 0.367684 0
M  V30 15001 C 1467.5 -2.0618 -0.224645 0
M  V30 15002 C 1467.93 -1.23927 -1.41505 0
M  V30 15003 O 1467.28 -0.258858 -1.79443 0
M  V30 15004 C 1467.33 -3.55671 -0.594171 0
M  V30 15005 O 1466.44 -3.76132 -1.69112 0
M  V30 15006 H 1465.78 -0.663218 -0.0322099 0
M  V30 15007 H 1468.31 -1.97646 0.528897 0
M  V30 15008 H 1468.32 -3.98734 -0.864589 0
M  V30 15009 H 1466.99 -4.14982 0.276254 0
M  V30 15010 H 1465.57 -3.44965 -1.41609 0
M  V30 15011 N 1467.75 -0.0969077 -1.57302 0
M  V30 15012 C 1469 0.565254 -1.94034 0
M  V30 15013 C 1469.32 1.68609 -0.9796 0
M  V30 15014 O 1468.59 1.95874 -0.0319788 0
M  V30 15015 H 1467.17 0.211796 -0.716346 0
M  V30 15016 H 1469.83 -0.160665 -1.94237 0
M  V30 15017 H 1468.93 0.974268 -2.96504 0
M  V30 15018 N 1469.23 1.56605 0.176793 0
M  V30 15019 C 1470.46 1.85812 0.910019 0
M  V30 15020 C 1470.87 0.68164 1.76066 0
M  V30 15021 O 1470.23 -0.34936 1.79125 0
M  V30 15022 C 1470.28 3.14001 1.79125 0
M  V30 15023 O 1470 4.27114 0.974931 0
M  V30 15024 C 1471.5 3.56516 2.6346 0
M  V30 15025 H 1468.72 0.616608 0.264643 0
M  V30 15026 H 1471.27 2.03719 0.178537 0
M  V30 15027 H 1469.42 2.97937 2.47613 0
M  V30 15028 H 1469.84 5.00227 1.57711 0
M  V30 15029 H 1471.31 4.49128 3.20918 0
M  V30 15030 H 1471.79 2.80373 3.38065 0
M  V30 15031 H 1472.39 3.75173 2.00313 0
M  V30 15032 N 1470.71 -0.445159 1.51182 0
M  V30 15033 C 1471.96 -1.19701 1.63705 0
M  V30 15034 C 1472.29 -1.91047 0.348511 0
M  V30 15035 O 1471.56 -1.83264 -0.651497 0
M  V30 15036 C 1471.85 -2.22021 2.83511 0
M  V30 15037 C 1471.7 -1.54809 4.2232 0
M  V30 15038 C 1473.02 -3.23083 2.9884 0
M  V30 15039 H 1470.14 -0.433818 0.595795 0
M  V30 15040 H 1472.78 -0.487276 1.83645 0
M  V30 15041 H 1470.93 -2.82551 2.66641 0
M  V30 15042 H 1472.6 -0.976774 4.5084 0
M  V30 15043 H 1470.84 -0.850596 4.25379 0
M  V30 15044 H 1471.52 -2.29289 5.02126 0
M  V30 15045 H 1473.99 -2.72601 3.14369 0
M  V30 15046 H 1472.87 -3.91978 3.84246 0
M  V30 15047 H 1473.13 -3.88732 2.1057 0
M  V30 15048 N 1472.19 -1.41197 -0.700089 0
M  V30 15049 C 1473.12 -1.38616 -1.82533 0
M  V30 15050 C 1474.13 -0.289047 -1.60213 0
M  V30 15051 O 1475.32 -0.550465 -1.698 0
M  V30 15052 C 1472.42 -1.13815 -3.19217 0
M  V30 15053 C 1471.59 -2.3548 -3.68603 0
M  V30 15054 C 1470.65 -2.06604 -4.83943 0
M  V30 15055 O 1469.68 -2.79604 -4.95792 0
M  V30 15056 N 1470.88 -1.05351 -5.7086 0
M  V30 15057 H 1473.65 -2.35598 -1.8524 0
M  V30 15058 H 1471.21 -1.3575 -0.882238 0
M  V30 15059 H 1473.2 -0.924571 -3.93997 0
M  V30 15060 H 1471.77 -0.254468 -3.11563 0
M  V30 15061 H 1470.99 -2.72569 -2.8478 0
M  V30 15062 H 1472.28 -3.16553 -3.98336 0
M  V30 15063 H 1471.68 -0.449223 -5.63914 0
M  V30 15064 H 1470.23 -0.899819 -6.45559 0
M  V30 15065 N 1473.67 0.933891 -1.2695 0
M  V30 15066 C 1474.6 2.05078 -1.11649 0
M  V30 15067 C 1475.58 1.70089 -0.0196463 0
M  V30 15068 O 1476.76 1.93239 -0.193007 0
M  V30 15069 C 1473.89 3.38963 -0.756387 0
M  V30 15070 C 1472.85 3.88041 -1.80577 0
M  V30 15071 C 1472.17 5.18661 -1.2998 0
M  V30 15072 C 1473.47 4.12116 -3.2087 0
M  V30 15073 H 1475.17 2.18137 -2.05077 0
M  V30 15074 H 1472.71 1.04817 -0.987392 0
M  V30 15075 H 1474.66 4.1657 -0.63619 0
M  V30 15076 H 1473.39 3.25901 0.213607 0
M  V30 15077 H 1472.05 3.12622 -1.91477 0
M  V30 15078 H 1471.7 5.01985 -0.319442 0
M  V30 15079 H 1471.4 5.52467 -2.00134 0
M  V30 15080 H 1472.92 5.98844 -1.19242 0
M  V30 15081 H 1474.33 4.80312 -3.13006 0
M  V30 15082 H 1472.73 4.57218 -3.88679 0
M  V30 15083 H 1473.8 3.17633 -3.66384 0
M  V30 15084 N 1475.14 1.08871 1.13951 0
M  V30 15085 C 1476.39 0.819665 1.84732 0
M  V30 15086 C 1476.71 -0.656535 1.83615 0
M  V30 15087 O 1475.98 -1.47614 1.28791 0
M  V30 15088 H 1474.56 0.30023 0.684011 0
M  V30 15089 H 1477.22 1.37568 1.38062 0
M  V30 15090 H 1476.32 1.16809 2.89417 0
M  V30 15091 N 1476.62 -1.31073 0.875073 0
M  V30 15092 C 1477.53 -2.3215 0.338196 0
M  V30 15093 C 1478.55 -1.64928 -0.554504 0
M  V30 15094 O 1479.72 -1.96308 -0.449998 0
M  V30 15095 C 1476.79 -3.43804 -0.447163 0
M  V30 15096 C 1475.85 -4.26674 0.474106 0
M  V30 15097 C 1475.08 -5.32997 -0.273867 0
M  V30 15098 O 1475.31 -5.50288 -1.50129 0
M  V30 15099 O 1474.24 -6.00756 0.370913 0
M  V30 15100 H 1478.07 -2.80002 1.17612 0
M  V30 15101 H 1475.65 -1.35064 0.6386 0
M  V30 15102 H 1477.53 -4.11847 -0.892199 0
M  V30 15103 H 1476.21 -2.98105 -1.26155 0
M  V30 15104 H 1475.11 -3.61366 0.967748 0
M  V30 15105 H 1476.45 -4.75952 1.25423 0
M  V30 15106 N 1478.1 -0.635022 -1.4424 0
M  V30 15107 C 1479.05 0.0797218 -2.32463 0
M  V30 15108 C 1480.04 0.831818 -1.47571 0
M  V30 15109 O 1481.25 0.744277 -1.63892 0
M  V30 15110 H 1477.62 0.0445532 -0.750679 0
M  V30 15111 H 1479.59 -0.682374 -2.90493 0
M  V30 15112 C 1478.34 1.04505 -3.31623 0
M  V30 15113 H 1477.67 0.475755 -3.96959 0
M  V30 15114 H 1479.11 1.51458 -3.96026 0
M  V30 15115 C 1477.57 2.13221 -2.60842 0
M  V30 15116 O 1478.1 3.21357 -2.41025 0
M  V30 15117 N 1476.3 1.89264 -2.20516 0
M  V30 15118 H 1475.85 1.01329 -2.36834 0
M  V30 15119 H 1475.81 2.62203 -1.73484 0
M  V30 15120 N 1479.58 1.53054 -0.375806 0
M  V30 15121 C 1480.83 2.01003 0.210257 0
M  V30 15122 C 1481.15 1.26451 1.48442 0
M  V30 15123 O 1480.42 0.380687 1.92166 0
M  V30 15124 H 1479 0.74263 0.0806861 0
M  V30 15125 H 1481.66 1.8826 -0.504393 0
M  V30 15126 H 1480.76 3.09123 0.430027 0
M  V30 15127 N 1481.06 0.105248 1.57248 0
M  V30 15128 C 1482 -0.850012 2.14577 0
M  V30 15129 C 1482.97 -1.27294 1.06703 0
M  V30 15130 O 1484.16 -1.35289 1.34542 0
M  V30 15131 C 1481.3 -2.09993 2.73856 0
M  V30 15132 C 1480.41 -1.72662 3.95995 0
M  V30 15133 C 1479.55 -2.92517 4.43404 0
M  V30 15134 C 1478.59 -2.5136 5.58108 0
M  V30 15135 N 1477.72 -3.64082 6.00324 0
M  V30 15136 H 1482.56 -0.354282 2.95887 0
M  V30 15137 H 1480.1 -0.163192 1.46192 0
M  V30 15138 H 1482.06 -2.83208 3.06348 0
M  V30 15139 H 1480.69 -2.57048 1.95259 0
M  V30 15140 H 1479.74 -0.893754 3.69752 0
M  V30 15141 H 1481.05 -1.38406 4.79213 0
M  V30 15142 H 1480.21 -3.73973 4.77734 0
M  V30 15143 H 1478.94 -3.2999 3.59107 0
M  V30 15144 H 1477.95 -1.68333 5.23397 0
M  V30 15145 H 1479.17 -2.15019 6.44161 0
M  V30 15146 H 1477.12 -4.01255 5.18971 0
M  V30 15147 H 1477.04 -3.33705 6.78363 0
M  V30 15148 H 1478.31 -4.46019 6.39287 0
M  V30 15149 N 1482.53 -1.56697 -0.168486 0
M  V30 15150 C 1483.78 -1.81346 -0.882973 0
M  V30 15151 C 1484.1 -0.682975 -1.83289 0
M  V30 15152 O 1485.3 -0.814479 -2.58995 0
M  V30 15153 C 1483.76 -3.21345 -1.62066 0
M  V30 15154 C 1483.37 -4.4227 -0.714241 0
M  V30 15155 C 1485.11 -3.55285 -2.32321 0
M  V30 15156 C 1483.02 -5.7329 -1.45233 0
M  V30 15157 H 1481.95 -0.676254 -0.333461 0
M  V30 15158 H 1484.6 -1.82996 -0.135871 0
M  V30 15159 H 1482.98 -3.1402 -2.41262 0
M  V30 15160 H 1484.15 -4.60782 0.0409556 0
M  V30 15161 H 1482.47 -4.16224 -0.121205 0
M  V30 15162 H 1485.07 -4.50421 -2.88141 0
M  V30 15163 H 1485.41 -2.80301 -3.07793 0
M  V30 15164 H 1485.94 -3.64176 -1.60066 0
M  V30 15165 H 1482.68 -6.51311 -0.739869 0
M  V30 15166 H 1482.2 -5.58751 -2.18077 0
M  V30 15167 H 1483.88 -6.15343 -1.99905 0
M  V30 15168 N 1484.01 0.437135 -1.51416 0
M  V30 15169 C 1485.25 1.19603 -1.65754 0
M  V30 15170 C 1485.62 1.88481 -0.365891 0
M  V30 15171 O 1486.82 2.66028 -0.385046 0
M  V30 15172 C 1485.09 2.18579 -2.82769 0
M  V30 15173 S 1486.65 3.02952 -3.17436 0
M  V30 15174 H 1483.47 0.405591 -0.583966 0
M  V30 15175 H 1486.07 0.487568 -1.89323 0
M  V30 15176 H 1484.77 1.66616 -3.75056 0
M  V30 15177 H 1484.3 2.94005 -2.6139 0
M  V30 15178 H 1486.32 4.20213 -2.63886 0
M  V30 15179 N 1485.49 1.41566 0.692592 0
M  V30 15180 C 1486.74 1.42293 1.45342 0
M  V30 15181 C 1487.09 0.032316 1.92373 0
M  V30 15182 O 1486.38 -0.942367 1.66823 0
M  V30 15183 C 1486.58 2.36683 2.67799 0
M  V30 15184 C 1486.41 3.84784 2.32748 0
M  V30 15185 C 1485.18 4.53446 2.22967 0
M  V30 15186 C 1487.38 4.75681 1.95531 0
M  V30 15187 N 1485.36 5.86662 1.80833 0
M  V30 15188 C 1486.73 5.97868 1.64178 0
M  V30 15189 C 1488.78 4.633 1.82367 0
M  V30 15190 C 1487.49 7.09053 1.20983 0
M  V30 15191 C 1489.51 5.74449 1.40577 0
M  V30 15192 C 1488.87 6.95737 1.10137 0
M  V30 15193 H 1484.97 0.575898 0.529023 0
M  V30 15194 H 1487.56 1.77459 0.801013 0
M  V30 15195 H 1485.73 2.03606 3.30755 0
M  V30 15196 H 1487.46 2.28109 3.34288 0
M  V30 15197 H 1484.22 4.07423 2.4146 0
M  V30 15198 H 1484.64 6.57273 1.62239 0
M  V30 15199 H 1489.28 3.70024 2.04554 0
M  V30 15200 H 1487 8.02192 0.975411 0
M  V30 15201 H 1490.59 5.66875 1.30937 0
M  V30 15202 H 1489.47 7.80282 0.782888 0
M  V30 15203 N 1486.97 -0.927146 1.27443 0
M  V30 15204 C 1488.21 -1.67738 1.13982 0
M  V30 15205 C 1488.55 -1.91653 -0.313511 0
M  V30 15206 O 1487.82 -1.50729 -1.22926 0
M  V30 15207 C 1488.11 -3.04357 1.92454 0
M  V30 15208 C 1487.96 -2.8768 3.45775 0
M  V30 15209 C 1489.28 -4.04696 1.72944 0
M  V30 15210 H 1486.4 -0.608749 0.415444 0
M  V30 15211 H 1489.04 -1.07587 1.56605 0
M  V30 15212 H 1487.19 -3.55702 1.56232 0
M  V30 15213 H 1488.86 -2.43449 3.9183 0
M  V30 15214 H 1487.1 -2.23011 3.72087 0
M  V30 15215 H 1487.77 -3.8464 3.95924 0
M  V30 15216 H 1490.25 -3.62364 2.04528 0
M  V30 15217 H 1489.13 -4.98276 2.30243 0
M  V30 15218 H 1489.39 -4.36878 0.677505 0
M  V30 15219 N 1488.45 -1.09474 -1.13372 0
M  V30 15220 C 1489.39 -0.73458 -2.18798 0
M  V30 15221 C 1490.36 0.284433 -1.63647 0
M  V30 15222 O 1491.55 0.165958 -1.90077 0
M  V30 15223 C 1488.69 -0.161826 -3.4472 0
M  V30 15224 C 1487.8 -1.23494 -4.13973 0
M  V30 15225 C 1486.94 -0.624886 -5.27512 0
M  V30 15226 C 1485.98 -1.67927 -5.88614 0
M  V30 15227 N 1485.11 -1.09021 -6.93584 0
M  V30 15228 H 1489.95 -1.63787 -2.48954 0
M  V30 15229 H 1487.49 -0.818297 -1.22239 0
M  V30 15230 H 1489.45 0.188053 -4.16776 0
M  V30 15231 H 1488.08 0.70473 -3.15013 0
M  V30 15232 H 1487.13 -1.70209 -3.40196 0
M  V30 15233 H 1488.44 -2.0335 -4.55467 0
M  V30 15234 H 1487.6 -0.22388 -6.06287 0
M  V30 15235 H 1486.33 0.205214 -4.87268 0
M  V30 15236 H 1485.34 -2.08982 -5.08534 0
M  V30 15237 H 1486.56 -2.51204 -6.3093 0
M  V30 15238 H 1484.51 -0.281401 -6.55396 0
M  V30 15239 H 1484.43 -1.82573 -7.33623 0
M  V30 15240 H 1485.7 -0.715428 -7.7621 0
M  V30 15241 N 1489.92 1.30607 -0.882012 0
M  V30 15242 C 1490.83 2.31967 -0.350503 0
M  V30 15243 C 1491.85 1.6522 0.54575 0
M  V30 15244 O 1493.03 1.96544 0.439581 0
M  V30 15245 C 1490.09 3.44037 0.428924 0
M  V30 15246 C 1489.15 4.26417 -0.496727 0
M  V30 15247 C 1488.39 5.33135 0.245597 0
M  V30 15248 O 1488.61 5.51077 1.47209 0
M  V30 15249 O 1487.54 6.00551 -0.402767 0
M  V30 15250 H 1491.37 2.79374 -1.19095 0
M  V30 15251 H 1488.95 1.34723 -0.645754 0
M  V30 15252 H 1490.84 4.12314 0.870346 0
M  V30 15253 H 1489.51 2.9877 1.24573 0
M  V30 15254 H 1488.42 3.60848 -0.986899 0
M  V30 15255 H 1489.75 4.7528 -1.27945 0
M  V30 15256 N 1491.4 0.642663 1.43901 0
M  V30 15257 C 1492.31 -0.0562462 2.34533 0
M  V30 15258 C 1493.33 -0.823457 1.53281 0
M  V30 15259 O 1494.5 -0.773103 1.85971 0
M  V30 15260 C 1491.57 -1.01787 3.31422 0
M  V30 15261 C 1490.63 -0.248759 4.28579 0
M  V30 15262 C 1489.86 -1.16458 5.20839 0
M  V30 15263 O 1490.09 -2.40361 5.17284 0
M  V30 15264 O 1489.02 -0.642671 5.98459 0
M  V30 15265 H 1492.85 0.689476 2.9577 0
M  V30 15266 H 1490.43 0.402847 1.43866 0
M  V30 15267 H 1492.31 -1.5708 3.91029 0
M  V30 15268 H 1490.99 -1.744 2.72702 0
M  V30 15269 H 1489.9 0.347495 3.72483 0
M  V30 15270 H 1491.23 0.437589 4.90251 0
M  V30 15271 O 1492.92 -1.5269 0.526107 0
M  V30 15272 H 1493.61 -1.93694 0.0151446 0
M  V30 END ATOM
M  V30 BEGIN BOND
M  V30 END BOND
M  V30 END CTAB
M  END
$$$$
