drugbank_target|Q16790 Carbonic anhydrase 9 (DB00562; DB00774; DB00909; DB05304; DB08846; DB09460)
 OpenBabel12092120153D

  0  0  0     0  0            999 V3000
M  V30 BEGIN CTAB
M  V30 COUNTS 6913 7008 0 0 0
M  V30 BEGIN ATOM
M  V30 1 H -0.908 1.98254 -0.117106 0
M  V30 2 N 0 1.576 0 0
M  V30 3 C 0.933 2.03868 1.02534 0
M  V30 4 C 1.911 0.928543 1.3348 0
M  V30 5 O 3.095 1.19667 1.45644 0
M  V30 6 C 0.222 2.43627 2.35294 0
M  V30 7 C -0.732 3.65373 2.2001 0
M  V30 8 S 0.101 5.13292 1.52614 0
M  V30 9 C 1.257 5.56322 2.86805 0
M  V30 10 H 1.49 2.90518 0.631377 0
M  V30 11 H -0.977 1.52953 0.210867 0
M  V30 12 H 0.981 2.67203 3.11629 0
M  V30 13 H -0.358 1.57376 2.7183 0
M  V30 14 H -1.165 3.90944 3.18086 0
M  V30 15 H -1.563 3.418 1.51819 0
M  V30 16 H 0.729 5.58782 3.83104 0
M  V30 17 H 1.672 6.56266 2.65933 0
M  V30 18 H 2.08 4.83886 2.90714 0
M  V30 19 N 1.4781 -0.272755 1.55222 0
M  V30 20 C 2.4411 -1.32041 1.87344 0
M  V30 21 C 3.4411 -1.42342 0.74803 0
M  V30 22 O 4.6311 -1.41488 1.0162 0
M  V30 23 C 1.7631 -2.70173 2.07893 0
M  V30 24 H 2.9561 -1.04789 2.80997 0
M  V30 25 H 0.5091 -0.51083 1.47717 0
M  V30 26 H 1.2441 -3.02605 1.16622 0
M  V30 27 H 1.0291 -2.64082 2.89833 0
M  V30 28 H 2.5191 -3.45869 2.34017 0
M  V30 29 N 2.9562 -1.48159 -0.537278 0
M  V30 30 C 4.3672 -1.49429 -1.11928 0
M  V30 31 C 4.7182 -0.26 -1.9447 0
M  V30 32 O 3.8432 0.633489 -2.0692 0
M  V30 33 C 4.4382 -2.70758 -2.03656 0
M  V30 34 C 2.9972 -2.74923 -2.57088 0
M  V30 35 C 2.1442 -2.42835 -1.3389 0
M  V30 36 H 5.0952 -1.55381 -0.322886 0
M  V30 37 H 5.1162 -2.48861 -2.87834 0
M  V30 38 H 4.6282 -3.60575 -1.43553 0
M  V30 39 H 2.7292 -1.89296 -3.20933 0
M  V30 40 H 2.8422 -3.76157 -2.9672 0
M  V30 41 H 1.2062 -1.93836 -1.65226 0
M  V30 42 H 1.9892 -3.34884 -0.755504 0
M  V30 43 N 4.4343 0.785586 -1.36625 0
M  V30 44 C 5.3643 1.91259 -1.33949 0
M  V30 45 C 6.3453 1.68795 -0.210325 0
M  V30 46 O 7.5303 1.89854 -0.408561 0
M  V30 47 C 4.6603 3.28339 -1.13186 0
M  V30 48 C 3.6143 3.65335 -2.22967 0
M  V30 49 C 2.9403 5.00806 -1.87342 0
M  V30 50 C 4.2403 3.7352 -3.65075 0
M  V30 51 H 5.9343 1.93755 -2.28253 0
M  V30 52 H 3.4803 0.930788 -1.09874 0
M  V30 53 H 5.4333 4.06804 -1.09948 0
M  V30 54 H 4.1573 3.2624 -0.153332 0
M  V30 55 H 2.8163 2.89169 -2.25337 0
M  V30 56 H 2.4643 4.95233 -0.880545 0
M  V30 57 H 2.1643 5.26529 -2.60846 0
M  V30 58 H 3.6883 5.81687 -1.85667 0
M  V30 59 H 5.1023 4.42168 -3.64911 0
M  V30 60 H 3.4993 4.10731 -4.37516 0
M  V30 61 H 4.5693 2.74527 -3.99703 0
M  V30 62 N 5.9124 1.20967 1.01018 0
M  V30 63 C 7.1524 1.03511 1.76252 0
M  V30 64 C 7.5164 -0.42458 1.87247 0
M  V30 65 O 8.7174 -0.719508 2.58991 0
M  V30 66 C 6.9884 1.70726 3.13986 0
M  V30 67 S 8.5474 1.68458 4.05176 0
M  V30 68 H 5.3654 0.371037 0.606508 0
M  V30 69 H 7.9674 1.53628 1.20908 0
M  V30 70 H 6.6714 2.76128 3.03614 0
M  V30 71 H 6.2024 1.20767 3.74405 0
M  V30 72 H 8.2174 0.721987 4.90919 0
M  V30 73 N 7.3905 -1.2043 1.01659 0
M  V30 74 C 8.8015 -1.71517 0.737482 0
M  V30 75 C 9.1525 -1.81547 -0.743973 0
M  V30 76 O 8.2775 -1.47803 -1.58061 0
M  V30 77 C 8.8725 -3.11515 1.33206 0
M  V30 78 C 7.4315 -3.59912 1.10183 0
M  V30 79 C 6.5785 -2.37116 1.43776 0
M  V30 80 H 9.5295 -1.05444 1.18606 0
M  V30 81 H 9.5505 -3.73575 0.722636 0
M  V30 82 H 9.0625 -3.04182 2.41028 0
M  V30 83 H 7.1635 -3.72577 0.0412756 0
M  V30 84 H 7.2765 -4.44731 1.78188 0
M  V30 85 H 5.6405 -2.39857 0.856778 0
M  V30 86 H 6.4235 -2.32424 2.52654 0
M  V30 87 N 8.8686 -0.792821 -1.36206 0
M  V30 88 C 10.0936 -0.377701 -2.03932 0
M  V30 89 C 10.5186 0.998947 -1.59382 0
M  V30 90 O 9.8766 1.64421 -0.763903 0
M  V30 91 C 9.9246 -0.453635 -3.57735 0
M  V30 92 O 9.0286 0.538151 -4.08874 0
M  V30 93 H 8.3696 -0.159855 -0.644471 0
M  V30 94 H 10.8996 -1.07488 -1.7409 0
M  V30 95 H 10.9096 -0.318464 -4.06755 0
M  V30 96 H 9.5846 -1.45784 -3.89512 0
M  V30 97 H 8.1616 0.364359 -3.71116 0
M  V30 98 N 10.3467 1.47872 -0.545128 0
M  V30 99 C 11.7577 1.86384 -0.108581 0
M  V30 100 C 12.1087 1.45309 1.31832 0
M  V30 101 O 11.2337 0.850641 1.9898 0
M  V30 102 C 11.8287 3.38265 -0.190274 0
M  V30 103 C 10.3877 3.75914 0.191164 0
M  V30 104 C 9.5347 2.71926 -0.543273 0
M  V30 105 H 12.4857 1.39561 -0.755537 0
M  V30 106 H 12.5067 3.75831 0.594217 0
M  V30 107 H 12.0187 3.6813 -1.2289 0
M  V30 108 H 10.1197 3.51665 1.23136 0
M  V30 109 H 10.2327 4.78836 -0.158987 0
M  V30 110 H 8.5967 2.54697 0.0122495 0
M  V30 111 H 9.3797 3.04634 -1.58282 0
M  V30 112 N 11.8248 0.280983 1.55075 0
M  V30 113 C 13.0708 -0.327573 2.00745 0
M  V30 114 C 13.4258 -1.53045 1.16598 0
M  V30 115 O 12.7188 -1.90221 0.229451 0
M  V30 116 C 12.9128 -0.754656 3.49342 0
M  V30 117 C 12.7418 0.40529 4.4787 0
M  V30 118 C 11.5118 0.890947 4.97383 0
M  V30 119 C 13.7098 1.24371 4.99035 0
M  V30 120 N 11.6918 2.01975 5.79724 0
M  V30 121 C 13.0628 2.22031 5.7888 0
M  V30 122 C 15.1178 1.27638 4.81262 0
M  V30 123 C 13.8208 3.22709 6.42846 0
M  V30 124 C 15.8468 2.27164 5.46031 0
M  V30 125 C 15.2088 3.23556 6.25692 0
M  V30 126 H 11.3078 -0.0848774 0.77738 0
M  V30 127 H 13.8918 0.406342 1.90413 0
M  V30 128 H 12.0628 -1.45778 3.60005 0
M  V30 129 H 13.7948 -1.34105 3.81835 0
M  V30 130 H 10.5498 0.469262 4.71269 0
M  V30 131 H 10.9738 2.58794 6.25584 0
M  V30 132 H 15.6158 0.544936 4.19274 0
M  V30 133 H 13.3338 3.96784 7.0398 0
M  V30 134 H 16.9198 2.30441 5.34217 0
M  V30 135 H 15.7998 3.99309 6.74924 0
M  V30 136 N 13.3029 -1.57598 0.00835791 0
M  V30 137 C 14.2329 -2.1198 -0.979113 0
M  V30 138 C 15.2139 -1.03091 -1.35301 0
M  V30 139 O 16.3989 -1.30818 -1.43528 0
M  V30 140 C 13.5289 -2.62995 -2.26828 0
M  V30 141 C 12.4829 -3.76485 -2.03576 0
M  V30 142 C 11.8089 -4.13846 -3.38579 0
M  V30 143 C 13.1089 -5.0342 -1.39161 0
M  V30 144 H 14.8029 -2.94738 -0.526281 0
M  V30 145 H 12.3489 -1.41783 -0.251704 0
M  V30 146 H 14.3019 -2.99669 -2.96271 0
M  V30 147 H 13.0259 -1.7737 -2.7424 0
M  V30 148 H 11.6849 -3.40217 -1.36557 0
M  V30 149 H 11.3329 -3.25232 -3.83709 0
M  V30 150 H 11.0329 -4.90312 -3.23834 0
M  V30 151 H 12.5569 -4.53086 -4.09323 0
M  V30 152 H 13.9709 -5.37812 -1.98573 0
M  V30 153 H 12.3679 -5.84746 -1.34878 0
M  V30 154 H 13.4379 -4.83548 -0.361868 0
M  V30 155 N 14.781 0.264519 -1.55364 0
M  V30 156 C 16.192 0.834936 -1.6699 0
M  V30 157 C 16.543 1.86718 -0.602552 0
M  V30 158 O 15.668 2.14899 0.254425 0
M  V30 159 C 16.263 1.5212 -3.02729 0
M  V30 160 C 14.822 2.03954 -3.16354 0
M  V30 161 C 13.969 0.884498 -2.62815 0
M  V30 162 H 16.92 0.0406869 -1.58648 0
M  V30 163 H 16.941 2.38853 -2.96191 0
M  V30 164 H 16.453 0.769668 -3.80392 0
M  V30 165 H 14.554 2.82041 -2.43482 0
M  V30 166 H 14.667 2.24902 -4.23032 0
M  V30 167 H 13.031 1.2802 -2.20188 0
M  V30 168 H 13.814 0.14634 -3.42988 0
M  V30 169 N 16.2591 1.48442 0.529413 0
M  V30 170 C 17.1891 1.65902 1.64313 0
M  V30 171 C 18.1701 0.507897 1.6234 0
M  V30 172 O 19.3551 0.740503 1.79528 0
M  V30 173 C 16.4851 1.69911 3.02898 0
M  V30 174 C 15.4391 2.8453 3.19729 0
M  V30 175 C 14.7651 2.73629 4.59381 0
M  V30 176 C 16.0651 4.25821 3.02447 0
M  V30 177 H 17.7591 2.5914 1.49955 0
M  V30 178 H 15.3051 1.24709 0.719982 0
M  V30 179 H 17.2581 1.80715 3.80684 0
M  V30 180 H 15.9821 0.732524 3.18279 0
M  V30 181 H 14.6411 2.73283 2.44361 0
M  V30 182 H 14.2891 1.74938 4.71599 0
M  V30 183 H 13.9891 3.50541 4.71588 0
M  V30 184 H 15.5131 2.86401 5.39265 0
M  V30 185 H 16.9271 4.37898 3.70024 0
M  V30 186 H 15.3241 5.03735 3.26146 0
M  V30 187 H 16.3941 4.42244 1.98867 0
M  V30 188 N 17.7372 -0.778329 1.37039 0
M  V30 189 C 18.6672 -1.90546 1.34962 0
M  V30 190 C 19.6482 -1.68681 0.219274 0
M  V30 191 O 20.8332 -1.89634 0.418624 0
M  V30 192 C 17.9632 -3.27734 1.14925 0
M  V30 193 C 16.9172 -3.64147 2.24902 0
M  V30 194 C 16.2432 -4.99806 1.89996 0
M  V30 195 C 17.5432 -3.71579 3.67051 0
M  V30 196 H 19.2372 -1.92541 2.29277 0
M  V30 197 H 16.7832 -0.924948 1.10366 0
M  V30 198 H 18.7362 -4.06215 1.12104 0
M  V30 199 H 17.4602 -3.26154 0.170631 0
M  V30 200 H 16.1192 -2.8797 2.26868 0
M  V30 201 H 15.7672 -4.94759 0.906796 0
M  V30 202 H 15.4672 -5.25139 2.63634 0
M  V30 203 H 16.9912 -5.80694 1.88749 0
M  V30 204 H 18.4052 -4.40227 3.67251 0
M  V30 205 H 16.8022 -4.08405 4.39688 0
M  V30 206 H 17.8722 -2.72404 4.01154 0
M  V30 207 N 19.2153 -1.21501 -1.00376 0
M  V30 208 C 20.4643 -1.02718 -1.73586 0
M  V30 209 C 20.7773 0.439589 -1.90596 0
M  V30 210 O 21.9833 0.746848 -2.61026 0
M  V30 211 C 20.4393 -1.78929 -3.1227 0
M  V30 212 C 20.0473 -3.29783 -3.03228 0
M  V30 213 C 21.7913 -1.68557 -3.89601 0
M  V30 214 C 19.6983 -3.98479 -4.36999 0
M  V30 215 H 18.6283 -0.380733 -0.650814 0
M  V30 216 H 21.2793 -1.45248 -1.1214 0
M  V30 217 H 19.6613 -1.29192 -3.74333 0
M  V30 218 H 20.8353 -3.86832 -2.50395 0
M  V30 219 H 19.1503 -3.40711 -2.39385 0
M  V30 220 H 21.7473 -2.17211 -4.88593 0
M  V30 221 H 22.0903 -0.644021 -4.11288 0
M  V30 222 H 22.6233 -2.15778 -3.34193 0
M  V30 223 H 19.3623 -5.02841 -4.20513 0
M  V30 224 H 18.8823 -3.46219 -4.89788 0
M  V30 225 H 20.5613 -4.03462 -5.05794 0
M  V30 226 N 20.6934 1.19889 -1.02296 0
M  V30 227 C 22.1044 1.71124 -0.746568 0
M  V30 228 C 22.4554 1.81939 0.734335 0
M  V30 229 O 21.5804 1.48639 1.57275 0
M  V30 230 C 22.1754 3.10804 -1.34857 0
M  V30 231 C 20.7344 3.59323 -1.1209 0
M  V30 232 C 19.8814 2.3635 -1.45031 0
M  V30 233 H 22.8324 1.04813 -1.19163 0
M  V30 234 H 22.8534 3.73186 -0.742437 0
M  V30 235 H 22.3654 3.029 -2.42638 0
M  V30 236 H 20.4664 3.7255 -0.0610337 0
M  V30 237 H 20.5794 4.4378 -1.80544 0
M  V30 238 H 18.9434 2.39399 -0.869487 0
M  V30 239 H 19.7264 2.31081 -2.53883 0
M  V30 240 N 22.1715 0.800033 1.35784 0
M  V30 241 C 23.1345 0.211565 2.28221 0
M  V30 242 C 24.1345 -0.59728 1.49296 0
M  V30 243 O 25.3245 -0.416721 1.69142 0
M  V30 244 C 22.4565 -0.705846 3.33513 0
M  V30 245 H 23.6495 1.02677 2.81776 0
M  V30 246 H 21.2025 0.570211 1.45528 0
M  V30 247 H 21.9375 -1.54498 2.85133 0
M  V30 248 H 21.7225 -0.127655 3.91892 0
M  V30 249 H 23.2125 -1.11211 4.02519 0
M  V30 250 N 23.6496 -1.47581 0.552962 0
M  V30 251 C 25.0606 -1.86324 0.118463 0
M  V30 252 C 25.4116 -1.46006 -1.3106 0
M  V30 253 O 24.5366 -0.861182 -1.98526 0
M  V30 254 C 25.1316 -3.3816 0.20821 0
M  V30 255 C 23.6906 -3.7601 -0.171226 0
M  V30 256 C 22.8376 -2.71634 0.557686 0
M  V30 257 H 25.7886 -1.39159 0.762928 0
M  V30 258 H 25.8096 -3.76141 -0.574278 0
M  V30 259 H 25.3216 -3.67473 1.24841 0
M  V30 260 H 23.4226 -3.52313 -1.21269 0
M  V30 261 H 23.5356 -4.78745 0.184379 0
M  V30 262 H 21.8996 -2.547 0.00125792 0
M  V30 263 H 22.6826 -3.0379 1.59896 0
M  V30 264 N 25.1277 -0.289203 -1.54924 0
M  V30 265 C 26.0907 0.579144 -2.21762 0
M  V30 266 C 27.0907 1.07047 -1.1999 0
M  V30 267 O 28.2807 0.968384 -1.44803 0
M  V30 268 C 25.4127 1.80055 -2.8947 0
M  V30 269 H 26.6057 -0.00464908 -2.999 0
M  V30 270 H 24.1587 -0.0399306 -1.56249 0
M  V30 271 H 24.8937 2.42449 -2.15381 0
M  V30 272 H 24.6787 1.45602 -3.64064 0
M  V30 273 H 26.1687 2.41773 -3.40493 0
M  V30 274 N 26.6058 1.57591 -0.0167156 0
M  V30 275 C 28.0168 1.79201 0.523834 0
M  V30 276 C 28.3678 0.925796 1.72984 0
M  V30 277 O 27.4928 0.132792 2.15992 0
M  V30 278 C 28.0878 3.25 0.957091 0
M  V30 279 C 26.6468 3.47648 1.44283 0
M  V30 280 C 25.7938 2.74374 0.401757 0
M  V30 281 H 28.7448 1.56831 -0.242816 0
M  V30 282 H 28.7658 3.34031 1.82219 0
M  V30 283 H 28.2778 3.88019 0.0791415 0
M  V30 284 H 26.3788 2.89866 2.34113 0
M  V30 285 H 26.4918 4.56352 1.45877 0
M  V30 286 H 24.8558 2.39485 0.867121 0
M  V30 287 H 25.6388 3.40102 -0.467513 0
M  V30 288 N 28.0839 -0.256276 1.55502 0
M  V30 289 C 29.3319 -0.983672 1.76545 0
M  V30 290 C 29.6529 -1.86206 0.578982 0
M  V30 291 O 28.9229 -1.91656 -0.405577 0
M  V30 292 H 27.5029 -0.366191 0.651086 0
M  V30 293 H 30.1649 -0.276479 1.92929 0
M  V30 294 H 29.2609 -1.61087 2.67315 0
M  V30 295 N 29.562 -1.4872 -0.521534 0
M  V30 296 C 30.492 -1.66771 -1.63431 0
M  V30 297 C 31.473 -0.516499 -1.62069 0
M  V30 298 O 32.658 -0.750013 -1.79132 0
M  V30 299 C 29.788 -1.71515 -3.01993 0
M  V30 300 C 28.742 -2.86222 -3.18216 0
M  V30 301 C 28.068 -2.76061 -4.57924 0
M  V30 302 C 29.368 -4.27419 -3.00184 0
M  V30 303 H 31.062 -2.59932 -1.48579 0
M  V30 304 H 28.608 -1.25089 -0.713358 0
M  V30 305 H 30.561 -1.82731 -3.7972 0
M  V30 306 H 29.285 -0.749393 -3.17886 0
M  V30 307 H 27.944 -2.74575 -2.42908 0
M  V30 308 H 27.592 -1.77437 -4.70665 0
M  V30 309 H 27.292 -3.53037 -4.69722 0
M  V30 310 H 28.816 -2.89256 -5.37739 0
M  V30 311 H 30.23 -4.39855 -3.67697 0
M  V30 312 H 28.627 -5.05458 -3.2347 0
M  V30 313 H 29.697 -4.43293 -1.96518 0
M  V30 314 N 31.0401 0.771051 -1.3745 0
M  V30 315 C 32.2681 1.56015 -1.35893 0
M  V30 316 C 32.6831 1.88718 0.0555523 0
M  V30 317 O 32.0401 1.51502 1.01752 0
M  V30 318 C 32.0911 2.87001 -2.19801 0
M  V30 319 O 31.8121 2.557 -3.55738 0
M  V30 320 C 33.3131 3.81228 -2.26231 0
M  V30 321 H 30.5331 0.483317 -0.465453 0
M  V30 322 H 33.0771 0.955611 -1.80799 0
M  V30 323 H 31.2321 3.43877 -1.78402 0
M  V30 324 H 31.6461 3.39584 -3.99729 0
M  V30 325 H 33.1201 4.70139 -2.89263 0
M  V30 326 H 33.5971 4.20409 -1.27093 0
M  V30 327 H 34.2031 3.30281 -2.67945 0
M  V30 328 N 32.5182 1.22032 0.997298 0
M  V30 329 C 33.7642 1.04376 1.73878 0
M  V30 330 C 34.0972 -0.420716 1.89588 0
M  V30 331 O 33.3722 -1.31202 1.43583 0
M  V30 332 C 33.6552 1.75047 3.14691 0
M  V30 333 C 33.5082 3.29062 3.06656 0
M  V30 334 C 34.8272 1.49928 4.13775 0
M  V30 335 H 31.9462 0.380578 0.631133 0
M  V30 336 H 34.5882 1.50312 1.16217 0
M  V30 337 H 32.7382 1.35996 3.63919 0
M  V30 338 H 34.4102 3.7753 2.65083 0
M  V30 339 H 32.6532 3.58967 2.43568 0
M  V30 340 H 33.3242 3.73683 4.06282 0
M  V30 341 H 35.8002 1.83842 3.73285 0
M  V30 342 H 34.6762 2.01878 5.10428 0
M  V30 343 H 34.9372 0.430929 4.39995 0
M  V30 344 N 33.9963 -1.19345 1.0293 0
M  V30 345 C 34.9283 -2.22036 0.56857 0
M  V30 346 C 35.9413 -1.58865 -0.355779 0
M  V30 347 O 37.1303 -1.77851 -0.152103 0
M  V30 348 C 34.2303 -3.38363 -0.190752 0
M  V30 349 C 33.4033 -4.31118 0.738643 0
M  V30 350 C 32.4623 -5.26194 0.0246497 0
M  V30 351 O 31.4883 -5.65461 0.651354 0
M  V30 352 N 32.6903 -5.66971 -1.24594 0
M  V30 353 H 35.4553 -2.6219 1.45177 0
M  V30 354 H 33.0163 -1.34015 0.908381 0
M  V30 355 H 35.0083 -3.98981 -0.677961 0
M  V30 356 H 33.5783 -2.96994 -0.975366 0
M  V30 357 H 32.7983 -3.68276 1.40593 0
M  V30 358 H 34.0863 -4.90001 1.37029 0
M  V30 359 H 33.4843 -5.37104 -1.77583 0
M  V30 360 H 32.0413 -6.2984 -1.67764 0
M  V30 361 N 35.4744 -0.807222 -1.35358 0
M  V30 362 C 36.4044 -0.232509 -2.3234 0
M  V30 363 C 37.3854 0.642386 -1.57504 0
M  V30 364 O 38.5704 0.572526 -1.85569 0
M  V30 365 C 35.7004 0.619238 -3.41735 0
M  V30 366 C 34.6544 -0.157215 -4.27711 0
M  V30 367 C 33.9804 0.816273 -5.28433 0
M  V30 368 C 35.2804 -1.35656 -5.04376 0
M  V30 369 H 36.9744 -1.04276 -2.80654 0
M  V30 370 H 34.5204 -0.50288 -1.34934 0
M  V30 371 H 36.4734 1.03137 -4.08584 0
M  V30 372 H 35.1974 1.46239 -2.92031 0
M  V30 373 H 33.8564 -0.550525 -3.62443 0
M  V30 374 H 33.5044 1.65494 -4.74996 0
M  V30 375 H 33.2044 0.301067 -5.86828 0
M  V30 376 H 34.7284 1.22659 -5.98153 0
M  V30 377 H 36.1424 -1.01927 -5.64166 0
M  V30 378 H 34.5394 -1.8063 -5.7227 0
M  V30 379 H 35.6094 -2.14288 -4.34981 0
M  V30 380 N 36.9525 1.47285 -0.560781 0
M  V30 381 C 37.8825 2.32857 0.173105 0
M  V30 382 C 38.8635 1.44009 0.905281 0
M  V30 383 O 40.0485 1.7286 0.885046 0
M  V30 384 C 37.1785 3.25861 1.20133 0
M  V30 385 C 36.1325 4.23978 0.585388 0
M  V30 386 C 35.4585 5.06332 1.7185 0
M  V30 387 C 36.7585 5.20242 -0.463178 0
M  V30 388 H 38.4525 2.94466 -0.541307 0
M  V30 389 H 35.9985 1.41601 -0.261764 0
M  V30 390 H 37.9515 3.84569 1.72293 0
M  V30 391 H 36.6755 2.62315 1.94573 0
M  V30 392 H 35.3345 3.66501 0.085054 0
M  V30 393 H 34.9825 4.39186 2.45203 0
M  V30 394 H 34.6825 5.72762 1.31213 0
M  V30 395 H 36.2065 5.67899 2.24329 0
M  V30 396 H 37.6205 5.73293 -0.027502 0
M  V30 397 H 36.0175 5.94896 -0.788627 0
M  V30 398 H 37.0875 4.65504 -1.35773 0
M  V30 399 N 38.4306 0.297415 1.54768 0
M  V30 400 C 39.3606 -0.573494 2.26348 0
M  V30 401 C 40.3416 -1.14085 1.26169 0
M  V30 402 O 41.5266 -1.17086 1.54934 0
M  V30 403 C 38.6566 -1.74716 3.00153 0
M  V30 404 C 37.6106 -1.31032 4.07449 0
M  V30 405 C 36.9366 -2.56887 4.68949 0
M  V30 406 C 38.2366 -0.444183 5.20408 0
M  V30 407 H 39.9306 0.0235131 2.99391 0
M  V30 408 H 37.4766 0.0127488 1.43994 0
M  V30 409 H 39.4296 -2.3625 3.48947 0
M  V30 410 H 38.1536 -2.37035 2.24682 0
M  V30 411 H 36.8126 -0.718066 3.59499 0
M  V30 412 H 36.4606 -3.17512 3.90122 0
M  V30 413 H 36.1606 -2.2836 5.41411 0
M  V30 414 H 37.6846 -3.19229 5.20505 0
M  V30 415 H 39.0986 -0.9651 5.65118 0
M  V30 416 H 37.4956 -0.252846 5.99567 0
M  V30 417 H 38.5656 0.531609 4.81977 0
M  V30 418 N 39.9087 -1.5758 0.0250728 0
M  V30 419 C 41.1337 -1.96337 -0.668317 0
M  V30 420 C 41.5587 -0.901314 -1.651 0
M  V30 421 O 40.9167 0.138187 -1.80773 0
M  V30 422 C 40.9647 -3.34191 -1.35457 0
M  V30 423 O 40.0687 -3.30269 -2.46974 0
M  V30 424 H 39.4097 -0.640281 -0.175887 0
M  V30 425 H 41.9397 -2.0442 0.0857224 0
M  V30 426 H 41.9497 -3.70331 -1.71228 0
M  V30 427 H 40.6247 -4.11036 -0.634218 0
M  V30 428 H 39.2017 -3.05841 -2.13344 0
M  V30 429 N 41.3868 0.248026 -1.55636 0
M  V30 430 C 42.3168 1.31079 -1.93237 0
M  V30 431 C 43.2978 1.50264 -0.797174 0
M  V30 432 O 44.4828 1.62891 -1.05737 0
M  V30 433 C 41.6128 2.66575 -2.22609 0
M  V30 434 C 40.5668 2.62087 -3.3837 0
M  V30 435 C 39.8928 4.01369 -3.53281 0
M  V30 436 C 41.1928 2.19171 -4.7409 0
M  V30 437 H 42.8868 0.998556 -2.82257 0
M  V30 438 H 40.4328 0.47891 -1.35803 0
M  V30 439 H 42.3858 3.41057 -2.47503 0
M  V30 440 H 41.1098 2.99432 -1.30414 0
M  V30 441 H 39.7688 1.90063 -3.13483 0
M  V30 442 H 39.4168 4.31489 -2.58508 0
M  V30 443 H 39.1168 3.99254 -4.31127 0
M  V30 444 H 40.6408 4.77552 -3.80495 0
M  V30 445 H 42.0548 2.83384 -4.98363 0
M  V30 446 H 40.4518 2.2817 -5.5503 0
M  V30 447 H 41.5218 1.14336 -4.71227 0
M  V30 448 N 42.8649 1.48995 0.513639 0
M  V30 449 C 43.7949 1.67636 1.62544 0
M  V30 450 C 44.7759 0.525087 1.61793 0
M  V30 451 O 45.9609 0.759502 1.78732 0
M  V30 452 C 43.0909 1.73114 3.01079 0
M  V30 453 C 42.0449 2.87905 3.16693 0
M  V30 454 C 41.3709 2.78486 4.56453 0
M  V30 455 C 42.6709 4.29005 2.97913 0
M  V30 456 H 44.3649 2.60716 1.47198 0
M  V30 457 H 41.9109 1.25465 0.706714 0
M  V30 458 H 43.8639 1.84742 3.78746 0
M  V30 459 H 42.5879 0.766241 3.17484 0
M  V30 460 H 41.2469 2.75859 2.41448 0
M  V30 461 H 40.8949 1.7993 4.69717 0
M  V30 462 H 40.5949 3.55523 4.67843 0
M  V30 463 H 42.1189 2.92104 5.36197 0
M  V30 464 H 43.5329 4.41798 3.65359 0
M  V30 465 H 41.9299 5.07166 3.20785 0
M  V30 466 H 42.9999 4.44329 1.94165 0
M  V30 467 N 44.343 -0.763751 1.37857 0
M  V30 468 C 45.273 -1.89103 1.36975 0
M  V30 469 C 46.254 -1.68439 0.237152 0
M  V30 470 O 47.439 -1.8918 0.438713 0
M  V30 471 C 44.569 -3.26496 1.18395 0
M  V30 472 C 43.523 -3.61741 2.28751 0
M  V30 473 C 42.849 -4.97762 1.95286 0
M  V30 474 C 44.149 -3.67665 3.70972 0
M  V30 475 H 45.843 -1.90099 2.31307 0
M  V30 476 H 43.389 -0.91319 1.11341 0
M  V30 477 H 45.342 -4.05003 1.16406 0
M  V30 478 H 44.066 -3.25955 0.205215 0
M  V30 479 H 42.725 -2.85547 2.29909 0
M  V30 480 H 42.373 -4.93769 0.959221 0
M  V30 481 H 42.073 -5.22313 2.69189 0
M  V30 482 H 43.597 -5.7866 1.94898 0
M  V30 483 H 45.011 -4.36307 3.719 0
M  V30 484 H 43.408 -4.03718 4.43995 0
M  V30 485 H 44.478 -2.68134 4.0402 0
M  V30 486 N 45.8211 -1.22559 -0.990812 0
M  V30 487 C 46.7511 -1.0218 -2.09956 0
M  V30 488 C 47.7321 0.0579394 -1.70001 0
M  V30 489 O 48.9171 -0.104684 -1.93918 0
M  V30 490 C 46.0471 -0.601023 -3.4206 0
M  V30 491 C 45.0011 -1.62694 -3.95872 0
M  V30 492 C 44.3271 -1.06193 -5.24049 0
M  V30 493 C 45.6271 -3.01743 -4.2632 0
M  V30 494 H 47.3211 -1.94916 -2.27262 0
M  V30 495 H 44.8671 -0.938566 -1.09211 0
M  V30 496 H 46.8201 -0.445561 -4.19038 0
M  V30 497 H 45.5441 0.362005 -3.24588 0
M  V30 498 H 44.2031 -1.77021 -3.21028 0
M  V30 499 H 43.8511 -0.0901903 -5.02919 0
M  V30 500 H 43.5511 -1.74732 -5.61019 0
M  V30 501 H 45.0751 -0.918092 -6.03658 0
M  V30 502 H 46.4891 -2.90777 -4.94087 0
M  V30 503 H 44.8861 -3.67425 -4.74467 0
M  V30 504 H 45.9561 -3.51518 -3.34011 0
M  V30 505 N 47.2992 1.18797 -1.03562 0
M  V30 506 C 48.5452 1.8893 -0.737113 0
M  V30 507 C 48.8782 1.79837 0.732956 0
M  V30 508 O 48.1532 1.19525 1.5344 0
M  V30 509 C 48.4362 3.39607 -1.19745 0
M  V30 510 C 48.2892 3.57537 -2.72924 0
M  V30 511 C 49.6082 4.33069 -0.783526 0
M  V30 512 H 46.7272 0.686057 -0.269249 0
M  V30 513 H 49.3692 1.39797 -1.28673 0
M  V30 514 H 47.5192 3.81583 -0.729855 0
M  V30 515 H 49.1912 3.24688 -3.27682 0
M  V30 516 H 47.4342 3.00363 -3.12993 0
M  V30 517 H 48.1052 4.63238 -3.00191 0
M  V30 518 H 50.5812 3.98846 -1.18581 0
M  V30 519 H 49.4572 5.3707 -1.13343 0
M  V30 520 H 49.7182 4.40986 0.313681 0
M  V30 521 N 48.7773 0.814389 1.34928 0
M  V30 522 C 50.1883 0.458364 1.80986 0
M  V30 523 C 50.5393 -1.02042 1.67577 0
M  V30 524 O 49.6643 -1.79352 1.21086 0
M  V30 525 C 50.2593 0.825212 3.28597 0
M  V30 526 C 48.8183 0.521677 3.72767 0
M  V30 527 C 47.9653 1.04668 2.56788 0
M  V30 528 H 50.9163 1.00533 1.22795 0
M  V30 529 H 50.9373 0.12571 3.80292 0
M  V30 530 H 50.4493 1.90154 3.38324 0
M  V30 531 H 48.5503 -0.545589 3.68584 0
M  V30 532 H 48.6633 1.05977 4.67232 0
M  V30 533 H 47.0273 0.468622 2.50352 0
M  V30 534 H 47.8103 2.12927 2.6929 0
M  V30 535 N 50.2554 -1.46986 0.568584 0
M  V30 536 C 51.5014 -2.02741 0.0488709 0
M  V30 537 C 51.8344 -1.44077 -1.30214 0
M  V30 538 O 51.1094 -0.600552 -1.84996 0
M  V30 539 C 51.3924 -3.60086 -0.032047 0
M  V30 540 C 51.2454 -4.29162 1.34686 0
M  V30 541 C 52.5644 -4.33838 -0.739798 0
M  V30 542 H 49.6834 -0.736749 0.0192338 0
M  V30 543 H 52.3254 -1.75289 0.733065 0
M  V30 544 H 50.4754 -3.83606 -0.61473 0
M  V30 545 H 52.1474 -4.16948 1.97362 0
M  V30 546 H 50.3904 -3.89073 1.91846 0
M  V30 547 H 51.0614 -5.37826 1.24285 0
M  V30 548 H 53.5374 -4.15378 -0.244939 0
M  V30 549 H 52.4134 -5.43537 -0.765406 0
M  V30 550 H 52.6744 -4.03875 -1.79827 0
M  V30 551 N 51.7335 -0.305618 -1.54608 0
M  V30 552 C 52.6835 0.583595 -2.20405 0
M  V30 553 C 53.6675 1.09539 -1.17856 0
M  V30 554 O 54.8595 1.0354 -1.43557 0
M  V30 555 C 51.9885 1.75277 -2.95183 0
M  V30 556 C 51.0745 1.25672 -4.05052 0
M  V30 557 N 51.4655 0.478998 -5.03527 0
M  V30 558 C 49.7635 1.53704 -4.18678 0
M  V30 559 C 50.4645 0.214269 -5.81305 0
M  V30 560 N 49.4405 0.795374 -5.3775 0
M  V30 561 H 53.2425 -0.0180946 -2.93894 0
M  V30 562 H 50.7565 -0.110601 -1.62023 0
M  V30 563 H 52.7535 2.4014 -3.40791 0
M  V30 564 H 51.4135 2.35812 -2.23211 0
M  V30 565 H 52.4245 0.123473 -5.17753 0
M  V30 566 H 49.1015 2.14954 -3.57912 0
M  V30 567 H 50.4915 -0.410656 -6.70644 0
M  V30 568 N 53.2116 1.57565 -0.0334293 0
M  V30 569 C 54.6226 1.79746 0.504798 0
M  V30 570 C 54.9736 0.944091 1.71992 0
M  V30 571 O 54.0986 0.155694 2.15839 0
M  V30 572 C 54.6936 3.25997 0.922567 0
M  V30 573 C 53.2526 3.49159 1.40588 0
M  V30 574 C 52.3996 2.74785 0.372633 0
M  V30 575 H 55.3506 1.56565 -0.259436 0
M  V30 576 H 55.3716 3.35945 1.78666 0
M  V30 577 H 54.8836 3.88081 0.0379825 0
M  V30 578 H 52.9846 2.92332 2.31025 0
M  V30 579 H 53.0976 4.57873 1.41028 0
M  V30 580 H 51.4616 2.40391 0.841672 0
M  V30 581 H 52.2446 3.39587 -0.503559 0
M  V30 582 N 54.6897 -0.239769 1.55765 0
M  V30 583 C 55.6217 -1.32001 1.87372 0
M  V30 584 C 56.6347 -1.43944 0.760522 0
M  V30 585 O 57.8237 -1.45167 1.0387 0
M  V30 586 C 54.9237 -2.69779 2.05115 0
M  V30 587 C 54.0967 -2.80014 3.36022 0
M  V30 588 C 53.1557 -3.98684 3.4342 0
M  V30 589 O 52.1817 -3.87877 4.16582 0
M  V30 590 N 53.3837 -5.12176 2.73232 0
M  V30 591 H 56.1487 -1.0522 2.80622 0
M  V30 592 H 53.7097 -0.429857 1.56089 0
M  V30 593 H 55.7017 -3.47517 2.07399 0
M  V30 594 H 54.2717 -2.89237 1.18577 0
M  V30 595 H 53.4917 -1.88896 3.45994 0
M  V30 596 H 54.7797 -2.83808 4.22292 0
M  V30 597 H 54.1777 -5.2385 2.13536 0
M  V30 598 H 52.7347 -5.88022 2.81199 0
M  V30 599 N 56.1678 -1.49265 -0.50573 0
M  V30 600 C 57.5838 -1.35923 -0.836486 0
M  V30 601 C 57.7838 -0.388704 -1.97715 0
M  V30 602 O 56.8398 0.181336 -2.51848 0
M  V30 603 C 58.1528 -2.76531 -1.18115 0
M  V30 604 C 59.7008 -2.85197 -1.28964 0
M  V30 605 C 60.1758 -4.26561 -1.66761 0
M  V30 606 N 61.6668 -4.2935 -1.73819 0
M  V30 607 C 62.4018 -5.35693 -2.045 0
M  V30 608 N 61.8978 -6.52287 -2.33438 0
M  V30 609 N 63.6908 -5.23105 -2.05711 0
M  V30 610 H 55.8418 -2.10965 0.246519 0
M  V30 611 H 58.1048 -0.9468 0.0476887 0
M  V30 612 H 57.8108 -3.49226 -0.416398 0
M  V30 613 H 57.6848 -3.11599 -2.1257 0
M  V30 614 H 60.0718 -2.12742 -2.04511 0
M  V30 615 H 60.1528 -2.53718 -0.325704 0
M  V30 616 H 59.7968 -4.99541 -0.917656 0
M  V30 617 H 59.7268 -4.55502 -2.64246 0
M  V30 618 H 62.2178 -3.4526 -1.53635 0
M  V30 619 H 62.5308 -7.29158 -2.56024 0
M  V30 620 H 60.8758 -6.55521 -2.30905 0
M  V30 621 H 64.0668 -4.31026 -1.82577 0
M  V30 622 H 64.2398 -6.06078 -2.29289 0
M  V30 623 N 57.6459 0.756429 -1.3826 0
M  V30 624 C 58.5759 1.88374 -1.37976 0
M  V30 625 C 59.5569 1.68311 -0.246082 0
M  V30 626 O 60.7419 1.88944 -0.44874 0
M  V30 627 C 57.8719 3.25864 -1.20125 0
M  V30 628 C 56.8259 3.60523 -2.30666 0
M  V30 629 C 56.1519 4.9672 -1.97923 0
M  V30 630 C 57.4519 3.65692 -3.72916 0
M  V30 631 H 59.1459 1.88869 -2.32312 0
M  V30 632 H 56.6919 0.907272 -1.11824 0
M  V30 633 H 58.6449 4.0438 -1.18552 0
M  V30 634 H 57.3689 3.25841 -0.222498 0
M  V30 635 H 56.0279 2.84324 -2.3142 0
M  V30 636 H 55.6759 4.93253 -0.985393 0
M  V30 637 H 55.3759 5.20878 -2.71955 0
M  V30 638 H 56.8999 5.77618 -1.97964 0
M  V30 639 H 58.3139 4.34328 -3.74208 0
M  V30 640 H 56.7109 4.01358 -4.4613 0
M  V30 641 H 57.7809 2.65987 -4.05436 0
M  V30 642 N 59.124 1.23083 0.984299 0
M  V30 643 C 60.535 1.05609 1.5396 0
M  V30 644 C 60.886 -0.377793 1.92528 0
M  V30 645 O 60.011 -1.26398 1.75649 0
M  V30 646 C 60.606 1.91087 2.7977 0
M  V30 647 C 59.165 1.77885 3.31713 0
M  V30 648 C 58.312 1.87028 2.04733 0
M  V30 649 H 61.263 1.36802 0.804419 0
M  V30 650 H 61.284 1.43336 3.5247 0
M  V30 651 H 60.796 2.9544 2.51668 0
M  V30 652 H 58.897 0.762995 3.64704 0
M  V30 653 H 59.01 2.61047 4.01735 0
M  V30 654 H 57.374 1.30565 2.18689 0
M  V30 655 H 58.157 2.92929 1.79017 0
M  V30 656 N 60.6021 -1.18246 1.0419 0
M  V30 657 C 62.0181 -1.40269 0.761366 0
M  V30 658 C 62.2181 -1.90777 -0.648578 0
M  V30 659 O 61.2741 -2.0929 -1.41258 0
M  V30 660 C 62.5871 -2.40237 1.8085 0
M  V30 661 C 64.1351 -2.53961 1.82955 0
M  V30 662 C 64.6101 -3.57194 2.86664 0
M  V30 663 N 66.1011 -3.64702 2.85563 0
M  V30 664 C 66.8361 -4.44309 3.6246 0
M  V30 665 N 66.3321 -5.27514 4.49111 0
M  V30 666 N 68.1251 -4.39084 3.50944 0
M  V30 667 H 60.2761 -0.837882 1.95175 0
M  V30 668 H 62.5391 -0.430608 0.84456 0
M  V30 669 H 62.2451 -2.10176 2.81991 0
M  V30 670 H 62.1191 -3.39601 1.64168 0
M  V30 671 H 64.5061 -2.83338 0.824855 0
M  V30 672 H 64.5871 -1.54706 2.03715 0
M  V30 673 H 64.2311 -3.28558 3.87314 0
M  V30 674 H 64.1611 -4.5613 2.6316 0
M  V30 675 H 66.6521 -3.05289 2.22727 0
M  V30 676 H 66.9651 -5.85411 5.04493 0
M  V30 677 H 65.3101 -5.2693 4.53178 0
M  V30 678 H 68.5011 -3.7313 2.82651 0
M  V30 679 H 68.6741 -5.00883 4.11121 0
M  V30 680 N 62.0802 -0.821533 -1.34494 0
M  V30 681 C 63.0132 -0.187704 -2.27427 0
M  V30 682 C 63.9912 0.65507 -1.48821 0
M  V30 683 O 65.1752 0.619111 -1.78043 0
M  V30 684 C 62.3022 0.737996 -3.30562 0
M  V30 685 C 61.3482 -0.0270713 -4.26491 0
M  V30 686 S 62.1812 -1.37329 -5.17592 0
M  V30 687 C 63.3372 -0.452427 -6.24263 0
M  V30 688 H 63.5702 -0.975598 -2.80837 0
M  V30 689 H 61.1032 -0.61736 -1.4152 0
M  V30 690 H 63.0612 1.26654 -3.90473 0
M  V30 691 H 61.7222 1.4994 -2.76001 0
M  V30 692 H 60.9152 0.6766 -4.99438 0
M  V30 693 H 60.5172 -0.48612 -3.70827 0
M  V30 694 H 62.8092 0.356557 -6.76561 0
M  V30 695 H 63.7522 -1.15153 -6.98674 0
M  V30 696 H 64.1602 -0.0414755 -5.64485 0
M  V30 697 N 63.5583 1.46682 -0.576371 0
M  V30 698 C 64.4903 2.28341 0.198231 0
M  V30 699 C 65.5033 1.38141 0.861453 0
M  V30 700 O 66.6923 1.62797 0.732082 0
M  V30 701 C 63.7923 3.12986 1.29972 0
M  V30 702 C 62.9653 4.31271 0.729639 0
M  V30 703 C 62.0243 4.97363 1.71803 0
M  V30 704 O 61.0503 5.55156 1.25658 0
M  V30 705 N 62.2523 4.93796 3.05198 0
M  V30 706 H 65.0173 2.9546 -0.502324 0
M  V30 707 H 62.5783 1.56525 -0.413715 0
M  V30 708 H 64.5703 3.54066 1.96008 0
M  V30 709 H 63.1403 2.47984 1.90323 0
M  V30 710 H 62.3603 3.94052 -0.108012 0
M  V30 711 H 63.6483 5.07739 0.328438 0
M  V30 712 H 63.0463 4.48077 3.45317 0
M  V30 713 H 61.6033 5.38837 3.6674 0
M  V30 714 N 65.0364 0.313813 1.54444 0
M  V30 715 C 65.9464 -0.565714 2.27677 0
M  V30 716 C 66.9624 -1.13754 1.31666 0
M  V30 717 O 68.1384 -1.15959 1.64668 0
M  V30 718 C 65.2034 -1.71528 3.01296 0
M  V30 719 C 64.2644 -1.17624 4.12872 0
M  V30 720 C 63.4974 -2.27102 4.8297 0
M  V30 721 O 63.7204 -3.47256 4.52514 0
M  V30 722 O 62.6544 -1.9307 5.70094 0
M  V30 723 H 66.4804 0.0287296 3.03686 0
M  V30 724 H 64.0654 0.0798312 1.49187 0
M  V30 725 H 65.9474 -2.38476 3.4743 0
M  V30 726 H 64.6224 -2.29608 2.2817 0
M  V30 727 H 63.5294 -0.472124 3.71109 0
M  V30 728 H 64.8624 -0.640695 4.88012 0
M  V30 729 N 66.5145 -1.57545 0.0417849 0
M  V30 730 C 67.7915 -1.83642 -0.673433 0
M  V30 731 C 68.1715 -0.928298 -1.89594 0
M  V30 732 O 67.5195 0.0129955 -2.28496 0
M  V30 733 C 67.7295 -3.33155 -1.03964 0
M  V30 734 C 69.0775 -3.99941 -1.42592 0
M  V30 735 O 70.1015 -3.37725 -1.13226 0
M  V30 736 O 68.9605 -5.09619 -1.9736 0
M  V30 737 H 66.0545 -0.757638 -0.331533 0
M  V30 738 H 68.6005 -1.69554 0.070433 0
M  V30 739 H 67.3725 -3.9093 -0.170098 0
M  V30 740 H 66.9955 -3.52396 -1.84126 0
M  V30 741 N 67.9926 0.231505 -1.5589 0
M  V30 742 C 69.2176 0.978689 -1.82856 0
M  V30 743 C 69.6426 1.77559 -0.620846 0
M  V30 744 O 69.0006 1.76119 0.430305 0
M  V30 745 C 69.0486 1.87997 -3.07716 0
M  V30 746 O 68.1526 2.97393 -2.85712 0
M  V30 747 H 67.4936 0.277663 -0.603158 0
M  V30 748 H 70.0236 0.24783 -2.03093 0
M  V30 749 H 70.0336 2.2917 -3.37558 0
M  V30 750 H 68.7086 1.29417 -3.95252 0
M  V30 751 H 67.2856 2.60238 -2.67078 0
M  V30 752 N 69.4707 1.49531 0.497807 0
M  V30 753 C 70.8817 1.52344 1.07927 0
M  V30 754 C 71.2327 0.311469 1.93712 0
M  V30 755 O 70.3577 -0.578405 2.08527 0
M  V30 756 C 70.9527 2.76062 1.96405 0
M  V30 757 C 69.5117 2.81643 2.49709 0
M  V30 758 C 68.6587 2.46299 1.27404 0
M  V30 759 H 71.6097 1.56182 0.281576 0
M  V30 760 H 71.6307 2.56405 2.81135 0
M  V30 761 H 71.1427 3.64254 1.33943 0
M  V30 762 H 69.2437 1.97739 3.15801 0
M  V30 763 H 69.3567 3.83891 2.86643 0
M  V30 764 H 67.7207 1.98148 1.60029 0
M  V30 765 H 68.5037 3.36769 0.66645 0
M  V30 766 N 70.9488 -0.749086 1.3866 0
M  V30 767 C 71.8788 -1.8764 1.38973 0
M  V30 768 C 72.8598 -1.68178 0.255004 0
M  V30 769 O 74.0448 -1.88704 0.458754 0
M  V30 770 C 71.1748 -3.25222 1.21851 0
M  V30 771 C 70.1288 -3.59295 2.32575 0
M  V30 772 C 69.4548 -4.95663 2.00555 0
M  V30 773 C 70.7548 -3.63709 3.7485 0
M  V30 774 H 72.4488 -1.87635 2.3331 0
M  V30 775 H 69.9948 -0.901329 1.12303 0
M  V30 776 H 71.9478 -4.03746 1.20695 0
M  V30 777 H 70.6718 -3.25719 0.239775 0
M  V30 778 H 69.3308 -2.83093 2.32925 0
M  V30 779 H 68.9788 -4.92724 1.01154 0
M  V30 780 H 68.6788 -5.19429 2.74714 0
M  V30 781 H 70.2028 -5.7656 2.01024 0
M  V30 782 H 71.6168 -4.32338 3.76506 0
M  V30 783 H 70.0138 -3.98986 4.48252 0
M  V30 784 H 71.0838 -2.63834 4.06841 0
M  V30 785 N 72.4269 -1.23603 -0.977757 0
M  V30 786 C 73.6749 -1.06759 -1.71601 0
M  V30 787 C 73.9959 0.395929 -1.90938 0
M  V30 788 O 73.2659 1.28356 -1.47992 0
M  V30 789 H 71.8459 -0.392062 -0.635843 0
M  V30 790 H 74.5079 -1.55362 -1.1768 0
M  V30 791 H 73.6039 -1.55763 -2.70452 0
M  V30 792 N 73.905 1.17692 -1.04816 0
M  V30 793 C 75.153 1.87488 -0.754497 0
M  V30 794 C 75.474 1.81205 0.720407 0
M  V30 795 O 74.744 1.23544 1.52032 0
M  V30 796 H 73.324 0.694101 -0.276102 0
M  V30 797 H 75.986 1.42793 -1.32651 0
M  V30 798 H 75.082 2.93328 -1.06606 0
M  V30 799 N 75.3831 0.828654 1.34056 0
M  V30 800 C 76.6311 0.41863 1.97717 0
M  V30 801 C 76.9521 -1.02314 1.66002 0
M  V30 802 O 76.2221 -1.71119 0.953683 0
M  V30 803 H 74.8021 0.151809 0.731412 0
M  V30 804 H 77.4641 1.05936 1.63596 0
M  V30 805 H 76.5601 0.542318 3.07352 0
M  V30 806 N 76.8612 -1.46375 0.584142 0
M  V30 807 C 78.0862 -2.07268 0.0740405 0
M  V30 808 C 78.5112 -1.42979 -1.22223 0
M  V30 809 O 77.8692 -0.514092 -1.73859 0
M  V30 810 C 77.9172 -3.60518 -0.0767769 0
M  V30 811 O 77.0212 -3.96533 -1.13292 0
M  V30 812 H 76.3622 -0.660961 0.0634524 0
M  V30 813 H 78.8922 -1.87991 0.807492 0
M  V30 814 H 78.9022 -4.07021 -0.282489 0
M  V30 815 H 77.5772 -4.06702 0.86986 0
M  V30 816 H 76.1542 -3.61738 -0.905553 0
M  V30 817 N 78.3393 -0.321999 -1.54275 0
M  V30 818 C 79.5643 0.285791 -2.05422 0
M  V30 819 C 79.9893 1.45124 -1.19669 0
M  V30 820 O 79.3473 1.80132 -0.205441 0
M  V30 821 C 79.3953 0.69956 -3.53749 0
M  V30 822 O 78.4993 1.8021 -3.70942 0
M  V30 823 H 77.8403 0.0518962 -0.661969 0
M  V30 824 H 80.3703 -0.469954 -1.9913 0
M  V30 825 H 80.3803 0.982649 -3.9599 0
M  V30 826 H 79.0553 -0.152864 -4.15619 0
M  V30 827 H 77.6323 1.51794 -3.40607 0
M  V30 828 N 79.8174 1.5752 -0.0501392 0
M  V30 829 C 81.0654 1.9227 0.622642 0
M  V30 830 C 81.3864 0.929083 1.71444 0
M  V30 831 O 80.6564 -0.0262186 1.95882 0
M  V30 832 H 79.2364 0.709739 0.232981 0
M  V30 833 H 81.8984 1.94628 -0.102898 0
M  V30 834 H 80.9944 2.93479 1.06191 0
M  V30 835 N 81.2955 -0.223234 1.56011 0
M  V30 836 C 82.2055 -1.29766 1.95443 0
M  V30 837 C 83.2215 -1.51373 0.858028 0
M  V30 838 O 84.3975 -1.64536 1.16146 0
M  V30 839 C 81.4625 -2.62772 2.26167 0
M  V30 840 C 80.5235 -2.49482 3.49367 0
M  V30 841 C 79.7565 -3.76145 3.78616 0
M  V30 842 O 79.9795 -4.79087 3.09568 0
M  V30 843 O 78.9135 -3.73358 4.72109 0
M  V30 844 H 82.7395 -0.99309 2.87004 0
M  V30 845 H 80.3245 -0.425958 1.43199 0
M  V30 846 H 82.2065 -3.41327 2.47131 0
M  V30 847 H 80.8815 -2.92913 1.37781 0
M  V30 848 H 79.7885 -1.69133 3.33684 0
M  V30 849 H 81.1215 -2.2428 4.38131 0
M  V30 850 N 82.7736 -1.49793 -0.48987 0
M  V30 851 C 84.0506 -1.50348 -1.25119 0
M  V30 852 C 84.4306 -0.237466 -2.0976 0
M  V30 853 O 83.7786 0.77981 -2.14782 0
M  V30 854 C 83.9886 -2.78872 -2.09837 0
M  V30 855 C 85.3366 -3.288 -2.68655 0
M  V30 856 O 86.3606 -2.80065 -2.20096 0
M  V30 857 O 85.2196 -4.13707 -3.57083 0
M  V30 858 H 82.3136 -0.602242 -0.566775 0
M  V30 859 H 84.8596 -1.62067 -0.503229 0
M  V30 860 H 83.6316 -3.62499 -1.47343 0
M  V30 861 H 83.2546 -2.70066 -2.91805 0
M  V30 862 N 84.2517 0.741722 -1.39055 0
M  V30 863 C 85.5287 1.49252 -1.26425 0
M  V30 864 C 85.9087 2.10705 0.129144 0
M  V30 865 O 85.2567 1.98045 1.13976 0
M  V30 866 C 85.4667 2.54934 -2.38347 0
M  V30 867 C 86.8147 3.21506 -2.77343 0
M  V30 868 O 87.8387 2.65245 -2.37747 0
M  V30 869 O 86.6977 4.23294 -3.45665 0
M  V30 870 H 83.7917 0.662451 -0.495064 0
M  V30 871 H 86.3377 0.776121 -1.50912 0
M  V30 872 H 85.1097 2.07857 -3.31529 0
M  V30 873 H 84.7327 3.34141 -2.15489 0
M  V30 874 N 85.7298 1.2412 0.971189 0
M  V30 875 C 87.1408 1.07236 1.52831 0
M  V30 876 C 87.4918 -0.357352 1.92918 0
M  V30 877 O 86.6168 -1.24528 1.76979 0
M  V30 878 C 87.2118 1.94043 2.77728 0
M  V30 879 C 85.7708 1.81394 3.29808 0
M  V30 880 C 84.9178 1.89189 2.02738 0
M  V30 881 H 87.8688 1.37648 0.789864 0
M  V30 882 H 87.8898 1.47066 3.5093 0
M  V30 883 H 87.4018 2.98093 2.4852 0
M  V30 884 H 85.5028 0.801634 3.63874 0
M  V30 885 H 85.6158 2.65294 3.98944 0
M  V30 886 H 83.9798 1.32877 2.17292 0
M  V30 887 H 84.7628 2.94812 1.759 0
M  V30 888 N 87.2079 -1.17134 1.05439 0
M  V30 889 C 88.1379 -2.2342 0.678649 0
M  V30 890 C 89.1189 -1.66971 -0.32476 0
M  V30 891 O 90.3039 -1.93149 -0.201802 0
M  V30 892 C 87.4339 -3.47256 0.0552099 0
M  V30 893 C 86.3879 -4.16543 0.98365 0
M  V30 894 C 85.7139 -5.34231 0.223961 0
M  V30 895 C 87.0139 -4.68495 2.3089 0
M  V30 896 H 88.7079 -2.55105 1.56722 0
M  V30 897 H 86.2539 -1.2262 0.754998 0
M  V30 898 H 88.2069 -4.20828 -0.21946 0
M  V30 899 H 86.9309 -3.14846 -0.868319 0
M  V30 900 H 85.5899 -3.44887 1.24293 0
M  V30 901 H 85.2379 -4.98071 -0.702412 0
M  V30 902 H 84.9379 -5.81527 0.842627 0
M  V30 903 H 86.4619 -6.10585 -0.0433671 0
M  V30 904 H 87.8759 -5.33691 2.09396 0
M  V30 905 H 86.2729 -5.26379 2.88176 0
M  V30 906 H 87.3429 -3.85169 2.94572 0
M  V30 907 N 88.686 -0.835752 -1.33615 0
M  V30 908 C 89.934 -0.429109 -1.97492 0
M  V30 909 C 90.255 1.01433 -1.66543 0
M  V30 910 O 89.525 1.70611 -0.962744 0
M  V30 911 H 88.105 -0.155686 -0.730596 0
M  V30 912 H 90.767 -1.06802 -1.63031 0
M  V30 913 H 89.863 -0.55861 -3.0706 0
M  V30 914 N 90.1641 1.46063 -0.591896 0
M  V30 915 C 91.0741 2.34192 0.13831 0
M  V30 916 C 92.0901 1.50305 0.876608 0
M  V30 917 O 93.2661 1.8315 0.837728 0
M  V30 918 C 90.3311 3.27656 1.13326 0
M  V30 919 C 89.3921 4.27445 0.39863 0
M  V30 920 C 88.6251 5.16443 1.34618 0
M  V30 921 O 88.8481 5.08553 2.58321 0
M  V30 922 O 87.7821 5.95843 0.851768 0
M  V30 923 H 91.6081 2.98002 -0.58552 0
M  V30 924 H 89.1931 1.45188 -0.352239 0
M  V30 925 H 91.0751 3.85291 1.70671 0
M  V30 926 H 89.7501 2.6643 1.83839 0
M  V30 927 H 88.6571 3.73471 -0.216895 0
M  V30 928 H 89.9901 4.91482 -0.265709 0
M  V30 929 N 91.6422 0.330177 1.54103 0
M  V30 930 C 92.5522 -0.541534 2.28264 0
M  V30 931 C 93.5682 -1.12351 1.32866 0
M  V30 932 O 94.7442 -1.14206 1.65888 0
M  V30 933 C 91.8092 -1.68322 3.03098 0
M  V30 934 C 90.8702 -1.13238 4.14096 0
M  V30 935 C 90.1032 -2.21966 4.85352 0
M  V30 936 O 90.3262 -3.42437 4.56172 0
M  V30 937 O 89.2602 -1.87013 5.7211 0
M  V30 938 H 93.0862 0.060938 3.03639 0
M  V30 939 H 90.6712 0.09565 1.49093 0
M  V30 940 H 92.5532 -2.34777 3.49939 0
M  V30 941 H 91.2282 -2.27176 2.30593 0
M  V30 942 H 90.1352 -0.432736 3.71589 0
M  V30 943 H 91.4682 -0.588898 4.88664 0
M  V30 944 N 93.1203 -1.57491 0.0584922 0
M  V30 945 C 94.3973 -1.84346 -0.653918 0
M  V30 946 C 94.7773 -0.948355 -1.88599 0
M  V30 947 O 94.1253 -0.0112403 -2.28497 0
M  V30 948 C 94.3353 -3.34239 -1.00425 0
M  V30 949 C 95.6833 -4.01431 -1.38342 0
M  V30 950 O 96.7073 -3.38907 -1.09637 0
M  V30 951 O 95.5663 -5.11683 -1.91943 0
M  V30 952 H 92.6603 -0.761112 -0.323478 0
M  V30 953 H 95.2063 -1.6947 0.0884125 0
M  V30 954 H 93.9783 -3.91089 -0.128625 0
M  V30 955 H 93.6013 -3.54329 -1.80378 0
M  V30 956 N 94.5984 0.214957 -1.56127 0
M  V30 957 C 95.5284 1.2695 -1.95974 0
M  V30 958 C 96.5094 1.48539 -0.828868 0
M  V30 959 O 97.6944 1.60611 -1.09168 0
M  V30 960 C 94.8244 2.61794 -2.28214 0
M  V30 961 C 93.7784 2.54851 -3.43853 0
M  V30 962 C 93.1044 3.93785 -3.61715 0
M  V30 963 C 94.4044 2.09065 -4.78632 0
M  V30 964 H 96.0984 0.93846 -2.84312 0
M  V30 965 H 93.6444 0.449996 -1.36788 0
M  V30 966 H 95.5974 3.35731 -2.54682 0
M  V30 967 H 94.3214 2.96599 -1.36736 0
M  V30 968 H 92.9804 1.8337 -3.17444 0
M  V30 969 H 92.6284 4.25908 -2.67602 0
M  V30 970 H 92.3284 3.90019 -4.39498 0
M  V30 971 H 93.8524 4.69374 -3.90539 0
M  V30 972 H 95.2664 2.7275 -5.04262 0
M  V30 973 H 93.6634 2.16346 -5.59745 0
M  V30 974 H 94.7334 1.04315 -4.73547 0
M  V30 975 N 96.0765 1.50051 0.48192 0
M  V30 976 C 97.4875 1.5348 1.06305 0
M  V30 977 C 97.8385 0.331997 1.93371 0
M  V30 978 O 96.9635 -0.556256 2.09129 0
M  V30 979 C 97.5585 2.7813 1.93466 0
M  V30 980 C 96.1175 2.84275 2.46707 0
M  V30 981 C 95.2645 2.47637 1.24785 0
M  V30 982 H 98.2155 1.56472 0.264995 0
M  V30 983 H 98.2365 2.59372 2.78399 0
M  V30 984 H 97.7485 3.65654 1.30072 0
M  V30 985 H 95.8495 2.01077 3.13686 0
M  V30 986 H 95.9625 3.8691 2.82555 0
M  V30 987 H 94.3265 1.99835 1.57918 0
M  V30 988 H 95.1095 3.37457 0.630694 0
M  V30 989 N 97.5546 -0.734337 1.39446 0
M  V30 990 C 98.7796 -1.52866 1.40167 0
M  V30 991 C 99.2046 -1.881 -0.00171513 0
M  V30 992 O 98.5626 -1.51957 -0.988879 0
M  V30 993 C 98.6106 -2.79235 2.28167 0
M  V30 994 O 97.7146 -3.75185 1.71201 0
M  V30 995 H 97.0556 -0.461618 0.477289 0
M  V30 996 H 99.5856 -0.905949 1.8345 0
M  V30 997 H 99.5956 -3.27963 2.42702 0
M  V30 998 H 98.2706 -2.52923 3.30156 0
M  V30 999 H 96.8476 -3.33958 1.65912 0
M  V30 1000 N 99.0327 -1.24633 -0.964593 0
M  V30 1001 C 99.9427 -1.05859 -2.09359 0
M  V30 1002 C 100.959 0.00148855 -1.74 0
M  V30 1003 O 102.135 -0.197346 -2.00431 0
M  V30 1004 C 99.1997 -0.668879 -3.40187 0
M  V30 1005 C 98.2607 -1.80578 -3.89474 0
M  V30 1006 C 97.4937 -1.43457 -5.14058 0
M  V30 1007 O 97.7167 -0.325775 -5.69469 0
M  V30 1008 O 96.6507 -2.2613 -5.57807 0
M  V30 1009 H 100.477 -2.00516 -2.28094 0
M  V30 1010 H 98.0617 -1.03481 -1.0776 0
M  V30 1011 H 99.9437 -0.463211 -4.18846 0
M  V30 1012 H 98.6187 0.248536 -3.22744 0
M  V30 1013 H 97.5257 -2.06623 -3.11862 0
M  V30 1014 H 98.8587 -2.70208 -4.11398 0
M  V30 1015 N 100.511 1.16574 -1.06058 0
M  V30 1016 C 101.421 2.2452 -0.680282 0
M  V30 1017 C 102.437 1.71348 0.302604 0
M  V30 1018 O 103.613 2.00822 0.152513 0
M  V30 1019 C 100.678 3.46629 -0.0700315 0
M  V30 1020 C 99.7388 4.14849 -1.10448 0
M  V30 1021 C 98.9718 5.31129 -0.523256 0
M  V30 1022 O 99.1948 5.66514 0.664709 0
M  V30 1023 O 98.1288 5.88526 -1.26179 0
M  V30 1024 H 101.955 2.59355 -1.58015 0
M  V30 1025 H 99.5398 1.24043 -0.832694 0
M  V30 1026 H 101.422 4.20543 0.268667 0
M  V30 1027 H 100.097 3.13573 0.803353 0
M  V30 1028 H 99.0038 3.42916 -1.49532 0
M  V30 1029 H 100.337 4.51954 -1.94931 0
M  V30 1030 N 101.989 0.842826 1.3317 0
M  V30 1031 C 103.266 0.362216 1.92217 0
M  V30 1032 C 103.646 -1.15289 1.76838 0
M  V30 1033 O 102.994 -1.96914 1.15919 0
M  V30 1034 C 103.204 0.813495 3.39387 0
M  V30 1035 C 104.552 0.823804 4.16532 0
M  V30 1036 O 105.576 0.757358 3.48055 0
M  V30 1037 O 104.435 0.915193 5.38782 0
M  V30 1038 H 101.529 0.103317 0.820521 0
M  V30 1039 H 104.075 0.928942 1.42017 0
M  V30 1040 H 102.847 1.85624 3.4447 0
M  V30 1041 H 102.47 0.223561 3.96971 0
M  V30 1042 N 103.467 -1.45747 0.599634 0
M  V30 1043 C 104.692 -2.07178 0.0960198 0
M  V30 1044 C 105.117 -1.44268 -1.207 0
M  V30 1045 O 104.475 -0.532503 -1.73303 0
M  V30 1046 C 104.523 -3.60579 -0.0385348 0
M  V30 1047 O 103.627 -3.97713 -1.0908 0
M  V30 1048 H 102.968 -0.660251 0.0704593 0
M  V30 1049 H 105.498 -1.87124 0.827385 0
M  V30 1050 H 105.508 -4.07298 -0.239304 0
M  V30 1051 H 104.183 -4.05756 0.912947 0
M  V30 1052 H 102.76 -3.62678 -0.867135 0
M  V30 1053 N 104.945 -0.338344 -1.53925 0
M  V30 1054 C 106.356 0.146651 -1.86123 0
M  V30 1055 C 106.707 1.5042 -1.2597 0
M  V30 1056 O 105.832 2.08723 -0.571294 0
M  V30 1057 C 106.427 0.272879 -3.37699 0
M  V30 1058 C 104.986 0.702103 -3.69794 0
M  V30 1059 C 104.133 -0.167304 -2.76795 0
M  V30 1060 H 107.084 -0.558123 -1.48562 0
M  V30 1061 H 107.105 1.10128 -3.64214 0
M  V30 1062 H 106.617 -0.715307 -3.81451 0
M  V30 1063 H 104.718 1.6995 -3.31584 0
M  V30 1064 H 104.831 0.495604 -4.7653 0
M  V30 1065 H 103.195 0.359527 -2.5215 0
M  V30 1066 H 103.978 -1.15253 -3.23375 0
M  V30 1067 N 106.423 1.57458 -0.0668435 0
M  V30 1068 C 107.839 1.56947 0.289772 0
M  V30 1069 C 108.039 1.07584 1.70376 0
M  V30 1070 O 107.095 0.739486 2.41429 0
M  V30 1071 C 108.408 3.0052 0.103943 0
M  V30 1072 C 109.956 3.12517 0.173857 0
M  V30 1073 C 110.431 4.57997 0.0163682 0
M  V30 1074 N 111.922 4.63144 0.0721352 0
M  V30 1075 C 112.657 5.73394 -0.0253794 0
M  V30 1076 N 112.153 6.92576 -0.176133 0
M  V30 1077 N 113.946 5.62091 0.0313305 0
M  V30 1078 H 106.097 1.87863 -0.991027 0
M  V30 1079 H 108.36 0.86583 -0.38606 0
M  V30 1080 H 108.066 3.40729 -0.871572 0
M  V30 1081 H 107.94 3.67304 0.858366 0
M  V30 1082 H 110.327 2.72197 1.13985 0
M  V30 1083 H 110.408 2.48381 -0.611586 0
M  V30 1084 H 110.052 4.99005 -0.946374 0
M  V30 1085 H 109.982 5.20158 0.821153 0
M  V30 1086 H 112.473 3.77436 0.187263 0
M  V30 1087 H 112.786 7.72418 -0.242821 0
M  V30 1088 H 111.131 6.94678 -0.211429 0
M  V30 1089 H 114.322 4.67867 0.147773 0
M  V30 1090 H 114.495 6.47982 -0.048121 0
M  V30 1091 N 107.901 -0.206675 1.56239 0
M  V30 1092 C 108.811 -1.27686 1.96808 0
M  V30 1093 C 109.827 -1.50455 0.874035 0
M  V30 1094 O 111.003 -1.63295 1.17884 0
M  V30 1095 C 108.068 -2.60358 2.28942 0
M  V30 1096 C 107.129 -2.45762 3.51994 0
M  V30 1097 C 106.362 -3.72108 3.82585 0
M  V30 1098 O 106.585 -4.75776 3.14631 0
M  V30 1099 O 105.519 -3.6833 4.76043 0
M  V30 1100 H 109.345 -0.962593 2.88041 0
M  V30 1101 H 106.93 -0.410746 1.43643 0
M  V30 1102 H 108.812 -3.38687 2.50737 0
M  V30 1103 H 107.487 -2.91435 1.4088 0
M  V30 1104 H 106.394 -1.65584 3.35459 0
M  V30 1105 H 107.727 -2.19621 4.40486 0
M  V30 1106 N 109.379 -1.50304 -0.473955 0
M  V30 1107 C 110.289 -1.7174 -1.5982 0
M  V30 1108 C 111.305 -0.600457 -1.63311 0
M  V30 1109 O 112.481 -0.878441 -1.81233 0
M  V30 1110 C 109.546 -1.80427 -2.96052 0
M  V30 1111 C 108.607 -3.04148 -3.02972 0
M  V30 1112 C 107.84 -3.12411 -4.32706 0
M  V30 1113 O 108.063 -2.27542 -5.23049 0
M  V30 1114 O 106.997 -4.05113 -4.45159 0
M  V30 1115 H 110.823 -2.67035 -1.44657 0
M  V30 1116 H 108.408 -1.34366 -0.653148 0
M  V30 1117 H 110.29 -1.88338 -3.7697 0
M  V30 1118 H 108.965 -0.883156 -3.11419 0
M  V30 1119 H 107.872 -3.0174 -2.21142 0
M  V30 1120 H 109.205 -3.95829 -2.92541 0
M  V30 1121 N 110.857 0.726932 -1.39834 0
M  V30 1122 C 112.134 1.47902 -1.28001 0
M  V30 1123 C 112.514 2.1083 0.106789 0
M  V30 1124 O 111.862 1.99242 1.11869 0
M  V30 1125 C 112.072 2.52392 -2.41038 0
M  V30 1126 C 113.42 3.18546 -2.80737 0
M  V30 1127 O 114.444 2.62708 -2.40547 0
M  V30 1128 O 113.303 4.19604 -3.50135 0
M  V30 1129 H 110.397 0.657163 -0.502062 0
M  V30 1130 H 112.943 0.760071 -1.51727 0
M  V30 1131 H 111.715 2.04329 -3.33715 0
M  V30 1132 H 111.338 3.31837 -2.19021 0
M  V30 1133 N 112.336 1.25143 0.95797 0
M  V30 1134 C 113.747 1.08851 1.51685 0
M  V30 1135 C 114.098 -0.33687 1.93286 0
M  V30 1136 O 113.223 -1.22644 1.7829 0
M  V30 1137 C 113.818 1.96978 2.75654 0
M  V30 1138 C 112.377 1.84881 3.27866 0
M  V30 1139 C 111.524 1.91329 2.0072 0
M  V30 1140 H 114.475 1.38478 0.77522 0
M  V30 1141 H 114.496 1.5078 3.4935 0
M  V30 1142 H 114.008 3.00712 2.45345 0
M  V30 1143 H 112.109 0.840182 3.63004 0
M  V30 1144 H 112.222 2.6951 3.96107 0
M  V30 1145 H 110.586 1.35174 2.15871 0
M  V30 1146 H 111.369 2.96661 1.72764 0
M  V30 1147 N 113.814 -1.1601 1.06675 0
M  V30 1148 C 115.225 -1.68235 0.809565 0
M  V30 1149 C 115.576 -1.8454 -0.666303 0
M  V30 1150 O 114.701 -1.54374 -1.5165 0
M  V30 1151 C 115.296 -3.05585 1.46299 0
M  V30 1152 C 113.855 -3.54915 1.25349 0
M  V30 1153 C 113.002 -2.30804 1.53703 0
M  V30 1154 H 115.953 -1.00318 1.22971 0
M  V30 1155 H 115.974 -3.70174 0.880431 0
M  V30 1156 H 115.486 -2.93686 2.53713 0
M  V30 1157 H 113.587 -3.72067 0.199261 0
M  V30 1158 H 113.7 -4.36774 1.9689 0
M  V30 1159 H 112.064 -2.36007 0.957739 0
M  V30 1160 H 112.847 -2.21499 2.62284 0
M  V30 1161 N 115.292 -0.849877 -1.32721 0
M  V30 1162 C 116.54 -0.450032 -1.97026 0
M  V30 1163 C 116.861 0.996604 -1.67609 0
M  V30 1164 O 116.131 1.6958 -0.980786 0
M  V30 1165 H 114.711 -0.163426 -0.728904 0
M  V30 1166 H 117.373 -1.08526 -1.6189 0
M  V30 1167 H 116.469 -0.591146 -3.0645 0
M  V30 1168 N 116.77 1.45427 -0.607355 0
M  V30 1169 C 117.68 2.34325 0.113463 0
M  V30 1170 C 118.696 1.51226 0.860617 0
M  V30 1171 O 119.872 1.84029 0.818255 0
M  V30 1172 C 116.937 3.28839 1.09844 0
M  V30 1173 C 115.998 4.27844 0.353271 0
M  V30 1174 C 115.231 5.17842 1.29133 0
M  V30 1175 O 115.454 5.11264 2.52913 0
M  V30 1176 O 114.388 5.96713 0.788523 0
M  V30 1177 H 118.214 2.97364 -0.617094 0
M  V30 1178 H 115.799 1.44807 -0.367619 0
M  V30 1179 H 117.681 3.8708 1.66575 0
M  V30 1180 H 116.356 2.68365 1.81003 0
M  V30 1181 H 115.263 3.7322 -0.256494 0
M  V30 1182 H 116.596 4.91173 -0.317822 0
M  V30 1183 N 118.248 0.346503 1.53744 0
M  V30 1184 C 119.158 -0.517293 2.28826 0
M  V30 1185 C 120.174 -1.10935 1.3405 0
M  V30 1186 O 121.35 -1.1244 1.6709 0
M  V30 1187 C 118.415 -1.65098 3.04866 0
M  V30 1188 C 117.476 -1.0884 4.15274 0
M  V30 1189 C 116.709 -2.16806 4.87679 0
M  V30 1190 O 116.932 -3.3758 4.59778 0
M  V30 1191 O 115.866 -1.80934 5.74061 0
M  V30 1192 H 119.692 0.0931396 3.03557 0
M  V30 1193 H 117.277 0.111458 1.48984 0
M  V30 1194 H 119.159 -2.31053 3.5241 0
M  V30 1195 H 117.834 -2.24717 2.32989 0
M  V30 1196 H 116.741 -0.3933 3.72027 0
M  V30 1197 H 118.074 -0.537036 4.89261 0
M  V30 1198 N 119.726 -1.57421 0.075193 0
M  V30 1199 C 121.003 -1.85029 -0.634329 0
M  V30 1200 C 121.383 -0.968305 -1.87582 0
M  V30 1201 O 120.731 -0.0354749 -2.28472 0
M  V30 1202 C 120.941 -3.35286 -0.968742 0
M  V30 1203 C 122.289 -4.02875 -1.34077 0
M  V30 1204 O 123.313 -3.40051 -1.06037 0
M  V30 1205 O 122.172 -5.13691 -1.86506 0
M  V30 1206 H 119.266 -0.7645 -0.315387 0
M  V30 1207 H 121.812 -1.69366 0.106382 0
M  V30 1208 H 120.584 -3.91203 -0.0871376 0
M  V30 1209 H 120.207 -3.56223 -1.7661 0
M  V30 1210 N 121.204 0.198386 -1.56346 0
M  V30 1211 C 122.134 1.24865 -1.9731 0
M  V30 1212 C 123.115 1.47651 -0.844576 0
M  V30 1213 O 124.3 1.59444 -1.10866 0
M  V30 1214 C 121.43 2.59358 -2.30977 0
M  V30 1215 C 120.384 2.5119 -3.46537 0
M  V30 1216 C 119.71 3.89926 -3.65871 0
M  V30 1217 C 121.01 2.03977 -4.80823 0
M  V30 1218 H 122.704 0.908252 -2.85291 0
M  V30 1219 H 120.25 0.435462 -1.37258 0
M  V30 1220 H 122.203 3.33011 -2.58228 0
M  V30 1221 H 120.927 2.95132 -1.39874 0
M  V30 1222 H 119.586 1.79993 -3.19371 0
M  V30 1223 H 119.234 4.23046 -2.72105 0
M  V30 1224 H 118.934 3.85336 -4.4361 0
M  V30 1225 H 120.458 4.65205 -3.95495 0
M  V30 1226 H 121.872 2.67386 -5.07127 0
M  V30 1227 H 120.269 2.10397 -5.62008 0
M  V30 1228 H 121.339 0.992861 -4.74626 0
M  V30 1229 N 122.682 1.50554 0.465978 0
M  V30 1230 C 124.093 1.54599 1.04671 0
M  V30 1231 C 124.444 0.352488 1.93008 0
M  V30 1232 O 123.569 -0.534044 2.09707 0
M  V30 1233 C 124.164 2.80166 1.90505 0
M  V30 1234 C 122.723 2.86876 2.43678 0
M  V30 1235 C 121.87 2.48947 1.22151 0
M  V30 1236 H 124.821 1.56744 0.248384 0
M  V30 1237 H 124.842 2.62311 2.75633 0
M  V30 1238 H 124.354 3.67013 1.26186 0
M  V30 1239 H 122.455 2.04393 3.11536 0
M  V30 1240 H 122.568 3.89885 2.78436 0
M  V30 1241 H 120.932 2.01498 1.5579 0
M  V30 1242 H 121.715 3.38107 0.594866 0
M  V30 1243 N 124.16 -0.719506 1.40217 0
M  V30 1244 C 125.408 -1.47641 1.3801 0
M  V30 1245 C 125.729 -1.94992 -0.018145 0
M  V30 1246 O 124.999 -1.70073 -0.972207 0
M  V30 1247 H 123.579 -0.547744 0.507923 0
M  V30 1248 H 126.241 -0.853187 1.75233 0
M  V30 1249 H 125.337 -2.35112 2.05253 0
M  V30 1250 N 125.638 -1.25649 -0.95132 0
M  V30 1251 C 126.548 -1.08073 -2.08224 0
M  V30 1252 C 127.564 -0.0169666 -1.73992 0
M  V30 1253 O 128.74 -0.218593 -2.0021 0
M  V30 1254 C 125.805 -0.704922 -3.39458 0
M  V30 1255 C 124.866 -1.84699 -3.87537 0
M  V30 1256 C 124.099 -1.48902 -5.12508 0
M  V30 1257 O 124.322 -0.386156 -5.69091 0
M  V30 1258 O 123.256 -2.32033 -5.55378 0
M  V30 1259 H 127.082 -2.02924 -2.25954 0
M  V30 1260 H 124.667 -1.04618 -1.06656 0
M  V30 1261 H 126.549 -0.507609 -4.18332 0
M  V30 1262 H 125.224 0.214291 -3.2299 0
M  V30 1263 H 124.131 -2.09919 -3.09653 0
M  V30 1264 H 125.464 -2.74557 -4.08509 0
M  V30 1265 N 127.117 1.15442 -1.07289 0
M  V30 1266 C 128.027 2.23786 -0.704057 0
M  V30 1267 C 129.043 1.7166 0.284413 0
M  V30 1268 O 130.219 2.00972 0.131205 0
M  V30 1269 C 127.284 3.46535 -0.106792 0
M  V30 1270 C 126.345 4.13654 -1.14842 0
M  V30 1271 C 125.578 5.30544 -0.57956 0
M  V30 1272 O 125.801 5.67187 0.604585 0
M  V30 1273 O 124.735 5.87154 -1.32414 0
M  V30 1274 H 128.561 2.57664 -1.60757 0
M  V30 1275 H 126.146 1.23152 -0.845803 0
M  V30 1276 H 128.028 4.20804 0.224048 0
M  V30 1277 H 126.703 3.14407 0.770049 0
M  V30 1278 H 125.61 3.4131 -1.5316 0
M  V30 1279 H 126.943 4.49861 -1.99714 0
M  V30 1280 N 128.595 0.856903 1.32268 0
M  V30 1281 C 129.872 0.382583 1.91822 0
M  V30 1282 C 130.252 -1.13407 1.78051 0
M  V30 1283 O 129.6 -1.95673 1.18001 0
M  V30 1284 C 129.81 0.849446 3.38505 0
M  V30 1285 C 131.158 0.867936 4.15634 0
M  V30 1286 O 132.182 0.794232 3.47232 0
M  V30 1287 O 131.041 0.972286 5.37781 0
M  V30 1288 H 128.135 0.112014 0.819379 0
M  V30 1289 H 130.681 0.943952 1.41024 0
M  V30 1290 H 129.453 1.89267 3.42482 0
M  V30 1291 H 129.076 0.265652 3.96712 0
M  V30 1292 N 130.073 -1.45103 0.615059 0
M  V30 1293 C 131.003 -2.33339 -0.0865619 0
M  V30 1294 C 131.984 -1.4727 -0.851209 0
M  V30 1295 O 133.169 -1.76026 -0.820281 0
M  V30 1296 C 130.299 -3.30095 -1.07956 0
M  V30 1297 C 129.253 -4.25858 -0.427628 0
M  V30 1298 C 128.579 -5.12361 -1.5294 0
M  V30 1299 C 129.879 -5.18165 0.655944 0
M  V30 1300 H 131.573 -2.92254 0.650224 0
M  V30 1301 H 129.119 -1.40532 0.314138 0
M  V30 1302 H 131.072 -3.90698 -1.57901 0
M  V30 1303 H 129.796 -2.69355 -1.84703 0
M  V30 1304 H 128.455 -3.66564 0.0510292 0
M  V30 1305 H 128.103 -4.47984 -2.28734 0
M  V30 1306 H 127.803 -5.77238 -1.09865 0
M  V30 1307 H 129.327 -5.75833 -2.03098 0
M  V30 1308 H 130.741 -5.72796 0.240257 0
M  V30 1309 H 129.138 -5.91559 1.00888 0
M  V30 1310 H 130.208 -4.60144 1.52957 0
M  V30 1311 N 131.551 -0.354651 -1.53558 0
M  V30 1312 C 132.962 0.126902 -1.86268 0
M  V30 1313 C 133.313 1.49075 -1.27558 0
M  V30 1314 O 132.438 2.08105 -0.5934 0
M  V30 1315 C 133.033 0.237046 -3.3797 0
M  V30 1316 C 131.592 0.662842 -3.70518 0
M  V30 1317 C 130.739 -0.196652 -2.76602 0
M  V30 1318 H 133.69 -0.573849 -1.47962 0
M  V30 1319 H 133.711 1.06259 -3.65362 0
M  V30 1320 H 133.223 -0.755725 -3.80671 0
M  V30 1321 H 131.324 1.66424 -3.33367 0
M  V30 1322 H 131.437 0.445034 -4.77029 0
M  V30 1323 H 129.801 0.332763 -2.52517 0
M  V30 1324 H 130.584 -1.18676 -3.22135 0
M  V30 1325 N 133.029 1.57378 -0.0835403 0
M  V30 1326 C 134.277 1.93547 0.581718 0
M  V30 1327 C 134.598 0.96524 1.69435 0
M  V30 1328 O 133.868 0.0153369 1.95894 0
M  V30 1329 H 132.448 0.714521 0.217874 0
M  V30 1330 H 135.11 1.94366 -0.144158 0
M  V30 1331 H 134.206 2.95665 0.999423 0
M  V30 1332 N 134.507 -0.190092 1.56449 0
M  V30 1333 C 135.417 -1.25591 1.98152 0
M  V30 1334 C 136.433 -1.49519 0.889944 0
M  V30 1335 O 137.609 -1.62036 1.19609 0
M  V30 1336 C 134.674 -2.57916 2.3169 0
M  V30 1337 C 133.735 -2.42015 3.5458 0
M  V30 1338 C 132.968 -3.6803 3.8651 0
M  V30 1339 O 133.191 -4.72413 3.1966 0
M  V30 1340 O 132.125 -3.6326 4.79923 0
M  V30 1341 H 135.951 -0.931988 2.89046 0
M  V30 1342 H 133.536 -0.395488 1.4407 0
M  V30 1343 H 135.418 -3.36008 2.54316 0
M  V30 1344 H 134.093 -2.89925 1.43963 0
M  V30 1345 H 133 -1.62017 3.37196 0
M  V30 1346 H 134.333 -2.14937 4.4279 0
M  V30 1347 N 135.985 -1.50799 -0.457987 0
M  V30 1348 C 136.895 -1.73426 -1.57989 0
M  V30 1349 C 137.911 -0.617745 -1.62665 0
M  V30 1350 O 139.087 -0.897614 -1.80291 0
M  V30 1351 C 136.152 -1.83557 -2.94122 0
M  V30 1352 C 135.213 -3.07345 -2.99729 0
M  V30 1353 C 134.446 -3.16983 -4.29368 0
M  V30 1354 O 134.669 -2.33077 -5.20607 0
M  V30 1355 O 133.603 -4.09812 -4.40837 0
M  V30 1356 H 137.429 -2.68555 -1.41817 0
M  V30 1357 H 135.014 -1.35052 -0.638859 0
M  V30 1358 H 136.896 -1.92326 -3.74952 0
M  V30 1359 H 135.571 -0.916137 -3.10465 0
M  V30 1360 H 134.478 -3.04068 -2.1793 0
M  V30 1361 H 135.811 -3.9891 -2.88326 0
M  V30 1362 N 137.463 0.71206 -1.40597 0
M  V30 1363 C 138.74 1.46536 -1.29563 0
M  V30 1364 C 139.12 2.10931 0.0844217 0
M  V30 1365 O 138.468 2.00418 1.0975 0
M  V30 1366 C 138.678 2.49821 -2.43701 0
M  V30 1367 C 140.026 3.15551 -2.841 0
M  V30 1368 O 141.05 2.60142 -2.4332 0
M  V30 1369 O 139.909 4.15867 -3.54566 0
M  V30 1370 H 137.003 0.651801 -0.509004 0
M  V30 1371 H 139.549 0.743935 -1.52524 0
M  V30 1372 H 138.321 2.00778 -3.35863 0
M  V30 1373 H 137.944 3.29495 -2.22528 0
M  V30 1374 N 138.941 1.26152 0.944643 0
M  V30 1375 C 139.871 1.09902 2.06019 0
M  V30 1376 C 140.852 0.00519538 1.70099 0
M  V30 1377 O 142.037 0.176583 1.93396 0
M  V30 1378 C 139.167 0.727562 3.39594 0
M  V30 1379 C 138.121 1.77274 3.89561 0
M  V30 1380 C 137.447 1.25569 5.19747 0
M  V30 1381 C 138.747 3.17357 4.14827 0
M  V30 1382 H 140.441 2.03217 2.19871 0
M  V30 1383 H 137.987 0.978452 1.05652 0
M  V30 1384 H 139.94 0.600777 4.17095 0
M  V30 1385 H 138.664 -0.241287 3.25707 0
M  V30 1386 H 137.323 1.88814 3.14237 0
M  V30 1387 H 136.971 0.276783 5.02238 0
M  V30 1388 H 136.671 1.95433 5.54148 0
M  V30 1389 H 138.195 1.1415 5.99835 0
M  V30 1390 H 139.609 3.08914 4.82954 0
M  V30 1391 H 138.006 3.84781 4.60504 0
M  V30 1392 H 139.076 3.63673 3.20734 0
M  V30 1393 N 140.419 -1.14872 1.07899 0
M  V30 1394 C 141.83 -1.67367 0.827363 0
M  V30 1395 C 142.181 -1.85236 -0.646693 0
M  V30 1396 O 141.306 -1.55974 -1.50004 0
M  V30 1397 C 141.901 -3.04016 1.49532 0
M  V30 1398 C 140.46 -3.53566 1.29106 0
M  V30 1399 C 139.607 -2.29161 1.56143 0
M  V30 1400 H 142.558 -0.990083 1.24028 0
M  V30 1401 H 142.579 -3.69219 0.919643 0
M  V30 1402 H 142.091 -2.90978 2.56814 0
M  V30 1403 H 140.192 -3.71835 0.238713 0
M  V30 1404 H 140.305 -4.34661 2.01511 0
M  V30 1405 H 138.669 -2.34978 0.982717 0
M  V30 1406 H 139.452 -2.18705 2.64619 0
M  V30 1407 N 141.898 -0.863906 -1.31812 0
M  V30 1408 C 142.808 -0.318461 -2.32428 0
M  V30 1409 C 143.824 0.568496 -1.64451 0
M  V30 1410 O 145 0.46666 -1.95919 0
M  V30 1411 C 142.065 0.476355 -3.43412 0
M  V30 1412 C 141.126 -0.43784 -4.27061 0
M  V30 1413 C 140.359 0.319138 -5.32745 0
M  V30 1414 O 140.582 1.54799 -5.48993 0
M  V30 1415 O 139.516 -0.319861 -6.01049 0
M  V30 1416 H 143.342 -1.15229 -2.80991 0
M  V30 1417 H 140.927 -0.627103 -1.35602 0
M  V30 1418 H 142.809 0.927156 -4.11074 0
M  V30 1419 H 141.484 1.28683 -2.97022 0
M  V30 1420 H 140.391 -0.937013 -3.62175 0
M  V30 1421 H 141.724 -1.21375 -4.77 0
M  V30 1422 N 143.376 1.44774 -0.622745 0
M  V30 1423 C 144.622 2.0242 -0.124083 0
M  V30 1424 C 144.955 1.4881 1.24777 0
M  V30 1425 O 144.23 0.668799 1.8264 0
M  V30 1426 C 144.513 3.59957 -0.101619 0
M  V30 1427 C 144.366 4.23867 -1.50521 0
M  V30 1428 C 145.685 4.36284 0.578272 0
M  V30 1429 H 142.804 0.735528 -0.0465645 0
M  V30 1430 H 145.446 1.72447 -0.797617 0
M  V30 1431 H 143.596 3.85623 0.471934 0
M  V30 1432 H 145.268 4.09336 -2.12701 0
M  V30 1433 H 143.511 3.81684 -2.06154 0
M  V30 1434 H 144.182 5.32843 -1.4416 0
M  V30 1435 H 146.658 4.16001 0.0906057 0
M  V30 1436 H 145.534 5.46004 0.563149 0
M  V30 1437 H 145.795 4.10271 1.64713 0
M  V30 1438 N 144.854 0.36279 1.53368 0
M  V30 1439 C 145.801 -0.485008 2.25646 0
M  V30 1440 C 146.771 -1.07982 1.2621 0
M  V30 1441 O 147.956 -1.11284 1.54986 0
M  V30 1442 C 145.096 -1.62023 3.04701 0
M  V30 1443 C 144.209 -1.05086 4.19024 0
M  V30 1444 C 143.344 -2.15496 4.85525 0
M  V30 1445 C 142.383 -1.5601 5.91884 0
M  V30 1446 N 141.52 -2.60241 6.52088 0
M  V30 1447 H 146.36 0.137864 2.97681 0
M  V30 1448 H 143.897 0.0798061 1.46883 0
M  V30 1449 H 145.855 -2.28887 3.48807 0
M  V30 1450 H 144.485 -2.2138 2.34927 0
M  V30 1451 H 143.537 -0.27259 3.79422 0
M  V30 1452 H 144.849 -0.575926 4.95464 0
M  V30 1453 H 144.003 -2.90186 5.32801 0
M  V30 1454 H 142.742 -2.66341 4.08551 0
M  V30 1455 H 141.747 -0.798338 5.43973 0
M  V30 1456 H 142.972 -1.05994 6.70777 0
M  V30 1457 H 140.918 -3.10304 5.77968 0
M  V30 1458 H 140.835 -2.17426 7.24059 0
M  V30 1459 H 142.103 -3.34641 7.04014 0
M  V30 1460 N 146.332 -1.57332 0.0918853 0
M  V30 1461 C 147.743 -1.81496 -0.437739 0
M  V30 1462 C 148.094 -1.00727 -1.6837 0
M  V30 1463 O 147.219 -0.235694 -2.15113 0
M  V30 1464 C 147.814 -3.29197 -0.800939 0
M  V30 1465 C 146.373 -3.54136 -1.27532 0
M  V30 1466 C 145.52 -2.75979 -0.270392 0
M  V30 1467 H 148.471 -1.55494 0.317366 0
M  V30 1468 H 148.492 -3.42344 -1.66074 0
M  V30 1469 H 148.004 -3.87955 0.106078 0
M  V30 1470 H 146.105 -3.00705 -2.20016 0
M  V30 1471 H 146.218 -4.62792 -1.23938 0
M  V30 1472 H 144.582 -2.43349 -0.751872 0
M  V30 1473 H 145.365 -3.37484 0.629248 0
M  V30 1474 N 147.81 0.181792 -1.56548 0
M  V30 1475 C 148.757 1.22521 -1.95595 0
M  V30 1476 C 149.727 1.4454 -0.818373 0
M  V30 1477 O 150.912 1.57454 -1.07763 0
M  V30 1478 C 148.052 2.56193 -2.31212 0
M  V30 1479 C 147.165 2.41641 -3.58097 0
M  V30 1480 C 146.3 3.68108 -3.82975 0
M  V30 1481 C 145.339 3.48445 -5.03242 0
M  V30 1482 N 144.476 4.66956 -5.24306 0
M  V30 1483 H 149.316 0.885226 -2.84548 0
M  V30 1484 H 146.853 0.425718 -1.40805 0
M  V30 1485 H 148.811 3.34088 -2.49882 0
M  V30 1486 H 147.441 2.88208 -1.45382 0
M  V30 1487 H 146.493 1.54976 -3.474 0
M  V30 1488 H 147.805 2.23052 -4.46149 0
M  V30 1489 H 146.959 4.54441 -4.01956 0
M  V30 1490 H 145.698 3.89666 -2.93278 0
M  V30 1491 H 144.703 2.60499 -4.8417 0
M  V30 1492 H 145.928 3.2832 -5.9446 0
M  V30 1493 H 143.874 4.88752 -4.37559 0
M  V30 1494 H 143.791 4.51242 -6.06561 0
M  V30 1495 H 145.059 5.54602 -5.47756 0
M  V30 1496 N 149.288 1.51039 0.449983 0
M  V30 1497 C 150.513 1.6715 1.22783 0
M  V30 1498 C 150.938 0.363081 1.84563 0
M  V30 1499 O 150.296 -0.675433 1.68249 0
M  V30 1500 C 150.344 2.77985 2.29689 0
M  V30 1501 O 149.448 2.40707 3.34864 0
M  V30 1502 H 148.789 0.557746 0.360299 0
M  V30 1503 H 151.319 1.97535 0.533005 0
M  V30 1504 H 151.329 3.01693 2.74673 0
M  V30 1505 H 150.004 3.72935 1.84098 0
M  V30 1506 H 148.581 2.27523 2.95445 0
M  V30 1507 N 150.766 -0.704594 1.40972 0
M  V30 1508 C 151.676 -1.84856 1.44448 0
M  V30 1509 C 152.692 -1.70726 0.335961 0
M  V30 1510 O 153.868 -1.92799 0.582276 0
M  V30 1511 C 150.933 -3.20758 1.31587 0
M  V30 1512 C 149.994 -3.47063 2.52677 0
M  V30 1513 C 149.227 -4.76481 2.4042 0
M  V30 1514 O 149.45 -5.52341 1.42391 0
M  V30 1515 O 148.384 -5.03367 3.30007 0
M  V30 1516 H 152.21 -1.8488 2.40942 0
M  V30 1517 H 149.795 -0.85647 1.22413 0
M  V30 1518 H 151.677 -4.01913 1.26665 0
M  V30 1519 H 150.352 -3.21438 0.382049 0
M  V30 1520 H 149.259 -2.65873 2.63177 0
M  V30 1521 H 150.592 -3.5119 3.44858 0
M  V30 1522 N 152.244 -1.26651 -0.937939 0
M  V30 1523 C 153.154 -1.10276 -2.07066 0
M  V30 1524 C 154.17 -0.0354197 -1.73964 0
M  V30 1525 O 155.346 -0.239816 -1.99967 0
M  V30 1526 C 152.411 -0.740887 -3.38691 0
M  V30 1527 C 151.472 -1.88799 -3.85556 0
M  V30 1528 C 150.705 -1.54329 -5.10899 0
M  V30 1529 O 150.928 -0.446494 -5.6865 0
M  V30 1530 O 149.862 -2.37911 -5.52885 0
M  V30 1531 H 153.688 -2.05309 -2.23789 0
M  V30 1532 H 151.273 -1.05743 -1.0554 0
M  V30 1533 H 153.155 -0.55195 -4.1777 0
M  V30 1534 H 151.83 0.180022 -3.23199 0
M  V30 1535 H 150.737 -2.13191 -3.07409 0
M  V30 1536 H 152.07 -2.78874 -4.05574 0
M  V30 1537 N 153.722 1.14298 -1.08507 0
M  V30 1538 C 154.632 2.23027 -0.727753 0
M  V30 1539 C 155.648 1.71952 0.26619 0
M  V30 1540 O 156.824 2.011 0.109882 0
M  V30 1541 C 153.889 3.46403 -0.143541 0
M  V30 1542 C 152.95 4.12413 -1.19223 0
M  V30 1543 C 152.183 5.29899 -0.635798 0
M  V30 1544 O 152.406 5.67796 0.544393 0
M  V30 1545 O 151.34 5.85717 -1.38634 0
M  V30 1546 H 155.166 2.55945 -1.63481 0
M  V30 1547 H 152.751 1.22248 -0.858817 0
M  V30 1548 H 154.633 4.21018 0.179404 0
M  V30 1549 H 153.308 3.15206 0.736659 0
M  V30 1550 H 152.215 3.39667 -1.56772 0
M  V30 1551 H 153.548 4.47718 -2.04474 0
M  V30 1552 N 155.201 0.870884 1.31352 0
M  V30 1553 C 156.449 0.48132 1.96285 0
M  V30 1554 C 156.77 -0.969813 1.69173 0
M  V30 1555 O 156.04 -1.67998 1.00764 0
M  V30 1556 H 154.62 0.175002 0.726212 0
M  V30 1557 H 157.282 1.11087 1.60143 0
M  V30 1558 H 156.378 0.639825 3.05471 0
M  V30 1559 N 156.679 -1.44442 0.630414 0
M  V30 1560 C 157.904 -2.06927 0.139944 0
M  V30 1561 C 158.329 -1.46795 -1.17613 0
M  V30 1562 O 157.687 -0.569144 -1.72135 0
M  V30 1563 C 157.735 -3.6058 0.0379581 0
M  V30 1564 O 156.839 -3.99937 -1.0062 0
M  V30 1565 H 156.18 -0.658608 0.0844483 0
M  V30 1566 H 158.71 -1.85327 0.866891 0
M  V30 1567 H 158.72 -4.07714 -0.152856 0
M  V30 1568 H 157.395 -4.03728 0.998809 0
M  V30 1569 H 155.972 -3.64436 -0.79001 0
M  V30 1570 N 158.157 -0.370918 -1.53173 0
M  V30 1571 C 159.087 0.464847 -2.28826 0
M  V30 1572 C 160.068 1.07936 -1.31468 0
M  V30 1573 O 161.253 1.0956 -1.60344 0
M  V30 1574 C 158.383 1.60196 -3.08147 0
M  V30 1575 C 157.337 1.11443 -4.13237 0
M  V30 1576 C 156.663 2.3422 -4.80672 0
M  V30 1577 C 157.963 0.195384 -5.21934 0
M  V30 1578 H 159.657 -0.166329 -2.98938 0
M  V30 1579 H 157.203 -0.0814359 -1.4377 0
M  V30 1580 H 159.156 2.19332 -3.59822 0
M  V30 1581 H 157.88 2.26045 -2.35735 0
M  V30 1582 H 156.539 0.545727 -3.62515 0
M  V30 1583 H 156.187 2.98537 -4.04827 0
M  V30 1584 H 155.887 2.02269 -5.51689 0
M  V30 1585 H 157.411 2.94032 -5.35143 0
M  V30 1586 H 158.825 0.694375 -5.69079 0
M  V30 1587 H 157.222 -0.0335027 -6.00091 0
M  V30 1588 H 158.292 -0.760961 -4.78892 0
M  V30 1589 N 159.635 1.57281 -0.100228 0
M  V30 1590 C 160.582 2.14305 0.856858 0
M  V30 1591 C 161.552 1.06296 1.27634 0
M  V30 1592 O 162.737 1.34109 1.35718 0
M  V30 1593 C 159.877 2.73184 2.10866 0
M  V30 1594 C 158.99 3.95442 1.73925 0
M  V30 1595 C 158.125 4.42468 2.93931 0
M  V30 1596 C 157.164 5.57303 2.5314 0
M  V30 1597 N 156.301 5.99158 3.65997 0
M  V30 1598 H 161.141 2.95772 0.363726 0
M  V30 1599 H 158.678 1.46139 0.167858 0
M  V30 1600 H 160.636 3.05442 2.84185 0
M  V30 1601 H 159.266 1.94437 2.57671 0
M  V30 1602 H 158.318 3.69464 0.905554 0
M  V30 1603 H 159.63 4.78769 1.39935 0
M  V30 1604 H 158.784 4.76537 3.75496 0
M  V30 1605 H 157.523 3.58052 3.31134 0
M  V30 1606 H 156.528 5.22857 1.70003 0
M  V30 1607 H 157.753 6.43471 2.17075 0
M  V30 1608 H 155.699 5.17687 4.02909 0
M  V30 1609 H 155.616 6.77295 3.35869 0
M  V30 1610 H 156.884 6.3786 4.48057 0
M  V30 1611 N 161.113 -0.173488 1.56642 0
M  V30 1612 C 162.043 -1.2171 1.99271 0
M  V30 1613 C 163.024 -1.46289 0.867959 0
M  V30 1614 O 164.209 -1.5766 1.13388 0
M  V30 1615 C 161.339 -2.55651 2.35074 0
M  V30 1616 C 160.293 -2.45645 3.50489 0
M  V30 1617 C 159.619 -3.84056 3.72028 0
M  V30 1618 C 160.919 -1.96302 4.84007 0
M  V30 1619 H 162.613 -0.86275 2.867 0
M  V30 1620 H 160.159 -0.413571 1.37933 0
M  V30 1621 H 162.112 -3.2886 2.63494 0
M  V30 1622 H 160.836 -2.92869 1.44552 0
M  V30 1623 H 159.495 -1.7489 3.22194 0
M  V30 1624 H 159.143 -4.18664 2.788 0
M  V30 1625 H 158.843 -3.7823 4.49684 0
M  V30 1626 H 160.367 -4.58854 4.02846 0
M  V30 1627 H 161.781 -2.59284 5.11317 0
M  V30 1628 H 160.178 -2.01429 5.65284 0
M  V30 1629 H 161.248 -0.917226 4.76146 0
M  V30 1630 N 162.591 -1.51276 -0.441967 0
M  V30 1631 C 163.501 -1.75092 -1.56141 0
M  V30 1632 C 164.517 -0.634963 -1.62001 0
M  V30 1633 O 165.693 -0.916686 -1.79329 0
M  V30 1634 C 162.758 -1.86666 -2.92158 0
M  V30 1635 C 161.819 -3.10506 -2.96453 0
M  V30 1636 C 161.052 -3.21519 -4.25982 0
M  V30 1637 O 161.275 -2.38586 -5.18105 0
M  V30 1638 O 160.209 -4.14465 -4.36466 0
M  V30 1639 H 164.035 -2.70044 -1.38961 0
M  V30 1640 H 161.62 -1.35722 -0.624499 0
M  V30 1641 H 163.502 -1.96292 -3.72891 0
M  V30 1642 H 162.177 -0.949014 -3.09476 0
M  V30 1643 H 161.084 -3.06363 -2.14692 0
M  V30 1644 H 162.417 -4.01945 -2.84079 0
M  V30 1645 N 164.069 0.697108 -1.41344 0
M  V30 1646 C 165.346 1.45154 -1.31109 0
M  V30 1647 C 165.726 2.11009 0.0620449 0
M  V30 1648 O 165.074 2.01571 1.07618 0
M  V30 1649 C 165.284 2.47223 -2.46337 0
M  V30 1650 C 166.632 3.1252 -2.87431 0
M  V30 1651 O 167.656 2.57547 -2.46065 0
M  V30 1652 O 166.515 4.12083 -3.58957 0
M  V30 1653 H 163.609 0.646365 -0.515889 0
M  V30 1654 H 166.155 0.727716 -1.53305 0
M  V30 1655 H 164.927 1.97204 -3.37974 0
M  V30 1656 H 164.55 3.27116 -2.2601 0
M  V30 1657 N 165.547 1.27147 0.931209 0
M  V30 1658 C 166.477 1.12081 2.04842 0
M  V30 1659 C 167.458 0.0232364 1.70084 0
M  V30 1660 O 168.643 0.197085 1.93197 0
M  V30 1661 C 165.773 0.76354 3.38803 0
M  V30 1662 C 164.727 1.81396 3.87659 0
M  V30 1663 C 164.053 1.31075 5.18385 0
M  V30 1664 C 165.353 3.21739 4.11438 0
M  V30 1665 H 167.047 2.05537 2.17703 0
M  V30 1666 H 164.593 0.989603 1.04608 0
M  V30 1667 H 166.546 0.644982 4.16435 0
M  V30 1668 H 165.27 -0.206727 3.25945 0
M  V30 1669 H 163.929 1.92136 3.12217 0
M  V30 1670 H 163.577 0.330037 5.01916 0
M  V30 1671 H 163.277 2.013 5.52044 0
M  V30 1672 H 164.801 1.20506 5.98591 0
M  V30 1673 H 166.215 3.14019 4.79651 0
M  V30 1674 H 164.612 3.89644 4.56397 0
M  V30 1675 H 165.682 3.67054 3.16859 0
M  V30 1676 N 167.025 -1.13721 1.09112 0
M  V30 1677 C 168.436 -1.6648 0.845068 0
M  V30 1678 C 168.787 -1.85911 -0.62701 0
M  V30 1679 O 167.912 -1.57556 -1.48341 0
M  V30 1680 C 168.507 -3.02413 1.52748 0
M  V30 1681 C 167.066 -3.52176 1.32849 0
M  V30 1682 C 166.213 -2.27492 1.58564 0
M  V30 1683 H 169.164 -0.976872 1.25072 0
M  V30 1684 H 169.185 -3.68223 0.958752 0
M  V30 1685 H 168.697 -2.88238 2.59885 0
M  V30 1686 H 166.798 -3.7156 0.278137 0
M  V30 1687 H 166.911 -4.32499 2.0611 0
M  V30 1688 H 165.275 -2.33923 1.00758 0
M  V30 1689 H 166.058 -2.15886 2.66924 0
M  V30 1690 N 168.503 -0.877838 -1.30888 0
M  V30 1691 C 169.731 -0.507414 -2.00581 0
M  V30 1692 C 170.146 0.902216 -1.65848 0
M  V30 1693 O 169.503 1.59225 -0.891831 0
M  V30 1694 C 169.554 -0.664162 -3.55347 0
M  V30 1695 O 169.275 -2.01829 -3.8884 0
M  V30 1696 C 170.776 -0.295787 -4.42312 0
M  V30 1697 H 167.996 -0.196866 -0.641471 0
M  V30 1698 H 170.54 -1.18117 -1.66939 0
M  V30 1699 H 168.695 -0.0378619 -3.87381 0
M  V30 1700 H 169.109 -2.03174 -4.8355 0
M  V30 1701 H 170.583 -0.456388 -5.5011 0
M  V30 1702 H 171.06 0.765663 -4.32475 0
M  V30 1703 H 171.666 -0.898113 -4.15709 0
M  V30 1704 N 169.982 1.44106 -0.638065 0
M  V30 1705 C 171.228 2.02277 -0.145546 0
M  V30 1706 C 171.561 1.50125 1.23191 0
M  V30 1707 O 170.836 0.688133 1.8192 0
M  V30 1708 C 171.119 3.59829 -0.139791 0
M  V30 1709 C 170.972 4.22247 -1.55008 0
M  V30 1710 C 172.291 4.36873 0.531966 0
M  V30 1711 H 169.41 0.734992 -0.0543632 0
M  V30 1712 H 172.052 1.71592 -0.815863 0
M  V30 1713 H 170.202 3.86102 0.431007 0
M  V30 1714 H 171.874 4.07057 -2.1703 0
M  V30 1715 H 170.117 3.79476 -2.10191 0
M  V30 1716 H 170.788 5.31284 -1.49804 0
M  V30 1717 H 173.264 4.16074 0.0464781 0
M  V30 1718 H 172.14 5.4657 0.505206 0
M  V30 1719 H 172.401 4.11995 1.60352 0
M  V30 1720 N 171.46 0.379036 1.52974 0
M  V30 1721 C 172.37 -0.468639 2.29872 0
M  V30 1722 C 173.386 -1.08067 1.36373 0
M  V30 1723 O 174.562 -1.08871 1.69438 0
M  V30 1724 C 171.627 -1.58594 3.083 0
M  V30 1725 C 170.688 -1.00007 4.17489 0
M  V30 1726 C 169.921 -2.06413 4.92168 0
M  V30 1727 O 170.144 -3.27751 4.66835 0
M  V30 1728 O 169.078 -1.68717 5.7777 0
M  V30 1729 H 172.904 0.157508 3.03291 0
M  V30 1730 H 170.489 0.143035 1.48714 0
M  V30 1731 H 172.371 -2.23525 3.57232 0
M  V30 1732 H 171.046 -2.19724 2.37703 0
M  V30 1733 H 169.953 -0.314299 3.72777 0
M  V30 1734 H 171.286 -0.433135 4.90291 0
M  V30 1735 N 172.938 -1.57226 0.108567 0
M  V30 1736 C 173.901 -2.13602 -0.831082 0
M  V30 1737 C 174.901 -1.06841 -1.20173 0
M  V30 1738 O 176.091 -1.32666 -1.12895 0
M  V30 1739 C 173.223 -2.66769 -2.12243 0
M  V30 1740 H 174.416 -2.97951 -0.341317 0
M  V30 1741 H 171.969 -1.55667 -0.14057 0
M  V30 1742 H 172.704 -1.85977 -2.65675 0
M  V30 1743 H 172.489 -3.44839 -1.86625 0
M  V30 1744 H 173.979 -3.10332 -2.79435 0
M  V30 1745 N 174.416 0.165178 -1.56732 0
M  V30 1746 C 175.827 0.727046 -1.71962 0
M  V30 1747 C 176.178 1.82508 -0.720078 0
M  V30 1748 O 175.303 2.16082 0.117242 0
M  V30 1749 C 175.898 1.32559 -3.11791 0
M  V30 1750 C 174.457 1.83422 -3.28684 0
M  V30 1751 C 173.604 0.715567 -2.67908 0
M  V30 1752 H 176.555 -0.0602896 -1.58585 0
M  V30 1753 H 176.576 2.19533 -3.10782 0
M  V30 1754 H 176.088 0.526195 -3.84516 0
M  V30 1755 H 174.189 2.65986 -2.60926 0
M  V30 1756 H 174.302 1.97543 -4.36478 0
M  V30 1757 H 172.666 1.13758 -2.27884 0
M  V30 1758 H 173.449 -0.0720836 -3.43224 0
M  V30 1759 N 175.894 1.51508 0.433938 0
M  V30 1760 C 177.142 1.6402 1.18075 0
M  V30 1761 C 177.463 0.360328 1.91642 0
M  V30 1762 O 176.733 -0.623945 1.85698 0
M  V30 1763 H 175.313 0.6045 0.43885 0
M  V30 1764 H 177.975 1.88452 0.497178 0
M  V30 1765 H 177.071 2.46949 1.90847 0
M  V30 1766 N 177.372 -0.689602 1.41712 0
M  V30 1767 C 178.649 -1.44457 1.31877 0
M  V30 1768 C 179.029 -2.11039 -0.0508537 0
M  V30 1769 O 178.377 -2.02138 -1.06547 0
M  V30 1770 C 178.587 -2.45913 2.47645 0
M  V30 1771 C 179.935 -3.10991 2.89084 0
M  V30 1772 O 180.959 -2.56238 2.47428 0
M  V30 1773 O 179.818 -4.10174 3.61137 0
M  V30 1774 H 176.912 -0.64362 0.519309 0
M  V30 1775 H 179.458 -0.719576 1.53689 0
M  V30 1776 H 178.23 -1.95409 3.39015 0
M  V30 1777 H 177.853 -3.25913 2.27742 0
M  V30 1778 N 178.85 -1.27639 -0.924453 0
M  V30 1779 C 180.261 -1.12834 -1.48746 0
M  V30 1780 C 180.612 0.285505 -1.94112 0
M  V30 1781 O 179.737 1.17874 -1.81479 0
M  V30 1782 C 180.332 -2.04217 -2.70334 0
M  V30 1783 C 178.891 -1.93509 -3.22848 0
M  V30 1784 C 178.038 -1.96583 -1.95577 0
M  V30 1785 H 180.989 -1.40484 -0.738233 0
M  V30 1786 H 181.01 -1.59989 -3.4523 0
M  V30 1787 H 180.522 -3.07111 -2.37285 0
M  V30 1788 H 178.623 -0.936131 -3.60649 0
M  V30 1789 H 178.736 -2.79917 -3.88823 0
M  V30 1790 H 177.1 -1.4085 -2.12211 0
M  V30 1791 H 177.883 -3.01137 -1.64837 0
M  V30 1792 N 180.328 1.1314 -1.09713 0
M  V30 1793 C 181.26 2.18343 -0.697056 0
M  V30 1794 C 182.273 1.60669 0.262551 0
M  V30 1795 O 183.462 1.78435 0.0481527 0
M  V30 1796 C 180.562 3.38899 -0.00684728 0
M  V30 1797 C 179.735 4.26078 -0.988741 0
M  V30 1798 C 178.794 5.25155 -0.331394 0
M  V30 1799 O 177.82 5.60701 -0.979926 0
M  V30 1800 N 179.022 5.73271 0.913261 0
M  V30 1801 H 181.787 2.5328 -1.60216 0
M  V30 1802 H 179.348 1.28491 -0.984971 0
M  V30 1803 H 181.34 4.02255 0.444191 0
M  V30 1804 H 179.91 3.02175 0.800551 0
M  V30 1805 H 179.13 3.59453 -1.61826 0
M  V30 1806 H 180.418 4.81178 -1.65364 0
M  V30 1807 H 179.816 5.46544 1.45966 0
M  V30 1808 H 178.373 6.3855 1.30757 0
M  V30 1809 N 181.806 0.884767 1.30421 0
M  V30 1810 C 182.716 0.355398 2.31892 0
M  V30 1811 C 183.732 -0.542261 1.65335 0
M  V30 1812 O 184.908 -0.435432 1.96637 0
M  V30 1813 C 181.973 -0.421661 3.44126 0
M  V30 1814 C 181.034 0.505727 4.26311 0
M  V30 1815 C 180.267 -0.234343 5.33185 0
M  V30 1816 O 180.49 -1.46045 5.51386 0
M  V30 1817 O 179.424 0.415443 6.00465 0
M  V30 1818 H 183.25 1.19685 2.79122 0
M  V30 1819 H 180.835 0.648596 1.34587 0
M  V30 1820 H 182.717 -0.861641 4.12497 0
M  V30 1821 H 181.392 -1.23942 2.99032 0
M  V30 1822 H 180.299 0.994513 3.60639 0
M  V30 1823 H 181.632 1.28948 4.75009 0
M  V30 1824 N 183.284 -1.43765 0.645699 0
M  V30 1825 C 184.695 -1.85193 0.236719 0
M  V30 1826 C 185.046 -1.54045 -1.21509 0
M  V30 1827 O 184.171 -0.985694 -1.92647 0
M  V30 1828 C 184.766 -3.36151 0.422845 0
M  V30 1829 C 183.325 -3.76338 0.0682492 0
M  V30 1830 C 182.472 -2.67538 0.729306 0
M  V30 1831 H 185.423 -1.34025 0.849883 0
M  V30 1832 H 185.444 -3.79032 -0.333904 0
M  V30 1833 H 184.956 -3.5879 1.47958 0
M  V30 1834 H 183.057 -3.59312 -0.986179 0
M  V30 1835 H 183.17 -4.76603 0.488469 0
M  V30 1836 H 181.534 -2.54176 0.163235 0
M  V30 1837 H 182.317 -2.93006 1.78892 0
M  V30 1838 N 184.763 -0.387143 -1.52771 0
M  V30 1839 C 185.695 0.484089 -2.2403 0
M  V30 1840 C 186.708 1.02849 -1.26198 0
M  V30 1841 O 187.897 0.931186 -1.52286 0
M  V30 1842 C 184.997 1.68337 -2.94136 0
M  V30 1843 C 184.17 1.26672 -4.18656 0
M  V30 1844 C 183.229 2.33045 -4.7178 0
M  V30 1845 O 182.255 1.94541 -5.34923 0
M  V30 1846 N 183.457 3.64929 -4.5145 0
M  V30 1847 H 186.222 -0.126404 -2.99433 0
M  V30 1848 H 183.783 -0.213392 -1.60488 0
M  V30 1849 H 185.775 2.39019 -3.26577 0
M  V30 1850 H 184.345 2.20025 -2.22053 0
M  V30 1851 H 183.565 0.388878 -3.92277 0
M  V30 1852 H 184.853 0.964964 -4.99566 0
M  V30 1853 H 184.251 3.98974 -4.01044 0
M  V30 1854 H 182.808 4.31651 -4.88386 0
M  V30 1855 N 186.241 1.57166 -0.116904 0
M  V30 1856 C 187.189 2.16457 0.851418 0
M  V30 1857 C 188.183 1.11323 1.27686 0
M  V30 1858 O 189.389 1.2963 1.24884 0
M  V30 1859 H 185.764 0.69271 0.292672 0
M  V30 1860 H 187.735 2.96605 0.32685 0
M  V30 1861 C 186.484 2.77689 2.09246 0
M  V30 1862 H 185.807 3.58285 1.77402 0
M  V30 1863 H 187.247 3.22716 2.7501 0
M  V30 1864 C 185.706 1.74667 2.88085 0
M  V30 1865 O 186.236 1.19877 3.83396 0
M  V30 1866 N 184.442 1.44656 2.52038 0
M  V30 1867 H 183.989 1.89402 1.74599 0
M  V30 1868 H 183.947 0.759675 3.05084 0
M  V30 1869 N 187.719 -0.156864 1.56817 0
M  V30 1870 C 188.667 -1.21319 1.98455 0
M  V30 1871 C 189.661 -1.45025 0.875444 0
M  V30 1872 O 190.867 -1.45435 1.0606 0
M  V30 1873 H 187.242 -0.408142 0.631605 0
M  V30 1874 H 189.213 -0.835244 2.86472 0
M  V30 1875 C 187.962 -2.54148 2.37285 0
M  V30 1876 H 187.285 -2.36733 3.22176 0
M  V30 1877 H 188.725 -3.26712 2.70251 0
M  V30 1878 C 187.184 -3.13967 1.22173 0
M  V30 1879 O 187.714 -3.98357 0.517149 0
M  V30 1880 N 185.92 -2.7327 0.988536 0
M  V30 1881 H 185.467 -2.04744 1.56326 0
M  V30 1882 H 185.425 -3.13628 0.220209 0
M  V30 1883 N 189.197 -1.51736 -0.425897 0
M  V30 1884 C 190.16 -1.73271 -1.50032 0
M  V30 1885 C 191.16 -0.602639 -1.4908 0
M  V30 1886 O 192.35 -0.87033 -1.509 0
M  V30 1887 C 189.482 -1.79969 -2.89523 0
M  V30 1888 H 190.675 -2.69172 -1.32237 0
M  V30 1889 H 188.228 -1.41899 -0.65532 0
M  V30 1890 H 188.963 -0.859241 -3.1271 0
M  V30 1891 H 188.748 -2.62109 -2.91619 0
M  V30 1892 H 190.238 -1.9843 -3.67444 0
M  V30 1893 N 190.675 0.682077 -1.42076 0
M  V30 1894 C 191.625 1.78823 -1.41444 0
M  V30 1895 C 192.609 1.58323 -0.28681 0
M  V30 1896 O 193.801 1.68926 -0.528498 0
M  V30 1897 C 190.93 3.17232 -1.3122 0
M  V30 1898 C 190.016 3.4338 -2.489 0
M  V30 1899 N 190.407 3.40152 -3.7434 0
M  V30 1900 C 188.705 3.73986 -2.43003 0
M  V30 1901 C 189.406 3.65581 -4.52466 0
M  V30 1902 N 188.382 3.85989 -3.8277 0
M  V30 1903 H 192.184 1.7471 -2.36334 0
M  V30 1904 H 189.698 0.882622 -1.36321 0
M  V30 1905 H 191.695 3.96489 -1.2885 0
M  V30 1906 H 190.355 3.22547 -0.373263 0
M  V30 1907 H 191.366 3.20221 -4.07037 0
M  V30 1908 H 188.043 3.86591 -1.57651 0
M  V30 1909 H 189.433 3.69108 -5.61435 0
M  V30 1910 N 192.153 1.28127 0.917671 0
M  V30 1911 C 193.569 1.05749 1.19538 0
M  V30 1912 C 193.769 -0.202633 2.00479 0
M  V30 1913 O 192.825 -0.905382 2.3571 0
M  V30 1914 C 194.138 2.30273 1.93378 0
M  V30 1915 C 195.686 2.35412 2.06277 0
M  V30 1916 C 196.161 3.59692 2.83524 0
M  V30 1917 N 197.652 3.60309 2.91087 0
M  V30 1918 C 198.387 4.53147 3.51348 0
M  V30 1919 N 197.883 5.563 4.12919 0
M  V30 1920 N 199.676 4.40751 3.48849 0
M  V30 1921 H 191.827 2.09024 0.377184 0
M  V30 1922 H 194.09 0.919798 0.22951 0
M  V30 1923 H 193.796 3.22055 1.41328 0
M  V30 1924 H 193.67 2.36378 2.93947 0
M  V30 1925 H 196.057 1.4413 2.57508 0
M  V30 1926 H 196.138 2.33304 1.04895 0
M  V30 1927 H 195.782 4.51316 2.32973 0
M  V30 1928 H 195.712 3.59054 3.85211 0
M  V30 1929 H 198.203 2.85714 2.47338 0
M  V30 1930 H 198.516 6.2329 4.56869 0
M  V30 1931 H 196.861 5.60131 4.11435 0
M  V30 1932 H 200.052 3.59367 2.99955 0
M  V30 1933 H 200.225 5.13291 3.9552 0
M  V30 1934 N 193.631 -1.12557 1.10312 0
M  V30 1935 C 194.908 -1.80363 0.756878 0
M  V30 1936 C 195.288 -1.97067 -0.756824 0
M  V30 1937 O 194.636 -1.54601 -1.68259 0
M  V30 1938 C 194.846 -3.14812 1.50647 0
M  V30 1939 C 196.194 -3.90029 1.67817 0
M  V30 1940 O 197.218 -3.24464 1.46974 0
M  V30 1941 O 196.077 -5.07652 2.02365 0
M  V30 1942 H 193.171 -0.780667 0.272926 0
M  V30 1943 H 195.717 -1.19404 1.20586 0
M  V30 1944 H 194.489 -2.97936 2.53672 0
M  V30 1945 H 194.112 -3.83478 1.05026 0
M  V30 1946 N 195.109 -0.891671 -1.2995 0
M  V30 1947 C 196.056 -0.361736 -2.27948 0
M  V30 1948 C 197.026 0.551761 -1.56668 0
M  V30 1949 O 198.211 0.478736 -1.84696 0
M  V30 1950 C 195.351 0.411825 -3.42634 0
M  V30 1951 C 194.464 -0.531651 -4.28716 0
M  V30 1952 C 193.599 0.258167 -5.30572 0
M  V30 1953 C 192.638 -0.680349 -6.08307 0
M  V30 1954 N 191.775 0.0745613 -7.0206 0
M  V30 1955 H 196.615 -1.20254 -2.72659 0
M  V30 1956 H 194.152 -0.604352 -1.34112 0
M  V30 1957 H 196.11 0.876304 -4.07893 0
M  V30 1958 H 194.74 1.21715 -2.98974 0
M  V30 1959 H 193.792 -1.11463 -3.63703 0
M  V30 1960 H 195.104 -1.25038 -4.82874 0
M  V30 1961 H 194.258 0.784204 -6.0161 0
M  V30 1962 H 192.997 1.01008 -4.77126 0
M  V30 1963 H 192.002 -1.21796 -5.3614 0
M  V30 1964 H 193.227 -1.43145 -6.63842 0
M  V30 1965 H 191.173 0.808883 -6.50994 0
M  V30 1966 H 191.09 -0.584409 -7.53738 0
M  V30 1967 H 192.358 0.581123 -7.77331 0
M  V30 1968 N 196.587 1.43421 -0.653314 0
M  V30 1969 C 197.497 2.34568 0.0388565 0
M  V30 1970 C 198.513 1.53888 0.81207 0
M  V30 1971 O 199.689 1.86539 0.759294 0
M  V30 1972 C 196.754 3.32167 0.993269 0
M  V30 1973 C 195.815 4.28751 0.216977 0
M  V30 1974 C 195.048 5.21688 1.12593 0
M  V30 1975 O 195.271 5.19052 2.36519 0
M  V30 1976 O 194.205 5.98919 0.598284 0
M  V30 1977 H 198.031 2.95251 -0.711386 0
M  V30 1978 H 195.616 1.43564 -0.413502 0
M  V30 1979 H 197.498 3.92183 1.54176 0
M  V30 1980 H 196.173 2.73987 1.72374 0
M  V30 1981 H 195.08 3.72215 -0.375101 0
M  V30 1982 H 196.413 4.89913 -0.473924 0
M  V30 1983 N 198.065 0.39524 1.52563 0
M  V30 1984 C 199.313 -0.184678 2.01254 0
M  V30 1985 C 199.634 -1.46822 1.28329 0
M  V30 1986 O 198.904 -1.91666 0.405094 0
M  V30 1987 H 197.484 -0.0712355 0.743596 0
M  V30 1988 H 200.146 0.528293 1.87603 0
M  V30 1989 H 199.242 -0.390681 3.09645 0
M  V30 1990 N 199.544 -1.57102 0.125237 0
M  V30 1991 C 200.821 -1.86953 -0.575142 0
M  V30 1992 C 201.201 -1.02749 -1.84407 0
M  V30 1993 O 200.549 -0.108144 -2.28244 0
M  V30 1994 C 200.759 -3.38198 -0.861583 0
M  V30 1995 C 202.107 -4.06937 -1.21192 0
M  V30 1996 O 203.131 -3.43252 -0.951645 0
M  V30 1997 O 201.99 -5.19364 -1.70068 0
M  V30 1998 H 199.084 -0.774147 -0.290906 0
M  V30 1999 H 201.63 -1.68942 0.160211 0
M  V30 2000 H 200.402 -3.91282 0.0373647 0
M  V30 2001 H 200.025 -3.61661 -1.65188 0
M  V30 2002 N 201.022 0.148545 -1.56898 0
M  V30 2003 C 202.299 0.890019 -1.74178 0
M  V30 2004 C 202.679 1.99407 -0.692839 0
M  V30 2005 O 202.027 2.26671 0.288505 0
M  V30 2006 C 202.237 1.43389 -3.18183 0
M  V30 2007 C 203.585 1.89791 -3.79822 0
M  V30 2008 O 204.609 1.53134 -3.21603 0
M  V30 2009 O 203.468 2.57387 -4.82093 0
M  V30 2010 H 200.562 0.420496 -0.712118 0
M  V30 2011 H 203.108 0.134591 -1.69165 0
M  V30 2012 H 201.88 0.640383 -3.86024 0
M  V30 2013 H 201.503 2.25287 -3.27615 0
M  V30 2014 N 202.5 1.5196 0.417844 0
M  V30 2015 C 203.432 1.70895 1.52733 0
M  V30 2016 C 204.445 0.589405 1.51756 0
M  V30 2017 O 205.634 0.864312 1.56179 0
M  V30 2018 C 202.734 1.72627 2.91639 0
M  V30 2019 C 201.907 3.01479 3.16905 0
M  V30 2020 C 200.966 2.95139 4.35637 0
M  V30 2021 O 199.992 3.69059 4.3334 0
M  V30 2022 N 201.194 2.12328 5.40275 0
M  V30 2023 H 203.959 2.66612 1.36888 0
M  V30 2024 H 201.52 1.50089 0.607037 0
M  V30 2025 H 203.512 1.65928 3.6912 0
M  V30 2026 H 202.082 0.844216 3.00985 0
M  V30 2027 H 201.302 3.21895 2.27546 0
M  V30 2028 H 202.59 3.86736 3.30625 0
M  V30 2029 H 201.988 1.51685 5.44985 0
M  V30 2030 H 200.545 2.11494 6.16534 0
M  V30 2031 N 203.978 -0.674533 1.42435 0
M  V30 2032 C 205.203 -1.46784 1.46524 0
M  V30 2033 C 205.628 -1.87938 0.078066 0
M  V30 2034 O 204.986 -1.56014 -0.92354 0
M  V30 2035 C 205.034 -2.69307 2.39805 0
M  V30 2036 O 204.138 -3.67587 1.86959 0
M  V30 2037 H 203.479 -0.440959 0.496439 0
M  V30 2038 H 206.009 -0.827326 1.87127 0
M  V30 2039 H 206.019 -3.17374 2.56393 0
M  V30 2040 H 204.694 -2.38692 3.40586 0
M  V30 2041 H 203.271 -3.2662 1.79927 0
M  V30 2042 N 205.456 -1.28612 -0.910864 0
M  V30 2043 C 206.406 -1.09423 -2.00026 0
M  V30 2044 C 207.39 -0.0170079 -1.60891 0
M  V30 2045 O 208.582 -0.237472 -1.754 0
M  V30 2046 C 205.711 -0.76114 -3.34756 0
M  V30 2047 C 204.797 -1.87735 -3.80285 0
M  V30 2048 N 205.188 -3.11938 -3.98156 0
M  V30 2049 C 203.486 -1.76786 -4.09467 0
M  V30 2050 C 204.187 -3.84687 -4.36338 0
M  V30 2051 N 203.163 -3.12555 -4.44759 0
M  V30 2052 H 206.965 -2.03658 -2.11898 0
M  V30 2053 H 204.479 -1.19573 -1.09891 0
M  V30 2054 H 206.476 -0.604743 -4.12491 0
M  V30 2055 H 205.136 0.173403 -3.24237 0
M  V30 2056 H 206.147 -3.47516 -3.83996 0
M  V30 2057 H 202.824 -0.905284 -4.07567 0
M  V30 2058 H 204.214 -4.91518 -4.58104 0
M  V30 2059 N 206.934 1.1197 -1.10907 0
M  V30 2060 C 208.18 1.84059 -0.865674 0
M  V30 2061 C 208.535 1.82731 0.602254 0
M  V30 2062 O 207.828 1.26543 1.43866 0
M  V30 2063 C 208.022 3.30749 -1.35425 0
M  V30 2064 C 207.851 3.46363 -2.86815 0
M  V30 2065 C 206.621 3.59712 -3.54874 0
M  V30 2066 C 208.819 3.41116 -3.84895 0
M  V30 2067 N 206.801 3.63741 -4.94536 0
M  V30 2068 C 208.172 3.51698 -5.10596 0
M  V30 2069 C 210.227 3.24612 -3.77533 0
M  V30 2070 C 208.93 3.4748 -6.29802 0
M  V30 2071 C 210.956 3.21708 -4.96244 0
M  V30 2072 C 210.318 3.32856 -6.20795 0
M  V30 2073 H 206.417 0.689015 -0.369841 0
M  V30 2074 H 209.001 1.34016 -1.41237 0
M  V30 2075 H 207.172 3.79322 -0.834814 0
M  V30 2076 H 208.904 3.90718 -1.05458 0
M  V30 2077 H 205.659 3.62038 -3.05329 0
M  V30 2078 H 206.083 3.69408 -5.67333 0
M  V30 2079 H 210.725 3.14883 -2.8215 0
M  V30 2080 H 208.443 3.55978 -7.25469 0
M  V30 2081 H 212.029 3.10113 -4.92261 0
M  V30 2082 H 210.909 3.3059 -7.11112 0
M  V30 2083 N 208.412 0.89855 1.29475 0
M  V30 2084 C 209.828 0.594483 1.48115 0
M  V30 2085 C 210.028 -0.86431 1.82022 0
M  V30 2086 O 209.084 -1.64457 1.91599 0
M  V30 2087 C 210.397 1.51932 2.59494 0
M  V30 2088 C 211.945 1.5244 2.7337 0
M  V30 2089 C 212.42 2.43548 3.87877 0
M  V30 2090 N 213.911 2.41589 3.95208 0
M  V30 2091 C 214.646 3.08789 4.83153 0
M  V30 2092 N 214.142 3.85265 5.75798 0
M  V30 2093 N 215.935 2.97952 4.76635 0
M  V30 2094 H 208.086 1.84207 1.05742 0
M  V30 2095 H 210.349 0.789251 0.525154 0
M  V30 2096 H 210.055 2.55865 2.41301 0
M  V30 2097 H 209.929 1.23899 3.56271 0
M  V30 2098 H 212.316 0.492518 2.90961 0
M  V30 2099 H 212.397 1.8451 1.77172 0
M  V30 2100 H 212.041 3.46829 3.71041 0
M  V30 2101 H 211.971 2.08788 4.83441 0
M  V30 2102 H 214.462 1.86025 3.28943 0
M  V30 2103 H 214.775 4.33598 6.39697 0
M  V30 2104 H 213.12 3.89371 5.75687 0
M  V30 2105 H 216.311 2.37723 4.03244 0
M  V30 2106 H 216.484 3.50599 5.44962 0
M  V30 2107 N 209.89 -1.43072 0.660911 0
M  V30 2108 C 211.12 -2.05769 0.185153 0
M  V30 2109 C 211.528 -1.49668 -1.15742 0
M  V30 2110 O 210.871 -0.625649 -1.72717 0
M  V30 2111 C 210.933 -3.59489 0.0278237 0
M  V30 2112 C 210.597 -4.38212 1.2969 0
M  V30 2113 C 211.594 -4.69772 2.22734 0
M  V30 2114 C 209.279 -4.7809 1.54063 0
M  V30 2115 C 211.273 -5.40129 3.38437 0
M  V30 2116 C 208.96 -5.4819 2.70058 0
M  V30 2117 C 209.958 -5.79132 3.62071 0
M  V30 2118 O 209.646 -6.47798 4.76039 0
M  V30 2119 H 209.378 -0.669873 0.0908086 0
M  V30 2120 H 211.932 -1.84436 0.90402 0
M  V30 2121 H 210.162 -3.79426 -0.746489 0
M  V30 2122 H 211.851 -4.03862 -0.406275 0
M  V30 2123 H 212.617 -4.39476 2.05149 0
M  V30 2124 H 208.496 -4.53408 0.833215 0
M  V30 2125 H 212.04 -5.64198 4.10277 0
M  V30 2126 H 207.937 -5.77902 2.87574 0
M  V30 2127 H 208.705 -6.66283 4.75404 0
M  V30 2128 N 211.368 -0.403325 -1.52352 0
M  V30 2129 C 212.616 0.174003 -2.0135 0
M  V30 2130 C 212.937 1.46139 -1.29106 0
M  V30 2131 O 212.207 1.91448 -0.415253 0
M  V30 2132 H 210.787 0.0672911 -0.743963 0
M  V30 2133 H 213.449 -0.538235 -1.87321 0
M  V30 2134 H 212.545 0.374254 -3.09848 0
M  V30 2135 N 212.846 1.57033 -0.133567 0
M  V30 2136 C 214.094 1.953 0.519848 0
M  V30 2137 C 214.415 1.01866 1.66278 0
M  V30 2138 O 213.685 0.0776513 1.95746 0
M  V30 2139 H 212.265 0.721091 0.195032 0
M  V30 2140 H 214.927 1.93809 -0.205921 0
M  V30 2141 H 214.023 2.98695 0.904854 0
M  V30 2142 N 214.325 -0.140222 1.56975 0
M  V30 2143 C 215.602 -0.880769 1.74648 0
M  V30 2144 C 215.982 -1.99036 0.703404 0
M  V30 2145 O 215.33 -2.26821 -0.27648 0
M  V30 2146 C 215.54 -1.417 3.18939 0
M  V30 2147 C 216.888 -1.87774 3.80823 0
M  V30 2148 O 217.912 -1.51427 3.2241 0
M  V30 2149 O 216.771 -2.54827 4.83452 0
M  V30 2150 H 213.865 -0.416713 0.714338 0
M  V30 2151 H 216.411 -0.125618 1.69234 0
M  V30 2152 H 215.183 -0.619902 3.86359 0
M  V30 2153 H 214.806 -2.23546 3.28805 0
M  V30 2154 N 215.803 -1.52179 -0.40978 0
M  V30 2155 C 217.214 -1.58377 -0.988615 0
M  V30 2156 C 217.565 -0.423879 -1.91566 0
M  V30 2157 O 216.69 0.455844 -2.11544 0
M  V30 2158 C 217.285 -2.87044 -1.79976 0
M  V30 2159 C 215.844 -2.95722 -2.32863 0
M  V30 2160 C 214.991 -2.53309 -1.12828 0
M  V30 2161 H 217.942 -1.57558 -0.190039 0
M  V30 2162 H 217.963 -2.7236 -2.65707 0
M  V30 2163 H 217.475 -3.71444 -1.12478 0
M  V30 2164 H 215.576 -2.15814 -3.03735 0
M  V30 2165 H 215.689 -3.99951 -2.63773 0
M  V30 2166 H 214.053 -2.07142 -1.48204 0
M  V30 2167 H 214.836 -3.40082 -0.46897 0
M  V30 2168 N 217.281 0.66697 -1.42791 0
M  V30 2169 C 218.692 1.2478 -1.38877 0
M  V30 2170 C 219.043 1.96012 -0.0859426 0
M  V30 2171 O 218.168 2.00463 0.815081 0
M  V30 2172 C 218.763 2.26938 -2.51564 0
M  V30 2173 C 217.322 2.80529 -2.50959 0
M  V30 2174 C 216.469 1.54965 -2.29959 0
M  V30 2175 H 219.42 0.459853 -1.51892 0
M  V30 2176 H 219.441 3.08834 -2.22265 0
M  V30 2177 H 218.953 1.75065 -3.46372 0
M  V30 2178 H 217.054 3.36502 -1.59991 0
M  V30 2179 H 217.167 3.29012 -3.48265 0
M  V30 2180 H 215.531 1.81817 -1.78366 0
M  V30 2181 H 216.314 1.05047 -3.26833 0
M  V30 2182 N 218.759 1.29093 0.90403 0
M  V30 2183 C 220.005 1.17996 1.65676 0
M  V30 2184 C 220.36 -0.266816 1.90541 0
M  V30 2185 O 219.653 -1.19 1.50165 0
M  V30 2186 C 219.847 1.92224 3.01305 0
M  V30 2187 C 219.676 3.43972 2.89678 0
M  V30 2188 C 218.446 4.1332 2.90679 0
M  V30 2189 C 220.644 4.39546 2.67028 0
M  V30 2190 N 218.626 5.51463 2.69743 0
M  V30 2191 C 219.997 5.65119 2.5503 0
M  V30 2192 C 222.052 4.29359 2.52101 0
M  V30 2193 C 220.755 6.81663 2.29626 0
M  V30 2194 C 222.781 5.4565 2.28079 0
M  V30 2195 C 222.143 6.70193 2.16843 0
M  V30 2196 H 218.242 0.486759 0.612037 0
M  V30 2197 H 220.826 1.62868 1.06688 0
M  V30 2198 H 218.997 1.49773 3.58361 0
M  V30 2199 H 220.729 1.73429 3.65656 0
M  V30 2200 H 217.484 3.64984 3.01801 0
M  V30 2201 H 217.908 6.24105 2.6234 0
M  V30 2202 H 222.55 3.33769 2.59534 0
M  V30 2203 H 220.268 7.77313 2.20932 0
M  V30 2204 H 223.854 5.39664 2.1738 0
M  V30 2205 H 222.734 7.58659 1.98511 0
M  V30 2206 N 220.237 -1.11381 1.11499 0
M  V30 2207 C 221.648 -1.6465 0.880191 0
M  V30 2208 C 221.999 -1.87199 -0.587434 0
M  V30 2209 O 221.124 -1.60667 -1.44966 0
M  V30 2210 C 221.719 -2.99105 1.59128 0
M  V30 2211 C 220.278 -3.49279 1.40289 0
M  V30 2212 C 219.425 -2.24077 1.63354 0
M  V30 2213 H 222.376 -0.950123 1.27116 0
M  V30 2214 H 222.397 -3.66107 1.03664 0
M  V30 2215 H 221.909 -2.82661 2.65941 0
M  V30 2216 H 220.01 -3.70887 0.356888 0
M  V30 2217 H 220.123 -4.2803 2.15238 0
M  V30 2218 H 218.487 -2.31733 1.05698 0
M  V30 2219 H 219.27 -2.10175 2.71443 0
M  V30 2220 N 221.715 -0.905404 -1.28997 0
M  V30 2221 C 223.131 -0.60233 -1.47798 0
M  V30 2222 C 223.331 0.854645 -1.82478 0
M  V30 2223 O 222.387 1.63439 -1.92468 0
M  V30 2224 C 223.7 -1.53306 -2.58685 0
M  V30 2225 C 225.248 -1.53887 -2.72558 0
M  V30 2226 C 225.723 -2.45602 -3.86579 0
M  V30 2227 N 227.214 -2.43681 -3.93921 0
M  V30 2228 C 227.949 -3.11347 -4.81509 0
M  V30 2229 N 227.445 -3.88313 -5.73746 0
M  V30 2230 N 229.238 -3.00476 -4.75048 0
M  V30 2231 H 221.389 -1.84765 -1.04764 0
M  V30 2232 H 223.652 -0.792025 -0.520961 0
M  V30 2233 H 223.358 -2.57141 -2.39941 0
M  V30 2234 H 223.232 -1.25787 -3.55609 0
M  V30 2235 H 225.619 -0.507941 -2.90696 0
M  V30 2236 H 225.7 -1.85447 -1.76191 0
M  V30 2237 H 225.344 -3.48792 -3.69197 0
M  V30 2238 H 225.274 -2.11349 -4.82327 0
M  V30 2239 H 227.765 -1.87767 -3.27951 0
M  V30 2240 H 228.078 -4.36985 -6.37389 0
M  V30 2241 H 226.423 -3.92419 -5.73614 0
M  V30 2242 H 229.614 -2.39858 -4.01977 0
M  V30 2243 H 229.787 -3.53485 -5.43095 0
M  V30 2244 N 223.193 1.4272 -0.668489 0
M  V30 2245 C 224.439 2.01923 -0.188419 0
M  V30 2246 C 224.772 1.52704 1.19979 0
M  V30 2247 O 224.047 0.726566 1.8042 0
M  V30 2248 C 224.33 3.59451 -0.216085 0
M  V30 2249 C 224.183 4.18864 -1.6393 0
M  V30 2250 C 225.502 4.37903 0.439179 0
M  V30 2251 H 222.621 0.733674 -0.0699412 0
M  V30 2252 H 225.263 1.69822 -0.852076 0
M  V30 2253 H 223.413 3.86929 0.349012 0
M  V30 2254 H 225.085 4.02362 -2.25616 0
M  V30 2255 H 223.328 3.74933 -2.18193 0
M  V30 2256 H 223.999 5.27987 -1.61039 0
M  V30 2257 H 226.475 4.16079 -0.0417878 0
M  V30 2258 H 225.351 5.47519 0.389157 0
M  V30 2259 H 225.612 4.15303 1.51577 0
M  V30 2260 N 224.671 0.411399 1.52136 0
M  V30 2261 C 225.896 -0.165538 2.06738 0
M  V30 2262 C 226.321 -1.379 1.27926 0
M  V30 2263 O 225.679 -1.78628 0.310114 0
M  V30 2264 C 225.727 -0.492124 3.57226 0
M  V30 2265 O 224.831 -1.58276 3.80818 0
M  V30 2266 H 224.172 -0.0132132 0.663869 0
M  V30 2267 H 226.702 0.585253 1.96051 0
M  V30 2268 H 226.712 -0.750104 4.01045 0
M  V30 2269 H 225.387 0.394922 4.14021 0
M  V30 2270 H 223.964 -1.31677 3.48877 0
M  V30 2271 N 226.149 -1.5696 0.141893 0
M  V30 2272 C 227.56 -1.82797 -0.379776 0
M  V30 2273 C 227.911 -1.06033 -1.6508 0
M  V30 2274 O 227.036 -0.304011 -2.14254 0
M  V30 2275 C 227.631 -3.31578 -0.695802 0
M  V30 2276 C 226.19 -3.58014 -1.16201 0
M  V30 2277 C 225.337 -2.76699 -0.182455 0
M  V30 2278 H 228.288 -1.54406 0.366675 0
M  V30 2279 H 228.309 -3.47454 -1.55099 0
M  V30 2280 H 227.821 -3.87421 0.229449 0
M  V30 2281 H 225.922 -3.07553 -2.10338 0
M  V30 2282 H 226.035 -4.66501 -1.09151 0
M  V30 2283 H 224.399 -2.45618 -0.674072 0
M  V30 2284 H 225.182 -3.35311 0.736297 0
M  V30 2285 N 227.627 0.131896 -1.57047 0
M  V30 2286 C 228.59 1.14638 -1.98471 0
M  V30 2287 C 229.59 1.35029 -0.873148 0
M  V30 2288 O 230.78 1.31764 -1.13946 0
M  V30 2289 C 227.912 2.50358 -2.31373 0
M  V30 2290 H 229.105 0.79064 -2.8929 0
M  V30 2291 H 226.658 0.375761 -1.51716 0
M  V30 2292 H 227.393 2.90876 -1.43393 0
M  V30 2293 H 227.178 2.36915 -3.12432 0
M  V30 2294 H 228.668 3.23395 -2.64207 0
M  V30 2295 N 229.106 1.52395 0.401703 0
M  V30 2296 C 230.346 1.68498 1.15705 0
M  V30 2297 C 230.71 0.409748 1.87577 0
M  V30 2298 O 231.911 0.446983 2.65058 0
M  V30 2299 C 230.182 2.87789 2.11924 0
M  V30 2300 S 231.741 3.24415 2.95466 0
M  V30 2301 H 228.559 0.593267 0.391862 0
M  V30 2302 H 231.161 1.90408 0.443282 0
M  V30 2303 H 229.865 3.7884 1.57824 0
M  V30 2304 H 229.396 2.68175 2.87829 0
M  V30 2305 H 231.411 2.73614 4.13944 0
M  V30 2306 N 230.584 -0.659388 1.43143 0
M  V30 2307 C 231.547 -1.75432 1.47501 0
M  V30 2308 C 232.547 -1.56707 0.360512 0
M  V30 2309 O 233.737 -1.62717 0.622002 0
M  V30 2310 C 230.869 -3.14239 1.32162 0
M  V30 2311 H 232.062 -1.7295 2.45006 0
M  V30 2312 H 229.615 -0.870469 1.29817 0
M  V30 2313 H 230.35 -3.22336 0.356401 0
M  V30 2314 H 230.135 -3.29235 2.12948 0
M  V30 2315 H 231.625 -3.94094 1.3813 0
M  V30 2316 N 232.062 -1.29571 -0.897171 0
M  V30 2317 C 233.31 -1.17456 -1.64464 0
M  V30 2318 C 233.631 0.273698 -1.9307 0
M  V30 2319 O 232.901 1.18684 -1.55855 0
M  V30 2320 H 231.481 -0.431706 -0.609622 0
M  V30 2321 H 234.143 -1.62531 -1.07562 0
M  V30 2322 H 233.239 -1.72648 -2.59998 0
M  V30 2323 N 233.54 1.10788 -1.12088 0
M  V30 2324 C 234.956 1.34691 -0.856186 0
M  V30 2325 C 235.156 1.94791 0.515615 0
M  V30 2326 O 234.212 2.18524 1.26505 0
M  V30 2327 C 235.525 2.27208 -1.9697 0
M  V30 2328 C 237.073 2.40755 -2.00016 0
M  V30 2329 C 237.548 3.36598 -3.1059 0
M  V30 2330 N 239.039 3.44164 -3.10008 0
M  V30 2331 C 239.774 4.18284 -3.92206 0
M  V30 2332 N 239.27 4.95322 -4.84384 0
M  V30 2333 N 241.063 4.13865 -3.80357 0
M  V30 2334 H 233.214 0.70144 -2.00483 0
M  V30 2335 H 235.477 0.371405 -0.872217 0
M  V30 2336 H 235.183 1.90251 -2.958 0
M  V30 2337 H 235.057 3.27485 -1.87172 0
M  V30 2338 H 237.444 2.76982 -1.01808 0
M  V30 2339 H 237.525 1.40305 -2.13888 0
M  V30 2340 H 237.169 3.01096 -4.09028 0
M  V30 2341 H 237.099 4.36918 -2.93956 0
M  V30 2342 H 239.59 2.8922 -2.43228 0
M  V30 2343 H 239.903 5.49267 -5.43623 0
M  V30 2344 H 238.248 4.94459 -4.884 0
M  V30 2345 H 241.439 3.52773 -3.07683 0
M  V30 2346 H 241.612 4.71372 -4.44649 0
M  V30 2347 N 235.018 0.912232 1.28515 0
M  V30 2348 C 236.265 0.544599 1.95039 0
M  V30 2349 C 236.593 -0.911435 1.71823 0
M  V30 2350 O 235.848 -1.66317 1.03137 0
M  V30 2351 C 236.147 0.798392 3.48368 0
M  V30 2352 C 235.813 2.23374 3.91682 0
M  V30 2353 C 234.475 2.62617 4.03219 0
M  V30 2354 C 236.827 3.16786 4.13879 0
M  V30 2355 C 234.155 3.94429 4.3433 0
M  V30 2356 C 236.507 4.48161 4.46469 0
M  V30 2357 C 235.171 4.8726 4.56217 0
M  V30 2358 H 234.441 0.199283 0.7137 0
M  V30 2359 H 237.088 1.15327 1.52879 0
M  V30 2360 H 235.393 0.106908 3.91654 0
M  V30 2361 H 237.09 0.493141 3.97956 0
M  V30 2362 H 233.68 1.91922 3.83228 0
M  V30 2363 H 237.864 2.87677 4.0442 0
M  V30 2364 H 233.12 4.24426 4.40082 0
M  V30 2365 H 237.294 5.20559 4.62592 0
M  V30 2366 H 234.921 5.89431 4.80078 0
M  V30 2367 N 236.496 -1.42363 0.676048 0
M  V30 2368 C 237.428 -2.29164 -0.0404605 0
M  V30 2369 C 238.441 -1.43747 -0.764245 0
M  V30 2370 O 239.63 -1.67453 -0.618195 0
M  V30 2371 C 236.73 -3.21196 -1.08103 0
M  V30 2372 C 235.903 -4.35273 -0.430812 0
M  V30 2373 C 234.962 -5.08017 -1.37133 0
M  V30 2374 O 233.988 -5.62494 -0.87116 0
M  V30 2375 N 235.19 -5.13647 -2.70456 0
M  V30 2376 H 237.955 -2.91298 0.704667 0
M  V30 2377 H 235.516 -1.53303 0.520559 0
M  V30 2378 H 237.508 -3.66728 -1.71152 0
M  V30 2379 H 236.078 -2.60505 -1.72788 0
M  V30 2380 H 235.298 -3.92372 0.379209 0
M  V30 2381 H 236.586 -5.08795 0.0221132 0
M  V30 2382 H 235.984 -4.708 -3.1363 0
M  V30 2383 H 234.541 -5.62821 -3.28749 0
M  V30 2384 N 237.974 -0.419461 -1.51915 0
M  V30 2385 C 239.199 0.154572 -2.06823 0
M  V30 2386 C 239.624 1.3722 -1.28656 0
M  V30 2387 O 238.982 1.78461 -0.319583 0
M  V30 2388 C 239.03 0.473172 -3.57482 0
M  V30 2389 O 238.134 1.56255 -3.81652 0
M  V30 2390 H 237.475 0.0096924 -0.663929 0
M  V30 2391 H 240.005 -0.595642 -1.95738 0
M  V30 2392 H 240.015 0.728825 -4.01438 0
M  V30 2393 H 238.69 -0.416873 -4.13805 0
M  V30 2394 H 237.267 1.29825 -3.49571 0
M  V30 2395 N 239.452 1.56882 -0.150215 0
M  V30 2396 C 240.863 1.82995 0.370076 0
M  V30 2397 C 241.214 1.06907 1.64515 0
M  V30 2398 O 240.339 0.315369 2.1409 0
M  V30 2399 C 240.934 3.31942 0.678208 0
M  V30 2400 C 239.493 3.58625 1.14301 0
M  V30 2401 C 238.64 2.76792 0.167778 0
M  V30 2402 H 241.591 1.54209 -0.374858 0
M  V30 2403 H 241.612 3.48272 1.53254 0
M  V30 2404 H 241.124 3.87294 -0.249991 0
M  V30 2405 H 239.225 3.08664 2.08704 0
M  V30 2406 H 239.338 4.67073 1.06676 0
M  V30 2407 H 237.702 2.45972 0.661037 0
M  V30 2408 H 238.485 3.34916 -0.754069 0
M  V30 2409 N 240.93 -0.123565 1.57115 0
M  V30 2410 C 242.176 -0.833386 1.84885 0
M  V30 2411 C 242.509 -1.79742 0.735292 0
M  V30 2412 O 241.784 -1.92764 -0.25925 0
M  V30 2413 C 242.067 -1.5873 3.23228 0
M  V30 2414 C 241.92 -0.643183 4.45178 0
M  V30 2415 C 243.239 -2.54453 3.59085 0
M  V30 2416 H 240.358 -0.301518 0.6725 0
M  V30 2417 H 243 -0.097778 1.89748 0
M  V30 2418 H 241.15 -2.21438 3.19214 0
M  V30 2419 H 242.822 -0.0253015 4.61293 0
M  V30 2420 H 241.065 0.0456139 4.33776 0
M  V30 2421 H 241.736 -1.20724 5.38637 0
M  V30 2422 H 244.212 -2.01853 3.63861 0
M  V30 2423 H 243.088 -3.04238 4.5687 0
M  V30 2424 H 243.349 -3.36906 2.86264 0
M  V30 2425 N 242.408 -1.52605 -0.393616 0
M  V30 2426 C 243.685 -1.58001 -1.15304 0
M  V30 2427 C 244.065 -0.370385 -2.07825 0
M  V30 2428 O 243.413 0.641638 -2.19306 0
M  V30 2429 C 243.623 -2.91652 -1.91677 0
M  V30 2430 C 244.971 -3.4522 -2.47201 0
M  V30 2431 O 245.995 -2.93495 -2.01839 0
M  V30 2432 O 244.854 -4.35579 -3.3005 0
M  V30 2433 H 241.948 -0.637068 -0.527327 0
M  V30 2434 H 244.494 -1.64939 -0.399141 0
M  V30 2435 H 243.266 -3.71136 -1.23992 0
M  V30 2436 H 242.889 -2.88077 -2.74039 0
M  V30 2437 N 243.887 0.651787 -1.4349 0
M  V30 2438 C 245.136 1.40754 -1.44469 0
M  V30 2439 C 245.449 1.95463 -0.0731845 0
M  V30 2440 O 246.655 2.71471 0.0395721 0
M  V30 2441 C 245.111 2.54735 -2.5424 0
M  V30 2442 C 244.719 2.06628 -3.97504 0
M  V30 2443 C 246.463 3.32092 -2.64414 0
M  V30 2444 C 244.37 3.17829 -4.98737 0
M  V30 2445 H 243.3 0.528862 -0.53742 0
M  V30 2446 H 245.951 0.703365 -1.69485 0
M  V30 2447 H 244.333 3.2763 -2.22428 0
M  V30 2448 H 245.507 1.40734 -4.38783 0
M  V30 2449 H 243.822 1.42146 -3.91387 0
M  V30 2450 H 246.419 4.14952 -3.37223 0
M  V30 2451 H 246.762 3.80217 -1.69532 0
M  V30 2452 H 247.295 2.66279 -2.95534 0
M  V30 2453 H 244.034 2.74671 -5.95177 0
M  V30 2454 H 243.554 3.82429 -4.62069 0
M  V30 2455 H 245.233 3.82937 -5.21505 0
M  V30 2456 N 245.365 1.30045 0.890287 0
M  V30 2457 C 246.781 1.08261 1.17268 0
M  V30 2458 C 246.981 -0.160063 2.00863 0
M  V30 2459 O 246.037 -0.855181 2.37577 0
M  V30 2460 C 247.35 2.34323 1.8845 0
M  V30 2461 C 248.898 2.39735 2.01237 0
M  V30 2462 C 249.373 3.65625 2.7583 0
M  V30 2463 N 250.864 3.66402 2.83379 0
M  V30 2464 C 251.599 4.60498 3.41657 0
M  V30 2465 N 251.095 5.64933 4.01026 0
M  V30 2466 N 252.888 4.48051 3.39421 0
M  V30 2467 H 245.039 2.09777 0.332762 0
M  V30 2468 H 247.302 0.92446 0.209948 0
M  V30 2469 H 247.008 3.2498 1.34465 0
M  V30 2470 H 246.882 2.4256 2.88867 0
M  V30 2471 H 249.269 1.4956 2.54393 0
M  V30 2472 H 249.35 2.35476 0.999232 0
M  V30 2473 H 248.994 4.56156 2.23347 0
M  V30 2474 H 248.924 3.67144 3.77509 0
M  V30 2475 H 251.415 2.90896 2.41222 0
M  V30 2476 H 251.728 6.32841 4.43545 0
M  V30 2477 H 250.073 5.68732 3.99461 0
M  V30 2478 H 253.264 3.65649 2.92264 0
M  V30 2479 H 253.437 5.21565 3.84544 0
M  V30 2480 N 246.843 -1.10192 1.12674 0
M  V30 2481 C 248.254 -1.63707 0.897604 0
M  V30 2482 C 248.605 -1.87812 -0.567546 0
M  V30 2483 O 247.73 -1.62196 -1.43253 0
M  V30 2484 C 248.325 -2.974 1.62292 0
M  V30 2485 C 246.884 -3.47772 1.43986 0
M  V30 2486 C 246.031 -2.22332 1.65722 0
M  V30 2487 H 248.982 -0.936587 1.28116 0
M  V30 2488 H 249.003 -3.64986 1.07541 0
M  V30 2489 H 248.515 -2.79824 2.68924 0
M  V30 2490 H 246.616 -3.70487 0.396206 0
M  V30 2491 H 246.729 -4.25723 2.19765 0
M  V30 2492 H 245.093 -2.30599 1.08149 0
M  V30 2493 H 245.876 -2.07285 2.73657 0
M  V30 2494 N 248.321 -0.919034 -1.28029 0
M  V30 2495 C 249.253 -0.368762 -2.26214 0
M  V30 2496 C 250.266 0.495716 -1.55069 0
M  V30 2497 O 251.455 0.30974 -1.75792 0
M  V30 2498 C 248.555 0.491049 -3.35324 0
M  V30 2499 C 247.728 -0.352133 -4.3598 0
M  V30 2500 C 246.787 0.443622 -5.24327 0
M  V30 2501 O 245.813 -0.14566 -5.69014 0
M  V30 2502 N 247.015 1.74545 -5.53637 0
M  V30 2503 H 249.78 -1.21273 -2.74068 0
M  V30 2504 H 247.341 -0.785541 -1.41566 0
M  V30 2505 H 249.333 1.03026 -3.91366 0
M  V30 2506 H 247.903 1.23574 -2.87138 0
M  V30 2507 H 247.123 -1.07269 -3.79324 0
M  V30 2508 H 248.411 -0.928883 -5.00249 0
M  V30 2509 H 247.809 2.24666 -5.19174 0
M  V30 2510 H 246.366 2.23138 -6.12416 0
M  V30 2511 N 249.799 1.42003 -0.683588 0
M  V30 2512 C 250.729 2.33487 -0.024866 0
M  V30 2513 C 251.71 1.51163 0.779975 0
M  V30 2514 O 252.895 1.79739 0.735362 0
M  V30 2515 C 250.025 3.3487 0.920836 0
M  V30 2516 C 248.979 4.27414 0.223958 0
M  V30 2517 C 248.305 5.19074 1.2832 0
M  V30 2518 C 249.605 5.14445 -0.90242 0
M  V30 2519 H 251.299 2.88819 -0.788921 0
M  V30 2520 H 248.845 1.38873 -0.38083 0
M  V30 2521 H 250.798 3.97787 1.39081 0
M  V30 2522 H 249.522 2.77861 1.71642 0
M  V30 2523 H 248.181 3.65904 -0.225864 0
M  V30 2524 H 247.829 4.58387 2.071 0
M  V30 2525 H 247.529 5.81822 0.821995 0
M  V30 2526 H 249.053 5.84867 1.75392 0
M  V30 2527 H 250.467 5.70998 -0.513272 0
M  V30 2528 H 248.864 5.86072 -1.28997 0
M  V30 2529 H 249.934 4.52322 -1.74737 0
M  V30 2530 N 251.277 0.427512 1.51691 0
M  V30 2531 C 252.24 -0.377132 2.26076 0
M  V30 2532 C 253.24 -0.958089 1.29141 0
M  V30 2533 O 254.43 -0.83408 1.52934 0
M  V30 2534 C 251.562 -1.53262 3.04506 0
M  V30 2535 H 252.755 0.27464 2.9864 0
M  V30 2536 H 250.308 0.180445 1.55255 0
M  V30 2537 H 251.043 -2.22072 2.36335 0
M  V30 2538 H 250.828 -1.12232 3.75694 0
M  V30 2539 H 252.318 -2.10135 3.60878 0
M  V30 2540 N 252.755 -1.56801 0.158532 0
M  V30 2541 C 253.718 -2.16138 -0.762705 0
M  V30 2542 C 254.718 -1.1061 -1.16713 0
M  V30 2543 O 255.908 -1.36191 -1.08617 0
M  V30 2544 C 253.04 -2.73386 -2.03649 0
M  V30 2545 H 254.233 -2.98886 -0.246354 0
M  V30 2546 H 251.786 -1.56035 -0.0909744 0
M  V30 2547 H 252.521 -1.94335 -2.59623 0
M  V30 2548 H 252.306 -3.50601 -1.75559 0
M  V30 2549 H 253.796 -3.19065 -2.6942 0
M  V30 2550 N 254.233 0.115231 -1.57178 0
M  V30 2551 C 255.48 0.822351 -1.8505 0
M  V30 2552 C 255.808 1.79701 -0.744168 0
M  V30 2553 O 255.063 1.93909 0.26414 0
M  V30 2554 C 255.362 1.60324 -3.19423 0
M  V30 2555 C 255.028 0.772536 -4.44233 0
M  V30 2556 C 253.69 0.543468 -4.78121 0
M  V30 2557 C 256.042 0.193746 -5.2084 0
M  V30 2558 C 253.37 -0.274583 -5.86057 0
M  V30 2559 C 255.722 -0.611517 -6.29637 0
M  V30 2560 C 254.386 -0.850867 -6.62055 0
M  V30 2561 H 253.656 0.30092 -0.677147 0
M  V30 2562 H 256.303 0.0845802 -1.91313 0
M  V30 2563 H 254.608 2.41203 -3.08753 0
M  V30 2564 H 256.305 2.1544 -3.38211 0
M  V30 2565 H 252.895 0.96117 -4.17683 0
M  V30 2566 H 257.079 0.357926 -4.95008 0
M  V30 2567 H 252.335 -0.469206 -6.09597 0
M  V30 2568 H 256.509 -1.06697 -6.88178 0
M  V30 2569 H 254.136 -1.48657 -7.45523 0
M  V30 2570 N 255.711 1.52812 0.385517 0
M  V30 2571 C 256.951 1.69716 1.13911 0
M  V30 2572 C 257.315 0.42962 1.87132 0
M  V30 2573 O 258.516 0.475071 2.64569 0
M  V30 2574 C 256.787 2.90021 2.0886 0
M  V30 2575 S 258.346 3.27531 2.92009 0
M  V30 2576 H 255.164 0.59739 0.385547 0
M  V30 2577 H 257.766 1.90868 0.423061 0
M  V30 2578 H 256.47 3.80493 1.53797 0
M  V30 2579 H 256.001 2.71213 2.84969 0
M  V30 2580 H 258.016 2.77989 4.11019 0
M  V30 2581 N 257.189 -0.644168 1.43834 0
M  V30 2582 C 258.6 -1.22554 1.40845 0
M  V30 2583 C 258.951 -1.9585 0.117115 0
M  V30 2584 O 258.076 -2.01734 -0.783086 0
M  V30 2585 C 258.671 -2.22907 2.55143 0
M  V30 2586 C 257.23 -2.76501 2.5539 0
M  V30 2587 C 256.377 -1.51287 2.32396 0
M  V30 2588 H 259.328 -0.43563 1.52604 0
M  V30 2589 H 259.349 -3.05259 2.2715 0
M  V30 2590 H 258.861 -1.69533 3.49114 0
M  V30 2591 H 256.962 -3.33914 1.65324 0
M  V30 2592 H 257.075 -3.23429 3.53455 0
M  V30 2593 H 255.439 -1.78957 1.81236 0
M  V30 2594 H 256.222 -0.998336 3.28463 0
M  V30 2595 N 258.668 -1.30515 -0.883378 0
M  V30 2596 C 259.631 -1.1701 -1.97082 0
M  V30 2597 C 260.631 -0.10089 -1.60483 0
M  V30 2598 O 261.821 -0.349127 -1.70666 0
M  V30 2599 C 258.953 -0.793045 -3.31547 0
M  V30 2600 H 260.146 -2.13622 -2.10489 0
M  V30 2601 H 257.699 -1.13935 -1.06998 0
M  V30 2602 H 258.434 0.172499 -3.23841 0
M  V30 2603 H 258.219 -1.56576 -3.5948 0
M  V30 2604 H 259.709 -0.722073 -4.1131 0
M  V30 2605 N 260.146 1.09593 -1.13257 0
M  V30 2606 C 261.076 2.18214 -0.830946 0
M  V30 2607 C 262.057 1.68812 0.208966 0
M  V30 2608 O 263.242 1.9408 0.0682666 0
M  V30 2609 C 260.372 3.46051 -0.294296 0
M  V30 2610 C 259.326 4.08778 -1.26826 0
M  V30 2611 C 258.652 5.31419 -0.591449 0
M  V30 2612 C 259.952 4.51476 -2.62615 0
M  V30 2613 H 261.646 2.43703 -1.73923 0
M  V30 2614 H 259.192 1.17128 -0.837675 0
M  V30 2615 H 261.145 4.2134 -0.0709606 0
M  V30 2616 H 259.869 3.20079 0.649366 0
M  V30 2617 H 258.528 3.35505 -1.47756 0
M  V30 2618 H 258.176 5.01727 0.357633 0
M  V30 2619 H 257.876 5.74341 -1.24123 0
M  V30 2620 H 259.4 6.09433 -0.377355 0
M  V30 2621 H 260.814 5.17999 -2.45663 0
M  V30 2622 H 259.211 5.05277 -3.23752 0
M  V30 2623 H 260.281 3.63962 -3.20406 0
M  V30 2624 N 261.624 0.925811 1.2754 0
M  V30 2625 C 263.04 0.625767 1.46821 0
M  V30 2626 C 263.24 -0.825506 1.83814 0
M  V30 2627 O 262.296 -1.60356 1.95044 0
M  V30 2628 C 263.609 1.57402 2.56213 0
M  V30 2629 C 265.157 1.58204 2.70075 0
M  V30 2630 C 265.632 2.51721 3.82623 0
M  V30 2631 N 267.123 2.49917 3.89994 0
M  V30 2632 C 267.858 3.18968 4.76494 0
M  V30 2633 N 267.354 3.97391 5.67496 0
M  V30 2634 N 269.147 3.07996 4.70208 0
M  V30 2635 H 261.298 1.86409 1.01811 0
M  V30 2636 H 263.561 0.800213 0.508295 0
M  V30 2637 H 263.267 2.60925 2.35819 0
M  V30 2638 H 263.141 1.31428 3.53563 0
M  V30 2639 H 265.528 0.554124 2.89851 0
M  V30 2640 H 265.609 1.88226 1.73218 0
M  V30 2641 H 265.253 3.54622 3.63601 0
M  V30 2642 H 265.183 2.18996 4.78903 0
M  V30 2643 H 267.674 1.9296 3.24923 0
M  V30 2644 H 267.987 4.4707 6.30356 0
M  V30 2645 H 266.332 4.01495 5.67298 0
M  V30 2646 H 269.523 2.46223 3.9811 0
M  V30 2647 H 269.696 3.6208 5.37403 0
M  V30 2648 N 263.102 -1.41638 0.69111 0
M  V30 2649 C 264.513 -1.84346 0.295517 0
M  V30 2650 C 264.864 -1.57833 -1.16547 0
M  V30 2651 O 263.989 -1.04648 -1.89414 0
M  V30 2652 C 264.584 -3.34636 0.529575 0
M  V30 2653 C 263.143 -3.7593 0.187944 0
M  V30 2654 C 262.29 -2.65082 0.814052 0
M  V30 2655 H 265.241 -1.31253 0.892092 0
M  V30 2656 H 265.262 -3.79903 -0.213148 0
M  V30 2657 H 264.774 -3.53901 1.59297 0
M  V30 2658 H 262.875 -3.62268 -0.871367 0
M  V30 2659 H 262.988 -4.74808 0.63985 0
M  V30 2660 H 261.352 -2.53528 0.244017 0
M  V30 2661 H 262.135 -2.87167 1.88123 0
M  V30 2662 N 264.58 -0.43555 -1.51462 0
M  V30 2663 C 265.51 0.367376 -2.30592 0
M  V30 2664 C 266.491 1.02263 -1.35928 0
M  V30 2665 O 267.676 1.02661 -1.64847 0
M  V30 2666 C 264.806 1.46983 -3.14664 0
M  V30 2667 C 263.76 0.938161 -4.17591 0
M  V30 2668 C 263.086 2.13622 -4.90173 0
M  V30 2669 C 264.386 -0.0261621 -5.22293 0
M  V30 2670 H 266.08 -0.292969 -2.97963 0
M  V30 2671 H 263.626 -0.14234 -1.43295 0
M  V30 2672 H 265.579 2.03873 -3.688 0
M  V30 2673 H 264.303 2.15843 -2.4511 0
M  V30 2674 H 262.962 0.391481 -3.64504 0
M  V30 2675 H 262.61 2.81098 -4.17124 0
M  V30 2676 H 262.31 1.78688 -5.59772 0
M  V30 2677 H 263.834 2.7107 -5.47132 0
M  V30 2678 H 265.248 0.452384 -5.71512 0
M  V30 2679 H 263.645 -0.287992 -5.99409 0
M  V30 2680 H 264.715 -0.963391 -4.75233 0
M  V30 2681 N 266.058 1.56714 -0.166846 0
M  V30 2682 C 266.968 2.21331 0.777791 0
M  V30 2683 C 267.984 1.20358 1.25658 0
M  V30 2684 O 269.16 1.53005 1.30964 0
M  V30 2685 C 266.225 2.83787 1.99163 0
M  V30 2686 C 265.286 3.99947 1.56016 0
M  V30 2687 C 264.519 4.59415 2.71613 0
M  V30 2688 O 264.742 4.17769 3.88362 0
M  V30 2689 O 263.676 5.49359 2.45945 0
M  V30 2690 H 267.502 3.02605 0.257636 0
M  V30 2691 H 265.087 1.49275 0.0611393 0
M  V30 2692 H 266.969 3.23405 2.70161 0
M  V30 2693 H 265.644 2.05513 2.50092 0
M  V30 2694 H 264.551 3.65007 0.819809 0
M  V30 2695 H 265.884 4.79801 1.09782 0
M  V30 2696 N 267.536 -0.106894 1.57237 0
M  V30 2697 C 268.466 -1.13148 2.04254 0
M  V30 2698 C 269.447 -1.42476 0.929224 0
M  V30 2699 O 270.632 -1.52709 1.19973 0
M  V30 2700 C 267.762 -2.4545 2.45706 0
M  V30 2701 C 266.716 -2.30558 3.60592 0
M  V30 2702 C 266.042 -3.67931 3.87983 0
M  V30 2703 C 267.342 -1.75597 4.91897 0
M  V30 2704 H 269.036 -0.740374 2.90101 0
M  V30 2705 H 266.582 -0.354696 1.39563 0
M  V30 2706 H 268.535 -3.17389 2.77205 0
M  V30 2707 H 267.259 -2.86475 1.56843 0
M  V30 2708 H 265.918 -1.61067 3.29322 0
M  V30 2709 H 265.566 -4.06462 2.96306 0
M  V30 2710 H 265.266 -3.58817 4.65322 0
M  V30 2711 H 266.79 -4.41356 4.21945 0
M  V30 2712 H 268.204 -2.37364 5.21854 0
M  V30 2713 H 266.601 -1.77272 5.73319 0
M  V30 2714 H 267.671 -0.714451 4.79608 0
M  V30 2715 N 269.014 -1.53014 -0.377408 0
M  V30 2716 C 269.944 -1.81589 -1.46791 0
M  V30 2717 C 270.925 -0.668622 -1.56408 0
M  V30 2718 O 272.11 -0.917337 -1.71168 0
M  V30 2719 C 269.24 -1.99519 -2.8427 0
M  V30 2720 C 268.194 -3.15249 -2.89486 0
M  V30 2721 C 267.52 -3.18451 -4.29527 0
M  V30 2722 C 268.82 -4.54084 -2.58079 0
M  V30 2723 H 270.514 -2.7291 -1.23127 0
M  V30 2724 H 268.06 -1.31319 -0.590883 0
M  V30 2725 H 270.013 -2.18092 -3.60575 0
M  V30 2726 H 268.737 -1.04897 -3.09296 0
M  V30 2727 H 267.396 -2.96477 -2.15631 0
M  V30 2728 H 267.044 -2.2149 -4.5161 0
M  V30 2729 H 266.744 -3.962 -4.33934 0
M  V30 2730 H 268.268 -3.39193 -5.07721 0
M  V30 2731 H 269.682 -4.72899 -3.24098 0
M  V30 2732 H 268.079 -5.33987 -2.7382 0
M  V30 2733 H 269.149 -4.60006 -1.53372 0
M  V30 2734 N 270.492 0.636531 -1.44174 0
M  V30 2735 C 271.74 1.39343 -1.46383 0
M  V30 2736 C 272.061 1.94766 -0.0955715 0
M  V30 2737 O 271.331 1.75452 0.871395 0
M  V30 2738 H 269.911 0.517199 -0.538994 0
M  V30 2739 H 272.573 0.74957 -1.7991 0
M  V30 2740 H 271.669 2.22746 -2.18611 0
M  V30 2741 N 271.97 1.30982 0.876444 0
M  V30 2742 C 273.217 1.20296 1.62896 0
M  V30 2743 C 273.545 -0.240395 1.93009 0
M  V30 2744 O 272.8 -1.18733 1.55567 0
M  V30 2745 C 273.099 1.98572 2.9716 0
M  V30 2746 C 272.765 3.48125 2.86566 0
M  V30 2747 C 271.427 3.88905 2.83383 0
M  V30 2748 C 273.779 4.43322 2.74071 0
M  V30 2749 C 271.107 5.2316 2.65556 0
M  V30 2750 C 273.459 5.77695 2.57781 0
M  V30 2751 C 272.123 6.17704 2.52979 0
M  V30 2752 H 271.393 0.440193 0.59608 0
M  V30 2753 H 274.04 1.62177 1.01837 0
M  V30 2754 H 272.345 1.49352 3.62217 0
M  V30 2755 H 274.042 1.8769 3.54364 0
M  V30 2756 H 270.632 3.15723 2.89856 0
M  V30 2757 H 274.816 4.12752 2.75589 0
M  V30 2758 H 270.072 5.53241 2.60259 0
M  V30 2759 H 274.246 6.51091 2.47089 0
M  V30 2760 H 271.873 7.21678 2.38924 0
M  V30 2761 N 273.449 -1.08991 1.13837 0
M  V30 2762 C 274.381 -2.15606 0.777612 0
M  V30 2763 C 275.394 -1.61533 -0.202739 0
M  V30 2764 O 276.583 -1.78491 0.0181055 0
M  V30 2765 C 273.683 -3.3864 0.132623 0
M  V30 2766 C 272.856 -4.22115 1.1462 0
M  V30 2767 C 271.915 -5.23564 0.526074 0
M  V30 2768 O 270.941 -5.56678 1.18735 0
M  V30 2769 N 272.143 -5.76266 -0.699866 0
M  V30 2770 H 274.908 -2.47159 1.69506 0
M  V30 2771 H 272.469 -1.24747 1.03198 0
M  V30 2772 H 274.461 -4.03626 -0.29459 0
M  V30 2773 H 273.031 -3.04938 -0.687849 0
M  V30 2774 H 272.251 -3.53199 1.75055 0
M  V30 2775 H 273.539 -4.74709 1.83109 0
M  V30 2776 H 272.937 -5.51585 -1.25581 0
M  V30 2777 H 271.494 -6.42963 -1.06968 0
M  V30 2778 N 274.927 -0.932562 -1.27047 0
M  V30 2779 C 275.857 -0.452902 -2.29066 0
M  V30 2780 C 276.838 0.489338 -1.62909 0
M  V30 2781 O 278.023 0.393046 -1.90181 0
M  V30 2782 C 275.153 0.290698 -3.46081 0
M  V30 2783 C 274.107 -0.564168 -4.24265 0
M  V30 2784 C 273.433 0.308886 -5.33807 0
M  V30 2785 C 274.733 -1.83112 -4.89149 0
M  V30 2786 H 276.427 -1.30552 -2.69437 0
M  V30 2787 H 273.973 -0.629201 -1.29526 0
M  V30 2788 H 275.926 0.637233 -4.16554 0
M  V30 2789 H 274.65 1.17738 -3.0464 0
M  V30 2790 H 273.309 -0.893477 -3.55545 0
M  V30 2791 H 272.957 1.19467 -4.88607 0
M  V30 2792 H 272.657 -0.259633 -5.87026 0
M  V30 2793 H 274.181 0.650884 -6.07121 0
M  V30 2794 H 275.595 -1.55236 -5.51883 0
M  V30 2795 H 273.992 -2.34353 -5.52448 0
M  V30 2796 H 275.062 -2.54772 -4.12576 0
M  V30 2797 N 276.405 1.4127 -0.698611 0
M  V30 2798 C 277.816 1.84187 -0.305289 0
M  V30 2799 C 278.167 1.58449 1.15708 0
M  V30 2800 O 277.292 1.05651 1.88856 0
M  V30 2801 C 277.887 3.3435 -0.547314 0
M  V30 2802 C 276.446 3.75826 -0.207878 0
M  V30 2803 C 275.593 2.64647 -0.828099 0
M  V30 2804 H 278.544 1.30778 -0.89904 0
M  V30 2805 H 278.565 3.8001 0.192998 0
M  V30 2806 H 278.077 3.53051 -1.61172 0
M  V30 2807 H 276.178 3.62725 0.852143 0
M  V30 2808 H 276.291 4.74462 -0.665021 0
M  V30 2809 H 274.655 2.53395 -0.257458 0
M  V30 2810 H 275.438 2.86165 -1.89643 0
M  V30 2811 N 277.883 0.443576 1.51229 0
M  V30 2812 C 279.294 -0.0180867 1.86691 0
M  V30 2813 C 279.645 -1.41384 1.36033 0
M  V30 2814 O 278.77 -2.04291 0.713722 0
M  V30 2815 C 279.365 -0.039597 3.38777 0
M  V30 2816 C 277.924 -0.445692 3.73752 0
M  V30 2817 C 277.071 0.357584 2.74985 0
M  V30 2818 H 280.022 0.659138 1.44364 0
M  V30 2819 H 280.043 -0.847761 3.70936 0
M  V30 2820 H 279.555 0.976382 3.75617 0
M  V30 2821 H 277.656 -1.46704 3.42503 0
M  V30 2822 H 277.769 -0.166155 4.78812 0
M  V30 2823 H 276.133 -0.184973 2.54027 0
M  V30 2824 H 276.916 1.37256 3.14668 0
M  V30 2825 N 279.361 -1.56624 0.175154 0
M  V30 2826 C 280.291 -2.21155 -0.749195 0
M  V30 2827 C 281.272 -1.16836 -1.23626 0
M  V30 2828 O 282.457 -1.45277 -1.28873 0
M  V30 2829 C 279.587 -2.8553 -1.97711 0
M  V30 2830 C 278.541 -3.95921 -1.62575 0
M  V30 2831 C 277.867 -4.47365 -2.92864 0
M  V30 2832 C 279.167 -5.15323 -0.850838 0
M  V30 2833 H 280.861 -2.98653 -0.211295 0
M  V30 2834 H 278.407 -1.43651 -0.100188 0
M  V30 2835 H 280.36 -3.2935 -2.62881 0
M  V30 2836 H 279.084 -2.05406 -2.53921 0
M  V30 2837 H 277.743 -3.52762 -0.997719 0
M  V30 2838 H 277.391 -3.64027 -3.47122 0
M  V30 2839 H 277.091 -5.21839 -2.70106 0
M  V30 2840 H 278.615 -4.93873 -3.59056 0
M  V30 2841 H 280.029 -5.55812 -1.40521 0
M  V30 2842 H 278.426 -5.95739 -0.722154 0
M  V30 2843 H 279.496 -4.84661 0.152082 0
M  V30 2844 N 280.839 0.0985539 -1.57292 0
M  V30 2845 C 282.25 0.653457 -1.74891 0
M  V30 2846 C 282.601 1.7929 -0.796838 0
M  V30 2847 O 281.726 2.16385 0.0254886 0
M  V30 2848 C 282.321 1.19216 -3.17133 0
M  V30 2849 C 280.88 1.69316 -3.36168 0
M  V30 2850 C 280.027 0.601294 -2.70702 0
M  V30 2851 H 282.978 -0.127497 -1.58187 0
M  V30 2852 H 282.999 2.06154 -3.19814 0
M  V30 2853 H 282.511 0.362635 -3.86402 0
M  V30 2854 H 280.612 2.5468 -2.71972 0
M  V30 2855 H 280.725 1.78853 -4.44464 0
M  V30 2856 H 279.089 1.0399 -2.32504 0
M  V30 2857 H 279.872 -0.217592 -3.4261 0
M  V30 2858 N 282.317 1.53212 0.369288 0
M  V30 2859 C 283.227 1.82342 1.47609 0
M  V30 2860 C 284.243 0.711532 1.58787 0
M  V30 2861 O 285.419 1.0012 1.74751 0
M  V30 2862 C 282.484 2.00393 2.8292 0
M  V30 2863 C 281.545 3.24297 2.81301 0
M  V30 2864 C 280.778 3.41478 4.10157 0
M  V30 2865 O 281.001 2.63033 5.06132 0
M  V30 2866 O 279.935 4.34817 4.16194 0
M  V30 2867 H 283.761 2.76366 1.25918 0
M  V30 2868 H 281.346 1.38547 0.559034 0
M  V30 2869 H 283.228 2.13859 3.63101 0
M  V30 2870 H 281.903 1.09559 3.04596 0
M  V30 2871 H 280.81 3.16257 1.99831 0
M  V30 2872 H 282.143 4.15041 2.64578 0
M  V30 2873 N 283.795 -0.628877 1.44509 0
M  V30 2874 C 284.725 -1.75187 1.54376 0
M  V30 2875 C 285.706 -1.65411 0.396618 0
M  V30 2876 O 286.891 -1.84137 0.617031 0
M  V30 2877 C 284.021 -3.13725 1.48976 0
M  V30 2878 C 282.975 -3.38291 2.62189 0
M  V30 2879 C 282.301 -4.76883 2.41841 0
M  V30 2880 C 283.601 -3.30632 4.04326 0
M  V30 2881 H 285.295 -1.67187 2.48373 0
M  V30 2882 H 282.841 -0.802909 1.19538 0
M  V30 2883 H 284.794 -3.92064 1.54478 0
M  V30 2884 H 283.518 -3.22515 0.514961 0
M  V30 2885 H 282.177 -2.62334 2.56079 0
M  V30 2886 H 281.825 -4.82378 1.42548 0
M  V30 2887 H 281.525 -4.94278 3.17747 0
M  V30 2888 H 283.049 -5.57449 2.49165 0
M  V30 2889 H 284.463 -3.98873 4.11793 0
M  V30 2890 H 282.86 -3.59561 4.80454 0
M  V30 2891 H 283.93 -2.28404 4.27738 0
M  V30 2892 N 285.273 -1.31445 -0.869486 0
M  V30 2893 C 286.689 -1.10113 -1.15531 0
M  V30 2894 C 286.889 0.128087 -2.01092 0
M  V30 2895 O 285.945 0.817276 -2.38908 0
M  V30 2896 C 287.258 -2.37291 -1.84698 0
M  V30 2897 C 288.806 -2.42906 -1.97397 0
M  V30 2898 C 289.281 -3.69967 -2.69979 0
M  V30 2899 N 290.772 -3.70864 -2.77514 0
M  V30 2900 C 291.507 -4.65875 -3.34287 0
M  V30 2901 N 291.003 -5.71242 -3.91988 0
M  V30 2902 N 292.796 -4.53394 -3.3225 0
M  V30 2903 H 284.947 -2.1028 -0.299347 0
M  V30 2904 H 287.21 -0.927683 -0.195214 0
M  V30 2905 H 286.916 -3.27078 -1.29278 0
M  V30 2906 H 286.79 -2.47125 -2.84972 0
M  V30 2907 H 289.177 -1.53588 -2.51982 0
M  V30 2908 H 289.258 -2.37036 -0.961643 0
M  V30 2909 H 288.902 -4.59652 -2.16062 0
M  V30 2910 H 288.832 -3.73103 -3.7162 0
M  V30 2911 H 291.323 -2.94697 -2.36563 0
M  V30 2912 H 291.636 -6.39817 -4.33421 0
M  V30 2913 H 289.981 -5.75015 -3.90362 0
M  V30 2914 H 293.172 -3.70252 -2.8641 0
M  V30 2915 H 293.345 -5.27617 -3.76197 0
M  V30 2916 N 286.751 1.08385 -1.14413 0
M  V30 2917 C 287.681 2.17321 -0.854044 0
M  V30 2918 C 288.662 1.69024 0.191049 0
M  V30 2919 O 289.847 1.94141 0.0476779 0
M  V30 2920 C 286.977 3.45719 -0.330983 0
M  V30 2921 C 285.931 4.07409 -1.31155 0
M  V30 2922 C 285.257 5.30762 -0.64778 0
M  V30 2923 C 286.557 4.48665 -2.67388 0
M  V30 2924 H 288.251 2.41845 -1.76498 0
M  V30 2925 H 285.797 1.16233 -0.850051 0
M  V30 2926 H 287.75 4.21241 -0.115645 0
M  V30 2927 H 286.474 3.2075 0.615381 0
M  V30 2928 H 285.133 3.33919 -1.51306 0
M  V30 2929 H 284.781 5.02078 0.304398 0
M  V30 2930 H 284.481 5.72992 -1.30207 0
M  V30 2931 H 286.005 6.08998 -0.441972 0
M  V30 2932 H 287.419 5.15364 -2.51143 0
M  V30 2933 H 285.816 5.01814 -3.29093 0
M  V30 2934 H 286.886 3.60543 -3.24248 0
M  V30 2935 N 288.23 0.939286 1.26551 0
M  V30 2936 C 289.646 0.641304 1.46149 0
M  V30 2937 C 289.846 -0.805964 1.84679 0
M  V30 2938 O 288.902 -1.58278 1.96734 0
M  V30 2939 C 290.215 1.6011 2.54529 0
M  V30 2940 C 291.763 1.6106 2.68382 0
M  V30 2941 C 292.238 2.55765 3.79932 0
M  V30 2942 N 293.729 2.5404 3.87322 0
M  V30 2943 C 294.464 3.24004 4.73085 0
M  V30 2944 N 293.96 4.03388 5.63249 0
M  V30 2945 N 295.753 3.12965 4.66914 0
M  V30 2946 H 287.904 1.87478 0.998285 0
M  V30 2947 H 290.167 0.805559 0.499779 0
M  V30 2948 H 289.873 2.63412 2.33039 0
M  V30 2949 H 289.747 1.35171 3.52149 0
M  V30 2950 H 292.134 0.584835 2.89247 0
M  V30 2951 H 292.215 1.90053 1.71212 0
M  V30 2952 H 291.859 3.58458 3.5982 0
M  V30 2953 H 291.789 2.24063 4.76554 0
M  V30 2954 H 294.28 1.96396 3.22858 0
M  V30 2955 H 294.593 4.5373 6.25579 0
M  V30 2956 H 292.938 4.07489 5.63008 0
M  V30 2957 H 296.129 2.50432 3.95476 0
M  V30 2958 H 296.302 3.67759 5.33533 0
M  V30 2959 N 289.708 -1.40897 0.706093 0
M  V30 2960 C 290.656 -2.32572 0.0361893 0
M  V30 2961 C 291.65 -1.51532 -0.757266 0
M  V30 2962 O 292.856 -1.67396 -0.661703 0
M  V30 2963 H 289.231 -0.751966 -0.00709935 0
M  V30 2964 H 291.202 -2.86733 0.826249 0
M  V30 2965 C 289.951 -3.36418 -0.87854 0
M  V30 2966 H 289.274 -3.98836 -0.277401 0
M  V30 2967 H 290.714 -4.0308 -1.3154 0
M  V30 2968 C 289.173 -2.71141 -1.99961 0
M  V30 2969 O 289.703 -2.56735 -3.0895 0
M  V30 2970 N 287.909 -2.29671 -1.78043 0
M  V30 2971 H 287.456 -2.41588 -0.894042 0
M  V30 2972 H 287.414 -1.86332 -2.53235 0
M  V30 2973 N 291.186 -0.45159 -1.50991 0
M  V30 2974 C 292.134 0.366864 -2.29689 0
M  V30 2975 C 293.128 1.00809 -1.36139 0
M  V30 2976 O 294.334 0.941427 -1.53418 0
M  V30 2977 H 290.709 0.137133 -0.739391 0
M  V30 2978 H 292.68 -0.317538 -2.96706 0
M  V30 2979 C 291.429 1.44751 -3.16137 0
M  V30 2980 H 290.752 0.963473 -3.88017 0
M  V30 2981 H 292.192 1.99315 -3.74232 0
M  V30 2982 C 290.651 2.43869 -2.32442 0
M  V30 2983 O 291.181 3.4872 -1.99392 0
M  V30 2984 N 289.387 2.15105 -1.95392 0
M  V30 2985 H 288.934 1.29866 -2.22469 0
M  V30 2986 H 288.892 2.81661 -1.39693 0
M  V30 2987 N 292.664 1.56529 -0.183458 0
M  V30 2988 C 293.912 1.96855 0.457452 0
M  V30 2989 C 294.233 1.07104 1.62953 0
M  V30 2990 O 293.503 0.139887 1.954 0
M  V30 2991 H 292.083 0.72693 0.171992 0
M  V30 2992 H 294.745 1.93056 -0.267476 0
M  V30 2993 H 293.841 3.01423 0.809368 0
M  V30 2994 N 294.142 -0.090211 1.57342 0
M  V30 2995 C 295.092 -1.11557 1.98844 0
M  V30 2996 C 296.076 -1.35503 0.867624 0
M  V30 2997 O 297.268 -1.36113 1.13148 0
M  V30 2998 C 294.397 -2.43446 2.42051 0
M  V30 2999 C 293.483 -2.22853 3.60828 0
M  V30 3000 N 293.874 -1.72141 4.75606 0
M  V30 3001 C 292.172 -2.53401 3.67021 0
M  V30 3002 C 292.873 -1.65932 5.57531 0
M  V30 3003 N 291.849 -2.11323 5.00843 0
M  V30 3004 H 295.651 -0.716499 2.85032 0
M  V30 3005 H 293.165 -0.297567 1.59651 0
M  V30 3006 H 295.162 -3.17644 2.70014 0
M  V30 3007 H 293.822 -2.84087 1.57241 0
M  V30 3008 H 294.833 -1.41268 4.98261 0
M  V30 3009 H 291.51 -2.97532 2.92884 0
M  V30 3010 H 292.9 -1.27733 6.59647 0
M  V30 3011 N 295.62 -1.53406 -0.361157 0
M  V30 3012 C 296.845 -1.74024 -1.12829 0
M  V30 3013 C 297.27 -0.470069 -1.82132 0
M  V30 3014 O 296.628 0.57619 -1.719 0
M  V30 3015 C 296.676 -2.90903 -2.13091 0
M  V30 3016 O 295.78 -2.59821 -3.20261 0
M  V30 3017 H 295.121 -0.577804 -0.327168 0
M  V30 3018 H 297.651 -2.00307 -0.41693 0
M  V30 3019 H 297.661 -3.17194 -2.56616 0
M  V30 3020 H 296.336 -3.83034 -1.62042 0
M  V30 3021 H 294.913 -2.44362 -2.81677 0
M  V30 3022 N 297.098 0.621204 -1.44841 0
M  V30 3023 C 298.344 1.3826 -1.48365 0
M  V30 3024 C 298.677 1.93831 -0.119624 0
M  V30 3025 O 297.952 1.74251 0.864111 0
M  V30 3026 C 298.235 2.54058 -2.55199 0
M  V30 3027 C 298.088 2.03772 -4.00995 0
M  V30 3028 C 299.407 3.56225 -2.58442 0
M  V30 3029 H 296.526 0.501374 -0.540179 0
M  V30 3030 H 299.168 0.7015 -1.76576 0
M  V30 3031 H 297.318 3.12162 -2.31274 0
M  V30 3032 H 298.99 1.50423 -4.36086 0
M  V30 3033 H 297.233 1.34876 -4.12299 0
M  V30 3034 H 297.904 2.87185 -4.71411 0
M  V30 3035 H 300.38 3.07939 -2.79844 0
M  V30 3036 H 299.256 4.34756 -3.3508 0
M  V30 3037 H 299.517 4.10949 -1.63013 0
M  V30 3038 N 298.576 1.31904 0.862503 0
M  V30 3039 C 299.508 1.16005 1.97675 0
M  V30 3040 C 300.521 0.0971234 1.6251 0
M  V30 3041 O 301.71 0.345337 1.75128 0
M  V30 3042 C 298.81 0.751791 3.30456 0
M  V30 3043 C 297.983 1.90133 3.93914 0
M  V30 3044 C 297.042 1.4779 5.05019 0
M  V30 3045 O 296.068 2.18872 5.25437 0
M  V30 3046 N 297.27 0.369491 5.79323 0
M  V30 3047 H 300.035 2.11982 2.11857 0
M  V30 3048 H 297.596 1.24337 1.03691 0
M  V30 3049 H 299.588 0.451084 4.02178 0
M  V30 3050 H 298.158 -0.116593 3.12382 0
M  V30 3051 H 297.378 2.36896 3.15078 0
M  V30 3052 H 298.666 2.67111 4.33047 0
M  V30 3053 H 298.064 -0.222299 5.65263 0
M  V30 3054 H 296.621 0.128354 6.51674 0
M  V30 3055 N 300.054 -1.07777 1.14986 0
M  V30 3056 C 300.984 -2.16865 0.865557 0
M  V30 3057 C 301.965 -1.69123 -0.182083 0
M  V30 3058 O 303.15 -1.94164 -0.0373815 0
M  V30 3059 C 300.28 -3.45539 0.349313 0
M  V30 3060 C 299.234 -4.06708 1.33313 0
M  V30 3061 C 298.56 -5.30411 0.675918 0
M  V30 3062 C 299.86 -4.47241 2.69764 0
M  V30 3063 H 301.554 -2.40905 1.77778 0
M  V30 3064 H 299.1 -1.15781 0.856203 0
M  V30 3065 H 301.053 -4.21174 0.137983 0
M  V30 3066 H 299.777 -3.21072 -0.598362 0
M  V30 3067 H 298.436 -3.33112 1.53075 0
M  V30 3068 H 298.084 -5.02232 -0.277767 0
M  V30 3069 H 297.784 -5.72293 1.33244 0
M  V30 3070 H 299.308 -6.08755 0.474262 0
M  V30 3071 H 300.722 -5.14025 2.53873 0
M  V30 3072 H 299.119 -5.00062 3.3175 0
M  V30 3073 H 300.189 -3.58818 3.26156 0
M  V30 3074 N 301.532 -0.945985 -1.26051 0
M  V30 3075 C 302.76 -0.613025 -1.9761 0
M  V30 3076 C 303.175 0.813035 -1.70397 0
M  V30 3077 O 302.532 1.54274 -0.974979 0
M  V30 3078 C 302.583 -0.85159 -3.51326 0
M  V30 3079 O 302.304 -2.22157 -3.77595 0
M  V30 3080 C 303.805 -0.529831 -4.40122 0
M  V30 3081 H 301.025 -0.230593 -0.630133 0
M  V30 3082 H 303.569 -1.268 -1.60443 0
M  V30 3083 H 301.724 -0.243151 -3.86636 0
M  V30 3084 H 302.138 -2.2852 -4.721 0
M  V30 3085 H 303.612 -0.747348 -5.46917 0
M  V30 3086 H 304.089 0.535341 -4.35925 0
M  V30 3087 H 304.695 -1.11721 -4.10364 0
M  V30 3088 N 303.011 1.40521 -0.713556 0
M  V30 3089 C 303.941 2.33381 -0.0743864 0
M  V30 3090 C 304.922 1.52784 0.747735 0
M  V30 3091 O 306.107 1.81258 0.697071 0
M  V30 3092 C 303.237 3.36748 0.849598 0
M  V30 3093 C 302.191 4.27793 0.133247 0
M  V30 3094 C 301.517 5.21679 1.17281 0
M  V30 3095 C 302.817 5.12415 -1.01134 0
M  V30 3096 H 304.511 2.87081 -0.850007 0
M  V30 3097 H 302.057 1.38034 -0.410201 0
M  V30 3098 H 304.01 4.00648 1.30612 0
M  V30 3099 H 302.734 2.81439 1.65709 0
M  V30 3100 H 301.393 3.65342 -0.303426 0
M  V30 3101 H 301.041 4.62677 1.9733 0
M  V30 3102 H 300.741 5.83435 0.698397 0
M  V30 3103 H 302.265 5.88456 1.62947 0
M  V30 3104 H 303.679 5.69781 -0.634274 0
M  V30 3105 H 302.076 5.83203 -1.41399 0
M  V30 3106 H 303.146 4.48514 -1.84292 0
M  V30 3107 N 304.489 0.459591 1.5075 0
M  V30 3108 C 305.9 0.00171547 1.867 0
M  V30 3109 C 306.251 -1.39934 1.37525 0
M  V30 3110 O 305.376 -2.03523 0.735349 0
M  V30 3111 C 305.971 -0.00366298 3.388 0
M  V30 3112 C 304.53 -0.406026 3.74204 0
M  V30 3113 C 303.677 0.38673 2.7459 0
M  V30 3114 H 306.628 0.674413 1.43657 0
M  V30 3115 H 306.649 -0.808371 3.71814 0
M  V30 3116 H 306.161 1.01617 3.74561 0
M  V30 3117 H 304.262 -1.43063 3.4404 0
M  V30 3118 H 304.375 -0.115362 4.78961 0
M  V30 3119 H 302.739 -0.158019 2.54209 0
M  V30 3120 H 303.522 1.40585 3.13194 0
M  V30 3121 N 305.967 -1.56429 0.191757 0
M  V30 3122 C 307.378 -1.83912 -0.321428 0
M  V30 3123 C 307.729 -1.11231 -1.61623 0
M  V30 3124 O 306.854 -0.37202 -2.13178 0
M  V30 3125 C 307.449 -3.33624 -0.589961 0
M  V30 3126 C 306.008 -3.6153 -1.04753 0
M  V30 3127 C 305.155 -2.7714 -0.0943327 0
M  V30 3128 H 308.106 -1.53161 0.415612 0
M  V30 3129 H 308.127 -3.52213 -1.43966 0
M  V30 3130 H 307.639 -3.86495 0.352588 0
M  V30 3131 H 305.74 -3.14089 -2.00447 0
M  V30 3132 H 305.853 -4.69737 -0.942549 0
M  V30 3133 H 304.217 -2.47638 -0.595589 0
M  V30 3134 H 305 -3.32799 0.842601 0
M  V30 3135 N 307.445 0.0818655 -1.57387 0
M  V30 3136 C 308.693 0.781368 -1.86384 0
M  V30 3137 C 309.014 1.78618 -0.782342 0
M  V30 3138 O 308.284 1.94976 0.190061 0
M  V30 3139 H 306.864 0.291562 -0.687751 0
M  V30 3140 H 309.526 0.060348 -1.94807 0
M  V30 3141 H 308.622 1.3038 -2.83562 0
M  V30 3142 N 308.923 1.53595 0.353017 0
M  V30 3143 C 309.853 1.83902 1.43883 0
M  V30 3144 C 310.834 0.693421 1.55324 0
M  V30 3145 O 312.019 0.944452 1.69687 0
M  V30 3146 C 309.149 2.04016 2.8106 0
M  V30 3147 C 308.103 3.19814 2.84434 0
M  V30 3148 C 307.429 3.25244 4.24406 0
M  V30 3149 C 308.729 4.58133 2.50822 0
M  V30 3150 H 310.423 2.74835 1.1877 0
M  V30 3151 H 307.969 1.32242 0.569917 0
M  V30 3152 H 309.922 2.238 3.57059 0
M  V30 3153 H 308.646 1.09804 3.07588 0
M  V30 3154 H 307.305 2.9987 2.10887 0
M  V30 3155 H 306.953 2.28646 4.48029 0
M  V30 3156 H 306.653 4.03054 4.27576 0
M  V30 3157 H 308.177 3.47228 5.0226 0
M  V30 3158 H 309.591 4.77995 3.16534 0
M  V30 3159 H 307.988 5.38276 2.6529 0
M  V30 3160 H 309.058 4.62387 1.46034 0
M  V30 3161 N 310.401 -0.613514 1.45168 0
M  V30 3162 C 311.311 -1.75296 1.55912 0
M  V30 3163 C 312.327 -1.68244 0.443856 0
M  V30 3164 O 313.503 -1.88706 0.70371 0
M  V30 3165 C 310.568 -3.1174 1.5172 0
M  V30 3166 C 309.629 -3.30291 2.74238 0
M  V30 3167 C 308.862 -4.60226 2.70236 0
M  V30 3168 O 309.085 -5.42168 1.77229 0
M  V30 3169 O 308.019 -4.81361 3.61352 0
M  V30 3170 H 311.845 -1.69183 2.52212 0
M  V30 3171 H 309.43 -0.776886 1.27612 0
M  V30 3172 H 311.312 -3.93044 1.51968 0
M  V30 3173 H 309.987 -3.18357 0.585697 0
M  V30 3174 H 308.894 -2.48598 2.79553 0
M  V30 3175 H 310.227 -3.28547 3.66494 0
M  V30 3176 N 311.879 -1.3236 -0.855495 0
M  V30 3177 C 312.812 -1.15559 -1.96777 0
M  V30 3178 C 313.79 -0.0552681 -1.62506 0
M  V30 3179 O 314.974 -0.214419 -1.87277 0
M  V30 3180 C 312.101 -0.768851 -3.29858 0
M  V30 3181 C 311.147 -1.87429 -3.83109 0
M  V30 3182 S 311.98 -3.48243 -4.06801 0
M  V30 3183 C 313.136 -3.11539 -5.42858 0
M  V30 3184 H 313.369 -2.09717 -2.10727 0
M  V30 3185 H 310.902 -1.17011 -1.00737 0
M  V30 3186 H 312.86 -0.55248 -4.06765 0
M  V30 3187 H 311.521 0.153857 -3.13723 0
M  V30 3188 H 310.714 -1.55667 -4.79358 0
M  V30 3189 H 310.316 -2.04647 -3.13042 0
M  V30 3190 H 312.608 -2.61331 -6.2507 0
M  V30 3191 H 313.551 -4.06806 -5.79582 0
M  V30 3192 H 313.959 -2.48582 -5.06821 0
M  V30 3193 N 313.357 1.07166 -1.15556 0
M  V30 3194 C 314.32 2.12589 -0.856644 0
M  V30 3195 C 315.32 1.6015 0.14444 0
M  V30 3196 O 316.51 1.7399 -0.0854163 0
M  V30 3197 C 313.642 3.39753 -0.279405 0
M  V30 3198 H 314.835 2.40539 -1.79112 0
M  V30 3199 H 312.388 1.23086 -0.963298 0
M  V30 3200 H 313.123 3.17447 0.663174 0
M  V30 3201 H 312.908 3.79117 -1.00063 0
M  V30 3202 H 314.398 4.17507 -0.0879113 0
M  V30 3203 N 314.835 0.952656 1.25548 0
M  V30 3204 C 315.765 0.489287 2.28316 0
M  V30 3205 C 316.746 -0.463359 1.63667 0
M  V30 3206 O 317.931 -0.36274 1.90782 0
M  V30 3207 C 315.061 -0.235603 3.465 0
M  V30 3208 C 314.015 0.631593 4.23314 0
M  V30 3209 C 313.341 -0.223923 5.34231 0
M  V30 3210 C 314.641 1.90871 4.86174 0
M  V30 3211 H 316.335 1.34822 2.67326 0
M  V30 3212 H 313.881 0.649728 1.28509 0
M  V30 3213 H 315.834 -0.570882 4.17515 0
M  V30 3214 H 314.558 -1.12877 3.06474 0
M  V30 3215 H 313.217 0.949929 3.54079 0
M  V30 3216 H 312.865 -1.11678 4.90446 0
M  V30 3217 H 312.565 0.35299 5.86539 0
M  V30 3218 H 314.089 -0.554214 6.0808 0
M  V30 3219 H 315.503 1.63997 5.49343 0
M  V30 3220 H 313.9 2.43112 5.4865 0
M  V30 3221 H 314.97 2.61304 4.08471 0
M  V30 3222 N 316.313 -1.40141 0.720998 0
M  V30 3223 C 317.561 -2.0039 0.262323 0
M  V30 3224 C 317.882 -1.57469 -1.15015 0
M  V30 3225 O 317.152 -0.816582 -1.78069 0
M  V30 3226 H 315.732 -0.741063 0.093996 0
M  V30 3227 H 318.394 -1.71398 0.927835 0
M  V30 3228 H 317.49 -3.10658 0.299671 0
M  V30 3229 N 317.792 -0.46758 -1.50504 0
M  V30 3230 C 319.203 -0.0116166 -1.86696 0
M  V30 3231 C 319.554 1.39202 -1.38265 0
M  V30 3232 O 318.679 2.0313 -0.746132 0
M  V30 3233 C 319.274 -0.0143044 -3.38797 0
M  V30 3234 C 317.833 0.386175 -3.74414 0
M  V30 3235 C 316.98 -0.401287 -2.74381 0
M  V30 3236 H 319.931 -0.682022 -1.43297 0
M  V30 3237 H 319.952 0.788641 -3.72237 0
M  V30 3238 H 319.464 -1.03602 -3.74016 0
M  V30 3239 H 317.565 1.41237 -3.44794 0
M  V30 3240 H 317.678 0.0899596 -4.79016 0
M  V30 3241 H 316.042 0.144536 -2.5429 0
M  V30 3242 H 316.825 -1.42244 -3.12444 0
M  V30 3243 N 319.27 1.56325 -0.20005 0
M  V30 3244 C 320.518 1.97329 0.436547 0
M  V30 3245 C 320.839 1.08826 1.61808 0
M  V30 3246 O 320.109 0.160604 1.95241 0
M  V30 3247 H 318.689 0.728714 0.164272 0
M  V30 3248 H 321.351 1.92761 -0.287937 0
M  V30 3249 H 320.447 3.02264 0.777353 0
M  V30 3250 N 320.748 -0.0735177 1.57428 0
M  V30 3251 C 322.164 -0.428264 1.53747 0
M  V30 3252 C 322.364 -1.79272 0.91998 0
M  V30 3253 O 321.42 -2.47051 0.521745 0
M  V30 3254 C 322.733 -0.370914 2.98404 0
M  V30 3255 C 324.281 -0.451224 3.0973 0
M  V30 3256 C 324.756 -0.4238 4.56035 0
M  V30 3257 N 326.247 -0.483925 4.60665 0
M  V30 3258 C 326.982 -0.484891 5.71346 0
M  V30 3259 N 326.478 -0.440775 6.91396 0
M  V30 3260 N 328.271 -0.531319 5.59583 0
M  V30 3261 H 320.422 0.819949 1.95935 0
M  V30 3262 H 322.685 0.307493 0.896745 0
M  V30 3263 H 322.391 0.564956 3.47133 0
M  V30 3264 H 322.265 -1.18176 3.5821 0
M  V30 3265 H 324.652 -1.37752 2.60976 0
M  V30 3266 H 324.733 0.388167 2.52838 0
M  V30 3267 H 324.377 0.498638 5.05446 0
M  V30 3268 H 324.307 -1.2807 5.10789 0
M  V30 3269 H 326.798 -0.522338 3.74273 0
M  V30 3270 H 327.111 -0.44539 7.71515 0
M  V30 3271 H 325.456 -0.40749 6.93804 0
M  V30 3272 H 328.647 -0.563464 4.64696 0
M  V30 3273 H 328.82 -0.528603 6.4584 0
M  V30 3274 N 322.226 -1.5378 -0.344866 0
M  V30 3275 C 323.136 -1.84667 -1.4469 0
M  V30 3276 C 324.152 -0.736704 -1.57635 0
M  V30 3277 O 325.328 -1.02888 -1.73136 0
M  V30 3278 C 322.393 -2.04869 -2.79696 0
M  V30 3279 C 321.454 -3.28731 -2.76106 0
M  V30 3280 C 320.687 -3.4796 -4.04673 0
M  V30 3281 O 320.91 -2.71052 -5.01883 0
M  V30 3282 O 319.844 -4.41383 -4.09224 0
M  V30 3283 H 323.67 -2.78334 -1.21506 0
M  V30 3284 H 321.255 -1.39418 -0.536921 0
M  V30 3285 H 323.137 -2.19609 -3.59652 0
M  V30 3286 H 321.812 -1.14391 -3.02814 0
M  V30 3287 H 320.719 -3.19396 -1.94774 0
M  V30 3288 H 322.052 -4.19198 -2.57941 0
M  V30 3289 N 323.704 0.605807 -1.45491 0
M  V30 3290 C 324.934 1.38934 -1.52908 0
M  V30 3291 C 325.342 1.88513 -0.161086 0
M  V30 3292 O 324.685 1.62962 0.847891 0
M  V30 3293 C 324.747 2.62737 -2.45376 0
M  V30 3294 C 324.411 2.34785 -3.92078 0
M  V30 3295 C 325.408 1.95038 -4.8193 0
M  V30 3296 C 323.093 2.47642 -4.37011 0
M  V30 3297 C 325.087 1.68511 -6.14722 0
M  V30 3298 C 322.774 2.20728 -5.69844 0
M  V30 3299 C 323.772 1.81225 -6.58519 0
M  V30 3300 O 323.46 1.54627 -7.88889 0
M  V30 3301 H 323.192 0.431629 -0.520262 0
M  V30 3302 H 325.746 0.74573 -1.91384 0
M  V30 3303 H 323.976 3.29824 -2.01874 0
M  V30 3304 H 325.665 3.24783 -2.43456 0
M  V30 3305 H 326.431 1.84639 -4.48479 0
M  V30 3306 H 322.31 2.77356 -3.68232 0
M  V30 3307 H 325.854 1.37602 -6.83894 0
M  V30 3308 H 321.751 2.30744 -6.02849 0
M  V30 3309 H 322.519 1.68665 -8.00933 0
M  V30 3310 N 325.182 1.32811 0.848464 0
M  V30 3311 C 326.598 1.11937 1.13764 0
M  V30 3312 C 326.798 -0.0960789 2.01271 0
M  V30 3313 O 325.854 -0.779165 2.40178 0
M  V30 3314 C 327.167 2.402 1.809 0
M  V30 3315 C 328.715 2.46016 1.93508 0
M  V30 3316 C 329.19 3.74215 2.64059 0
M  V30 3317 N 330.681 3.75232 2.71579 0
M  V30 3318 C 331.416 4.71134 3.26833 0
M  V30 3319 N 330.912 5.77406 3.8285 0
M  V30 3320 N 332.705 4.58623 3.24995 0
M  V30 3321 H 324.856 2.1073 0.265855 0
M  V30 3322 H 327.119 0.930671 0.180431 0
M  V30 3323 H 326.825 3.29093 1.24058 0
M  V30 3324 H 326.699 2.51628 2.81004 0
M  V30 3325 H 329.086 1.57577 2.49506 0
M  V30 3326 H 329.167 2.38536 0.923811 0
M  V30 3327 H 328.811 4.63031 2.08722 0
M  V30 3328 H 328.741 3.78968 3.65637 0
M  V30 3329 H 331.232 2.98423 2.31845 0
M  V30 3330 H 331.545 6.46632 4.23187 0
M  V30 3331 H 329.89 5.81152 3.81165 0
M  V30 3332 H 333.081 3.74762 2.80484 0
M  V30 3333 H 333.254 5.33535 3.67756 0
M  V30 3334 N 326.66 -1.06551 1.16123 0
M  V30 3335 C 327.623 -2.12132 0.867906 0
M  V30 3336 C 328.623 -1.60224 -0.135944 0
M  V30 3337 O 329.813 -1.73943 0.0946422 0
M  V30 3338 C 326.945 -3.396 0.297419 0
M  V30 3339 H 328.138 -2.39586 1.80385 0
M  V30 3340 H 325.691 -1.22574 0.969812 0
M  V30 3341 H 326.426 -3.17794 -0.64633 0
M  V30 3342 H 326.211 -3.78581 1.02073 0
M  V30 3343 H 327.701 -4.17455 0.110052 0
M  V30 3344 N 328.138 -0.959301 -1.25041 0
M  V30 3345 C 329.068 -0.501388 -2.28053 0
M  V30 3346 C 330.049 0.454673 -1.63911 0
M  V30 3347 O 331.234 0.352618 -1.90972 0
M  V30 3348 C 328.364 0.217224 -3.4662 0
M  V30 3349 C 327.318 -0.654034 -4.22973 0
M  V30 3350 C 326.644 0.195589 -5.34342 0
M  V30 3351 C 327.944 -1.93447 -4.85155 0
M  V30 3352 H 329.638 -1.36238 -2.66608 0
M  V30 3353 H 327.184 -0.656534 -1.28163 0
M  V30 3354 H 329.137 0.548732 -4.17812 0
M  V30 3355 H 327.861 1.1125 -3.07068 0
M  V30 3356 H 326.52 -0.968693 -3.5357 0
M  V30 3357 H 326.168 1.09076 -4.91031 0
M  V30 3358 H 325.868 -0.384091 -5.86343 0
M  V30 3359 H 327.392 0.521958 -6.08365 0
M  V30 3360 H 328.806 -1.66908 -5.48466 0
M  V30 3361 H 327.203 -2.46018 -5.47353 0
M  V30 3362 H 328.273 -2.63466 -4.07079 0
M  V30 3363 N 329.616 1.39756 -0.72842 0
M  V30 3364 C 330.548 2.29157 -0.0446202 0
M  V30 3365 C 331.561 1.46484 0.710367 0
M  V30 3366 O 332.75 1.69632 0.55562 0
M  V30 3367 C 329.85 3.24987 0.961071 0
M  V30 3368 C 329.023 4.36572 0.268967 0
M  V30 3369 C 328.082 5.12756 1.18184 0
M  V30 3370 O 327.108 5.6534 0.661794 0
M  V30 3371 N 328.31 5.23331 2.51206 0
M  V30 3372 H 331.075 2.88482 -0.812295 0
M  V30 3373 H 328.636 1.51265 -0.577098 0
M  V30 3374 H 330.628 3.72827 1.57423 0
M  V30 3375 H 329.198 2.66739 1.63 0
M  V30 3376 H 328.418 3.90694 -0.524574 0
M  V30 3377 H 329.706 5.08363 -0.210934 0
M  V30 3378 H 329.104 4.82116 2.9594 0
M  V30 3379 H 327.661 5.74634 3.07634 0
M  V30 3380 N 331.094 0.475555 1.50254 0
M  V30 3381 C 332.024 -0.30611 2.31485 0
M  V30 3382 C 333.005 -0.986228 1.38591 0
M  V30 3383 O 334.19 -0.982541 1.67511 0
M  V30 3384 C 331.32 -1.38588 3.1845 0
M  V30 3385 C 330.274 -0.827115 4.19932 0
M  V30 3386 C 329.6 -2.00551 4.95665 0
M  V30 3387 C 330.9 0.16463 5.2204 0
M  V30 3388 H 332.594 0.371866 2.97082 0
M  V30 3389 H 330.14 0.180282 1.42867 0
M  V30 3390 H 332.093 -1.94023 3.74076 0
M  V30 3391 H 330.817 -2.09269 2.50747 0
M  V30 3392 H 329.476 -0.294702 3.65414 0
M  V30 3393 H 329.124 -2.6994 4.2443 0
M  V30 3394 H 328.824 -1.63784 5.64313 0
M  V30 3395 H 330.348 -2.56468 5.54127 0
M  V30 3396 H 331.762 -0.300699 5.72511 0
M  V30 3397 H 330.159 0.446813 5.98434 0
M  V30 3398 H 331.229 1.08905 4.72512 0
M  V30 3399 N 332.573 -1.56217 0.208337 0
M  V30 3400 C 333.523 -2.16324 -0.720281 0
M  V30 3401 C 334.507 -1.10775 -1.16695 0
M  V30 3402 O 335.699 -1.36801 -1.12314 0
M  V30 3403 C 332.828 -2.83644 -1.93393 0
M  V30 3404 C 331.914 -3.96401 -1.50755 0
M  V30 3405 N 332.305 -4.99546 -0.792937 0
M  V30 3406 C 330.603 -4.08246 -1.79585 0
M  V30 3407 C 331.304 -5.78828 -0.577364 0
M  V30 3408 N 330.28 -5.31723 -1.1301 0
M  V30 3409 H 334.082 -2.93432 -0.165725 0
M  V30 3410 H 331.596 -1.62397 0.00906463 0
M  V30 3411 H 333.593 -3.25107 -2.60981 0
M  V30 3412 H 332.253 -2.08027 -2.49308 0
M  V30 3413 H 333.264 -5.15967 -0.447004 0
M  V30 3414 H 329.941 -3.4377 -2.36915 0
M  V30 3415 H 331.331 -6.71899 -0.00952956 0
M  V30 3416 N 334.051 0.0651679 -1.57465 0
M  V30 3417 C 334.981 1.07693 -2.07182 0
M  V30 3418 C 335.962 1.39962 -0.966673 0
M  V30 3419 O 337.147 1.49475 -1.2398 0
M  V30 3420 C 334.277 2.3885 -2.52127 0
M  V30 3421 C 333.231 2.20917 -3.66579 0
M  V30 3422 C 332.557 3.57515 -3.97601 0
M  V30 3423 C 333.857 1.62493 -4.9638 0
M  V30 3424 H 335.551 0.663199 -2.91962 0
M  V30 3425 H 333.097 0.317569 -1.40455 0
M  V30 3426 H 335.05 3.09928 -2.85522 0
M  V30 3427 H 333.774 2.82215 -1.64384 0
M  V30 3428 H 332.433 1.52279 -3.33477 0
M  V30 3429 H 332.081 3.98463 -3.06979 0
M  V30 3430 H 331.781 3.46353 -4.74672 0
M  V30 3431 H 333.305 4.30013 -4.33499 0
M  V30 3432 H 334.719 2.23445 -5.27963 0
M  V30 3433 H 333.116 1.62009 -5.77818 0
M  V30 3434 H 334.186 0.587041 -4.81333 0
M  V30 3435 N 335.529 1.53961 0.336706 0
M  V30 3436 C 336.479 1.7881 1.41461 0
M  V30 3437 C 337.463 0.643561 1.47469 0
M  V30 3438 O 338.655 0.903166 1.52223 0
M  V30 3439 C 335.784 2.00722 2.78506 0
M  V30 3440 C 334.87 3.2126 2.76862 0
M  V30 3441 N 335.261 4.42588 2.44845 0
M  V30 3442 C 333.559 3.22568 3.08004 0
M  V30 3443 C 334.26 5.2447 2.51607 0
M  V30 3444 N 333.236 4.61344 2.87511 0
M  V30 3445 H 337.038 2.70205 1.15615 0
M  V30 3446 H 334.552 1.52978 0.545112 0
M  V30 3447 H 336.549 2.1666 3.5618 0
M  V30 3448 H 335.209 1.10573 3.05293 0
M  V30 3449 H 336.22 4.69819 2.17922 0
M  V30 3450 H 332.897 2.42409 3.39918 0
M  V30 3451 H 334.287 6.31324 2.29955 0
M  V30 3452 N 337.007 -0.598083 1.45811 0
M  V30 3453 C 338.253 -1.35679 1.51535 0
M  V30 3454 C 338.608 -1.91745 0.15864 0
M  V30 3455 O 337.901 -1.72654 -0.830724 0
M  V30 3456 C 338.095 -2.51669 2.53766 0
M  V30 3457 C 337.924 -2.06963 3.99245 0
M  V30 3458 C 336.694 -1.92693 4.67116 0
M  V30 3459 C 338.892 -1.63855 4.875 0
M  V30 3460 N 336.874 -1.41897 5.97276 0
M  V30 3461 C 338.245 -1.24541 6.07363 0
M  V30 3462 C 340.3 -1.51533 4.74281 0
M  V30 3463 C 339.003 -0.741354 7.15469 0
M  V30 3464 C 341.029 -1.0253 5.82444 0
M  V30 3465 C 340.391 -0.641869 7.01469 0
M  V30 3466 H 336.49 -0.490042 0.609412 0
M  V30 3467 H 339.074 -0.682687 1.82339 0
M  V30 3468 H 337.245 -3.16663 2.24898 0
M  V30 3469 H 338.977 -3.18578 2.4958 0
M  V30 3470 H 335.732 -2.1417 4.22408 0
M  V30 3471 H 336.156 -1.18704 6.66512 0
M  V30 3472 H 340.798 -1.798 3.82664 0
M  V30 3473 H 338.516 -0.446243 8.06867 0
M  V30 3474 H 342.102 -0.934088 5.74253 0
M  V30 3475 H 340.982 -0.268531 7.8374 0
M  V30 3476 N 338.485 -1.33259 -0.841409 0
M  V30 3477 C 339.733 -1.24326 -1.59334 0
M  V30 3478 C 340.054 0.191564 -1.94057 0
M  V30 3479 O 339.324 1.11967 -1.60749 0
M  V30 3480 H 337.904 -0.457174 -0.590763 0
M  V30 3481 H 340.566 -1.66947 -1.00571 0
M  V30 3482 H 339.662 -1.8352 -2.52442 0
M  V30 3483 N 339.963 1.05934 -1.16686 0
M  V30 3484 C 340.926 2.11669 -0.879144 0
M  V30 3485 C 341.926 1.60294 0.127445 0
M  V30 3486 O 343.116 1.7389 -0.103865 0
M  V30 3487 C 340.248 3.39438 -0.315425 0
M  V30 3488 H 341.441 2.38626 -1.81653 0
M  V30 3489 H 338.994 1.22058 -0.976299 0
M  V30 3490 H 339.729 3.18132 0.629468 0
M  V30 3491 H 339.514 3.78034 -1.04079 0
M  V30 3492 H 341.004 4.17391 -0.132189 0
M  V30 3493 N 341.441 0.965919 1.2453 0
M  V30 3494 C 342.404 0.499547 2.2369 0
M  V30 3495 C 343.404 -0.40294 1.5567 0
M  V30 3496 O 344.594 -0.19865 1.73064 0
M  V30 3497 C 341.726 -0.276792 3.39774 0
M  V30 3498 H 342.919 1.37613 2.66463 0
M  V30 3499 H 340.472 0.750324 1.37112 0
M  V30 3500 H 341.207 -1.17055 3.02438 0
M  V30 3501 H 340.992 0.370826 3.90343 0
M  V30 3502 H 342.482 -0.592175 4.1338 0
M  V30 3503 N 342.919 -1.39368 0.735821 0
M  V30 3504 C 344.167 -2.00101 0.283562 0
M  V30 3505 C 344.488 -1.5868 -1.13338 0
M  V30 3506 O 343.758 -0.835423 -1.77193 0
M  V30 3507 H 342.338 -0.740024 0.101851 0
M  V30 3508 H 345 -1.70404 0.945962 0
M  V30 3509 H 344.096 -3.10323 0.332604 0
M  V30 3510 N 344.397 -0.483516 -1.5 0
M  V30 3511 C 345.813 -0.138404 -1.58999 0
M  V30 3512 C 346.013 1.35597 -1.4905 0
M  V30 3513 O 345.069 2.13039 -1.35539 0
M  V30 3514 C 346.382 -0.699658 -2.92447 0
M  V30 3515 C 347.93 -0.664195 -3.05872 0
M  V30 3516 C 348.405 -1.20321 -4.41913 0
M  V30 3517 N 349.896 -1.16315 -4.48358 0
M  V30 3518 C 350.631 -1.55058 -5.52037 0
M  V30 3519 N 350.127 -2.01311 -6.62907 0
M  V30 3520 N 351.92 -1.46584 -5.42651 0
M  V30 3521 H 344.071 -1.45529 -1.5471 0
M  V30 3522 H 346.334 -0.60258 -0.731848 0
M  V30 3523 H 346.04 -1.747 -3.05242 0
M  V30 3524 H 345.914 -0.150194 -3.76901 0
M  V30 3525 H 348.301 0.374272 -2.92717 0
M  V30 3526 H 348.382 -1.25061 -2.23144 0
M  V30 3527 H 348.026 -2.24037 -4.55818 0
M  V30 3528 H 347.956 -0.592896 -5.23252 0
M  V30 3529 H 350.447 -0.824058 -3.68806 0
M  V30 3530 H 350.76 -2.2899 -7.38095 0
M  V30 3531 H 349.105 -2.05273 -6.63994 0
M  V30 3532 H 352.296 -1.10281 -4.54924 0
M  V30 3533 H 352.469 -1.77103 -6.23329 0
M  V30 3534 N 345.875 1.56104 -0.216619 0
M  V30 3535 C 347.286 1.844 0.292128 0
M  V30 3536 C 347.637 1.13788 1.59833 0
M  V30 3537 O 346.762 0.405888 2.12559 0
M  V30 3538 C 347.357 3.3452 0.53681 0
M  V30 3539 C 345.916 3.63151 0.989876 0
M  V30 3540 C 345.063 2.77255 0.0502302 0
M  V30 3541 H 348.014 1.52481 -0.439926 0
M  V30 3542 H 348.035 3.54459 1.38345 0
M  V30 3543 H 347.547 3.85885 -0.414031 0
M  V30 3544 H 345.648 3.17238 1.95425 0
M  V30 3545 H 345.761 4.71177 0.867698 0
M  V30 3546 H 344.125 2.48555 0.556117 0
M  V30 3547 H 344.908 3.31416 -0.89544 0
M  V30 3548 N 347.353 -0.0568162 1.57498 0
M  V30 3549 C 348.601 -0.751617 1.87604 0
M  V30 3550 C 348.922 -1.77351 0.81066 0
M  V30 3551 O 348.192 -1.95254 -0.159018 0
M  V30 3552 H 346.772 -0.280583 0.692302 0
M  V30 3553 H 349.434 -0.0293483 1.94878 0
M  V30 3554 H 348.53 -1.25852 2.856 0
M  V30 3555 N 348.832 -1.54138 -0.328536 0
M  V30 3556 C 350.057 -1.76378 -1.09112 0
M  V30 3557 C 350.482 -0.508596 -1.81094 0
M  V30 3558 O 349.84 0.539598 -1.73084 0
M  V30 3559 C 349.888 -2.95358 -2.06872 0
M  V30 3560 O 348.992 -2.66556 -3.14677 0
M  V30 3561 H 348.333 -0.584614 -0.314838 0
M  V30 3562 H 350.863 -2.01146 -0.374348 0
M  V30 3563 H 350.873 -3.22566 -2.4983 0
M  V30 3564 H 349.548 -3.86385 -1.5388 0
M  V30 3565 H 348.125 -2.50282 -2.7643 0
M  V30 3566 N 350.31 0.590341 -1.46126 0
M  V30 3567 C 351.22 1.72793 -1.58681 0
M  V30 3568 C 352.236 1.67516 -0.470566 0
M  V30 3569 O 353.412 1.87562 -0.733642 0
M  V30 3570 C 350.477 3.09287 -1.5666 0
M  V30 3571 C 349.538 3.25886 -2.79458 0
M  V30 3572 C 348.771 4.55869 -2.77524 0
M  V30 3573 O 348.994 5.3928 -1.85832 0
M  V30 3574 O 347.928 4.75552 -3.68964 0
M  V30 3575 H 351.754 1.65149 -2.54872 0
M  V30 3576 H 349.339 0.756486 -1.28832 0
M  V30 3577 H 351.221 3.90577 -1.58202 0
M  V30 3578 H 349.896 3.17385 -0.636271 0
M  V30 3579 H 348.803 2.44119 -2.83472 0
M  V30 3580 H 350.136 3.22675 -3.71674 0
M  V30 3581 N 351.788 1.33704 0.83433 0
M  V30 3582 C 352.738 1.20899 1.93306 0
M  V30 3583 C 353.722 0.110783 1.60518 0
M  V30 3584 O 354.914 0.339331 1.73717 0
M  V30 3585 C 352.043 0.955018 3.29749 0
M  V30 3586 C 351.129 2.09587 3.68692 0
M  V30 3587 N 351.52 3.34621 3.79292 0
M  V30 3588 C 349.818 2.00358 3.98463 0
M  V30 3589 C 350.519 4.09472 4.13167 0
M  V30 3590 N 349.495 3.37954 4.25779 0
M  V30 3591 H 353.297 2.15665 1.99664 0
M  V30 3592 H 350.811 1.25777 1.02732 0
M  V30 3593 H 352.808 0.844208 4.08263 0
M  V30 3594 H 351.468 0.0159317 3.24696 0
M  V30 3595 H 352.479 3.69313 3.63082 0
M  V30 3596 H 349.156 1.14137 4.01596 0
M  V30 3597 H 350.546 5.17391 4.28668 0
M  V30 3598 N 353.266 -1.05314 1.17247 0
M  V30 3599 C 354.494 -1.81971 0.984593 0
M  V30 3600 C 354.909 -1.82929 -0.467166 0
M  V30 3601 O 354.266 -1.25564 -1.32438 0
M  V30 3602 C 354.317 -3.28143 1.51672 0
M  V30 3603 O 354.038 -3.27347 2.91163 0
M  V30 3604 C 355.539 -4.21493 1.37326 0
M  V30 3605 H 352.759 -0.573455 0.348411 0
M  V30 3606 H 355.303 -1.32808 1.55506 0
M  V30 3607 H 353.458 -3.74582 0.988302 0
M  V30 3608 H 353.872 -4.18824 3.15732 0
M  V30 3609 H 355.346 -5.22043 1.79375 0
M  V30 3610 H 355.823 -4.38031 0.320169 0
M  V30 3611 H 356.429 -3.80909 1.89178 0
M  V30 3612 N 354.744 -0.972509 -1.24016 0
M  V30 3613 C 355.99 -0.637978 -1.92504 0
M  V30 3614 C 356.323 0.825383 -1.75787 0
M  V30 3615 O 355.598 1.59442 -1.11393 0
M  V30 3616 C 355.881 -1.01942 -3.45369 0
M  V30 3617 C 355.734 -2.53983 -3.71231 0
M  V30 3618 C 357.053 -0.55751 -4.36555 0
M  V30 3619 H 354.172 -0.233248 -0.699117 0
M  V30 3620 H 356.814 -1.21238 -1.46292 0
M  V30 3621 H 354.964 -0.530656 -3.84859 0
M  V30 3622 H 356.636 -3.10374 -3.41271 0
M  V30 3623 H 354.879 -2.96968 -3.16216 0
M  V30 3624 H 355.55 -2.75723 -4.78206 0
M  V30 3625 H 358.026 -0.977029 -4.04467 0
M  V30 3626 H 356.902 -0.85292 -5.42233 0
M  V30 3627 H 357.163 0.542328 -4.38761 0
M  V30 3628 N 356.222 1.38976 -0.743202 0
M  V30 3629 C 357.132 2.3434 -0.110399 0
M  V30 3630 C 358.148 1.58741 0.712559 0
M  V30 3631 O 359.324 1.9099 0.639125 0
M  V30 3632 C 356.389 3.37812 0.780012 0
M  V30 3633 C 355.45 4.29263 -0.0561319 0
M  V30 3634 C 354.683 5.27793 0.791875 0
M  V30 3635 O 354.906 5.33043 2.03031 0
M  V30 3636 O 353.84 6.01512 0.216183 0
M  V30 3637 H 357.666 2.90129 -0.897714 0
M  V30 3638 H 355.251 1.40643 -0.503966 0
M  V30 3639 H 357.133 4.01194 1.28923 0
M  V30 3640 H 355.808 2.84395 1.546 0
M  V30 3641 H 354.715 3.69076 -0.611056 0
M  V30 3642 H 356.048 4.85907 -0.784531 0
M  V30 3643 N 357.7 0.491464 1.49741 0
M  V30 3644 C 358.948 -0.0563141 2.02022 0
M  V30 3645 C 359.269 -1.38363 1.37407 0
M  V30 3646 O 358.539 -1.88702 0.526166 0
M  V30 3647 H 357.119 -0.0238014 0.746621 0
M  V30 3648 H 359.781 0.646533 1.83864 0
M  V30 3649 H 358.877 -0.192967 3.11503 0
M  V30 3650 N 359.178 -1.55987 0.224894 0
M  V30 3651 C 360.128 -2.17076 -0.697296 0
M  V30 3652 C 361.112 -1.12006 -1.15514 0
M  V30 3653 O 362.304 -1.37985 -1.10857 0
M  V30 3654 C 359.433 -2.85679 -1.90374 0
M  V30 3655 C 358.519 -3.97977 -1.46543 0
M  V30 3656 N 358.91 -5.00359 -0.739909 0
M  V30 3657 C 357.208 -4.10128 -1.75245 0
M  V30 3658 C 357.909 -5.79407 -0.515939 0
M  V30 3659 N 356.885 -5.32892 -1.07364 0
M  V30 3660 H 360.687 -2.93592 -0.134594 0
M  V30 3661 H 358.201 -1.62379 0.0262885 0
M  V30 3662 H 360.198 -3.27857 -2.57518 0
M  V30 3663 H 358.858 -2.1066 -2.47088 0
M  V30 3664 H 359.869 -5.16412 -0.392253 0
M  V30 3665 H 356.546 -3.46263 -2.33255 0
M  V30 3666 H 357.936 -6.71872 0.0617349 0
M  V30 3667 N 360.656 0.0484629 -1.57525 0
M  V30 3668 C 362.072 0.40375 -1.54409 0
M  V30 3669 C 362.272 1.77786 -0.948384 0
M  V30 3670 O 361.328 2.46189 -0.560983 0
M  V30 3671 C 362.641 0.323394 -2.98956 0
M  V30 3672 C 364.189 0.401892 -3.10409 0
M  V30 3673 C 364.664 0.351195 -4.56652 0
M  V30 3674 N 366.155 0.410576 -4.61377 0
M  V30 3675 C 366.89 0.393933 -5.72045 0
M  V30 3676 N 366.386 0.330724 -6.9201 0
M  V30 3677 N 368.179 0.442227 -5.60358 0
M  V30 3678 H 360.33 -0.851016 -1.94606 0
M  V30 3679 H 362.593 -0.321721 -0.89174 0
M  V30 3680 H 362.299 -0.62011 -3.4619 0
M  V30 3681 H 362.173 1.12463 -3.60044 0
M  V30 3682 H 364.56 1.33582 -2.63134 0
M  V30 3683 H 364.641 -0.428342 -2.52188 0
M  V30 3684 H 364.285 -0.578987 -5.04589 0
M  V30 3685 H 364.215 1.19928 -5.12762 0
M  V30 3686 H 366.706 0.462729 -3.75056 0
M  V30 3687 H 367.019 0.322592 -7.72126 0
M  V30 3688 H 365.364 0.29706 -6.94365 0
M  V30 3689 H 368.555 0.489464 -4.65534 0
M  V30 3690 H 368.728 0.425788 -6.466 0
M  V30 3691 N 362.134 1.5431 0.320358 0
M  V30 3692 C 363.381 1.72668 1.05792 0
M  V30 3693 C 363.709 0.502084 1.87908 0
M  V30 3694 O 362.964 -0.516149 1.88771 0
M  V30 3695 C 363.263 2.95639 2.00828 0
M  V30 3696 C 362.929 4.30265 1.34843 0
M  V30 3697 C 361.591 4.66865 1.16578 0
M  V30 3698 C 363.943 5.13801 0.875095 0
M  V30 3699 C 361.271 5.84597 0.496336 0
M  V30 3700 C 363.623 6.32219 0.219463 0
M  V30 3701 C 362.287 6.67495 0.0246915 0
M  V30 3702 H 361.557 0.631837 0.387121 0
M  V30 3703 H 364.204 1.88552 0.334735 0
M  V30 3704 H 362.509 2.74456 2.79609 0
M  V30 3705 H 364.206 3.07038 2.57932 0
M  V30 3706 H 360.796 4.01472 1.50061 0
M  V30 3707 H 364.98 4.86039 1.00398 0
M  V30 3708 H 360.236 6.10486 0.334264 0
M  V30 3709 H 364.41 6.96227 -0.155291 0
M  V30 3710 H 362.037 7.5858 -0.496065 0
M  V30 3711 N 363.613 -0.582584 1.46437 0
M  V30 3712 C 365.024 -1.1647 1.45916 0
M  V30 3713 C 365.375 -1.95177 0.200077 0
M  V30 3714 O 364.5 -2.04874 -0.696819 0
M  V30 3715 C 365.095 -2.11885 2.64367 0
M  V30 3716 C 363.654 -2.65421 2.66887 0
M  V30 3717 C 362.801 -1.41294 2.38603 0
M  V30 3718 H 365.752 -0.370514 1.54314 0
M  V30 3719 H 365.773 -2.9535 2.39892 0
M  V30 3720 H 365.285 -1.54573 3.5599 0
M  V30 3721 H 363.386 -3.26602 1.79338 0
M  V30 3722 H 363.499 -3.08147 3.66854 0
M  V30 3723 H 361.863 -1.71109 1.88663 0
M  V30 3724 H 362.646 -0.858125 3.32402 0
M  V30 3725 N 365.091 -1.34144 -0.827227 0
M  V30 3726 C 366.054 -1.25264 -1.91942 0
M  V30 3727 C 367.054 -0.168866 -1.59911 0
M  V30 3728 O 368.244 -0.421198 -1.69031 0
M  V30 3729 C 365.376 -0.932952 -3.27885 0
M  V30 3730 H 366.569 -2.22357 -2.0124 0
M  V30 3731 H 364.122 -1.1837 -1.0207 0
M  V30 3732 H 364.857 0.0349917 -3.24281 0
M  V30 3733 H 364.642 -1.71682 -3.52516 0
M  V30 3734 H 366.132 -0.895874 -4.07877 0
M  V30 3735 N 366.569 1.04691 -1.17803 0
M  V30 3736 C 367.479 2.16057 -0.914151 0
M  V30 3737 C 368.495 1.73589 0.119503 0
M  V30 3738 O 369.671 2.01308 -0.0609468 0
M  V30 3739 C 366.736 3.4394 -0.436603 0
M  V30 3740 C 365.797 4.00825 -1.53746 0
M  V30 3741 C 365.03 5.22604 -1.0826 0
M  V30 3742 O 365.253 5.70367 0.0612244 0
M  V30 3743 O 364.187 5.7186 -1.87775 0
M  V30 3744 H 368.013 2.41169 -1.84584 0
M  V30 3745 H 365.598 1.1453 -0.959334 0
M  V30 3746 H 367.48 4.21024 -0.178057 0
M  V30 3747 H 366.155 3.20316 0.466869 0
M  V30 3748 H 365.062 3.25158 -1.84995 0
M  V30 3749 H 366.395 4.28778 -2.41683 0
M  V30 3750 N 368.047 0.979072 1.23499 0
M  V30 3751 C 369.296 0.642751 1.91185 0
M  V30 3752 C 369.609 -0.827253 1.77245 0
M  V30 3753 O 370.815 -1.27458 2.39722 0
M  V30 3754 C 369.271 1.09901 3.42709 0
M  V30 3755 C 368.879 2.59327 3.65313 0
M  V30 3756 C 370.623 0.836371 4.16179 0
M  V30 3757 C 368.53 2.98627 5.10467 0
M  V30 3758 H 367.46 0.236698 0.715884 0
M  V30 3759 H 370.111 1.1868 1.39955 0
M  V30 3760 H 368.493 0.48319 3.93041 0
M  V30 3761 H 369.667 3.26136 3.25533 0
M  V30 3762 H 367.982 2.83323 3.05151 0
M  V30 3763 H 370.579 1.10586 5.23139 0
M  V30 3764 H 370.922 -0.227509 4.15678 0
M  V30 3765 H 371.455 1.41371 3.71832 0
M  V30 3766 H 368.194 4.04133 5.16098 0
M  V30 3767 H 367.714 2.3651 5.51201 0
M  V30 3768 H 369.393 2.89159 5.78788 0
M  V30 3769 N 369.525 -1.3858 0.750561 0
M  V30 3770 C 370.475 -2.27795 0.0965949 0
M  V30 3771 C 371.459 -1.45048 -0.696411 0
M  V30 3772 O 372.651 -1.67812 -0.562863 0
M  V30 3773 C 369.78 -3.33894 -0.798085 0
M  V30 3774 C 368.866 -4.241 0.0016067 0
M  V30 3775 N 369.257 -4.95067 1.03647 0
M  V30 3776 C 367.555 -4.45429 -0.225674 0
M  V30 3777 C 368.256 -5.61489 1.52004 0
M  V30 3778 N 367.232 -5.37135 0.835874 0
M  V30 3779 H 371.034 -2.80125 0.889228 0
M  V30 3780 H 368.548 -1.51446 0.586323 0
M  V30 3781 H 370.545 -3.96693 -1.28219 0
M  V30 3782 H 369.205 -2.83123 -1.5897 0
M  V30 3783 H 370.216 -4.98104 1.41819 0
M  V30 3784 H 366.893 -4.05571 -0.990872 0
M  V30 3785 H 368.283 -6.28264 2.38188 0
M  V30 3786 N 371.003 -0.499398 -1.49478 0
M  V30 3787 C 372.249 0.0457576 -2.02748 0
M  V30 3788 C 372.582 1.36793 -1.37846 0
M  V30 3789 O 371.857 1.87596 -0.513601 0
M  V30 3790 C 372.14 0.199986 -3.59544 0
M  V30 3791 C 371.993 -1.1452 -4.34977 0
M  V30 3792 C 373.312 0.94137 -4.29914 0
M  V30 3793 H 370.431 0.0151552 -0.736844 0
M  V30 3794 H 373.073 -0.650498 -1.78518 0
M  V30 3795 H 371.223 0.793007 -3.8032 0
M  V30 3796 H 372.895 -1.77697 -4.25701 0
M  V30 3797 H 371.138 -1.73488 -3.97598 0
M  V30 3798 H 371.809 -0.990607 -5.43039 0
M  V30 3799 H 374.285 0.43844 -4.13784 0
M  V30 3800 H 373.161 1.01812 -5.39375 0
M  V30 3801 H 373.422 1.98471 -3.95046 0
M  V30 3802 N 372.481 1.55866 -0.233164 0
M  V30 3803 C 373.727 1.98897 0.395959 0
M  V30 3804 C 374.06 1.12091 1.58585 0
M  V30 3805 O 373.335 0.181182 1.93654 0
M  V30 3806 C 373.618 3.50658 0.819224 0
M  V30 3807 C 373.471 4.48233 -0.375109 0
M  V30 3808 C 374.79 4.07135 1.67121 0
M  V30 3809 H 371.909 0.723102 0.142451 0
M  V30 3810 H 374.551 1.87082 -0.331725 0
M  V30 3811 H 372.701 3.60857 1.43925 0
M  V30 3812 H 374.373 4.50031 -1.01341 0
M  V30 3813 H 372.616 4.21624 -1.02058 0
M  V30 3814 H 373.287 5.51988 -0.0358328 0
M  V30 3815 H 375.763 3.99952 1.14795 0
M  V30 3816 H 374.639 5.13615 1.93625 0
M  V30 3817 H 374.9 3.54736 2.63846 0
M  V30 3818 N 373.959 -0.0401083 1.57549 0
M  V30 3819 C 374.909 -1.05175 2.02292 0
M  V30 3820 C 375.893 -1.32674 0.910294 0
M  V30 3821 O 377.085 -1.32444 1.17421 0
M  V30 3822 C 374.214 -2.35622 2.49674 0
M  V30 3823 C 373.3 -2.11261 3.67736 0
M  V30 3824 N 373.691 -1.56923 4.80842 0
M  V30 3825 C 371.989 -2.41596 3.74897 0
M  V30 3826 C 372.69 -1.48111 5.62528 0
M  V30 3827 N 371.666 -1.95282 5.07312 0
M  V30 3828 H 375.468 -0.625455 2.87168 0
M  V30 3829 H 372.982 -0.246624 1.60516 0
M  V30 3830 H 374.979 -3.08893 2.79983 0
M  V30 3831 H 373.639 -2.7894 1.662 0
M  V30 3832 H 374.65 -1.25345 5.02503 0
M  V30 3833 H 371.327 -2.88064 3.02201 0
M  V30 3834 H 372.717 -1.06683 6.63377 0
M  V30 3835 N 375.437 -1.54477 -0.31217 0
M  V30 3836 C 376.367 -1.87652 -1.38957 0
M  V30 3837 C 377.348 -0.734358 -1.53431 0
M  V30 3838 O 378.533 -0.98911 -1.67123 0
M  V30 3839 C 375.663 -2.11396 -2.75552 0
M  V30 3840 C 374.617 -3.27243 -2.75855 0
M  V30 3841 C 373.943 -3.36382 -4.15633 0
M  V30 3842 C 375.243 -4.64622 -2.38587 0
M  V30 3843 H 376.937 -2.77887 -1.11442 0
M  V30 3844 H 374.483 -1.33707 -0.534655 0
M  V30 3845 H 376.436 -2.33189 -3.51 0
M  V30 3846 H 375.16 -1.17921 -3.04569 0
M  V30 3847 H 373.819 -3.05356 -2.02863 0
M  V30 3848 H 373.467 -2.40445 -4.41809 0
M  V30 3849 H 373.167 -4.14249 -4.1674 0
M  V30 3850 H 374.691 -3.60422 -4.92877 0
M  V30 3851 H 376.105 -4.86219 -3.03749 0
M  V30 3852 H 374.502 -5.45121 -2.50925 0
M  V30 3853 H 375.572 -4.66097 -1.33723 0
M  V30 3854 N 376.915 0.57481 -1.46744 0
M  V30 3855 C 378.14 1.36341 -1.56288 0
M  V30 3856 C 378.565 1.86954 -0.207347 0
M  V30 3857 O 377.923 1.62006 0.813871 0
M  V30 3858 C 377.971 2.52147 -2.57787 0
M  V30 3859 O 377.075 3.53834 -2.11838 0
M  V30 3860 H 376.416 0.405713 -0.525636 0
M  V30 3861 H 378.946 0.696453 -1.92382 0
M  V30 3862 H 378.956 2.98958 -2.77648 0
M  V30 3863 H 377.631 2.14663 -3.5622 0
M  V30 3864 H 376.208 3.1345 -2.01999 0
M  V30 3865 N 378.394 1.34581 0.820102 0
M  V30 3866 C 379.622 1.3018 1.60813 0
M  V30 3867 C 380.037 -0.123551 1.88395 0
M  V30 3868 O 379.394 -1.07148 1.47735 0
M  V30 3869 C 379.445 2.09312 2.94739 0
M  V30 3870 O 379.166 3.46288 2.68358 0
M  V30 3871 C 380.667 2.1234 3.89136 0
M  V30 3872 H 377.887 0.447726 0.499782 0
M  V30 3873 H 380.431 1.77237 1.02017 0
M  V30 3874 H 378.586 1.65889 3.50085 0
M  V30 3875 H 379 3.87227 3.53774 0
M  V30 3876 H 380.474 2.72126 4.80262 0
M  V30 3877 H 380.951 1.11854 4.24718 0
M  V30 3878 H 381.557 2.55864 3.39726 0
M  V30 3879 N 379.872 -1.04064 1.18357 0
M  V30 3880 C 380.835 -2.10243 0.912707 0
M  V30 3881 C 381.835 -1.60477 -0.101928 0
M  V30 3882 O 383.025 -1.73703 0.131517 0
M  V30 3883 C 380.157 -3.38893 0.369387 0
M  V30 3884 H 381.35 -2.35706 1.85426 0
M  V30 3885 H 378.903 -1.20489 0.995594 0
M  V30 3886 H 379.638 -3.19094 -0.578776 0
M  V30 3887 H 379.423 -3.76331 1.1008 0
M  V30 3888 H 380.913 -4.17128 0.198575 0
M  V30 3889 N 381.35 -0.985608 -1.22978 0
M  V30 3890 C 382.597 -0.657386 -1.91532 0
M  V30 3891 C 382.925 0.809707 -1.76845 0
M  V30 3892 O 382.18 1.60021 -1.12658 0
M  V30 3893 C 382.479 -1.00014 -3.43121 0
M  V30 3894 C 382.145 -2.4583 -3.77993 0
M  V30 3895 C 380.807 -2.85679 -3.87222 0
M  V30 3896 C 383.159 -3.40378 -3.94705 0
M  V30 3897 C 380.487 -4.19081 -4.10595 0
M  V30 3898 C 382.839 -4.73429 -4.1958 0
M  V30 3899 C 381.503 -5.1303 -4.27032 0
M  V30 3900 H 380.773 -0.240555 -0.700867 0
M  V30 3901 H 383.42 -1.24044 -1.45895 0
M  V30 3902 H 381.725 -0.335072 -3.90365 0
M  V30 3903 H 383.422 -0.724322 -3.94404 0
M  V30 3904 H 380.012 -2.13939 -3.71387 0
M  V30 3905 H 384.196 -3.10766 -3.8696 0
M  V30 3906 H 379.452 -4.49362 -4.14589 0
M  V30 3907 H 383.626 -5.46644 -4.31455 0
M  V30 3908 H 381.253 -6.16418 -4.44896 0
M  V30 3909 N 382.828 1.3818 -0.7579 0
M  V30 3910 C 383.791 2.28764 -0.141286 0
M  V30 3911 C 384.791 1.47388 0.642907 0
M  V30 3912 O 385.981 1.67781 0.468536 0
M  V30 3913 C 383.113 3.31184 0.808069 0
M  V30 3914 H 384.306 2.848 -0.939633 0
M  V30 3915 H 381.859 1.47212 -0.525191 0
M  V30 3916 H 382.594 2.80247 1.63193 0
M  V30 3917 H 382.379 3.91314 0.248104 0
M  V30 3918 H 383.869 3.98909 1.23536 0
M  V30 3919 N 384.306 0.507319 1.49211 0
M  V30 3920 C 385.722 0.163682 1.58758 0
M  V30 3921 C 385.922 -1.33208 1.51188 0
M  V30 3922 O 384.978 -2.10855 1.38911 0
M  V30 3923 C 386.291 0.746095 2.91297 0
M  V30 3924 C 387.839 0.712773 3.04776 0
M  V30 3925 C 388.314 1.27336 4.39943 0
M  V30 3926 N 389.805 1.23433 4.46451 0
M  V30 3927 C 390.54 1.63821 5.495 0
M  V30 3928 N 390.036 2.11832 6.5962 0
M  V30 3929 N 391.829 1.55198 5.4025 0
M  V30 3930 H 383.98 1.47972 1.52375 0
M  V30 3931 H 386.243 0.614147 0.722168 0
M  V30 3932 H 385.949 1.79534 3.02424 0
M  V30 3933 H 385.823 0.210137 3.76614 0
M  V30 3934 H 388.21 -0.327656 2.93275 0
M  V30 3935 H 388.291 1.28595 2.21127 0
M  V30 3936 H 387.935 2.3126 4.52196 0
M  V30 3937 H 387.865 0.676066 5.22242 0
M  V30 3938 H 390.356 0.882627 3.67448 0
M  V30 3939 H 390.669 2.40703 7.34358 0
M  V30 3940 H 389.014 2.1581 6.60644 0
M  V30 3941 H 392.205 1.17505 4.53112 0
M  V30 3942 H 392.378 1.86997 6.20432 0
M  V30 3943 N 385.784 -1.5574 0.241426 0
M  V30 3944 C 387.03 -1.99104 -0.385406 0
M  V30 3945 C 387.363 -1.1293 -1.57988 0
M  V30 3946 O 386.638 -0.191449 -1.93555 0
M  V30 3947 C 386.921 -3.51087 -0.800616 0
M  V30 3948 C 386.774 -4.48028 0.398874 0
M  V30 3949 C 388.093 -4.08015 -1.64959 0
M  V30 3950 H 385.212 -0.723848 -0.138614 0
M  V30 3951 H 387.854 -1.86903 0.341642 0
M  V30 3952 H 386.004 -3.61615 -1.4201 0
M  V30 3953 H 387.676 -4.49487 1.03726 0
M  V30 3954 H 385.919 -4.21077 1.04293 0
M  V30 3955 H 386.59 -5.51962 0.0651056 0
M  V30 3956 H 389.066 -4.00555 -1.12672 0
M  V30 3957 H 387.942 -5.14635 -1.90898 0
M  V30 3958 H 388.203 -3.56131 -2.61961 0
M  V30 3959 N 387.262 0.0317525 -1.57568 0
M  V30 3960 C 388.539 0.758366 -1.803 0
M  V30 3961 C 388.919 1.93718 -0.838845 0
M  V30 3962 O 388.267 2.28187 0.119571 0
M  V30 3963 C 388.477 1.19392 -3.27943 0
M  V30 3964 C 389.825 1.61094 -3.92854 0
M  V30 3965 O 390.849 1.28857 -3.32076 0
M  V30 3966 O 389.708 2.20918 -4.99858 0
M  V30 3967 H 386.802 0.366514 -0.741348 0
M  V30 3968 H 389.348 0.00873765 -1.69698 0
M  V30 3969 H 388.12 0.352275 -3.89711 0
M  V30 3970 H 387.743 2.00365 -3.43424 0
M  V30 3971 N 388.74 1.54641 0.303973 0
M  V30 3972 C 389.65 1.88439 1.39743 0
M  V30 3973 C 390.666 0.778239 1.55626 0
M  V30 3974 O 391.842 1.07442 1.70347 0
M  V30 3975 C 388.907 2.12212 2.74166 0
M  V30 3976 C 387.968 3.35936 2.67293 0
M  V30 3977 C 387.201 3.58566 3.95305 0
M  V30 3978 O 387.424 2.84263 4.9452 0
M  V30 3979 O 386.358 4.52078 3.97378 0
M  V30 3980 H 390.184 2.81458 1.14083 0
M  V30 3981 H 387.769 1.40793 0.499768 0
M  V30 3982 H 389.651 2.29067 3.53704 0
M  V30 3983 H 388.326 1.22379 2.99675 0
M  V30 3984 H 387.233 3.24448 1.86237 0
M  V30 3985 H 388.566 4.2589 2.46736 0
M  V30 3986 N 390.218 -0.567019 1.47046 0
M  V30 3987 C 391.181 -1.65696 1.58359 0
M  V30 3988 C 392.181 -1.54097 0.459441 0
M  V30 3989 O 393.371 -1.58432 0.724225 0
M  V30 3990 C 390.503 -3.05197 1.51879 0
M  V30 3991 H 391.696 -1.57019 2.5551 0
M  V30 3992 H 389.249 -0.786148 1.3509 0
M  V30 3993 H 389.984 -3.19417 0.560673 0
M  V30 3994 H 389.769 -3.15025 2.33455 0
M  V30 3995 H 391.259 -3.84511 1.62913 0
M  V30 3996 N 391.696 -1.35014 -0.812953 0
M  V30 3997 C 392.626 -1.30069 -1.93919 0
M  V30 3998 C 393.607 -0.176275 -1.69184 0
M  V30 3999 O 394.792 -0.370227 -1.90638 0
M  V30 4000 C 391.922 -1.06547 -3.30552 0
M  V30 4001 C 390.876 -2.15561 -3.69753 0
M  V30 4002 C 390.202 -1.77214 -5.04479 0
M  V30 4003 C 391.502 -3.57476 -3.808 0
M  V30 4004 H 393.196 -2.24303 -1.98314 0
M  V30 4005 H 390.742 -1.07977 -0.952736 0
M  V30 4006 H 392.695 -1.01729 -4.08937 0
M  V30 4007 H 391.419 -0.0875719 -3.26483 0
M  V30 4008 H 390.078 -2.19466 -2.9365 0
M  V30 4009 H 389.726 -0.780589 -4.96906 0
M  V30 4010 H 389.426 -2.50184 -5.31678 0
M  V30 4011 H 390.95 -1.7391 -5.8531 0
M  V30 4012 H 392.364 -3.55929 -4.4943 0
M  V30 4013 H 390.761 -4.29152 -4.19462 0
M  V30 4014 H 391.831 -3.94091 -2.82525 0
M  V30 4015 N 393.175 1.03435 -1.18907 0
M  V30 4016 C 394.423 1.76394 -0.986382 0
M  V30 4017 C 394.744 1.88883 0.484567 0
M  V30 4018 O 394.014 1.41843 1.3512 0
M  V30 4019 H 392.594 0.65344 -0.361975 0
M  V30 4020 H 395.256 1.248 -1.49703 0
M  V30 4021 H 394.352 2.77424 -1.42978 0
M  V30 4022 N 394.653 0.992116 1.22453 0
M  V30 4023 C 396.069 0.702713 1.43297 0
M  V30 4024 C 396.269 -0.726909 1.87932 0
M  V30 4025 O 395.325 -1.49792 2.0327 0
M  V30 4026 C 396.638 1.70762 2.47509 0
M  V30 4027 C 398.186 1.72298 2.61309 0
M  V30 4028 C 398.661 2.71649 3.68742 0
M  V30 4029 N 400.152 2.70239 3.76199 0
M  V30 4030 C 400.887 3.43778 4.58917 0
M  V30 4031 N 400.383 4.26914 5.45633 0
M  V30 4032 N 402.176 3.32487 4.5322 0
M  V30 4033 H 394.327 1.91543 0.917871 0
M  V30 4034 H 396.59 0.826031 0.465162 0
M  V30 4035 H 396.296 2.73059 2.21657 0
M  V30 4036 H 396.17 1.49985 3.46099 0
M  V30 4037 H 398.557 0.706989 2.86506 0
M  V30 4038 H 398.638 1.97143 1.62997 0
M  V30 4039 H 398.282 3.73397 3.44292 0
M  V30 4040 H 398.212 2.44074 4.66622 0
M  V30 4041 H 400.703 2.09912 3.14237 0
M  V30 4042 H 401.016 4.79855 6.05771 0
M  V30 4043 H 399.361 4.31002 5.45218 0
M  V30 4044 H 402.552 2.6698 3.84499 0
M  V30 4045 H 402.725 3.90058 5.17454 0
M  V30 4046 N 396.131 -1.37776 0.765217 0
M  V30 4047 C 397.542 -1.82521 0.392819 0
M  V30 4048 C 397.893 -1.63789 -1.08017 0
M  V30 4049 O 397.018 -1.14542 -1.83601 0
M  V30 4050 C 397.613 -3.31358 0.706214 0
M  V30 4051 C 396.172 -3.74406 0.386952 0
M  V30 4052 C 395.319 -2.60394 0.953422 0
M  V30 4053 H 398.27 -1.2634 0.960412 0
M  V30 4054 H 398.291 -3.80498 -0.0114706 0
M  V30 4055 H 397.803 -3.44959 1.77833 0
M  V30 4056 H 395.904 -3.66377 -0.678112 0
M  V30 4057 H 396.017 -4.70749 0.890636 0
M  V30 4058 H 394.381 -2.51878 0.378064 0
M  V30 4059 H 395.164 -2.76791 2.03081 0
M  V30 4060 N 397.609 -0.515225 -1.4894 0
M  V30 4061 C 398.857 0.0241671 -2.02086 0
M  V30 4062 C 399.178 1.3616 -1.3959 0
M  V30 4063 O 398.448 1.87841 -0.556121 0
M  V30 4064 H 397.028 0.0119203 -0.746905 0
M  V30 4065 H 399.69 -0.675702 -1.82812 0
M  V30 4066 H 398.786 0.143385 -3.1177 0
M  V30 4067 N 399.087 1.5561 -0.249682 0
M  V30 4068 C 400.335 1.98618 0.373548 0
M  V30 4069 C 400.656 1.13919 1.58264 0
M  V30 4070 O 399.926 0.222637 1.94631 0
M  V30 4071 H 398.506 0.733571 0.141006 0
M  V30 4072 H 401.168 1.91748 -0.349117 0
M  V30 4073 H 400.264 3.04584 0.680796 0
M  V30 4074 N 400.565 -0.0233959 1.57583 0
M  V30 4075 C 401.495 -1.02162 2.09965 0
M  V30 4076 C 402.476 -1.3735 1.00344 0
M  V30 4077 O 403.661 -1.46135 1.27899 0
M  V30 4078 C 400.791 -2.32081 2.58371 0
M  V30 4079 C 399.745 -2.1112 3.72307 0
M  V30 4080 C 399.071 -3.46848 4.06941 0
M  V30 4081 C 400.371 -1.49276 5.00514 0
M  V30 4082 H 402.065 -0.585557 2.93618 0
M  V30 4083 H 399.611 -0.280218 1.41247 0
M  V30 4084 H 401.564 -3.02249 2.93639 0
M  V30 4085 H 400.288 -2.77758 1.71808 0
M  V30 4086 H 398.947 -1.43384 3.37397 0
M  V30 4087 H 398.595 -3.90184 3.17436 0
M  V30 4088 H 398.295 -3.33646 4.83688 0
M  V30 4089 H 399.819 -4.18369 4.44747 0
M  V30 4090 H 401.233 -2.09368 5.33702 0
M  V30 4091 H 399.63 -1.46632 5.8191 0
M  V30 4092 H 400.7 -0.459217 4.82721 0
M  V30 4093 N 402.043 -1.548 -0.295768 0
M  V30 4094 C 403.006 -1.85363 -1.34808 0
M  V30 4095 C 404.006 -0.726817 -1.43436 0
M  V30 4096 O 405.196 -0.995088 -1.42981 0
M  V30 4097 C 402.328 -2.03859 -2.73229 0
M  V30 4098 H 403.521 -2.7941 -1.08949 0
M  V30 4099 H 401.074 -1.46942 -0.532702 0
M  V30 4100 H 401.809 -1.12117 -3.04303 0
M  V30 4101 H 401.594 -2.8588 -2.68356 0
M  V30 4102 H 403.084 -2.28857 -3.49305 0
M  V30 4103 N 403.521 0.559213 -1.47345 0
M  V30 4104 C 404.767 1.31843 -1.54095 0
M  V30 4105 C 405.1 1.93149 -0.201726 0
M  V30 4106 O 404.375 1.77759 0.789428 0
M  V30 4107 C 404.658 2.43006 -2.65744 0
M  V30 4108 C 404.511 1.86581 -4.09277 0
M  V30 4109 C 405.83 3.44943 -2.73318 0
M  V30 4110 H 402.949 0.478012 -0.560957 0
M  V30 4111 H 405.591 0.625977 -1.79392 0
M  V30 4112 H 403.741 3.02072 -2.44305 0
M  V30 4113 H 405.413 1.31792 -4.42073 0
M  V30 4114 H 403.656 1.17268 -4.17649 0
M  V30 4115 H 404.327 2.66933 -4.83168 0
M  V30 4116 H 406.803 2.95793 -2.92653 0
M  V30 4117 H 405.679 4.20153 -3.53218 0
M  V30 4118 H 405.94 4.03665 -1.80296 0
M  V30 4119 N 404.999 1.35443 0.805782 0
M  V30 4120 C 405.929 1.31095 1.93226 0
M  V30 4121 C 406.91 0.185244 1.69088 0
M  V30 4122 O 408.095 0.380332 1.90439 0
M  V30 4123 C 405.225 1.08299 3.29983 0
M  V30 4124 C 404.179 2.17519 3.68605 0
M  V30 4125 C 403.505 1.79887 5.03532 0
M  V30 4126 C 404.805 3.5949 3.78898 0
M  V30 4127 H 406.499 2.25352 1.97122 0
M  V30 4128 H 404.045 1.0848 0.946996 0
M  V30 4129 H 405.998 1.03897 4.08391 0
M  V30 4130 H 404.722 0.104885 3.26432 0
M  V30 4131 H 403.381 2.2102 2.92482 0
M  V30 4132 H 403.029 0.80693 4.96485 0
M  V30 4133 H 402.729 2.53001 5.30344 0
M  V30 4134 H 404.253 1.77011 5.84379 0
M  V30 4135 H 405.667 3.58307 4.47536 0
M  V30 4136 H 404.064 4.31371 4.1718 0
M  V30 4137 H 405.134 3.95584 2.80431 0
M  V30 4138 N 406.477 -1.02803 1.19454 0
M  V30 4139 C 407.44 -2.09264 0.934955 0
M  V30 4140 C 408.44 -1.60576 -0.0849015 0
M  V30 4141 O 409.63 -1.73554 0.149933 0
M  V30 4142 C 406.762 -3.38482 0.40531 0
M  V30 4143 H 407.955 -2.33726 1.87916 0
M  V30 4144 H 405.508 -1.19426 1.00832 0
M  V30 4145 H 406.243 -3.19689 -0.544899 0
M  V30 4146 H 406.028 -3.75142 1.14065 0
M  V30 4147 H 407.518 -4.16894 0.242806 0
M  V30 4148 N 407.956 -0.998596 -1.21925 0
M  V30 4149 C 408.919 -0.558679 -2.22287 0
M  V30 4150 C 409.919 0.361525 -1.56683 0
M  V30 4151 O 411.109 0.152695 -1.73529 0
M  V30 4152 C 408.241 0.18661 -3.40389 0
M  V30 4153 H 409.434 -1.4463 -2.62721 0
M  V30 4154 H 406.987 -0.786413 -1.35075 0
M  V30 4155 H 407.722 1.08996 -3.05435 0
M  V30 4156 H 407.507 -0.474188 -3.89222 0
M  V30 4157 H 408.997 0.482367 -4.14805 0
M  V30 4158 N 409.434 1.37368 -0.772513 0
M  V30 4159 C 410.681 1.99673 -0.337182 0
M  V30 4160 C 411.009 1.61324 1.0865 0
M  V30 4161 O 410.264 0.851377 1.7621 0
M  V30 4162 C 410.563 3.54817 -0.428876 0
M  V30 4163 C 410.229 4.12936 -1.81092 0
M  V30 4164 C 408.891 4.28523 -2.1891 0
M  V30 4165 C 411.243 4.44801 -2.71664 0
M  V30 4166 C 408.571 4.73277 -3.46735 0
M  V30 4167 C 410.923 4.90981 -3.98899 0
M  V30 4168 C 409.587 5.04773 -4.36761 0
M  V30 4169 H 408.857 0.730656 -0.123384 0
M  V30 4170 H 411.504 1.64124 -0.986686 0
M  V30 4171 H 409.809 3.90618 0.304167 0
M  V30 4172 H 411.506 4.00933 -0.0733334 0
M  V30 4173 H 408.096 4.01233 -1.50699 0
M  V30 4174 H 412.28 4.32344 -2.43706 0
M  V30 4175 H 407.536 4.82142 -3.75964 0
M  V30 4176 H 411.71 5.14603 -4.69208 0
M  V30 4177 H 409.337 5.39211 -5.35868 0
M  V30 4178 N 410.912 0.523116 1.48665 0
M  V30 4179 C 411.842 -0.23231 2.32342 0
M  V30 4180 C 412.823 -0.941637 1.41659 0
M  V30 4181 O 414.008 -0.928751 1.70552 0
M  V30 4182 C 411.138 -1.28387 3.22698 0
M  V30 4183 C 410.092 -0.693098 4.22351 0
M  V30 4184 C 409.418 -1.8468 5.01794 0
M  V30 4185 C 410.718 0.33063 5.21252 0
M  V30 4186 H 412.412 0.466192 2.95748 0
M  V30 4187 H 409.958 0.225643 1.42221 0
M  V30 4188 H 411.911 -1.82024 3.80059 0
M  V30 4189 H 410.635 -2.01186 2.57278 0
M  V30 4190 H 409.294 -0.178299 3.66166 0
M  V30 4191 H 408.942 -2.56301 4.32804 0
M  V30 4192 H 408.642 -1.45747 5.69238 0
M  V30 4193 H 410.166 -2.38709 5.62006 0
M  V30 4194 H 411.58 -0.118407 5.73178 0
M  V30 4195 H 409.977 0.636974 5.9671 0
M  V30 4196 H 411.047 1.23883 4.68808 0
M  V30 4197 N 412.39 -1.55475 0.257931 0
M  V30 4198 C 413.3 -2.2549 -0.647425 0
M  V30 4199 C 414.316 -1.2748 -1.18427 0
M  V30 4200 O 415.492 -1.6038 -1.2182 0
M  V30 4201 C 412.557 -2.94916 -1.82278 0
M  V30 4202 C 411.618 -4.08363 -1.32432 0
M  V30 4203 C 410.851 -4.74469 -2.44366 0
M  V30 4204 O 411.074 -4.39701 -3.63344 0
M  V30 4205 O 410.008 -5.62763 -2.13497 0
M  V30 4206 H 413.834 -3.03593 -0.0807707 0
M  V30 4207 H 411.419 -1.49377 0.0259962 0
M  V30 4208 H 413.301 -3.38606 -2.50846 0
M  V30 4209 H 411.976 -2.19744 -2.37685 0
M  V30 4210 H 410.883 -3.69166 -0.605605 0
M  V30 4211 H 412.216 -4.85385 -0.816211 0
M  V30 4212 N 413.868 0.0150385 -1.57593 0
M  V30 4213 C 414.778 1.02791 -2.10882 0
M  V30 4214 C 415.794 1.38702 -1.0506 0
M  V30 4215 O 416.97 1.47739 -1.36877 0
M  V30 4216 C 414.035 2.30568 -2.58919 0
M  V30 4217 C 413.096 2.01108 -3.79281 0
M  V30 4218 C 412.329 3.22794 -4.25018 0
M  V30 4219 O 412.552 4.33959 -3.70183 0
M  V30 4220 O 411.486 3.07672 -5.17322 0
M  V30 4221 H 415.312 0.604973 -2.97613 0
M  V30 4222 H 412.897 0.23292 -1.47573 0
M  V30 4223 H 414.779 3.05662 -2.90084 0
M  V30 4224 H 413.454 2.72129 -1.75293 0
M  V30 4225 H 412.361 1.23537 -3.53114 0
M  V30 4226 H 413.694 1.64394 -4.63935 0
M  V30 4227 N 415.346 1.54954 0.287554 0
M  V30 4228 C 416.594 1.74528 1.01904 0
M  V30 4229 C 416.915 0.541349 1.87335 0
M  V30 4230 O 416.185 -0.444108 1.908 0
M  V30 4231 H 414.765 0.643576 0.379235 0
M  V30 4232 H 417.427 1.92333 0.315294 0
M  V30 4233 H 416.523 2.64015 1.6644 0
M  V30 4234 N 416.824 -0.551391 1.4764 0
M  V30 4235 C 418.235 -1.13349 1.48354 0
M  V30 4236 C 418.586 -1.94709 0.241432 0
M  V30 4237 O 417.711 -2.06306 -0.653205 0
M  V30 4238 C 418.306 -2.0623 2.68802 0
M  V30 4239 C 416.865 -2.597 2.72457 0
M  V30 4240 C 416.012 -1.36201 2.41546 0
M  V30 4241 H 418.963 -0.337698 1.55065 0
M  V30 4242 H 418.984 -2.90196 2.46103 0
M  V30 4243 H 418.496 -1.46987 3.59188 0
M  V30 4244 H 416.597 -3.22724 1.86225 0
M  V30 4245 H 416.71 -3.00296 3.73308 0
M  V30 4246 H 415.074 -1.67068 1.9225 0
M  V30 4247 H 415.857 -0.787425 3.34147 0
M  V30 4248 N 418.302 -1.35869 -0.798587 0
M  V30 4249 C 419.212 -1.31578 -1.94228 0
M  V30 4250 C 420.228 -0.21939 -1.72611 0
M  V30 4251 O 421.404 -0.450167 -1.96305 0
M  V30 4252 C 418.469 -1.09528 -3.28944 0
M  V30 4253 C 417.53 -2.28556 -3.63402 0
M  V30 4254 C 416.763 -2.07549 -4.9169 0
M  V30 4255 O 416.986 -1.046 -5.60727 0
M  V30 4256 O 415.92 -2.95106 -5.24591 0
M  V30 4257 H 419.746 -2.27847 -2.00796 0
M  V30 4258 H 417.331 -1.16322 -0.937526 0
M  V30 4259 H 419.213 -0.991127 -4.09579 0
M  V30 4260 H 417.888 -0.16315 -3.23289 0
M  V30 4261 H 416.795 -2.44538 -2.83112 0
M  V30 4262 H 418.128 -3.20244 -3.73771 0
M  V30 4263 N 419.78 1.02168 -1.19998 0
M  V30 4264 C 420.69 2.14069 -0.959774 0
M  V30 4265 C 421.706 1.73804 0.082655 0
M  V30 4266 O 422.882 2.01133 -0.103633 0
M  V30 4267 C 419.947 3.42936 -0.509459 0
M  V30 4268 C 419.008 3.97474 -1.62213 0
M  V30 4269 C 418.241 5.2019 -1.19321 0
M  V30 4270 O 418.464 5.70369 -0.0597726 0
M  V30 4271 O 417.398 5.67749 -1.99863 0
M  V30 4272 H 421.224 2.37199 -1.89658 0
M  V30 4273 H 418.809 1.12469 -0.983411 0
M  V30 4274 H 420.691 4.20551 -0.267322 0
M  V30 4275 H 419.366 3.21234 0.398821 0
M  V30 4276 H 418.273 3.21161 -1.9185 0
M  V30 4277 H 419.606 4.23555 -2.50723 0
M  V30 4278 N 421.258 1.00505 1.21394 0
M  V30 4279 C 422.206 0.558623 2.25792 0
M  V30 4280 C 423.2 -0.396848 1.64686 0
M  V30 4281 O 424.406 -0.268035 1.77993 0
M  V30 4282 H 420.781 0.1623 0.734277 0
M  V30 4283 H 422.752 1.4503 2.60785 0
M  V30 4284 C 421.501 -0.0989574 3.47559 0
M  V30 4285 H 420.824 0.627225 3.94849 0
M  V30 4286 H 422.264 -0.3746 4.22342 0
M  V30 4287 C 420.723 -1.33817 3.09184 0
M  V30 4288 O 421.253 -2.43252 3.19674 0
M  V30 4289 N 419.459 -1.21793 2.63846 0
M  V30 4290 H 419.006 -0.32746 2.5551 0
M  V30 4291 H 418.964 -2.04809 2.38539 0
M  V30 4292 N 422.737 -1.36956 0.779787 0
M  V30 4293 C 423.962 -2.04283 0.358224 0
M  V30 4294 C 424.387 -1.58422 -1.01411 0
M  V30 4295 O 423.745 -0.748179 -1.65142 0
M  V30 4296 C 423.793 -3.58152 0.419479 0
M  V30 4297 O 422.897 -4.08342 -0.577142 0
M  V30 4298 H 422.238 -0.645967 0.153698 0
M  V30 4299 H 424.768 -1.75108 1.05822 0
M  V30 4300 H 424.778 -4.07041 0.279636 0
M  V30 4301 H 423.453 -3.90886 1.42061 0
M  V30 4302 H 422.03 -3.70751 -0.399755 0
M  V30 4303 N 424.215 -0.530993 -1.48385 0
M  V30 4304 C 425.178 0.220497 -2.28137 0
M  V30 4305 C 426.178 0.866851 -1.35434 0
M  V30 4306 O 427.368 0.726746 -1.58316 0
M  V30 4307 C 424.5 1.31921 -3.1434 0
M  V30 4308 H 425.693 -0.479714 -2.96038 0
M  V30 4309 H 423.246 -0.286968 -1.53643 0
M  V30 4310 H 423.981 2.05264 -2.51072 0
M  V30 4311 H 423.766 0.86085 -3.82533 0
M  V30 4312 H 425.256 1.84776 -3.74497 0
M  V30 4313 N 425.693 1.55336 -0.266172 0
M  V30 4314 C 426.923 2.03506 0.356239 0
M  V30 4315 C 427.331 1.14426 1.50676 0
M  V30 4316 O 426.674 0.155043 1.83045 0
M  V30 4317 C 426.736 3.47848 0.90785 0
M  V30 4318 C 426.4 4.56861 -0.112888 0
M  V30 4319 C 427.397 5.11528 -0.929264 0
M  V30 4320 C 425.082 5.01704 -0.244546 0
M  V30 4321 C 427.076 6.09549 -1.86357 0
M  V30 4322 C 424.763 5.99553 -1.18234 0
M  V30 4323 C 425.761 6.53356 -1.99036 0
M  V30 4324 O 425.449 7.49293 -2.91231 0
M  V30 4325 H 425.181 0.670444 0.08649 0
M  V30 4326 H 427.735 2.01598 -0.39337 0
M  V30 4327 H 425.965 3.46967 1.70737 0
M  V30 4328 H 427.654 3.79407 1.44239 0
M  V30 4329 H 428.42 4.77701 -0.838237 0
M  V30 4330 H 424.299 4.59477 0.374359 0
M  V30 4331 H 427.843 6.51469 -2.49467 0
M  V30 4332 H 423.74 6.32799 -1.27421 0
M  V30 4333 H 424.508 7.66978 -2.8581 0
M  V30 4334 N 427.171 -0.0066808 1.57599 0
M  V30 4335 C 428.081 -1.01671 2.11424 0
M  V30 4336 C 429.097 -1.38143 1.05795 0
M  V30 4337 O 430.273 -1.47011 1.37658 0
M  V30 4338 C 427.338 -2.29192 2.60139 0
M  V30 4339 C 426.399 -1.99094 3.80342 0
M  V30 4340 C 425.632 -3.20535 4.26724 0
M  V30 4341 O 425.855 -4.3199 3.72479 0
M  V30 4342 O 424.789 -3.04924 5.18946 0
M  V30 4343 H 428.615 -0.589181 2.9793 0
M  V30 4344 H 426.2 -0.225091 1.47695 0
M  V30 4345 H 428.082 -3.0412 2.917 0
M  V30 4346 H 426.757 -2.71195 1.76733 0
M  V30 4347 H 425.664 -1.21663 3.53764 0
M  V30 4348 H 426.997 -1.61931 4.648 0
M  V30 4349 N 428.649 -1.55105 -0.279332 0
M  V30 4350 C 429.581 -1.83952 -1.36727 0
M  V30 4351 C 430.594 -0.723642 -1.45833 0
M  V30 4352 O 431.783 -1.00141 -1.47763 0
M  V30 4353 C 428.883 -1.98183 -2.74912 0
M  V30 4354 C 428.056 -3.28787 -2.88475 0
M  V30 4355 C 427.115 -3.33162 -4.07295 0
M  V30 4356 O 426.141 -4.06576 -3.98353 0
M  V30 4357 N 427.343 -2.60109 -5.18964 0
M  V30 4358 H 430.108 -2.77853 -1.12328 0
M  V30 4359 H 427.669 -1.54945 -0.469442 0
M  V30 4360 H 429.661 -1.98488 -3.52682 0
M  V30 4361 H 428.231 -1.11177 -2.92162 0
M  V30 4362 H 427.451 -3.41075 -1.97641 0
M  V30 4363 H 428.739 -4.14933 -2.94463 0
M  V30 4364 H 428.137 -2.00136 -5.29115 0
M  V30 4365 H 426.694 -2.66143 -5.94988 0
M  V30 4366 N 430.127 0.543554 -1.4793 0
M  V30 4367 C 431.057 1.65888 -1.64327 0
M  V30 4368 C 432.038 1.62818 -0.492383 0
M  V30 4369 O 433.223 1.80226 -0.723338 0
M  V30 4370 C 430.353 3.04506 -1.67013 0
M  V30 4371 C 429.307 3.2243 -2.81466 0
M  V30 4372 C 428.633 4.61972 -2.69233 0
M  V30 4373 C 429.933 3.06496 -4.22915 0
M  V30 4374 H 431.627 1.52421 -2.57698 0
M  V30 4375 H 429.173 0.731849 -1.24016 0
M  V30 4376 H 431.126 3.82391 -1.77074 0
M  V30 4377 H 429.85 3.18964 -0.70212 0
M  V30 4378 H 428.509 2.46957 -2.70938 0
M  V30 4379 H 428.157 4.73247 -1.7043 0
M  V30 4380 H 427.857 4.74911 -3.46025 0
M  V30 4381 H 429.381 5.41974 -2.81242 0
M  V30 4382 H 430.795 3.74186 -4.34348 0
M  V30 4383 H 429.192 3.30938 -5.006 0
M  V30 4384 H 430.262 2.03077 -4.40327 0
M  V30 4385 N 431.605 1.3629 0.791371 0
M  V30 4386 C 432.535 1.33137 1.91825 0
M  V30 4387 C 433.516 0.203168 1.68882 0
M  V30 4388 O 434.701 0.400509 1.90025 0
M  V30 4389 C 431.831 1.11793 3.28816 0
M  V30 4390 C 430.785 2.21417 3.66277 0
M  V30 4391 C 430.111 1.85218 5.01596 0
M  V30 4392 C 431.411 3.63489 3.75064 0
M  V30 4393 H 433.105 2.2743 1.9472 0
M  V30 4394 H 430.651 1.09479 0.935437 0
M  V30 4395 H 432.604 1.08222 4.07266 0
M  V30 4396 H 431.328 0.139501 3.26302 0
M  V30 4397 H 429.987 2.2411 2.90121 0
M  V30 4398 H 429.635 0.859544 4.95602 0
M  V30 4399 H 429.335 2.58611 5.27631 0
M  V30 4400 H 430.859 1.832 5.82469 0
M  V30 4401 H 432.273 3.63034 4.43711 0
M  V30 4402 H 430.67 4.35771 4.12582 0
M  V30 4403 H 431.74 3.98536 2.76219 0
M  V30 4404 N 433.083 -1.0153 1.20538 0
M  V30 4405 C 434.308 -1.79283 1.04271 0
M  V30 4406 C 434.733 -1.8372 -0.403544 0
M  V30 4407 O 434.091 -1.27321 -1.2907 0
M  V30 4408 C 434.139 -3.21535 1.63241 0
M  V30 4409 O 433.243 -4.03099 0.870908 0
M  V30 4410 H 432.584 -0.55293 0.367647 0
M  V30 4411 H 435.114 -1.27696 1.59859 0
M  V30 4412 H 435.124 -3.72243 1.6703 0
M  V30 4413 H 433.799 -3.1762 2.68497 0
M  V30 4414 H 432.376 -3.61693 0.907323 0
M  V30 4415 N 434.561 -1.01147 -1.20859 0
M  V30 4416 C 435.977 -0.725422 -1.42161 0
M  V30 4417 C 436.177 0.696919 -1.89064 0
M  V30 4418 O 435.233 1.46539 -2.05627 0
M  V30 4419 C 436.546 -1.74678 -2.44761 0
M  V30 4420 C 438.094 -1.76433 -2.58535 0
M  V30 4421 C 438.569 -2.77481 -3.64374 0
M  V30 4422 N 440.06 -2.76189 -3.71852 0
M  V30 4423 C 440.795 -3.51035 -4.53389 0
M  V30 4424 N 440.291 -4.35541 -5.38773 0
M  V30 4425 N 442.084 -3.39655 -4.47873 0
M  V30 4426 H 434.235 -1.92979 -0.887282 0
M  V30 4427 H 436.498 -0.833327 -0.451962 0
M  V30 4428 H 436.204 -2.76551 -2.17285 0
M  V30 4429 H 436.078 -1.55472 -3.43669 0
M  V30 4430 H 438.465 -0.75248 -2.85345 0
M  V30 4431 H 438.546 -1.99712 -1.5984 0
M  V30 4432 H 438.19 -3.78827 -3.38308 0
M  V30 4433 H 438.12 -2.51466 -4.6268 0
M  V30 4434 H 440.611 -2.14885 -3.10858 0
M  V30 4435 H 440.924 -4.89432 -5.98061 0
M  V30 4436 H 439.269 -4.39621 -5.38292 0
M  V30 4437 H 442.46 -2.73063 -3.80203 0
M  V30 4438 H 442.633 -3.9824 -5.11184 0
M  V30 4439 N 436.039 1.36541 -0.78704 0
M  V30 4440 C 436.969 2.32659 -0.197992 0
M  V30 4441 C 437.95 1.56533 0.665697 0
M  V30 4442 O 439.135 1.84698 0.60001 0
M  V30 4443 C 436.265 3.40778 0.669901 0
M  V30 4444 C 435.219 4.27897 -0.0937039 0
M  V30 4445 C 434.545 5.27163 0.894629 0
M  V30 4446 C 435.845 5.06334 -1.28154 0
M  V30 4447 H 437.539 2.82171 -1.00099 0
M  V30 4448 H 435.085 1.35665 -0.482793 0
M  V30 4449 H 437.038 4.07008 1.09191 0
M  V30 4450 H 435.762 2.89827 1.50558 0
M  V30 4451 H 434.421 3.6322 -0.49666 0
M  V30 4452 H 434.069 4.72486 1.72527 0
M  V30 4453 H 433.769 5.86317 0.388149 0
M  V30 4454 H 435.293 5.96266 1.31525 0
M  V30 4455 H 436.707 5.65617 -0.93541 0
M  V30 4456 H 435.104 5.74888 -1.72115 0
M  V30 4457 H 436.174 4.38114 -2.07807 0
M  V30 4458 N 437.518 0.538854 1.48102 0
M  V30 4459 C 438.428 -0.222648 2.33541 0
M  V30 4460 C 439.444 -0.930225 1.47047 0
M  V30 4461 O 440.62 -0.903211 1.80011 0
M  V30 4462 C 437.685 -1.25064 3.23357 0
M  V30 4463 C 436.746 -0.552469 4.2573 0
M  V30 4464 C 435.979 -1.53149 5.11254 0
M  V30 4465 O 436.202 -2.76487 4.9891 0
M  V30 4466 O 435.136 -1.06602 5.92385 0
M  V30 4467 H 438.962 0.477707 2.99919 0
M  V30 4468 H 436.547 0.299669 1.46364 0
M  V30 4469 H 438.429 -1.8445 3.78888 0
M  V30 4470 H 437.104 -1.93325 2.59629 0
M  V30 4471 H 436.011 0.082114 3.7401 0
M  V30 4472 H 437.344 0.0883526 4.92121 0
M  V30 4473 N 438.996 -1.55193 0.274407 0
M  V30 4474 C 439.906 -2.26164 -0.623473 0
M  V30 4475 C 440.922 -1.28729 -1.17068 0
M  V30 4476 O 442.098 -1.61663 -1.20112 0
M  V30 4477 C 439.163 -2.96833 -1.7914 0
M  V30 4478 C 438.224 -4.09745 -1.28093 0
M  V30 4479 C 437.457 -4.77034 -2.3932 0
M  V30 4480 O 437.68 -4.4353 -3.5866 0
M  V30 4481 O 436.614 -5.64996 -2.07516 0
M  V30 4482 H 440.44 -3.03661 -0.0485661 0
M  V30 4483 H 438.025 -1.49341 0.0418382 0
M  V30 4484 H 439.907 -3.41248 -2.4724 0
M  V30 4485 H 438.582 -2.22253 -2.35341 0
M  V30 4486 H 437.489 -3.69787 -0.566416 0
M  V30 4487 H 438.822 -4.86224 -0.764683 0
M  V30 4488 N 440.474 -0.00167713 -1.576 0
M  V30 4489 C 441.723 0.682021 -1.89819 0
M  V30 4490 C 442.036 1.74844 -0.876871 0
M  V30 4491 O 443.242 2.48688 -1.08934 0
M  V30 4492 C 441.698 1.26425 -3.36964 0
M  V30 4493 C 441.306 0.232568 -4.47396 0
M  V30 4494 C 443.05 1.92604 -3.78291 0
M  V30 4495 C 440.957 0.824882 -5.85619 0
M  V30 4496 H 439.887 0.258499 -0.708304 0
M  V30 4497 H 442.538 -0.0624957 -1.83394 0
M  V30 4498 H 440.92 2.05949 -3.38232 0
M  V30 4499 H 442.094 -0.5382 -4.57646 0
M  V30 4500 H 440.409 -0.32888 -4.15099 0
M  V30 4501 H 443.006 2.37827 -4.78897 0
M  V30 4502 H 443.349 2.75732 -3.11894 0
M  V30 4503 H 443.882 1.19812 -3.79328 0
M  V30 4504 H 440.621 0.0323542 -6.55492 0
M  V30 4505 H 440.141 1.56477 -5.79029 0
M  V30 4506 H 441.82 1.32301 -6.33329 0
M  V30 4507 N 441.952 1.55251 0.271103 0
M  V30 4508 C 442.915 1.87484 1.31842 0
M  V30 4509 C 443.915 0.749545 1.42262 0
M  V30 4510 O 445.105 1.01771 1.4138 0
M  V30 4511 C 442.237 2.0818 2.69951 0
M  V30 4512 H 443.43 2.81108 1.0449 0
M  V30 4513 H 440.983 1.47771 0.509258 0
M  V30 4514 H 441.718 1.16944 3.02481 0
M  V30 4515 H 441.503 2.90114 2.63774 0
M  V30 4516 H 442.993 2.34385 3.4562 0
M  V30 4517 N 443.43 -0.535701 1.48216 0
M  V30 4518 C 444.34 -1.66785 1.64985 0
M  V30 4519 C 445.356 -1.65654 0.532414 0
M  V30 4520 O 446.532 -1.8471 0.80275 0
M  V30 4521 C 443.597 -3.0326 1.68031 0
M  V30 4522 C 442.658 -3.1529 2.9136 0
M  V30 4523 C 441.891 -4.45255 2.94252 0
M  V30 4524 O 442.114 -5.32011 2.05719 0
M  V30 4525 O 441.048 -4.6153 3.86359 0
M  V30 4526 H 444.874 -1.55576 2.60825 0
M  V30 4527 H 442.459 -0.70815 1.31551 0
M  V30 4528 H 444.341 -3.84436 1.72589 0
M  V30 4529 H 443.016 -3.14805 0.753628 0
M  V30 4530 H 441.923 -2.3343 2.92337 0
M  V30 4531 H 443.256 -3.08658 3.83394 0
M  V30 4532 N 444.908 -1.36708 -0.784132 0
M  V30 4533 C 445.818 -1.3363 -1.92822 0
M  V30 4534 C 446.834 -0.237686 -1.72369 0
M  V30 4535 O 448.01 -0.470962 -1.95816 0
M  V30 4536 C 445.075 -1.13011 -3.27764 0
M  V30 4537 C 444.136 -2.32397 -3.60957 0
M  V30 4538 C 443.369 -2.12752 -4.89461 0
M  V30 4539 O 443.592 -1.10541 -5.59586 0
M  V30 4540 O 442.526 -3.00653 -5.21432 0
M  V30 4541 H 446.352 -2.29964 -1.98369 0
M  V30 4542 H 443.937 -1.1731 -0.925136 0
M  V30 4543 H 445.819 -1.03451 -4.08504 0
M  V30 4544 H 444.494 -0.19743 -3.23097 0
M  V30 4545 H 443.401 -2.47527 -2.80502 0
M  V30 4546 H 444.734 -3.2419 -3.70354 0
M  V30 4547 N 446.386 1.0089 -1.21074 0
M  V30 4548 C 447.634 1.74262 -1.02358 0
M  V30 4549 C 447.955 1.89869 0.444393 0
M  V30 4550 O 447.225 1.44677 1.32081 0
M  V30 4551 H 445.805 0.645615 -0.375754 0
M  V30 4552 H 448.467 1.21596 -1.52317 0
M  V30 4553 H 447.563 2.74328 -1.4883 0
M  V30 4554 N 447.864 1.01787 1.20321 0
M  V30 4555 C 449.089 0.727009 1.9424 0
M  V30 4556 C 449.514 -0.706179 1.74341 0
M  V30 4557 O 448.872 -1.48609 1.03852 0
M  V30 4558 C 448.92 1.06958 3.44372 0
M  V30 4559 O 448.024 0.181983 4.11998 0
M  V30 4560 H 447.365 0.269626 0.606793 0
M  V30 4561 H 449.895 1.36158 1.52716 0
M  V30 4562 H 449.905 1.02182 3.94997 0
M  V30 4563 H 448.58 2.11378 3.58179 0
M  V30 4564 H 447.157 0.287378 3.71791 0
M  V30 4565 N 449.342 -1.36122 0.79427 0
M  V30 4566 C 450.252 -2.33769 0.197296 0
M  V30 4567 C 451.268 -1.61276 -0.653153 0
M  V30 4568 O 452.444 -1.9323 -0.5678 0
M  V30 4569 C 449.509 -3.40474 -0.654098 0
M  V30 4570 C 448.57 -4.28759 0.215411 0
M  V30 4571 C 447.803 -5.30368 -0.595443 0
M  V30 4572 O 448.026 -5.40211 -1.83107 0
M  V30 4573 O 446.96 -6.019 0.00721351 0
M  V30 4574 H 450.786 -2.86597 1.00478 0
M  V30 4575 H 448.371 -1.38676 0.555818 0
M  V30 4576 H 450.253 -4.05703 -1.13944 0
M  V30 4577 H 448.928 -2.89937 -1.43938 0
M  V30 4578 H 447.835 -3.66554 0.747615 0
M  V30 4579 H 449.168 -4.82661 0.964332 0
M  V30 4580 N 450.82 -0.546701 -1.47814 0
M  V30 4581 C 452.048 -0.0232857 -2.06887 0
M  V30 4582 C 452.463 1.26571 -1.4009 0
M  V30 4583 O 451.82 1.7569 -0.493906 0
M  V30 4584 C 451.871 0.186975 -3.61016 0
M  V30 4585 O 451.592 -1.05097 -4.25307 0
M  V30 4586 C 453.093 0.748872 -4.36929 0
M  V30 4587 H 450.313 -0.0410763 -0.669742 0
M  V30 4588 H 452.857 -0.757117 -1.89968 0
M  V30 4589 H 451.012 0.870903 -3.77484 0
M  V30 4590 H 451.426 -0.842121 -5.17695 0
M  V30 4591 H 452.9 0.845334 -5.45489 0
M  V30 4592 H 453.377 1.75772 -4.02493 0
M  V30 4593 H 453.983 0.100979 -4.2518 0
M  V30 4594 N 452.299 1.55045 -0.282633 0
M  V30 4595 C 453.231 2.2023 0.634924 0
M  V30 4596 C 454.244 1.18931 1.11172 0
M  V30 4597 O 455.433 1.4562 1.03233 0
M  V30 4598 C 452.533 2.82041 1.87899 0
M  V30 4599 C 451.706 4.091 1.54776 0
M  V30 4600 C 450.765 4.54887 2.64507 0
M  V30 4601 O 449.791 5.20496 2.30375 0
M  V30 4602 N 450.993 4.25659 3.94709 0
M  V30 4603 H 453.758 2.99601 0.0769811 0
M  V30 4604 H 451.319 1.61565 -0.104048 0
M  V30 4605 H 453.311 3.09613 2.60619 0
M  V30 4606 H 451.881 2.06618 2.3458 0
M  V30 4607 H 451.101 3.88736 0.654049 0
M  V30 4608 H 452.389 4.9187 1.30158 0
M  V30 4609 H 451.787 3.7306 4.25256 0
M  V30 4610 H 450.344 4.57984 4.63782 0
M  V30 4611 N 453.777 0.010035 1.57597 0
M  V30 4612 C 455.023 -0.673697 1.91283 0
M  V30 4613 C 455.356 -1.72863 0.884979 0
M  V30 4614 O 454.631 -1.94268 -0.0949487 0
M  V30 4615 C 454.914 -1.30766 3.35518 0
M  V30 4616 C 454.767 -0.263578 4.49027 0
M  V30 4617 C 456.086 -2.23105 3.79358 0
M  V30 4618 H 453.205 -0.243439 0.695634 0
M  V30 4619 H 455.847 0.0633864 1.89894 0
M  V30 4620 H 453.997 -1.93588 3.36832 0
M  V30 4621 H 455.669 0.365738 4.59848 0
M  V30 4622 H 453.912 0.413077 4.31829 0
M  V30 4623 H 454.583 -0.746398 5.4693 0
M  V30 4624 H 457.059 -1.70289 3.79659 0
M  V30 4625 H 455.935 -2.64424 4.81011 0
M  V30 4626 H 456.196 -3.11433 3.13787 0
M  V30 4627 N 455.255 -1.55392 -0.262866 0
M  V30 4628 C 456.666 -1.67079 -0.833158 0
M  V30 4629 C 457.017 -0.604539 -1.86654 0
M  V30 4630 O 456.142 0.252138 -2.14926 0
M  V30 4631 C 456.737 -3.02891 -1.51797 0
M  V30 4632 C 455.296 -3.16571 -2.03617 0
M  V30 4633 C 454.443 -2.62909 -0.881701 0
M  V30 4634 H 457.394 -1.58652 -0.0389986 0
M  V30 4635 H 457.415 -2.96445 -2.38538 0
M  V30 4636 H 456.927 -3.80473 -0.765619 0
M  V30 4637 H 455.028 -2.43782 -2.81782 0
M  V30 4638 H 455.141 -4.23271 -2.24452 0
M  V30 4639 H 453.505 -2.20324 -1.27786 0
M  V30 4640 H 454.288 -3.43003 -0.14269 0
M  V30 4641 N 456.733 0.527833 -1.48498 0
M  V30 4642 C 457.981 1.28101 -1.56316 0
M  V30 4643 C 458.302 1.9352 -0.239781 0
M  V30 4644 O 457.572 1.81433 0.738849 0
M  V30 4645 H 456.152 0.475793 -0.575873 0
M  V30 4646 H 458.814 0.614052 -1.84974 0
M  V30 4647 H 457.91 2.05916 -2.34532 0
M  V30 4648 N 458.211 1.37122 0.776871 0
M  V30 4649 C 459.141 1.35164 1.90402 0
M  V30 4650 C 460.122 0.221069 1.68657 0
M  V30 4651 O 461.307 0.420642 1.8959 0
M  V30 4652 C 458.437 1.15274 3.27611 0
M  V30 4653 C 457.391 2.25289 3.63908 0
M  V30 4654 C 456.717 1.90527 4.99603 0
M  V30 4655 C 458.017 3.67446 3.71188 0
M  V30 4656 H 459.711 2.29482 1.92297 0
M  V30 4657 H 457.257 1.10465 0.923773 0
M  V30 4658 H 459.21 1.12536 4.06096 0
M  V30 4659 H 457.934 0.174102 3.26136 0
M  V30 4660 H 456.593 2.27174 2.87728 0
M  V30 4661 H 456.241 0.91206 4.94662 0
M  V30 4662 H 455.941 2.64193 5.24858 0
M  V30 4663 H 457.465 1.89367 5.80493 0
M  V30 4664 H 458.879 3.67719 4.39836 0
M  V30 4665 H 457.276 4.40123 4.07936 0
M  V30 4666 H 458.346 4.01443 2.71977 0
M  V30 4667 N 459.689 -1.00246 1.21608 0
M  V30 4668 C 460.966 -1.71336 0.943568 0
M  V30 4669 C 461.346 -2.03972 -0.543943 0
M  V30 4670 O 460.694 -1.71545 -1.50946 0
M  V30 4671 C 460.904 -2.97094 1.83128 0
M  V30 4672 C 462.252 -3.70071 2.08165 0
M  V30 4673 O 463.276 -3.07081 1.80498 0
M  V30 4674 O 462.135 -4.83376 2.54971 0
M  V30 4675 H 459.229 -0.747386 0.354039 0
M  V30 4676 H 461.775 -1.05967 1.32549 0
M  V30 4677 H 460.547 -2.69407 2.83788 0
M  V30 4678 H 460.17 -3.70204 1.45034 0
M  V30 4679 N 461.167 -1.02423 -1.1978 0
M  V30 4680 C 462.416 -0.713265 -1.88667 0
M  V30 4681 C 462.729 0.7609 -1.80193 0
M  V30 4682 O 463.935 1.18473 -2.44288 0
M  V30 4683 C 462.391 -1.22545 -3.38394 0
M  V30 4684 C 461.999 -2.72706 -3.55437 0
M  V30 4685 C 463.743 -0.990257 -4.12788 0
M  V30 4686 C 461.65 -3.17367 -4.99031 0
M  V30 4687 H 460.58 -0.263105 -0.706606 0
M  V30 4688 H 463.231 -1.23792 -1.35454 0
M  V30 4689 H 461.613 -0.628732 -3.90977 0
M  V30 4690 H 462.787 -3.37993 -3.13205 0
M  V30 4691 H 461.102 -2.94453 -2.94425 0
M  V30 4692 H 463.699 -1.29926 -5.18675 0
M  V30 4693 H 464.042 0.0730761 -4.16236 0
M  V30 4694 H 464.575 -1.55074 -3.66329 0
M  V30 4695 H 461.314 -4.23009 -5.00743 0
M  V30 4696 H 460.834 -2.56805 -5.42044 0
M  V30 4697 H 462.513 -3.10441 -5.67658 0
M  V30 4698 N 462.645 1.35699 -0.801477 0
M  V30 4699 C 463.87 2.03687 -0.390678 0
M  V30 4700 C 464.295 1.60015 0.988778 0
M  V30 4701 O 463.653 0.774357 1.63931 0
M  V30 4702 C 463.701 3.57439 -0.476404 0
M  V30 4703 O 462.805 4.09208 0.512106 0
M  V30 4704 H 462.146 0.64344 -0.163956 0
M  V30 4705 H 464.676 1.73403 -1.08594 0
M  V30 4706 H 464.686 4.06544 -0.344357 0
M  V30 4707 H 463.361 3.88576 -1.48262 0
M  V30 4708 H 461.938 3.7134 0.340721 0
M  V30 4709 N 464.123 0.554532 1.47522 0
M  V30 4710 C 465.086 -0.184174 2.28459 0
M  V30 4711 C 466.086 -0.845195 1.36796 0
M  V30 4712 O 467.276 -0.701467 1.59452 0
M  V30 4713 C 464.408 -1.26903 3.16399 0
M  V30 4714 H 465.601 0.526751 2.95238 0
M  V30 4715 H 463.154 0.311375 1.53167 0
M  V30 4716 H 463.889 -2.01244 2.54306 0
M  V30 4717 H 463.674 -0.799883 3.83854 0
M  V30 4718 H 465.164 -1.78794 3.77389 0
M  V30 4719 N 465.601 -1.54893 0.290851 0
M  V30 4720 C 466.531 -2.26103 -0.583084 0
M  V30 4721 C 467.512 -1.25684 -1.14619 0
M  V30 4722 O 468.697 -1.54436 -1.17741 0
M  V30 4723 C 465.827 -2.99409 -1.75987 0
M  V30 4724 C 464.781 -4.0689 -1.32758 0
M  V30 4725 C 464.107 -4.67856 -2.58872 0
M  V30 4726 C 465.407 -5.20215 -0.46624 0
M  V30 4727 H 467.101 -2.99398 0.0108214 0
M  V30 4728 H 464.647 -1.43998 0.00664468 0
M  V30 4729 H 466.6 -3.47943 -2.37727 0
M  V30 4730 H 465.324 -2.23675 -2.37985 0
M  V30 4731 H 463.983 -3.59191 -0.733299 0
M  V30 4732 H 463.631 -3.88772 -3.19163 0
M  V30 4733 H 463.331 -5.40438 -2.30653 0
M  V30 4734 H 464.855 -5.19147 -3.21433 0
M  V30 4735 H 466.269 -5.64704 -0.989047 0
M  V30 4736 H 464.666 -5.99455 -0.27826 0
M  V30 4737 H 465.736 -4.82198 0.511173 0
M  V30 4738 N 467.08 -0.0183926 -1.57589 0
M  V30 4739 C 468.01 0.965596 -2.12599 0
M  V30 4740 C 468.991 1.34641 -1.0395 0
M  V30 4741 O 470.176 1.42693 -1.31729 0
M  V30 4742 C 467.306 2.25149 -2.64434 0
M  V30 4743 C 466.26 2.01175 -3.77773 0
M  V30 4744 C 465.586 3.35937 -4.15994 0
M  V30 4745 C 466.886 1.35953 -5.04296 0
M  V30 4746 H 468.58 0.507504 -2.95067 0
M  V30 4747 H 466.126 0.242671 -1.41941 0
M  V30 4748 H 468.079 2.94357 -3.01549 0
M  V30 4749 H 466.803 2.73105 -1.79112 0
M  V30 4750 H 465.462 1.34388 -3.4108 0
M  V30 4751 H 465.11 3.81631 -3.27669 0
M  V30 4752 H 464.81 3.20705 -4.92364 0
M  V30 4753 H 466.334 4.0643 -4.55683 0
M  V30 4754 H 467.748 1.95144 -5.39065 0
M  V30 4755 H 466.145 1.31152 -5.85593 0
M  V30 4756 H 467.215 0.331071 -4.83768 0
M  V30 4757 N 468.558 1.5553 0.254621 0
M  V30 4758 C 469.969 1.67518 0.824286 0
M  V30 4759 C 470.32 0.614429 1.86331 0
M  V30 4760 O 469.445 -0.240736 2.15057 0
M  V30 4761 C 470.04 3.03692 1.50189 0
M  V30 4762 C 468.599 3.17646 2.01935 0
M  V30 4763 C 467.746 2.63373 0.867746 0
M  V30 4764 H 470.697 1.58671 0.0305843 0
M  V30 4765 H 470.718 2.97706 2.36962 0
M  V30 4766 H 470.23 3.80874 0.745431 0
M  V30 4767 H 468.331 2.45273 2.80485 0
M  V30 4768 H 468.444 4.24455 2.22204 0
M  V30 4769 H 466.808 2.20999 1.26616 0
M  V30 4770 H 467.591 3.43074 0.124498 0
M  V30 4771 N 470.036 -0.519951 1.48776 0
M  V30 4772 C 471.261 -1.30447 1.6124 0
M  V30 4773 C 471.686 -1.86055 0.276591 0
M  V30 4774 O 471.044 -1.64915 -0.753183 0
M  V30 4775 C 471.092 -2.42406 2.66967 0
M  V30 4776 O 470.196 -3.45728 2.24824 0
M  V30 4777 H 469.537 -0.385924 0.540332 0
M  V30 4778 H 472.067 -0.624572 1.94834 0
M  V30 4779 H 472.077 -2.88447 2.88552 0
M  V30 4780 H 470.752 -2.01294 3.63941 0
M  V30 4781 H 469.329 -3.05737 2.13494 0
M  V30 4782 N 471.514 -1.37532 -0.769588 0
M  V30 4783 C 472.791 -1.23392 -1.51768 0
M  V30 4784 C 473.171 0.17157 -2.10402 0
M  V30 4785 O 472.519 1.17943 -1.95708 0
M  V30 4786 C 472.729 -2.33163 -2.59685 0
M  V30 4787 C 474.077 -2.70809 -3.27028 0
M  V30 4788 O 475.101 -2.32355 -2.69981 0
M  V30 4789 O 473.96 -3.37066 -4.30173 0
M  V30 4790 H 471.054 -0.481617 -0.67229 0
M  V30 4791 H 473.6 -1.49318 -0.806368 0
M  V30 4792 H 472.372 -3.27273 -2.14494 0
M  V30 4793 H 471.995 -2.08713 -3.38415 0
M  V30 4794 N 472.992 0.995999 -1.22138 0
M  V30 4795 C 474.239 1.7351 -1.04406 0
M  V30 4796 C 474.567 1.89884 0.421244 0
M  V30 4797 O 473.822 1.43683 1.32867 0
M  V30 4798 C 474.121 3.14553 -1.6968 0
M  V30 4799 C 473.787 3.18102 -3.19565 0
M  V30 4800 C 472.449 3.18778 -3.60464 0
M  V30 4801 C 474.801 3.14636 -4.15516 0
M  V30 4802 C 472.129 3.13684 -4.95801 0
M  V30 4803 C 474.481 3.11084 -5.50826 0
M  V30 4804 C 473.145 3.10074 -5.91109 0
M  V30 4805 H 472.415 0.634916 -0.38205 0
M  V30 4806 H 475.062 1.1667 -1.51857 0
M  V30 4807 H 473.367 3.74682 -1.14546 0
M  V30 4808 H 475.064 3.70477 -1.53454 0
M  V30 4809 H 471.654 3.18324 -2.86998 0
M  V30 4810 H 475.838 3.13266 -3.84939 0
M  V30 4811 H 471.094 3.11245 -5.26247 0
M  V30 4812 H 475.268 3.07357 -6.24904 0
M  V30 4813 H 472.895 3.05882 -6.95946 0
M  V30 4814 N 474.47 1.03057 1.19235 0
M  V30 4815 C 475.695 0.74757 1.93458 0
M  V30 4816 C 476.12 -0.687648 1.7508 0
M  V30 4817 O 475.478 -1.47499 1.05422 0
M  V30 4818 C 475.526 1.10604 3.43219 0
M  V30 4819 O 474.63 0.225671 4.11782 0
M  V30 4820 H 473.971 0.276047 0.603899 0
M  V30 4821 H 476.501 1.3777 1.51263 0
M  V30 4822 H 476.511 1.06366 3.93891 0
M  V30 4823 H 475.186 2.15165 3.55917 0
M  V30 4824 H 473.763 0.326795 3.71465 0
M  V30 4825 N 475.948 -1.35272 0.808662 0
M  V30 4826 C 477.364 -1.51806 0.492653 0
M  V30 4827 C 477.564 -1.7574 -0.985778 0
M  V30 4828 O 476.62 -1.80003 -1.77074 0
M  V30 4829 C 477.933 -2.69202 1.33981 0
M  V30 4830 C 479.481 -2.8308 1.33547 0
M  V30 4831 C 479.956 -4.03502 2.16679 0
M  V30 4832 N 481.447 -4.10684 2.14227 0
M  V30 4833 C 482.182 -5.02984 2.75308 0
M  V30 4834 N 481.678 -6.00603 3.45323 0
M  V30 4835 N 483.471 -4.95746 2.64938 0
M  V30 4836 H 475.622 -1.17993 1.76611 0
M  V30 4837 H 477.885 -0.577476 0.751814 0
M  V30 4838 H 477.591 -2.581 2.38909 0
M  V30 4839 H 477.465 -3.63854 0.994491 0
M  V30 4840 H 479.852 -2.93631 0.294036 0
M  V30 4841 H 479.933 -1.89278 1.72068 0
M  V30 4842 H 479.577 -3.93711 3.20864 0
M  V30 4843 H 479.507 -4.96489 1.75517 0
M  V30 4844 H 481.998 -3.40802 1.63285 0
M  V30 4845 H 482.311 -6.67633 3.89212 0
M  V30 4846 H 480.656 -6.0077 3.49428 0
M  V30 4847 H 483.847 -4.18439 2.09825 0
M  V30 4848 H 484.02 -5.67487 3.12829 0
M  V30 4849 N 477.426 -0.562348 -1.47226 0
M  V30 4850 C 478.656 -0.0451619 -2.06551 0
M  V30 4851 C 479.064 1.25626 -1.41473 0
M  V30 4852 O 478.407 1.76563 -0.507061 0
M  V30 4853 C 478.469 0.216068 -3.5885 0
M  V30 4854 C 478.133 -0.996691 -4.45999 0
M  V30 4855 C 479.13 -1.90358 -4.83797 0
M  V30 4856 C 476.815 -1.21281 -4.87438 0
M  V30 4857 C 478.809 -3.01023 -5.6184 0
M  V30 4858 C 476.496 -2.32255 -5.65244 0
M  V30 4859 C 477.494 -3.21956 -6.02356 0
M  V30 4860 O 477.182 -4.31005 -6.78594 0
M  V30 4861 H 476.914 -0.0451646 -0.67449 0
M  V30 4862 H 479.468 -0.776842 -1.90143 0
M  V30 4863 H 477.698 1.00212 -3.7349 0
M  V30 4864 H 479.387 0.679264 -4.00176 0
M  V30 4865 H 480.153 -1.74868 -4.52378 0
M  V30 4866 H 476.032 -0.523767 -4.58015 0
M  V30 4867 H 479.576 -3.71064 -5.90726 0
M  V30 4868 H 475.473 -2.47715 -5.96077 0
M  V30 4869 H 476.241 -4.29118 -6.96994 0
M  V30 4870 N 478.904 1.54736 -0.299062 0
M  V30 4871 C 480.151 2.00101 0.310784 0
M  V30 4872 C 480.479 1.18746 1.54045 0
M  V30 4873 O 479.734 0.251198 1.94081 0
M  V30 4874 C 480.033 3.50199 0.713835 0
M  V30 4875 C 479.699 4.48997 -0.413873 0
M  V30 4876 C 478.361 4.7573 -0.723462 0
M  V30 4877 C 480.713 5.07839 -1.17257 0
M  V30 4878 C 478.041 5.5857 -1.79491 0
M  V30 4879 C 480.393 5.91844 -2.23392 0
M  V30 4880 C 479.057 6.16889 -2.54959 0
M  V30 4881 H 478.327 0.732221 0.113724 0
M  V30 4882 H 480.974 1.86888 -0.417756 0
M  V30 4883 H 479.279 3.61012 1.52243 0
M  V30 4884 H 480.976 3.82723 1.19684 0
M  V30 4885 H 477.566 4.28292 -0.162476 0
M  V30 4886 H 481.75 4.87188 -0.946651 0
M  V30 4887 H 477.006 5.76213 -2.04423 0
M  V30 4888 H 481.18 6.36465 -2.8264 0
M  V30 4889 H 478.807 6.80869 -3.38114 0
M  V30 4890 N 480.382 0.0267497 1.57577 0
M  V30 4891 C 481.314 -0.984594 2.06974 0
M  V30 4892 C 482.327 -1.29032 0.992705 0
M  V30 4893 O 483.516 -1.25539 1.26895 0
M  V30 4894 C 480.616 -2.31262 2.47732 0
M  V30 4895 C 479.789 -2.1924 3.78487 0
M  V30 4896 C 478.848 -3.34956 4.05821 0
M  V30 4897 O 477.874 -3.11948 4.76106 0
M  V30 4898 N 479.076 -4.58672 3.55809 0
M  V30 4899 H 481.841 -0.563143 2.94362 0
M  V30 4900 H 479.402 -0.160061 1.61107 0
M  V30 4901 H 481.394 -3.07496 2.63112 0
M  V30 4902 H 479.964 -2.65056 1.65723 0
M  V30 4903 H 479.184 -1.27747 3.72927 0
M  V30 4904 H 480.472 -2.08409 4.64158 0
M  V30 4905 H 479.87 -4.8026 2.98942 0
M  V30 4906 H 478.427 -5.32083 3.76472 0
M  V30 4907 N 481.861 -1.55662 -0.24637 0
M  V30 4908 C 483.091 -1.81312 -0.990438 0
M  V30 4909 C 483.499 -0.600234 -1.79426 0
M  V30 4910 O 482.842 0.440537 -1.78339 0
M  V30 4911 C 482.904 -3.0032 -1.97607 0
M  V30 4912 C 482.568 -4.36322 -1.35912 0
M  V30 4913 C 483.565 -5.14295 -0.761348 0
M  V30 4914 C 481.25 -4.83019 -1.37833 0
M  V30 4915 C 483.244 -6.37114 -0.190998 0
M  V30 4916 C 480.931 -6.05786 -0.804128 0
M  V30 4917 C 481.929 -6.82672 -0.211489 0
M  V30 4918 O 481.617 -8.03121 0.353845 0
M  V30 4919 H 481.349 -0.607233 -0.297058 0
M  V30 4920 H 483.903 -2.0356 -0.274351 0
M  V30 4921 H 482.133 -2.73829 -2.73047 0
M  V30 4922 H 483.822 -3.13057 -2.58361 0
M  V30 4923 H 484.588 -4.79337 -0.739013 0
M  V30 4924 H 480.467 -4.23165 -1.829 0
M  V30 4925 H 484.011 -6.97069 0.272206 0
M  V30 4926 H 479.908 -6.40222 -0.823792 0
M  V30 4927 H 480.676 -8.18131 0.245761 0
M  V30 4928 N 483.339 0.512053 -1.4905 0
M  V30 4929 C 484.249 1.64139 -1.67617 0
M  V30 4930 C 485.265 1.64786 -0.558701 0
M  V30 4931 O 486.441 1.8341 -0.832034 0
M  V30 4932 C 483.506 3.00548 -1.72835 0
M  V30 4933 C 482.567 3.10615 -2.96339 0
M  V30 4934 C 481.8 4.40517 -3.01298 0
M  V30 4935 O 482.023 5.28671 -2.14157 0
M  V30 4936 O 480.957 4.55325 -3.93653 0
M  V30 4937 H 484.783 1.51407 -2.63267 0
M  V30 4938 H 482.368 0.687131 -1.32661 0
M  V30 4939 H 484.25 3.81641 -1.78683 0
M  V30 4940 H 482.925 3.13566 -0.803616 0
M  V30 4941 H 481.832 2.2875 -2.96014 0
M  V30 4942 H 483.165 3.0252 -3.88256 0
M  V30 4943 N 484.817 1.37938 0.762283 0
M  V30 4944 C 486.065 1.33404 1.51815 0
M  V30 4945 C 486.386 -0.0780975 1.94844 0
M  V30 4946 O 485.656 -1.02405 1.67003 0
M  V30 4947 H 484.236 0.490839 0.563104 0
M  V30 4948 H 486.898 1.72527 0.906669 0
M  V30 4949 H 485.994 1.97926 2.41313 0
M  V30 4950 N 486.295 -0.989507 1.22664 0
M  V30 4951 C 487.52 -1.77031 1.08051 0
M  V30 4952 C 487.945 -1.84535 -0.364483 0
M  V30 4953 O 487.303 -1.3003 -1.2634 0
M  V30 4954 C 487.351 -3.18 1.70024 0
M  V30 4955 O 486.455 -4.01161 0.956216 0
M  V30 4956 H 485.796 -0.545008 0.379292 0
M  V30 4957 H 488.326 -1.24277 1.62531 0
M  V30 4958 H 488.336 -3.68616 1.74888 0
M  V30 4959 H 487.011 -3.11853 2.75174 0
M  V30 4960 H 485.588 -3.59687 0.98384 0
M  V30 4961 N 487.773 -1.03688 -1.18687 0
M  V30 4962 C 488.703 -0.645407 -2.24403 0
M  V30 4963 C 489.684 0.349511 -1.66471 0
M  V30 4964 O 490.869 0.230453 -1.92828 0
M  V30 4965 C 487.999 -0.00365337 -3.473 0
M  V30 4966 C 486.953 -0.921705 -4.17958 0
M  V30 4967 C 486.279 -0.144629 -5.34504 0
M  V30 4968 C 487.579 -2.23909 -4.71871 0
M  V30 4969 H 489.273 -1.52917 -2.57404 0
M  V30 4970 H 486.819 -0.736711 -1.23728 0
M  V30 4971 H 488.772 0.281908 -4.20456 0
M  V30 4972 H 487.496 0.914963 -3.13522 0
M  V30 4973 H 486.155 -1.19159 -3.46694 0
M  V30 4974 H 485.803 0.776274 -4.96974 0
M  V30 4975 H 485.503 -0.756206 -5.82714 0
M  V30 4976 H 487.027 0.134004 -6.10453 0
M  V30 4977 H 488.441 -2.0145 -5.36741 0
M  V30 4978 H 486.838 -2.8033 -5.30599 0
M  V30 4979 H 487.908 -2.88822 -3.895 0
M  V30 4980 N 489.251 1.34841 -0.815825 0
M  V30 4981 C 490.479 2.0273 -0.413294 0
M  V30 4982 C 490.894 1.61459 0.978599 0
M  V30 4983 O 490.251 0.816584 1.63212 0
M  V30 4984 C 490.302 3.58058 -0.497676 0
M  V30 4985 O 490.023 3.97832 -1.8347 0
M  V30 4986 C 491.524 4.4321 -0.0891339 0
M  V30 4987 H 488.744 0.649956 -0.166728 0
M  V30 4988 H 491.288 1.72267 -1.10201 0
M  V30 4989 H 489.443 3.87136 0.142886 0
M  V30 4990 H 489.857 4.92501 -1.80396 0
M  V30 4991 H 491.331 5.5164 -0.199274 0
M  V30 4992 H 491.808 4.28432 0.966571 0
M  V30 4993 H 492.414 4.19446 -0.703214 0
M  V30 4994 N 490.729 0.570148 1.46925 0
M  V30 4995 C 491.957 0.0561966 2.06824 0
M  V30 4996 C 492.372 -1.24326 1.42086 0
M  V30 4997 O 491.729 -1.74882 0.521794 0
M  V30 4998 C 491.78 -0.129517 3.61268 0
M  V30 4999 O 491.501 1.1185 4.23581 0
M  V30 5000 C 493.002 -0.679266 4.38065 0
M  V30 5001 H 490.222 0.0517261 0.669003 0
M  V30 5002 H 492.766 0.787243 1.8874 0
M  V30 5003 H 490.921 -0.810739 3.78822 0
M  V30 5004 H 491.335 0.924375 5.1629 0
M  V30 5005 H 492.809 -0.758445 5.46765 0
M  V30 5006 H 493.286 -1.69346 4.05239 0
M  V30 5007 H 493.892 -0.0333237 4.25287 0
M  V30 5008 N 492.207 -1.54576 0.307264 0
M  V30 5009 C 493.618 -1.8579 -0.184121 0
M  V30 5010 C 493.969 -1.22914 -1.52927 0
M  V30 5011 O 493.094 -0.529126 -2.09831 0
M  V30 5012 C 493.689 -3.37081 -0.340862 0
M  V30 5013 C 492.248 -3.68304 -0.776465 0
M  V30 5014 C 491.395 -2.77076 0.111503 0
M  V30 5015 H 494.346 -1.49656 0.528078 0
M  V30 5016 H 494.367 -3.61922 -1.17443 0
M  V30 5017 H 493.879 -3.82815 0.638309 0
M  V30 5018 H 491.98 -3.28092 -1.76596 0
M  V30 5019 H 492.093 -4.75434 -0.591512 0
M  V30 5020 H 490.457 -2.51374 -0.410256 0
M  V30 5021 H 491.24 -3.25632 1.08714 0
M  V30 5022 N 493.685 -0.035106 -1.57561 0
M  V30 5023 C 495.096 0.502885 -1.798 0
M  V30 5024 C 495.447 1.71892 -0.945921 0
M  V30 5025 O 494.572 2.15822 -0.157991 0
M  V30 5026 C 495.167 0.919097 -3.26095 0
M  V30 5027 C 493.726 1.40216 -3.49308 0
M  V30 5028 C 492.873 0.369709 -2.74824 0
M  V30 5029 H 495.824 -0.261102 -1.56537 0
M  V30 5030 H 495.845 1.78308 -3.36135 0
M  V30 5031 H 495.357 0.0338526 -3.88085 0
M  V30 5032 H 493.458 2.30714 -2.92578 0
M  V30 5033 H 493.571 1.40541 -4.58023 0
M  V30 5034 H 491.935 0.839113 -2.40481 0
M  V30 5035 H 492.718 -0.507173 -3.39533 0
M  V30 5036 N 495.163 1.55791 0.238111 0
M  V30 5037 C 496.403 1.79801 0.972163 0
M  V30 5038 C 496.767 0.606027 1.82185 0
M  V30 5039 O 497.968 0.725079 2.58836 0
M  V30 5040 C 496.239 3.08608 1.80266 0
M  V30 5041 S 497.798 3.53872 2.59461 0
M  V30 5042 H 494.616 0.631418 0.326852 0
M  V30 5043 H 497.218 1.94031 0.239212 0
M  V30 5044 H 495.922 3.93419 1.1683 0
M  V30 5045 H 495.453 2.9714 2.57821 0
M  V30 5046 H 497.468 3.15899 3.82651 0
M  V30 5047 N 496.642 -0.504142 1.49319 0
M  V30 5048 C 497.605 -1.5883 1.65244 0
M  V30 5049 C 498.605 -1.52009 0.524386 0
M  V30 5050 O 499.795 -1.55218 0.79077 0
M  V30 5051 C 496.927 -2.98481 1.64687 0
M  V30 5052 H 498.12 -1.4604 2.61939 0
M  V30 5053 H 495.673 -0.728144 1.38303 0
M  V30 5054 H 496.408 -3.16751 0.695644 0
M  V30 5055 H 496.193 -3.0484 2.46607 0
M  V30 5056 H 497.683 -3.77256 1.79075 0
M  V30 5057 N 498.12 -1.38341 -0.754957 0
M  V30 5058 C 499.052 -1.31347 -1.87831 0
M  V30 5059 C 500.065 -0.225955 -1.61224 0
M  V30 5060 O 501.254 -0.48341 -1.7183 0
M  V30 5061 C 498.354 -1.01201 -3.23437 0
M  V30 5062 C 497.527 -2.20834 -3.77559 0
M  V30 5063 C 496.586 -1.87454 -4.91678 0
M  V30 5064 O 495.612 -2.59934 -5.06382 0
M  V30 5065 N 496.814 -0.828682 -5.74555 0
M  V30 5066 H 499.579 -2.28147 -1.94342 0
M  V30 5067 H 497.14 -1.32184 -0.934828 0
M  V30 5068 H 499.132 -0.769249 -3.97322 0
M  V30 5069 H 497.702 -0.132011 -3.12321 0
M  V30 5070 H 496.922 -2.61184 -2.95256 0
M  V30 5071 H 498.21 -3.00678 -4.10451 0
M  V30 5072 H 497.608 -0.227591 -5.65242 0
M  V30 5073 H 496.165 -0.645802 -6.48593 0
M  V30 5074 N 499.598 0.982988 -1.23187 0
M  V30 5075 C 500.846 1.72052 -1.06031 0
M  V30 5076 C 501.167 1.90769 0.404019 0
M  V30 5077 O 500.437 1.47446 1.28982 0
M  V30 5078 H 499.017 0.637499 -0.389363 0
M  V30 5079 H 501.679 1.18338 -1.54862 0
M  V30 5080 H 500.775 2.7111 -1.54615 0
M  V30 5081 N 501.076 1.04316 1.18135 0
M  V30 5082 C 502.322 0.749128 1.88457 0
M  V30 5083 C 502.655 -0.72149 1.803 0
M  V30 5084 O 501.93 -1.52676 1.205 0
M  V30 5085 C 502.213 1.21905 3.38838 0
M  V30 5086 C 502.066 2.75195 3.55792 0
M  V30 5087 C 503.385 0.811085 4.32561 0
M  V30 5088 H 500.504 0.273611 0.684329 0
M  V30 5089 H 503.146 1.29561 1.38975 0
M  V30 5090 H 501.296 0.754137 3.8111 0
M  V30 5091 H 502.968 3.29743 3.22595 0
M  V30 5092 H 501.211 3.14899 2.98364 0
M  V30 5093 H 501.882 3.03135 4.61317 0
M  V30 5094 H 504.358 1.21118 3.98082 0
M  V30 5095 H 503.234 1.16761 5.36338 0
M  V30 5096 H 503.495 -0.285596 4.41177 0
M  V30 5097 N 502.554 -1.34406 0.822964 0
M  V30 5098 C 503.803 -1.97542 0.407458 0
M  V30 5099 C 504.116 -1.65973 -1.035 0
M  V30 5100 O 505.322 -2.22598 -1.55442 0
M  V30 5101 C 503.778 -3.53463 0.677623 0
M  V30 5102 C 503.386 -3.93925 2.1337 0
M  V30 5103 C 505.13 -4.23229 0.328284 0
M  V30 5104 C 503.037 -5.42759 2.34876 0
M  V30 5105 H 501.967 -0.739207 0.148623 0
M  V30 5106 H 504.618 -1.53248 1.00932 0
M  V30 5107 H 503 -3.96 0.00558965 0
M  V30 5108 H 504.174 -3.62494 2.8449 0
M  V30 5109 H 502.489 -3.37097 2.44448 0
M  V30 5110 H 505.086 -5.32659 0.466794 0
M  V30 5111 H 505.429 -4.09899 -0.727224 0
M  V30 5112 H 505.962 -3.86169 0.954896 0
M  V30 5113 H 502.701 -5.61075 3.38932 0
M  V30 5114 H 502.221 -5.75704 1.68299 0
M  V30 5115 H 503.9 -6.0944 2.17236 0
M  V30 5116 N 504.032 -0.577932 -1.46621 0
M  V30 5117 C 505.278 -0.0700937 -2.03279 0
M  V30 5118 C 505.633 1.27376 -1.44198 0
M  V30 5119 O 504.926 1.82097 -0.595911 0
M  V30 5120 C 505.12 0.0590832 -3.57351 0
M  V30 5121 C 504.949 -1.2707 -4.31374 0
M  V30 5122 C 503.719 -1.84357 -4.70469 0
M  V30 5123 C 505.917 -2.19278 -4.65211 0
M  V30 5124 N 503.899 -3.11124 -5.29221 0
M  V30 5125 C 505.27 -3.30631 -5.24484 0
M  V30 5126 C 507.325 -2.19018 -4.47142 0
M  V30 5127 C 506.028 -4.41849 -5.67593 0
M  V30 5128 C 508.054 -3.29262 -4.91264 0
M  V30 5129 C 507.416 -4.39335 -5.50604 0
M  V30 5130 H 503.515 -0.0683127 -0.779011 0
M  V30 5131 H 506.099 -0.76978 -1.78836 0
M  V30 5132 H 504.27 0.727929 -3.81518 0
M  V30 5133 H 506.002 0.57087 -4.00653 0
M  V30 5134 H 502.757 -1.37906 -4.53077 0
M  V30 5135 H 503.181 -3.75794 -5.63123 0
M  V30 5136 H 507.823 -1.35191 -4.00604 0
M  V30 5137 H 505.541 -5.26421 -6.13112 0
M  V30 5138 H 509.127 -3.30172 -4.79038 0
M  V30 5139 H 508.007 -5.23233 -5.84121 0
M  V30 5140 N 505.51 1.54411 -0.315457 0
M  V30 5141 C 506.738 2.04833 0.291738 0
M  V30 5142 C 507.153 1.19203 1.46411 0
M  V30 5143 O 506.51 0.220867 1.81159 0
M  V30 5144 C 506.561 3.53969 0.73404 0
M  V30 5145 O 506.282 4.36346 -0.391682 0
M  V30 5146 C 507.783 4.2045 1.40489 0
M  V30 5147 H 505.003 0.668195 0.0612947 0
M  V30 5148 H 507.547 1.99276 -0.45929 0
M  V30 5149 H 505.702 3.5984 1.43506 0
M  V30 5150 H 506.116 5.24481 -0.0447088 0
M  V30 5151 H 507.59 5.26278 1.66539 0
M  V30 5152 H 508.067 3.71067 2.3496 0
M  V30 5153 H 508.673 4.18694 0.746662 0
M  V30 5154 N 506.988 0.0434614 1.5754 0
M  V30 5155 C 508.234 -0.632971 1.92669 0
M  V30 5156 C 508.567 -1.70947 0.921446 0
M  V30 5157 O 507.842 -1.94426 -0.0537202 0
M  V30 5158 C 508.125 -1.23619 3.38216 0
M  V30 5159 C 507.978 -0.168274 4.49485 0
M  V30 5160 C 509.297 -2.15008 3.84005 0
M  V30 5161 H 506.416 -0.228629 0.700641 0
M  V30 5162 H 509.058 0.103651 1.89717 0
M  V30 5163 H 507.208 -1.864 3.40863 0
M  V30 5164 H 508.88 0.463196 4.58969 0
M  V30 5165 H 507.123 0.504581 4.30855 0
M  V30 5166 H 507.794 -0.630218 5.48391 0
M  V30 5167 H 510.27 -1.62198 3.83185 0
M  V30 5168 H 509.146 -2.54161 4.86511 0
M  V30 5169 H 509.407 -3.04707 3.20322 0
M  V30 5170 N 508.466 -1.55915 -0.229846 0
M  V30 5171 C 509.713 -1.78542 -0.955452 0
M  V30 5172 C 510.041 -0.610785 -1.84661 0
M  V30 5173 O 509.296 0.405213 -1.91459 0
M  V30 5174 C 509.595 -3.06845 -1.8325 0
M  V30 5175 C 509.261 -4.37395 -1.09528 0
M  V30 5176 C 507.923 -4.72868 -0.891598 0
M  V30 5177 C 510.275 -5.18029 -0.574046 0
M  V30 5178 C 507.603 -5.86496 -0.154655 0
M  V30 5179 C 509.955 -6.32423 0.149513 0
M  V30 5180 C 508.619 -6.66504 0.364519 0
M  V30 5181 H 507.889 -0.653333 -0.349625 0
M  V30 5182 H 510.536 -1.90183 -0.224235 0
M  V30 5183 H 508.841 -2.90291 -2.63132 0
M  V30 5184 H 510.538 -3.21553 -2.39592 0
M  V30 5185 H 507.128 -4.09538 -1.26399 0
M  V30 5186 H 511.312 -4.91066 -0.718899 0
M  V30 5187 H 506.568 -6.11396 0.0222356 0
M  V30 5188 H 510.742 -6.94137 0.560947 0
M  V30 5189 H 508.369 -7.54397 0.937495 0
M  V30 5190 N 509.944 0.496216 -1.49584 0
M  V30 5191 C 510.892 1.61805 -1.67098 0
M  V30 5192 C 511.886 1.60667 -0.536877 0
M  V30 5193 O 513.092 1.65118 -0.716654 0
M  V30 5194 H 509.467 0.53646 -0.526986 0
M  V30 5195 H 511.438 1.44187 -2.61252 0
M  V30 5196 C 510.187 2.99912 -1.75921 0
M  V30 5197 H 509.51 3.01496 -2.62565 0
M  V30 5198 H 510.95 3.77931 -1.92209 0
M  V30 5199 C 509.409 3.33092 -0.505088 0
M  V30 5200 O 509.939 4.00019 0.367085 0
M  V30 5201 N 508.145 2.88278 -0.366599 0
M  V30 5202 H 507.692 2.33989 -1.07735 0
M  V30 5203 H 507.65 3.10846 0.47142 0
M  V30 5204 N 511.423 1.38739 0.74761 0
M  V30 5205 C 512.355 1.32341 1.87132 0
M  V30 5206 C 513.368 0.234502 1.61102 0
M  V30 5207 O 514.557 0.492516 1.71571 0
M  V30 5208 C 511.657 1.02915 3.22896 0
M  V30 5209 C 510.83 2.22834 3.76383 0
M  V30 5210 C 509.889 1.90059 4.90677 0
M  V30 5211 O 508.915 2.62615 5.04997 0
M  V30 5212 N 510.117 0.859141 5.74107 0
M  V30 5213 H 512.882 2.29175 1.93129 0
M  V30 5214 H 510.443 1.32678 0.927805 0
M  V30 5215 H 512.435 0.79031 3.96908 0
M  V30 5216 H 511.005 0.148572 3.12247 0
M  V30 5217 H 510.225 2.62747 2.93867 0
M  V30 5218 H 511.513 3.02851 4.08851 0
M  V30 5219 H 510.911 0.257564 5.65113 0
M  V30 5220 H 509.468 0.680189 6.48241 0
M  V30 5221 N 512.901 -0.976442 1.23707 0
M  V30 5222 C 514.129 -1.75341 1.09833 0
M  V30 5223 C 514.544 -1.8553 -0.349885 0
M  V30 5224 O 513.901 -1.33732 -1.24185 0
M  V30 5225 C 513.952 -3.17833 1.72233 0
M  V30 5226 O 513.673 -3.08167 3.11391 0
M  V30 5227 C 515.174 -4.11906 1.63853 0
M  V30 5228 H 512.394 -0.550137 0.384175 0
M  V30 5229 H 514.938 -1.2265 1.63638 0
M  V30 5230 H 513.093 -3.67538 1.22452 0
M  V30 5231 H 513.507 -3.97897 3.41729 0
M  V30 5232 H 514.981 -5.09579 2.12211 0
M  V30 5233 H 515.458 -4.35109 0.598092 0
M  V30 5234 H 516.064 -3.68107 2.13019 0
M  V30 5235 N 514.379 -1.04941 -1.1758 0
M  V30 5236 C 515.625 -0.759112 -1.88057 0
M  V30 5237 C 515.958 0.711918 -1.8068 0
M  V30 5238 O 515.233 1.52035 -1.21308 0
M  V30 5239 C 515.516 -1.237 -3.38187 0
M  V30 5240 C 515.369 -2.77078 -3.54327 0
M  V30 5241 C 516.688 -0.834014 -4.32125 0
M  V30 5242 H 513.807 -0.277237 -0.682868 0
M  V30 5243 H 516.449 -1.30296 -1.38286 0
M  V30 5244 H 514.599 -0.774337 -3.80705 0
M  V30 5245 H 516.271 -3.31449 -3.20842 0
M  V30 5246 H 514.514 -3.16477 -2.96689 0
M  V30 5247 H 515.185 -3.05577 -4.59703 0
M  V30 5248 H 517.661 -1.23228 -3.97434 0
M  V30 5249 H 516.537 -1.19603 -5.35711 0
M  V30 5250 H 516.798 0.262195 -4.41322 0
M  V30 5251 N 515.857 1.33968 -0.830081 0
M  V30 5252 C 516.79 2.27303 -0.202182 0
M  V30 5253 C 517.768 1.49235 0.645581 0
M  V30 5254 O 518.952 1.78433 0.607762 0
M  V30 5255 C 516.079 3.31025 0.716932 0
M  V30 5256 C 515.125 4.26466 -0.0542271 0
M  V30 5257 S 515.958 5.16707 -1.40622 0
M  V30 5258 C 517.114 6.23962 -0.492167 0
M  V30 5259 H 517.347 2.8021 -0.99346 0
M  V30 5260 H 514.88 1.41124 -0.626359 0
M  V30 5261 H 516.838 3.91271 1.24165 0
M  V30 5262 H 515.499 2.76951 1.4818 0
M  V30 5263 H 514.692 4.99858 0.644785 0
M  V30 5264 H 514.294 3.7051 -0.509722 0
M  V30 5265 H 516.586 6.76774 0.31347 0
M  V30 5266 H 517.529 6.97927 -1.19599 0
M  V30 5267 H 517.937 5.64447 -0.0774176 0
M  V30 5268 N 517.335 0.585699 1.46312 0
M  V30 5269 C 518.265 -0.133556 2.33118 0
M  V30 5270 C 519.246 -0.880707 1.45525 0
M  V30 5271 O 520.431 -0.855579 1.74337 0
M  V30 5272 C 517.561 -1.14585 3.27853 0
M  V30 5273 C 516.515 -0.513341 4.2491 0
M  V30 5274 C 515.841 -1.63231 5.09175 0
M  V30 5275 C 517.141 0.551413 5.19381 0
M  V30 5276 H 518.835 0.59121 2.93505 0
M  V30 5277 H 516.381 0.285761 1.41136 0
M  V30 5278 H 518.334 -1.65741 3.87438 0
M  V30 5279 H 517.058 -1.90093 2.65579 0
M  V30 5280 H 515.717 -0.0228349 3.66593 0
M  V30 5281 H 515.365 -2.37713 4.43285 0
M  V30 5282 H 515.065 -1.21473 5.74907 0
M  V30 5283 H 516.589 -2.14658 5.71624 0
M  V30 5284 H 518.003 0.124804 5.73164 0
M  V30 5285 H 516.4 0.889486 5.93471 0
M  V30 5286 H 517.47 1.43655 4.63132 0
M  V30 5287 N 518.813 -1.54241 0.323641 0
M  V30 5288 C 520.038 -2.05452 -0.283605 0
M  V30 5289 C 520.463 -1.19823 -1.44997 0
M  V30 5290 O 519.821 -0.207358 -1.8011 0
M  V30 5291 C 519.869 -3.53823 -0.695795 0
M  V30 5292 O 518.973 -3.71134 -1.79815 0
M  V30 5293 H 518.314 -0.662024 -0.0511917 0
M  V30 5294 H 520.844 -1.99079 0.472073 0
M  V30 5295 H 520.854 -3.96094 -0.978434 0
M  V30 5296 H 519.529 -4.15602 0.157287 0
M  V30 5297 H 518.106 -3.40768 -1.51431 0
M  V30 5298 N 520.291 -0.0518155 -1.57515 0
M  V30 5299 C 521.254 0.907547 -2.10467 0
M  V30 5300 C 522.254 1.23947 -1.02439 0
M  V30 5301 O 523.444 1.17604 -1.2851 0
M  V30 5302 C 520.576 2.21723 -2.58944 0
M  V30 5303 H 521.769 0.44851 -2.96527 0
M  V30 5304 H 519.322 0.196598 -1.55059 0
M  V30 5305 H 520.057 2.72206 -1.76279 0
M  V30 5306 H 519.842 1.98935 -3.37886 0
M  V30 5307 H 521.332 2.90441 -3.00056 0
M  V30 5308 N 521.769 1.56035 0.221574 0
M  V30 5309 C 522.716 1.92413 1.27459 0
M  V30 5310 C 523.686 0.781323 1.46576 0
M  V30 5311 O 524.871 1.03721 1.60145 0
M  V30 5312 C 522.011 2.24617 2.61995 0
M  V30 5313 C 521.124 3.51831 2.50677 0
M  V30 5314 C 520.259 3.73482 3.77736 0
M  V30 5315 C 519.298 4.94211 3.6114 0
M  V30 5316 N 518.435 5.12252 4.80148 0
M  V30 5317 H 523.275 2.82203 0.957355 0
M  V30 5318 H 520.812 1.39676 0.461415 0
M  V30 5319 H 522.77 2.41298 3.40339 0
M  V30 5320 H 521.4 1.38 2.91815 0
M  V30 5321 H 520.452 3.43343 1.63767 0
M  V30 5322 H 521.764 4.40328 2.34334 0
M  V30 5323 H 520.918 3.9026 4.64523 0
M  V30 5324 H 519.657 2.83266 3.97003 0
M  V30 5325 H 518.662 4.77384 2.72736 0
M  V30 5326 H 519.887 5.85912 3.43343 0
M  V30 5327 H 517.833 4.24978 4.99729 0
M  V30 5328 H 517.75 5.94881 4.66532 0
M  V30 5329 H 519.018 5.33465 5.68362 0
M  V30 5330 N 523.247 -0.488276 1.49845 0
M  V30 5331 C 524.179 -1.60539 1.63584 0
M  V30 5332 C 525.192 -1.5434 0.517972 0
M  V30 5333 O 526.381 -1.60041 0.790516 0
M  V30 5334 C 523.481 -2.99374 1.58835 0
M  V30 5335 C 522.654 -3.30624 2.86368 0
M  V30 5336 C 521.713 -4.4893 2.74496 0
M  V30 5337 O 520.739 -4.50085 3.48443 0
M  V30 5338 N 521.941 -5.49591 1.86894 0
M  V30 5339 H 524.706 -1.49176 2.59936 0
M  V30 5340 H 522.267 -0.67639 1.47094 0
M  V30 5341 H 524.259 -3.76459 1.48529 0
M  V30 5342 H 522.829 -3.04595 0.702892 0
M  V30 5343 H 522.049 -2.42314 3.1093 0
M  V30 5344 H 523.337 -3.48305 3.70892 0
M  V30 5345 H 522.735 -5.51467 1.26097 0
M  V30 5346 H 521.292 -6.25728 1.82503 0
M  V30 5347 N 524.725 -1.39134 -0.740242 0
M  V30 5348 C 525.655 -1.40165 -1.86751 0
M  V30 5349 C 526.636 -0.265708 -1.68012 0
M  V30 5350 O 527.821 -0.47076 -1.88408 0
M  V30 5351 C 524.951 -1.2392 -3.2444 0
M  V30 5352 C 523.905 -2.34858 -3.57807 0
M  V30 5353 C 523.231 -2.03707 -4.94376 0
M  V30 5354 C 524.531 -3.77159 -3.61315 0
M  V30 5355 H 526.225 -2.345 -1.86145 0
M  V30 5356 H 523.771 -1.12875 -0.89416 0
M  V30 5357 H 525.724 -1.23263 -4.02969 0
M  V30 5358 H 524.448 -0.26051 -3.25559 0
M  V30 5359 H 523.107 -2.34723 -2.81604 0
M  V30 5360 H 522.755 -1.04289 -4.9207 0
M  V30 5361 H 522.455 -2.78016 -5.17669 0
M  V30 5362 H 523.979 -2.04691 -5.75268 0
M  V30 5363 H 525.393 -3.79252 -4.29931 0
M  V30 5364 H 523.79 -4.50784 -3.96124 0
M  V30 5365 H 524.86 -4.08513 -2.61238 0
M  V30 5366 N 526.204 0.969867 -1.24223 0
M  V30 5367 C 527.154 2.04913 -0.999732 0
M  V30 5368 C 528.138 1.60795 0.0580636 0
M  V30 5369 O 529.33 1.76317 -0.155392 0
M  V30 5370 C 526.459 3.37942 -0.604154 0
M  V30 5371 C 525.545 3.88628 -1.69791 0
M  V30 5372 N 525.936 4.12274 -2.93025 0
M  V30 5373 C 524.234 4.17268 -1.57492 0
M  V30 5374 C 524.935 4.53808 -3.63914 0
M  V30 5375 N 523.911 4.58855 -2.91468 0
M  V30 5376 H 527.713 2.21168 -1.93551 0
M  V30 5377 H 525.227 1.15349 -1.14317 0
M  V30 5378 H 527.224 4.14863 -0.411665 0
M  V30 5379 H 525.884 3.23075 0.324465 0
M  V30 5380 H 526.895 3.99789 -3.29225 0
M  V30 5381 H 523.572 4.11346 -0.714175 0
M  V30 5382 H 524.962 4.80534 -4.69614 0
M  V30 5383 N 527.682 1.05563 1.17022 0
M  V30 5384 C 528.91 0.78845 1.91288 0
M  V30 5385 C 529.325 -0.656318 1.77025 0
M  V30 5386 O 528.682 -1.44869 1.10992 0
M  V30 5387 C 528.733 1.16444 3.42232 0
M  V30 5388 O 528.454 2.5525 3.5606 0
M  V30 5389 C 529.955 0.923937 4.33565 0
M  V30 5390 H 527.175 0.286389 0.606813 0
M  V30 5391 H 529.719 1.4073 1.48375 0
M  V30 5392 H 527.874 0.590266 3.82877 0
M  V30 5393 H 528.288 2.70097 4.49609 0
M  V30 5394 H 529.762 1.23672 5.37968 0
M  V30 5395 H 530.239 -0.140688 4.38975 0
M  V30 5396 H 530.845 1.48214 3.98639 0
M  V30 5397 N 529.16 -1.33526 0.837174 0
M  V30 5398 C 530.09 -2.31764 0.284206 0
M  V30 5399 C 531.071 -1.58896 -0.607142 0
M  V30 5400 O 532.256 -1.86798 -0.531047 0
M  V30 5401 C 529.386 -3.43029 -0.542962 0
M  V30 5402 C 528.34 -4.27255 0.252451 0
M  V30 5403 C 527.666 -5.3012 -0.69836 0
M  V30 5404 C 528.966 -5.01229 1.46858 0
M  V30 5405 H 530.66 -2.78262 1.10502 0
M  V30 5406 H 528.206 -1.3378 0.532812 0
M  V30 5407 H 530.159 -4.1078 -0.940096 0
M  V30 5408 H 528.883 -2.95216 -1.39697 0
M  V30 5409 H 527.542 -3.61127 0.631124 0
M  V30 5410 H 527.19 -4.78564 -1.54872 0
M  V30 5411 H 526.89 -5.87353 -0.170274 0
M  V30 5412 H 528.414 -6.00737 -1.09305 0
M  V30 5413 H 529.828 -5.61756 1.14469 0
M  V30 5414 H 528.225 -5.68104 1.93333 0
M  V30 5415 H 529.295 -4.301 2.23924 0
M  V30 5416 N 530.638 -0.59345 -1.46 0
M  V30 5417 C 531.863 -0.0872365 -2.07216 0
M  V30 5418 C 532.288 1.2131 -1.43755 0
M  V30 5419 O 531.646 1.73528 -0.525152 0
M  V30 5420 C 531.694 0.0538197 -3.6056 0
M  V30 5421 O 530.798 1.10765 -3.97247 0
M  V30 5422 H 530.139 -0.0676598 -0.660544 0
M  V30 5423 H 532.669 -0.819445 -1.87473 0
M  V30 5424 H 532.679 0.256567 -4.07193 0
M  V30 5425 H 531.354 -0.895739 -4.0614 0
M  V30 5426 H 529.931 0.882501 -3.62307 0
M  V30 5427 N 532.116 1.54067 -0.331816 0
M  V30 5428 C 533.393 1.92915 0.322955 0
M  V30 5429 C 533.773 1.26225 1.69205 0
M  V30 5430 O 533.121 0.408919 2.24811 0
M  V30 5431 C 533.331 3.46619 0.406946 0
M  V30 5432 C 534.679 4.19386 0.663339 0
M  V30 5433 O 535.703 3.5282 0.489536 0
M  V30 5434 O 534.562 5.37288 0.999193 0
M  V30 5435 H 531.656 0.805808 0.186016 0
M  V30 5436 H 534.202 1.65342 -0.382135 0
M  V30 5437 H 532.974 3.87354 -0.554287 0
M  V30 5438 H 532.597 3.80324 1.15929 0
M  V30 5439 N 533.594 0.0601682 1.57485 0
M  V30 5440 C 534.822 -0.620937 1.97363 0
M  V30 5441 C 535.237 -1.63846 0.938082 0
M  V30 5442 O 534.594 -1.82339 -0.0766578 0
M  V30 5443 C 534.645 -1.29987 3.37321 0
M  V30 5444 O 534.366 -0.323081 4.36907 0
M  V30 5445 C 535.867 -2.06989 3.92008 0
M  V30 5446 H 533.087 -0.169135 0.649334 0
M  V30 5447 H 535.631 0.129132 2.04092 0
M  V30 5448 H 533.786 -2.0011 3.31715 0
M  V30 5449 H 534.2 -0.808754 5.18227 0
M  V30 5450 H 535.674 -2.49901 4.92192 0
M  V30 5451 H 536.151 -2.92173 3.2792 0
M  V30 5452 H 536.757 -1.41757 4.0098 0
M  V30 5453 N 535.072 -1.5615 -0.213296 0
M  V30 5454 C 536.002 -1.96109 -1.26742 0
M  V30 5455 C 536.983 -0.830448 -1.48451 0
M  V30 5456 O 538.168 -1.09339 -1.60495 0
M  V30 5457 C 535.298 -2.28492 -2.61551 0
M  V30 5458 C 534.252 -3.44124 -2.54485 0
M  V30 5459 C 533.578 -3.62134 -3.93399 0
M  V30 5460 C 534.878 -4.78855 -2.08556 0
M  V30 5461 H 536.572 -2.84412 -0.935434 0
M  V30 5462 H 534.118 -1.36836 -0.44854 0
M  V30 5463 H 536.071 -2.55039 -3.3546 0
M  V30 5464 H 534.795 -1.37052 -2.96453 0
M  V30 5465 H 533.454 -3.17639 -1.83033 0
M  V30 5466 H 533.102 -2.68055 -4.25623 0
M  V30 5467 H 532.802 -4.39913 -3.89551 0
M  V30 5468 H 534.326 -3.91038 -4.68958 0
M  V30 5469 H 535.74 -5.04552 -2.72213 0
M  V30 5470 H 534.137 -5.59975 -2.1575 0
M  V30 5471 H 535.207 -4.73657 -1.03811 0
M  V30 5472 N 536.55 0.480323 -1.50102 0
M  V30 5473 C 537.796 1.23208 -1.61837 0
M  V30 5474 C 538.151 1.89878 -0.310509 0
M  V30 5475 O 537.444 1.7871 0.690897 0
M  V30 5476 C 537.638 2.30708 -2.72963 0
M  V30 5477 C 537.467 1.74583 -4.14428 0
M  V30 5478 C 536.237 1.54964 -4.80951 0
M  V30 5479 C 538.435 1.24597 -4.98979 0
M  V30 5480 N 536.417 0.939855 -6.06663 0
M  V30 5481 C 537.788 0.758834 -6.15339 0
M  V30 5482 C 539.843 1.13365 -4.84822 0
M  V30 5483 C 538.546 0.17046 -7.19098 0
M  V30 5484 C 540.572 0.559221 -5.8875 0
M  V30 5485 C 539.934 0.082415 -7.04352 0
M  V30 5486 H 536.033 0.440065 -0.646426 0
M  V30 5487 H 538.617 0.535632 -1.87187 0
M  V30 5488 H 536.788 2.9779 -2.4935 0
M  V30 5489 H 538.52 2.97738 -2.74106 0
M  V30 5490 H 535.275 1.79926 -4.38091 0
M  V30 5491 H 535.699 0.653641 -6.73837 0
M  V30 5492 H 540.341 1.48823 -3.95742 0
M  V30 5493 H 538.059 -0.196347 -8.07861 0
M  V30 5494 H 541.645 0.474804 -5.79859 0
M  V30 5495 H 540.525 -0.355119 -7.83396 0
M  V30 5496 N 538.028 1.39524 0.732853 0
M  V30 5497 C 539.276 1.36594 1.48951 0
M  V30 5498 C 539.597 -0.0367507 1.94965 0
M  V30 5499 O 538.867 -0.988391 1.69138 0
M  V30 5500 H 537.447 0.502673 0.552566 0
M  V30 5501 H 540.109 1.74411 0.869869 0
M  V30 5502 H 539.205 2.03 2.3706 0
M  V30 5503 N 539.506 -0.963266 1.24736 0
M  V30 5504 C 540.917 -1.52145 1.08207 0
M  V30 5505 C 541.268 -1.93142 -0.345061 0
M  V30 5506 O 540.393 -1.77769 -1.23399 0
M  V30 5507 C 540.988 -2.76486 1.95808 0
M  V30 5508 C 539.547 -3.28646 1.8349 0
M  V30 5509 C 538.694 -2.01529 1.90476 0
M  V30 5510 H 541.645 -0.781083 1.38148 0
M  V30 5511 H 541.666 -3.49986 1.49297 0
M  V30 5512 H 541.178 -2.46617 2.99669 0
M  V30 5513 H 539.279 -3.63357 0.824787 0
M  V30 5514 H 539.392 -3.97246 2.67829 0
M  V30 5515 H 537.756 -2.16442 1.34258 0
M  V30 5516 H 538.539 -1.7402 2.95926 0
M  V30 5517 N 540.985 -1.06182 -1.16461 0
M  V30 5518 C 542.233 -0.776326 -1.86595 0
M  V30 5519 C 542.554 0.69921 -1.82033 0
M  V30 5520 O 541.824 1.50579 -1.2531 0
M  V30 5521 H 540.404 -0.284184 -0.690832 0
M  V30 5522 H 543.066 -1.34308 -1.41235 0
M  V30 5523 H 542.162 -1.10022 -2.92064 0
M  V30 5524 N 542.463 1.3308 -0.844243 0
M  V30 5525 C 543.74 1.92178 -0.364261 0
M  V30 5526 C 544.12 1.76961 1.15101 0
M  V30 5527 O 543.468 1.16128 1.9679 0
M  V30 5528 C 543.678 3.393 -0.817106 0
M  V30 5529 C 545.026 4.16444 -0.828236 0
M  V30 5530 O 546.05 3.47975 -0.761062 0
M  V30 5531 O 544.909 5.38685 -0.920926 0
M  V30 5532 H 542.003 0.820411 -0.10419 0
M  V30 5533 H 544.549 1.41918 -0.930453 0
M  V30 5534 H 543.321 3.44272 -1.85991 0
M  V30 5535 H 542.944 3.96947 -0.227785 0
M  V30 5536 N 543.941 0.601185 1.45683 0
M  V30 5537 C 545.166 0.0982245 2.07167 0
M  V30 5538 C 545.591 -1.20546 1.44396 0
M  V30 5539 O 544.949 -1.73247 0.534347 0
M  V30 5540 C 544.997 -0.0346976 3.60583 0
M  V30 5541 O 544.101 -1.08657 3.97828 0
M  V30 5542 H 543.442 0.0711618 0.660176 0
M  V30 5543 H 545.972 0.829376 1.87036 0
M  V30 5544 H 545.982 -0.234969 4.07323 0
M  V30 5545 H 544.657 0.917265 4.05659 0
M  V30 5546 H 543.234 -0.863275 3.6277 0
M  V30 5547 N 545.419 -1.53889 0.339982 0
M  V30 5548 C 546.835 -1.59595 -0.0120752 0
M  V30 5549 C 547.035 -1.35605 -1.49042 0
M  V30 5550 O 546.091 -1.14856 -2.24865 0
M  V30 5551 C 547.404 -2.9774 0.420898 0
M  V30 5552 C 548.952 -3.1077 0.37294 0
M  V30 5553 C 549.427 -4.51286 0.781327 0
M  V30 5554 N 550.918 -4.57325 0.735374 0
M  V30 5555 C 551.653 -5.64194 1.02336 0
M  V30 5556 N 551.149 -6.7893 1.37933 0
M  V30 5557 N 552.942 -5.54051 0.947838 0
M  V30 5558 H 545.093 -1.67738 1.30299 0
M  V30 5559 H 547.356 -0.785385 0.530918 0
M  V30 5560 H 547.062 -3.20349 1.45152 0
M  V30 5561 H 546.936 -3.76639 -0.205721 0
M  V30 5562 H 549.323 -2.87886 -0.648505 0
M  V30 5563 H 549.404 -2.33939 1.03472 0
M  V30 5564 H 549.048 -4.74905 1.80077 0
M  V30 5565 H 548.978 -5.26511 0.0970679 0
M  V30 5566 H 551.469 -3.74931 0.472773 0
M  V30 5567 H 551.782 -7.56392 1.58402 0
M  V30 5568 H 550.127 -6.80386 1.41774 0
M  V30 5569 H 553.318 -4.63293 0.669115 0
M  V30 5570 H 553.491 -6.37246 1.17563 0
M  V30 5571 N 546.897 -0.0685191 -1.57451 0
M  V30 5572 C 547.827 0.89747 -2.15564 0
M  V30 5573 C 548.808 1.31266 -1.08181 0
M  V30 5574 O 549.993 1.38429 -1.36202 0
M  V30 5575 C 547.123 2.16623 -2.71463 0
M  V30 5576 C 546.077 1.89054 -3.83982 0
M  V30 5577 C 545.403 3.22532 -4.26471 0
M  V30 5578 C 546.703 1.1984 -5.08366 0
M  V30 5579 H 548.397 0.413373 -2.96533 0
M  V30 5580 H 545.943 0.197391 -1.42641 0
M  V30 5581 H 547.896 2.84614 -3.10761 0
M  V30 5582 H 546.62 2.67269 -1.8771 0
M  V30 5583 H 545.279 1.23469 -3.45183 0
M  V30 5584 H 544.927 3.71013 -3.39644 0
M  V30 5585 H 544.627 3.04879 -5.02317 0
M  V30 5586 H 546.151 3.91727 -4.68383 0
M  V30 5587 H 547.565 1.77896 -5.45001 0
M  V30 5588 H 545.962 1.12456 -5.89469 0
M  V30 5589 H 547.032 0.176996 -4.84577 0
M  V30 5590 N 548.375 1.56261 0.205012 0
M  V30 5591 C 549.307 1.90266 1.27795 0
M  V30 5592 C 550.32 0.792397 1.42214 0
M  V30 5593 O 551.509 1.07077 1.42817 0
M  V30 5594 C 548.609 2.11074 2.65143 0
M  V30 5595 C 547.782 3.42176 2.7246 0
M  V30 5596 C 546.841 3.52216 3.90936 0
M  V30 5597 O 545.867 4.25119 3.78501 0
M  V30 5598 N 547.069 2.84573 5.05963 0
M  V30 5599 H 549.834 2.82896 0.989434 0
M  V30 5600 H 547.395 1.57008 0.394981 0
M  V30 5601 H 549.387 2.15089 3.4281 0
M  V30 5602 H 547.957 1.2499 2.86524 0
M  V30 5603 H 547.177 3.50116 1.81142 0
M  V30 5604 H 548.465 4.28509 2.74331 0
M  V30 5605 H 547.863 2.25152 5.18963 0
M  V30 5606 H 546.42 2.94228 5.81613 0
M  V30 5607 N 549.853 -0.472356 1.50355 0
M  V30 5608 C 550.783 -1.57859 1.72055 0
M  V30 5609 C 551.764 -1.60283 0.569505 0
M  V30 5610 O 552.949 -1.7657 0.808503 0
M  V30 5611 C 550.079 -2.96191 1.81351 0
M  V30 5612 C 549.033 -3.08633 2.96529 0
M  V30 5613 C 548.359 -4.486 2.90968 0
M  V30 5614 C 549.659 -2.85969 4.37057 0
M  V30 5615 H 551.353 -1.39953 2.64676 0
M  V30 5616 H 548.899 -0.671846 1.27367 0
M  V30 5617 H 550.852 -3.73507 1.95117 0
M  V30 5618 H 549.576 -3.15251 0.853502 0
M  V30 5619 H 548.235 -2.33749 2.82413 0
M  V30 5620 H 547.883 -4.64577 1.92815 0
M  V30 5621 H 547.583 -4.57861 3.68289 0
M  V30 5622 H 549.107 -5.27938 3.0678 0
M  V30 5623 H 550.521 -3.53036 4.51706 0
M  V30 5624 H 548.918 -3.06677 5.15819 0
M  V30 5625 H 549.988 -1.81838 4.49514 0
M  V30 5626 N 551.331 -1.39911 -0.725443 0
M  V30 5627 C 552.279 -1.39552 -1.86086 0
M  V30 5628 C 553.273 -0.277334 -1.67114 0
M  V30 5629 O 554.479 -0.447865 -1.74339 0
M  V30 5630 H 550.854 -0.435993 -0.612711 0
M  V30 5631 H 552.825 -2.35305 -1.83505 0
M  V30 5632 C 551.574 -1.26529 -3.2386 0
M  V30 5633 H 550.897 -2.11845 -3.3906 0
M  V30 5634 H 552.337 -1.30336 -4.03471 0
M  V30 5635 C 550.796 0.0254168 -3.3689 0
M  V30 5636 O 551.326 0.992048 -3.89257 0
M  V30 5637 N 549.532 0.0916528 -2.90455 0
M  V30 5638 H 549.079 -0.695675 -2.48028 0
M  V30 5639 H 549.037 0.954745 -2.99553 0
M  V30 5640 N 552.809 0.956637 -1.25245 0
M  V30 5641 C 554.056 1.701 -1.09874 0
M  V30 5642 C 554.384 1.91128 0.36062 0
M  V30 5643 O 553.639 1.47837 1.28229 0
M  V30 5644 C 553.938 3.08996 -1.79601 0
M  V30 5645 C 553.604 3.07774 -3.29523 0
M  V30 5646 C 552.266 3.07149 -3.70423 0
M  V30 5647 C 554.618 3.01257 -4.25316 0
M  V30 5648 C 551.946 2.97752 -5.0553 0
M  V30 5649 C 554.298 2.93403 -5.60444 0
M  V30 5650 C 552.962 2.91111 -6.00675 0
M  V30 5651 H 552.232 0.62244 -0.402056 0
M  V30 5652 H 554.879 1.1178 -1.55491 0
M  V30 5653 H 553.184 3.70848 -1.26408 0
M  V30 5654 H 554.881 3.65407 -1.65162 0
M  V30 5655 H 551.471 3.09032 -2.9698 0
M  V30 5656 H 555.655 3.00861 -3.9471 0
M  V30 5657 H 550.911 2.94346 -5.35883 0
M  V30 5658 H 555.085 2.87321 -6.34366 0
M  V30 5659 H 552.712 2.83586 -7.05325 0
M  V30 5660 N 554.287 1.06798 1.15896 0
M  V30 5661 C 555.703 0.792423 1.38538 0
M  V30 5662 C 555.903 -0.60592 1.92174 0
M  V30 5663 O 554.959 -1.36561 2.12385 0
M  V30 5664 C 556.272 1.86157 2.36149 0
M  V30 5665 C 557.82 1.88567 2.49823 0
M  V30 5666 C 558.295 2.9455 3.5072 0
M  V30 5667 N 559.786 2.93616 3.58251 0
M  V30 5668 C 560.521 3.72267 4.36125 0
M  V30 5669 N 560.017 4.60751 5.17379 0
M  V30 5670 N 561.81 3.60637 4.31158 0
M  V30 5671 H 553.961 1.96993 0.794198 0
M  V30 5672 H 556.224 0.853942 0.411688 0
M  V30 5673 H 555.93 2.86603 2.03843 0
M  V30 5674 H 555.804 1.71692 3.3586 0
M  V30 5675 H 558.191 0.887765 2.8143 0
M  V30 5676 H 558.272 2.0711 1.5013 0
M  V30 5677 H 557.916 3.94537 3.19849 0
M  V30 5678 H 557.846 2.73255 4.50155 0
M  V30 5679 H 560.337 2.29472 3.00252 0
M  V30 5680 H 560.65 5.17408 5.74028 0
M  V30 5681 H 558.995 4.64803 5.16704 0
M  V30 5682 H 562.186 2.90892 3.66742 0
M  V30 5683 H 562.359 4.22176 4.91601 0
M  V30 5684 N 555.766 -1.3263 0.851289 0
M  V30 5685 C 556.729 -2.27247 0.298541 0
M  V30 5686 C 557.729 -1.51467 -0.539847 0
M  V30 5687 O 558.919 -1.7061 -0.351843 0
M  V30 5688 C 556.051 -3.35964 -0.578004 0
M  V30 5689 H 557.244 -2.7765 1.13359 0
M  V30 5690 H 554.797 -1.43245 0.625354 0
M  V30 5691 H 555.532 -2.90823 -1.435 0
M  V30 5692 H 555.317 -3.92094 0.0220539 0
M  V30 5693 H 556.807 -4.06472 -0.957626 0
M  V30 5694 N 557.244 -0.608902 -1.45362 0
M  V30 5695 C 558.472 -0.111013 -2.06602 0
M  V30 5696 C 558.887 1.20516 -1.45332 0
M  V30 5697 O 558.244 1.73437 -0.567978 0
M  V30 5698 C 558.295 0.033688 -3.61484 0
M  V30 5699 O 558.016 -1.23041 -4.20467 0
M  V30 5700 C 559.517 0.562882 -4.39712 0
M  V30 5701 H 556.737 -0.0694453 -0.667397 0
M  V30 5702 H 559.281 -0.837008 -1.86586 0
M  V30 5703 H 557.436 0.710016 -3.80838 0
M  V30 5704 H 557.85 -1.06094 -5.13658 0
M  V30 5705 H 559.324 0.613213 -5.48583 0
M  V30 5706 H 559.801 1.58543 -4.09586 0
M  V30 5707 H 560.407 -0.0794454 -4.25226 0
M  V30 5708 N 558.722 1.53707 -0.348139 0
M  V30 5709 C 559.654 2.22725 0.540946 0
M  V30 5710 C 560.667 1.2354 1.06027 0
M  V30 5711 O 561.856 1.49867 0.96964 0
M  V30 5712 C 558.956 2.89756 1.75768 0
M  V30 5713 C 558.129 4.15297 1.37285 0
M  V30 5714 C 557.188 4.65697 2.44976 0
M  V30 5715 O 556.214 5.29798 2.08092 0
M  V30 5716 N 557.416 4.42017 3.763 0
M  V30 5717 H 560.181 2.99658 -0.0501592 0
M  V30 5718 H 557.742 1.60979 -0.17248 0
M  V30 5719 H 559.734 3.20388 2.47252 0
M  V30 5720 H 558.304 2.16382 2.25605 0
M  V30 5721 H 557.524 3.9116 0.488584 0
M  V30 5722 H 558.812 4.96948 1.09179 0
M  V30 5723 H 558.21 3.9076 4.09051 0
M  V30 5724 H 556.767 4.77242 4.4394 0
M  V30 5725 N 560.2 0.0768682 1.57412 0
M  V30 5726 C 561.611 -0.455037 1.8107 0
M  V30 5727 C 561.962 -1.69323 0.991162 0
M  V30 5728 O 561.087 -2.15328 0.215156 0
M  V30 5729 C 561.682 -0.832316 3.28417 0
M  V30 5730 C 560.241 -1.30906 3.52903 0
M  V30 5731 C 559.388 -0.296714 2.75708 0
M  V30 5732 H 562.339 0.302514 1.5579 0
M  V30 5733 H 562.36 -1.69333 3.40744 0
M  V30 5734 H 561.872 0.0690532 3.88039 0
M  V30 5735 H 559.973 -2.22875 2.98592 0
M  V30 5736 H 560.086 -1.28348 4.61588 0
M  V30 5737 H 558.45 -0.775059 2.42621 0
M  V30 5738 H 559.233 0.597015 3.38069 0
M  V30 5739 N 561.678 -1.56367 -0.196722 0
M  V30 5740 C 562.608 -1.97442 -1.24655 0
M  V30 5741 C 563.589 -0.846147 -1.47561 0
M  V30 5742 O 564.774 -1.11035 -1.59326 0
M  V30 5743 C 561.904 -2.31253 -2.59112 0
M  V30 5744 C 560.858 -3.46804 -2.50821 0
M  V30 5745 C 560.184 -3.66286 -3.89536 0
M  V30 5746 C 561.484 -4.8104 -2.03465 0
M  V30 5747 H 563.178 -2.85388 -0.905216 0
M  V30 5748 H 560.724 -1.37304 -0.434002 0
M  V30 5749 H 562.677 -2.58583 -3.32736 0
M  V30 5750 H 561.401 -1.40188 -2.94983 0
M  V30 5751 H 560.06 -3.19563 -1.79653 0
M  V30 5752 H 559.708 -2.72555 -4.22756 0
M  V30 5753 H 559.408 -4.4402 -3.84864 0
M  V30 5754 H 560.932 -3.9599 -4.64784 0
M  V30 5755 H 562.346 -5.07411 -2.66846 0
M  V30 5756 H 560.743 -5.62232 -2.09798 0
M  V30 5757 H 561.813 -4.74732 -0.98781 0
M  V30 5758 N 563.156 0.464375 -1.50603 0
M  V30 5759 C 564.104 1.58224 -1.70493 0
M  V30 5760 C 565.098 1.59492 -0.570836 0
M  V30 5761 O 566.304 1.63561 -0.751517 0
M  V30 5762 H 562.679 0.525161 -0.538247 0
M  V30 5763 H 564.65 1.38613 -2.64252 0
M  V30 5764 C 563.399 2.96113 -1.82243 0
M  V30 5765 H 562.722 2.95858 -2.68901 0
M  V30 5766 H 564.162 3.73769 -2.00182 0
M  V30 5767 C 562.621 3.31946 -0.575628 0
M  V30 5768 O 563.151 4.00708 0.282152 0
M  V30 5769 N 561.357 2.87436 -0.427665 0
M  V30 5770 H 560.904 2.31652 -1.12674 0
M  V30 5771 H 560.862 3.11776 0.405379 0
M  V30 5772 N 564.634 1.40294 0.718013 0
M  V30 5773 C 565.882 1.38167 1.47494 0
M  V30 5774 C 566.203 -0.01607 1.94993 0
M  V30 5775 O 565.473 -0.970396 1.70177 0
M  V30 5776 H 564.053 0.508505 0.547203 0
M  V30 5777 H 566.715 1.75324 0.851322 0
M  V30 5778 H 565.811 2.05503 2.34894 0
M  V30 5779 N 566.112 -0.949982 1.2575 0
M  V30 5780 C 567.528 -1.22191 1.02672 0
M  V30 5781 C 567.728 -1.99898 -0.253588 0
M  V30 5782 O 566.784 -2.33329 -0.965076 0
M  V30 5783 C 568.097 -1.99175 2.25277 0
M  V30 5784 C 569.645 -2.12201 2.30087 0
M  V30 5785 C 570.12 -2.92586 3.5236 0
M  V30 5786 N 571.611 -3.00163 3.52784 0
M  V30 5787 C 572.346 -3.62766 4.44059 0
M  V30 5788 N 571.842 -4.26943 5.45611 0
M  V30 5789 N 573.635 -3.59953 4.3173 0
M  V30 5790 H 565.786 -0.430258 2.07996 0
M  V30 5791 H 568.049 -0.252844 0.91366 0
M  V30 5792 H 567.755 -1.49479 3.18354 0
M  V30 5793 H 567.629 -2.99868 2.28821 0
M  V30 5794 H 570.016 -2.61093 1.3753 0
M  V30 5795 H 570.097 -1.10799 2.30559 0
M  V30 5796 H 569.741 -2.44383 4.45241 0
M  V30 5797 H 569.671 -3.94224 3.49134 0
M  V30 5798 H 572.162 -2.54529 2.79327 0
M  V30 5799 H 572.475 -4.72583 6.11461 0
M  V30 5800 H 570.82 -4.25557 5.49478 0
M  V30 5801 H 574.011 -3.09003 3.51617 0
M  V30 5802 H 574.184 -4.08455 5.03059 0
M  V30 5803 N 567.59 -1.07411 -1.15328 0
M  V30 5804 C 568.836 -0.798831 -1.86404 0
M  V30 5805 C 569.169 0.673433 -1.8215 0
M  V30 5806 O 568.444 1.49428 -1.24505 0
M  V30 5807 C 568.727 -1.30846 -3.35487 0
M  V30 5808 C 568.58 -2.84532 -3.4837 0
M  V30 5809 C 569.899 -0.925486 -4.30259 0
M  V30 5810 H 567.018 -0.291659 -0.676834 0
M  V30 5811 H 569.66 -1.332 -1.35491 0
M  V30 5812 H 567.81 -0.854916 -3.78977 0
M  V30 5813 H 569.482 -3.3818 -3.13739 0
M  V30 5814 H 567.725 -3.22699 -2.8991 0
M  V30 5815 H 568.396 -3.15259 -4.53118 0
M  V30 5816 H 570.872 -1.3163 -3.94731 0
M  V30 5817 H 569.748 -1.3094 -5.33053 0
M  V30 5818 H 570.009 0.168525 -4.41779 0
M  V30 5819 N 569.068 1.32177 -0.85831 0
M  V30 5820 C 570.317 1.96392 -0.459689 0
M  V30 5821 C 570.63 1.68659 0.990632 0
M  V30 5822 O 571.836 2.26641 1.49485 0
M  V30 5823 C 570.292 3.51542 -0.7711 0
M  V30 5824 C 569.9 3.8813 -2.2374 0
M  V30 5825 C 571.644 4.2221 -0.44038 0
M  V30 5826 C 569.551 5.36341 -2.49183 0
M  V30 5827 H 568.481 0.735007 -0.168169 0
M  V30 5828 H 571.132 1.50518 -1.0496 0
M  V30 5829 H 569.514 3.95846 -0.11058 0
M  V30 5830 H 570.688 3.54824 -2.94001 0
M  V30 5831 H 569.003 3.30497 -2.533 0
M  V30 5832 H 571.6 5.31234 -0.607855 0
M  V30 5833 H 571.943 4.11683 0.618291 0
M  V30 5834 H 572.476 3.83502 -1.05695 0
M  V30 5835 H 569.215 5.51892 -3.53689 0
M  V30 5836 H 568.735 5.7104 -1.83504 0
M  V30 5837 H 570.414 6.03466 -2.33318 0
M  V30 5838 N 570.547 0.616602 1.45037 0
M  V30 5839 C 571.457 -0.0985401 2.34393 0
M  V30 5840 C 572.473 -0.850971 1.51771 0
M  V30 5841 O 573.649 -0.806521 1.84546 0
M  V30 5842 C 570.714 -1.07748 3.29532 0
M  V30 5843 C 569.775 -0.326022 4.2806 0
M  V30 5844 C 569.008 -1.25833 5.18654 0
M  V30 5845 O 569.231 -2.49652 5.12864 0
M  V30 5846 O 568.165 -0.750512 5.97203 0
M  V30 5847 H 571.991 0.636016 2.96966 0
M  V30 5848 H 569.576 0.376832 1.44569 0
M  V30 5849 H 571.458 -1.64107 3.88133 0
M  V30 5850 H 570.133 -1.79291 2.69512 0
M  V30 5851 H 569.04 0.280253 3.73049 0
M  V30 5852 H 570.373 0.349091 4.9096 0
M  V30 5853 N 572.025 -1.5352 0.356285 0
M  V30 5854 C 572.988 -2.24071 -0.482182 0
M  V30 5855 C 573.988 -1.24531 -1.01729 0
M  V30 5856 O 575.178 -1.48876 -0.904513 0
M  V30 5857 C 572.31 -2.97025 -1.67299 0
M  V30 5858 H 573.503 -2.99596 0.135031 0
M  V30 5859 H 571.056 -1.55928 0.107825 0
M  V30 5860 H 571.791 -2.25719 -2.32855 0
M  V30 5861 H 571.576 -3.7005 -1.29636 0
M  V30 5862 H 573.066 -3.50683 -2.26741 0
M  V30 5863 N 573.503 -0.0852151 -1.57369 0
M  V30 5864 C 574.728 0.592872 -1.98746 0
M  V30 5865 C 575.153 1.61538 -0.963689 0
M  V30 5866 O 574.511 1.81168 0.069071 0
M  V30 5867 C 574.559 1.22599 -3.39119 0
M  V30 5868 O 573.663 2.34185 -3.39457 0
M  V30 5869 H 573.004 0.151314 -0.646529 0
M  V30 5870 H 575.534 -0.163703 -2.03944 0
M  V30 5871 H 575.544 1.56965 -3.76598 0
M  V30 5872 H 574.219 0.476831 -4.13158 0
M  V30 5873 H 572.796 2.01512 -3.13763 0
M  V30 5874 N 574.981 1.5647 0.188427 0
M  V30 5875 C 576.228 1.81013 0.907779 0
M  V30 5876 C 576.556 0.65953 1.82977 0
M  V30 5877 O 575.811 -0.354308 1.92466 0
M  V30 5878 C 576.11 3.11596 1.7505 0
M  V30 5879 C 575.776 4.40145 0.978922 0
M  V30 5880 C 574.438 4.75066 0.765912 0
M  V30 5881 C 576.79 5.19369 0.436498 0
M  V30 5882 C 574.118 5.867 -0.00089868 0
M  V30 5883 C 576.47 6.31805 -0.317136 0
M  V30 5884 C 575.134 6.65303 -0.541103 0
M  V30 5885 H 574.404 0.662373 0.33218 0
M  V30 5886 H 577.051 1.9071 0.173732 0
M  V30 5887 H 575.356 2.97165 2.55343 0
M  V30 5888 H 577.053 3.27793 2.30983 0
M  V30 5889 H 573.643 4.12745 1.15497 0
M  V30 5890 H 577.827 4.92799 0.588449 0
M  V30 5891 H 573.083 6.11122 -0.184329 0
M  V30 5892 H 577.257 6.92406 -0.744788 0
M  V30 5893 H 574.884 7.51646 -1.13718 0
M  V30 5894 N 576.459 -0.456382 1.50847 0
M  V30 5895 C 577.87 -1.03685 1.55262 0
M  V30 5896 C 578.221 -1.92779 0.364771 0
M  V30 5897 O 577.346 -2.10043 -0.52068 0
M  V30 5898 C 577.941 -1.88718 2.81374 0
M  V30 5899 C 576.5 -2.41847 2.88422 0
M  V30 5900 C 575.647 -1.20564 2.49719 0
M  V30 5901 H 578.598 -0.238399 1.56899 0
M  V30 5902 H 578.619 -2.73957 2.6406 0
M  V30 5903 H 578.131 -1.23847 3.67809 0
M  V30 5904 H 576.232 -3.10228 2.06372 0
M  V30 5905 H 576.345 -2.75947 3.9165 0
M  V30 5906 H 574.709 -1.54504 2.02486 0
M  V30 5907 H 575.492 -0.573326 3.38479 0
M  V30 5908 N 577.937 -1.40673 -0.710563 0
M  V30 5909 C 578.9 -1.4108 -1.80635 0
M  V30 5910 C 579.9 -0.303783 -1.57904 0
M  V30 5911 O 581.09 -0.562937 -1.64853 0
M  V30 5912 C 578.222 -1.20748 -3.18799 0
M  V30 5913 H 579.415 -2.38612 -1.81671 0
M  V30 5914 H 576.968 -1.26595 -0.916704 0
M  V30 5915 H 577.703 -0.239964 -3.23411 0
M  V30 5916 H 577.488 -2.00941 -3.36698 0
M  V30 5917 H 578.978 -1.23833 -3.98817 0
M  V30 5918 N 579.415 0.9433 -1.26252 0
M  V30 5919 C 580.663 1.68592 -1.11451 0
M  V30 5920 C 580.984 1.91957 0.343123 0
M  V30 5921 O 580.254 1.51475 1.24226 0
M  V30 5922 H 578.834 0.624789 -0.409448 0
M  V30 5923 H 581.496 1.13351 -1.58548 0
M  V30 5924 H 580.592 2.66054 -1.63162 0
M  V30 5925 N 580.893 1.08022 1.14757 0
M  V30 5926 C 582.139 0.808705 1.85978 0
M  V30 5927 C 582.472 -0.663764 1.82504 0
M  V30 5928 O 581.747 -1.48765 1.25296 0
M  V30 5929 C 582.03 1.32623 3.34788 0
M  V30 5930 C 581.883 2.86375 3.46856 0
M  V30 5931 C 583.202 0.948291 4.29762 0
M  V30 5932 H 580.321 0.295244 0.675278 0
M  V30 5933 H 582.963 1.33917 1.34783 0
M  V30 5934 H 581.113 0.875002 3.78518 0
M  V30 5935 H 582.785 3.39839 3.11941 0
M  V30 5936 H 581.028 3.24232 2.88194 0
M  V30 5937 H 581.699 3.17658 4.51439 0
M  V30 5938 H 584.175 1.33722 3.94028 0
M  V30 5939 H 583.051 1.33765 5.32352 0
M  V30 5940 H 583.312 -0.145094 4.41862 0
M  V30 5941 N 582.371 -1.3172 0.865308 0
M  V30 5942 C 583.648 -1.91574 0.394789 0
M  V30 5943 C 584.028 -1.78769 -1.12271 0
M  V30 5944 O 583.376 -1.19245 -1.94918 0
M  V30 5945 C 583.586 -3.37957 0.870982 0
M  V30 5946 C 584.934 -4.15073 0.894384 0
M  V30 5947 O 585.958 -3.4672 0.816325 0
M  V30 5948 O 584.817 -5.37151 1.00651 0
M  V30 5949 H 581.911 -0.818649 0.117229 0
M  V30 5950 H 584.457 -1.4042 0.952913 0
M  V30 5951 H 583.229 -3.41269 1.91444 0
M  V30 5952 H 582.852 -3.96534 0.290907 0
M  V30 5953 N 583.85 -0.624285 -1.44708 0
M  V30 5954 C 585.075 -0.131171 -2.06985 0
M  V30 5955 C 585.5 1.18234 -1.46295 0
M  V30 5956 O 584.858 1.72375 -0.561842 0
M  V30 5957 C 584.906 -0.0226724 -3.60593 0
M  V30 5958 O 584.01 1.02314 -3.99507 0
M  V30 5959 H 583.351 -0.0816556 -0.65896 0
M  V30 5960 H 585.88 -0.859027 -1.85693 0
M  V30 5961 H 585.891 0.170138 -4.07645 0
M  V30 5962 H 584.566 -0.981685 -4.04148 0
M  V30 5963 H 583.143 0.805452 -3.64097 0
M  V30 5964 N 585.328 1.53329 -0.364422 0
M  V30 5965 C 586.553 2.06132 0.229033 0
M  V30 5966 C 586.978 1.23625 1.41769 0
M  V30 5967 O 586.336 0.255038 1.79497 0
M  V30 5968 C 586.384 3.55544 0.60174 0
M  V30 5969 O 585.488 3.75771 1.69912 0
M  V30 5970 H 584.829 0.663148 0.0336213 0
M  V30 5971 H 587.359 1.97758 -0.524689 0
M  V30 5972 H 587.369 3.98549 0.873073 0
M  V30 5973 H 586.044 4.15039 -0.267421 0
M  V30 5974 H 584.621 3.44663 1.42343 0
M  V30 5975 N 586.806 0.0935595 1.57322 0
M  V30 5976 C 588.217 -0.435807 1.81542 0
M  V30 5977 C 588.568 -1.68263 1.00907 0
M  V30 5978 O 587.693 -2.15087 0.237983 0
M  V30 5979 C 588.288 -0.797436 3.29282 0
M  V30 5980 C 586.847 -1.27155 3.54272 0
M  V30 5981 C 585.994 -0.267455 2.76007 0
M  V30 5982 H 588.945 0.31902 1.5546 0
M  V30 5983 H 588.966 -1.6571 3.42521 0
M  V30 5984 H 588.478 0.110206 3.87943 0
M  V30 5985 H 586.579 -2.19696 3.00939 0
M  V30 5986 H 586.692 -1.23445 4.62923 0
M  V30 5987 H 585.056 -0.749282 2.43429 0
M  V30 5988 H 585.839 0.632839 3.37417 0
M  V30 5989 N 588.284 -1.56567 -0.180126 0
M  V30 5990 C 589.7 -1.50488 -0.531559 0
M  V30 5991 C 589.9 -0.796267 -1.851 0
M  V30 5992 O 588.956 -0.352978 -2.50021 0
M  V30 5993 C 590.269 -2.95201 -0.572456 0
M  V30 5994 C 591.817 -3.05957 -0.660264 0
M  V30 5995 C 592.292 -4.5211 -0.732135 0
M  V30 5996 N 593.783 -4.56322 -0.795262 0
M  V30 5997 C 594.518 -5.66742 -0.871296 0
M  V30 5998 N 594.014 -6.86815 -0.908708 0
M  V30 5999 N 595.807 -5.54691 -0.909639 0
M  V30 6000 H 587.958 -2.01045 0.685165 0
M  V30 6001 H 590.221 -0.915536 0.245962 0
M  V30 6002 H 589.927 -3.50165 0.328208 0
M  V30 6003 H 589.801 -3.49369 -1.422 0
M  V30 6004 H 592.188 -2.51032 -1.55136 0
M  V30 6005 H 592.269 -2.54888 0.215783 0
M  V30 6006 H 591.913 -5.07664 0.154664 0
M  V30 6007 H 591.843 -5.00926 -1.6242 0
M  V30 6008 H 594.334 -3.69868 -0.77499 0
M  V30 6009 H 594.647 -7.66718 -0.967654 0
M  V30 6010 H 592.992 -6.89443 -0.877132 0
M  V30 6011 H 596.183 -4.59804 -0.877353 0
M  V30 6012 H 596.356 -6.40768 -0.965434 0
M  V30 6013 N 589.762 0.448376 -1.51087 0
M  V30 6014 C 590.725 1.52588 -1.71025 0
M  V30 6015 C 591.725 1.49958 -0.580442 0
M  V30 6016 O 592.915 1.52176 -0.847833 0
M  V30 6017 C 590.047 2.92163 -1.75652 0
M  V30 6018 H 591.24 1.36218 -2.67179 0
M  V30 6019 H 588.793 0.676313 -1.4091 0
M  V30 6020 H 589.528 3.13951 -0.812724 0
M  V30 6021 H 589.313 2.95478 -2.57751 0
M  V30 6022 H 590.803 3.70349 -1.92953 0
M  V30 6023 N 591.24 1.41047 0.703093 0
M  V30 6024 C 592.203 1.42036 1.79884 0
M  V30 6025 C 593.203 0.312153 1.57741 0
M  V30 6026 O 594.393 0.571672 1.64553 0
M  V30 6027 C 591.525 1.22437 3.18154 0
M  V30 6028 H 592.718 2.39572 1.80403 0
M  V30 6029 H 590.271 1.27079 0.909977 0
M  V30 6030 H 591.006 0.257112 3.23279 0
M  V30 6031 H 590.791 2.02723 3.35627 0
M  V30 6032 H 592.281 1.25946 3.98155 0
M  V30 6033 N 592.718 -0.936591 1.26751 0
M  V30 6034 C 593.628 -2.06949 1.10496 0
M  V30 6035 C 594.644 -1.7396 0.037271 0
M  V30 6036 O 595.82 -1.99941 0.241944 0
M  V30 6037 C 592.885 -3.38612 0.744491 0
M  V30 6038 C 591.946 -3.85355 1.89209 0
M  V30 6039 C 591.179 -5.10735 1.54873 0
M  V30 6040 O 591.402 -5.68602 0.452546 0
M  V30 6041 O 590.336 -5.52632 2.38499 0
M  V30 6042 H 594.162 -2.23571 2.05547 0
M  V30 6043 H 591.747 -1.05428 1.05855 0
M  V30 6044 H 593.629 -4.17711 0.556396 0
M  V30 6045 H 592.304 -3.23218 -0.176582 0
M  V30 6046 H 591.211 -3.07182 2.13518 0
M  V30 6047 H 592.544 -4.05277 2.79305 0
M  V30 6048 N 594.196 -1.08629 -1.14182 0
M  V30 6049 C 595.607 -0.838003 -1.66836 0
M  V30 6050 C 595.958 0.634885 -1.85644 0
M  V30 6051 O 595.083 1.49008 -1.56926 0
M  V30 6052 C 595.678 -1.51465 -3.03058 0
M  V30 6053 C 594.237 -1.31355 -3.52736 0
M  V30 6054 C 593.384 -1.57599 -2.28162 0
M  V30 6055 H 596.335 -1.24656 -0.982165 0
M  V30 6056 H 596.356 -0.943134 -3.68626 0
M  V30 6057 H 595.868 -2.58661 -2.89337 0
M  V30 6058 H 593.969 -0.262384 -3.71675 0
M  V30 6059 H 594.082 -2.04275 -4.33369 0
M  V30 6060 H 592.446 -0.997659 -2.34348 0
M  V30 6061 H 593.229 -2.66006 -2.17015 0
M  V30 6062 N 595.674 1.31259 -0.872281 0
M  V30 6063 C 596.92 1.96913 -0.485083 0
M  V30 6064 C 597.253 1.68774 0.960667 0
M  V30 6065 O 596.528 0.985495 1.67685 0
M  V30 6066 C 596.811 3.52299 -0.745502 0
M  V30 6067 C 596.664 3.90002 -2.24095 0
M  V30 6068 C 597.983 4.39582 -0.213516 0
M  V30 6069 H 595.102 0.715252 -0.177716 0
M  V30 6070 H 597.744 1.55347 -1.09395 0
M  V30 6071 H 595.894 3.87835 -0.227276 0
M  V30 6072 H 597.566 3.64555 -2.82661 0
M  V30 6073 H 595.809 3.38526 -2.71261 0
M  V30 6074 H 596.48 4.98352 -2.37381 0
M  V30 6075 H 598.956 4.10882 -0.656902 0
M  V30 6076 H 597.832 5.47251 -0.42516 0
M  V30 6077 H 598.093 4.33158 0.884666 0
M  V30 6078 N 597.152 0.631951 1.44375 0
M  V30 6079 C 598.084 -0.110911 2.28931 0
M  V30 6080 C 599.097 -0.808086 1.41329 0
M  V30 6081 O 600.286 -0.669396 1.65473 0
M  V30 6082 C 597.386 -1.17928 3.1772 0
M  V30 6083 C 596.559 -0.564458 4.33743 0
M  V30 6084 C 595.618 -1.5269 5.0356 0
M  V30 6085 O 594.644 -1.04372 5.59549 0
M  V30 6086 N 595.846 -2.86123 5.05088 0
M  V30 6087 H 598.611 0.614758 2.93327 0
M  V30 6088 H 596.172 0.473171 1.54831 0
M  V30 6089 H 598.164 -1.82348 3.61291 0
M  V30 6090 H 596.734 -1.80717 2.55069 0
M  V30 6091 H 595.954 0.258373 3.93352 0
M  V30 6092 H 597.242 -0.134355 5.08623 0
M  V30 6093 H 596.64 -3.27959 4.60933 0
M  V30 6094 H 595.197 -3.45901 5.52445 0
M  V30 6095 N 598.631 -1.53133 0.372548 0
M  V30 6096 C 599.561 -2.28876 -0.462412 0
M  V30 6097 C 600.542 -1.31583 -1.07796 0
M  V30 6098 O 601.727 -1.60461 -1.09389 0
M  V30 6099 C 598.857 -3.08317 -1.59868 0
M  V30 6100 C 597.811 -4.13355 -1.11003 0
M  V30 6101 C 597.137 -4.8092 -2.33708 0
M  V30 6102 C 598.437 -5.21955 -0.18983 0
M  V30 6103 H 600.131 -2.9892 0.169511 0
M  V30 6104 H 597.677 -1.43761 0.0829658 0
M  V30 6105 H 599.63 -3.60055 -2.18949 0
M  V30 6106 H 598.354 -2.35976 -2.25794 0
M  V30 6107 H 597.013 -3.62573 -0.541869 0
M  V30 6108 H 596.661 -4.05144 -2.98106 0
M  V30 6109 H 596.361 -5.51904 -2.01682 0
M  V30 6110 H 597.885 -5.35455 -2.93462 0
M  V30 6111 H 599.299 -5.69153 -0.688319 0
M  V30 6112 H 597.696 -6.00087 0.0398887 0
M  V30 6113 H 598.766 -4.78811 0.766057 0
M  V30 6114 N 600.109 -0.101901 -1.5727 0
M  V30 6115 C 601.057 0.872034 -2.15635 0
M  V30 6116 C 602.051 1.28742 -1.10099 0
M  V30 6117 O 603.257 1.26116 -1.28432 0
M  V30 6118 H 599.632 0.299269 -0.689886 0
M  V30 6119 H 601.603 0.355137 -2.96279 0
M  V30 6120 C 600.352 2.11886 -2.7568 0
M  V30 6121 H 599.675 1.80813 -3.56576 0
M  V30 6122 H 601.115 2.78077 -3.20077 0
M  V30 6123 C 599.574 2.89739 -1.7191 0
M  V30 6124 O 600.104 3.84522 -1.16213 0
M  V30 6125 N 598.31 2.53407 -1.42245 0
M  V30 6126 H 597.857 1.76398 -1.87727 0
M  V30 6127 H 597.815 3.05795 -0.730529 0
M  V30 6128 N 601.587 1.56661 0.17182 0
M  V30 6129 C 602.812 1.86459 0.908165 0
M  V30 6130 C 603.237 0.688181 1.75059 0
M  V30 6131 O 602.595 -0.362753 1.77634 0
M  V30 6132 C 602.643 3.14669 1.76112 0
M  V30 6133 O 601.747 2.96858 2.86268 0
M  V30 6134 H 601.088 0.613318 0.254434 0
M  V30 6135 H 603.618 2.03892 0.170113 0
M  V30 6136 H 603.628 3.46061 2.16115 0
M  V30 6137 H 602.303 3.99905 1.14233 0
M  V30 6138 H 600.88 2.76819 2.49852 0
M  V30 6139 N 603.065 -0.440357 1.51323 0
M  V30 6140 C 604.305 -1.19956 1.65499 0
M  V30 6141 C 604.669 -1.88559 0.361878 0
M  V30 6142 O 605.87 -2.66109 0.379383 0
M  V30 6143 C 604.141 -2.1918 2.82303 0
M  V30 6144 S 605.7 -3.03627 3.1679 0
M  V30 6145 H 602.518 -0.406833 0.583102 0
M  V30 6146 H 605.12 -0.491596 1.89218 0
M  V30 6147 H 603.824 -1.67414 3.74701 0
M  V30 6148 H 603.355 -2.94561 2.60763 0
M  V30 6149 H 605.37 -4.20773 2.62991 0
M  V30 6150 N 604.543 -1.41418 -0.695603 0
M  V30 6151 C 605.473 -1.46035 -1.82197 0
M  V30 6152 C 606.454 -0.319025 -1.67082 0
M  V30 6153 O 607.639 -0.530462 -1.86815 0
M  V30 6154 C 604.769 -1.34179 -3.20333 0
M  V30 6155 C 603.723 -2.46123 -3.50154 0
M  V30 6156 C 603.049 -2.19332 -4.87645 0
M  V30 6157 C 604.349 -3.88463 -3.49133 0
M  V30 6158 H 606.043 -2.40303 -1.78591 0
M  V30 6159 H 603.589 -1.15663 -0.857797 0
M  V30 6160 H 605.542 -1.36021 -3.98844 0
M  V30 6161 H 604.266 -0.363952 -3.24566 0
M  V30 6162 H 602.925 -2.43563 -2.73994 0
M  V30 6163 H 602.573 -1.19891 -4.88503 0
M  V30 6164 H 602.273 -2.94344 -5.08562 0
M  V30 6165 H 603.797 -2.22889 -5.68465 0
M  V30 6166 H 605.211 -3.92738 -4.17648 0
M  V30 6167 H 603.608 -4.63158 -3.81582 0
M  V30 6168 H 604.678 -4.16617 -2.48109 0
M  V30 6169 N 606.021 0.929856 -1.27246 0
M  V30 6170 C 606.984 2.01172 -1.09829 0
M  V30 6171 C 607.984 1.60743 -0.0429687 0
M  V30 6172 O 609.174 1.71813 -0.287373 0
M  V30 6173 C 606.306 3.34191 -0.673003 0
M  V30 6174 H 607.499 2.18054 -2.05895 0
M  V30 6175 H 605.052 1.11036 -1.10003 0
M  V30 6176 H 605.787 3.23009 0.289134 0
M  V30 6177 H 605.572 3.64892 -1.43515 0
M  V30 6178 H 607.062 4.13646 -0.573323 0
M  V30 6179 N 607.499 1.09233 1.13605 0
M  V30 6180 C 608.462 0.733553 2.17144 0
M  V30 6181 C 609.462 -0.235873 1.59061 0
M  V30 6182 O 610.652 -0.0143167 1.74194 0
M  V30 6183 C 607.784 0.084471 3.40795 0
M  V30 6184 H 608.977 1.65049 2.50397 0
M  V30 6185 H 606.53 0.891264 1.28399 0
M  V30 6186 H 607.265 -0.843795 3.1313 0
M  V30 6187 H 607.05 0.781985 3.84223 0
M  V30 6188 H 608.54 -0.151216 4.17326 0
M  V30 6189 N 608.977 -1.30795 0.87923 0
M  V30 6190 C 610.225 -1.95974 0.493809 0
M  V30 6191 C 610.546 -1.69787 -0.959021 0
M  V30 6192 O 609.816 -1.01832 -1.67353 0
M  V30 6193 H 608.396 -0.725083 0.179622 0
M  V30 6194 H 611.058 -1.59432 1.12105 0
M  V30 6195 H 610.154 -3.05058 0.659263 0
M  V30 6196 N 610.455 -0.639598 -1.44038 0
M  V30 6197 C 611.732 -0.078012 -1.95444 0
M  V30 6198 C 612.112 1.39847 -1.58133 0
M  V30 6199 O 611.46 2.11714 -0.859614 0
M  V30 6200 C 611.67 -0.309832 -3.47622 0
M  V30 6201 C 613.018 -0.207521 -4.24093 0
M  V30 6202 O 614.042 -0.241653 -3.55379 0
M  V30 6203 O 612.901 -0.119641 -5.46369 0
M  V30 6204 H 609.995 0.0174534 -0.826816 0
M  V30 6205 H 612.541 -0.711891 -1.54046 0
M  V30 6206 H 611.313 -1.33401 -3.67858 0
M  V30 6207 H 610.936 0.357777 -3.95987 0
M  V30 6208 N 611.933 1.52934 -0.380664 0
M  V30 6209 C 613.182 2.00651 0.205477 0
M  V30 6210 C 613.495 1.27164 1.48623 0
M  V30 6211 O 614.701 1.65547 2.15189 0
M  V30 6212 C 613.157 3.57479 0.416726 0
M  V30 6213 C 612.765 4.39857 -0.850268 0
M  V30 6214 C 614.509 4.13509 0.959702 0
M  V30 6215 C 612.416 5.88269 -0.607773 0
M  V30 6216 H 611.346 0.749684 0.0805614 0
M  V30 6217 H 613.997 1.76508 -0.501732 0
M  V30 6218 H 612.379 3.77836 1.18557 0
M  V30 6219 H 613.553 4.31269 -1.62307 0
M  V30 6220 H 611.868 3.95005 -1.31756 0
M  V30 6221 H 614.465 5.22039 1.15669 0
M  V30 6222 H 614.808 3.69054 1.92626 0
M  V30 6223 H 615.341 3.9701 0.250645 0
M  V30 6224 H 612.08 6.3703 -1.54509 0
M  V30 6225 H 611.6 5.99667 0.126247 0
M  V30 6226 H 613.279 6.46558 -0.239014 0
M  V30 6227 N 613.412 0.11024 1.57214 0
M  V30 6228 C 614.342 -0.840002 2.17867 0
M  V30 6229 C 615.323 -1.28352 1.11624 0
M  V30 6230 O 616.508 -1.3477 1.39824 0
M  V30 6231 C 613.638 -2.09349 2.77111 0
M  V30 6232 C 612.592 -1.78807 3.8886 0
M  V30 6233 C 611.918 -3.11112 4.34872 0
M  V30 6234 C 613.218 -1.0632 5.11364 0
M  V30 6235 H 614.912 -0.334608 2.97524 0
M  V30 6236 H 612.458 -0.159502 1.43114 0
M  V30 6237 H 614.411 -2.76275 3.18198 0
M  V30 6238 H 613.135 -2.62198 1.9473 0
M  V30 6239 H 611.794 -1.14273 3.48335 0
M  V30 6240 H 611.442 -3.61877 3.49362 0
M  V30 6241 H 611.142 -2.91453 5.10224 0
M  V30 6242 H 612.666 -3.79171 4.78604 0
M  V30 6243 H 614.08 -1.63383 5.49526 0
M  V30 6244 H 612.477 -0.967876 5.92243 0
M  V30 6245 H 613.547 -0.0484569 4.84876 0
M  V30 6246 N 614.89 -1.56749 -0.16351 0
M  V30 6247 C 615.853 -1.96121 -1.18613 0
M  V30 6248 C 616.853 -0.845765 -1.36761 0
M  V30 6249 O 618.043 -1.11268 -1.34033 0
M  V30 6250 C 615.175 -2.26282 -2.54969 0
M  V30 6251 H 616.368 -2.87639 -0.848764 0
M  V30 6252 H 613.921 -1.50928 -0.406251 0
M  V30 6253 H 614.656 -1.37504 -2.93706 0
M  V30 6254 H 614.441 -3.07595 -2.43162 0
M  V30 6255 H 615.931 -2.57638 -3.28653 0
M  V30 6256 N 616.368 0.432326 -1.51554 0
M  V30 6257 C 617.298 1.53242 -1.76179 0
M  V30 6258 C 618.279 1.58717 -0.611801 0
M  V30 6259 O 619.464 1.74364 -0.855033 0
M  V30 6260 C 616.594 2.91278 -1.89141 0
M  V30 6261 C 615.548 3.00663 -3.04608 0
M  V30 6262 C 614.874 4.40728 -3.02759 0
M  V30 6263 C 616.174 2.74281 -4.44485 0
M  V30 6264 H 617.868 1.32886 -2.68294 0
M  V30 6265 H 615.414 0.637841 -1.29103 0
M  V30 6266 H 617.367 3.68203 -2.04951 0
M  V30 6267 H 616.091 3.12877 -0.936785 0
M  V30 6268 H 614.75 2.26179 -2.88511 0
M  V30 6269 H 614.398 4.59301 -2.05065 0
M  V30 6270 H 614.098 4.47936 -3.80299 0
M  V30 6271 H 615.622 5.19619 -3.20669 0
M  V30 6272 H 617.036 3.40936 -4.60907 0
M  V30 6273 H 615.433 2.92893 -5.23769 0
M  V30 6274 H 616.503 1.69856 -4.54177 0
M  V30 6275 N 617.846 1.41785 0.688094 0
M  V30 6276 C 619.092 1.41753 1.4503 0
M  V30 6277 C 619.425 0.0290745 1.94178 0
M  V30 6278 O 618.7 -0.944456 1.7003 0
M  V30 6279 C 618.983 2.43069 2.65686 0
M  V30 6280 C 618.836 3.91053 2.22256 0
M  V30 6281 C 620.155 2.41543 3.67893 0
M  V30 6282 H 617.274 0.516202 0.526027 0
M  V30 6283 H 619.916 1.73111 0.783105 0
M  V30 6284 H 618.066 2.1646 3.2261 0
M  V30 6285 H 619.738 4.28594 1.70602 0
M  V30 6286 H 617.981 4.05559 1.53963 0
M  V30 6287 H 618.652 4.57501 3.08863 0
M  V30 6288 H 621.128 2.65175 3.20658 0
M  V30 6289 H 620.004 3.14434 4.49914 0
M  V30 6290 H 620.265 1.43666 4.18106 0
M  V30 6291 N 619.324 -0.923095 1.27737 0
M  V30 6292 C 620.571 -1.67127 1.14345 0
M  V30 6293 C 620.899 -1.92017 -0.30982 0
M  V30 6294 O 620.154 -1.51185 -1.24264 0
M  V30 6295 C 620.453 -3.04125 1.8773 0
M  V30 6296 C 620.119 -2.98929 3.37568 0
M  V30 6297 C 618.781 -2.9722 3.78436 0
M  V30 6298 C 621.133 -2.89875 4.33154 0
M  V30 6299 C 618.461 -2.84244 5.13247 0
M  V30 6300 C 620.813 -2.7844 5.68026 0
M  V30 6301 C 619.477 -2.75083 6.08182 0
M  V30 6302 H 618.747 -0.611562 0.418417 0
M  V30 6303 H 621.394 -1.07618 1.584 0
M  V30 6304 H 619.699 -3.67366 1.36196 0
M  V30 6305 H 621.396 -3.609 1.74792 0
M  V30 6306 H 617.986 -3.0105 3.05069 0
M  V30 6307 H 622.17 -2.9029 4.02548 0
M  V30 6308 H 617.426 -2.80034 5.43499 0
M  V30 6309 H 621.6 -2.70401 6.4176 0
M  V30 6310 H 619.227 -2.64786 7.12596 0
M  V30 6311 N 620.802 -1.09834 -1.13024 0
M  V30 6312 C 622.05 -0.835297 -1.8403 0
M  V30 6313 C 622.371 0.640944 -1.84165 0
M  V30 6314 O 621.641 1.46517 -1.30037 0
M  V30 6315 H 620.221 -0.306018 -0.681441 0
M  V30 6316 H 622.883 -1.38734 -1.36891 0
M  V30 6317 H 621.979 -1.19258 -2.88416 0
M  V30 6318 N 622.28 1.30327 -0.886154 0
M  V30 6319 C 623.21 2.30549 -0.370028 0
M  V30 6320 C 624.191 1.61039 0.547751 0
M  V30 6321 O 625.376 1.8864 0.461353 0
M  V30 6322 C 622.506 3.44808 0.415275 0
M  V30 6323 C 621.46 4.26024 -0.41085 0
M  V30 6324 C 620.786 5.32347 0.501128 0
M  V30 6325 C 622.086 4.95433 -1.65359 0
M  V30 6326 H 623.78 2.73969 -1.20754 0
M  V30 6327 H 621.326 1.3171 -0.582097 0
M  V30 6328 H 623.279 4.13986 0.78699 0
M  V30 6329 H 622.003 3.00197 1.28644 0
M  V30 6330 H 620.662 3.58535 -0.764719 0
M  V30 6331 H 620.31 4.83982 1.37004 0
M  V30 6332 H 620.01 5.87581 -0.0478356 0
M  V30 6333 H 621.534 6.0438 0.869333 0
M  V30 6334 H 622.948 5.5712 -1.35239 0
M  V30 6335 H 621.345 5.60537 -2.14284 0
M  V30 6336 H 622.415 4.21493 -2.39733 0
M  V30 6337 N 623.758 0.647228 1.43697 0
M  V30 6338 C 624.688 -0.0345631 2.33474 0
M  V30 6339 C 625.669 -0.818193 1.4913 0
M  V30 6340 O 626.854 -0.780867 1.77809 0
M  V30 6341 C 623.984 -1.00576 3.32418 0
M  V30 6342 C 622.938 -0.33266 4.26705 0
M  V30 6343 C 622.264 -1.41489 5.1564 0
M  V30 6344 C 623.564 0.771204 5.16575 0
M  V30 6345 H 625.258 0.715163 2.90733 0
M  V30 6346 H 622.804 0.345364 1.39797 0
M  V30 6347 H 624.757 -1.49159 3.94119 0
M  V30 6348 H 623.481 -1.78657 2.73403 0
M  V30 6349 H 622.14 0.13267 3.6636 0
M  V30 6350 H 621.788 -2.18698 4.52968 0
M  V30 6351 H 621.488 -0.969799 5.79542 0
M  V30 6352 H 623.012 -1.9022 5.80214 0
M  V30 6353 H 624.426 0.36779 5.72119 0
M  V30 6354 H 622.823 1.1404 5.89165 0
M  V30 6355 H 623.893 1.63169 4.56622 0
M  V30 6356 N 625.236 -1.5273 0.388769 0
M  V30 6357 C 626.483 -2.01573 -0.19359 0
M  V30 6358 C 626.811 -1.27525 -1.46859 0
M  V30 6359 O 626.066 -0.363926 -1.92286 0
M  V30 6360 C 626.365 -3.53765 -0.508445 0
M  V30 6361 C 626.031 -4.4582 0.674947 0
M  V30 6362 C 624.693 -4.70703 0.999596 0
M  V30 6363 C 627.045 -5.00138 1.46666 0
M  V30 6364 C 624.373 -5.47155 2.11751 0
M  V30 6365 C 626.725 -5.77812 2.57518 0
M  V30 6366 C 625.389 -6.00975 2.90492 0
M  V30 6367 H 624.659 -0.737606 -0.0708397 0
M  V30 6368 H 627.306 -1.84134 0.526006 0
M  V30 6369 H 625.611 -3.69274 -1.30936 0
M  V30 6370 H 627.308 -3.8905 -0.971664 0
M  V30 6371 H 623.898 -4.26616 0.411906 0
M  V30 6372 H 628.082 -4.8084 1.22909 0
M  V30 6373 H 623.338 -5.63314 2.3767 0
M  V30 6374 H 627.512 -6.18904 3.19267 0
M  V30 6375 H 625.139 -6.59998 3.77236 0
M  V30 6376 N 626.714 -0.118576 -1.57153 0
M  V30 6377 C 627.677 0.817464 -2.14127 0
M  V30 6378 C 628.677 1.1949 -1.07604 0
M  V30 6379 O 629.867 1.12048 -1.33382 0
M  V30 6380 C 626.999 2.10541 -2.68115 0
M  V30 6381 H 628.192 0.322339 -2.98163 0
M  V30 6382 H 625.745 0.130655 -1.55753 0
M  V30 6383 H 626.48 2.64485 -1.87665 0
M  V30 6384 H 626.265 1.84425 -3.4602 0
M  V30 6385 H 627.755 2.77453 -3.12105 0
M  V30 6386 N 628.193 1.56834 0.155195 0
M  V30 6387 C 629.439 1.83169 0.870467 0
M  V30 6388 C 629.772 0.698929 1.81187 0
M  V30 6389 O 629.047 -0.298035 1.92203 0
M  V30 6390 C 629.33 3.19965 1.65211 0
M  V30 6391 C 629.183 4.43792 0.732744 0
M  V30 6392 C 630.502 3.53885 2.61636 0
M  V30 6393 H 627.621 0.666288 0.315006 0
M  V30 6394 H 630.263 1.89513 0.135988 0
M  V30 6395 H 628.413 3.14687 2.27825 0
M  V30 6396 H 630.085 4.61148 0.118236 0
M  V30 6397 H 628.328 4.3378 0.0417906 0
M  V30 6398 H 628.999 5.36095 1.31552 0
M  V30 6399 H 631.475 3.5972 2.09143 0
M  V30 6400 H 630.351 4.50648 3.13381 0
M  V30 6401 H 630.612 2.79418 3.42605 0
M  V30 6402 N 629.671 -0.424282 1.51781 0
M  V30 6403 C 630.899 -1.1947 1.68921 0
M  V30 6404 C 631.314 -1.84683 0.39213 0
M  V30 6405 O 630.671 -1.71261 -0.630554 0
M  V30 6406 C 630.722 -2.26909 2.81416 0
M  V30 6407 O 630.443 -1.64361 4.061 0
M  V30 6408 C 631.944 -3.16945 3.09937 0
M  V30 6409 H 629.164 -0.359591 0.566511 0
M  V30 6410 H 631.708 -0.501139 1.98265 0
M  V30 6411 H 629.863 -2.91959 2.54635 0
M  V30 6412 H 630.277 -2.35468 4.68674 0
M  V30 6413 H 631.751 -3.88437 3.922 0
M  V30 6414 H 632.228 -3.78451 2.22871 0
M  V30 6415 H 632.834 -2.57581 3.38426 0
M  V30 6416 N 631.149 -1.42148 -0.680565 0
M  V30 6417 C 632.374 -1.45901 -1.47403 0
M  V30 6418 C 632.799 -0.0700985 -1.87969 0
M  V30 6419 O 632.157 0.930145 -1.55621 0
M  V30 6420 C 632.205 -2.38661 -2.70321 0
M  V30 6421 O 631.309 -1.85399 -3.68376 0
M  V30 6422 H 630.65 -0.494565 -0.443059 0
M  V30 6423 H 633.18 -1.86774 -0.835251 0
M  V30 6424 H 633.19 -2.55046 -3.18458 0
M  V30 6425 H 631.865 -3.39571 -2.40134 0
M  V30 6426 H 630.442 -1.78541 -3.2738 0
M  V30 6427 N 632.627 0.916307 -1.28225 0
M  V30 6428 C 633.873 1.66765 -1.154 0
M  V30 6429 C 634.206 1.91912 0.297251 0
M  V30 6430 O 633.481 1.51766 1.21644 0
M  V30 6431 C 633.764 3.02715 -1.95028 0
M  V30 6432 C 633.617 2.84738 -3.48201 0
M  V30 6433 C 634.936 4.03215 -1.76369 0
M  V30 6434 H 632.055 0.605205 -0.42059 0
M  V30 6435 H 634.697 1.06255 -1.57512 0
M  V30 6436 H 632.847 3.54365 -1.59242 0
M  V30 6437 H 634.519 2.40118 -3.9388 0
M  V30 6438 H 632.762 2.19848 -3.73964 0
M  V30 6439 H 633.433 3.8127 -3.99171 0
M  V30 6440 H 635.909 3.60617 -2.07593 0
M  V30 6441 H 634.785 4.96306 -2.34459 0
M  V30 6442 H 635.046 4.36288 -0.71452 0
M  V30 6443 N 634.105 1.10431 1.1244 0
M  V30 6444 C 635.068 0.756542 2.16354 0
M  V30 6445 C 636.068 -0.21899 1.59302 0
M  V30 6446 O 637.258 0.00415969 1.742 0
M  V30 6447 C 634.39 0.120612 3.40687 0
M  V30 6448 H 635.583 1.67696 2.48632 0
M  V30 6449 H 633.136 0.904832 1.27446 0
M  V30 6450 H 633.871 -0.810536 3.14008 0
M  V30 6451 H 633.656 0.822693 3.83372 0
M  V30 6452 H 635.146 -0.106945 4.17463 0
M  V30 6453 N 635.583 -1.29855 0.893053 0
M  V30 6454 C 636.83 -1.95826 0.515585 0
M  V30 6455 C 637.158 -1.70451 -0.936842 0
M  V30 6456 O 636.413 -1.00657 -1.67829 0
M  V30 6457 C 636.712 -3.49515 0.746588 0
M  V30 6458 C 636.378 -3.94955 2.17535 0
M  V30 6459 C 635.04 -4.07073 2.56603 0
M  V30 6460 C 637.392 -4.18536 3.10607 0
M  V30 6461 C 634.72 -4.40138 3.87938 0
M  V30 6462 C 637.072 -4.53073 4.41484 0
M  V30 6463 C 635.736 -4.634 4.80434 0
M  V30 6464 H 635.006 -0.71658 0.188666 0
M  V30 6465 H 637.653 -1.54574 1.13045 0
M  V30 6466 H 635.958 -3.9177 0.0487551 0
M  V30 6467 H 637.655 -3.98644 0.434009 0
M  V30 6468 H 634.245 -3.86035 1.86212 0
M  V30 6469 H 638.429 -4.08646 2.81641 0
M  V30 6470 H 633.685 -4.46335 4.17846 0
M  V30 6471 H 637.859 -4.70269 5.13634 0
M  V30 6472 H 635.486 -4.88775 5.82239 0
M  V30 6473 N 637.061 -0.65484 -1.43351 0
M  V30 6474 C 637.991 0.0221809 -2.33489 0
M  V30 6475 C 638.972 0.810272 -1.49561 0
M  V30 6476 O 640.157 0.771426 -1.78221 0
M  V30 6477 C 637.287 0.988117 -3.32947 0
M  V30 6478 C 636.241 0.310026 -4.26876 0
M  V30 6479 C 635.567 1.38752 -5.16384 0
M  V30 6480 C 636.867 -0.798589 -5.16159 0
M  V30 6481 H 638.561 -0.730571 -2.9035 0
M  V30 6482 H 636.107 -0.352773 -1.39612 0
M  V30 6483 H 638.06 1.47067 -3.94904 0
M  V30 6484 H 636.784 1.77205 -2.74346 0
M  V30 6485 H 635.443 -0.152097 -3.66284 0
M  V30 6486 H 635.091 2.16293 -4.54121 0
M  V30 6487 H 634.791 0.939051 -5.80048 0
M  V30 6488 H 636.315 1.87141 -5.81215 0
M  V30 6489 H 637.729 -0.398126 -5.71916 0
M  V30 6490 H 636.126 -1.17163 -5.88552 0
M  V30 6491 H 637.196 -1.65588 -4.55751 0
M  V30 6492 N 638.539 1.52521 -0.396863 0
M  V30 6493 C 639.785 2.01971 0.183169 0
M  V30 6494 C 640.118 1.2825 1.45827 0
M  V30 6495 O 639.393 0.385179 1.90648 0
M  V30 6496 C 639.676 3.5736 0.443391 0
M  V30 6497 C 639.529 4.41743 -0.84753 0
M  V30 6498 C 640.848 4.22539 1.2308 0
M  V30 6499 H 637.967 0.734119 0.0650976 0
M  V30 6500 H 640.609 1.82519 -0.527918 0
M  V30 6501 H 638.759 3.74066 1.04914 0
M  V30 6502 H 640.431 4.36773 -1.48414 0
M  V30 6503 H 638.674 4.0845 -1.4612 0
M  V30 6504 H 639.345 5.48507 -0.620003 0
M  V30 6505 H 641.821 4.09857 0.718084 0
M  V30 6506 H 640.697 5.31227 1.38162 0
M  V30 6507 H 640.958 3.80675 2.24808 0
M  V30 6508 N 640.017 0.126909 1.57088 0
M  V30 6509 C 640.949 -0.850973 2.12817 0
M  V30 6510 C 641.962 -1.22457 1.07276 0
M  V30 6511 O 643.151 -1.17215 1.34622 0
M  V30 6512 C 640.251 -2.15039 2.61938 0
M  V30 6513 C 639.424 -1.94726 3.91664 0
M  V30 6514 C 638.483 -3.0847 4.26301 0
M  V30 6515 O 637.509 -2.81038 4.94981 0
M  V30 6516 N 638.711 -4.35116 3.84259 0
M  V30 6517 H 641.476 -0.3748 2.97347 0
M  V30 6518 H 639.037 -0.0572793 1.61799 0
M  V30 6519 H 641.029 -2.90141 2.82135 0
M  V30 6520 H 639.599 -2.5398 1.82244 0
M  V30 6521 H 638.819 -1.03772 3.80296 0
M  V30 6522 H 640.107 -1.78469 4.76473 0
M  V30 6523 H 639.505 -4.60276 3.2888 0
M  V30 6524 H 638.062 -5.07064 4.09548 0
M  V30 6525 N 641.495 -1.56914 -0.146875 0
M  V30 6526 C 642.428 -1.93425 -1.21087 0
M  V30 6527 C 643.406 -0.800106 -1.41552 0
M  V30 6528 O 644.59 -1.05572 -1.56162 0
M  V30 6529 C 641.717 -2.20639 -2.56975 0
M  V30 6530 C 640.763 -3.43279 -2.53104 0
M  V30 6531 S 641.596 -4.96836 -1.99786 0
M  V30 6532 C 642.752 -5.27172 -3.37403 0
M  V30 6533 H 642.985 -2.8337 -0.899378 0
M  V30 6534 H 640.518 -1.50322 -0.352494 0
M  V30 6535 H 642.476 -2.36998 -3.35175 0
M  V30 6536 H 641.137 -1.31357 -2.85314 0
M  V30 6537 H 640.33 -3.59599 -3.53136 0
M  V30 6538 H 639.932 -3.26163 -1.83012 0
M  V30 6539 H 642.224 -5.20647 -4.33513 0
M  V30 6540 H 643.167 -6.28626 -3.25937 0
M  V30 6541 H 643.575 -4.54687 -3.34544 0
M  V30 6542 N 642.974 0.416227 -1.52004 0
M  V30 6543 C 644.39 0.754319 -1.40649 0
M  V30 6544 C 644.59 1.95059 -0.505392 0
M  V30 6545 O 643.646 2.5248 0.0315057 0
M  V30 6546 C 644.959 1.0149 -2.83055 0
M  V30 6547 C 646.507 1.11805 -2.9235 0
M  V30 6548 C 646.982 1.41144 -4.35709 0
M  V30 6549 N 648.473 1.48024 -4.38911 0
M  V30 6550 C 649.208 1.72338 -5.46889 0
M  V30 6551 N 648.704 1.94303 -6.64995 0
M  V30 6552 N 650.497 1.74294 -5.34395 0
M  V30 6553 H 642.648 -0.371324 -2.09129 0
M  V30 6554 H 644.911 -0.103811 -0.942299 0
M  V30 6555 H 644.617 0.208345 -3.51082 0
M  V30 6556 H 644.491 1.93697 -3.23668 0
M  V30 6557 H 646.878 1.91521 -2.24508 0
M  V30 6558 H 646.959 0.17451 -2.55204 0
M  V30 6559 H 646.603 0.619484 -5.04108 0
M  V30 6560 H 646.533 2.36739 -4.70385 0
M  V30 6561 H 649.024 1.32868 -3.53772 0
M  V30 6562 H 649.337 2.12286 -7.43071 0
M  V30 6563 H 647.682 1.91582 -6.68073 0
M  V30 6564 H 650.873 1.56667 -4.41104 0
M  V30 6565 H 651.046 1.92904 -6.18621 0
M  V30 6566 N 644.452 1.42507 0.673017 0
M  V30 6567 C 645.868 1.25472 0.986355 0
M  V30 6568 C 646.068 0.160181 2.00862 0
M  V30 6569 O 645.124 -0.467993 2.48125 0
M  V30 6570 C 646.437 2.61219 1.48947 0
M  V30 6571 C 647.985 2.68589 1.60715 0
M  V30 6572 C 648.46 4.04707 2.14422 0
M  V30 6573 N 649.951 4.0667 2.21752 0
M  V30 6574 C 650.686 5.0881 2.64386 0
M  V30 6575 N 650.182 6.21332 3.0646 0
M  V30 6576 N 651.975 4.96166 2.64151 0
M  V30 6577 H 644.126 2.124 -0.00378532 0
M  V30 6578 H 646.389 0.946046 0.0608367 0
M  V30 6579 H 646.095 3.42179 0.812812 0
M  V30 6580 H 645.969 2.85261 2.46791 0
M  V30 6581 H 648.356 1.87974 2.27486 0
M  V30 6582 H 648.437 2.48333 0.613552 0
M  V30 6583 H 648.081 4.8578 1.48258 0
M  V30 6584 H 648.011 4.22315 3.14575 0
M  V30 6585 H 650.502 3.25438 1.92089 0
M  V30 6586 H 650.815 6.95118 3.37684 0
M  V30 6587 H 649.16 6.24835 3.04313 0
M  V30 6588 H 652.351 4.07334 2.30644 0
M  V30 6589 H 652.524 5.759 2.97057 0
M  V30 6590 N 645.93 -0.909495 1.28709 0
M  V30 6591 C 646.862 -2.01729 1.08804 0
M  V30 6592 C 647.875 -1.62755 0.0384739 0
M  V30 6593 O 649.064 -1.76259 0.281977 0
M  V30 6594 C 646.164 -3.32952 0.63217 0
M  V30 6595 C 645.337 -4.00512 1.75809 0
M  V30 6596 C 644.396 -5.10019 1.29488 0
M  V30 6597 O 643.422 -5.32986 1.99787 0
M  V30 6598 N 644.624 -5.80278 0.1604 0
M  V30 6599 H 647.389 -2.19362 2.04207 0
M  V30 6600 H 644.95 -1.08106 1.20518 0
M  V30 6601 H 646.942 -4.03543 0.305802 0
M  V30 6602 H 645.512 -3.11759 -0.229134 0
M  V30 6603 H 644.732 -3.23413 2.25383 0
M  V30 6604 H 646.02 -4.42395 2.51325 0
M  V30 6605 H 645.418 -5.64094 -0.425937 0
M  V30 6606 H 643.975 -6.51713 -0.106663 0
M  V30 6607 N 647.408 -1.11026 -1.11852 0
M  V30 6608 C 648.358 -0.733836 -2.15868 0
M  V30 6609 C 649.342 0.26001 -1.58785 0
M  V30 6610 O 650.534 0.0677901 -1.7687 0
M  V30 6611 C 647.663 -0.173948 -3.42859 0
M  V30 6612 C 646.749 -1.1952 -4.0691 0
M  V30 6613 N 647.14 -2.38797 -4.45881 0
M  V30 6614 C 645.438 -1.03714 -4.33773 0
M  V30 6615 C 646.139 -3.03894 -4.96007 0
M  V30 6616 N 645.115 -2.31389 -4.91894 0
M  V30 6617 H 648.917 -1.64171 -2.43773 0
M  V30 6618 H 646.431 -0.988877 -1.28822 0
M  V30 6619 H 648.428 0.113836 -4.16745 0
M  V30 6620 H 647.088 0.728568 -3.16421 0
M  V30 6621 H 648.099 -2.76281 -4.38051 0
M  V30 6622 H 644.776 -0.190694 -4.17064 0
M  V30 6623 H 646.166 -4.05389 -5.35826 0
M  V30 6624 N 648.886 1.2938 -0.899927 0
M  V30 6625 C 650.302 1.48052 -0.596059 0
M  V30 6626 C 650.502 1.82114 0.862372 0
M  V30 6627 O 649.558 1.91774 1.64253 0
M  V30 6628 C 650.871 2.59332 -1.52208 0
M  V30 6629 C 652.419 2.73208 -1.5273 0
M  V30 6630 C 652.894 3.87617 -2.43961 0
M  V30 6631 N 654.385 3.9495 -2.42009 0
M  V30 6632 C 655.12 4.82824 -3.09303 0
M  V30 6633 N 654.616 5.75387 -3.85877 0
M  V30 6634 N 656.409 4.76317 -2.98459 0
M  V30 6635 H 648.56 1.05546 -1.8432 0
M  V30 6636 H 650.823 0.524314 -0.78981 0
M  V30 6637 H 650.529 2.41029 -2.56121 0
M  V30 6638 H 650.403 3.56139 -1.24278 0
M  V30 6639 H 652.79 2.90908 -0.495614 0
M  V30 6640 H 652.871 1.76975 -1.84698 0
M  V30 6641 H 652.515 3.70672 -3.47224 0
M  V30 6642 H 652.445 4.83218 -2.09303 0
M  V30 6643 H 654.936 3.28744 -1.86375 0
M  V30 6644 H 655.249 6.39235 -4.34279 0
M  V30 6645 H 653.594 5.75272 -3.89984 0
M  V30 6646 H 656.785 4.0299 -2.38152 0
M  V30 6647 H 656.958 5.44589 -3.51179 0
M  V30 6648 N 650.364 0.662433 1.43002 0
M  V30 6649 C 651.78 0.330835 1.56133 0
M  V30 6650 C 651.98 -1.16454 1.64441 0
M  V30 6651 O 651.036 -1.94964 1.60453 0
M  V30 6652 C 652.349 1.05029 2.81761 0
M  V30 6653 C 653.897 1.03142 2.95518 0
M  V30 6654 C 654.372 1.73196 4.2399 0
M  V30 6655 N 655.863 1.70004 4.30875 0
M  V30 6656 C 656.598 2.21074 5.29069 0
M  V30 6657 N 656.094 2.80473 6.33488 0
M  V30 6658 N 657.887 2.1152 5.20784 0
M  V30 6659 H 650.038 1.63272 1.35853 0
M  V30 6660 H 652.301 0.687149 0.653092 0
M  V30 6661 H 652.007 2.10542 2.81718 0
M  V30 6662 H 651.881 0.607664 3.72273 0
M  V30 6663 H 654.268 -0.0153339 2.95096 0
M  V30 6664 H 654.349 1.51282 2.0627 0
M  V30 6665 H 653.993 2.77833 4.25172 0
M  V30 6666 H 653.923 1.22515 5.1215 0
M  V30 6667 H 656.414 1.26667 3.56039 0
M  V30 6668 H 656.727 3.17094 7.04749 0
M  V30 6669 H 655.072 2.84538 6.34085 0
M  V30 6670 H 658.263 1.64814 4.38126 0
M  V30 6671 H 658.436 2.51629 5.97149 0
M  V30 6672 N 651.842 -1.52309 0.404946 0
M  V30 6673 C 653.09 -2.01368 -0.17186 0
M  V30 6674 C 653.411 -1.29261 -1.46002 0
M  V30 6675 O 652.681 -0.41729 -1.91404 0
M  V30 6676 H 651.261 -0.744034 -0.0664993 0
M  V30 6677 H 653.923 -1.87263 0.540228 0
M  V30 6678 H 653.019 -3.09888 -0.370957 0
M  V30 6679 N 653.32 -0.135238 -1.57019 0
M  V30 6680 C 654.548 0.526066 -2.001 0
M  V30 6681 C 654.963 1.59184 -1.01519 0
M  V30 6682 O 654.32 1.82497 -0.0104258 0
M  V30 6683 C 654.371 1.13744 -3.43139 0
M  V30 6684 O 654.092 0.114259 -4.37951 0
M  V30 6685 C 655.593 1.8805 -4.01438 0
M  V30 6686 H 652.813 0.137962 -0.656664 0
M  V30 6687 H 655.357 -0.226359 -2.03243 0
M  V30 6688 H 653.512 1.84056 -3.40885 0
M  V30 6689 H 653.926 0.56058 -5.21496 0
M  V30 6690 H 655.4 2.26133 -5.03555 0
M  V30 6691 H 655.877 2.76194 -3.41487 0
M  V30 6692 H 656.483 1.22464 -4.07287 0
M  V30 6693 N 654.798 1.5699 0.138552 0
M  V30 6694 C 655.745 1.98899 1.17081 0
M  V30 6695 C 656.715 0.857922 1.42228 0
M  V30 6696 O 657.9 1.12065 1.54422 0
M  V30 6697 C 655.04 2.38189 2.4972 0
M  V30 6698 C 654.153 3.64624 2.31674 0
M  V30 6699 C 653.288 3.9298 3.57407 0
M  V30 6700 C 652.327 5.1266 3.34435 0
M  V30 6701 N 651.464 5.36983 4.5232 0
M  V30 6702 H 656.304 2.86881 0.80642 0
M  V30 6703 H 653.841 1.41925 0.386727 0
M  V30 6704 H 655.799 2.59 3.2707 0
M  V30 6705 H 654.429 1.53275 2.84089 0
M  V30 6706 H 653.481 3.51542 1.45337 0
M  V30 6707 H 654.793 4.52131 2.10664 0
M  V30 6708 H 653.947 4.14335 4.43183 0
M  V30 6709 H 652.686 3.03912 3.8143 0
M  V30 6710 H 651.691 4.9117 2.47048 0
M  V30 6711 H 652.916 6.03288 3.11802 0
M  V30 6712 H 650.862 4.50871 4.76499 0
M  V30 6713 H 650.779 6.18775 4.34343 0
M  V30 6714 H 652.047 5.62842 5.39285 0
M  V30 6715 N 656.276 -0.40816 1.52223 0
M  V30 6716 C 657.524 -1.15274 1.66001 0
M  V30 6717 C 657.845 -1.91003 0.392803 0
M  V30 6718 O 657.115 -1.8673 -0.592336 0
M  V30 6719 H 655.695 -0.428526 0.611861 0
M  V30 6720 H 658.357 -0.46512 1.89269 0
M  V30 6721 H 657.453 -1.86628 2.50153 0
M  V30 6722 N 657.755 -1.42862 -0.66545 0
M  V30 6723 C 659.003 -1.43546 -1.42264 0
M  V30 6724 C 659.324 -0.0563116 -1.94919 0
M  V30 6725 O 658.594 0.906568 -1.73661 0
M  V30 6726 H 657.174 -0.528464 -0.527953 0
M  V30 6727 H 659.836 -1.78363 -0.785665 0
M  V30 6728 H 658.932 -2.14079 -2.27105 0
M  V30 6729 N 659.233 0.902656 -1.29189 0
M  V30 6730 C 660.479 1.65532 -1.17163 0
M  V30 6731 C 660.812 1.92216 0.276879 0
M  V30 6732 O 660.087 1.53048 1.20027 0
M  V30 6733 C 660.37 3.00629 -1.98228 0
M  V30 6734 C 660.223 2.81029 -3.51202 0
M  V30 6735 C 661.542 4.01321 -1.80635 0
M  V30 6736 H 658.661 0.60071 -0.426985 0
M  V30 6737 H 661.303 1.04578 -1.5863 0
M  V30 6738 H 659.453 3.52656 -1.62991 0
M  V30 6739 H 661.125 2.35927 -3.96404 0
M  V30 6740 H 659.368 2.1587 -3.76275 0
M  V30 6741 H 660.039 3.77014 -4.03192 0
M  V30 6742 H 662.515 3.58394 -2.11406 0
M  V30 6743 H 661.391 4.93792 -2.3971 0
M  V30 6744 H 661.652 4.35505 -0.760754 0
M  V30 6745 N 660.711 1.11618 1.11262 0
M  V30 6746 C 661.936 0.889013 1.8738 0
M  V30 6747 C 662.361 -0.555884 1.79698 0
M  V30 6748 O 661.719 -1.39272 1.16073 0
M  V30 6749 C 661.767 1.35759 3.34069 0
M  V30 6750 O 660.871 0.530499 4.08974 0
M  V30 6751 H 660.212 0.320082 0.581759 0
M  V30 6752 H 662.742 1.48611 1.40627 0
M  V30 6753 H 662.752 1.35291 3.84916 0
M  V30 6754 H 661.427 2.40973 3.38976 0
M  V30 6755 H 660.004 0.601439 3.68018 0
M  V30 6756 N 662.189 -1.289 0.906776 0
M  V30 6757 C 663.419 -1.99112 0.551168 0
M  V30 6758 C 663.827 -1.67998 -0.870243 0
M  V30 6759 O 663.17 -0.92525 -1.58697 0
M  V30 6760 C 663.232 -3.53162 0.672065 0
M  V30 6761 C 662.896 -4.07849 2.06174 0
M  V30 6762 C 663.893 -4.22212 3.0337 0
M  V30 6763 C 661.578 -4.4271 2.37304 0
M  V30 6764 C 663.572 -4.70678 4.29815 0
M  V30 6765 C 661.259 -4.90871 3.6399 0
M  V30 6766 C 662.257 -5.04811 4.6006 0
M  V30 6767 O 661.945 -5.51925 5.84495 0
M  V30 6768 H 661.677 -0.642728 0.209469 0
M  V30 6769 H 664.231 -1.65234 1.22012 0
M  V30 6770 H 662.461 -3.86662 -0.05394 0
M  V30 6771 H 664.15 -4.046 0.324579 0
M  V30 6772 H 664.916 -3.9556 2.80637 0
M  V30 6773 H 660.795 -4.31114 1.63283 0
M  V30 6774 H 664.339 -4.81474 5.04806 0
M  V30 6775 H 660.236 -5.16961 3.86551 0
M  V30 6776 H 661.004 -5.70225 5.87185 0
M  V30 6777 N 663.667 -0.670007 -1.42649 0
M  V30 6778 C 665.083 -0.33911 -1.55956 0
M  V30 6779 C 665.283 1.1558 -1.65056 0
M  V30 6780 O 664.339 1.94111 -1.61485 0
M  V30 6781 C 665.652 -1.06522 -2.812 0
M  V30 6782 C 667.2 -1.04708 -2.94966 0
M  V30 6783 C 667.675 -1.75442 -4.23065 0
M  V30 6784 N 669.166 -1.72286 -4.29967 0
M  V30 6785 C 669.901 -2.23877 -5.27889 0
M  V30 6786 N 669.397 -2.83829 -6.31991 0
M  V30 6787 N 671.19 -2.14279 -5.19654 0
M  V30 6788 H 663.341 -1.6399 -1.34986 0
M  V30 6789 H 665.604 -0.690603 -0.649439 0
M  V30 6790 H 665.31 -2.12033 -2.80597 0
M  V30 6791 H 665.184 -0.627398 -3.71946 0
M  V30 6792 H 667.571 -0.000315966 -2.951 0
M  V30 6793 H 667.652 -1.52374 -2.05465 0
M  V30 6794 H 667.296 -2.80084 -4.23693 0
M  V30 6795 H 667.226 -1.25229 -5.11493 0
M  V30 6796 H 669.717 -1.28554 -3.55362 0
M  V30 6797 H 670.03 -3.20827 -7.03057 0
M  V30 6798 H 668.375 -2.87896 -6.32567 0
M  V30 6799 H 671.566 -1.67135 -4.37245 0
M  V30 6800 H 671.739 -2.54792 -5.95806 0
M  V30 6801 N 665.145 1.52092 -0.413018 0
M  V30 6802 C 666.556 1.86617 0.0556967 0
M  V30 6803 C 666.907 1.33156 1.44097 0
M  V30 6804 O 666.032 0.672417 2.05688 0
M  V30 6805 C 666.627 3.38628 0.107844 0
M  V30 6806 C 665.186 3.72778 0.520904 0
M  V30 6807 C 664.333 2.75649 -0.302109 0
M  V30 6808 H 667.284 1.45663 -0.629919 0
M  V30 6809 H 667.305 3.69152 0.922324 0
M  V30 6810 H 666.817 3.77508 -0.900506 0
M  V30 6811 H 664.918 3.39478 1.53575 0
M  V30 6812 H 665.031 4.7838 0.262591 0
M  V30 6813 H 663.395 2.53603 0.236115 0
M  V30 6814 H 664.178 3.17369 -1.30888 0
M  V30 6815 N 666.623 0.143563 1.56945 0
M  V30 6816 C 667.586 -0.783295 2.154 0
M  V30 6817 C 668.586 -1.17763 1.09492 0
M  V30 6818 O 669.776 -1.09912 1.35148 0
M  V30 6819 C 666.908 -2.06248 2.7143 0
M  V30 6820 H 668.101 -0.274863 2.98638 0
M  V30 6821 H 665.654 -0.105859 1.55941 0
M  V30 6822 H 666.389 -2.61466 1.91849 0
M  V30 6823 H 666.174 -1.78897 3.4891 0
M  V30 6824 H 667.664 -2.72453 3.16479 0
M  V30 6825 N 668.101 -1.57061 -0.130224 0
M  V30 6826 C 669.011 -2.02802 -1.17934 0
M  V30 6827 C 670.027 -0.946378 -1.46013 0
M  V30 6828 O 671.203 -1.25708 -1.57351 0
M  V30 6829 C 668.268 -2.41368 -2.48882 0
M  V30 6830 C 667.329 -3.63561 -2.28301 0
M  V30 6831 C 666.562 -4.00279 -3.53005 0
M  V30 6832 O 666.785 -3.37463 -4.59864 0
M  V30 6833 O 665.719 -4.93441 -3.44673 0
M  V30 6834 H 669.545 -2.92394 -0.820958 0
M  V30 6835 H 667.13 -1.45475 -0.340197 0
M  V30 6836 H 669.012 -2.66958 -3.26054 0
M  V30 6837 H 667.687 -1.54926 -2.84217 0
M  V30 6838 H 666.594 -3.43136 -1.49025 0
M  V30 6839 H 667.927 -4.50673 -1.97875 0
M  V30 6840 N 669.579 0.400081 -1.52437 0
M  V30 6841 C 670.825 1.14788 -1.67187 0
M  V30 6842 C 671.158 1.89928 -0.405074 0
M  V30 6843 O 670.433 1.85118 0.596804 0
M  V30 6844 C 670.716 2.13507 -2.89977 0
M  V30 6845 C 670.569 1.42204 -4.2673 0
M  V30 6846 C 671.888 3.14069 -3.083 0
M  V30 6847 H 669.007 0.415939 -0.608411 0
M  V30 6848 H 671.649 0.432542 -1.85011 0
M  V30 6849 H 669.799 2.7451 -2.74912 0
M  V30 6850 H 671.471 0.842503 -4.53541 0
M  V30 6851 H 669.714 0.723939 -4.27717 0
M  V30 6852 H 670.385 2.14281 -5.08712 0
M  V30 6853 H 672.861 2.63148 -3.22323 0
M  V30 6854 H 671.737 3.80398 -3.95713 0
M  V30 6855 H 671.998 3.82309 -2.22018 0
M  V30 6856 N 671.057 1.43213 0.657864 0
M  V30 6857 C 672.02 1.47687 1.75275 0
M  V30 6858 C 673.02 0.362179 1.56668 0
M  V30 6859 O 674.21 0.623734 1.62651 0
M  V30 6860 C 671.342 1.32497 3.14098 0
M  V30 6861 H 672.535 2.4519 1.7269 0
M  V30 6862 H 670.088 1.2991 0.869087 0
M  V30 6863 H 670.823 0.359831 3.22298 0
M  V30 6864 H 670.608 2.13299 3.29008 0
M  V30 6865 H 672.098 1.38549 3.93946 0
M  V30 6866 N 672.536 -0.895792 1.29666 0
M  V30 6867 C 673.446 -2.03329 1.17024 0
M  V30 6868 C 674.462 -1.73753 0.0925962 0
M  V30 6869 O 675.638 -1.99071 0.305431 0
M  V30 6870 C 672.703 -3.36072 0.851841 0
M  V30 6871 C 671.764 -3.7914 2.01373 0
M  V30 6872 C 670.997 -5.05549 1.71043 0
M  V30 6873 O 671.22 -5.66874 0.633213 0
M  V30 6874 O 670.154 -5.44764 2.5596 0
M  V30 6875 H 673.98 -2.16918 2.12556 0
M  V30 6876 H 671.565 -1.02007 1.09156 0
M  V30 6877 H 673.447 -4.15729 0.689006 0
M  V30 6878 H 672.122 -3.23616 -0.0736634 0
M  V30 6879 H 671.029 -3.00233 2.23183 0
M  V30 6880 H 672.362 -3.96186 2.92058 0
M  V30 6881 N 674.014 -1.12206 -1.10668 0
M  V30 6882 C 675.242 -0.898635 -1.86366 0
M  V30 6883 C 675.657 0.551991 -1.80551 0
M  V30 6884 O 675.014 1.38152 -1.19249 0
M  V30 6885 C 675.065 -1.36199 -3.34861 0
M  V30 6886 O 674.786 -2.75576 -3.40573 0
M  V30 6887 C 676.287 -1.17515 -4.2744 0
M  V30 6888 H 673.507 -0.321281 -0.589084 0
M  V30 6889 H 676.051 -1.49142 -1.39918 0
M  V30 6890 H 674.206 -0.81249 -3.78784 0
M  V30 6891 H 674.62 -2.95851 -4.33096 0
M  V30 6892 H 676.094 -1.54827 -5.29842 0
M  V30 6893 H 676.571 -0.115486 -4.39048 0
M  V30 6894 H 677.177 -1.71203 -3.89319 0
M  V30 6895 N 675.492 1.28418 -0.913599 0
M  V30 6896 C 676.74 1.94596 -0.545594 0
M  V30 6897 C 677.061 1.7227 0.913668 0
M  V30 6898 O 676.331 1.06233 1.64595 0
M  V30 6899 H 674.911 0.720065 -0.198783 0
M  V30 6900 H 677.573 1.56404 -1.16292 0
M  V30 6901 H 676.669 3.03202 -0.739911 0
M  V30 6902 N 676.97 0.677563 1.42291 0
M  V30 6903 C 677.933 0.0101085 2.29198 0
M  V30 6904 C 678.933 -0.726219 1.43467 0
M  V30 6905 O 680.123 -0.563807 1.64824 0
M  V30 6906 C 677.255 -0.996316 3.26016 0
M  V30 6907 H 678.448 0.775071 2.89711 0
M  V30 6908 H 676.001 0.440065 1.49977 0
M  V30 6909 H 676.736 -1.78967 2.70446 0
M  V30 6910 H 676.521 -0.471687 3.89253 0
M  V30 6911 H 678.011 -1.46167 3.91184 0
M  V30 6912 O 678.487 -1.51362 0.563185 0
M  V30 6913 H 679.178 -1.936 0.0623735 0
M  V30 END ATOM
M  V30 BEGIN BOND
M  V30 END BOND
M  V30 END CTAB
M  END
$$$$
