drugbank_target|Q8IB78 Nucleoside transporter 2 (DB11638)
 OpenBabel12092121123D

  0  0  0     0  0            999 V3000
M  V30 BEGIN CTAB
M  V30 COUNTS 9654 9749 0 0 0
M  V30 BEGIN ATOM
M  V30 1 H -0.908 1.98254 -0.117106 0
M  V30 2 N 0 1.576 0 0
M  V30 3 C 0.933 2.03868 1.02534 0
M  V30 4 C 1.911 0.928543 1.3348 0
M  V30 5 O 3.095 1.19667 1.45644 0
M  V30 6 C 0.222 2.43627 2.35294 0
M  V30 7 C -0.732 3.65373 2.2001 0
M  V30 8 S 0.101 5.13292 1.52614 0
M  V30 9 C 1.257 5.56322 2.86805 0
M  V30 10 H 1.49 2.90518 0.631377 0
M  V30 11 H -0.977 1.52953 0.210867 0
M  V30 12 H 0.981 2.67203 3.11629 0
M  V30 13 H -0.358 1.57376 2.7183 0
M  V30 14 H -1.165 3.90944 3.18086 0
M  V30 15 H -1.563 3.418 1.51819 0
M  V30 16 H 0.729 5.58782 3.83104 0
M  V30 17 H 1.672 6.56266 2.65933 0
M  V30 18 H 2.08 4.83886 2.90714 0
M  V30 19 N 1.4781 -0.272755 1.55222 0
M  V30 20 C 2.7031 -1.02683 1.80197 0
M  V30 21 C 3.1281 -1.79142 0.573551 0
M  V30 22 O 2.4861 -1.74917 -0.476849 0
M  V30 23 C 2.5341 -1.9609 3.02624 0
M  V30 24 O 1.6381 -3.04863 2.77727 0
M  V30 25 H 0.9791 -0.293557 0.595584 0
M  V30 26 H 3.5091 -0.30159 2.02365 0
M  V30 27 H 3.5191 -2.38039 3.31363 0
M  V30 28 H 2.1941 -1.39851 3.91682 0
M  V30 29 H 0.7711 -2.67228 2.60084 0
M  V30 30 N 2.9562 -1.48159 -0.537278 0
M  V30 31 C 3.9042 -1.62573 -1.66352 0
M  V30 32 C 4.8982 -0.492366 -1.62087 0
M  V30 33 O 6.1042 -0.670847 -1.67032 0
M  V30 34 H 2.4792 -0.511992 -0.550789 0
M  V30 35 H 4.4502 -2.57176 -1.51337 0
M  V30 36 C 3.1992 -1.67583 -3.04649 0
M  V30 37 H 2.5222 -2.54151 -3.08622 0
M  V30 38 H 3.9622 -1.81713 -3.83088 0
M  V30 39 C 2.4212 -0.413039 -3.34358 0
M  V30 40 O 2.9512 0.477259 -3.98855 0
M  V30 41 N 1.1572 -0.286961 -2.8918 0
M  V30 42 H 0.7042 -1.01241 -2.36871 0
M  V30 43 H 0.6622 0.556963 -3.09427 0
M  V30 44 N 4.4343 0.785586 -1.36625 0
M  V30 45 C 5.6593 1.57963 -1.34397 0
M  V30 46 C 6.0843 1.87964 0.071526 0
M  V30 47 O 5.4423 1.48182 1.0446 0
M  V30 48 C 5.4903 2.87511 -2.17646 0
M  V30 49 O 4.5943 3.81281 -1.57158 0
M  V30 50 H 3.9353 0.479014 -0.459828 0
M  V30 51 H 6.4653 0.973411 -1.79961 0
M  V30 52 H 6.4753 3.36745 -2.30362 0
M  V30 53 H 5.1503 2.65002 -3.20541 0
M  V30 54 H 3.7273 3.39885 -1.53403 0
M  V30 55 N 5.9124 1.20967 1.01018 0
M  V30 56 C 6.8604 0.961223 2.1181 0
M  V30 57 C 7.8544 -0.0897034 1.69162 0
M  V30 58 O 9.0604 0.0612271 1.79896 0
M  V30 59 H 5.4354 0.29355 0.692338 0
M  V30 60 H 7.4064 1.90178 2.29946 0
M  V30 61 C 6.1554 0.536854 3.4353 0
M  V30 62 H 5.4784 1.33713 3.76777 0
M  V30 63 H 6.9184 0.402286 4.22087 0
M  V30 64 C 5.3774 -0.751574 3.2841 0
M  V30 65 O 5.9074 -1.80841 3.58691 0
M  V30 66 N 4.1134 -0.716079 2.81639 0
M  V30 67 H 3.6604 0.144236 2.57196 0
M  V30 68 H 3.6184 -1.57847 2.71904 0
M  V30 69 N 7.3905 -1.2043 1.01659 0
M  V30 70 C 8.6155 -1.94318 0.724942 0
M  V30 71 C 9.0405 -1.74266 -0.708034 0
M  V30 72 O 8.3985 -1.03694 -1.48719 0
M  V30 73 C 8.4465 -3.44486 1.06591 0
M  V30 74 O 7.5505 -4.12017 0.177599 0
M  V30 75 H 6.8915 -0.60708 0.26898 0
M  V30 76 H 9.4215 -1.52861 1.35995 0
M  V30 77 H 9.4315 -3.95106 1.01762 0
M  V30 78 H 8.1065 -3.58404 2.10997 0
M  V30 79 H 6.6835 -3.71821 0.283421 0
M  V30 80 N 8.8686 -0.792821 -1.36206 0
M  V30 81 C 9.8156 -0.191653 -2.30003 0
M  V30 82 C 10.7856 0.666453 -1.52143 0
M  V30 83 O 11.9706 0.61442 -1.80636 0
M  V30 84 C 9.1106 0.664848 -3.38635 0
M  V30 85 C 8.2236 -0.212175 -4.31479 0
M  V30 86 C 7.3586 0.651022 -5.27196 0
M  V30 87 C 6.3976 -0.227247 -6.11678 0
M  V30 88 N 5.5346 0.595127 -6.99573 0
M  V30 89 H 10.3746 -0.996978 -2.80828 0
M  V30 90 H 7.9116 -0.503206 -1.38225 0
M  V30 91 H 9.8696 1.17645 -4.00269 0
M  V30 92 H 8.4996 1.43557 -2.89122 0
M  V30 93 H 7.5516 -0.841777 -3.70969 0
M  V30 94 H 8.8636 -0.888751 -4.90818 0
M  V30 95 H 8.0176 1.2283 -5.94136 0
M  V30 96 H 6.7566 1.36121 -4.68319 0
M  V30 97 H 5.7616 -0.816904 -5.43697 0
M  V30 98 H 6.9866 -0.93509 -6.72631 0
M  V30 99 H 4.9326 1.28955 -6.432 0
M  V30 100 H 4.8496 -0.0236952 -7.55996 0
M  V30 101 H 6.1176 1.15613 -7.70879 0
M  V30 102 N 10.3467 1.47872 -0.545128 0
M  V30 103 C 11.2567 2.33633 0.212746 0
M  V30 104 C 12.2727 1.4744 0.923983 0
M  V30 105 O 13.4487 1.80393 0.895572 0
M  V30 106 C 10.5137 3.23884 1.23693 0
M  V30 107 C 9.5747 4.25961 0.534417 0
M  V30 108 C 8.8077 5.11899 1.5098 0
M  V30 109 O 9.0307 5.00077 2.7437 0
M  V30 110 O 7.9647 5.92831 1.0409 0
M  V30 111 H 11.7907 2.99714 -0.490416 0
M  V30 112 H 9.3757 1.46235 -0.305871 0
M  V30 113 H 11.2577 3.79666 1.82843 0
M  V30 114 H 9.9327 2.60446 1.92222 0
M  V30 115 H 8.8397 3.73972 -0.0979679 0
M  V30 116 H 10.1727 4.92079 -0.109213 0
M  V30 117 N 11.8248 0.280983 1.55075 0
M  V30 118 C 12.7748 -0.618585 2.19448 0
M  V30 119 C 13.7588 -1.11401 1.16098 0
M  V30 120 O 14.9508 -1.0581 1.41891 0
M  V30 121 C 12.0798 -1.79951 2.92357 0
M  V30 122 C 11.1658 -1.321 4.03002 0
M  V30 123 N 11.5568 -0.559044 5.02701 0
M  V30 124 C 9.8548 -1.60346 4.16179 0
M  V30 125 C 10.5558 -0.306722 5.80891 0
M  V30 126 N 9.5318 -0.880825 5.36416 0
M  V30 127 H 13.3338 -0.0286638 2.93886 0
M  V30 128 H 10.8478 0.0848104 1.62178 0
M  V30 129 H 12.8448 -2.45531 3.36927 0
M  V30 130 H 11.5048 -2.39333 2.19431 0
M  V30 131 H 12.5158 -0.205827 5.17491 0
M  V30 132 H 9.1928 -2.20621 3.54447 0
M  V30 133 H 10.5828 0.30391 6.71212 0
M  V30 134 N 13.3029 -1.57598 0.00835791 0
M  V30 135 C 14.5329 -1.94931 -0.684496 0
M  V30 136 C 14.9409 -0.882233 -1.67372 0
M  V30 137 O 14.2839 0.146621 -1.83114 0
M  V30 138 C 14.3459 -3.283 -1.4649 0
M  V30 139 C 14.0099 -4.52548 -0.63634 0
M  V30 140 C 15.0069 -5.19839 0.0795586 0
M  V30 141 C 12.6919 -4.98942 -0.579849 0
M  V30 142 C 14.6859 -6.3183 0.840843 0
M  V30 143 C 12.3729 -6.10819 0.185155 0
M  V30 144 C 13.3709 -6.77121 0.894227 0
M  V30 145 O 13.0589 -7.86853 1.64673 0
M  V30 146 H 12.7909 -0.647249 -0.19505 0
M  V30 147 H 15.3449 -2.05318 0.0581272 0
M  V30 148 H 13.5749 -3.14345 -2.2522 0
M  V30 149 H 15.2639 -3.50685 -2.04389 0
M  V30 150 H 16.0299 -4.84979 0.0451202 0
M  V30 151 H 11.9089 -4.47155 -1.1213 0
M  V30 152 H 15.4529 -6.83513 1.39483 0
M  V30 153 H 11.3499 -6.4512 0.221384 0
M  V30 154 H 12.1179 -8.03412 1.56432 0
M  V30 155 N 14.781 0.264519 -1.55364 0
M  V30 156 C 16.197 0.61215 -1.47394 0
M  V30 157 C 16.397 1.89134 -0.695018 0
M  V30 158 O 15.453 2.51563 -0.217275 0
M  V30 159 C 16.766 0.731235 -2.91674 0
M  V30 160 C 18.314 0.82473 -3.01939 0
M  V30 161 C 18.789 0.975522 -4.4749 0
M  V30 162 N 20.28 1.04083 -4.51354 0
M  V30 163 C 21.015 1.17646 -5.61201 0
M  V30 164 N 20.511 1.27874 -6.80896 0
M  V30 165 N 22.304 1.20823 -5.48961 0
M  V30 166 H 14.455 -0.575456 -2.04456 0
M  V30 167 H 16.718 -0.196099 -0.927496 0
M  V30 168 H 16.424 -0.138392 -3.51428 0
M  V30 169 H 16.298 1.60883 -3.41169 0
M  V30 170 H 18.685 1.68482 -2.42276 0
M  V30 171 H 18.766 -0.0776479 -2.55682 0
M  V30 172 H 18.41 0.120058 -5.07758 0
M  V30 173 H 18.34 1.89268 -4.91412 0
M  V30 174 H 20.831 0.973846 -3.65136 0
M  V30 175 H 21.144 1.38081 -7.60364 0
M  V30 176 H 19.489 1.24863 -6.83692 0
M  V30 177 H 22.68 1.12469 -4.54388 0
M  V30 178 H 22.853 1.31049 -6.3461 0
M  V30 179 N 16.2591 1.48442 0.529413 0
M  V30 180 C 17.1921 1.57577 1.65059 0
M  V30 181 C 18.1701 0.426198 1.56915 0
M  V30 182 O 19.3541 0.637877 1.77379 0
M  V30 183 C 16.4811 1.5043 3.03461 0
M  V30 184 C 15.5271 2.70235 3.29962 0
M  V30 185 S 16.3601 4.32198 3.16172 0
M  V30 186 C 17.5161 4.2765 4.57019 0
M  V30 187 H 17.7491 2.52427 1.5706 0
M  V30 188 H 15.2821 1.36982 0.712417 0
M  V30 189 H 17.2401 1.46992 3.8328 0
M  V30 190 H 15.9011 0.569167 3.089 0
M  V30 191 H 15.0941 2.61374 4.30929 0
M  V30 192 H 14.6961 2.70938 2.57815 0
M  V30 193 H 16.9881 3.97618 5.48549 0
M  V30 194 H 17.9311 5.28797 4.70934 0
M  V30 195 H 18.3391 3.5811 4.36368 0
M  V30 196 N 17.7372 -0.778329 1.37039 0
M  V30 197 C 19.0142 -1.52551 1.22424 0
M  V30 198 C 19.3942 -2.10288 -0.184964 0
M  V30 199 O 18.7422 -1.94953 -1.19187 0
M  V30 200 C 18.9522 -2.61164 2.31504 0
M  V30 201 C 20.3002 -3.28746 2.68721 0
M  V30 202 O 21.3242 -2.71455 2.30631 0
M  V30 203 O 20.1832 -4.3231 3.3432 0
M  V30 204 H 17.2772 -0.675343 0.477326 0
M  V30 205 H 19.8232 -0.815859 1.48801 0
M  V30 206 H 18.5952 -2.16574 3.25901 0
M  V30 207 H 18.2182 -3.39737 2.06554 0
M  V30 208 N 19.2153 -1.21501 -1.00376 0
M  V30 209 C 20.4633 -1.03095 -1.73827 0
M  V30 210 C 20.7843 0.436341 -1.90055 0
M  V30 211 O 20.0543 1.31466 -1.45236 0
M  V30 212 H 18.6343 -0.378487 -0.644016 0
M  V30 213 H 21.2963 -1.52831 -1.20949 0
M  V30 214 H 20.3923 -1.49991 -2.73695 0
M  V30 215 N 20.6934 1.19889 -1.02296 0
M  V30 216 C 21.9424 1.88743 -0.711257 0
M  V30 217 C 22.2554 1.80112 0.762817 0
M  V30 218 O 23.4614 2.44161 1.18733 0
M  V30 219 C 21.9174 3.38525 -1.22185 0
M  V30 220 C 21.5254 3.55727 -2.72328 0
M  V30 221 C 23.2694 4.12893 -0.985864 0
M  V30 222 C 21.1764 4.99369 -3.16835 0
M  V30 223 H 20.1064 0.706885 -0.262353 0
M  V30 224 H 22.7574 1.35586 -1.23648 0
M  V30 225 H 21.1394 3.91044 -0.624571 0
M  V30 226 H 22.3134 3.13564 -3.3766 0
M  V30 227 H 20.6284 2.94739 -2.9414 0
M  V30 228 H 23.2254 5.18813 -1.29374 0
M  V30 229 H 23.5684 4.16228 0.0775055 0
M  V30 230 H 24.1014 3.66494 -1.54684 0
M  V30 231 H 20.8404 5.01193 -4.22476 0
M  V30 232 H 20.3604 5.42317 -2.56228 0
M  V30 233 H 22.0394 5.67988 -3.09837 0
M  V30 234 N 22.1715 0.800033 1.35784 0
M  V30 235 C 23.3995 0.389606 2.03199 0
M  V30 236 C 23.8145 -0.997375 1.60306 0
M  V30 237 O 23.1715 -1.64154 0.797481 0
M  V30 238 C 23.2225 0.455855 3.58614 0
M  V30 239 O 22.9435 1.78815 3.99946 0
M  V30 240 C 24.4445 0.0374032 4.43284 0
M  V30 241 H 21.6645 0.159132 0.651857 0
M  V30 242 H 24.2085 1.08183 1.73541 0
M  V30 243 H 22.3635 -0.188057 3.86943 0
M  V30 244 H 22.7775 1.74636 4.94573 0
M  V30 245 H 24.2515 0.134882 5.51835 0
M  V30 246 H 24.7285 -1.01651 4.27275 0
M  V30 247 H 25.3345 0.654215 4.20238 0
M  V30 248 N 23.6496 -1.47581 0.552962 0
M  V30 249 C 24.5596 -2.33743 -0.200353 0
M  V30 250 C 25.5756 -1.47928 -0.916151 0
M  V30 251 O 26.7516 -1.80865 -0.885993 0
M  V30 252 C 23.8166 -3.24536 -1.21973 0
M  V30 253 C 22.8776 -4.26238 -0.511819 0
M  V30 254 C 22.1106 -5.12693 -1.48263 0
M  V30 255 O 22.3336 -5.01525 -2.71714 0
M  V30 256 O 21.2676 -5.93375 -1.00945 0
M  V30 257 H 25.0936 -2.9945 0.506304 0
M  V30 258 H 22.6786 -1.46071 0.313622 0
M  V30 259 H 24.5606 -3.80631 -1.80827 0
M  V30 260 H 23.2356 -2.61462 -1.90839 0
M  V30 261 H 22.1426 -3.73914 0.117799 0
M  V30 262 H 23.4756 -4.92014 0.135308 0
M  V30 263 N 25.1277 -0.289203 -1.54924 0
M  V30 264 C 26.0757 0.607966 -2.24514 0
M  V30 265 C 27.0697 1.14655 -1.24702 0
M  V30 266 O 28.2757 1.09856 -1.4259 0
M  V30 267 H 24.6507 0.21464 -0.720718 0
M  V30 268 H 26.6217 -0.00164182 -2.984 0
M  V30 269 C 25.3707 1.77406 -2.99036 0
M  V30 270 H 24.6937 1.36884 -3.75637 0
M  V30 271 H 26.1337 2.37814 -3.51028 0
M  V30 272 C 24.5927 2.67107 -2.05318 0
M  V30 273 O 25.1227 3.6787 -1.61353 0
M  V30 274 N 23.3287 2.34582 -1.71521 0
M  V30 275 H 22.8757 1.52688 -2.07471 0
M  V30 276 H 22.8337 2.94867 -1.0909 0
M  V30 277 N 26.6058 1.57591 -0.0167156 0
M  V30 278 C 27.5528 2.09462 0.969251 0
M  V30 279 C 28.5228 0.99381 1.33089 0
M  V30 280 O 29.7078 1.26726 1.42636 0
M  V30 281 C 26.8478 2.61622 2.25051 0
M  V30 282 C 25.9608 3.85666 1.94642 0
M  V30 283 C 25.0958 4.26266 3.16972 0
M  V30 284 C 24.1348 5.43101 2.82326 0
M  V30 285 N 23.2718 5.78915 3.97243 0
M  V30 286 H 28.1118 2.93428 0.519997 0
M  V30 287 H 25.6488 1.45044 0.245087 0
M  V30 288 H 27.6068 2.89949 2.99976 0
M  V30 289 H 26.2368 1.80505 2.67615 0
M  V30 290 H 25.2888 3.64145 1.10013 0
M  V30 291 H 26.6008 4.70678 1.65117 0
M  V30 292 H 25.7548 4.55963 4.00228 0
M  V30 293 H 24.4938 3.39996 3.49648 0
M  V30 294 H 23.4988 5.1311 1.97479 0
M  V30 295 H 24.7238 6.3106 2.50879 0
M  V30 296 H 22.6698 4.95602 4.29785 0
M  V30 297 H 22.5868 6.58539 3.71299 0
M  V30 298 H 23.8548 6.13212 4.81239 0
M  V30 299 N 28.0839 -0.256276 1.55502 0
M  V30 300 C 29.3329 -0.983486 1.76098 0
M  V30 301 C 29.6459 -1.86837 0.578896 0
M  V30 302 O 30.8519 -2.63163 0.667648 0
M  V30 303 C 29.3079 -1.79868 3.1173 0
M  V30 304 C 28.9159 -0.961648 4.37557 0
M  V30 305 C 30.6599 -2.51919 3.41668 0
M  V30 306 C 28.5669 -1.77219 5.64223 0
M  V30 307 H 27.4969 -0.370936 0.656447 0
M  V30 308 H 30.1479 -0.238492 1.81944 0
M  V30 309 H 28.5299 -2.58527 2.99966 0
M  V30 310 H 29.7039 -0.218048 4.60284 0
M  V30 311 H 28.0189 -0.354913 4.14885 0
M  V30 312 H 30.6159 -3.12998 4.33516 0
M  V30 313 H 30.9589 -3.23059 2.62562 0
M  V30 314 H 31.4919 -1.80278 3.54605 0
M  V30 315 H 28.2309 -1.10471 6.46124 0
M  V30 316 H 27.7509 -2.49132 5.45613 0
M  V30 317 H 29.4299 -2.34169 6.03137 0
M  V30 318 N 29.562 -1.4872 -0.521534 0
M  V30 319 C 30.811 -1.56419 -1.27341 0
M  V30 320 C 31.124 -0.246805 -1.94037 0
M  V30 321 O 32.33 -0.202122 -2.70747 0
M  V30 322 C 30.786 -2.75896 -2.31105 0
M  V30 323 C 30.394 -4.14311 -1.70441 0
M  V30 324 C 32.138 -2.92913 -3.07249 0
M  V30 325 C 30.045 -5.25038 -2.72194 0
M  V30 326 H 28.975 -0.582344 -0.478949 0
M  V30 327 H 31.626 -1.75071 -0.549779 0
M  V30 328 H 30.008 -2.50697 -3.06541 0
M  V30 329 H 31.182 -4.49564 -1.01136 0
M  V30 330 H 29.497 -4.02482 -1.06759 0
M  V30 331 H 32.094 -3.72805 -3.83302 0
M  V30 332 H 32.437 -2.02689 -3.63625 0
M  V30 333 H 32.97 -3.18054 -2.38928 0
M  V30 334 H 29.709 -6.17255 -2.20627 0
M  V30 335 H 29.229 -4.94263 -3.39801 0
M  V30 336 H 30.908 -5.53508 -3.35019 0
M  V30 337 N 31.0401 0.771051 -1.3745 0
M  V30 338 C 31.9881 1.90574 -1.33358 0
M  V30 339 C 32.9821 1.67936 -0.22224 0
M  V30 340 O 34.1881 1.75717 -0.390304 0
M  V30 341 H 30.5631 0.626714 -0.415612 0
M  V30 342 H 32.5341 1.91142 -2.29144 0
M  V30 343 C 31.2831 3.27845 -1.15813 0
M  V30 344 H 30.6061 3.45842 -2.00583 0
M  V30 345 H 32.0461 4.07538 -1.17 0
M  V30 346 C 30.5051 3.36625 0.136165 0
M  V30 347 O 31.0351 3.85785 1.11949 0
M  V30 348 N 29.2411 2.89997 0.187099 0
M  V30 349 H 28.7881 2.50182 -0.613753 0
M  V30 350 H 28.7461 2.96252 1.05272 0
M  V30 351 N 32.5182 1.22032 0.997298 0
M  V30 352 C 33.4282 1.00271 2.12092 0
M  V30 353 C 34.4442 -0.047621 1.73935 0
M  V30 354 O 35.6202 0.144136 2.00884 0
M  V30 355 C 32.6852 0.578449 3.4184 0
M  V30 356 C 31.7462 1.70189 3.94125 0
M  V30 357 C 30.9792 1.29778 5.17681 0
M  V30 358 O 31.2022 0.174676 5.70132 0
M  V30 359 O 30.1362 2.11261 5.63607 0
M  V30 360 H 33.9622 1.94398 2.3333 0
M  V30 361 H 31.5472 1.00587 1.10465 0
M  V30 362 H 33.4292 0.351998 4.19927 0
M  V30 363 H 32.1042 -0.334019 3.21972 0
M  V30 364 H 31.0112 1.98282 3.1723 0
M  V30 365 H 32.3442 2.59206 4.18417 0
M  V30 366 N 33.9963 -1.19345 1.0293 0
M  V30 367 C 35.2733 -1.84811 0.640642 0
M  V30 368 C 35.6533 -1.91855 -0.88062 0
M  V30 369 O 35.0013 -1.43587 -1.7775 0
M  V30 370 C 35.2113 -3.23755 1.30321 0
M  V30 371 C 36.5593 -3.99912 1.42673 0
M  V30 372 O 37.5833 -3.33155 1.26041 0
M  V30 373 O 36.4423 -5.19494 1.6967 0
M  V30 374 H 33.5363 -0.796443 0.222726 0
M  V30 375 H 36.0823 -1.26831 1.12748 0
M  V30 376 H 34.8543 -3.13466 2.34211 0
M  V30 377 H 34.4773 -3.89381 0.804261 0
M  V30 378 N 35.4744 -0.807222 -1.35358 0
M  V30 379 C 36.7514 -0.311126 -1.9311 0
M  V30 380 C 37.1314 1.19937 -1.73719 0
M  V30 381 O 36.4794 1.99918 -1.10657 0
M  V30 382 C 36.6894 -0.723226 -3.41424 0
M  V30 383 C 38.0374 -0.713078 -4.18569 0
M  V30 384 O 39.0614 -0.664811 -3.49941 0
M  V30 385 O 37.9204 -0.772022 -5.41019 0
M  V30 386 H 35.0144 -0.081526 -0.822972 0
M  V30 387 H 37.5604 -0.890962 -1.4443 0
M  V30 388 H 36.3324 -1.76426 -3.4927 0
M  V30 389 H 35.9554 -0.118232 -3.97424 0
M  V30 390 N 36.9525 1.47285 -0.560781 0
M  V30 391 C 37.8625 2.33846 0.187954 0
M  V30 392 C 38.8785 1.48412 0.908293 0
M  V30 393 O 40.0545 1.81332 0.876388 0
M  V30 394 C 37.1195 3.25178 1.2025 0
M  V30 395 C 36.1805 4.26504 0.489208 0
M  V30 396 C 35.4135 5.13472 1.45542 0
M  V30 397 O 35.6365 5.02959 2.6905 0
M  V30 398 O 34.5705 5.93902 0.977963 0
M  V30 399 H 38.3965 2.99177 -0.522177 0
M  V30 400 H 35.9815 1.45903 -0.321364 0
M  V30 401 H 37.8635 3.81584 1.78805 0
M  V30 402 H 36.5385 2.6247 1.89449 0
M  V30 403 H 35.4455 3.73847 -0.137627 0
M  V30 404 H 36.7785 4.91935 -0.161399 0
M  V30 405 N 38.4306 0.297415 1.54768 0
M  V30 406 C 39.6556 -0.318435 2.04941 0
M  V30 407 C 40.0806 -1.4701 1.17345 0
M  V30 408 O 39.4386 -1.80436 0.176758 0
M  V30 409 C 39.4866 -0.755749 3.52592 0
M  V30 410 O 38.5906 -1.86088 3.68028 0
M  V30 411 H 37.9316 -0.062421 0.661059 0
M  V30 412 H 40.4616 0.438215 1.99852 0
M  V30 413 H 40.4716 -1.04552 3.94376 0
M  V30 414 H 39.1466 0.0867233 4.1581 0
M  V30 415 H 37.7236 -1.57193 3.38149 0
M  V30 416 N 39.9087 -1.5758 0.0250728 0
M  V30 417 C 40.8387 -2.13007 -0.956575 0
M  V30 418 C 41.8197 -1.0452 -1.342 0
M  V30 419 O 43.0047 -1.32332 -1.42133 0
M  V30 420 C 40.1347 -2.65386 -2.24026 0
M  V30 421 C 39.0887 -3.78623 -1.99571 0
M  V30 422 C 38.4147 -4.17414 -3.3417 0
M  V30 423 C 39.7147 -5.04867 -1.33814 0
M  V30 424 H 41.4087 -2.9528 -0.494991 0
M  V30 425 H 38.9547 -1.42042 -0.236651 0
M  V30 426 H 40.9077 -3.02794 -2.93076 0
M  V30 427 H 39.6317 -1.80268 -2.72343 0
M  V30 428 H 38.2907 -3.41646 -1.32941 0
M  V30 429 H 37.9387 -3.29284 -3.80238 0
M  V30 430 H 37.6387 -4.93719 -3.18615 0
M  V30 431 H 39.1627 -4.57402 -4.04495 0
M  V30 432 H 40.5767 -5.39888 -1.92857 0
M  V30 433 H 38.9737 -5.86144 -1.28669 0
M  V30 434 H 40.0437 -4.83904 -0.310561 0
M  V30 435 N 41.3868 0.248026 -1.55636 0
M  V30 436 C 42.3168 1.31079 -1.93237 0
M  V30 437 C 43.2978 1.50264 -0.797174 0
M  V30 438 O 44.4828 1.62891 -1.05737 0
M  V30 439 C 41.6128 2.66575 -2.22609 0
M  V30 440 C 40.5668 2.62087 -3.3837 0
M  V30 441 C 39.8928 4.01369 -3.53281 0
M  V30 442 C 41.1928 2.19171 -4.7409 0
M  V30 443 H 42.8868 0.998556 -2.82257 0
M  V30 444 H 40.4328 0.47891 -1.35803 0
M  V30 445 H 42.3858 3.41057 -2.47503 0
M  V30 446 H 41.1098 2.99432 -1.30414 0
M  V30 447 H 39.7688 1.90063 -3.13483 0
M  V30 448 H 39.4168 4.31489 -2.58508 0
M  V30 449 H 39.1168 3.99254 -4.31127 0
M  V30 450 H 40.6408 4.77552 -3.80495 0
M  V30 451 H 42.0548 2.83384 -4.98363 0
M  V30 452 H 40.4518 2.2817 -5.5503 0
M  V30 453 H 41.5218 1.14336 -4.71227 0
M  V30 454 N 42.8649 1.48995 0.513639 0
M  V30 455 C 43.8129 1.65199 1.63744 0
M  V30 456 C 44.8069 0.51809 1.61283 0
M  V30 457 O 46.0129 0.697335 1.65943 0
M  V30 458 H 42.3879 0.52069 0.542574 0
M  V30 459 H 44.3589 2.59552 1.47226 0
M  V30 460 C 43.1079 1.72409 3.01945 0
M  V30 461 H 42.4309 2.59029 3.04539 0
M  V30 462 H 43.8709 1.87785 3.80148 0
M  V30 463 C 42.3299 0.46618 3.33659 0
M  V30 464 O 42.8599 -0.413744 3.99564 0
M  V30 465 N 41.0659 0.332931 2.88687 0
M  V30 466 H 40.6129 1.04996 2.35231 0
M  V30 467 H 40.5709 -0.507665 3.10274 0
M  V30 468 N 44.343 -0.763751 1.37857 0
M  V30 469 C 45.276 -1.88486 1.28639 0
M  V30 470 C 46.254 -1.61757 0.165363 0
M  V30 471 O 47.438 -1.85391 0.340948 0
M  V30 472 C 44.565 -3.23884 0.990811 0
M  V30 473 C 43.611 -3.69514 2.12983 0
M  V30 474 S 44.444 -3.82244 3.75033 0
M  V30 475 C 45.6 -5.20477 3.47641 0
M  V30 476 H 45.833 -1.96017 2.23527 0
M  V30 477 H 43.366 -0.925684 1.23574 0
M  V30 478 H 45.324 -4.02081 0.827101 0
M  V30 479 H 43.985 -3.14044 0.0592832 0
M  V30 480 H 43.178 -4.67696 1.87821 0
M  V30 481 H 42.78 -2.98441 2.25408 0
M  V30 482 H 45.072 -6.05905 3.03125 0
M  V30 483 H 46.015 -5.50655 4.4518 0
M  V30 484 H 46.423 -4.88793 2.82385 0
M  V30 485 N 45.8211 -1.22559 -0.990812 0
M  V30 486 C 46.7681 -0.997519 -2.0813 0
M  V30 487 C 47.7381 0.0814702 -1.659 0
M  V30 488 O 48.9231 -0.0685424 -1.90677 0
M  V30 489 C 46.0631 -0.583615 -3.40129 0
M  V30 490 C 45.1761 -1.7336 -3.9569 0
M  V30 491 C 44.3111 -1.26748 -5.15857 0
M  V30 492 C 43.3501 -2.38888 -5.63559 0
M  V30 493 N 42.4871 -1.93308 -6.74964 0
M  V30 494 H 47.3271 -1.93099 -2.26973 0
M  V30 495 H 44.8641 -0.962114 -1.11273 0
M  V30 496 H 46.8221 -0.324801 -4.15934 0
M  V30 497 H 45.4521 0.312845 -3.2128 0
M  V30 498 H 44.5041 -2.10669 -3.16738 0
M  V30 499 H 45.8161 -2.57704 -4.27071 0
M  V30 500 H 44.9701 -0.966173 -5.98957 0
M  V30 501 H 43.7091 -0.394272 -4.86104 0
M  V30 502 H 42.7141 -2.69805 -4.79046 0
M  V30 503 H 43.9391 -3.26728 -5.95336 0
M  V30 504 H 41.8851 -1.08352 -6.4699 0
M  V30 505 H 41.8021 -2.71217 -7.05675 0
M  V30 506 H 43.0701 -1.66252 -7.61564 0
M  V30 507 N 47.2992 1.18797 -1.03562 0
M  V30 508 C 48.2462 2.22253 -0.622259 0
M  V30 509 C 49.2162 1.61987 0.36736 0
M  V30 510 O 50.4012 1.88986 0.262492 0
M  V30 511 C 47.5412 3.45097 0.0138462 0
M  V30 512 C 46.6542 4.19722 -1.02263 0
M  V30 513 C 45.7892 5.30009 -0.355573 0
M  V30 514 C 44.8282 5.96399 -1.37749 0
M  V30 515 N 43.9652 6.98234 -0.735766 0
M  V30 516 H 48.8052 2.56968 -1.50903 0
M  V30 517 H 46.3422 1.26245 -0.755017 0
M  V30 518 H 48.3002 4.15279 0.399948 0
M  V30 519 H 46.9302 3.11018 0.864158 0
M  V30 520 H 45.9822 3.48418 -1.52673 0
M  V30 521 H 47.2942 4.65227 -1.79903 0
M  V30 522 H 46.4482 6.0664 0.0850095 0
M  V30 523 H 45.1872 4.85592 0.452967 0
M  V30 524 H 44.1922 5.18512 -1.82826 0
M  V30 525 H 45.4172 6.42899 -2.18764 0
M  V30 526 H 43.3632 6.55979 0.0525597 0
M  V30 527 H 43.2802 7.41965 -1.44995 0
M  V30 528 H 44.5482 7.78845 -0.31941 0
M  V30 529 N 48.7773 0.814389 1.34928 0
M  V30 530 C 49.6873 0.231978 2.3345 0
M  V30 531 C 50.7033 -0.629139 1.62228 0
M  V30 532 O 51.8793 -0.539052 1.94052 0
M  V30 533 C 48.9443 -0.603482 3.41407 0
M  V30 534 C 48.0053 0.279037 4.28392 0
M  V30 535 C 47.2383 -0.516643 5.31193 0
M  V30 536 O 47.4613 -1.75068 5.4287 0
M  V30 537 O 46.3953 0.0965652 6.01823 0
M  V30 538 H 50.2213 1.04721 2.85074 0
M  V30 539 H 47.8063 0.576343 1.37836 0
M  V30 540 H 49.6883 -1.07908 4.0735 0
M  V30 541 H 48.3633 -1.39618 2.92042 0
M  V30 542 H 47.2703 0.801948 3.65403 0
M  V30 543 H 48.6033 1.03588 4.81176 0
M  V30 544 N 50.2554 -1.46986 0.568584 0
M  V30 545 C 51.1654 -2.33942 -0.17555 0
M  V30 546 C 52.1814 -1.48891 -0.90041 0
M  V30 547 O 53.3574 -1.81794 -0.86676 0
M  V30 548 C 50.4224 -3.25811 -1.18524 0
M  V30 549 C 49.4834 -4.26757 -0.466582 0
M  V30 550 C 48.7164 -5.14236 -1.42817 0
M  V30 551 O 48.9394 -5.04379 -2.66379 0
M  V30 552 O 47.8734 -5.94412 -0.946453 0
M  V30 553 H 51.6994 -2.98896 0.538036 0
M  V30 554 H 49.2844 -1.4573 0.329097 0
M  V30 555 H 51.1664 -3.82527 -1.76779 0
M  V30 556 H 49.8414 -2.63471 -1.88055 0
M  V30 557 H 48.7484 -3.73769 0.157451 0
M  V30 558 H 50.0814 -4.91843 0.187485 0
M  V30 559 N 51.7335 -0.305618 -1.54608 0
M  V30 560 C 52.9825 0.303098 -1.9941 0
M  V30 561 C 53.2955 1.54648 -1.19764 0
M  V30 562 O 54.5015 2.23007 -1.54855 0
M  V30 563 C 52.9575 0.590588 -3.55021 0
M  V30 564 C 52.5655 -0.634719 -4.43481 0
M  V30 565 C 54.3095 1.16025 -4.08336 0
M  V30 566 C 52.2165 -0.320126 -5.90533 0
M  V30 567 H 51.1465 0.117031 -0.744862 0
M  V30 568 H 53.7975 -0.415045 -1.78745 0
M  V30 569 H 52.1795 1.36845 -3.71604 0
M  V30 570 H 53.3535 -1.41079 -4.38672 0
M  V30 571 H 51.6685 -1.12333 -4.00962 0
M  V30 572 H 54.2655 1.40994 -5.15776 0
M  V30 573 H 54.6085 2.10397 -3.5922 0
M  V30 574 H 55.1415 0.443985 -3.95315 0
M  V30 575 H 51.8805 -1.23254 -6.43808 0
M  V30 576 H 51.4005 0.418579 -5.98338 0
M  V30 577 H 53.0795 0.0766241 -6.46955 0
M  V30 578 N 53.2116 1.57565 -0.0334293 0
M  V30 579 C 54.4606 1.91155 0.643639 0
M  V30 580 C 54.7736 0.91192 1.73042 0
M  V30 581 O 55.9796 1.13923 2.46442 0
M  V30 582 C 54.4356 3.39443 1.1961 0
M  V30 583 C 54.0436 4.47774 0.142381 0
M  V30 584 C 55.7876 3.82094 1.84944 0
M  V30 585 C 53.6946 5.87162 0.706727 0
M  V30 586 H 52.6246 0.713368 0.244176 0
M  V30 587 H 55.2756 1.8323 -0.0994323 0
M  V30 588 H 53.6576 3.42313 1.99092 0
M  V30 589 H 54.8316 4.56469 -0.630296 0
M  V30 590 H 53.1466 4.14352 -0.412446 0
M  V30 591 H 55.7436 4.83591 2.2813 0
M  V30 592 H 56.0866 3.17386 2.69392 0
M  V30 593 H 56.6196 3.81665 1.12145 0
M  V30 594 H 53.3586 6.55424 -0.0997178 0
M  V30 595 H 52.8786 5.82064 1.44779 0
M  V30 596 H 54.5576 6.35866 1.19514 0
M  V30 597 N 54.6897 -0.239769 1.55765 0
M  V30 598 C 55.6197 -1.30052 1.9393 0
M  V30 599 C 56.6007 -1.49839 0.805132 0
M  V30 600 O 57.7857 -1.62328 1.06599 0
M  V30 601 C 54.9157 -2.65391 2.2402 0
M  V30 602 C 53.8697 -2.60289 3.39755 0
M  V30 603 C 53.1957 -3.99489 3.55405 0
M  V30 604 C 54.4957 -2.16654 4.75246 0
M  V30 605 H 56.1897 -0.983573 2.82783 0
M  V30 606 H 53.7357 -0.471701 1.36055 0
M  V30 607 H 55.6887 -3.3974 2.49308 0
M  V30 608 H 54.4127 -2.98736 1.32 0
M  V30 609 H 53.0717 -1.88398 3.14487 0
M  V30 610 H 52.7197 -4.30112 2.60793 0
M  V30 611 H 52.4197 -3.96962 4.33238 0
M  V30 612 H 53.9437 -4.75528 3.83022 0
M  V30 613 H 55.3577 -2.80737 4.99859 0
M  V30 614 H 53.7547 -2.25223 5.56232 0
M  V30 615 H 54.8247 -1.11835 4.71827 0
M  V30 616 N 56.1678 -1.49265 -0.50573 0
M  V30 617 C 57.1158 -1.66065 -1.62866 0
M  V30 618 C 58.1098 -0.526636 -1.61006 0
M  V30 619 O 59.3158 -0.706126 -1.65571 0
M  V30 620 H 55.6908 -0.52356 -0.539805 0
M  V30 621 H 57.6618 -2.60329 -1.45848 0
M  V30 622 C 56.4108 -1.74008 -3.01026 0
M  V30 623 H 55.7338 -2.6064 -3.03161 0
M  V30 624 H 57.1738 -1.89798 -3.79147 0
M  V30 625 C 55.6328 -0.483868 -3.33407 0
M  V30 626 O 56.1628 0.392548 -3.99777 0
M  V30 627 N 54.3688 -0.348236 -2.88506 0
M  V30 628 H 53.9158 -1.06242 -2.34671 0
M  V30 629 H 53.8738 0.491204 -3.10539 0
M  V30 630 N 57.6459 0.756429 -1.3826 0
M  V30 631 C 58.8939 1.51248 -1.34047 0
M  V30 632 C 59.2149 1.94875 0.0698372 0
M  V30 633 O 58.4849 1.67436 1.01696 0
M  V30 634 H 57.0649 0.561018 -0.493222 0
M  V30 635 H 59.7269 0.899347 -1.7291 0
M  V30 636 H 58.8229 2.40472 -1.98947 0
M  V30 637 N 59.124 1.23083 0.984299 0
M  V30 638 C 60.071 1.00854 2.07598 0
M  V30 639 C 61.041 -0.0726709 1.65941 0
M  V30 640 O 62.226 0.0786535 1.90638 0
M  V30 641 C 59.366 0.601645 3.39815 0
M  V30 642 C 58.479 1.75456 3.94765 0
M  V30 643 C 57.614 1.29482 5.15177 0
M  V30 644 C 56.653 2.41873 5.62284 0
M  V30 645 N 55.79 1.96885 6.73929 0
M  V30 646 H 60.63 1.943 2.25946 0
M  V30 647 H 58.167 0.968001 1.10762 0
M  V30 648 H 60.125 0.346854 4.15756 0
M  V30 649 H 58.755 -0.295803 3.21442 0
M  V30 650 H 57.807 2.12346 3.15616 0
M  V30 651 H 59.119 2.59965 4.25699 0
M  V30 652 H 58.273 0.997923 5.98437 0
M  V30 653 H 57.012 0.420046 4.85888 0
M  V30 654 H 56.017 2.72342 4.77608 0
M  V30 655 H 57.242 3.29881 5.93595 0
M  V30 656 H 55.188 1.11782 6.46406 0
M  V30 657 H 55.105 2.74956 7.04227 0
M  V30 658 H 56.373 1.70289 7.60672 0
M  V30 659 N 60.6021 -1.18246 1.0419 0
M  V30 660 C 61.8491 -1.88257 0.746017 0
M  V30 661 C 62.1771 -1.80429 -0.726331 0
M  V30 662 O 61.4321 -1.2 -1.54591 0
M  V30 663 C 61.7311 -3.38082 1.15911 0
M  V30 664 C 61.3971 -3.66114 2.63195 0
M  V30 665 C 60.0591 -3.73474 3.03432 0
M  V30 666 C 62.4111 -3.78398 3.5842 0
M  V30 667 C 59.7391 -3.90599 4.37778 0
M  V30 668 C 62.0911 -3.97039 4.92487 0
M  V30 669 C 60.7551 -4.02635 5.32392 0
M  V30 670 H 60.0251 -0.688883 0.272987 0
M  V30 671 H 62.6721 -1.3995 1.30715 0
M  V30 672 H 60.9771 -3.88377 0.516806 0
M  V30 673 H 62.6741 -3.90596 0.907516 0
M  V30 674 H 59.2641 -3.61003 2.3103 0
M  V30 675 H 63.4481 -3.72042 3.28479 0
M  V30 676 H 58.7041 -3.93175 4.68213 0
M  V30 677 H 62.8781 -4.05486 5.66175 0
M  V30 678 H 60.5051 -4.15657 6.36501 0
M  V30 679 N 62.0802 -0.821533 -1.34494 0
M  V30 680 C 62.9902 -0.244355 -2.33324 0
M  V30 681 C 64.0062 0.620527 -1.62559 0
M  V30 682 O 65.1822 0.528754 -1.94335 0
M  V30 683 C 62.2472 0.585368 -3.41723 0
M  V30 684 C 61.3082 -0.301752 -4.28238 0
M  V30 685 C 60.5412 0.488466 -5.3146 0
M  V30 686 O 60.7642 1.72186 -5.4379 0
M  V30 687 O 59.6982 -0.12848 -6.01763 0
M  V30 688 H 63.5242 -1.06231 -2.84515 0
M  V30 689 H 61.1092 -0.583645 -1.37528 0
M  V30 690 H 62.9912 1.05747 -4.07916 0
M  V30 691 H 61.6662 1.38068 -2.92778 0
M  V30 692 H 60.5732 -0.821315 -3.64973 0
M  V30 693 H 61.9062 -1.06138 -4.8062 0
M  V30 694 N 63.5583 1.46682 -0.576371 0
M  V30 695 C 64.4683 2.34032 0.163141 0
M  V30 696 C 65.4843 1.49367 0.892501 0
M  V30 697 O 66.6603 1.82252 0.857106 0
M  V30 698 C 63.7253 3.26435 1.16795 0
M  V30 699 C 62.7863 4.26998 0.443944 0
M  V30 700 C 62.0193 5.14986 1.40088 0
M  V30 701 O 62.2423 5.05785 2.637 0
M  V30 702 O 61.1763 5.94906 0.914917 0
M  V30 703 H 65.0023 2.98607 -0.55388 0
M  V30 704 H 62.5873 1.45554 -0.336821 0
M  V30 705 H 64.4693 3.83459 1.74748 0
M  V30 706 H 63.1443 2.64465 1.86655 0
M  V30 707 H 62.0513 3.7368 -0.177271 0
M  V30 708 H 63.3843 4.91736 -0.213566 0
M  V30 709 N 65.0364 0.313813 1.54444 0
M  V30 710 C 65.9464 -0.565714 2.27677 0
M  V30 711 C 66.9624 -1.13754 1.31666 0
M  V30 712 O 68.1384 -1.15959 1.64668 0
M  V30 713 C 65.2034 -1.71528 3.01296 0
M  V30 714 C 64.2644 -1.17624 4.12872 0
M  V30 715 C 63.4974 -2.27102 4.8297 0
M  V30 716 O 63.7204 -3.47256 4.52514 0
M  V30 717 O 62.6544 -1.9307 5.70094 0
M  V30 718 H 66.4804 0.0287296 3.03686 0
M  V30 719 H 64.0654 0.0798312 1.49187 0
M  V30 720 H 65.9474 -2.38476 3.4743 0
M  V30 721 H 64.6224 -2.29608 2.2817 0
M  V30 722 H 63.5294 -0.472124 3.71109 0
M  V30 723 H 64.8624 -0.640695 4.88012 0
M  V30 724 N 66.5145 -1.57545 0.0417849 0
M  V30 725 C 67.9255 -1.80011 -0.495259 0
M  V30 726 C 68.2765 -0.953199 -1.71489 0
M  V30 727 O 67.4015 -0.167138 -2.15754 0
M  V30 728 C 67.9965 -3.26482 -0.905265 0
M  V30 729 C 66.5555 -3.499 -1.38734 0
M  V30 730 C 65.7025 -2.74979 -0.358056 0
M  V30 731 H 68.6535 -1.56425 0.267736 0
M  V30 732 H 68.6745 -3.36887 -1.76882 0
M  V30 733 H 68.1865 -3.88096 -0.017401 0
M  V30 734 H 66.2875 -2.93553 -2.29471 0
M  V30 735 H 66.4005 -4.58615 -1.38598 0
M  V30 736 H 64.7645 -2.40834 -0.828912 0
M  V30 737 H 65.5475 -3.39315 0.521561 0
M  V30 738 N 67.9926 0.231505 -1.5589 0
M  V30 739 C 68.9396 1.28682 -1.91598 0
M  V30 740 C 69.9096 1.47071 -0.771974 0
M  V30 741 O 71.0946 1.60802 -1.027 0
M  V30 742 C 68.2346 2.6342 -2.22944 0
M  V30 743 C 67.3476 2.52912 -3.50228 0
M  V30 744 C 66.4826 3.80106 -3.7107 0
M  V30 745 C 65.5216 3.64279 -4.91902 0
M  V30 746 N 64.6586 4.834 -5.09184 0
M  V30 747 H 69.4986 0.975305 -2.81588 0
M  V30 748 H 67.0356 0.470299 -1.39379 0
M  V30 749 H 68.9936 3.41869 -2.39126 0
M  V30 750 H 67.6236 2.92687 -1.36139 0
M  V30 751 H 66.6756 1.6595 -3.42294 0
M  V30 752 H 67.9876 2.37133 -4.38827 0
M  V30 753 H 67.1416 4.66999 -3.87295 0
M  V30 754 H 65.8806 3.98799 -2.80733 0
M  V30 755 H 64.8856 2.7577 -4.75637 0
M  V30 756 H 66.1106 3.47067 -5.83714 0
M  V30 757 H 64.0566 5.02425 -4.21788 0
M  V30 758 H 63.9736 4.70311 -5.91898 0
M  V30 759 H 65.2416 5.71747 -5.29835 0
M  V30 760 N 69.4707 1.49531 0.497807 0
M  V30 761 C 70.4007 1.6935 1.60757 0
M  V30 762 C 71.3817 0.542218 1.61227 0
M  V30 763 O 72.5667 0.778417 1.77917 0
M  V30 764 C 69.6967 1.76298 2.99226 0
M  V30 765 C 68.6507 2.91248 3.13622 0
M  V30 766 C 67.9767 2.83312 4.53474 0
M  V30 767 C 69.2767 4.3214 2.93346 0
M  V30 768 H 70.9707 2.62263 1.44425 0
M  V30 769 H 68.5167 1.26208 0.693367 0
M  V30 770 H 70.4697 1.88749 3.76765 0
M  V30 771 H 69.1937 0.799871 3.16654 0
M  V30 772 H 67.8527 2.78404 2.38509 0
M  V30 773 H 67.5007 1.84902 4.67782 0
M  V30 774 H 67.2007 3.60465 4.64046 0
M  V30 775 H 68.7247 2.97775 5.33069 0
M  V30 776 H 70.1387 4.45649 3.60652 0
M  V30 777 H 68.5357 5.1054 3.15387 0
M  V30 778 H 69.6057 4.46363 1.89441 0
M  V30 779 N 70.9488 -0.749086 1.3866 0
M  V30 780 C 72.2258 -1.4992 1.25632 0
M  V30 781 C 72.6058 -2.10633 -0.140317 0
M  V30 782 O 71.9538 -1.97437 -1.15025 0
M  V30 783 C 72.1638 -2.56195 2.36992 0
M  V30 784 C 73.5118 -3.22972 2.75634 0
M  V30 785 O 74.5358 -2.66502 2.36337 0
M  V30 786 O 73.3948 -4.25122 3.43415 0
M  V30 787 H 70.4888 -0.665067 0.491544 0
M  V30 788 H 73.0348 -0.784113 1.50498 0
M  V30 789 H 71.8068 -2.09612 3.30422 0
M  V30 790 H 71.4298 -3.35279 2.13714 0
M  V30 791 N 72.4269 -1.23603 -0.977757 0
M  V30 792 C 73.3569 -1.04401 -2.0886 0
M  V30 793 C 74.3379 0.0399052 -1.70053 0
M  V30 794 O 75.5229 -0.125246 -1.93796 0
M  V30 795 C 72.6529 -0.637269 -3.41403 0
M  V30 796 C 71.6069 -1.66883 -3.94124 0
M  V30 797 C 70.9329 -1.11745 -5.22893 0
M  V30 798 C 72.2329 -3.06247 -4.23096 0
M  V30 799 H 73.9269 -1.97316 -2.25182 0
M  V30 800 H 71.4729 -0.950096 -1.08209 0
M  V30 801 H 73.4259 -0.48998 -4.18542 0
M  V30 802 H 72.1499 0.327557 -3.24953 0
M  V30 803 H 70.8089 -1.80416 -3.19133 0
M  V30 804 H 70.4569 -0.143527 -5.02795 0
M  V30 805 H 70.1569 -1.80672 -5.59134 0
M  V30 806 H 71.6809 -0.982067 -6.02651 0
M  V30 807 H 73.0949 -2.96001 -4.90975 0
M  V30 808 H 71.4919 -3.72436 -4.70544 0
M  V30 809 H 72.5619 -3.55041 -3.30263 0
M  V30 810 N 73.905 1.17692 -1.04816 0
M  V30 811 C 75.133 1.91786 -0.776254 0
M  V30 812 C 75.548 1.76604 0.667577 0
M  V30 813 O 74.905 1.10067 1.45573 0
M  V30 814 C 74.956 3.42967 -1.14263 0
M  V30 815 O 74.677 3.57678 -2.52978 0
M  V30 816 C 76.178 4.34144 -0.896311 0
M  V30 817 H 73.398 0.608624 -0.282519 0
M  V30 818 H 75.942 1.49268 -1.39783 0
M  V30 819 H 74.097 3.83245 -0.565874 0
M  V30 820 H 74.511 4.51319 -2.67229 0
M  V30 821 H 75.985 5.38744 -1.20244 0
M  V30 822 H 76.462 4.38876 0.168636 0
M  V30 823 H 77.068 3.99574 -1.45672 0
M  V30 824 N 75.3831 0.828654 1.34056 0
M  V30 825 C 76.2931 0.256725 2.33191 0
M  V30 826 C 77.3091 -0.611898 1.62886 0
M  V30 827 O 78.4851 -0.51844 1.94613 0
M  V30 828 C 75.5501 -0.567238 3.42028 0
M  V30 829 C 74.6111 0.324458 4.28072 0
M  V30 830 C 73.8441 -0.460274 5.31712 0
M  V30 831 O 74.0671 -1.693 5.44696 0
M  V30 832 O 73.0011 0.160391 6.01686 0
M  V30 833 H 76.8271 1.07739 2.83947 0
M  V30 834 H 74.4121 0.59093 1.37217 0
M  V30 835 H 76.2941 -1.03582 4.08471 0
M  V30 836 H 74.9691 -1.36513 2.93506 0
M  V30 837 H 73.8761 0.840659 3.64532 0
M  V30 838 H 75.2091 1.08685 4.8005 0
M  V30 839 N 76.8612 -1.46375 0.584142 0
M  V30 840 C 77.8092 -2.32042 -0.161047 0
M  V30 841 C 78.8032 -1.44569 -0.882966 0
M  V30 842 O 80.0092 -1.61186 -0.801191 0
M  V30 843 H 76.3842 -0.748659 -0.0708033 0
M  V30 844 H 78.3552 -2.92704 0.580269 0
M  V30 845 C 77.1042 -3.27762 -1.1605 0
M  V30 846 H 76.4272 -3.95051 -0.614419 0
M  V30 847 H 77.8672 -3.90481 -1.65228 0
M  V30 848 C 76.3262 -2.53218 -2.22221 0
M  V30 849 O 76.8562 -2.29628 -3.29597 0
M  V30 850 N 75.0622 -2.13756 -1.96868 0
M  V30 851 H 74.6092 -2.33142 -1.09557 0
M  V30 852 H 74.5672 -1.642 -2.68115 0
M  V30 853 N 78.3393 -0.321999 -1.54275 0
M  V30 854 C 79.2863 0.544664 -2.24281 0
M  V30 855 C 80.2563 1.1129 -1.23303 0
M  V30 856 O 81.4413 1.15354 -1.51981 0
M  V30 857 C 78.5813 1.70045 -3.00298 0
M  V30 858 C 77.6943 1.16159 -4.1609 0
M  V30 859 C 76.8293 2.28293 -4.79641 0
M  V30 860 C 75.8683 1.71648 -5.8754 0
M  V30 861 N 75.0053 2.77438 -6.44959 0
M  V30 862 H 79.8453 -0.0588907 -2.97942 0
M  V30 863 H 77.3823 -0.0408345 -1.47043 0
M  V30 864 H 79.3403 2.38054 -3.42616 0
M  V30 865 H 77.9703 2.27531 -2.28975 0
M  V30 866 H 77.0223 0.373092 -3.78566 0
M  V30 867 H 78.3343 0.707087 -4.93763 0
M  V30 868 H 77.4883 3.0421 -5.2492 0
M  V30 869 H 76.2273 2.77079 -4.01346 0
M  V30 870 H 75.2323 0.942282 -5.41665 0
M  V30 871 H 76.4573 1.23741 -6.67731 0
M  V30 872 H 74.4033 3.25519 -5.69538 0
M  V30 873 H 74.3203 2.36547 -7.1804 0
M  V30 874 H 75.5883 3.53189 -6.94894 0
M  V30 875 N 79.8174 1.5752 -0.0501392 0
M  V30 876 C 81.0664 1.91827 0.623328 0
M  V30 877 C 81.3794 0.930222 1.72065 0
M  V30 878 O 82.5854 1.1653 2.4522 0
M  V30 879 C 81.0414 3.40692 1.16003 0
M  V30 880 C 80.6494 4.479 0.0948811 0
M  V30 881 C 82.3934 3.84034 1.80881 0
M  V30 882 C 80.3004 5.87879 0.644411 0
M  V30 883 H 79.2304 0.715918 0.236596 0
M  V30 884 H 81.8814 1.83115 -0.118861 0
M  V30 885 H 80.2634 3.44405 1.9545 0
M  V30 886 H 81.4374 4.55775 -0.678675 0
M  V30 887 H 79.7524 4.13892 -0.45637 0
M  V30 888 H 82.3494 4.85984 2.22988 0
M  V30 889 H 82.6924 3.20225 2.6601 0
M  V30 890 H 83.2254 3.82833 1.0809 0
M  V30 891 H 79.9644 6.55282 -0.169229 0
M  V30 892 H 79.4844 5.83567 1.38598 0
M  V30 893 H 81.1634 6.37098 1.12763 0
M  V30 894 N 81.2955 -0.223234 1.56011 0
M  V30 895 C 82.5725 -0.972108 1.69733 0
M  V30 896 C 82.9525 -2.02485 0.59691 0
M  V30 897 O 82.3005 -2.25037 -0.396324 0
M  V30 898 C 82.5105 -1.58407 3.10979 0
M  V30 899 C 83.8585 -2.07696 3.70334 0
M  V30 900 O 84.8825 -1.68304 3.1393 0
M  V30 901 O 83.7415 -2.80096 4.69264 0
M  V30 902 H 80.8355 -0.453993 0.691245 0
M  V30 903 H 83.3815 -0.215149 1.68331 0
M  V30 904 H 82.1535 -0.823831 3.82529 0
M  V30 905 H 81.7765 -2.40661 3.16493 0
M  V30 906 N 82.7736 -1.49793 -0.48987 0
M  V30 907 C 84.0226 -1.59085 -1.23995 0
M  V30 908 C 84.3356 -0.287907 -1.9347 0
M  V30 909 O 85.5416 -0.259506 -2.70257 0
M  V30 910 C 83.9976 -2.80736 -2.252 0
M  V30 911 C 83.6056 -4.17833 -1.61614 0
M  V30 912 C 85.3496 -2.99364 -3.00967 0
M  V30 913 C 83.2566 -5.30693 -2.60996 0
M  V30 914 H 82.1866 -0.592372 -0.466488 0
M  V30 915 H 84.8376 -1.76197 -0.51252 0
M  V30 916 H 83.2196 -2.57142 -3.01154 0
M  V30 917 H 84.3936 -4.51608 -0.915774 0
M  V30 918 H 82.7086 -4.04656 -0.981977 0
M  V30 919 H 85.3056 -3.80851 -3.75308 0
M  V30 920 H 85.6486 -2.10356 -3.59244 0
M  V30 921 H 86.1816 -3.2305 -2.32128 0
M  V30 922 H 82.9206 -6.21796 -2.07485 0
M  V30 923 H 82.4406 -5.01359 -3.2924 0
M  V30 924 H 84.1196 -5.6049 -3.23202 0
M  V30 925 N 84.2517 0.741722 -1.39055 0
M  V30 926 C 85.1617 1.88621 -1.39496 0
M  V30 927 C 86.1777 1.71557 -0.290578 0
M  V30 928 O 87.3537 1.94275 -0.530954 0
M  V30 929 C 84.4187 3.24134 -1.23037 0
M  V30 930 C 83.4797 3.5364 -2.43387 0
M  V30 931 C 82.7127 4.82687 -2.27703 0
M  V30 932 O 82.9357 5.55922 -1.27696 0
M  V30 933 O 81.8697 5.1194 -3.16545 0
M  V30 934 H 85.6957 1.91203 -2.35956 0
M  V30 935 H 83.2807 0.888625 -1.20099 0
M  V30 936 H 85.1627 4.0513 -1.15964 0
M  V30 937 H 83.8377 3.22337 -0.296691 0
M  V30 938 H 82.7447 2.72758 -2.56035 0
M  V30 939 H 84.0777 3.60209 -3.35425 0
M  V30 940 N 85.7298 1.2412 0.971189 0
M  V30 941 C 86.6398 1.04747 2.09917 0
M  V30 942 C 87.6558 -0.0107162 1.73997 0
M  V30 943 O 88.8318 0.186714 2.00533 0
M  V30 944 C 85.8968 0.650828 3.40537 0
M  V30 945 C 84.9578 1.7851 3.90426 0
M  V30 946 C 84.1908 1.40729 5.14812 0
M  V30 947 O 84.4138 0.29557 5.69634 0
M  V30 948 O 83.3478 2.23168 5.58999 0
M  V30 949 H 87.1738 1.99304 2.29154 0
M  V30 950 H 84.7588 1.02908 1.08307 0
M  V30 951 H 86.6408 0.440992 4.19086 0
M  V30 952 H 85.3158 -0.265649 3.22608 0
M  V30 953 H 84.2228 2.04966 3.12953 0
M  V30 954 H 85.5558 2.68023 4.12825 0
M  V30 955 N 87.2079 -1.17134 1.05439 0
M  V30 956 C 88.1549 -2.21235 0.657539 0
M  V30 957 C 89.1249 -1.62551 -0.341543 0
M  V30 958 O 90.3099 -1.89379 -0.232393 0
M  V30 959 C 87.4499 -3.45076 0.0410575 0
M  V30 960 C 86.5629 -4.18042 1.08927 0
M  V30 961 C 85.6979 -5.29376 0.439848 0
M  V30 962 C 84.7369 -5.94132 1.4722 0
M  V30 963 N 83.8739 -6.96975 0.846756 0
M  V30 964 H 88.7139 -2.54534 1.54972 0
M  V30 965 H 86.2509 -1.25028 0.775006 0
M  V30 966 H 88.2089 -4.15862 -0.33383 0
M  V30 967 H 86.8389 -3.12353 -0.814568 0
M  V30 968 H 85.8909 -3.45945 1.58196 0
M  V30 969 H 87.2029 -4.62306 1.87282 0
M  V30 970 H 86.3569 -6.06699 0.0115125 0
M  V30 971 H 85.0959 -4.86251 -0.375656 0
M  V30 972 H 84.1009 -5.15538 1.91052 0
M  V30 973 H 85.3259 -6.39337 2.28965 0
M  V30 974 H 83.2719 -6.5598 0.0518075 0
M  V30 975 H 83.1889 -7.39565 1.5678 0
M  V30 976 H 84.4569 -7.78239 0.443277 0
M  V30 977 N 88.686 -0.835752 -1.33615 0
M  V30 978 C 89.634 -0.255238 -2.31195 0
M  V30 979 C 90.628 0.61107 -1.57995 0
M  V30 980 O 91.834 0.500979 -1.72888 0
M  V30 981 H 88.209 -0.0638085 -0.749288 0
M  V30 982 H 90.18 -1.09283 -2.77669 0
M  V30 983 C 88.929 0.55754 -3.43201 0
M  V30 984 H 88.252 -0.0997553 -3.99676 0
M  V30 985 H 89.692 0.929622 -4.13683 0
M  V30 986 C 88.151 1.73515 -2.88781 0
M  V30 987 O 88.681 2.83376 -2.84712 0
M  V30 988 N 86.887 1.55603 -2.4543 0
M  V30 989 H 86.434 0.662354 -2.48939 0
M  V30 990 H 86.392 2.34545 -2.09371 0
M  V30 991 N 90.1641 1.46063 -0.591896 0
M  V30 992 C 91.1121 2.32124 0.148739 0
M  V30 993 C 92.1061 1.45035 0.875286 0
M  V30 994 O 93.3121 1.61609 0.792632 0
M  V30 995 H 89.6871 0.749024 0.066832 0
M  V30 996 H 91.6581 2.92392 -0.595783 0
M  V30 997 C 90.4071 3.28373 1.1431 0
M  V30 998 H 89.7301 3.95371 0.59346 0
M  V30 999 H 91.1701 3.91352 1.63155 0
M  V30 1000 C 89.6291 2.54393 2.20875 0
M  V30 1001 O 90.1591 2.31373 3.28374 0
M  V30 1002 N 88.3651 2.14797 1.95731 0
M  V30 1003 H 87.9121 2.33719 1.08319 0
M  V30 1004 H 87.8701 1.65619 2.67241 0
M  V30 1005 N 91.6422 0.330177 1.54103 0
M  V30 1006 C 92.5902 -0.548226 2.26047 0
M  V30 1007 C 93.5842 -1.11309 1.27698 0
M  V30 1008 O 94.7902 -1.06036 1.45452 0
M  V30 1009 H 91.1652 -0.195456 0.726155 0
M  V30 1010 H 93.1362 0.0807567 2.98291 0
M  V30 1011 C 91.8852 -1.69415 3.03634 0
M  V30 1012 H 91.2082 -1.26876 3.79134 0
M  V30 1013 H 92.6482 -2.28423 3.5721 0
M  V30 1014 C 91.1072 -2.61569 2.12328 0
M  V30 1015 O 91.6372 -3.63462 1.7105 0
M  V30 1016 N 89.8432 -2.29952 1.77681 0
M  V30 1017 H 89.3902 -1.47134 2.11446 0
M  V30 1018 H 89.3482 -2.91871 1.16869 0
M  V30 1019 N 93.1203 -1.57491 0.0584922 0
M  V30 1020 C 94.0533 -2.07533 -0.948969 0
M  V30 1021 C 95.0313 -0.977444 -1.29942 0
M  V30 1022 O 96.2153 -1.2499 -1.41102 0
M  V30 1023 C 93.3423 -2.52192 -2.2609 0
M  V30 1024 C 92.3883 -3.73287 -2.06298 0
M  V30 1025 S 93.2213 -5.18603 -1.33459 0
M  V30 1026 C 94.3773 -5.66583 -2.65959 0
M  V30 1027 H 94.6103 -2.92662 -0.523118 0
M  V30 1028 H 92.1433 -1.53631 -0.153954 0
M  V30 1029 H 94.1013 -2.78585 -3.01498 0
M  V30 1030 H 92.7623 -1.67356 -2.65802 0
M  V30 1031 H 91.9553 -4.0248 -3.03357 0
M  V30 1032 H 91.5573 -3.47199 -1.39029 0
M  V30 1033 H 93.8493 -5.72616 -3.62101 0
M  V30 1034 H 94.7923 -6.65684 -2.41393 0
M  V30 1035 H 95.2003 -4.94342 -2.72554 0
M  V30 1036 N 94.5984 0.214957 -1.56127 0
M  V30 1037 C 95.8234 0.95924 -1.83884 0
M  V30 1038 C 96.2484 1.7689 -0.639644 0
M  V30 1039 O 95.6064 1.76566 0.411601 0
M  V30 1040 C 95.6544 1.84723 -3.09693 0
M  V30 1041 O 94.7584 2.94346 -2.8885 0
M  V30 1042 H 94.0994 0.27125 -0.606069 0
M  V30 1043 H 96.6294 0.226276 -2.03345 0
M  V30 1044 H 96.6394 2.25576 -3.39969 0
M  V30 1045 H 95.3144 1.25218 -3.96602 0
M  V30 1046 H 93.8914 2.57391 -2.69823 0
M  V30 1047 N 96.0765 1.50051 0.48192 0
M  V30 1048 C 96.9865 1.7089 1.60728 0
M  V30 1049 C 98.0025 0.591788 1.63627 0
M  V30 1050 O 99.1785 0.868817 1.81696 0
M  V30 1051 C 96.2435 1.78855 2.97005 0
M  V30 1052 C 95.3045 3.02537 3.04581 0
M  V30 1053 C 94.5375 3.10112 4.34357 0
M  V30 1054 O 94.7605 2.24765 5.24249 0
M  V30 1055 O 93.6945 4.02747 4.47301 0
M  V30 1056 H 97.5205 2.66264 1.46072 0
M  V30 1057 H 95.1055 1.34018 0.660264 0
M  V30 1058 H 96.9875 1.86336 3.77964 0
M  V30 1059 H 95.6625 0.866628 3.11883 0
M  V30 1060 H 94.5695 3.00563 2.22739 0
M  V30 1061 H 95.9025 3.94272 2.94636 0
M  V30 1062 N 97.5546 -0.734337 1.39446 0
M  V30 1063 C 98.8016 -1.49391 1.36706 0
M  V30 1064 C 99.1296 -1.94465 -0.0367813 0
M  V30 1065 O 98.3846 -1.67154 -1.01774 0
M  V30 1066 C 98.6836 -2.74711 2.28623 0
M  V30 1067 C 98.3496 -2.48501 3.76242 0
M  V30 1068 C 97.0116 -2.41062 4.16464 0
M  V30 1069 C 99.3636 -2.26098 4.69606 0
M  V30 1070 C 96.6916 -2.09262 5.48112 0
M  V30 1071 C 99.0436 -1.95814 6.01531 0
M  V30 1072 C 97.7076 -1.86845 6.40816 0
M  V30 1073 H 96.9776 -0.546661 0.500243 0
M  V30 1074 H 99.6246 -0.842788 1.71957 0
M  V30 1075 H 97.9296 -3.44569 1.86492 0
M  V30 1076 H 99.6266 -3.32741 2.23796 0
M  V30 1077 H 96.2166 -2.55169 3.44364 0
M  V30 1078 H 100.401 -2.30812 4.39363 0
M  V30 1079 H 95.6566 -2.00841 5.77471 0
M  V30 1080 H 99.8306 -1.77488 6.73403 0
M  V30 1081 H 97.4576 -1.6197 7.42745 0
M  V30 1082 N 99.0327 -1.24633 -0.964593 0
M  V30 1083 C 100.261 -1.11501 -1.74285 0
M  V30 1084 C 100.676 0.332165 -1.85855 0
M  V30 1085 O 100.033 1.22903 -1.34911 0
M  V30 1086 C 100.084 -1.75258 -3.16175 0
M  V30 1087 O 99.8047 -3.14318 -3.05182 0
M  V30 1088 C 101.306 -1.67776 -4.10324 0
M  V30 1089 H 98.5257 -0.389407 -0.546446 0
M  V30 1090 H 101.07 -1.64801 -1.21083 0
M  V30 1091 H 99.2247 -1.25954 -3.66353 0
M  V30 1092 H 99.6387 -3.4551 -3.94618 0
M  V30 1093 H 101.113 -2.17064 -5.0753 0
M  V30 1094 H 101.59 -0.639584 -4.34518 0
M  V30 1095 H 102.196 -2.16522 -3.66058 0
M  V30 1096 N 100.511 1.16574 -1.06058 0
M  V30 1097 C 101.459 2.22941 -0.663343 0
M  V30 1098 C 102.453 1.66358 0.319593 0
M  V30 1099 O 103.659 1.7905 0.184713 0
M  V30 1100 H 100.034 0.725907 -0.196376 0
M  V30 1101 H 102.005 2.53736 -1.57037 0
M  V30 1102 C 100.754 3.47642 -0.0632808 0
M  V30 1103 H 100.077 3.91493 -0.810733 0
M  V30 1104 H 101.517 4.2363 0.177177 0
M  V30 1105 C 99.9758 3.1509 1.19248 0
M  V30 1106 O 100.506 3.30673 2.28075 0
M  V30 1107 N 98.7118 2.6924 1.09353 0
M  V30 1108 H 98.2588 2.5676 0.207912 0
M  V30 1109 H 98.2168 2.47833 1.93458 0
M  V30 1110 N 101.989 0.842826 1.3317 0
M  V30 1111 C 103.238 0.436738 1.96915 0
M  V30 1112 C 103.551 -1.01025 1.67491 0
M  V30 1113 O 104.757 -1.5212 2.24881 0
M  V30 1114 C 103.213 0.730021 3.52418 0
M  V30 1115 C 102.821 2.19195 3.90714 0
M  V30 1116 C 104.565 0.391076 4.22695 0
M  V30 1117 C 102.472 2.42907 5.39212 0
M  V30 1118 H 101.402 0.15958 0.736919 0
M  V30 1119 H 104.053 1.03196 1.51733 0
M  V30 1120 H 102.435 0.0643755 3.95948 0
M  V30 1121 H 103.609 2.8984 3.58231 0
M  V30 1122 H 101.924 2.49425 3.33431 0
M  V30 1123 H 104.521 0.545817 5.31907 0
M  V30 1124 H 104.864 -0.666294 4.10933 0
M  V30 1125 H 105.397 1.01212 3.84709 0
M  V30 1126 H 102.136 3.47224 5.55982 0
M  V30 1127 H 101.656 1.76827 5.73142 0
M  V30 1128 H 103.335 2.2626 6.06148 0
M  V30 1129 N 103.467 -1.45747 0.599634 0
M  V30 1130 C 104.714 -2.02292 0.0917284 0
M  V30 1131 C 105.042 -1.46906 -1.27472 0
M  V30 1132 O 104.297 -0.630652 -1.8526 0
M  V30 1133 C 104.596 -3.57399 -0.00602758 0
M  V30 1134 C 104.262 -4.31902 1.29503 0
M  V30 1135 C 102.924 -4.51974 1.65144 0
M  V30 1136 C 105.276 -4.74551 2.15525 0
M  V30 1137 C 102.604 -5.11949 2.86574 0
M  V30 1138 C 104.956 -5.35868 3.36196 0
M  V30 1139 C 103.62 -5.54165 3.72099 0
M  V30 1140 H 102.89 -0.740239 0.0335658 0
M  V30 1141 H 105.537 -1.7491 0.779661 0
M  V30 1142 H 103.842 -3.84014 -0.777183 0
M  V30 1143 H 105.539 -3.98846 -0.415038 0
M  V30 1144 H 102.129 -4.16588 1.00761 0
M  V30 1145 H 106.313 -4.58784 1.8929 0
M  V30 1146 H 101.569 -5.24305 3.14507 0
M  V30 1147 H 105.743 -5.6787 4.03109 0
M  V30 1148 H 103.37 -6.00406 4.6628 0
M  V30 1149 N 104.945 -0.338344 -1.53925 0
M  V30 1150 C 106.356 0.146651 -1.86123 0
M  V30 1151 C 106.707 1.5042 -1.2597 0
M  V30 1152 O 105.832 2.08723 -0.571294 0
M  V30 1153 C 106.427 0.272879 -3.37699 0
M  V30 1154 C 104.986 0.702103 -3.69794 0
M  V30 1155 C 104.133 -0.167304 -2.76795 0
M  V30 1156 H 107.084 -0.558123 -1.48562 0
M  V30 1157 H 107.105 1.10128 -3.64214 0
M  V30 1158 H 106.617 -0.715307 -3.81451 0
M  V30 1159 H 104.718 1.6995 -3.31584 0
M  V30 1160 H 104.831 0.495604 -4.7653 0
M  V30 1161 H 103.195 0.359527 -2.5215 0
M  V30 1162 H 103.978 -1.15253 -3.23375 0
M  V30 1163 N 106.423 1.57458 -0.0668435 0
M  V30 1164 C 107.371 2.13639 0.919851 0
M  V30 1165 C 108.365 1.07204 1.31163 0
M  V30 1166 O 109.571 1.25591 1.28945 0
M  V30 1167 H 105.946 0.683048 0.314562 0
M  V30 1168 H 107.917 2.95415 0.421047 0
M  V30 1169 C 106.666 2.70892 2.17975 0
M  V30 1170 H 105.989 3.5246 1.88711 0
M  V30 1171 H 107.429 3.13803 2.85138 0
M  V30 1172 C 105.888 1.65414 2.93496 0
M  V30 1173 O 106.418 1.07619 3.87015 0
M  V30 1174 N 104.624 1.36564 2.56512 0
M  V30 1175 H 104.171 1.83751 1.80536 0
M  V30 1176 H 104.129 0.66223 3.07347 0
M  V30 1177 N 107.901 -0.206675 1.56239 0
M  V30 1178 C 109.15 -0.926964 1.79138 0
M  V30 1179 C 109.463 -1.84901 0.638043 0
M  V30 1180 O 110.669 -2.60906 0.751033 0
M  V30 1181 C 109.125 -1.6986 3.17294 0
M  V30 1182 C 108.733 -0.821956 4.40395 0
M  V30 1183 C 110.477 -2.40922 3.4951 0
M  V30 1184 C 108.384 -1.59179 5.69575 0
M  V30 1185 H 107.314 -0.349864 0.667915 0
M  V30 1186 H 109.965 -0.180487 1.8261 0
M  V30 1187 H 108.347 -2.48853 3.08039 0
M  V30 1188 H 109.521 -0.0715019 4.60745 0
M  V30 1189 H 107.836 -0.222741 4.15804 0
M  V30 1190 H 110.433 -2.99047 4.43255 0
M  V30 1191 H 110.776 -3.14542 2.72707 0
M  V30 1192 H 111.309 -1.68905 3.60161 0
M  V30 1193 H 108.048 -0.898589 6.49312 0
M  V30 1194 H 107.568 -2.31648 5.53262 0
M  V30 1195 H 109.247 -2.14862 6.10281 0
M  V30 1196 N 109.379 -1.50304 -0.473955 0
M  V30 1197 C 110.607 -1.64902 -1.24959 0
M  V30 1198 C 111.022 -0.331198 -1.85872 0
M  V30 1199 O 110.379 0.68652 -1.69095 0
M  V30 1200 C 110.43 -2.73803 -2.36038 0
M  V30 1201 O 110.151 -4.00477 -1.77624 0
M  V30 1202 C 111.652 -2.99349 -3.26964 0
M  V30 1203 H 108.872 -0.554383 -0.378022 0
M  V30 1204 H 111.416 -1.9651 -0.566054 0
M  V30 1205 H 109.571 -2.44898 -3.00173 0
M  V30 1206 H 109.985 -4.60678 -2.5075 0
M  V30 1207 H 111.459 -3.79217 -4.01121 0
M  V30 1208 H 111.936 -2.10307 -3.85574 0
M  V30 1209 H 112.542 -3.29774 -2.68569 0
M  V30 1210 N 110.857 0.726932 -1.39834 0
M  V30 1211 C 111.787 1.85405 -1.41941 0
M  V30 1212 C 112.768 1.67751 -0.281728 0
M  V30 1213 O 113.953 1.8795 -0.488717 0
M  V30 1214 C 111.083 3.23243 -1.2701 0
M  V30 1215 C 110.037 3.55549 -2.38262 0
M  V30 1216 C 109.363 4.9241 -2.08415 0
M  V30 1217 C 110.663 3.577 -3.80589 0
M  V30 1218 H 112.357 1.83899 -2.36266 0
M  V30 1219 H 109.903 0.883349 -1.13723 0
M  V30 1220 H 111.856 4.01775 -1.27103 0
M  V30 1221 H 110.58 3.25296 -0.291564 0
M  V30 1222 H 109.239 2.79351 -2.37399 0
M  V30 1223 H 108.887 4.91052 -1.0898 0
M  V30 1224 H 108.587 5.14992 -2.82943 0
M  V30 1225 H 110.111 5.73289 -2.10171 0
M  V30 1226 H 111.525 4.26293 -3.83337 0
M  V30 1227 H 109.922 3.91804 -4.54543 0
M  V30 1228 H 110.992 2.57328 -4.10987 0
M  V30 1229 N 112.336 1.25143 0.95797 0
M  V30 1230 C 113.576 1.10893 1.71703 0
M  V30 1231 C 113.94 -0.34478 1.88879 0
M  V30 1232 O 115.141 -0.609014 2.6181 0
M  V30 1233 C 113.412 1.83889 3.06463 0
M  V30 1234 S 114.971 1.85491 3.97666 0
M  V30 1235 H 111.789 0.396428 0.590226 0
M  V30 1236 H 114.391 1.58618 1.14283 0
M  V30 1237 H 113.095 2.88756 2.9163 0
M  V30 1238 H 112.626 1.36538 3.68946 0
M  V30 1239 H 114.641 0.929553 4.87415 0
M  V30 1240 N 113.814 -1.1601 1.06675 0
M  V30 1241 C 114.744 -2.22688 0.702307 0
M  V30 1242 C 115.725 -1.67306 -0.307032 0
M  V30 1243 O 116.91 -1.93352 -0.181305 0
M  V30 1244 C 114.04 -3.47178 0.092038 0
M  V30 1245 C 112.994 -4.15477 1.02777 0
M  V30 1246 C 112.32 -5.33963 0.28061 0
M  V30 1247 C 113.62 -4.66019 2.35846 0
M  V30 1248 H 115.314 -2.53429 1.59419 0
M  V30 1249 H 112.86 -1.21813 0.767961 0
M  V30 1250 H 114.813 -4.21037 -0.174814 0
M  V30 1251 H 113.537 -3.15749 -0.834877 0
M  V30 1252 H 112.196 -3.43549 1.27944 0
M  V30 1253 H 111.844 -4.98788 -0.649545 0
M  V30 1254 H 111.544 -5.806 0.904258 0
M  V30 1255 H 113.068 -6.10596 0.021396 0
M  V30 1256 H 114.482 -5.3144 2.15045 0
M  V30 1257 H 112.879 -5.23293 2.93743 0
M  V30 1258 H 113.949 -3.82023 2.98641 0
M  V30 1259 N 115.292 -0.849877 -1.32721 0
M  V30 1260 C 116.225 -0.235903 -2.26977 0
M  V30 1261 C 117.203 0.623355 -1.50177 0
M  V30 1262 O 118.387 0.581207 -1.79316 0
M  V30 1263 C 115.514 0.667712 -3.32053 0
M  V30 1264 C 114.56 -0.11753 -4.26338 0
M  V30 1265 S 115.393 -1.48277 -5.14562 0
M  V30 1266 C 116.549 -0.584741 -6.23163 0
M  V30 1267 H 116.782 -1.03495 -2.78704 0
M  V30 1268 H 114.315 -0.64724 -1.40179 0
M  V30 1269 H 116.273 1.18343 -3.93072 0
M  V30 1270 H 114.934 1.44052 -2.7912 0
M  V30 1271 H 114.127 0.57051 -5.00761 0
M  V30 1272 H 113.729 -0.564668 -3.69713 0
M  V30 1273 H 116.021 0.212968 -6.77165 0
M  V30 1274 H 116.964 -1.29947 -6.96074 0
M  V30 1275 H 117.372 -0.161202 -5.6427 0
M  V30 1276 N 116.77 1.45427 -0.607355 0
M  V30 1277 C 118.018 2.01841 -0.102253 0
M  V30 1278 C 118.339 1.47832 1.27164 0
M  V30 1279 O 117.609 0.672497 1.83995 0
M  V30 1280 H 116.189 0.746188 -0.0348101 0
M  V30 1281 H 118.851 1.78229 -0.7887 0
M  V30 1282 H 117.947 3.12057 -0.0518585 0
M  V30 1283 N 118.248 0.346503 1.53744 0
M  V30 1284 C 119.181 -0.552023 2.21423 0
M  V30 1285 C 120.159 -1.09798 1.19929 0
M  V30 1286 O 121.343 -1.1577 1.4876 0
M  V30 1287 C 118.47 -1.75972 2.89398 0
M  V30 1288 C 117.516 -1.34295 4.04805 0
M  V30 1289 S 118.349 -0.360263 5.34287 0
M  V30 1290 C 119.505 -1.57473 6.05767 0
M  V30 1291 H 119.738 0.0228119 2.97291 0
M  V30 1292 H 117.271 0.130579 1.53847 0
M  V30 1293 H 119.229 -2.45256 3.2918 0
M  V30 1294 H 117.89 -2.30578 2.1329 0
M  V30 1295 H 117.083 -2.24349 4.51313 0
M  V30 1296 H 116.685 -0.729555 3.66815 0
M  V30 1297 H 118.977 -2.50875 6.29339 0
M  V30 1298 H 119.92 -1.15138 6.98676 0
M  V30 1299 H 120.328 -1.77212 5.35963 0
M  V30 1300 N 119.726 -1.57421 0.075193 0
M  V30 1301 C 120.951 -1.98364 -0.605515 0
M  V30 1302 C 121.376 -0.953383 -1.62149 0
M  V30 1303 O 120.734 0.0806053 -1.81121 0
M  V30 1304 C 120.782 -3.38332 -1.24756 0
M  V30 1305 O 119.886 -3.37959 -2.36342 0
M  V30 1306 H 119.227 -0.645553 -0.155428 0
M  V30 1307 H 121.757 -2.04044 0.150714 0
M  V30 1308 H 121.767 -3.75591 -1.5936 0
M  V30 1309 H 120.442 -4.12846 -0.503129 0
M  V30 1310 H 119.019 -3.12474 -2.03506 0
M  V30 1311 N 121.204 0.198386 -1.56346 0
M  V30 1312 C 122.429 0.939682 -1.84891 0
M  V30 1313 C 122.854 1.76202 -0.658369 0
M  V30 1314 O 122.212 1.76993 0.392851 0
M  V30 1315 C 122.26 1.81428 -3.11635 0
M  V30 1316 O 121.364 2.91265 -2.91956 0
M  V30 1317 H 120.705 0.264807 -0.608912 0
M  V30 1318 H 123.235 0.204695 -2.03573 0
M  V30 1319 H 123.245 2.21958 -3.42343 0
M  V30 1320 H 121.92 1.21004 -3.97908 0
M  V30 1321 H 120.497 2.54514 -2.72538 0
M  V30 1322 N 122.682 1.50554 0.465978 0
M  V30 1323 C 123.928 1.62038 1.21949 0
M  V30 1324 C 124.261 0.322116 1.9151 0
M  V30 1325 O 123.536 -0.676723 1.82348 0
M  V30 1326 C 123.819 2.80421 2.25912 0
M  V30 1327 C 123.672 4.20144 1.60622 0
M  V30 1328 C 124.991 2.94354 3.27176 0
M  V30 1329 H 122.11 0.589752 0.441998 0
M  V30 1330 H 124.752 1.82956 0.51257 0
M  V30 1331 H 122.902 2.62717 2.86203 0
M  V30 1332 H 124.574 4.49449 1.03889 0
M  V30 1333 H 122.817 4.24165 0.909211 0
M  V30 1334 H 123.488 4.98914 2.36196 0
M  V30 1335 H 125.964 3.10578 2.76913 0
M  V30 1336 H 124.84 3.788 3.97242 0
M  V30 1337 H 125.101 2.05186 3.916 0
M  V30 1338 N 124.16 -0.719506 1.40217 0
M  V30 1339 C 125.09 -1.8465 1.42922 0
M  V30 1340 C 126.071 -1.67599 0.29062 0
M  V30 1341 O 127.256 -1.87688 0.498677 0
M  V30 1342 C 124.386 -3.22565 1.28722 0
M  V30 1343 C 123.34 -3.54281 2.40144 0
M  V30 1344 C 122.666 -4.91298 2.11023 0
M  V30 1345 C 123.966 -3.55676 3.82481 0
M  V30 1346 H 125.66 -1.82644 2.37237 0
M  V30 1347 H 123.206 -0.877305 1.1419 0
M  V30 1348 H 125.159 -4.01095 1.29232 0
M  V30 1349 H 123.883 -3.25137 0.308811 0
M  V30 1350 H 122.542 -2.78088 2.38877 0
M  V30 1351 H 122.19 -4.90468 1.11582 0
M  V30 1352 H 121.89 -5.13485 2.8567 0
M  V30 1353 H 123.414 -5.72166 2.13209 0
M  V30 1354 H 124.828 -4.24254 3.85592 0
M  V30 1355 H 123.225 -3.89388 4.56614 0
M  V30 1356 H 124.295 -2.55144 4.12346 0
M  V30 1357 N 125.638 -1.25649 -0.95132 0
M  V30 1358 C 126.571 -1.00644 -2.04807 0
M  V30 1359 C 127.549 0.0654271 -1.62468 0
M  V30 1360 O 128.733 -0.074911 -1.88351 0
M  V30 1361 C 125.86 -0.522052 -3.34653 0
M  V30 1362 C 124.906 -1.58495 -3.95957 0
M  V30 1363 S 125.739 -3.17108 -4.31512 0
M  V30 1364 C 126.895 -2.70412 -5.64471 0
M  V30 1365 H 127.128 -1.93508 -2.25703 0
M  V30 1366 H 124.661 -1.09216 -1.09139 0
M  V30 1367 H 126.619 -0.24923 -4.09743 0
M  V30 1368 H 125.28 0.386146 -3.11717 0
M  V30 1369 H 124.473 -1.1968 -4.89584 0
M  V30 1370 H 124.075 -1.80862 -3.2736 0
M  V30 1371 H 126.367 -2.14245 -6.42733 0
M  V30 1372 H 127.31 -3.62693 -6.08161 0
M  V30 1373 H 127.718 -2.10302 -5.23864 0
M  V30 1374 N 127.117 1.15442 -1.07289 0
M  V30 1375 C 128.347 1.89821 -0.815576 0
M  V30 1376 C 128.755 1.7823 0.634867 0
M  V30 1377 O 128.098 1.13152 1.44715 0
M  V30 1378 C 128.16 3.40817 -1.14385 0
M  V30 1379 C 127.824 3.76193 -2.59476 0
M  V30 1380 C 128.821 3.77269 -3.57721 0
M  V30 1381 C 126.506 4.0652 -2.95037 0
M  V30 1382 C 128.5 4.08176 -4.89562 0
M  V30 1383 C 126.187 4.37092 -4.27076 0
M  V30 1384 C 127.185 4.37902 -5.24148 0
M  V30 1385 O 126.873 4.67741 -6.53815 0
M  V30 1386 H 126.605 0.608465 -0.294528 0
M  V30 1387 H 129.159 1.472 -1.43252 0
M  V30 1388 H 127.389 3.83835 -0.469865 0
M  V30 1389 H 129.078 3.96485 -0.869179 0
M  V30 1390 H 129.844 3.5394 -3.3159 0
M  V30 1391 H 125.723 4.05049 -2.20128 0
M  V30 1392 H 129.267 4.08723 -5.65324 0
M  V30 1393 H 125.164 4.59889 -4.5296 0
M  V30 1394 H 125.932 4.85509 -6.58957 0
M  V30 1395 N 128.595 0.856903 1.32268 0
M  V30 1396 C 129.543 0.291987 2.3076 0
M  V30 1397 C 130.537 -0.585857 1.58947 0
M  V30 1398 O 131.743 -0.47341 1.73663 0
M  V30 1399 H 128.118 0.075721 0.748178 0
M  V30 1400 H 130.089 1.13687 2.75895 0
M  V30 1401 C 128.838 -0.502869 3.44044 0
M  V30 1402 H 128.161 0.163328 3.99466 0
M  V30 1403 H 129.601 -0.863691 4.1511 0
M  V30 1404 C 128.06 -1.68898 2.91505 0
M  V30 1405 O 128.59 -2.78811 2.89184 0
M  V30 1406 N 126.796 -1.51679 2.47875 0
M  V30 1407 H 126.343 -0.622666 2.49961 0
M  V30 1408 H 126.301 -2.31184 2.13076 0
M  V30 1409 N 130.073 -1.45103 0.615059 0
M  V30 1410 C 131.313 -2.04069 0.116282 0
M  V30 1411 C 131.677 -1.4721 -1.2326 0
M  V30 1412 O 132.878 -1.97577 -1.82255 0
M  V30 1413 C 131.149 -3.57298 0.085482 0
M  V30 1414 S 132.708 -4.37394 -0.351015 0
M  V30 1415 H 129.526 -0.709006 0.0532183 0
M  V30 1416 H 132.128 -1.77709 0.81484 0
M  V30 1417 H 130.832 -3.9619 1.0706 0
M  V30 1418 H 130.363 -3.88244 -0.634835 0
M  V30 1419 H 132.378 -4.69734 -1.59889 0
M  V30 1420 N 131.551 -0.354651 -1.53558 0
M  V30 1421 C 132.797 0.238797 -2.01389 0
M  V30 1422 C 133.13 1.49309 -1.2418 0
M  V30 1423 O 132.405 1.91638 -0.332457 0
M  V30 1424 C 132.688 0.541771 -3.56001 0
M  V30 1425 C 132.541 -0.725388 -4.43912 0
M  V30 1426 C 133.86 1.34685 -4.18984 0
M  V30 1427 H 130.979 0.0853177 -0.732045 0
M  V30 1428 H 133.621 -0.477384 -1.83905 0
M  V30 1429 H 131.771 1.15189 -3.71031 0
M  V30 1430 H 133.443 -1.36313 -4.407 0
M  V30 1431 H 131.686 -1.34801 -4.12324 0
M  V30 1432 H 132.357 -0.468505 -5.50008 0
M  V30 1433 H 134.833 0.830837 -4.07721 0
M  V30 1434 H 133.709 1.52759 -5.27215 0
M  V30 1435 H 133.97 2.35221 -3.74331 0
M  V30 1436 N 133.029 1.57378 -0.0835403 0
M  V30 1437 C 133.959 2.1641 0.87686 0
M  V30 1438 C 134.94 1.09429 1.30228 0
M  V30 1439 O 136.125 1.37516 1.37124 0
M  V30 1440 C 133.255 2.73517 2.14022 0
M  V30 1441 C 132.209 3.85769 1.85381 0
M  V30 1442 C 131.535 4.29529 3.18448 0
M  V30 1443 C 132.835 5.09486 1.14984 0
M  V30 1444 H 134.529 2.96914 0.385059 0
M  V30 1445 H 132.075 1.42823 0.18377 0
M  V30 1446 H 134.028 3.13463 2.81636 0
M  V30 1447 H 132.752 1.90252 2.65465 0
M  V30 1448 H 131.411 3.46345 1.20169 0
M  V30 1449 H 131.059 3.43169 3.67755 0
M  V30 1450 H 130.759 5.05204 3.00071 0
M  V30 1451 H 132.283 4.72099 3.8724 0
M  V30 1452 H 133.697 5.46674 1.72687 0
M  V30 1453 H 132.094 5.90515 1.06826 0
M  V30 1454 H 133.164 4.84724 0.130749 0
M  V30 1455 N 134.507 -0.190092 1.56449 0
M  V30 1456 C 135.455 -1.25501 1.95837 0
M  V30 1457 C 136.449 -1.4685 0.844485 0
M  V30 1458 O 137.655 -1.47651 1.02952 0
M  V30 1459 H 134.03 -0.421447 0.622805 0
M  V30 1460 H 136.001 -0.895821 2.84636 0
M  V30 1461 C 134.75 -2.59124 2.31841 0
M  V30 1462 H 134.073 -2.43514 3.17082 0
M  V30 1463 H 135.513 -3.32371 2.6326 0
M  V30 1464 C 133.972 -3.16488 1.15486 0
M  V30 1465 O 134.502 -3.99365 0.432535 0
M  V30 1466 N 132.708 -2.75305 0.930349 0
M  V30 1467 H 132.255 -2.08013 1.51948 0
M  V30 1468 H 132.213 -3.14024 0.153634 0
M  V30 1469 N 135.985 -1.50799 -0.457987 0
M  V30 1470 C 137.213 -1.66218 -1.23203 0
M  V30 1471 C 137.628 -0.350894 -1.85511 0
M  V30 1472 O 136.985 0.668546 -1.69814 0
M  V30 1473 C 137.036 -2.76291 -2.33121 0
M  V30 1474 O 136.757 -4.02338 -1.73366 0
M  V30 1475 C 138.258 -3.028 -3.2377 0
M  V30 1476 H 135.478 -0.558361 -0.372121 0
M  V30 1477 H 138.022 -1.97099 -0.545179 0
M  V30 1478 H 136.177 -2.48068 -2.97558 0
M  V30 1479 H 136.591 -4.63312 -2.4585 0
M  V30 1480 H 138.065 -3.8345 -3.97077 0
M  V30 1481 H 138.542 -2.14385 -3.83322 0
M  V30 1482 H 139.148 -3.32604 -2.65056 0
M  V30 1483 N 137.463 0.71206 -1.40597 0
M  V30 1484 C 138.691 1.50111 -1.42388 0
M  V30 1485 C 139.106 1.88784 -0.0245395 0
M  V30 1486 O 138.463 1.55681 0.952351 0
M  V30 1487 C 138.514 2.7742 -2.31776 0
M  V30 1488 O 138.235 2.40382 -3.66262 0
M  V30 1489 C 139.736 3.7129 -2.42196 0
M  V30 1490 H 136.956 0.46314 -0.485533 0
M  V30 1491 H 139.5 0.878068 -1.8469 0
M  V30 1492 H 137.655 3.36001 -1.92827 0
M  V30 1493 H 138.069 3.22324 -4.13772 0
M  V30 1494 H 139.543 4.57448 -3.08943 0
M  V30 1495 H 140.02 4.14641 -1.44809 0
M  V30 1496 H 140.626 3.18619 -2.81712 0
M  V30 1497 N 138.941 1.26152 0.944643 0
M  V30 1498 C 140.352 1.10454 1.50522 0
M  V30 1499 C 140.703 -0.31635 1.93633 0
M  V30 1500 O 139.828 -1.20746 1.79581 0
M  V30 1501 C 140.423 1.99891 2.73549 0
M  V30 1502 C 138.982 1.88348 3.25886 0
M  V30 1503 C 138.129 1.93447 1.9868 0
M  V30 1504 H 141.08 1.39292 0.760489 0
M  V30 1505 H 141.101 1.54477 3.47732 0
M  V30 1506 H 140.613 3.03297 2.42141 0
M  V30 1507 H 138.714 0.878636 3.62092 0
M  V30 1508 H 138.827 2.73696 3.93227 0
M  V30 1509 H 137.191 1.37456 2.14425 0
M  V30 1510 H 137.974 2.98476 1.69607 0
M  V30 1511 N 140.419 -1.14872 1.07899 0
M  V30 1512 C 141.369 -2.17809 0.674027 0
M  V30 1513 C 142.353 -1.58008 -0.303699 0
M  V30 1514 O 143.545 -1.76616 -0.11654 0
M  V30 1515 C 140.674 -3.43208 0.0793318 0
M  V30 1516 C 139.76 -4.10051 1.08253 0
M  V30 1517 N 140.151 -4.52296 2.2641 0
M  V30 1518 C 138.449 -4.36469 0.917124 0
M  V30 1519 C 139.15 -5.04199 2.901 0
M  V30 1520 N 138.126 -4.98088 2.17736 0
M  V30 1521 H 141.928 -2.48207 1.57386 0
M  V30 1522 H 139.442 -1.315 0.952976 0
M  V30 1523 H 141.439 -4.16272 -0.228719 0
M  V30 1524 H 140.099 -3.14291 -0.815551 0
M  V30 1525 H 141.11 -4.45504 2.64096 0
M  V30 1526 H 137.787 -4.17432 0.0756078 0
M  V30 1527 H 139.177 -5.46802 3.90458 0
M  V30 1528 N 141.898 -0.863906 -1.31812 0
M  V30 1529 C 143.147 -0.46801 -1.96195 0
M  V30 1530 C 143.46 0.983474 -1.69077 0
M  V30 1531 O 144.666 1.48523 -2.27273 0
M  V30 1532 C 143.122 -0.785995 -3.51212 0
M  V30 1533 C 142.73 -2.25383 -3.87178 0
M  V30 1534 C 144.474 -0.458274 -4.22019 0
M  V30 1535 C 142.381 -2.51455 -5.3528 0
M  V30 1536 H 141.311 -0.171283 -0.734287 0
M  V30 1537 H 143.962 -1.05597 -1.50072 0
M  V30 1538 H 142.344 -0.127359 -3.95795 0
M  V30 1539 H 143.518 -2.95502 -3.53575 0
M  V30 1540 H 141.833 -2.54698 -3.2942 0
M  V30 1541 H 144.43 -0.630369 -5.30971 0
M  V30 1542 H 144.773 0.600834 -4.11941 0
M  V30 1543 H 145.306 -1.07319 -3.8305 0
M  V30 1544 H 142.045 -3.56025 -5.50387 0
M  V30 1545 H 141.565 -1.85923 -5.70257 0
M  V30 1546 H 143.244 -2.35874 -6.02472 0
M  V30 1547 N 143.376 1.44774 -0.622745 0
M  V30 1548 C 144.326 2.2774 0.108889 0
M  V30 1549 C 145.31 1.38189 0.824175 0
M  V30 1550 O 146.502 1.62063 0.711664 0
M  V30 1551 C 143.631 3.25353 1.09546 0
M  V30 1552 C 142.717 4.22392 0.380232 0
M  V30 1553 N 143.108 5.02388 -0.586535 0
M  V30 1554 C 141.406 4.41588 0.625792 0
M  V30 1555 C 142.107 5.72894 -1.00834 0
M  V30 1556 N 141.083 5.42479 -0.348878 0
M  V30 1557 H 144.885 2.86993 -0.63341 0
M  V30 1558 H 142.399 1.5611 -0.447589 0
M  V30 1559 H 144.396 3.83538 1.63414 0
M  V30 1560 H 143.056 2.6766 1.83815 0
M  V30 1561 H 144.067 5.0885 -0.963975 0
M  V30 1562 H 140.744 3.95003 1.352 0
M  V30 1563 H 142.134 6.47158 -1.80656 0
M  V30 1564 N 144.854 0.36279 1.53368 0
M  V30 1565 C 145.817 -0.472679 2.24273 0
M  V30 1566 C 146.817 -1.012 1.24961 0
M  V30 1567 O 148.007 -0.898194 1.49259 0
M  V30 1568 C 145.139 -1.66039 2.97731 0
M  V30 1569 H 146.332 0.14773 2.99536 0
M  V30 1570 H 143.885 0.114434 1.55881 0
M  V30 1571 H 144.62 -2.31896 2.26704 0
M  V30 1572 H 144.405 -1.28066 3.70596 0
M  V30 1573 H 145.895 -2.25252 3.51641 0
M  V30 1574 N 146.332 -1.57332 0.0918853 0
M  V30 1575 C 147.262 -2.16872 -0.865371 0
M  V30 1576 C 148.243 -1.10118 -1.29646 0
M  V30 1577 O 149.428 -1.38242 -1.36392 0
M  V30 1578 C 146.558 -2.74649 -2.12569 0
M  V30 1579 C 145.512 -3.86747 -1.83333 0
M  V30 1580 C 144.838 -4.31212 -3.16166 0
M  V30 1581 C 146.138 -5.10089 -1.1228 0
M  V30 1582 H 147.832 -2.97114 -0.369307 0
M  V30 1583 H 145.378 -1.42918 -0.176194 0
M  V30 1584 H 147.331 -3.14952 -2.7997 0
M  V30 1585 H 146.055 -1.91657 -2.64452 0
M  V30 1586 H 144.714 -3.46978 -1.18331 0
M  V30 1587 H 144.362 -3.45115 -3.6593 0
M  V30 1588 H 144.062 -5.06788 -2.97388 0
M  V30 1589 H 145.586 -4.74146 -3.84731 0
M  V30 1590 H 147 -5.47582 -1.69785 0
M  V30 1591 H 145.397 -5.91073 -1.03693 0
M  V30 1592 H 146.467 -4.84786 -0.105041 0
M  V30 1593 N 147.81 0.181792 -1.56548 0
M  V30 1594 C 148.74 1.22765 -1.98623 0
M  V30 1595 C 149.721 1.46747 -0.860189 0
M  V30 1596 O 150.906 1.58259 -1.12551 0
M  V30 1597 C 148.036 2.56894 -2.33715 0
M  V30 1598 C 146.99 2.475 -3.49182 0
M  V30 1599 C 146.316 3.86023 -3.69986 0
M  V30 1600 C 147.616 1.98866 -4.82959 0
M  V30 1601 H 149.31 0.877942 -2.86239 0
M  V30 1602 H 146.856 0.42088 -1.37712 0
M  V30 1603 H 148.809 3.30253 -2.61746 0
M  V30 1604 H 147.533 2.93632 -1.42997 0
M  V30 1605 H 146.192 1.76596 -3.21262 0
M  V30 1606 H 145.84 4.20136 -2.76576 0
M  V30 1607 H 145.54 3.80609 -4.47672 0
M  V30 1608 H 147.064 4.60984 -4.00407 0
M  V30 1609 H 148.478 2.61992 -5.09934 0
M  V30 1610 H 146.875 2.04424 -5.64208 0
M  V30 1611 H 147.945 0.942465 -4.75653 0
M  V30 1612 N 149.288 1.51039 0.449983 0
M  V30 1613 C 150.236 1.71995 1.5659 0
M  V30 1614 C 151.23 0.586029 1.5894 0
M  V30 1615 O 152.436 0.76709 1.62837 0
M  V30 1616 H 148.811 0.543233 0.520001 0
M  V30 1617 H 150.782 2.65562 1.36085 0
M  V30 1618 C 149.531 1.8506 2.9436 0
M  V30 1619 H 148.854 2.71712 2.93279 0
M  V30 1620 H 150.294 2.0374 3.71842 0
M  V30 1621 C 148.753 0.607277 3.31382 0
M  V30 1622 O 149.283 -0.243903 4.00959 0
M  V30 1623 N 147.489 0.455073 2.87015 0
M  V30 1624 H 147.036 1.14879 2.30566 0
M  V30 1625 H 146.994 -0.375611 3.12148 0
M  V30 1626 N 150.766 -0.704594 1.40972 0
M  V30 1627 C 151.713 -1.81862 1.42109 0
M  V30 1628 C 152.683 -1.63781 0.276593 0
M  V30 1629 O 153.868 -1.84759 0.4763 0
M  V30 1630 C 151.008 -3.19669 1.30022 0
M  V30 1631 C 150.121 -3.49246 2.54267 0
M  V30 1632 C 149.256 -4.76618 2.3454 0
M  V30 1633 C 148.295 -4.99133 3.54306 0
M  V30 1634 N 147.432 -6.17726 3.33706 0
M  V30 1635 H 152.272 -1.80226 2.37324 0
M  V30 1636 H 149.809 -0.880238 1.17857 0
M  V30 1637 H 151.767 -3.99263 1.21018 0
M  V30 1638 H 150.397 -3.20506 0.384192 0
M  V30 1639 H 149.449 -2.64125 2.73756 0
M  V30 1640 H 150.761 -3.61788 3.43381 0
M  V30 1641 H 149.915 -5.64249 2.22952 0
M  V30 1642 H 148.654 -4.66305 1.42867 0
M  V30 1643 H 147.659 -4.09953 3.66359 0
M  V30 1644 H 148.884 -5.11311 4.4692 0
M  V30 1645 H 146.83 -6.08642 2.44725 0
M  V30 1646 H 146.747 -6.30995 4.16391 0
M  V30 1647 H 148.015 -7.08115 3.25873 0
M  V30 1648 N 152.244 -1.26651 -0.937939 0
M  V30 1649 C 153.192 -1.08308 -2.05845 0
M  V30 1650 C 154.186 -0.0090757 -1.69398 0
M  V30 1651 O 155.392 -0.166007 -1.79233 0
M  V30 1652 H 151.767 -0.333416 -0.674046 0
M  V30 1653 H 153.738 -2.03261 -2.18467 0
M  V30 1654 C 152.487 -0.736229 -3.39816 0
M  V30 1655 H 151.81 -1.55453 -3.6834 0
M  V30 1656 H 153.25 -0.64769 -4.19024 0
M  V30 1657 C 151.709 0.558824 -3.32233 0
M  V30 1658 O 152.239 1.59621 -3.68624 0
M  V30 1659 N 150.445 0.550657 -2.85335 0
M  V30 1660 H 149.992 -0.293943 -2.55917 0
M  V30 1661 H 149.95 1.41726 -2.80644 0
M  V30 1662 N 153.722 1.14298 -1.08507 0
M  V30 1663 C 154.971 1.84708 -0.810305 0
M  V30 1664 C 155.284 1.83903 0.666271 0
M  V30 1665 O 156.49 2.50112 1.05624 0
M  V30 1666 C 154.946 3.31572 -1.39957 0
M  V30 1667 C 154.554 3.40791 -2.90801 0
M  V30 1668 C 156.298 4.07087 -1.20334 0
M  V30 1669 C 154.205 4.81872 -3.4286 0
M  V30 1670 H 153.135 0.691985 -0.299454 0
M  V30 1671 H 155.786 1.28841 -1.30661 0
M  V30 1672 H 154.168 3.87183 -0.830976 0
M  V30 1673 H 155.342 2.95225 -3.53806 0
M  V30 1674 H 153.657 2.78732 -3.0935 0
M  V30 1675 H 156.254 5.11225 -1.56693 0
M  V30 1676 H 156.597 4.16054 -0.143237 0
M  V30 1677 H 157.13 3.57779 -1.73893 0
M  V30 1678 H 153.869 4.78094 -4.48449 0
M  V30 1679 H 153.389 5.27972 -2.84615 0
M  V30 1680 H 155.068 5.50765 -3.39509 0
M  V30 1681 N 155.201 0.870884 1.31352 0
M  V30 1682 C 156.447 0.482987 1.96965 0
M  V30 1683 C 156.78 -0.962462 1.68672 0
M  V30 1684 O 156.055 -1.6779 0.98371 0
M  V30 1685 C 156.338 0.741752 3.52378 0
M  V30 1686 C 156.191 2.2368 3.9024 0
M  V30 1687 C 157.51 0.208838 4.39604 0
M  V30 1688 H 154.629 0.176955 0.715441 0
M  V30 1689 H 157.271 1.09229 1.55464 0
M  V30 1690 H 155.421 0.223149 3.87859 0
M  V30 1691 H 157.093 2.82273 3.64856 0
M  V30 1692 H 155.336 2.70901 3.38814 0
M  V30 1693 H 156.007 2.3685 4.98604 0
M  V30 1694 H 158.483 0.652529 4.10952 0
M  V30 1695 H 157.359 0.419336 5.47296 0
M  V30 1696 H 157.62 -0.889275 4.33064 0
M  V30 1697 N 156.679 -1.44442 0.630414 0
M  V30 1698 C 157.925 -2.02351 0.134816 0
M  V30 1699 C 158.258 -1.4947 -1.23986 0
M  V30 1700 O 157.533 -0.678475 -1.82283 0
M  V30 1701 C 157.816 -3.59898 0.120707 0
M  V30 1702 C 157.669 -4.23063 1.52767 0
M  V30 1703 C 158.988 -4.36585 -0.555127 0
M  V30 1704 H 156.107 -0.73527 0.0504646 0
M  V30 1705 H 158.749 -1.72022 0.806751 0
M  V30 1706 H 156.899 -3.85868 -0.451477 0
M  V30 1707 H 158.571 -4.08202 2.14869 0
M  V30 1708 H 156.814 -3.80586 2.08175 0
M  V30 1709 H 157.485 -5.32071 1.46984 0
M  V30 1710 H 159.961 -4.16044 -0.0685429 0
M  V30 1711 H 158.837 -5.46294 -0.534185 0
M  V30 1712 H 159.098 -4.11138 -1.62535 0
M  V30 1713 N 158.157 -0.370918 -1.53173 0
M  V30 1714 C 159.382 0.220293 -2.06227 0
M  V30 1715 C 159.807 1.41243 -1.24225 0
M  V30 1716 O 159.165 1.79387 -0.262645 0
M  V30 1717 C 159.213 0.586663 -3.55796 0
M  V30 1718 O 158.317 1.68317 -3.76488 0
M  V30 1719 H 157.658 0.0308099 -0.663285 0
M  V30 1720 H 160.188 -0.533068 -1.97534 0
M  V30 1721 H 160.198 0.85617 -3.98916 0
M  V30 1722 H 158.873 -0.285013 -4.14922 0
M  V30 1723 H 157.45 1.40881 -3.45264 0
M  V30 1724 N 159.635 1.57281 -0.100228 0
M  V30 1725 C 160.86 1.99302 0.573881 0
M  V30 1726 C 161.285 0.979059 1.60611 0
M  V30 1727 O 160.643 -0.0517803 1.81226 0
M  V30 1728 C 160.691 3.40274 1.19358 0
M  V30 1729 O 159.795 3.41676 2.30935 0
M  V30 1730 H 159.136 0.647944 0.145138 0
M  V30 1731 H 161.666 2.03779 -0.183156 0
M  V30 1732 H 161.676 3.78078 1.53365 0
M  V30 1733 H 160.351 4.13594 0.437385 0
M  V30 1734 H 158.928 3.15672 1.98509 0
M  V30 1735 N 161.113 -0.173488 1.56642 0
M  V30 1736 C 162.341 -0.906095 1.86004 0
M  V30 1737 C 162.756 -1.75921 0.685355 0
M  V30 1738 O 162.113 -1.79198 -0.345578 0
M  V30 1739 C 162.164 -1.78462 3.14378 0
M  V30 1740 O 161.885 -0.965914 4.27319 0
M  V30 1741 C 163.386 -2.62707 3.57071 0
M  V30 1742 H 160.606 -0.263341 0.617165 0
M  V30 1743 H 163.15 -0.174236 2.03756 0
M  V30 1744 H 161.305 -2.46984 2.98459 0
M  V30 1745 H 161.719 -1.56655 5.00559 0
M  V30 1746 H 163.193 -3.19969 4.49804 0
M  V30 1747 H 163.67 -3.37472 2.81086 0
M  V30 1748 H 164.276 -1.99521 3.75595 0
M  V30 1749 N 162.591 -1.51276 -0.441967 0
M  V30 1750 C 163.838 -1.63715 -1.19179 0
M  V30 1751 C 164.166 -0.351175 -1.91303 0
M  V30 1752 O 163.421 0.664524 -1.84072 0
M  V30 1753 C 163.72 -2.78746 -2.23686 0
M  V30 1754 C 163.386 -4.18189 -1.68607 0
M  V30 1755 C 162.048 -4.56125 -1.53308 0
M  V30 1756 C 164.4 -5.05222 -1.28062 0
M  V30 1757 C 161.728 -5.78804 -0.959317 0
M  V30 1758 C 164.08 -6.28476 -0.721162 0
M  V30 1759 C 162.744 -6.65188 -0.55504 0
M  V30 1760 H 162.014 -0.599076 -0.436106 0
M  V30 1761 H 164.661 -1.85296 -0.48351 0
M  V30 1762 H 162.966 -2.51369 -3.00535 0
M  V30 1763 H 164.663 -2.8557 -2.81515 0
M  V30 1764 H 161.253 -3.88277 -1.8149 0
M  V30 1765 H 165.437 -4.76524 -1.38704 0
M  V30 1766 H 160.693 -6.05899 -0.81833 0
M  V30 1767 H 164.867 -6.95259 -0.398458 0
M  V30 1768 H 162.494 -7.60123 -0.108311 0
M  V30 1769 N 164.069 0.697108 -1.41344 0
M  V30 1770 C 165.316 1.45714 -1.40619 0
M  V30 1771 C 165.644 1.94494 -0.0147907 0
M  V30 1772 O 164.899 1.69794 0.973066 0
M  V30 1773 C 165.198 2.68553 -2.35826 0
M  V30 1774 C 164.864 2.38438 -3.82698 0
M  V30 1775 C 163.526 2.29936 -4.22709 0
M  V30 1776 C 165.878 2.13567 -4.75435 0
M  V30 1777 C 163.206 1.94656 -5.53467 0
M  V30 1778 C 165.558 1.79797 -6.06511 0
M  V30 1779 C 164.222 1.69789 -6.45545 0
M  V30 1780 H 163.492 0.533206 -0.51456 0
M  V30 1781 H 166.139 0.796901 -1.74131 0
M  V30 1782 H 164.444 3.39503 -1.95563 0
M  V30 1783 H 166.141 3.2669 -2.32539 0
M  V30 1784 H 162.731 2.4595 -3.51008 0
M  V30 1785 H 166.915 2.19082 -4.45328 0
M  V30 1786 H 162.171 1.8546 -5.82593 0
M  V30 1787 H 166.345 1.59572 -6.77872 0
M  V30 1788 H 163.972 1.4222 -7.46778 0
M  V30 1789 N 165.547 1.27147 0.931209 0
M  V30 1790 C 166.477 1.12081 2.04842 0
M  V30 1791 C 167.458 0.0232364 1.70084 0
M  V30 1792 O 168.643 0.197085 1.93197 0
M  V30 1793 C 165.773 0.76354 3.38803 0
M  V30 1794 C 164.727 1.81396 3.87659 0
M  V30 1795 C 164.053 1.31075 5.18385 0
M  V30 1796 C 165.353 3.21739 4.11438 0
M  V30 1797 H 167.047 2.05537 2.17703 0
M  V30 1798 H 164.593 0.989603 1.04608 0
M  V30 1799 H 166.546 0.644982 4.16435 0
M  V30 1800 H 165.27 -0.206727 3.25945 0
M  V30 1801 H 163.929 1.92136 3.12217 0
M  V30 1802 H 163.577 0.330037 5.01916 0
M  V30 1803 H 163.277 2.013 5.52044 0
M  V30 1804 H 164.801 1.20506 5.98591 0
M  V30 1805 H 166.215 3.14019 4.79651 0
M  V30 1806 H 164.612 3.89644 4.56397 0
M  V30 1807 H 165.682 3.67054 3.16859 0
M  V30 1808 N 167.025 -1.13721 1.09112 0
M  V30 1809 C 168.255 -1.88499 0.845671 0
M  V30 1810 C 168.663 -1.79218 -0.606432 0
M  V30 1811 O 168.006 -1.1544 -1.42896 0
M  V30 1812 C 168.068 -3.38954 1.19793 0
M  V30 1813 C 167.732 -3.72018 2.65428 0
M  V30 1814 C 168.729 -3.7153 3.63677 0
M  V30 1815 C 166.414 -4.01775 3.01467 0
M  V30 1816 C 168.408 -4.00336 4.95994 0
M  V30 1817 C 166.095 -4.30243 4.33975 0
M  V30 1818 C 167.093 -4.29508 5.31048 0
M  V30 1819 O 166.781 -4.5728 6.61173 0
M  V30 1820 H 166.513 -0.603702 0.304171 0
M  V30 1821 H 169.067 -1.44903 1.45576 0
M  V30 1822 H 167.297 -3.83039 0.530871 0
M  V30 1823 H 168.986 -3.95052 0.932146 0
M  V30 1824 H 169.752 -3.4862 3.37179 0
M  V30 1825 H 165.631 -4.01496 2.26544 0
M  V30 1826 H 169.175 -3.99678 5.71755 0
M  V30 1827 H 165.072 -4.52625 4.60219 0
M  V30 1828 H 165.84 -4.74964 6.66597 0
M  V30 1829 N 168.503 -0.877838 -1.30888 0
M  V30 1830 C 169.75 -0.492696 -1.96415 0
M  V30 1831 C 170.078 0.956671 -1.69346 0
M  V30 1832 O 169.333 1.68993 -0.986913 0
M  V30 1833 C 169.632 -0.705748 -3.50363 0
M  V30 1834 C 169.298 -2.1291 -3.97467 0
M  V30 1835 C 167.96 -2.51834 -4.1004 0
M  V30 1836 C 170.312 -3.05702 -4.22132 0
M  V30 1837 C 167.64 -3.82775 -4.44635 0
M  V30 1838 C 169.992 -4.36166 -4.58194 0
M  V30 1839 C 168.656 -4.74993 -4.68975 0
M  V30 1840 H 167.926 -0.18029 -0.718733 0
M  V30 1841 H 170.573 -1.11233 -1.55883 0
M  V30 1842 H 168.878 -0.00303058 -3.918 0
M  V30 1843 H 170.575 -0.387456 -3.99124 0
M  V30 1844 H 167.165 -1.81694 -3.88182 0
M  V30 1845 H 171.349 -2.76853 -4.11906 0
M  V30 1846 H 166.605 -4.12609 -4.51181 0
M  V30 1847 H 170.779 -5.08111 -4.76231 0
M  V30 1848 H 168.406 -5.76495 -4.95537 0
M  V30 1849 N 169.982 1.44106 -0.638065 0
M  V30 1850 C 171.207 2.0685 -0.150916 0
M  V30 1851 C 171.632 1.47417 1.16833 0
M  V30 1852 O 170.99 0.578264 1.71831 0
M  V30 1853 C 171.038 3.60555 -0.05708 0
M  V30 1854 O 170.142 4.00465 0.984972 0
M  V30 1855 H 169.483 0.658151 -0.0879399 0
M  V30 1856 H 172.013 1.84865 -0.876707 0
M  V30 1857 H 172.023 4.07789 0.131232 0
M  V30 1858 H 170.698 4.03193 -1.02021 0
M  V30 1859 H 169.275 3.64849 0.770672 0
M  V30 1860 N 171.46 0.379036 1.52974 0
M  V30 1861 C 172.709 -0.207612 2.00629 0
M  V30 1862 C 173.022 -1.48758 1.27006 0
M  V30 1863 O 174.228 -2.15365 1.65318 0
M  V30 1864 C 172.684 -0.42053 3.57435 0
M  V30 1865 C 172.292 0.845587 4.39948 0
M  V30 1866 C 174.036 -0.964102 4.13407 0
M  V30 1867 C 171.943 0.601513 5.88333 0
M  V30 1868 H 170.873 -0.0813591 0.749598 0
M  V30 1869 H 173.524 0.499853 1.76561 0
M  V30 1870 H 171.906 -1.18959 3.7771 0
M  V30 1871 H 173.08 1.61848 4.31442 0
M  V30 1872 H 171.395 1.31336 3.95145 0
M  V30 1873 H 173.992 -1.16225 5.21916 0
M  V30 1874 H 174.335 -1.93019 3.68849 0
M  V30 1875 H 174.868 -0.25487 3.96983 0
M  V30 1876 H 171.607 1.53831 6.37194 0
M  V30 1877 H 171.127 -0.132628 5.99653 0
M  V30 1878 H 172.806 0.232134 6.46583 0
M  V30 1879 N 172.938 -1.57226 0.108567 0
M  V30 1880 C 173.868 -2.17778 -0.84232 0
M  V30 1881 C 174.849 -1.11487 -1.2847 0
M  V30 1882 O 176.034 -1.39681 -1.34918 0
M  V30 1883 C 173.164 -2.76888 -2.09644 0
M  V30 1884 C 172.118 -3.88669 -1.79221 0
M  V30 1885 C 171.444 -4.34541 -3.11574 0
M  V30 1886 C 172.744 -5.11251 -1.06864 0
M  V30 1887 H 174.438 -2.97489 -0.337774 0
M  V30 1888 H 171.984 -1.43097 -0.161025 0
M  V30 1889 H 173.937 -3.17904 -2.76614 0
M  V30 1890 H 172.661 -1.94451 -2.62405 0
M  V30 1891 H 171.32 -3.48213 -1.14644 0
M  V30 1892 H 170.968 -3.48977 -3.62249 0
M  V30 1893 H 170.668 -5.09914 -2.91996 0
M  V30 1894 H 172.192 -4.782 -3.7968 0
M  V30 1895 H 173.606 -5.49352 -1.63968 0
M  V30 1896 H 172.003 -5.9214 -0.974178 0
M  V30 1897 H 173.073 -4.8487 -0.0536168 0
M  V30 1898 N 174.416 0.165178 -1.56732 0
M  V30 1899 C 175.662 0.882112 -1.82611 0
M  V30 1900 C 175.995 1.81628 -0.687378 0
M  V30 1901 O 175.27 1.92009 0.310267 0
M  V30 1902 C 175.553 1.67245 -3.18906 0
M  V30 1903 C 175.406 0.760987 -4.43316 0
M  V30 1904 C 176.725 2.63884 -3.52212 0
M  V30 1905 H 173.844 0.319242 -0.664269 0
M  V30 1906 H 176.486 0.148052 -1.89422 0
M  V30 1907 H 174.636 2.29824 -3.1323 0
M  V30 1908 H 176.308 0.147596 -4.61064 0
M  V30 1909 H 174.551 0.0694102 -4.33744 0
M  V30 1910 H 175.222 1.34962 -5.35247 0
M  V30 1911 H 177.698 2.11429 -3.58381 0
M  V30 1912 H 176.574 3.16245 -4.48643 0
M  V30 1913 H 176.835 3.44377 -2.77231 0
M  V30 1914 N 175.894 1.51508 0.433938 0
M  V30 1915 C 177.143 1.63578 1.18005 0
M  V30 1916 C 177.456 0.359514 1.92268 0
M  V30 1917 O 178.662 0.359632 2.69108 0
M  V30 1918 C 177.118 2.88901 2.14626 0
M  V30 1919 C 176.726 4.23544 1.45995 0
M  V30 1920 C 178.47 3.10328 2.89649 0
M  V30 1921 C 176.377 5.40014 2.4112 0
M  V30 1922 H 175.307 0.609277 0.444182 0
M  V30 1923 H 177.958 1.77978 0.446773 0
M  V30 1924 H 176.34 2.68142 2.91403 0
M  V30 1925 H 177.514 4.54696 0.747532 0
M  V30 1926 H 175.829 4.08021 0.831115 0
M  V30 1927 H 178.426 3.94518 3.60915 0
M  V30 1928 H 178.769 2.23544 3.51189 0
M  V30 1929 H 179.302 3.31443 2.19978 0
M  V30 1930 H 176.041 6.29068 1.84264 0
M  V30 1931 H 175.561 5.13233 3.10406 0
M  V30 1932 H 177.24 5.72099 3.02177 0
M  V30 1933 N 177.372 -0.689602 1.41712 0
M  V30 1934 C 178.618 -1.45181 1.41599 0
M  V30 1935 C 178.951 -1.94181 0.0270081 0
M  V30 1936 O 178.226 -1.6993 -0.946265 0
M  V30 1937 C 178.509 -2.65945 2.42787 0
M  V30 1938 C 178.362 -2.22672 3.90816 0
M  V30 1939 C 179.681 -3.68149 2.41151 0
M  V30 1940 H 176.8 -0.526576 0.515642 0
M  V30 1941 H 179.442 -0.784947 1.73028 0
M  V30 1942 H 177.592 -3.2284 2.16116 0
M  V30 1943 H 179.264 -1.71058 4.28412 0
M  V30 1944 H 177.507 -1.54394 4.05395 0
M  V30 1945 H 178.178 -3.0935 4.57172 0
M  V30 1946 H 180.654 -3.2094 2.64834 0
M  V30 1947 H 179.53 -4.50248 3.13955 0
M  V30 1948 H 179.791 -4.18259 1.43221 0
M  V30 1949 N 178.85 -1.27639 -0.924453 0
M  V30 1950 C 180.075 -1.17101 -1.71179 0
M  V30 1951 C 180.5 0.268134 -1.86179 0
M  V30 1952 O 179.858 1.19415 -1.36418 0
M  V30 1953 C 179.906 -1.86313 -3.08739 0
M  V30 1954 O 179.01 -1.16331 -3.95652 0
M  V30 1955 H 178.351 -0.407091 -0.524569 0
M  V30 1956 H 180.881 -1.68767 -1.15666 0
M  V30 1957 H 180.891 -1.938 -3.59034 0
M  V30 1958 H 179.566 -2.91001 -2.97138 0
M  V30 1959 H 178.143 -1.16935 -3.54091 0
M  V30 1960 N 180.328 1.1314 -1.09713 0
M  V30 1961 C 181.258 2.20748 -0.761102 0
M  V30 1962 C 182.239 1.68061 0.262566 0
M  V30 1963 O 183.424 1.93765 0.129977 0
M  V30 1964 C 180.554 3.46812 -0.184054 0
M  V30 1965 C 179.508 4.12606 -1.13757 0
M  V30 1966 C 178.834 5.33031 -0.422083 0
M  V30 1967 C 180.134 4.59603 -2.48118 0
M  V30 1968 H 181.828 2.49113 -1.66082 0
M  V30 1969 H 179.374 1.19734 -0.799987 0
M  V30 1970 H 181.327 4.21353 0.0631215 0
M  V30 1971 H 180.051 3.17851 0.750868 0
M  V30 1972 H 178.71 3.40036 -1.37007 0
M  V30 1973 H 178.358 5.00335 0.517072 0
M  V30 1974 H 178.058 5.77999 -1.05788 0
M  V30 1975 H 179.582 6.10325 -0.183277 0
M  V30 1976 H 180.996 5.25552 -2.29059 0
M  V30 1977 H 179.393 5.15321 -3.07514 0
M  V30 1978 H 180.463 3.73971 -3.08665 0
M  V30 1979 N 181.806 0.884767 1.30421 0
M  V30 1980 C 182.736 0.367574 2.30589 0
M  V30 1981 C 183.717 -0.549464 1.60981 0
M  V30 1982 O 184.902 -0.46336 1.88591 0
M  V30 1983 C 182.032 -0.418944 3.44764 0
M  V30 1984 C 180.986 0.406316 4.26067 0
M  V30 1985 C 180.312 -0.506793 5.32293 0
M  V30 1986 C 181.612 1.64832 4.95608 0
M  V30 1987 H 183.306 1.20462 2.74097 0
M  V30 1988 H 180.852 0.580695 1.31772 0
M  V30 1989 H 182.805 -0.791395 4.13902 0
M  V30 1990 H 181.529 -1.28964 3.0006 0
M  V30 1991 H 180.188 0.760903 3.58617 0
M  V30 1992 H 179.836 -1.37519 4.83836 0
M  V30 1993 H 179.536 0.0415828 5.87585 0
M  V30 1994 H 181.06 -0.875764 6.04287 0
M  V30 1995 H 182.474 1.34646 5.57264 0
M  V30 1996 H 180.871 2.13688 5.60765 0
M  V30 1997 H 181.941 2.39284 4.21748 0
M  V30 1998 N 183.284 -1.43765 0.645699 0
M  V30 1999 C 184.509 -2.06767 0.161883 0
M  V30 2000 C 184.934 -1.48034 -1.16049 0
M  V30 2001 O 184.292 -0.587369 -1.71522 0
M  V30 2002 C 184.34 -3.60519 0.0762003 0
M  V30 2003 O 183.444 -4.00982 -0.963721 0
M  V30 2004 H 182.785 -0.657675 0.091429 0
M  V30 2005 H 185.315 -1.84397 0.886499 0
M  V30 2006 H 185.325 -4.07853 -0.109604 0
M  V30 2007 H 184 -4.02646 1.04157 0
M  V30 2008 H 182.577 -3.65253 -0.751312 0
M  V30 2009 N 184.763 -0.387143 -1.52771 0
M  V30 2010 C 185.988 0.198407 -2.06449 0
M  V30 2011 C 186.413 1.39918 -1.25716 0
M  V30 2012 O 185.771 1.79099 -0.281657 0
M  V30 2013 C 185.819 0.548893 -3.56398 0
M  V30 2014 O 184.923 1.64315 -3.78252 0
M  V30 2015 H 184.264 0.0237731 -0.663574 0
M  V30 2016 H 186.794 -0.553989 -1.96957 0
M  V30 2017 H 186.804 0.813812 -3.99801 0
M  V30 2018 H 185.479 -0.329005 -4.14597 0
M  V30 2019 H 184.056 1.37211 -3.46738 0
M  V30 2020 N 186.241 1.57166 -0.116904 0
M  V30 2021 C 187.171 2.18222 0.830759 0
M  V30 2022 C 188.152 1.12167 1.27877 0
M  V30 2023 O 189.337 1.40394 1.34176 0
M  V30 2024 C 186.467 2.77996 2.08172 0
M  V30 2025 C 185.421 3.89614 1.77157 0
M  V30 2026 C 184.747 4.36187 3.09265 0
M  V30 2027 C 186.047 5.1181 1.04151 0
M  V30 2028 H 187.741 2.97664 0.321992 0
M  V30 2029 H 185.287 1.4318 0.153434 0
M  V30 2030 H 187.24 3.19366 2.74924 0
M  V30 2031 H 185.964 1.9584 2.6137 0
M  V30 2032 H 184.623 3.48816 1.12796 0
M  V30 2033 H 184.271 3.50893 3.60393 0
M  V30 2034 H 183.971 5.11455 2.89288 0
M  V30 2035 H 185.495 4.80207 3.77139 0
M  V30 2036 H 186.909 5.50214 1.61052 0
M  V30 2037 H 185.306 5.92648 0.942762 0
M  V30 2038 H 186.376 4.84892 0.0279022 0
M  V30 2039 N 187.719 -0.156864 1.56817 0
M  V30 2040 C 188.966 -0.871125 1.82805 0
M  V30 2041 C 189.294 -1.81611 0.696262 0
M  V30 2042 O 188.549 -1.93141 -0.315459 0
M  V30 2043 C 188.848 -1.68737 3.1506 0
M  V30 2044 C 188.514 -0.890045 4.42028 0
M  V30 2045 C 187.176 -0.670042 4.76512 0
M  V30 2046 C 189.528 -0.331769 5.20143 0
M  V30 2047 C 186.856 0.119104 5.86579 0
M  V30 2048 C 189.208 0.444365 6.31037 0
M  V30 2049 C 187.872 0.675035 6.64078 0
M  V30 2050 H 187.142 -0.318767 0.668931 0
M  V30 2051 H 189.789 -0.135274 1.91022 0
M  V30 2052 H 188.094 -2.49304 3.0225 0
M  V30 2053 H 189.791 -2.24331 3.3238 0
M  V30 2054 H 186.381 -1.07157 4.14988 0
M  V30 2055 H 190.565 -0.489043 4.93885 0
M  V30 2056 H 185.821 0.307417 6.10627 0
M  V30 2057 H 189.995 0.884139 6.90765 0
M  V30 2058 H 187.622 1.28839 7.49203 0
M  V30 2059 N 189.197 -1.51736 -0.425897 0
M  V30 2060 C 190.446 -1.64201 -1.17136 0
M  V30 2061 C 190.759 -0.369705 -1.92074 0
M  V30 2062 O 191.965 -0.373898 -2.68913 0
M  V30 2063 C 190.421 -2.90035 -2.13091 0
M  V30 2064 C 190.029 -4.24312 -1.43747 0
M  V30 2065 C 191.773 -3.1186 -2.87999 0
M  V30 2066 C 189.68 -5.41285 -2.38253 0
M  V30 2067 H 188.61 -0.611624 -0.440944 0
M  V30 2068 H 191.261 -1.78212 -0.437328 0
M  V30 2069 H 189.643 -2.69684 -2.89977 0
M  V30 2070 H 190.817 -4.55086 -0.723408 0
M  V30 2071 H 189.132 -4.08456 -0.809465 0
M  V30 2072 H 191.729 -3.96427 -3.58817 0
M  V30 2073 H 192.072 -2.25403 -3.49999 0
M  V30 2074 H 192.605 -3.32605 -2.18217 0
M  V30 2075 H 189.344 -6.30037 -1.80925 0
M  V30 2076 H 188.864 -5.14872 -3.0768 0
M  V30 2077 H 190.543 -5.73694 -2.99139 0
M  V30 2078 N 190.675 0.682077 -1.42076 0
M  V30 2079 C 191.585 1.82535 -1.47371 0
M  V30 2080 C 192.601 1.7017 -0.363079 0
M  V30 2081 O 193.777 1.91848 -0.612875 0
M  V30 2082 C 190.842 3.18624 -1.36674 0
M  V30 2083 C 189.903 3.42999 -2.58167 0
M  V30 2084 C 189.136 4.72595 -2.4797 0
M  V30 2085 O 189.359 5.50006 -1.5116 0
M  V30 2086 O 188.293 4.98054 -3.37974 0
M  V30 2087 H 192.119 1.81023 -2.43853 0
M  V30 2088 H 189.704 0.836887 -1.2376 0
M  V30 2089 H 191.586 3.99847 -1.33043 0
M  V30 2090 H 190.261 3.20789 -0.433138 0
M  V30 2091 H 189.168 2.61653 -2.67373 0
M  V30 2092 H 190.501 3.45659 -3.50401 0
M  V30 2093 N 192.153 1.28127 0.917671 0
M  V30 2094 C 193.399 1.15223 1.66888 0
M  V30 2095 C 193.732 -0.299293 1.9188 0
M  V30 2096 O 193.007 -1.21805 1.51637 0
M  V30 2097 C 193.29 1.94706 3.02922 0
M  V30 2098 C 193.143 3.47898 2.85109 0
M  V30 2099 C 194.462 1.75939 4.03402 0
M  V30 2100 H 191.581 0.419946 0.605652 0
M  V30 2101 H 194.223 1.57398 1.06423 0
M  V30 2102 H 192.373 1.58864 3.54534 0
M  V30 2103 H 194.045 3.93624 2.40537 0
M  V30 2104 H 192.288 3.7373 2.20246 0
M  V30 2105 H 192.959 3.98765 3.81694 0
M  V30 2106 H 195.435 2.07209 3.60837 0
M  V30 2107 H 194.311 2.33931 4.96556 0
M  V30 2108 H 194.572 0.709877 4.36364 0
M  V30 2109 N 193.631 -1.12557 1.10312 0
M  V30 2110 C 194.578 -2.18247 0.750781 0
M  V30 2111 C 195.548 -1.63853 -0.272293 0
M  V30 2112 O 196.733 -1.90195 -0.151862 0
M  V30 2113 C 193.873 -3.44591 0.187379 0
M  V30 2114 C 192.986 -4.13046 1.2656 0
M  V30 2115 C 192.121 -5.27034 0.663978 0
M  V30 2116 C 191.16 -5.87353 1.72287 0
M  V30 2117 N 190.297 -6.92757 1.1416 0
M  V30 2118 H 195.137 -2.47732 1.65628 0
M  V30 2119 H 192.674 -1.21629 0.827337 0
M  V30 2120 H 194.632 -4.16904 -0.157148 0
M  V30 2121 H 193.262 -3.15527 -0.681355 0
M  V30 2122 H 192.314 -3.38924 1.72727 0
M  V30 2123 H 193.626 -4.53947 2.06721 0
M  V30 2124 H 192.78 -6.06104 0.268824 0
M  V30 2125 H 191.519 -4.87407 -0.169082 0
M  V30 2126 H 190.524 -5.06971 2.12746 0
M  V30 2127 H 191.749 -6.29051 2.55875 0
M  V30 2128 H 189.695 -6.5517 0.329984 0
M  V30 2129 H 189.612 -7.3225 1.88007 0
M  V30 2130 H 190.88 -7.75658 0.772956 0
M  V30 2131 N 195.109 -0.891671 -1.2995 0
M  V30 2132 C 196.337 -0.52866 -2.00032 0
M  V30 2133 C 196.752 0.884574 -1.66795 0
M  V30 2134 O 196.109 1.5827 -0.908669 0
M  V30 2135 C 196.16 -0.701814 -3.54622 0
M  V30 2136 O 195.881 -2.05942 -3.86678 0
M  V30 2137 C 197.382 -0.342683 -4.41973 0
M  V30 2138 H 194.602 -0.203659 -0.639347 0
M  V30 2139 H 197.146 -1.19881 -1.65677 0
M  V30 2140 H 195.301 -0.0789468 -3.8732 0
M  V30 2141 H 195.715 -2.08291 -4.81368 0
M  V30 2142 H 197.189 -0.514709 -5.49595 0
M  V30 2143 H 197.666 0.71975 -4.33262 0
M  V30 2144 H 198.272 -0.942154 -4.14733 0
M  V30 2145 N 196.587 1.43421 -0.653314 0
M  V30 2146 C 198.003 1.56341 -0.320886 0
M  V30 2147 C 198.203 1.63696 1.17499 0
M  V30 2148 O 197.259 1.59208 1.95982 0
M  V30 2149 C 198.572 2.82424 -1.03233 0
M  V30 2150 C 200.12 2.96168 -1.01259 0
M  V30 2151 C 200.595 4.25084 -1.70492 0
M  V30 2152 N 202.086 4.31948 -1.67257 0
M  V30 2153 C 202.821 5.30466 -2.17701 0
M  V30 2154 N 202.317 6.35261 -2.76434 0
M  V30 2155 N 204.11 5.2212 -2.082 0
M  V30 2156 H 196.261 1.3689 -1.62403 0
M  V30 2157 H 198.524 0.657455 -0.682977 0
M  V30 2158 H 198.23 2.83053 -2.08744 0
M  V30 2159 H 198.104 3.72653 -0.583948 0
M  V30 2160 H 200.491 2.9508 0.0341235 0
M  V30 2161 H 200.572 2.07229 -1.49966 0
M  V30 2162 H 200.216 4.26932 -2.7512 0
M  V30 2163 H 200.146 5.1292 -1.19251 0
M  V30 2164 H 202.637 3.56838 -1.24398 0
M  V30 2165 H 202.95 7.06754 -3.12601 0
M  V30 2166 H 201.295 6.35884 -2.80495 0
M  V30 2167 H 204.486 4.39166 -1.62021 0
M  V30 2168 H 204.659 5.98739 -2.47822 0
M  V30 2169 N 198.065 0.39524 1.52563 0
M  V30 2170 C 199.293 -0.184943 2.06072 0
M  V30 2171 C 199.708 -1.40021 1.26647 0
M  V30 2172 O 199.065 -1.79767 0.314672 0
M  V30 2173 C 199.116 -0.549179 3.57304 0
M  V30 2174 O 198.837 0.617813 4.33722 0
M  V30 2175 C 200.338 -1.18459 4.2718 0
M  V30 2176 H 197.558 -0.0265025 0.670476 0
M  V30 2177 H 200.102 0.562184 1.96621 0
M  V30 2178 H 198.257 -1.2462 3.66809 0
M  V30 2179 H 198.671 0.317091 5.23541 0
M  V30 2180 H 200.145 -1.38976 5.34219 0
M  V30 2181 H 200.622 -2.15368 3.82771 0
M  V30 2182 H 201.228 -0.528163 4.22008 0
M  V30 2183 N 199.544 -1.57102 0.125237 0
M  V30 2184 C 200.774 -1.99472 -0.538015 0
M  V30 2185 C 201.182 -1.00395 -1.60366 0
M  V30 2186 O 200.525 0.0103875 -1.83697 0
M  V30 2187 C 200.587 -3.38262 -1.21734 0
M  V30 2188 C 200.251 -4.56021 -0.298897 0
M  V30 2189 C 201.248 -5.17817 0.464943 0
M  V30 2190 C 198.933 -5.01869 -0.208149 0
M  V30 2191 C 200.927 -6.23852 1.3072 0
M  V30 2192 C 198.614 -6.07763 0.637736 0
M  V30 2193 C 199.612 -6.68622 1.39403 0
M  V30 2194 O 199.3 -7.7247 2.22586 0
M  V30 2195 H 199.032 -0.659934 -0.146501 0
M  V30 2196 H 201.586 -2.04321 0.210267 0
M  V30 2197 H 199.816 -3.30185 -2.01282 0
M  V30 2198 H 201.505 -3.6488 -1.77813 0
M  V30 2199 H 202.271 -4.83308 0.404741 0
M  V30 2200 H 198.15 -4.54241 -0.786522 0
M  V30 2201 H 201.694 -6.71284 1.898 0
M  V30 2202 H 197.591 -6.41701 0.699309 0
M  V30 2203 H 198.359 -7.89595 2.15596 0
M  V30 2204 N 201.022 0.148545 -1.56898 0
M  V30 2205 C 202.299 0.890019 -1.74178 0
M  V30 2206 C 202.679 1.99407 -0.692839 0
M  V30 2207 O 202.027 2.26671 0.288505 0
M  V30 2208 C 202.237 1.43389 -3.18183 0
M  V30 2209 C 203.585 1.89791 -3.79822 0
M  V30 2210 O 204.609 1.53134 -3.21603 0
M  V30 2211 O 203.468 2.57387 -4.82093 0
M  V30 2212 H 200.562 0.420496 -0.712118 0
M  V30 2213 H 203.108 0.134591 -1.69165 0
M  V30 2214 H 201.88 0.640383 -3.86024 0
M  V30 2215 H 201.503 2.25287 -3.27615 0
M  V30 2216 N 202.5 1.5196 0.417844 0
M  V30 2217 C 203.746 1.65836 1.16732 0
M  V30 2218 C 204.079 0.382881 1.90388 0
M  V30 2219 O 203.354 -0.618368 1.84408 0
M  V30 2220 C 203.637 2.87466 2.16876 0
M  V30 2221 C 203.49 4.25041 1.47174 0
M  V30 2222 C 204.809 3.04613 3.17646 0
M  V30 2223 H 201.928 0.603515 0.423011 0
M  V30 2224 H 204.57 1.84494 0.454105 0
M  V30 2225 H 202.72 2.71689 2.777 0
M  V30 2226 H 204.392 4.52527 0.895376 0
M  V30 2227 H 202.635 4.26843 0.773806 0
M  V30 2228 H 203.306 5.06176 2.20204 0
M  V30 2229 H 205.782 3.1923 2.66892 0
M  V30 2230 H 204.658 3.91247 3.8499 0
M  V30 2231 H 204.919 2.17541 3.84874 0
M  V30 2232 N 203.978 -0.674533 1.42435 0
M  V30 2233 C 205.218 -1.4466 1.44405 0
M  V30 2234 C 205.582 -1.91911 0.0585784 0
M  V30 2235 O 206.783 -2.68759 -0.0469991 0
M  V30 2236 C 205.054 -2.61136 2.44013 0
M  V30 2237 S 206.613 -3.49981 2.64687 0
M  V30 2238 H 203.431 -0.494074 0.511284 0
M  V30 2239 H 206.033 -0.785162 1.7904 0
M  V30 2240 H 204.737 -2.24662 3.43446 0
M  V30 2241 H 204.268 -3.32153 2.10803 0
M  V30 2242 H 206.283 -4.57124 1.93007 0
M  V30 2243 N 205.456 -1.28612 -0.910864 0
M  V30 2244 C 206.703 -1.15934 -1.66029 0
M  V30 2245 C 207.031 0.291483 -1.92303 0
M  V30 2246 O 206.286 1.22816 -1.52364 0
M  V30 2247 C 206.585 -1.90624 -3.0232 0
M  V30 2248 C 206.251 -3.40405 -2.95695 0
M  V30 2249 C 204.913 -3.81255 -2.93595 0
M  V30 2250 C 207.265 -4.359 -2.85728 0
M  V30 2251 C 204.593 -5.15936 -2.79334 0
M  V30 2252 C 206.945 -5.70657 -2.73007 0
M  V30 2253 C 205.609 -6.10779 -2.69267 0
M  V30 2254 H 204.879 -0.424234 -0.607541 0
M  V30 2255 H 207.526 -1.5942 -1.06101 0
M  V30 2256 H 205.831 -1.39696 -3.6605 0
M  V30 2257 H 207.528 -1.78228 -3.59215 0
M  V30 2258 H 204.118 -3.07927 -2.98125 0
M  V30 2259 H 208.302 -4.053 -2.86436 0
M  V30 2260 H 203.558 -5.46146 -2.74835 0
M  V30 2261 H 207.732 -6.44311 -2.64264 0
M  V30 2262 H 205.359 -7.1509 -2.57974 0
M  V30 2263 N 206.934 1.1197 -1.10907 0
M  V30 2264 C 208.183 1.82947 -0.849302 0
M  V30 2265 C 208.496 1.85275 0.627112 0
M  V30 2266 O 209.702 2.52296 1.00295 0
M  V30 2267 C 208.158 3.28529 -1.46959 0
M  V30 2268 C 207.766 3.34546 -2.97965 0
M  V30 2269 C 209.51 4.04443 -1.28942 0
M  V30 2270 C 207.417 4.74491 -3.53004 0
M  V30 2271 H 206.347 0.685477 -0.314065 0
M  V30 2272 H 208.998 1.2604 -1.33365 0
M  V30 2273 H 207.38 3.85333 -0.912917 0
M  V30 2274 H 208.554 2.87654 -3.59989 0
M  V30 2275 H 206.869 2.72108 -3.15192 0
M  V30 2276 H 209.466 5.07787 -1.67502 0
M  V30 2277 H 209.809 4.15656 -0.231456 0
M  V30 2278 H 210.342 3.5401 -1.81443 0
M  V30 2279 H 207.081 4.68474 -4.58489 0
M  V30 2280 H 206.601 5.21816 -2.9575 0
M  V30 2281 H 208.28 5.4344 -3.51115 0
M  V30 2282 N 208.412 0.89855 1.29475 0
M  V30 2283 C 209.342 0.39201 2.30186 0
M  V30 2284 C 210.323 -0.532359 1.61555 0
M  V30 2285 O 211.508 -0.443331 1.89072 0
M  V30 2286 C 208.638 -0.382353 3.45189 0
M  V30 2287 C 207.592 0.451483 4.25612 0
M  V30 2288 C 206.918 -0.450307 5.328 0
M  V30 2289 C 208.218 1.70079 4.93832 0
M  V30 2290 H 209.912 1.23362 2.72804 0
M  V30 2291 H 207.458 0.594638 1.31149 0
M  V30 2292 H 209.411 -0.747451 4.14718 0
M  V30 2293 H 208.135 -1.25774 3.01411 0
M  V30 2294 H 206.794 0.798897 3.57789 0
M  V30 2295 H 206.442 -1.32379 4.85268 0
M  V30 2296 H 206.142 0.103902 5.87508 0
M  V30 2297 H 207.666 -0.811623 6.05182 0
M  V30 2298 H 209.08 1.40549 5.55805 0
M  V30 2299 H 207.477 2.19623 5.58467 0
M  V30 2300 H 208.547 2.43744 4.19186 0
M  V30 2301 N 209.89 -1.43072 0.660911 0
M  V30 2302 C 211.115 -2.06584 0.183805 0
M  V30 2303 C 211.54 -1.49257 -1.14472 0
M  V30 2304 O 210.898 -0.605528 -1.70889 0
M  V30 2305 C 210.946 -3.60418 0.114434 0
M  V30 2306 O 210.05 -4.01981 -0.921137 0
M  V30 2307 H 209.391 -0.656669 0.0983994 0
M  V30 2308 H 211.921 -1.83447 0.906006 0
M  V30 2309 H 211.931 -4.07946 -0.0663394 0
M  V30 2310 H 210.606 -4.01519 1.08422 0
M  V30 2311 H 209.183 -3.66029 -0.71253 0
M  V30 2312 N 211.368 -0.403325 -1.52352 0
M  V30 2313 C 212.615 0.174347 -2.01748 0
M  V30 2314 C 212.943 1.45636 -1.2892 0
M  V30 2315 O 212.198 1.9193 -0.382258 0
M  V30 2316 C 212.497 0.474665 -3.54234 0
M  V30 2317 C 212.163 -0.717458 -4.45155 0
M  V30 2318 C 210.825 -1.04447 -4.69728 0
M  V30 2319 C 213.177 -1.51432 -4.98716 0
M  V30 2320 C 210.505 -2.16963 -5.45109 0
M  V30 2321 C 212.857 -2.6302 -5.75329 0
M  V30 2322 C 211.521 -2.96213 -5.98175 0
M  V30 2323 H 210.791 0.0637981 -0.738248 0
M  V30 2324 H 213.438 -0.543553 -1.83624 0
M  V30 2325 H 211.743 1.27406 -3.70506 0
M  V30 2326 H 213.44 0.934496 -3.89959 0
M  V30 2327 H 210.03 -0.452596 -4.26204 0
M  V30 2328 H 214.214 -1.27491 -4.79645 0
M  V30 2329 H 209.47 -2.43034 -5.61021 0
M  V30 2330 H 213.644 -3.25158 -6.15829 0
M  V30 2331 H 211.271 -3.83516 -6.56368 0
M  V30 2332 N 212.846 1.57033 -0.133567 0
M  V30 2333 C 214.095 1.94861 0.520768 0
M  V30 2334 C 214.408 1.02012 1.66892 0
M  V30 2335 O 215.614 1.29365 2.38699 0
M  V30 2336 C 214.07 3.46362 0.977809 0
M  V30 2337 C 213.678 4.47773 -0.142674 0
M  V30 2338 C 215.422 3.93083 1.60269 0
M  V30 2339 C 213.329 5.90468 0.331883 0
M  V30 2340 H 212.259 0.727453 0.198315 0
M  V30 2341 H 214.91 1.82227 -0.215759 0
M  V30 2342 H 213.292 3.54282 1.7692 0
M  V30 2343 H 214.466 4.51536 -0.919317 0
M  V30 2344 H 212.781 4.10891 -0.675124 0
M  V30 2345 H 215.378 4.97121 1.96914 0
M  V30 2346 H 215.721 3.33876 2.48662 0
M  V30 2347 H 216.254 3.88025 0.876453 0
M  V30 2348 H 212.993 6.53463 -0.516341 0
M  V30 2349 H 212.513 5.90094 1.07469 0
M  V30 2350 H 214.192 6.42179 0.788332 0
M  V30 2351 N 214.325 -0.140222 1.56975 0
M  V30 2352 C 215.255 -1.17456 2.01808 0
M  V30 2353 C 216.236 -1.44415 0.898794 0
M  V30 2354 O 217.421 -1.5522 1.16707 0
M  V30 2355 C 214.551 -2.50607 2.40444 0
M  V30 2356 C 213.505 -2.38155 3.55621 0
M  V30 2357 C 212.831 -3.76078 3.80091 0
M  V30 2358 C 214.131 -1.85991 4.88062 0
M  V30 2359 H 215.825 -0.801743 2.88466 0
M  V30 2360 H 213.371 -0.38422 1.38779 0
M  V30 2361 H 215.324 -3.23197 2.7041 0
M  V30 2362 H 214.048 -2.89737 1.50732 0
M  V30 2363 H 212.707 -1.68016 3.25832 0
M  V30 2364 H 212.355 -4.12656 2.87618 0
M  V30 2365 H 212.055 -3.68606 4.57606 0
M  V30 2366 H 213.579 -4.50206 4.12488 0
M  V30 2367 H 214.993 -2.4838 5.16701 0
M  V30 2368 H 213.39 -1.89393 5.6943 0
M  V30 2369 H 214.46 -0.816023 4.77984 0
M  V30 2370 N 215.803 -1.52179 -0.40978 0
M  V30 2371 C 216.735 -1.71703 -1.51825 0
M  V30 2372 C 217.748 -0.597445 -1.51441 0
M  V30 2373 O 218.937 -0.872582 -1.55719 0
M  V30 2374 C 216.037 -1.74171 -2.90719 0
M  V30 2375 C 215.21 -3.03156 -3.15302 0
M  V30 2376 C 214.269 -2.97445 -4.34065 0
M  V30 2377 O 213.295 -3.71352 -4.31377 0
M  V30 2378 N 214.497 -2.15191 -5.39141 0
M  V30 2379 H 217.262 -2.67334 -1.35472 0
M  V30 2380 H 214.823 -1.50409 -0.599069 0
M  V30 2381 H 216.815 -1.67884 -3.68235 0
M  V30 2382 H 215.385 -0.860166 -3.00533 0
M  V30 2383 H 214.605 -3.23097 -2.25836 0
M  V30 2384 H 215.893 -3.88484 -3.28569 0
M  V30 2385 H 215.291 -1.54573 -5.44173 0
M  V30 2386 H 213.848 -2.1476 -6.15403 0
M  V30 2387 N 217.281 0.66697 -1.42791 0
M  V30 2388 C 218.214 1.79177 -1.41318 0
M  V30 2389 C 219.192 1.60234 -0.276401 0
M  V30 2390 O 220.376 1.82602 -0.46785 0
M  V30 2391 C 217.503 3.16289 -1.21157 0
M  V30 2392 C 216.549 3.53964 -2.37932 0
M  V30 2393 S 217.382 3.55501 -4.00474 0
M  V30 2394 C 218.538 4.95292 -3.8267 0
M  V30 2395 H 218.771 1.80153 -2.365 0
M  V30 2396 H 216.304 0.838357 -1.29657 0
M  V30 2397 H 218.262 3.95428 -1.10212 0
M  V30 2398 H 216.923 3.1289 -0.275481 0
M  V30 2399 H 216.116 4.53646 -2.19594 0
M  V30 2400 H 215.718 2.82204 -2.45432 0
M  V30 2401 H 218.01 5.83584 -3.44145 0
M  V30 2402 H 218.953 5.18679 -4.82055 0
M  V30 2403 H 219.361 4.68179 -3.15386 0
M  V30 2404 N 218.759 1.29093 0.90403 0
M  V30 2405 C 220.008 1.16187 1.64874 0
M  V30 2406 C 220.321 -0.286742 1.93487 0
M  V30 2407 O 221.527 -0.537062 2.66135 0
M  V30 2408 C 219.983 2.03177 2.97064 0
M  V30 2409 C 219.591 3.52836 2.76062 0
M  V30 2410 C 221.335 1.98984 3.74974 0
M  V30 2411 C 219.242 4.31945 4.03952 0
M  V30 2412 H 218.172 0.431246 0.618501 0
M  V30 2413 H 220.823 1.53699 1.00243 0
M  V30 2414 H 219.205 1.5853 3.62883 0
M  V30 2415 H 220.379 4.05507 2.18863 0
M  V30 2416 H 218.694 3.58656 2.11553 0
M  V30 2417 H 221.291 2.55351 4.69787 0
M  V30 2418 H 221.634 0.968815 4.0487 0
M  V30 2419 H 222.167 2.41652 3.15989 0
M  V30 2420 H 218.906 5.34667 3.79225 0
M  V30 2421 H 218.426 3.84045 4.60727 0
M  V30 2422 H 220.105 4.42379 4.72133 0
M  V30 2423 N 220.237 -1.11381 1.11499 0
M  V30 2424 C 221.467 -1.86663 0.885464 0
M  V30 2425 C 221.875 -1.80464 -0.568281 0
M  V30 2426 O 221.218 -1.18445 -1.40415 0
M  V30 2427 C 221.28 -3.36337 1.26956 0
M  V30 2428 C 220.944 -3.66304 2.73259 0
M  V30 2429 C 221.941 -3.63733 3.71476 0
M  V30 2430 C 219.626 -3.9529 3.09921 0
M  V30 2431 C 221.62 -3.89725 5.04374 0
M  V30 2432 C 219.307 -4.20941 4.43004 0
M  V30 2433 C 220.305 -4.18147 5.40039 0
M  V30 2434 O 219.993 -4.43153 6.70724 0
M  V30 2435 H 219.725 -0.597114 0.316908 0
M  V30 2436 H 222.279 -1.41782 1.48617 0
M  V30 2437 H 220.509 -3.81826 0.611999 0
M  V30 2438 H 222.198 -3.92986 1.01573 0
M  V30 2439 H 222.964 -3.41389 3.44498 0
M  V30 2440 H 218.843 -3.966 2.35009 0
M  V30 2441 H 222.387 -3.8746 5.80104 0
M  V30 2442 H 218.284 -4.42761 4.69716 0
M  V30 2443 H 219.052 -4.60717 6.76522 0
M  V30 2444 N 221.715 -0.905404 -1.28997 0
M  V30 2445 C 223.126 -0.581953 -1.77398 0
M  V30 2446 C 223.477 0.902552 -1.74208 0
M  V30 2447 O 222.602 1.70584 -1.33154 0
M  V30 2448 C 223.197 -1.04961 -3.22131 0
M  V30 2449 C 221.756 -0.777229 -3.68288 0
M  V30 2450 C 220.903 -1.22109 -2.48967 0
M  V30 2451 H 223.854 -1.08754 -1.15578 0
M  V30 2452 H 223.875 -0.387387 -3.78523 0
M  V30 2453 H 223.387 -2.13008 -3.24421 0
M  V30 2454 H 221.488 0.290383 -3.71467 0
M  V30 2455 H 221.601 -1.37911 -4.58822 0
M  V30 2456 H 219.965 -0.639971 -2.46529 0
M  V30 2457 H 220.748 -2.30972 -2.53982 0
M  V30 2458 N 223.193 1.4272 -0.668489 0
M  V30 2459 C 224.44 2.01624 -0.18814 0
M  V30 2460 C 224.768 1.5282 1.20317 0
M  V30 2461 O 224.023 0.718323 1.8204 0
M  V30 2462 C 224.322 3.57021 -0.164499 0
M  V30 2463 C 223.988 4.25232 -1.49962 0
M  V30 2464 C 222.65 4.4358 -1.8652 0
M  V30 2465 C 225.002 4.63727 -2.37921 0
M  V30 2466 C 222.33 4.97694 -3.10674 0
M  V30 2467 C 224.682 5.19218 -3.6138 0
M  V30 2468 C 223.346 5.3578 -3.98115 0
M  V30 2469 H 222.616 0.737795 -0.0688454 0
M  V30 2470 H 225.263 1.70991 -0.862225 0
M  V30 2471 H 223.568 3.87285 0.593079 0
M  V30 2472 H 225.265 4.00372 0.224271 0
M  V30 2473 H 221.855 4.11306 -1.20522 0
M  V30 2474 H 226.039 4.4923 -2.10964 0
M  V30 2475 H 221.295 5.08702 -3.39164 0
M  V30 2476 H 225.469 5.4799 -4.29743 0
M  V30 2477 H 223.096 5.77475 -4.94395 0
M  V30 2478 N 224.671 0.411399 1.52136 0
M  V30 2479 C 225.92 -0.165009 2.01024 0
M  V30 2480 C 226.233 -1.4603 1.30133 0
M  V30 2481 O 227.439 -2.1181 1.69849 0
M  V30 2482 C 225.895 -0.344618 3.58246 0
M  V30 2483 C 225.503 0.938716 4.38055 0
M  V30 2484 C 227.247 -0.876195 4.15359 0
M  V30 2485 C 225.154 0.726172 5.86925 0
M  V30 2486 H 224.084 -0.0654407 0.751155 0
M  V30 2487 H 226.735 0.537192 1.75461 0
M  V30 2488 H 225.117 -1.10921 3.80148 0
M  V30 2489 H 226.291 1.70963 4.27912 0
M  V30 2490 H 224.606 1.39688 3.92271 0
M  V30 2491 H 227.203 -1.05128 5.24263 0
M  V30 2492 H 227.546 -1.85152 3.7286 0
M  V30 2493 H 228.079 -0.170607 3.97434 0
M  V30 2494 H 224.818 1.67312 6.33788 0
M  V30 2495 H 224.338 -0.00540283 5.998 0
M  V30 2496 H 226.017 0.369231 6.45946 0
M  V30 2497 N 226.149 -1.5696 0.141893 0
M  V30 2498 C 227.398 -1.95135 -0.510427 0
M  V30 2499 C 227.711 -1.02896 -1.66348 0
M  V30 2500 O 228.917 -1.30629 -2.38009 0
M  V30 2501 C 227.373 -3.46876 -0.959427 0
M  V30 2502 C 226.981 -4.47691 0.166419 0
M  V30 2503 C 228.725 -3.93927 -1.58183 0
M  V30 2504 C 226.632 -5.90636 -0.300565 0
M  V30 2505 H 225.562 -0.728494 -0.194454 0
M  V30 2506 H 228.213 -1.8211 0.22542 0
M  V30 2507 H 226.595 -3.55215 -1.75038 0
M  V30 2508 H 227.769 -4.51043 0.94325 0
M  V30 2509 H 226.084 -4.10527 0.696905 0
M  V30 2510 H 228.681 -4.98158 -1.94275 0
M  V30 2511 H 229.024 -3.3519 -2.46888 0
M  V30 2512 H 229.557 -3.88484 -0.855863 0
M  V30 2513 H 226.296 -6.5318 0.550989 0
M  V30 2514 H 225.816 -5.90655 -1.04338 0
M  V30 2515 H 227.495 -6.42588 -0.754265 0
M  V30 2516 N 227.627 0.131896 -1.57047 0
M  V30 2517 C 228.574 1.16236 -1.99393 0
M  V30 2518 C 229.544 1.41863 -0.863943 0
M  V30 2519 O 230.729 1.53946 -1.12718 0
M  V30 2520 C 227.869 2.48708 -2.39245 0
M  V30 2521 C 226.982 2.30127 -3.65603 0
M  V30 2522 C 226.117 3.55738 -3.94492 0
M  V30 2523 C 225.156 3.32259 -5.14073 0
M  V30 2524 N 224.293 4.50039 -5.38896 0
M  V30 2525 H 229.133 0.794251 -2.87221 0
M  V30 2526 H 226.67 0.380707 -1.42088 0
M  V30 2527 H 228.628 3.25969 -2.60384 0
M  V30 2528 H 227.258 2.83437 -1.54478 0
M  V30 2529 H 226.31 1.43845 -3.52154 0
M  V30 2530 H 227.622 2.08746 -4.5302 0
M  V30 2531 H 226.776 4.41423 -4.1621 0
M  V30 2532 H 225.515 3.80138 -3.05526 0
M  V30 2533 H 224.52 2.44963 -4.92212 0
M  V30 2534 H 225.745 3.09242 -6.04604 0
M  V30 2535 H 223.691 4.74584 -4.52886 0
M  V30 2536 H 223.608 4.31716 -6.2061 0
M  V30 2537 H 224.876 5.36895 -5.65123 0
M  V30 2538 N 229.106 1.52395 0.401703 0
M  V30 2539 C 230.336 1.70429 1.1678 0
M  V30 2540 C 230.744 0.416702 1.84554 0
M  V30 2541 O 230.087 -0.617697 1.73003 0
M  V30 2542 C 230.149 2.78919 2.26814 0
M  V30 2543 C 229.813 4.20437 1.79113 0
M  V30 2544 C 230.81 5.04028 1.27482 0
M  V30 2545 C 228.495 4.66704 1.85722 0
M  V30 2546 C 230.489 6.31961 0.830913 0
M  V30 2547 C 228.176 5.94625 1.40942 0
M  V30 2548 C 229.174 6.77082 0.897128 0
M  V30 2549 O 228.862 8.02607 0.455822 0
M  V30 2550 H 228.594 0.574272 0.356634 0
M  V30 2551 H 231.148 1.99767 0.477724 0
M  V30 2552 H 229.378 2.44973 2.99207 0
M  V30 2553 H 231.067 2.8548 2.88541 0
M  V30 2554 H 231.833 4.69471 1.21744 0
M  V30 2555 H 227.712 4.0262 2.24539 0
M  V30 2556 H 231.256 6.96271 0.430368 0
M  V30 2557 H 227.153 6.28688 1.46362 0
M  V30 2558 H 227.921 8.16453 0.578457 0
M  V30 2559 N 230.584 -0.659388 1.43143 0
M  V30 2560 C 231.831 -1.41935 1.44433 0
M  V30 2561 C 232.159 -1.94387 0.0663522 0
M  V30 2562 O 231.414 -1.72314 -0.927706 0
M  V30 2563 C 231.713 -2.62206 2.42864 0
M  V30 2564 C 231.379 -2.28208 3.88886 0
M  V30 2565 C 230.041 -2.18647 4.28657 0
M  V30 2566 C 232.393 -2.00887 4.8093 0
M  V30 2567 C 229.721 -1.79914 5.58433 0
M  V30 2568 C 232.073 -1.63653 6.11065 0
M  V30 2569 C 230.737 -1.52614 6.49819 0
M  V30 2570 H 230.007 -0.519376 0.528517 0
M  V30 2571 H 232.654 -0.750453 1.76183 0
M  V30 2572 H 230.959 -3.34199 2.04495 0
M  V30 2573 H 232.656 -3.2041 2.41119 0
M  V30 2574 H 229.246 -2.36557 3.57406 0
M  V30 2575 H 233.43 -2.07198 4.5098 0
M  V30 2576 H 228.686 -1.69948 5.87305 0
M  V30 2577 H 232.86 -1.41543 6.81864 0
M  V30 2578 H 230.487 -1.22371 7.50286 0
M  V30 2579 N 232.062 -1.29571 -0.897171 0
M  V30 2580 C 233.292 -1.20408 -1.67886 0
M  V30 2581 C 233.7 0.237429 -1.87704 0
M  V30 2582 O 233.043 1.17048 -1.41582 0
M  V30 2583 C 233.105 -1.84887 -3.08314 0
M  V30 2584 C 232.769 -3.34189 -3.11716 0
M  V30 2585 C 233.766 -4.30374 -2.91675 0
M  V30 2586 C 231.451 -3.75431 -3.33701 0
M  V30 2587 C 233.445 -5.65776 -2.93557 0
M  V30 2588 C 231.132 -5.10955 -3.35214 0
M  V30 2589 C 232.13 -6.05938 -3.15164 0
M  V30 2590 O 231.818 -7.38987 -3.1647 0
M  V30 2591 H 231.55 -0.418289 -0.531046 0
M  V30 2592 H 234.104 -1.71514 -1.13014 0
M  V30 2593 H 232.334 -1.28295 -3.64798 0
M  V30 2594 H 234.023 -1.70011 -3.6858 0
M  V30 2595 H 234.789 -3.99844 -2.74499 0
M  V30 2596 H 230.668 -3.01953 -3.48347 0
M  V30 2597 H 234.212 -6.39889 -2.77826 0
M  V30 2598 H 230.109 -5.4113 -3.51922 0
M  V30 2599 H 230.877 -7.47823 -3.3272 0
M  V30 2600 N 233.54 1.10788 -1.12088 0
M  V30 2601 C 234.817 1.79136 -0.785476 0
M  V30 2602 C 235.197 1.98246 0.725377 0
M  V30 2603 O 234.545 1.57258 1.65778 0
M  V30 2604 C 234.755 3.12375 -1.55636 0
M  V30 2605 C 236.103 3.8731 -1.74001 0
M  V30 2606 O 237.127 3.22085 -1.52117 0
M  V30 2607 O 235.986 5.04369 -2.10415 0
M  V30 2608 H 233.08 0.776226 -0.285311 0
M  V30 2609 H 235.626 1.1747 -1.2247 0
M  V30 2610 H 234.398 2.93863 -2.5838 0
M  V30 2611 H 234.021 3.81758 -1.11114 0
M  V30 2612 N 235.018 0.912232 1.28515 0
M  V30 2613 C 235.965 0.397954 2.27343 0
M  V30 2614 C 236.935 -0.526766 1.57526 0
M  V30 2615 O 238.12 -0.449292 1.85435 0
M  V30 2616 C 235.26 -0.357263 3.43246 0
M  V30 2617 C 234.373 0.599788 4.27816 0
M  V30 2618 C 233.508 -0.173725 5.30916 0
M  V30 2619 C 232.547 0.777039 6.07148 0
M  V30 2620 N 231.684 0.0371398 7.0209 0
M  V30 2621 H 236.524 1.24577 2.70711 0
M  V30 2622 H 234.061 0.625612 1.33133 0
M  V30 2623 H 236.019 -0.8113 4.09236 0
M  V30 2624 H 234.649 -1.16943 3.00872 0
M  V30 2625 H 233.701 1.17235 3.61884 0
M  V30 2626 H 235.013 1.32704 4.80823 0
M  V30 2627 H 234.167 -0.688394 6.02782 0
M  V30 2628 H 232.906 -0.934041 4.78672 0
M  V30 2629 H 231.911 1.3031 5.34134 0
M  V30 2630 H 233.136 1.53689 6.61481 0
M  V30 2631 H 231.082 -0.705213 6.52198 0
M  V30 2632 H 230.999 0.704249 7.52713 0
M  V30 2633 H 232.267 -0.457383 7.78157 0
M  V30 2634 N 236.496 -1.42363 0.676048 0
M  V30 2635 C 237.724 -2.05859 0.207268 0
M  V30 2636 C 238.139 -1.50796 -1.13605 0
M  V30 2637 O 237.496 -0.648265 -1.70598 0
M  V30 2638 C 237.547 -3.61248 0.134975 0
M  V30 2639 O 237.268 -4.1427 1.42521 0
M  V30 2640 C 238.769 -4.41859 -0.357151 0
M  V30 2641 H 235.989 -0.663431 0.100503 0
M  V30 2642 H 238.533 -1.82479 0.923136 0
M  V30 2643 H 236.688 -3.83735 -0.531588 0
M  V30 2644 H 237.102 -5.0815 1.29939 0
M  V30 2645 H 238.576 -5.50847 -0.356641 0
M  V30 2646 H 239.053 -4.16536 -1.39264 0
M  V30 2647 H 239.659 -4.24392 0.27772 0
M  V30 2648 N 237.974 -0.419461 -1.51915 0
M  V30 2649 C 239.22 0.153166 -2.02221 0
M  V30 2650 C 239.553 1.43907 -1.30401 0
M  V30 2651 O 238.828 1.90055 -0.413438 0
M  V30 2652 C 239.111 0.390291 -3.57979 0
M  V30 2653 C 238.964 -0.913014 -4.40436 0
M  V30 2654 C 240.283 1.16794 -4.2432 0
M  V30 2655 H 237.402 0.0541924 -0.735005 0
M  V30 2656 H 240.044 -0.554955 -1.81715 0
M  V30 2657 H 238.194 0.993491 -3.75582 0
M  V30 2658 H 239.866 -1.54882 -4.34522 0
M  V30 2659 H 238.109 -1.52168 -4.06236 0
M  V30 2660 H 238.78 -0.701361 -5.47526 0
M  V30 2661 H 241.256 0.657161 -4.10878 0
M  V30 2662 H 240.132 1.3026 -5.3322 0
M  V30 2663 H 240.393 2.19132 -3.83971 0
M  V30 2664 N 239.452 1.56882 -0.150215 0
M  V30 2665 C 240.699 1.96228 0.500093 0
M  V30 2666 C 241.027 1.03522 1.64661 0
M  V30 2667 O 240.282 0.0650683 1.95592 0
M  V30 2668 C 240.581 3.41801 1.04437 0
M  V30 2669 C 240.247 4.50897 0.0159671 0
M  V30 2670 C 238.909 4.8046 -0.266731 0
M  V30 2671 C 241.261 5.16703 -0.683192 0
M  V30 2672 C 238.589 5.73135 -1.25434 0
M  V30 2673 C 240.941 6.10441 -1.65964 0
M  V30 2674 C 239.605 6.38382 -1.95 0
M  V30 2675 H 238.875 0.718048 0.182997 0
M  V30 2676 H 241.522 1.90019 -0.237724 0
M  V30 2677 H 239.827 3.44857 1.85959 0
M  V30 2678 H 241.524 3.69573 1.55618 0
M  V30 2679 H 238.114 4.27891 0.246485 0
M  V30 2680 H 242.298 4.93993 -0.477983 0
M  V30 2681 H 237.554 5.93074 -1.48571 0
M  V30 2682 H 241.728 6.60507 -2.20689 0
M  V30 2683 H 239.355 7.09996 -2.71679 0
M  V30 2684 N 240.93 -0.123565 1.57115 0
M  V30 2685 C 242.177 -0.832153 1.84612 0
M  V30 2686 C 242.505 -1.80093 0.734627 0
M  V30 2687 O 241.76 -1.93766 -0.27442 0
M  V30 2688 C 242.059 -1.62016 3.18568 0
M  V30 2689 C 241.725 -0.796084 4.43817 0
M  V30 2690 C 240.387 -0.568816 4.77826 0
M  V30 2691 C 242.739 -0.221364 5.2073 0
M  V30 2692 C 240.067 0.243499 5.86194 0
M  V30 2693 C 242.419 0.578117 6.29953 0
M  V30 2694 C 241.083 0.815744 6.62497 0
M  V30 2695 H 240.353 -0.304507 0.675542 0
M  V30 2696 H 243 -0.0947248 1.91266 0
M  V30 2697 H 241.305 -2.42837 3.0747 0
M  V30 2698 H 243.002 -2.17231 3.37064 0
M  V30 2699 H 239.592 -0.983307 4.17168 0
M  V30 2700 H 243.776 -0.384173 4.94811 0
M  V30 2701 H 239.032 0.436871 6.09837 0
M  V30 2702 H 243.206 1.03046 6.88734 0
M  V30 2703 H 240.833 1.44701 7.46301 0
M  V30 2704 N 242.408 -1.52605 -0.393616 0
M  V30 2705 C 243.638 -1.71046 -1.15874 0
M  V30 2706 C 244.046 -0.426483 -1.84331 0
M  V30 2707 O 243.389 0.608513 -1.73329 0
M  V30 2708 C 243.451 -2.80118 -2.25332 0
M  V30 2709 C 243.115 -4.21381 -1.76881 0
M  V30 2710 C 244.112 -5.04697 -1.24808 0
M  V30 2711 C 241.797 -4.67683 -1.83244 0
M  V30 2712 C 243.791 -6.32393 -0.797387 0
M  V30 2713 C 241.478 -5.95364 -1.37787 0
M  V30 2714 C 242.476 -6.77549 -0.861208 0
M  V30 2715 O 242.164 -8.02837 -0.413252 0
M  V30 2716 H 241.896 -0.576155 -0.353583 0
M  V30 2717 H 244.45 -2.00018 -0.467123 0
M  V30 2718 H 242.68 -2.46557 -2.97904 0
M  V30 2719 H 244.369 -2.87006 -2.87023 0
M  V30 2720 H 245.135 -4.70111 -1.19252 0
M  V30 2721 H 241.014 -4.03805 -2.22401 0
M  V30 2722 H 244.558 -6.9649 -0.393437 0
M  V30 2723 H 240.455 -6.29455 -1.43026 0
M  V30 2724 H 241.223 -8.16749 -0.53515 0
M  V30 2725 N 243.887 0.651787 -1.4349 0
M  V30 2726 C 245.133 1.41376 -1.45398 0
M  V30 2727 C 245.466 1.94041 -0.0784823 0
M  V30 2728 O 244.741 1.72379 0.900878 0
M  V30 2729 C 245.024 2.59414 -2.49752 0
M  V30 2730 C 244.877 2.12232 -3.96582 0
M  V30 2731 C 246.196 3.61626 -2.50827 0
M  V30 2732 H 243.315 0.512719 -0.529422 0
M  V30 2733 H 245.957 0.738796 -1.75048 0
M  V30 2734 H 244.107 3.16997 -2.246 0
M  V30 2735 H 245.779 1.59639 -4.32797 0
M  V30 2736 H 244.022 1.43592 -4.09346 0
M  V30 2737 H 244.693 2.9712 -4.65214 0
M  V30 2738 H 247.169 3.13805 -2.7325 0
M  V30 2739 H 246.045 4.41766 -3.25783 0
M  V30 2740 H 246.306 4.14314 -1.5426 0
M  V30 2741 N 245.365 1.30045 0.890287 0
M  V30 2742 C 246.295 1.18541 2.01172 0
M  V30 2743 C 247.276 0.0773356 1.69924 0
M  V30 2744 O 248.461 0.25845 1.92473 0
M  V30 2745 C 245.591 0.870941 3.36202 0
M  V30 2746 C 244.545 1.93637 3.81692 0
M  V30 2747 C 243.871 1.475 5.13953 0
M  V30 2748 C 245.171 3.34666 4.00994 0
M  V30 2749 H 246.865 2.12359 2.11054 0
M  V30 2750 H 244.411 1.02238 1.01407 0
M  V30 2751 H 246.364 0.777141 4.14172 0
M  V30 2752 H 245.088 -0.102926 3.26438 0
M  V30 2753 H 243.747 2.01972 3.05946 0
M  V30 2754 H 243.395 0.489551 5.00612 0
M  V30 2755 H 243.095 2.1876 5.4536 0
M  V30 2756 H 244.619 1.39489 5.94454 0
M  V30 2757 H 246.033 3.2912 4.69417 0
M  V30 2758 H 244.43 4.03966 4.43769 0
M  V30 2759 H 245.5 3.76949 3.05021 0
M  V30 2760 N 246.843 -1.10192 1.12674 0
M  V30 2761 C 248.089 -1.82475 0.884915 0
M  V30 2762 C 248.422 -1.85093 -0.58773 0
M  V30 2763 O 247.697 -1.3134 -1.43457 0
M  V30 2764 C 247.98 -3.29018 1.46353 0
M  V30 2765 C 247.833 -3.34718 3.00473 0
M  V30 2766 C 249.152 -4.25473 1.12519 0
M  V30 2767 H 246.271 -0.662492 0.322915 0
M  V30 2768 H 248.913 -1.2913 1.39375 0
M  V30 2769 H 247.063 -3.74576 1.03077 0
M  V30 2770 H 248.735 -2.97622 3.52447 0
M  V30 2771 H 246.978 -2.74541 3.35872 0
M  V30 2772 H 247.649 -4.37918 3.36053 0
M  V30 2773 H 250.125 -3.88161 1.499 0
M  V30 2774 H 249.001 -5.26365 1.55663 0
M  V30 2775 H 249.262 -4.42084 0.0377407 0
M  V30 2776 N 248.321 -0.919034 -1.28029 0
M  V30 2777 C 249.284 -0.416182 -2.2539 0
M  V30 2778 C 250.284 0.460438 -1.54067 0
M  V30 2779 O 251.474 0.262744 -1.72207 0
M  V30 2780 C 248.606 0.402707 -3.38513 0
M  V30 2781 H 249.799 -1.27629 -2.71387 0
M  V30 2782 H 247.352 -0.698919 -1.39803 0
M  V30 2783 H 248.087 1.282 -2.97885 0
M  V30 2784 H 247.872 -0.225698 -3.9145 0
M  V30 2785 H 249.362 0.745191 -4.10897 0
M  V30 2786 N 249.799 1.42003 -0.683588 0
M  V30 2787 C 250.729 2.33487 -0.024866 0
M  V30 2788 C 251.71 1.51163 0.779975 0
M  V30 2789 O 252.895 1.79739 0.735362 0
M  V30 2790 C 250.025 3.3487 0.920836 0
M  V30 2791 C 248.979 4.27414 0.223958 0
M  V30 2792 C 248.305 5.19074 1.2832 0
M  V30 2793 C 249.605 5.14445 -0.90242 0
M  V30 2794 H 251.299 2.88819 -0.788921 0
M  V30 2795 H 248.845 1.38873 -0.38083 0
M  V30 2796 H 250.798 3.97787 1.39081 0
M  V30 2797 H 249.522 2.77861 1.71642 0
M  V30 2798 H 248.181 3.65904 -0.225864 0
M  V30 2799 H 247.829 4.58387 2.071 0
M  V30 2800 H 247.529 5.81822 0.821995 0
M  V30 2801 H 249.053 5.84867 1.75392 0
M  V30 2802 H 250.467 5.70998 -0.513272 0
M  V30 2803 H 248.864 5.86072 -1.28997 0
M  V30 2804 H 249.934 4.52322 -1.74737 0
M  V30 2805 N 251.277 0.427512 1.51691 0
M  V30 2806 C 252.526 -0.143679 2.01188 0
M  V30 2807 C 252.839 -1.44642 1.31674 0
M  V30 2808 O 254.045 -2.09997 1.72086 0
M  V30 2809 C 252.501 -0.306602 3.58592 0
M  V30 2810 C 252.109 0.985125 4.37035 0
M  V30 2811 C 253.853 -0.832091 4.16265 0
M  V30 2812 C 251.76 0.788382 5.86122 0
M  V30 2813 H 250.69 -0.0574701 0.751807 0
M  V30 2814 H 253.341 0.555772 1.74881 0
M  V30 2815 H 251.723 -1.06882 3.81303 0
M  V30 2816 H 252.897 1.75492 4.26074 0
M  V30 2817 H 251.212 1.4384 3.90767 0
M  V30 2818 H 253.809 -0.995617 5.25349 0
M  V30 2819 H 254.152 -1.81186 3.74803 0
M  V30 2820 H 254.685 -0.128444 3.97593 0
M  V30 2821 H 251.424 1.74025 6.31978 0
M  V30 2822 H 250.944 0.0582143 5.99772 0
M  V30 2823 H 252.623 0.437722 6.45518 0
M  V30 2824 N 252.755 -1.56801 0.158532 0
M  V30 2825 C 254.003 -1.96102 -0.488712 0
M  V30 2826 C 254.324 -1.04498 -1.64636 0
M  V30 2827 O 253.594 -0.108783 -1.95598 0
M  V30 2828 H 252.174 -0.724102 -0.183535 0
M  V30 2829 H 254.836 -1.93457 0.236728 0
M  V30 2830 H 253.932 -3.00097 -0.857219 0
M  V30 2831 N 254.233 0.115231 -1.57178 0
M  V30 2832 C 255.196 1.12526 -1.99676 0
M  V30 2833 C 256.196 1.34095 -0.88742 0
M  V30 2834 O 257.386 1.30548 -1.15337 0
M  V30 2835 C 254.518 2.4789 -2.34015 0
M  V30 2836 H 255.711 0.759912 -2.90113 0
M  V30 2837 H 253.264 0.359648 -1.52106 0
M  V30 2838 H 253.999 2.89339 -1.4647 0
M  V30 2839 H 253.784 2.33588 -3.14927 0
M  V30 2840 H 255.274 3.20575 -2.67622 0
M  V30 2841 N 255.711 1.52812 0.385517 0
M  V30 2842 C 256.939 1.71907 1.15133 0
M  V30 2843 C 257.354 0.439004 1.83625 0
M  V30 2844 O 256.711 -0.586765 1.7281 0
M  V30 2845 C 256.762 2.87099 2.19673 0
M  V30 2846 O 256.483 4.10151 1.53973 0
M  V30 2847 C 257.984 3.17902 3.08955 0
M  V30 2848 H 255.204 0.575479 0.345057 0
M  V30 2849 H 257.748 1.99476 0.45052 0
M  V30 2850 H 255.903 2.61982 2.85384 0
M  V30 2851 H 256.317 4.74514 2.23465 0
M  V30 2852 H 257.791 4.01959 3.7833 0
M  V30 2853 H 258.268 2.3243 3.72657 0
M  V30 2854 H 258.874 3.44871 2.48885 0
M  V30 2855 N 257.189 -0.644168 1.43834 0
M  V30 2856 C 258.429 -1.41565 1.47441 0
M  V30 2857 C 258.793 -1.91743 0.0992723 0
M  V30 2858 O 259.994 -2.68798 0.0100192 0
M  V30 2859 C 258.265 -2.55902 2.49498 0
M  V30 2860 S 259.824 -3.44287 2.72051 0
M  V30 2861 H 256.642 -0.483118 0.521649 0
M  V30 2862 H 259.244 -0.747008 1.80666 0
M  V30 2863 H 257.948 -2.17327 3.48134 0
M  V30 2864 H 257.479 -3.27607 2.17801 0
M  V30 2865 H 259.494 -4.52927 2.0266 0
M  V30 2866 N 258.668 -1.30515 -0.883378 0
M  V30 2867 C 259.893 -1.22487 -1.67367 0
M  V30 2868 C 260.318 0.208767 -1.86938 0
M  V30 2869 O 259.676 1.15015 -1.40148 0
M  V30 2870 C 259.724 -1.96041 -3.02655 0
M  V30 2871 O 258.828 -1.28859 -3.91751 0
M  V30 2872 H 258.169 -0.423573 -0.511353 0
M  V30 2873 H 260.699 -1.72362 -1.10239 0
M  V30 2874 H 260.709 -2.05124 -3.52687 0
M  V30 2875 H 259.384 -3.00307 -2.8773 0
M  V30 2876 H 257.961 -1.28141 -3.50192 0
M  V30 2877 N 260.146 1.09593 -1.13257 0
M  V30 2878 C 261.079 2.15451 -0.752061 0
M  V30 2879 C 262.057 1.60493 0.260913 0
M  V30 2880 O 263.241 1.8788 0.152819 0
M  V30 2881 C 260.368 3.38506 -0.114594 0
M  V30 2882 C 259.414 4.12183 -1.09579 0
M  V30 2883 S 260.247 4.6661 -2.62745 0
M  V30 2884 C 261.403 5.92966 -2.00354 0
M  V30 2885 H 261.636 2.47395 -1.64872 0
M  V30 2886 H 259.169 1.21515 -0.952545 0
M  V30 2887 H 261.127 4.09757 0.246808 0
M  V30 2888 H 259.788 3.04784 0.759309 0
M  V30 2889 H 258.981 5.00445 -0.597545 0
M  V30 2890 H 258.583 3.46785 -1.40057 0
M  V30 2891 H 260.875 6.63882 -1.35156 0
M  V30 2892 H 261.818 6.47467 -2.86691 0
M  V30 2893 H 262.226 5.45405 -1.4558 0
M  V30 2894 N 261.624 0.925811 1.2754 0
M  V30 2895 C 262.557 0.367836 2.25216 0
M  V30 2896 C 263.535 -0.534738 1.53556 0
M  V30 2897 O 264.719 -0.475672 1.824 0
M  V30 2898 C 261.846 -0.47298 3.35381 0
M  V30 2899 C 260.892 0.365898 4.24928 0
M  V30 2900 S 261.725 1.78025 5.05042 0
M  V30 2901 C 262.881 0.947068 6.18693 0
M  V30 2902 H 263.114 1.19568 2.72196 0
M  V30 2903 H 260.647 0.727867 1.36167 0
M  V30 2904 H 262.605 -0.952242 3.99303 0
M  V30 2905 H 261.266 -1.27533 2.87044 0
M  V30 2906 H 260.459 -0.277582 5.03235 0
M  V30 2907 H 260.061 0.779261 3.65792 0
M  V30 2908 H 262.353 0.182201 6.77255 0
M  V30 2909 H 263.296 1.70309 6.87314 0
M  V30 2910 H 263.704 0.489913 5.6237 0
M  V30 2911 N 263.102 -1.41638 0.69111 0
M  V30 2912 C 264.049 -2.30789 0.0229705 0
M  V30 2913 C 265.019 -1.46863 -0.775911 0
M  V30 2914 O 266.204 -1.75661 -0.74485 0
M  V30 2915 C 263.344 -3.32868 -0.910666 0
M  V30 2916 C 262.457 -4.31875 -0.103874 0
M  V30 2917 C 261.592 -5.21024 -1.03475 0
M  V30 2918 C 260.631 -6.11702 -0.220598 0
M  V30 2919 N 259.768 -6.93349 -1.10504 0
M  V30 2920 H 264.608 -2.87366 0.788978 0
M  V30 2921 H 262.145 -1.41535 0.400794 0
M  V30 2922 H 264.103 -3.90596 -1.46597 0
M  V30 2923 H 262.733 -2.77851 -1.64312 0
M  V30 2924 H 261.785 -3.76131 0.568285 0
M  V30 2925 H 263.097 -4.96003 0.527504 0
M  V30 2926 H 262.251 -5.83565 -1.65943 0
M  V30 2927 H 260.99 -4.57112 -1.69999 0
M  V30 2928 H 259.995 -5.48215 0.417187 0
M  V30 2929 H 261.22 -6.77668 0.440784 0
M  V30 2930 H 259.166 -6.3205 -1.75638 0
M  V30 2931 H 259.083 -7.54146 -0.529125 0
M  V30 2932 H 260.351 -7.60362 -1.71667 0
M  V30 2933 N 264.58 -0.43555 -1.51462 0
M  V30 2934 C 265.808 0.130242 -2.0649 0
M  V30 2935 C 266.223 1.36614 -1.30315 0
M  V30 2936 O 265.58 1.78869 -0.362223 0
M  V30 2937 C 265.631 0.454253 -3.58635 0
M  V30 2938 O 265.352 -0.73259 -4.31931 0
M  V30 2939 C 266.853 1.07091 -4.3017 0
M  V30 2940 H 264.073 0.00871669 -0.670943 0
M  V30 2941 H 266.617 -0.614117 -1.95061 0
M  V30 2942 H 264.772 1.14851 -3.69984 0
M  V30 2943 H 265.186 -0.455787 -5.22516 0
M  V30 2944 H 266.66 1.24764 -5.37716 0
M  V30 2945 H 267.137 2.05144 -3.88346 0
M  V30 2946 H 267.743 0.416089 -4.2326 0
M  V30 2947 N 266.058 1.56714 -0.166846 0
M  V30 2948 C 266.991 2.13577 0.80375 0
M  V30 2949 C 267.969 1.06464 1.22899 0
M  V30 2950 O 269.153 1.34413 1.32157 0
M  V30 2951 C 266.28 2.67168 2.0818 0
M  V30 2952 C 265.326 3.86612 1.80093 0
M  V30 2953 S 266.159 5.26565 0.97416 0
M  V30 2954 C 267.315 5.83558 2.26297 0
M  V30 2955 H 267.548 2.9557 0.320267 0
M  V30 2956 H 265.081 1.54326 0.0477555 0
M  V30 2957 H 267.039 2.98692 2.8159 0
M  V30 2958 H 265.7 1.85269 2.53642 0
M  V30 2959 H 264.893 4.22422 2.7491 0
M  V30 2960 H 264.495 3.55951 1.14781 0
M  V30 2961 H 266.787 5.962 3.21795 0
M  V30 2962 H 267.73 6.80731 1.94962 0
M  V30 2963 H 268.138 5.11944 2.37853 0
M  V30 2964 N 267.536 -0.106894 1.57237 0
M  V30 2965 C 268.785 -0.811163 1.8467 0
M  V30 2966 C 269.098 -1.80469 0.754342 0
M  V30 2967 O 270.304 -2.55601 0.915439 0
M  V30 2968 C 268.76 -1.49337 3.27454 0
M  V30 2969 C 268.368 -0.540217 4.44731 0
M  V30 2970 C 270.112 -2.18206 3.64124 0
M  V30 2971 C 268.019 -1.22634 5.78545 0
M  V30 2972 H 266.949 -0.306679 0.688813 0
M  V30 2973 H 269.6 -0.0639887 1.83388 0
M  V30 2974 H 267.982 -2.2876 3.23241 0
M  V30 2975 H 269.156 0.221659 4.60267 0
M  V30 2976 H 267.471 0.042146 4.16379 0
M  V30 2977 H 270.068 -2.70253 4.61376 0
M  V30 2978 H 270.411 -2.96562 2.92158 0
M  V30 2979 H 270.944 -1.45658 3.70174 0
M  V30 2980 H 267.683 -0.483832 6.53712 0
M  V30 2981 H 267.203 -1.95993 5.66874 0
M  V30 2982 H 268.882 -1.75615 6.2271 0
M  V30 2983 N 269.014 -1.53014 -0.377408 0
M  V30 2984 C 270.261 -1.68623 -1.12128 0
M  V30 2985 C 270.589 -0.431997 -1.89642 0
M  V30 2986 O 269.844 0.585855 -1.86725 0
M  V30 2987 C 270.143 -2.87982 -2.11663 0
M  V30 2988 C 269.809 -4.24964 -1.50719 0
M  V30 2989 C 268.471 -4.62217 -1.33825 0
M  V30 2990 C 270.823 -5.10199 -1.06519 0
M  V30 2991 C 268.151 -5.82352 -0.712963 0
M  V30 2992 C 270.503 -6.30969 -0.453955 0
M  V30 2993 C 269.167 -6.66944 -0.272411 0
M  V30 2994 H 268.437 -0.617034 -0.410305 0
M  V30 2995 H 271.084 -1.8718 -0.404484 0
M  V30 2996 H 269.389 -2.63889 -2.89603 0
M  V30 2997 H 271.086 -2.97253 -2.6915 0
M  V30 2998 H 267.676 -3.95626 -1.64858 0
M  V30 2999 H 271.86 -4.81978 -1.18368 0
M  V30 3000 H 267.116 -6.08824 -0.560611 0
M  V30 3001 H 271.29 -6.96324 -0.103217 0
M  V30 3002 H 268.917 -7.59898 0.214181 0
M  V30 3003 N 270.492 0.636531 -1.44174 0
M  V30 3004 C 271.717 1.42847 -1.50364 0
M  V30 3005 C 272.142 1.87665 -0.127867 0
M  V30 3006 O 271.5 1.58408 0.88185 0
M  V30 3007 C 271.548 2.62854 -2.4686 0
M  V30 3008 O 270.652 3.62501 -1.9664 0
M  V30 3009 H 269.993 0.427642 -0.507955 0
M  V30 3010 H 272.523 0.777422 -1.89255 0
M  V30 3011 H 272.533 3.10465 -2.64718 0
M  V30 3012 H 271.208 2.29578 -3.46795 0
M  V30 3013 H 269.785 3.21735 -1.88523 0
M  V30 3014 N 271.97 1.30982 0.876444 0
M  V30 3015 C 273.219 1.19658 1.62373 0
M  V30 3016 C 273.532 -0.245636 1.94052 0
M  V30 3017 O 274.738 -0.48049 2.67214 0
M  V30 3018 C 273.194 2.09433 2.92687 0
M  V30 3019 C 272.802 3.58613 2.68516 0
M  V30 3020 C 274.546 2.06893 3.70669 0
M  V30 3021 C 272.453 4.40416 3.94699 0
M  V30 3022 H 271.383 0.444268 0.609214 0
M  V30 3023 H 274.034 1.55791 0.969605 0
M  V30 3024 H 272.416 1.66191 3.59439 0
M  V30 3025 H 273.59 4.10058 2.10212 0
M  V30 3026 H 271.905 3.63063 2.03898 0
M  V30 3027 H 274.502 2.65258 4.64265 0
M  V30 3028 H 274.845 1.05448 4.02724 0
M  V30 3029 H 275.378 2.48301 3.10792 0
M  V30 3030 H 272.117 5.42591 3.67798 0
M  V30 3031 H 271.637 3.93731 4.52477 0
M  V30 3032 H 273.316 4.52294 4.62644 0
M  V30 3033 N 273.449 -1.08991 1.13837 0
M  V30 3034 C 274.674 -1.85551 0.926585 0
M  V30 3035 C 275.099 -1.80782 -0.519566 0
M  V30 3036 O 274.457 -1.18855 -1.36906 0
M  V30 3037 C 274.505 -3.31266 1.42462 0
M  V30 3038 O 273.609 -4.07822 0.612789 0
M  V30 3039 H 272.95 -0.575192 0.331738 0
M  V30 3040 H 275.48 -1.37604 1.51414 0
M  V30 3041 H 275.49 -3.82112 1.43019 0
M  V30 3042 H 274.165 -3.34052 2.47754 0
M  V30 3043 H 272.742 -3.66731 0.675463 0
M  V30 3044 N 274.927 -0.932562 -1.27047 0
M  V30 3045 C 276.152 -0.591474 -1.98787 0
M  V30 3046 C 276.577 0.824601 -1.69062 0
M  V30 3047 O 275.935 1.5541 -0.933677 0
M  V30 3048 C 275.983 -0.829808 -3.50922 0
M  V30 3049 O 275.087 0.102266 -4.12273 0
M  V30 3050 H 274.428 -0.227185 -0.623926 0
M  V30 3051 H 276.958 -1.25314 -1.61733 0
M  V30 3052 H 276.968 -0.747292 -4.01098 0
M  V30 3053 H 275.643 -1.86201 -3.7189 0
M  V30 3054 H 274.22 -0.0305761 -3.72887 0
M  V30 3055 N 276.405 1.4127 -0.698611 0
M  V30 3056 C 277.654 2.00408 -0.227949 0
M  V30 3057 C 277.967 1.55981 1.18023 0
M  V30 3058 O 279.173 2.07699 1.74852 0
M  V30 3059 C 277.629 3.58129 -0.356636 0
M  V30 3060 C 277.237 4.11536 -1.77037 0
M  V30 3061 C 278.981 4.24466 0.0540969 0
M  V30 3062 C 276.888 5.61701 -1.85055 0
M  V30 3063 H 275.818 0.749586 -0.0814657 0
M  V30 3064 H 278.469 1.61713 -0.867249 0
M  V30 3065 H 276.851 3.94442 0.350965 0
M  V30 3066 H 278.025 3.86636 -2.50698 0
M  V30 3067 H 276.34 3.57736 -2.13105 0
M  V30 3068 H 278.937 5.34698 0.0146723 0
M  V30 3069 H 279.28 4.01687 1.09332 0
M  V30 3070 H 279.813 3.93198 -0.603337 0
M  V30 3071 H 276.552 5.89312 -2.8704 0
M  V30 3072 H 276.072 5.88519 -1.15783 0
M  V30 3073 H 277.751 6.26524 -1.61484 0
M  V30 3074 N 277.883 0.443576 1.51229 0
M  V30 3075 C 279.129 -0.120975 2.02439 0
M  V30 3076 C 279.462 -1.41815 1.32674 0
M  V30 3077 O 278.737 -1.89373 0.443622 0
M  V30 3078 C 279.02 -0.333291 3.58554 0
M  V30 3079 C 278.873 0.982968 4.38928 0
M  V30 3080 C 280.192 -1.10028 4.26124 0
M  V30 3081 H 277.311 -0.0424923 0.735774 0
M  V30 3082 H 279.953 0.583794 1.80809 0
M  V30 3083 H 278.103 -0.933614 3.77115 0
M  V30 3084 H 279.775 1.61775 4.32003 0
M  V30 3085 H 278.018 1.58611 4.03763 0
M  V30 3086 H 278.689 0.788379 5.46341 0
M  V30 3087 H 281.165 -0.591711 4.11871 0
M  V30 3088 H 280.041 -1.21761 5.35225 0
M  V30 3089 H 280.302 -2.12996 3.87408 0
M  V30 3090 N 279.361 -1.56624 0.175154 0
M  V30 3091 C 280.607 -1.9729 -0.469506 0
M  V30 3092 C 280.94 -1.06128 -1.62636 0
M  V30 3093 O 280.215 -0.109183 -1.94193 0
M  V30 3094 C 280.498 -3.47375 -0.948804 0
M  V30 3095 C 280.351 -4.49317 0.208491 0
M  V30 3096 C 281.67 -4.00652 -1.82116 0
M  V30 3097 H 278.789 -0.717317 -0.16919 0
M  V30 3098 H 281.431 -1.88184 0.262062 0
M  V30 3099 H 279.581 -3.55267 -1.57219 0
M  V30 3100 H 281.253 -4.53482 0.845682 0
M  V30 3101 H 279.496 -4.25121 0.863395 0
M  V30 3102 H 280.167 -5.51741 -0.169059 0
M  V30 3103 H 282.643 -3.95416 -1.2956 0
M  V30 3104 H 281.519 -5.06075 -2.12554 0
M  V30 3105 H 281.78 -3.44699 -2.7683 0
M  V30 3106 N 280.839 0.0985539 -1.57292 0
M  V30 3107 C 281.787 1.1387 -2.02821 0
M  V30 3108 C 282.781 1.41676 -0.928666 0
M  V30 3109 O 283.987 1.41398 -1.11385 0
M  V30 3110 H 280.362 0.384419 -0.646317 0
M  V30 3111 H 282.333 0.728347 -2.89375 0
M  V30 3112 C 281.082 2.45166 -2.46554 0
M  V30 3113 H 280.405 2.24613 -3.3074 0
M  V30 3114 H 281.845 3.16456 -2.8219 0
M  V30 3115 C 280.304 3.09216 -1.33742 0
M  V30 3116 O 280.834 3.96163 -0.66464 0
M  V30 3117 N 279.04 2.69413 -1.08928 0
M  V30 3118 H 278.587 1.98801 -1.63817 0
M  V30 3119 H 278.545 3.12594 -0.336458 0
M  V30 3120 N 282.317 1.53212 0.369288 0
M  V30 3121 C 283.594 1.59815 1.12776 0
M  V30 3122 C 283.974 0.403402 2.0721 0
M  V30 3123 O 283.322 -0.606667 2.20299 0
M  V30 3124 C 283.532 2.94664 1.87013 0
M  V30 3125 C 284.88 3.49109 2.41677 0
M  V30 3126 O 285.904 2.96669 1.97144 0
M  V30 3127 O 284.763 4.40775 3.23079 0
M  V30 3128 H 281.857 0.645376 0.517125 0
M  V30 3129 H 284.403 1.65553 0.37285 0
M  V30 3130 H 283.175 3.73061 1.18071 0
M  V30 3131 H 282.798 2.92401 2.69421 0
M  V30 3132 N 283.795 -0.628877 1.44509 0
M  V30 3133 C 285.02 -1.42048 1.5112 0
M  V30 3134 C 285.445 -1.87594 0.137818 0
M  V30 3135 O 284.803 -1.58873 -0.873437 0
M  V30 3136 C 284.851 -2.61541 2.48251 0
M  V30 3137 O 283.955 -3.61453 1.98559 0
M  V30 3138 H 283.296 -0.424942 0.510216 0
M  V30 3139 H 285.826 -0.767374 1.89664 0
M  V30 3140 H 285.836 -3.09057 2.66361 0
M  V30 3141 H 284.511 -2.27736 3.48007 0
M  V30 3142 H 283.088 -3.20731 1.90227 0
M  V30 3143 N 285.273 -1.31445 -0.869486 0
M  V30 3144 C 286.22 -1.19135 -1.97675 0
M  V30 3145 C 287.19 -0.0770266 -1.65921 0
M  V30 3146 O 288.375 -0.249972 -1.89155 0
M  V30 3147 C 285.515 -0.905149 -3.33018 0
M  V30 3148 C 284.628 -2.10285 -3.77365 0
M  V30 3149 C 283.763 -1.75339 -5.01427 0
M  V30 3150 C 282.802 -2.91515 -5.38224 0
M  V30 3151 N 281.939 -2.56762 -6.53466 0
M  V30 3152 H 286.779 -2.13853 -2.07535 0
M  V30 3153 H 284.316 -1.06379 -1.01597 0
M  V30 3154 H 286.274 -0.719765 -4.10944 0
M  V30 3155 H 284.904 0.00519624 -3.228 0
M  V30 3156 H 283.956 -2.39899 -2.95216 0
M  V30 3157 H 285.268 -2.97237 -4.00564 0
M  V30 3158 H 284.422 -1.53266 -5.87022 0
M  V30 3159 H 283.161 -0.855801 -4.80133 0
M  V30 3160 H 282.166 -3.14237 -4.51149 0
M  V30 3161 H 283.391 -3.81985 -5.61484 0
M  V30 3162 H 281.337 -1.69526 -6.33717 0
M  V30 3163 H 281.254 -3.37243 -6.76612 0
M  V30 3164 H 282.522 -2.38083 -7.42251 0
M  V30 3165 N 286.751 1.08385 -1.14413 0
M  V30 3166 C 287.997 1.81044 -0.913834 0
M  V30 3167 C 288.33 1.86004 0.558209 0
M  V30 3168 O 287.605 1.33606 1.4135 0
M  V30 3169 C 287.888 3.26648 -1.51569 0
M  V30 3170 C 287.741 3.29895 -3.0576 0
M  V30 3171 C 289.06 4.23629 -1.19273 0
M  V30 3172 H 286.179 0.65727 -0.333414 0
M  V30 3173 H 288.821 1.26896 -1.41412 0
M  V30 3174 H 286.971 3.72889 -1.09023 0
M  V30 3175 H 288.643 2.91977 -3.57137 0
M  V30 3176 H 286.886 2.69163 -3.40197 0
M  V30 3177 H 287.557 4.32516 -3.42977 0
M  V30 3178 H 290.033 3.85727 -1.56057 0
M  V30 3179 H 288.909 5.23822 -1.64017 0
M  V30 3180 H 289.17 4.41968 -0.108068 0
M  V30 3181 N 288.23 0.939286 1.26551 0
M  V30 3182 C 289.479 0.581601 1.93133 0
M  V30 3183 C 289.792 -0.883224 1.74524 0
M  V30 3184 O 290.998 -1.3502 2.35546 0
M  V30 3185 C 289.454 0.989425 3.46032 0
M  V30 3186 C 289.062 2.47573 3.73379 0
M  V30 3187 C 290.806 0.703544 4.18629 0
M  V30 3188 C 288.713 2.82235 5.19709 0
M  V30 3189 H 287.643 0.213803 0.723052 0
M  V30 3190 H 290.294 1.14167 1.4366 0
M  V30 3191 H 288.676 0.357902 3.94379 0
M  V30 3192 H 289.85 3.15614 3.35744 0
M  V30 3193 H 288.165 2.73471 3.1401 0
M  V30 3194 H 290.762 0.938869 5.26393 0
M  V30 3195 H 291.105 -0.359639 4.14744 0
M  V30 3196 H 291.638 1.2947 3.76141 0
M  V30 3197 H 288.377 3.87509 5.28694 0
M  V30 3198 H 287.897 2.18854 5.58447 0
M  V30 3199 H 289.576 2.70599 5.87695 0
M  V30 3200 N 289.708 -1.40897 0.706093 0
M  V30 3201 C 290.948 -2.02916 0.245827 0
M  V30 3202 C 291.312 -1.54751 -1.13649 0
M  V30 3203 O 292.513 -2.08768 -1.69321 0
M  V30 3204 C 290.784 -3.56031 0.312537 0
M  V30 3205 S 292.343 -4.38741 -0.0721388 0
M  V30 3206 H 289.161 -0.704186 0.0982007 0
M  V30 3207 H 291.763 -1.72168 0.926207 0
M  V30 3208 H 290.467 -3.88579 1.32039 0
M  V30 3209 H 289.998 -3.91495 -0.386641 0
M  V30 3210 H 292.013 -4.78952 -1.29692 0
M  V30 3211 N 291.186 -0.45159 -1.50991 0
M  V30 3212 C 292.116 0.342898 -2.30969 0
M  V30 3213 C 293.097 1.00815 -1.37005 0
M  V30 3214 O 294.282 1.00907 -1.65926 0
M  V30 3215 C 291.412 1.43637 -3.16205 0
M  V30 3216 C 290.366 0.893818 -4.18563 0
M  V30 3217 C 289.692 2.08411 -4.92411 0
M  V30 3218 C 290.992 -0.0815568 -5.22236 0
M  V30 3219 H 292.686 -0.324556 -2.97636 0
M  V30 3220 H 290.232 -0.157531 -1.43136 0
M  V30 3221 H 292.185 1.9995 -3.70942 0
M  V30 3222 H 290.909 2.13232 -2.47386 0
M  V30 3223 H 289.568 0.352798 -3.64898 0
M  V30 3224 H 289.216 2.76658 -4.20082 0
M  V30 3225 H 288.916 1.72741 -5.61636 0
M  V30 3226 H 290.44 2.65251 -5.49976 0
M  V30 3227 H 291.854 0.391742 -5.7196 0
M  V30 3228 H 290.251 -0.351551 -5.99069 0
M  V30 3229 H 291.321 -1.01374 -4.74185 0
M  V30 3230 N 292.664 1.56529 -0.183458 0
M  V30 3231 C 293.889 2.02064 0.467428 0
M  V30 3232 C 294.314 1.06282 1.55196 0
M  V30 3233 O 293.672 0.0443565 1.81246 0
M  V30 3234 C 293.72 3.46122 1.01153 0
M  V30 3235 O 292.824 3.53437 2.12499 0
M  V30 3236 H 292.165 0.654726 0.110588 0
M  V30 3237 H 294.695 2.02521 -0.290917 0
M  V30 3238 H 294.705 3.85676 1.33108 0
M  V30 3239 H 293.38 4.15331 0.217533 0
M  V30 3240 H 291.957 3.2575 1.81497 0
M  V30 3241 N 294.142 -0.090211 1.57342 0
M  V30 3242 C 295.372 -0.805055 1.90269 0
M  V30 3243 C 295.78 -1.72561 0.775842 0
M  V30 3244 O 295.123 -1.81839 -0.260843 0
M  V30 3245 C 295.185 -1.66734 3.18497 0
M  V30 3246 C 294.849 -0.918092 4.47683 0
M  V30 3247 C 295.846 -0.245674 5.19319 0
M  V30 3248 C 293.531 -0.890724 4.94339 0
M  V30 3249 C 295.525 0.444088 6.35851 0
M  V30 3250 C 293.212 -0.197179 6.10782 0
M  V30 3251 C 294.21 0.469044 6.81388 0
M  V30 3252 O 293.898 1.15146 7.95611 0
M  V30 3253 H 293.63 -0.235143 0.633785 0
M  V30 3254 H 296.184 -0.0703805 2.05279 0
M  V30 3255 H 294.414 -2.44437 2.99646 0
M  V30 3256 H 296.103 -2.25919 3.37217 0
M  V30 3257 H 296.869 -0.258246 4.84312 0
M  V30 3258 H 292.748 -1.39873 4.39268 0
M  V30 3259 H 296.292 0.964667 6.90898 0
M  V30 3260 H 292.189 -0.18247 6.45242 0
M  V30 3261 H 292.957 1.05885 8.11622 0
M  V30 3262 N 295.62 -1.53406 -0.361157 0
M  V30 3263 C 296.868 -1.69467 -1.10115 0
M  V30 3264 C 297.189 -0.451352 -1.89705 0
M  V30 3265 O 296.459 0.534636 -1.88463 0
M  V30 3266 H 295.039 -0.624749 -0.409508 0
M  V30 3267 H 297.701 -1.90609 -0.406699 0
M  V30 3268 H 296.797 -2.55774 -1.78847 0
M  V30 3269 N 297.098 0.621204 -1.44841 0
M  V30 3270 C 298.028 1.74366 -1.55303 0
M  V30 3271 C 299.009 1.65199 -0.405385 0
M  V30 3272 O 300.194 1.83807 -0.626787 0
M  V30 3273 C 297.324 3.12931 -1.50637 0
M  V30 3274 C 296.278 3.36896 -2.63979 0
M  V30 3275 C 295.604 4.75594 -2.44366 0
M  V30 3276 C 296.904 3.28483 -4.06074 0
M  V30 3277 H 298.598 1.65867 -2.49256 0
M  V30 3278 H 296.144 0.796558 -1.19962 0
M  V30 3279 H 298.097 3.9124 -1.56555 0
M  V30 3280 H 296.821 3.22237 -0.532057 0
M  V30 3281 H 295.48 2.60972 -2.57467 0
M  V30 3282 H 295.128 4.81616 -1.45105 0
M  V30 3283 H 294.828 4.92586 -3.20364 0
M  V30 3284 H 296.352 5.5612 -2.52117 0
M  V30 3285 H 297.766 3.96684 -4.13902 0
M  V30 3286 H 296.163 3.57008 -4.82354 0
M  V30 3287 H 297.233 2.26133 -4.28943 0
M  V30 3288 N 298.576 1.31904 0.862503 0
M  V30 3289 C 299.804 1.24998 1.64873 0
M  V30 3290 C 300.219 -0.183425 1.87907 0
M  V30 3291 O 299.576 -1.11794 1.44251 0
M  V30 3292 C 299.627 1.99829 3.01248 0
M  V30 3293 O 299.348 3.37575 2.79239 0
M  V30 3294 C 300.849 1.99852 3.95694 0
M  V30 3295 H 298.069 0.431599 0.513773 0
M  V30 3296 H 300.613 1.73901 1.07604 0
M  V30 3297 H 298.768 1.54668 3.55185 0
M  V30 3298 H 299.182 3.75776 3.65914 0
M  V30 3299 H 300.656 2.56709 4.88676 0
M  V30 3300 H 301.133 0.982852 4.28062 0
M  V30 3301 H 301.739 2.44926 3.47694 0
M  V30 3302 N 300.054 -1.07777 1.14986 0
M  V30 3303 C 301.302 -1.79934 0.920235 0
M  V30 3304 C 301.623 -1.86955 -0.554336 0
M  V30 3305 O 300.893 -1.36731 -1.40291 0
M  V30 3306 H 299.473 -0.666424 0.337473 0
M  V30 3307 H 302.135 -1.3027 1.44968 0
M  V30 3308 H 301.231 -2.82539 1.32583 0
M  V30 3309 N 301.532 -0.945985 -1.26051 0
M  V30 3310 C 302.781 -0.591836 -1.92822 0
M  V30 3311 C 303.094 0.873956 -1.7499 0
M  V30 3312 O 304.3 1.33769 -2.36259 0
M  V30 3313 C 302.756 -1.00776 -3.45503 0
M  V30 3314 C 302.364 -2.4955 -3.7206 0
M  V30 3315 C 304.108 -0.725735 -4.1825 0
M  V30 3316 C 302.015 -2.84988 -5.18205 0
M  V30 3317 H 300.945 -0.217635 -0.721908 0
M  V30 3318 H 303.596 -1.14927 -1.43052 0
M  V30 3319 H 301.978 -0.378812 -3.94184 0
M  V30 3320 H 303.152 -3.1739 -3.34066 0
M  V30 3321 H 301.467 -2.75133 -3.12555 0
M  V30 3322 H 304.064 -0.966771 -5.25887 0
M  V30 3323 H 304.407 0.337639 -4.14929 0
M  V30 3324 H 304.94 -1.31463 -3.7545 0
M  V30 3325 H 301.679 -3.90307 -5.26631 0
M  V30 3326 H 301.199 -2.21813 -5.57278 0
M  V30 3327 H 302.878 -2.73712 -5.86252 0
M  V30 3328 N 303.011 1.40521 -0.713556 0
M  V30 3329 C 304.241 2.0494 -0.261395 0
M  V30 3330 C 304.649 1.53861 1.10107 0
M  V30 3331 O 303.992 0.689321 1.70276 0
M  V30 3332 C 304.054 3.59138 -0.161227 0
M  V30 3333 C 303.718 4.33096 -1.45865 0
M  V30 3334 C 304.715 4.61182 -2.40016 0
M  V30 3335 C 302.4 4.72043 -1.71701 0
M  V30 3336 C 304.394 5.27196 -3.58251 0
M  V30 3337 C 302.081 5.37789 -2.90218 0
M  V30 3338 C 303.079 5.65295 -3.83315 0
M  V30 3339 O 302.767 6.29683 -4.99754 0
M  V30 3340 H 302.499 0.666041 -0.115608 0
M  V30 3341 H 305.053 1.80954 -0.971849 0
M  V30 3342 H 303.283 3.81936 0.605153 0
M  V30 3343 H 304.972 4.05091 0.256105 0
M  V30 3344 H 305.738 4.31559 -2.21318 0
M  V30 3345 H 301.617 4.50003 -1.00092 0
M  V30 3346 H 305.161 5.48582 -4.30934 0
M  V30 3347 H 301.058 5.66831 -3.08825 0
M  V30 3348 H 301.826 6.4818 -4.99805 0
M  V30 3349 N 304.489 0.459591 1.5075 0
M  V30 3350 C 305.714 -0.0996819 2.0716 0
M  V30 3351 C 306.139 -1.33761 1.32249 0
M  V30 3352 O 305.497 -1.77551 0.366786 0
M  V30 3353 C 305.545 -0.378226 3.58611 0
M  V30 3354 O 304.649 -1.46081 3.85661 0
M  V30 3355 H 303.99 0.00791392 0.663953 0
M  V30 3356 H 306.52 0.647329 1.9409 0
M  V30 3357 H 306.53 -0.622135 4.03229 0
M  V30 3358 H 305.205 0.526439 4.12555 0
M  V30 3359 H 303.782 -1.20511 3.5289 0
M  V30 3360 N 305.967 -1.56429 0.191757 0
M  V30 3361 C 306.897 -2.21937 -0.725696 0
M  V30 3362 C 307.878 -1.1814 -1.2238 0
M  V30 3363 O 309.063 -1.46636 -1.27325 0
M  V30 3364 C 306.193 -2.87611 -1.94672 0
M  V30 3365 C 305.147 -3.97623 -1.58366 0
M  V30 3366 C 304.473 -4.50446 -2.88102 0
M  V30 3367 C 305.773 -5.16197 -0.796133 0
M  V30 3368 H 307.467 -2.98861 -0.179606 0
M  V30 3369 H 305.013 -1.43749 -0.0849464 0
M  V30 3370 H 306.966 -3.3212 -2.59373 0
M  V30 3371 H 305.69 -2.08087 -2.51728 0
M  V30 3372 H 304.349 -3.53801 -0.960247 0
M  V30 3373 H 303.997 -3.67688 -3.43241 0
M  V30 3374 H 303.697 -5.24675 -2.64556 0
M  V30 3375 H 305.221 -4.97654 -3.53798 0
M  V30 3376 H 306.635 -5.57271 -1.34618 0
M  V30 3377 H 305.032 -5.96471 -0.658928 0
M  V30 3378 H 306.102 -4.84473 0.203478 0
M  V30 3379 N 307.445 0.0818655 -1.57387 0
M  V30 3380 C 308.692 0.782914 -1.86753 0
M  V30 3381 C 309.02 1.78082 -0.782118 0
M  V30 3382 O 308.275 1.94426 0.22295 0
M  V30 3383 C 308.574 1.53513 -3.22752 0
M  V30 3384 C 308.24 0.678134 -4.45771 0
M  V30 3385 C 306.902 0.441929 -4.79166 0
M  V30 3386 C 309.254 0.0832243 -5.21134 0
M  V30 3387 C 306.582 -0.398833 -5.85343 0
M  V30 3388 C 308.934 -0.744935 -6.28199 0
M  V30 3389 C 307.598 -0.991107 -6.60101 0
M  V30 3390 H 306.868 0.286489 -0.683378 0
M  V30 3391 H 309.515 0.0439808 -1.91449 0
M  V30 3392 H 307.82 2.34599 -3.138 0
M  V30 3393 H 309.517 2.08218 -3.42705 0
M  V30 3394 H 306.107 0.872357 -4.19628 0
M  V30 3395 H 310.291 0.252847 -4.95655 0
M  V30 3396 H 305.547 -0.598405 -6.08465 0
M  V30 3397 H 309.721 -1.21271 -6.8576 0
M  V30 3398 H 307.348 -1.64437 -7.42202 0
M  V30 3399 N 308.923 1.53595 0.353017 0
M  V30 3400 C 310.172 1.69603 1.09168 0
M  V30 3401 C 310.485 0.460925 1.90092 0
M  V30 3402 O 311.691 0.501774 2.66823 0
M  V30 3403 C 310.147 2.99872 1.9901 0
M  V30 3404 C 309.755 4.30687 1.23339 0
M  V30 3405 C 311.499 3.25246 2.72792 0
M  V30 3406 C 309.406 5.52036 2.12156 0
M  V30 3407 H 308.336 0.631966 0.411261 0
M  V30 3408 H 310.987 1.80096 0.351802 0
M  V30 3409 H 309.369 2.83212 2.7678 0
M  V30 3410 H 310.543 4.58019 0.505456 0
M  V30 3411 H 308.858 4.11853 0.613663 0
M  V30 3412 H 311.455 4.13095 3.39495 0
M  V30 3413 H 311.798 2.41846 3.38846 0
M  V30 3414 H 312.331 3.42638 2.021 0
M  V30 3415 H 309.07 6.37951 1.50659 0
M  V30 3416 H 308.59 5.28966 2.82764 0
M  V30 3417 H 310.269 5.87313 2.71427 0
M  V30 3418 N 310.401 -0.613514 1.45168 0
M  V30 3419 C 311.629 -1.39946 1.5239 0
M  V30 3420 C 312.044 -1.88167 0.154531 0
M  V30 3421 O 311.401 -1.61872 -0.842843 0
M  V30 3422 C 311.452 -2.60795 2.50337 0
M  V30 3423 O 311.173 -2.1458 3.81952 0
M  V30 3424 C 312.674 -3.53723 2.67198 0
M  V30 3425 H 309.894 -0.428593 0.516284 0
M  V30 3426 H 312.438 -0.748753 1.903 0
M  V30 3427 H 310.593 -3.21919 2.15515 0
M  V30 3428 H 311.007 -2.93055 4.34993 0
M  V30 3429 H 312.481 -4.35079 3.39721 0
M  V30 3430 H 312.958 -4.0368 1.73029 0
M  V30 3431 H 313.564 -2.98456 3.02992 0
M  V30 3432 N 311.879 -1.3236 -0.855495 0
M  V30 3433 C 313.104 -1.2601 -1.64731 0
M  V30 3434 C 313.529 0.169068 -1.87339 0
M  V30 3435 O 312.887 1.12016 -1.42556 0
M  V30 3436 C 312.935 -2.02417 -2.98429 0
M  V30 3437 O 312.039 -1.3714 -3.8893 0
M  V30 3438 H 311.38 -0.434325 -0.502253 0
M  V30 3439 H 313.91 -1.74661 -1.06558 0
M  V30 3440 H 313.92 -2.12559 -3.48257 0
M  V30 3441 H 312.595 -3.06343 -2.81295 0
M  V30 3442 H 311.172 -1.3554 -3.47395 0
M  V30 3443 N 313.357 1.07166 -1.15556 0
M  V30 3444 C 314.585 1.83514 -0.955519 0
M  V30 3445 C 315 1.82163 0.49621 0
M  V30 3446 O 314.357 1.23441 1.34419 0
M  V30 3447 C 314.408 3.30515 -1.46432 0
M  V30 3448 O 314.129 3.31937 -2.85918 0
M  V30 3449 C 315.63 4.23625 -1.30603 0
M  V30 3450 H 312.85 0.578926 -0.339244 0
M  V30 3451 H 315.394 1.35265 -1.53374 0
M  V30 3452 H 313.549 3.76106 -0.928584 0
M  V30 3453 H 313.963 4.23794 -3.09029 0
M  V30 3454 H 315.437 5.24831 -1.71047 0
M  V30 3455 H 315.914 4.38485 -0.250441 0
M  V30 3456 H 316.52 3.83871 -1.83094 0
M  V30 3457 N 314.835 0.952656 1.25548 0
M  V30 3458 C 316.082 0.606373 1.93208 0
M  V30 3459 C 316.41 -0.85631 1.74636 0
M  V30 3460 O 315.665 -1.62951 1.08376 0
M  V30 3461 C 315.964 0.908818 3.45652 0
M  V30 3462 C 315.63 2.35722 3.84378 0
M  V30 3463 C 314.292 2.75312 3.9466 0
M  V30 3464 C 316.644 3.29793 4.03591 0
M  V30 3465 C 313.972 4.08047 4.21562 0
M  V30 3466 C 316.324 4.62138 4.31985 0
M  V30 3467 C 314.988 5.01528 4.40484 0
M  V30 3468 H 314.258 0.221888 0.706998 0
M  V30 3469 H 316.905 1.20132 1.49133 0
M  V30 3470 H 315.21 0.231456 3.91116 0
M  V30 3471 H 316.907 0.619498 3.96186 0
M  V30 3472 H 313.497 2.04017 3.76928 0
M  V30 3473 H 317.681 3.00397 3.95064 0
M  V30 3474 H 312.937 4.38212 4.26357 0
M  V30 3475 H 317.111 5.35012 4.45797 0
M  V30 3476 H 314.738 6.04406 4.61083 0
M  V30 3477 N 316.313 -1.40141 0.720998 0
M  V30 3478 C 317.56 -2.00787 0.262842 0
M  V30 3479 C 317.888 -1.5718 -1.14563 0
M  V30 3480 O 317.143 -0.785391 -1.79249 0
M  V30 3481 C 317.442 -3.56165 0.296892 0
M  V30 3482 C 317.108 -4.19373 1.65641 0
M  V30 3483 C 315.77 -4.36352 2.02855 0
M  V30 3484 C 318.122 -4.54578 2.54968 0
M  V30 3485 C 315.45 -4.8582 3.28931 0
M  V30 3486 C 317.802 -5.05447 3.80402 0
M  V30 3487 C 316.466 -5.20635 4.17726 0
M  V30 3488 H 315.736 -0.734731 0.0961807 0
M  V30 3489 H 318.383 -1.67673 0.925093 0
M  V30 3490 H 316.688 -3.8922 -0.448932 0
M  V30 3491 H 318.385 -4.00929 -0.0755208 0
M  V30 3492 H 314.975 -4.06549 1.35704 0
M  V30 3493 H 319.159 -4.41091 2.27491 0
M  V30 3494 H 314.415 -4.95764 3.57811 0
M  V30 3495 H 318.589 -5.31663 4.49786 0
M  V30 3496 H 316.216 -5.58728 5.15487 0
M  V30 3497 N 317.792 -0.46758 -1.50504 0
M  V30 3498 C 319.022 0.086288 -2.0642 0
M  V30 3499 C 319.43 1.34369 -1.33197 0
M  V30 3500 O 318.773 1.79431 -0.393747 0
M  V30 3501 C 318.835 0.443846 -3.5675 0
M  V30 3502 C 318.499 -0.711035 -4.51435 0
M  V30 3503 C 319.496 -1.59205 -4.94924 0
M  V30 3504 C 317.181 -0.900363 -4.94165 0
M  V30 3505 C 319.175 -2.64683 -5.79846 0
M  V30 3506 C 316.862 -1.95837 -5.7887 0
M  V30 3507 C 317.86 -2.82997 -6.21612 0
M  V30 3508 O 317.548 -3.86977 -7.0463 0
M  V30 3509 H 317.28 -0.00217814 -0.675996 0
M  V30 3510 H 319.834 -0.654346 -1.94698 0
M  V30 3511 H 318.064 1.23762 -3.6636 0
M  V30 3512 H 319.753 0.932386 -3.95046 0
M  V30 3513 H 320.519 -1.45745 -4.62583 0
M  V30 3514 H 316.398 -0.231427 -4.60419 0
M  V30 3515 H 319.942 -3.32745 -6.13128 0
M  V30 3516 H 315.839 -2.09305 -6.10624 0
M  V30 3517 H 316.607 -3.83923 -7.22873 0
M  V30 3518 N 319.27 1.56325 -0.20005 0
M  V30 3519 C 320.517 1.97719 0.437411 0
M  V30 3520 C 320.845 1.08709 1.61284 0
M  V30 3521 O 320.1 0.127261 1.95286 0
M  V30 3522 C 320.399 3.4495 0.935103 0
M  V30 3523 C 320.065 4.5072 -0.12749 0
M  V30 3524 C 318.727 4.79368 -0.419451 0
M  V30 3525 C 321.079 5.14268 -0.847231 0
M  V30 3526 C 318.407 5.68854 -1.43604 0
M  V30 3527 C 320.759 6.04852 -1.85301 0
M  V30 3528 C 319.423 6.31855 -2.15211 0
M  V30 3529 H 318.693 0.723507 0.16006 0
M  V30 3530 H 321.34 1.89166 -0.298056 0
M  V30 3531 H 319.645 3.50599 1.74894 0
M  V30 3532 H 321.342 3.74337 1.43781 0
M  V30 3533 H 317.932 4.28458 0.11023 0
M  V30 3534 H 322.116 4.92222 -0.634901 0
M  V30 3535 H 317.372 5.88047 -1.67364 0
M  V30 3536 H 321.546 6.53152 -2.41591 0
M  V30 3537 H 319.173 7.00994 -2.94129 0
M  V30 3538 N 320.748 -0.0735177 1.57428 0
M  V30 3539 C 321.994 -0.774145 1.87443 0
M  V30 3540 C 322.327 -1.77311 0.792103 0
M  V30 3541 O 321.602 -1.93492 -0.197793 0
M  V30 3542 C 321.885 -1.48367 3.28115 0
M  V30 3543 C 321.738 -0.501227 4.46999 0
M  V30 3544 C 323.057 -2.429 3.66998 0
M  V30 3545 H 320.176 -0.279971 0.681752 0
M  V30 3546 H 322.818 -0.0373616 1.89963 0
M  V30 3547 H 320.968 -2.11171 3.26097 0
M  V30 3548 H 322.64 0.121468 4.6114 0
M  V30 3549 H 320.883 0.183593 4.33411 0
M  V30 3550 H 321.554 -1.03526 5.42205 0
M  V30 3551 H 324.03 -1.90175 3.70098 0
M  V30 3552 H 322.906 -2.89549 4.66318 0
M  V30 3553 H 323.167 -3.27628 2.96837 0
M  V30 3554 N 322.226 -1.5378 -0.344866 0
M  V30 3555 C 323.475 -1.7018 -1.08267 0
M  V30 3556 C 323.788 -0.471 -1.89845 0
M  V30 3557 O 324.994 -0.515917 -2.66553 0
M  V30 3558 C 323.45 -3.00923 -1.97417 0
M  V30 3559 C 323.058 -4.31335 -1.21053 0
M  V30 3560 C 324.802 -3.26688 -2.71063 0
M  V30 3561 C 322.709 -5.53153 -2.09225 0
M  V30 3562 H 321.639 -0.634138 -0.407903 0
M  V30 3563 H 324.29 -1.8028 -0.342246 0
M  V30 3564 H 322.672 -2.84676 -2.75274 0
M  V30 3565 H 323.846 -4.58281 -0.481159 0
M  V30 3566 H 322.161 -4.12173 -0.591813 0
M  V30 3567 H 324.758 -4.1489 -3.37299 0
M  V30 3568 H 325.101 -2.43639 -3.37558 0
M  V30 3569 H 325.634 -3.43705 -2.0028 0
M  V30 3570 H 322.373 -6.38741 -1.47274 0
M  V30 3571 H 321.893 -5.30458 -2.79955 0
M  V30 3572 H 323.572 -5.88744 -2.68308 0
M  V30 3573 N 323.704 0.605807 -1.45491 0
M  V30 3574 C 324.651 1.7164 -1.54299 0
M  V30 3575 C 325.621 1.61486 -0.388761 0
M  V30 3576 O 326.806 1.81039 -0.602445 0
M  V30 3577 C 323.946 3.09953 -1.51734 0
M  V30 3578 C 323.059 3.309 -2.77721 0
M  V30 3579 C 322.194 4.59329 -2.66816 0
M  V30 3580 C 321.233 4.7354 -3.87848 0
M  V30 3581 N 320.37 5.9327 -3.75467 0
M  V30 3582 H 325.21 1.63449 -2.49176 0
M  V30 3583 H 322.747 0.796957 -1.23641 0
M  V30 3584 H 324.705 3.89977 -1.48235 0
M  V30 3585 H 323.335 3.17098 -0.604068 0
M  V30 3586 H 322.387 2.44639 -2.913 0
M  V30 3587 H 323.699 3.37274 -3.67488 0
M  V30 3588 H 322.853 5.4755 -2.61292 0
M  V30 3589 H 321.592 4.55355 -1.74651 0
M  V30 3590 H 320.597 3.83741 -3.93729 0
M  V30 3591 H 321.822 4.79309 -4.81082 0
M  V30 3592 H 319.768 5.90338 -2.86072 0
M  V30 3593 H 319.685 6.00811 -4.5887 0
M  V30 3594 H 320.953 6.83984 -3.73879 0
M  V30 3595 N 325.182 1.32811 0.848464 0
M  V30 3596 C 326.431 1.23075 1.59798 0
M  V30 3597 C 326.744 -0.204419 1.94529 0
M  V30 3598 O 327.95 -0.423701 2.68173 0
M  V30 3599 C 326.406 2.15594 2.88179 0
M  V30 3600 C 326.014 3.64228 2.60849 0
M  V30 3601 C 327.758 2.14709 3.66197 0
M  V30 3602 C 325.665 4.48689 3.85269 0
M  V30 3603 H 324.595 0.457091 0.599653 0
M  V30 3604 H 327.246 1.57813 0.936342 0
M  V30 3605 H 325.628 1.73778 3.55833 0
M  V30 3606 H 326.802 4.14424 2.01467 0
M  V30 3607 H 325.117 3.67306 1.96151 0
M  V30 3608 H 327.714 2.75046 4.58534 0
M  V30 3609 H 328.057 1.13966 4.00397 0
M  V30 3610 H 328.59 2.54837 3.05455 0
M  V30 3611 H 325.329 5.5027 3.56207 0
M  V30 3612 H 324.849 4.03241 4.44024 0
M  V30 3613 H 326.528 4.62006 4.52946 0
M  V30 3614 N 326.66 -1.06551 1.16123 0
M  V30 3615 C 327.608 -2.16063 0.861371 0
M  V30 3616 C 328.602 -1.6856 -0.168517 0
M  V30 3617 O 329.808 -1.79986 -0.0227579 0
M  V30 3618 H 326.183 -0.705278 0.260934 0
M  V30 3619 H 328.154 -2.38567 1.79244 0
M  V30 3620 C 326.903 -3.45661 0.376018 0
M  V30 3621 H 326.226 -3.82604 1.15992 0
M  V30 3622 H 327.666 -4.23504 0.204951 0
M  V30 3623 C 326.125 -3.24546 -0.903954 0
M  V30 3624 O 326.655 -3.49865 -1.97377 0
M  V30 3625 N 324.861 -2.77992 -0.846679 0
M  V30 3626 H 324.408 -2.57589 0.0241017 0
M  V30 3627 H 324.366 -2.64244 -1.70359 0
M  V30 3628 N 328.138 -0.959301 -1.25041 0
M  V30 3629 C 329.085 -0.482057 -2.2571 0
M  V30 3630 C 330.055 0.467939 -1.59372 0
M  V30 3631 O 331.24 0.380159 -1.86974 0
M  V30 3632 C 328.38 0.229623 -3.44335 0
M  V30 3633 C 327.493 -0.758156 -4.25295 0
M  V30 3634 C 326.628 -0.0234403 -5.31195 0
M  V30 3635 C 325.667 -1.00184 -6.03846 0
M  V30 3636 N 324.804 -0.29769 -7.01469 0
M  V30 3637 H 329.644 -1.34538 -2.65901 0
M  V30 3638 H 327.181 -0.674592 -1.3072 0
M  V30 3639 H 329.139 0.658856 -4.11965 0
M  V30 3640 H 327.769 1.05696 -3.05005 0
M  V30 3641 H 326.821 -1.30586 -3.57284 0
M  V30 3642 H 328.133 -1.50458 -4.75567 0
M  V30 3643 H 327.287 0.464201 -6.04922 0
M  V30 3644 H 326.026 0.755741 -4.81809 0
M  V30 3645 H 325.031 -1.50044 -5.2893 0
M  V30 3646 H 326.256 -1.78133 -6.55321 0
M  V30 3647 H 324.202 0.462668 -6.54366 0
M  V30 3648 H 324.119 -0.983128 -7.4958 0
M  V30 3649 H 325.387 0.16826 -7.79318 0
M  V30 3650 N 329.616 1.39756 -0.72842 0
M  V30 3651 C 330.893 1.94574 -0.200079 0
M  V30 3652 C 331.273 1.66569 1.29684 0
M  V30 3653 O 330.621 0.990326 2.05924 0
M  V30 3654 C 330.831 3.45004 -0.526608 0
M  V30 3655 C 332.179 4.21965 -0.472318 0
M  V30 3656 O 333.203 3.53173 -0.463413 0
M  V30 3657 O 332.062 5.44552 -0.461075 0
M  V30 3658 H 329.156 0.826289 -0.0342851 0
M  V30 3659 H 331.702 1.49293 -0.806829 0
M  V30 3660 H 330.474 3.58796 -1.56144 0
M  V30 3661 H 330.097 3.97449 0.109449 0
M  V30 3662 N 331.094 0.475555 1.50254 0
M  V30 3663 C 332.343 -0.0795996 2.01543 0
M  V30 3664 C 332.656 -1.4038 1.36209 0
M  V30 3665 O 333.862 -2.04415 1.7868 0
M  V30 3666 C 332.318 -0.192363 3.59386 0
M  V30 3667 C 331.926 1.12367 4.33679 0
M  V30 3668 C 333.67 -0.699238 4.18701 0
M  V30 3669 C 331.577 0.974453 5.83317 0
M  V30 3670 H 330.507 -0.0335228 0.753254 0
M  V30 3671 H 333.158 0.611128 1.73025 0
M  V30 3672 H 331.54 -0.946974 3.84511 0
M  V30 3673 H 332.714 1.88958 4.20276 0
M  V30 3674 H 331.029 1.562 3.85993 0
M  V30 3675 H 333.626 -0.827978 5.28251 0
M  V30 3676 H 333.969 -1.69171 3.80377 0
M  V30 3677 H 334.502 -0.00188807 3.978 0
M  V30 3678 H 331.241 1.94042 6.26121 0
M  V30 3679 H 330.761 0.248998 5.99283 0
M  V30 3680 H 332.44 0.642867 6.43798 0
M  V30 3681 N 332.573 -1.56217 0.208337 0
M  V30 3682 C 333.505 -2.1695 -0.739276 0
M  V30 3683 C 334.518 -1.13492 -1.1672 0
M  V30 3684 O 335.707 -1.40529 -1.10063 0
M  V30 3685 C 332.807 -2.72755 -2.01142 0
M  V30 3686 C 331.98 -4.0125 -1.74118 0
M  V30 3687 C 331.039 -4.41749 -2.85909 0
M  V30 3688 O 330.065 -5.08912 -2.54946 0
M  V30 3689 N 331.267 -4.06342 -4.14568 0
M  V30 3690 H 334.032 -2.98893 -0.219837 0
M  V30 3691 H 331.593 -1.61878 0.0268445 0
M  V30 3692 H 333.585 -2.96826 -2.75094 0
M  V30 3693 H 332.155 -1.95191 -2.4417 0
M  V30 3694 H 331.375 -3.85173 -0.838775 0
M  V30 3695 H 332.663 -4.851 -1.53477 0
M  V30 3696 H 332.061 -3.52345 -4.42571 0
M  V30 3697 H 330.618 -4.35335 -4.85105 0
M  V30 3698 N 334.051 0.0651679 -1.57465 0
M  V30 3699 C 334.998 1.07675 -2.04144 0
M  V30 3700 C 335.968 1.38071 -0.923335 0
M  V30 3701 O 337.153 1.49026 -1.19146 0
M  V30 3702 C 334.293 2.38337 -2.49579 0
M  V30 3703 C 333.406 2.14413 -3.75035 0
M  V30 3704 C 332.541 3.38686 -4.09225 0
M  V30 3705 C 331.58 3.10156 -5.27702 0
M  V30 3706 N 330.717 4.26778 -5.57499 0
M  V30 3707 H 335.557 0.671716 -2.90331 0
M  V30 3708 H 333.094 0.3201 -1.43575 0
M  V30 3709 H 335.052 3.14632 -2.73975 0
M  V30 3710 H 333.682 2.7663 -1.6636 0
M  V30 3711 H 332.734 1.2878 -3.57939 0
M  V30 3712 H 334.046 1.89344 -4.61466 0
M  V30 3713 H 333.2 4.23373 -4.34558 0
M  V30 3714 H 331.939 3.66837 -3.21374 0
M  V30 3715 H 330.944 2.23866 -5.02159 0
M  V30 3716 H 332.169 2.8332 -6.17176 0
M  V30 3717 H 330.115 4.54948 -4.72608 0
M  V30 3718 H 330.032 4.05005 -6.38362 0
M  V30 3719 H 331.3 5.12443 -5.87386 0
M  V30 3720 N 335.529 1.53961 0.336706 0
M  V30 3721 C 336.459 1.85417 1.41925 0
M  V30 3722 C 337.44 0.709856 1.5458 0
M  V30 3723 O 338.625 0.962396 1.68676 0
M  V30 3724 C 335.755 2.06985 2.78881 0
M  V30 3725 C 334.709 3.22813 2.81026 0
M  V30 3726 C 334.035 3.29727 4.20932 0
M  V30 3727 C 335.335 4.60767 2.45949 0
M  V30 3728 H 337.029 2.76079 1.15848 0
M  V30 3729 H 334.575 1.32839 0.555859 0
M  V30 3730 H 336.528 2.27575 3.54665 0
M  V30 3731 H 335.252 1.13061 3.06406 0
M  V30 3732 H 333.911 3.0209 2.07695 0
M  V30 3733 H 333.559 2.33385 4.45579 0
M  V30 3734 H 333.259 4.07566 4.23277 0
M  V30 3735 H 334.783 3.52536 4.98549 0
M  V30 3736 H 336.197 4.81325 3.11446 0
M  V30 3737 H 334.594 5.4106 2.59566 0
M  V30 3738 H 335.664 4.6391 1.41122 0
M  V30 3739 N 337.007 -0.598083 1.45811 0
M  V30 3740 C 337.94 -1.7223 1.49706 0
M  V30 3741 C 338.918 -1.58732 0.352535 0
M  V30 3742 O 340.102 -1.80162 0.554438 0
M  V30 3743 C 337.229 -3.10148 1.3611 0
M  V30 3744 C 336.275 -3.42209 2.54549 0
M  V30 3745 S 337.108 -3.35989 4.16979 0
M  V30 3746 C 338.264 -4.76471 4.05865 0
M  V30 3747 H 338.497 -1.68665 2.44826 0
M  V30 3748 H 336.03 -0.775541 1.33509 0
M  V30 3749 H 337.988 -3.8972 1.28953 0
M  V30 3750 H 336.649 -3.11219 0.424451 0
M  V30 3751 H 335.842 -4.42652 2.40988 0
M  V30 3752 H 335.444 -2.70173 2.58617 0
M  V30 3753 H 337.736 -5.665 3.71596 0
M  V30 3754 H 338.679 -4.95089 5.06253 0
M  V30 3755 H 339.087 -4.52599 3.37364 0
M  V30 3756 N 338.485 -1.33259 -0.841409 0
M  V30 3757 C 339.415 -1.25926 -1.96634 0
M  V30 3758 C 340.396 -0.140349 -1.6952 0
M  V30 3759 O 341.581 -0.329707 -1.91381 0
M  V30 3760 C 338.711 -0.99512 -3.32738 0
M  V30 3761 C 337.665 -2.0767 -3.74242 0
M  V30 3762 C 336.991 -1.66474 -5.08125 0
M  V30 3763 C 338.291 -3.49318 -3.88297 0
M  V30 3764 H 339.985 -2.20046 -2.03027 0
M  V30 3765 H 337.531 -1.05931 -0.975425 0
M  V30 3766 H 339.484 -0.930323 -4.11002 0
M  V30 3767 H 338.208 -0.0183004 -3.26595 0
M  V30 3768 H 336.867 -2.13187 -2.98239 0
M  V30 3769 H 336.515 -0.675012 -4.9845 0
M  V30 3770 H 336.215 -2.3885 -5.36865 0
M  V30 3771 H 337.739 -1.61455 -5.88867 0
M  V30 3772 H 339.153 -3.46316 -4.56879 0
M  V30 3773 H 337.55 -4.20158 -4.28471 0
M  V30 3774 H 338.62 -3.8801 -2.9082 0
M  V30 3775 N 339.963 1.05934 -1.16686 0
M  V30 3776 C 341.188 1.83029 -0.975455 0
M  V30 3777 C 341.613 1.82096 0.471452 0
M  V30 3778 O 340.971 1.22443 1.33706 0
M  V30 3779 C 341.019 3.27372 -1.51195 0
M  V30 3780 O 340.123 4.06054 -0.720701 0
M  V30 3781 H 339.464 0.566194 -0.346872 0
M  V30 3782 H 341.994 1.33541 -1.55009 0
M  V30 3783 H 342.004 3.78186 -1.53099 0
M  V30 3784 H 340.679 3.27366 -2.56523 0
M  V30 3785 H 339.256 3.64812 -0.772458 0
M  V30 3786 N 341.441 0.965919 1.2453 0
M  V30 3787 C 342.371 0.513476 2.27784 0
M  V30 3788 C 343.352 -0.445974 1.6415 0
M  V30 3789 O 344.537 -0.342485 1.91156 0
M  V30 3790 C 341.667 -0.198839 3.4673 0
M  V30 3791 C 340.621 0.676456 4.2262 0
M  V30 3792 C 339.947 -0.167248 5.34438 0
M  V30 3793 C 341.247 1.96017 4.84123 0
M  V30 3794 H 342.941 1.3765 2.65881 0
M  V30 3795 H 340.487 0.663321 1.27813 0
M  V30 3796 H 342.44 -0.526567 4.18097 0
M  V30 3797 H 341.164 -1.0962 3.07654 0
M  V30 3798 H 339.823 0.98743 3.53052 0
M  V30 3799 H 339.471 -1.0647 4.91603 0
M  V30 3800 H 339.171 0.415181 5.86131 0
M  V30 3801 H 340.695 -0.489688 6.08633 0
M  V30 3802 H 342.109 1.69814 5.47573 0
M  V30 3803 H 340.506 2.48918 5.4604 0
M  V30 3804 H 341.576 2.65622 4.05676 0
M  V30 3805 N 342.919 -1.39368 0.735821 0
M  V30 3806 C 344.166 -2.00497 0.284123 0
M  V30 3807 C 344.494 -1.58387 -1.12889 0
M  V30 3808 O 343.749 -0.804359 -1.78406 0
M  V30 3809 C 344.048 -3.5583 0.334651 0
M  V30 3810 C 343.714 -4.17593 1.7008 0
M  V30 3811 C 342.376 -4.34176 2.07472 0
M  V30 3812 C 344.728 -4.51848 2.59775 0
M  V30 3813 C 342.056 -4.82304 3.34065 0
M  V30 3814 C 344.408 -5.01384 3.85741 0
M  V30 3815 C 343.072 -5.16175 4.23225 0
M  V30 3816 H 342.342 -0.73367 0.103968 0
M  V30 3817 H 344.989 -1.66683 0.942825 0
M  V30 3818 H 343.294 -3.89674 -0.407625 0
M  V30 3819 H 344.991 -4.00986 -0.0329927 0
M  V30 3820 H 341.581 -4.05087 1.40008 0
M  V30 3821 H 345.765 -4.38653 2.32157 0
M  V30 3822 H 341.021 -4.91941 3.63049 0
M  V30 3823 H 345.195 -5.26863 4.55399 0
M  V30 3824 H 342.822 -5.5323 5.21384 0
M  V30 3825 N 344.397 -0.483516 -1.5 0
M  V30 3826 C 345.646 0.0689102 -2.01582 0
M  V30 3827 C 345.959 1.39655 -1.36952 0
M  V30 3828 O 347.165 2.03465 -1.79762 0
M  V30 3829 C 345.621 0.173302 -3.59483 0
M  V30 3830 C 345.229 -1.14665 -4.33077 0
M  V30 3831 C 346.973 0.677024 -4.19066 0
M  V30 3832 C 344.88 -1.00537 -5.82792 0
M  V30 3833 H 343.81 0.0295277 -0.753422 0
M  V30 3834 H 346.461 -0.620295 -1.72698 0
M  V30 3835 H 344.843 0.926569 -3.85007 0
M  V30 3836 H 346.017 -1.91184 -4.19268 0
M  V30 3837 H 344.332 -1.58244 -3.85159 0
M  V30 3838 H 346.929 0.799952 -5.28682 0
M  V30 3839 H 347.272 1.67151 -3.81269 0
M  V30 3840 H 347.805 -0.0192083 -3.97795 0
M  V30 3841 H 344.544 -1.9736 -6.25083 0
M  V30 3842 H 344.064 -0.280776 -5.99142 0
M  V30 3843 H 345.743 -0.677 -6.43448 0
M  V30 3844 N 345.875 1.56104 -0.216619 0
M  V30 3845 C 347.103 2.02563 0.421413 0
M  V30 3846 C 347.518 1.0965 1.53695 0
M  V30 3847 O 346.875 0.10521 1.82196 0
M  V30 3848 C 346.926 3.48584 0.957665 0
M  V30 3849 O 346.647 4.37953 -0.113389 0
M  V30 3850 C 348.148 4.10664 1.66943 0
M  V30 3851 H 345.368 0.662944 0.103665 0
M  V30 3852 H 347.912 2.01793 -0.331629 0
M  V30 3853 H 346.067 3.49985 1.661 0
M  V30 3854 H 346.481 5.23704 0.288932 0
M  V30 3855 H 347.955 5.14622 1.99671 0
M  V30 3856 H 348.432 3.55373 2.58083 0
M  V30 3857 H 349.038 4.13098 1.01142 0
M  V30 3858 N 347.353 -0.0568162 1.57498 0
M  V30 3859 C 348.578 -0.769402 1.92601 0
M  V30 3860 C 349.003 -1.69559 0.814336 0
M  V30 3861 O 348.361 -1.79811 -0.231903 0
M  V30 3862 C 348.409 -1.52634 3.26704 0
M  V30 3863 O 347.513 -2.63797 3.16994 0
M  V30 3864 H 346.854 -0.208909 0.63028 0
M  V30 3865 H 349.384 -0.0205798 2.0459 0
M  V30 3866 H 349.394 -1.90234 3.60936 0
M  V30 3867 H 348.069 -0.846875 4.07186 0
M  V30 3868 H 346.646 -2.28943 2.94346 0
M  V30 3869 N 348.832 -1.54138 -0.328536 0
M  V30 3870 C 349.795 -1.82462 -1.38709 0
M  V30 3871 C 350.795 -0.696229 -1.44946 0
M  V30 3872 O 351.985 -0.964535 -1.4506 0
M  V30 3873 C 349.117 -1.98018 -2.77492 0
M  V30 3874 H 350.31 -2.77037 -1.14851 0
M  V30 3875 H 347.863 -1.45779 -0.563751 0
M  V30 3876 H 348.598 -1.05637 -3.06613 0
M  V30 3877 H 348.383 -2.80124 -2.74359 0
M  V30 3878 H 349.873 -2.21396 -3.54081 0
M  V30 3879 N 350.31 0.590341 -1.46126 0
M  V30 3880 C 351.559 1.34499 -1.50309 0
M  V30 3881 C 351.872 1.94977 -0.156021 0
M  V30 3882 O 353.078 2.71395 -0.0756037 0
M  V30 3883 C 351.534 2.43723 -2.64815 0
M  V30 3884 C 351.142 1.89582 -4.0591 0
M  V30 3885 C 352.886 3.20579 -2.78262 0
M  V30 3886 C 350.793 2.9639 -5.11769 0
M  V30 3887 H 349.723 0.505593 -0.559368 0
M  V30 3888 H 352.374 0.630848 -1.72315 0
M  V30 3889 H 350.756 3.17902 -2.36124 0
M  V30 3890 H 351.93 1.21997 -4.44357 0
M  V30 3891 H 350.245 1.25418 -3.97063 0
M  V30 3892 H 352.842 4.00276 -3.54519 0
M  V30 3893 H 353.185 3.72684 -1.85505 0
M  V30 3894 H 353.718 2.53505 -3.06562 0
M  V30 3895 H 350.457 2.49181 -6.06291 0
M  V30 3896 H 349.977 3.62487 -4.77873 0
M  V30 3897 H 351.656 3.60474 -5.37278 0
M  V30 3898 N 351.788 1.33704 0.83433 0
M  V30 3899 C 352.736 1.24323 1.96587 0
M  V30 3900 C 353.73 0.143659 1.6879 0
M  V30 3901 O 354.936 0.30791 1.77347 0
M  V30 3902 H 351.311 0.385925 0.645419 0
M  V30 3903 H 353.282 2.19978 2.01624 0
M  V30 3904 C 352.031 1.00394 3.32891 0
M  V30 3905 H 351.354 1.84231 3.54822 0
M  V30 3906 H 352.794 0.97862 4.12552 0
M  V30 3907 C 351.253 -0.293047 3.35623 0
M  V30 3908 O 351.783 -1.29823 3.80143 0
M  V30 3909 N 349.989 -0.322174 2.88809 0
M  V30 3910 H 349.536 0.496379 2.52772 0
M  V30 3911 H 349.494 -1.18977 2.91019 0
M  V30 3912 N 353.266 -1.05314 1.17247 0
M  V30 3913 C 354.506 -1.79869 0.970898 0
M  V30 3914 C 354.87 -1.85594 -0.491808 0
M  V30 3915 O 356.071 -2.56229 -0.812409 0
M  V30 3916 C 354.342 -3.19937 1.59295 0
M  V30 3917 S 355.901 -4.10986 1.53741 0
M  V30 3918 H 352.719 -0.61949 0.348931 0
M  V30 3919 H 355.321 -1.26368 1.49169 0
M  V30 3920 H 354.025 -3.13372 2.65003 0
M  V30 3921 H 353.556 -3.78515 1.07191 0
M  V30 3922 H 355.571 -4.93203 0.544537 0
M  V30 3923 N 354.744 -0.972509 -1.24016 0
M  V30 3924 C 355.993 -0.632603 -1.91523 0
M  V30 3925 C 356.306 0.836641 -1.76804 0
M  V30 3926 O 357.512 1.28728 -2.39043 0
M  V30 3927 C 355.968 -1.08082 -3.43287 0
M  V30 3928 C 355.576 -2.57386 -3.66683 0
M  V30 3929 C 357.32 -0.814288 -4.16617 0
M  V30 3930 C 355.227 -2.95915 -5.12043 0
M  V30 3931 H 354.157 -0.232898 -0.717129 0
M  V30 3932 H 356.808 -1.17936 -1.40582 0
M  V30 3933 H 355.19 -0.462339 -3.93292 0
M  V30 3934 H 356.364 -3.24405 -3.27258 0
M  V30 3935 H 354.679 -2.81701 -3.06649 0
M  V30 3936 H 357.276 -1.0781 -5.23718 0
M  V30 3937 H 357.619 0.24955 -4.15551 0
M  V30 3938 H 358.152 -1.39397 -3.72577 0
M  V30 3939 H 354.891 -4.0139 -5.18234 0
M  V30 3940 H 354.411 -2.33584 -5.52448 0
M  V30 3941 H 356.09 -2.86086 -5.80314 0
M  V30 3942 N 356.222 1.38976 -0.743202 0
M  V30 3943 C 357.469 2.00343 -0.294752 0
M  V30 3944 C 357.797 1.58983 1.12047 0
M  V30 3945 O 357.052 0.813809 1.77977 0
M  V30 3946 C 357.351 3.55647 -0.353517 0
M  V30 3947 C 357.017 4.16685 -1.72292 0
M  V30 3948 C 355.679 4.3307 -2.09771 0
M  V30 3949 C 358.031 4.50464 -2.62168 0
M  V30 3950 C 355.359 4.80526 -3.36618 0
M  V30 3951 C 357.711 4.99332 -3.88395 0
M  V30 3952 C 356.375 5.13924 -4.25956 0
M  V30 3953 H 355.645 0.733108 -0.107857 0
M  V30 3954 H 358.292 1.6618 -0.951651 0
M  V30 3955 H 356.597 3.89884 0.386954 0
M  V30 3956 H 358.294 4.00998 0.0117269 0
M  V30 3957 H 354.884 4.04339 -1.42155 0
M  V30 3958 H 359.068 4.37416 -2.3448 0
M  V30 3959 H 354.324 4.90008 -3.65653 0
M  V30 3960 H 358.498 5.2444 -4.58187 0
M  V30 3961 H 356.125 5.50457 -5.2431 0
M  V30 3962 N 357.7 0.491464 1.49741 0
M  V30 3963 C 358.949 -0.0582189 2.01616 0
M  V30 3964 C 359.262 -1.38927 1.3769 0
M  V30 3965 O 360.468 -2.02509 1.80838 0
M  V30 3966 C 358.924 -0.154235 3.59569 0
M  V30 3967 C 358.532 1.1696 4.32463 0
M  V30 3968 C 360.276 -0.65479 4.1942 0
M  V30 3969 C 358.183 1.03627 5.8225 0
M  V30 3970 H 357.113 -0.0255317 0.753568 0
M  V30 3971 H 359.764 0.629445 1.72367 0
M  V30 3972 H 358.146 -0.906138 3.85493 0
M  V30 3973 H 359.32 1.93405 4.18248 0
M  V30 3974 H 357.635 1.60285 3.84315 0
M  V30 3975 H 360.232 -0.771903 5.29099 0
M  V30 3976 H 360.575 -1.65127 3.8215 0
M  V30 3977 H 361.108 0.040304 3.9778 0
M  V30 3978 H 357.847 2.00672 6.24028 0
M  V30 3979 H 357.367 0.312546 5.98985 0
M  V30 3980 H 359.046 0.711114 6.4308 0
M  V30 3981 N 359.178 -1.55987 0.224894 0
M  V30 3982 C 360.108 -2.23426 -0.678457 0
M  V30 3983 C 361.089 -1.20709 -1.19847 0
M  V30 3984 O 362.274 -1.49304 -1.24186 0
M  V30 3985 C 359.404 -2.91676 -1.88527 0
M  V30 3986 C 358.358 -4.00893 -1.49896 0
M  V30 3987 C 357.684 -4.56455 -2.78483 0
M  V30 3988 C 358.984 -5.17769 -0.686461 0
M  V30 3989 H 360.678 -2.99175 -0.116173 0
M  V30 3990 H 358.224 -1.43897 -0.054436 0
M  V30 3991 H 360.177 -3.37547 -2.5227 0
M  V30 3992 H 358.901 -2.1338 -2.47258 0
M  V30 3993 H 357.56 -3.55758 -0.884985 0
M  V30 3994 H 357.208 -3.74886 -3.35365 0
M  V30 3995 H 356.908 -5.30169 -2.53368 0
M  V30 3996 H 358.432 -5.05047 -3.43162 0
M  V30 3997 H 359.846 -5.60001 -1.22767 0
M  V30 3998 H 358.243 -5.97735 -0.532259 0
M  V30 3999 H 359.313 -4.83932 0.306196 0
M  V30 4000 N 360.656 0.0484629 -1.57525 0
M  V30 4001 C 361.902 0.744226 -1.88651 0
M  V30 4002 C 362.235 1.76029 -0.820212 0
M  V30 4003 O 361.51 1.93782 0.166985 0
M  V30 4004 C 361.793 1.43128 -3.30434 0
M  V30 4005 C 361.646 0.43005 -4.47739 0
M  V30 4006 C 362.965 2.37031 -3.70816 0
M  V30 4007 H 360.084 0.269089 -0.68612 0
M  V30 4008 H 362.726 0.00713532 -1.89999 0
M  V30 4009 H 360.876 2.05956 -3.29415 0
M  V30 4010 H 362.548 -0.194816 -4.60888 0
M  V30 4011 H 360.791 -0.252522 -4.33064 0
M  V30 4012 H 361.462 0.948874 -5.43783 0
M  V30 4013 H 363.938 1.84263 -3.73077 0
M  V30 4014 H 362.814 2.82094 -4.70865 0
M  V30 4015 H 363.075 3.22864 -3.02012 0
M  V30 4016 N 362.134 1.5431 0.320358 0
M  V30 4017 C 363.359 1.76954 1.08175 0
M  V30 4018 C 363.784 0.518193 1.80821 0
M  V30 4019 O 363.142 -0.530411 1.73368 0
M  V30 4020 C 363.19 2.96451 2.05303 0
M  V30 4021 O 362.294 2.68221 3.13259 0
M  V30 4022 H 361.635 0.586275 0.311733 0
M  V30 4023 H 364.165 2.01342 0.363676 0
M  V30 4024 H 364.175 3.23887 2.48116 0
M  V30 4025 H 362.85 3.87196 1.51829 0
M  V30 4026 H 361.427 2.51744 2.75099 0
M  V30 4027 N 363.613 -0.582584 1.46437 0
M  V30 4028 C 364.86 -1.34079 1.51753 0
M  V30 4029 C 365.188 -1.93762 0.169299 0
M  V30 4030 O 364.443 -1.76989 -0.835062 0
M  V30 4031 C 364.742 -2.48964 2.56421 0
M  V30 4032 C 364.408 -2.07273 4.00436 0
M  V30 4033 C 363.07 -1.95618 4.39644 0
M  V30 4034 C 365.422 -1.75111 4.90903 0
M  V30 4035 C 362.75 -1.5006 5.67185 0
M  V30 4036 C 365.102 -1.31032 6.18881 0
M  V30 4037 C 363.766 -1.17954 6.56996 0
M  V30 4038 H 363.036 -0.49063 0.555304 0
M  V30 4039 H 365.683 -0.656007 1.79913 0
M  V30 4040 H 363.988 -3.22889 2.21923 0
M  V30 4041 H 365.685 -3.07178 2.57765 0
M  V30 4042 H 362.275 -2.17279 3.69443 0
M  V30 4043 H 366.459 -1.83001 4.61329 0
M  V30 4044 H 361.715 -1.38577 5.95488 0
M  V30 4045 H 365.889 -1.052 6.88408 0
M  V30 4046 H 363.516 -0.824279 7.55718 0
M  V30 4047 N 365.091 -1.34144 -0.827227 0
M  V30 4048 C 366.021 -1.28005 -1.95287 0
M  V30 4049 C 367.002 -0.158321 -1.69362 0
M  V30 4050 O 368.187 -0.349987 -1.9102 0
M  V30 4051 C 365.317 -1.03036 -3.31664 0
M  V30 4052 C 364.271 -2.11628 -3.72019 0
M  V30 4053 C 363.597 -1.71854 -5.0633 0
M  V30 4054 C 364.897 -3.53417 -3.8457 0
M  V30 4055 H 366.591 -2.22187 -2.00682 0
M  V30 4056 H 364.137 -1.0696 -0.964135 0
M  V30 4057 H 366.09 -0.973863 -4.09993 0
M  V30 4058 H 364.814 -0.0529391 -3.26557 0
M  V30 4059 H 363.473 -2.16339 -2.95961 0
M  V30 4060 H 363.121 -0.727841 -4.97706 0
M  V30 4061 H 362.821 -2.44531 -5.34302 0
M  V30 4062 H 364.345 -1.67692 -5.87122 0
M  V30 4063 H 365.759 -3.51142 -4.5318 0
M  V30 4064 H 364.156 -4.24679 -4.2399 0
M  V30 4065 H 365.226 -3.91072 -2.86689 0
M  V30 4066 N 366.569 1.04691 -1.17803 0
M  V30 4067 C 367.809 1.79352 -0.980423 0
M  V30 4068 C 368.173 1.85853 0.481958 0
M  V30 4069 O 369.374 2.56656 0.798809 0
M  V30 4070 C 367.645 3.19088 -1.6099 0
M  V30 4071 S 369.204 4.10164 -1.55918 0
M  V30 4072 H 366.022 0.617631 -0.352211 0
M  V30 4073 H 368.624 1.25575 -1.49837 0
M  V30 4074 H 367.328 3.11962 -2.66661 0
M  V30 4075 H 366.859 3.77941 -1.09197 0
M  V30 4076 H 368.874 4.92907 -0.570685 0
M  V30 4077 N 368.047 0.979072 1.23499 0
M  V30 4078 C 369.277 0.664237 1.95631 0
M  V30 4079 C 369.685 -0.772653 1.72704 0
M  V30 4080 O 369.028 -1.53141 1.01457 0
M  V30 4081 C 369.09 0.873115 3.48736 0
M  V30 4082 C 368.754 2.29182 3.95379 0
M  V30 4083 C 369.751 3.2704 4.04155 0
M  V30 4084 C 367.436 2.62256 4.28401 0
M  V30 4085 C 369.43 4.56052 4.45304 0
M  V30 4086 C 367.117 3.91491 4.69231 0
M  V30 4087 C 368.115 4.88201 4.77649 0
M  V30 4088 O 367.803 6.15129 5.17563 0
M  V30 4089 H 367.535 0.245915 0.629684 0
M  V30 4090 H 370.089 1.3127 1.57979 0
M  V30 4091 H 368.319 0.167476 3.86337 0
M  V30 4092 H 370.008 0.555642 4.02079 0
M  V30 4093 H 370.774 3.02819 3.78848 0
M  V30 4094 H 366.653 1.87692 4.21061 0
M  V30 4095 H 370.197 5.31538 4.51789 0
M  V30 4096 H 366.094 4.15508 4.93987 0
M  V30 4097 H 366.862 6.18862 5.35679 0
M  V30 4098 N 369.525 -1.3858 0.750561 0
M  V30 4099 C 370.753 -2.04471 0.316098 0
M  V30 4100 C 371.168 -1.56606 -1.05452 0
M  V30 4101 O 370.525 -0.737784 -1.66922 0
M  V30 4102 C 370.576 -3.60025 0.326275 0
M  V30 4103 O 370.297 -4.06133 1.6428 0
M  V30 4104 C 371.798 -4.43131 -0.122429 0
M  V30 4105 H 369.018 -0.65717 0.135528 0
M  V30 4106 H 371.562 -1.77329 1.01857 0
M  V30 4107 H 369.717 -3.86014 -0.327431 0
M  V30 4108 H 370.131 -5.00547 1.56693 0
M  V30 4109 H 371.605 -5.51963 -0.0641473 0
M  V30 4110 H 372.082 -4.23333 -1.16988 0
M  V30 4111 H 372.688 -4.22323 0.50229 0
M  V30 4112 N 371.003 -0.499398 -1.49478 0
M  V30 4113 C 372.249 0.0457576 -2.02748 0
M  V30 4114 C 372.582 1.36793 -1.37846 0
M  V30 4115 O 371.857 1.87596 -0.513601 0
M  V30 4116 C 372.14 0.199986 -3.59544 0
M  V30 4117 C 371.993 -1.1452 -4.34977 0
M  V30 4118 C 373.312 0.94137 -4.29914 0
M  V30 4119 H 370.431 0.0151552 -0.736844 0
M  V30 4120 H 373.073 -0.650498 -1.78518 0
M  V30 4121 H 371.223 0.793007 -3.8032 0
M  V30 4122 H 372.895 -1.77697 -4.25701 0
M  V30 4123 H 371.138 -1.73488 -3.97598 0
M  V30 4124 H 371.809 -0.990607 -5.43039 0
M  V30 4125 H 374.285 0.43844 -4.13784 0
M  V30 4126 H 373.161 1.01812 -5.39375 0
M  V30 4127 H 373.422 1.98471 -3.95046 0
M  V30 4128 N 372.481 1.55866 -0.233164 0
M  V30 4129 C 373.411 2.23783 0.666599 0
M  V30 4130 C 374.392 1.21343 1.19205 0
M  V30 4131 O 375.577 1.4996 1.23392 0
M  V30 4132 C 372.707 2.92671 1.86978 0
M  V30 4133 C 371.661 4.01682 1.47768 0
M  V30 4134 C 370.987 4.57926 2.76058 0
M  V30 4135 C 372.287 5.18126 0.658993 0
M  V30 4136 H 373.981 2.99232 0.100306 0
M  V30 4137 H 371.527 1.43924 0.046804 0
M  V30 4138 H 373.48 3.3888 2.50476 0
M  V30 4139 H 372.204 2.14688 2.46123 0
M  V30 4140 H 370.863 3.56222 0.866106 0
M  V30 4141 H 370.511 3.76659 3.33372 0
M  V30 4142 H 370.211 5.31505 2.50552 0
M  V30 4143 H 371.735 5.06859 3.40479 0
M  V30 4144 H 373.149 5.60644 1.19795 0
M  V30 4145 H 371.546 5.98009 0.500552 0
M  V30 4146 H 372.616 4.83763 -0.331856 0
M  V30 4147 N 373.959 -0.0401083 1.57549 0
M  V30 4148 C 374.906 -1.04413 2.05831 0
M  V30 4149 C 375.876 -1.36585 0.945184 0
M  V30 4150 O 377.061 -1.47112 1.21502 0
M  V30 4151 C 374.201 -2.34336 2.53339 0
M  V30 4152 C 373.314 -2.08419 3.78398 0
M  V30 4153 C 372.449 -3.32133 4.14561 0
M  V30 4154 C 371.488 -3.01721 5.3257 0
M  V30 4155 N 370.625 -4.17855 5.64218 0
M  V30 4156 H 375.465 -0.625442 2.91363 0
M  V30 4157 H 373.002 -0.297218 1.44066 0
M  V30 4158 H 374.96 -3.10234 2.78946 0
M  V30 4159 H 373.59 -2.73948 1.7074 0
M  V30 4160 H 372.642 -1.23069 3.59942 0
M  V30 4161 H 373.954 -1.81978 4.64419 0
M  V30 4162 H 373.108 -4.16406 4.41238 0
M  V30 4163 H 371.847 -3.61678 3.2717 0
M  V30 4164 H 370.852 -2.15849 5.05657 0
M  V30 4165 H 372.077 -2.73466 6.21605 0
M  V30 4166 H 370.023 -4.47372 4.79786 0
M  V30 4167 H 369.94 -3.94798 6.44725 0
M  V30 4168 H 371.208 -5.03033 5.95465 0
M  V30 4169 N 375.437 -1.54477 -0.31217 0
M  V30 4170 C 376.853 -1.45442 -0.657185 0
M  V30 4171 C 377.053 -0.63653 -1.91182 0
M  V30 4172 O 376.109 -0.139815 -2.52113 0
M  V30 4173 C 377.422 -2.89287 -0.82058 0
M  V30 4174 C 378.97 -2.9926 -0.917188 0
M  V30 4175 C 379.445 -4.44279 -1.11267 0
M  V30 4176 N 380.936 -4.4794 -1.17914 0
M  V30 4177 C 381.671 -5.57318 -1.34848 0
M  V30 4178 N 381.167 -6.76642 -1.48752 0
M  V30 4179 N 382.96 -5.44986 -1.37647 0
M  V30 4180 H 375.111 -2.06129 0.512313 0
M  V30 4181 H 377.374 -0.933088 0.167485 0
M  V30 4182 H 377.08 -3.51687 0.0302604 0
M  V30 4183 H 376.954 -3.36061 -1.71298 0
M  V30 4184 H 379.341 -2.36981 -1.75852 0
M  V30 4185 H 379.422 -2.558 -0.00101257 0
M  V30 4186 H 379.066 -5.07149 -0.27614 0
M  V30 4187 H 378.996 -4.85359 -2.04289 0
M  V30 4188 H 381.487 -3.61969 -1.08567 0
M  V30 4189 H 381.8 -7.55758 -1.61397 0
M  V30 4190 H 380.145 -6.79529 -1.45828 0
M  V30 4191 H 383.336 -4.50715 -1.26388 0
M  V30 4192 H 383.509 -6.3028 -1.50501 0
M  V30 4193 N 376.915 0.57481 -1.46744 0
M  V30 4194 C 378.143 1.35856 -1.56047 0
M  V30 4195 C 378.558 1.87691 -0.204365 0
M  V30 4196 O 377.915 1.64049 0.79963 0
M  V30 4197 C 377.966 2.54066 -2.57163 0
M  V30 4198 O 377.687 2.04377 -3.87507 0
M  V30 4199 C 379.188 3.46514 -2.76483 0
M  V30 4200 H 376.408 0.414754 -0.527466 0
M  V30 4201 H 378.952 0.698035 -1.92218 0
M  V30 4202 H 377.107 3.16092 -2.23974 0
M  V30 4203 H 377.521 2.81419 -4.4261 0
M  V30 4204 H 378.995 4.25919 -3.51137 0
M  V30 4205 H 379.472 3.98951 -1.83671 0
M  V30 4206 H 380.078 2.90318 -3.10799 0
M  V30 4207 N 378.394 1.34581 0.820102 0
M  V30 4208 C 379.342 1.26401 1.95258 0
M  V30 4209 C 380.336 0.161553 1.68628 0
M  V30 4210 O 381.542 0.326703 1.7701 0
M  V30 4211 H 377.917 0.392749 0.64129 0
M  V30 4212 H 379.888 2.22105 1.99279 0
M  V30 4213 C 378.637 1.03919 3.31807 0
M  V30 4214 H 377.96 1.87984 3.52848 0
M  V30 4215 H 379.4 1.02232 4.11491 0
M  V30 4216 C 377.859 -0.257433 3.35915 0
M  V30 4217 O 378.389 -1.25784 3.81499 0
M  V30 4218 N 376.595 -0.291524 2.89134 0
M  V30 4219 H 376.142 0.523161 2.52232 0
M  V30 4220 H 376.1 -1.15883 2.92264 0
M  V30 4221 N 379.872 -1.04064 1.18357 0
M  V30 4222 C 380.82 -2.14187 0.907007 0
M  V30 4223 C 381.814 -1.68879 -0.132725 0
M  V30 4224 O 383.02 -1.79993 0.0154248 0
M  V30 4225 H 379.395 -0.699585 0.275835 0
M  V30 4226 H 381.366 -2.34711 1.84264 0
M  V30 4227 C 380.115 -3.44785 0.449254 0
M  V30 4228 H 379.438 -3.80058 1.24081 0
M  V30 4229 H 380.878 -4.22974 0.294737 0
M  V30 4230 C 379.337 -3.26391 -0.834909 0
M  V30 4231 O 379.867 -3.53973 -1.89911 0
M  V30 4232 N 378.073 -2.79726 -0.787523 0
M  V30 4233 H 377.62 -2.5748 0.0787347 0
M  V30 4234 H 377.578 -2.67798 -1.64716 0
M  V30 4235 N 381.35 -0.985608 -1.22978 0
M  V30 4236 C 382.597 -0.657386 -1.91532 0
M  V30 4237 C 382.925 0.809707 -1.76845 0
M  V30 4238 O 382.18 1.60021 -1.12658 0
M  V30 4239 C 382.479 -1.00014 -3.43121 0
M  V30 4240 C 382.145 -2.4583 -3.77993 0
M  V30 4241 C 380.807 -2.85679 -3.87222 0
M  V30 4242 C 383.159 -3.40378 -3.94705 0
M  V30 4243 C 380.487 -4.19081 -4.10595 0
M  V30 4244 C 382.839 -4.73429 -4.1958 0
M  V30 4245 C 381.503 -5.1303 -4.27032 0
M  V30 4246 H 380.773 -0.240555 -0.700867 0
M  V30 4247 H 383.42 -1.24044 -1.45895 0
M  V30 4248 H 381.725 -0.335072 -3.90365 0
M  V30 4249 H 383.422 -0.724322 -3.94404 0
M  V30 4250 H 380.012 -2.13939 -3.71387 0
M  V30 4251 H 384.196 -3.10766 -3.8696 0
M  V30 4252 H 379.452 -4.49362 -4.14589 0
M  V30 4253 H 383.626 -5.46644 -4.31455 0
M  V30 4254 H 381.253 -6.16418 -4.44896 0
M  V30 4255 N 382.828 1.3818 -0.7579 0
M  V30 4256 C 383.775 2.30416 -0.133057 0
M  V30 4257 C 384.745 1.50398 0.704957 0
M  V30 4258 O 385.93 1.79014 0.660192 0
M  V30 4259 C 383.07 3.36834 0.750813 0
M  V30 4260 C 382.183 4.31879 -0.102297 0
M  V30 4261 C 381.318 5.25368 0.784979 0
M  V30 4262 C 380.357 6.12058 -0.0715046 0
M  V30 4263 N 379.494 6.97832 0.772972 0
M  V30 4264 H 384.334 2.83274 -0.925186 0
M  V30 4265 H 381.871 1.39461 -0.467866 0
M  V30 4266 H 383.829 3.97145 1.27794 0
M  V30 4267 H 382.459 2.85374 1.50868 0
M  V30 4268 H 381.511 3.72991 -0.747095 0
M  V30 4269 H 382.823 4.92921 -0.763552 0
M  V30 4270 H 381.977 5.90818 1.37911 0
M  V30 4271 H 380.716 4.64703 1.47996 0
M  V30 4272 H 379.721 5.456 -0.678272 0
M  V30 4273 H 380.946 6.74793 -0.763606 0
M  V30 4274 H 378.892 6.3971 1.45282 0
M  V30 4275 H 378.809 7.55812 0.168709 0
M  V30 4276 H 380.077 7.67687 1.35194 0
M  V30 4277 N 384.306 0.507319 1.49211 0
M  V30 4278 C 385.216 -0.272136 2.33016 0
M  V30 4279 C 386.232 -0.961206 1.45041 0
M  V30 4280 O 387.408 -0.941191 1.78055 0
M  V30 4281 C 384.473 -1.31895 3.20631 0
M  V30 4282 C 383.534 -0.642648 4.24463 0
M  V30 4283 C 382.767 -1.63959 5.07891 0
M  V30 4284 O 382.99 -2.87007 4.92933 0
M  V30 4285 O 381.924 -1.19143 5.8999 0
M  V30 4286 H 385.75 0.413982 3.00865 0
M  V30 4287 H 383.335 0.268556 1.46966 0
M  V30 4288 H 385.217 -1.92446 3.7489 0
M  V30 4289 H 383.892 -1.98788 2.5547 0
M  V30 4290 H 382.799 0.00276252 3.741 0
M  V30 4291 H 384.132 -0.0160534 4.92197 0
M  V30 4292 N 385.784 -1.5574 0.241426 0
M  V30 4293 C 386.731 -2.21149 -0.660432 0
M  V30 4294 C 387.701 -1.17356 -1.17545 0
M  V30 4295 O 388.886 -1.45784 -1.23093 0
M  V30 4296 C 386.026 -2.91059 -1.85414 0
M  V30 4297 C 385.139 -4.09495 -1.37616 0
M  V30 4298 C 384.274 -4.67135 -2.529 0
M  V30 4299 C 383.313 -5.77831 -2.01936 0
M  V30 4300 N 382.45 -6.29677 -3.10566 0
M  V30 4301 H 387.29 -2.97845 -0.095955 0
M  V30 4302 H 384.827 -1.47057 -0.0356024 0
M  V30 4303 H 386.785 -3.29788 -2.5553 0
M  V30 4304 H 385.415 -2.16846 -2.39118 0
M  V30 4305 H 384.467 -3.76117 -0.569235 0
M  V30 4306 H 385.779 -4.89423 -0.962618 0
M  V30 4307 H 384.933 -5.08409 -3.31067 0
M  V30 4308 H 383.672 -3.86411 -2.97553 0
M  V30 4309 H 382.677 -5.36039 -1.22238 0
M  V30 4310 H 383.902 -6.60402 -1.58259 0
M  V30 4311 H 381.848 -5.5186 -3.54664 0
M  V30 4312 H 381.765 -7.04783 -2.73526 0
M  V30 4313 H 383.033 -6.75609 -3.88809 0
M  V30 4314 N 387.262 0.0317525 -1.57568 0
M  V30 4315 C 388.509 0.723104 -1.89149 0
M  V30 4316 C 388.837 1.75504 -0.838377 0
M  V30 4317 O 388.092 1.95037 0.160982 0
M  V30 4318 C 388.391 1.43167 -3.27472 0
M  V30 4319 C 388.057 0.535972 -4.47703 0
M  V30 4320 C 386.719 0.289262 -4.8033 0
M  V30 4321 C 389.071 -0.0826125 -5.21135 0
M  V30 4322 C 386.399 -0.584853 -5.83778 0
M  V30 4323 C 388.751 -0.944414 -6.25511 0
M  V30 4324 C 387.415 -1.20061 -6.56614 0
M  V30 4325 H 386.685 0.264602 -0.692146 0
M  V30 4326 H 389.332 -0.0169496 -1.91492 0
M  V30 4327 H 387.637 2.24497 -3.21105 0
M  V30 4328 H 389.334 1.97209 -3.49155 0
M  V30 4329 H 385.924 0.738414 -4.22191 0
M  V30 4330 H 390.108 0.0950302 -4.96209 0
M  V30 4331 H 385.364 -0.79168 -6.06253 0
M  V30 4332 H 389.538 -1.43026 -6.81554 0
M  V30 4333 H 387.165 -1.87967 -7.36595 0
M  V30 4334 N 388.74 1.54641 0.303973 0
M  V30 4335 C 389.687 1.85386 1.37479 0
M  V30 4336 C 390.657 0.702528 1.50512 0
M  V30 4337 O 391.842 0.950867 1.65418 0
M  V30 4338 C 388.982 2.10413 2.73533 0
M  V30 4339 C 388.095 3.38049 2.68974 0
M  V30 4340 C 387.23 3.52934 3.97002 0
M  V30 4341 C 386.269 4.74373 3.86829 0
M  V30 4342 N 385.406 4.8608 5.06627 0
M  V30 4343 H 390.246 2.76732 1.1056 0
M  V30 4344 H 387.783 1.37034 0.534805 0
M  V30 4345 H 389.741 2.22919 3.52652 0
M  V30 4346 H 388.371 1.22338 2.98719 0
M  V30 4347 H 387.423 3.3418 1.81736 0
M  V30 4348 H 388.735 4.27288 2.57346 0
M  V30 4349 H 387.889 3.65088 4.84557 0
M  V30 4350 H 386.628 2.61824 4.1146 0
M  V30 4351 H 385.633 4.62255 2.97658 0
M  V30 4352 H 386.858 5.66888 3.73918 0
M  V30 4353 H 384.804 3.97891 5.21554 0
M  V30 4354 H 384.721 5.69315 4.9741 0
M  V30 4355 H 385.989 5.02587 5.95841 0
M  V30 4356 N 390.218 -0.567019 1.47046 0
M  V30 4357 C 391.467 -1.32091 1.5243 0
M  V30 4358 C 391.78 -1.94704 0.187021 0
M  V30 4359 O 392.986 -2.7124 0.118771 0
M  V30 4360 C 391.442 -2.39479 2.68659 0
M  V30 4361 C 391.05 -1.831 4.08874 0
M  V30 4362 C 392.794 -3.16111 2.83327 0
M  V30 4363 C 390.701 -2.8821 5.16419 0
M  V30 4364 H 389.631 -0.496629 0.56734 0
M  V30 4365 H 392.282 -0.603354 1.73297 0
M  V30 4366 H 390.664 -3.14105 2.41152 0
M  V30 4367 H 391.838 -1.14913 4.46242 0
M  V30 4368 H 390.153 -1.19085 3.99008 0
M  V30 4369 H 392.75 -3.94585 3.60842 0
M  V30 4370 H 393.093 -3.69686 1.91411 0
M  V30 4371 H 393.626 -2.48595 3.10556 0
M  V30 4372 H 390.365 -2.39504 6.10179 0
M  V30 4373 H 389.885 -3.54839 4.8358 0
M  V30 4374 H 391.564 -3.51881 5.42945 0
M  V30 4375 N 391.696 -1.35014 -0.812953 0
M  V30 4376 C 392.926 -1.30841 -1.59888 0
M  V30 4377 C 393.334 0.117576 -1.88834 0
M  V30 4378 O 392.677 1.07807 -1.48739 0
M  V30 4379 C 392.739 -2.0412 -2.95931 0
M  V30 4380 C 392.403 -3.53336 -2.89832 0
M  V30 4381 C 393.4 -4.48052 -2.63714 0
M  V30 4382 C 391.085 -3.95894 -3.0915 0
M  V30 4383 C 393.079 -5.833 -2.56982 0
M  V30 4384 C 390.766 -5.31239 -3.0204 0
M  V30 4385 C 391.764 -6.24754 -2.75991 0
M  V30 4386 O 391.452 -7.57617 -2.68833 0
M  V30 4387 H 391.184 -0.451215 -0.50337 0
M  V30 4388 H 393.738 -1.78354 -1.01877 0
M  V30 4389 H 391.968 -1.51235 -3.559 0
M  V30 4390 H 393.657 -1.93107 -3.57022 0
M  V30 4391 H 394.423 -4.16492 -2.48515 0
M  V30 4392 H 390.302 -3.23495 -3.28438 0
M  V30 4393 H 393.846 -6.56263 -2.36569 0
M  V30 4394 H 389.743 -5.62415 -3.16796 0
M  V30 4395 H 390.511 -7.67469 -2.84487 0
M  V30 4396 N 393.175 1.03435 -1.18907 0
M  V30 4397 C 394.403 1.80381 -1.01342 0
M  V30 4398 C 394.818 1.83649 0.438005 0
M  V30 4399 O 394.175 1.27655 1.30424 0
M  V30 4400 C 394.226 3.25689 -1.56873 0
M  V30 4401 O 393.947 3.22673 -2.96334 0
M  V30 4402 C 395.448 4.19255 -1.44014 0
M  V30 4403 H 392.668 0.56784 -0.35749 0
M  V30 4404 H 395.212 1.30317 -1.576 0
M  V30 4405 H 393.367 3.72962 -1.04777 0
M  V30 4406 H 393.781 4.13748 -3.22355 0
M  V30 4407 H 395.255 5.19123 -1.87657 0
M  V30 4408 H 395.732 4.37467 -0.389815 0
M  V30 4409 H 396.338 3.77851 -1.95214 0
M  V30 4410 N 394.653 0.992116 1.22453 0
M  V30 4411 C 395.563 0.55065 2.28046 0
M  V30 4412 C 396.579 -0.400189 1.69335 0
M  V30 4413 O 397.755 -0.267215 1.99619 0
M  V30 4414 C 394.82 -0.128496 3.46462 0
M  V30 4415 C 393.881 0.865208 4.20491 0
M  V30 4416 C 393.114 0.218377 5.33253 0
M  V30 4417 O 393.337 -0.987894 5.6178 0
M  V30 4418 O 392.271 0.922845 5.94783 0
M  V30 4419 H 396.097 1.4291 2.67975 0
M  V30 4420 H 393.682 0.760326 1.28606 0
M  V30 4421 H 395.564 -0.508947 4.18315 0
M  V30 4422 H 394.239 -0.981526 3.0846 0
M  V30 4423 H 393.146 1.29658 3.50913 0
M  V30 4424 H 394.479 1.68741 4.62371 0
M  V30 4425 N 396.131 -1.37776 0.765217 0
M  V30 4426 C 397.041 -2.34135 0.147666 0
M  V30 4427 C 398.057 -1.59854 -0.687215 0
M  V30 4428 O 399.233 -1.91983 -0.608659 0
M  V30 4429 C 396.298 -3.3901 -0.72617 0
M  V30 4430 C 395.359 -4.2912 0.124417 0
M  V30 4431 C 394.592 -5.28986 -0.707807 0
M  V30 4432 O 394.815 -5.36205 -1.94525 0
M  V30 4433 O 393.749 -6.01779 -0.12046 0
M  V30 4434 H 397.575 -2.88664 0.943758 0
M  V30 4435 H 395.16 -1.39824 0.526277 0
M  V30 4436 H 397.042 -4.03195 -1.22524 0
M  V30 4437 H 395.717 -2.86819 -1.50056 0
M  V30 4438 H 394.624 -3.68057 0.669696 0
M  V30 4439 H 395.957 -4.84598 0.861736 0
M  V30 4440 N 397.609 -0.515225 -1.4894 0
M  V30 4441 C 399.025 -0.172099 -1.58669 0
M  V30 4442 C 399.225 1.32405 -1.51892 0
M  V30 4443 O 398.281 2.10116 -1.40027 0
M  V30 4444 C 399.594 -0.761533 -2.90897 0
M  V30 4445 C 401.142 -0.728926 -3.04394 0
M  V30 4446 C 401.617 -1.29667 -4.39261 0
M  V30 4447 N 403.108 -1.25799 -4.4579 0
M  V30 4448 C 403.843 -1.66733 -5.48623 0
M  V30 4449 N 403.339 -2.15327 -6.58488 0
M  V30 4450 N 405.132 -1.58061 -5.39419 0
M  V30 4451 H 397.283 -1.48778 -1.51588 0
M  V30 4452 H 399.546 -0.617968 -0.718901 0
M  V30 4453 H 399.252 -1.81136 -3.01468 0
M  V30 4454 H 399.126 -0.230106 -3.76497 0
M  V30 4455 H 401.513 0.312098 -2.93445 0
M  V30 4456 H 401.594 -1.29766 -2.20442 0
M  V30 4457 H 401.238 -2.33655 -4.50963 0
M  V30 4458 H 401.168 -0.703752 -5.21876 0
M  V30 4459 H 403.659 -0.902102 -3.66975 0
M  V30 4460 H 403.972 -2.44594 -7.33071 0
M  V30 4461 H 402.317 -2.19311 -6.59491 0
M  V30 4462 H 405.508 -1.19906 -4.52482 0
M  V30 4463 H 405.681 -1.90284 -6.19432 0
M  V30 4464 N 399.087 1.5561 -0.249682 0
M  V30 4465 C 400.034 2.21496 0.648694 0
M  V30 4466 C 401.004 1.17977 1.16921 0
M  V30 4467 O 402.189 1.46434 1.22318 0
M  V30 4468 C 399.329 2.92039 1.83868 0
M  V30 4469 C 398.442 4.10219 1.35442 0
M  V30 4470 C 397.577 4.6847 2.50419 0
M  V30 4471 C 396.616 5.78893 1.98869 0
M  V30 4472 N 395.753 6.31315 3.07223 0
M  V30 4473 H 400.593 2.97892 0.0801582 0
M  V30 4474 H 398.13 1.47074 0.0278031 0
M  V30 4475 H 400.088 3.31138 2.53778 0
M  V30 4476 H 398.718 2.18111 2.37965 0
M  V30 4477 H 397.77 3.76413 0.54928 0
M  V30 4478 H 399.082 4.89927 0.936649 0
M  V30 4479 H 398.236 5.10158 3.28366 0
M  V30 4480 H 396.975 3.87984 2.95499 0
M  V30 4481 H 395.98 5.3668 1.19393 0
M  V30 4482 H 397.205 6.61232 1.54755 0
M  V30 4483 H 395.151 5.53733 3.51732 0
M  V30 4484 H 395.068 7.06224 2.69784 0
M  V30 4485 H 396.336 6.77662 3.8522 0
M  V30 4486 N 400.565 -0.0233959 1.57583 0
M  V30 4487 C 401.513 -1.04063 2.08023 0
M  V30 4488 C 402.507 -1.37084 0.995204 0
M  V30 4489 O 403.713 -1.35923 1.18004 0
M  V30 4490 H 400.088 -0.353144 0.663922 0
M  V30 4491 H 402.059 -0.589453 2.9252 0
M  V30 4492 C 400.808 -2.33123 2.57971 0
M  V30 4493 H 400.131 -2.08577 3.4108 0
M  V30 4494 H 401.571 -3.02632 2.96967 0
M  V30 4495 C 400.03 -3.02483 1.48342 0
M  V30 4496 O 400.56 -3.92541 0.852898 0
M  V30 4497 N 398.766 -2.63909 1.21658 0
M  V30 4498 H 398.313 -1.90758 1.73116 0
M  V30 4499 H 398.271 -3.10633 0.485218 0
M  V30 4500 N 402.043 -1.548 -0.295768 0
M  V30 4501 C 402.991 -1.86874 -1.38495 0
M  V30 4502 C 403.985 -0.742938 -1.52239 0
M  V30 4503 O 405.191 -0.926999 -1.54294 0
M  V30 4504 H 401.566 -0.592786 -0.462719 0
M  V30 4505 H 403.537 -2.77904 -1.08682 0
M  V30 4506 C 402.286 -2.13732 -2.74252 0
M  V30 4507 H 401.609 -2.99835 -2.64459 0
M  V30 4508 H 403.049 -2.4011 -3.49461 0
M  V30 4509 C 401.508 -0.937539 -3.23592 0
M  V30 4510 O 402.038 -0.160665 -4.01379 0
M  V30 4511 N 400.244 -0.741478 -2.80981 0
M  V30 4512 H 399.791 -1.37489 -2.1784 0
M  V30 4513 H 399.749 0.0597103 -3.14343 0
M  V30 4514 N 403.521 0.559213 -1.47345 0
M  V30 4515 C 404.468 1.66645 -1.59682 0
M  V30 4516 C 405.438 1.60168 -0.43994 0
M  V30 4517 O 406.623 1.79031 -0.659736 0
M  V30 4518 C 403.763 3.04969 -1.61518 0
M  V30 4519 C 402.876 3.21897 -2.88108 0
M  V30 4520 C 402.011 4.50608 -2.81294 0
M  V30 4521 C 401.05 4.60961 -4.02717 0
M  V30 4522 N 400.187 5.81024 -3.94151 0
M  V30 4523 H 405.027 1.55439 -2.54249 0
M  V30 4524 H 402.564 0.757219 -1.26113 0
M  V30 4525 H 404.522 3.85064 -1.60566 0
M  V30 4526 H 403.152 3.15015 -0.704645 0
M  V30 4527 H 402.204 2.35248 -2.98936 0
M  V30 4528 H 403.516 3.25412 -3.78032 0
M  V30 4529 H 402.67 5.3896 -2.7858 0
M  V30 4530 H 401.409 4.49568 -1.89049 0
M  V30 4531 H 400.414 3.71021 -4.05738 0
M  V30 4532 H 401.639 4.63761 -4.96087 0
M  V30 4533 H 399.585 5.80938 -3.04708 0
M  V30 4534 H 399.502 5.85909 -4.77752 0
M  V30 4535 H 400.77 6.71744 -3.9545 0
M  V30 4536 N 404.999 1.35443 0.805782 0
M  V30 4537 C 405.947 1.28465 1.93906 0
M  V30 4538 C 406.941 0.17943 1.68447 0
M  V30 4539 O 408.147 0.345459 1.76654 0
M  V30 4540 H 404.522 0.399528 0.637088 0
M  V30 4541 H 406.493 2.24206 1.96912 0
M  V30 4542 C 405.242 1.07432 3.30687 0
M  V30 4543 H 404.565 1.91716 3.50835 0
M  V30 4544 H 406.005 1.06591 4.10383 0
M  V30 4545 C 404.464 -0.22179 3.36169 0
M  V30 4546 O 404.994 -1.21731 3.82811 0
M  V30 4547 N 403.2 -0.260841 2.89427 0
M  V30 4548 H 402.747 0.549884 2.51663 0
M  V30 4549 H 402.705 -1.12777 2.93477 0
M  V30 4550 N 406.477 -1.02803 1.19454 0
M  V30 4551 C 407.702 -1.80378 1.02364 0
M  V30 4552 C 408.127 -1.83282 -0.423007 0
M  V30 4553 O 407.485 -1.25945 -1.30413 0
M  V30 4554 C 407.533 -3.23248 1.59821 0
M  V30 4555 O 406.637 -4.04 0.828105 0
M  V30 4556 H 405.978 -0.556799 0.361761 0
M  V30 4557 H 408.508 -1.29385 1.58495 0
M  V30 4558 H 408.518 -3.73994 1.63073 0
M  V30 4559 H 407.193 -3.2045 2.65113 0
M  V30 4560 H 405.77 -3.62635 0.86891 0
M  V30 4561 N 407.956 -0.998596 -1.21925 0
M  V30 4562 C 409.372 -0.710303 -1.42923 0
M  V30 4563 C 409.572 0.716933 -1.88314 0
M  V30 4564 O 408.628 1.48712 -2.04062 0
M  V30 4565 C 409.941 -1.72072 -2.466 0
M  V30 4566 C 411.489 -1.73681 -2.60392 0
M  V30 4567 C 411.964 -2.73601 -3.67296 0
M  V30 4568 N 413.455 -2.7223 -3.7476 0
M  V30 4569 C 414.19 -3.46206 -4.57087 0
M  V30 4570 N 413.686 -4.29802 -5.43362 0
M  V30 4571 N 415.479 -3.34886 -4.51451 0
M  V30 4572 H 407.63 -1.92028 -0.9077 0
M  V30 4573 H 409.893 -0.828487 -0.460775 0
M  V30 4574 H 409.599 -2.74231 -2.20206 0
M  V30 4575 H 409.473 -1.51818 -3.45299 0
M  V30 4576 H 411.86 -0.722173 -2.86127 0
M  V30 4577 H 411.941 -1.98005 -1.61949 0
M  V30 4578 H 411.585 -3.75217 -3.42307 0
M  V30 4579 H 411.515 -2.46545 -4.65321 0
M  V30 4580 H 414.006 -2.11576 -3.1312 0
M  V30 4581 H 414.319 -4.83061 -6.03218 0
M  V30 4582 H 412.664 -4.33887 -5.42925 0
M  V30 4583 H 415.855 -2.69015 -3.83078 0
M  V30 4584 H 416.028 -3.92796 -5.15379 0
M  V30 4585 N 409.434 1.37368 -0.772513 0
M  V30 4586 C 410.711 1.93839 -0.26188 0
M  V30 4587 C 411.091 1.7061 1.24319 0
M  V30 4588 O 410.439 1.05534 2.02669 0
M  V30 4589 C 410.649 3.43154 -0.636102 0
M  V30 4590 C 411.997 4.20249 -0.606324 0
M  V30 4591 O 413.021 3.5152 -0.575538 0
M  V30 4592 O 411.88 5.42809 -0.634086 0
M  V30 4593 H 408.974 0.82478 -0.0605555 0
M  V30 4594 H 411.52 1.4665 -0.853917 0
M  V30 4595 H 410.292 3.53647 -1.6748 0
M  V30 4596 H 409.915 3.97596 -0.0170516 0
M  V30 4597 N 410.912 0.523116 1.48665 0
M  V30 4598 C 412.189 -0.0775449 1.95446 0
M  V30 4599 C 412.569 -1.5197 1.4652 0
M  V30 4600 O 411.917 -2.17876 0.688657 0
M  V30 4601 C 412.127 0.0326135 3.48985 0
M  V30 4602 C 413.475 -0.130141 4.24401 0
M  V30 4603 O 414.499 -0.0415142 3.56176 0
M  V30 4604 O 413.358 -0.31491 5.45592 0
M  V30 4605 H 410.452 -0.0831012 0.822814 0
M  V30 4606 H 412.998 0.587227 1.59216 0
M  V30 4607 H 411.77 1.03748 3.77296 0
M  V30 4608 H 411.393 -0.671317 3.91892 0
M  V30 4609 N 412.39 -1.55475 0.257931 0
M  V30 4610 C 413.615 -2.04064 -0.370488 0
M  V30 4611 C 414.04 -1.13565 -1.49948 0
M  V30 4612 O 413.398 -0.130781 -1.80828 0
M  V30 4613 C 413.446 -3.50554 -0.845237 0
M  V30 4614 O 412.55 -3.63173 -1.95394 0
M  V30 4615 H 411.891 -0.659257 -0.0792243 0
M  V30 4616 H 414.421 -2.00903 0.387212 0
M  V30 4617 H 414.431 -3.91588 -1.14555 0
M  V30 4618 H 413.106 -4.15896 -0.0191259 0
M  V30 4619 H 411.683 -3.34039 -1.65748 0
M  V30 4620 N 413.868 0.0150385 -1.57593 0
M  V30 4621 C 415.098 0.713359 -1.93894 0
M  V30 4622 C 415.506 1.68663 -0.857289 0
M  V30 4623 O 414.849 1.82876 0.173788 0
M  V30 4624 C 414.911 1.51348 -3.26089 0
M  V30 4625 C 414.575 0.703451 -4.51554 0
M  V30 4626 C 415.572 -0.00237924 -5.199 0
M  V30 4627 C 413.257 0.653854 -4.98026 0
M  V30 4628 C 415.251 -0.746955 -6.33008 0
M  V30 4629 C 412.938 -0.0944578 -6.11027 0
M  V30 4630 C 413.936 -0.793609 -6.78374 0
M  V30 4631 O 413.624 -1.52974 -7.89211 0
M  V30 4632 H 413.356 0.204637 -0.644282 0
M  V30 4633 H 415.91 -0.0276411 -2.05381 0
M  V30 4634 H 414.14 2.29862 -3.10967 0
M  V30 4635 H 415.829 2.09572 -3.47612 0
M  V30 4636 H 416.595 0.0268803 -4.84993 0
M  V30 4637 H 412.474 1.18756 -4.45441 0
M  V30 4638 H 416.018 -1.2932 -6.85509 0
M  V30 4639 H 411.915 -0.125591 -6.45378 0
M  V30 4640 H 412.683 -1.44488 -8.05646 0
M  V30 4641 N 415.346 1.54954 0.287554 0
M  V30 4642 C 416.293 1.86834 1.35505 0
M  V30 4643 C 417.263 0.718452 1.49758 0
M  V30 4644 O 418.448 0.968358 1.644 0
M  V30 4645 C 415.588 2.13303 2.71286 0
M  V30 4646 C 414.701 3.40883 2.65373 0
M  V30 4647 C 413.836 3.57125 3.93236 0
M  V30 4648 C 412.875 4.78449 3.81776 0
M  V30 4649 N 412.012 4.91426 5.01443 0
M  V30 4650 H 416.852 2.77889 1.07619 0
M  V30 4651 H 414.389 1.37593 0.520241 0
M  V30 4652 H 416.347 2.26646 3.50267 0
M  V30 4653 H 414.977 1.25499 2.97405 0
M  V30 4654 H 414.029 3.36088 1.78182 0
M  V30 4655 H 415.341 4.29993 2.52799 0
M  V30 4656 H 414.495 3.70207 4.80658 0
M  V30 4657 H 413.234 2.66173 4.0866 0
M  V30 4658 H 412.239 4.65386 2.92738 0
M  V30 4659 H 413.464 5.70822 3.67884 0
M  V30 4660 H 411.41 4.03401 5.17304 0
M  V30 4661 H 411.327 5.74559 4.91343 0
M  V30 4662 H 412.595 5.08879 5.90477 0
M  V30 4663 N 416.824 -0.551391 1.4764 0
M  V30 4664 C 418.054 -1.33163 1.57959 0
M  V30 4665 C 418.462 -1.87785 0.23094 0
M  V30 4666 O 417.805 -1.65996 -0.786825 0
M  V30 4667 C 417.867 -2.53449 2.54958 0
M  V30 4668 C 417.531 -2.20071 4.00522 0
M  V30 4669 C 418.528 -1.77017 4.88836 0
M  V30 4670 C 416.213 -2.31252 4.45901 0
M  V30 4671 C 418.207 -1.4558 6.20552 0
M  V30 4672 C 415.894 -1.99427 5.77644 0
M  V30 4673 C 416.892 -1.56659 6.64791 0
M  V30 4674 O 416.58 -1.25242 7.94084 0
M  V30 4675 H 416.312 -0.412022 0.535923 0
M  V30 4676 H 418.866 -0.674186 1.9402 0
M  V30 4677 H 417.096 -3.22104 2.13976 0
M  V30 4678 H 418.785 -3.15523 2.55343 0
M  V30 4679 H 419.551 -1.67867 4.55023 0
M  V30 4680 H 415.43 -2.63498 3.78272 0
M  V30 4681 H 418.974 -1.12125 6.8853 0
M  V30 4682 H 414.871 -2.08211 6.10998 0
M  V30 4683 H 415.639 -1.38822 8.06642 0
M  V30 4684 N 418.302 -1.35869 -0.798587 0
M  V30 4685 C 419.532 -1.32529 -1.58491 0
M  V30 4686 C 419.94 0.0975405 -1.88948 0
M  V30 4687 O 419.283 1.06224 -1.49874 0
M  V30 4688 C 419.345 -2.07247 -2.9375 0
M  V30 4689 C 419.009 -3.56391 -2.86068 0
M  V30 4690 C 420.006 -4.50824 -2.58947 0
M  V30 4691 C 417.691 -3.9915 -3.04933 0
M  V30 4692 C 419.685 -5.85993 -2.5078 0
M  V30 4693 C 417.372 -5.34413 -2.96389 0
M  V30 4694 C 418.37 -6.27646 -2.69349 0
M  V30 4695 O 418.058 -7.60426 -2.60782 0
M  V30 4696 H 417.79 -0.456529 -0.498556 0
M  V30 4697 H 420.344 -1.79425 -0.999799 0
M  V30 4698 H 418.574 -1.55001 -3.54276 0
M  V30 4699 H 420.263 -1.96883 -3.54954 0
M  V30 4700 H 421.029 -4.19104 -2.44084 0
M  V30 4701 H 416.908 -3.26961 -3.24989 0
M  V30 4702 H 420.452 -6.58735 -2.29595 0
M  V30 4703 H 416.349 -5.65743 -3.10813 0
M  V30 4704 H 417.117 -7.70444 -2.76331 0
M  V30 4705 N 419.78 1.02168 -1.19998 0
M  V30 4706 C 420.69 2.14069 -0.959774 0
M  V30 4707 C 421.706 1.73804 0.082655 0
M  V30 4708 O 422.882 2.01133 -0.103633 0
M  V30 4709 C 419.947 3.42936 -0.509459 0
M  V30 4710 C 419.008 3.97474 -1.62213 0
M  V30 4711 C 418.241 5.2019 -1.19321 0
M  V30 4712 O 418.464 5.70369 -0.0597726 0
M  V30 4713 O 417.398 5.67749 -1.99863 0
M  V30 4714 H 421.224 2.37199 -1.89658 0
M  V30 4715 H 418.809 1.12469 -0.983411 0
M  V30 4716 H 420.691 4.20551 -0.267322 0
M  V30 4717 H 419.366 3.21234 0.398821 0
M  V30 4718 H 418.273 3.21161 -1.9185 0
M  V30 4719 H 419.606 4.23555 -2.50723 0
M  V30 4720 N 421.258 1.00505 1.21394 0
M  V30 4721 C 422.483 0.706367 1.95001 0
M  V30 4722 C 422.908 -0.72463 1.73582 0
M  V30 4723 O 422.266 -1.49702 1.0227 0
M  V30 4724 C 422.314 1.03299 3.45487 0
M  V30 4725 O 421.418 0.138275 4.12168 0
M  V30 4726 H 420.759 0.263175 0.609619 0
M  V30 4727 H 423.289 1.34531 1.54151 0
M  V30 4728 H 423.299 0.979872 3.96059 0
M  V30 4729 H 421.974 2.07567 3.60401 0
M  V30 4730 H 420.551 0.247928 3.72075 0
M  V30 4731 N 422.737 -1.36956 0.779787 0
M  V30 4732 C 423.986 -1.98738 0.344405 0
M  V30 4733 C 424.299 -1.62596 -1.08728 0
M  V30 4734 O 425.505 -2.1754 -1.62445 0
M  V30 4735 C 423.961 -3.5544 0.564829 0
M  V30 4736 C 423.569 -4.00514 2.0073 0
M  V30 4737 C 425.313 -4.24059 0.193471 0
M  V30 4738 C 423.22 -5.49957 2.17489 0
M  V30 4739 H 422.15 -0.743561 0.12503 0
M  V30 4740 H 424.801 -1.56381 0.960057 0
M  V30 4741 H 423.183 -3.95817 -0.120397 0
M  V30 4742 H 424.357 -3.71362 2.72814 0
M  V30 4743 H 422.672 -3.44703 2.336 0
M  V30 4744 H 425.269 -5.33874 0.297097 0
M  V30 4745 H 425.612 -4.07378 -0.857263 0
M  V30 4746 H 426.145 -3.89012 0.831556 0
M  V30 4747 H 422.884 -5.71574 3.2091 0
M  V30 4748 H 422.404 -5.80767 1.49899 0
M  V30 4749 H 424.083 -6.16043 1.97738 0
M  V30 4750 N 424.215 -0.530993 -1.48385 0
M  V30 4751 C 425.443 -0.00134122 -2.069 0
M  V30 4752 C 425.858 1.2805 -1.3874 0
M  V30 4753 O 425.215 1.76204 -0.475244 0
M  V30 4754 C 425.266 0.225256 -3.60798 0
M  V30 4755 O 424.987 -1.0058 -4.26398 0
M  V30 4756 C 426.488 0.795172 -4.3611 0
M  V30 4757 H 423.708 -0.0339704 -0.67014 0
M  V30 4758 H 426.252 -0.736926 -1.90761 0
M  V30 4759 H 424.407 0.910891 -3.76539 0
M  V30 4760 H 424.821 -0.787165 -5.1856 0
M  V30 4761 H 426.295 0.903143 -5.44562 0
M  V30 4762 H 426.772 1.80031 -4.00606 0
M  V30 4763 H 427.378 0.146069 -4.25049 0
M  V30 4764 N 425.693 1.55336 -0.266172 0
M  V30 4765 C 426.603 2.2583 0.635458 0
M  V30 4766 C 427.619 1.28106 1.17749 0
M  V30 4767 O 428.795 1.61024 1.20968 0
M  V30 4768 C 425.86 2.95879 1.80712 0
M  V30 4769 C 424.921 4.09059 1.30265 0
M  V30 4770 C 424.154 4.75759 2.41846 0
M  V30 4771 O 424.377 4.41622 3.61007 0
M  V30 4772 O 423.311 5.63888 2.1051 0
M  V30 4773 H 427.137 3.03631 0.0646693 0
M  V30 4774 H 424.722 1.49361 -0.0339177 0
M  V30 4775 H 426.604 3.39932 2.49047 0
M  V30 4776 H 425.279 2.21002 2.36516 0
M  V30 4777 H 424.186 3.69482 0.586019 0
M  V30 4778 H 425.519 4.85811 0.790458 0
M  V30 4779 N 427.171 -0.0066808 1.57599 0
M  V30 4780 C 428.118 -1.00024 2.08 0
M  V30 4781 C 429.088 -1.34549 0.973943 0
M  V30 4782 O 430.273 -1.44502 1.24595 0
M  V30 4783 C 427.413 -2.2891 2.58252 0
M  V30 4784 C 426.526 -2.00346 3.82734 0
M  V30 4785 C 425.661 -3.23265 4.21513 0
M  V30 4786 C 424.7 -2.90357 5.3885 0
M  V30 4787 N 423.837 -4.05793 5.72954 0
M  V30 4788 H 428.677 -0.563499 2.92624 0
M  V30 4789 H 426.214 -0.266592 1.44664 0
M  V30 4790 H 428.172 -3.04247 2.85464 0
M  V30 4791 H 426.802 -2.70265 1.76512 0
M  V30 4792 H 425.854 -1.15406 3.62471 0
M  V30 4793 H 427.166 -1.72086 4.68175 0
M  V30 4794 H 426.32 -4.06953 4.49971 0
M  V30 4795 H 425.059 -3.54657 3.34768 0
M  V30 4796 H 424.064 -2.05075 5.10122 0
M  V30 4797 H 425.289 -2.60219 6.27266 0
M  V30 4798 H 423.235 -4.37094 4.89167 0
M  V30 4799 H 423.152 -3.81034 6.52954 0
M  V30 4800 H 424.42 -4.90289 6.06001 0
M  V30 4801 N 428.649 -1.55105 -0.279332 0
M  V30 4802 C 429.596 -1.8755 -1.34513 0
M  V30 4803 C 430.566 -0.726384 -1.49375 0
M  V30 4804 O 431.751 -0.977063 -1.63884 0
M  V30 4805 C 428.891 -2.14738 -2.70151 0
M  V30 4806 C 428.004 -3.42285 -2.63562 0
M  V30 4807 C 427.139 -3.59206 -3.91337 0
M  V30 4808 C 426.178 -4.80467 -3.79233 0
M  V30 4809 N 425.315 -4.94079 -4.98829 0
M  V30 4810 H 430.155 -2.78456 -1.06143 0
M  V30 4811 H 427.692 -1.37867 -0.512936 0
M  V30 4812 H 429.65 -2.28501 -3.49061 0
M  V30 4813 H 428.28 -1.27075 -2.96735 0
M  V30 4814 H 427.332 -3.37029 -1.76397 0
M  V30 4815 H 428.644 -4.31328 -2.50515 0
M  V30 4816 H 427.798 -3.72751 -4.78687 0
M  V30 4817 H 426.537 -2.68337 -4.07243 0
M  V30 4818 H 425.542 -4.66932 -2.90266 0
M  V30 4819 H 426.767 -5.72765 -3.64852 0
M  V30 4820 H 424.713 -4.06139 -5.15158 0
M  V30 4821 H 424.63 -5.77156 -4.8829 0
M  V30 4822 H 425.898 -5.12003 -5.8777 0
M  V30 4823 N 430.127 0.543554 -1.4793 0
M  V30 4824 C 431.352 1.32995 -1.59145 0
M  V30 4825 C 431.777 1.86472 -0.246956 0
M  V30 4826 O 431.135 1.63696 0.779324 0
M  V30 4827 C 431.183 2.46623 -2.63077 0
M  V30 4828 O 430.287 3.49261 -2.19295 0
M  V30 4829 H 429.628 0.394472 -0.534124 0
M  V30 4830 H 432.158 0.655489 -1.93816 0
M  V30 4831 H 432.168 2.93001 -2.83926 0
M  V30 4832 H 430.843 2.07059 -3.60693 0
M  V30 4833 H 429.42 3.09094 -2.08603 0
M  V30 4834 N 431.605 1.3629 0.791371 0
M  V30 4835 C 432.537 1.26321 1.91248 0
M  V30 4836 C 433.55 0.18313 1.61767 0
M  V30 4837 O 434.739 0.437682 1.73051 0
M  V30 4838 C 431.839 0.925901 3.26007 0
M  V30 4839 C 431.012 2.10746 3.83281 0
M  V30 4840 C 430.071 1.74352 4.96475 0
M  V30 4841 O 429.097 2.46416 5.13096 0
M  V30 4842 N 430.299 0.676058 5.7655 0
M  V30 4843 H 433.064 2.22915 2.00323 0
M  V30 4844 H 430.625 1.29659 0.969546 0
M  V30 4845 H 432.617 0.663636 3.99222 0
M  V30 4846 H 431.187 0.0491581 3.12561 0
M  V30 4847 H 430.407 2.53264 3.02077 0
M  V30 4848 H 431.695 2.8969 4.18279 0
M  V30 4849 H 431.093 0.0776467 5.65647 0
M  V30 4850 H 429.65 0.473612 6.50077 0
M  V30 4851 N 433.083 -1.0153 1.20538 0
M  V30 4852 C 434.031 -2.12215 0.952235 0
M  V30 4853 C 435.025 -1.69123 -0.0968735 0
M  V30 4854 O 436.231 -1.7992 0.0536006 0
M  V30 4855 H 432.606 -0.693576 0.290613 0
M  V30 4856 H 434.577 -2.3075 1.89201 0
M  V30 4857 C 433.326 -3.43755 0.522287 0
M  V30 4858 H 432.649 -3.7734 1.32115 0
M  V30 4859 H 434.089 -4.22254 0.384389 0
M  V30 4860 C 432.548 -3.28088 -0.765489 0
M  V30 4861 O 433.078 -3.57921 -1.8236 0
M  V30 4862 N 431.284 -2.81333 -0.728011 0
M  V30 4863 H 430.831 -2.57255 0.133332 0
M  V30 4864 H 430.789 -2.71232 -1.58999 0
M  V30 4865 N 434.561 -1.01147 -1.20859 0
M  V30 4866 C 435.81 -0.693214 -1.89413 0
M  V30 4867 C 436.123 0.779969 -1.79376 0
M  V30 4868 O 437.329 1.21057 -2.43017 0
M  V30 4869 C 435.785 -1.18949 -3.39675 0
M  V30 4870 C 435.393 -2.68921 -3.58309 0
M  V30 4871 C 437.137 -0.94642 -4.13815 0
M  V30 4872 C 435.044 -3.12056 -5.0237 0
M  V30 4873 H 433.974 -0.255595 -0.709357 0
M  V30 4874 H 436.625 -1.22349 -1.36759 0
M  V30 4875 H 435.007 -0.587228 -3.91622 0
M  V30 4876 H 436.181 -3.34652 -3.16772 0
M  V30 4877 H 434.496 -2.91314 -2.97532 0
M  V30 4878 H 437.093 -1.24417 -5.20023 0
M  V30 4879 H 437.436 0.117219 -4.16135 0
M  V30 4880 H 437.969 -1.5118 -3.67953 0
M  V30 4881 H 434.708 -4.17674 -5.05202 0
M  V30 4882 H 434.228 -2.51041 -5.44737 0
M  V30 4883 H 435.907 -3.04403 -5.70918 0
M  V30 4884 N 436.039 1.36541 -0.78704 0
M  V30 4885 C 437.264 2.0409 -0.369053 0
M  V30 4886 C 437.689 1.58957 1.00569 0
M  V30 4887 O 437.047 0.756926 1.64743 0
M  V30 4888 C 437.095 3.57924 -0.438466 0
M  V30 4889 O 436.199 4.08642 0.555479 0
M  V30 4890 H 435.54 0.645142 -0.157122 0
M  V30 4891 H 438.07 1.74545 -1.06749 0
M  V30 4892 H 438.08 4.06887 -0.301218 0
M  V30 4893 H 436.755 3.90127 -1.44132 0
M  V30 4894 H 435.332 3.70958 0.380088 0
M  V30 4895 N 437.518 0.538854 1.48102 0
M  V30 4896 C 438.748 0.0122958 2.06596 0
M  V30 4897 C 439.156 -1.27861 1.39457 0
M  V30 4898 O 438.499 -1.77348 0.478907 0
M  V30 4899 C 438.561 -0.273131 3.58461 0
M  V30 4900 C 438.225 0.92561 4.47528 0
M  V30 4901 C 439.222 1.82637 4.86765 0
M  V30 4902 C 436.907 1.13511 4.89306 0
M  V30 4903 C 438.901 2.92047 5.66558 0
M  V30 4904 C 436.588 2.23233 5.68868 0
M  V30 4905 C 437.586 3.12333 6.07402 0
M  V30 4906 O 437.274 4.20155 6.85365 0
M  V30 4907 H 437.006 0.0344283 0.675123 0
M  V30 4908 H 439.56 0.746494 1.91355 0
M  V30 4909 H 437.79 -1.06141 3.71848 0
M  V30 4910 H 439.479 -0.742842 3.99045 0
M  V30 4911 H 440.245 1.67649 4.55103 0
M  V30 4912 H 436.124 0.450835 4.5879 0
M  V30 4913 H 439.668 3.6162 5.96554 0
M  V30 4914 H 435.565 2.38201 5.99942 0
M  V30 4915 H 436.333 4.17975 7.03732 0
M  V30 4916 N 438.996 -1.55193 0.274407 0
M  V30 4917 C 440.407 -1.85358 -0.223488 0
M  V30 4918 C 440.758 -1.19642 -1.555 0
M  V30 4919 O 439.883 -0.484498 -2.10907 0
M  V30 4920 C 440.478 -3.36282 -0.412285 0
M  V30 4921 C 439.037 -3.66574 -0.854413 0
M  V30 4922 C 438.184 -2.7725 0.0527056 0
M  V30 4923 H 441.135 -1.50743 0.496215 0
M  V30 4924 H 441.156 -3.59349 -1.25094 0
M  V30 4925 H 440.668 -3.84083 0.556965 0
M  V30 4926 H 438.769 -3.24273 -1.83516 0
M  V30 4927 H 438.882 -4.74073 -0.692226 0
M  V30 4928 H 437.246 -2.50447 -0.463484 0
M  V30 4929 H 438.029 -3.27865 1.01783 0
M  V30 4930 N 440.474 -0.00167713 -1.576 0
M  V30 4931 C 441.723 0.682021 -1.89819 0
M  V30 4932 C 442.036 1.74844 -0.876871 0
M  V30 4933 O 443.242 2.48688 -1.08934 0
M  V30 4934 C 441.698 1.26425 -3.36964 0
M  V30 4935 C 441.306 0.232568 -4.47396 0
M  V30 4936 C 443.05 1.92604 -3.78291 0
M  V30 4937 C 440.957 0.824882 -5.85619 0
M  V30 4938 H 439.887 0.258499 -0.708304 0
M  V30 4939 H 442.538 -0.0624957 -1.83394 0
M  V30 4940 H 440.92 2.05949 -3.38232 0
M  V30 4941 H 442.094 -0.5382 -4.57646 0
M  V30 4942 H 440.409 -0.32888 -4.15099 0
M  V30 4943 H 443.006 2.37827 -4.78897 0
M  V30 4944 H 443.349 2.75732 -3.11894 0
M  V30 4945 H 443.882 1.19812 -3.79328 0
M  V30 4946 H 440.621 0.0323542 -6.55492 0
M  V30 4947 H 440.141 1.56477 -5.79029 0
M  V30 4948 H 441.82 1.32301 -6.33329 0
M  V30 4949 N 441.952 1.55251 0.271103 0
M  V30 4950 C 442.9 1.89054 1.35504 0
M  V30 4951 C 443.894 0.767064 1.51038 0
M  V30 4952 O 445.1 0.951429 1.528 0
M  V30 4953 H 441.475 0.600072 0.45323 0
M  V30 4954 H 443.446 2.79598 1.04247 0
M  V30 4955 C 442.195 2.18068 2.70817 0
M  V30 4956 H 441.518 3.04005 2.59656 0
M  V30 4957 H 442.958 2.4564 3.45597 0
M  V30 4958 C 441.417 0.988901 3.2206 0
M  V30 4959 O 441.947 0.224501 4.01072 0
M  V30 4960 N 440.153 0.786085 2.79766 0
M  V30 4961 H 439.7 1.40937 2.15626 0
M  V30 4962 H 439.658 -0.00969349 3.14399 0
M  V30 4963 N 443.43 -0.535701 1.48216 0
M  V30 4964 C 444.679 -1.28828 1.55197 0
M  V30 4965 C 444.992 -1.94263 0.228278 0
M  V30 4966 O 446.198 -2.70927 0.176278 0
M  V30 4967 C 444.654 -2.33727 2.73678 0
M  V30 4968 C 444.262 -1.74386 4.12666 0
M  V30 4969 C 446.006 -3.1003 2.89968 0
M  V30 4970 C 443.913 -2.77192 5.22416 0
M  V30 4971 H 442.843 -0.484484 0.577747 0
M  V30 4972 H 445.494 -0.56646 1.74538 0
M  V30 4973 H 443.876 -3.08919 2.4776 0
M  V30 4974 H 445.05 -1.05421 4.48579 0
M  V30 4975 H 443.365 -1.10595 4.01445 0
M  V30 4976 H 445.962 -3.86842 3.6913 0
M  V30 4977 H 446.305 -3.65542 1.9921 0
M  V30 4978 H 446.838 -2.41952 3.15759 0
M  V30 4979 H 443.577 -2.26507 6.15122 0
M  V30 4980 H 443.097 -3.44502 4.90998 0
M  V30 4981 H 444.776 -3.40285 5.50286 0
M  V30 4982 N 444.908 -1.36708 -0.784132 0
M  V30 4983 C 445.856 -1.31533 -1.91838 0
M  V30 4984 C 446.85 -0.206205 -1.6814 0
M  V30 4985 O 448.056 -0.373519 -1.76082 0
M  V30 4986 H 444.431 -0.409613 -0.630651 0
M  V30 4987 H 446.402 -2.2731 -1.9332 0
M  V30 4988 C 445.151 -1.12679 -3.28936 0
M  V30 4989 H 444.474 -1.97274 -3.4774 0
M  V30 4990 H 445.914 -1.13106 -4.08636 0
M  V30 4991 C 444.373 0.168281 -3.36479 0
M  V30 4992 O 444.903 1.15625 -3.84699 0
M  V30 4993 N 443.109 0.214762 -2.89805 0
M  V30 4994 H 442.656 -0.589852 -2.50756 0
M  V30 4995 H 442.614 1.08094 -2.95234 0
M  V30 4996 N 446.386 1.0089 -1.21074 0
M  V30 4997 C 447.611 1.78727 -1.05221 0
M  V30 4998 C 448.036 1.83932 0.393795 0
M  V30 4999 O 447.394 1.28004 1.28393 0
M  V30 5000 C 447.442 3.20665 -1.64944 0
M  V30 5001 O 446.546 4.02632 -0.892273 0
M  V30 5002 H 445.887 0.550973 -0.370574 0
M  V30 5003 H 448.417 1.26847 -1.60534 0
M  V30 5004 H 448.427 3.71352 -1.69002 0
M  V30 5005 H 447.102 3.16191 -2.70177 0
M  V30 5006 H 445.679 3.61207 -0.926492 0
M  V30 5007 N 447.864 1.01787 1.20321 0
M  V30 5008 C 449.113 0.703249 1.89043 0
M  V30 5009 C 449.426 -0.770445 1.79787 0
M  V30 5010 O 450.632 -1.19767 2.43656 0
M  V30 5011 C 449.088 1.20749 3.3904 0
M  V30 5012 C 448.696 2.70817 3.56878 0
M  V30 5013 C 450.44 0.968352 4.13308 0
M  V30 5014 C 448.347 3.14716 5.00708 0
M  V30 5015 H 447.277 0.259354 0.707991 0
M  V30 5016 H 449.928 1.23072 1.36108 0
M  V30 5017 H 448.31 0.607989 3.91305 0
M  V30 5018 H 449.484 3.36327 3.14993 0
M  V30 5019 H 447.799 2.92888 2.95983 0
M  V30 5020 H 450.396 1.27173 5.19356 0
M  V30 5021 H 450.739 -0.095149 4.16191 0
M  V30 5022 H 451.272 1.53129 3.67146 0
M  V30 5023 H 448.011 4.20347 5.02979 0
M  V30 5024 H 447.531 2.53927 5.43398 0
M  V30 5025 H 449.21 3.07426 5.69296 0
M  V30 5026 N 449.342 -1.36122 0.79427 0
M  V30 5027 C 450.591 -1.98361 0.365464 0
M  V30 5028 C 450.904 -1.6374 -1.06997 0
M  V30 5029 O 452.11 -2.19251 -1.60129 0
M  V30 5030 C 450.566 -3.54821 0.602496 0
M  V30 5031 C 450.174 -3.98362 2.04967 0
M  V30 5032 C 451.918 -4.2383 0.238437 0
M  V30 5033 C 449.825 -5.47619 2.2331 0
M  V30 5034 H 448.755 -0.742193 0.13291 0
M  V30 5035 H 451.406 -1.55354 0.976589 0
M  V30 5036 H 449.788 -3.95922 -0.078409 0
M  V30 5037 H 450.962 -3.68447 2.76737 0
M  V30 5038 H 449.277 -3.42206 2.37243 0
M  V30 5039 H 451.874 -5.33529 0.353705 0
M  V30 5040 H 452.217 -4.08264 -0.814006 0
M  V30 5041 H 452.75 -3.88108 0.872769 0
M  V30 5042 H 449.489 -5.68138 3.26955 0
M  V30 5043 H 449.009 -5.79145 1.5605 0
M  V30 5044 H 450.688 -6.13911 2.0426 0
M  V30 5045 N 450.82 -0.546701 -1.47814 0
M  V30 5046 C 452.05 -0.0232519 -2.06587 0
M  V30 5047 C 452.458 1.2712 -1.40133 0
M  V30 5048 O 451.801 1.77091 -0.488305 0
M  V30 5049 C 451.863 0.254117 -3.58601 0
M  V30 5050 C 451.527 -0.949331 -4.47031 0
M  V30 5051 C 452.524 -1.85216 -4.85789 0
M  V30 5052 C 450.209 -1.16104 -4.88697 0
M  V30 5053 C 452.203 -2.95047 -5.65001 0
M  V30 5054 C 449.89 -2.26247 -5.67676 0
M  V30 5055 C 450.888 -3.1555 -6.05737 0
M  V30 5056 O 450.576 -4.23784 -6.83127 0
M  V30 5057 H 450.308 -0.0380082 -0.674931 0
M  V30 5058 H 452.862 -0.756631 -1.90956 0
M  V30 5059 H 451.092 1.04168 -3.72406 0
M  V30 5060 H 452.781 0.72167 -3.99433 0
M  V30 5061 H 453.547 -1.70061 -4.54207 0
M  V30 5062 H 449.426 -0.475159 -4.58545 0
M  V30 5063 H 452.97 -3.64778 -5.94628 0
M  V30 5064 H 448.867 -2.41379 -5.98671 0
M  V30 5065 H 449.635 -4.21701 -7.01506 0
M  V30 5066 N 452.299 1.55045 -0.282633 0
M  V30 5067 C 453.209 2.26491 0.61147 0
M  V30 5068 C 454.225 1.29348 1.16384 0
M  V30 5069 O 455.401 1.62298 1.19253 0
M  V30 5070 C 452.466 2.97779 1.77563 0
M  V30 5071 C 451.527 4.10418 1.25919 0
M  V30 5072 C 450.76 4.78297 2.36786 0
M  V30 5073 O 450.983 4.45426 3.56303 0
M  V30 5074 O 449.917 5.66089 2.04517 0
M  V30 5075 H 453.743 3.03683 0.0324615 0
M  V30 5076 H 451.328 1.49317 -0.0497576 0
M  V30 5077 H 453.21 3.42554 2.45427 0
M  V30 5078 H 451.885 2.23498 2.34159 0
M  V30 5079 H 450.792 3.70082 0.546797 0
M  V30 5080 H 452.125 4.86622 0.738887 0
M  V30 5081 N 453.777 0.010035 1.57597 0
M  V30 5082 C 455.002 -0.687021 1.95691 0
M  V30 5083 C 455.427 -1.65952 0.885519 0
M  V30 5084 O 454.785 -1.80633 -0.15543 0
M  V30 5085 C 454.833 -1.3864 3.32884 0
M  V30 5086 O 453.937 -2.50115 3.27897 0
M  V30 5087 H 453.278 -0.181989 0.638573 0
M  V30 5088 H 455.808 0.0662122 2.04493 0
M  V30 5089 H 455.818 -1.74754 3.6868 0
M  V30 5090 H 454.493 -0.673411 4.10412 0
M  V30 5091 H 453.07 -2.16253 3.03791 0
M  V30 5092 N 455.255 -1.55392 -0.262866 0
M  V30 5093 C 456.202 -1.88966 -1.32516 0
M  V30 5094 C 457.172 -0.742187 -1.48596 0
M  V30 5095 O 458.357 -0.99439 -1.62839 0
M  V30 5096 C 455.497 -2.17592 -2.67858 0
M  V30 5097 C 454.61 -3.45061 -2.59917 0
M  V30 5098 C 453.745 -3.63336 -3.87505 0
M  V30 5099 C 452.784 -4.84462 -3.74116 0
M  V30 5100 N 451.921 -4.99342 -4.93561 0
M  V30 5101 H 456.761 -2.79566 -1.03184 0
M  V30 5102 H 454.298 -1.38404 -0.498285 0
M  V30 5103 H 456.256 -2.3219 -3.46617 0
M  V30 5104 H 454.886 -1.30215 -2.95371 0
M  V30 5105 H 453.938 -3.38881 -1.72812 0
M  V30 5106 H 455.25 -4.3396 -2.45926 0
M  V30 5107 H 454.404 -3.77807 -4.74707 0
M  V30 5108 H 453.143 -2.72641 -4.04374 0
M  V30 5109 H 452.148 -4.69985 -2.85297 0
M  V30 5110 H 453.373 -5.76603 -3.58757 0
M  V30 5111 H 451.319 -4.1158 -5.10821 0
M  V30 5112 H 451.236 -5.82303 -4.82141 0
M  V30 5113 H 452.504 -5.18208 -5.82306 0
M  V30 5114 N 456.733 0.527833 -1.48498 0
M  V30 5115 C 457.961 1.30823 -1.6029 0
M  V30 5116 C 458.376 1.86945 -0.263974 0
M  V30 5117 O 457.733 1.6651 0.747034 0
M  V30 5118 C 457.784 2.45756 -2.65116 0
M  V30 5119 O 457.505 1.91946 -3.93813 0
M  V30 5120 C 459.006 3.37543 -2.87367 0
M  V30 5121 H 456.226 0.397763 -0.540394 0
M  V30 5122 H 458.77 0.636529 -1.94341 0
M  V30 5123 H 456.925 3.08806 -2.33917 0
M  V30 5124 H 457.339 2.67195 -4.51339 0
M  V30 5125 H 458.813 4.14532 -3.6451 0
M  V30 5126 H 459.29 3.92905 -1.9627 0
M  V30 5127 H 459.896 2.80283 -3.19878 0
M  V30 5128 N 458.211 1.37122 0.776871 0
M  V30 5129 C 459.121 1.34651 1.9211 0
M  V30 5130 C 460.137 0.246824 1.7224 0
M  V30 5131 O 461.313 0.48134 1.95563 0
M  V30 5132 C 458.378 1.14748 3.2716 0
M  V30 5133 C 457.439 2.34308 3.5972 0
M  V30 5134 C 456.672 2.15345 4.88326 0
M  V30 5135 O 456.895 1.13507 5.58992 0
M  V30 5136 O 455.829 3.03414 5.1983 0
M  V30 5137 H 459.655 2.31013 1.97146 0
M  V30 5138 H 457.24 1.17799 0.918901 0
M  V30 5139 H 459.122 1.05616 4.0795 0
M  V30 5140 H 457.797 0.214562 3.22988 0
M  V30 5141 H 456.704 2.49011 2.79185 0
M  V30 5142 H 458.037 3.26149 3.68629 0
M  V30 5143 N 459.689 -1.00246 1.21608 0
M  V30 5144 C 460.637 -2.11193 0.97469 0
M  V30 5145 C 461.631 -1.69216 -0.0789303 0
M  V30 5146 O 462.837 -1.79853 0.0726806 0
M  V30 5147 H 459.212 -0.690455 0.297953 0
M  V30 5148 H 461.183 -2.2873 1.91638 0
M  V30 5149 C 459.932 -3.43182 0.558717 0
M  V30 5150 H 459.255 -3.75918 1.3611 0
M  V30 5151 H 460.695 -4.21823 0.429154 0
M  V30 5152 C 459.154 -3.28882 -0.730648 0
M  V30 5153 O 459.684 -3.59835 -1.78554 0
M  V30 5154 N 457.89 -2.8209 -0.698131 0
M  V30 5155 H 457.437 -2.57099 0.16061 0
M  V30 5156 H 457.395 -2.72903 -1.56113 0
M  V30 5157 N 461.167 -1.02423 -1.1978 0
M  V30 5158 C 462.395 -0.737456 -1.93311 0
M  V30 5159 C 462.81 0.703023 -1.75223 0
M  V30 5160 O 462.167 1.47761 -1.07112 0
M  V30 5161 C 462.218 -1.0733 -3.45199 0
M  V30 5162 O 461.939 -2.4572 -3.62702 0
M  V30 5163 C 463.44 -0.80866 -4.35862 0
M  V30 5164 H 460.66 -0.2702 -0.614193 0
M  V30 5165 H 463.204 -1.36747 -1.52054 0
M  V30 5166 H 461.359 -0.488545 -3.84307 0
M  V30 5167 H 461.773 -2.58081 -4.56612 0
M  V30 5168 H 463.247 -1.09365 -5.41057 0
M  V30 5169 H 463.724 0.257025 -4.38447 0
M  V30 5170 H 464.33 -1.37592 -4.02428 0
M  V30 5171 N 462.645 1.35699 -0.801477 0
M  V30 5172 C 463.555 2.33661 -0.209691 0
M  V30 5173 C 464.571 1.6162 0.644591 0
M  V30 5174 O 465.747 1.93529 0.557545 0
M  V30 5175 C 462.812 3.40816 0.636033 0
M  V30 5176 C 461.873 4.28639 -0.238147 0
M  V30 5177 C 461.106 5.30676 0.567307 0
M  V30 5178 O 461.329 5.41174 1.8024 0
M  V30 5179 O 460.263 6.01887 -0.0391336 0
M  V30 5180 H 464.089 2.8606 -1.01996 0
M  V30 5181 H 461.674 1.38379 -0.563164 0
M  V30 5182 H 463.556 4.06301 1.11791 0
M  V30 5183 H 462.231 2.90696 1.42399 0
M  V30 5184 H 461.138 3.66152 -0.767044 0
M  V30 5185 H 462.471 4.82143 -0.989915 0
M  V30 5186 N 464.123 0.554532 1.47522 0
M  V30 5187 C 465.348 0.0322661 2.07375 0
M  V30 5188 C 465.773 -1.25079 1.40488 0
M  V30 5189 O 465.131 -1.74859 0.47896 0
M  V30 5190 C 465.179 -0.149397 3.6029 0
M  V30 5191 O 464.283 -1.21259 3.9417 0
M  V30 5192 H 463.624 0.0501228 0.662106 0
M  V30 5193 H 466.154 0.769452 1.8958 0
M  V30 5194 H 466.164 -0.364437 4.06369 0
M  V30 5195 H 464.839 0.787743 4.08372 0
M  V30 5196 H 463.416 -0.97825 3.5984 0
M  V30 5197 N 465.601 -1.54893 0.290851 0
M  V30 5198 C 466.548 -2.23138 -0.58974 0
M  V30 5199 C 467.518 -1.21036 -1.13752 0
M  V30 5200 O 468.703 -1.49626 -1.18392 0
M  V30 5201 C 465.843 -2.96811 -1.76061 0
M  V30 5202 C 464.956 -4.13665 -1.24519 0
M  V30 5203 C 464.091 -4.74944 -2.3791 0
M  V30 5204 C 463.13 -5.83963 -1.83451 0
M  V30 5205 N 462.267 -6.39239 -2.90376 0
M  V30 5206 H 467.107 -2.98 -0.00114915 0
M  V30 5207 H 464.644 -1.47096 0.0112006 0
M  V30 5208 H 466.602 -3.37751 -2.44909 0
M  V30 5209 H 465.232 -2.24344 -2.32098 0
M  V30 5210 H 464.284 -3.77737 -0.449288 0
M  V30 5211 H 465.596 -4.92238 -0.806424 0
M  V30 5212 H 464.75 -5.18684 -3.14724 0
M  V30 5213 H 463.489 -3.95682 -2.85109 0
M  V30 5214 H 462.494 -5.39657 -1.05122 0
M  V30 5215 H 463.719 -6.65103 -1.37169 0
M  V30 5216 H 461.665 -5.62864 -3.36927 0
M  V30 5217 H 461.582 -7.13129 -2.50965 0
M  V30 5218 H 462.85 -6.87637 -3.67118 0
M  V30 5219 N 467.08 -0.0183926 -1.57589 0
M  V30 5220 C 468.31 0.67207 -1.95363 0
M  V30 5221 C 468.718 1.66807 -0.892872 0
M  V30 5222 O 468.061 1.83204 0.134958 0
M  V30 5223 C 468.123 1.44397 -3.29226 0
M  V30 5224 C 467.787 0.607511 -4.52944 0
M  V30 5225 C 468.784 -0.112657 -5.19778 0
M  V30 5226 C 466.469 0.548068 -4.99301 0
M  V30 5227 C 468.463 -0.881057 -6.31281 0
M  V30 5228 C 466.15 -0.224044 -6.10689 0
M  V30 5229 C 467.148 -0.937323 -6.76538 0
M  V30 5230 O 466.836 -1.6968 -7.85789 0
M  V30 5231 H 466.568 0.190925 -0.648478 0
M  V30 5232 H 469.122 -0.0711994 -2.05277 0
M  V30 5233 H 467.352 2.23214 -3.15773 0
M  V30 5234 H 469.041 2.02152 -3.51979 0
M  V30 5235 H 469.807 -0.0759998 -4.8494 0
M  V30 5236 H 465.686 1.09281 -4.4786 0
M  V30 5237 H 469.23 -1.43832 -6.82611 0
M  V30 5238 H 465.127 -0.262457 -6.44966 0
M  V30 5239 H 465.895 -1.61544 -8.024 0
M  V30 5240 N 468.558 1.5553 0.254621 0
M  V30 5241 C 469.783 1.81383 1.00573 0
M  V30 5242 C 470.208 0.594419 1.78461 0
M  V30 5243 O 469.566 -0.456403 1.75461 0
M  V30 5244 C 469.614 3.04892 1.92545 0
M  V30 5245 O 468.718 2.81266 3.01601 0
M  V30 5246 H 468.059 0.598969 0.286587 0
M  V30 5247 H 470.589 2.02703 0.277952 0
M  V30 5248 H 470.599 3.34119 2.34155 0
M  V30 5249 H 469.274 3.93287 1.3527 0
M  V30 5250 H 467.851 2.63185 2.64174 0
M  V30 5251 N 470.036 -0.519951 1.48776 0
M  V30 5252 C 470.966 -1.63253 1.66945 0
M  V30 5253 C 471.947 -1.62014 0.518224 0
M  V30 5254 O 473.132 -1.79053 0.751919 0
M  V30 5255 C 470.262 -3.0181 1.71836 0
M  V30 5256 C 469.216 -3.17911 2.8656 0
M  V30 5257 C 468.542 -4.5763 2.76548 0
M  V30 5258 C 469.842 -2.99729 4.27738 0
M  V30 5259 H 471.536 -1.48302 2.6009 0
M  V30 5260 H 469.082 -0.712026 1.25165 0
M  V30 5261 H 471.035 -3.79525 1.83135 0
M  V30 5262 H 469.759 -3.17806 0.752775 0
M  V30 5263 H 468.418 -2.42616 2.74833 0
M  V30 5264 H 468.066 -4.70476 1.77937 0
M  V30 5265 H 467.766 -4.69346 3.53536 0
M  V30 5266 H 469.29 -5.37431 2.89828 0
M  V30 5267 H 470.704 -3.67228 4.40246 0
M  V30 5268 H 469.101 -3.22932 5.05801 0
M  V30 5269 H 470.171 -1.96047 4.43502 0
M  V30 5270 N 471.514 -1.37532 -0.769588 0
M  V30 5271 C 472.742 -1.36059 -1.55871 0
M  V30 5272 C 473.157 0.053544 -1.88724 0
M  V30 5273 O 472.514 1.01591 -1.5161 0
M  V30 5274 C 472.565 -2.20107 -2.86767 0
M  V30 5275 O 472.286 -3.56009 -2.55321 0
M  V30 5276 C 473.787 -2.26636 -3.80987 0
M  V30 5277 H 471.007 -0.465967 -0.482821 0
M  V30 5278 H 473.551 -1.80901 -0.953686 0
M  V30 5279 H 471.706 -1.78768 -3.43687 0
M  V30 5280 H 472.12 -4.0009 -3.39158 0
M  V30 5281 H 473.594 -2.89763 -4.69831 0
M  V30 5282 H 474.071 -1.2754 -4.20274 0
M  V30 5283 H 474.677 -2.68296 -3.29996 0
M  V30 5284 N 472.992 0.995999 -1.22138 0
M  V30 5285 C 473.939 2.08551 -0.988687 0
M  V30 5286 C 474.909 1.65864 0.0885021 0
M  V30 5287 O 476.094 1.90704 -0.0604589 0
M  V30 5288 C 473.234 3.40374 -0.569191 0
M  V30 5289 C 472.347 3.96421 -1.71681 0
M  V30 5290 C 471.482 5.1639 -1.2456 0
M  V30 5291 C 470.521 5.64567 -2.36497 0
M  V30 5292 N 469.658 6.75777 -1.90445 0
M  V30 5293 H 474.498 2.2779 -1.92135 0
M  V30 5294 H 472.035 1.1168 -0.957388 0
M  V30 5295 H 473.993 4.16068 -0.307166 0
M  V30 5296 H 472.623 3.21145 0.326462 0
M  V30 5297 H 471.675 3.17628 -2.09324 0
M  V30 5298 H 472.987 4.2816 -2.55891 0
M  V30 5299 H 472.141 5.99362 -0.940774 0
M  V30 5300 H 470.88 4.86266 -0.373662 0
M  V30 5301 H 469.885 4.80185 -2.67772 0
M  V30 5302 H 471.11 5.96716 -3.24202 0
M  V30 5303 H 469.056 6.47443 -1.05609 0
M  V30 5304 H 468.973 7.06818 -2.68223 0
M  V30 5305 H 470.241 7.62262 -1.63022 0
M  V30 5306 N 474.47 1.03057 1.19235 0
M  V30 5307 C 475.418 0.606391 2.24557 0
M  V30 5308 C 476.412 -0.361826 1.65491 0
M  V30 5309 O 477.618 -0.23022 1.78522 0
M  V30 5310 H 473.993 0.177838 0.730669 0
M  V30 5311 H 475.964 1.50529 2.5765 0
M  V30 5312 C 474.713 -0.0252127 3.47691 0
M  V30 5313 H 474.036 0.710838 3.9343 0
M  V30 5314 H 475.476 -0.284931 4.23042 0
M  V30 5315 C 473.935 -1.27229 3.11953 0
M  V30 5316 O 474.465 -2.36416 3.24762 0
M  V30 5317 N 472.671 -1.16169 2.6637 0
M  V30 5318 H 472.218 -0.273189 2.56147 0
M  V30 5319 H 472.176 -1.99703 2.42829 0
M  V30 5320 N 475.948 -1.35272 0.808662 0
M  V30 5321 C 477.225 -1.93077 0.313181 0
M  V30 5322 C 477.605 -1.73847 -1.19752 0
M  V30 5323 O 476.953 -1.1087 -1.998 0
M  V30 5324 C 477.163 -3.41347 0.726859 0
M  V30 5325 C 478.511 -4.18493 0.717532 0
M  V30 5326 O 479.535 -3.4987 0.668535 0
M  V30 5327 O 478.394 -5.40937 0.777779 0
M  V30 5328 H 475.488 -0.822885 0.0824018 0
M  V30 5329 H 478.034 -1.44335 0.892499 0
M  V30 5330 H 476.806 -3.49082 1.76797 0
M  V30 5331 H 476.429 -3.97411 0.122461 0
M  V30 5332 N 477.426 -0.562348 -1.47226 0
M  V30 5333 C 478.651 -0.0432632 -2.07355 0
M  V30 5334 C 479.076 1.24332 -1.41149 0
M  V30 5335 O 478.434 1.74603 -0.488226 0
M  V30 5336 C 478.482 0.130288 -3.60365 0
M  V30 5337 O 477.586 1.19166 -3.94808 0
M  V30 5338 H 476.927 -0.0536334 -0.66183 0
M  V30 5339 H 479.457 -0.779495 -1.89169 0
M  V30 5340 H 479.467 0.342881 -4.06557 0
M  V30 5341 H 478.142 -0.809389 -4.07948 0
M  V30 5342 H 476.719 0.959153 -3.60354 0
M  V30 5343 N 478.904 1.54736 -0.299062 0
M  V30 5344 C 479.852 2.24897 0.593658 0
M  V30 5345 C 480.846 1.25429 1.13859 0
M  V30 5346 O 482.052 1.43286 1.08945 0
M  V30 5347 H 478.427 0.72207 0.210046 0
M  V30 5348 H 480.398 2.98393 -0.0206421 0
M  V30 5349 C 479.147 3.00159 1.75499 0
M  V30 5350 H 478.47 3.76501 1.34489 0
M  V30 5351 H 479.91 3.52535 2.35574 0
M  V30 5352 C 478.369 2.07015 2.65794 0
M  V30 5353 O 478.899 1.63692 3.66835 0
M  V30 5354 N 477.105 1.73012 2.33485 0
M  V30 5355 H 476.652 2.08439 1.51364 0
M  V30 5356 H 476.61 1.10965 2.94167 0
M  V30 5357 N 480.382 0.0267497 1.57577 0
M  V30 5358 C 481.607 -0.666227 1.96408 0
M  V30 5359 C 482.032 -1.65004 0.903071 0
M  V30 5360 O 481.39 -1.80787 -0.136263 0
M  V30 5361 C 481.438 -1.35101 3.34335 0
M  V30 5362 O 480.542 -2.46623 3.30531 0
M  V30 5363 H 479.883 -0.175206 0.640468 0
M  V30 5364 H 482.413 0.0878977 2.04411 0
M  V30 5365 H 482.423 -1.70834 3.70513 0
M  V30 5366 H 481.098 -0.629844 4.11103 0
M  V30 5367 H 479.675 -2.13019 3.06068 0
M  V30 5368 N 481.861 -1.55662 -0.24637 0
M  V30 5369 C 483.107 -1.77782 -0.975779 0
M  V30 5370 C 483.44 -0.592103 -1.84953 0
M  V30 5371 O 482.715 0.409588 -1.90138 0
M  V30 5372 C 482.998 -3.09788 -1.83584 0
M  V30 5373 C 482.851 -4.38764 -0.990241 0
M  V30 5374 C 484.17 -3.38029 -2.81823 0
M  V30 5375 H 481.289 -0.646789 -0.353317 0
M  V30 5376 H 483.931 -1.88398 -0.246248 0
M  V30 5377 H 482.081 -3.00869 -2.45784 0
M  V30 5378 H 483.753 -4.59675 -0.386897 0
M  V30 5379 H 481.996 -4.32798 -0.294626 0
M  V30 5380 H 482.667 -5.27514 -1.62584 0
M  V30 5381 H 485.143 -3.46915 -2.2976 0
M  V30 5382 H 484.019 -4.3161 -3.39122 0
M  V30 5383 H 484.28 -2.58968 -3.58313 0
M  V30 5384 N 483.339 0.512053 -1.4905 0
M  V30 5385 C 484.587 1.26436 -1.57665 0
M  V30 5386 C 484.908 1.93255 -0.260293 0
M  V30 5387 O 484.178 1.82206 0.719564 0
M  V30 5388 H 482.758 0.469658 -0.580888 0
M  V30 5389 H 485.42 0.594398 -1.85615 0
M  V30 5390 H 484.516 2.03417 -2.36702 0
M  V30 5391 N 484.817 1.37938 0.762283 0
M  V30 5392 C 486.066 1.32989 1.51647 0
M  V30 5393 C 486.379 -0.0802922 1.95435 0
M  V30 5394 O 487.585 -0.252295 2.70325 0
M  V30 5395 C 486.041 2.33485 2.73885 0
M  V30 5396 C 485.649 3.80079 2.37157 0
M  V30 5397 C 487.393 2.37563 3.51801 0
M  V30 5398 C 485.3 4.72283 3.55954 0
M  V30 5399 H 484.23 0.494301 0.56937 0
M  V30 5400 H 486.881 1.63448 0.834083 0
M  V30 5401 H 485.263 1.96056 3.44061 0
M  V30 5402 H 486.437 4.26398 1.74704 0
M  V30 5403 H 484.752 3.79037 1.72395 0
M  V30 5404 H 487.349 3.0365 4.40114 0
M  V30 5405 H 487.692 1.39199 3.92338 0
M  V30 5406 H 488.225 2.73747 2.8863 0
M  V30 5407 H 484.964 5.7181 3.2049 0
M  V30 5408 H 484.484 4.30663 4.1748 0
M  V30 5409 H 486.163 4.89876 4.22647 0
M  V30 5410 N 486.295 -0.989507 1.22664 0
M  V30 5411 C 487.242 -2.08024 0.999733 0
M  V30 5412 C 488.212 -1.65909 -0.0797047 0
M  V30 5413 O 489.397 -1.90669 0.0705715 0
M  V30 5414 C 486.537 -3.40067 0.587234 0
M  V30 5415 C 485.65 -3.95505 1.73781 0
M  V30 5416 C 484.785 -5.15722 1.27297 0
M  V30 5417 C 483.824 -5.63305 2.39488 0
M  V30 5418 N 482.961 -6.74758 1.94026 0
M  V30 5419 H 487.801 -2.26768 1.9334 0
M  V30 5420 H 485.338 -1.11171 0.963297 0
M  V30 5421 H 487.296 -4.15899 0.329227 0
M  V30 5422 H 485.926 -3.21314 -0.309426 0
M  V30 5423 H 484.978 -3.16513 2.11006 0
M  V30 5424 H 486.29 -4.26797 2.58158 0
M  V30 5425 H 485.444 -5.98854 0.972546 0
M  V30 5426 H 484.183 -4.86061 0.399445 0
M  V30 5427 H 483.188 -4.78759 2.70315 0
M  V30 5428 H 484.413 -5.94988 3.27362 0
M  V30 5429 H 482.359 -6.46874 1.09041 0
M  V30 5430 H 482.276 -7.05386 2.71968 0
M  V30 5431 H 483.544 -7.61387 1.67062 0
M  V30 5432 N 487.773 -1.03688 -1.18687 0
M  V30 5433 C 488.998 -0.757819 -1.93059 0
M  V30 5434 C 489.423 0.678353 -1.75442 0
M  V30 5435 O 488.781 1.46938 -1.06203 0
M  V30 5436 C 488.829 -1.12423 -3.42627 0
M  V30 5437 O 487.933 -0.247505 -4.11657 0
M  V30 5438 H 487.274 -0.279245 -0.602427 0
M  V30 5439 H 489.804 -1.3857 -1.5053 0
M  V30 5440 H 489.814 -1.08454 -3.93322 0
M  V30 5441 H 488.489 -2.17049 -3.54771 0
M  V30 5442 H 487.066 -0.34649 -3.71287 0
M  V30 5443 N 489.251 1.34841 -0.815825 0
M  V30 5444 C 490.476 2.03261 -0.41226 0
M  V30 5445 C 490.901 1.61055 0.971751 0
M  V30 5446 O 490.259 0.7917 1.63101 0
M  V30 5447 C 490.307 3.56914 -0.514289 0
M  V30 5448 O 489.411 4.09728 0.468675 0
M  V30 5449 H 488.752 0.641664 -0.170771 0
M  V30 5450 H 491.282 1.72241 -1.10427 0
M  V30 5451 H 491.292 4.06156 -0.387457 0
M  V30 5452 H 489.967 3.86982 -1.52375 0
M  V30 5453 H 488.544 3.71681 0.301316 0
M  V30 5454 N 490.729 0.570148 1.46925 0
M  V30 5455 C 491.954 0.0542592 2.07329 0
M  V30 5456 C 492.379 -1.23582 1.41806 0
M  V30 5457 O 491.737 -1.74341 0.497479 0
M  V30 5458 C 491.785 -0.111175 3.60429 0
M  V30 5459 O 490.889 -1.17071 3.95434 0
M  V30 5460 H 490.23 0.0571425 0.661537 0
M  V30 5461 H 492.76 0.789516 1.88753 0
M  V30 5462 H 492.77 -0.321315 4.06733 0
M  V30 5463 H 491.445 0.831012 4.07513 0
M  V30 5464 H 490.022 -0.940029 3.60857 0
M  V30 5465 N 492.207 -1.54576 0.307264 0
M  V30 5466 C 493.155 -2.25208 -0.581723 0
M  V30 5467 C 494.149 -1.26031 -1.13192 0
M  V30 5468 O 495.355 -1.43862 -1.08184 0
M  V30 5469 H 491.73 -0.723173 -0.206214 0
M  V30 5470 H 493.701 -2.98378 0.0364663 0
M  V30 5471 C 492.45 -3.01086 -1.73904 0
M  V30 5472 H 491.773 -3.77208 -1.32491 0
M  V30 5473 H 493.213 -3.5378 -2.33701 0
M  V30 5474 C 491.672 -2.08422 -2.64692 0
M  V30 5475 O 492.202 -1.65636 -3.65961 0
M  V30 5476 N 490.408 -1.74247 -2.32564 0
M  V30 5477 H 489.955 -2.09238 -1.50257 0
M  V30 5478 H 489.913 -1.12524 -2.93574 0
M  V30 5479 N 493.685 -0.035106 -1.57561 0
M  V30 5480 C 494.633 0.962707 -2.11742 0
M  V30 5481 C 495.627 1.33296 -1.0454 0
M  V30 5482 O 496.833 1.31449 -1.22968 0
M  V30 5483 H 493.208 0.32826 -0.676572 0
M  V30 5484 H 495.179 0.48048 -2.94506 0
M  V30 5485 C 493.928 2.23388 -2.66445 0
M  V30 5486 H 493.251 1.95774 -3.48587 0
M  V30 5487 H 494.691 2.91402 -3.07995 0
M  V30 5488 C 493.15 2.96769 -1.59467 0
M  V30 5489 O 493.68 3.89105 -0.998 0
M  V30 5490 N 491.886 2.59212 -1.31369 0
M  V30 5491 H 491.433 1.84202 -1.80076 0
M  V30 5492 H 491.391 3.08618 -0.600173 0
M  V30 5493 N 495.163 1.55791 0.238111 0
M  V30 5494 C 496.391 1.82098 0.982233 0
M  V30 5495 C 496.806 0.612025 1.78605 0
M  V30 5496 O 496.163 -0.419381 1.77616 0
M  V30 5497 C 496.214 3.0673 1.91309 0
M  V30 5498 O 495.935 4.2296 1.14179 0
M  V30 5499 C 497.436 3.45903 2.77248 0
M  V30 5500 H 494.656 0.605748 0.288635 0
M  V30 5501 H 497.2 2.02862 0.258341 0
M  V30 5502 H 495.355 2.87991 2.59114 0
M  V30 5503 H 495.769 4.93653 1.7722 0
M  V30 5504 H 497.243 4.36189 3.38295 0
M  V30 5505 H 497.72 2.66891 3.48806 0
M  V30 5506 H 498.326 3.67024 2.14881 0
M  V30 5507 N 496.642 -0.504142 1.49319 0
M  V30 5508 C 497.59 -1.62689 1.66238 0
M  V30 5509 C 498.584 -1.6095 0.528349 0
M  V30 5510 O 499.79 -1.65496 0.707887 0
M  V30 5511 H 496.165 -0.539247 0.524134 0
M  V30 5512 H 498.136 -1.45571 2.60484 0
M  V30 5513 C 496.885 -3.00841 1.74328 0
M  V30 5514 H 496.208 -3.02884 2.60963 0
M  V30 5515 H 497.648 -3.78945 1.90202 0
M  V30 5516 C 496.107 -3.33355 0.487416 0
M  V30 5517 O 496.637 -3.99819 -0.388294 0
M  V30 5518 N 494.843 -2.88469 0.351306 0
M  V30 5519 H 494.39 -2.34557 1.06492 0
M  V30 5520 H 494.348 -3.10591 -0.487899 0
M  V30 5521 N 498.12 -1.38341 -0.754957 0
M  V30 5522 C 499.068 -1.35573 -1.89005 0
M  V30 5523 C 500.062 -0.241824 -1.67665 0
M  V30 5524 O 501.268 -0.410785 -1.7525 0
M  V30 5525 H 497.643 -0.422898 -0.621821 0
M  V30 5526 H 499.614 -2.31359 -1.88455 0
M  V30 5527 C 498.363 -1.19631 -3.26471 0
M  V30 5528 H 497.686 -2.04605 -3.43477 0
M  V30 5529 H 499.126 -1.21748 -4.06144 0
M  V30 5530 C 497.585 0.0968705 -3.36761 0
M  V30 5531 O 498.115 1.07439 -3.87066 0
M  V30 5532 N 496.321 0.153242 -2.90196 0
M  V30 5533 H 495.868 -0.642908 -2.49448 0
M  V30 5534 H 495.826 1.01807 -2.9746 0
M  V30 5535 N 499.598 0.982988 -1.23187 0
M  V30 5536 C 500.531 2.07302 -0.953993 0
M  V30 5537 C 501.509 1.62249 0.106753 0
M  V30 5538 O 502.693 1.88481 -0.0269525 0
M  V30 5539 C 499.82 3.35873 -0.436716 0
M  V30 5540 C 498.866 3.99862 -1.48367 0
M  V30 5541 S 499.699 4.39443 -3.06023 0
M  V30 5542 C 500.855 5.7117 -2.55959 0
M  V30 5543 H 501.088 2.30554 -1.87702 0
M  V30 5544 H 498.621 1.11883 -1.06403 0
M  V30 5545 H 500.579 4.10244 -0.144872 0
M  V30 5546 H 499.24 3.10634 0.465351 0
M  V30 5547 H 498.433 4.92471 -1.07182 0
M  V30 5548 H 498.035 3.31857 -1.72473 0
M  V30 5549 H 500.327 6.47977 -1.97818 0
M  V30 5550 H 501.27 6.17194 -3.47098 0
M  V30 5551 H 501.678 5.29046 -1.96902 0
M  V30 5552 N 501.076 1.04316 1.18135 0
M  V30 5553 C 502.304 0.768117 1.92113 0
M  V30 5554 C 502.719 -0.675057 1.76319 0
M  V30 5555 O 502.076 -1.46038 1.09449 0
M  V30 5556 C 502.127 1.12808 3.43448 0
M  V30 5557 O 501.848 2.5146 3.58747 0
M  V30 5558 C 503.349 0.8779 4.3452 0
M  V30 5559 H 500.569 0.279937 0.609817 0
M  V30 5560 H 503.113 1.39149 1.49859 0
M  V30 5561 H 501.268 0.549623 3.83481 0
M  V30 5562 H 501.682 2.65313 4.52448 0
M  V30 5563 H 503.156 1.17959 5.39249 0
M  V30 5564 H 503.633 -0.187239 4.38801 0
M  V30 5565 H 504.239 1.43977 4.00188 0
M  V30 5566 N 502.554 -1.34406 0.822964 0
M  V30 5567 C 503.779 -2.0304 0.423034 0
M  V30 5568 C 504.204 -1.61568 -0.963196 0
M  V30 5569 O 503.562 -0.800339 -1.62678 0
M  V30 5570 C 503.61 -3.56636 0.53321 0
M  V30 5571 O 502.714 -4.09971 -0.446939 0
M  V30 5572 H 502.055 -0.64075 0.174171 0
M  V30 5573 H 504.585 -1.71653 1.11339 0
M  V30 5574 H 504.595 -4.05945 0.408991 0
M  V30 5575 H 503.27 -3.86168 1.54425 0
M  V30 5576 H 501.847 -3.71835 -0.281601 0
M  V30 5577 N 504.032 -0.577932 -1.46621 0
M  V30 5578 C 504.98 0.170882 -2.31971 0
M  V30 5579 C 505.974 0.889086 -1.44193 0
M  V30 5580 O 507.18 0.808017 -1.60845 0
M  V30 5581 H 503.555 0.0739763 -0.748353 0
M  V30 5582 H 505.526 -0.567856 -2.92947 0
M  V30 5583 C 504.275 1.17438 -3.27267 0
M  V30 5584 H 503.598 0.63116 -3.94787 0
M  V30 5585 H 505.038 1.66882 -3.89778 0
M  V30 5586 C 503.497 2.23292 -2.52274 0
M  V30 5587 O 504.027 3.30567 -2.28229 0
M  V30 5588 N 502.233 1.97772 -2.12919 0
M  V30 5589 H 501.78 1.10545 -2.32675 0
M  V30 5590 H 501.738 2.68809 -1.63062 0
M  V30 5591 N 505.51 1.54411 -0.315457 0
M  V30 5592 C 506.42 2.27737 0.56329 0
M  V30 5593 C 507.436 1.31787 1.13614 0
M  V30 5594 O 508.612 1.64791 1.15784 0
M  V30 5595 C 505.677 3.01478 1.71207 0
M  V30 5596 C 504.738 4.12997 1.17185 0
M  V30 5597 C 503.971 4.83212 2.26588 0
M  V30 5598 O 504.194 4.52884 3.46775 0
M  V30 5599 O 503.128 5.70299 1.92463 0
M  V30 5600 H 506.954 3.03683 -0.0319614 0
M  V30 5601 H 504.539 1.49178 -0.0814188 0
M  V30 5602 H 506.421 3.47683 2.38106 0
M  V30 5603 H 505.096 2.28414 2.29366 0
M  V30 5604 H 504.003 3.71159 0.468174 0
M  V30 5605 H 505.336 4.8808 0.635501 0
M  V30 5606 N 506.988 0.0434614 1.5754 0
M  V30 5607 C 508.237 -0.631454 1.91561 0
M  V30 5608 C 508.55 -1.72457 0.92292 0
M  V30 5609 O 509.756 -2.45712 1.15489 0
M  V30 5610 C 508.212 -1.17447 3.40197 0
M  V30 5611 C 507.82 -0.113867 4.47855 0
M  V30 5612 C 509.564 -1.82507 3.83264 0
M  V30 5613 C 507.471 -0.669326 5.876 0
M  V30 5614 H 506.401 -0.239629 0.714908 0
M  V30 5615 H 509.052 0.111097 1.83163 0
M  V30 5616 H 507.434 -1.96909 3.43574 0
M  V30 5617 H 508.608 0.659348 4.56058 0
M  V30 5618 H 506.923 0.438821 4.14081 0
M  V30 5619 H 509.52 -2.25047 4.85034 0
M  V30 5620 H 509.863 -2.67365 3.19095 0
M  V30 5621 H 510.396 -1.09712 3.82372 0
M  V30 5622 H 507.135 0.141449 6.55347 0
M  V30 5623 H 506.655 -1.4107 5.82974 0
M  V30 5624 H 508.334 -1.15463 6.36614 0
M  V30 5625 N 508.466 -1.55915 -0.229846 0
M  V30 5626 C 509.714 -1.7819 -0.953565 0
M  V30 5627 C 510.035 -0.610504 -1.85197 0
M  V30 5628 O 509.305 0.372988 -1.92316 0
M  V30 5629 H 507.885 -0.657208 -0.355087 0
M  V30 5630 H 510.547 -1.9337 -0.243693 0
M  V30 5631 H 509.643 -2.70011 -1.56527 0
M  V30 5632 N 509.944 0.496216 -1.49584 0
M  V30 5633 C 511.221 1.25755 -1.49816 0
M  V30 5634 C 511.601 2.09859 -0.228572 0
M  V30 5635 O 510.949 2.14449 0.788908 0
M  V30 5636 C 511.159 2.11017 -2.7798 0
M  V30 5637 C 512.507 2.70047 -3.27658 0
M  V30 5638 O 513.531 2.21281 -2.79129 0
M  V30 5639 O 512.39 3.58834 -4.1219 0
M  V30 5640 H 509.484 0.569322 -0.599834 0
M  V30 5641 H 512.03 0.510094 -1.61852 0
M  V30 5642 H 510.802 1.48879 -3.61871 0
M  V30 5643 H 510.425 2.92947 -2.68827 0
M  V30 5644 N 511.423 1.38739 0.74761 0
M  V30 5645 C 512.373 1.32948 1.85226 0
M  V30 5646 C 513.357 0.212642 1.59489 0
M  V30 5647 O 514.549 0.449121 1.71207 0
M  V30 5648 C 511.678 1.16279 3.23008 0
M  V30 5649 C 510.764 2.32611 3.54617 0
M  V30 5650 N 511.155 3.58065 3.57244 0
M  V30 5651 C 509.453 2.25293 3.84914 0
M  V30 5652 C 510.154 4.34919 3.8629 0
M  V30 5653 N 509.13 3.64348 4.03425 0
M  V30 5654 H 512.932 2.27927 1.85544 0
M  V30 5655 H 510.446 1.32056 0.945253 0
M  V30 5656 H 512.443 1.10214 4.02068 0
M  V30 5657 H 511.103 0.222394 3.23937 0
M  V30 5658 H 512.114 3.91656 3.3886 0
M  V30 5659 H 508.791 1.39446 3.93524 0
M  V30 5660 H 510.181 5.43605 3.94896 0
M  V30 5661 N 512.901 -0.976442 1.23707 0
M  V30 5662 C 513.848 -2.06952 1.02174 0
M  V30 5663 C 514.818 -1.65984 -0.0621034 0
M  V30 5664 O 516.003 -1.90584 0.0907906 0
M  V30 5665 C 513.143 -3.39425 0.62327 0
M  V30 5666 C 512.256 -3.9364 1.77966 0
M  V30 5667 C 511.391 -5.14343 1.3276 0
M  V30 5668 C 510.43 -5.60733 2.45449 0
M  V30 5669 N 509.567 -6.72662 2.01172 0
M  V30 5670 H 514.407 -2.24704 1.95734 0
M  V30 5671 H 511.944 -1.10143 0.975034 0
M  V30 5672 H 513.902 -4.15526 0.37332 0
M  V30 5673 H 512.532 -3.21624 -0.275329 0
M  V30 5674 H 511.584 -3.14258 2.14351 0
M  V30 5675 H 512.896 -4.24035 2.62671 0
M  V30 5676 H 512.05 -5.97789 1.03601 0
M  V30 5677 H 510.789 -4.8561 0.450975 0
M  V30 5678 H 509.794 -4.75865 2.75378 0
M  V30 5679 H 511.019 -5.91483 3.33654 0
M  V30 5680 H 508.965 -6.45681 1.15895 0
M  V30 5681 H 508.882 -7.02462 2.79434 0
M  V30 5682 H 510.15 -7.59572 1.75129 0
M  V30 5683 N 514.379 -1.04941 -1.1758 0
M  V30 5684 C 515.628 -0.753124 -1.87112 0
M  V30 5685 C 515.941 0.722507 -1.81767 0
M  V30 5686 O 517.147 1.13265 -2.46746 0
M  V30 5687 C 515.603 -1.29695 -3.35719 0
M  V30 5688 C 515.211 -2.80184 -3.49572 0
M  V30 5689 C 516.955 -1.07759 -4.10595 0
M  V30 5690 C 514.862 -3.2788 -4.92187 0
M  V30 5691 H 513.792 -0.278034 -0.700866 0
M  V30 5692 H 516.443 -1.26637 -1.32798 0
M  V30 5693 H 514.825 -0.711522 -3.89555 0
M  V30 5694 H 515.999 -3.44561 -3.05965 0
M  V30 5695 H 514.314 -3.00632 -2.88113 0
M  V30 5696 H 516.911 -1.40899 -5.15802 0
M  V30 5697 H 517.254 -0.0152302 -4.16297 0
M  V30 5698 H 517.787 -1.62809 -3.62957 0
M  V30 5699 H 514.526 -4.33535 -4.91658 0
M  V30 5700 H 514.046 -2.68245 -5.36475 0
M  V30 5701 H 515.725 -3.22412 -5.60945 0
M  V30 5702 N 515.857 1.33968 -0.830081 0
M  V30 5703 C 516.787 2.31911 -0.271911 0
M  V30 5704 C 517.768 1.58571 0.61556 0
M  V30 5705 O 518.953 1.86514 0.540946 0
M  V30 5706 C 516.083 3.42737 0.561146 0
M  V30 5707 C 515.037 4.27383 -0.229789 0
M  V30 5708 C 514.363 5.29742 0.726463 0
M  V30 5709 C 515.663 5.02 -1.44197 0
M  V30 5710 H 517.357 2.78844 -1.09025 0
M  V30 5711 H 514.903 1.34061 -0.52571 0
M  V30 5712 H 516.856 4.10276 0.961867 0
M  V30 5713 H 515.58 2.94471 1.41261 0
M  V30 5714 H 514.239 3.61456 -0.611964 0
M  V30 5715 H 513.887 4.77736 1.57408 0
M  V30 5716 H 513.587 5.87255 0.20142 0
M  V30 5717 H 515.111 6.00149 1.12489 0
M  V30 5718 H 516.525 5.62355 -1.11488 0
M  V30 5719 H 514.922 5.69122 -1.90317 0
M  V30 5720 H 515.992 4.31281 -2.2164 0
M  V30 5721 N 517.335 0.585699 1.46312 0
M  V30 5722 C 518.267 -0.183687 2.28463 0
M  V30 5723 C 519.28 -0.85264 1.38686 0
M  V30 5724 O 520.469 -0.721701 1.6326 0
M  V30 5725 C 517.569 -1.27977 3.13808 0
M  V30 5726 C 516.742 -0.702164 4.31727 0
M  V30 5727 C 515.801 -1.68633 4.98447 0
M  V30 5728 O 514.827 -1.22121 5.55945 0
M  V30 5729 N 516.029 -3.02047 4.95729 0
M  V30 5730 H 518.794 0.521127 2.95134 0
M  V30 5731 H 516.355 0.423673 1.56258 0
M  V30 5732 H 518.347 -1.9375 3.55307 0
M  V30 5733 H 516.917 -1.8874 2.4919 0
M  V30 5734 H 516.137 0.1331 3.93975 0
M  V30 5735 H 517.425 -0.296101 5.07938 0
M  V30 5736 H 516.823 -3.42457 4.50266 0
M  V30 5737 H 515.38 -3.63301 5.41161 0
M  V30 5738 N 518.813 -1.54241 0.323641 0
M  V30 5739 C 519.723 -2.28033 -0.551205 0
M  V30 5740 C 520.739 -1.32388 -1.12913 0
M  V30 5741 O 521.915 -1.65403 -1.14908 0
M  V30 5742 C 518.98 -3.02382 -1.69606 0
M  V30 5743 C 518.041 -4.13612 -1.14993 0
M  V30 5744 C 517.274 -4.84407 -2.24022 0
M  V30 5745 O 517.497 -4.54716 -3.44368 0
M  V30 5746 O 516.431 -5.71312 -1.89436 0
M  V30 5747 H 520.257 -3.03662 0.048066 0
M  V30 5748 H 517.842 -1.49133 0.0893289 0
M  V30 5749 H 519.724 -3.48941 -2.36259 0
M  V30 5750 H 518.399 -2.29628 -2.28151 0
M  V30 5751 H 517.306 -3.71402 -0.448484 0
M  V30 5752 H 518.639 -4.8841 -0.609608 0
M  V30 5753 N 520.291 -0.0518155 -1.57515 0
M  V30 5754 C 521.516 0.634896 -1.97443 0
M  V30 5755 C 521.941 1.63546 -0.929207 0
M  V30 5756 O 521.299 1.80981 0.107484 0
M  V30 5757 C 521.347 1.29765 -3.36442 0
M  V30 5758 O 520.451 2.41333 -3.34413 0
M  V30 5759 H 519.792 0.164994 -0.643174 0
M  V30 5760 H 522.322 -0.120407 -2.04245 0
M  V30 5761 H 522.332 1.64918 -3.73184 0
M  V30 5762 H 521.007 0.564361 -4.12053 0
M  V30 5763 H 519.584 2.08122 -3.09418 0
M  V30 5764 N 521.769 1.56035 0.221574 0
M  V30 5765 C 522.719 1.8881 1.27807 0
M  V30 5766 C 523.703 0.751177 1.42289 0
M  V30 5767 O 524.895 1.01359 1.45104 0
M  V30 5768 C 522.024 2.20828 2.6285 0
M  V30 5769 C 521.11 3.40912 2.52269 0
M  V30 5770 N 521.501 4.59531 2.1134 0
M  V30 5771 C 519.799 3.44526 2.83228 0
M  V30 5772 C 520.5 5.41689 2.1201 0
M  V30 5773 N 519.476 4.814 2.52497 0
M  V30 5774 H 523.278 2.78036 0.952529 0
M  V30 5775 H 520.792 1.566 0.430134 0
M  V30 5776 H 522.789 2.42483 3.39127 0
M  V30 5777 H 521.449 1.32914 2.9625 0
M  V30 5778 H 522.46 4.8469 1.82472 0
M  V30 5779 H 519.137 2.66956 3.21 0
M  V30 5780 H 520.527 6.46643 1.82491 0
M  V30 5781 N 523.247 -0.488276 1.49845 0
M  V30 5782 C 524.472 -1.26997 1.63971 0
M  V30 5783 C 524.897 -1.85427 0.315994 0
M  V30 5784 O 524.255 -1.66475 -0.718032 0
M  V30 5785 C 524.303 -2.36689 2.72049 0
M  V30 5786 O 523.407 -3.40882 2.32107 0
M  V30 5787 H 522.748 -0.374376 0.548396 0
M  V30 5788 H 525.278 -0.583104 1.96115 0
M  V30 5789 H 525.288 -2.82262 2.94605 0
M  V30 5790 H 523.963 -1.93529 3.68129 0
M  V30 5791 H 522.54 -3.01139 2.19931 0
M  V30 5792 N 524.725 -1.39134 -0.740242 0
M  V30 5793 C 525.672 -1.37434 -1.8542 0
M  V30 5794 C 526.642 -0.234822 -1.64432 0
M  V30 5795 O 527.827 -0.429125 -1.85912 0
M  V30 5796 C 524.967 -1.21844 -3.22875 0
M  V30 5797 C 524.08 -2.45296 -3.55603 0
M  V30 5798 C 523.215 -2.22334 -4.82432 0
M  V30 5799 C 522.254 -3.41488 -5.07988 0
M  V30 5800 N 521.391 -3.17877 -6.26018 0
M  V30 5801 H 526.231 -2.3266 -1.86207 0
M  V30 5802 H 523.768 -1.15578 -0.909946 0
M  V30 5803 H 525.726 -1.10818 -4.02213 0
M  V30 5804 H 524.356 -0.3025 -3.21379 0
M  V30 5805 H 523.408 -2.66945 -2.71006 0
M  V30 5806 H 524.72 -3.34063 -3.7041 0
M  V30 5807 H 523.874 -2.0852 -5.69741 0
M  V30 5808 H 522.613 -1.30954 -4.6979 0
M  V30 5809 H 521.618 -3.55807 -4.19144 0
M  V30 5810 H 522.843 -4.33763 -5.22519 0
M  V30 5811 H 520.789 -2.29156 -6.14673 0
M  V30 5812 H 520.706 -4.00198 -6.41387 0
M  V30 5813 H 521.974 -3.07746 -7.16179 0
M  V30 5814 N 526.204 0.969867 -1.24223 0
M  V30 5815 C 527.152 2.08535 -1.03034 0
M  V30 5816 C 528.146 1.69366 0.0340379 0
M  V30 5817 O 529.352 1.79597 -0.12034 0
M  V30 5818 H 525.727 0.682313 -0.316154 0
M  V30 5819 H 527.698 2.23569 -1.97635 0
M  V30 5820 C 526.447 3.4158 -0.649509 0
M  V30 5821 H 525.77 3.72177 -1.46028 0
M  V30 5822 H 527.21 4.20536 -0.540841 0
M  V30 5823 C 525.669 3.30703 0.643194 0
M  V30 5824 O 526.199 3.64443 1.68951 0
M  V30 5825 N 524.405 2.83841 0.623095 0
M  V30 5826 H 523.952 2.56583 -0.228719 0
M  V30 5827 H 523.91 2.76946 1.48823 0
M  V30 5828 N 527.682 1.05563 1.17022 0
M  V30 5829 C 528.629 0.659893 2.21165 0
M  V30 5830 C 529.599 -0.339813 1.62587 0
M  V30 5831 O 530.784 -0.230378 1.89404 0
M  V30 5832 C 527.924 0.0447297 3.45071 0
M  V30 5833 C 527.037 1.09372 4.17926 0
M  V30 5834 C 526.172 0.445481 5.29329 0
M  V30 5835 C 525.211 1.47852 5.93975 0
M  V30 5836 N 524.348 0.854172 6.96885 0
M  V30 5837 H 529.188 1.55243 2.54369 0
M  V30 5838 H 526.725 0.776336 1.24946 0
M  V30 5839 H 528.683 -0.329404 4.15898 0
M  V30 5840 H 527.313 -0.811244 3.1244 0
M  V30 5841 H 526.365 1.58564 3.45777 0
M  V30 5842 H 527.677 1.87773 4.62107 0
M  V30 5843 H 526.831 0.0179688 6.06697 0
M  V30 5844 H 525.57 -0.370481 4.86291 0
M  V30 5845 H 524.575 1.91601 5.15334 0
M  V30 5846 H 525.8 2.29645 6.39093 0
M  V30 5847 H 523.746 0.0587882 6.55974 0
M  V30 5848 H 523.663 1.57567 7.39397 0
M  V30 5849 H 524.931 0.451559 7.78191 0
M  V30 5850 N 529.16 -1.33526 0.837174 0
M  V30 5851 C 530.107 -2.29248 0.267169 0
M  V30 5852 C 531.077 -1.54252 -0.616071 0
M  V30 5853 O 532.262 -1.82559 -0.554699 0
M  V30 5854 C 529.402 -3.40638 -0.553152 0
M  V30 5855 C 528.515 -4.30548 0.353921 0
M  V30 5856 C 527.65 -5.29051 -0.477339 0
M  V30 5857 C 526.689 -6.106 0.42823 0
M  V30 5858 N 525.826 -7.01152 -0.364801 0
M  V30 5859 H 530.666 -2.77398 1.08877 0
M  V30 5860 H 528.203 -1.36496 0.54838 0
M  V30 5861 H 530.161 -4.03921 -1.04422 0
M  V30 5862 H 528.791 -2.93685 -1.33973 0
M  V30 5863 H 527.843 -3.68001 0.963289 0
M  V30 5864 H 529.155 -4.87631 1.04964 0
M  V30 5865 H 528.309 -5.97853 -1.0323 0
M  V30 5866 H 527.048 -4.72541 -1.2065 0
M  V30 5867 H 526.053 -5.40718 0.995219 0
M  V30 5868 H 527.278 -6.69193 1.15573 0
M  V30 5869 H 525.224 -6.47092 -1.07738 0
M  V30 5870 H 525.141 -7.5551 0.272238 0
M  V30 5871 H 526.409 -7.74263 -0.902054 0
M  V30 5872 N 530.638 -0.59345 -1.46 0
M  V30 5873 C 531.885 -0.0831523 -2.02329 0
M  V30 5874 C 532.213 1.28093 -1.46364 0
M  V30 5875 O 531.468 1.85526 -0.622793 0
M  V30 5876 C 531.767 0.021178 -3.57394 0
M  V30 5877 C 531.433 -1.27671 -4.32448 0
M  V30 5878 C 530.095 -1.63227 -4.5267 0
M  V30 5879 C 532.447 -2.13511 -4.7546 0
M  V30 5880 C 529.775 -2.84401 -5.1316 0
M  V30 5881 C 532.127 -3.33922 -5.37289 0
M  V30 5882 C 530.791 -3.69747 -5.55737 0
M  V30 5883 H 530.061 -0.0304276 -0.740375 0
M  V30 5884 H 532.708 -0.772239 -1.75239 0
M  V30 5885 H 531.013 0.793454 -3.83682 0
M  V30 5886 H 532.71 0.431942 -3.98667 0
M  V30 5887 H 529.3 -0.989937 -4.17011 0
M  V30 5888 H 533.484 -1.87344 -4.59582 0
M  V30 5889 H 528.74 -3.12282 -5.25633 0
M  V30 5890 H 532.914 -4.00698 -5.69574 0
M  V30 5891 H 530.541 -4.6373 -6.02377 0
M  V30 5892 N 532.116 1.54067 -0.331816 0
M  V30 5893 C 533.064 2.26105 0.54582 0
M  V30 5894 C 534.058 1.27816 1.11173 0
M  V30 5895 O 535.264 1.45565 1.05882 0
M  V30 5896 H 531.639 0.726363 0.194683 0
M  V30 5897 H 533.61 2.98282 -0.083931 0
M  V30 5898 C 532.359 3.03814 1.69092 0
M  V30 5899 H 531.682 3.79269 1.26473 0
M  V30 5900 H 533.122 3.57453 2.28043 0
M  V30 5901 C 531.581 2.12606 2.61343 0
M  V30 5902 O 532.111 1.71437 3.6328 0
M  V30 5903 N 530.317 1.77925 2.29763 0
M  V30 5904 H 529.864 2.11602 1.46909 0
M  V30 5905 H 529.822 1.1718 2.91747 0
M  V30 5906 N 533.594 0.0601682 1.57485 0
M  V30 5907 C 534.871 -0.651956 1.84415 0
M  V30 5908 C 535.251 -1.88498 0.950361 0
M  V30 5909 O 534.599 -2.28496 0.0136719 0
M  V30 5910 C 534.809 -1.00069 3.34346 0
M  V30 5911 C 536.157 -1.37915 4.01578 0
M  V30 5912 O 537.181 -1.09277 3.39024 0
M  V30 5913 O 536.04 -1.91399 5.11887 0
M  V30 5914 H 533.134 -0.322668 0.761455 0
M  V30 5915 H 535.68 0.0902159 1.6946 0
M  V30 5916 H 534.452 -0.124463 3.91102 0
M  V30 5917 H 534.075 -1.80001 3.54521 0
M  V30 5918 N 535.072 -1.5615 -0.213296 0
M  V30 5919 C 536.321 -1.78743 -0.93455 0
M  V30 5920 C 536.634 -0.630199 -1.8517 0
M  V30 5921 O 537.84 -0.739966 -2.61222 0
M  V30 5922 C 536.296 -3.16571 -1.71203 0
M  V30 5923 C 535.904 -4.40043 -0.840617 0
M  V30 5924 C 537.648 -3.48485 -2.42401 0
M  V30 5925 C 535.555 -5.68895 -1.61592 0
M  V30 5926 H 534.485 -0.666426 -0.352692 0
M  V30 5927 H 537.136 -1.82532 -0.188227 0
M  V30 5928 H 535.518 -3.06981 -2.50157 0
M  V30 5929 H 536.692 -4.6071 -0.0910326 0
M  V30 5930 H 535.007 -4.15706 -0.240365 0
M  V30 5931 H 537.604 -4.41983 -3.00924 0
M  V30 5932 H 537.947 -2.71371 -3.15695 0
M  V30 5933 H 538.48 -3.59442 -1.7043 0
M  V30 5934 H 535.219 -6.48925 -0.926106 0
M  V30 5935 H 534.739 -5.52275 -2.33991 0
M  V30 5936 H 536.418 -6.09365 -2.17447 0
M  V30 5937 N 536.55 0.480323 -1.50102 0
M  V30 5938 C 537.48 1.58769 -1.71215 0
M  V30 5939 C 538.461 1.60583 -0.560997 0
M  V30 5940 O 539.646 1.76996 -0.799127 0
M  V30 5941 C 536.776 2.97148 -1.79778 0
M  V30 5942 C 535.73 3.10201 -2.94888 0
M  V30 5943 C 535.056 4.50137 -2.88584 0
M  V30 5944 C 536.356 2.88283 -4.35534 0
M  V30 5945 H 538.05 1.41354 -2.6393 0
M  V30 5946 H 535.596 0.678591 -1.27008 0
M  V30 5947 H 537.549 3.74536 -1.93133 0
M  V30 5948 H 536.273 3.15699 -0.836772 0
M  V30 5949 H 534.932 2.35244 -2.81169 0
M  V30 5950 H 534.58 4.65593 -1.90349 0
M  V30 5951 H 534.28 4.59808 -3.65856 0
M  V30 5952 H 535.804 5.29558 -3.03976 0
M  V30 5953 H 537.218 3.55427 -4.49827 0
M  V30 5954 H 535.615 3.09408 -5.14186 0
M  V30 5955 H 536.685 1.84219 -4.48544 0
M  V30 5956 N 538.028 1.39524 0.732853 0
M  V30 5957 C 538.958 1.41153 1.86005 0
M  V30 5958 C 539.939 0.274614 1.67869 0
M  V30 5959 O 541.124 0.480745 1.88155 0
M  V30 5960 C 538.254 1.25638 3.23778 0
M  V30 5961 C 537.208 2.36752 3.56556 0
M  V30 5962 C 536.534 2.06326 4.93289 0
M  V30 5963 C 537.834 3.79069 3.5931 0
M  V30 5964 H 539.528 2.35484 1.84899 0
M  V30 5965 H 537.074 1.13348 0.888162 0
M  V30 5966 H 539.027 1.25398 4.0231 0
M  V30 5967 H 537.751 0.277772 3.25417 0
M  V30 5968 H 536.41 2.36213 2.80355 0
M  V30 5969 H 536.058 1.06897 4.9151 0
M  V30 5970 H 535.758 2.80757 5.16187 0
M  V30 5971 H 537.282 2.07739 5.74175 0
M  V30 5972 H 538.696 3.81526 4.27914 0
M  V30 5973 H 537.093 4.52878 3.93728 0
M  V30 5974 H 538.163 4.09893 2.59068 0
M  V30 5975 N 539.506 -0.963266 1.24736 0
M  V30 5976 C 540.454 -2.07985 1.04139 0
M  V30 5977 C 541.448 -1.69381 -0.0250556 0
M  V30 5978 O 542.654 -1.79531 0.129863 0
M  V30 5979 H 539.029 -0.680627 0.319768 0
M  V30 5980 H 541 -2.22517 1.98818 0
M  V30 5981 C 539.749 -3.4123 0.667615 0
M  V30 5982 H 539.072 -3.71397 1.48 0
M  V30 5983 H 540.512 -4.20244 0.563136 0
M  V30 5984 C 538.971 -3.3104 -0.625647 0
M  V30 5985 O 539.501 -3.65334 -1.67016 0
M  V30 5986 N 537.707 -2.84168 -0.608033 0
M  V30 5987 H 537.254 -2.56458 0.242323 0
M  V30 5988 H 537.212 -2.77732 -1.47352 0
M  V30 5989 N 540.985 -1.06182 -1.16461 0
M  V30 5990 C 541.895 -0.682671 -2.24448 0
M  V30 5991 C 542.911 0.30078 -1.71381 0
M  V30 5992 O 544.087 0.150376 -2.00838 0
M  V30 5993 C 541.152 -0.0737202 -3.46622 0
M  V30 5994 C 540.213 -1.10889 -4.14731 0
M  V30 5995 C 539.446 -0.528908 -5.31073 0
M  V30 5996 O 539.669 0.65868 -5.66584 0
M  V30 5997 O 538.603 -1.26805 -5.88391 0
M  V30 5998 H 542.429 -1.58291 -2.59187 0
M  V30 5999 H 540.014 -0.834013 -1.23954 0
M  V30 6000 H 541.896 0.264192 -4.20571 0
M  V30 6001 H 540.571 0.800015 -3.13658 0
M  V30 6002 H 539.478 -1.49896 -3.42756 0
M  V30 6003 H 540.811 -1.95412 -4.51747 0
M  V30 6004 N 542.463 1.3308 -0.844243 0
M  V30 6005 C 543.411 2.31028 -0.269954 0
M  V30 6006 C 544.405 1.58381 0.600997 0
M  V30 6007 O 545.611 1.73203 0.48996 0
M  V30 6008 H 541.986 0.748866 -0.0685782 0
M  V30 6009 H 543.957 2.76967 -1.11049 0
M  V30 6010 C 542.706 3.43549 0.535676 0
M  V30 6011 H 542.029 3.99604 -0.125202 0
M  V30 6012 H 543.469 4.14267 0.903262 0
M  V30 6013 C 541.928 2.8988 1.71672 0
M  V30 6014 O 542.458 2.86511 2.81557 0
M  V30 6015 N 540.664 2.46416 1.54037 0
M  V30 6016 H 540.211 2.49356 0.64649 0
M  V30 6017 H 540.169 2.1086 2.33207 0
M  V30 6018 N 543.941 0.601185 1.45683 0
M  V30 6019 C 544.888 -0.121396 2.30481 0
M  V30 6020 C 545.858 -0.866232 1.41724 0
M  V30 6021 O 547.043 -0.85324 1.70659 0
M  V30 6022 C 544.183 -1.11704 3.26521 0
M  V30 6023 C 543.296 -0.373741 4.3038 0
M  V30 6024 C 542.431 -1.35854 5.13534 0
M  V30 6025 C 541.47 -0.602689 6.09126 0
M  V30 6026 N 540.607 -1.53645 6.85082 0
M  V30 6027 H 545.447 0.607732 2.91737 0
M  V30 6028 H 542.984 0.311502 1.43764 0
M  V30 6029 H 544.942 -1.70735 3.80664 0
M  V30 6030 H 543.572 -1.81366 2.67032 0
M  V30 6031 H 542.624 0.331962 3.78949 0
M  V30 6032 H 543.936 0.2163 4.98331 0
M  V30 6033 H 543.09 -2.02111 5.72046 0
M  V30 6034 H 541.829 -1.98251 4.45587 0
M  V30 6035 H 540.834 0.0735482 5.49751 0
M  V30 6036 H 542.059 0.0161467 6.79098 0
M  V30 6037 H 540.005 -2.14819 6.1983 0
M  V30 6038 H 539.922 -0.999688 7.49361 0
M  V30 6039 H 541.19 -2.1888 7.48139 0
M  V30 6040 N 545.419 -1.53889 0.339982 0
M  V30 6041 C 546.647 -2.05271 -0.259114 0
M  V30 6042 C 547.062 -1.21517 -1.44496 0
M  V30 6043 O 546.419 -0.24966 -1.80784 0
M  V30 6044 C 546.47 -3.55092 -0.677634 0
M  V30 6045 O 546.191 -4.35667 0.461051 0
M  V30 6046 C 547.692 -4.22631 -1.33782 0
M  V30 6047 H 544.912 -0.669085 -0.0506566 0
M  V30 6048 H 547.456 -1.9852 0.490935 0
M  V30 6049 H 545.611 -3.62077 -1.37763 0
M  V30 6050 H 546.025 -5.24343 0.128144 0
M  V30 6051 H 547.499 -5.28861 -1.58145 0
M  V30 6052 H 547.976 -3.74758 -2.29027 0
M  V30 6053 H 548.582 -4.19829 -0.679957 0
M  V30 6054 N 546.897 -0.0685191 -1.57451 0
M  V30 6055 C 547.827 0.89747 -2.15564 0
M  V30 6056 C 548.808 1.31266 -1.08181 0
M  V30 6057 O 549.993 1.38429 -1.36202 0
M  V30 6058 C 547.123 2.16623 -2.71463 0
M  V30 6059 C 546.077 1.89054 -3.83982 0
M  V30 6060 C 545.403 3.22532 -4.26471 0
M  V30 6061 C 546.703 1.1984 -5.08366 0
M  V30 6062 H 548.397 0.413373 -2.96533 0
M  V30 6063 H 545.943 0.197391 -1.42641 0
M  V30 6064 H 547.896 2.84614 -3.10761 0
M  V30 6065 H 546.62 2.67269 -1.8771 0
M  V30 6066 H 545.279 1.23469 -3.45183 0
M  V30 6067 H 544.927 3.71013 -3.39644 0
M  V30 6068 H 544.627 3.04879 -5.02317 0
M  V30 6069 H 546.151 3.91727 -4.68383 0
M  V30 6070 H 547.565 1.77896 -5.45001 0
M  V30 6071 H 545.962 1.12456 -5.89469 0
M  V30 6072 H 547.032 0.176996 -4.84577 0
M  V30 6073 N 548.375 1.56261 0.205012 0
M  V30 6074 C 549.6 1.84491 0.947512 0
M  V30 6075 C 550.025 0.650894 1.76479 0
M  V30 6076 O 549.383 -0.40035 1.76824 0
M  V30 6077 C 549.431 3.10863 1.82747 0
M  V30 6078 O 548.535 2.90719 2.925 0
M  V30 6079 H 547.876 0.607783 0.267386 0
M  V30 6080 H 550.406 2.03485 0.213323 0
M  V30 6081 H 550.416 3.41399 2.23407 0
M  V30 6082 H 549.091 3.97392 1.2269 0
M  V30 6083 H 547.668 2.71457 2.55667 0
M  V30 6084 N 549.853 -0.472356 1.50355 0
M  V30 6085 C 550.783 -1.57859 1.72055 0
M  V30 6086 C 551.764 -1.60283 0.569505 0
M  V30 6087 O 552.949 -1.7657 0.808503 0
M  V30 6088 C 550.079 -2.96191 1.81351 0
M  V30 6089 C 549.033 -3.08633 2.96529 0
M  V30 6090 C 548.359 -4.486 2.90968 0
M  V30 6091 C 549.659 -2.85969 4.37057 0
M  V30 6092 H 551.353 -1.39953 2.64676 0
M  V30 6093 H 548.899 -0.671846 1.27367 0
M  V30 6094 H 550.852 -3.73507 1.95117 0
M  V30 6095 H 549.576 -3.15251 0.853502 0
M  V30 6096 H 548.235 -2.33749 2.82413 0
M  V30 6097 H 547.883 -4.64577 1.92815 0
M  V30 6098 H 547.583 -4.57861 3.68289 0
M  V30 6099 H 549.107 -5.27938 3.0678 0
M  V30 6100 H 550.521 -3.53036 4.51706 0
M  V30 6101 H 548.918 -3.06677 5.15819 0
M  V30 6102 H 549.988 -1.81838 4.49514 0
M  V30 6103 N 551.331 -1.39911 -0.725443 0
M  V30 6104 C 552.559 -1.40949 -1.51463 0
M  V30 6105 C 552.974 -0.0065242 -1.88799 0
M  V30 6106 O 552.331 0.967163 -1.54765 0
M  V30 6107 C 552.382 -2.29119 -2.79619 0
M  V30 6108 O 552.103 -3.63952 -2.43866 0
M  V30 6109 C 553.604 -2.38642 -3.73584 0
M  V30 6110 H 550.824 -0.481091 -0.467752 0
M  V30 6111 H 553.368 -1.83843 -0.895651 0
M  V30 6112 H 551.523 -1.89612 -3.37826 0
M  V30 6113 H 551.937 -4.10677 -3.26258 0
M  V30 6114 H 553.411 -3.04563 -4.60375 0
M  V30 6115 H 553.888 -1.40846 -4.16004 0
M  V30 6116 H 554.494 -2.78659 -3.21293 0
M  V30 6117 N 552.809 0.956637 -1.25245 0
M  V30 6118 C 553.759 2.03841 -1.02141 0
M  V30 6119 C 554.743 1.60848 0.0410058 0
M  V30 6120 O 555.935 1.76142 -0.174084 0
M  V30 6121 C 553.064 3.37282 -0.639963 0
M  V30 6122 C 552.15 3.86805 -1.73903 0
M  V30 6123 N 552.541 4.09143 -2.97381 0
M  V30 6124 C 550.839 4.15574 -1.61909 0
M  V30 6125 C 551.54 4.49923 -3.68707 0
M  V30 6126 N 550.516 4.55737 -2.96318 0
M  V30 6127 H 554.318 2.19102 -1.95886 0
M  V30 6128 H 551.832 1.1413 -1.15534 0
M  V30 6129 H 553.829 4.14403 -0.455643 0
M  V30 6130 H 552.489 3.23401 0.29018 0
M  V30 6131 H 553.5 3.96275 -3.33447 0
M  V30 6132 H 550.177 4.10566 -0.757764 0
M  V30 6133 H 551.567 4.75526 -4.74684 0
M  V30 6134 N 554.287 1.06798 1.15896 0
M  V30 6135 C 555.512 0.808739 1.90982 0
M  V30 6136 C 555.937 -0.6316 1.77179 0
M  V30 6137 O 555.295 -1.4407 1.10061 0
M  V30 6138 C 555.343 1.21468 3.39526 0
M  V30 6139 O 554.447 0.356562 4.10856 0
M  V30 6140 H 553.788 0.29512 0.594811 0
M  V30 6141 H 556.318 1.42513 1.46804 0
M  V30 6142 H 556.328 1.18844 3.90308 0
M  V30 6143 H 555.003 2.26379 3.48891 0
M  V30 6144 H 553.58 0.444808 3.70238 0
M  V30 6145 N 555.766 -1.3263 0.851289 0
M  V30 6146 C 556.713 -2.28952 0.291469 0
M  V30 6147 C 557.683 -1.54897 -0.599676 0
M  V30 6148 O 558.868 -1.83137 -0.535305 0
M  V30 6149 C 556.008 -3.41206 -0.516992 0
M  V30 6150 C 555.121 -4.30148 0.399566 0
M  V30 6151 C 554.256 -5.29527 -0.4212 0
M  V30 6152 C 553.295 -6.10112 0.492969 0
M  V30 6153 N 552.432 -7.01499 -0.290414 0
M  V30 6154 H 557.272 -2.76228 1.11813 0
M  V30 6155 H 554.809 -1.35907 0.562826 0
M  V30 6156 H 556.767 -4.05005 -1.00132 0
M  V30 6157 H 555.397 -2.9509 -1.30851 0
M  V30 6158 H 554.449 -3.66959 1.00227 0
M  V30 6159 H 555.761 -4.8649 1.1013 0
M  V30 6160 H 554.915 -5.98914 -0.968832 0
M  V30 6161 H 553.654 -4.73794 -1.15632 0
M  V30 6162 H 552.659 -5.39632 1.05251 0
M  V30 6163 H 553.884 -6.6793 1.22664 0
M  V30 6164 H 551.83 -6.48199 -1.00868 0
M  V30 6165 H 551.747 -7.55178 0.352354 0
M  V30 6166 H 553.015 -7.75176 -0.819882 0
M  V30 6167 N 557.244 -0.608902 -1.45362 0
M  V30 6168 C 558.191 0.109172 -2.30542 0
M  V30 6169 C 559.161 0.858704 -1.42181 0
M  V30 6170 O 560.346 0.844178 -1.71109 0
M  V30 6171 C 557.486 1.09971 -3.27109 0
M  V30 6172 C 556.599 0.350911 -4.30572 0
M  V30 6173 C 555.734 1.33129 -5.14247 0
M  V30 6174 C 554.773 0.570377 -6.09437 0
M  V30 6175 N 553.91 1.5001 -6.85887 0
M  V30 6176 H 558.75 -0.623195 -2.91411 0
M  V30 6177 H 556.287 -0.319122 -1.43597 0
M  V30 6178 H 558.245 1.68714 -3.81564 0
M  V30 6179 H 556.875 1.79947 -2.67991 0
M  V30 6180 H 555.927 -0.352054 -3.78767 0
M  V30 6181 H 557.239 -0.242725 -4.98209 0
M  V30 6182 H 556.393 1.99074 -5.73109 0
M  V30 6183 H 555.132 1.95885 -4.46632 0
M  V30 6184 H 554.137 -0.102702 -5.49704 0
M  V30 6185 H 555.362 -0.0521607 -6.7908 0
M  V30 6186 H 553.308 2.11529 -6.2096 0
M  V30 6187 H 553.225 0.959934 -7.49881 0
M  V30 6188 H 554.493 2.14909 -7.49289 0
M  V30 6189 N 558.722 1.53707 -0.348139 0
M  V30 6190 C 559.632 2.28881 0.514857 0
M  V30 6191 C 560.648 1.34168 1.10793 0
M  V30 6192 O 561.824 1.6721 1.12262 0
M  V30 6193 C 558.889 3.05042 1.64774 0
M  V30 6194 C 557.95 4.15389 1.08398 0
M  V30 6195 C 557.183 4.87909 2.16287 0
M  V30 6196 O 557.406 4.60137 3.3709 0
M  V30 6197 O 556.34 5.74254 1.80323 0
M  V30 6198 H 560.166 3.03547 -0.0963699 0
M  V30 6199 H 557.751 1.48972 -0.113043 0
M  V30 6200 H 559.633 3.52656 2.30677 0
M  V30 6201 H 558.308 2.33228 2.24469 0
M  V30 6202 H 557.215 3.72068 0.389341 0
M  V30 6203 H 558.548 4.89318 0.531829 0
M  V30 6204 N 560.2 0.0768682 1.57412 0
M  V30 6205 C 561.477 -0.632359 1.85096 0
M  V30 6206 C 561.857 -1.87479 0.9703 0
M  V30 6207 O 561.205 -2.28469 0.0379062 0
M  V30 6208 C 561.415 -0.965174 3.35388 0
M  V30 6209 C 562.763 -1.33648 4.03018 0
M  V30 6210 O 563.787 -1.05675 3.40164 0
M  V30 6211 O 562.646 -1.85959 5.13889 0
M  V30 6212 H 559.74 -0.314574 0.764835 0
M  V30 6213 H 562.286 0.108184 1.69355 0
M  V30 6214 H 561.058 -0.0829745 3.91212 0
M  V30 6215 H 560.681 -1.76231 3.5641 0
M  V30 6216 N 561.678 -1.56367 -0.196722 0
M  V30 6217 C 562.626 -1.95304 -1.2633 0
M  V30 6218 C 563.62 -0.838252 -1.47206 0
M  V30 6219 O 564.826 -1.02325 -1.48087 0
M  V30 6220 H 561.201 -0.621013 -0.424083 0
M  V30 6221 H 563.172 -2.84254 -0.907879 0
M  V30 6222 C 561.921 -2.3074 -2.60104 0
M  V30 6223 H 561.244 -3.16047 -2.44856 0
M  V30 6224 H 562.684 -2.61849 -3.33484 0
M  V30 6225 C 561.143 -1.14143 -3.16975 0
M  V30 6226 O 561.673 -0.415602 -3.99544 0
M  V30 6227 N 559.879 -0.91867 -2.75697 0
M  V30 6228 H 559.426 -1.51065 -2.08656 0
M  V30 6229 H 559.384 -0.140321 -3.14087 0
M  V30 6230 N 563.156 0.464375 -1.50603 0
M  V30 6231 C 564.405 1.21277 -1.61167 0
M  V30 6232 C 564.718 1.92953 -0.320704 0
M  V30 6233 O 565.924 2.69778 -0.30534 0
M  V30 6234 C 564.38 2.20403 -2.84518 0
M  V30 6235 C 563.988 1.54499 -4.20516 0
M  V30 6236 C 565.732 2.95843 -3.0443 0
M  V30 6237 C 563.639 2.51951 -5.35047 0
M  V30 6238 H 562.569 0.456367 -0.600204 0
M  V30 6239 H 565.22 0.48254 -1.77042 0
M  V30 6240 H 563.602 2.96746 -2.62217 0
M  V30 6241 H 564.776 0.83899 -4.53098 0
M  V30 6242 H 563.091 0.913152 -4.06264 0
M  V30 6243 H 565.688 3.6879 -3.87167 0
M  V30 6244 H 566.031 3.55622 -2.16423 0
M  V30 6245 H 566.564 2.26611 -3.26944 0
M  V30 6246 H 563.303 1.96901 -6.25228 0
M  V30 6247 H 562.823 3.20683 -5.06875 0
M  V30 6248 H 564.502 3.13643 -5.65895 0
M  V30 6249 N 564.634 1.40294 0.718013 0
M  V30 6250 C 565.911 1.2894 1.47084 0
M  V30 6251 C 566.291 -0.0933625 2.10893 0
M  V30 6252 O 565.639 -1.10598 1.99951 0
M  V30 6253 C 565.849 2.4264 2.50852 0
M  V30 6254 C 567.197 2.8276 3.16752 0
M  V30 6255 O 568.221 2.42215 2.61171 0
M  V30 6256 O 567.08 3.528 4.17366 0
M  V30 6257 H 564.174 0.506236 0.653952 0
M  V30 6258 H 566.72 1.52208 0.750394 0
M  V30 6259 H 565.492 3.35009 2.022 0
M  V30 6260 H 565.115 2.21129 3.30435 0
M  V30 6261 N 566.112 -0.949982 1.2575 0
M  V30 6262 C 567.389 -1.6718 1.01539 0
M  V30 6263 C 567.769 -2.06095 -0.456942 0
M  V30 6264 O 567.117 -1.77792 -1.43534 0
M  V30 6265 C 567.327 -2.8906 1.95564 0
M  V30 6266 C 568.675 -3.60909 2.23673 0
M  V30 6267 O 569.699 -2.9915 1.9336 0
M  V30 6268 O 568.558 -4.72127 2.75243 0
M  V30 6269 H 565.652 -0.731697 0.385419 0
M  V30 6270 H 568.198 -1.00249 1.36924 0
M  V30 6271 H 566.97 -2.57128 2.94959 0
M  V30 6272 H 566.593 -3.63719 1.60605 0
M  V30 6273 N 567.59 -1.07411 -1.15328 0
M  V30 6274 C 568.5 -0.706438 -2.23711 0
M  V30 6275 C 569.516 0.282586 -1.7169 0
M  V30 6276 O 570.692 0.129066 -2.00986 0
M  V30 6277 C 567.757 -0.11048 -3.46524 0
M  V30 6278 C 566.818 -1.15282 -4.13532 0
M  V30 6279 C 566.051 -0.585205 -5.30482 0
M  V30 6280 O 566.274 0.598549 -5.67251 0
M  V30 6281 O 565.208 -1.33039 -5.87013 0
M  V30 6282 H 569.034 -1.61031 -2.57493 0
M  V30 6283 H 566.619 -0.847113 -1.23062 0
M  V30 6284 H 568.501 0.21957 -4.20828 0
M  V30 6285 H 567.176 0.766703 -3.14489 0
M  V30 6286 H 566.083 -1.53523 -3.41147 0
M  V30 6287 H 567.416 -2.00192 -4.49649 0
M  V30 6288 N 569.068 1.32177 -0.85831 0
M  V30 6289 C 570.016 2.30729 -0.294442 0
M  V30 6290 C 571.01 1.59009 0.584165 0
M  V30 6291 O 572.216 1.73713 0.471562 0
M  V30 6292 H 568.591 0.748097 -0.0765171 0
M  V30 6293 H 570.562 2.75774 -1.1398 0
M  V30 6294 C 569.311 3.44098 0.499208 0
M  V30 6295 H 568.634 3.99449 -0.167579 0
M  V30 6296 H 570.074 4.15202 0.859273 0
M  V30 6297 C 568.533 2.91684 1.68588 0
M  V30 6298 O 569.063 2.89481 2.78503 0
M  V30 6299 N 567.269 2.48036 1.51415 0
M  V30 6300 H 566.816 2.50027 0.620006 0
M  V30 6301 H 566.774 2.13322 2.30957 0
M  V30 6302 N 570.547 0.616602 1.45037 0
M  V30 6303 C 571.494 -0.0969439 2.30596 0
M  V30 6304 C 572.464 -0.851151 1.42635 0
M  V30 6305 O 573.649 -0.835092 1.71554 0
M  V30 6306 C 570.789 -1.08234 3.27688 0
M  V30 6307 C 569.902 -0.328072 4.30752 0
M  V30 6308 C 569.037 -1.30399 5.14946 0
M  V30 6309 C 568.076 -0.538049 6.09731 0
M  V30 6310 N 567.213 -1.46371 6.86673 0
M  V30 6311 H 572.053 0.63864 2.91076 0
M  V30 6312 H 569.59 0.326733 1.43425 0
M  V30 6313 H 571.548 -1.66688 3.82454 0
M  V30 6314 H 570.178 -1.78523 2.68941 0
M  V30 6315 H 569.23 0.372136 3.78575 0
M  V30 6316 H 570.542 0.269142 4.98073 0
M  V30 6317 H 569.696 -1.96032 5.74157 0
M  V30 6318 H 568.435 -1.93514 4.47665 0
M  V30 6319 H 567.44 0.131852 5.49642 0
M  V30 6320 H 568.665 0.0881732 6.79043 0
M  V30 6321 H 566.611 -2.08233 6.22073 0
M  V30 6322 H 566.528 -0.920152 7.50379 0
M  V30 6323 H 567.796 -2.10932 7.50418 0
M  V30 6324 N 572.025 -1.5352 0.356285 0
M  V30 6325 C 572.973 -2.26945 -0.50978 0
M  V30 6326 C 573.967 -1.29569 -1.09125 0
M  V30 6327 O 575.173 -1.47231 -1.03552 0
M  V30 6328 H 571.548 -0.729368 -0.183102 0
M  V30 6329 H 573.519 -2.98111 0.131374 0
M  V30 6330 C 572.268 -3.06466 -1.64237 0
M  V30 6331 H 571.591 -3.81233 -1.20423 0
M  V30 6332 H 573.031 -3.61035 -2.22327 0
M  V30 6333 C 571.49 -2.16737 -2.57928 0
M  V30 6334 O 572.02 -1.77195 -3.60507 0
M  V30 6335 N 570.226 -1.81558 -2.26903 0
M  V30 6336 H 569.773 -2.13913 -1.43524 0
M  V30 6337 H 569.731 -1.21806 -2.89846 0
M  V30 6338 N 573.503 -0.0852151 -1.57369 0
M  V30 6339 C 574.453 0.88767 -2.10011 0
M  V30 6340 C 575.437 1.25021 -1.01285 0
M  V30 6341 O 576.629 1.22694 -1.27574 0
M  V30 6342 C 573.758 2.15037 -2.67608 0
M  V30 6343 C 572.844 1.81371 -3.83361 0
M  V30 6344 N 573.235 1.18216 -4.91791 0
M  V30 6345 C 571.533 2.11041 -3.92909 0
M  V30 6346 C 572.234 1.02941 -5.72519 0
M  V30 6347 N 571.21 1.54351 -5.21226 0
M  V30 6348 H 575.012 0.395279 -2.9123 0
M  V30 6349 H 572.526 0.11829 -1.61969 0
M  V30 6350 H 574.523 2.85667 -3.03644 0
M  V30 6351 H 573.183 2.64851 -1.8784 0
M  V30 6352 H 574.194 0.850168 -5.10874 0
M  V30 6353 H 570.871 2.63138 -3.24136 0
M  V30 6354 H 572.261 0.536298 -6.69756 0
M  V30 6355 N 574.981 1.5647 0.188427 0
M  V30 6356 C 575.928 1.95073 1.23349 0
M  V30 6357 C 576.898 0.812238 1.44886 0
M  V30 6358 O 578.083 1.07095 1.57909 0
M  V30 6359 C 575.223 2.30124 2.57171 0
M  V30 6360 C 574.336 3.57069 2.43157 0
M  V30 6361 C 573.471 3.81411 3.69729 0
M  V30 6362 C 572.51 5.0176 3.50575 0
M  V30 6363 N 571.647 5.22321 4.69175 0
M  V30 6364 H 576.487 2.84171 0.89728 0
M  V30 6365 H 574.024 1.40623 0.431683 0
M  V30 6366 H 575.982 2.48463 3.35145 0
M  V30 6367 H 574.612 1.44159 2.88822 0
M  V30 6368 H 573.664 3.4674 1.56447 0
M  V30 6369 H 574.976 4.452 2.24942 0
M  V30 6370 H 574.13 4.00026 4.56141 0
M  V30 6371 H 572.869 2.91624 3.90905 0
M  V30 6372 H 571.874 4.83061 2.62549 0
M  V30 6373 H 573.099 5.93063 3.30837 0
M  V30 6374 H 571.045 4.35483 4.90602 0
M  V30 6375 H 570.962 6.04643 4.53809 0
M  V30 6376 H 572.23 5.45401 5.56919 0
M  V30 6377 N 576.459 -0.456382 1.50847 0
M  V30 6378 C 577.407 -1.57318 1.71329 0
M  V30 6379 C 578.401 -1.59187 0.579287 0
M  V30 6380 O 579.607 -1.6316 0.76018 0
M  V30 6381 H 575.982 -0.5223 0.541024 0
M  V30 6382 H 577.953 -1.3721 2.64983 0
M  V30 6383 C 576.702 -2.95142 1.83811 0
M  V30 6384 H 576.025 -2.94428 2.70467 0
M  V30 6385 H 577.465 -3.72702 2.02161 0
M  V30 6386 C 575.924 -3.31636 0.593224 0
M  V30 6387 O 576.454 -4.00852 -0.260898 0
M  V30 6388 N 574.66 -2.87205 0.442902 0
M  V30 6389 H 574.207 -2.31051 1.13901 0
M  V30 6390 H 574.165 -3.11986 -0.38884 0
M  V30 6391 N 577.937 -1.40673 -0.710563 0
M  V30 6392 C 578.869 -1.37256 -1.83558 0
M  V30 6393 C 579.882 -0.277133 -1.60424 0
M  V30 6394 O 581.071 -0.537831 -1.70205 0
M  V30 6395 C 578.171 -1.1144 -3.20054 0
M  V30 6396 C 577.344 -2.32734 -3.70342 0
M  V30 6397 C 576.403 -2.03002 -4.85465 0
M  V30 6398 O 575.429 -2.75912 -4.97857 0
M  V30 6399 N 576.631 -1.01105 -5.71627 0
M  V30 6400 H 579.396 -2.34215 -1.86985 0
M  V30 6401 H 576.957 -1.35091 -0.892301 0
M  V30 6402 H 578.949 -0.895265 -3.94673 0
M  V30 6403 H 577.519 -0.231307 -3.11743 0
M  V30 6404 H 576.739 -2.70446 -2.86798 0
M  V30 6405 H 578.027 -3.13584 -4.00678 0
M  V30 6406 H 577.425 -0.407303 -5.64232 0
M  V30 6407 H 575.982 -0.85182 -6.4621 0
M  V30 6408 N 579.415 0.9433 -1.26252 0
M  V30 6409 C 580.662 1.68925 -1.11672 0
M  V30 6410 C 580.99 1.91499 0.340329 0
M  V30 6411 O 580.245 1.49189 1.26653 0
M  V30 6412 C 580.544 3.07073 -1.82868 0
M  V30 6413 C 580.21 3.04262 -3.32769 0
M  V30 6414 C 578.872 3.03203 -3.7366 0
M  V30 6415 C 581.224 2.96729 -4.28487 0
M  V30 6416 C 578.552 2.92373 -5.0866 0
M  V30 6417 C 580.904 2.87442 -5.63525 0
M  V30 6418 C 579.568 2.84724 -6.03729 0
M  V30 6419 H 578.838 0.618141 -0.408635 0
M  V30 6420 H 581.485 1.10124 -1.56668 0
M  V30 6421 H 579.79 3.69486 -1.30335 0
M  V30 6422 H 581.487 3.63635 -1.69029 0
M  V30 6423 H 578.077 3.05865 -3.00241 0
M  V30 6424 H 582.261 2.96658 -3.97879 0
M  V30 6425 H 577.517 2.88645 -5.38975 0
M  V30 6426 H 581.691 2.80576 -6.37377 0
M  V30 6427 H 579.318 2.76089 -7.08293 0
M  V30 6428 N 580.893 1.08022 1.14757 0
M  V30 6429 C 582.14 0.807509 1.85703 0
M  V30 6430 C 582.468 -0.666617 1.8272 0
M  V30 6431 O 581.723 -1.50562 1.25018 0
M  V30 6432 C 582.022 1.26964 3.34088 0
M  V30 6433 C 581.688 2.7509 3.57262 0
M  V30 6434 C 580.35 3.15547 3.63296 0
M  V30 6435 C 582.702 3.70667 3.66409 0
M  V30 6436 C 580.03 4.50384 3.75994 0
M  V30 6437 C 582.382 5.05274 3.80632 0
M  V30 6438 C 581.046 5.45342 3.84913 0
M  V30 6439 H 580.316 0.295488 0.679535 0
M  V30 6440 H 582.963 1.35245 1.35577 0
M  V30 6441 H 581.268 0.644216 3.86467 0
M  V30 6442 H 582.965 1.03544 3.87401 0
M  V30 6443 H 579.555 2.42775 3.53212 0
M  V30 6444 H 583.739 3.40533 3.61041 0
M  V30 6445 H 578.995 4.80886 3.77569 0
M  V30 6446 H 583.169 5.79201 3.86652 0
M  V30 6447 H 580.796 6.49823 3.94505 0
M  V30 6448 N 582.371 -1.3172 0.865308 0
M  V30 6449 C 583.301 -2.31109 0.333302 0
M  V30 6450 C 584.282 -1.60148 -0.573301 0
M  V30 6451 O 585.467 -1.87882 -0.491305 0
M  V30 6452 C 582.597 -3.44104 -0.470078 0
M  V30 6453 C 581.551 -4.26623 0.343021 0
M  V30 6454 C 580.877 -5.31482 -0.585756 0
M  V30 6455 C 582.177 -4.98001 1.57456 0
M  V30 6456 H 583.871 -2.75855 1.1638 0
M  V30 6457 H 581.417 -1.3262 0.561069 0
M  V30 6458 H 583.37 -4.12682 -0.852752 0
M  V30 6459 H 582.094 -2.98112 -1.33404 0
M  V30 6460 H 580.753 -3.59707 0.707583 0
M  V30 6461 H 580.401 -4.81741 -1.44686 0
M  V30 6462 H 580.101 -5.87582 -0.0456494 0
M  V30 6463 H 581.625 -6.0292 -0.965375 0
M  V30 6464 H 583.039 -5.59201 1.26359 0
M  V30 6465 H 581.436 -5.63876 2.05339 0
M  V30 6466 H 582.506 -4.25253 2.32997 0
M  V30 6467 N 583.85 -0.624285 -1.44708 0
M  V30 6468 C 585.096 -0.126051 -2.02107 0
M  V30 6469 C 585.425 1.2496 -1.49048 0
M  V30 6470 O 584.68 1.84163 -0.662005 0
M  V30 6471 C 584.979 -0.0546353 -3.57358 0
M  V30 6472 C 584.644 -1.36815 -4.29642 0
M  V30 6473 C 583.307 -1.72792 -4.49106 0
M  V30 6474 C 585.659 -2.23549 -4.70824 0
M  V30 6475 C 582.986 -2.95222 -5.07012 0
M  V30 6476 C 585.339 -3.45243 -5.30085 0
M  V30 6477 C 584.003 -3.81452 -5.47769 0
M  V30 6478 H 583.273 -0.0461252 -0.739563 0
M  V30 6479 H 585.92 -0.809236 -1.73562 0
M  V30 6480 H 584.225 0.711891 -3.85278 0
M  V30 6481 H 585.922 0.347282 -3.99493 0
M  V30 6482 H 582.512 -1.07817 -4.14817 0
M  V30 6483 H 586.696 -1.9705 -4.55505 0
M  V30 6484 H 581.952 -3.23361 -5.18891 0
M  V30 6485 H 586.125 -4.12689 -5.60946 0
M  V30 6486 H 583.753 -4.76403 -5.92405 0
M  V30 6487 N 585.328 1.53329 -0.364422 0
M  V30 6488 C 586.276 2.27212 0.497737 0
M  V30 6489 C 587.27 1.30146 1.08437 0
M  V30 6490 O 588.476 1.47778 1.0277 0
M  V30 6491 H 584.851 0.730329 0.179232 0
M  V30 6492 H 586.822 2.98037 -0.147182 0
M  V30 6493 C 585.571 3.07333 1.6261 0
M  V30 6494 H 584.894 3.81866 1.184 0
M  V30 6495 H 586.334 3.62209 2.20409 0
M  V30 6496 C 584.793 2.18102 2.56775 0
M  V30 6497 O 585.323 1.79104 3.59562 0
M  V30 6498 N 583.529 1.82759 2.25937 0
M  V30 6499 H 583.076 2.14671 1.42387 0
M  V30 6500 H 583.034 1.23342 2.89196 0
M  V30 6501 N 586.806 0.0935595 1.57322 0
M  V30 6502 C 588.055 -0.570191 1.93473 0
M  V30 6503 C 588.368 -1.69434 0.977318 0
M  V30 6504 O 589.574 -2.41914 1.23248 0
M  V30 6505 C 588.03 -1.06564 3.43762 0
M  V30 6506 C 587.638 0.0286723 4.47991 0
M  V30 6507 C 589.382 -1.70221 3.88877 0
M  V30 6508 C 587.289 -0.482046 5.89432 0
M  V30 6509 H 586.219 -0.216764 0.72217 0
M  V30 6510 H 588.87 0.169313 1.82717 0
M  V30 6511 H 587.252 -1.85878 3.49664 0
M  V30 6512 H 588.426 0.804106 4.5373 0
M  V30 6513 H 586.741 0.570336 4.12476 0
M  V30 6514 H 589.338 -2.09502 4.91948 0
M  V30 6515 H 589.681 -2.57078 3.27439 0
M  V30 6516 H 590.214 -0.974919 3.85668 0
M  V30 6517 H 586.953 0.349871 6.54566 0
M  V30 6518 H 586.473 -1.22452 5.87167 0
M  V30 6519 H 588.152 -0.951508 6.39965 0
M  V30 6520 N 588.284 -1.56567 -0.180126 0
M  V30 6521 C 589.232 -1.96632 -1.24251 0
M  V30 6522 C 590.226 -0.853818 -1.46309 0
M  V30 6523 O 591.432 -1.0389 -1.46993 0
M  V30 6524 H 587.807 -0.625476 -0.417473 0
M  V30 6525 H 589.778 -2.85201 -0.877679 0
M  V30 6526 C 588.527 -2.33486 -2.57642 0
M  V30 6527 H 587.85 -3.18626 -2.4149 0
M  V30 6528 H 589.29 -2.65371 -3.30688 0
M  V30 6529 C 587.749 -1.17499 -3.15746 0
M  V30 6530 O 588.279 -0.457956 -3.99081 0
M  V30 6531 N 586.485 -0.94786 -2.74707 0
M  V30 6532 H 586.032 -1.53269 -2.07042 0
M  V30 6533 H 585.99 -0.173626 -3.1392 0
M  V30 6534 N 589.762 0.448376 -1.51087 0
M  V30 6535 C 590.709 1.54341 -1.71603 0
M  V30 6536 C 591.679 1.56463 -0.557536 0
M  V30 6537 O 592.864 1.73644 -0.79072 0
M  V30 6538 C 590.004 2.92148 -1.83695 0
M  V30 6539 C 589.117 2.99639 -3.11192 0
M  V30 6540 C 588.252 4.285 -3.13944 0
M  V30 6541 C 587.291 4.29819 -4.35801 0
M  V30 6542 N 586.428 5.50186 -4.36164 0
M  V30 6543 H 591.268 1.36151 -2.65079 0
M  V30 6544 H 588.805 0.661585 -1.31383 0
M  V30 6545 H 590.763 3.72093 -1.88687 0
M  V30 6546 H 589.393 3.0892 -0.936374 0
M  V30 6547 H 588.445 2.12425 -3.15562 0
M  V30 6548 H 589.757 2.96474 -4.01129 0
M  V30 6549 H 588.911 5.16811 -3.17791 0
M  V30 6550 H 587.65 4.34307 -2.21876 0
M  V30 6551 H 586.655 3.39902 -4.32142 0
M  V30 6552 H 587.88 4.25685 -5.29121 0
M  V30 6553 H 585.826 5.56735 -3.46961 0
M  V30 6554 H 585.743 5.48856 -5.19897 0
M  V30 6555 H 587.011 6.40559 -4.44189 0
M  V30 6556 N 591.24 1.41047 0.703093 0
M  V30 6557 C 592.187 1.42302 1.81711 0
M  V30 6558 C 593.157 0.278336 1.63751 0
M  V30 6559 O 594.342 0.478266 1.84709 0
M  V30 6560 C 591.482 1.30362 3.19531 0
M  V30 6561 C 590.595 2.54638 3.48975 0
M  V30 6562 C 589.73 2.35047 4.76368 0
M  V30 6563 C 588.769 3.54837 4.98756 0
M  V30 6564 N 587.906 3.34363 6.1737 0
M  V30 6565 H 592.746 2.37516 1.79973 0
M  V30 6566 H 590.283 1.1795 0.878983 0
M  V30 6567 H 592.241 1.21443 3.99134 0
M  V30 6568 H 590.871 0.387602 3.20464 0
M  V30 6569 H 589.923 2.74037 2.63833 0
M  V30 6570 H 591.235 3.43766 3.61423 0
M  V30 6571 H 590.389 2.23552 5.64012 0
M  V30 6572 H 589.128 1.43363 4.66153 0
M  V30 6573 H 588.133 3.66795 4.09563 0
M  V30 6574 H 589.358 4.47464 5.10835 0
M  V30 6575 H 587.304 2.45373 6.08382 0
M  V30 6576 H 587.221 4.17063 6.30551 0
M  V30 6577 H 588.489 3.26626 7.07768 0
M  V30 6578 N 592.718 -0.936591 1.26751 0
M  V30 6579 C 593.666 -2.0573 1.08527 0
M  V30 6580 C 594.66 -1.69397 0.0108784 0
M  V30 6581 O 595.866 -1.79215 0.167915 0
M  V30 6582 H 592.241 -0.673691 0.334133 0
M  V30 6583 H 594.212 -2.1825 2.03493 0
M  V30 6584 C 592.961 -3.39738 0.739845 0
M  V30 6585 H 592.284 -3.68174 1.55845 0
M  V30 6586 H 593.724 -4.18955 0.652149 0
M  V30 6587 C 592.183 -3.32292 -0.555288 0
M  V30 6588 O 592.713 -3.68794 -1.59229 0
M  V30 6589 N 590.919 -2.85394 -0.54762 0
M  V30 6590 H 590.466 -2.55886 0.296667 0
M  V30 6591 H 590.424 -2.80795 -1.41427 0
M  V30 6592 N 594.196 -1.08629 -1.14182 0
M  V30 6593 C 595.126 -0.740003 -2.21464 0
M  V30 6594 C 596.107 0.278591 -1.67803 0
M  V30 6595 O 597.292 0.148461 -1.93632 0
M  V30 6596 C 594.422 -0.150952 -3.46972 0
M  V30 6597 C 593.376 -1.09815 -4.13672 0
M  V30 6598 C 592.702 -0.3712 -5.3341 0
M  V30 6599 C 594.002 -2.43722 -4.61949 0
M  V30 6600 H 595.696 -1.63697 -2.50686 0
M  V30 6601 H 593.242 -0.788526 -1.20492 0
M  V30 6602 H 595.195 0.103325 -4.21273 0
M  V30 6603 H 593.919 0.781164 -3.1712 0
M  V30 6604 H 592.578 -1.33756 -3.41328 0
M  V30 6605 H 592.226 0.564792 -4.99819 0
M  V30 6606 H 591.926 -1.00267 -5.78982 0
M  V30 6607 H 593.45 -0.12503 -6.10472 0
M  V30 6608 H 594.864 -2.24034 -5.27714 0
M  V30 6609 H 593.261 -3.02582 -5.18232 0
M  V30 6610 H 594.331 -3.05082 -3.76899 0
M  V30 6611 N 595.674 1.31259 -0.872281 0
M  V30 6612 C 596.923 1.95893 -0.480493 0
M  V30 6613 C 597.236 1.697 0.972688 0
M  V30 6614 O 598.442 2.28214 1.47073 0
M  V30 6615 C 596.898 3.50705 -0.808342 0
M  V30 6616 C 596.506 3.85735 -2.27844 0
M  V30 6617 C 598.25 4.21719 -0.485136 0
M  V30 6618 C 596.157 5.33668 -2.54858 0
M  V30 6619 H 595.087 0.733182 -0.175955 0
M  V30 6620 H 597.738 1.49396 -1.0655 0
M  V30 6621 H 596.12 3.95706 -0.152558 0
M  V30 6622 H 597.294 3.51686 -2.97748 0
M  V30 6623 H 595.609 3.27792 -2.56791 0
M  V30 6624 H 598.206 5.30559 -0.664166 0
M  V30 6625 H 598.549 4.12316 0.574592 0
M  V30 6626 H 599.082 3.82359 -1.09756 0
M  V30 6627 H 595.821 5.48109 -3.59523 0
M  V30 6628 H 595.341 5.69061 -1.8955 0
M  V30 6629 H 597.02 6.00958 -2.39706 0
M  V30 6630 N 597.152 0.631951 1.44375 0
M  V30 6631 C 598.099 -0.0724807 2.30686 0
M  V30 6632 C 599.069 -0.835975 1.43529 0
M  V30 6633 O 600.254 -0.816849 1.7243 0
M  V30 6634 C 597.394 -1.04753 3.28817 0
M  V30 6635 C 596.507 -0.282367 4.31076 0
M  V30 6636 C 595.642 -1.2493 5.163 0
M  V30 6637 C 594.681 -0.473349 6.10267 0
M  V30 6638 N 593.818 -1.39079 6.88187 0
M  V30 6639 H 598.658 0.669477 2.90383 0
M  V30 6640 H 596.195 0.341927 1.43071 0
M  V30 6641 H 598.153 -1.62623 3.842 0
M  V30 6642 H 596.783 -1.75661 2.70819 0
M  V30 6643 H 595.835 0.412268 3.78159 0
M  V30 6644 H 597.147 0.321955 4.9776 0
M  V30 6645 H 596.301 -1.89931 5.76204 0
M  V30 6646 H 595.04 -1.88755 4.49692 0
M  V30 6647 H 594.045 0.190142 5.49471 0
M  V30 6648 H 595.27 0.16019 6.78911 0
M  V30 6649 H 593.216 -2.01623 6.24247 0
M  V30 6650 H 593.133 -0.840513 7.51313 0
M  V30 6651 H 594.401 -2.02961 7.52613 0
M  V30 6652 N 598.631 -1.53133 0.372548 0
M  V30 6653 C 599.563 -2.23557 -0.505444 0
M  V30 6654 C 600.576 -1.25211 -1.04049 0
M  V30 6655 O 601.765 -1.51391 -0.945675 0
M  V30 6656 C 598.865 -2.92516 -1.71136 0
M  V30 6657 C 598.038 -4.17428 -1.30661 0
M  V30 6658 C 597.097 -4.69535 -2.37536 0
M  V30 6659 O 596.123 -5.33042 -1.99637 0
M  V30 6660 N 597.325 -4.47947 -3.6922 0
M  V30 6661 H 600.09 -2.9954 0.0978259 0
M  V30 6662 H 597.651 -1.60684 0.198068 0
M  V30 6663 H 599.643 -3.24281 -2.42124 0
M  V30 6664 H 598.213 -2.19944 -2.22134 0
M  V30 6665 H 597.433 -3.91888 -0.426292 0
M  V30 6666 H 598.721 -4.98622 -1.01259 0
M  V30 6667 H 598.119 -3.97219 -4.02783 0
M  V30 6668 H 596.676 -4.84245 -4.36292 0
M  V30 6669 N 600.109 -0.101901 -1.5727 0
M  V30 6670 C 601.072 0.840129 -2.13247 0
M  V30 6671 C 602.072 1.20625 -1.06331 0
M  V30 6672 O 603.262 1.13456 -1.32186 0
M  V30 6673 C 600.394 2.13372 -2.65867 0
M  V30 6674 H 601.587 0.353945 -2.97804 0
M  V30 6675 H 599.14 0.147167 -1.55606 0
M  V30 6676 H 599.875 2.66461 -1.84849 0
M  V30 6677 H 599.66 1.88085 -3.44044 0
M  V30 6678 H 601.15 2.80748 -3.09145 0
M  V30 6679 N 601.587 1.56661 0.17182 0
M  V30 6680 C 602.534 1.96371 1.21273 0
M  V30 6681 C 603.504 0.82756 1.44016 0
M  V30 6682 O 604.689 1.08764 1.56764 0
M  V30 6683 C 601.829 2.32838 2.54716 0
M  V30 6684 C 600.942 3.59628 2.39356 0
M  V30 6685 C 600.077 3.85311 3.65662 0
M  V30 6686 C 599.116 5.0545 3.45234 0
M  V30 6687 N 598.253 5.27268 4.63608 0
M  V30 6688 H 603.093 2.85106 0.86709 0
M  V30 6689 H 600.63 1.41073 0.416744 0
M  V30 6690 H 602.588 2.52004 3.3249 0
M  V30 6691 H 601.218 1.47214 2.87277 0
M  V30 6692 H 600.27 3.4838 1.52761 0
M  V30 6693 H 601.582 4.4756 2.20207 0
M  V30 6694 H 600.736 4.04841 4.51872 0
M  V30 6695 H 599.475 2.95753 3.8779 0
M  V30 6696 H 598.48 4.85819 2.5741 0
M  V30 6697 H 599.705 5.96538 3.24529 0
M  V30 6698 H 597.651 4.40662 4.85956 0
M  V30 6699 H 597.568 6.09422 4.4737 0
M  V30 6700 H 598.836 5.51277 5.51103 0
M  V30 6701 N 603.065 -0.440357 1.51323 0
M  V30 6702 C 604.314 -1.18697 1.63076 0
M  V30 6703 C 604.627 -1.92418 0.35136 0
M  V30 6704 O 605.833 -2.69258 0.348221 0
M  V30 6705 C 604.289 -2.15849 2.87988 0
M  V30 6706 C 603.897 -1.47789 4.22921 0
M  V30 6707 C 605.641 -2.90962 3.09098 0
M  V30 6708 C 603.548 -2.43407 5.38987 0
M  V30 6709 H 602.478 -0.44676 0.607389 0
M  V30 6710 H 605.129 -0.454313 1.77787 0
M  V30 6711 H 603.511 -2.92537 2.66905 0
M  V30 6712 H 604.685 -0.7668 4.54375 0
M  V30 6713 H 603 -0.848404 4.07665 0
M  V30 6714 H 605.597 -3.62584 3.92985 0
M  V30 6715 H 605.94 -3.52133 2.22053 0
M  V30 6716 H 606.473 -2.21381 3.30507 0
M  V30 6717 H 603.212 -1.86929 6.28282 0
M  V30 6718 H 602.732 -3.12579 5.11913 0
M  V30 6719 H 604.411 -3.046 5.70813 0
M  V30 6720 N 604.543 -1.41418 -0.695603 0
M  V30 6721 C 605.49 -1.43264 -1.80954 0
M  V30 6722 C 606.46 -0.287016 -1.63601 0
M  V30 6723 O 607.645 -0.488054 -1.84452 0
M  V30 6724 C 604.785 -1.32054 -3.18835 0
M  V30 6725 C 603.898 -2.56485 -3.4762 0
M  V30 6726 C 603.033 -2.3757 -4.75115 0
M  V30 6727 C 602.072 -3.57477 -4.96867 0
M  V30 6728 N 601.209 -3.37632 -6.15588 0
M  V30 6729 H 606.049 -2.38467 -1.78711 0
M  V30 6730 H 603.586 -1.18415 -0.872715 0
M  V30 6731 H 605.544 -1.23558 -3.98484 0
M  V30 6732 H 604.174 -0.404592 -3.20254 0
M  V30 6733 H 603.226 -2.75432 -2.62376 0
M  V30 6734 H 604.538 -3.45678 -3.59594 0
M  V30 6735 H 603.692 -2.2654 -5.62818 0
M  V30 6736 H 602.431 -1.45834 -4.65386 0
M  V30 6737 H 601.436 -3.68961 -4.07612 0
M  V30 6738 H 602.661 -4.50167 -5.08455 0
M  V30 6739 H 600.607 -2.48596 -6.07072 0
M  V30 6740 H 600.524 -4.20401 -6.2833 0
M  V30 6741 H 601.792 -3.30375 -7.06026 0
M  V30 6742 N 606.021 0.929856 -1.27246 0
M  V30 6743 C 606.984 2.01172 -1.09829 0
M  V30 6744 C 607.984 1.60743 -0.0429687 0
M  V30 6745 O 609.174 1.71813 -0.287373 0
M  V30 6746 C 606.306 3.34191 -0.673003 0
M  V30 6747 H 607.499 2.18054 -2.05895 0
M  V30 6748 H 605.052 1.11036 -1.10003 0
M  V30 6749 H 605.787 3.23009 0.289134 0
M  V30 6750 H 605.572 3.64892 -1.43515 0
M  V30 6751 H 607.062 4.13646 -0.573323 0
M  V30 6752 N 607.499 1.09233 1.13605 0
M  V30 6753 C 608.746 0.827159 1.84836 0
M  V30 6754 C 609.074 -0.647199 1.83416 0
M  V30 6755 O 608.329 -1.49228 1.26608 0
M  V30 6756 C 608.628 1.305 3.32723 0
M  V30 6757 C 608.294 2.78864 3.54325 0
M  V30 6758 C 606.956 3.19382 3.59928 0
M  V30 6759 C 609.308 3.74532 3.62457 0
M  V30 6760 C 606.636 4.54346 3.71196 0
M  V30 6761 C 608.988 5.09283 3.75252 0
M  V30 6762 C 607.652 5.49394 3.79108 0
M  V30 6763 H 606.922 0.302679 0.676363 0
M  V30 6764 H 609.569 1.36676 1.34134 0
M  V30 6765 H 607.874 0.68517 3.85762 0
M  V30 6766 H 609.571 1.07648 3.86281 0
M  V30 6767 H 606.161 2.46507 3.50617 0
M  V30 6768 H 610.345 3.44343 3.57409 0
M  V30 6769 H 605.601 4.84864 3.72447 0
M  V30 6770 H 609.775 5.83269 3.80487 0
M  V30 6771 H 607.402 6.5397 3.87591 0
M  V30 6772 N 608.977 -1.30795 0.87923 0
M  V30 6773 C 609.907 -2.30742 0.357796 0
M  V30 6774 C 610.888 -1.60747 -0.556283 0
M  V30 6775 O 612.073 -1.88393 -0.47135 0
M  V30 6776 C 609.203 -3.44583 -0.433555 0
M  V30 6777 C 608.157 -4.26235 0.388251 0
M  V30 6778 C 607.483 -5.32073 -0.529352 0
M  V30 6779 C 608.783 -4.96303 1.62729 0
M  V30 6780 H 610.477 -2.74605 1.19299 0
M  V30 6781 H 608.023 -1.32017 0.575104 0
M  V30 6782 H 609.976 -4.13563 -0.808934 0
M  V30 6783 H 608.7 -2.99511 -1.30234 0
M  V30 6784 H 607.359 -3.58936 0.745695 0
M  V30 6785 H 607.007 -4.83249 -1.39569 0
M  V30 6786 H 606.707 -5.87598 0.0166741 0
M  V30 6787 H 608.231 -6.0391 -0.901373 0
M  V30 6788 H 609.645 -5.5783 1.32283 0
M  V30 6789 H 608.042 -5.61666 2.11309 0
M  V30 6790 H 609.112 -4.22758 2.37494 0
M  V30 6791 N 610.455 -0.639598 -1.44038 0
M  V30 6792 C 611.685 -0.154586 -2.06021 0
M  V30 6793 C 612.093 1.17951 -1.47933 0
M  V30 6794 O 611.436 1.73627 -0.59994 0
M  V30 6795 C 611.498 0.0255459 -3.59491 0
M  V30 6796 C 611.162 -1.2317 -4.40089 0
M  V30 6797 C 612.159 -2.15735 -4.73027 0
M  V30 6798 C 609.844 -1.46949 -4.80324 0
M  V30 6799 C 611.838 -3.30382 -5.45093 0
M  V30 6800 C 609.525 -2.61891 -5.52138 0
M  V30 6801 C 610.523 -3.53433 -5.84443 0
M  V30 6802 O 610.211 -4.6637 -6.54793 0
M  V30 6803 H 609.943 -0.0808543 -0.671147 0
M  V30 6804 H 612.497 -0.876541 -1.85758 0
M  V30 6805 H 610.727 0.802733 -3.78276 0
M  V30 6806 H 612.416 0.466184 -4.03214 0
M  V30 6807 H 613.182 -1.98602 -4.42473 0
M  V30 6808 H 609.061 -0.765815 -4.54595 0
M  V30 6809 H 612.605 -4.01856 -5.70226 0
M  V30 6810 H 608.502 -2.78964 -5.82108 0
M  V30 6811 H 609.27 -4.6546 -6.73267 0
M  V30 6812 N 611.933 1.52934 -0.380664 0
M  V30 6813 C 612.88 2.26197 0.458641 0
M  V30 6814 C 613.85 1.27462 1.06502 0
M  V30 6815 O 615.035 1.56274 1.09467 0
M  V30 6816 C 612.175 3.06571 1.58456 0
M  V30 6817 C 611.288 4.20222 1.00189 0
M  V30 6818 C 610.423 4.88007 2.09815 0
M  V30 6819 C 609.462 5.93665 1.49092 0
M  V30 6820 N 608.599 6.55081 2.52613 0
M  V30 6821 H 613.439 2.975 -0.172595 0
M  V30 6822 H 610.976 1.4678 -0.0969426 0
M  V30 6823 H 612.934 3.51455 2.24801 0
M  V30 6824 H 611.564 2.37494 2.18624 0
M  V30 6825 H 610.616 3.79714 0.228292 0
M  V30 6826 H 611.928 4.96102 0.518064 0
M  V30 6827 H 611.082 5.36151 2.83948 0
M  V30 6828 H 609.821 4.11632 2.61555 0
M  V30 6829 H 608.826 5.44868 0.7348 0
M  V30 6830 H 610.051 6.71969 0.981582 0
M  V30 6831 H 607.997 5.8155 3.03538 0
M  V30 6832 H 607.914 7.26548 2.08961 0
M  V30 6833 H 609.182 7.07871 3.26402 0
M  V30 6834 N 613.412 0.11024 1.57214 0
M  V30 6835 C 614.359 -0.843195 2.14846 0
M  V30 6836 C 615.329 -1.26954 1.07107 0
M  V30 6837 O 616.514 -1.34861 1.34971 0
M  V30 6838 C 613.654 -2.09123 2.74521 0
M  V30 6839 C 612.767 -1.71404 3.96541 0
M  V30 6840 C 611.902 -2.91107 4.44331 0
M  V30 6841 C 610.941 -2.49586 5.58903 0
M  V30 6842 N 610.078 -3.62175 6.01477 0
M  V30 6843 H 614.918 -0.344886 2.95998 0
M  V30 6844 H 612.455 -0.15855 1.46243 0
M  V30 6845 H 614.413 -2.82234 3.07246 0
M  V30 6846 H 613.043 -2.56427 1.96074 0
M  V30 6847 H 612.095 -0.88201 3.70033 0
M  V30 6848 H 613.407 -1.36884 4.7965 0
M  V30 6849 H 612.561 -3.72454 4.78919 0
M  V30 6850 H 611.3 -3.28848 3.60153 0
M  V30 6851 H 610.305 -1.6667 5.23929 0
M  V30 6852 H 611.53 -2.12973 6.4484 0
M  V30 6853 H 609.476 -3.99605 5.20242 0
M  V30 6854 H 609.393 -3.3155 6.79419 0
M  V30 6855 H 610.661 -4.43987 6.407 0
M  V30 6856 N 614.89 -1.56749 -0.16351 0
M  V30 6857 C 616.115 -1.86938 -0.898264 0
M  V30 6858 C 616.54 -0.697456 -1.74692 0
M  V30 6859 O 615.898 0.353327 -1.77824 0
M  V30 6860 C 615.946 -3.15599 -1.74441 0
M  V30 6861 O 615.05 -2.98371 -2.8469 0
M  V30 6862 H 614.391 -0.614659 -0.251178 0
M  V30 6863 H 616.921 -2.03979 -0.159298 0
M  V30 6864 H 616.931 -3.47202 -2.14277 0
M  V30 6865 H 615.606 -4.00505 -1.1211 0
M  V30 6866 H 614.183 -2.7814 -2.4838 0
M  V30 6867 N 616.368 0.432326 -1.51554 0
M  V30 6868 C 617.615 1.18134 -1.64471 0
M  V30 6869 C 617.943 1.91076 -0.363349 0
M  V30 6870 O 617.198 1.84492 0.65279 0
M  V30 6871 C 617.497 2.21907 -2.80164 0
M  V30 6872 C 617.163 1.65941 -4.19255 0
M  V30 6873 C 615.825 1.50401 -4.57092 0
M  V30 6874 C 618.177 1.24843 -5.06027 0
M  V30 6875 C 615.505 0.922443 -5.79403 0
M  V30 6876 C 617.857 0.68113 -6.28922 0
M  V30 6877 C 616.521 0.512673 -6.65528 0
M  V30 6878 H 615.791 0.432283 -0.601841 0
M  V30 6879 H 618.438 0.471701 -1.856 0
M  V30 6880 H 616.743 2.98928 -2.53277 0
M  V30 6881 H 618.44 2.79691 -2.87357 0
M  V30 6882 H 615.03 1.79014 -3.89425 0
M  V30 6883 H 619.214 1.35667 -4.77397 0
M  V30 6884 H 614.47 0.779733 -6.06408 0
M  V30 6885 H 618.644 0.35418 -6.95499 0
M  V30 6886 H 616.271 0.0599084 -7.60176 0
M  V30 6887 N 617.846 1.41785 0.688094 0
M  V30 6888 C 619.095 1.4084 1.44385 0
M  V30 6889 C 619.408 0.0234166 1.95586 0
M  V30 6890 O 620.614 -0.108647 2.71283 0
M  V30 6891 C 619.07 2.47675 2.61123 0
M  V30 6892 C 618.678 3.92116 2.16677 0
M  V30 6893 C 620.422 2.55877 3.38714 0
M  V30 6894 C 618.329 4.90487 3.30419 0
M  V30 6895 H 617.259 0.523787 0.542368 0
M  V30 6896 H 619.91 1.6764 0.74627 0
M  V30 6897 H 618.292 2.14018 3.33185 0
M  V30 6898 H 619.466 4.35059 1.51856 0
M  V30 6899 H 617.781 3.87642 1.5206 0
M  V30 6900 H 620.378 3.26553 4.234 0
M  V30 6901 H 620.721 1.59801 3.84408 0
M  V30 6902 H 621.254 2.88662 2.73714 0
M  V30 6903 H 617.993 5.87994 2.89729 0
M  V30 6904 H 617.513 4.52187 3.94065 0
M  V30 6905 H 619.192 5.11591 3.96085 0
M  V30 6906 N 619.324 -0.923095 1.27737 0
M  V30 6907 C 620.571 -1.67127 1.14345 0
M  V30 6908 C 620.899 -1.92017 -0.30982 0
M  V30 6909 O 620.154 -1.51185 -1.24264 0
M  V30 6910 C 620.453 -3.04125 1.8773 0
M  V30 6911 C 620.119 -2.98929 3.37568 0
M  V30 6912 C 618.781 -2.9722 3.78436 0
M  V30 6913 C 621.133 -2.89875 4.33154 0
M  V30 6914 C 618.461 -2.84244 5.13247 0
M  V30 6915 C 620.813 -2.7844 5.68026 0
M  V30 6916 C 619.477 -2.75083 6.08182 0
M  V30 6917 H 618.747 -0.611562 0.418417 0
M  V30 6918 H 621.394 -1.07618 1.584 0
M  V30 6919 H 619.699 -3.67366 1.36196 0
M  V30 6920 H 621.396 -3.609 1.74792 0
M  V30 6921 H 617.986 -3.0105 3.05069 0
M  V30 6922 H 622.17 -2.9029 4.02548 0
M  V30 6923 H 617.426 -2.80034 5.43499 0
M  V30 6924 H 621.6 -2.70401 6.4176 0
M  V30 6925 H 619.227 -2.64786 7.12596 0
M  V30 6926 N 620.802 -1.09834 -1.13024 0
M  V30 6927 C 621.732 -0.763451 -2.20666 0
M  V30 6928 C 622.713 0.260778 -1.68089 0
M  V30 6929 O 623.898 0.127915 -1.93778 0
M  V30 6930 C 621.028 -0.187744 -3.46792 0
M  V30 6931 C 619.982 -1.14196 -4.12484 0
M  V30 6932 C 619.308 -0.427755 -5.32986 0
M  V30 6933 C 620.608 -2.48607 -4.59338 0
M  V30 6934 H 622.302 -1.66347 -2.48936 0
M  V30 6935 H 619.848 -0.801261 -1.19649 0
M  V30 6936 H 621.801 0.0586375 -4.21359 0
M  V30 6937 H 620.525 0.747485 -3.17931 0
M  V30 6938 H 619.184 -1.37369 -3.3989 0
M  V30 6939 H 618.832 0.511747 -5.0039 0
M  V30 6940 H 618.532 -1.06403 -5.77886 0
M  V30 6941 H 620.056 -0.189772 -6.10305 0
M  V30 6942 H 621.47 -2.29618 -5.25308 0
M  V30 6943 H 619.867 -3.08062 -5.14993 0
M  V30 6944 H 620.937 -3.09062 -3.73642 0
M  V30 6945 N 622.28 1.30327 -0.886154 0
M  V30 6946 C 623.527 1.96097 -0.505192 0
M  V30 6947 C 623.855 1.69952 0.945868 0
M  V30 6948 O 623.11 0.997653 1.68361 0
M  V30 6949 C 623.409 3.49906 -0.728042 0
M  V30 6950 C 623.075 3.96103 -2.15437 0
M  V30 6951 C 621.737 4.08428 -2.5444 0
M  V30 6952 C 624.089 4.20177 -3.08384 0
M  V30 6953 C 621.417 4.42189 -3.85598 0
M  V30 6954 C 623.769 4.55407 -4.39075 0
M  V30 6955 C 622.433 4.65941 -4.7797 0
M  V30 6956 H 621.703 0.71757 -0.184863 0
M  V30 6957 H 624.35 1.55171 -1.12223 0
M  V30 6958 H 622.655 3.9179 -0.027978 0
M  V30 6959 H 624.352 3.98869 -0.412862 0
M  V30 6960 H 620.942 3.87017 -1.84162 0
M  V30 6961 H 625.126 4.10134 -2.7947 0
M  V30 6962 H 620.382 4.48544 -4.15473 0
M  V30 6963 H 624.556 4.72986 -5.11133 0
M  V30 6964 H 622.183 4.91856 -5.79639 0
M  V30 6965 N 623.758 0.647228 1.43697 0
M  V30 6966 C 624.998 0.16171 2.03759 0
M  V30 6967 C 625.362 -1.19951 1.49919 0
M  V30 6968 O 626.563 -1.77808 2.01588 0
M  V30 6969 C 624.834 0.16505 3.57019 0
M  V30 6970 S 626.393 -0.253497 4.38067 0
M  V30 6971 H 623.211 0.0689985 0.707644 0
M  V30 6972 H 625.813 0.854224 1.7585 0
M  V30 6973 H 624.517 1.15858 3.93707 0
M  V30 6974 H 624.048 -0.548194 3.89562 0
M  V30 6975 H 626.063 -1.49385 4.73179 0
M  V30 6976 N 625.236 -1.5273 0.388769 0
M  V30 6977 C 626.461 -2.0647 -0.19621 0
M  V30 6978 C 626.886 -1.25865 -1.39784 0
M  V30 6979 O 626.244 -0.283562 -1.79069 0
M  V30 6980 C 626.292 -3.56456 -0.5451 0
M  V30 6981 O 625.396 -3.78426 -1.63912 0
M  V30 6982 H 624.737 -0.663599 -0.023067 0
M  V30 6983 H 627.267 -1.96898 0.556084 0
M  V30 6984 H 627.277 -3.99888 -0.809557 0
M  V30 6985 H 625.952 -4.14561 0.333417 0
M  V30 6986 H 624.529 -3.46884 -1.36842 0
M  V30 6987 N 626.714 -0.118576 -1.57153 0
M  V30 6988 C 627.961 0.539526 -1.9518 0
M  V30 6989 C 628.289 1.66714 -1.00184 0
M  V30 6990 O 627.544 1.95683 -0.0256482 0
M  V30 6991 C 627.843 1.11303 -3.39627 0
M  V30 6992 C 627.509 0.106809 -4.50773 0
M  V30 6993 C 626.171 -0.169876 -4.809 0
M  V30 6994 C 628.523 -0.57895 -5.17975 0
M  V30 6995 C 625.851 -1.13861 -5.75545 0
M  V30 6996 C 628.203 -1.53631 -6.13661 0
M  V30 6997 C 626.867 -1.82099 -6.42181 0
M  V30 6998 H 626.137 0.197427 -0.714215 0
M  V30 6999 H 628.784 -0.199391 -1.90459 0
M  V30 7000 H 627.089 1.92869 -3.4104 0
M  V30 7001 H 628.786 1.63032 -3.66363 0
M  V30 7002 H 625.376 0.332645 -4.27307 0
M  V30 7003 H 629.56 -0.378359 -4.94856 0
M  V30 7004 H 624.816 -1.36592 -5.95947 0
M  V30 7005 H 628.99 -2.07337 -6.64819 0
M  V30 7006 H 626.617 -2.57319 -7.15326 0
M  V30 7007 N 628.193 1.56834 0.155195 0
M  V30 7008 C 629.423 1.86778 0.883044 0
M  V30 7009 C 629.831 0.703824 1.75622 0
M  V30 7010 O 629.174 -0.33581 1.80605 0
M  V30 7011 C 629.236 3.1133 1.79761 0
M  V30 7012 C 628.9 4.43504 1.10242 0
M  V30 7013 C 629.897 5.17859 0.460204 0
M  V30 7014 C 627.582 4.90233 1.09437 0
M  V30 7015 C 629.576 6.37144 -0.180782 0
M  V30 7016 C 627.263 6.09444 0.449569 0
M  V30 7017 C 628.261 6.82744 -0.186888 0
M  V30 7018 O 627.949 7.99692 -0.821486 0
M  V30 7019 H 627.681 0.62352 0.261149 0
M  V30 7020 H 630.235 2.04813 0.155204 0
M  V30 7021 H 628.465 2.89282 2.56618 0
M  V30 7022 H 630.154 3.27587 2.39669 0
M  V30 7023 H 630.92 4.8283 0.458289 0
M  V30 7024 H 626.799 4.33109 1.57917 0
M  V30 7025 H 630.343 6.94296 -0.678154 0
M  V30 7026 H 626.24 6.43936 0.449123 0
M  V30 7027 H 627.008 8.15306 -0.722337 0
M  V30 7028 N 629.671 -0.424282 1.51781 0
M  V30 7029 C 630.619 -1.53649 1.74628 0
M  V30 7030 C 631.613 -1.57923 0.612922 0
M  V30 7031 O 632.819 -1.61511 0.794618 0
M  V30 7032 H 629.194 -0.510706 0.551981 0
M  V30 7033 H 631.165 -1.31558 2.67834 0
M  V30 7034 C 629.914 -2.91177 1.9003 0
M  V30 7035 H 629.237 -2.88625 2.76651 0
M  V30 7036 H 630.677 -3.6833 2.10021 0
M  V30 7037 C 629.136 -3.30303 0.663435 0
M  V30 7038 O 629.666 -4.01315 -0.175812 0
M  V30 7039 N 627.872 -2.86201 0.503723 0
M  V30 7040 H 627.419 -2.28583 1.18776 0
M  V30 7041 H 627.377 -3.12741 -0.322575 0
M  V30 7042 N 631.149 -1.42148 -0.680565 0
M  V30 7043 C 632.398 -1.41604 -1.43636 0
M  V30 7044 C 632.711 -0.0337887 -1.95571 0
M  V30 7045 O 633.917 0.0942588 -2.71336 0
M  V30 7046 C 632.373 -2.49056 -2.59806 0
M  V30 7047 C 631.981 -3.9326 -2.14594 0
M  V30 7048 C 633.725 -2.5767 -3.37352 0
M  V30 7049 C 631.632 -4.92232 -3.27813 0
M  V30 7050 H 630.562 -0.526656 -0.539583 0
M  V30 7051 H 633.213 -1.68033 -0.737369 0
M  V30 7052 H 631.595 -2.15782 -3.32045 0
M  V30 7053 H 632.769 -4.35858 -1.49546 0
M  V30 7054 H 631.084 -3.88443 -1.50002 0
M  V30 7055 H 633.681 -3.28794 -4.21662 0
M  V30 7056 H 634.024 -1.61837 -3.83555 0
M  V30 7057 H 634.557 -2.90109 -2.72179 0
M  V30 7058 H 631.296 -5.89522 -2.86607 0
M  V30 7059 H 630.816 -4.5427 -3.91661 0
M  V30 7060 H 632.495 -5.13684 -3.93367 0
M  V30 7061 N 632.627 0.916307 -1.28225 0
M  V30 7062 C 633.874 1.66518 -1.1523 0
M  V30 7063 C 634.202 1.92178 0.299632 0
M  V30 7064 O 633.457 1.51842 1.2346 0
M  V30 7065 C 633.756 3.03125 -1.8934 0
M  V30 7066 C 633.422 2.97135 -3.39148 0
M  V30 7067 C 632.084 2.95208 -3.80007 0
M  V30 7068 C 634.436 2.87574 -4.34685 0
M  V30 7069 C 631.764 2.81518 -5.14747 0
M  V30 7070 C 634.116 2.75424 -5.69495 0
M  V30 7071 C 632.78 2.71854 -6.09632 0
M  V30 7072 H 632.05 0.609334 -0.421655 0
M  V30 7073 H 634.697 1.06776 -1.58969 0
M  V30 7074 H 633.002 3.66639 -1.38143 0
M  V30 7075 H 634.699 3.59968 -1.76704 0
M  V30 7076 H 631.289 2.99428 -3.06661 0
M  V30 7077 H 635.473 2.88152 -4.04082 0
M  V30 7078 H 630.729 2.77148 -5.44976 0
M  V30 7079 H 634.903 2.66993 -6.43185 0
M  V30 7080 H 632.53 2.61003 -7.1399 0
M  V30 7081 N 634.105 1.10431 1.1244 0
M  V30 7082 C 635.035 0.775143 2.20258 0
M  V30 7083 C 636.016 -0.25186 1.68225 0
M  V30 7084 O 637.201 -0.117637 1.93843 0
M  V30 7085 C 634.331 0.206133 3.46688 0
M  V30 7086 C 633.285 1.16382 4.11873 0
M  V30 7087 C 632.611 0.456014 5.32752 0
M  V30 7088 C 633.911 2.5104 4.58013 0
M  V30 7089 H 635.605 1.67665 2.4805 0
M  V30 7090 H 633.151 0.807595 1.19222 0
M  V30 7091 H 635.104 -0.036291 4.21384 0
M  V30 7092 H 633.828 -0.730614 3.18323 0
M  V30 7093 H 632.487 1.39169 3.39157 0
M  V30 7094 H 632.135 -0.485203 5.00654 0
M  V30 7095 H 631.835 1.09466 5.77314 0
M  V30 7096 H 633.359 0.222135 6.10196 0
M  V30 7097 H 634.773 2.32401 5.24083 0
M  V30 7098 H 633.17 3.10789 5.13352 0
M  V30 7099 H 634.24 3.11039 3.71998 0
M  V30 7100 N 635.583 -1.29855 0.893053 0
M  V30 7101 C 636.53 -2.27909 0.364161 0
M  V30 7102 C 637.5 -1.56726 -0.550093 0
M  V30 7103 O 638.685 -1.84747 -0.47677 0
M  V30 7104 C 635.825 -3.42678 -0.408178 0
M  V30 7105 C 634.938 -4.28659 0.536212 0
M  V30 7106 C 634.073 -5.30599 -0.252521 0
M  V30 7107 C 633.112 -6.08234 0.686822 0
M  V30 7108 N 632.249 -7.02068 -0.0670902 0
M  V30 7109 H 637.089 -2.72531 1.20544 0
M  V30 7110 H 634.626 -1.34047 0.605779 0
M  V30 7111 H 636.584 -4.07986 -0.871962 0
M  V30 7112 H 635.214 -2.99103 -1.21397 0
M  V30 7113 H 634.266 -3.63584 1.1185 0
M  V30 7114 H 635.578 -4.8274 1.25552 0
M  V30 7115 H 634.732 -6.01694 -0.777801 0
M  V30 7116 H 633.471 -4.77233 -1.005 0
M  V30 7117 H 632.476 -5.3601 1.22366 0
M  V30 7118 H 633.701 -6.63689 1.43852 0
M  V30 7119 H 631.647 -6.5108 -0.801955 0
M  V30 7120 H 631.564 -7.53675 0.59243 0
M  V30 7121 H 632.832 -7.77392 -0.572851 0
M  V30 7122 N 637.061 -0.65484 -1.43351 0
M  V30 7123 C 638.31 -0.166215 -2.01014 0
M  V30 7124 C 638.623 1.22764 -1.52278 0
M  V30 7125 O 639.829 1.81156 -2.02224 0
M  V30 7126 C 638.285 -0.246341 -3.59056 0
M  V30 7127 C 637.893 -1.64299 -4.16785 0
M  V30 7128 C 639.637 0.184597 -4.24098 0
M  V30 7129 C 637.544 -1.67695 -5.67126 0
M  V30 7130 H 636.474 -0.0583769 -0.751737 0
M  V30 7131 H 639.125 -0.817111 -1.64303 0
M  V30 7132 H 637.507 0.472092 -3.93176 0
M  V30 7133 H 638.681 -2.3869 -3.94162 0
M  V30 7134 H 636.996 -2.02004 -3.6412 0
M  V30 7135 H 639.593 0.179088 -5.344 0
M  V30 7136 H 639.936 1.21632 -3.98135 0
M  V30 7137 H 640.469 -0.482141 -3.94867 0
M  V30 7138 H 637.208 -2.68783 -5.9786 0
M  V30 7139 H 636.728 -0.976313 -5.91801 0
M  V30 7140 H 638.407 -1.42142 -6.31193 0
M  V30 7141 N 638.539 1.52521 -0.396863 0
M  V30 7142 C 639.469 2.29582 0.425941 0
M  V30 7143 C 640.45 1.33281 1.05689 0
M  V30 7144 O 641.635 1.62181 1.06823 0
M  V30 7145 C 638.765 3.10821 1.54943 0
M  V30 7146 C 637.719 4.15069 1.04413 0
M  V30 7147 C 637.045 4.84578 2.26028 0
M  V30 7148 C 638.345 5.22191 0.106767 0
M  V30 7149 H 640.039 2.98612 -0.217045 0
M  V30 7150 H 637.585 1.43611 -0.105826 0
M  V30 7151 H 639.538 3.63492 2.13193 0
M  V30 7152 H 638.262 2.39538 2.22011 0
M  V30 7153 H 636.921 3.63389 0.484118 0
M  V30 7154 H 636.569 4.09835 2.91623 0
M  V30 7155 H 636.269 5.55043 1.92876 0
M  V30 7156 H 637.793 5.40056 2.84906 0
M  V30 7157 H 639.207 5.70176 0.597685 0
M  V30 7158 H 637.604 5.99947 -0.135352 0
M  V30 7159 H 638.674 4.77531 -0.842134 0
M  V30 7160 N 640.017 0.126909 1.57088 0
M  V30 7161 C 640.947 -0.816847 2.18746 0
M  V30 7162 C 641.928 -1.27161 1.12979 0
M  V30 7163 O 643.113 -1.33279 1.41246 0
M  V30 7164 C 640.243 -2.06398 2.79315 0
M  V30 7165 C 639.197 -1.74673 3.90735 0
M  V30 7166 C 638.523 -3.06482 4.38147 0
M  V30 7167 C 639.823 -1.0089 5.12463 0
M  V30 7168 H 641.517 -0.303032 2.97863 0
M  V30 7169 H 639.063 -0.144314 1.43275 0
M  V30 7170 H 641.016 -2.72885 3.2111 0
M  V30 7171 H 639.74 -2.60118 1.975 0
M  V30 7172 H 638.399 -1.10572 3.49527 0
M  V30 7173 H 638.047 -3.58152 3.5318 0
M  V30 7174 H 637.747 -2.86025 5.13287 0
M  V30 7175 H 639.271 -3.74073 4.82599 0
M  V30 7176 H 640.685 -1.57546 5.51228 0
M  V30 7177 H 639.082 -0.905006 5.93237 0
M  V30 7178 H 640.152 0.00297335 4.849 0
M  V30 7179 N 641.495 -1.56914 -0.146875 0
M  V30 7180 C 642.742 -1.83356 -0.859467 0
M  V30 7181 C 643.07 -0.707811 -1.81164 0
M  V30 7182 O 642.325 0.303155 -1.93338 0
M  V30 7183 C 642.624 -3.16128 -1.66727 0
M  V30 7184 C 642.29 -4.42586 -0.861881 0
M  V30 7185 C 640.952 -4.76929 -0.639687 0
M  V30 7186 C 643.304 -5.20344 -0.298643 0
M  V30 7187 C 640.632 -5.86491 0.156451 0
M  V30 7188 C 642.984 -6.30742 0.484536 0
M  V30 7189 C 641.648 -6.63635 0.717306 0
M  V30 7190 H 640.918 -0.670947 -0.314501 0
M  V30 7191 H 643.565 -1.91104 -0.123108 0
M  V30 7192 H 641.87 -3.03831 -2.47374 0
M  V30 7193 H 643.567 -3.33802 -2.2221 0
M  V30 7194 H 640.157 -4.15662 -1.04513 0
M  V30 7195 H 644.341 -4.94186 -0.457585 0
M  V30 7196 H 639.597 -6.10419 0.346292 0
M  V30 7197 H 643.771 -6.90188 0.928105 0
M  V30 7198 H 641.398 -7.48367 1.33607 0
M  V30 7199 N 642.974 0.416227 -1.52004 0
M  V30 7200 C 644.385 0.995319 -1.57957 0
M  V30 7201 C 644.736 1.91744 -0.415754 0
M  V30 7202 O 643.861 2.11349 0.464808 0
M  V30 7203 C 644.456 1.81191 -2.86278 0
M  V30 7204 C 643.015 2.34115 -2.94732 0
M  V30 7205 C 642.162 1.139 -2.52828 0
M  V30 7206 H 645.113 0.196716 -1.57476 0
M  V30 7207 H 645.134 2.66859 -2.71231 0
M  V30 7208 H 644.646 1.14051 -3.70963 0
M  V30 7209 H 642.747 3.04647 -2.14525 0
M  V30 7210 H 642.86 2.65466 -3.98829 0
M  V30 7211 H 641.224 1.49081 -2.06511 0
M  V30 7212 H 642.007 0.483383 -3.3988 0
M  V30 7213 N 644.452 1.42507 0.673017 0
M  V30 7214 C 645.698 1.43284 1.43519 0
M  V30 7215 C 646.031 0.049668 1.94136 0
M  V30 7216 O 645.306 -0.926369 1.71022 0
M  V30 7217 C 645.589 2.45874 2.63093 0
M  V30 7218 C 645.442 3.93388 2.18096 0
M  V30 7219 C 646.761 2.45431 3.6531 0
M  V30 7220 H 643.88 0.521752 0.520522 0
M  V30 7221 H 646.522 1.73932 0.764701 0
M  V30 7222 H 644.672 2.19869 3.20296 0
M  V30 7223 H 646.344 4.30379 1.66046 0
M  V30 7224 H 644.587 4.07169 1.49652 0
M  V30 7225 H 645.258 4.60752 3.03993 0
M  V30 7226 H 647.734 2.68561 3.17827 0
M  V30 7227 H 646.61 3.19189 4.46553 0
M  V30 7228 H 646.871 1.48092 4.16559 0
M  V30 7229 N 645.93 -0.909495 1.28709 0
M  V30 7230 C 647.176 -1.66151 1.16283 0
M  V30 7231 C 647.509 -1.92067 -0.287069 0
M  V30 7232 O 646.784 -1.52409 -1.20837 0
M  V30 7233 C 647.067 -3.01676 1.9663 0
M  V30 7234 C 646.92 -2.82888 3.49707 0
M  V30 7235 C 648.239 -4.02274 1.78504 0
M  V30 7236 H 645.358 -0.602966 0.423793 0
M  V30 7237 H 648 -1.05418 1.58073 0
M  V30 7238 H 646.15 -3.53515 1.61119 0
M  V30 7239 H 647.822 -2.38026 3.95147 0
M  V30 7240 H 646.065 -2.17862 3.75125 0
M  V30 7241 H 646.736 -3.79147 4.01187 0
M  V30 7242 H 649.212 -3.59511 2.09503 0
M  V30 7243 H 648.088 -4.95056 2.37088 0
M  V30 7244 H 648.349 -4.35903 0.737647 0
M  V30 7245 N 647.408 -1.11026 -1.11852 0
M  V30 7246 C 648.648 -0.866348 -1.85132 0
M  V30 7247 C 649.012 0.597236 -1.82475 0
M  V30 7248 O 650.213 0.957744 -2.51159 0
M  V30 7249 C 648.484 -1.40721 -3.28531 0
M  V30 7250 S 650.043 -1.29964 -4.19112 0
M  V30 7251 H 646.861 -0.312899 -0.638447 0
M  V30 7252 H 649.463 -1.41691 -1.34699 0
M  V30 7253 H 648.167 -2.46631 -3.28027 0
M  V30 7254 H 647.698 -0.85349 -3.8403 0
M  V30 7255 H 649.713 -0.261333 -4.95511 0
M  V30 7256 N 648.886 1.2938 -0.899927 0
M  V30 7257 C 650.297 1.77644 -0.574427 0
M  V30 7258 C 650.648 1.73824 0.909928 0
M  V30 7259 O 649.773 1.32429 1.71147 0
M  V30 7260 C 650.368 3.22573 -1.03595 0
M  V30 7261 C 648.927 3.68614 -0.76161 0
M  V30 7262 C 648.074 2.49483 -1.21052 0
M  V30 7263 H 651.025 1.16038 -1.08263 0
M  V30 7264 H 651.046 3.78684 -0.371337 0
M  V30 7265 H 650.558 3.25321 -2.11631 0
M  V30 7266 H 648.659 3.7134 0.306127 0
M  V30 7267 H 648.772 4.59402 -1.35965 0
M  V30 7268 H 647.136 2.46798 -0.629515 0
M  V30 7269 H 647.919 2.54959 -2.29893 0
M  V30 7270 N 650.364 0.662433 1.43002 0
M  V30 7271 C 651.274 -0.0239199 2.34588 0
M  V30 7272 C 652.29 -0.802255 1.54402 0
M  V30 7273 O 653.466 -0.747401 1.87018 0
M  V30 7274 C 650.531 -0.972098 3.32793 0
M  V30 7275 C 649.592 -0.189673 4.28881 0
M  V30 7276 C 648.825 -1.09269 5.22395 0
M  V30 7277 O 649.048 -2.33209 5.20547 0
M  V30 7278 O 647.982 -0.560136 5.99288 0
M  V30 7279 H 651.808 0.730171 2.94792 0
M  V30 7280 H 649.393 0.422635 1.43297 0
M  V30 7281 H 651.275 -1.51676 3.93157 0
M  V30 7282 H 649.95 -1.70626 2.75079 0
M  V30 7283 H 648.857 0.398794 3.71968 0
M  V30 7284 H 650.19 0.50511 4.89601 0
M  V30 7285 N 651.842 -1.52309 0.404946 0
M  V30 7286 C 652.775 -2.23369 -0.467087 0
M  V30 7287 C 653.753 -1.24034 -1.0514 0
M  V30 7288 O 654.937 -1.53071 -1.10006 0
M  V30 7289 C 652.064 -2.95906 -1.64795 0
M  V30 7290 C 651.11 -4.09637 -1.18743 0
M  V30 7291 S 651.943 -5.35273 -0.156022 0
M  V30 7292 C 653.099 -6.11337 -1.34231 0
M  V30 7293 H 653.332 -2.96987 0.136294 0
M  V30 7294 H 650.865 -1.53236 0.189219 0
M  V30 7295 H 652.823 -3.38304 -2.3251 0
M  V30 7296 H 651.484 -2.21937 -2.22267 0
M  V30 7297 H 650.677 -4.59549 -2.06955 0
M  V30 7298 H 650.279 -3.69333 -0.588981 0
M  V30 7299 H 652.571 -6.38458 -2.26665 0
M  V30 7300 H 653.514 -7.02563 -0.883804 0
M  V30 7301 H 653.922 -5.42338 -1.56621 0
M  V30 7302 N 653.32 -0.135238 -1.57019 0
M  V30 7303 C 654.566 0.513232 -1.96818 0
M  V30 7304 C 654.921 1.63245 -1.01827 0
M  V30 7305 O 654.214 1.91532 -0.0511756 0
M  V30 7306 C 654.408 1.07694 -3.40788 0
M  V30 7307 C 654.237 0.0138667 -4.49698 0
M  V30 7308 C 653.007 -0.423532 -5.03522 0
M  V30 7309 C 655.205 -0.77322 -5.08454 0
M  V30 7310 N 653.187 -1.47068 -5.96024 0
M  V30 7311 C 654.558 -1.67115 -5.97053 0
M  V30 7312 C 656.613 -0.822313 -4.91063 0
M  V30 7313 C 655.316 -2.61395 -6.70123 0
M  V30 7314 C 657.342 -1.75288 -5.64826 0
M  V30 7315 C 656.704 -2.63836 -6.53123 0
M  V30 7316 H 652.803 0.156956 -0.766087 0
M  V30 7317 H 655.387 -0.227118 -1.93371 0
M  V30 7318 H 653.558 1.78694 -3.44852 0
M  V30 7319 H 655.29 1.69106 -3.67675 0
M  V30 7320 H 652.045 -0.0280202 -4.73592 0
M  V30 7321 H 652.469 -1.99366 -6.46979 0
M  V30 7322 H 657.111 -0.151822 -4.22527 0
M  V30 7323 H 654.829 -3.2945 -7.37895 0
M  V30 7324 H 658.415 -1.79652 -5.53368 0
M  V30 7325 H 657.295 -3.34672 -7.092 0
M  V30 7326 N 654.798 1.5699 0.138552 0
M  V30 7327 C 656.026 1.87976 0.864437 0
M  V30 7328 C 656.441 0.724372 1.74351 0
M  V30 7329 O 655.798 -0.305575 1.79924 0
M  V30 7330 C 655.849 3.18276 1.71414 0
M  V30 7331 O 655.57 4.29365 0.870487 0
M  V30 7332 C 657.071 3.62834 2.54688 0
M  V30 7333 H 654.291 0.622878 0.249528 0
M  V30 7334 H 656.835 2.04094 0.128805 0
M  V30 7335 H 654.99 3.03886 2.40274 0
M  V30 7336 H 655.404 5.03924 1.45466 0
M  V30 7337 H 656.878 4.5682 3.0987 0
M  V30 7338 H 657.355 2.88533 3.31127 0
M  V30 7339 H 657.961 3.79946 1.91105 0
M  V30 7340 N 656.276 -0.40816 1.52223 0
M  V30 7341 C 657.224 -1.51788 1.76248 0
M  V30 7342 C 658.218 -1.57264 0.629638 0
M  V30 7343 O 659.424 -1.60659 0.811704 0
M  V30 7344 H 655.799 -0.504823 0.557367 0
M  V30 7345 H 657.77 -1.2871 2.69214 0
M  V30 7346 C 656.519 -2.89145 1.93107 0
M  V30 7347 H 655.842 -2.85674 2.79697 0
M  V30 7348 H 657.282 -3.66082 2.13916 0
M  V30 7349 C 655.741 -3.29581 0.698431 0
M  V30 7350 O 656.271 -4.01479 -0.133238 0
M  V30 7351 N 654.477 -2.85651 0.53405 0
M  V30 7352 H 654.024 -2.2731 1.21194 0
M  V30 7353 H 653.982 -3.13065 -0.289387 0
M  V30 7354 N 657.755 -1.42862 -0.66545 0
M  V30 7355 C 658.703 -1.47319 -1.8 0
M  V30 7356 C 659.697 -0.347963 -1.65788 0
M  V30 7357 O 660.903 -0.521406 -1.72283 0
M  V30 7358 H 657.278 -0.461588 -0.593667 0
M  V30 7359 H 659.249 -2.42876 -1.7336 0
M  V30 7360 C 657.998 -1.40152 -3.18203 0
M  V30 7361 H 657.321 -2.26035 -3.2977 0
M  V30 7362 H 658.761 -1.47331 -3.9758 0
M  V30 7363 C 657.22 -0.117493 -3.36695 0
M  V30 7364 O 657.75 0.826058 -3.93115 0
M  V30 7365 N 655.956 -0.0316218 -2.90583 0
M  V30 7366 H 655.503 -0.800247 -2.44855 0
M  V30 7367 H 655.461 0.826835 -3.03333 0
M  V30 7368 N 659.233 0.902656 -1.29189 0
M  V30 7369 C 660.479 1.65532 -1.17163 0
M  V30 7370 C 660.812 1.92216 0.276879 0
M  V30 7371 O 660.087 1.53048 1.20027 0
M  V30 7372 C 660.37 3.00629 -1.98228 0
M  V30 7373 C 660.223 2.81029 -3.51202 0
M  V30 7374 C 661.542 4.01321 -1.80635 0
M  V30 7375 H 658.661 0.60071 -0.426985 0
M  V30 7376 H 661.303 1.04578 -1.5863 0
M  V30 7377 H 659.453 3.52656 -1.62991 0
M  V30 7378 H 661.125 2.35927 -3.96404 0
M  V30 7379 H 659.368 2.1587 -3.76275 0
M  V30 7380 H 660.039 3.77014 -4.03192 0
M  V30 7381 H 662.515 3.58394 -2.11406 0
M  V30 7382 H 661.391 4.93792 -2.3971 0
M  V30 7383 H 661.652 4.35505 -0.760754 0
M  V30 7384 N 660.711 1.11618 1.11262 0
M  V30 7385 C 661.988 0.777876 1.79467 0
M  V30 7386 C 662.368 -0.733774 1.97937 0
M  V30 7387 O 661.716 -1.66443 1.56554 0
M  V30 7388 C 661.926 1.5431 3.13032 0
M  V30 7389 C 663.274 1.72357 3.88044 0
M  V30 7390 O 664.298 1.5075 3.22727 0
M  V30 7391 O 663.157 2.08276 5.05256 0
M  V30 7392 H 660.251 0.282018 0.777428 0
M  V30 7393 H 662.797 1.21971 1.17988 0
M  V30 7394 H 661.569 2.57132 2.94956 0
M  V30 7395 H 661.192 1.09495 3.82226 0
M  V30 7396 N 662.189 -1.289 0.906776 0
M  V30 7397 C 663.099 -2.31256 0.394707 0
M  V30 7398 C 664.115 -1.66231 -0.514121 0
M  V30 7399 O 665.291 -1.97347 -0.401994 0
M  V30 7400 C 662.356 -3.44792 -0.363191 0
M  V30 7401 C 661.417 -4.25391 0.578012 0
M  V30 7402 C 660.65 -5.33506 -0.143811 0
M  V30 7403 O 660.873 -5.53786 -1.36665 0
M  V30 7404 O 659.807 -5.99673 0.5173 0
M  V30 7405 H 663.633 -2.77051 1.24405 0
M  V30 7406 H 661.218 -1.33466 0.671346 0
M  V30 7407 H 663.1 -4.139 -0.791503 0
M  V30 7408 H 661.775 -3.01093 -1.18848 0
M  V30 7409 H 660.682 -3.58899 1.05558 0
M  V30 7410 H 662.015 -4.72752 1.36992 0
M  V30 7411 N 663.667 -0.670007 -1.42649 0
M  V30 7412 C 665.083 -0.33911 -1.55956 0
M  V30 7413 C 665.283 1.1558 -1.65056 0
M  V30 7414 O 664.339 1.94111 -1.61485 0
M  V30 7415 C 665.652 -1.06522 -2.812 0
M  V30 7416 C 667.2 -1.04708 -2.94966 0
M  V30 7417 C 667.675 -1.75442 -4.23065 0
M  V30 7418 N 669.166 -1.72286 -4.29967 0
M  V30 7419 C 669.901 -2.23877 -5.27889 0
M  V30 7420 N 669.397 -2.83829 -6.31991 0
M  V30 7421 N 671.19 -2.14279 -5.19654 0
M  V30 7422 H 663.341 -1.6399 -1.34986 0
M  V30 7423 H 665.604 -0.690603 -0.649439 0
M  V30 7424 H 665.31 -2.12033 -2.80597 0
M  V30 7425 H 665.184 -0.627398 -3.71946 0
M  V30 7426 H 667.571 -0.000315966 -2.951 0
M  V30 7427 H 667.652 -1.52374 -2.05465 0
M  V30 7428 H 667.296 -2.80084 -4.23693 0
M  V30 7429 H 667.226 -1.25229 -5.11493 0
M  V30 7430 H 669.717 -1.28554 -3.55362 0
M  V30 7431 H 670.03 -3.20827 -7.03057 0
M  V30 7432 H 668.375 -2.87896 -6.32567 0
M  V30 7433 H 671.566 -1.67135 -4.37245 0
M  V30 7434 H 671.739 -2.54792 -5.95806 0
M  V30 7435 N 665.145 1.52092 -0.413018 0
M  V30 7436 C 666.375 2.05974 0.160648 0
M  V30 7437 C 666.783 1.28267 1.39084 0
M  V30 7438 O 666.126 0.328805 1.80733 0
M  V30 7439 C 666.188 3.54918 0.572169 0
M  V30 7440 C 665.852 4.53705 -0.547826 0
M  V30 7441 C 666.849 5.00342 -1.41259 0
M  V30 7442 C 664.534 4.97089 -0.721627 0
M  V30 7443 C 666.528 5.89011 -2.43607 0
M  V30 7444 C 664.215 5.85554 -1.74841 0
M  V30 7445 C 665.213 6.3141 -2.60403 0
M  V30 7446 O 664.901 7.18123 -3.61323 0
M  V30 7447 H 664.633 0.675636 0.0221936 0
M  V30 7448 H 667.187 1.96931 -0.58373 0
M  V30 7449 H 665.417 3.61661 1.36889 0
M  V30 7450 H 667.106 3.91428 1.0742 0
M  V30 7451 H 667.872 4.67537 -1.28974 0
M  V30 7452 H 663.751 4.60954 -0.0652911 0
M  V30 7453 H 667.295 6.24725 -3.10425 0
M  V30 7454 H 663.192 6.17773 -1.87156 0
M  V30 7455 H 663.96 7.36244 -3.57613 0
M  V30 7456 N 666.623 0.143563 1.56945 0
M  V30 7457 C 667.872 -0.50835 1.95189 0
M  V30 7458 C 668.185 -1.66239 1.03073 0
M  V30 7459 O 669.391 -2.3787 1.30882 0
M  V30 7460 C 667.847 -0.955735 3.46978 0
M  V30 7461 C 667.455 0.171183 4.47673 0
M  V30 7462 C 669.199 -1.57763 3.94095 0
M  V30 7463 C 667.106 -0.294279 5.90667 0
M  V30 7464 H 666.036 -0.193679 0.728701 0
M  V30 7465 H 668.687 0.227357 1.82086 0
M  V30 7466 H 667.069 -1.7466 3.55401 0
M  V30 7467 H 668.243 0.948049 4.50942 0
M  V30 7468 H 666.558 0.701273 4.10452 0
M  V30 7469 H 669.155 -1.93745 4.98364 0
M  V30 7470 H 669.498 -2.46531 3.35452 0
M  V30 7471 H 670.031 -0.851728 3.88575 0
M  V30 7472 H 666.77 0.557939 6.53121 0
M  V30 7473 H 666.29 -1.0371 5.90766 0
M  V30 7474 H 667.969 -0.747426 6.42668 0
M  V30 7475 N 668.101 -1.57061 -0.130224 0
M  V30 7476 C 669.031 -2.02552 -1.16168 0
M  V30 7477 C 670.012 -0.907971 -1.4384 0
M  V30 7478 O 671.197 -1.17693 -1.54473 0
M  V30 7479 C 668.327 -2.42035 -2.49071 0
M  V30 7480 C 667.281 -3.5713 -2.35886 0
M  V30 7481 C 666.607 -3.82478 -3.7365 0
M  V30 7482 C 667.907 -4.89236 -1.8288 0
M  V30 7483 H 669.601 -2.8897 -0.783359 0
M  V30 7484 H 667.147 -1.39021 -0.375376 0
M  V30 7485 H 669.1 -2.72462 -3.21469 0
M  V30 7486 H 667.824 -1.52573 -2.88771 0
M  V30 7487 H 666.483 -3.26895 -1.65938 0
M  V30 7488 H 666.131 -2.9024 -4.10816 0
M  V30 7489 H 665.831 -4.59944 -3.65685 0
M  V30 7490 H 667.355 -4.15347 -4.47571 0
M  V30 7491 H 668.769 -5.18272 -2.45085 0
M  V30 7492 H 667.166 -5.70624 -1.85763 0
M  V30 7493 H 668.236 -4.78494 -0.785571 0
M  V30 7494 N 669.579 0.400081 -1.52437 0
M  V30 7495 C 670.828 1.14332 -1.66166 0
M  V30 7496 C 671.141 1.91419 -0.402253 0
M  V30 7497 O 672.347 2.6824 -0.419487 0
M  V30 7498 C 670.803 2.08137 -2.9361 0
M  V30 7499 C 670.411 1.36524 -4.26691 0
M  V30 7500 C 672.155 2.82664 -3.16703 0
M  V30 7501 C 670.062 2.29031 -5.45251 0
M  V30 7502 H 668.992 0.430499 -0.61902 0
M  V30 7503 H 671.643 0.407017 -1.78929 0
M  V30 7504 H 670.025 2.85358 -2.74567 0
M  V30 7505 H 671.199 0.646061 -4.56249 0
M  V30 7506 H 669.514 0.74002 -4.09771 0
M  V30 7507 H 672.111 3.52037 -4.0246 0
M  V30 7508 H 672.454 3.46122 -2.31312 0
M  V30 7509 H 672.987 2.12541 -3.36261 0
M  V30 7510 H 669.726 1.70206 -6.33017 0
M  V30 7511 H 669.246 2.98896 -5.2002 0
M  V30 7512 H 670.925 2.89359 -5.78689 0
M  V30 7513 N 671.057 1.43213 0.657864 0
M  V30 7514 C 672.305 1.44298 1.41501 0
M  V30 7515 C 672.626 0.0666478 1.94886 0
M  V30 7516 O 671.896 -0.897345 1.74139 0
M  V30 7517 H 670.476 0.531257 0.525143 0
M  V30 7518 H 673.138 1.78777 0.776195 0
M  V30 7519 H 672.234 2.1528 2.25966 0
M  V30 7520 N 672.536 -0.895792 1.29666 0
M  V30 7521 C 673.785 -1.64131 1.17234 0
M  V30 7522 C 674.098 -1.93665 -0.274416 0
M  V30 7523 O 675.304 -2.66472 -0.520105 0
M  V30 7524 C 673.76 -2.95764 2.05065 0
M  V30 7525 C 673.368 -2.7381 3.54587 0
M  V30 7526 C 675.112 -3.737 2.01367 0
M  V30 7527 C 673.019 -4.01194 4.34508 0
M  V30 7528 H 671.949 -0.615742 0.435175 0
M  V30 7529 H 674.6 -0.992626 1.54335 0
M  V30 7530 H 672.982 -3.61867 1.60837 0
M  V30 7531 H 674.156 -2.16277 4.06892 0
M  V30 7532 H 672.471 -2.09265 3.59996 0
M  V30 7533 H 675.068 -4.68152 2.58337 0
M  V30 7534 H 675.411 -4.04245 0.994575 0
M  V30 7535 H 675.944 -3.14444 2.43659 0
M  V30 7536 H 672.683 -3.75813 5.37071 0
M  V30 7537 H 672.203 -4.58272 3.86971 0
M  V30 7538 H 673.882 -4.69307 4.45376 0
M  V30 7539 N 674.014 -1.12206 -1.10668 0
M  V30 7540 C 675.26 -0.877172 -1.82848 0
M  V30 7541 C 675.593 0.595571 -1.84842 0
M  V30 7542 O 674.868 1.44013 -1.30731 0
M  V30 7543 C 675.151 -1.44957 -3.29635 0
M  V30 7544 C 675.004 -2.99051 -3.35989 0
M  V30 7545 C 676.323 -1.10714 -4.25946 0
M  V30 7546 H 673.442 -0.320103 -0.663854 0
M  V30 7547 H 676.084 -1.38827 -1.2972 0
M  V30 7548 H 674.234 -1.01488 -3.7501 0
M  V30 7549 H 675.906 -3.51182 -2.99113 0
M  V30 7550 H 674.149 -3.34705 -2.75962 0
M  V30 7551 H 674.82 -3.34194 -4.39339 0
M  V30 7552 H 677.296 -1.48254 -3.88793 0
M  V30 7553 H 676.172 -1.5343 -5.2702 0
M  V30 7554 H 676.433 -0.019 -4.42096 0
M  V30 7555 N 675.492 1.28418 -0.913599 0
M  V30 7556 C 676.424 2.26368 -0.359169 0
M  V30 7557 C 677.437 1.54858 0.502285 0
M  V30 7558 O 678.626 1.75659 0.31719 0
M  V30 7559 C 675.726 3.35112 0.50526 0
M  V30 7560 C 674.899 4.36126 -0.333648 0
M  V30 7561 C 673.958 5.24134 0.465845 0
M  V30 7562 O 672.984 5.6907 -0.121538 0
M  V30 7563 N 674.186 5.52892 1.76891 0
M  V30 7564 H 676.951 2.74579 -1.2011 0
M  V30 7565 H 674.512 1.41898 -0.779532 0
M  V30 7566 H 676.504 3.90926 1.04684 0
M  V30 7567 H 675.074 2.86611 1.2479 0
M  V30 7568 H 674.294 3.79776 -1.0566 0
M  V30 7569 H 675.582 5.00638 -0.907669 0
M  V30 7570 H 674.98 5.18217 2.26865 0
M  V30 7571 H 673.537 6.11464 2.25732 0
M  V30 7572 N 676.97 0.677563 1.42291 0
M  V30 7573 C 678.217 0.200975 2.015 0
M  V30 7574 C 678.545 -1.19342 1.53583 0
M  V30 7575 O 677.8 -1.81579 0.7299 0
M  V30 7576 C 678.099 0.187229 3.56909 0
M  V30 7577 C 677.765 1.52667 4.24268 0
M  V30 7578 C 676.427 1.89341 4.42384 0
M  V30 7579 C 678.779 2.40869 4.62203 0
M  V30 7580 C 676.107 3.13836 4.95705 0
M  V30 7581 C 678.459 3.64679 5.16906 0
M  V30 7582 C 677.123 4.01519 5.33234 0
M  V30 7583 H 676.393 0.0735418 0.737342 0
M  V30 7584 H 679.04 0.873095 1.70439 0
M  V30 7585 H 677.345 -0.568407 3.87655 0
M  V30 7586 H 679.042 -0.198773 4.00507 0
M  V30 7587 H 675.632 1.23138 4.1053 0
M  V30 7588 H 679.816 2.1382 4.47878 0
M  V30 7589 H 675.072 3.42396 5.06532 0
M  V30 7590 H 679.246 4.33224 5.45243 0
M  V30 7591 H 676.873 4.98062 5.74316 0
M  V30 7592 N 678.448 -1.51871 0.421078 0
M  V30 7593 C 679.411 -2.25914 -0.386712 0
M  V30 7594 C 680.411 -1.28733 -0.963555 0
M  V30 7595 O 681.601 -1.52579 -0.840556 0
M  V30 7596 C 678.733 -3.03853 -1.54551 0
M  V30 7597 H 679.926 -2.98754 0.261978 0
M  V30 7598 H 677.479 -1.5533 0.173862 0
M  V30 7599 H 678.214 -2.35392 -2.23072 0
M  V30 7600 H 677.999 -3.75215 -1.13824 0
M  V30 7601 H 679.489 -3.59984 -2.11663 0
M  V30 7602 N 679.926 -0.151884 -1.56866 0
M  V30 7603 C 681.203 0.543328 -1.87902 0
M  V30 7604 C 681.583 1.82636 -1.05864 0
M  V30 7605 O 680.931 2.28028 -0.146868 0
M  V30 7606 C 681.141 0.804056 -3.39611 0
M  V30 7607 C 682.489 1.14267 -4.08935 0
M  V30 7608 O 683.513 0.893248 -3.44818 0
M  V30 7609 O 682.372 1.61229 -5.22176 0
M  V30 7610 H 679.466 0.277724 -0.778973 0
M  V30 7611 H 682.012 -0.188862 -1.68646 0
M  V30 7612 H 680.784 -0.103772 -3.91162 0
M  V30 7613 H 680.407 1.59025 -3.64413 0
M  V30 7614 N 681.404 1.57128 0.121893 0
M  V30 7615 C 682.644 1.86517 0.836113 0
M  V30 7616 C 683.008 0.739497 1.77188 0
M  V30 7617 O 684.209 0.91508 2.52744 0
M  V30 7618 C 682.48 3.21129 1.56878 0
M  V30 7619 S 684.039 3.72143 2.32497 0
M  V30 7620 H 680.857 0.653923 0.279115 0
M  V30 7621 H 683.459 1.95271 0.0946254 0
M  V30 7622 H 682.163 4.01002 0.873255 0
M  V30 7623 H 681.694 3.15446 2.35069 0
M  V30 7624 H 683.709 3.43413 3.58164 0
M  V30 7625 N 682.882 -0.391992 1.52647 0
M  V30 7626 C 684.131 -1.13449 1.6677 0
M  V30 7627 C 684.444 -1.91203 0.412399 0
M  V30 7628 O 685.65 -2.68013 0.433707 0
M  V30 7629 C 684.106 -2.06577 2.9471 0
M  V30 7630 C 683.714 -1.3426 4.27409 0
M  V30 7631 C 685.458 -2.80981 3.18198 0
M  V30 7632 C 683.365 -2.26136 5.46458 0
M  V30 7633 H 682.295 -0.427211 0.621295 0
M  V30 7634 H 684.946 -0.397522 1.79142 0
M  V30 7635 H 683.328 -2.83898 2.76076 0
M  V30 7636 H 684.502 -0.621856 4.56585 0
M  V30 7637 H 682.817 -0.718279 4.10158 0
M  V30 7638 H 685.414 -3.49898 4.04321 0
M  V30 7639 H 685.757 -3.44891 2.33144 0
M  V30 7640 H 686.29 -2.10754 3.37383 0
M  V30 7641 H 683.029 -1.66846 6.33911 0
M  V30 7642 H 682.549 -2.96134 5.21598 0
M  V30 7643 H 684.228 -2.86286 5.80215 0
M  V30 7644 N 684.36 -1.4356 -0.65026 0
M  V30 7645 C 685.585 -1.48995 -1.44275 0
M  V30 7646 C 686.01 -0.109954 -1.87778 0
M  V30 7647 O 685.368 0.896926 -1.57559 0
M  V30 7648 C 685.416 -2.44341 -2.65198 0
M  V30 7649 O 684.52 -1.93172 -3.6436 0
M  V30 7650 H 683.861 -0.503852 -0.432469 0
M  V30 7651 H 686.391 -1.88504 -0.795446 0
M  V30 7652 H 686.401 -2.61743 -3.12977 0
M  V30 7653 H 685.076 -3.44588 -2.32877 0
M  V30 7654 H 683.653 -1.85445 -3.23519 0
M  V30 7655 N 685.838 0.888903 -1.30139 0
M  V30 7656 C 687.254 1.17153 -1.08385 0
M  V30 7657 C 687.454 2.0088 0.157925 0
M  V30 7658 O 686.51 2.37668 0.852652 0
M  V30 7659 C 687.823 1.882 -2.34523 0
M  V30 7660 C 689.371 2.00981 -2.39949 0
M  V30 7661 C 689.846 2.75441 -3.65918 0
M  V30 7662 N 691.337 2.82989 -3.66704 0
M  V30 7663 C 692.072 3.41167 -4.60861 0
M  V30 7664 N 691.568 4.00425 -5.6536 0
M  V30 7665 N 693.361 3.38944 -4.48412 0
M  V30 7666 H 685.512 0.33053 -2.09812 0
M  V30 7667 H 687.775 0.208964 -0.924683 0
M  V30 7668 H 687.481 1.34119 -3.25123 0
M  V30 7669 H 687.355 2.88609 -2.42868 0
M  V30 7670 H 689.742 2.54234 -1.4983 0
M  V30 7671 H 689.823 0.996725 -2.35582 0
M  V30 7672 H 689.467 2.22861 -4.56394 0
M  V30 7673 H 689.397 3.77118 -3.67546 0
M  V30 7674 H 691.888 2.40912 -2.91153 0
M  V30 7675 H 692.201 4.42871 -6.33313 0
M  V30 7676 H 690.546 3.98856 -5.69157 0
M  V30 7677 H 693.737 2.91875 -3.6596 0
M  V30 7678 H 693.91 3.83989 -5.21974 0
M  V30 7679 N 687.317 1.12792 1.10072 0
M  V30 7680 C 688.563 0.886857 1.82381 0
M  V30 7681 C 688.896 -0.58576 1.85155 0
M  V30 7682 O 688.171 -1.43317 1.31493 0
M  V30 7683 C 688.454 1.46703 3.28862 0
M  V30 7684 C 688.307 3.00829 3.34398 0
M  V30 7685 C 689.626 1.12971 4.25353 0
M  V30 7686 H 686.745 0.32362 0.662148 0
M  V30 7687 H 689.387 1.39513 1.28982 0
M  V30 7688 H 687.537 1.03476 3.74466 0
M  V30 7689 H 689.209 3.52764 2.97247 0
M  V30 7690 H 687.452 3.36164 2.74183 0
M  V30 7691 H 688.123 3.36519 4.3756 0
M  V30 7692 H 690.599 1.50313 3.88001 0
M  V30 7693 H 689.475 1.56223 5.26199 0
M  V30 7694 H 689.736 0.0424452 4.4208 0
M  V30 7695 N 688.795 -1.27931 0.920396 0
M  V30 7696 C 690.042 -1.94689 0.557007 0
M  V30 7697 C 690.37 -1.724 -0.900476 0
M  V30 7698 O 689.625 -1.04194 -1.65657 0
M  V30 7699 C 689.924 -3.47853 0.820558 0
M  V30 7700 C 689.59 -3.90252 2.25863 0
M  V30 7701 C 688.252 -4.01539 2.65179 0
M  V30 7702 C 690.604 -4.11853 3.19415 0
M  V30 7703 C 687.932 -4.3181 3.97187 0
M  V30 7704 C 690.284 -4.43606 4.50995 0
M  V30 7705 C 688.948 -4.53105 4.90155 0
M  V30 7706 H 688.218 -0.712416 0.203823 0
M  V30 7707 H 690.865 -1.52142 1.16298 0
M  V30 7708 H 689.17 -3.91578 0.131844 0
M  V30 7709 H 690.867 -3.97634 0.51847 0
M  V30 7710 H 687.457 -3.81999 1.94358 0
M  V30 7711 H 691.641 -4.0258 2.90246 0
M  V30 7712 H 686.897 -4.37371 4.2722 0
M  V30 7713 H 691.071 -4.59268 5.23494 0
M  V30 7714 H 688.698 -4.76315 5.92476 0
M  V30 7715 N 690.273 -0.685099 -1.4193 0
M  V30 7716 C 691.684 -0.287699 -1.8447 0
M  V30 7717 C 692.035 1.17215 -1.57338 0
M  V30 7718 O 691.16 1.89856 -1.03845 0
M  V30 7719 C 691.755 -0.515385 -3.34857 0
M  V30 7720 C 690.314 -0.172006 -3.76007 0
M  V30 7721 C 689.461 -0.802808 -2.65425 0
M  V30 7722 H 692.412 -0.88652 -1.3163 0
M  V30 7723 H 692.433 0.229251 -3.79809 0
M  V30 7724 H 691.945 -1.57796 -3.54573 0
M  V30 7725 H 690.046 0.886716 -3.61895 0
M  V30 7726 H 690.159 -0.619717 -4.75075 0
M  V30 7727 H 688.523 -0.233267 -2.5363 0
M  V30 7728 H 689.306 -1.86904 -2.87961 0
M  V30 7729 N 691.751 1.51645 -0.429126 0
M  V30 7730 C 692.976 2.06917 0.141399 0
M  V30 7731 C 693.401 1.29527 1.36398 0
M  V30 7732 O 692.759 0.33094 1.78254 0
M  V30 7733 C 692.807 3.57776 0.4504 0
M  V30 7734 O 691.911 3.82639 1.53821 0
M  V30 7735 H 691.252 0.663978 0.0054647 0
M  V30 7736 H 693.782 1.95355 -0.608093 0
M  V30 7737 H 693.792 4.01894 0.703249 0
M  V30 7738 H 692.467 4.13532 -0.443213 0
M  V30 7739 H 691.044 3.5039 1.27597 0
M  V30 7740 N 693.229 0.160201 1.56784 0
M  V30 7741 C 694.159 -0.770264 2.2043 0
M  V30 7742 C 695.14 -1.24736 1.15651 0
M  V30 7743 O 696.325 -1.30253 1.44041 0
M  V30 7744 C 693.455 -2.00427 2.83631 0
M  V30 7745 C 692.409 -1.66345 3.94352 0
M  V30 7746 C 691.735 -2.97119 4.4455 0
M  V30 7747 C 693.035 -0.899972 5.14488 0
M  V30 7748 H 694.729 -0.239783 2.98438 0
M  V30 7749 H 692.275 -0.113891 1.43549 0
M  V30 7750 H 694.228 -2.66012 3.26827 0
M  V30 7751 H 692.952 -2.5587 2.02973 0
M  V30 7752 H 691.611 -1.03133 3.51794 0
M  V30 7753 H 691.259 -3.5058 3.60698 0
M  V30 7754 H 690.959 -2.75073 5.19238 0
M  V30 7755 H 692.483 -3.63753 4.90425 0
M  V30 7756 H 693.897 -1.45818 5.54446 0
M  V30 7757 H 692.294 -0.778968 5.95023 0
M  V30 7758 H 693.364 0.105827 4.84785 0
M  V30 7759 N 694.707 -1.5719 -0.113559 0
M  V30 7760 C 695.67 -1.99796 -1.12314 0
M  V30 7761 C 696.67 -0.888847 -1.34001 0
M  V30 7762 O 697.86 -1.15476 -1.30426 0
M  V30 7763 C 694.992 -2.34279 -2.47641 0
M  V30 7764 H 696.185 -2.90193 -0.756825 0
M  V30 7765 H 693.738 -1.52144 -0.358029 0
M  V30 7766 H 694.473 -1.46778 -2.89183 0
M  V30 7767 H 694.258 -3.15175 -2.33253 0
M  V30 7768 H 695.748 -2.67963 -3.2029 0
M  V30 7769 N 696.185 0.383891 -1.52853 0
M  V30 7770 C 697.433 1.12619 -1.67814 0
M  V30 7771 C 697.754 1.90354 -0.423141 0
M  V30 7772 O 697.024 1.87649 0.562554 0
M  V30 7773 H 695.604 0.418738 -0.618601 0
M  V30 7774 H 698.266 0.43495 -1.89985 0
M  V30 7775 H 697.362 1.82624 -2.5309 0
M  V30 7776 N 697.663 1.43903 0.642637 0
M  V30 7777 C 698.891 1.4954 1.42988 0
M  V30 7778 C 699.306 0.116588 1.8844 0
M  V30 7779 O 698.663 -0.875285 1.60141 0
M  V30 7780 C 698.714 2.45031 2.65785 0
M  V30 7781 O 698.435 3.77551 2.22232 0
M  V30 7782 C 699.936 2.60017 3.59035 0
M  V30 7783 H 697.156 0.507544 0.438907 0
M  V30 7784 H 699.7 1.88752 0.786942 0
M  V30 7785 H 697.855 2.08985 3.26196 0
M  V30 7786 H 698.269 4.29001 3.01759 0
M  V30 7787 H 699.743 3.30887 4.41835 0
M  V30 7788 H 700.22 1.64861 4.07084 0
M  V30 7789 H 700.826 2.96918 3.045 0
M  V30 7790 N 699.141 -0.881989 1.30609 0
M  V30 7791 C 700.388 -1.63405 1.19604 0
M  V30 7792 C 700.716 -1.92905 -0.248574 0
M  V30 7793 O 699.971 -1.55062 -1.19391 0
M  V30 7794 C 700.27 -2.97999 1.97311 0
M  V30 7795 C 699.936 -2.88039 3.46907 0
M  V30 7796 C 698.598 -2.85029 3.877 0
M  V30 7797 C 700.95 -2.75948 4.42156 0
M  V30 7798 C 698.278 -2.67772 5.2203 0
M  V30 7799 C 700.63 -2.60228 5.76597 0
M  V30 7800 C 699.294 -2.55595 6.16626 0
M  V30 7801 H 698.564 -0.597941 0.437662 0
M  V30 7802 H 701.211 -1.02524 1.61744 0
M  V30 7803 H 699.516 -3.62847 1.47815 0
M  V30 7804 H 701.213 -3.55156 1.86186 0
M  V30 7805 H 697.803 -2.91192 3.14492 0
M  V30 7806 H 701.987 -2.77337 4.1158 0
M  V30 7807 H 697.243 -2.62601 5.52133 0
M  V30 7808 H 701.417 -2.49847 6.50038 0
M  V30 7809 H 699.044 -2.41981 7.20659 0
M  V30 7810 N 700.619 -1.13374 -1.09472 0
M  V30 7811 C 702.03 -0.90801 -1.63132 0
M  V30 7812 C 702.381 0.555576 -1.8817 0
M  V30 7813 O 701.506 1.42218 -1.63104 0
M  V30 7814 C 702.101 -1.64182 -2.96361 0
M  V30 7815 C 700.66 -1.46197 -3.46848 0
M  V30 7816 C 699.807 -1.67134 -2.21273 0
M  V30 7817 H 702.758 -1.2871 -0.928411 0
M  V30 7818 H 702.779 -1.09863 -3.64294 0
M  V30 7819 H 702.291 -2.707 -2.78106 0
M  V30 7820 H 700.392 -0.419788 -3.70228 0
M  V30 7821 H 700.505 -2.22472 -4.24315 0
M  V30 7822 H 698.869 -1.09616 -2.29905 0
M  V30 7823 H 699.652 -2.74971 -2.05538 0
M  V30 7824 N 702.098 1.27442 -0.927168 0
M  V30 7825 C 703.344 1.94679 -0.568164 0
M  V30 7826 C 703.677 1.72697 0.888219 0
M  V30 7827 O 702.952 1.05573 1.63354 0
M  V30 7828 C 703.235 3.4882 -0.894253 0
M  V30 7829 C 703.088 3.80146 -2.40435 0
M  V30 7830 C 704.407 4.38281 -0.399766 0
M  V30 7831 H 701.526 0.707071 -0.207892 0
M  V30 7832 H 704.168 1.50568 -1.15885 0
M  V30 7833 H 702.318 3.86522 -0.391566 0
M  V30 7834 H 703.99 3.52238 -2.97869 0
M  V30 7835 H 702.233 3.26716 -2.85375 0
M  V30 7836 H 702.904 4.87835 -2.58304 0
M  V30 7837 H 705.38 4.07726 -0.83058 0
M  V30 7838 H 704.256 5.44955 -0.656885 0
M  V30 7839 H 704.517 4.36521 0.700153 0
M  V30 7840 N 703.576 0.692616 1.41565 0
M  V30 7841 C 704.823 0.222335 2.01276 0
M  V30 7842 C 705.151 -1.17706 1.5484 0
M  V30 7843 O 704.406 -1.80795 0.749118 0
M  V30 7844 C 704.705 0.225073 3.56691 0
M  V30 7845 C 704.371 1.57158 4.22625 0
M  V30 7846 C 703.033 1.94022 4.40351 0
M  V30 7847 C 705.385 2.45758 4.59622 0
M  V30 7848 C 702.713 3.19076 4.92349 0
M  V30 7849 C 705.065 3.70141 5.13009 0
M  V30 7850 C 703.729 4.07152 5.28946 0
M  V30 7851 H 702.999 0.0813581 0.73652 0
M  V30 7852 H 705.646 0.891123 1.69503 0
M  V30 7853 H 703.951 -0.527259 3.88236 0
M  V30 7854 H 705.648 -0.156283 4.00695 0
M  V30 7855 H 702.238 1.27486 4.09201 0
M  V30 7856 H 706.422 2.18558 4.45585 0
M  V30 7857 H 701.678 3.4775 5.02872 0
M  V30 7858 H 705.852 4.38983 5.40617 0
M  V30 7859 H 703.479 5.04125 5.69001 0
M  V30 7860 N 705.054 -1.51416 0.437162 0
M  V30 7861 C 706.001 -2.27743 -0.374374 0
M  V30 7862 C 706.971 -1.31327 -1.01698 0
M  V30 7863 O 708.156 -1.60229 -1.03592 0
M  V30 7864 C 705.296 -3.12241 -1.46969 0
M  V30 7865 C 704.409 -4.23651 -0.845236 0
M  V30 7866 C 703.544 -4.95458 -1.91559 0
M  V30 7867 C 702.583 -5.98789 -1.26956 0
M  V30 7868 N 701.72 -6.64005 -2.28126 0
M  V30 7869 H 706.56 -2.96654 0.282892 0
M  V30 7870 H 704.097 -1.46319 0.151352 0
M  V30 7871 H 706.055 -3.59556 -2.11602 0
M  V30 7872 H 704.685 -2.45445 -2.09659 0
M  V30 7873 H 703.737 -3.803 -0.0872059 0
M  V30 7874 H 705.049 -4.97683 -0.333582 0
M  V30 7875 H 704.203 -5.46321 -2.63854 0
M  V30 7876 H 702.942 -4.21055 -2.46097 0
M  V30 7877 H 701.947 -5.47219 -0.53207 0
M  V30 7878 H 703.172 -6.75149 -0.731509 0
M  V30 7879 H 701.118 -5.92415 -2.81745 0
M  V30 7880 H 701.035 -7.33802 -1.81852 0
M  V30 7881 H 702.303 -7.19498 -2.99905 0
M  V30 7882 N 706.532 -0.168513 -1.56696 0
M  V30 7883 C 707.781 0.477233 -1.95973 0
M  V30 7884 C 708.094 1.64578 -1.05704 0
M  V30 7885 O 709.3 2.35758 -1.3465 0
M  V30 7886 C 707.756 0.900413 -3.48455 0
M  V30 7887 C 707.364 -0.242382 -4.47344 0
M  V30 7888 C 709.108 1.51474 -3.96555 0
M  V30 7889 C 707.015 0.200272 -5.91061 0
M  V30 7890 H 705.945 0.182061 -0.73169 0
M  V30 7891 H 708.596 -0.256297 -1.81701 0
M  V30 7892 H 706.978 1.68984 -3.58135 0
M  V30 7893 H 708.152 -1.01967 -4.49377 0
M  V30 7894 H 706.467 -0.766484 -4.09285 0
M  V30 7895 H 709.064 1.85792 -5.01384 0
M  V30 7896 H 709.407 2.41163 -3.39332 0
M  V30 7897 H 709.94 0.789802 -3.89881 0
M  V30 7898 H 706.679 -0.661775 -6.52151 0
M  V30 7899 H 706.199 0.942979 -5.92341 0
M  V30 7900 H 707.878 0.645088 -6.43776 0
M  V30 7901 N 708.01 1.57248 0.105221 0
M  V30 7902 C 709.257 1.8557 0.810552 0
M  V30 7903 C 709.585 0.755595 1.79223 0
M  V30 7904 O 708.84 -0.251788 1.94073 0
M  V30 7905 C 709.139 3.20437 1.58287 0
M  V30 7906 C 708.805 4.44716 0.744235 0
M  V30 7907 C 707.467 4.78458 0.513013 0
M  V30 7908 C 709.819 5.20953 0.160578 0
M  V30 7909 C 707.147 5.8587 -0.311894 0
M  V30 7910 C 709.499 6.29235 -0.651596 0
M  V30 7911 C 708.163 6.615 -0.893005 0
M  V30 7912 H 707.433 0.67905 0.296602 0
M  V30 7913 H 710.08 1.91363 0.0723968 0
M  V30 7914 H 708.385 3.10283 2.39232 0
M  V30 7915 H 710.082 3.39576 2.13282 0
M  V30 7916 H 706.672 4.18287 0.934555 0
M  V30 7917 H 710.856 4.95226 0.3264 0
M  V30 7918 H 706.112 6.09286 -0.508012 0
M  V30 7919 H 710.286 6.87484 -1.11077 0
M  V30 7920 H 707.913 7.44562 -1.53401 0
M  V30 7921 N 709.488 -0.375779 1.53054 0
M  V30 7922 C 710.418 -1.46598 1.81745 0
M  V30 7923 C 711.399 -1.56337 0.670286 0
M  V30 7924 O 712.584 -1.71071 0.919158 0
M  V30 7925 C 709.714 -2.84058 1.99821 0
M  V30 7926 C 708.668 -2.8915 3.15557 0
M  V30 7927 C 707.994 -4.29187 3.18908 0
M  V30 7928 C 709.294 -2.57595 4.54359 0
M  V30 7929 H 710.988 -1.22837 2.73041 0
M  V30 7930 H 708.534 -0.589485 1.31381 0
M  V30 7931 H 710.487 -3.60342 2.18475 0
M  V30 7932 H 709.211 -3.09184 1.05226 0
M  V30 7933 H 707.87 -2.15316 2.96706 0
M  V30 7934 H 707.518 -4.51374 2.2197 0
M  V30 7935 H 707.218 -4.33512 3.96662 0
M  V30 7936 H 708.742 -5.07359 3.39734 0
M  V30 7937 H 710.156 -3.23595 4.73243 0
M  V30 7938 H 708.553 -2.73252 5.34279 0
M  V30 7939 H 709.623 -1.52882 4.60169 0
M  V30 7940 N 710.966 -1.44241 -0.634997 0
M  V30 7941 C 711.896 -1.53632 -1.7584 0
M  V30 7942 C 712.877 -0.389603 -1.65578 0
M  V30 7943 O 714.062 -0.609219 -1.84397 0
M  V30 7944 C 711.192 -1.47644 -3.14354 0
M  V30 7945 C 710.146 -2.60752 -3.394 0
M  V30 7946 C 709.472 -2.39817 -4.77904 0
M  V30 7947 C 710.772 -4.02921 -3.32343 0
M  V30 7948 H 712.466 -2.47662 -1.68238 0
M  V30 7949 H 710.012 -1.19197 -0.807969 0
M  V30 7950 H 711.965 -1.52815 -3.92716 0
M  V30 7951 H 710.689 -0.501284 -3.2273 0
M  V30 7952 H 709.348 -2.54965 -2.63417 0
M  V30 7953 H 708.996 -1.40502 -4.82978 0
M  V30 7954 H 708.696 -3.15649 -4.9562 0
M  V30 7955 H 710.22 -2.46799 -5.585 0
M  V30 7956 H 711.634 -4.10098 -4.00615 0
M  V30 7957 H 710.031 -4.78925 -3.61595 0
M  V30 7958 H 711.101 -4.26766 -2.30215 0
M  V30 7959 N 712.444 0.87505 -1.31075 0
M  V30 7960 C 713.672 1.66058 -1.23419 0
M  V30 7961 C 714.087 1.87723 0.201347 0
M  V30 7962 O 713.444 1.43178 1.13165 0
M  V30 7963 C 713.495 3.03142 -1.96945 0
M  V30 7964 O 713.216 2.82448 -3.34895 0
M  V30 7965 C 714.717 3.97583 -1.96067 0
M  V30 7966 H 711.937 0.517868 -0.426677 0
M  V30 7967 H 714.481 1.09258 -1.72867 0
M  V30 7968 H 712.636 3.56645 -1.51271 0
M  V30 7969 H 713.05 3.69483 -3.72267 0
M  V30 7970 H 714.524 4.91104 -2.52034 0
M  V30 7971 H 715.001 4.2898 -0.941961 0
M  V30 7972 H 715.607 3.50015 -2.41597 0
M  V30 7973 N 713.922 1.13953 1.08869 0
M  V30 7974 C 714.854 0.779906 2.15523 0
M  V30 7975 C 715.867 -0.20102 1.61554 0
M  V30 7976 O 717.056 0.0200049 1.78489 0
M  V30 7977 C 714.156 0.136226 3.38626 0
M  V30 7978 C 713.329 1.15069 4.21993 0
M  V30 7979 C 712.388 0.531645 5.23507 0
M  V30 7980 O 711.414 1.19327 5.56552 0
M  V30 7981 N 712.616 -0.693734 5.7634 0
M  V30 7982 H 715.381 1.69769 2.46979 0
M  V30 7983 H 712.942 1.03331 1.24637 0
M  V30 7984 H 714.934 -0.290295 4.03658 0
M  V30 7985 H 713.504 -0.684603 3.05011 0
M  V30 7986 H 712.724 1.75431 3.53012 0
M  V30 7987 H 714.012 1.83614 4.74514 0
M  V30 7988 H 713.41 -1.24994 5.51718 0
M  V30 7989 H 711.967 -1.06283 6.43076 0
M  V30 7990 N 715.4 -1.26948 0.933913 0
M  V30 7991 C 716.347 -2.26635 0.436484 0
M  V30 7992 C 717.317 -1.58397 -0.499953 0
M  V30 7993 O 718.502 -1.86171 -0.417753 0
M  V30 7994 C 715.642 -3.43803 -0.298951 0
M  V30 7995 C 714.755 -4.26736 0.672316 0
M  V30 7996 C 713.89 -5.31134 -0.0835872 0
M  V30 7997 C 712.929 -6.05742 0.879979 0
M  V30 7998 N 712.066 -7.01926 0.156301 0
M  V30 7999 H 716.906 -2.68558 1.29154 0
M  V30 8000 H 714.443 -1.32052 0.648118 0
M  V30 8001 H 716.401 -4.10554 -0.741723 0
M  V30 8002 H 715.031 -3.02814 -1.1182 0
M  V30 8003 H 714.083 -3.59842 1.23361 0
M  V30 8004 H 715.395 -4.78502 1.40846 0
M  V30 8005 H 714.549 -6.03863 -0.585984 0
M  V30 8006 H 713.288 -4.80188 -0.852661 0
M  V30 8007 H 712.293 -5.31846 1.39357 0
M  V30 8008 H 713.518 -6.58777 1.64894 0
M  V30 8009 H 711.464 -6.53301 -0.594413 0
M  V30 8010 H 711.381 -7.51409 0.831906 0
M  V30 8011 H 712.649 -7.78821 -0.325239 0
M  V30 8012 N 716.879 -0.700114 -1.41195 0
M  V30 8013 C 717.826 -0.0376652 -2.30769 0
M  V30 8014 C 718.796 0.766544 -1.47354 0
M  V30 8015 O 719.981 0.73365 -1.76131 0
M  V30 8016 C 717.121 0.889452 -3.33441 0
M  V30 8017 C 716.234 0.076373 -4.31932 0
M  V30 8018 C 715.369 1.00155 -5.21673 0
M  V30 8019 C 714.408 0.181644 -6.1183 0
M  V30 8020 N 713.545 1.06087 -6.94039 0
M  V30 8021 H 718.385 -0.80726 -2.86858 0
M  V30 8022 H 715.922 -0.409798 -1.41277 0
M  V30 8023 H 717.88 1.44107 -3.91522 0
M  V30 8024 H 716.51 1.6254 -2.78892 0
M  V30 8025 H 715.562 -0.592223 -3.75762 0
M  V30 8026 H 716.874 -0.559076 -4.95657 0
M  V30 8027 H 716.028 1.62223 -5.8461 0
M  V30 8028 H 714.767 1.67085 -4.58186 0
M  V30 8029 H 713.772 -0.452085 -5.47938 0
M  V30 8030 H 714.997 -0.483925 -6.77374 0
M  V30 8031 H 712.943 1.7161 -6.33156 0
M  V30 8032 H 712.86 0.481094 -7.54468 0
M  V30 8033 H 714.128 1.66822 -7.6144 0
M  V30 8034 N 718.357 1.51182 -0.445186 0
M  V30 8035 C 719.603 2.02452 0.11882 0
M  V30 8036 C 719.936 1.32824 1.41673 0
M  V30 8037 O 719.211 0.445637 1.89326 0
M  V30 8038 C 719.494 3.5859 0.329475 0
M  V30 8039 C 719.347 4.38823 -0.987638 0
M  V30 8040 C 720.666 4.26241 1.09575 0
M  V30 8041 H 717.785 0.735819 0.0417092 0
M  V30 8042 H 720.427 1.80747 -0.585718 0
M  V30 8043 H 718.577 3.77214 0.9296 0
M  V30 8044 H 720.249 4.3183 -1.62235 0
M  V30 8045 H 718.492 4.03594 -1.59041 0
M  V30 8046 H 719.163 5.46257 -0.794192 0
M  V30 8047 H 721.639 4.11934 0.587328 0
M  V30 8048 H 720.515 5.35354 1.21191 0
M  V30 8049 H 720.776 3.87635 2.12584 0
M  V30 8050 N 719.835 0.176821 1.56605 0
M  V30 8051 C 720.765 -0.746841 2.21234 0
M  V30 8052 C 721.746 -1.23502 1.16967 0
M  V30 8053 O 722.931 -1.28718 1.45414 0
M  V30 8054 C 720.061 -1.97407 2.8574 0
M  V30 8055 C 719.015 -1.62153 3.96094 0
M  V30 8056 C 718.341 -2.92387 4.47676 0
M  V30 8057 C 719.641 -0.845353 5.15413 0
M  V30 8058 H 721.335 -0.208116 2.98676 0
M  V30 8059 H 718.881 -0.0986594 1.43662 0
M  V30 8060 H 720.834 -2.62531 3.2963 0
M  V30 8061 H 719.558 -2.53703 2.05676 0
M  V30 8062 H 718.217 -0.993964 3.52868 0
M  V30 8063 H 717.865 -3.46734 3.64396 0
M  V30 8064 H 717.565 -2.69551 5.22127 0
M  V30 8065 H 719.089 -3.5853 4.94255 0
M  V30 8066 H 720.503 -1.39929 5.55961 0
M  V30 8067 H 718.9 -0.715814 5.95815 0
M  V30 8068 H 719.97 0.157239 4.84645 0
M  V30 8069 N 721.313 -1.57302 -0.09688 0
M  V30 8070 C 722.562 -1.85183 -0.799388 0
M  V30 8071 C 722.875 -0.765818 -1.79985 0
M  V30 8072 O 724.081 -0.931696 -2.55013 0
M  V30 8073 C 722.537 -3.28399 -1.47249 0
M  V30 8074 C 722.145 -4.45066 -0.511888 0
M  V30 8075 C 723.889 -3.65506 -2.15883 0
M  V30 8076 C 721.796 -5.79315 -1.18948 0
M  V30 8077 H 720.726 -0.690752 -0.302287 0
M  V30 8078 H 723.377 -1.83425 -0.0523104 0
M  V30 8079 H 721.759 -3.24692 -2.26697 0
M  V30 8080 H 722.933 -4.60116 0.250962 0
M  V30 8081 H 721.248 -4.16343 0.0686576 0
M  V30 8082 H 723.845 -4.63087 -2.67309 0
M  V30 8083 H 724.188 -2.94041 -2.94696 0
M  V30 8084 H 724.721 -3.71094 -1.43298 0
M  V30 8085 H 721.46 -6.54007 -0.442198 0
M  V30 8086 H 720.98 -5.68111 -1.9238 0
M  V30 8087 H 722.659 -6.23816 -1.71646 0
M  V30 8088 N 722.791 0.367657 -1.53252 0
M  V30 8089 C 724.021 1.12955 -1.72988 0
M  V30 8090 C 724.429 1.8358 -0.457708 0
M  V30 8091 O 723.772 1.74336 0.579006 0
M  V30 8092 C 723.834 2.20545 -2.83902 0
M  V30 8093 C 723.498 1.69704 -4.24323 0
M  V30 8094 C 724.495 1.16223 -5.06743 0
M  V30 8095 C 722.18 1.7528 -4.70725 0
M  V30 8096 C 724.174 0.689935 -6.33655 0
M  V30 8097 C 721.861 1.27662 -5.97617 0
M  V30 8098 C 722.859 0.746083 -6.78913 0
M  V30 8099 O 722.547 0.276925 -8.03423 0
M  V30 8100 H 722.279 0.343753 -0.582074 0
M  V30 8101 H 724.833 0.433106 -2.00782 0
M  V30 8102 H 723.063 2.93676 -2.51577 0
M  V30 8103 H 724.752 2.82111 -2.91836 0
M  V30 8104 H 725.518 1.11256 -4.72067 0
M  V30 8105 H 721.397 2.15515 -4.07522 0
M  V30 8106 H 724.941 0.275164 -6.97057 0
M  V30 8107 H 720.838 1.32322 -6.31792 0
M  V30 8108 H 721.606 0.396445 -8.17539 0
M  V30 8109 N 724.269 1.44576 0.627338 0
M  V30 8110 C 725.494 1.51271 1.41887 0
M  V30 8111 C 725.919 0.139814 1.8758 0
M  V30 8112 O 725.277 -0.871746 1.58966 0
M  V30 8113 C 725.325 2.48529 2.61277 0
M  V30 8114 O 724.429 1.98944 3.61241 0
M  V30 8115 H 723.77 0.510668 0.424399 0
M  V30 8116 H 726.3 1.89746 0.765356 0
M  V30 8117 H 726.31 2.66689 3.08773 0
M  V30 8118 H 724.985 3.48249 2.27366 0
M  V30 8119 H 723.562 1.90568 3.20528 0
M  V30 8120 N 725.747 -0.868086 1.31537 0
M  V30 8121 C 726.677 -1.99131 1.21939 0
M  V30 8122 C 727.658 -1.69768 0.106166 0
M  V30 8123 O 728.843 -1.92006 0.291081 0
M  V30 8124 C 725.973 -3.34676 0.927879 0
M  V30 8125 C 724.927 -3.7835 2.00088 0
M  V30 8126 C 724.253 -5.11375 1.56203 0
M  V30 8127 C 725.553 -3.95256 3.41424 0
M  V30 8128 H 727.247 -2.07419 2.15911 0
M  V30 8129 H 724.793 -0.996569 1.03945 0
M  V30 8130 H 726.746 -4.12793 0.847327 0
M  V30 8131 H 725.47 -3.26565 -0.0475042 0
M  V30 8132 H 724.129 -3.02474 2.07135 0
M  V30 8133 H 723.777 -4.99709 0.57445 0
M  V30 8134 H 723.477 -5.41568 2.27985 0
M  V30 8135 H 725.001 -5.92001 1.49558 0
M  V30 8136 H 726.415 -4.63764 3.3704 0
M  V30 8137 H 724.812 -4.36849 4.1144 0
M  V30 8138 H 725.882 -2.98579 3.82072 0
M  V30 8139 N 727.225 -1.14528 -1.08264 0
M  V30 8140 C 728.155 -0.856356 -2.1723 0
M  V30 8141 C 729.136 0.189251 -1.69044 0
M  V30 8142 O 730.321 0.0456119 -1.94146 0
M  V30 8143 C 727.451 -0.334662 -3.45684 0
M  V30 8144 C 726.405 -1.31588 -4.0727 0
M  V30 8145 C 725.731 -0.653428 -5.30692 0
M  V30 8146 C 727.031 -2.67866 -4.48381 0
M  V30 8147 H 728.725 -1.76755 -2.41657 0
M  V30 8148 H 726.271 -0.851287 -1.16143 0
M  V30 8149 H 728.224 -0.120128 -4.21229 0
M  V30 8150 H 726.948 0.611967 -3.20815 0
M  V30 8151 H 725.607 -1.51661 -3.33758 0
M  V30 8152 H 725.255 0.299054 -5.0211 0
M  V30 8153 H 724.955 -1.30817 -5.72853 0
M  V30 8154 H 726.479 -0.448453 -6.08951 0
M  V30 8155 H 727.893 -2.51692 -5.15096 0
M  V30 8156 H 726.29 -3.29627 -5.01464 0
M  V30 8157 H 727.36 -3.24632 -3.60198 0
M  V30 8158 N 728.703 1.26451 -0.940633 0
M  V30 8159 C 730.119 1.4608 -0.642859 0
M  V30 8160 C 730.319 1.84765 0.803998 0
M  V30 8161 O 729.375 1.96902 1.58069 0
M  V30 8162 C 730.688 2.54359 -1.60381 0
M  V30 8163 C 732.236 2.6821 -1.61345 0
M  V30 8164 C 732.711 3.79659 -2.56169 0
M  V30 8165 N 734.202 3.87051 -2.54452 0
M  V30 8166 C 734.937 4.72739 -3.24507 0
M  V30 8167 N 734.433 5.6282 -4.03987 0
M  V30 8168 N 736.226 4.66581 -3.13462 0
M  V30 8169 H 728.377 0.996289 -1.87584 0
M  V30 8170 H 730.64 0.498921 -0.80609 0
M  V30 8171 H 730.346 2.32758 -2.6366 0
M  V30 8172 H 730.22 3.52005 -1.35545 0
M  V30 8173 H 732.607 2.89184 -0.587913 0
M  V30 8174 H 732.688 1.7101 -1.90235 0
M  V30 8175 H 732.332 3.59438 -3.58841 0
M  V30 8176 H 732.262 4.76315 -2.2457 0
M  V30 8177 H 734.753 3.22649 -1.96739 0
M  V30 8178 H 735.066 6.25095 -4.54396 0
M  V30 8179 H 733.411 5.62574 -4.08088 0
M  V30 8180 H 736.602 3.9521 -2.50852 0
M  V30 8181 H 736.775 5.33141 -3.68327 0
M  V30 8182 N 730.181 0.707592 1.40822 0
M  V30 8183 C 731.409 0.253073 2.05346 0
M  V30 8184 C 731.824 -1.10218 1.53289 0
M  V30 8185 O 731.181 -1.69112 0.686105 0
M  V30 8186 C 731.232 0.215411 3.60858 0
M  V30 8187 O 730.953 1.51714 4.10992 0
M  V30 8188 C 732.454 -0.258636 4.42545 0
M  V30 8189 H 729.674 0.115256 0.661027 0
M  V30 8190 H 732.218 0.963555 1.80377 0
M  V30 8191 H 730.373 -0.445978 3.84824 0
M  V30 8192 H 730.787 1.41226 5.05129 0
M  V30 8193 H 732.261 -0.233849 5.51504 0
M  V30 8194 H 732.738 -1.2995 4.19535 0
M  V30 8195 H 733.344 0.372186 4.23668 0
M  V30 8196 N 731.66 -1.50943 0.453197 0
M  V30 8197 C 732.909 -2.01402 -0.10951 0
M  V30 8198 C 733.222 -1.3411 -1.42386 0
M  V30 8199 O 734.428 -1.75626 -2.07045 0
M  V30 8200 C 732.884 -3.5906 -0.245693 0
M  V30 8201 C 732.492 -4.353 1.05916 0
M  V30 8202 C 734.236 -4.17617 -0.761318 0
M  V30 8203 C 732.143 -5.84699 0.887752 0
M  V30 8204 H 731.073 -0.752674 -0.0447013 0
M  V30 8205 H 733.724 -1.73913 0.585375 0
M  V30 8206 H 732.106 -3.83062 -1.00395 0
M  V30 8207 H 733.28 -4.23034 1.82698 0
M  V30 8208 H 731.595 -3.88269 1.50452 0
M  V30 8209 H 734.192 -5.26963 -0.906306 0
M  V30 8210 H 734.535 -3.77824 -1.74799 0
M  V30 8211 H 735.068 -3.97753 -0.0609416 0
M  V30 8212 H 731.807 -6.28933 1.84726 0
M  V30 8213 H 731.327 -5.99587 0.160006 0
M  V30 8214 H 733.006 -6.44682 0.547223 0
M  V30 8215 N 733.138 -0.185124 -1.56509 0
M  V30 8216 C 734.068 0.735098 -2.21627 0
M  V30 8217 C 735.049 1.2288 -1.1762 0
M  V30 8218 O 736.234 1.27945 -1.46095 0
M  V30 8219 C 733.364 1.95889 -2.86783 0
M  V30 8220 C 732.318 1.6005 -3.96948 0
M  V30 8221 C 731.644 2.90009 -4.4922 0
M  V30 8222 C 732.944 0.818008 -5.15855 0
M  V30 8223 H 734.638 0.192274 -2.98782 0
M  V30 8224 H 732.184 0.0910393 -1.43712 0
M  V30 8225 H 734.137 2.60779 -3.31017 0
M  V30 8226 H 732.861 2.52608 -2.07018 0
M  V30 8227 H 731.52 0.975237 -3.5339 0
M  V30 8228 H 731.168 3.44797 -3.6623 0
M  V30 8229 H 730.868 2.66778 -5.23549 0
M  V30 8230 H 732.392 3.55904 -4.9615 0
M  V30 8231 H 733.806 1.36979 -5.56695 0
M  V30 8232 H 732.203 0.684207 -5.96187 0
M  V30 8233 H 733.273 -0.182939 -4.84555 0
M  V30 8234 N 734.616 1.57351 0.0885366 0
M  V30 8235 C 735.841 1.91011 0.80805 0
M  V30 8236 C 736.266 0.780009 1.71165 0
M  V30 8237 O 735.624 -0.268083 1.79307 0
M  V30 8238 C 735.672 3.23562 1.59185 0
M  V30 8239 O 734.776 3.11615 2.7013 0
M  V30 8240 H 734.117 0.625943 0.221565 0
M  V30 8241 H 736.647 2.04507 0.0617954 0
M  V30 8242 H 736.657 3.5703 1.97468 0
M  V30 8243 H 735.332 4.05398 0.928741 0
M  V30 8244 H 733.909 2.89673 2.34827 0
M  V30 8245 N 736.094 -0.359525 1.53444 0
M  V30 8246 C 737.34 -1.10315 1.70172 0
M  V30 8247 C 737.673 -1.88788 0.455287 0
M  V30 8248 O 736.948 -1.86635 -0.547514 0
M  V30 8249 C 737.231 -2.05744 2.95536 0
M  V30 8250 C 737.084 -1.3084 4.3035 0
M  V30 8251 C 738.403 -3.05784 3.16518 0
M  V30 8252 H 735.522 -0.399662 0.619225 0
M  V30 8253 H 738.164 -0.383338 1.86093 0
M  V30 8254 H 736.314 -2.67125 2.82093 0
M  V30 8255 H 737.986 -0.721959 4.55615 0
M  V30 8256 H 736.229 -0.610283 4.29486 0
M  V30 8257 H 736.9 -2.00718 5.14214 0
M  V30 8258 H 739.376 -2.5451 3.29187 0
M  V30 8259 H 738.252 -3.69772 4.05659 0
M  V30 8260 H 738.513 -3.76289 2.32076 0
M  V30 8261 N 737.572 -1.44907 -0.619662 0
M  V30 8262 C 738.821 -1.47569 -1.37501 0
M  V30 8263 C 739.134 -0.116707 -1.95252 0
M  V30 8264 O 740.34 -0.020909 -2.71492 0
M  V30 8265 C 738.796 -2.59851 -2.49009 0
M  V30 8266 C 738.404 -4.02008 -1.97722 0
M  V30 8267 C 740.148 -2.71746 -3.2612 0
M  V30 8268 C 738.055 -5.05693 -3.0664 0
M  V30 8269 H 736.985 -0.549068 -0.51676 0
M  V30 8270 H 739.636 -1.71009 -0.665437 0
M  V30 8271 H 738.018 -2.29671 -3.22594 0
M  V30 8272 H 739.192 -4.41809 -1.30925 0
M  V30 8273 H 737.507 -3.94456 -1.33392 0
M  V30 8274 H 740.104 -3.46382 -4.07337 0
M  V30 8275 H 740.447 -1.77959 -3.76346 0
M  V30 8276 H 740.98 -3.01392 -2.5963 0
M  V30 8277 H 737.719 -6.01148 -2.61345 0
M  V30 8278 H 737.239 -4.70473 -3.72042 0
M  V30 8279 H 738.918 -5.29906 -3.71226 0
M  V30 8280 N 739.05 0.861098 -1.31996 0
M  V30 8281 C 740.298 1.61162 -1.21947 0
M  V30 8282 C 740.619 1.93751 0.220351 0
M  V30 8283 O 739.889 1.59069 1.14341 0
M  V30 8284 H 738.469 0.597485 -0.448353 0
M  V30 8285 H 741.131 1.03039 -1.65436 0
M  V30 8286 H 740.227 2.55138 -1.79752 0
M  V30 8287 N 740.528 1.15101 1.07655 0
M  V30 8288 C 741.458 0.867864 2.16773 0
M  V30 8289 C 742.439 -0.180283 1.69142 0
M  V30 8290 O 743.624 -0.0353152 1.94168 0
M  V30 8291 C 740.754 0.35299 3.45501 0
M  V30 8292 C 739.708 1.33746 4.06566 0
M  V30 8293 C 739.034 0.681562 5.30338 0
M  V30 8294 C 740.334 2.7024 4.46954 0
M  V30 8295 H 742.028 1.78034 2.40716 0
M  V30 8296 H 739.574 0.857435 1.15689 0
M  V30 8297 H 741.527 0.142465 4.21159 0
M  V30 8298 H 740.251 -0.594945 3.21135 0
M  V30 8299 H 738.91 1.53429 3.32949 0
M  V30 8300 H 738.558 -0.272422 5.02262 0
M  V30 8301 H 738.258 1.33853 5.72151 0
M  V30 8302 H 739.782 0.48074 6.08705 0
M  V30 8303 H 741.196 2.5442 5.13754 0
M  V30 8304 H 739.593 3.32282 4.99709 0
M  V30 8305 H 740.663 3.26537 3.58471 0
M  V30 8306 N 742.006 -1.2595 0.947325 0
M  V30 8307 C 743.255 -1.92759 0.593887 0
M  V30 8308 C 743.568 -1.75083 -0.872093 0
M  V30 8309 O 744.774 -2.36401 -1.33518 0
M  V30 8310 C 743.23 -3.45395 1.01144 0
M  V30 8311 C 742.838 -3.71795 2.49946 0
M  V30 8312 C 744.582 -4.18173 0.730185 0
M  V30 8313 C 742.489 -5.17901 2.85539 0
M  V30 8314 H 741.419 -0.721676 0.218403 0
M  V30 8315 H 744.07 -1.4293 1.15079 0
M  V30 8316 H 742.452 -3.94143 0.383007 0
M  V30 8317 H 743.626 -3.33728 3.17746 0
M  V30 8318 H 741.941 -3.12263 2.75465 0
M  V30 8319 H 744.538 -5.25784 0.972367 0
M  V30 8320 H 744.881 -4.14964 -0.333223 0
M  V30 8321 H 745.414 -3.75309 1.31862 0
M  V30 8322 H 742.153 -5.26216 3.90867 0
M  V30 8323 H 741.673 -5.57042 2.22406 0
M  V30 8324 H 743.352 -5.8596 2.74336 0
M  V30 8325 N 743.484 -0.715051 -1.40445 0
M  V30 8326 C 744.733 -0.251322 -2.00128 0
M  V30 8327 C 745.046 1.16194 -1.57347 0
M  V30 8328 O 746.252 1.72416 -2.09726 0
M  V30 8329 C 744.708 -0.398407 -3.57688 0
M  V30 8330 C 744.316 -1.81828 -4.09442 0
M  V30 8331 C 746.06 0.00455625 -4.245 0
M  V30 8332 C 743.967 -1.91598 -5.59503 0
M  V30 8333 H 742.897 -0.0902081 -0.748584 0
M  V30 8334 H 745.548 -0.886062 -1.6069 0
M  V30 8335 H 743.93 0.304908 -3.94824 0
M  V30 8336 H 745.104 -2.55193 -3.83684 0
M  V30 8337 H 743.419 -2.17266 -3.55225 0
M  V30 8338 H 746.016 -0.0477303 -5.34679 0
M  V30 8339 H 746.359 1.04636 -4.02935 0
M  V30 8340 H 746.892 -0.649184 -3.92467 0
M  V30 8341 H 743.631 -2.93898 -5.85922 0
M  V30 8342 H 743.151 -1.22644 -5.87127 0
M  V30 8343 H 744.83 -1.68785 -6.24596 0
M  V30 8344 N 744.962 1.50701 -0.461195 0
M  V30 8345 C 746.373 1.867 -0.00370227 0
M  V30 8346 C 746.724 1.37673 1.39787 0
M  V30 8347 O 745.849 0.737515 2.03445 0
M  V30 8348 C 746.444 3.388 5.75786e-05 0
M  V30 8349 C 745.003 3.74247 0.402044 0
M  V30 8350 C 744.15 2.74549 -0.389652 0
M  V30 8351 H 747.101 1.43585 -0.675942 0
M  V30 8352 H 747.122 3.719 0.804414 0
M  V30 8353 H 746.634 3.74452 -1.02015 0
M  V30 8354 H 744.735 3.44192 1.42697 0
M  V30 8355 H 744.848 4.78973 0.110265 0
M  V30 8356 H 743.212 2.54226 0.155314 0
M  V30 8357 H 743.995 3.13044 -1.40919 0
M  V30 8358 N 746.441 0.193421 1.56409 0
M  V30 8359 C 747.371 -0.723334 2.22014 0
M  V30 8360 C 748.352 -1.22254 1.1827 0
M  V30 8361 O 749.537 -1.27168 1.46771 0
M  V30 8362 C 746.667 -1.94366 2.87818 0
M  V30 8363 C 745.621 -1.57943 3.97791 0
M  V30 8364 C 744.947 -2.87623 4.50752 0
M  V30 8365 C 746.247 -0.790639 5.16281 0
M  V30 8366 H 747.941 -0.176426 2.9888 0
M  V30 8367 H 745.487 -0.0834166 1.43758 0
M  V30 8368 H 747.44 -2.5902 3.32396 0
M  V30 8369 H 746.164 -2.51507 2.08355 0
M  V30 8370 H 744.823 -0.956482 3.53903 0
M  V30 8371 H 744.471 -3.4285 3.68053 0
M  V30 8372 H 744.171 -2.63998 5.24956 0
M  V30 8373 H 745.695 -3.53268 4.9803 0
M  V30 8374 H 747.109 -1.34024 5.57414 0
M  V30 8375 H 745.506 -0.65258 5.96541 0
M  V30 8376 H 746.576 0.208633 4.84451 0
M  V30 8377 N 747.919 -1.57396 -0.0801906 0
M  V30 8378 C 749.147 -1.91055 -0.794075 0
M  V30 8379 C 749.562 -0.788583 -1.71542 0
M  V30 8380 O 748.919 0.238587 -1.80934 0
M  V30 8381 C 748.97 -3.24418 -1.59484 0
M  V30 8382 O 748.691 -4.323 -0.710532 0
M  V30 8383 C 750.192 -3.72037 -2.41046 0
M  V30 8384 H 747.412 -0.63171 -0.226238 0
M  V30 8385 H 749.956 -2.04431 -0.0529685 0
M  V30 8386 H 748.111 -3.12595 -2.2883 0
M  V30 8387 H 748.525 -5.08976 -1.26663 0
M  V30 8388 H 749.999 -4.68006 -2.92702 0
M  V30 8389 H 750.476 -3.00624 -3.2019 0
M  V30 8390 H 751.082 -3.86777 -1.76871 0
M  V30 8391 N 749.397 0.351382 -1.53633 0
M  V30 8392 C 750.329 1.45159 -1.77374 0
M  V30 8393 C 751.342 1.4905 -0.654826 0
M  V30 8394 O 752.531 1.52274 -0.931396 0
M  V30 8395 C 749.631 2.83858 -1.85143 0
M  V30 8396 C 748.804 3.03498 -3.14972 0
M  V30 8397 C 747.863 4.22393 -3.138 0
M  V30 8398 O 746.889 4.16885 -3.87551 0
M  V30 8399 N 748.091 5.30533 -2.35617 0
M  V30 8400 H 750.856 1.25167 -2.72311 0
M  V30 8401 H 748.417 0.54121 -1.52586 0
M  V30 8402 H 750.409 3.61557 -1.8182 0
M  V30 8403 H 748.979 2.9703 -0.974275 0
M  V30 8404 H 748.199 2.13336 -3.31484 0
M  V30 8405 H 749.487 3.13498 -4.00745 0
M  V30 8406 H 748.885 5.37875 -1.75235 0
M  V30 8407 H 747.442 6.06756 -2.38098 0
M  V30 8408 N 750.875 1.45233 0.611969 0
M  V30 8409 C 752.152 1.39495 1.37115 0
M  V30 8410 C 752.532 0.0633303 2.11005 0
M  V30 8411 O 751.88 -0.954617 2.07604 0
M  V30 8412 C 752.09 2.60579 2.32163 0
M  V30 8413 C 753.438 3.05477 2.94905 0
M  V30 8414 O 754.462 2.60921 2.42485 0
M  V30 8415 O 753.321 3.82787 3.90047 0
M  V30 8416 H 750.415 0.55335 0.614599 0
M  V30 8417 H 752.961 1.57355 0.635423 0
M  V30 8418 H 751.733 3.49085 1.76793 0
M  V30 8419 H 751.356 2.45031 3.13122 0
M  V30 8420 N 752.353 -0.854086 1.3245 0
M  V30 8421 C 753.581 -1.64074 1.26045 0
M  V30 8422 C 753.996 -1.8802 -0.171456 0
M  V30 8423 O 753.353 -1.4496 -1.10873 0
M  V30 8424 C 753.404 -2.9997 2.01743 0
M  V30 8425 O 753.125 -2.77084 3.39346 0
M  V30 8426 C 754.626 -3.94414 2.02368 0
M  V30 8427 H 751.846 -0.511015 0.434862 0
M  V30 8428 H 754.39 -1.06494 1.74583 0
M  V30 8429 H 752.545 -3.54193 1.56926 0
M  V30 8430 H 752.959 -3.63514 3.78098 0
M  V30 8431 H 754.433 -4.87032 2.59815 0
M  V30 8432 H 754.91 -4.27427 1.01009 0
M  V30 8433 H 755.516 -3.46127 2.47135 0
M  V30 8434 N 753.831 -1.1567 -1.07043 0
M  V30 8435 C 755.078 -0.933517 -1.79699 0
M  V30 8436 C 755.406 0.539162 -1.86878 0
M  V30 8437 O 754.661 1.41592 -1.35093 0
M  V30 8438 C 754.96 -1.49677 -3.24548 0
M  V30 8439 C 754.626 -2.99047 -3.37463 0
M  V30 8440 C 753.288 -3.39824 -3.40695 0
M  V30 8441 C 755.64 -3.95027 -3.40004 0
M  V30 8442 C 752.968 -4.75215 -3.44075 0
M  V30 8443 C 755.32 -5.30295 -3.44921 0
M  V30 8444 C 753.984 -5.70562 -3.46432 0
M  V30 8445 H 753.254 -0.341598 -0.657565 0
M  V30 8446 H 755.901 -1.44263 -1.25938 0
M  V30 8447 H 754.206 -0.908915 -3.81111 0
M  V30 8448 H 755.903 -1.29986 -3.79348 0
M  V30 8449 H 752.493 -2.6653 -3.35648 0
M  V30 8450 H 756.677 -3.64596 -3.36725 0
M  V30 8451 H 751.933 -5.05754 -3.43545 0
M  V30 8452 H 756.107 -6.0446 -3.45833 0
M  V30 8453 H 753.734 -6.75456 -3.48803 0
M  V30 8454 N 755.309 1.25446 -0.953992 0
M  V30 8455 C 756.558 1.92441 -0.604101 0
M  V30 8456 C 756.871 1.75543 0.862796 0
M  V30 8457 O 758.077 2.37106 1.32262 0
M  V30 8458 C 756.533 3.44854 -1.02974 0
M  V30 8459 C 756.141 3.70464 -2.51914 0
M  V30 8460 C 757.885 4.1778 -0.752352 0
M  V30 8461 C 755.792 5.1638 -2.88281 0
M  V30 8462 H 754.722 0.720508 -0.222227 0
M  V30 8463 H 757.373 1.42318 -1.15836 0
M  V30 8464 H 755.755 3.93935 -0.403904 0
M  V30 8465 H 756.929 3.32038 -3.19511 0
M  V30 8466 H 755.244 3.10797 -2.77117 0
M  V30 8467 H 757.841 5.25261 -1.00024 0
M  V30 8468 H 758.184 4.15135 0.311212 0
M  V30 8469 H 758.717 3.74605 -1.33851 0
M  V30 8470 H 755.456 5.24135 -3.93653 0
M  V30 8471 H 754.976 5.55855 -2.25357 0
M  V30 8472 H 756.655 5.84497 -2.77439 0
M  V30 8473 N 756.787 0.722489 1.40064 0
M  V30 8474 C 757.735 0.063329 2.32514 0
M  V30 8475 C 758.729 -0.73953 1.52405 0
M  V30 8476 O 759.935 -0.642122 1.68157 0
M  V30 8477 H 756.31 0.00167692 0.751998 0
M  V30 8478 H 758.281 0.859656 2.85749 0
M  V30 8479 C 757.03 -0.839219 3.3742 0
M  V30 8480 H 756.353 -0.230836 3.99133 0
M  V30 8481 H 757.793 -1.26827 4.04587 0
M  V30 8482 C 756.252 -1.96783 2.73456 0
M  V30 8483 O 756.782 -3.05933 2.60323 0
M  V30 8484 N 754.988 -1.75351 2.31734 0
M  V30 8485 H 754.535 -0.865787 2.42615 0
M  V30 8486 H 754.493 -2.51043 1.89275 0
M  V30 8487 N 758.265 -1.50454 0.469181 0
M  V30 8488 C 759.213 -2.30101 -0.340033 0
M  V30 8489 C 760.207 -1.37306 -0.992135 0
M  V30 8490 O 761.413 -1.54506 -0.923458 0
M  V30 8491 H 757.788 -0.740941 -0.128495 0
M  V30 8492 H 759.759 -2.96315 0.352144 0
M  V30 8493 C 758.508 -3.17804 -1.41052 0
M  V30 8494 H 757.831 -3.89115 -0.918124 0
M  V30 8495 H 759.271 -3.76533 -1.94934 0
M  V30 8496 C 757.73 -2.35272 -2.4114 0
M  V30 8497 O 758.26 -2.03448 -3.4637 0
M  V30 8498 N 756.466 -1.97889 -2.1281 0
M  V30 8499 H 756.013 -2.2397 -1.27261 0
M  V30 8500 H 755.971 -1.42971 -2.80012 0
M  V30 8501 N 759.743 -0.201713 -1.56304 0
M  V30 8502 C 760.99 0.435307 -1.97766 0
M  V30 8503 C 761.318 1.61169 -1.0888 0
M  V30 8504 O 760.573 1.95272 -0.12934 0
M  V30 8505 C 760.872 0.931432 -3.45049 0
M  V30 8506 C 760.538 -0.132287 -4.50706 0
M  V30 8507 C 759.2 -0.424552 -4.79323 0
M  V30 8508 C 761.552 -0.852703 -5.14177 0
M  V30 8509 C 758.88 -1.4421 -5.68701 0
M  V30 8510 C 761.232 -1.85944 -6.04655 0
M  V30 8511 C 759.896 -2.15884 -6.31625 0
M  V30 8512 H 759.166 0.15929 -0.723676 0
M  V30 8513 H 761.813 -0.300069 -1.89134 0
M  V30 8514 H 760.118 1.7452 -3.50785 0
M  V30 8515 H 761.815 1.43383 -3.74489 0
M  V30 8516 H 758.405 0.105671 -4.2847 0
M  V30 8517 H 762.589 -0.640139 -4.92154 0
M  V30 8518 H 757.845 -1.6799 -5.87869 0
M  V30 8519 H 762.019 -2.42286 -6.52894 0
M  V30 8520 H 759.646 -2.94875 -7.0068 0
M  V30 8521 N 761.222 1.57436 0.0718424 0
M  V30 8522 C 762.152 2.06724 1.08571 0
M  V30 8523 C 763.133 0.960731 1.40371 0
M  V30 8524 O 764.318 1.23345 1.49999 0
M  V30 8525 C 761.448 2.51112 2.39916 0
M  V30 8526 C 760.402 3.65639 2.22469 0
M  V30 8527 C 759.728 3.96082 3.59198 0
M  V30 8528 C 761.028 4.95687 1.64596 0
M  V30 8529 H 762.722 2.91679 0.675569 0
M  V30 8530 H 760.268 1.40319 0.32352 0
M  V30 8531 H 762.221 2.84206 3.11135 0
M  V30 8532 H 760.945 1.63186 2.8291 0
M  V30 8533 H 759.604 3.32828 1.53691 0
M  V30 8534 H 759.252 3.05287 3.99761 0
M  V30 8535 H 758.952 4.73199 3.48362 0
M  V30 8536 H 760.476 4.31672 4.31847 0
M  V30 8537 H 761.89 5.27011 2.25681 0
M  V30 8538 H 760.287 5.77126 1.64457 0
M  V30 8539 H 761.357 4.8108 0.60744 0
M  V30 8540 N 762.7 -0.34323 1.53817 0
M  V30 8541 C 763.947 -1.08344 1.71079 0
M  V30 8542 C 764.275 -1.88633 0.474133 0
M  V30 8543 O 763.53 -1.87984 -0.544116 0
M  V30 8544 C 763.829 -2.05195 2.92626 0
M  V30 8545 C 763.495 -1.41215 4.28216 0
M  V30 8546 C 762.157 -1.23495 4.65083 0
M  V30 8547 C 764.509 -0.951273 5.12445 0
M  V30 8548 C 761.837 -0.583065 5.83796 0
M  V30 8549 C 764.189 -0.313292 6.31824 0
M  V30 8550 C 762.853 -0.123779 6.67385 0
M  V30 8551 H 762.123 -0.396458 0.626021 0
M  V30 8552 H 764.77 -0.362689 1.88034 0
M  V30 8553 H 763.075 -2.83653 2.70275 0
M  V30 8554 H 764.772 -2.62462 3.03175 0
M  V30 8555 H 761.362 -1.56005 3.992 0
M  V30 8556 H 765.546 -1.07602 4.84495 0
M  V30 8557 H 760.802 -0.424854 6.09922 0
M  V30 8558 H 764.976 0.0519179 6.96381 0
M  V30 8559 H 762.603 0.383398 7.59233 0
M  V30 8560 N 764.178 -1.45556 -0.604258 0
M  V30 8561 C 765.125 -1.54482 -1.71476 0
M  V30 8562 C 766.095 -0.390479 -1.61445 0
M  V30 8563 O 767.28 -0.604371 -1.80975 0
M  V30 8564 C 764.42 -1.52064 -3.09791 0
M  V30 8565 C 763.533 -2.78073 -3.30604 0
M  V30 8566 C 762.668 -2.67304 -4.59044 0
M  V30 8567 C 761.707 -3.88352 -4.73127 0
M  V30 8568 N 760.844 -3.76098 -5.9287 0
M  V30 8569 H 765.684 -2.49349 -1.63184 0
M  V30 8570 H 763.221 -1.23725 -0.795641 0
M  V30 8571 H 765.179 -1.48649 -3.89819 0
M  V30 8572 H 763.809 -0.607442 -3.17033 0
M  V30 8573 H 762.861 -2.91561 -2.44329 0
M  V30 8574 H 764.173 -3.67847 -3.36883 0
M  V30 8575 H 763.327 -2.61875 -5.47272 0
M  V30 8576 H 762.066 -1.75135 -4.55169 0
M  V30 8577 H 761.071 -3.94137 -3.83322 0
M  V30 8578 H 762.296 -4.81591 -4.78797 0
M  V30 8579 H 760.242 -2.867 -5.90033 0
M  V30 8580 H 760.159 -4.59509 -6.00323 0
M  V30 8581 H 761.427 -3.74607 -6.83586 0
M  V30 8582 N 765.656 0.84705 -1.32902 0
M  V30 8583 C 766.896 1.61554 -1.25218 0
M  V30 8584 C 767.26 1.91141 0.18143 0
M  V30 8585 O 768.461 2.6607 0.382106 0
M  V30 8586 C 766.732 2.89553 -2.09509 0
M  V30 8587 S 768.291 3.80283 -2.18931 0
M  V30 8588 H 765.109 0.554031 -0.445613 0
M  V30 8589 H 767.711 1.00251 -1.67839 0
M  V30 8590 H 766.415 2.65776 -3.12716 0
M  V30 8591 H 765.946 3.55868 -1.67694 0
M  V30 8592 H 767.961 4.77641 -1.34438 0
M  V30 8593 N 767.134 1.16236 1.06428 0
M  V30 8594 C 768.097 0.870163 2.1204 0
M  V30 8595 C 769.097 -0.134239 1.60239 0
M  V30 8596 O 770.287 0.0964932 1.73933 0
M  V30 8597 C 767.419 0.301033 3.39568 0
M  V30 8598 H 768.612 1.8064 2.39394 0
M  V30 8599 H 766.165 0.971116 1.2247 0
M  V30 8600 H 766.9 -0.642948 3.17863 0
M  V30 8601 H 766.685 1.02475 3.78472 0
M  V30 8602 H 768.175 0.114494 4.17443 0
M  V30 8603 N 768.612 -1.24939 0.960631 0
M  V30 8604 C 769.542 -2.28 0.503815 0
M  V30 8605 C 770.523 -1.63959 -0.452928 0
M  V30 8606 O 771.708 -1.91009 -0.350585 0
M  V30 8607 C 768.838 -3.46643 -0.213535 0
M  V30 8608 C 767.792 -4.22903 0.658535 0
M  V30 8609 C 767.118 -5.34363 -0.189902 0
M  V30 8610 C 768.418 -4.84949 1.93963 0
M  V30 8611 H 770.112 -2.66462 1.36521 0
M  V30 8612 H 767.658 -1.28093 0.657897 0
M  V30 8613 H 769.611 -4.1787 -0.544286 0
M  V30 8614 H 768.335 -3.07187 -1.10923 0
M  V30 8615 H 766.994 -3.53467 0.972455 0
M  V30 8616 H 766.642 -4.91147 -1.08553 0
M  V30 8617 H 766.342 -5.86302 0.390331 0
M  V30 8618 H 767.866 -6.0842 -0.515484 0
M  V30 8619 H 769.28 -5.48288 1.67491 0
M  V30 8620 H 767.677 -5.47091 2.46601 0
M  V30 8621 H 768.747 -4.06799 2.639 0
M  V30 8622 N 770.09 -0.729906 -1.39679 0
M  V30 8623 C 771.339 -0.272534 -1.9985 0
M  V30 8624 C 771.652 1.14519 -1.58571 0
M  V30 8625 O 772.858 1.70182 -2.11543 0
M  V30 8626 C 771.314 -0.436322 -3.57245 0
M  V30 8627 C 770.922 -1.86161 -4.0749 0
M  V30 8628 C 772.666 -0.0404679 -4.24481 0
M  V30 8629 C 770.573 -1.97522 -5.5744 0
M  V30 8630 H 769.503 -0.0981428 -0.747585 0
M  V30 8631 H 772.154 -0.903056 -1.59741 0
M  V30 8632 H 770.536 0.263015 -3.95126 0
M  V30 8633 H 771.71 -2.59248 -3.80955 0
M  V30 8634 H 770.025 -2.21021 -3.529 0
M  V30 8635 H 772.622 -0.104437 -5.34598 0
M  V30 8636 H 772.965 1.00357 -4.04023 0
M  V30 8637 H 773.498 -0.690774 -3.91757 0
M  V30 8638 H 770.237 -3.00096 -5.82771 0
M  V30 8639 H 769.757 -1.28864 -5.85794 0
M  V30 8640 H 771.436 -1.754 -6.22771 0
M  V30 8641 N 771.568 1.50203 -0.477153 0
M  V30 8642 C 772.815 2.02358 0.0757385 0
M  V30 8643 C 773.143 1.3587 1.39174 0
M  V30 8644 O 772.398 0.475415 1.89838 0
M  V30 8645 C 772.697 3.56127 0.301325 0
M  V30 8646 C 772.363 4.41126 -0.933725 0
M  V30 8647 C 771.025 4.64075 -1.27233 0
M  V30 8648 C 773.377 4.90737 -1.75576 0
M  V30 8649 C 770.705 5.33878 -2.43292 0
M  V30 8650 C 773.057 5.61816 -2.90768 0
M  V30 8651 C 771.721 5.83016 -3.25036 0
M  V30 8652 H 770.991 0.740482 0.0277147 0
M  V30 8653 H 773.638 1.80754 -0.632467 0
M  V30 8654 H 771.943 3.76279 1.09183 0
M  V30 8655 H 773.64 3.94053 0.743184 0
M  V30 8656 H 770.23 4.23489 -0.659935 0
M  V30 8657 H 774.414 4.72856 -1.50734 0
M  V30 8658 H 769.67 5.48499 -2.70109 0
M  V30 8659 H 773.844 5.99237 -3.54807 0
M  V30 8660 H 771.471 6.36881 -4.15074 0
M  V30 8661 N 773.046 0.209999 1.56195 0
M  V30 8662 C 773.976 -0.699746 2.22769 0
M  V30 8663 C 774.957 -1.20993 1.1956 0
M  V30 8664 O 776.142 -1.25605 1.48112 0
M  V30 8665 C 773.272 -1.91302 2.89863 0
M  V30 8666 C 772.226 -1.53715 3.99444 0
M  V30 8667 C 771.552 -2.82826 4.53777 0
M  V30 8668 C 772.852 -0.735836 5.17091 0
M  V30 8669 H 774.546 -0.144716 2.9905 0
M  V30 8670 H 772.092 -0.0681645 1.43839 0
M  V30 8671 H 774.045 -2.5548 3.35124 0
M  V30 8672 H 772.769 -2.49283 2.11011 0
M  V30 8673 H 771.428 -0.918892 3.54897 0
M  V30 8674 H 771.076 -3.38927 3.71669 0
M  V30 8675 H 770.776 -2.58415 5.27727 0
M  V30 8676 H 772.3 -3.47966 5.01749 0
M  V30 8677 H 773.714 -1.28105 5.58804 0
M  V30 8678 H 772.111 -0.589272 5.972 0
M  V30 8679 H 773.181 0.260004 4.84202 0
M  V30 8680 N 774.524 -1.57472 -0.0634922 0
M  V30 8681 C 775.472 -2.05307 -1.09323 0
M  V30 8682 C 776.466 -0.959995 -1.39572 0
M  V30 8683 O 777.672 -1.14507 -1.38882 0
M  V30 8684 H 774.047 -0.65472 -0.369927 0
M  V30 8685 H 776.018 -2.90925 -0.663707 0
M  V30 8686 C 774.767 -2.51954 -2.39613 0
M  V30 8687 H 774.09 -3.35662 -2.1719 0
M  V30 8688 H 775.53 -2.89169 -3.10092 0
M  V30 8689 C 773.989 -1.40596 -3.06161 0
M  V30 8690 O 774.519 -0.752722 -3.94585 0
M  V30 8691 N 772.725 -1.14902 -2.66919 0
M  V30 8692 H 772.272 -1.68205 -1.95102 0
M  V30 8693 H 772.23 -0.406006 -3.11767 0
M  V30 8694 N 776.003 0.335068 -1.53997 0
M  V30 8695 C 777.252 1.07182 -1.70865 0
M  V30 8696 C 777.565 1.89541 -0.483078 0
M  V30 8697 O 778.771 2.66219 -0.532879 0
M  V30 8698 C 777.227 1.95497 -3.02174 0
M  V30 8699 C 776.835 1.18304 -4.32097 0
M  V30 8700 C 778.579 2.68978 -3.28407 0
M  V30 8701 C 776.486 2.05699 -5.54474 0
M  V30 8702 H 775.416 0.403857 -0.636722 0
M  V30 8703 H 778.067 0.33076 -1.80494 0
M  V30 8704 H 776.449 2.73456 -2.86423 0
M  V30 8705 H 777.623 0.451969 -4.58578 0
M  V30 8706 H 775.938 0.565556 -4.12541 0
M  V30 8707 H 778.535 3.34651 -4.17029 0
M  V30 8708 H 778.878 3.36 -2.45784 0
M  V30 8709 H 779.411 1.98087 -3.44973 0
M  V30 8710 H 776.15 1.43204 -6.39666 0
M  V30 8711 H 775.67 2.76572 -5.32229 0
M  V30 8712 H 777.349 2.64554 -5.90441 0
M  V30 8713 N 777.481 1.45874 0.596531 0
M  V30 8714 C 778.711 1.5379 1.37958 0
M  V30 8715 C 779.119 0.173086 1.88407 0
M  V30 8716 O 778.462 -0.837498 1.63498 0
M  V30 8717 C 778.524 2.47044 2.61169 0
M  V30 8718 C 778.188 3.93565 2.32283 0
M  V30 8719 C 779.185 4.83162 1.91965 0
M  V30 8720 C 776.87 4.38579 2.44854 0
M  V30 8721 C 778.864 6.15782 1.64593 0
M  V30 8722 C 776.551 5.71238 2.17095 0
M  V30 8723 C 777.549 6.59659 1.77028 0
M  V30 8724 O 777.237 7.89857 1.49601 0
M  V30 8725 H 776.969 0.523 0.428307 0
M  V30 8726 H 779.523 1.91855 0.733529 0
M  V30 8727 H 777.753 2.0397 3.28532 0
M  V30 8728 H 779.442 2.4552 3.23226 0
M  V30 8729 H 780.208 4.49646 1.8178 0
M  V30 8730 H 776.087 3.6999 2.75006 0
M  V30 8731 H 779.631 6.84757 1.33245 0
M  V30 8732 H 775.528 6.04306 2.26901 0
M  V30 8733 H 776.296 8.01991 1.63561 0
M  V30 8734 N 778.959 -0.83999 1.33349 0
M  V30 8735 C 779.889 -1.965 1.26135 0
M  V30 8736 C 780.87 -1.69505 0.142152 0
M  V30 8737 O 782.055 -1.91346 0.331743 0
M  V30 8738 C 779.185 -3.32632 0.99866 0
M  V30 8739 C 778.139 -3.74021 2.08068 0
M  V30 8740 C 777.465 -5.07947 1.67014 0
M  V30 8741 C 778.765 -3.87925 3.49731 0
M  V30 8742 H 780.459 -2.02793 2.20262 0
M  V30 8743 H 778.005 -0.974297 1.06035 0
M  V30 8744 H 779.958 -4.10903 0.934696 0
M  V30 8745 H 778.682 -3.26593 0.0217759 0
M  V30 8746 H 777.341 -2.98012 2.13505 0
M  V30 8747 H 776.989 -4.98378 0.680316 0
M  V30 8748 H 776.689 -5.36611 2.39422 0
M  V30 8749 H 778.213 -5.88695 1.62082 0
M  V30 8750 H 779.627 -4.5651 3.46802 0
M  V30 8751 H 778.024 -4.28023 4.20614 0
M  V30 8752 H 779.094 -2.90407 3.88319 0
M  V30 8753 N 780.437 -1.16799 -1.0581 0
M  V30 8754 C 781.385 -0.875111 -2.1551 0
M  V30 8755 C 782.379 0.157781 -1.68664 0
M  V30 8756 O 783.585 0.011297 -1.79996 0
M  V30 8757 H 779.96 -0.26542 -0.703602 0
M  V30 8758 H 781.931 -1.8076 -2.37421 0
M  V30 8759 C 780.68 -0.39802 -3.45414 0
M  V30 8760 H 780.003 -1.18425 -3.81858 0
M  V30 8761 H 781.443 -0.231913 -4.23365 0
M  V30 8762 C 779.902 0.88327 -3.25115 0
M  V30 8763 O 780.432 1.95145 -3.51114 0
M  V30 8764 N 778.638 0.828961 -2.78526 0
M  V30 8765 H 778.185 -0.0405029 -2.57568 0
M  V30 8766 H 778.143 1.68673 -2.65324 0
M  V30 8767 N 781.915 1.24427 -0.967243 0
M  V30 8768 C 783.163 1.92107 -0.627638 0
M  V30 8769 C 783.484 1.75991 0.83978 0
M  V30 8770 O 782.754 1.13118 1.59941 0
M  V30 8771 H 781.334 0.710986 -0.229145 0
M  V30 8772 H 783.996 1.51331 -1.22821 0
M  V30 8773 H 783.092 2.99791 -0.867844 0
M  V30 8774 N 783.393 0.737304 1.3929 0
M  V30 8775 C 784.639 0.295581 2.01241 0
M  V30 8776 C 784.994 -1.10561 1.57461 0
M  V30 8777 O 784.287 -1.74346 0.7946 0
M  V30 8778 C 784.481 0.338438 3.55794 0
M  V30 8779 C 784.31 1.74225 4.14579 0
M  V30 8780 C 783.08 2.35502 4.47065 0
M  V30 8781 C 785.278 2.69623 4.37959 0
M  V30 8782 N 783.26 3.68014 4.91365 0
M  V30 8783 C 784.631 3.86873 4.84489 0
M  V30 8784 C 786.686 2.67355 4.2003 0
M  V30 8785 C 785.389 5.02193 5.14971 0
M  V30 8786 C 787.415 3.8182 4.51627 0
M  V30 8787 C 786.777 4.97806 4.98366 0
M  V30 8788 H 782.876 0.154468 0.766592 0
M  V30 8789 H 785.46 0.963768 1.69173 0
M  V30 8790 H 783.631 -0.299406 3.87244 0
M  V30 8791 H 785.363 -0.122053 4.04516 0
M  V30 8792 H 782.118 1.87406 4.34943 0
M  V30 8793 H 782.542 4.36051 5.17869 0
M  V30 8794 H 787.184 1.78876 3.83097 0
M  V30 8795 H 784.902 5.913 5.50809 0
M  V30 8796 H 788.488 3.81366 4.39376 0
M  V30 8797 H 787.368 5.84909 5.22351 0
M  V30 8798 N 784.871 -1.49948 0.485112 0
M  V30 8799 C 786.118 -2.02396 -0.0650059 0
M  V30 8800 C 786.446 -1.36606 -1.38452 0
M  V30 8801 O 785.701 -0.485476 -1.89583 0
M  V30 8802 C 786 -3.56282 -0.282434 0
M  V30 8803 C 785.666 -4.40625 0.957106 0
M  V30 8804 C 784.328 -4.63393 1.29692 0
M  V30 8805 C 786.68 -4.89799 1.78176 0
M  V30 8806 C 784.008 -5.3258 2.4612 0
M  V30 8807 C 786.36 -5.60266 2.93743 0
M  V30 8808 C 785.024 -5.81284 3.28124 0
M  V30 8809 H 784.294 -0.740618 -0.0237873 0
M  V30 8810 H 786.941 -1.80416 0.642044 0
M  V30 8811 H 785.246 -3.76853 -1.07186 0
M  V30 8812 H 786.943 -3.94442 -0.722276 0
M  V30 8813 H 783.533 -4.23133 0.682384 0
M  V30 8814 H 787.717 -4.7205 1.53239 0
M  V30 8815 H 782.973 -5.47059 2.73014 0
M  V30 8816 H 787.147 -5.97347 3.5798 0
M  V30 8817 H 784.774 -6.34671 4.18446 0
M  V30 8818 N 786.349 -0.21828 -1.56081 0
M  V30 8819 C 787.595 0.414921 -1.9851 0
M  V30 8820 C 787.928 1.59648 -1.10573 0
M  V30 8821 O 787.203 1.93818 -0.162695 0
M  V30 8822 C 787.486 0.852647 -3.4986 0
M  V30 8823 C 787.339 -0.33232 -4.48571 0
M  V30 8824 C 788.658 1.70998 -4.05521 0
M  V30 8825 H 785.777 0.149344 -0.72171 0
M  V30 8826 H 788.419 -0.313858 -1.8739 0
M  V30 8827 H 786.569 1.47362 -3.59467 0
M  V30 8828 H 788.241 -0.970418 -4.50977 0
M  V30 8829 H 786.484 -0.980302 -4.22578 0
M  V30 8830 H 787.155 0.0168407 -5.51997 0
M  V30 8831 H 789.631 1.18606 -3.98838 0
M  V30 8832 H 788.507 1.98517 -5.11744 0
M  V30 8833 H 788.768 2.67219 -3.52202 0
M  V30 8834 N 787.827 1.57504 0.0551401 0
M  V30 8835 C 789.076 1.87237 0.750009 0
M  V30 8836 C 789.389 0.813268 1.77891 0
M  V30 8837 O 790.595 0.99898 2.52453 0
M  V30 8838 C 789.051 3.32187 1.38491 0
M  V30 8839 C 788.659 4.46267 0.393707 0
M  V30 8840 C 790.403 3.71101 2.06117 0
M  V30 8841 C 788.31 5.82265 1.03547 0
M  V30 8842 H 787.24 0.698524 0.283866 0
M  V30 8843 H 789.891 1.835 0.00365997 0
M  V30 8844 H 788.273 3.30588 2.18008 0
M  V30 8845 H 789.447 4.59289 -0.372865 0
M  V30 8846 H 787.762 4.16015 -0.17902 0
M  V30 8847 H 790.359 4.70012 2.54937 0
M  V30 8848 H 790.702 3.01751 2.86796 0
M  V30 8849 H 791.235 3.74762 1.33409 0
M  V30 8850 H 787.974 6.54949 0.268644 0
M  V30 8851 H 787.494 5.73012 1.7725 0
M  V30 8852 H 789.173 6.28148 1.55047 0
M  V30 8853 N 789.305 -0.326896 1.54172 0
M  V30 8854 C 790.238 -1.42591 1.78166 0
M  V30 8855 C 791.216 -1.49837 0.631484 0
M  V30 8856 O 792.4 -1.67298 0.868544 0
M  V30 8857 C 789.527 -2.8071 1.89524 0
M  V30 8858 C 788.573 -2.91012 3.11792 0
M  V30 8859 S 789.406 -2.55763 4.70474 0
M  V30 8860 C 790.562 -3.9596 4.84733 0
M  V30 8861 H 790.795 -1.22024 2.71104 0
M  V30 8862 H 788.328 -0.523539 1.45253 0
M  V30 8863 H 790.286 -3.60276 1.96753 0
M  V30 8864 H 788.947 -2.98562 0.975696 0
M  V30 8865 H 788.14 -3.92258 3.16464 0
M  V30 8866 H 787.742 -2.19414 3.02876 0
M  V30 8867 H 790.034 -4.90676 4.67166 0
M  V30 8868 H 790.977 -3.96273 5.86833 0
M  V30 8869 H 791.385 -3.8476 4.13062 0
M  V30 8870 N 790.784 -1.46188 -0.588786 0
M  V30 8871 C 792.009 -1.5498 -1.37826 0
M  V30 8872 C 792.434 -0.189498 -1.87143 0
M  V30 8873 O 791.792 0.829293 -1.61222 0
M  V30 8874 C 791.84 -2.55369 -2.54596 0
M  V30 8875 O 790.944 -2.08452 -3.55839 0
M  V30 8876 H 790.285 -0.521741 -0.41071 0
M  V30 8877 H 792.815 -1.91708 -0.714779 0
M  V30 8878 H 792.825 -2.74782 -3.01594 0
M  V30 8879 H 791.5 -3.54155 -2.18052 0
M  V30 8880 H 790.077 -1.98999 -3.15363 0
M  V30 8881 N 792.262 0.832906 -1.33792 0
M  V30 8882 C 793.509 1.58853 -1.25586 0
M  V30 8883 C 793.837 1.93695 0.176807 0
M  V30 8884 O 793.092 1.59386 1.13554 0
M  V30 8885 C 793.391 2.9047 -2.08235 0
M  V30 8886 C 793.057 2.74965 -3.57358 0
M  V30 8887 C 791.719 2.70444 -3.98012 0
M  V30 8888 C 794.071 2.59347 -4.52093 0
M  V30 8889 C 791.399 2.48212 -5.31608 0
M  V30 8890 C 793.751 2.38649 -5.85858 0
M  V30 8891 C 792.415 2.32533 -6.25687 0
M  V30 8892 H 791.685 0.581285 -0.459553 0
M  V30 8893 H 794.332 0.964501 -1.65438 0
M  V30 8894 H 792.637 3.57111 -1.6118 0
M  V30 8895 H 794.334 3.48001 -1.99239 0
M  V30 8896 H 790.924 2.79319 -3.25083 0
M  V30 8897 H 795.108 2.6187 -4.2159 0
M  V30 8898 H 790.364 2.41929 -5.61498 0
M  V30 8899 H 794.538 2.25549 -6.58863 0
M  V30 8900 H 792.165 2.15067 -7.29143 0
M  V30 8901 N 793.74 1.17359 1.05189 0
M  V30 8902 C 794.989 0.956412 1.77583 0
M  V30 8903 C 795.302 -0.516018 1.88671 0
M  V30 8904 O 796.508 -0.851401 2.57805 0
M  V30 8905 C 794.964 1.66203 3.19225 0
M  V30 8906 C 794.572 3.17299 3.16267 0
M  V30 8907 C 796.316 1.52725 3.96075 0
M  V30 8908 C 794.223 3.8055 4.52698 0
M  V30 8909 H 793.153 0.354204 0.665624 0
M  V30 8910 H 795.804 1.40612 1.17901 0
M  V30 8911 H 794.186 1.14006 3.79234 0
M  V30 8912 H 795.36 3.76431 2.65776 0
M  V30 8913 H 793.675 3.3079 2.52917 0
M  V30 8914 H 796.272 1.97351 4.96947 0
M  V30 8915 H 796.615 0.477803 4.13549 0
M  V30 8916 H 797.148 2.02139 3.42614 0
M  V30 8917 H 793.887 4.85492 4.4043 0
M  V30 8918 H 793.407 3.26206 5.03339 0
M  V30 8919 H 795.086 3.82757 5.21638 0
M  V30 8920 N 795.218 -1.23913 0.973828 0
M  V30 8921 C 796.166 -2.27141 0.50098 0
M  V30 8922 C 797.16 -1.63623 -0.438631 0
M  V30 8923 O 798.366 -1.77253 -0.313247 0
M  V30 8924 H 794.741 -0.73817 0.14356 0
M  V30 8925 H 796.712 -2.64392 1.38346 0
M  V30 8926 C 795.461 -3.47195 -0.187377 0
M  V30 8927 H 794.784 -3.96318 0.526535 0
M  V30 8928 H 796.224 -4.21252 -0.481962 0
M  V30 8929 C 794.683 -3.05678 -1.41642 0
M  V30 8930 O 795.213 -3.1338 -2.51309 0
M  V30 8931 N 793.419 -2.60661 -1.28469 0
M  V30 8932 H 792.966 -2.54594 -0.39238 0
M  V30 8933 H 792.924 -2.33249 -2.10813 0
M  V30 8934 N 796.696 -0.74468 -1.38897 0
M  V30 8935 C 797.942 -0.297324 -2.00609 0
M  V30 8936 C 798.275 1.11547 -1.58968 0
M  V30 8937 O 797.55 1.76227 -0.823057 0
M  V30 8938 C 797.833 -0.410125 -3.57757 0
M  V30 8939 C 797.686 -1.86338 -4.09387 0
M  V30 8940 C 799.005 0.20176 -4.39637 0
M  V30 8941 H 796.124 -0.109509 -0.728819 0
M  V30 8942 H 798.766 -0.942653 -1.64967 0
M  V30 8943 H 796.916 0.139287 -3.8825 0
M  V30 8944 H 798.588 -2.47042 -3.89574 0
M  V30 8945 H 796.831 -2.38146 -3.62586 0
M  V30 8946 H 797.502 -1.89352 -5.18507 0
M  V30 8947 H 799.978 -0.266703 -4.15244 0
M  V30 8948 H 798.854 0.0925415 -5.48822 0
M  V30 8949 H 799.115 1.289 -4.22891 0
M  V30 8950 N 798.174 1.49689 -0.493057 0
M  V30 8951 C 799.585 1.8665 -0.0433032 0
M  V30 8952 C 799.936 1.40607 1.36836 0
M  V30 8953 O 799.061 0.780503 2.01834 0
M  V30 8954 C 799.656 3.38724 -0.0718069 0
M  V30 8955 C 798.215 3.75015 0.32257 0
M  V30 8956 C 797.362 2.7366 -0.4478 0
M  V30 8957 H 800.313 1.42119 -0.706246 0
M  V30 8958 H 800.334 3.73522 0.725347 0
M  V30 8959 H 799.846 3.72204 -1.09935 0
M  V30 8960 H 797.947 3.47142 1.35364 0
M  V30 8961 H 798.06 4.79099 0.00864259 0
M  V30 8962 H 796.424 2.54498 0.101354 0
M  V30 8963 H 797.207 3.09985 -1.47527 0
M  V30 8964 N 799.652 0.226554 1.55963 0
M  V30 8965 C 800.562 -0.692725 2.24139 0
M  V30 8966 C 801.578 -1.20971 1.25068 0
M  V30 8967 O 802.754 -1.25027 1.57893 0
M  V30 8968 C 799.819 -1.88183 2.91184 0
M  V30 8969 C 798.88 -1.40633 4.05612 0
M  V30 8970 C 798.113 -2.53875 4.6945 0
M  V30 8971 O 798.336 -3.72129 4.32292 0
M  V30 8972 O 797.27 -2.24792 5.58348 0
M  V30 8973 H 801.096 -0.141921 3.03368 0
M  V30 8974 H 798.681 -0.0041049 1.49399 0
M  V30 8975 H 800.563 -2.57617 3.33484 0
M  V30 8976 H 799.238 -2.42064 2.14911 0
M  V30 8977 H 798.145 -0.67986 3.67871 0
M  V30 8978 H 799.478 -0.913838 4.83642 0
M  V30 8979 N 801.13 -1.57531 -0.0467866 0
M  V30 8980 C 802.379 -1.87632 -0.740069 0
M  V30 8981 C 802.692 -0.822691 -1.77457 0
M  V30 8982 O 803.898 -1.01235 -2.5192 0
M  V30 8983 C 802.354 -3.32917 -1.36727 0
M  V30 8984 C 801.962 -4.46469 -0.370035 0
M  V30 8985 C 803.706 -3.72189 -2.04146 0
M  V30 8986 C 801.613 -5.82806 -1.00457 0
M  V30 8987 H 800.543 -0.70002 -0.280158 0
M  V30 8988 H 803.194 -1.83499 0.00607151 0
M  V30 8989 H 801.576 -3.31739 -2.16252 0
M  V30 8990 H 802.75 -4.59085 0.397217 0
M  V30 8991 H 801.065 -4.15914 0.201079 0
M  V30 8992 H 803.662 -4.71357 -2.52441 0
M  V30 8993 H 804.005 -3.03268 -2.85192 0
M  V30 8994 H 804.538 -3.75465 -1.3142 0
M  V30 8995 H 801.277 -6.55083 -0.233907 0
M  V30 8996 H 800.797 -5.73944 -1.74209 0
M  V30 8997 H 802.476 -6.28961 -1.51713 0
M  V30 8998 N 802.608 0.318715 -1.54344 0
M  V30 8999 C 803.538 1.39751 -1.87061 0
M  V30 9000 C 804.519 1.53741 -0.727848 0
M  V30 9001 O 805.704 1.67541 -0.982016 0
M  V30 9002 C 802.834 2.76446 -2.10226 0
M  V30 9003 C 801.788 2.77239 -3.26071 0
M  V30 9004 C 801.114 4.17056 -3.34617 0
M  V30 9005 C 802.414 2.40555 -4.63606 0
M  V30 9006 H 804.108 1.12619 -2.77412 0
M  V30 9007 H 801.654 0.540318 -1.33479 0
M  V30 9008 H 803.607 3.51985 -2.31699 0
M  V30 9009 H 802.331 3.05066 -1.16629 0
M  V30 9010 H 800.99 2.04155 -3.04493 0
M  V30 9011 H 800.638 4.42824 -2.3857 0
M  V30 9012 H 800.338 4.18492 -4.12478 0
M  V30 9013 H 801.862 4.94401 -3.5833 0
M  V30 9014 H 803.276 3.05808 -4.84927 0
M  V30 9015 H 801.673 2.53234 -5.44052 0
M  V30 9016 H 802.743 1.35698 -4.65526 0
M  V30 9017 N 804.086 1.46499 0.581025 0
M  V30 9018 C 805.033 1.5719 1.68997 0
M  V30 9019 C 806.003 0.416114 1.60803 0
M  V30 9020 O 807.188 0.633086 1.79991 0
M  V30 9021 C 804.328 1.56973 3.07333 0
M  V30 9022 C 803.441 2.83298 3.26139 0
M  V30 9023 C 802.576 2.74574 4.54734 0
M  V30 9024 C 801.615 3.9583 4.66889 0
M  V30 9025 N 800.752 3.85482 5.86811 0
M  V30 9026 H 805.592 2.51914 1.59196 0
M  V30 9027 H 803.129 1.24975 0.775857 0
M  V30 9028 H 805.087 1.54832 3.87405 0
M  V30 9029 H 803.717 0.657803 3.16027 0
M  V30 9030 H 802.769 2.95411 2.3966 0
M  V30 9031 H 804.081 3.7316 3.30988 0
M  V30 9032 H 803.235 2.70548 5.43036 0
M  V30 9033 H 801.974 1.82354 4.52325 0
M  V30 9034 H 800.979 4.00186 3.77003 0
M  V30 9035 H 802.204 4.89148 4.71075 0
M  V30 9036 H 800.15 2.96051 5.85397 0
M  V30 9037 H 800.067 4.69002 5.92936 0
M  V30 9038 H 801.335 3.85434 6.7754 0
M  V30 9039 N 805.565 -0.825799 1.34232 0
M  V30 9040 C 806.976 -1.39835 1.23706 0
M  V30 9041 C 807.327 -1.95709 -0.138649 0
M  V30 9042 O 806.452 -1.89833 -1.03886 0
M  V30 9043 C 807.047 -2.54203 2.23978 0
M  V30 9044 C 805.606 -3.07374 2.17251 0
M  V30 9045 C 804.753 -1.80232 2.10741 0
M  V30 9046 H 807.704 -0.630442 1.4564 0
M  V30 9047 H 807.725 -3.32214 1.8551 0
M  V30 9048 H 807.237 -2.13506 3.24094 0
M  V30 9049 H 805.338 -3.52583 1.20483 0
M  V30 9050 H 805.451 -3.6666 3.08379 0
M  V30 9051 H 803.815 -2.01012 1.56417 0
M  V30 9052 H 804.598 -1.41713 3.12686 0
M  V30 9053 N 807.043 -1.17915 -1.04565 0
M  V30 9054 C 808.292 -0.965816 -1.77073 0
M  V30 9055 C 808.605 0.506005 -1.88942 0
M  V30 9056 O 809.811 0.837717 -2.58253 0
M  V30 9057 C 808.267 -1.67894 -3.18339 0
M  V30 9058 C 807.875 -3.18972 -3.1458 0
M  V30 9059 C 809.619 -1.54823 -3.9526 0
M  V30 9060 C 807.526 -3.82946 -4.50674 0
M  V30 9061 H 806.456 -0.357729 -0.663736 0
M  V30 9062 H 809.107 -1.41235 -1.17153 0
M  V30 9063 H 807.489 -1.16016 -3.78624 0
M  V30 9064 H 808.663 -3.77835 -2.63776 0
M  V30 9065 H 806.978 -3.32127 -2.51159 0
M  V30 9066 H 809.575 -1.99984 -4.95894 0
M  V30 9067 H 809.918 -0.499727 -4.1329 0
M  V30 9068 H 810.451 -2.03953 -3.41538 0
M  V30 9069 H 807.19 -4.8782 -4.37849 0
M  V30 9070 H 806.71 -3.2887 -5.01602 0
M  V30 9071 H 808.389 -3.85518 -5.196 0
M  V30 9072 N 808.521 1.23394 -0.980386 0
M  V30 9073 C 809.469 2.26872 -0.513018 0
M  V30 9074 C 810.463 1.63853 0.429948 0
M  V30 9075 O 811.669 1.77417 0.303842 0
M  V30 9076 H 808.044 0.737398 -0.147473 0
M  V30 9077 H 810.015 2.63654 -1.39746 0
M  V30 9078 C 808.764 3.47289 0.168962 0
M  V30 9079 H 808.087 3.96033 -0.547546 0
M  V30 9080 H 809.527 4.21502 0.459616 0
M  V30 9081 C 807.986 3.06425 1.40019 0
M  V30 9082 O 808.516 3.14708 2.49643 0
M  V30 9083 N 806.722 2.61339 1.27084 0
M  V30 9084 H 806.269 2.54799 0.378872 0
M  V30 9085 H 806.227 2.34364 2.09573 0
M  V30 9086 N 809.999 0.752036 1.385 0
M  V30 9087 C 811.224 0.316993 2.04963 0
M  V30 9088 C 811.649 -1.04582 1.56346 0
M  V30 9089 O 811.007 -1.66616 0.714755 0
M  V30 9090 C 811.055 0.347235 3.58924 0
M  V30 9091 O 810.159 -0.659296 4.07096 0
M  V30 9092 H 809.5 0.140652 0.648932 0
M  V30 9093 H 812.03 1.02272 1.77205 0
M  V30 9094 H 812.04 0.19757 4.07521 0
M  V30 9095 H 810.715 1.34157 3.93668 0
M  V30 9096 H 809.292 -0.474371 3.6987 0
M  V30 9097 N 811.477 -1.49425 0.500989 0
M  V30 9098 C 812.41 -2.25887 -0.324087 0
M  V30 9099 C 813.388 -1.30469 -0.970388 0
M  V30 9100 O 814.572 -1.59758 -1.00049 0
M  V30 9101 C 811.699 -3.05787 -1.45643 0
M  V30 9102 C 810.745 -4.16359 -0.924508 0
M  V30 9103 S 811.578 -5.35181 0.184707 0
M  V30 9104 C 812.734 -6.18636 -0.950806 0
M  V30 9105 H 812.967 -2.95519 0.324891 0
M  V30 9106 H 810.5 -1.51723 0.286289 0
M  V30 9107 H 812.458 -3.52405 -2.10525 0
M  V30 9108 H 811.119 -2.35624 -2.07703 0
M  V30 9109 H 810.312 -4.71781 -1.77311 0
M  V30 9110 H 809.914 -3.72331 -0.352907 0
M  V30 9111 H 812.206 -6.51581 -1.85603 0
M  V30 9112 H 813.149 -7.06761 -0.435212 0
M  V30 9113 H 813.557 -5.512 -1.21813 0
M  V30 9114 N 812.955 -0.234822 -1.55841 0
M  V30 9115 C 814.18 0.400741 -2.03492 0
M  V30 9116 C 814.605 1.51618 -1.11327 0
M  V30 9117 O 813.963 1.81002 -0.103922 0
M  V30 9118 C 814.011 0.897184 -3.49261 0
M  V30 9119 O 813.115 2.00764 -3.60233 0
M  V30 9120 H 812.456 0.0890023 -0.658008 0
M  V30 9121 H 814.986 -0.357345 -2.01455 0
M  V30 9122 H 814.996 1.20356 -3.89844 0
M  V30 9123 H 813.671 0.0808639 -4.15821 0
M  V30 9124 H 812.248 1.70689 -3.31541 0
M  V30 9125 N 814.433 1.57553 0.0384317 0
M  V30 9126 C 815.381 2.07021 1.06043 0
M  V30 9127 C 816.375 0.982078 1.38028 0
M  V30 9128 O 817.581 1.16702 1.37042 0
M  V30 9129 H 813.956 0.660522 0.359464 0
M  V30 9130 H 815.927 2.91944 0.617339 0
M  V30 9131 C 814.676 2.55734 2.35574 0
M  V30 9132 H 813.999 3.39074 2.11822 0
M  V30 9133 H 815.439 2.94066 3.05452 0
M  V30 9134 C 813.898 1.45449 3.03885 0
M  V30 9135 O 814.428 0.815402 3.93337 0
M  V30 9136 N 812.634 1.19134 2.65058 0
M  V30 9137 H 812.181 1.71288 1.92401 0
M  V30 9138 H 812.139 0.455554 3.11082 0
M  V30 9139 N 815.911 -0.310526 1.54511 0
M  V30 9140 C 817.157 -1.04846 1.73595 0
M  V30 9141 C 817.49 -1.87244 0.515118 0
M  V30 9142 O 816.765 -1.88282 -0.48786 0
M  V30 9143 C 817.048 -1.96237 3.01932 0
M  V30 9144 C 816.901 -1.17082 4.34295 0
M  V30 9145 C 818.22 -2.9556 3.26086 0
M  V30 9146 H 815.339 -0.37976 0.631626 0
M  V30 9147 H 817.981 -0.32394 1.87218 0
M  V30 9148 H 816.131 -2.58015 2.90449 0
M  V30 9149 H 817.803 -0.576643 4.57682 0
M  V30 9150 H 816.046 -0.473336 4.3121 0
M  V30 9151 H 816.717 -1.84257 5.20339 0
M  V30 9152 H 819.193 -2.43908 3.37117 0
M  V30 9153 H 818.069 -3.5668 4.17218 0
M  V30 9154 H 818.33 -3.68715 2.4393 0
M  V30 9155 N 817.389 -1.46805 -0.573248 0
M  V30 9156 C 818.352 -1.57655 -1.66366 0
M  V30 9157 C 819.352 -0.452905 -1.5429 0
M  V30 9158 O 820.542 -0.717502 -1.58737 0
M  V30 9159 C 817.674 -1.50584 -3.05839 0
M  V30 9160 H 818.867 -2.54842 -1.581 0
M  V30 9161 H 816.42 -1.34756 -0.791868 0
M  V30 9162 H 817.155 -0.547127 -3.19651 0
M  V30 9163 H 816.94 -2.32118 -3.16012 0
M  V30 9164 H 818.43 -1.61282 -3.85199 0
M  V30 9165 N 818.867 0.818669 -1.34668 0
M  V30 9166 C 820.116 1.57017 -1.26604 0
M  V30 9167 C 820.429 1.94936 0.161036 0
M  V30 9168 O 821.635 2.69051 0.36386 0
M  V30 9169 C 820.091 2.83305 -2.2196 0
M  V30 9170 C 819.699 2.52671 -3.69948 0
M  V30 9171 C 821.443 3.61324 -2.22813 0
M  V30 9172 C 819.35 3.75178 -4.5716 0
M  V30 9173 H 818.28 0.589323 -0.470335 0
M  V30 9174 H 820.931 0.900956 -1.59859 0
M  V30 9175 H 819.313 3.51874 -1.81661 0
M  V30 9176 H 820.487 1.92186 -4.18809 0
M  V30 9177 H 818.802 1.8792 -3.71584 0
M  V30 9178 H 821.399 4.52294 -2.85192 0
M  V30 9179 H 821.742 3.97759 -1.22857 0
M  V30 9180 H 822.275 2.99703 -2.61578 0
M  V30 9181 H 819.014 3.43861 -5.58068 0
M  V30 9182 H 818.534 4.34931 -4.13031 0
M  V30 9183 H 820.213 4.42542 -4.71981 0
M  V30 9184 N 820.346 1.18468 1.03938 0
M  V30 9185 C 821.592 0.982286 1.77423 0
M  V30 9186 C 821.925 -0.48679 1.88 0
M  V30 9187 O 821.2 -1.36146 1.38905 0
M  V30 9188 C 821.483 1.63929 3.20623 0
M  V30 9189 C 821.336 3.18132 3.17982 0
M  V30 9190 C 822.655 1.3536 4.18767 0
M  V30 9191 H 819.774 0.358264 0.644062 0
M  V30 9192 H 822.416 1.46154 1.21405 0
M  V30 9193 H 820.566 1.2318 3.68455 0
M  V30 9194 H 822.238 3.68024 2.78129 0
M  V30 9195 H 820.481 3.50225 2.55978 0
M  V30 9196 H 821.152 3.5924 4.19107 0
M  V30 9197 H 823.628 1.70669 3.79488 0
M  V30 9198 H 822.504 1.83896 5.17178 0
M  V30 9199 H 822.765 0.276722 4.41233 0
M  V30 9200 N 821.824 -1.22873 0.986916 0
M  V30 9201 C 823.049 -1.96028 0.677341 0
M  V30 9202 C 823.474 -1.72487 -0.750319 0
M  V30 9203 O 822.832 -1.00036 -1.51203 0
M  V30 9204 C 822.88 -3.46983 0.981593 0
M  V30 9205 O 821.984 -4.12328 0.0770729 0
M  V30 9206 H 821.325 -0.613458 0.254096 0
M  V30 9207 H 823.855 -1.56132 1.32227 0
M  V30 9208 H 823.865 -3.9747 0.920969 0
M  V30 9209 H 822.54 -3.63442 2.02194 0
M  V30 9210 H 821.117 -3.72402 0.192666 0
M  V30 9211 N 823.302 -0.75937 -1.38099 0
M  V30 9212 C 824.527 -0.327859 -2.04792 0
M  V30 9213 C 824.952 1.03752 -1.56899 0
M  V30 9214 O 824.31 1.66235 -0.723581 0
M  V30 9215 C 824.358 -0.366264 -3.58735 0
M  V30 9216 O 823.462 0.637697 -4.0744 0
M  V30 9217 H 822.803 -0.144092 -0.648177 0
M  V30 9218 H 825.333 -1.03211 -1.7666 0
M  V30 9219 H 825.343 -0.219179 -4.07411 0
M  V30 9220 H 824.018 -1.36243 -3.92951 0
M  V30 9221 H 822.595 0.454749 -3.70117 0
M  V30 9222 N 824.78 1.49157 -0.508906 0
M  V30 9223 C 826.027 2.02473 0.0327983 0
M  V30 9224 C 826.355 1.38792 1.36261 0
M  V30 9225 O 825.61 0.515576 1.88786 0
M  V30 9226 C 825.909 3.56687 0.225717 0
M  V30 9227 C 825.575 4.39046 -1.02708 0
M  V30 9228 C 824.237 4.61271 -1.37048 0
M  V30 9229 C 826.589 4.86902 -1.85946 0
M  V30 9230 C 823.917 5.28598 -2.54562 0
M  V30 9231 C 826.269 5.55521 -3.0262 0
M  V30 9232 C 824.933 5.7599 -3.3733 0
M  V30 9233 H 824.203 0.740903 0.0120017 0
M  V30 9234 H 826.85 1.79372 -0.670665 0
M  V30 9235 H 825.155 3.78511 1.01177 0
M  V30 9236 H 826.852 3.95541 0.659433 0
M  V30 9237 H 823.442 4.21994 -0.749615 0
M  V30 9238 H 827.626 4.69553 -1.6073 0
M  V30 9239 H 822.882 5.42646 -2.81682 0
M  V30 9240 H 827.056 5.91576 -3.67438 0
M  V30 9241 H 824.683 6.27934 -4.2849 0
M  V30 9242 N 826.258 0.243083 1.55714 0
M  V30 9243 C 827.506 -0.381964 1.98458 0
M  V30 9244 C 827.827 -1.58745 1.13247 0
M  V30 9245 O 827.097 -1.94723 0.214384 0
M  V30 9246 H 825.677 -0.144114 0.732967 0
M  V30 9247 H 828.339 0.340985 1.91894 0
M  V30 9248 H 827.435 -0.693702 3.04293 0
M  V30 9249 N 827.736 -1.57571 -0.0300757 0
M  V30 9250 C 828.961 -1.93879 -0.736601 0
M  V30 9251 C 829.386 -0.842998 -1.68152 0
M  V30 9252 O 828.744 0.20135 -1.80178 0
M  V30 9253 C 828.792 -3.29247 -1.47066 0
M  V30 9254 O 827.896 -3.21426 -2.58378 0
M  V30 9255 H 827.237 -0.633735 -0.198181 0
M  V30 9256 H 829.767 -2.04595 0.0141485 0
M  V30 9257 H 829.777 -3.64113 -1.84081 0
M  V30 9258 H 828.452 -4.08565 -0.77764 0
M  V30 9259 H 827.029 -2.98189 -2.23914 0
M  V30 9260 N 829.214 0.302327 -1.54673 0
M  V30 9261 C 830.442 1.05669 -1.77881 0
M  V30 9262 C 830.857 1.80983 -0.537648 0
M  V30 9263 O 830.214 1.7573 0.492467 0
M  V30 9264 C 830.265 2.03828 -2.98557 0
M  V30 9265 O 829.986 1.3157 -4.17877 0
M  V30 9266 C 831.487 2.91314 -3.34143 0
M  V30 9267 H 828.707 0.313436 -0.593295 0
M  V30 9268 H 831.251 0.342003 -2.0162 0
M  V30 9269 H 829.406 2.70801 -2.7703 0
M  V30 9270 H 829.82 1.97481 -4.85903 0
M  V30 9271 H 831.294 3.56042 -4.21827 0
M  V30 9272 H 831.771 3.59544 -2.52239 0
M  V30 9273 H 832.377 2.29874 -3.57824 0
M  V30 9274 N 830.692 1.47107 0.565454 0
M  V30 9275 C 831.622 1.61846 1.68309 0
M  V30 9276 C 832.603 0.468159 1.63531 0
M  V30 9277 O 833.788 0.696504 1.8128 0
M  V30 9278 C 830.918 1.62474 3.06952 0
M  V30 9279 C 829.872 2.76649 3.26572 0
M  V30 9280 C 829.198 2.62345 4.65917 0
M  V30 9281 C 830.498 4.18319 3.12741 0
M  V30 9282 H 832.192 2.55407 1.5623 0
M  V30 9283 H 829.738 1.22916 0.750179 0
M  V30 9284 H 831.691 1.71378 3.84977 0
M  V30 9285 H 830.415 0.654692 3.19971 0
M  V30 9286 H 829.074 2.67242 2.50952 0
M  V30 9287 H 828.722 1.63386 4.75725 0
M  V30 9288 H 828.422 3.38936 4.79996 0
M  V30 9289 H 829.946 2.73165 5.46089 0
M  V30 9290 H 831.36 4.28745 3.80593 0
M  V30 9291 H 829.757 4.95632 3.38333 0
M  V30 9292 H 830.827 4.37263 2.09592 0
M  V30 9293 N 832.17 -0.811516 1.35101 0
M  V30 9294 C 833.1 -1.9378 1.30275 0
M  V30 9295 C 834.081 -1.69165 0.178075 0
M  V30 9296 O 835.266 -1.90599 0.372256 0
M  V30 9297 C 832.396 -3.30439 1.06899 0
M  V30 9298 C 831.35 -3.69523 2.15955 0
M  V30 9299 C 830.676 -5.0429 1.77751 0
M  V30 9300 C 831.976 -3.80419 3.57881 0
M  V30 9301 H 833.67 -1.98075 2.24514 0
M  V30 9302 H 831.216 -0.951586 1.08078 0
M  V30 9303 H 833.169 -4.08828 1.02164 0
M  V30 9304 H 831.893 -3.26473 0.0910462 0
M  V30 9305 H 830.552 -2.93416 2.19778 0
M  V30 9306 H 830.2 -4.96823 0.785876 0
M  V30 9307 H 829.9 -5.31411 2.5075 0
M  V30 9308 H 831.424 -5.85125 1.74533 0
M  V30 9309 H 832.838 -4.49051 3.56407 0
M  V30 9310 H 831.235 -4.19005 4.29598 0
M  V30 9311 H 832.305 -2.82105 3.94391 0
M  V30 9312 N 833.648 -1.19017 -1.03309 0
M  V30 9313 C 835.064 -0.941483 -1.28873 0
M  V30 9314 C 835.264 0.388587 -1.97718 0
M  V30 9315 O 834.32 1.12111 -2.26246 0
M  V30 9316 C 835.633 -2.11249 -2.13996 0
M  V30 9317 C 837.181 -2.15164 -2.27318 0
M  V30 9318 C 837.656 -3.31704 -3.15811 0
M  V30 9319 N 839.147 -3.31613 -3.23399 0
M  V30 9320 C 839.882 -4.18431 -3.9205 0
M  V30 9321 N 839.378 -5.15397 -4.62966 0
M  V30 9322 N 841.171 -4.06321 -3.88406 0
M  V30 9323 H 833.322 -2.04599 -0.570343 0
M  V30 9324 H 835.585 -0.894406 -0.314232 0
M  V30 9325 H 835.291 -3.07482 -1.70727 0
M  V30 9326 H 835.165 -2.07955 -3.14697 0
M  V30 9327 H 837.552 -1.19504 -2.6982 0
M  V30 9328 H 837.633 -2.22513 -1.26182 0
M  V30 9329 H 837.277 -4.2764 -2.74019 0
M  V30 9330 H 837.207 -3.21592 -4.16997 0
M  V30 9331 H 839.698 -2.6142 -2.72888 0
M  V30 9332 H 840.011 -5.78 -5.12968 0
M  V30 9333 H 838.356 -5.19349 -4.61846 0
M  V30 9334 H 841.547 -3.29849 -3.3214 0
M  V30 9335 H 841.72 -4.74196 -4.41635 0
M  V30 9336 N 835.127 1.22348 -0.993418 0
M  V30 9337 C 836.373 1.91393 -0.67056 0
M  V30 9338 C 836.706 1.77163 0.795428 0
M  V30 9339 O 835.981 1.14084 1.57528 0
M  V30 9340 C 836.264 3.43589 -1.0779 0
M  V30 9341 C 836.117 3.66867 -2.60248 0
M  V30 9342 C 837.436 4.35545 -0.631527 0
M  V30 9343 H 834.555 0.695057 -0.24508 0
M  V30 9344 H 837.197 1.44213 -1.23703 0
M  V30 9345 H 835.347 3.83903 -0.595902 0
M  V30 9346 H 837.019 3.35954 -3.16121 0
M  V30 9347 H 835.262 3.1113 -3.02293 0
M  V30 9348 H 835.933 4.73457 -2.838 0
M  V30 9349 H 838.409 4.0275 -1.04554 0
M  V30 9350 H 837.285 5.40707 -0.944831 0
M  V30 9351 H 837.546 4.39618 0.467779 0
M  V30 9352 N 836.605 0.766683 1.37694 0
M  V30 9353 C 837.853 0.328065 1.9942 0
M  V30 9354 C 838.174 -1.09775 1.61166 0
M  V30 9355 O 837.444 -1.75288 0.874686 0
M  V30 9356 H 836.024 0.11831 0.737572 0
M  V30 9357 H 838.686 0.983686 1.68255 0
M  V30 9358 H 837.782 0.401647 3.09505 0
M  V30 9359 N 838.083 -1.48885 0.516809 0
M  V30 9360 C 839.013 -2.32241 -0.242157 0
M  V30 9361 C 839.994 -1.41258 -0.947633 0
M  V30 9362 O 841.179 -1.70156 -0.935973 0
M  V30 9363 C 838.309 -3.22151 -1.29754 0
M  V30 9364 C 837.263 -4.22053 -0.710995 0
M  V30 9365 C 836.589 -5.01007 -1.86806 0
M  V30 9366 C 837.889 -5.21388 0.30853 0
M  V30 9367 H 839.583 -2.95943 0.453651 0
M  V30 9368 H 837.129 -1.42316 0.219612 0
M  V30 9369 H 839.082 -3.79284 -1.83634 0
M  V30 9370 H 837.806 -2.56423 -2.02274 0
M  V30 9371 H 836.465 -3.66087 -0.193819 0
M  V30 9372 H 836.113 -4.31713 -2.58133 0
M  V30 9373 H 835.813 -5.68615 -1.48159 0
M  V30 9374 H 837.337 -5.60989 -2.4109 0
M  V30 9375 H 838.751 -5.73122 -0.142703 0
M  V30 9376 H 837.148 -5.96975 0.611673 0
M  V30 9377 H 838.218 -4.69329 1.21894 0
M  V30 9378 N 839.561 -0.251338 -1.55583 0
M  V30 9379 C 840.491 0.640437 -2.24545 0
M  V30 9380 C 841.472 1.17781 -1.22726 0
M  V30 9381 O 842.657 1.21633 -1.5139 0
M  V30 9382 C 839.787 1.8355 -2.94834 0
M  V30 9383 C 838.741 1.4307 -4.03379 0
M  V30 9384 C 838.067 2.70695 -4.61116 0
M  V30 9385 C 839.367 0.59848 -5.1886 0
M  V30 9386 H 841.061 0.0653772 -2.99329 0
M  V30 9387 H 838.607 0.0300042 -1.43969 0
M  V30 9388 H 840.56 2.46505 -3.4178 0
M  V30 9389 H 839.284 2.43601 -2.17546 0
M  V30 9390 H 837.943 0.824474 -3.57209 0
M  V30 9391 H 837.591 3.28954 -3.80524 0
M  V30 9392 H 837.291 2.44332 -5.34393 0
M  V30 9393 H 838.815 3.34541 -5.10798 0
M  V30 9394 H 840.229 1.13244 -5.62004 0
M  V30 9395 H 838.626 0.430728 -5.98552 0
M  V30 9396 H 839.696 -0.38829 -4.83343 0
M  V30 9397 N 841.039 1.57585 0.0217189 0
M  V30 9398 C 842.267 1.93871 0.722619 0
M  V30 9399 C 842.682 0.851706 1.68498 0
M  V30 9400 O 842.039 -0.17127 1.81695 0
M  V30 9401 C 842.09 3.30114 1.47333 0
M  V30 9402 O 841.811 4.34639 0.549597 0
M  V30 9403 C 843.312 3.80727 2.27072 0
M  V30 9404 H 840.532 0.639671 0.202637 0
M  V30 9405 H 843.076 2.04487 -0.0229414 0
M  V30 9406 H 841.231 3.20872 2.17071 0
M  V30 9407 H 841.645 5.13326 1.07686 0
M  V30 9408 H 843.119 4.78547 2.75131 0
M  V30 9409 H 843.596 3.12301 3.08812 0
M  V30 9410 H 844.202 3.93075 1.62395 0
M  V30 9411 N 842.517 -0.29412 1.54831 0
M  V30 9412 C 843.765 -1.02643 1.74094 0
M  V30 9413 C 844.086 -1.87563 0.533402 0
M  V30 9414 O 843.356 -1.9061 -0.452192 0
M  V30 9415 H 841.936 -0.381959 0.641963 0
M  V30 9416 H 844.598 -0.323444 1.92197 0
M  V30 9417 H 843.694 -1.67558 2.63307 0
M  V30 9418 N 843.995 -1.47404 -0.557645 0
M  V30 9419 C 845.225 -1.57393 -1.33832 0
M  V30 9420 C 845.633 -0.222978 -1.87881 0
M  V30 9421 O 844.976 0.793854 -1.65661 0
M  V30 9422 C 845.038 -2.53882 -2.54528 0
M  V30 9423 C 844.702 -3.99585 -2.21767 0
M  V30 9424 C 845.699 -4.88082 -1.79087 0
M  V30 9425 C 843.384 -4.44917 -2.3314 0
M  V30 9426 C 845.378 -6.1993 -1.48209 0
M  V30 9427 C 843.065 -5.76793 -2.01874 0
M  V30 9428 C 844.063 -6.64121 -1.59476 0
M  V30 9429 O 843.751 -7.93546 -1.28607 0
M  V30 9430 H 843.483 -0.534172 -0.41429 0
M  V30 9431 H 846.037 -1.93733 -0.682404 0
M  V30 9432 H 844.267 -2.12609 -3.23009 0
M  V30 9433 H 845.956 -2.54003 -3.16603 0
M  V30 9434 H 846.722 -4.54307 -1.69794 0
M  V30 9435 H 842.601 -3.77152 -2.65099 0
M  V30 9436 H 846.145 -6.88049 -1.15043 0
M  V30 9437 H 842.042 -6.1011 -2.10799 0
M  V30 9438 H 842.81 -8.06046 -1.42241 0
M  V30 9439 N 845.473 0.80434 -1.35529 0
M  V30 9440 C 846.721 1.55845 -1.28673 0
M  V30 9441 C 847.042 1.94511 0.137976 0
M  V30 9442 O 846.312 1.63775 1.07492 0
M  V30 9443 H 844.892 0.577931 -0.473291 0
M  V30 9444 H 847.554 0.959293 -1.69657 0
M  V30 9445 H 846.65 2.47285 -1.90411 0
M  V30 9446 N 846.951 1.19563 1.02676 0
M  V30 9447 C 848.191 1.01072 1.77662 0
M  V30 9448 C 848.555 -0.450344 1.86644 0
M  V30 9449 O 849.756 -0.755132 2.57975 0
M  V30 9450 C 848.027 1.66383 3.16309 0
M  V30 9451 S 849.586 1.62858 4.07459 0
M  V30 9452 H 846.404 0.362644 0.611564 0
M  V30 9453 H 849.006 1.51947 1.23014 0
M  V30 9454 H 847.71 2.71917 3.07391 0
M  V30 9455 H 847.241 1.15596 3.76033 0
M  V30 9456 H 849.256 0.654265 4.91868 0
M  V30 9457 N 848.429 -1.21819 0.999893 0
M  V30 9458 C 849.654 -1.95298 0.698094 0
M  V30 9459 C 850.079 -1.73273 -0.731982 0
M  V30 9460 O 849.437 -1.01634 -1.50134 0
M  V30 9461 C 849.485 -3.45922 1.01834 0
M  V30 9462 O 848.589 -4.12223 0.120801 0
M  V30 9463 H 847.93 -0.610729 0.260588 0
M  V30 9464 H 850.46 -1.5472 1.33876 0
M  V30 9465 H 850.47 -3.96471 0.963074 0
M  V30 9466 H 849.145 -3.61278 2.06037 0
M  V30 9467 H 847.722 -3.72177 0.232153 0
M  V30 9468 N 849.908 -0.773975 -1.37286 0
M  V30 9469 C 851.136 -0.350758 -2.03905 0
M  V30 9470 C 851.551 1.02779 -1.58373 0
M  V30 9471 O 850.908 1.65646 -0.766009 0
M  V30 9472 C 850.959 -0.387335 -3.59419 0
M  V30 9473 O 850.68 -1.7115 -4.03286 0
M  V30 9474 C 852.181 0.047198 -4.43275 0
M  V30 9475 H 849.401 -0.146663 -0.654775 0
M  V30 9476 H 851.945 -1.04852 -1.75574 0
M  V30 9477 H 850.1 0.261865 -3.86514 0
M  V30 9478 H 850.514 -1.65166 -4.97816 0
M  V30 9479 H 851.988 -0.0295474 -5.51992 0
M  V30 9480 H 852.465 1.09786 -4.25257 0
M  V30 9481 H 853.071 -0.573899 -4.2141 0
M  V30 9482 N 851.386 1.48609 -0.524698 0
M  V30 9483 C 852.316 2.32366 0.229837 0
M  V30 9484 C 853.297 1.41759 0.940129 0
M  V30 9485 O 854.482 1.7065 0.926936 0
M  V30 9486 C 851.612 3.22835 1.28043 0
M  V30 9487 C 850.566 4.22424 0.688603 0
M  V30 9488 C 849.892 5.0199 1.84146 0
M  V30 9489 C 851.192 5.21217 -0.336176 0
M  V30 9490 H 852.886 2.95698 -0.469339 0
M  V30 9491 H 850.432 1.42197 -0.227156 0
M  V30 9492 H 852.385 3.80253 1.8162 0
M  V30 9493 H 851.109 2.57492 2.00912 0
M  V30 9494 H 849.768 3.66185 0.174402 0
M  V30 9495 H 849.416 4.33076 2.5584 0
M  V30 9496 H 849.116 5.69392 1.45142 0
M  V30 9497 H 850.64 5.62259 2.38111 0
M  V30 9498 H 852.054 5.7319 0.112307 0
M  V30 9499 H 850.451 5.96642 -0.643324 0
M  V30 9500 H 851.521 4.68676 -1.24381 0
M  V30 9501 N 852.864 0.259585 1.55447 0
M  V30 9502 C 854.094 -0.364863 2.03353 0
M  V30 9503 C 854.502 -1.5116 1.13786 0
M  V30 9504 O 853.845 -1.83109 0.147283 0
M  V30 9505 C 853.907 -0.922587 3.4746 0
M  V30 9506 C 853.571 0.0935207 4.56904 0
M  V30 9507 C 854.568 0.907571 5.11917 0
M  V30 9508 C 852.253 0.223276 5.01804 0
M  V30 9509 C 854.247 1.83771 6.10333 0
M  V30 9510 C 851.934 1.15691 6.00049 0
M  V30 9511 C 852.932 1.96264 6.54194 0
M  V30 9512 O 852.62 2.88052 7.50521 0
M  V30 9513 H 852.352 -0.0893313 0.670072 0
M  V30 9514 H 854.906 0.384821 2.01763 0
M  V30 9515 H 853.136 -1.72206 3.4624 0
M  V30 9516 H 854.825 -1.45846 3.78792 0
M  V30 9517 H 855.591 0.817979 4.78052 0
M  V30 9518 H 851.47 -0.393834 4.59315 0
M  V30 9519 H 855.014 2.46703 6.52521 0
M  V30 9520 H 850.911 1.24738 6.33333 0
M  V30 9521 H 851.679 2.82557 7.68182 0
M  V30 9522 N 854.342 -1.57594 -0.0133615 0
M  V30 9523 C 855.289 -2.07574 -1.00905 0
M  V30 9524 C 856.259 -0.968231 -1.34961 0
M  V30 9525 O 857.444 -1.23981 -1.45028 0
M  V30 9526 C 854.584 -2.5728 -2.30002 0
M  V30 9527 C 853.697 -3.81881 -2.01967 0
M  V30 9528 C 852.832 -4.20139 -3.25049 0
M  V30 9529 C 851.871 -5.37614 -2.92639 0
M  V30 9530 N 851.008 -5.71229 -4.08218 0
M  V30 9531 H 855.848 -2.92382 -0.575899 0
M  V30 9532 H 853.385 -1.4455 -0.272722 0
M  V30 9533 H 855.343 -2.84171 -3.05454 0
M  V30 9534 H 853.973 -1.75365 -2.71011 0
M  V30 9535 H 853.025 -3.61979 -1.16942 0
M  V30 9536 H 854.337 -4.67441 -1.74069 0
M  V30 9537 H 853.491 -4.48242 -4.08857 0
M  V30 9538 H 852.23 -3.33262 -3.56073 0
M  V30 9539 H 851.235 -5.09248 -2.07235 0
M  V30 9540 H 852.46 -6.26157 -2.62876 0
M  V30 9541 H 850.406 -4.8731 -4.39164 0
M  V30 9542 H 850.323 -6.51333 -3.83799 0
M  V30 9543 H 851.591 -6.03917 -4.92854 0
M  V30 9544 N 855.82 0.285905 -1.54985 0
M  V30 9545 C 857.05 1.03626 -1.78732 0
M  V30 9546 C 857.458 1.80896 -0.554377 0
M  V30 9547 O 856.801 1.77161 0.48578 0
M  V30 9548 C 856.863 2.05185 -2.95193 0
M  V30 9549 C 856.527 1.46973 -4.32722 0
M  V30 9550 C 857.524 0.891986 -5.12191 0
M  V30 9551 C 855.209 1.50081 -4.79355 0
M  V30 9552 C 857.203 0.353078 -6.36421 0
M  V30 9553 C 854.89 0.958037 -6.03544 0
M  V30 9554 C 855.888 0.385157 -6.81913 0
M  V30 9555 O 855.576 -0.149341 -8.03761 0
M  V30 9556 H 855.308 0.312416 -0.599477 0
M  V30 9557 H 857.862 0.326067 -2.02795 0
M  V30 9558 H 856.092 2.79928 -2.66791 0
M  V30 9559 H 857.781 2.66244 -3.0638 0
M  V30 9560 H 858.547 0.860762 -4.77301 0
M  V30 9561 H 854.426 1.9361 -4.18373 0
M  V30 9562 H 857.97 -0.0947181 -6.97536 0
M  V30 9563 H 853.867 0.986458 -6.37918 0
M  V30 9564 H 854.635 -0.0374719 -8.18491 0
M  V30 9565 N 857.298 1.47698 0.54982 0
M  V30 9566 C 858.547 1.53961 1.30303 0
M  V30 9567 C 858.86 0.209731 1.94472 0
M  V30 9568 O 860.066 0.150418 2.71083 0
M  V30 9569 C 858.522 2.71436 2.36328 0
M  V30 9570 C 858.13 4.10983 1.78316 0
M  V30 9571 C 859.874 2.86996 3.12783 0
M  V30 9572 C 857.781 5.19747 2.82164 0
M  V30 9573 H 856.711 0.573098 0.489975 0
M  V30 9574 H 859.362 1.73989 0.583089 0
M  V30 9575 H 857.744 2.44801 3.11269 0
M  V30 9576 H 858.918 4.47552 1.09697 0
M  V30 9577 H 857.233 4.00371 1.1442 0
M  V30 9578 H 859.83 3.65422 3.90347 0
M  V30 9579 H 860.173 1.95712 3.67427 0
M  V30 9580 H 860.706 3.13436 2.44954 0
M  V30 9581 H 857.445 6.12932 2.32366 0
M  V30 9582 H 856.965 4.87688 3.49171 0
M  V30 9583 H 858.644 5.47014 3.4552 0
M  V30 9584 N 858.776 -0.797141 1.35954 0
M  V30 9585 C 860.025 -1.54983 1.29086 0
M  V30 9586 C 860.338 -1.95167 -0.130003 0
M  V30 9587 O 861.544 -2.69596 -0.32101 0
M  V30 9588 C 860 -2.79738 2.26439 0
M  V30 9589 C 859.608 -2.46753 3.73921 0
M  V30 9590 C 861.352 -3.57733 2.28533 0
M  V30 9591 C 859.259 -3.67858 4.63071 0
M  V30 9592 H 858.189 -0.581766 0.479651 0
M  V30 9593 H 860.84 -0.87541 1.61273 0
M  V30 9594 H 859.222 -3.48939 1.87236 0
M  V30 9595 H 860.396 -1.85499 4.21814 0
M  V30 9596 H 858.711 -1.81985 3.74527 0
M  V30 9597 H 861.308 -4.47699 2.92351 0
M  V30 9598 H 861.651 -3.95754 1.29169 0
M  V30 9599 H 862.184 -2.95504 2.66313 0
M  V30 9600 H 858.923 -3.34939 5.63468 0
M  V30 9601 H 858.443 -4.28305 4.19898 0
M  V30 9602 H 860.122 -4.34977 4.78961 0
M  V30 9603 N 860.254 -1.20106 -1.0204 0
M  V30 9604 C 861.479 -1.0351 -1.79723 0
M  V30 9605 C 861.904 0.411328 -1.83548 0
M  V30 9606 O 861.262 1.29608 -1.26773 0
M  V30 9607 C 861.31 -1.61876 -3.22224 0
M  V30 9608 O 860.414 -0.853813 -4.03465 0
M  V30 9609 H 859.755 -0.365299 -0.554484 0
M  V30 9610 H 862.285 -1.59316 -1.28373 0
M  V30 9611 H 862.295 -1.65451 -3.72948 0
M  V30 9612 H 860.97 -2.67148 -3.18755 0
M  V30 9613 H 859.547 -0.891983 -3.62075 0
M  V30 9614 N 861.732 1.21287 -1.00634 0
M  V30 9615 C 862.679 2.23705 -0.567876 0
M  V30 9616 C 863.649 1.61043 0.406753 0
M  V30 9617 O 864.834 1.88289 0.308499 0
M  V30 9618 C 861.974 3.44961 0.097996 0
M  V30 9619 C 861.087 4.22091 -0.919972 0
M  V30 9620 C 860.222 5.30718 -0.226222 0
M  V30 9621 C 859.261 5.99581 -1.23165 0
M  V30 9622 N 858.398 6.99821 -0.565278 0
M  V30 9623 H 863.238 2.60571 -1.44592 0
M  V30 9624 H 860.775 1.28049 -0.724006 0
M  V30 9625 H 862.733 4.1418 0.501097 0
M  V30 9626 H 861.363 3.08818 0.939744 0
M  V30 9627 H 860.415 3.52038 -1.44131 0
M  V30 9628 H 861.727 4.69476 -1.68505 0
M  V30 9629 H 860.881 6.06253 0.232917 0
M  V30 9630 H 859.62 4.84343 0.571247 0
M  V30 9631 H 858.625 5.22816 -1.70128 0
M  V30 9632 H 859.85 6.48042 -2.03022 0
M  V30 9633 H 857.796 6.55656 0.212508 0
M  V30 9634 H 857.713 7.4528 -1.26858 0
M  V30 9635 H 858.981 7.79393 -0.129389 0
M  V30 9636 N 863.21 0.781244 1.36873 0
M  V30 9637 C 864.143 0.120106 2.27884 0
M  V30 9638 C 865.121 -0.698961 1.4681 0
M  V30 9639 O 866.305 -0.671694 1.76126 0
M  V30 9640 C 863.432 -0.835804 3.28226 0
M  V30 9641 C 862.478 -0.0995527 4.26384 0
M  V30 9642 S 863.311 1.21903 5.2144 0
M  V30 9643 C 864.467 0.266904 6.25331 0
M  V30 9644 H 864.7 0.891796 2.83609 0
M  V30 9645 H 862.233 0.575075 1.43291 0
M  V30 9646 H 864.191 -1.3819 3.86541 0
M  V30 9647 H 862.852 -1.58068 2.71428 0
M  V30 9648 H 862.045 -0.82457 4.97209 0
M  V30 9649 H 861.647 0.375818 3.72107 0
M  V30 9650 H 863.939 -0.55725 6.75204 0
M  V30 9651 H 864.882 0.943603 7.01785 0
M  V30 9652 H 865.29 -0.126121 5.64359 0
M  V30 9653 O 864.727 -1.46767 0.67391 0
M  V30 9654 H 865.418 -1.92604 0.205809 0
M  V30 END ATOM
M  V30 BEGIN BOND
M  V30 END BOND
M  V30 END CTAB
M  END
$$$$
