drugbank_target|Q16853 Membrane primary amine oxidase (DB00780; DB01275; DB04334)
 OpenBabel12092119453D

  0  0  0     0  0            999 V3000
M  V30 BEGIN CTAB
M  V30 COUNTS 11761 11951 0 0 0
M  V30 BEGIN ATOM
M  V30 1 H -0.908 1.98254 -0.117106 0
M  V30 2 N 0 1.576 0 0
M  V30 3 C 0.933 2.03868 1.02534 0
M  V30 4 C 1.911 0.928543 1.3348 0
M  V30 5 O 3.095 1.19667 1.45644 0
M  V30 6 C 0.222 2.43627 2.35294 0
M  V30 7 C -0.732 3.65373 2.2001 0
M  V30 8 S 0.101 5.13292 1.52614 0
M  V30 9 C 1.257 5.56322 2.86805 0
M  V30 10 H 1.49 2.90518 0.631377 0
M  V30 11 H -0.977 1.52953 0.210867 0
M  V30 12 H 0.981 2.67203 3.11629 0
M  V30 13 H -0.358 1.57376 2.7183 0
M  V30 14 H -1.165 3.90944 3.18086 0
M  V30 15 H -1.563 3.418 1.51819 0
M  V30 16 H 0.729 5.58782 3.83104 0
M  V30 17 H 1.672 6.56266 2.65933 0
M  V30 18 H 2.08 4.83886 2.90714 0
M  V30 19 N 1.4781 -0.272755 1.55222 0
M  V30 20 C 2.4261 -1.35705 1.88909 0
M  V30 21 C 3.4201 -1.5112 0.765456 0
M  V30 22 O 4.6261 -1.52901 0.949802 0
M  V30 23 H 1.0011 -0.453868 0.59959 0
M  V30 24 H 2.9721 -1.04544 2.79487 0
M  V30 25 C 1.7211 -2.71049 2.17779 0
M  V30 26 H 1.0441 -2.59979 3.03728 0
M  V30 27 H 2.4841 -3.45858 2.45272 0
M  V30 28 C 0.9431 -3.22165 0.985473 0
M  V30 29 O 1.4731 -4.01096 0.220233 0
M  V30 30 N -0.3209 -2.7985 0.783108 0
M  V30 31 H -0.7739 -2.15775 1.40708 0
M  V30 32 H -0.8159 -3.14397 -0.0130392 0
M  V30 33 N 2.9562 -1.48159 -0.537278 0
M  V30 34 C 3.8882 -1.58218 -1.65831 0
M  V30 35 C 4.9012 -0.466948 -1.5596 0
M  V30 36 O 6.0902 -0.73747 -1.62553 0
M  V30 37 C 3.1902 -1.48906 -3.04434 0
M  V30 38 C 2.3632 -2.75343 -3.3986 0
M  V30 39 C 1.4222 -2.59588 -4.57712 0
M  V30 40 O 0.4482 -3.33457 -4.61297 0
M  V30 41 N 1.6502 -1.68724 -5.55439 0
M  V30 42 H 4.4152 -2.54891 -1.57641 0
M  V30 43 H 1.9762 -1.4479 -0.724386 0
M  V30 44 H 3.9682 -1.36072 -3.81139 0
M  V30 45 H 2.5382 -0.602368 -3.06741 0
M  V30 46 H 1.7582 -3.02795 -2.52406 0
M  V30 47 H 3.0462 -3.5924 -3.60311 0
M  V30 48 H 2.4442 -1.07898 -5.55315 0
M  V30 49 H 1.0012 -1.61832 -6.3139 0
M  V30 50 N 4.4343 0.785586 -1.36625 0
M  V30 51 C 5.3813 1.89838 -1.31264 0
M  V30 52 C 6.3513 1.65115 -0.180633 0
M  V30 53 O 7.5363 1.87222 -0.36777 0
M  V30 54 C 4.6763 3.26706 -1.11163 0
M  V30 55 C 3.7893 3.63476 -2.33472 0
M  V30 56 C 2.9243 4.89481 -2.06353 0
M  V30 57 C 1.9633 5.18941 -3.24602 0
M  V30 58 N 1.1003 6.36131 -2.97123 0
M  V30 59 H 5.9403 1.93756 -2.26413 0
M  V30 60 H 3.4773 0.947454 -1.12524 0
M  V30 61 H 5.4353 4.05639 -0.975337 0
M  V30 62 H 4.0653 3.222 -0.196674 0
M  V30 63 H 3.1173 2.79636 -2.57891 0
M  V30 64 H 4.4293 3.81193 -3.21704 0
M  V30 65 H 3.5833 5.76288 -1.89675 0
M  V30 66 H 2.3223 4.73841 -1.15437 0
M  V30 67 H 1.3273 4.30615 -3.41834 0
M  V30 68 H 2.5523 5.36498 -4.16349 0
M  V30 69 H 0.4983 6.21875 -2.08823 0
M  V30 70 H 0.4153 6.54198 -3.78894 0
M  V30 71 H 1.6833 7.2591 -2.84033 0
M  V30 72 N 5.9124 1.20967 1.01018 0
M  V30 73 C 7.1404 1.04956 1.78303 0
M  V30 74 C 7.5554 -0.400915 1.84494 0
M  V30 75 O 6.9124 -1.27826 1.30257 0
M  V30 76 C 6.9634 1.63403 3.22462 0
M  V30 77 O 6.6844 3.02775 3.16637 0
M  V30 78 C 8.1854 1.52432 4.16268 0
M  V30 79 H 5.4054 0.368858 0.560522 0
M  V30 80 H 7.9494 1.60193 1.27116 0
M  V30 81 H 6.1044 1.1227 3.70775 0
M  V30 82 H 6.5184 3.30626 4.07169 0
M  V30 83 H 7.9924 1.98078 5.15237 0
M  V30 84 H 8.4694 0.477875 4.36592 0
M  V30 85 H 9.0754 2.02787 3.73841 0
M  V30 86 N 7.3905 -1.2043 1.01659 0
M  V30 87 C 8.6395 -1.89118 0.701237 0
M  V30 88 C 8.9525 -1.79705 -0.772358 0
M  V30 89 O 10.1585 -2.43528 -1.20026 0
M  V30 90 C 8.6145 -3.39168 1.20388 0
M  V30 91 C 8.2225 -3.57166 2.70438 0
M  V30 92 C 9.9665 -4.1341 0.963953 0
M  V30 93 C 7.8735 -5.01042 3.14183 0
M  V30 94 H 6.8035 -0.708267 0.2586 0
M  V30 95 H 9.4545 -1.36239 1.22927 0
M  V30 96 H 7.8365 -3.91369 0.603824 0
M  V30 97 H 9.0105 -3.15351 3.35992 0
M  V30 98 H 7.3255 -2.96294 2.92572 0
M  V30 99 H 9.9225 -5.19491 1.26621 0
M  V30 100 H 10.2655 -4.16181 -0.099578 0
M  V30 101 H 10.7985 -3.67309 1.52738 0
M  V30 102 H 7.5375 -5.03426 4.19812 0
M  V30 103 H 7.0575 -5.43668 2.53348 0
M  V30 104 H 8.7365 -5.69623 3.0682 0
M  V30 105 N 8.8686 -0.792821 -1.36206 0
M  V30 106 C 9.7986 -0.207853 -2.32573 0
M  V30 107 C 10.7796 0.659055 -1.56813 0
M  V30 108 O 11.9646 0.592176 -1.84951 0
M  V30 109 C 9.0946 0.655449 -3.41059 0
M  V30 110 C 8.0486 -0.111842 -4.27854 0
M  V30 111 C 7.3746 0.872274 -5.27537 0
M  V30 112 C 8.6746 -1.30299 -5.05786 0
M  V30 113 H 10.3686 -1.01294 -2.81744 0
M  V30 114 H 7.9146 -0.48854 -1.3546 0
M  V30 115 H 9.8676 1.07464 -4.07467 0
M  V30 116 H 8.5916 1.49328 -2.90463 0
M  V30 117 H 7.2506 -0.512053 -3.63006 0
M  V30 118 H 6.8986 1.70523 -4.73214 0
M  V30 119 H 6.5986 0.363291 -5.86476 0
M  V30 120 H 8.1226 1.28996 -5.96818 0
M  V30 121 H 9.5366 -0.959379 -5.65216 0
M  V30 122 H 7.9336 -1.7455 -5.74154 0
M  V30 123 H 9.0036 -2.09663 -4.37229 0
M  V30 124 N 10.3467 1.47872 -0.545128 0
M  V30 125 C 11.5927 2.02793 -0.0166104 0
M  V30 126 C 11.9257 1.41987 1.32489 0
M  V30 127 O 11.2007 0.571045 1.85928 0
M  V30 128 C 11.4837 3.59989 0.0893294 0
M  V30 129 C 11.3367 4.3125 -1.27841 0
M  V30 130 C 12.6557 4.32606 0.808724 0
M  V30 131 H 9.7747 0.736962 -0.00751035 0
M  V30 132 H 12.4167 1.76433 -0.705085 0
M  V30 133 H 10.5667 3.82579 0.675681 0
M  V30 134 H 12.2387 4.20035 -1.90704 0
M  V30 135 H 10.4817 3.92076 -1.85632 0
M  V30 136 H 11.1527 5.39736 -1.15713 0
M  V30 137 H 13.6287 4.14936 0.310992 0
M  V30 138 H 12.5047 5.42251 0.851782 0
M  V30 139 H 12.7657 4.00963 1.86229 0
M  V30 140 N 11.8248 0.280983 1.55075 0
M  V30 141 C 12.7548 -0.597469 2.25727 0
M  V30 142 C 13.7358 -1.15417 1.24952 0
M  V30 143 O 14.9208 -1.18722 1.53684 0
M  V30 144 C 12.0508 -1.7789 2.98283 0
M  V30 145 C 11.0048 -1.35347 4.06036 0
M  V30 146 C 10.3308 -2.61846 4.66198 0
M  V30 147 C 11.6308 -0.499354 5.19907 0
M  V30 148 H 13.3248 -0.00824265 2.99399 0
M  V30 149 H 10.8708 -0.0025244 1.44 0
M  V30 150 H 12.8238 -2.39937 3.46422 0
M  V30 151 H 11.5478 -2.39405 2.22155 0
M  V30 152 H 10.2068 -0.756156 3.58717 0
M  V30 153 H 9.8548 -3.21632 3.86732 0
M  V30 154 H 9.5548 -2.3409 5.38958 0
M  V30 155 H 11.0788 -3.24732 5.1709 0
M  V30 156 H 12.4928 -1.02498 5.64063 0
M  V30 157 H 10.8898 -0.316424 5.99265 0
M  V30 158 H 11.9598 0.480459 4.82514 0
M  V30 159 N 13.3029 -1.57598 0.00835791 0
M  V30 160 C 14.2329 -2.1198 -0.979113 0
M  V30 161 C 15.2139 -1.03091 -1.35301 0
M  V30 162 O 16.3989 -1.30818 -1.43528 0
M  V30 163 C 13.5289 -2.62995 -2.26828 0
M  V30 164 C 12.4829 -3.76485 -2.03576 0
M  V30 165 C 11.8089 -4.13846 -3.38579 0
M  V30 166 C 13.1089 -5.0342 -1.39161 0
M  V30 167 H 14.8029 -2.94738 -0.526281 0
M  V30 168 H 12.3489 -1.41783 -0.251704 0
M  V30 169 H 14.3019 -2.99669 -2.96271 0
M  V30 170 H 13.0259 -1.7737 -2.7424 0
M  V30 171 H 11.6849 -3.40217 -1.36557 0
M  V30 172 H 11.3329 -3.25232 -3.83709 0
M  V30 173 H 11.0329 -4.90312 -3.23834 0
M  V30 174 H 12.5569 -4.53086 -4.09323 0
M  V30 175 H 13.9709 -5.37812 -1.98573 0
M  V30 176 H 12.3679 -5.84746 -1.34878 0
M  V30 177 H 13.4379 -4.83548 -0.361868 0
M  V30 178 N 14.781 0.264519 -1.55364 0
M  V30 179 C 16.03 0.992812 -1.75574 0
M  V30 180 C 16.343 1.87142 -0.568979 0
M  V30 181 O 17.549 2.63513 -0.653682 0
M  V30 182 C 16.005 1.81519 -3.10771 0
M  V30 183 C 15.613 0.984839 -4.37041 0
M  V30 184 C 17.357 2.53727 -3.40327 0
M  V30 185 C 15.264 1.80209 -5.63275 0
M  V30 186 H 14.194 0.374412 -0.65447 0
M  V30 187 H 16.845 0.248138 -1.81815 0
M  V30 188 H 15.227 2.60115 -2.98591 0
M  V30 189 H 16.401 0.242455 -4.60162 0
M  V30 190 H 14.716 0.37691 -4.14691 0
M  V30 191 H 17.313 3.15292 -4.3185 0
M  V30 192 H 17.656 3.24447 -2.60845 0
M  V30 193 H 18.189 1.82156 -3.53644 0
M  V30 194 H 14.928 1.13896 -6.45529 0
M  V30 195 H 14.448 2.52022 -5.44284 0
M  V30 196 H 16.127 2.37364 -6.01887 0
M  V30 197 N 16.2591 1.48442 0.529413 0
M  V30 198 C 17.1891 1.65902 1.64313 0
M  V30 199 C 18.1701 0.507897 1.6234 0
M  V30 200 O 19.3551 0.740503 1.79528 0
M  V30 201 C 16.4851 1.69911 3.02898 0
M  V30 202 C 15.4391 2.8453 3.19729 0
M  V30 203 C 14.7651 2.73629 4.59381 0
M  V30 204 C 16.0651 4.25821 3.02447 0
M  V30 205 H 17.7591 2.5914 1.49955 0
M  V30 206 H 15.3051 1.24709 0.719982 0
M  V30 207 H 17.2581 1.80715 3.80684 0
M  V30 208 H 15.9821 0.732524 3.18279 0
M  V30 209 H 14.6411 2.73283 2.44361 0
M  V30 210 H 14.2891 1.74938 4.71599 0
M  V30 211 H 13.9891 3.50541 4.71588 0
M  V30 212 H 15.5131 2.86401 5.39265 0
M  V30 213 H 16.9271 4.37898 3.70024 0
M  V30 214 H 15.3241 5.03735 3.26146 0
M  V30 215 H 16.3941 4.42244 1.98867 0
M  V30 216 N 17.7372 -0.778329 1.37039 0
M  V30 217 C 18.7002 -1.87301 1.32102 0
M  V30 218 C 19.7002 -1.59198 0.226405 0
M  V30 219 O 20.8902 -1.67403 0.481861 0
M  V30 220 C 18.0222 -3.24309 1.05055 0
M  V30 221 H 19.2152 -1.93093 2.29467 0
M  V30 222 H 16.7682 -0.977358 1.21973 0
M  V30 223 H 17.5032 -3.24196 0.0819373 0
M  V30 224 H 17.2882 -3.46098 1.84279 0
M  V30 225 H 18.7782 -4.04382 1.04234 0
M  V30 226 N 19.2153 -1.21501 -1.00376 0
M  V30 227 C 20.4613 -1.03452 -1.74429 0
M  V30 228 C 20.7943 0.430764 -1.89362 0
M  V30 229 O 20.0693 1.31962 -1.42886 0
M  V30 230 C 20.3523 -1.73375 -3.15615 0
M  V30 231 C 20.2053 -3.27431 -3.08397 0
M  V30 232 C 21.5243 -1.47732 -4.14564 0
M  V30 233 H 18.6433 -0.377226 -0.633143 0
M  V30 234 H 21.2853 -1.49693 -1.17013 0
M  V30 235 H 19.4353 -1.34064 -3.64636 0
M  V30 236 H 21.1073 -3.76119 -2.67081 0
M  V30 237 H 19.3503 -3.5767 -2.45468 0
M  V30 238 H 20.0213 -3.71524 -4.08258 0
M  V30 239 H 22.4973 -1.8186 -3.74254 0
M  V30 240 H 21.3733 -1.99169 -5.11491 0
M  V30 241 H 21.6343 -0.407589 -4.40217 0
M  V30 242 N 20.6934 1.19889 -1.02296 0
M  V30 243 C 21.9424 1.88743 -0.711257 0
M  V30 244 C 22.2554 1.80112 0.762817 0
M  V30 245 O 23.4614 2.44161 1.18733 0
M  V30 246 C 21.9174 3.38525 -1.22185 0
M  V30 247 C 21.5254 3.55727 -2.72328 0
M  V30 248 C 23.2694 4.12893 -0.985864 0
M  V30 249 C 21.1764 4.99369 -3.16835 0
M  V30 250 H 20.1064 0.706885 -0.262353 0
M  V30 251 H 22.7574 1.35586 -1.23648 0
M  V30 252 H 21.1394 3.91044 -0.624571 0
M  V30 253 H 22.3134 3.13564 -3.3766 0
M  V30 254 H 20.6284 2.94739 -2.9414 0
M  V30 255 H 23.2254 5.18813 -1.29374 0
M  V30 256 H 23.5684 4.16228 0.0775055 0
M  V30 257 H 24.1014 3.66494 -1.54684 0
M  V30 258 H 20.8404 5.01193 -4.22476 0
M  V30 259 H 20.3604 5.42317 -2.56228 0
M  V30 260 H 22.0394 5.67988 -3.09837 0
M  V30 261 N 22.1715 0.800033 1.35784 0
M  V30 262 C 23.3995 0.389606 2.03199 0
M  V30 263 C 23.8145 -0.997375 1.60306 0
M  V30 264 O 23.1715 -1.64154 0.797481 0
M  V30 265 C 23.2225 0.455855 3.58614 0
M  V30 266 O 22.9435 1.78815 3.99946 0
M  V30 267 C 24.4445 0.0374032 4.43284 0
M  V30 268 H 21.6645 0.159132 0.651857 0
M  V30 269 H 24.2085 1.08183 1.73541 0
M  V30 270 H 22.3635 -0.188057 3.86943 0
M  V30 271 H 22.7775 1.74636 4.94573 0
M  V30 272 H 24.2515 0.134882 5.51835 0
M  V30 273 H 24.7285 -1.01651 4.27275 0
M  V30 274 H 25.3345 0.654215 4.20238 0
M  V30 275 N 23.6496 -1.47581 0.552962 0
M  V30 276 C 24.8986 -2.01684 0.0251995 0
M  V30 277 C 25.2116 -1.43317 -1.33115 0
M  V30 278 O 26.4176 -1.89057 -1.94858 0
M  V30 279 C 24.8736 -3.599 -0.00542052 0
M  V30 280 C 24.4816 -4.27257 1.34742 0
M  V30 281 C 26.2256 -4.21768 -0.4808 0
M  V30 282 C 24.1326 -5.77467 1.27614 0
M  V30 283 H 23.0626 -0.753979 0.00565033 0
M  V30 284 H 25.7136 -1.69616 0.70018 0
M  V30 285 H 24.0956 -3.88911 -0.745961 0
M  V30 286 H 25.2696 -4.09893 2.10534 0
M  V30 287 H 23.5846 -3.77358 1.76039 0
M  V30 288 H 26.1816 -5.31838 -0.55246 0
M  V30 289 H 26.5246 -3.88651 -1.49184 0
M  V30 290 H 27.0576 -3.97273 0.204752 0
M  V30 291 H 23.7966 -6.15196 2.26304 0
M  V30 292 H 23.3166 -5.9718 0.55996 0
M  V30 293 H 24.9956 -6.3959 0.976421 0
M  V30 294 N 25.1277 -0.289203 -1.54924 0
M  V30 295 C 26.3747 0.323519 -1.99899 0
M  V30 296 C 26.7027 1.54797 -1.17762 0
M  V30 297 O 25.9577 1.94237 -0.238835 0
M  V30 298 C 26.2567 0.736119 -3.49737 0
M  V30 299 C 25.9227 -0.385276 -4.49251 0
M  V30 300 C 24.5847 -0.693156 -4.76181 0
M  V30 301 C 26.9367 -1.14021 -5.08575 0
M  V30 302 C 24.2647 -1.7593 -5.59701 0
M  V30 303 C 26.6167 -2.19619 -5.93254 0
M  V30 304 C 25.2807 -2.51026 -6.185 0
M  V30 305 H 24.5507 0.118384 -0.731482 0
M  V30 306 H 27.1977 -0.405847 -1.8715 0
M  V30 307 H 25.5027 1.54539 -3.60035 0
M  V30 308 H 27.1997 1.22118 -3.81953 0
M  V30 309 H 23.7897 -0.135202 -4.28387 0
M  V30 310 H 27.9737 -0.915611 -4.87781 0
M  V30 311 H 23.2297 -2.0075 -5.77503 0
M  V30 312 H 27.4037 -2.78581 -6.38252 0
M  V30 313 H 25.0307 -3.33772 -6.83008 0
M  V30 314 N 26.6058 1.57591 -0.0167156 0
M  V30 315 C 27.5688 2.08393 0.954204 0
M  V30 316 C 28.5688 0.996531 1.26198 0
M  V30 317 O 29.7588 1.25858 1.20438 0
M  V30 318 C 26.8908 2.5394 2.27436 0
M  V30 319 H 28.0838 2.95455 0.514451 0
M  V30 320 H 25.6368 1.54582 0.231089 0
M  V30 321 H 26.3718 1.70171 2.76066 0
M  V30 322 H 26.1568 3.33371 2.06412 0
M  V30 323 H 27.6468 2.93512 2.97053 0
M  V30 324 N 28.0839 -0.256276 1.55502 0
M  V30 325 C 29.0139 -1.32102 1.92539 0
M  V30 326 C 29.9949 -1.50684 0.789194 0
M  V30 327 O 31.1799 -1.63449 1.04872 0
M  V30 328 C 28.3099 -2.67752 2.21192 0
M  V30 329 C 27.2639 -2.63878 3.36975 0
M  V30 330 C 26.5899 -4.03236 3.51147 0
M  V30 331 C 27.8899 -2.21682 4.72921 0
M  V30 332 H 29.5839 -1.01351 2.81724 0
M  V30 333 H 27.1299 -0.486105 1.35547 0
M  V30 334 H 29.0829 -3.42365 2.45691 0
M  V30 335 H 27.8069 -3.0012 1.28824 0
M  V30 336 H 26.4659 -1.91722 3.12471 0
M  V30 337 H 26.1139 -4.32854 2.56216 0
M  V30 338 H 25.8139 -4.01535 4.29003 0
M  V30 339 H 27.3379 -4.79563 3.77957 0
M  V30 340 H 28.7519 -2.86023 4.96854 0
M  V30 341 H 27.1489 -2.3111 5.53812 0
M  V30 342 H 28.2189 -1.16833 4.70615 0
M  V30 343 N 29.562 -1.4872 -0.521534 0
M  V30 344 C 30.808 -1.574 -1.27879 0
M  V30 345 C 31.141 -0.250817 -1.92573 0
M  V30 346 O 30.416 0.743934 -1.79711 0
M  V30 347 C 30.699 -2.71843 -2.36164 0
M  V30 348 C 30.552 -4.13893 -1.76105 0
M  V30 349 C 31.871 -2.82008 -3.37875 0
M  V30 350 H 28.99 -0.572941 -0.463581 0
M  V30 351 H 31.632 -1.80927 -0.580119 0
M  V30 352 H 29.782 -2.51914 -2.95756 0
M  V30 353 H 31.454 -4.45284 -1.20499 0
M  V30 354 H 29.697 -4.20498 -1.06601 0
M  V30 355 H 30.368 -4.89804 -2.5455 0
M  V30 356 H 32.844 -3.00086 -2.88249 0
M  V30 357 H 31.72 -3.63796 -4.11028 0
M  V30 358 H 31.981 -1.90511 -3.98946 0
M  V30 359 N 31.0401 0.771051 -1.3745 0
M  V30 360 C 32.2801 1.54264 -1.34096 0
M  V30 361 C 32.6441 1.91858 0.0737639 0
M  V30 362 O 33.8451 2.67797 0.23203 0
M  V30 363 C 32.1161 2.77326 -2.25445 0
M  V30 364 S 33.6751 3.67383 -2.39948 0
M  V30 365 H 30.4931 0.528122 -0.476034 0
M  V30 366 H 33.0951 0.906633 -1.73206 0
M  V30 367 H 31.7991 2.47788 -3.27153 0
M  V30 368 H 31.3301 3.45886 -1.87421 0
M  V30 369 H 33.3451 4.69334 -1.61059 0
M  V30 370 N 32.5182 1.22032 0.997298 0
M  V30 371 C 33.7642 1.04376 1.73878 0
M  V30 372 C 34.0972 -0.420716 1.89588 0
M  V30 373 O 33.3722 -1.31202 1.43583 0
M  V30 374 C 33.6552 1.75047 3.14691 0
M  V30 375 C 33.5082 3.29062 3.06656 0
M  V30 376 C 34.8272 1.49928 4.13775 0
M  V30 377 H 31.9462 0.380578 0.631133 0
M  V30 378 H 34.5882 1.50312 1.16217 0
M  V30 379 H 32.7382 1.35996 3.63919 0
M  V30 380 H 34.4102 3.7753 2.65083 0
M  V30 381 H 32.6532 3.58967 2.43568 0
M  V30 382 H 33.3242 3.73683 4.06282 0
M  V30 383 H 35.8002 1.83842 3.73285 0
M  V30 384 H 34.6762 2.01878 5.10428 0
M  V30 385 H 34.9372 0.430929 4.39995 0
M  V30 386 N 33.9963 -1.19345 1.0293 0
M  V30 387 C 34.9263 -2.2481 0.631105 0
M  V30 388 C 35.9073 -1.66245 -0.360104 0
M  V30 389 O 37.0923 -1.92677 -0.242726 0
M  V30 390 C 34.2223 -3.47295 -0.0184607 0
M  V30 391 C 33.1763 -4.18536 0.895073 0
M  V30 392 C 32.5023 -5.34586 0.110592 0
M  V30 393 C 33.8023 -4.73287 2.209 0
M  V30 394 H 35.4963 -2.58372 1.51275 0
M  V30 395 H 33.0423 -1.24194 0.728818 0
M  V30 396 H 34.9953 -4.20268 -0.308675 0
M  V30 397 H 33.7193 -3.12933 -0.934907 0
M  V30 398 H 32.3783 -3.47446 1.16949 0
M  V30 399 H 32.0263 -4.96469 -0.807902 0
M  V30 400 H 31.7263 -5.83183 0.719087 0
M  V30 401 H 33.2503 -6.10355 -0.172871 0
M  V30 402 H 34.6643 -5.38013 1.98028 0
M  V30 403 H 33.0613 -5.32373 2.76946 0
M  V30 404 H 34.1313 -3.91331 2.86336 0
M  V30 405 N 35.4744 -0.807222 -1.35358 0
M  V30 406 C 36.4044 -0.232509 -2.3234 0
M  V30 407 C 37.3854 0.642386 -1.57504 0
M  V30 408 O 38.5704 0.572526 -1.85569 0
M  V30 409 C 35.7004 0.619238 -3.41735 0
M  V30 410 C 34.6544 -0.157215 -4.27711 0
M  V30 411 C 33.9804 0.816273 -5.28433 0
M  V30 412 C 35.2804 -1.35656 -5.04376 0
M  V30 413 H 36.9744 -1.04276 -2.80654 0
M  V30 414 H 34.5204 -0.50288 -1.34934 0
M  V30 415 H 36.4734 1.03137 -4.08584 0
M  V30 416 H 35.1974 1.46239 -2.92031 0
M  V30 417 H 33.8564 -0.550525 -3.62443 0
M  V30 418 H 33.5044 1.65494 -4.74996 0
M  V30 419 H 33.2044 0.301067 -5.86828 0
M  V30 420 H 34.7284 1.22659 -5.98153 0
M  V30 421 H 36.1424 -1.01927 -5.64166 0
M  V30 422 H 34.5394 -1.8063 -5.7227 0
M  V30 423 H 35.6094 -2.14288 -4.34981 0
M  V30 424 N 36.9525 1.47285 -0.560781 0
M  V30 425 C 38.1985 2.02764 -0.0381184 0
M  V30 426 C 38.5315 1.43384 1.30976 0
M  V30 427 O 37.8065 0.590733 1.85312 0
M  V30 428 C 38.0895 3.60064 0.0511427 0
M  V30 429 C 37.9425 4.2987 -1.32408 0
M  V30 430 C 39.2615 4.33439 0.762795 0
M  V30 431 H 36.3805 0.736841 -0.0153264 0
M  V30 432 H 39.0225 1.75675 -0.723759 0
M  V30 433 H 37.1725 3.83274 0.635065 0
M  V30 434 H 38.8445 4.17989 -1.95148 0
M  V30 435 H 37.0875 3.90085 -1.8978 0
M  V30 436 H 37.7585 5.38478 -1.21431 0
M  V30 437 H 40.2345 4.15243 0.266965 0
M  V30 438 H 39.1105 5.43124 0.794221 0
M  V30 439 H 39.3715 4.02915 1.81966 0
M  V30 440 N 38.4306 0.297415 1.54768 0
M  V30 441 C 39.6786 -0.312295 1.99673 0
M  V30 442 C 39.9996 -1.54686 1.18732 0
M  V30 443 O 39.2696 -1.93854 0.282382 0
M  V30 444 H 37.8496 -0.118381 0.73756 0
M  V30 445 H 40.5116 0.407915 1.90583 0
M  V30 446 H 39.6076 -0.586813 3.06534 0
M  V30 447 N 39.9087 -1.5758 0.0250728 0
M  V30 448 C 41.3247 -1.56124 -0.331282 0
M  V30 449 C 41.5247 -1.03029 -1.73169 0
M  V30 450 O 40.5807 -0.675215 -2.43305 0
M  V30 451 C 41.8937 -3.00139 -0.183584 0
M  V30 452 C 43.4417 -3.11946 -0.256654 0
M  V30 453 C 43.9167 -4.57793 -0.137792 0
M  V30 454 N 45.4077 -4.6279 -0.194904 0
M  V30 455 C 46.1427 -5.7326 -0.126655 0
M  V30 456 N 45.6387 -6.928 -0.00755288 0
M  V30 457 N 47.4317 -5.61811 -0.180348 0
M  V30 458 H 39.5827 -1.90424 0.94087 0
M  V30 459 H 41.8457 -0.875761 0.362968 0
M  V30 460 H 41.5517 -3.4292 0.780927 0
M  V30 461 H 41.4257 -3.64899 -0.955448 0
M  V30 462 H 43.8127 -2.69079 -1.21162 0
M  V30 463 H 43.8937 -2.49915 0.545517 0
M  V30 464 H 43.5377 -5.01339 0.813739 0
M  V30 465 H 43.4677 -5.17798 -0.958775 0
M  V30 466 H 45.9587 -3.76807 -0.287267 0
M  V30 467 H 46.2717 -7.72791 0.0379428 0
M  V30 468 H 44.6167 -6.94995 0.0271731 0
M  V30 469 H 47.8077 -4.6731 -0.271767 0
M  V30 470 H 47.9807 -6.47882 -0.123697 0
M  V30 471 N 41.3868 0.248026 -1.55636 0
M  V30 472 C 42.6348 0.974295 -1.77065 0
M  V30 473 C 42.9558 1.85897 -0.588849 0
M  V30 474 O 42.2258 1.91868 0.395407 0
M  V30 475 H 40.8058 0.362733 -0.653019 0
M  V30 476 H 43.4678 0.266244 -1.93073 0
M  V30 477 H 42.5638 1.59667 -2.68166 0
M  V30 478 N 42.8649 1.48995 0.513639 0
M  V30 479 C 44.1129 1.57531 1.26604 0
M  V30 480 C 44.4339 0.258236 1.93283 0
M  V30 481 O 43.7039 -0.721502 1.8213 0
M  V30 482 H 42.2839 0.580387 0.470276 0
M  V30 483 H 44.9459 1.85552 0.596373 0
M  V30 484 H 44.0419 2.36486 2.03669 0
M  V30 485 N 44.343 -0.763751 1.37857 0
M  V30 486 C 45.62 -1.51244 1.24035 0
M  V30 487 C 46 -2.10472 -0.162649 0
M  V30 488 O 45.348 -1.96206 -1.17112 0
M  V30 489 C 45.558 -2.58694 2.34261 0
M  V30 490 C 46.906 -3.25878 2.72193 0
M  V30 491 O 47.93 -2.68993 2.33497 0
M  V30 492 O 46.789 -4.2874 3.38887 0
M  V30 493 H 43.883 -0.670243 0.484462 0
M  V30 494 H 46.429 -0.800031 1.49658 0
M  V30 495 H 45.201 -2.13105 3.2818 0
M  V30 496 H 44.824 -3.37527 2.10146 0
M  V30 497 N 45.8211 -1.22559 -0.990812 0
M  V30 498 C 47.0691 -1.04933 -1.72724 0
M  V30 499 C 47.3901 0.416158 -1.90508 0
M  V30 500 O 46.6601 1.29918 -1.46622 0
M  V30 501 H 45.2401 -0.385296 -0.639965 0
M  V30 502 H 47.9021 -1.54105 -1.19322 0
M  V30 503 H 46.9981 -1.52886 -2.72089 0
M  V30 504 N 47.2992 1.18797 -1.03562 0
M  V30 505 C 48.5472 1.88278 -0.734569 0
M  V30 506 C 48.8682 1.8043 0.739586 0
M  V30 507 O 48.1382 1.21925 1.53333 0
M  V30 508 H 46.7182 0.696991 -0.268725 0
M  V30 509 H 49.3802 1.44192 -1.31129 0
M  V30 510 H 48.4762 2.94443 -1.03489 0
M  V30 511 N 48.7773 0.814389 1.34928 0
M  V30 512 C 49.6873 0.231978 2.3345 0
M  V30 513 C 50.7033 -0.629139 1.62228 0
M  V30 514 O 51.8793 -0.539052 1.94052 0
M  V30 515 C 48.9443 -0.603482 3.41407 0
M  V30 516 C 48.0053 0.279037 4.28392 0
M  V30 517 C 47.2383 -0.516643 5.31193 0
M  V30 518 O 47.4613 -1.75068 5.4287 0
M  V30 519 O 46.3953 0.0965652 6.01823 0
M  V30 520 H 50.2213 1.04721 2.85074 0
M  V30 521 H 47.8063 0.576343 1.37836 0
M  V30 522 H 49.6883 -1.07908 4.0735 0
M  V30 523 H 48.3633 -1.39618 2.92042 0
M  V30 524 H 47.2703 0.801948 3.65403 0
M  V30 525 H 48.6033 1.03588 4.81176 0
M  V30 526 N 50.2554 -1.46986 0.568584 0
M  V30 527 C 51.6664 -1.86188 0.138219 0
M  V30 528 C 52.0174 -1.47388 -1.29504 0
M  V30 529 O 51.1424 -0.88219 -1.97602 0
M  V30 530 C 51.7374 -3.3792 0.244065 0
M  V30 531 C 50.2964 -3.76171 -0.131335 0
M  V30 532 C 49.4434 -2.71027 0.586465 0
M  V30 533 H 52.3944 -1.38342 0.777645 0
M  V30 534 H 52.4154 -3.76729 -0.534351 0
M  V30 535 H 51.9274 -3.66128 1.28731 0
M  V30 536 H 50.0284 -3.5358 -1.17526 0
M  V30 537 H 50.1414 -4.78523 0.235146 0
M  V30 538 H 48.5054 -2.54684 0.0282722 0
M  V30 539 H 49.2884 -3.02077 1.63109 0
M  V30 540 N 51.7335 -0.305618 -1.54608 0
M  V30 541 C 52.9585 0.307562 -2.05107 0
M  V30 542 C 53.3835 1.46385 -1.18123 0
M  V30 543 O 52.7415 1.8034 -0.186324 0
M  V30 544 C 52.7895 0.73704 -3.52987 0
M  V30 545 O 51.8935 1.84134 -3.6901 0
M  V30 546 H 51.2345 0.0589143 -0.661381 0
M  V30 547 H 53.7645 -0.448807 -1.99617 0
M  V30 548 H 53.7745 1.02459 -3.94925 0
M  V30 549 H 52.4495 -0.108773 -4.15758 0
M  V30 550 H 51.0265 1.55398 -3.38978 0
M  V30 551 N 53.2116 1.57565 -0.0334293 0
M  V30 552 C 54.1436 2.0739 0.975811 0
M  V30 553 C 55.1566 0.998166 1.2861 0
M  V30 554 O 56.3456 1.27426 1.25 0
M  V30 555 C 53.4456 2.4871 2.30209 0
M  V30 556 C 52.6186 3.79413 2.17634 0
M  V30 557 C 51.6776 4.07237 3.33233 0
M  V30 558 O 50.7036 4.77425 3.09927 0
M  V30 559 N 51.9056 3.5775 4.5716 0
M  V30 560 H 54.6706 2.94598 0.55066 0
M  V30 561 H 52.2316 1.61173 0.15323 0
M  V30 562 H 54.2236 2.64413 3.06378 0
M  V30 563 H 52.7936 1.66845 2.64351 0
M  V30 564 H 52.0136 3.73465 1.26165 0
M  V30 565 H 53.3016 4.65038 2.0644 0
M  V30 566 H 52.6996 3.00976 4.78989 0
M  V30 567 H 51.2566 3.78724 5.30482 0
M  V30 568 N 54.6897 -0.239769 1.55765 0
M  V30 569 C 55.6197 -1.30052 1.9393 0
M  V30 570 C 56.6007 -1.49839 0.805132 0
M  V30 571 O 57.7857 -1.62328 1.06599 0
M  V30 572 C 54.9157 -2.65391 2.2402 0
M  V30 573 C 53.8697 -2.60289 3.39755 0
M  V30 574 C 53.1957 -3.99489 3.55405 0
M  V30 575 C 54.4957 -2.16654 4.75246 0
M  V30 576 H 56.1897 -0.983573 2.82783 0
M  V30 577 H 53.7357 -0.471701 1.36055 0
M  V30 578 H 55.6887 -3.3974 2.49308 0
M  V30 579 H 54.4127 -2.98736 1.32 0
M  V30 580 H 53.0717 -1.88398 3.14487 0
M  V30 581 H 52.7197 -4.30112 2.60793 0
M  V30 582 H 52.4197 -3.96962 4.33238 0
M  V30 583 H 53.9437 -4.75528 3.83022 0
M  V30 584 H 55.3577 -2.80737 4.99859 0
M  V30 585 H 53.7547 -2.25223 5.56232 0
M  V30 586 H 54.8247 -1.11835 4.71827 0
M  V30 587 N 56.1678 -1.49265 -0.50573 0
M  V30 588 C 57.5788 -1.51769 -1.08734 0
M  V30 589 C 57.9298 -0.301192 -1.93874 0
M  V30 590 O 57.0548 0.589456 -2.08217 0
M  V30 591 C 57.6498 -2.75017 -1.97867 0
M  V30 592 C 56.2088 -2.80314 -2.51199 0
M  V30 593 C 55.3558 -2.4562 -1.28709 0
M  V30 594 H 58.3068 -1.56031 -0.289855 0
M  V30 595 H 58.3278 -2.5491 -2.82491 0
M  V30 596 H 57.8398 -3.63539 -1.35873 0
M  V30 597 H 55.9408 -1.96061 -3.16845 0
M  V30 598 H 56.0538 -3.82366 -2.88675 0
M  V30 599 H 54.4178 -1.97297 -1.61078 0
M  V30 600 H 55.2008 -3.36411 -0.6843 0
M  V30 601 N 57.6459 0.756429 -1.3826 0
M  V30 602 C 58.5959 1.86069 -1.31766 0
M  V30 603 C 59.5799 1.59621 -0.202483 0
M  V30 604 O 60.7719 1.7149 -0.438211 0
M  V30 605 C 57.9009 3.23742 -1.1422 0
M  V30 606 C 56.9869 3.56091 -2.30348 0
M  V30 607 N 57.3779 3.59517 -3.55783 0
M  V30 608 C 55.6759 3.86341 -2.22838 0
M  V30 609 C 56.3769 3.89052 -4.32451 0
M  V30 610 N 55.3529 4.05736 -3.61772 0
M  V30 611 H 59.1549 1.86992 -2.26741 0
M  V30 612 H 56.6689 0.953643 -1.31451 0
M  V30 613 H 58.6659 4.02761 -1.07652 0
M  V30 614 H 57.3259 3.24073 -0.201763 0
M  V30 615 H 58.3369 3.41347 -3.89491 0
M  V30 616 H 55.0139 3.94404 -1.36937 0
M  V30 617 H 56.4039 3.98349 -5.4108 0
M  V30 618 N 59.124 1.23083 0.984299 0
M  V30 619 C 60.364 1.07226 1.74017 0
M  V30 620 C 60.728 -0.384766 1.88105 0
M  V30 621 O 61.929 -0.664411 2.60459 0
M  V30 622 C 60.2 1.77348 3.10294 0
M  V30 623 S 61.759 1.77014 4.01512 0
M  V30 624 H 58.577 0.383819 0.598502 0
M  V30 625 H 61.179 1.56158 1.17622 0
M  V30 626 H 59.883 2.82506 2.97689 0
M  V30 627 H 59.414 1.28682 3.71759 0
M  V30 628 H 61.429 0.825956 4.89277 0
M  V30 629 N 60.6021 -1.18246 1.0419 0
M  V30 630 C 62.0131 -1.69914 0.773698 0
M  V30 631 C 62.3641 -1.83085 -0.705297 0
M  V30 632 O 61.4891 -1.51123 -1.5489 0
M  V30 633 C 62.0841 -3.08619 1.39784 0
M  V30 634 C 60.6431 -3.57494 1.17792 0
M  V30 635 C 59.7901 -2.34013 1.48773 0
M  V30 636 H 62.7411 -1.02904 1.20816 0
M  V30 637 H 62.7621 -3.71958 0.801714 0
M  V30 638 H 62.2741 -2.99001 2.47426 0
M  V30 639 H 60.3751 -3.72406 0.120295 0
M  V30 640 H 60.4881 -4.40852 1.87581 0
M  V30 641 H 58.8521 -2.37986 0.907463 0
M  V30 642 H 59.6351 -2.27013 2.57527 0
M  V30 643 N 62.0802 -0.821533 -1.34494 0
M  V30 644 C 63.3052 -0.420873 -2.03085 0
M  V30 645 C 63.7302 0.964915 -1.61465 0
M  V30 646 O 63.0882 1.62763 -0.798607 0
M  V30 647 C 63.1362 -0.529414 -3.56693 0
M  V30 648 O 62.2402 0.451302 -4.09923 0
M  V30 649 H 61.5812 -0.173489 -0.640935 0
M  V30 650 H 64.1112 -1.11157 -1.71771 0
M  V30 651 H 64.1212 -0.404671 -4.05988 0
M  V30 652 H 62.7962 -1.54014 -3.86332 0
M  V30 653 H 61.3732 0.285558 -3.71805 0
M  V30 654 N 63.5583 1.46682 -0.576371 0
M  V30 655 C 64.8043 2.02712 -0.0596221 0
M  V30 656 C 65.1373 1.44765 1.29448 0
M  V30 657 O 64.4123 0.610355 1.84675 0
M  V30 658 C 64.6953 3.60098 0.0129503 0
M  V30 659 C 64.5483 4.28441 -1.3696 0
M  V30 660 C 65.8673 4.34224 0.71678 0
M  V30 661 H 62.9863 0.736637 -0.0231407 0
M  V30 662 H 65.6283 1.74898 -0.742351 0
M  V30 663 H 63.7783 3.83926 0.594378 0
M  V30 664 H 65.4503 4.15896 -1.9957 0
M  V30 665 H 63.6933 3.8805 -1.93907 0
M  V30 666 H 64.3643 5.3716 -1.27135 0
M  V30 667 H 66.8403 4.15503 0.222908 0
M  V30 668 H 65.7163 5.43936 0.73657 0
M  V30 669 H 65.9773 4.04823 1.77682 0
M  V30 670 N 65.0364 0.313813 1.54444 0
M  V30 671 C 66.2614 -0.296681 2.05267 0
M  V30 672 C 66.6864 -1.45757 1.18897 0
M  V30 673 O 66.0444 -1.80239 0.195886 0
M  V30 674 C 66.0924 -0.71831 3.53373 0
M  V30 675 O 65.1964 -1.82175 3.69981 0
M  V30 676 H 64.5374 -0.0554061 0.661684 0
M  V30 677 H 67.0674 0.459387 1.99376 0
M  V30 678 H 67.0774 -1.00364 3.95463 0
M  V30 679 H 65.7524 0.130821 4.15694 0
M  V30 680 H 64.3294 -1.53598 3.39797 0
M  V30 681 N 66.5145 -1.57545 0.0417849 0
M  V30 682 C 67.9255 -1.80011 -0.495259 0
M  V30 683 C 68.2765 -0.953199 -1.71489 0
M  V30 684 O 67.4015 -0.167138 -2.15754 0
M  V30 685 C 67.9965 -3.26482 -0.905265 0
M  V30 686 C 66.5555 -3.499 -1.38734 0
M  V30 687 C 65.7025 -2.74979 -0.358056 0
M  V30 688 H 68.6535 -1.56425 0.267736 0
M  V30 689 H 68.6745 -3.36887 -1.76882 0
M  V30 690 H 68.1865 -3.88096 -0.017401 0
M  V30 691 H 66.2875 -2.93553 -2.29471 0
M  V30 692 H 66.4005 -4.58615 -1.38598 0
M  V30 693 H 64.7645 -2.40834 -0.828912 0
M  V30 694 H 65.5475 -3.39315 0.521561 0
M  V30 695 N 67.9926 0.231505 -1.5589 0
M  V30 696 C 69.2176 0.978689 -1.82856 0
M  V30 697 C 69.6426 1.77559 -0.620846 0
M  V30 698 O 69.0006 1.76119 0.430305 0
M  V30 699 C 69.0486 1.87997 -3.07716 0
M  V30 700 O 68.1526 2.97393 -2.85712 0
M  V30 701 H 67.4936 0.277663 -0.603158 0
M  V30 702 H 70.0236 0.24783 -2.03093 0
M  V30 703 H 70.0336 2.2917 -3.37558 0
M  V30 704 H 68.7086 1.29417 -3.95252 0
M  V30 705 H 67.2856 2.60238 -2.67078 0
M  V30 706 N 69.4707 1.49531 0.497807 0
M  V30 707 C 70.4337 1.65916 1.58128 0
M  V30 708 C 71.4337 0.530825 1.51786 0
M  V30 709 O 72.6237 0.797342 1.54881 0
M  V30 710 C 69.7557 1.65951 2.9778 0
M  V30 711 H 70.9487 2.62556 1.44929 0
M  V30 712 H 68.5017 1.38611 0.722275 0
M  V30 713 H 69.2367 0.709065 3.16453 0
M  V30 714 H 69.0217 2.47897 3.03792 0
M  V30 715 H 70.5117 1.80673 3.76493 0
M  V30 716 N 70.9488 -0.749086 1.3866 0
M  V30 717 C 71.8808 -1.87273 1.32142 0
M  V30 718 C 72.8938 -1.61127 0.232787 0
M  V30 719 O 74.0828 -1.71623 0.49069 0
M  V30 720 C 71.1828 -3.23005 1.02571 0
M  V30 721 C 70.3558 -3.7662 2.22433 0
M  V30 722 C 69.4148 -4.90879 1.89537 0
M  V30 723 O 68.4408 -5.05276 2.62078 0
M  V30 724 N 69.6428 -5.74198 0.853031 0
M  V30 725 H 72.4078 -1.93373 2.28969 0
M  V30 726 H 69.9688 -0.929216 1.32579 0
M  V30 727 H 71.9608 -3.96992 0.786085 0
M  V30 728 H 70.5308 -3.12262 0.145249 0
M  V30 729 H 69.7508 -2.94147 2.62434 0
M  V30 730 H 71.0388 -4.09173 3.02415 0
M  V30 731 H 70.4368 -5.6514 0.25155 0
M  V30 732 H 68.9938 -6.48313 0.67329 0
M  V30 733 N 72.4269 -1.23603 -0.977757 0
M  V30 734 C 73.8379 -1.06424 -1.53398 0
M  V30 735 C 74.1889 0.367578 -1.92726 0
M  V30 736 O 73.3139 1.25465 -1.76316 0
M  V30 737 C 73.9089 -1.92568 -2.78753 0
M  V30 738 C 72.4679 -1.79642 -3.30765 0
M  V30 739 C 71.6149 -1.88111 -2.03739 0
M  V30 740 H 74.5659 -1.37227 -0.797152 0
M  V30 741 H 74.5869 -1.45203 -3.51705 0
M  V30 742 H 74.0989 -2.96771 -2.50098 0
M  V30 743 H 72.1999 -0.782325 -3.64294 0
M  V30 744 H 72.3129 -2.63174 -4.00345 0
M  V30 745 H 70.6769 -1.31723 -2.17994 0
M  V30 746 H 71.4599 -2.93875 -1.77461 0
M  V30 747 N 73.905 1.17692 -1.04816 0
M  V30 748 C 75.151 1.88389 -0.766892 0
M  V30 749 C 75.506 1.79282 0.698269 0
M  V30 750 O 74.799 1.18739 1.50372 0
M  V30 751 C 74.993 3.37462 -1.17703 0
M  V30 752 C 74.822 3.6108 -2.68051 0
M  V30 753 C 73.592 3.78018 -3.35307 0
M  V30 754 C 75.79 3.61039 -3.66273 0
M  V30 755 N 73.772 3.89444 -4.74559 0
M  V30 756 C 75.143 3.78269 -4.91235 0
M  V30 757 C 77.198 3.44168 -3.59796 0
M  V30 758 C 75.901 3.80376 -6.10497 0
M  V30 759 C 77.927 3.4756 -4.78493 0
M  V30 760 C 77.289 3.65295 -6.02278 0
M  V30 761 H 73.388 0.707651 -0.332798 0
M  V30 762 H 75.972 1.41314 -1.33934 0
M  V30 763 H 74.143 3.83214 -0.63257 0
M  V30 764 H 75.875 3.95759 -0.845989 0
M  V30 765 H 72.63 3.77714 -2.85708 0
M  V30 766 H 73.054 3.98962 -5.46954 0
M  V30 767 H 77.696 3.29396 -2.65062 0
M  V30 768 H 75.414 3.93933 -7.05579 0
M  V30 769 H 79 3.3577 -4.75131 0
M  V30 770 H 77.88 3.6782 -6.92588 0
M  V30 771 N 75.3831 0.828654 1.34056 0
M  V30 772 C 76.6111 0.43262 2.02326 0
M  V30 773 C 77.0261 -0.963147 1.62385 0
M  V30 774 O 76.3831 -1.62425 0.832121 0
M  V30 775 C 76.4341 0.53182 3.57567 0
M  V30 776 O 76.1551 1.87258 3.96063 0
M  V30 777 C 77.6561 0.131422 4.43105 0
M  V30 778 H 74.8761 0.172923 0.648335 0
M  V30 779 H 77.4201 1.1184 1.71208 0
M  V30 780 H 75.5751 -0.105938 3.87255 0
M  V30 781 H 75.9891 1.85087 4.90758 0
M  V30 782 H 77.4631 0.251904 5.51425 0
M  V30 783 H 77.9401 -0.925645 4.29335 0
M  V30 784 H 78.5461 0.743207 4.18756 0
M  V30 785 N 76.8612 -1.46375 0.584142 0
M  V30 786 C 77.8112 -2.27371 -0.169232 0
M  V30 787 C 78.7952 -1.35955 -0.860523 0
M  V30 788 O 79.9872 -1.60119 -0.754382 0
M  V30 789 C 77.1162 -3.22334 -1.18134 0
M  V30 790 C 76.2022 -4.21235 -0.492088 0
M  V30 791 N 76.5932 -5.03766 0.453129 0
M  V30 792 C 74.8912 -4.39773 -0.742652 0
M  V30 793 C 75.5922 -5.75366 0.85609 0
M  V30 794 N 74.5682 -5.43214 0.204926 0
M  V30 795 H 78.3702 -2.88572 0.557097 0
M  V30 796 H 75.8842 -1.57242 0.406042 0
M  V30 797 H 77.8812 -3.79071 -1.73525 0
M  V30 798 H 76.5412 -2.62693 -1.90847 0
M  V30 799 H 77.5522 -5.11227 0.828723 0
M  V30 800 H 74.2292 -3.91279 -1.45625 0
M  V30 801 H 75.6192 -6.5172 1.63434 0
M  V30 802 N 78.3393 -0.321999 -1.54275 0
M  V30 803 C 79.7503 0.166384 -1.85957 0
M  V30 804 C 80.1013 1.51747 -1.24367 0
M  V30 805 O 79.2263 2.09317 -0.549124 0
M  V30 806 C 79.8213 0.308681 -3.37391 0
M  V30 807 C 78.3803 0.741286 -3.69028 0
M  V30 808 C 77.5273 -0.137937 -2.76957 0
M  V30 809 H 80.4783 -0.542335 -1.49146 0
M  V30 810 H 80.4993 1.13984 -3.63026 0
M  V30 811 H 80.0113 -0.674809 -3.82188 0
M  V30 812 H 78.1123 1.73458 -3.29762 0
M  V30 813 H 78.2253 0.546118 -4.75977 0
M  V30 814 H 76.5893 0.386251 -2.51754 0
M  V30 815 H 77.3723 -1.11816 -3.2458 0
M  V30 816 N 79.8174 1.5752 -0.0501392 0
M  V30 817 C 81.0654 1.9227 0.622642 0
M  V30 818 C 81.3864 0.929083 1.71444 0
M  V30 819 O 80.6564 -0.0262186 1.95882 0
M  V30 820 H 79.2364 0.709739 0.232981 0
M  V30 821 H 81.8984 1.94628 -0.102898 0
M  V30 822 H 80.9944 2.93479 1.06191 0
M  V30 823 N 81.2955 -0.223234 1.56011 0
M  V30 824 C 82.2275 -1.30006 1.88762 0
M  V30 825 C 83.2405 -1.43129 0.775746 0
M  V30 826 O 84.4295 -1.44057 1.05403 0
M  V30 827 C 81.5295 -2.67589 2.07965 0
M  V30 828 C 80.7025 -2.76434 3.38973 0
M  V30 829 C 79.7615 -3.95019 3.47629 0
M  V30 830 O 78.7875 -3.83436 4.20672 0
M  V30 831 N 79.9895 -5.09249 2.78649 0
M  V30 832 H 82.7545 -1.02238 2.81722 0
M  V30 833 H 80.3155 -0.413278 1.56536 0
M  V30 834 H 82.3075 -3.45297 2.11073 0
M  V30 835 H 80.8775 -2.87964 1.21638 0
M  V30 836 H 80.0975 -1.85216 3.47978 0
M  V30 837 H 81.3855 -2.79313 4.25278 0
M  V30 838 H 80.7835 -5.21556 2.19081 0
M  V30 839 H 79.3405 -5.85007 2.8742 0
M  V30 840 N 82.7736 -1.49793 -0.48987 0
M  V30 841 C 83.9986 -1.63836 -1.27172 0
M  V30 842 C 84.4236 -0.31402 -1.8546 0
M  V30 843 O 83.7816 0.719803 -1.66399 0
M  V30 844 C 83.8296 -2.71797 -2.36978 0
M  V30 845 O 82.9336 -2.31744 -3.41128 0
M  V30 846 H 82.2746 -0.547997 -0.37496 0
M  V30 847 H 84.8046 -1.96053 -0.585191 0
M  V30 848 H 84.8146 -2.94305 -2.82575 0
M  V30 849 H 83.4896 -3.67923 -1.93921 0
M  V30 850 H 82.0666 -2.1961 -3.01373 0
M  V30 851 N 84.2517 0.741722 -1.39055 0
M  V30 852 C 85.1837 1.8657 -1.33133 0
M  V30 853 C 86.1967 1.61001 -0.241329 0
M  V30 854 O 87.3857 1.7136 -0.499784 0
M  V30 855 C 84.4857 3.22457 -1.04283 0
M  V30 856 C 83.6587 3.75435 -2.24427 0
M  V30 857 C 82.7177 4.89867 -1.92138 0
M  V30 858 O 81.7437 5.03879 -2.64754 0
M  V30 859 N 82.9457 5.73738 -0.88347 0
M  V30 860 H 85.7107 1.92156 -2.29991 0
M  V30 861 H 83.2717 0.922172 -1.3307 0
M  V30 862 H 85.2637 3.9657 -0.807128 0
M  V30 863 H 83.8337 3.12181 -0.161807 0
M  V30 864 H 83.0537 2.92751 -2.6399 0
M  V30 865 H 84.3417 4.07563 -3.04581 0
M  V30 866 H 83.7397 5.64999 -0.281517 0
M  V30 867 H 82.2967 6.47947 -0.707662 0
M  V30 868 N 85.7298 1.2412 0.971189 0
M  V30 869 C 86.6598 1.05508 2.08304 0
M  V30 870 C 87.6408 -0.0308864 1.70072 0
M  V30 871 O 88.8258 0.135521 1.93727 0
M  V30 872 C 85.9558 0.655365 3.4106 0
M  V30 873 C 84.9098 1.68971 3.93234 0
M  V30 874 C 84.2358 1.14516 5.22293 0
M  V30 875 C 85.5358 3.08487 4.21465 0
M  V30 876 H 87.2298 1.98507 2.24132 0
M  V30 877 H 84.7758 0.955821 1.07704 0
M  V30 878 H 86.7288 0.51217 4.18276 0
M  V30 879 H 85.4528 -0.31032 3.25122 0
M  V30 880 H 84.1118 1.82106 3.18171 0
M  V30 881 H 83.7598 0.170189 5.02712 0
M  V30 882 H 83.4598 1.83635 5.58168 0
M  V30 883 H 84.9838 1.01401 6.02121 0
M  V30 884 H 86.3978 2.98601 4.89398 0
M  V30 885 H 84.7948 3.74926 4.68562 0
M  V30 886 H 85.8648 3.56787 3.28376 0
M  V30 887 N 87.2079 -1.17134 1.05439 0
M  V30 888 C 88.4549 -1.87456 0.765942 0
M  V30 889 C 88.7829 -1.81189 -0.707153 0
M  V30 890 O 88.0379 -1.21633 -1.5331 0
M  V30 891 C 88.3369 -3.36833 1.19491 0
M  V30 892 C 88.0029 -3.63301 2.67063 0
M  V30 893 C 86.6649 -3.70234 3.07376 0
M  V30 894 C 89.0169 -3.74575 3.62413 0
M  V30 895 C 86.3449 -3.85933 4.41896 0
M  V30 896 C 88.6969 -3.91793 4.9667 0
M  V30 897 C 87.3609 -3.96966 5.36633 0
M  V30 898 H 86.6309 -0.685948 0.280278 0
M  V30 899 H 89.2779 -1.38556 1.32192 0
M  V30 900 H 87.5829 -3.87807 0.557969 0
M  V30 901 H 89.2799 -3.89611 0.948893 0
M  V30 902 H 85.8699 -3.58532 2.34846 0
M  V30 903 H 90.0539 -3.68537 3.32406 0
M  V30 904 H 85.3099 -3.88187 4.72357 0
M  V30 905 H 89.4839 -3.99458 5.70444 0
M  V30 906 H 87.1109 -4.08883 6.40874 0
M  V30 907 N 88.686 -0.835752 -1.33615 0
M  V30 908 C 89.649 -0.272 -2.2758 0
M  V30 909 C 90.649 0.557487 -1.50827 0
M  V30 910 O 91.839 0.37173 -1.70188 0
M  V30 911 C 88.971 0.617173 -3.35267 0
M  V30 912 H 90.164 -1.10111 -2.78954 0
M  V30 913 H 87.717 -0.608594 -1.43965 0
M  V30 914 H 88.452 1.46884 -2.89129 0
M  V30 915 H 88.237 0.0237066 -3.92093 0
M  V30 916 H 89.727 1.005 -4.05326 0
M  V30 917 N 90.1641 1.46063 -0.591896 0
M  V30 918 C 91.4411 1.95595 -0.0137119 0
M  V30 919 C 91.8211 1.5345 1.4497 0
M  V30 920 O 91.1691 0.789543 2.14426 0
M  V30 921 C 91.3791 3.48453 -0.195373 0
M  V30 922 C 92.7271 4.24546 -0.0679765 0
M  V30 923 O 93.7511 3.55982 -0.124681 0
M  V30 924 O 92.6101 5.46467 0.0600579 0
M  V30 925 H 89.7041 0.825795 0.0446279 0
M  V30 926 H 92.2501 1.56303 -0.660859 0
M  V30 927 H 91.0221 3.72045 -1.21235 0
M  V30 928 H 90.6451 3.94597 0.487775 0
M  V30 929 N 91.6422 0.330177 1.54103 0
M  V30 930 C 92.5722 -0.525353 2.27513 0
M  V30 931 C 93.5532 -1.11383 1.2856 0
M  V30 932 O 94.7382 -1.13773 1.57383 0
M  V30 933 C 91.8682 -1.6831 3.03791 0
M  V30 934 C 90.8222 -1.2236 4.10137 0
M  V30 935 C 90.1482 -2.46882 4.74293 0
M  V30 936 C 91.4482 -0.333697 5.21233 0
M  V30 937 H 93.1422 0.087013 2.99274 0
M  V30 938 H 90.6882 0.0432893 1.43935 0
M  V30 939 H 92.6412 -2.28795 3.5388 0
M  V30 940 H 91.3652 -2.32216 2.29659 0
M  V30 941 H 90.0242 -0.64165 3.60941 0
M  V30 942 H 89.6722 -3.09165 3.96769 0
M  V30 943 H 89.3722 -2.16825 5.46133 0
M  V30 944 H 90.8962 -3.08117 5.27159 0
M  V30 945 H 92.3102 -0.845013 5.67038 0
M  V30 946 H 90.7072 -0.125612 5.99969 0
M  V30 947 H 91.7772 0.633724 4.80741 0
M  V30 948 N 93.1203 -1.57491 0.0584922 0
M  V30 949 C 94.3453 -1.97711 -0.62652 0
M  V30 950 C 94.7703 -0.936132 -1.63151 0
M  V30 951 O 94.1283 0.099811 -1.81025 0
M  V30 952 C 94.1763 -3.36989 -1.28338 0
M  V30 953 O 93.2803 -3.35433 -2.39913 0
M  V30 954 H 92.6213 -0.643868 -0.162266 0
M  V30 955 H 95.1513 -2.04193 0.129064 0
M  V30 956 H 95.1613 -3.73879 -1.63335 0
M  V30 957 H 93.8363 -4.12289 -0.546889 0
M  V30 958 H 92.4133 -3.10298 -2.06809 0
M  V30 959 N 94.5984 0.214957 -1.56127 0
M  V30 960 C 96.0144 0.564948 -1.49267 0
M  V30 961 C 96.2144 1.86827 -0.754838 0
M  V30 962 O 95.2704 2.50745 -0.297198 0
M  V30 963 C 96.5834 0.638071 -2.93852 0
M  V30 964 C 98.1314 0.728253 -3.0441 0
M  V30 965 C 98.6064 0.832663 -4.50367 0
M  V30 966 N 100.097 0.896712 -4.54437 0
M  V30 967 C 100.832 0.997324 -5.6466 0
M  V30 968 N 100.328 1.06147 -6.8462 0
M  V30 969 N 102.121 1.03297 -5.52527 0
M  V30 970 H 94.2724 -0.640211 -2.02522 0
M  V30 971 H 96.5354 -0.225507 -0.920788 0
M  V30 972 H 96.2414 -0.250126 -3.50809 0
M  V30 973 H 96.1154 1.49947 -3.46115 0
M  V30 974 H 98.5024 1.60689 -2.47514 0
M  V30 975 H 98.5834 -0.158952 -2.55306 0
M  V30 976 H 98.2274 -0.0415417 -5.07883 0
M  V30 977 H 98.1574 1.73538 -4.97184 0
M  V30 978 H 100.648 0.857188 -3.6805 0
M  V30 979 H 100.961 1.1382 -7.64372 0
M  V30 980 H 99.3064 1.03049 -6.87318 0
M  V30 981 H 102.497 0.979558 -4.57736 0
M  V30 982 H 102.67 1.10793 -6.38458 0
M  V30 983 N 96.0765 1.50051 0.48192 0
M  V30 984 C 96.9865 1.7089 1.60728 0
M  V30 985 C 98.0025 0.591788 1.63627 0
M  V30 986 O 99.1785 0.868817 1.81696 0
M  V30 987 C 96.2435 1.78855 2.97005 0
M  V30 988 C 95.3045 3.02537 3.04581 0
M  V30 989 C 94.5375 3.10112 4.34357 0
M  V30 990 O 94.7605 2.24765 5.24249 0
M  V30 991 O 93.6945 4.02747 4.47301 0
M  V30 992 H 97.5205 2.66264 1.46072 0
M  V30 993 H 95.1055 1.34018 0.660264 0
M  V30 994 H 96.9875 1.86336 3.77964 0
M  V30 995 H 95.6625 0.866628 3.11883 0
M  V30 996 H 94.5695 3.00563 2.22739 0
M  V30 997 H 95.9025 3.94272 2.94636 0
M  V30 998 N 97.5546 -0.734337 1.39446 0
M  V30 999 C 98.4646 -1.87879 1.40495 0
M  V30 1000 C 99.4806 -1.714 0.299672 0
M  V30 1001 O 100.657 -1.93991 0.541249 0
M  V30 1002 C 97.7216 -3.23477 1.24754 0
M  V30 1003 C 96.7826 -3.52344 2.45259 0
M  V30 1004 C 96.0156 -4.81473 2.30259 0
M  V30 1005 O 96.2386 -5.55237 1.30643 0
M  V30 1006 O 95.1726 -5.10254 3.19256 0
M  V30 1007 H 98.9986 -1.89949 2.36966 0
M  V30 1008 H 96.5836 -0.882243 1.20569 0
M  V30 1009 H 98.4656 -4.04509 1.18111 0
M  V30 1010 H 97.1406 -3.22176 0.313781 0
M  V30 1011 H 96.0476 -2.71396 2.57478 0
M  V30 1012 H 97.3806 -3.58426 3.37331 0
M  V30 1013 N 99.0327 -1.24633 -0.964593 0
M  V30 1014 C 99.9627 -1.06611 -2.07741 0
M  V30 1015 C 100.944 0.0218666 -1.70086 0
M  V30 1016 O 102.129 -0.145793 -1.93652 0
M  V30 1017 C 99.2587 -0.673444 -3.40708 0
M  V30 1018 C 98.2127 -1.71054 -3.92332 0
M  V30 1019 C 97.5387 -1.17285 -5.21678 0
M  V30 1020 C 98.8387 -3.10718 -4.19824 0
M  V30 1021 H 100.533 -1.99693 -2.23076 0
M  V30 1022 H 98.0787 -0.96152 -1.07195 0
M  V30 1023 H 100.032 -0.534345 -4.17998 0
M  V30 1024 H 98.7557 0.293073 -3.25282 0
M  V30 1025 H 97.4147 -1.83791 -3.17201 0
M  V30 1026 H 97.0627 -0.196847 -5.02615 0
M  V30 1027 H 96.7627 -1.86592 -5.57187 0
M  V30 1028 H 98.2867 -1.04593 -6.01575 0
M  V30 1029 H 99.7007 -3.01192 -4.87808 0
M  V30 1030 H 98.0977 -3.77406 -4.66567 0
M  V30 1031 H 99.1677 -3.58524 -3.26479 0
M  V30 1032 N 100.511 1.16574 -1.06058 0
M  V30 1033 C 101.739 1.90952 -0.796552 0
M  V30 1034 C 102.154 1.77302 0.648808 0
M  V30 1035 O 101.511 1.11605 1.44397 0
M  V30 1036 C 101.562 3.41736 -1.17894 0
M  V30 1037 O 101.283 3.54975 -2.56758 0
M  V30 1038 C 102.784 4.33169 -0.942308 0
M  V30 1039 H 100.004 0.605594 -0.288959 0
M  V30 1040 H 102.548 1.47777 -1.41358 0
M  V30 1041 H 100.703 3.82623 -0.606491 0
M  V30 1042 H 101.117 4.4846 -2.72 0
M  V30 1043 H 102.591 5.37439 -1.25952 0
M  V30 1044 H 103.068 4.3903 0.122078 0
M  V30 1045 H 103.674 3.98007 -1.49902 0
M  V30 1046 N 101.989 0.842826 1.3317 0
M  V30 1047 C 102.952 0.284065 2.27433 0
M  V30 1048 C 103.952 -0.54948 1.5112 0
M  V30 1049 O 105.142 -0.362699 1.70382 0
M  V30 1050 C 102.274 -0.599384 3.35589 0
M  V30 1051 H 103.467 1.11589 2.78366 0
M  V30 1052 H 101.02 0.616221 1.4364 0
M  V30 1053 H 101.755 -1.45349 2.89904 0
M  V30 1054 H 101.54 -0.00291266 3.921 0
M  V30 1055 H 103.03 -0.983488 4.05854 0
M  V30 1056 N 103.467 -1.45747 0.599634 0
M  V30 1057 C 104.713 -2.02592 0.0918643 0
M  V30 1058 C 105.046 -1.46806 -1.27128 0
M  V30 1059 O 104.321 -0.639658 -1.83681 0
M  V30 1060 C 104.604 -3.60073 0.0443398 0
M  V30 1061 C 104.457 -4.26208 1.43759 0
M  V30 1062 C 105.776 -4.35309 -0.647608 0
M  V30 1063 H 102.895 -0.736175 0.034857 0
M  V30 1064 H 105.537 -1.73694 0.770081 0
M  V30 1065 H 103.687 -3.84823 -0.533224 0
M  V30 1066 H 105.359 -4.12668 2.06162 0
M  V30 1067 H 103.602 -3.84916 2.00056 0
M  V30 1068 H 104.273 -5.35069 1.35665 0
M  V30 1069 H 106.749 -4.15805 -0.156776 0
M  V30 1070 H 105.625 -5.45038 -0.649942 0
M  V30 1071 H 105.886 -4.07598 -1.71219 0
M  V30 1072 N 104.945 -0.338344 -1.53925 0
M  V30 1073 C 105.878 0.563758 -2.21127 0
M  V30 1074 C 106.856 1.10433 -1.19345 0
M  V30 1075 O 108.04 1.16557 -1.48144 0
M  V30 1076 C 105.167 1.77505 -2.88461 0
M  V30 1077 C 104.213 1.3644 -4.04087 0
M  V30 1078 S 105.046 0.388593 -5.34088 0
M  V30 1079 C 106.202 1.60683 -6.04923 0
M  V30 1080 H 106.435 -0.00704546 -2.97299 0
M  V30 1081 H 103.968 -0.122418 -1.53914 0
M  V30 1082 H 105.926 2.46999 -3.27875 0
M  V30 1083 H 104.587 2.31706 -2.12064 0
M  V30 1084 H 103.78 2.26739 -4.50117 0
M  V30 1085 H 103.382 0.748998 -3.66423 0
M  V30 1086 H 105.674 2.54209 -6.28 0
M  V30 1087 H 106.617 1.18842 -6.98056 0
M  V30 1088 H 107.025 1.80052 -5.35015 0
M  V30 1089 N 106.423 1.57458 -0.0668435 0
M  V30 1090 C 107.839 1.56947 0.289772 0
M  V30 1091 C 108.039 1.07584 1.70376 0
M  V30 1092 O 107.095 0.739486 2.41429 0
M  V30 1093 C 108.408 3.0052 0.103943 0
M  V30 1094 C 109.956 3.12517 0.173857 0
M  V30 1095 C 110.431 4.57997 0.0163682 0
M  V30 1096 N 111.922 4.63144 0.0721352 0
M  V30 1097 C 112.657 5.73394 -0.0253794 0
M  V30 1098 N 112.153 6.92576 -0.176133 0
M  V30 1099 N 113.946 5.62091 0.0313305 0
M  V30 1100 H 106.097 1.87863 -0.991027 0
M  V30 1101 H 108.36 0.86583 -0.38606 0
M  V30 1102 H 108.066 3.40729 -0.871572 0
M  V30 1103 H 107.94 3.67304 0.858366 0
M  V30 1104 H 110.327 2.72197 1.13985 0
M  V30 1105 H 110.408 2.48381 -0.611586 0
M  V30 1106 H 110.052 4.99005 -0.946374 0
M  V30 1107 H 109.982 5.20158 0.821153 0
M  V30 1108 H 112.473 3.77436 0.187263 0
M  V30 1109 H 112.786 7.72418 -0.242821 0
M  V30 1110 H 111.131 6.94678 -0.211429 0
M  V30 1111 H 114.322 4.67867 0.147773 0
M  V30 1112 H 114.495 6.47982 -0.048121 0
M  V30 1113 N 107.901 -0.206675 1.56239 0
M  V30 1114 C 109.148 -0.928842 1.79941 0
M  V30 1115 C 109.476 -1.83734 0.638131 0
M  V30 1116 O 108.731 -1.92039 -0.376746 0
M  V30 1117 C 109.03 -1.78675 3.09532 0
M  V30 1118 C 108.696 -1.03022 4.38973 0
M  V30 1119 C 107.358 -0.821302 4.74139 0
M  V30 1120 C 109.71 -0.497081 5.18824 0
M  V30 1121 C 107.038 -0.0675719 5.86661 0
M  V30 1122 C 109.39 0.24338 6.32132 0
M  V30 1123 C 108.054 0.463422 6.65889 0
M  V30 1124 H 107.324 -0.339887 0.658451 0
M  V30 1125 H 109.971 -0.195977 1.90495 0
M  V30 1126 H 108.276 -2.58794 2.94165 0
M  V30 1127 H 109.973 -2.34792 3.25075 0
M  V30 1128 H 106.563 -1.20306 4.11369 0
M  V30 1129 H 110.747 -0.645921 4.92079 0
M  V30 1130 H 106.003 0.112995 6.11296 0
M  V30 1131 H 110.177 0.66393 6.93228 0
M  V30 1132 H 107.804 1.04938 7.52922 0
M  V30 1133 N 109.379 -1.50304 -0.473955 0
M  V30 1134 C 110.309 -1.71886 -1.58042 0
M  V30 1135 C 111.29 -0.567799 -1.60344 0
M  V30 1136 O 112.475 -0.806623 -1.76656 0
M  V30 1137 C 109.605 -1.81036 -2.96384 0
M  V30 1138 C 108.559 -2.962 -3.08949 0
M  V30 1139 C 107.885 -2.9049 -4.48909 0
M  V30 1140 C 109.185 -4.36752 -2.86434 0
M  V30 1141 H 110.879 -2.64527 -1.40234 0
M  V30 1142 H 108.425 -1.27295 -0.673201 0
M  V30 1143 H 110.378 -1.94719 -3.73714 0
M  V30 1144 H 109.102 -0.850147 -3.15341 0
M  V30 1145 H 107.761 -2.82164 -2.3405 0
M  V30 1146 H 107.409 -1.92321 -4.64781 0
M  V30 1147 H 107.109 -3.67802 -4.58253 0
M  V30 1148 H 108.633 -3.06218 -5.28264 0
M  V30 1149 H 110.047 -4.5133 -3.53517 0
M  V30 1150 H 108.444 -5.15493 -3.07225 0
M  V30 1151 H 109.514 -4.49321 -1.82316 0
M  V30 1152 N 110.857 0.726932 -1.39834 0
M  V30 1153 C 112.085 1.51613 -1.40787 0
M  V30 1154 C 112.5 1.88799 -0.00451505 0
M  V30 1155 O 111.857 1.54662 0.968809 0
M  V30 1156 C 111.908 2.79863 -2.28821 0
M  V30 1157 O 111.629 2.44253 -3.63692 0
M  V30 1158 C 113.13 3.73837 -2.38245 0
M  V30 1159 H 110.35 0.468264 -0.480593 0
M  V30 1160 H 112.894 0.897607 -1.83748 0
M  V30 1161 H 111.049 3.38027 -1.89252 0
M  V30 1162 H 111.463 3.26695 -4.1033 0
M  V30 1163 H 112.937 4.60699 -3.04073 0
M  V30 1164 H 113.414 4.16153 -1.40403 0
M  V30 1165 H 114.02 3.21589 -2.78317 0
M  V30 1166 N 112.336 1.25143 0.95797 0
M  V30 1167 C 113.268 1.01023 2.05735 0
M  V30 1168 C 114.281 -0.0236902 1.62783 0
M  V30 1169 O 115.47 0.21448 1.77207 0
M  V30 1170 C 112.57 0.504595 3.35122 0
M  V30 1171 C 111.743 1.6039 4.06932 0
M  V30 1172 C 110.802 1.09922 5.14591 0
M  V30 1173 O 109.828 1.79293 5.40225 0
M  V30 1174 N 111.03 -0.0612545 5.80468 0
M  V30 1175 H 113.795 1.95683 2.26998 0
M  V30 1176 H 111.356 1.16303 1.12629 0
M  V30 1177 H 113.348 0.151516 4.04416 0
M  V30 1178 H 111.918 -0.347989 3.10657 0
M  V30 1179 H 111.138 2.12872 3.31782 0
M  V30 1180 H 112.426 2.34252 4.51667 0
M  V30 1181 H 111.824 -0.640985 5.62057 0
M  V30 1182 H 110.381 -0.355395 6.5083 0
M  V30 1183 N 113.814 -1.1601 1.06675 0
M  V30 1184 C 115.23 -1.38622 0.790948 0
M  V30 1185 C 115.43 -1.92109 -0.607965 0
M  V30 1186 O 114.486 -2.12239 -1.36787 0
M  V30 1187 C 115.799 -2.36347 1.85905 0
M  V30 1188 C 117.347 -2.50023 1.88301 0
M  V30 1189 C 117.822 -3.51033 2.94176 0
M  V30 1190 N 119.313 -3.58563 2.93235 0
M  V30 1191 C 120.048 -4.36521 3.71803 0
M  V30 1192 N 119.544 -5.17869 4.602 0
M  V30 1193 N 121.337 -4.31541 3.60178 0
M  V30 1194 H 113.488 -0.796294 1.96908 0
M  V30 1195 H 115.751 -0.412597 0.853503 0
M  V30 1196 H 115.457 -2.04147 2.86386 0
M  V30 1197 H 115.331 -3.36042 1.71334 0
M  V30 1198 H 117.718 -2.81524 0.884769 0
M  V30 1199 H 117.799 -1.5035 2.06951 0
M  V30 1200 H 117.443 -3.20268 3.94196 0
M  V30 1201 H 117.373 -4.50445 2.72776 0
M  V30 1202 H 119.864 -3.00496 2.29152 0
M  V30 1203 H 120.177 -5.74578 5.16797 0
M  V30 1204 H 118.522 -5.17199 4.64253 0
M  V30 1205 H 121.713 -3.67051 2.90502 0
M  V30 1206 H 121.886 -4.9205 4.21653 0
M  V30 1207 N 115.292 -0.849877 -1.32721 0
M  V30 1208 C 116.222 -0.306308 -2.31482 0
M  V30 1209 C 117.203 0.591952 -1.59468 0
M  V30 1210 O 118.388 0.513199 -1.87296 0
M  V30 1211 C 115.518 0.510204 -3.43532 0
M  V30 1212 C 114.472 -0.293209 -4.26994 0
M  V30 1213 C 113.798 0.647743 -5.30762 0
M  V30 1214 C 115.098 -1.51634 -4.99804 0
M  V30 1215 H 116.792 -1.13153 -2.77195 0
M  V30 1216 H 114.338 -0.545553 -1.33266 0
M  V30 1217 H 116.291 0.900856 -4.11658 0
M  V30 1218 H 115.015 1.36874 -2.96535 0
M  V30 1219 H 113.674 -0.665555 -3.60508 0
M  V30 1220 H 113.322 1.50299 -4.8002 0
M  V30 1221 H 113.022 0.11422 -5.87489 0
M  V30 1222 H 114.546 1.03567 -6.01753 0
M  V30 1223 H 115.96 -1.19824 -5.60638 0
M  V30 1224 H 114.357 -1.98745 -5.66234 0
M  V30 1225 H 115.427 -2.28018 -4.27943 0
M  V30 1226 N 116.77 1.45427 -0.607355 0
M  V30 1227 C 118.018 2.01841 -0.102253 0
M  V30 1228 C 118.339 1.47832 1.27164 0
M  V30 1229 O 117.609 0.672497 1.83995 0
M  V30 1230 H 116.189 0.746188 -0.0348101 0
M  V30 1231 H 118.851 1.78229 -0.7887 0
M  V30 1232 H 117.947 3.12057 -0.0518585 0
M  V30 1233 N 118.248 0.346503 1.53744 0
M  V30 1234 C 119.659 -0.136779 1.86198 0
M  V30 1235 C 120.01 -1.49749 1.26766 0
M  V30 1236 O 119.135 -2.08417 0.582355 0
M  V30 1237 C 119.73 -0.254966 3.37839 0
M  V30 1238 C 118.289 -0.682482 3.70161 0
M  V30 1239 C 117.436 0.181981 2.76702 0
M  V30 1240 H 120.387 0.565994 1.48264 0
M  V30 1241 H 120.408 -1.08195 3.64793 0
M  V30 1242 H 119.92 0.735526 3.81066 0
M  V30 1243 H 118.021 -1.68189 3.3248 0
M  V30 1244 H 118.134 -0.470326 4.76786 0
M  V30 1245 H 116.498 -0.34615 2.52337 0
M  V30 1246 H 117.281 1.16966 3.2276 0
M  V30 1247 N 119.726 -1.57421 0.075193 0
M  V30 1248 C 120.974 -1.93236 -0.591974 0
M  V30 1249 C 121.295 -0.956241 -1.69944 0
M  V30 1250 O 120.565 -0.00494792 -1.95899 0
M  V30 1251 H 119.145 -0.713355 -0.22166 0
M  V30 1252 H 121.807 -1.9444 0.133848 0
M  V30 1253 H 120.903 -2.95131 -1.01509 0
M  V30 1254 N 121.204 0.198386 -1.56346 0
M  V30 1255 C 122.134 1.24865 -1.9731 0
M  V30 1256 C 123.115 1.47651 -0.844576 0
M  V30 1257 O 124.3 1.59444 -1.10866 0
M  V30 1258 C 121.43 2.59358 -2.30977 0
M  V30 1259 C 120.384 2.5119 -3.46537 0
M  V30 1260 C 119.71 3.89926 -3.65871 0
M  V30 1261 C 121.01 2.03977 -4.80823 0
M  V30 1262 H 122.704 0.908252 -2.85291 0
M  V30 1263 H 120.25 0.435462 -1.37258 0
M  V30 1264 H 122.203 3.33011 -2.58228 0
M  V30 1265 H 120.927 2.95132 -1.39874 0
M  V30 1266 H 119.586 1.79993 -3.19371 0
M  V30 1267 H 119.234 4.23046 -2.72105 0
M  V30 1268 H 118.934 3.85336 -4.4361 0
M  V30 1269 H 120.458 4.65205 -3.95495 0
M  V30 1270 H 121.872 2.67386 -5.07127 0
M  V30 1271 H 120.269 2.10397 -5.62008 0
M  V30 1272 H 121.339 0.992861 -4.74626 0
M  V30 1273 N 122.682 1.50554 0.465978 0
M  V30 1274 C 123.928 1.62038 1.21949 0
M  V30 1275 C 124.261 0.322116 1.9151 0
M  V30 1276 O 123.536 -0.676723 1.82348 0
M  V30 1277 C 123.819 2.80421 2.25912 0
M  V30 1278 C 123.672 4.20144 1.60622 0
M  V30 1279 C 124.991 2.94354 3.27176 0
M  V30 1280 H 122.11 0.589752 0.441998 0
M  V30 1281 H 124.752 1.82956 0.51257 0
M  V30 1282 H 122.902 2.62717 2.86203 0
M  V30 1283 H 124.574 4.49449 1.03889 0
M  V30 1284 H 122.817 4.24165 0.909211 0
M  V30 1285 H 123.488 4.98914 2.36196 0
M  V30 1286 H 125.964 3.10578 2.76913 0
M  V30 1287 H 124.84 3.788 3.97242 0
M  V30 1288 H 125.101 2.05186 3.916 0
M  V30 1289 N 124.16 -0.719506 1.40217 0
M  V30 1290 C 125.437 -1.47221 1.28784 0
M  V30 1291 C 125.817 -2.10883 -0.0956067 0
M  V30 1292 O 125.165 -1.99833 -1.10811 0
M  V30 1293 C 125.375 -2.5111 2.42373 0
M  V30 1294 C 126.723 -3.17053 2.82423 0
M  V30 1295 O 127.747 -2.61429 2.41937 0
M  V30 1296 O 126.606 -4.17742 3.52355 0
M  V30 1297 H 123.7 -0.654491 0.50554 0
M  V30 1298 H 126.246 -0.752014 1.52128 0
M  V30 1299 H 125.018 -2.02556 3.34793 0
M  V30 1300 H 124.641 -3.3067 2.20778 0
M  V30 1301 N 125.638 -1.25649 -0.95132 0
M  V30 1302 C 126.601 -1.06399 -2.03007 0
M  V30 1303 C 127.601 -0.0156794 -1.60792 0
M  V30 1304 O 128.791 -0.25817 -1.72276 0
M  V30 1305 C 125.923 -0.616184 -3.35285 0
M  V30 1306 H 127.116 -2.02164 -2.21517 0
M  V30 1307 H 124.669 -1.08103 -1.12887 0
M  V30 1308 H 125.404 0.343917 -3.22471 0
M  V30 1309 H 125.189 -1.37301 -3.67275 0
M  V30 1310 H 126.679 -0.503032 -4.14559 0
M  V30 1311 N 127.117 1.15442 -1.07289 0
M  V30 1312 C 128.08 2.18358 -0.696591 0
M  V30 1313 C 129.08 1.58637 0.262837 0
M  V30 1314 O 130.27 1.74145 0.0438809 0
M  V30 1315 C 127.402 3.4089 -0.0266151 0
M  V30 1316 H 128.595 2.53162 -1.60776 0
M  V30 1317 H 126.148 1.29893 -0.869342 0
M  V30 1318 H 126.883 3.11653 0.896822 0
M  V30 1319 H 126.668 3.85495 -0.716657 0
M  V30 1320 H 128.158 4.17009 0.222028 0
M  V30 1321 N 128.595 0.856903 1.32268 0
M  V30 1322 C 129.527 0.260412 2.27716 0
M  V30 1323 C 130.54 -0.569137 1.52528 0
M  V30 1324 O 131.729 -0.39326 1.74114 0
M  V30 1325 C 128.829 -0.650477 3.32599 0
M  V30 1326 C 128.002 0.14372 4.37164 0
M  V30 1327 C 127.061 -0.69328 5.21613 0
M  V30 1328 O 126.087 -0.12599 5.69061 0
M  V30 1329 N 127.289 -2.00761 5.44679 0
M  V30 1330 H 130.054 1.08059 2.79541 0
M  V30 1331 H 127.615 0.717103 1.45152 0
M  V30 1332 H 129.607 -1.21581 3.86005 0
M  V30 1333 H 128.177 -1.37133 2.80915 0
M  V30 1334 H 127.397 0.890486 3.8401 0
M  V30 1335 H 128.685 0.68915 5.04111 0
M  V30 1336 H 128.083 -2.49181 5.07863 0
M  V30 1337 H 126.64 -2.52103 6.01072 0
M  V30 1338 N 130.073 -1.45103 0.615059 0
M  V30 1339 C 131.036 -2.29025 -0.0895485 0
M  V30 1340 C 132.036 -1.40174 -0.787906 0
M  V30 1341 O 133.226 -1.62217 -0.634933 0
M  V30 1342 C 130.358 -3.21376 -1.13711 0
M  V30 1343 H 131.551 -2.92807 0.648382 0
M  V30 1344 H 129.104 -1.51749 0.374444 0
M  V30 1345 H 129.839 -2.6241 -1.90556 0
M  V30 1346 H 129.624 -3.86834 -0.640475 0
M  V30 1347 H 131.114 -3.84459 -1.63036 0
M  V30 1348 N 131.551 -0.354651 -1.53558 0
M  V30 1349 C 132.967 -0.00315426 -1.596 0
M  V30 1350 C 133.167 1.47741 -1.37021 0
M  V30 1351 O 132.223 2.23759 -1.16996 0
M  V30 1352 C 133.536 -0.44929 -2.97325 0
M  V30 1353 C 135.084 -0.402578 -3.104 0
M  V30 1354 C 135.559 -0.824355 -4.5052 0
M  V30 1355 N 137.05 -0.778979 -4.56603 0
M  V30 1356 C 137.785 -1.07715 -5.63192 0
M  V30 1357 N 137.281 -1.44405 -6.77583 0
M  V30 1358 N 139.074 -1.00066 -5.53121 0
M  V30 1359 H 131.225 -1.31893 -1.66487 0
M  V30 1360 H 133.488 -0.538388 -0.780284 0
M  V30 1361 H 133.194 -1.48202 -3.1895 0
M  V30 1362 H 133.068 0.169772 -3.76818 0
M  V30 1363 H 135.455 0.621004 -2.88492 0
M  V30 1364 H 135.536 -1.05699 -2.32941 0
M  V30 1365 H 135.18 -1.846 -4.73165 0
M  V30 1366 H 135.11 -0.147304 -5.26394 0
M  V30 1367 H 137.601 -0.508528 -3.74463 0
M  V30 1368 H 137.914 -1.65612 -7.54846 0
M  V30 1369 H 136.259 -1.4826 -6.79002 0
M  V30 1370 H 139.45 -0.713293 -4.62633 0
M  V30 1371 H 139.623 -1.23638 -6.36096 0
M  V30 1372 N 133.029 1.57378 -0.0835403 0
M  V30 1373 C 134.44 1.81261 0.447358 0
M  V30 1374 C 134.791 0.998331 1.68902 0
M  V30 1375 O 133.916 0.224282 2.15235 0
M  V30 1376 C 134.511 3.28767 0.818386 0
M  V30 1377 C 133.07 3.53455 1.29409 0
M  V30 1378 C 132.217 2.75831 0.285024 0
M  V30 1379 H 135.168 1.5566 -0.309115 0
M  V30 1380 H 135.189 3.41459 1.67887 0
M  V30 1381 H 134.701 3.88006 -0.0855019 0
M  V30 1382 H 132.802 2.99534 2.21608 0
M  V30 1383 H 132.915 4.62128 1.2639 0
M  V30 1384 H 131.279 2.42947 0.764767 0
M  V30 1385 H 132.062 3.37813 -0.611341 0
M  V30 1386 N 134.507 -0.190092 1.56449 0
M  V30 1387 C 135.732 -0.929864 1.85387 0
M  V30 1388 C 136.157 -1.7585 0.667704 0
M  V30 1389 O 135.515 -1.77198 -0.383459 0
M  V30 1390 C 135.563 -1.79773 3.12593 0
M  V30 1391 O 134.667 -2.89713 2.93496 0
M  V30 1392 H 134.008 -0.261574 0.610307 0
M  V30 1393 H 136.538 -0.193896 2.03679 0
M  V30 1394 H 136.548 -2.20139 3.43515 0
M  V30 1395 H 135.223 -1.18892 3.98544 0
M  V30 1396 H 133.8 -2.53065 2.73884 0
M  V30 1397 N 135.985 -1.50799 -0.457987 0
M  V30 1398 C 137.262 -1.52968 -1.21902 0
M  V30 1399 C 137.642 -0.281906 -2.09209 0
M  V30 1400 O 136.99 0.734076 -2.16388 0
M  V30 1401 C 137.2 -2.8326 -2.03875 0
M  V30 1402 C 138.548 -3.34425 -2.6162 0
M  V30 1403 O 139.572 -2.8467 -2.14106 0
M  V30 1404 O 138.431 -4.21188 -3.48228 0
M  V30 1405 H 135.525 -0.614129 -0.553873 0
M  V30 1406 H 138.071 -1.63098 -0.468739 0
M  V30 1407 H 136.843 -3.65543 -1.39621 0
M  V30 1408 H 136.466 -2.76195 -2.8601 0
M  V30 1409 N 137.463 0.71206 -1.40597 0
M  V30 1410 C 138.411 1.84746 -1.41321 0
M  V30 1411 C 139.405 1.66842 -0.293268 0
M  V30 1412 O 140.611 1.73904 -0.464481 0
M  V30 1413 H 136.986 0.608522 -0.441819 0
M  V30 1414 H 138.957 1.81252 -2.37045 0
M  V30 1415 C 137.706 3.22638 -1.29614 0
M  V30 1416 H 137.029 3.37023 -2.15071 0
M  V30 1417 H 138.469 4.02209 -1.3418 0
M  V30 1418 C 136.928 3.36899 -0.00673121 0
M  V30 1419 O 137.458 3.90186 0.954859 0
M  V30 1420 N 135.664 2.9053 0.0639327 0
M  V30 1421 H 135.211 2.47353 -0.719311 0
M  V30 1422 H 135.169 3.0045 0.926118 0
M  V30 1423 N 138.941 1.26152 0.944643 0
M  V30 1424 C 140.181 1.12708 1.70517 0
M  V30 1425 C 140.545 -0.324727 1.89234 0
M  V30 1426 O 141.746 -0.581211 2.62441 0
M  V30 1427 C 140.017 1.8713 3.04495 0
M  V30 1428 S 141.576 1.89698 3.95677 0
M  V30 1429 H 138.394 0.402665 0.585988 0
M  V30 1430 H 140.996 1.59821 1.12594 0
M  V30 1431 H 139.7 2.91833 2.88551 0
M  V30 1432 H 139.231 1.40444 3.67477 0
M  V30 1433 H 141.246 0.981198 4.86402 0
M  V30 1434 N 140.419 -1.14872 1.07899 0
M  V30 1435 C 141.665 -1.86064 0.806725 0
M  V30 1436 C 141.998 -1.82434 -0.665706 0
M  V30 1437 O 141.273 -1.25138 -1.48899 0
M  V30 1438 C 141.556 -3.34929 1.32267 0
M  V30 1439 C 141.409 -3.47161 2.86006 0
M  V30 1440 C 142.728 -4.29863 0.943717 0
M  V30 1441 H 139.847 -0.675591 0.294526 0
M  V30 1442 H 142.489 -1.34925 1.33773 0
M  V30 1443 H 140.639 -3.78611 0.870974 0
M  V30 1444 H 142.311 -3.12302 3.39507 0
M  V30 1445 H 140.554 -2.88539 3.23925 0
M  V30 1446 H 141.225 -4.51777 3.17177 0
M  V30 1447 H 143.701 -3.9417 1.33302 0
M  V30 1448 H 142.577 -5.32494 1.33198 0
M  V30 1449 H 142.838 -4.41846 -0.149796 0
M  V30 1450 N 141.898 -0.863906 -1.31812 0
M  V30 1451 C 143.145 -0.471836 -1.96926 0
M  V30 1452 C 143.473 0.974578 -1.68322 0
M  V30 1453 O 142.728 1.7003 -0.968933 0
M  V30 1454 C 143.027 -0.668547 -3.51091 0
M  V30 1455 C 142.693 -2.08683 -3.99703 0
M  V30 1456 C 141.355 -2.47471 -4.12688 0
M  V30 1457 C 143.707 -3.01207 -4.25351 0
M  V30 1458 C 141.035 -3.78037 -4.4867 0
M  V30 1459 C 143.387 -4.31282 -4.62794 0
M  V30 1460 C 142.051 -4.69992 -4.73987 0
M  V30 1461 H 141.321 -0.172657 -0.720604 0
M  V30 1462 H 143.968 -1.09573 -1.57054 0
M  V30 1463 H 142.273 0.0385252 -3.91781 0
M  V30 1464 H 143.97 -0.345102 -3.99512 0
M  V30 1465 H 140.56 -1.77566 -3.90087 0
M  V30 1466 H 144.744 -2.72469 -4.14819 0
M  V30 1467 H 140 -4.078 -4.55532 0
M  V30 1468 H 144.174 -5.03031 -4.81594 0
M  V30 1469 H 141.801 -5.71207 -5.01624 0
M  V30 1470 N 143.376 1.44774 -0.622745 0
M  V30 1471 C 144.601 2.06999 -0.128968 0
M  V30 1472 C 145.026 1.4617 1.1839 0
M  V30 1473 O 144.384 0.560007 1.72434 0
M  V30 1474 C 144.432 3.60595 -0.0188351 0
M  V30 1475 O 143.536 3.99398 1.02739 0
M  V30 1476 H 142.877 0.659047 -0.0809544 0
M  V30 1477 H 145.407 1.85784 -0.85705 0
M  V30 1478 H 145.417 4.07627 0.174476 0
M  V30 1479 H 144.092 4.04252 -0.977384 0
M  V30 1480 H 142.669 3.64011 0.809326 0
M  V30 1481 N 144.854 0.36279 1.53368 0
M  V30 1482 C 146.1 -0.228113 2.01513 0
M  V30 1483 C 146.433 -1.48648 1.2497 0
M  V30 1484 O 145.708 -1.91459 0.342616 0
M  V30 1485 C 145.991 -0.522884 3.56284 0
M  V30 1486 C 145.844 0.74892 4.43521 0
M  V30 1487 C 147.163 -1.32461 4.19693 0
M  V30 1488 H 144.282 -0.0814343 0.732487 0
M  V30 1489 H 146.924 0.48713 1.83649 0
M  V30 1490 H 145.074 -1.1322 3.71636 0
M  V30 1491 H 146.746 1.38648 4.39971 0
M  V30 1492 H 144.989 1.36986 4.11603 0
M  V30 1493 H 145.66 0.497667 5.49752 0
M  V30 1494 H 148.136 -0.809203 4.08156 0
M  V30 1495 H 147.012 -1.49961 5.28018 0
M  V30 1496 H 147.273 -2.33232 3.75573 0
M  V30 1497 N 146.332 -1.57332 0.0918853 0
M  V30 1498 C 147.242 -2.17368 -0.882505 0
M  V30 1499 C 148.258 -1.14226 -1.31257 0
M  V30 1500 O 149.434 -1.46582 -1.38115 0
M  V30 1501 C 146.499 -2.73962 -2.12476 0
M  V30 1502 C 145.56 -3.92048 -1.7492 0
M  V30 1503 C 144.793 -4.45933 -2.93223 0
M  V30 1504 O 145.016 -3.98764 -4.07852 0
M  V30 1505 O 143.95 -5.36999 -2.71875 0
M  V30 1506 H 147.776 -3.01031 -0.40172 0
M  V30 1507 H 145.361 -1.48813 -0.132291 0
M  V30 1508 H 147.243 -3.10147 -2.85283 0
M  V30 1509 H 145.918 -1.93347 -2.59613 0
M  V30 1510 H 144.825 -3.6068 -0.993025 0
M  V30 1511 H 146.158 -4.74017 -1.32548 0
M  V30 1512 N 147.81 0.181792 -1.56548 0
M  V30 1513 C 148.74 1.22765 -1.98623 0
M  V30 1514 C 149.721 1.46747 -0.860189 0
M  V30 1515 O 150.906 1.58259 -1.12551 0
M  V30 1516 C 148.036 2.56894 -2.33715 0
M  V30 1517 C 146.99 2.475 -3.49182 0
M  V30 1518 C 146.316 3.86023 -3.69986 0
M  V30 1519 C 147.616 1.98866 -4.82959 0
M  V30 1520 H 149.31 0.877942 -2.86239 0
M  V30 1521 H 146.856 0.42088 -1.37712 0
M  V30 1522 H 148.809 3.30253 -2.61746 0
M  V30 1523 H 147.533 2.93632 -1.42997 0
M  V30 1524 H 146.192 1.76596 -3.21262 0
M  V30 1525 H 145.84 4.20136 -2.76576 0
M  V30 1526 H 145.54 3.80609 -4.47672 0
M  V30 1527 H 147.064 4.60984 -4.00407 0
M  V30 1528 H 148.478 2.61992 -5.09934 0
M  V30 1529 H 146.875 2.04424 -5.64208 0
M  V30 1530 H 147.945 0.942465 -4.75653 0
M  V30 1531 N 149.288 1.51039 0.449983 0
M  V30 1532 C 150.22 1.67617 1.56324 0
M  V30 1533 C 151.233 0.557083 1.52972 0
M  V30 1534 O 152.422 0.830989 1.57977 0
M  V30 1535 C 149.522 1.66402 2.95235 0
M  V30 1536 C 148.695 2.9469 3.23229 0
M  V30 1537 C 147.754 2.85832 4.41799 0
M  V30 1538 O 146.78 3.59785 4.41071 0
M  V30 1539 N 147.982 2.00821 5.44657 0
M  V30 1540 H 150.747 2.63648 1.42512 0
M  V30 1541 H 148.308 1.48767 0.638737 0
M  V30 1542 H 150.3 1.58062 3.72557 0
M  V30 1543 H 148.87 0.780182 3.02708 0
M  V30 1544 H 148.09 3.16996 2.34323 0
M  V30 1545 H 149.378 3.79636 3.38754 0
M  V30 1546 H 148.776 1.40091 5.48079 0
M  V30 1547 H 147.333 1.98368 6.20881 0
M  V30 1548 N 150.766 -0.704594 1.40972 0
M  V30 1549 C 151.696 -1.83124 1.44872 0
M  V30 1550 C 152.677 -1.67281 0.30838 0
M  V30 1551 O 153.862 -1.87149 0.518556 0
M  V30 1552 C 150.992 -3.21181 1.32136 0
M  V30 1553 C 149.946 -3.51714 2.43888 0
M  V30 1554 C 149.272 -4.89032 2.16222 0
M  V30 1555 C 150.572 -3.516 3.86232 0
M  V30 1556 H 152.266 -1.80117 2.39161 0
M  V30 1557 H 149.812 -0.865145 1.15114 0
M  V30 1558 H 151.765 -3.99702 1.33479 0
M  V30 1559 H 150.489 -3.24791 0.343279 0
M  V30 1560 H 149.148 -2.75539 2.41813 0
M  V30 1561 H 148.796 -4.89256 1.16778 0
M  V30 1562 H 148.496 -5.10426 2.911 0
M  V30 1563 H 150.02 -5.69873 2.19265 0
M  V30 1564 H 151.434 -4.2014 3.9007 0
M  V30 1565 H 149.831 -3.84523 4.60719 0
M  V30 1566 H 150.901 -2.50757 4.15029 0
M  V30 1567 N 152.244 -1.26651 -0.937939 0
M  V30 1568 C 153.655 -1.1125 -1.49934 0
M  V30 1569 C 154.006 0.306077 -1.93798 0
M  V30 1570 O 153.131 1.19792 -1.80219 0
M  V30 1571 C 153.726 -2.01339 -2.72485 0
M  V30 1572 C 152.285 -1.90074 -3.24883 0
M  V30 1573 C 151.432 -1.94498 -1.97651 0
M  V30 1574 H 154.383 -1.39693 -0.753091 0
M  V30 1575 H 154.404 -1.56319 -3.46907 0
M  V30 1576 H 153.916 -3.04577 -2.40529 0
M  V30 1577 H 152.017 -0.897827 -3.61621 0
M  V30 1578 H 152.13 -2.75778 -3.9177 0
M  V30 1579 H 150.494 -1.38591 -2.13693 0
M  V30 1580 H 151.277 -2.99372 -1.68022 0
M  V30 1581 N 153.722 1.14298 -1.08507 0
M  V30 1582 C 155.133 1.66926 -0.836227 0
M  V30 1583 C 155.484 1.85576 0.63686 0
M  V30 1584 O 154.609 1.56767 1.49175 0
M  V30 1585 C 155.204 3.03219 -1.51142 0
M  V30 1586 C 153.763 3.52876 -1.30979 0
M  V30 1587 C 152.91 2.2833 -1.57356 0
M  V30 1588 H 155.861 0.983491 -1.24552 0
M  V30 1589 H 155.882 3.68726 -0.939211 0
M  V30 1590 H 155.394 2.89612 -2.58353 0
M  V30 1591 H 153.495 3.71703 -0.258429 0
M  V30 1592 H 153.608 4.33586 -2.03814 0
M  V30 1593 H 151.972 2.34454 -0.995164 0
M  V30 1594 H 152.755 2.17298 -2.65775 0
M  V30 1595 N 155.201 0.870884 1.31352 0
M  V30 1596 C 156.148 0.325425 2.28494 0
M  V30 1597 C 157.118 -0.576615 1.5577 0
M  V30 1598 O 158.303 -0.508059 1.83911 0
M  V30 1599 C 155.443 -0.466283 3.41935 0
M  V30 1600 C 154.556 0.463378 4.29508 0
M  V30 1601 C 153.691 -0.342544 5.30094 0
M  V30 1602 C 152.73 0.583486 6.09313 0
M  V30 1603 N 151.867 -0.186244 7.01853 0
M  V30 1604 H 156.707 1.15901 2.74538 0
M  V30 1605 H 154.244 0.58294 1.35056 0
M  V30 1606 H 156.202 -0.941085 4.06447 0
M  V30 1607 H 154.832 -1.26456 2.97 0
M  V30 1608 H 153.884 1.05663 3.65431 0
M  V30 1609 H 155.196 1.1734 4.84802 0
M  V30 1610 H 154.35 -0.879816 6.00287 0
M  V30 1611 H 153.089 -1.08585 4.75458 0
M  V30 1612 H 152.094 1.13251 5.3801 0
M  V30 1613 H 153.319 1.32566 6.66035 0
M  V30 1614 H 151.265 -0.912348 6.49625 0
M  V30 1615 H 151.182 0.464422 7.54572 0
M  V30 1616 H 152.45 -0.704716 7.76308 0
M  V30 1617 N 156.679 -1.44442 0.630414 0
M  V30 1618 C 157.642 -2.29107 -0.0652523 0
M  V30 1619 C 158.642 -1.41002 -0.772995 0
M  V30 1620 O 159.832 -1.62881 -0.617692 0
M  V30 1621 C 156.964 -3.22564 -1.10296 0
M  V30 1622 H 158.157 -2.92103 0.679401 0
M  V30 1623 H 155.71 -1.51343 0.390517 0
M  V30 1624 H 156.445 -2.64416 -1.87762 0
M  V30 1625 H 156.23 -3.87491 -0.59941 0
M  V30 1626 H 157.72 -3.86167 -1.5895 0
M  V30 1627 N 158.157 -0.370918 -1.53173 0
M  V30 1628 C 159.12 0.460778 -2.24521 0
M  V30 1629 C 160.12 1.00536 -1.25496 0
M  V30 1630 O 161.31 0.890266 -1.49733 0
M  V30 1631 C 158.442 1.64457 -2.98608 0
M  V30 1632 H 159.635 -0.163613 -2.99453 0
M  V30 1633 H 157.188 -0.122699 -1.55818 0
M  V30 1634 H 157.923 2.30691 -2.2793 0
M  V30 1635 H 157.708 1.26099 -3.7127 0
M  V30 1636 H 159.198 2.23384 -3.5283 0
M  V30 1637 N 159.635 1.57281 -0.100228 0
M  V30 1638 C 160.598 2.13158 0.842398 0
M  V30 1639 C 161.598 1.06202 1.20738 0
M  V30 1640 O 162.788 1.32066 1.13597 0
M  V30 1641 C 159.92 2.65639 2.13655 0
M  V30 1642 H 161.113 2.97766 0.357114 0
M  V30 1643 H 158.666 1.5559 0.148823 0
M  V30 1644 H 159.401 1.84566 2.66657 0
M  V30 1645 H 159.186 3.43844 1.88451 0
M  V30 1646 H 160.676 3.08846 2.81077 0
M  V30 1647 N 161.113 -0.173488 1.56642 0
M  V30 1648 C 162.043 -1.2171 1.99271 0
M  V30 1649 C 163.024 -1.46289 0.867959 0
M  V30 1650 O 164.209 -1.5766 1.13388 0
M  V30 1651 C 161.339 -2.55651 2.35074 0
M  V30 1652 C 160.293 -2.45645 3.50489 0
M  V30 1653 C 159.619 -3.84056 3.72028 0
M  V30 1654 C 160.919 -1.96302 4.84007 0
M  V30 1655 H 162.613 -0.86275 2.867 0
M  V30 1656 H 160.159 -0.413571 1.37933 0
M  V30 1657 H 162.112 -3.2886 2.63494 0
M  V30 1658 H 160.836 -2.92869 1.44552 0
M  V30 1659 H 159.495 -1.7489 3.22194 0
M  V30 1660 H 159.143 -4.18664 2.788 0
M  V30 1661 H 158.843 -3.7823 4.49684 0
M  V30 1662 H 160.367 -4.58854 4.02846 0
M  V30 1663 H 161.781 -2.59284 5.11317 0
M  V30 1664 H 160.178 -2.01429 5.65284 0
M  V30 1665 H 161.248 -0.917226 4.76146 0
M  V30 1666 N 162.591 -1.51276 -0.441967 0
M  V30 1667 C 163.554 -1.7167 -1.51862 0
M  V30 1668 C 164.554 -0.586793 -1.49711 0
M  V30 1669 O 165.744 -0.854276 -1.51815 0
M  V30 1670 C 162.876 -1.76889 -2.91416 0
M  V30 1671 H 164.069 -2.67754 -1.35084 0
M  V30 1672 H 161.622 -1.41196 -0.670333 0
M  V30 1673 H 162.357 -0.826026 -3.13604 0
M  V30 1674 H 162.142 -2.59001 -2.94382 0
M  V30 1675 H 163.632 -1.94522 -3.69528 0
M  V30 1676 N 164.069 0.697108 -1.41344 0
M  V30 1677 C 165.019 1.80313 -1.39539 0
M  V30 1678 C 166.003 1.58618 -0.270001 0
M  V30 1679 O 167.195 1.69477 -0.510551 0
M  V30 1680 C 164.324 3.18606 -1.27848 0
M  V30 1681 C 163.41 3.46001 -2.45244 0
M  V30 1682 N 163.801 3.44103 -3.70711 0
M  V30 1683 C 162.099 3.76542 -2.39023 0
M  V30 1684 C 162.8 3.7036 -4.48563 0
M  V30 1685 N 161.776 3.90027 -3.78655 0
M  V30 1686 H 165.578 1.77207 -2.34468 0
M  V30 1687 H 163.092 0.897031 -1.35378 0
M  V30 1688 H 165.089 3.97833 -1.24637 0
M  V30 1689 H 163.749 3.22925 -0.339032 0
M  V30 1690 H 164.76 3.2452 -4.03618 0
M  V30 1691 H 161.437 3.88241 -1.53542 0
M  V30 1692 H 162.827 3.75042 -5.57488 0
M  V30 1693 N 165.547 1.27147 0.931209 0
M  V30 1694 C 166.477 1.12081 2.04842 0
M  V30 1695 C 167.458 0.0232364 1.70084 0
M  V30 1696 O 168.643 0.197085 1.93197 0
M  V30 1697 C 165.773 0.76354 3.38803 0
M  V30 1698 C 164.727 1.81396 3.87659 0
M  V30 1699 C 164.053 1.31075 5.18385 0
M  V30 1700 C 165.353 3.21739 4.11438 0
M  V30 1701 H 167.047 2.05537 2.17703 0
M  V30 1702 H 164.593 0.989603 1.04608 0
M  V30 1703 H 166.546 0.644982 4.16435 0
M  V30 1704 H 165.27 -0.206727 3.25945 0
M  V30 1705 H 163.929 1.92136 3.12217 0
M  V30 1706 H 163.577 0.330037 5.01916 0
M  V30 1707 H 163.277 2.013 5.52044 0
M  V30 1708 H 164.801 1.20506 5.98591 0
M  V30 1709 H 166.215 3.14019 4.79651 0
M  V30 1710 H 164.612 3.89644 4.56397 0
M  V30 1711 H 165.682 3.67054 3.16859 0
M  V30 1712 N 167.025 -1.13721 1.09112 0
M  V30 1713 C 168.302 -1.81155 0.737706 0
M  V30 1714 C 168.682 -1.96253 -0.777683 0
M  V30 1715 O 168.03 -1.52807 -1.69889 0
M  V30 1716 C 168.24 -3.16392 1.47299 0
M  V30 1717 C 169.588 -3.91787 1.63671 0
M  V30 1718 O 170.612 -3.26005 1.43524 0
M  V30 1719 O 169.471 -5.0977 1.96969 0
M  V30 1720 H 166.565 -0.783518 0.26463 0
M  V30 1721 H 169.111 -1.20676 1.19312 0
M  V30 1722 H 167.883 -3.0061 2.50498 0
M  V30 1723 H 167.506 -3.8457 1.00953 0
M  V30 1724 N 168.503 -0.877838 -1.30888 0
M  V30 1725 C 169.919 -0.570844 -1.49042 0
M  V30 1726 C 170.119 0.893159 -1.80624 0
M  V30 1727 O 169.175 1.67485 -1.88958 0
M  V30 1728 C 170.488 -1.47784 -2.61878 0
M  V30 1729 C 172.036 -1.48071 -2.75761 0
M  V30 1730 C 172.511 -2.37347 -3.91702 0
M  V30 1731 N 174.002 -2.35271 -3.99001 0
M  V30 1732 C 174.737 -3.01063 -4.88004 0
M  V30 1733 N 174.233 -3.76055 -5.81854 0
M  V30 1734 N 176.026 -2.90332 -4.81315 0
M  V30 1735 H 168.177 -1.82502 -1.0866 0
M  V30 1736 H 170.44 -0.780797 -0.537644 0
M  V30 1737 H 170.146 -2.51993 -2.45341 0
M  V30 1738 H 170.02 -1.18215 -3.58197 0
M  V30 1739 H 172.407 -0.446166 -2.91708 0
M  V30 1740 H 172.488 -1.81668 -1.80085 0
M  V30 1741 H 172.132 -3.40883 -3.76512 0
M  V30 1742 H 172.062 -2.01071 -4.86701 0
M  V30 1743 H 174.553 -1.80768 -3.3186 0
M  V30 1744 H 174.866 -4.23366 -6.46514 0
M  V30 1745 H 173.211 -3.80163 -5.81808 0
M  V30 1746 H 176.402 -2.31278 -4.06974 0
M  V30 1747 H 176.575 -3.41885 -5.50471 0
M  V30 1748 N 169.982 1.44106 -0.638065 0
M  V30 1749 C 171.23 2.01579 -0.145043 0
M  V30 1750 C 171.551 1.50496 1.24 0
M  V30 1751 O 170.821 0.711374 1.82527 0
M  V30 1752 H 169.401 0.745282 -0.05063 0
M  V30 1753 H 172.063 1.76516 -0.826327 0
M  V30 1754 H 171.159 3.11877 -0.118039 0
M  V30 1755 N 171.46 0.379036 1.52974 0
M  V30 1756 C 172.685 -0.209353 2.06341 0
M  V30 1757 C 173.11 -1.40583 1.24972 0
M  V30 1758 O 172.468 -1.79246 0.272155 0
M  V30 1759 C 172.516 -0.567786 3.56102 0
M  V30 1760 O 171.62 -1.66318 3.77375 0
M  V30 1761 H 170.961 -0.0272919 0.663439 0
M  V30 1762 H 173.491 0.543536 1.97248 0
M  V30 1763 H 173.501 -0.835003 3.99364 0
M  V30 1764 H 172.176 0.307013 4.14765 0
M  V30 1765 H 170.753 -1.39048 3.46006 0
M  V30 1766 N 172.938 -1.57226 0.108567 0
M  V30 1767 C 174.349 -1.8195 -0.418464 0
M  V30 1768 C 174.7 -1.02508 -1.67292 0
M  V30 1769 O 173.825 -0.258496 -2.14851 0
M  V30 1770 C 174.42 -3.30028 -0.765979 0
M  V30 1771 C 172.979 -3.55469 -1.23769 0
M  V30 1772 C 172.126 -2.7625 -0.241106 0
M  V30 1773 H 175.077 -1.55149 0.33384 0
M  V30 1774 H 175.098 -3.44086 -1.62434 0
M  V30 1775 H 174.61 -3.87821 0.147219 0
M  V30 1776 H 172.711 -3.03022 -2.16814 0
M  V30 1777 H 172.824 -4.6408 -1.19022 0
M  V30 1778 H 171.188 -2.44133 -0.72602 0
M  V30 1779 H 171.971 -3.36797 0.665007 0
M  V30 1780 N 174.416 0.165178 -1.56732 0
M  V30 1781 C 175.827 0.727046 -1.71962 0
M  V30 1782 C 176.178 1.82508 -0.720078 0
M  V30 1783 O 175.303 2.16082 0.117242 0
M  V30 1784 C 175.898 1.32559 -3.11791 0
M  V30 1785 C 174.457 1.83422 -3.28684 0
M  V30 1786 C 173.604 0.715567 -2.67908 0
M  V30 1787 H 176.555 -0.0602896 -1.58585 0
M  V30 1788 H 176.576 2.19533 -3.10782 0
M  V30 1789 H 176.088 0.526195 -3.84516 0
M  V30 1790 H 174.189 2.65986 -2.60926 0
M  V30 1791 H 174.302 1.97543 -4.36478 0
M  V30 1792 H 172.666 1.13758 -2.27884 0
M  V30 1793 H 173.449 -0.0720836 -3.43224 0
M  V30 1794 N 175.894 1.51508 0.433938 0
M  V30 1795 C 177.305 1.56784 1.01369 0
M  V30 1796 C 177.656 0.393349 1.92217 0
M  V30 1797 O 176.781 -0.489441 2.10792 0
M  V30 1798 C 177.376 2.84144 1.8452 0
M  V30 1799 C 175.935 2.9198 2.37539 0
M  V30 1800 C 175.082 2.51482 1.16843 0
M  V30 1801 H 178.033 1.57236 0.215081 0
M  V30 1802 H 178.054 2.68098 2.70007 0
M  V30 1803 H 177.566 3.69607 1.18373 0
M  V30 1804 H 175.667 2.10955 3.0713 0
M  V30 1805 H 175.78 3.95704 2.70103 0
M  V30 1806 H 174.144 2.04758 1.51481 0
M  V30 1807 H 174.927 3.39293 0.523015 0
M  V30 1808 N 177.372 -0.689602 1.41712 0
M  V30 1809 C 178.335 -1.78521 1.43746 0
M  V30 1810 C 179.335 -1.57436 0.327191 0
M  V30 1811 O 180.525 -1.64 0.587348 0
M  V30 1812 C 177.657 -3.16971 1.25467 0
M  V30 1813 H 178.85 -1.78108 2.41283 0
M  V30 1814 H 176.403 -0.89781 1.27942 0
M  V30 1815 H 177.138 -3.23019 0.287948 0
M  V30 1816 H 176.923 -3.33678 2.05917 0
M  V30 1817 H 178.413 -3.96935 1.2974 0
M  V30 1818 N 178.85 -1.27639 -0.924453 0
M  V30 1819 C 180.266 -1.05113 -1.20097 0
M  V30 1820 C 180.466 0.213262 -2.00368 0
M  V30 1821 O 179.522 0.91787 -2.35226 0
M  V30 1822 C 180.835 -2.29244 -1.94596 0
M  V30 1823 C 182.383 -2.34315 -2.07522 0
M  V30 1824 C 182.858 -3.58183 -2.85427 0
M  V30 1825 N 184.349 -3.5876 -2.92994 0
M  V30 1826 C 185.084 -4.51277 -3.53746 0
M  V30 1827 N 184.58 -5.54102 -4.15863 0
M  V30 1828 N 186.373 -4.38894 -3.51181 0
M  V30 1829 H 178.524 -2.08821 -0.388264 0
M  V30 1830 H 180.787 -0.918568 -0.234385 0
M  V30 1831 H 180.493 -3.21301 -1.43034 0
M  V30 1832 H 180.367 -2.34816 -2.95197 0
M  V30 1833 H 182.754 -1.42762 -2.58269 0
M  V30 1834 H 182.835 -2.32744 -1.06131 0
M  V30 1835 H 182.479 -4.50074 -2.35363 0
M  V30 1836 H 182.409 -3.57006 -3.8711 0
M  V30 1837 H 184.9 -2.84398 -2.4885 0
M  V30 1838 H 185.213 -6.20859 -4.60168 0
M  V30 1839 H 183.558 -5.57941 -4.144 0
M  V30 1840 H 186.749 -3.57772 -3.01856 0
M  V30 1841 H 186.922 -5.11186 -3.98237 0
M  V30 1842 N 180.328 1.1314 -1.09713 0
M  V30 1843 C 181.238 2.22242 -0.751367 0
M  V30 1844 C 182.254 1.72224 0.247938 0
M  V30 1845 O 183.43 2.01205 0.0885463 0
M  V30 1846 C 180.495 3.46231 -0.180274 0
M  V30 1847 C 179.556 4.11125 -1.2359 0
M  V30 1848 C 178.789 5.29195 -0.691966 0
M  V30 1849 O 179.012 5.68342 0.48414 0
M  V30 1850 O 177.946 5.84214 -1.44838 0
M  V30 1851 H 181.772 2.54197 -1.66186 0
M  V30 1852 H 179.357 1.21331 -0.871735 0
M  V30 1853 H 181.239 4.21185 0.134739 0
M  V30 1854 H 179.914 3.1597 0.703185 0
M  V30 1855 H 178.821 3.37985 -1.60366 0
M  V30 1856 H 180.154 4.45524 -2.09211 0
M  V30 1857 N 181.806 0.884767 1.30421 0
M  V30 1858 C 182.769 0.356277 2.26414 0
M  V30 1859 C 183.769 -0.501124 1.52792 0
M  V30 1860 O 184.959 -0.30831 1.7145 0
M  V30 1861 C 182.091 -0.492316 3.37326 0
M  V30 1862 H 183.284 1.20389 2.74675 0
M  V30 1863 H 180.837 0.661607 1.41607 0
M  V30 1864 H 181.572 -1.36052 2.94381 0
M  V30 1865 H 181.357 0.121832 3.91911 0
M  V30 1866 H 182.847 -0.853871 4.08777 0
M  V30 1867 N 183.284 -1.43765 0.645699 0
M  V30 1868 C 184.214 -2.33471 -0.0370477 0
M  V30 1869 C 185.195 -1.49042 -0.819779 0
M  V30 1870 O 186.38 -1.77726 -0.782758 0
M  V30 1871 C 183.51 -3.32311 -1.0093 0
M  V30 1872 C 182.464 -4.2667 -0.337201 0
M  V30 1873 C 181.79 -5.1549 -1.42037 0
M  V30 1874 C 183.09 -5.16657 0.765706 0
M  V30 1875 H 184.784 -2.90809 0.712069 0
M  V30 1876 H 182.33 -1.39834 0.343876 0
M  V30 1877 H 184.283 -3.9396 -1.49578 0
M  V30 1878 H 183.007 -2.73213 -1.78948 0
M  V30 1879 H 181.666 -3.66374 0.128771 0
M  V30 1880 H 181.314 -4.52735 -2.1918 0
M  V30 1881 H 181.014 -5.79438 -0.975966 0
M  V30 1882 H 182.538 -5.80012 -1.90838 0
M  V30 1883 H 183.952 -5.72158 0.361702 0
M  V30 1884 H 182.349 -5.89286 1.13413 0
M  V30 1885 H 183.419 -4.56796 1.62683 0
M  V30 1886 N 184.763 -0.387143 -1.52771 0
M  V30 1887 C 185.726 0.436939 -2.24997 0
M  V30 1888 C 186.726 0.991991 -1.26555 0
M  V30 1889 O 187.916 0.874335 -1.50669 0
M  V30 1890 C 185.048 1.61281 -3.00335 0
M  V30 1891 H 186.241 -0.195365 -2.99263 0
M  V30 1892 H 183.794 -0.139218 -1.55679 0
M  V30 1893 H 184.529 2.2826 -2.30364 0
M  V30 1894 H 184.314 1.22154 -3.72587 0
M  V30 1895 H 185.804 2.19629 -3.5518 0
M  V30 1896 N 186.241 1.57166 -0.116904 0
M  V30 1897 C 187.49 1.94298 0.541407 0
M  V30 1898 C 187.803 1.00236 1.67964 0
M  V30 1899 O 189.009 1.26826 2.40057 0
M  V30 1900 C 187.465 3.45306 1.01449 0
M  V30 1901 C 187.073 4.47899 -0.0951738 0
M  V30 1902 C 188.817 3.91361 1.6443 0
M  V30 1903 C 186.724 5.90083 0.394491 0
M  V30 1904 H 185.654 0.725308 0.206019 0
M  V30 1905 H 188.305 1.82446 -0.196419 0
M  V30 1906 H 186.687 3.52385 1.80667 0
M  V30 1907 H 187.861 4.52486 -0.871374 0
M  V30 1908 H 186.176 4.11583 -0.631505 0
M  V30 1909 H 188.773 4.95004 2.02176 0
M  V30 1910 H 189.116 3.3122 2.52189 0
M  V30 1911 H 189.649 3.87073 0.917559 0
M  V30 1912 H 186.388 6.53974 -0.447004 0
M  V30 1913 H 185.908 5.88921 1.13722 0
M  V30 1914 H 187.587 6.41307 0.856399 0
M  V30 1915 N 187.719 -0.156864 1.56817 0
M  V30 1916 C 188.965 -0.872416 1.83076 0
M  V30 1917 C 189.298 -1.81261 0.697001 0
M  V30 1918 O 188.573 -1.92171 -0.30008 0
M  V30 1919 C 188.856 -1.65551 3.19789 0
M  V30 1920 C 188.709 -0.737467 4.43713 0
M  V30 1921 C 190.028 -2.62012 3.53606 0
M  V30 1922 H 187.147 -0.315715 0.665953 0
M  V30 1923 H 189.789 -0.138004 1.89498 0
M  V30 1924 H 187.939 -2.28159 3.14445 0
M  V30 1925 H 189.611 -0.123143 4.61136 0
M  V30 1926 H 187.854 -0.0464067 4.33775 0
M  V30 1927 H 188.525 -1.32122 5.35955 0
M  V30 1928 H 191.001 -2.09525 3.59497 0
M  V30 1929 H 189.877 -3.13861 4.50314 0
M  V30 1930 H 190.138 -3.42902 2.79053 0
M  V30 1931 N 189.197 -1.51736 -0.425897 0
M  V30 1932 C 190.444 -1.6497 -1.17436 0
M  V30 1933 C 190.772 -0.371445 -1.9092 0
M  V30 1934 O 190.027 0.644963 -1.84767 0
M  V30 1935 C 190.326 -2.81103 -2.20717 0
M  V30 1936 C 189.992 -4.19954 -1.64162 0
M  V30 1937 C 188.654 -4.57725 -1.48462 0
M  V30 1938 C 191.006 -5.06552 -1.22696 0
M  V30 1939 C 188.334 -5.79789 -0.897873 0
M  V30 1940 C 190.686 -6.29205 -0.654464 0
M  V30 1941 C 189.35 -6.6574 -0.484456 0
M  V30 1942 H 188.62 -0.603668 -0.429727 0
M  V30 1943 H 191.267 -1.85798 -0.463829 0
M  V30 1944 H 189.572 -2.54542 -2.97852 0
M  V30 1945 H 191.269 -2.8854 -2.78471 0
M  V30 1946 H 187.859 -3.90181 -1.77361 0
M  V30 1947 H 192.043 -4.77968 -1.33642 0
M  V30 1948 H 187.299 -6.06733 -0.75402 0
M  V30 1949 H 191.473 -6.95643 -0.324694 0
M  V30 1950 H 189.1 -7.60195 -0.0276833 0
M  V30 1951 N 190.675 0.682077 -1.42076 0
M  V30 1952 C 191.922 1.44215 -1.42156 0
M  V30 1953 C 192.25 1.94468 -0.0354186 0
M  V30 1954 O 191.505 1.70816 0.955002 0
M  V30 1955 C 191.804 2.66036 -2.38662 0
M  V30 1956 C 191.47 2.34366 -3.85206 0
M  V30 1957 C 190.132 2.25439 -4.25124 0
M  V30 1958 C 192.484 2.08513 -4.77673 0
M  V30 1959 C 189.812 1.88775 -5.55501 0
M  V30 1960 C 192.164 1.73354 -6.08384 0
M  V30 1961 C 190.828 1.62933 -6.47309 0
M  V30 1962 H 190.098 0.527718 -0.520187 0
M  V30 1963 H 192.745 0.778387 -1.74967 0
M  V30 1964 H 191.05 3.3741 -1.99152 0
M  V30 1965 H 192.747 3.24205 -2.35991 0
M  V30 1966 H 189.337 2.42213 -3.53597 0
M  V30 1967 H 193.521 2.14346 -4.47626 0
M  V30 1968 H 188.777 1.7927 -5.84527 0
M  V30 1969 H 192.951 1.52373 -6.79526 0
M  V30 1970 H 190.578 1.34292 -7.48244 0
M  V30 1971 N 192.153 1.28127 0.917671 0
M  V30 1972 C 193.401 1.14825 1.66312 0
M  V30 1973 C 193.722 -0.304379 1.9261 0
M  V30 1974 O 192.992 -1.21149 1.53947 0
M  V30 1975 H 191.572 0.421953 0.616413 0
M  V30 1976 H 194.234 1.608 1.10134 0
M  V30 1977 H 193.33 1.68489 2.62712 0
M  V30 1978 N 193.631 -1.12557 1.10312 0
M  V30 1979 C 195.047 -1.36036 0.834649 0
M  V30 1980 C 195.247 -1.93946 -0.546539 0
M  V30 1981 O 194.303 -2.16484 -1.29966 0
M  V30 1982 C 195.616 -2.30312 1.9333 0
M  V30 1983 C 197.164 -2.43906 1.9616 0
M  V30 1984 C 197.639 -3.41496 3.05195 0
M  V30 1985 N 199.13 -3.49053 3.04494 0
M  V30 1986 C 199.865 -4.24471 3.85502 0
M  V30 1987 N 199.361 -5.02966 4.76442 0
M  V30 1988 N 201.154 -4.19864 3.73725 0
M  V30 1989 H 193.305 -0.733246 1.99342 0
M  V30 1990 H 195.568 -0.385234 0.866198 0
M  V30 1991 H 195.274 -1.94933 2.92735 0
M  V30 1992 H 195.148 -3.30421 1.81939 0
M  V30 1993 H 197.535 -2.78567 0.973886 0
M  V30 1994 H 197.616 -1.4369 2.11629 0
M  V30 1995 H 197.26 -3.07565 4.04186 0
M  V30 1996 H 197.19 -4.41539 2.86968 0
M  V30 1997 H 199.681 -2.93053 2.38596 0
M  V30 1998 H 199.994 -5.57846 5.34815 0
M  V30 1999 H 198.339 -5.02167 4.80472 0
M  V30 2000 H 201.53 -3.57623 3.02032 0
M  V30 2001 H 201.703 -4.78386 4.37093 0
M  V30 2002 N 195.109 -0.891671 -1.2995 0
M  V30 2003 C 196.041 -0.320695 -2.26945 0
M  V30 2004 C 197.054 0.528497 -1.53983 0
M  V30 2005 O 198.243 0.346959 -1.75096 0
M  V30 2006 C 195.343 0.562066 -3.34207 0
M  V30 2007 C 194.516 -0.259576 -4.36629 0
M  V30 2008 C 193.575 0.554739 -5.23268 0
M  V30 2009 O 192.601 -0.0249311 -5.69195 0
M  V30 2010 N 193.803 1.8625 -5.4981 0
M  V30 2011 H 196.568 -1.15432 -2.76578 0
M  V30 2012 H 194.129 -0.755336 -1.432 0
M  V30 2013 H 196.121 1.11304 -3.89093 0
M  V30 2014 H 194.691 1.29637 -2.84452 0
M  V30 2015 H 193.911 -0.991986 -3.81514 0
M  V30 2016 H 195.199 -0.822564 -5.02107 0
M  V30 2017 H 194.597 2.35628 -5.14292 0
M  V30 2018 H 193.154 2.36078 -6.07545 0
M  V30 2019 N 196.587 1.43421 -0.653314 0
M  V30 2020 C 197.998 1.85065 -0.246537 0
M  V30 2021 C 198.349 1.54688 1.2069 0
M  V30 2022 O 197.474 0.995896 1.92122 0
M  V30 2023 C 198.069 3.35922 -0.440666 0
M  V30 2024 C 196.628 3.76297 -0.0882064 0
M  V30 2025 C 195.775 2.67147 -0.743484 0
M  V30 2026 H 198.726 1.33572 -0.856979 0
M  V30 2027 H 198.747 3.79204 0.313798 0
M  V30 2028 H 198.259 3.58 -1.49858 0
M  V30 2029 H 196.36 3.5983 0.96711 0
M  V30 2030 H 196.473 4.76338 -0.513738 0
M  V30 2031 H 194.837 2.54086 -0.176712 0
M  V30 2032 H 195.62 2.92053 -1.80443 0
M  V30 2033 N 198.065 0.39524 1.52563 0
M  V30 2034 C 198.997 -0.472201 2.24283 0
M  V30 2035 C 200.01 -1.02178 1.26742 0
M  V30 2036 O 201.199 -0.923097 1.52778 0
M  V30 2037 C 198.299 -1.66775 2.95024 0
M  V30 2038 C 197.472 -1.2445 4.19322 0
M  V30 2039 C 196.531 -2.30539 4.7301 0
M  V30 2040 O 195.557 -1.91702 5.35947 0
M  V30 2041 N 196.759 -3.6253 4.53379 0
M  V30 2042 H 199.524 0.142282 2.99362 0
M  V30 2043 H 197.085 0.2219 1.60372 0
M  V30 2044 H 199.077 -2.37283 3.27839 0
M  V30 2045 H 197.647 -2.18845 2.23217 0
M  V30 2046 H 196.867 -0.368069 3.92478 0
M  V30 2047 H 198.155 -0.938457 5.0007 0
M  V30 2048 H 197.553 -3.96841 4.03154 0
M  V30 2049 H 196.11 -4.29055 4.90668 0
M  V30 2050 N 199.544 -1.57102 0.125237 0
M  V30 2051 C 200.955 -1.82384 -0.399142 0
M  V30 2052 C 201.306 -1.04276 -1.66195 0
M  V30 2053 O 200.431 -0.281269 -2.14564 0
M  V30 2054 C 201.026 -3.30821 -0.730932 0
M  V30 2055 C 199.585 -3.56762 -1.19992 0
M  V30 2056 C 198.732 -2.7649 -0.211792 0
M  V30 2057 H 201.683 -1.54786 0.350277 0
M  V30 2058 H 201.704 -3.4579 -1.58775 0
M  V30 2059 H 201.216 -3.87643 0.188345 0
M  V30 2060 H 199.317 -3.05305 -2.13588 0
M  V30 2061 H 199.43 -4.65317 -1.14093 0
M  V30 2062 H 197.794 -2.4489 -0.700085 0
M  V30 2063 H 198.577 -3.36073 0.700691 0
M  V30 2064 N 201.022 0.148545 -1.56898 0
M  V30 2065 C 201.97 1.20265 -1.99096 0
M  V30 2066 C 202.964 1.44559 -0.883123 0
M  V30 2067 O 204.17 1.4487 -1.0683 0
M  V30 2068 H 200.545 0.404786 -0.63376 0
M  V30 2069 H 202.516 0.82004 -2.86911 0
M  V30 2070 C 201.265 2.52886 -2.3863 0
M  V30 2071 H 200.588 2.35021 -3.23427 0
M  V30 2072 H 202.028 3.25274 -2.7198 0
M  V30 2073 C 200.487 3.13315 -1.23837 0
M  V30 2074 O 201.017 3.98077 -0.538268 0
M  V30 2075 N 199.223 2.72742 -1.00301 0
M  V30 2076 H 198.77 2.03912 -1.5741 0
M  V30 2077 H 198.728 3.13507 -0.236838 0
M  V30 2078 N 202.5 1.5196 0.417844 0
M  V30 2079 C 203.746 1.65836 1.16732 0
M  V30 2080 C 204.079 0.382881 1.90388 0
M  V30 2081 O 203.354 -0.618368 1.84408 0
M  V30 2082 C 203.637 2.87466 2.16876 0
M  V30 2083 C 203.49 4.25041 1.47174 0
M  V30 2084 C 204.809 3.04613 3.17646 0
M  V30 2085 H 201.928 0.603515 0.423011 0
M  V30 2086 H 204.57 1.84494 0.454105 0
M  V30 2087 H 202.72 2.71689 2.777 0
M  V30 2088 H 204.392 4.52527 0.895376 0
M  V30 2089 H 202.635 4.26843 0.773806 0
M  V30 2090 H 203.306 5.06176 2.20204 0
M  V30 2091 H 205.782 3.1923 2.66892 0
M  V30 2092 H 204.658 3.91247 3.8499 0
M  V30 2093 H 204.919 2.17541 3.84874 0
M  V30 2094 N 203.978 -0.674533 1.42435 0
M  V30 2095 C 205.203 -1.46784 1.46524 0
M  V30 2096 C 205.628 -1.87938 0.078066 0
M  V30 2097 O 204.986 -1.56014 -0.92354 0
M  V30 2098 C 205.034 -2.69307 2.39805 0
M  V30 2099 O 204.138 -3.67587 1.86959 0
M  V30 2100 H 203.479 -0.440959 0.496439 0
M  V30 2101 H 206.009 -0.827326 1.87127 0
M  V30 2102 H 206.019 -3.17374 2.56393 0
M  V30 2103 H 204.694 -2.38692 3.40586 0
M  V30 2104 H 203.271 -3.2662 1.79927 0
M  V30 2105 N 205.456 -1.28612 -0.910864 0
M  V30 2106 C 206.366 -1.14643 -2.0468 0
M  V30 2107 C 207.382 -0.0723121 -1.7385 0
M  V30 2108 O 208.558 -0.282178 -1.99413 0
M  V30 2109 C 205.623 -0.812561 -3.37044 0
M  V30 2110 C 204.684 -1.96935 -3.81465 0
M  V30 2111 C 203.917 -1.65131 -5.07511 0
M  V30 2112 O 204.14 -0.567013 -5.67575 0
M  V30 2113 O 203.074 -2.49585 -5.47714 0
M  V30 2114 H 206.9 -2.1001 -2.19384 0
M  V30 2115 H 204.485 -1.07958 -1.03274 0
M  V30 2116 H 206.367 -0.640441 -4.16505 0
M  V30 2117 H 205.042 0.111426 -3.23508 0
M  V30 2118 H 203.949 -2.19664 -3.02818 0
M  V30 2119 H 205.282 -2.87414 -3.99567 0
M  V30 2120 N 206.934 1.1197 -1.10907 0
M  V30 2121 C 207.864 2.19928 -0.784473 0
M  V30 2122 C 208.845 1.6833 0.244726 0
M  V30 2123 O 210.03 1.93892 0.109418 0
M  V30 2124 C 207.16 3.46597 -0.220827 0
M  V30 2125 C 206.114 4.11376 -1.18127 0
M  V30 2126 C 205.44 5.32554 -0.478594 0
M  V30 2127 C 206.74 4.56945 -2.52979 0
M  V30 2128 H 208.434 2.47337 -1.68715 0
M  V30 2129 H 205.98 1.18879 -0.812642 0
M  V30 2130 H 207.933 4.21396 0.0184278 0
M  V30 2131 H 206.657 3.1863 0.717113 0
M  V30 2132 H 205.316 3.38564 -1.40606 0
M  V30 2133 H 204.964 5.00856 0.463976 0
M  V30 2134 H 204.664 5.76844 -1.11912 0
M  V30 2135 H 206.188 6.10096 -0.248 0
M  V30 2136 H 207.602 5.23093 -2.3462 0
M  V30 2137 H 205.999 5.1203 -3.12962 0
M  V30 2138 H 207.069 3.70676 -3.12614 0
M  V30 2139 N 208.412 0.89855 1.29475 0
M  V30 2140 C 209.658 0.524658 1.95896 0
M  V30 2141 C 209.991 -0.926468 1.70676 0
M  V30 2142 O 209.266 -1.65665 1.01908 0
M  V30 2143 C 209.549 0.81633 3.50725 0
M  V30 2144 C 209.402 2.31907 3.85408 0
M  V30 2145 C 210.721 0.302038 4.39062 0
M  V30 2146 H 207.84 0.19209 0.711527 0
M  V30 2147 H 210.482 1.12502 1.53112 0
M  V30 2148 H 208.632 0.305369 3.87298 0
M  V30 2149 H 210.304 2.89949 3.58786 0
M  V30 2150 H 208.547 2.78027 3.32992 0
M  V30 2151 H 209.218 2.47373 4.93468 0
M  V30 2152 H 211.694 0.739551 4.09475 0
M  V30 2153 H 210.57 0.535331 5.46283 0
M  V30 2154 H 210.831 -0.797216 4.34853 0
M  V30 2155 N 209.89 -1.43072 0.660911 0
M  V30 2156 C 211.136 -2.0202 0.177708 0
M  V30 2157 C 211.469 -1.52066 -1.20787 0
M  V30 2158 O 210.744 -0.716987 -1.80802 0
M  V30 2159 C 211.027 -3.59561 0.197019 0
M  V30 2160 C 210.88 -4.19727 1.61706 0
M  V30 2161 C 212.199 -4.37664 -0.462396 0
M  V30 2162 H 209.318 -0.734034 0.0660494 0
M  V30 2163 H 211.96 -1.70272 0.843058 0
M  V30 2164 H 210.11 -3.86739 -0.369527 0
M  V30 2165 H 211.782 -4.03553 2.23479 0
M  V30 2166 H 210.025 -3.76084 2.16201 0
M  V30 2167 H 210.696 -5.28834 1.58237 0
M  V30 2168 H 213.172 -4.16095 0.0197215 0
M  V30 2169 H 212.048 -5.47305 -0.418188 0
M  V30 2170 H 212.309 -4.14493 -1.53778 0
M  V30 2171 N 211.368 -0.403325 -1.52352 0
M  V30 2172 C 212.616 0.174003 -2.0135 0
M  V30 2173 C 212.937 1.46139 -1.29106 0
M  V30 2174 O 212.207 1.91448 -0.415253 0
M  V30 2175 H 210.787 0.0672911 -0.743963 0
M  V30 2176 H 213.449 -0.538235 -1.87321 0
M  V30 2177 H 212.545 0.374254 -3.09848 0
M  V30 2178 N 212.846 1.57033 -0.133567 0
M  V30 2179 C 214.257 1.82593 0.389464 0
M  V30 2180 C 214.608 1.05156 1.6564 0
M  V30 2181 O 213.733 0.292644 2.14412 0
M  V30 2182 C 214.328 3.31204 0.713377 0
M  V30 2183 C 212.887 3.57393 1.18098 0
M  V30 2184 C 212.034 2.76598 0.197126 0
M  V30 2185 H 214.985 1.54598 -0.358481 0
M  V30 2186 H 215.006 3.46627 1.56939 0
M  V30 2187 H 214.518 3.87537 -0.2089 0
M  V30 2188 H 212.619 3.06433 2.11966 0
M  V30 2189 H 212.732 4.65915 1.11624 0
M  V30 2190 H 211.096 2.45257 0.687088 0
M  V30 2191 H 211.879 3.35697 -0.718504 0
M  V30 2192 N 214.325 -0.140222 1.56975 0
M  V30 2193 C 215.255 -1.17456 2.01808 0
M  V30 2194 C 216.236 -1.44415 0.898794 0
M  V30 2195 O 217.421 -1.5522 1.16707 0
M  V30 2196 C 214.551 -2.50607 2.40444 0
M  V30 2197 C 213.505 -2.38155 3.55621 0
M  V30 2198 C 212.831 -3.76078 3.80091 0
M  V30 2199 C 214.131 -1.85991 4.88062 0
M  V30 2200 H 215.825 -0.801743 2.88466 0
M  V30 2201 H 213.371 -0.38422 1.38779 0
M  V30 2202 H 215.324 -3.23197 2.7041 0
M  V30 2203 H 214.048 -2.89737 1.50732 0
M  V30 2204 H 212.707 -1.68016 3.25832 0
M  V30 2205 H 212.355 -4.12656 2.87618 0
M  V30 2206 H 212.055 -3.68606 4.57606 0
M  V30 2207 H 213.579 -4.50206 4.12488 0
M  V30 2208 H 214.993 -2.4838 5.16701 0
M  V30 2209 H 213.39 -1.89393 5.6943 0
M  V30 2210 H 214.46 -0.816023 4.77984 0
M  V30 2211 N 215.803 -1.52179 -0.40978 0
M  V30 2212 C 217.214 -1.58377 -0.988615 0
M  V30 2213 C 217.565 -0.423879 -1.91566 0
M  V30 2214 O 216.69 0.455844 -2.11544 0
M  V30 2215 C 217.285 -2.87044 -1.79976 0
M  V30 2216 C 215.844 -2.95722 -2.32863 0
M  V30 2217 C 214.991 -2.53309 -1.12828 0
M  V30 2218 H 217.942 -1.57558 -0.190039 0
M  V30 2219 H 217.963 -2.7236 -2.65707 0
M  V30 2220 H 217.475 -3.71444 -1.12478 0
M  V30 2221 H 215.576 -2.15814 -3.03735 0
M  V30 2222 H 215.689 -3.99951 -2.63773 0
M  V30 2223 H 214.053 -2.07142 -1.48204 0
M  V30 2224 H 214.836 -3.40082 -0.46897 0
M  V30 2225 N 217.281 0.66697 -1.42791 0
M  V30 2226 C 218.231 1.77313 -1.43332 0
M  V30 2227 C 219.215 1.5801 -0.303586 0
M  V30 2228 O 220.407 1.68356 -0.546385 0
M  V30 2229 C 217.536 3.15822 -1.34578 0
M  V30 2230 C 216.622 3.40721 -2.52528 0
M  V30 2231 N 217.013 3.36162 -3.77927 0
M  V30 2232 C 215.311 3.71387 -2.46956 0
M  V30 2233 C 216.012 3.60762 -4.56318 0
M  V30 2234 N 214.988 3.81908 -3.86843 0
M  V30 2235 H 218.79 1.72193 -2.38174 0
M  V30 2236 H 216.304 0.868114 -1.3725 0
M  V30 2237 H 218.301 3.951 -1.33048 0
M  V30 2238 H 216.961 3.22133 -0.407453 0
M  V30 2239 H 217.972 3.15885 -4.10411 0
M  V30 2240 H 214.649 3.84897 -1.61743 0
M  V30 2241 H 216.039 3.63132 -5.65318 0
M  V30 2242 N 218.759 1.29093 0.90403 0
M  V30 2243 C 220.17 1.15186 1.46932 0
M  V30 2244 C 220.521 -0.254587 1.94541 0
M  V30 2245 O 219.646 -1.14972 1.83332 0
M  V30 2246 C 220.241 2.08492 2.67051 0
M  V30 2247 C 218.8 1.98621 3.19729 0
M  V30 2248 C 217.947 1.9967 1.92425 0
M  V30 2249 H 220.898 1.41641 0.715789 0
M  V30 2250 H 220.919 1.65461 3.42641 0
M  V30 2251 H 220.431 3.10847 2.3237 0
M  V30 2252 H 218.532 0.993389 3.59114 0
M  V30 2253 H 218.645 2.86068 3.8432 0
M  V30 2254 H 217.009 1.44208 2.09943 0
M  V30 2255 H 217.792 3.03721 1.60026 0
M  V30 2256 N 220.237 -1.11381 1.11499 0
M  V30 2257 C 221.462 -1.87475 0.887019 0
M  V30 2258 C 221.887 -1.79639 -0.557796 0
M  V30 2259 O 221.245 -1.15924 -1.39396 0
M  V30 2260 C 221.293 -3.34213 1.35403 0
M  V30 2261 O 220.397 -4.0903 0.526146 0
M  V30 2262 H 219.738 -0.582099 0.319463 0
M  V30 2263 H 222.268 -1.40785 1.48461 0
M  V30 2264 H 222.278 -3.8506 1.34881 0
M  V30 2265 H 220.953 -3.39232 2.40612 0
M  V30 2266 H 219.53 -3.68082 0.597522 0
M  V30 2267 N 221.715 -0.905404 -1.28997 0
M  V30 2268 C 222.945 -0.549049 -1.99171 0
M  V30 2269 C 223.353 0.87203 -1.67906 0
M  V30 2270 O 222.696 1.58796 -0.923561 0
M  V30 2271 C 222.758 -0.668306 -3.53234 0
M  V30 2272 C 222.422 -2.0574 -4.08069 0
M  V30 2273 C 223.419 -3.0292 -4.22534 0
M  V30 2274 C 221.104 -2.36833 -4.42962 0
M  V30 2275 C 223.098 -4.29314 -4.71135 0
M  V30 2276 C 220.785 -3.63467 -4.91258 0
M  V30 2277 C 221.783 -4.59522 -5.053 0
M  V30 2278 O 221.471 -5.83907 -5.52546 0
M  V30 2279 H 221.203 -0.208784 -0.64295 0
M  V30 2280 H 223.757 -1.21836 -1.65363 0
M  V30 2281 H 221.987 0.0580547 -3.86656 0
M  V30 2282 H 223.676 -0.320273 -4.04634 0
M  V30 2283 H 224.442 -2.80216 -3.95859 0
M  V30 2284 H 220.321 -1.62824 -4.31288 0
M  V30 2285 H 223.865 -5.04293 -4.8201 0
M  V30 2286 H 219.762 -3.86 -5.17372 0
M  V30 2287 H 220.53 -5.86578 -5.70849 0
M  V30 2288 N 223.193 1.4272 -0.668489 0
M  V30 2289 C 224.126 2.28111 0.0637898 0
M  V30 2290 C 225.104 1.40705 0.814912 0
M  V30 2291 O 226.288 1.70146 0.81134 0
M  V30 2292 C 223.415 3.20429 1.0974 0
M  V30 2293 C 222.461 4.24197 0.442579 0
M  V30 2294 S 223.294 5.29563 -0.795173 0
M  V30 2295 C 224.45 6.25449 0.237516 0
M  V30 2296 H 224.683 2.8987 -0.660521 0
M  V30 2297 H 222.216 1.47456 -0.457821 0
M  V30 2298 H 224.174 3.74158 1.68868 0
M  V30 2299 H 222.835 2.57818 1.79411 0
M  V30 2300 H 222.028 4.88954 1.22227 0
M  V30 2301 H 221.63 3.73925 -0.0749554 0
M  V30 2302 H 223.922 6.68524 1.09915 0
M  V30 2303 H 224.865 7.07104 -0.375421 0
M  V30 2304 H 225.273 5.61511 0.580167 0
M  V30 2305 N 224.671 0.411399 1.52136 0
M  V30 2306 C 226.087 0.0623865 1.59478 0
M  V30 2307 C 226.287 -1.42554 1.4241 0
M  V30 2308 O 225.343 -2.19263 1.2522 0
M  V30 2309 C 226.656 0.559331 2.95452 0
M  V30 2310 C 228.204 0.517503 3.08692 0
M  V30 2311 C 228.679 0.990994 4.4715 0
M  V30 2312 N 230.17 0.947908 4.53397 0
M  V30 2313 C 230.905 1.28544 5.58806 0
M  V30 2314 N 230.401 1.69454 6.71757 0
M  V30 2315 N 232.194 1.20526 5.49026 0
M  V30 2316 H 224.345 1.37982 1.61477 0
M  V30 2317 H 226.608 0.566977 0.759764 0
M  V30 2318 H 226.314 1.59938 3.1323 0
M  V30 2319 H 226.188 -0.0298014 3.77188 0
M  V30 2320 H 228.575 -0.513505 2.90598 0
M  V30 2321 H 228.656 1.14272 2.28857 0
M  V30 2322 H 228.3 2.02034 4.65988 0
M  V30 2323 H 228.23 0.34257 5.25485 0
M  V30 2324 H 230.721 0.647157 3.72317 0
M  V30 2325 H 231.034 1.93513 7.48179 0
M  V30 2326 H 229.379 1.73359 6.73032 0
M  V30 2327 H 232.57 0.884505 4.59667 0
M  V30 2328 H 232.743 1.47161 6.31069 0
M  V30 2329 N 226.149 -1.5696 0.141893 0
M  V30 2330 C 227.426 -1.87553 -0.555281 0
M  V30 2331 C 227.806 -1.04699 -1.83306 0
M  V30 2332 O 227.154 -0.132346 -2.28116 0
M  V30 2333 C 227.364 -3.39093 -0.825664 0
M  V30 2334 C 228.712 -4.08199 -1.16869 0
M  V30 2335 O 229.736 -3.44242 -0.915185 0
M  V30 2336 O 228.595 -5.21139 -1.6455 0
M  V30 2337 H 225.689 -0.777188 -0.282679 0
M  V30 2338 H 228.235 -1.68763 0.17812 0
M  V30 2339 H 227.007 -3.91221 0.0788633 0
M  V30 2340 H 226.63 -3.63393 -1.61343 0
M  V30 2341 N 227.627 0.131896 -1.57047 0
M  V30 2342 C 228.873 0.843179 -1.84441 0
M  V30 2343 C 229.206 1.80129 -0.725749 0
M  V30 2344 O 228.481 1.92624 0.269469 0
M  V30 2345 C 228.764 1.60442 -3.22382 0
M  V30 2346 C 228.617 0.666782 -4.4483 0
M  V30 2347 C 229.936 2.56354 -3.5773 0
M  V30 2348 H 227.055 0.305081 -0.670891 0
M  V30 2349 H 229.697 0.107839 -1.89694 0
M  V30 2350 H 227.847 2.23128 -3.18035 0
M  V30 2351 H 229.519 0.0497646 -4.61273 0
M  V30 2352 H 227.762 -0.022609 -4.33794 0
M  V30 2353 H 228.433 1.23579 -5.37989 0
M  V30 2354 H 230.909 2.0378 -3.62785 0
M  V30 2355 H 229.785 3.06657 -4.5525 0
M  V30 2356 H 230.046 3.38419 -2.84473 0
M  V30 2357 N 229.106 1.52395 0.401703 0
M  V30 2358 C 230.334 1.70676 1.16949 0
M  V30 2359 C 230.749 0.419503 1.8408 0
M  V30 2360 O 230.106 -0.605061 1.72178 0
M  V30 2361 C 230.157 2.84753 2.22706 0
M  V30 2362 O 229.878 4.08495 1.58314 0
M  V30 2363 C 231.379 3.14608 3.12309 0
M  V30 2364 H 228.599 0.571787 0.351142 0
M  V30 2365 H 231.143 1.98987 0.471652 0
M  V30 2366 H 229.298 2.58941 2.88147 0
M  V30 2367 H 229.712 4.72117 2.28485 0
M  V30 2368 H 231.186 3.97923 3.82572 0
M  V30 2369 H 231.663 2.28464 3.75101 0
M  V30 2370 H 232.269 3.42212 2.52529 0
M  V30 2371 N 230.584 -0.659388 1.43143 0
M  V30 2372 C 231.83 -1.42145 1.44647 0
M  V30 2373 C 232.163 -1.9408 0.0681907 0
M  V30 2374 O 231.438 -1.71899 -0.910007 0
M  V30 2375 C 231.721 -2.60735 2.48373 0
M  V30 2376 C 231.574 -2.14332 3.95451 0
M  V30 2377 C 232.893 -3.62951 2.48906 0
M  V30 2378 H 230.012 -0.51552 0.526696 0
M  V30 2379 H 232.654 -0.748069 1.74654 0
M  V30 2380 H 230.804 -3.18184 2.22916 0
M  V30 2381 H 232.476 -1.61932 4.31944 0
M  V30 2382 H 230.719 -1.4576 4.08578 0
M  V30 2383 H 231.39 -2.99583 4.63631 0
M  V30 2384 H 233.866 -3.1525 2.71582 0
M  V30 2385 H 232.742 -4.43487 3.23435 0
M  V30 2386 H 233.003 -4.15126 1.52061 0
M  V30 2387 N 232.062 -1.29571 -0.897171 0
M  V30 2388 C 232.972 -1.16808 -2.03453 0
M  V30 2389 C 233.988 -0.0907471 -1.73763 0
M  V30 2390 O 235.164 -0.303312 -1.99103 0
M  V30 2391 C 232.229 -0.848264 -3.36163 0
M  V30 2392 C 231.29 -2.0097 -3.79354 0
M  V30 2393 C 230.523 -1.70505 -5.05731 0
M  V30 2394 O 230.746 -0.62718 -5.66941 0
M  V30 2395 O 229.68 -2.5538 -5.45036 0
M  V30 2396 H 233.506 -2.12325 -2.17144 0
M  V30 2397 H 231.091 -1.09047 -1.02123 0
M  V30 2398 H 232.973 -0.684581 -4.15802 0
M  V30 2399 H 231.648 0.0771071 -3.23608 0
M  V30 2400 H 230.555 -2.22863 -3.00471 0
M  V30 2401 H 231.888 -2.91636 -3.96496 0
M  V30 2402 N 233.54 1.10788 -1.12088 0
M  V30 2403 C 234.956 1.34691 -0.856186 0
M  V30 2404 C 235.156 1.94791 0.515615 0
M  V30 2405 O 234.212 2.18524 1.26505 0
M  V30 2406 C 235.525 2.27208 -1.9697 0
M  V30 2407 C 237.073 2.40755 -2.00016 0
M  V30 2408 C 237.548 3.36598 -3.1059 0
M  V30 2409 N 239.039 3.44164 -3.10008 0
M  V30 2410 C 239.774 4.18284 -3.92206 0
M  V30 2411 N 239.27 4.95322 -4.84384 0
M  V30 2412 N 241.063 4.13865 -3.80357 0
M  V30 2413 H 233.214 0.70144 -2.00483 0
M  V30 2414 H 235.477 0.371405 -0.872217 0
M  V30 2415 H 235.183 1.90251 -2.958 0
M  V30 2416 H 235.057 3.27485 -1.87172 0
M  V30 2417 H 237.444 2.76982 -1.01808 0
M  V30 2418 H 237.525 1.40305 -2.13888 0
M  V30 2419 H 237.169 3.01096 -4.09028 0
M  V30 2420 H 237.099 4.36918 -2.93956 0
M  V30 2421 H 239.59 2.8922 -2.43228 0
M  V30 2422 H 239.903 5.49267 -5.43623 0
M  V30 2423 H 238.248 4.94459 -4.884 0
M  V30 2424 H 241.439 3.52773 -3.07683 0
M  V30 2425 H 241.612 4.71372 -4.44649 0
M  V30 2426 N 235.018 0.912232 1.28515 0
M  V30 2427 C 235.968 0.370649 2.24967 0
M  V30 2428 C 236.952 -0.516375 1.52389 0
M  V30 2429 O 238.144 -0.356345 1.73376 0
M  V30 2430 C 235.273 -0.389526 3.41083 0
M  V30 2431 C 234.359 0.51313 4.20984 0
M  V30 2432 N 234.75 1.62604 4.78951 0
M  V30 2433 C 233.048 0.313235 4.44899 0
M  V30 2434 C 233.749 2.18619 5.39055 0
M  V30 2435 N 232.725 1.47765 5.23132 0
M  V30 2436 H 236.527 1.22061 2.67354 0
M  V30 2437 H 234.041 0.764712 1.43269 0
M  V30 2438 H 236.038 -0.794353 4.09262 0
M  V30 2439 H 234.698 -1.2366 3.0023 0
M  V30 2440 H 235.709 2.00864 4.77362 0
M  V30 2441 H 232.386 -0.494452 4.14562 0
M  V30 2442 H 233.776 3.12228 5.94948 0
M  V30 2443 N 236.496 -1.42363 0.676048 0
M  V30 2444 C 237.744 -2.01123 0.198437 0
M  V30 2445 C 238.065 -1.53731 -1.19966 0
M  V30 2446 O 237.335 -0.759518 -1.80577 0
M  V30 2447 H 235.915 -0.743678 0.0703721 0
M  V30 2448 H 238.577 -1.74263 0.872837 0
M  V30 2449 H 237.673 -3.11454 0.200686 0
M  V30 2450 N 237.974 -0.419461 -1.51915 0
M  V30 2451 C 239.222 0.152637 -2.01523 0
M  V30 2452 C 239.543 1.44762 -1.30649 0
M  V30 2453 O 238.813 1.90997 -0.435535 0
M  V30 2454 H 237.393 0.0593966 -0.744635 0
M  V30 2455 H 240.055 -0.558073 -1.86739 0
M  V30 2456 H 239.151 0.341369 -3.10227 0
M  V30 2457 N 239.452 1.56882 -0.150215 0
M  V30 2458 C 240.863 1.82995 0.370076 0
M  V30 2459 C 241.214 1.06907 1.64515 0
M  V30 2460 O 240.339 0.315369 2.1409 0
M  V30 2461 C 240.934 3.31942 0.678208 0
M  V30 2462 C 239.493 3.58625 1.14301 0
M  V30 2463 C 238.64 2.76792 0.167778 0
M  V30 2464 H 241.591 1.54209 -0.374858 0
M  V30 2465 H 241.612 3.48272 1.53254 0
M  V30 2466 H 241.124 3.87294 -0.249991 0
M  V30 2467 H 239.225 3.08664 2.08704 0
M  V30 2468 H 239.338 4.67073 1.06676 0
M  V30 2469 H 237.702 2.45972 0.661037 0
M  V30 2470 H 238.485 3.34916 -0.754069 0
M  V30 2471 N 240.93 -0.123565 1.57115 0
M  V30 2472 C 241.86 -1.15309 2.03042 0
M  V30 2473 C 242.841 -1.43454 0.914061 0
M  V30 2474 O 244.026 -1.53973 1.18347 0
M  V30 2475 C 241.156 -2.48043 2.43089 0
M  V30 2476 C 240.11 -2.3437 3.58127 0
M  V30 2477 C 239.436 -3.72026 3.84059 0
M  V30 2478 C 240.736 -1.80804 4.90007 0
M  V30 2479 H 242.43 -0.771102 2.893 0
M  V30 2480 H 239.976 -0.369479 1.39179 0
M  V30 2481 H 241.929 -3.20311 2.73823 0
M  V30 2482 H 240.653 -2.88122 1.53796 0
M  V30 2483 H 239.312 -1.64551 3.27595 0
M  V30 2484 H 238.96 -4.09582 2.91979 0
M  V30 2485 H 238.66 -3.63732 4.6149 0
M  V30 2486 H 240.184 -4.45806 4.1724 0
M  V30 2487 H 241.598 -2.42886 5.19307 0
M  V30 2488 H 239.995 -1.83343 5.71407 0
M  V30 2489 H 241.065 -0.76528 4.78823 0
M  V30 2490 N 242.408 -1.52605 -0.393616 0
M  V30 2491 C 243.819 -1.59417 -0.971761 0
M  V30 2492 C 244.17 -0.444173 -1.91106 0
M  V30 2493 O 243.295 0.433382 -2.12016 0
M  V30 2494 C 243.89 -2.88936 -1.76921 0
M  V30 2495 C 242.449 -2.98175 -2.29714 0
M  V30 2496 C 241.596 -2.54491 -1.10135 0
M  V30 2497 H 244.547 -1.57751 -0.173317 0
M  V30 2498 H 244.568 -2.75163 -2.62804 0
M  V30 2499 H 244.08 -3.72616 -1.08532 0
M  V30 2500 H 242.181 -2.19024 -3.01429 0
M  V30 2501 H 242.294 -4.02726 -2.59517 0
M  V30 2502 H 240.658 -2.08702 -1.45999 0
M  V30 2503 H 241.441 -3.4056 -0.432874 0
M  V30 2504 N 243.887 0.651787 -1.4349 0
M  V30 2505 C 245.117 1.43728 -1.48411 0
M  V30 2506 C 245.525 1.8893 -0.10103 0
M  V30 2507 O 244.868 1.60182 0.899307 0
M  V30 2508 C 244.93 2.70411 -2.36893 0
M  V30 2509 C 244.594 2.4714 -3.8441 0
M  V30 2510 C 245.591 2.10271 -4.75481 0
M  V30 2511 C 243.276 2.6142 -4.28912 0
M  V30 2512 C 245.27 1.87982 -6.0905 0
M  V30 2513 C 242.957 2.38746 -5.62533 0
M  V30 2514 C 243.955 2.02083 -6.5242 0
M  V30 2515 O 243.643 1.79647 -7.8357 0
M  V30 2516 H 243.375 0.447962 -0.506267 0
M  V30 2517 H 245.929 0.80624 -1.88915 0
M  V30 2518 H 244.159 3.36079 -1.91278 0
M  V30 2519 H 245.848 3.32364 -2.33 0
M  V30 2520 H 246.614 1.98814 -4.42378 0
M  V30 2521 H 242.493 2.88931 -3.59222 0
M  V30 2522 H 246.037 1.5929 -6.7917 0
M  V30 2523 H 241.934 2.49806 -5.95203 0
M  V30 2524 H 242.702 1.9406 -7.95162 0
M  V30 2525 N 245.365 1.30045 0.890287 0
M  V30 2526 C 246.315 1.12592 1.9826 0
M  V30 2527 C 247.299 0.0426021 1.60844 0
M  V30 2528 O 248.491 0.265346 1.75 0
M  V30 2529 C 245.62 0.814301 3.33503 0
M  V30 2530 C 244.706 1.93761 3.7725 0
M  V30 2531 N 245.097 3.18232 3.93143 0
M  V30 2532 C 243.395 1.83277 4.06602 0
M  V30 2533 C 244.096 3.9158 4.30163 0
M  V30 2534 N 243.072 3.19591 4.3973 0
M  V30 2535 H 246.874 2.07003 2.08631 0
M  V30 2536 H 244.388 1.21307 1.07974 0
M  V30 2537 H 246.385 0.67029 4.11476 0
M  V30 2538 H 245.045 -0.121797 3.24471 0
M  V30 2539 H 246.056 3.53581 3.78419 0
M  V30 2540 H 242.733 0.97001 4.06075 0
M  V30 2541 H 244.123 4.98744 4.50226 0
M  V30 2542 N 246.843 -1.10192 1.12674 0
M  V30 2543 C 248.259 -1.34235 0.863317 0
M  V30 2544 C 248.459 -1.95062 -0.505277 0
M  V30 2545 O 247.515 -2.19192 -1.25345 0
M  V30 2546 C 248.828 -2.2616 1.98172 0
M  V30 2547 C 250.376 -2.3969 2.0129 0
M  V30 2548 C 250.851 -3.34946 3.1237 0
M  V30 2549 N 252.342 -3.42515 3.11829 0
M  V30 2550 C 253.077 -4.16199 3.94419 0
M  V30 2551 N 252.573 -4.92747 4.87004 0
M  V30 2552 N 254.366 -4.11843 3.82547 0
M  V30 2553 H 246.517 -0.690798 2.00853 0
M  V30 2554 H 248.78 -0.366774 0.874174 0
M  V30 2555 H 248.486 -1.8868 2.96804 0
M  V30 2556 H 248.36 -3.26488 1.88906 0
M  V30 2557 H 250.747 -2.76438 1.03276 0
M  V30 2558 H 250.828 -1.39169 2.14629 0
M  V30 2559 H 250.472 -2.98923 4.10619 0
M  V30 2560 H 250.402 -4.35353 2.96269 0
M  V30 2561 H 252.893 -2.87926 2.44759 0
M  V30 2562 H 253.206 -5.46376 5.46528 0
M  V30 2563 H 251.551 -4.91862 4.91016 0
M  V30 2564 H 254.742 -3.51136 3.0955 0
M  V30 2565 H 254.915 -4.69007 4.47142 0
M  V30 2566 N 248.321 -0.919034 -1.28029 0
M  V30 2567 C 249.737 -0.617972 -1.4715 0
M  V30 2568 C 249.937 0.835242 -1.83374 0
M  V30 2569 O 248.993 1.61388 -1.94191 0
M  V30 2570 C 250.306 -1.56041 -2.57044 0
M  V30 2571 C 251.854 -1.56769 -2.7091 0
M  V30 2572 C 252.329 -2.49688 -3.83953 0
M  V30 2573 N 253.82 -2.47845 -3.91314 0
M  V30 2574 C 254.555 -3.16437 -4.78179 0
M  V30 2575 N 254.051 -3.94376 -5.69596 0
M  V30 2576 N 255.844 -3.05498 -4.71834 0
M  V30 2577 H 247.995 -1.85866 -1.02798 0
M  V30 2578 H 250.258 -0.797506 -0.512531 0
M  V30 2579 H 249.964 -2.59671 -2.372 0
M  V30 2580 H 249.838 -1.29551 -3.54255 0
M  V30 2581 H 252.225 -0.538745 -2.90141 0
M  V30 2582 H 252.306 -1.87305 -1.74214 0
M  V30 2583 H 251.95 -3.52688 -3.65477 0
M  V30 2584 H 251.88 -2.16453 -4.80058 0
M  V30 2585 H 254.371 -1.91234 -3.25941 0
M  V30 2586 H 254.684 -4.43721 -6.32718 0
M  V30 2587 H 253.029 -3.98481 -5.69419 0
M  V30 2588 H 256.22 -2.44108 -3.99411 0
M  V30 2589 H 256.393 -3.59225 -5.39316 0
M  V30 2590 N 249.799 1.42003 -0.683588 0
M  V30 2591 C 251.21 1.84501 -0.285736 0
M  V30 2592 C 251.561 1.57213 1.17382 0
M  V30 2593 O 250.686 1.03642 1.89966 0
M  V30 2594 C 251.281 3.34912 -0.511821 0
M  V30 2595 C 249.84 3.76025 -0.168005 0
M  V30 2596 C 248.987 2.6551 -0.799983 0
M  V30 2597 H 251.938 1.31724 -0.885119 0
M  V30 2598 H 251.959 3.79784 0.233292 0
M  V30 2599 H 251.471 3.54741 -1.57418 0
M  V30 2600 H 249.572 3.61801 0.890567 0
M  V30 2601 H 249.685 4.75141 -0.614661 0
M  V30 2602 H 248.049 2.53654 -0.230568 0
M  V30 2603 H 248.832 2.8816 -1.86597 0
M  V30 2604 N 251.277 0.427512 1.51691 0
M  V30 2605 C 252.523 -0.142439 2.02299 0
M  V30 2606 C 252.856 -1.43214 1.31162 0
M  V30 2607 O 252.131 -1.89833 0.423511 0
M  V30 2608 C 252.414 -0.371301 3.58181 0
M  V30 2609 C 252.267 0.936358 4.39946 0
M  V30 2610 C 253.586 -1.14542 4.24933 0
M  V30 2611 H 250.705 -0.0502937 0.735282 0
M  V30 2612 H 253.347 0.564584 1.81418 0
M  V30 2613 H 251.497 -0.973559 3.76104 0
M  V30 2614 H 253.169 1.57184 4.33694 0
M  V30 2615 H 251.412 1.5432 4.05423 0
M  V30 2616 H 252.083 0.730388 5.47147 0
M  V30 2617 H 254.559 -0.635362 4.11221 0
M  V30 2618 H 253.435 -1.27431 5.33903 0
M  V30 2619 H 253.696 -2.17093 3.85127 0
M  V30 2620 N 252.755 -1.56801 0.158532 0
M  V30 2621 C 253.685 -2.20347 -0.772609 0
M  V30 2622 C 254.666 -1.15518 -1.24859 0
M  V30 2623 O 255.851 -1.43902 -1.30406 0
M  V30 2624 C 252.981 -2.83417 -2.00729 0
M  V30 2625 C 251.935 -3.94174 -1.66765 0
M  V30 2626 C 251.261 -4.44233 -2.97592 0
M  V30 2627 C 252.561 -5.14392 -0.905447 0
M  V30 2628 H 254.255 -2.98413 -0.242959 0
M  V30 2629 H 251.801 -1.43537 -0.115419 0
M  V30 2630 H 253.754 -3.26543 -2.6636 0
M  V30 2631 H 252.478 -2.02701 -2.56086 0
M  V30 2632 H 251.137 -3.51684 -1.03508 0
M  V30 2633 H 250.785 -3.60325 -3.50963 0
M  V30 2634 H 250.485 -5.18945 -2.75626 0
M  V30 2635 H 252.009 -4.90037 -3.64274 0
M  V30 2636 H 253.423 -5.5429 -1.46408 0
M  V30 2637 H 251.82 -5.9494 -0.7853 0
M  V30 2638 H 252.89 -4.84795 0.100668 0
M  V30 2639 N 254.233 0.115231 -1.57178 0
M  V30 2640 C 255.48 0.822351 -1.8505 0
M  V30 2641 C 255.808 1.79701 -0.744168 0
M  V30 2642 O 255.063 1.93909 0.26414 0
M  V30 2643 C 255.362 1.60324 -3.19423 0
M  V30 2644 C 255.028 0.772536 -4.44233 0
M  V30 2645 C 253.69 0.543468 -4.78121 0
M  V30 2646 C 256.042 0.193746 -5.2084 0
M  V30 2647 C 253.37 -0.274583 -5.86057 0
M  V30 2648 C 255.722 -0.611517 -6.29637 0
M  V30 2649 C 254.386 -0.850867 -6.62055 0
M  V30 2650 H 253.656 0.30092 -0.677147 0
M  V30 2651 H 256.303 0.0845802 -1.91313 0
M  V30 2652 H 254.608 2.41203 -3.08753 0
M  V30 2653 H 256.305 2.1544 -3.38211 0
M  V30 2654 H 252.895 0.96117 -4.17683 0
M  V30 2655 H 257.079 0.357926 -4.95008 0
M  V30 2656 H 252.335 -0.469206 -6.09597 0
M  V30 2657 H 256.509 -1.06697 -6.88178 0
M  V30 2658 H 254.136 -1.48657 -7.45523 0
M  V30 2659 N 255.711 1.52812 0.385517 0
M  V30 2660 C 256.643 1.74096 1.49074 0
M  V30 2661 C 257.656 0.621462 1.50472 0
M  V30 2662 O 258.845 0.897245 1.54311 0
M  V30 2663 C 255.945 1.78774 2.87911 0
M  V30 2664 C 255.118 3.08134 3.10439 0
M  V30 2665 C 254.177 3.04313 4.29278 0
M  V30 2666 O 253.203 3.78168 4.25415 0
M  V30 2667 N 254.405 2.23741 5.35649 0
M  V30 2668 H 257.17 2.69455 1.31202 0
M  V30 2669 H 254.731 1.51343 0.575065 0
M  V30 2670 H 256.723 1.73721 3.65518 0
M  V30 2671 H 255.293 0.907869 2.99126 0
M  V30 2672 H 254.513 3.26649 2.20667 0
M  V30 2673 H 255.801 3.93662 3.22347 0
M  V30 2674 H 255.199 1.63211 5.41645 0
M  V30 2675 H 253.756 2.24524 6.11909 0
M  V30 2676 N 257.189 -0.644168 1.43834 0
M  V30 2677 C 258.099 -1.78563 1.52159 0
M  V30 2678 C 259.115 -1.69147 0.408069 0
M  V30 2679 O 260.291 -1.90156 0.663524 0
M  V30 2680 C 257.356 -3.14888 1.45073 0
M  V30 2681 C 256.417 -3.36034 2.6717 0
M  V30 2682 C 255.65 -4.65855 2.60413 0
M  V30 2683 O 255.873 -5.45805 1.65689 0
M  V30 2684 O 254.807 -4.88918 3.5106 0
M  V30 2685 H 258.633 -1.74494 2.48567 0
M  V30 2686 H 256.218 -0.80378 1.25935 0
M  V30 2687 H 258.1 -3.96179 1.43597 0
M  V30 2688 H 256.775 -3.19528 0.518037 0
M  V30 2689 H 255.682 -2.54472 2.74217 0
M  V30 2690 H 257.015 -3.36247 3.59442 0
M  V30 2691 N 258.668 -1.30515 -0.883378 0
M  V30 2692 C 259.898 -1.22182 -1.66599 0
M  V30 2693 C 260.306 0.217507 -1.87946 0
M  V30 2694 O 259.649 1.1554 -1.42815 0
M  V30 2695 C 259.711 -1.88146 -3.06335 0
M  V30 2696 C 259.375 -3.37476 -3.08154 0
M  V30 2697 C 260.372 -4.33443 -2.87094 0
M  V30 2698 C 258.057 -3.7895 -3.29701 0
M  V30 2699 C 260.051 -5.68858 -2.8754 0
M  V30 2700 C 257.738 -5.14482 -3.29776 0
M  V30 2701 C 258.736 -6.09246 -3.0872 0
M  V30 2702 O 258.424 -7.42302 -3.08615 0
M  V30 2703 H 258.156 -0.423898 -0.52658 0
M  V30 2704 H 260.71 -1.72703 -1.11188 0
M  V30 2705 H 258.94 -1.32157 -3.63416 0
M  V30 2706 H 260.629 -1.7391 -3.66756 0
M  V30 2707 H 261.395 -4.02733 -2.70243 0
M  V30 2708 H 257.274 -3.05631 -3.45124 0
M  V30 2709 H 260.818 -6.428 -2.71024 0
M  V30 2710 H 256.715 -5.44832 -3.46163 0
M  V30 2711 H 257.483 -7.5131 -3.24769 0
M  V30 2712 N 260.146 1.09593 -1.13257 0
M  V30 2713 C 261.076 2.18214 -0.830946 0
M  V30 2714 C 262.057 1.68812 0.208966 0
M  V30 2715 O 263.242 1.9408 0.0682666 0
M  V30 2716 C 260.372 3.46051 -0.294296 0
M  V30 2717 C 259.326 4.08778 -1.26826 0
M  V30 2718 C 258.652 5.31419 -0.591449 0
M  V30 2719 C 259.952 4.51476 -2.62615 0
M  V30 2720 H 261.646 2.43703 -1.73923 0
M  V30 2721 H 259.192 1.17128 -0.837675 0
M  V30 2722 H 261.145 4.2134 -0.0709606 0
M  V30 2723 H 259.869 3.20079 0.649366 0
M  V30 2724 H 258.528 3.35505 -1.47756 0
M  V30 2725 H 258.176 5.01727 0.357633 0
M  V30 2726 H 257.876 5.74341 -1.24123 0
M  V30 2727 H 259.4 6.09433 -0.377355 0
M  V30 2728 H 260.814 5.17999 -2.45663 0
M  V30 2729 H 259.211 5.05277 -3.23752 0
M  V30 2730 H 260.281 3.63962 -3.20406 0
M  V30 2731 N 261.624 0.925811 1.2754 0
M  V30 2732 C 262.901 0.483726 1.89524 0
M  V30 2733 C 263.281 -1.03809 1.83812 0
M  V30 2734 O 262.629 -1.89143 1.28207 0
M  V30 2735 C 262.839 1.02769 3.33526 0
M  V30 2736 C 264.187 1.08703 4.10449 0
M  V30 2737 O 265.211 0.977175 3.42534 0
M  V30 2738 O 264.07 1.25599 5.31871 0
M  V30 2739 H 261.164 0.15529 0.812289 0
M  V30 2740 H 263.71 1.01738 1.35822 0
M  V30 2741 H 262.482 2.07155 3.31967 0
M  V30 2742 H 262.105 0.475567 3.94746 0
M  V30 2743 N 263.102 -1.41638 0.69111 0
M  V30 2744 C 264.351 -2.00526 0.217318 0
M  V30 2745 C 264.664 -1.55353 -1.18848 0
M  V30 2746 O 265.87 -2.06769 -1.75951 0
M  V30 2747 C 264.326 -3.58313 0.337639 0
M  V30 2748 C 263.934 -4.12469 1.74852 0
M  V30 2749 C 265.678 -4.24431 -0.0766066 0
M  V30 2750 C 263.585 -5.62675 1.82074 0
M  V30 2751 H 262.515 -0.750008 0.0774893 0
M  V30 2752 H 265.166 -1.6217 0.858661 0
M  V30 2753 H 263.548 -3.9425 -0.371879 0
M  V30 2754 H 264.722 -3.8796 2.48644 0
M  V30 2755 H 263.037 -3.58861 2.11205 0
M  V30 2756 H 265.634 -5.34683 -0.0430284 0
M  V30 2757 H 265.977 -4.01101 -1.1146 0
M  V30 2758 H 266.51 -3.93512 0.582476 0
M  V30 2759 H 263.249 -5.90826 2.83911 0
M  V30 2760 H 262.769 -5.89124 1.12661 0
M  V30 2761 H 264.448 -6.27371 1.58159 0
M  V30 2762 N 264.58 -0.43555 -1.51462 0
M  V30 2763 C 265.857 0.191364 -1.94662 0
M  V30 2764 C 266.237 1.60254 -1.37411 0
M  V30 2765 O 265.585 2.2152 -0.560458 0
M  V30 2766 C 265.795 0.17091 -3.48581 0
M  V30 2767 C 267.143 0.377357 -4.2292 0
M  V30 2768 O 268.167 0.249104 -3.55328 0
M  V30 2769 O 267.026 0.63247 -5.42828 0
M  V30 2770 H 264.12 0.130932 -0.816569 0
M  V30 2771 H 266.666 -0.4934 -1.62369 0
M  V30 2772 H 265.438 -0.815738 -3.82703 0
M  V30 2773 H 265.061 0.898659 -3.87311 0
M  V30 2774 N 266.058 1.56714 -0.166846 0
M  V30 2775 C 266.99 2.14914 0.796537 0
M  V30 2776 C 268.003 1.10357 1.19688 0
M  V30 2777 O 269.192 1.37561 1.13751 0
M  V30 2778 C 266.292 2.67326 2.08303 0
M  V30 2779 C 265.465 3.96493 1.84696 0
M  V30 2780 C 264.524 4.34014 2.97521 0
M  V30 2781 O 263.55 5.01973 2.6835 0
M  V30 2782 N 264.752 3.95208 4.25196 0
M  V30 2783 H 267.517 2.98205 0.299006 0
M  V30 2784 H 265.078 1.61892 0.0160839 0
M  V30 2785 H 267.07 2.89428 2.82867 0
M  V30 2786 H 265.64 1.88649 2.4926 0
M  V30 2787 H 264.86 3.82814 0.940602 0
M  V30 2788 H 266.148 4.8086 1.66285 0
M  V30 2789 H 265.546 3.40487 4.51758 0
M  V30 2790 H 264.103 4.2232 4.96477 0
M  V30 2791 N 267.536 -0.106894 1.57237 0
M  V30 2792 C 268.469 -1.16125 1.96444 0
M  V30 2793 C 269.447 -1.3947 0.835871 0
M  V30 2794 O 270.631 -1.53425 1.09513 0
M  V30 2795 C 267.758 -2.51277 2.27107 0
M  V30 2796 C 266.804 -2.44285 3.4961 0
M  V30 2797 S 267.637 -1.87077 5.01759 0
M  V30 2798 C 268.793 -3.23877 5.35588 0
M  V30 2799 H 269.026 -0.826971 2.85567 0
M  V30 2800 H 266.559 -0.314124 1.51171 0
M  V30 2801 H 268.517 -3.29035 2.45451 0
M  V30 2802 H 267.178 -2.81879 1.38576 0
M  V30 2803 H 266.371 -3.4387 3.68469 0
M  V30 2804 H 265.973 -1.74652 3.30715 0
M  V30 2805 H 268.265 -4.20122 5.31511 0
M  V30 2806 H 269.208 -3.09833 6.36717 0
M  V30 2807 H 269.616 -3.22864 4.63054 0
M  V30 2808 N 269.014 -1.53014 -0.377408 0
M  V30 2809 C 270.263 -1.67845 -1.11853 0
M  V30 2810 C 270.576 -0.430625 -1.90801 0
M  V30 2811 O 271.782 -0.459261 -2.67587 0
M  V30 2812 C 270.238 -2.96668 -2.03756 0
M  V30 2813 C 269.846 -4.28671 -1.30175 0
M  V30 2814 C 271.59 -3.20865 -2.77932 0
M  V30 2815 C 269.497 -5.48591 -2.20911 0
M  V30 2816 H 268.427 -0.625343 -0.421263 0
M  V30 2817 H 271.078 -1.79514 -0.380409 0
M  V30 2818 H 269.46 -2.78773 -2.8125 0
M  V30 2819 H 270.634 -4.57157 -0.578259 0
M  V30 2820 H 268.949 -4.10825 -0.679108 0
M  V30 2821 H 271.546 -4.07642 -3.46024 0
M  V30 2822 H 271.889 -2.36424 -3.4265 0
M  V30 2823 H 272.422 -3.39379 -2.07525 0
M  V30 2824 H 269.161 -6.35474 -1.6079 0
M  V30 2825 H 268.681 -5.244 -2.91144 0
M  V30 2826 H 270.36 -5.8292 -2.80736 0
M  V30 2827 N 270.492 0.636531 -1.44174 0
M  V30 2828 C 271.739 1.39619 -1.46672 0
M  V30 2829 C 272.067 1.94257 -0.0972691 0
M  V30 2830 O 271.322 1.73768 0.900175 0
M  V30 2831 C 271.621 2.58309 -2.47005 0
M  V30 2832 C 271.287 2.21992 -3.92467 0
M  V30 2833 C 269.949 2.118 -4.32081 0
M  V30 2834 C 272.301 1.9321 -4.84065 0
M  V30 2835 C 269.629 1.71007 -5.61225 0
M  V30 2836 C 271.981 1.53911 -6.13591 0
M  V30 2837 C 270.645 1.42257 -6.52165 0
M  V30 2838 H 269.915 0.510902 -0.536712 0
M  V30 2839 H 272.562 0.722328 -1.77355 0
M  V30 2840 H 270.867 3.30903 -2.09786 0
M  V30 2841 H 272.564 3.16533 -2.46186 0
M  V30 2842 H 269.154 2.30841 -3.61124 0
M  V30 2843 H 273.338 1.99997 -4.54219 0
M  V30 2844 H 268.594 1.60583 -5.89935 0
M  V30 2845 H 272.768 1.30677 -6.8403 0
M  V30 2846 H 270.395 1.10419 -7.52138 0
M  V30 2847 N 271.97 1.30982 0.876444 0
M  V30 2848 C 272.918 1.18006 2.00443 0
M  V30 2849 C 273.912 0.0898871 1.69161 0
M  V30 2850 O 275.118 0.251333 1.78237 0
M  V30 2851 H 271.493 0.365196 0.65737 0
M  V30 2852 H 273.464 2.13453 2.0852 0
M  V30 2853 C 272.213 0.897521 3.35916 0
M  V30 2854 H 271.536 1.7285 3.60504 0
M  V30 2855 H 272.976 0.846874 4.15456 0
M  V30 2856 C 271.435 -0.399674 3.34521 0
M  V30 2857 O 271.965 -1.41852 3.7582 0
M  V30 2858 N 270.171 -0.413893 2.87637 0
M  V30 2859 H 269.718 0.41571 2.54224 0
M  V30 2860 H 269.676 -1.28175 2.87086 0
M  V30 2861 N 273.449 -1.08991 1.13837 0
M  V30 2862 C 274.865 -1.33312 0.877506 0
M  V30 2863 C 275.065 -1.95587 -0.48456 0
M  V30 2864 O 274.121 -2.20509 -1.23013 0
M  V30 2865 C 275.434 -2.24045 2.0056 0
M  V30 2866 C 276.982 -2.37542 2.03821 0
M  V30 2867 C 277.457 -3.31614 3.15905 0
M  V30 2868 N 278.948 -3.39189 3.15445 0
M  V30 2869 C 279.683 -4.11992 3.98811 0
M  V30 2870 N 279.179 -4.87553 4.92203 0
M  V30 2871 N 280.972 -4.07762 3.86894 0
M  V30 2872 H 273.123 -0.669456 2.01574 0
M  V30 2873 H 275.386 -0.357482 0.878015 0
M  V30 2874 H 275.092 -1.85521 2.98789 0
M  V30 2875 H 274.966 -3.24466 1.92359 0
M  V30 2876 H 277.353 -2.75327 1.06202 0
M  V30 2877 H 277.434 -1.36884 2.16093 0
M  V30 2878 H 277.078 -2.94551 4.13766 0
M  V30 2879 H 277.008 -4.32186 3.0087 0
M  V30 2880 H 279.499 -2.85314 2.47799 0
M  V30 2881 H 279.812 -5.40549 5.52292 0
M  V30 2882 H 278.157 -4.86627 4.96205 0
M  V30 2883 H 281.348 -3.47833 3.13257 0
M  V30 2884 H 281.521 -4.64238 4.52092 0
M  V30 2885 N 274.927 -0.932562 -1.27047 0
M  V30 2886 C 275.837 -0.441219 -2.30414 0
M  V30 2887 C 276.853 0.480525 -1.67233 0
M  V30 2888 O 278.029 0.362151 -1.98117 0
M  V30 2889 C 275.094 0.293651 -3.45454 0
M  V30 2890 C 274.155 -0.663601 -4.2414 0
M  V30 2891 C 273.388 0.0362932 -5.33688 0
M  V30 2892 O 273.611 1.2548 -5.56427 0
M  V30 2893 O 272.545 -0.638015 -5.98509 0
M  V30 2894 H 276.371 -1.29962 -2.74488 0
M  V30 2895 H 273.956 -0.6981 -1.32087 0
M  V30 2896 H 275.838 0.707951 -4.15411 0
M  V30 2897 H 274.513 1.12758 -3.03426 0
M  V30 2898 H 273.42 -1.12768 -3.56699 0
M  V30 2899 H 274.753 -1.46489 -4.69896 0
M  V30 2900 N 276.405 1.4127 -0.698611 0
M  V30 2901 C 277.335 2.33447 -0.049629 0
M  V30 2902 C 278.316 1.51982 0.763898 0
M  V30 2903 O 279.501 1.80509 0.716257 0
M  V30 2904 C 276.631 3.35828 0.885267 0
M  V30 2905 C 275.585 4.27627 0.178613 0
M  V30 2906 C 274.911 5.20406 1.22807 0
M  V30 2907 C 276.211 5.13459 -0.956933 0
M  V30 2908 H 277.905 2.87966 -0.81951 0
M  V30 2909 H 275.451 1.38461 -0.395538 0
M  V30 2910 H 277.404 3.9924 1.34854 0
M  V30 2911 H 276.128 2.79666 1.68685 0
M  V30 2912 H 274.787 3.65643 -0.26466 0
M  V30 2913 H 274.435 4.60558 2.02226 0
M  V30 2914 H 274.135 5.82661 0.760239 0
M  V30 2915 H 275.659 5.86695 1.69179 0
M  V30 2916 H 277.073 5.70421 -0.573805 0
M  V30 2917 H 275.47 5.8467 -1.35205 0
M  V30 2918 H 276.54 4.50443 -1.79524 0
M  V30 2919 N 277.883 0.443576 1.51229 0
M  V30 2920 C 279.294 -0.0180867 1.86691 0
M  V30 2921 C 279.645 -1.41384 1.36033 0
M  V30 2922 O 278.77 -2.04291 0.713722 0
M  V30 2923 C 279.365 -0.039597 3.38777 0
M  V30 2924 C 277.924 -0.445692 3.73752 0
M  V30 2925 C 277.071 0.357584 2.74985 0
M  V30 2926 H 280.022 0.659138 1.44364 0
M  V30 2927 H 280.043 -0.847761 3.70936 0
M  V30 2928 H 279.555 0.976382 3.75617 0
M  V30 2929 H 277.656 -1.46704 3.42503 0
M  V30 2930 H 277.769 -0.166155 4.78812 0
M  V30 2931 H 276.133 -0.184973 2.54027 0
M  V30 2932 H 276.916 1.37256 3.14668 0
M  V30 2933 N 279.361 -1.56624 0.175154 0
M  V30 2934 C 280.293 -2.15333 -0.785128 0
M  V30 2935 C 281.306 -1.1099 -1.19101 0
M  V30 2936 O 282.495 -1.38162 -1.13019 0
M  V30 2937 C 279.595 -2.68427 -2.06882 0
M  V30 2938 C 278.768 -3.97466 -1.8259 0
M  V30 2939 C 277.827 -4.35585 -2.95215 0
M  V30 2940 O 276.853 -5.03389 -2.65684 0
M  V30 2941 N 278.055 -3.97457 -4.23094 0
M  V30 2942 H 280.82 -2.98359 -0.283187 0
M  V30 2943 H 278.381 -1.61898 -0.00749817 0
M  V30 2944 H 280.373 -2.90924 -2.81328 0
M  V30 2945 H 278.943 -1.89968 -2.48256 0
M  V30 2946 H 278.163 -3.83307 -0.920287 0
M  V30 2947 H 279.451 -4.81736 -1.63733 0
M  V30 2948 H 278.849 -3.42878 -4.49945 0
M  V30 2949 H 277.406 -4.24947 -4.9423 0
M  V30 2950 N 280.839 0.0985539 -1.57292 0
M  V30 2951 C 281.802 1.10402 -2.00858 0
M  V30 2952 C 282.802 1.33146 -0.901593 0
M  V30 2953 O 283.992 1.29318 -1.16716 0
M  V30 2954 C 281.124 2.45394 -2.36632 0
M  V30 2955 H 282.317 0.729099 -2.90902 0
M  V30 2956 H 279.87 0.343495 -1.52479 0
M  V30 2957 H 280.605 2.87769 -1.49531 0
M  V30 2958 H 280.39 2.30235 -3.17387 0
M  V30 2959 H 281.88 3.17718 -2.71007 0
M  V30 2960 N 282.317 1.53212 0.369288 0
M  V30 2961 C 283.542 1.73423 1.1375 0
M  V30 2962 C 283.967 0.460404 1.82378 0
M  V30 2963 O 283.325 -0.585298 1.71592 0
M  V30 2964 C 283.373 2.89769 2.1463 0
M  V30 2965 O 282.477 2.58119 3.21634 0
M  V30 2966 H 281.818 0.576061 0.330227 0
M  V30 2967 H 284.348 2.00083 0.427547 0
M  V30 2968 H 284.358 3.15829 2.58294 0
M  V30 2969 H 283.033 3.8217 1.64071 0
M  V30 2970 H 281.61 2.42864 2.82969 0
M  V30 2971 N 283.795 -0.628877 1.44509 0
M  V30 2972 C 285.043 -1.38565 1.4712 0
M  V30 2973 C 285.364 -1.94712 0.105899 0
M  V30 2974 O 284.634 -1.75912 -0.862079 0
M  V30 2975 H 283.214 -0.514333 0.541729 0
M  V30 2976 H 285.876 -0.740018 1.80305 0
M  V30 2977 H 284.972 -2.21583 2.19789 0
M  V30 2978 N 285.273 -1.31445 -0.869486 0
M  V30 2979 C 286.203 -1.21727 -1.99261 0
M  V30 2980 C 287.184 -0.104359 -1.6978 0
M  V30 2981 O 288.369 -0.289038 -1.92037 0
M  V30 2982 C 285.499 -0.924317 -3.34774 0
M  V30 2983 C 284.453 -1.99685 -3.78563 0
M  V30 2984 C 283.779 -1.55658 -5.11541 0
M  V30 2985 C 285.079 -3.41003 -3.95619 0
M  V30 2986 H 286.773 -2.1569 -2.07649 0
M  V30 2987 H 284.319 -1.03839 -0.997675 0
M  V30 2988 H 286.272 -0.842934 -4.12883 0
M  V30 2989 H 284.996 0.0509793 -3.2656 0
M  V30 2990 H 283.655 -2.06813 -3.02694 0
M  V30 2991 H 283.303 -0.569132 -4.9977 0
M  V30 2992 H 283.003 -2.27409 -5.41811 0
M  V30 2993 H 284.527 -1.48928 -5.92159 0
M  V30 2994 H 285.941 -3.36547 -4.64122 0
M  V30 2995 H 284.338 -4.10975 -4.37286 0
M  V30 2996 H 285.408 -3.81754 -2.98985 0
M  V30 2997 N 286.751 1.08385 -1.14413 0
M  V30 2998 C 287.681 2.17321 -0.854044 0
M  V30 2999 C 288.662 1.69024 0.191049 0
M  V30 3000 O 289.847 1.94141 0.0476779 0
M  V30 3001 C 286.977 3.45719 -0.330983 0
M  V30 3002 C 285.931 4.07409 -1.31155 0
M  V30 3003 C 285.257 5.30762 -0.64778 0
M  V30 3004 C 286.557 4.48665 -2.67388 0
M  V30 3005 H 288.251 2.41845 -1.76498 0
M  V30 3006 H 285.797 1.16233 -0.850051 0
M  V30 3007 H 287.75 4.21241 -0.115645 0
M  V30 3008 H 286.474 3.2075 0.615381 0
M  V30 3009 H 285.133 3.33919 -1.51306 0
M  V30 3010 H 284.781 5.02078 0.304398 0
M  V30 3011 H 284.481 5.72992 -1.30207 0
M  V30 3012 H 286.005 6.08998 -0.441972 0
M  V30 3013 H 287.419 5.15364 -2.51143 0
M  V30 3014 H 285.816 5.01814 -3.29093 0
M  V30 3015 H 286.886 3.60543 -3.24248 0
M  V30 3016 N 288.23 0.939286 1.26551 0
M  V30 3017 C 289.18 0.418284 2.2413 0
M  V30 3018 C 290.164 -0.483935 1.5345 0
M  V30 3019 O 291.356 -0.319489 1.74093 0
M  V30 3020 C 288.485 -0.31709 3.41832 0
M  V30 3021 C 287.571 0.602311 4.19801 0
M  V30 3022 N 287.962 1.72726 4.75394 0
M  V30 3023 C 286.26 0.407534 4.44134 0
M  V30 3024 C 286.961 2.30004 5.34297 0
M  V30 3025 N 285.937 1.58828 5.1988 0
M  V30 3026 H 289.739 1.27705 2.64705 0
M  V30 3027 H 287.253 0.794929 1.41614 0
M  V30 3028 H 289.25 -0.707364 4.10855 0
M  V30 3029 H 287.91 -1.17264 3.02786 0
M  V30 3030 H 288.921 2.10944 4.72994 0
M  V30 3031 H 285.598 -0.406406 4.15517 0
M  V30 3032 H 286.988 3.24778 5.88191 0
M  V30 3033 N 289.708 -1.40897 0.706093 0
M  V30 3034 C 290.658 -2.27987 0.0240746 0
M  V30 3035 C 291.642 -1.42759 -0.742204 0
M  V30 3036 O 292.834 -1.65936 -0.615966 0
M  V30 3037 C 289.963 -3.31186 -0.903907 0
M  V30 3038 C 289.049 -4.2389 -0.133318 0
M  V30 3039 N 289.44 -4.98113 0.878444 0
M  V30 3040 C 287.738 -4.44485 -0.367269 0
M  V30 3041 C 288.439 -5.6604 1.34064 0
M  V30 3042 N 287.415 -5.39522 0.664565 0
M  V30 3043 H 291.217 -2.82812 0.799658 0
M  V30 3044 H 288.731 -1.53235 0.537845 0
M  V30 3045 H 290.728 -3.92413 -1.40775 0
M  V30 3046 H 289.388 -2.77922 -1.67897 0
M  V30 3047 H 290.399 -5.02364 1.25901 0
M  V30 3048 H 287.076 -4.02213 -1.1194 0
M  V30 3049 H 288.466 -6.35524 2.1808 0
M  V30 3050 N 291.186 -0.45159 -1.50991 0
M  V30 3051 C 292.426 0.109066 -2.04109 0
M  V30 3052 C 292.79 1.38716 -1.32747 0
M  V30 3053 O 293.991 2.02896 -1.76314 0
M  V30 3054 C 292.262 0.308354 -3.56067 0
M  V30 3055 S 293.821 0.830369 -4.30872 0
M  V30 3056 H 290.639 0.0251531 -0.710555 0
M  V30 3057 H 293.241 -0.614264 -1.85599 0
M  V30 3058 H 291.945 -0.627962 -4.05567 0
M  V30 3059 H 291.476 1.05836 -3.78896 0
M  V30 3060 H 293.491 2.10626 -4.49279 0
M  V30 3061 N 292.664 1.56529 -0.183458 0
M  V30 3062 C 293.904 1.99141 0.460667 0
M  V30 3063 C 294.268 1.06736 1.59597 0
M  V30 3064 O 295.469 1.38538 2.30349 0
M  V30 3065 C 293.74 3.45358 0.919939 0
M  V30 3066 S 295.299 4.09999 1.56354 0
M  V30 3067 H 292.117 0.695479 0.147748 0
M  V30 3068 H 294.719 1.93429 -0.283782 0
M  V30 3069 H 293.423 4.10315 0.0834208 0
M  V30 3070 H 292.954 3.54862 1.69814 0
M  V30 3071 H 294.969 4.06046 2.85203 0
M  V30 3072 N 294.142 -0.090211 1.57342 0
M  V30 3073 C 295.389 -0.792807 1.86335 0
M  V30 3074 C 295.717 -1.78494 0.772662 0
M  V30 3075 O 294.972 -1.94305 -0.233258 0
M  V30 3076 C 295.271 -1.55222 3.21933 0
M  V30 3077 C 294.937 -0.701765 4.45406 0
M  V30 3078 C 293.599 -0.467334 4.78925 0
M  V30 3079 C 295.951 -0.11086 5.21082 0
M  V30 3080 C 293.279 0.367785 5.85546 0
M  V30 3081 C 295.631 0.711609 6.28585 0
M  V30 3082 C 294.295 0.956086 6.60617 0
M  V30 3083 H 293.565 -0.290109 0.681849 0
M  V30 3084 H 296.212 -0.0541332 1.91423 0
M  V30 3085 H 294.517 -2.3626 3.12551 0
M  V30 3086 H 296.214 -2.10032 3.41595 0
M  V30 3087 H 292.804 -0.894598 4.1916 0
M  V30 3088 H 296.988 -0.279129 4.95514 0
M  V30 3089 H 292.244 0.566128 6.08773 0
M  V30 3090 H 296.418 1.17632 6.86393 0
M  V30 3091 H 294.045 1.60499 7.43064 0
M  V30 3092 N 295.62 -1.53406 -0.361157 0
M  V30 3093 C 296.85 -1.73465 -1.1222 0
M  V30 3094 C 297.258 -0.465486 -1.83384 0
M  V30 3095 O 296.601 0.571611 -1.7458 0
M  V30 3096 C 296.663 -2.84834 -2.19339 0
M  V30 3097 C 296.327 -4.25038 -1.67903 0
M  V30 3098 C 297.324 -5.07231 -1.14074 0
M  V30 3099 C 295.009 -4.71464 -1.73282 0
M  V30 3100 C 297.003 -6.33942 -0.663068 0
M  V30 3101 C 294.69 -5.98153 -1.25127 0
M  V30 3102 C 295.688 -6.79223 -0.717296 0
M  V30 3103 O 295.376 -8.03533 -0.242865 0
M  V30 3104 H 295.108 -0.583526 -0.341283 0
M  V30 3105 H 297.662 -2.00964 -0.424591 0
M  V30 3106 H 295.892 -2.5282 -2.92607 0
M  V30 3107 H 297.581 -2.9303 -2.80871 0
M  V30 3108 H 298.347 -4.72534 -1.09254 0
M  V30 3109 H 294.226 -4.08432 -2.13786 0
M  V30 3110 H 297.77 -6.97167 -0.245612 0
M  V30 3111 H 293.667 -6.32347 -1.29642 0
M  V30 3112 H 294.435 -8.177 -0.361786 0
M  V30 3113 N 297.098 0.621204 -1.44841 0
M  V30 3114 C 298.045 1.73267 -1.5247 0
M  V30 3115 C 299.015 1.6189 -0.371611 0
M  V30 3116 O 300.2 1.81668 -0.58321 0
M  V30 3117 C 297.34 3.11545 -1.48438 0
M  V30 3118 C 296.453 3.33827 -2.74196 0
M  V30 3119 C 295.588 4.62133 -2.61929 0
M  V30 3120 C 294.627 4.77627 -3.82804 0
M  V30 3121 N 293.764 5.97219 -3.69153 0
M  V30 3122 H 298.604 1.66082 -2.47428 0
M  V30 3123 H 296.141 0.810026 -1.22788 0
M  V30 3124 H 298.099 3.91528 -1.4409 0
M  V30 3125 H 296.729 3.1772 -0.570402 0
M  V30 3126 H 295.781 2.47715 -2.88689 0
M  V30 3127 H 297.093 3.41153 -3.6389 0
M  V30 3128 H 296.247 5.50291 -2.5547 0
M  V30 3129 H 294.986 4.57182 -1.69811 0
M  V30 3130 H 293.991 3.87896 -3.89637 0
M  V30 3131 H 295.216 4.84385 -4.75971 0
M  V30 3132 H 293.162 5.93339 -2.79794 0
M  V30 3133 H 293.079 6.05644 -4.52472 0
M  V30 3134 H 294.347 6.87912 -3.66603 0
M  V30 3135 N 298.576 1.31904 0.862503 0
M  V30 3136 C 299.526 1.16772 1.95827 0
M  V30 3137 C 300.51 0.0767098 1.60717 0
M  V30 3138 O 301.702 0.302407 1.74398 0
M  V30 3139 C 298.831 0.884858 3.317 0
M  V30 3140 C 297.917 2.0172 3.73055 0
M  V30 3141 N 298.308 3.265 3.86305 0
M  V30 3142 C 296.606 1.91861 4.02623 0
M  V30 3143 C 297.307 4.00616 4.2176 0
M  V30 3144 N 296.283 3.28847 4.32852 0
M  V30 3145 H 300.085 2.11382 2.04193 0
M  V30 3146 H 297.599 1.2357 1.05377 0
M  V30 3147 H 299.596 0.757419 4.09962 0
M  V30 3148 H 298.256 -0.0529448 3.24657 0
M  V30 3149 H 299.267 3.61529 3.70833 0
M  V30 3150 H 295.944 1.05593 4.03926 0
M  V30 3151 H 297.334 5.08182 4.39546 0
M  V30 3152 N 300.054 -1.07777 1.14986 0
M  V30 3153 C 301.47 -1.32373 0.891596 0
M  V30 3154 C 301.67 -1.9609 -0.463788 0
M  V30 3155 O 300.726 -2.21801 -1.20667 0
M  V30 3156 C 302.039 -2.21905 2.02925 0
M  V30 3157 C 303.587 -2.35367 2.06329 0
M  V30 3158 C 304.062 -3.28245 3.19405 0
M  V30 3159 N 305.553 -3.35824 3.19024 0
M  V30 3160 C 306.288 -4.07739 4.03158 0
M  V30 3161 N 305.784 -4.82306 4.97346 0
M  V30 3162 N 307.577 -4.03635 3.91197 0
M  V30 3163 H 299.728 -0.648039 2.02273 0
M  V30 3164 H 301.991 -0.348149 0.881757 0
M  V30 3165 H 301.697 -1.82342 3.0074 0
M  V30 3166 H 301.571 -3.22407 1.95789 0
M  V30 3167 H 303.958 -2.74186 1.09116 0
M  V30 3168 H 304.039 -1.34585 2.17533 0
M  V30 3169 H 303.683 -2.90146 4.16867 0
M  V30 3170 H 303.613 -4.28971 3.05437 0
M  V30 3171 H 306.104 -2.8267 2.50811 0
M  V30 3172 H 306.417 -5.34661 5.57994 0
M  V30 3173 H 304.762 -4.81337 5.01338 0
M  V30 3174 H 307.953 -3.44491 3.16928 0
M  V30 3175 H 308.126 -4.59417 4.5699 0
M  V30 3176 N 301.532 -0.945985 -1.26051 0
M  V30 3177 C 302.78 -0.594941 -1.93145 0
M  V30 3178 C 303.101 0.86953 -1.7454 0
M  V30 3179 O 302.371 1.61838 -1.10387 0
M  V30 3180 H 300.951 -0.217044 -0.714773 0
M  V30 3181 H 303.613 -1.20235 -1.53393 0
M  V30 3182 H 302.709 -0.816835 -3.01221 0
M  V30 3183 N 303.011 1.40521 -0.713556 0
M  V30 3184 C 304.427 1.54839 -0.386907 0
M  V30 3185 C 304.627 1.68532 1.1045 0
M  V30 3186 O 303.683 1.67377 1.89053 0
M  V30 3187 C 304.996 2.77792 -1.15118 0
M  V30 3188 C 306.544 2.91607 -1.13729 0
M  V30 3189 C 307.019 4.1747 -1.88368 0
M  V30 3190 N 308.51 4.24466 -1.85427 0
M  V30 3191 C 309.245 5.20755 -2.40004 0
M  V30 3192 N 308.741 6.22965 -3.03129 0
M  V30 3193 N 310.534 5.1282 -2.30158 0
M  V30 3194 H 302.685 1.29879 -1.68063 0
M  V30 3195 H 304.948 0.627896 -0.710247 0
M  V30 3196 H 304.654 2.73944 -2.20561 0
M  V30 3197 H 304.528 3.6984 -0.741477 0
M  V30 3198 H 306.915 2.94959 -0.0910608 0
M  V30 3199 H 306.996 2.00682 -1.5862 0
M  V30 3200 H 306.64 4.1488 -2.9298 0
M  V30 3201 H 306.57 5.074 -1.40898 0
M  V30 3202 H 309.061 3.51241 -1.3942 0
M  V30 3203 H 309.374 6.92859 -3.42295 0
M  V30 3204 H 307.719 6.23415 -3.07212 0
M  V30 3205 H 310.91 4.31899 -1.80501 0
M  V30 3206 H 311.083 5.87689 -2.72993 0
M  V30 3207 N 304.489 0.459591 1.5075 0
M  V30 3208 C 305.437 -0.354678 2.2988 0
M  V30 3209 C 306.431 -1.00086 1.36672 0
M  V30 3210 O 307.637 -0.933277 1.53915 0
M  V30 3211 H 304.012 -0.13321 0.740107 0
M  V30 3212 H 305.983 0.333269 2.96533 0
M  V30 3213 C 304.732 -1.43073 3.169 0
M  V30 3214 H 304.055 -0.942882 3.88523 0
M  V30 3215 H 305.495 -1.97328 3.75284 0
M  V30 3216 C 303.954 -2.42633 2.33732 0
M  V30 3217 O 304.484 -3.47658 2.01238 0
M  V30 3218 N 302.69 -2.14066 1.9653 0
M  V30 3219 H 302.237 -1.28685 2.23155 0
M  V30 3220 H 302.195 -2.80917 1.41185 0
M  V30 3221 N 305.967 -1.56429 0.191757 0
M  V30 3222 C 306.897 -2.21937 -0.725696 0
M  V30 3223 C 307.878 -1.1814 -1.2238 0
M  V30 3224 O 309.063 -1.46636 -1.27325 0
M  V30 3225 C 306.193 -2.87611 -1.94672 0
M  V30 3226 C 305.147 -3.97623 -1.58366 0
M  V30 3227 C 304.473 -4.50446 -2.88102 0
M  V30 3228 C 305.773 -5.16197 -0.796133 0
M  V30 3229 H 307.467 -2.98861 -0.179606 0
M  V30 3230 H 305.013 -1.43749 -0.0849464 0
M  V30 3231 H 306.966 -3.3212 -2.59373 0
M  V30 3232 H 305.69 -2.08087 -2.51728 0
M  V30 3233 H 304.349 -3.53801 -0.960247 0
M  V30 3234 H 303.997 -3.67688 -3.43241 0
M  V30 3235 H 303.697 -5.24675 -2.64556 0
M  V30 3236 H 305.221 -4.97654 -3.53798 0
M  V30 3237 H 306.635 -5.57271 -1.34618 0
M  V30 3238 H 305.032 -5.96471 -0.658928 0
M  V30 3239 H 306.102 -4.84473 0.203478 0
M  V30 3240 N 307.445 0.0818655 -1.57387 0
M  V30 3241 C 308.691 0.784074 -1.8703 0
M  V30 3242 C 309.024 1.77729 -0.782689 0
M  V30 3243 O 308.299 1.93384 0.208051 0
M  V30 3244 C 308.582 1.50105 -3.27323 0
M  V30 3245 C 308.435 0.524925 -4.46727 0
M  V30 3246 C 309.754 2.44843 -3.65705 0
M  V30 3247 H 306.873 0.283582 -0.680257 0
M  V30 3248 H 309.515 0.0474352 -1.89941 0
M  V30 3249 H 307.665 2.12897 -3.24972 0
M  V30 3250 H 309.337 -0.0970111 -4.61198 0
M  V30 3251 H 307.58 -0.160606 -4.33503 0
M  V30 3252 H 308.251 1.064 -5.41648 0
M  V30 3253 H 310.727 1.92135 -3.69085 0
M  V30 3254 H 309.603 2.92018 -4.64776 0
M  V30 3255 H 309.864 3.29197 -2.95096 0
M  V30 3256 N 308.923 1.53595 0.353017 0
M  V30 3257 C 310.151 1.74311 1.1146 0
M  V30 3258 C 310.566 0.477854 1.82653 0
M  V30 3259 O 309.923 -0.549977 1.74016 0
M  V30 3260 C 309.974 2.91694 2.13534 0
M  V30 3261 O 309.695 4.13325 1.45238 0
M  V30 3262 C 311.196 3.24384 3.02142 0
M  V30 3263 H 308.416 0.582669 0.332773 0
M  V30 3264 H 310.96 2.00386 0.408107 0
M  V30 3265 H 309.115 2.67977 2.79763 0
M  V30 3266 H 309.529 4.79148 2.13349 0
M  V30 3267 H 311.003 4.09893 3.69718 0
M  V30 3268 H 311.48 2.40282 3.67643 0
M  V30 3269 H 312.086 3.50073 2.41514 0
M  V30 3270 N 310.401 -0.613514 1.45168 0
M  V30 3271 C 311.334 -1.73809 1.47871 0
M  V30 3272 C 312.312 -1.59097 0.33568 0
M  V30 3273 O 313.496 -1.8074 0.535299 0
M  V30 3274 C 310.623 -3.11574 1.32813 0
M  V30 3275 C 309.669 -3.4489 2.50905 0
M  V30 3276 S 310.502 -3.40393 4.13392 0
M  V30 3277 C 311.658 -4.80749 4.00789 0
M  V30 3278 H 311.891 -1.71252 2.43023 0
M  V30 3279 H 309.424 -0.789658 1.32679 0
M  V30 3280 H 311.382 -3.91065 1.24812 0
M  V30 3281 H 310.043 -3.11652 0.391418 0
M  V30 3282 H 309.236 -4.45183 2.36279 0
M  V30 3283 H 308.838 -2.72901 2.55736 0
M  V30 3284 H 311.13 -5.7041 3.65567 0
M  V30 3285 H 312.073 -5.00431 5.00974 0
M  V30 3286 H 312.481 -4.56151 3.32545 0
M  V30 3287 N 311.879 -1.3236 -0.855495 0
M  V30 3288 C 313.107 -1.2587 -1.64208 0
M  V30 3289 C 313.522 0.173457 -1.88002 0
M  V30 3290 O 312.879 1.11027 -1.44842 0
M  V30 3291 C 312.93 -2.01424 -3.00184 0
M  V30 3292 O 312.651 -3.39051 -2.77445 0
M  V30 3293 C 314.152 -2.01948 -3.94629 0
M  V30 3294 H 311.372 -0.434318 -0.511477 0
M  V30 3295 H 313.916 -1.74469 -1.0668 0
M  V30 3296 H 312.071 -1.56549 -3.5436 0
M  V30 3297 H 312.485 -3.77711 -3.63916 0
M  V30 3298 H 313.959 -2.59297 -4.87308 0
M  V30 3299 H 314.436 -1.00554 -4.27534 0
M  V30 3300 H 315.042 -2.46767 -3.4639 0
M  V30 3301 N 313.357 1.07166 -1.15556 0
M  V30 3302 C 314.585 1.83514 -0.955519 0
M  V30 3303 C 315 1.82163 0.49621 0
M  V30 3304 O 314.357 1.23441 1.34419 0
M  V30 3305 C 314.408 3.30515 -1.46432 0
M  V30 3306 O 314.129 3.31937 -2.85918 0
M  V30 3307 C 315.63 4.23625 -1.30603 0
M  V30 3308 H 312.85 0.578926 -0.339244 0
M  V30 3309 H 315.394 1.35265 -1.53374 0
M  V30 3310 H 313.549 3.76106 -0.928584 0
M  V30 3311 H 313.963 4.23794 -3.09029 0
M  V30 3312 H 315.437 5.24831 -1.71047 0
M  V30 3313 H 315.914 4.38485 -0.250441 0
M  V30 3314 H 316.52 3.83871 -1.83094 0
M  V30 3315 N 314.835 0.952656 1.25548 0
M  V30 3316 C 315.798 0.475794 2.24207 0
M  V30 3317 C 316.798 -0.419428 1.55234 0
M  V30 3318 O 317.988 -0.216994 1.72843 0
M  V30 3319 C 315.12 -0.312814 3.39462 0
M  V30 3320 H 316.313 1.34779 2.67908 0
M  V30 3321 H 313.866 0.735739 1.37901 0
M  V30 3322 H 314.601 -1.20257 3.01179 0
M  V30 3323 H 314.386 0.329404 3.90714 0
M  V30 3324 H 315.876 -0.635986 4.12729 0
M  V30 3325 N 316.313 -1.40141 0.720998 0
M  V30 3326 C 317.724 -1.83678 0.334553 0
M  V30 3327 C 318.075 -1.6027 -1.13173 0
M  V30 3328 O 317.2 -1.08643 -1.87152 0
M  V30 3329 C 317.795 -3.33437 0.600437 0
M  V30 3330 C 316.354 -3.75447 0.267642 0
M  V30 3331 C 315.501 -2.63296 0.870097 0
M  V30 3332 H 318.452 -1.29331 0.919732 0
M  V30 3333 H 318.473 -3.80269 -0.132517 0
M  V30 3334 H 317.985 -3.50442 1.66768 0
M  V30 3335 H 316.086 -3.64035 -0.794329 0
M  V30 3336 H 316.199 -4.73344 0.74042 0
M  V30 3337 H 314.563 -2.52954 0.297739 0
M  V30 3338 H 315.346 -2.83112 1.94172 0
M  V30 3339 N 317.792 -0.46758 -1.50504 0
M  V30 3340 C 319.208 -0.121533 -1.59137 0
M  V30 3341 C 319.408 1.3717 -1.47603 0
M  V30 3342 O 318.464 2.14464 -1.33272 0
M  V30 3343 C 319.777 -0.6686 -2.93173 0
M  V30 3344 C 321.325 -0.631716 -3.06559 0
M  V30 3345 C 321.8 -1.15627 -4.43164 0
M  V30 3346 N 323.291 -1.11553 -4.49567 0
M  V30 3347 C 324.026 -1.49195 -5.5365 0
M  V30 3348 N 323.522 -1.94269 -6.65005 0
M  V30 3349 N 325.315 -1.4082 -5.44175 0
M  V30 3350 H 317.466 -1.4388 -1.56245 0
M  V30 3351 H 319.729 -0.594784 -0.738198 0
M  V30 3352 H 319.435 -1.71453 -3.07078 0
M  V30 3353 H 319.309 -0.11021 -3.77039 0
M  V30 3354 H 321.696 0.405297 -2.92304 0
M  V30 3355 H 321.777 -1.22687 -2.24458 0
M  V30 3356 H 321.421 -2.1919 -4.58168 0
M  V30 3357 H 321.351 -0.537365 -5.23851 0
M  V30 3358 H 323.842 -0.784895 -3.69659 0
M  V30 3359 H 324.155 -2.21148 -7.40482 0
M  V30 3360 H 322.5 -1.98219 -6.66134 0
M  V30 3361 H 325.691 -1.0545 -4.56068 0
M  V30 3362 H 325.864 -1.70481 -6.25172 0
M  V30 3363 N 319.27 1.56325 -0.20005 0
M  V30 3364 C 320.518 1.97329 0.436547 0
M  V30 3365 C 320.839 1.08826 1.61808 0
M  V30 3366 O 320.109 0.160604 1.95241 0
M  V30 3367 H 318.689 0.728714 0.164272 0
M  V30 3368 H 321.351 1.92761 -0.287937 0
M  V30 3369 H 320.447 3.02264 0.777353 0
M  V30 3370 N 320.748 -0.0735177 1.57428 0
M  V30 3371 C 321.678 -1.0879 2.06608 0
M  V30 3372 C 322.659 -1.40473 0.959237 0
M  V30 3373 O 323.844 -1.5013 1.23185 0
M  V30 3374 C 320.974 -2.40183 2.50857 0
M  V30 3375 C 319.928 -2.22858 3.65402 0
M  V30 3376 C 319.254 -3.59619 3.957 0
M  V30 3377 C 320.554 -1.65123 4.95511 0
M  V30 3378 H 322.248 -0.678673 2.91607 0
M  V30 3379 H 319.794 -0.325013 1.40284 0
M  V30 3380 H 321.747 -3.11437 2.83874 0
M  V30 3381 H 320.471 -2.83083 1.62885 0
M  V30 3382 H 319.13 -1.54045 3.32664 0
M  V30 3383 H 318.778 -4.00086 3.04861 0
M  V30 3384 H 318.478 -3.48866 4.72828 0
M  V30 3385 H 320.002 -4.32306 4.31212 0
M  V30 3386 H 321.416 -2.26241 5.26771 0
M  V30 3387 H 319.813 -1.65071 5.7695 0
M  V30 3388 H 320.883 -0.612559 4.81015 0
M  V30 3389 N 322.226 -1.5378 -0.344866 0
M  V30 3390 C 323.158 -1.77988 -1.44406 0
M  V30 3391 C 324.171 -0.661138 -1.48771 0
M  V30 3392 O 325.36 -0.937842 -1.51877 0
M  V30 3393 C 322.46 -1.86345 -2.8307 0
M  V30 3394 C 321.633 -3.16256 -3.0216 0
M  V30 3395 C 320.692 -3.15588 -4.21059 0
M  V30 3396 O 319.718 -3.89314 -4.15239 0
M  V30 3397 N 320.92 -2.37864 -5.29529 0
M  V30 3398 H 323.685 -2.72839 -1.24012 0
M  V30 3399 H 321.246 -1.52814 -0.534737 0
M  V30 3400 H 323.238 -1.83351 -3.60783 0
M  V30 3401 H 321.808 -0.986858 -2.96614 0
M  V30 3402 H 321.028 -3.32385 -2.11929 0
M  V30 3403 H 322.316 -4.0207 -3.11797 0
M  V30 3404 H 321.714 -1.77514 -5.37127 0
M  V30 3405 H 320.271 -2.40668 -6.05741 0
M  V30 3406 N 323.704 0.605807 -1.45491 0
M  V30 3407 C 324.929 1.39625 -1.53361 0
M  V30 3408 C 325.354 1.87351 -0.167645 0
M  V30 3409 O 324.712 1.60243 0.848051 0
M  V30 3410 C 324.76 2.57559 -2.5238 0
M  V30 3411 O 323.864 3.58248 -2.04285 0
M  V30 3412 H 323.205 0.416771 -0.516912 0
M  V30 3413 H 325.735 0.737103 -1.90861 0
M  V30 3414 H 325.745 3.0478 -2.71244 0
M  V30 3415 H 324.42 2.22171 -3.51586 0
M  V30 3416 H 322.997 3.17664 -1.95305 0
M  V30 3417 N 325.182 1.32811 0.848464 0
M  V30 3418 C 326.43 1.23479 1.59991 0
M  V30 3419 C 326.751 -0.201853 1.93952 0
M  V30 3420 O 326.021 -1.12818 1.60153 0
M  V30 3421 H 324.601 0.454034 0.593179 0
M  V30 3422 H 327.263 1.66412 1.01455 0
M  V30 3423 H 326.359 1.82178 2.53412 0
M  V30 3424 N 326.66 -1.06551 1.16123 0
M  V30 3425 C 327.937 -1.76097 0.85142 0
M  V30 3426 C 328.317 -2.00802 -0.6513 0
M  V30 3427 O 327.665 -1.63302 -1.59827 0
M  V30 3428 C 327.875 -3.06384 1.67122 0
M  V30 3429 C 329.223 -3.80585 1.88255 0
M  V30 3430 O 330.247 -3.16218 1.63966 0
M  V30 3431 O 329.106 -4.96212 2.2899 0
M  V30 3432 H 326.2 -0.765102 0.313923 0
M  V30 3433 H 328.746 -1.12844 1.26745 0
M  V30 3434 H 327.518 -2.84071 2.69108 0
M  V30 3435 H 327.141 -3.77371 1.25206 0
M  V30 3436 N 328.138 -0.959301 -1.25041 0
M  V30 3437 C 329.554 -0.664474 -1.4511 0
M  V30 3438 C 329.754 0.776481 -1.85938 0
M  V30 3439 O 328.81 1.55128 -1.99227 0
M  V30 3440 C 330.123 -1.64139 -2.5195 0
M  V30 3441 C 331.671 -1.65309 -2.65786 0
M  V30 3442 C 332.146 -2.61777 -3.75815 0
M  V30 3443 N 333.637 -2.60169 -3.83231 0
M  V30 3444 C 334.372 -3.31489 -4.6787 0
M  V30 3445 N 333.868 -4.12298 -5.56761 0
M  V30 3446 N 335.661 -3.20354 -4.61876 0
M  V30 3447 H 327.812 -1.89043 -0.968332 0
M  V30 3448 H 330.075 -0.813408 -0.4869 0
M  V30 3449 H 329.781 -2.67086 -2.28819 0
M  V30 3450 H 329.655 -1.40756 -3.49954 0
M  V30 3451 H 332.042 -0.630778 -2.8828 0
M  V30 3452 H 332.123 -1.92753 -1.68167 0
M  V30 3453 H 331.767 -3.64137 -3.54071 0
M  V30 3454 H 331.697 -2.31616 -4.72929 0
M  V30 3455 H 334.188 -2.01507 -3.19692 0
M  V30 3456 H 334.501 -4.63625 -6.18281 0
M  V30 3457 H 332.846 -4.16395 -5.56454 0
M  V30 3458 H 336.037 -2.56692 -3.91442 0
M  V30 3459 H 336.21 -3.76201 -5.27614 0
M  V30 3460 N 329.616 1.39756 -0.72842 0
M  V30 3461 C 330.579 2.29012 -0.0927297 0
M  V30 3462 C 331.579 1.45992 0.674025 0
M  V30 3463 O 332.769 1.66749 0.50402 0
M  V30 3464 C 329.901 3.29396 0.878137 0
M  V30 3465 H 331.094 2.86729 -0.879011 0
M  V30 3466 H 328.647 1.48293 -0.493847 0
M  V30 3467 H 329.382 2.76722 1.69101 0
M  V30 3468 H 329.167 3.907 0.331051 0
M  V30 3469 H 330.657 3.96199 1.3197 0
M  V30 3470 N 331.094 0.475555 1.50254 0
M  V30 3471 C 332.322 -0.0754493 2.06762 0
M  V30 3472 C 332.737 -1.33111 1.33891 0
M  V30 3473 O 332.094 -1.77846 0.40952 0
M  V30 3474 C 332.145 -0.359008 3.59713 0
M  V30 3475 O 331.866 0.846851 4.29837 0
M  V30 3476 C 333.367 -0.956484 4.32858 0
M  V30 3477 H 330.587 0.00907525 0.670939 0
M  V30 3478 H 333.131 0.665618 1.93364 0
M  V30 3479 H 331.286 -1.05001 3.72899 0
M  V30 3480 H 331.7 0.594162 5.21124 0
M  V30 3481 H 333.174 -1.10463 5.40834 0
M  V30 3482 H 333.651 -1.94775 3.93649 0
M  V30 3483 H 334.257 -0.303723 4.24214 0
M  V30 3484 N 332.573 -1.56217 0.208337 0
M  V30 3485 C 333.819 -1.98998 -0.42086 0
M  V30 3486 C 334.174 -1.09331 -1.58317 0
M  V30 3487 O 333.467 -0.140466 -1.91084 0
M  V30 3488 C 333.661 -3.45441 -0.916797 0
M  V30 3489 C 333.49 -4.49273 0.195925 0
M  V30 3490 C 332.26 -5.00998 0.657956 0
M  V30 3491 C 334.458 -5.04294 1.00956 0
M  V30 3492 N 332.44 -5.88514 1.74712 0
M  V30 3493 C 333.811 -5.88607 1.94785 0
M  V30 3494 C 335.866 -4.86692 1.05049 0
M  V30 3495 C 334.569 -6.572 2.9237 0
M  V30 3496 C 336.595 -5.56034 2.01446 0
M  V30 3497 C 335.957 -6.40105 2.94016 0
M  V30 3498 H 332.056 -0.772574 -0.121048 0
M  V30 3499 H 334.64 -1.92101 0.317075 0
M  V30 3500 H 332.811 -3.52812 -1.62413 0
M  V30 3501 H 334.543 -3.75164 -1.51771 0
M  V30 3502 H 331.298 -4.72945 0.248912 0
M  V30 3503 H 331.722 -6.36975 2.2933 0
M  V30 3504 H 336.364 -4.21359 0.348759 0
M  V30 3505 H 334.082 -7.21723 3.63512 0
M  V30 3506 H 337.668 -5.44385 2.0527 0
M  V30 3507 H 336.548 -6.92816 3.6739 0
M  V30 3508 N 334.051 0.0651679 -1.57465 0
M  V30 3509 C 335.298 0.763063 -1.87573 0
M  V30 3510 C 335.626 1.77242 -0.800961 0
M  V30 3511 O 334.881 1.94651 0.202316 0
M  V30 3512 C 335.18 1.50081 -3.24362 0
M  V30 3513 C 334.846 0.630816 -4.46466 0
M  V30 3514 C 333.508 0.391082 -4.79608 0
M  V30 3515 C 335.86 0.0279465 -5.21193 0
M  V30 3516 C 333.188 -0.460894 -5.84887 0
M  V30 3517 C 335.54 -0.811522 -6.27373 0
M  V30 3518 C 334.204 -1.06106 -6.59013 0
M  V30 3519 H 333.474 0.279224 -0.686378 0
M  V30 3520 H 336.121 0.0236726 -1.91485 0
M  V30 3521 H 334.426 2.31258 -3.16271 0
M  V30 3522 H 336.123 2.04571 -3.44894 0
M  V30 3523 H 332.713 0.8278 -4.2053 0
M  V30 3524 H 336.897 0.200262 -4.95896 0
M  V30 3525 H 332.153 -0.662907 -6.07796 0
M  V30 3526 H 336.327 -1.28537 -6.84435 0
M  V30 3527 H 333.954 -1.723 -7.40417 0
M  V30 3528 N 335.529 1.53961 0.336706 0
M  V30 3529 C 336.777 1.71197 1.07405 0
M  V30 3530 C 337.098 0.481475 1.88962 0
M  V30 3531 O 336.368 -0.504585 1.8929 0
M  V30 3532 H 334.948 0.631185 0.399517 0
M  V30 3533 H 337.61 1.91232 0.376323 0
M  V30 3534 H 336.706 2.58587 1.74755 0
M  V30 3535 N 337.007 -0.598083 1.45811 0
M  V30 3536 C 337.937 -1.71873 1.58057 0
M  V30 3537 C 338.918 -1.64533 0.431615 0
M  V30 3538 O 340.103 -1.82787 0.65595 0
M  V30 3539 C 337.233 -3.10495 1.55597 0
M  V30 3540 C 336.187 -3.32654 2.69305 0
M  V30 3541 C 335.513 -4.71646 2.51902 0
M  V30 3542 C 336.813 -3.21981 4.11248 0
M  V30 3543 H 338.507 -1.61881 2.51863 0
M  V30 3544 H 336.053 -0.777372 1.21214 0
M  V30 3545 H 338.006 -3.88699 1.6276 0
M  V30 3546 H 336.73 -3.2135 0.583255 0
M  V30 3547 H 335.389 -2.56843 2.61586 0
M  V30 3548 H 335.037 -4.79246 1.52748 0
M  V30 3549 H 334.737 -4.87426 3.2816 0
M  V30 3550 H 336.261 -5.52038 2.60933 0
M  V30 3551 H 337.675 -3.90049 4.20161 0
M  V30 3552 H 336.072 -3.49289 4.87972 0
M  V30 3553 H 337.142 -2.1928 4.32486 0
M  V30 3554 N 338.485 -1.33259 -0.841409 0
M  V30 3555 C 339.715 -1.2742 -1.62628 0
M  V30 3556 C 340.123 0.157604 -1.88542 0
M  V30 3557 O 339.466 1.10938 -1.46419 0
M  V30 3558 C 339.528 -1.97797 -3.00194 0
M  V30 3559 C 339.192 -3.47109 -2.97261 0
M  V30 3560 C 340.189 -4.42358 -2.73159 0
M  V30 3561 C 337.874 -3.89247 -3.17478 0
M  V30 3562 C 339.868 -5.77718 -2.69296 0
M  V30 3563 C 337.555 -5.24713 -3.13241 0
M  V30 3564 C 338.553 -6.1876 -2.89181 0
M  V30 3565 O 338.241 -7.51745 -2.84843 0
M  V30 3566 H 337.973 -0.440436 -0.512827 0
M  V30 3567 H 340.527 -1.76153 -1.05638 0
M  V30 3568 H 338.757 -1.43652 -3.59028 0
M  V30 3569 H 340.446 -1.8549 -3.61038 0
M  V30 3570 H 341.212 -4.11127 -2.57294 0
M  V30 3571 H 337.091 -3.16456 -3.35226 0
M  V30 3572 H 340.635 -6.51097 -2.50436 0
M  V30 3573 H 336.532 -5.55569 -3.28654 0
M  V30 3574 H 337.3 -7.61262 -3.00702 0
M  V30 3575 N 339.963 1.05934 -1.16686 0
M  V30 3576 C 341.193 1.82226 -0.973515 0
M  V30 3577 C 341.601 1.8297 0.481532 0
M  V30 3578 O 340.944 1.25009 1.34604 0
M  V30 3579 C 341.006 3.29897 -1.42858 0
M  V30 3580 C 340.67 3.52849 -2.90425 0
M  V30 3581 C 341.667 3.45595 -3.88407 0
M  V30 3582 C 339.352 3.80053 -3.28428 0
M  V30 3583 C 341.346 3.65217 -5.22394 0
M  V30 3584 C 339.033 3.99325 -4.62583 0
M  V30 3585 C 340.031 3.91905 -5.59374 0
M  V30 3586 O 339.719 4.10647 -6.91104 0
M  V30 3587 H 339.451 0.581314 -0.345036 0
M  V30 3588 H 342.005 1.3453 -1.55212 0
M  V30 3589 H 340.235 3.78472 -0.793477 0
M  V30 3590 H 341.924 3.87692 -1.20207 0
M  V30 3591 H 342.69 3.24564 -3.60393 0
M  V30 3592 H 338.569 3.84936 -2.53664 0
M  V30 3593 H 342.113 3.59341 -5.9793 0
M  V30 3594 H 338.01 4.19846 -4.90306 0
M  V30 3595 H 338.778 4.27915 -6.97733 0
M  V30 3596 N 341.441 0.965919 1.2453 0
M  V30 3597 C 342.389 0.486506 2.27455 0
M  V30 3598 C 343.383 -0.449041 1.6334 0
M  V30 3599 O 344.589 -0.324527 1.7705 0
M  V30 3600 H 340.964 0.138857 0.739069 0
M  V30 3601 H 342.935 1.3666 2.65267 0
M  V30 3602 C 341.684 -0.209481 3.47068 0
M  V30 3603 H 341.007 0.50129 3.96645 0
M  V30 3604 H 342.447 -0.508775 4.20936 0
M  V30 3605 C 340.906 -1.43586 3.0477 0
M  V30 3606 O 341.436 -2.53299 3.11773 0
M  V30 3607 N 339.642 -1.30126 2.59838 0
M  V30 3608 H 339.189 -0.408583 2.54339 0
M  V30 3609 H 339.147 -2.12294 2.31902 0
M  V30 3610 N 342.919 -1.39368 0.735821 0
M  V30 3611 C 344.168 -1.99733 0.281004 0
M  V30 3612 C 344.481 -1.59055 -1.13846 0
M  V30 3613 O 345.687 -2.12262 -1.69284 0
M  V30 3614 C 344.143 -3.57057 0.451462 0
M  V30 3615 C 343.751 -4.06697 1.87886 0
M  V30 3616 C 345.495 -4.2446 0.0584616 0
M  V30 3617 C 343.402 -5.56598 1.99883 0
M  V30 3618 H 342.332 -0.747163 0.101311 0
M  V30 3619 H 344.983 -1.59357 0.909819 0
M  V30 3620 H 343.365 -3.95234 -0.246263 0
M  V30 3621 H 344.539 -3.79853 2.60861 0
M  V30 3622 H 342.854 -3.5196 2.22515 0
M  V30 3623 H 345.451 -5.34549 0.127099 0
M  V30 3624 H 345.794 -4.04444 -0.986433 0
M  V30 3625 H 346.327 -3.9146 0.707374 0
M  V30 3626 H 343.066 -5.81494 3.02564 0
M  V30 3627 H 342.586 -5.85242 1.31346 0
M  V30 3628 H 344.265 -6.22022 1.78039 0
M  V30 3629 N 344.397 -0.483516 -1.5 0
M  V30 3630 C 345.622 0.0667119 -2.07293 0
M  V30 3631 C 346.047 1.3164 -1.3436 0
M  V30 3632 O 345.405 1.76945 -0.394987 0
M  V30 3633 C 345.453 0.321126 -3.59167 0
M  V30 3634 O 344.557 1.39927 -3.87936 0
M  V30 3635 H 343.898 -0.0184758 -0.663743 0
M  V30 3636 H 346.428 -0.678125 -1.93035 0
M  V30 3637 H 346.438 0.557906 -4.04168 0
M  V30 3638 H 345.113 -0.592007 -4.11665 0
M  V30 3639 H 343.69 1.14882 -3.54763 0
M  V30 3640 N 345.875 1.56104 -0.216619 0
M  V30 3641 C 347.123 1.97781 0.415593 0
M  V30 3642 C 347.444 1.10536 1.60645 0
M  V30 3643 O 346.714 0.181303 1.95059 0
M  V30 3644 H 345.294 0.730415 0.156534 0
M  V30 3645 H 347.956 1.92445 -0.308366 0
M  V30 3646 H 347.052 3.03072 0.74525 0
M  V30 3647 N 347.353 -0.0568162 1.57498 0
M  V30 3648 C 348.316 -1.05038 2.03715 0
M  V30 3649 C 349.316 -1.30709 0.936577 0
M  V30 3650 O 350.506 -1.26178 1.20103 0
M  V30 3651 C 347.638 -2.39034 2.43055 0
M  V30 3652 H 348.831 -0.651715 2.92733 0
M  V30 3653 H 346.384 -0.302947 1.53336 0
M  V30 3654 H 347.119 -2.83703 1.57108 0
M  V30 3655 H 346.904 -2.21739 3.2338 0
M  V30 3656 H 348.394 -3.10421 2.79336 0
M  V30 3657 N 348.832 -1.54138 -0.328536 0
M  V30 3658 C 350.08 -1.71765 -1.06496 0
M  V30 3659 C 350.401 -0.49149 -1.88704 0
M  V30 3660 O 349.671 0.494539 -1.89555 0
M  V30 3661 H 348.251 -0.633295 -0.396164 0
M  V30 3662 H 350.913 -1.91429 -0.366176 0
M  V30 3663 H 350.009 -2.5951 -1.73381 0
M  V30 3664 N 350.31 0.590341 -1.46126 0
M  V30 3665 C 351.557 1.34882 -1.5104 0
M  V30 3666 C 351.885 1.93849 -0.159021 0
M  V30 3667 O 351.14 1.76544 0.844436 0
M  V30 3668 C 351.439 2.5032 -2.55097 0
M  V30 3669 C 351.105 2.09394 -3.99331 0
M  V30 3670 C 349.767 1.97947 -4.38601 0
M  V30 3671 C 352.119 1.77712 -4.89967 0
M  V30 3672 C 349.447 1.53065 -5.66381 0
M  V30 3673 C 351.799 1.34312 -6.18177 0
M  V30 3674 C 350.463 1.21436 -6.56361 0
M  V30 3675 H 349.733 0.493568 -0.552695 0
M  V30 3676 H 352.38 0.665539 -1.79563 0
M  V30 3677 H 350.685 3.24062 -2.20207 0
M  V30 3678 H 352.382 3.08541 -2.56132 0
M  V30 3679 H 348.972 2.19235 -3.68285 0
M  V30 3680 H 353.156 1.85445 -4.60352 0
M  V30 3681 H 348.412 1.41733 -5.94745 0
M  V30 3682 H 352.586 1.08849 -6.87841 0
M  V30 3683 H 350.213 0.864345 -7.5527 0
M  V30 3684 N 351.788 1.33704 0.83433 0
M  V30 3685 C 353.035 1.25417 1.58987 0
M  V30 3686 C 353.363 -0.178869 1.93676 0
M  V30 3687 O 352.618 -1.13723 1.59265 0
M  V30 3688 C 352.917 2.07926 2.90692 0
M  V30 3689 C 352.583 3.57066 2.75345 0
M  V30 3690 C 351.245 3.97724 2.70867 0
M  V30 3691 C 353.597 4.51817 2.59828 0
M  V30 3692 C 350.925 5.31344 2.48778 0
M  V30 3693 C 353.277 5.85604 2.39272 0
M  V30 3694 C 351.941 6.25439 2.33199 0
M  V30 3695 H 351.211 0.458934 0.581774 0
M  V30 3696 H 353.858 1.65335 0.966261 0
M  V30 3697 H 352.163 1.608 3.57282 0
M  V30 3698 H 353.86 1.98868 3.48213 0
M  V30 3699 H 350.45 3.24785 2.79665 0
M  V30 3700 H 354.634 4.21311 2.62319 0
M  V30 3701 H 349.89 5.61241 2.42526 0
M  V30 3702 H 354.064 6.58623 2.2625 0
M  V30 3703 H 351.691 7.28914 2.15843 0
M  V30 3704 N 353.266 -1.05314 1.17247 0
M  V30 3705 C 354.196 -2.1498 0.911362 0
M  V30 3706 C 355.177 -1.69471 -0.146169 0
M  V30 3707 O 356.362 -1.942 0.003812 0
M  V30 3708 C 353.492 -3.4472 0.422528 0
M  V30 3709 C 352.446 -4.03789 1.4191 0
M  V30 3710 C 351.772 -5.28858 0.788274 0
M  V30 3711 C 353.072 -4.41418 2.7919 0
M  V30 3712 H 354.766 -2.3708 1.82848 0
M  V30 3713 H 352.312 -1.13938 0.880569 0
M  V30 3714 H 354.265 -4.20787 0.227289 0
M  V30 3715 H 352.989 -3.22269 -0.530123 0
M  V30 3716 H 351.648 -3.2979 1.60106 0
M  V30 3717 H 351.296 -5.02709 -0.171173 0
M  V30 3718 H 350.996 -5.69338 1.45353 0
M  V30 3719 H 352.52 -6.07612 0.603282 0
M  V30 3720 H 353.934 -5.08524 2.64719 0
M  V30 3721 H 352.331 -4.92913 3.42282 0
M  V30 3722 H 353.401 -3.51819 3.33693 0
M  V30 3723 N 354.744 -0.972509 -1.24016 0
M  V30 3724 C 355.694 -0.477561 -2.22942 0
M  V30 3725 C 356.678 0.44308 -1.54679 0
M  V30 3726 O 357.87 0.273219 -1.74879 0
M  V30 3727 C 354.999 0.226348 -3.42553 0
M  V30 3728 C 354.085 -0.713403 -4.18057 0
M  V30 3729 N 354.476 -1.8527 -4.70647 0
M  V30 3730 C 352.774 -0.525145 -4.42898 0
M  V30 3731 C 353.475 -2.44089 -5.28011 0
M  V30 3732 N 352.451 -1.72556 -5.15486 0
M  V30 3733 H 356.253 -1.34678 -2.61226 0
M  V30 3734 H 353.767 -0.832196 -1.39457 0
M  V30 3735 H 355.764 0.598184 -4.12586 0
M  V30 3736 H 354.424 1.09195 -3.05788 0
M  V30 3737 H 355.435 -2.2341 -4.67235 0
M  V30 3738 H 352.112 0.296096 -4.16449 0
M  V30 3739 H 353.502 -3.40259 -5.79374 0
M  V30 3740 N 356.222 1.38976 -0.743202 0
M  V30 3741 C 357.172 2.27843 -0.084513 0
M  V30 3742 C 358.156 1.44677 0.704094 0
M  V30 3743 O 359.348 1.67511 0.571755 0
M  V30 3744 C 356.477 3.33466 0.815781 0
M  V30 3745 C 355.563 4.24095 0.0208844 0
M  V30 3746 N 355.954 4.95609 -1.0102 0
M  V30 3747 C 354.252 4.45303 0.249293 0
M  V30 3748 C 354.953 5.62287 -1.49024 0
M  V30 3749 N 353.929 5.37571 -0.807377 0
M  V30 3750 H 357.731 2.80593 -0.87436 0
M  V30 3751 H 355.245 1.51755 -0.578283 0
M  V30 3752 H 357.242 3.96008 1.30321 0
M  V30 3753 H 355.902 2.82276 1.6047 0
M  V30 3754 H 356.913 4.98849 -1.39176 0
M  V30 3755 H 353.59 4.0504 1.01237 0
M  V30 3756 H 354.98 6.29519 -2.34853 0
M  V30 3757 N 357.7 0.491464 1.49741 0
M  V30 3758 C 358.946 -0.0565092 2.02721 0
M  V30 3759 C 359.279 -1.37522 1.37118 0
M  V30 3760 O 358.554 -1.87866 0.503645 0
M  V30 3761 C 358.837 -0.219051 3.59433 0
M  V30 3762 C 358.69 1.12211 4.35579 0
M  V30 3763 C 360.009 -0.964157 4.29409 0
M  V30 3764 H 357.128 -0.0190627 0.736753 0
M  V30 3765 H 359.77 0.641021 1.7886 0
M  V30 3766 H 357.92 -0.813165 3.79895 0
M  V30 3767 H 359.592 1.75437 4.26637 0
M  V30 3768 H 357.835 1.71377 3.98513 0
M  V30 3769 H 358.506 0.961794 5.43556 0
M  V30 3770 H 360.982 -0.460378 4.13545 0
M  V30 3771 H 359.858 -1.04671 5.38828 0
M  V30 3772 H 360.119 -2.00563 3.93988 0
M  V30 3773 N 359.178 -1.55987 0.224894 0
M  V30 3774 C 360.426 -1.97998 -0.405099 0
M  V30 3775 C 360.747 -1.11387 -1.60056 0
M  V30 3776 O 360.017 -0.191645 -1.9496 0
M  V30 3777 H 358.597 -0.731235 -0.152658 0
M  V30 3778 H 361.259 -1.92279 0.318567 0
M  V30 3779 H 360.355 -3.03463 -0.729167 0
M  V30 3780 N 360.656 0.0484629 -1.57525 0
M  V30 3781 C 361.586 1.0549 -2.08313 0
M  V30 3782 C 362.567 1.38929 -0.981463 0
M  V30 3783 O 363.752 1.48151 -1.25558 0
M  V30 3784 C 360.882 2.36162 -2.54646 0
M  V30 3785 C 359.836 2.17016 -3.68901 0
M  V30 3786 C 359.162 3.53278 -4.01371 0
M  V30 3787 C 360.462 1.57219 -4.98076 0
M  V30 3788 H 362.156 0.632195 -2.92649 0
M  V30 3789 H 359.702 0.302654 -1.40784 0
M  V30 3790 H 361.655 3.06882 -2.88793 0
M  V30 3791 H 360.379 2.80456 -1.67368 0
M  V30 3792 H 359.038 1.48733 -3.35073 0
M  V30 3793 H 358.686 3.95185 -3.11188 0
M  V30 3794 H 358.386 3.41299 -4.78318 0
M  V30 3795 H 359.91 4.25391 -4.38035 0
M  V30 3796 H 361.324 2.17832 -5.30304 0
M  V30 3797 H 359.721 1.55871 -5.79503 0
M  V30 3798 H 360.791 0.535956 -4.81929 0
M  V30 3799 N 362.134 1.5431 0.320358 0
M  V30 3800 C 363.044 1.86946 1.41734 0
M  V30 3801 C 364.06 0.761689 1.56443 0
M  V30 3802 O 365.236 1.05629 1.71477 0
M  V30 3803 C 362.301 2.09293 2.76401 0
M  V30 3804 C 361.362 3.33082 2.70841 0
M  V30 3805 C 360.595 3.54353 3.99086 0
M  V30 3806 O 360.818 2.79002 4.97508 0
M  V30 3807 O 359.752 4.47838 4.0215 0
M  V30 3808 H 363.578 2.80232 1.17062 0
M  V30 3809 H 361.163 1.40255 0.514673 0
M  V30 3810 H 363.045 2.25303 3.56113 0
M  V30 3811 H 361.72 1.19194 3.00956 0
M  V30 3812 H 360.627 3.22454 1.89668 0
M  V30 3813 H 361.96 4.23249 2.5124 0
M  V30 3814 N 363.613 -0.582584 1.46437 0
M  V30 3815 C 364.543 -1.70187 1.59871 0
M  V30 3816 C 365.524 -1.64066 0.449042 0
M  V30 3817 O 366.709 -1.82081 0.6753 0
M  V30 3818 C 363.839 -3.08827 1.58881 0
M  V30 3819 C 362.793 -3.29779 2.72819 0
M  V30 3820 C 362.119 -4.68947 2.5689 0
M  V30 3821 C 363.419 -3.17601 4.1464 0
M  V30 3822 H 365.113 -1.592 2.53566 0
M  V30 3823 H 362.659 -0.764472 1.22032 0
M  V30 3824 H 364.612 -3.86951 1.66873 0
M  V30 3825 H 363.336 -3.20713 0.617306 0
M  V30 3826 H 361.995 -2.54054 2.64296 0
M  V30 3827 H 361.643 -4.77599 1.57823 0
M  V30 3828 H 361.343 -4.83919 3.33312 0
M  V30 3829 H 362.867 -5.4924 2.66773 0
M  V30 3830 H 364.281 -3.8557 4.24274 0
M  V30 3831 H 362.678 -3.44094 4.9165 0
M  V30 3832 H 363.748 -2.14681 4.34788 0
M  V30 3833 N 365.091 -1.34144 -0.827227 0
M  V30 3834 C 366.021 -1.28005 -1.95287 0
M  V30 3835 C 367.002 -0.158321 -1.69362 0
M  V30 3836 O 368.187 -0.349987 -1.9102 0
M  V30 3837 C 365.317 -1.03036 -3.31664 0
M  V30 3838 C 364.271 -2.11628 -3.72019 0
M  V30 3839 C 363.597 -1.71854 -5.0633 0
M  V30 3840 C 364.897 -3.53417 -3.8457 0
M  V30 3841 H 366.591 -2.22187 -2.00682 0
M  V30 3842 H 364.137 -1.0696 -0.964135 0
M  V30 3843 H 366.09 -0.973863 -4.09993 0
M  V30 3844 H 364.814 -0.0529391 -3.26557 0
M  V30 3845 H 363.473 -2.16339 -2.95961 0
M  V30 3846 H 363.121 -0.727841 -4.97706 0
M  V30 3847 H 362.821 -2.44531 -5.34302 0
M  V30 3848 H 364.345 -1.67692 -5.87122 0
M  V30 3849 H 365.759 -3.51142 -4.5318 0
M  V30 3850 H 364.156 -4.24679 -4.2399 0
M  V30 3851 H 365.226 -3.91072 -2.86689 0
M  V30 3852 N 366.569 1.04691 -1.17803 0
M  V30 3853 C 367.815 1.78045 -0.970969 0
M  V30 3854 C 368.148 1.87686 0.498751 0
M  V30 3855 O 367.423 1.38035 1.37027 0
M  V30 3856 C 367.706 3.2166 -1.61884 0
M  V30 3857 C 367.559 3.20001 -3.161 0
M  V30 3858 C 368.878 4.1962 -1.3269 0
M  V30 3859 H 365.997 0.64633 -0.354155 0
M  V30 3860 H 368.639 1.22333 -1.45378 0
M  V30 3861 H 366.789 3.69232 -1.20831 0
M  V30 3862 H 368.461 2.80467 -3.66246 0
M  V30 3863 H 366.704 2.58203 -3.48588 0
M  V30 3864 H 367.375 4.21386 -3.56564 0
M  V30 3865 H 369.851 3.80567 -1.68249 0
M  V30 3866 H 368.727 5.18339 -1.80599 0
M  V30 3867 H 368.988 4.414 -0.248622 0
M  V30 3868 N 368.047 0.979072 1.23499 0
M  V30 3869 C 368.995 0.510604 2.26926 0
M  V30 3870 C 369.989 -0.431691 1.63807 0
M  V30 3871 O 371.195 -0.30573 1.77385 0
M  V30 3872 H 367.57 0.146688 0.737554 0
M  V30 3873 H 369.541 1.39466 2.63803 0
M  V30 3874 C 368.29 -0.172658 3.47271 0
M  V30 3875 H 367.613 0.543331 3.96091 0
M  V30 3876 H 369.053 -0.464101 4.21452 0
M  V30 3877 C 367.512 -1.40345 3.06276 0
M  V30 3878 O 368.042 -2.49978 3.14442 0
M  V30 3879 N 366.248 -1.27362 2.61203 0
M  V30 3880 H 365.795 -0.381584 2.54758 0
M  V30 3881 H 365.753 -2.09822 2.34141 0
M  V30 3882 N 369.525 -1.3858 0.750561 0
M  V30 3883 C 370.475 -2.27795 0.0965949 0
M  V30 3884 C 371.459 -1.45048 -0.696411 0
M  V30 3885 O 372.651 -1.67812 -0.562863 0
M  V30 3886 C 369.78 -3.33894 -0.798085 0
M  V30 3887 C 368.866 -4.241 0.0016067 0
M  V30 3888 N 369.257 -4.95067 1.03647 0
M  V30 3889 C 367.555 -4.45429 -0.225674 0
M  V30 3890 C 368.256 -5.61489 1.52004 0
M  V30 3891 N 367.232 -5.37135 0.835874 0
M  V30 3892 H 371.034 -2.80125 0.889228 0
M  V30 3893 H 368.548 -1.51446 0.586323 0
M  V30 3894 H 370.545 -3.96693 -1.28219 0
M  V30 3895 H 369.205 -2.83123 -1.5897 0
M  V30 3896 H 370.216 -4.98104 1.41819 0
M  V30 3897 H 366.893 -4.05571 -0.990872 0
M  V30 3898 H 368.283 -6.28264 2.38188 0
M  V30 3899 N 371.003 -0.499398 -1.49478 0
M  V30 3900 C 371.95 0.279881 -2.29097 0
M  V30 3901 C 372.92 0.961805 -1.3542 0
M  V30 3902 O 374.105 0.968777 -1.64376 0
M  V30 3903 C 371.245 1.33932 -3.18051 0
M  V30 3904 C 370.358 0.669333 -4.26783 0
M  V30 3905 C 369.493 1.70907 -5.02955 0
M  V30 3906 C 368.532 1.02087 -6.03527 0
M  V30 3907 N 367.669 2.00474 -6.7287 0
M  V30 3908 H 372.509 -0.405317 -2.95231 0
M  V30 3909 H 370.046 -0.211726 -1.45568 0
M  V30 3910 H 372.004 1.96553 -3.67998 0
M  V30 3911 H 370.634 1.9933 -2.53904 0
M  V30 3912 H 369.686 -0.0701234 -3.80335 0
M  V30 3913 H 370.998 0.127503 -4.98637 0
M  V30 3914 H 370.152 2.41037 -5.56764 0
M  V30 3915 H 368.891 2.28476 -4.30871 0
M  V30 3916 H 367.896 0.305338 -5.48951 0
M  V30 3917 H 369.121 0.451708 -6.77596 0
M  V30 3918 H 367.067 2.57007 -6.03559 0
M  V30 3919 H 366.984 1.51353 -7.40694 0
M  V30 3920 H 368.252 2.69897 -7.31284 0
M  V30 3921 N 372.481 1.55866 -0.233164 0
M  V30 3922 C 373.444 2.1953 0.658715 0
M  V30 3923 C 374.444 1.16053 1.11303 0
M  V30 3924 O 375.634 1.41218 1.01996 0
M  V30 3925 C 372.766 2.82791 1.90373 0
M  V30 3926 H 373.959 2.99721 0.10347 0
M  V30 3927 H 371.512 1.56291 0.0164245 0
M  V30 3928 H 372.247 2.06501 2.50056 0
M  V30 3929 H 372.032 3.58578 1.58632 0
M  V30 3930 H 373.522 3.31556 2.53891 0
M  V30 3931 N 373.959 -0.0401083 1.57549 0
M  V30 3932 C 374.889 -1.04384 2.08869 0
M  V30 3933 C 375.87 -1.38407 0.988817 0
M  V30 3934 O 377.055 -1.47483 1.26342 0
M  V30 3935 C 374.185 -2.34808 2.55895 0
M  V30 3936 C 373.139 -2.15057 3.70047 0
M  V30 3937 C 372.465 -3.51145 4.03239 0
M  V30 3938 C 373.765 -1.54576 4.98902 0
M  V30 3939 H 375.459 -0.616666 2.92981 0
M  V30 3940 H 373.005 -0.295184 1.40942 0
M  V30 3941 H 374.958 -3.05346 2.90417 0
M  V30 3942 H 373.682 -2.79565 1.68853 0
M  V30 3943 H 372.341 -1.46954 3.35857 0
M  V30 3944 H 371.989 -3.93529 3.13279 0
M  V30 3945 H 371.689 -3.38758 4.80122 0
M  V30 3946 H 373.213 -4.23062 4.40285 0
M  V30 3947 H 374.627 -2.15017 5.31451 0
M  V30 3948 H 373.024 -1.52796 5.80322 0
M  V30 3949 H 374.094 -0.51039 4.82206 0
M  V30 3950 N 375.437 -1.54477 -0.31217 0
M  V30 3951 C 376.714 -1.63891 -1.06767 0
M  V30 3952 C 377.094 -0.480028 -2.0557 0
M  V30 3953 O 376.442 0.524487 -2.22399 0
M  V30 3954 C 376.652 -3.01402 -1.75948 0
M  V30 3955 C 378 -3.57838 -2.28554 0
M  V30 3956 O 379.024 -3.03782 -1.85998 0
M  V30 3957 O 377.883 -4.52462 -3.06497 0
M  V30 3958 H 374.977 -0.664125 -0.492816 0
M  V30 3959 H 377.523 -1.66823 -0.311149 0
M  V30 3960 H 376.295 -3.77187 -1.04144 0
M  V30 3961 H 375.918 -3.02199 -2.58383 0
M  V30 3962 N 376.915 0.57481 -1.46744 0
M  V30 3963 C 378.326 1.15695 -1.46532 0
M  V30 3964 C 378.677 1.95068 -0.210425 0
M  V30 3965 O 377.802 2.05241 0.685944 0
M  V30 3966 C 378.397 2.1048 -2.65487 0
M  V30 3967 C 376.956 2.64002 -2.68291 0
M  V30 3968 C 376.103 1.40026 -2.39349 0
M  V30 3969 H 379.054 0.362325 -1.54509 0
M  V30 3970 H 379.075 2.94074 -2.41455 0
M  V30 3971 H 378.587 1.52683 -3.56805 0
M  V30 3972 H 376.688 3.25646 -1.81067 0
M  V30 3973 H 376.801 3.06197 -3.68483 0
M  V30 3974 H 375.165 1.70106 -1.89568 0
M  V30 3975 H 375.948 0.840485 -3.32852 0
M  V30 3976 N 378.394 1.34581 0.820102 0
M  V30 3977 C 379.357 1.2628 1.91275 0
M  V30 3978 C 380.357 0.177344 1.59819 0
M  V30 3979 O 381.547 0.430156 1.68806 0
M  V30 3980 C 378.679 0.950327 3.27386 0
M  V30 3981 H 379.872 2.23421 2.00057 0
M  V30 3982 H 377.425 1.1891 1.0144 0
M  V30 3983 H 378.16 -0.0177938 3.24295 0
M  V30 3984 H 377.945 1.73549 3.51601 0
M  V30 3985 H 379.435 0.917492 4.07396 0
M  V30 3986 N 379.872 -1.04064 1.18357 0
M  V30 3987 C 381.288 -1.2947 0.933258 0
M  V30 3988 C 381.488 -1.97466 -0.401169 0
M  V30 3989 O 380.544 -2.25528 -1.13549 0
M  V30 3990 C 381.857 -2.15337 2.09882 0
M  V30 3991 C 383.405 -2.28683 2.13712 0
M  V30 3992 C 383.88 -3.17917 3.29686 0
M  V30 3993 N 385.371 -3.25504 3.29547 0
M  V30 3994 C 386.106 -3.94706 4.15926 0
M  V30 3995 N 385.602 -4.66239 5.12439 0
M  V30 3996 N 387.395 -3.90986 4.0384 0
M  V30 3997 H 379.546 -0.583359 2.04232 0
M  V30 3998 H 381.809 -0.319921 0.892387 0
M  V30 3999 H 381.515 -1.72682 3.06389 0
M  V30 4000 H 381.389 -3.16015 2.05947 0
M  V30 4001 H 383.776 -2.70575 1.17784 0
M  V30 4002 H 383.857 -1.27596 2.21705 0
M  V30 4003 H 383.501 -2.76736 4.25887 0
M  V30 4004 H 383.431 -4.19036 3.1893 0
M  V30 4005 H 385.922 -2.74547 2.59677 0
M  V30 4006 H 386.235 -5.16638 5.74722 0
M  V30 4007 H 384.58 -4.65143 5.16398 0
M  V30 4008 H 387.771 -3.34234 3.27727 0
M  V30 4009 H 387.944 -4.44646 4.71375 0
M  V30 4010 N 381.35 -0.985608 -1.22978 0
M  V30 4011 C 382.596 -0.667998 -1.92118 0
M  V30 4012 C 382.951 0.790454 -1.75413 0
M  V30 4013 O 382.244 1.56336 -1.10768 0
M  V30 4014 C 382.438 -1.00014 -3.43121 0
M  V30 4015 C 382.267 -2.48933 -3.74516 0
M  V30 4016 C 381.037 -3.15218 -3.94925 0
M  V30 4017 C 383.235 -3.47024 -3.79577 0
M  V30 4018 N 381.217 -4.53689 -4.13569 0
M  V30 4019 C 382.588 -4.70923 -4.03276 0
M  V30 4020 C 384.643 -3.41432 -3.62393 0
M  V30 4021 C 383.346 -5.89914 -4.11574 0
M  V30 4022 C 385.372 -4.59793 -3.71947 0
M  V30 4023 C 384.734 -5.82489 -3.96088 0
M  V30 4024 H 380.833 -0.295589 -0.723983 0
M  V30 4025 H 383.417 -1.26413 -1.4808 0
M  V30 4026 H 381.588 -0.432655 -3.85983 0
M  V30 4027 H 383.32 -0.63927 -3.99619 0
M  V30 4028 H 380.075 -2.65702 -3.92045 0
M  V30 4029 H 380.499 -5.25492 -4.26834 0
M  V30 4030 H 385.141 -2.47594 -3.4272 0
M  V30 4031 H 382.859 -6.84164 -4.30053 0
M  V30 4032 H 386.445 -4.57048 -3.59998 0
M  V30 4033 H 385.325 -6.72546 -4.033 0
M  V30 4034 N 382.828 1.3818 -0.7579 0
M  V30 4035 C 384.056 2.04301 -0.326937 0
M  V30 4036 C 384.471 1.57163 1.0462 0
M  V30 4037 O 383.828 0.746626 1.66529 0
M  V30 4038 C 383.879 3.59846 -0.345363 0
M  V30 4039 O 383.6 4.05256 -1.66432 0
M  V30 4040 C 385.101 4.4319 0.098927 0
M  V30 4041 H 382.321 0.656443 -0.139012 0
M  V30 4042 H 384.865 1.76786 -1.02796 0
M  V30 4043 H 383.02 3.86182 0.306955 0
M  V30 4044 H 383.434 4.99709 -1.59345 0
M  V30 4045 H 384.908 5.51989 0.0348745 0
M  V30 4046 H 385.385 4.23947 1.14741 0
M  V30 4047 H 385.991 4.22051 -0.52468 0
M  V30 4048 N 384.306 0.507319 1.49211 0
M  V30 4049 C 385.555 -0.0368315 2.01666 0
M  V30 4050 C 385.868 -1.37459 1.39156 0
M  V30 4051 O 387.074 -2.00579 1.82976 0
M  V30 4052 C 385.53 -0.116089 3.59713 0
M  V30 4053 C 385.138 1.2154 4.31198 0
M  V30 4054 C 386.882 -0.610268 4.2009 0
M  V30 4055 C 384.789 1.09796 5.81119 0
M  V30 4056 H 383.719 -0.0175376 0.753796 0
M  V30 4057 H 386.37 0.647691 1.71689 0
M  V30 4058 H 384.752 -0.8652 3.86433 0
M  V30 4059 H 385.926 1.9783 4.16173 0
M  V30 4060 H 384.241 1.64352 3.82593 0
M  V30 4061 H 386.838 -0.715742 5.29888 0
M  V30 4062 H 387.181 -1.61064 3.8388 0
M  V30 4063 H 387.714 0.0824916 3.97714 0
M  V30 4064 H 384.453 2.0728 6.21864 0
M  V30 4065 H 383.973 0.376058 5.9862 0
M  V30 4066 H 385.652 0.779281 6.4229 0
M  V30 4067 N 385.784 -1.5574 0.241426 0
M  V30 4068 C 386.716 -2.18469 -0.693091 0
M  V30 4069 C 387.729 -1.15942 -1.14286 0
M  V30 4070 O 388.918 -1.42832 -1.07058 0
M  V30 4071 C 386.018 -2.7696 -1.95311 0
M  V30 4072 C 385.191 -4.04853 -1.65568 0
M  V30 4073 C 384.25 -4.47715 -2.76474 0
M  V30 4074 O 383.276 -5.14205 -2.44094 0
M  V30 4075 N 384.478 -4.15044 -4.05855 0
M  V30 4076 H 387.243 -2.99292 -0.156388 0
M  V30 4077 H 384.804 -1.61784 0.0611752 0
M  V30 4078 H 386.796 -3.02594 -2.68736 0
M  V30 4079 H 385.366 -2.00326 -2.39975 0
M  V30 4080 H 384.586 -3.86865 -0.756886 0
M  V30 4081 H 385.874 -4.88246 -1.43153 0
M  V30 4082 H 385.272 -3.61654 -4.34998 0
M  V30 4083 H 383.829 -4.45526 -4.75762 0
M  V30 4084 N 387.262 0.0317525 -1.57568 0
M  V30 4085 C 388.209 1.0332 -2.06382 0
M  V30 4086 C 389.179 1.36082 -0.952414 0
M  V30 4087 O 390.364 1.46466 -1.2228 0
M  V30 4088 C 387.504 2.32989 -2.54578 0
M  V30 4089 C 386.617 2.0641 -3.79498 0
M  V30 4090 C 385.752 3.2993 -4.16317 0
M  V30 4091 C 384.791 2.98893 -5.34162 0
M  V30 4092 N 383.928 4.14857 -5.66426 0
M  V30 4093 H 388.768 0.609982 -2.9169 0
M  V30 4094 H 386.305 0.289573 -1.44222 0
M  V30 4095 H 388.263 3.0875 -2.80587 0
M  V30 4096 H 386.893 2.73039 -1.7219 0
M  V30 4097 H 385.945 1.21158 -3.6059 0
M  V30 4098 H 387.257 1.79513 -4.65378 0
M  V30 4099 H 386.411 4.1406 -4.4344 0
M  V30 4100 H 385.15 3.59938 -3.29083 0
M  V30 4101 H 384.155 2.13164 -5.06795 0
M  V30 4102 H 385.38 2.70165 -6.23047 0
M  V30 4103 H 383.326 4.44821 -4.82151 0
M  V30 4104 H 383.243 3.91374 -6.4681 0
M  V30 4105 H 384.511 4.99868 -5.98124 0
M  V30 4106 N 388.74 1.54641 0.303973 0
M  V30 4107 C 389.986 1.74038 1.04109 0
M  V30 4108 C 390.319 0.523051 1.87024 0
M  V30 4109 O 389.594 -0.479874 1.88487 0
M  V30 4110 C 389.877 3.02761 1.94955 0
M  V30 4111 C 389.73 4.34787 1.1524 0
M  V30 4112 C 391.049 3.27336 2.94175 0
M  V30 4113 H 388.168 0.63323 0.377079 0
M  V30 4114 H 390.81 1.87354 0.316001 0
M  V30 4115 H 388.96 2.9154 2.56782 0
M  V30 4116 H 390.632 4.57922 0.557236 0
M  V30 4117 H 388.875 4.31407 0.455053 0
M  V30 4118 H 389.546 5.21116 1.8205 0
M  V30 4119 H 392.022 3.38148 2.42477 0
M  V30 4120 H 390.898 4.18726 3.54908 0
M  V30 4121 H 391.159 2.45491 3.67677 0
M  V30 4122 N 390.218 -0.567019 1.47046 0
M  V30 4123 C 391.465 -1.32462 1.53167 0
M  V30 4124 C 391.793 -1.93571 0.189841 0
M  V30 4125 O 391.048 -1.77865 -0.816243 0
M  V30 4126 C 391.347 -2.4623 2.59047 0
M  V30 4127 C 391.013 -2.03014 4.02612 0
M  V30 4128 C 389.675 -1.90944 4.41694 0
M  V30 4129 C 392.027 -1.69895 4.92732 0
M  V30 4130 C 389.355 -1.44035 5.68745 0
M  V30 4131 C 391.707 -1.2446 6.20236 0
M  V30 4132 C 390.371 -1.10979 6.5821 0
M  V30 4133 H 389.641 -0.484713 0.560477 0
M  V30 4134 H 392.288 -0.636888 1.80599 0
M  V30 4135 H 390.593 -3.20517 2.25335 0
M  V30 4136 H 392.29 -3.04427 2.61008 0
M  V30 4137 H 388.88 -2.13348 3.71726 0
M  V30 4138 H 393.064 -1.78098 4.63244 0
M  V30 4139 H 388.32 -1.32254 5.96925 0
M  V30 4140 H 392.494 -0.978924 6.89485 0
M  V30 4141 H 390.121 -0.744078 7.5655 0
M  V30 4142 N 391.696 -1.35014 -0.812953 0
M  V30 4143 C 392.926 -1.30841 -1.59888 0
M  V30 4144 C 393.334 0.117576 -1.88834 0
M  V30 4145 O 392.677 1.07807 -1.48739 0
M  V30 4146 C 392.739 -2.0412 -2.95931 0
M  V30 4147 C 392.403 -3.53336 -2.89832 0
M  V30 4148 C 393.4 -4.48052 -2.63714 0
M  V30 4149 C 391.085 -3.95894 -3.0915 0
M  V30 4150 C 393.079 -5.833 -2.56982 0
M  V30 4151 C 390.766 -5.31239 -3.0204 0
M  V30 4152 C 391.764 -6.24754 -2.75991 0
M  V30 4153 O 391.452 -7.57617 -2.68833 0
M  V30 4154 H 391.184 -0.451215 -0.50337 0
M  V30 4155 H 393.738 -1.78354 -1.01877 0
M  V30 4156 H 391.968 -1.51235 -3.559 0
M  V30 4157 H 393.657 -1.93107 -3.57022 0
M  V30 4158 H 394.423 -4.16492 -2.48515 0
M  V30 4159 H 390.302 -3.23495 -3.28438 0
M  V30 4160 H 393.846 -6.56263 -2.36569 0
M  V30 4161 H 389.743 -5.62415 -3.16796 0
M  V30 4162 H 390.511 -7.67469 -2.84487 0
M  V30 4163 N 393.175 1.03435 -1.18907 0
M  V30 4164 C 394.107 2.1165 -0.879595 0
M  V30 4165 C 395.12 1.62316 0.125439 0
M  V30 4166 O 396.309 1.78201 -0.103245 0
M  V30 4167 C 393.409 3.37622 -0.294042 0
M  V30 4168 C 392.582 4.16166 -1.34629 0
M  V30 4169 C 391.641 5.20457 -0.775274 0
M  V30 4170 O 390.667 5.50379 -1.4516 0
M  V30 4171 N 391.869 5.78949 0.424126 0
M  V30 4172 H 394.634 2.38791 -1.81105 0
M  V30 4173 H 392.195 1.19681 -1.09032 0
M  V30 4174 H 394.187 4.04572 0.101679 0
M  V30 4175 H 392.757 3.07873 0.541575 0
M  V30 4176 H 391.977 3.44444 -1.91707 0
M  V30 4177 H 393.265 4.65432 -2.05549 0
M  V30 4178 H 392.663 5.56948 0.991209 0
M  V30 4179 H 391.22 6.47334 0.761691 0
M  V30 4180 N 394.653 0.992116 1.22453 0
M  V30 4181 C 395.901 0.666215 1.90804 0
M  V30 4182 C 396.222 -0.804152 1.77647 0
M  V30 4183 O 395.492 -1.57629 1.16318 0
M  V30 4184 H 394.072 0.243423 0.706225 0
M  V30 4185 H 396.734 1.25845 1.48825 0
M  V30 4186 H 395.83 0.928069 2.97982 0
M  V30 4187 N 396.131 -1.37776 0.765217 0
M  V30 4188 C 397.547 -1.53297 0.444108 0
M  V30 4189 C 397.747 -1.72515 -1.04119 0
M  V30 4190 O 396.803 -1.74278 -1.82711 0
M  V30 4191 C 398.116 -2.73328 1.25349 0
M  V30 4192 C 399.664 -2.87185 1.24473 0
M  V30 4193 C 400.139 -4.10191 2.03733 0
M  V30 4194 N 401.63 -4.17291 2.01053 0
M  V30 4195 C 402.365 -5.11488 2.59166 0
M  V30 4196 N 401.861 -6.11285 3.26041 0
M  V30 4197 N 403.654 -5.03924 2.49032 0
M  V30 4198 H 395.805 -1.23552 1.72768 0
M  V30 4199 H 398.068 -0.601103 0.733062 0
M  V30 4200 H 397.774 -2.6557 2.30577 0
M  V30 4201 H 397.648 -3.66834 0.87823 0
M  V30 4202 H 400.035 -2.94418 0.20047 0
M  V30 4203 H 400.116 -1.94657 1.65959 0
M  V30 4204 H 399.76 -4.0372 3.08176 0
M  V30 4205 H 399.69 -5.01821 1.59633 0
M  V30 4206 H 402.181 -3.45825 1.5236 0
M  V30 4207 H 402.494 -6.79678 3.67774 0
M  V30 4208 H 400.839 -6.11583 3.30138 0
M  V30 4209 H 404.03 -4.24902 1.96407 0
M  V30 4210 H 404.203 -5.77152 2.94617 0
M  V30 4211 N 397.609 -0.515225 -1.4894 0
M  V30 4212 C 398.839 0.0205735 -2.0659 0
M  V30 4213 C 399.247 1.30064 -1.37405 0
M  V30 4214 O 398.59 1.78087 -0.450632 0
M  V30 4215 C 398.652 0.330124 -3.57981 0
M  V30 4216 C 398.316 -0.854295 -4.48944 0
M  V30 4217 C 399.313 -1.7487 -4.89609 0
M  V30 4218 C 396.998 -1.05712 -4.9105 0
M  V30 4219 C 398.992 -2.82996 -5.71132 0
M  V30 4220 C 396.679 -2.14154 -5.72347 0
M  V30 4221 C 397.677 -3.0263 -6.12294 0
M  V30 4222 O 397.365 -4.09198 -6.91962 0
M  V30 4223 H 397.097 -0.0236833 -0.675585 0
M  V30 4224 H 399.651 -0.715956 -1.92518 0
M  V30 4225 H 397.881 1.12044 -3.70112 0
M  V30 4226 H 399.57 0.806233 -3.97812 0
M  V30 4227 H 400.336 -1.60388 -4.57712 0
M  V30 4228 H 396.215 -0.377788 -4.59449 0
M  V30 4229 H 399.759 -3.52083 -6.02232 0
M  V30 4230 H 395.656 -2.28626 -6.03656 0
M  V30 4231 H 396.424 -4.06726 -7.10293 0
M  V30 4232 N 399.087 1.5561 -0.249682 0
M  V30 4233 C 400.317 2.03116 0.377803 0
M  V30 4234 C 400.725 1.12822 1.51881 0
M  V30 4235 O 400.068 0.13562 1.83199 0
M  V30 4236 C 400.13 3.46866 0.944693 0
M  V30 4237 C 399.794 4.56955 -0.0644259 0
M  V30 4238 C 400.791 5.12485 -0.874957 0
M  V30 4239 C 398.476 5.01936 -0.19132 0
M  V30 4240 C 400.47 6.11491 -1.79881 0
M  V30 4241 C 398.157 6.00773 -1.11868 0
M  V30 4242 C 399.155 6.5543 -1.92095 0
M  V30 4243 O 398.843 7.5234 -2.83267 0
M  V30 4244 H 398.575 0.669489 0.0935961 0
M  V30 4245 H 401.129 2.02004 -0.371966 0
M  V30 4246 H 399.359 3.45136 1.74407 0
M  V30 4247 H 401.048 3.77856 1.48255 0
M  V30 4248 H 401.814 4.78564 -0.787523 0
M  V30 4249 H 397.693 4.59055 0.423072 0
M  V30 4250 H 401.237 6.54078 -2.42543 0
M  V30 4251 H 397.134 6.34114 -1.20703 0
M  V30 4252 H 397.902 7.69966 -2.7766 0
M  V30 4253 N 400.565 -0.0233959 1.57583 0
M  V30 4254 C 401.842 -0.748794 1.807 0
M  V30 4255 C 402.222 -1.9327 0.849106 0
M  V30 4256 O 401.57 -2.28247 -0.107468 0
M  V30 4257 C 401.78 -1.17651 3.28571 0
M  V30 4258 C 403.128 -1.59008 3.93702 0
M  V30 4259 O 404.152 -1.27094 3.32755 0
M  V30 4260 O 403.011 -2.18264 5.01022 0
M  V30 4261 H 400.105 -0.362578 0.743281 0
M  V30 4262 H 402.651 0.000261958 1.697 0
M  V30 4263 H 401.423 -0.331603 3.89892 0
M  V30 4264 H 401.046 -1.98541 3.44481 0
M  V30 4265 N 402.043 -1.548 -0.295768 0
M  V30 4266 C 403.268 -1.78653 -1.05346 0
M  V30 4267 C 403.693 -0.546894 -1.79974 0
M  V30 4268 O 403.051 0.502763 -1.7419 0
M  V30 4269 C 403.099 -2.99679 -2.00561 0
M  V30 4270 O 402.203 -2.7317 -3.08953 0
M  V30 4271 H 401.544 -0.59116 -0.302367 0
M  V30 4272 H 404.074 -2.01895 -0.331598 0
M  V30 4273 H 404.084 -3.27793 -2.42932 0
M  V30 4274 H 402.759 -3.89562 -1.4565 0
M  V30 4275 H 401.336 -2.56089 -2.71059 0
M  V30 4276 N 403.521 0.559213 -1.47345 0
M  V30 4277 C 404.451 1.67622 -1.62558 0
M  V30 4278 C 405.432 1.63331 -0.475087 0
M  V30 4279 O 406.617 1.80983 -0.704182 0
M  V30 4280 C 403.747 3.0626 -1.63774 0
M  V30 4281 C 402.701 3.25397 -2.7803 0
M  V30 4282 C 402.027 4.64801 -2.64318 0
M  V30 4283 C 403.327 3.10965 -4.19641 0
M  V30 4284 H 405.021 1.55146 -2.56067 0
M  V30 4285 H 402.567 0.744961 -1.23233 0
M  V30 4286 H 404.52 3.84247 -1.73008 0
M  V30 4287 H 403.244 3.1969 -0.66825 0
M  V30 4288 H 401.903 2.49817 -2.68304 0
M  V30 4289 H 401.551 4.75028 -1.65401 0
M  V30 4290 H 401.251 4.78555 -3.40968 0
M  V30 4291 H 402.775 5.44926 -2.75478 0
M  V30 4292 H 404.189 3.78772 -4.30354 0
M  V30 4293 H 402.586 3.36229 -4.97062 0
M  V30 4294 H 403.656 2.07736 -4.38148 0
M  V30 4295 N 404.999 1.35443 0.805782 0
M  V30 4296 C 405.962 1.28301 1.89925 0
M  V30 4297 C 406.962 0.194285 1.59622 0
M  V30 4298 O 408.152 0.448036 1.6834 0
M  V30 4299 C 405.284 0.984997 3.2636 0
M  V30 4300 H 406.477 2.2553 1.97677 0
M  V30 4301 H 404.03 1.19979 1.00173 0
M  V30 4302 H 404.765 0.016603 3.24296 0
M  V30 4303 H 404.55 1.77269 3.4974 0
M  V30 4304 H 406.04 0.960651 4.064 0
M  V30 4305 N 406.477 -1.02803 1.19454 0
M  V30 4306 C 407.409 -2.11181 0.890807 0
M  V30 4307 C 408.422 -1.6238 -0.116829 0
M  V30 4308 O 409.611 -1.78144 0.112694 0
M  V30 4309 C 406.711 -3.37461 0.311942 0
M  V30 4310 C 405.884 -4.15446 1.36834 0
M  V30 4311 C 404.943 -5.20039 0.802864 0
M  V30 4312 O 403.969 -5.49602 1.48077 0
M  V30 4313 N 405.171 -5.79165 -0.393417 0
M  V30 4314 H 407.936 -2.37827 1.82369 0
M  V30 4315 H 405.497 -1.19101 1.09666 0
M  V30 4316 H 407.489 -4.0462 -0.0802225 0
M  V30 4317 H 406.059 -3.08156 -0.52524 0
M  V30 4318 H 405.279 -3.43423 1.93531 0
M  V30 4319 H 406.567 -4.64335 2.08015 0
M  V30 4320 H 405.965 -5.57466 -0.961658 0
M  V30 4321 H 404.522 -6.47729 -0.727351 0
M  V30 4322 N 407.956 -0.998596 -1.21925 0
M  V30 4323 C 408.886 -0.573688 -2.26343 0
M  V30 4324 C 409.867 0.402296 -1.65274 0
M  V30 4325 O 411.052 0.291683 -1.91997 0
M  V30 4326 C 408.182 0.106839 -3.47136 0
M  V30 4327 C 407.136 -0.788269 -4.20678 0
M  V30 4328 C 406.462 0.0254927 -5.34694 0
M  V30 4329 C 407.762 -2.08784 -4.78755 0
M  V30 4330 H 409.456 -1.44651 -2.62138 0
M  V30 4331 H 407.002 -0.696975 -1.26009 0
M  V30 4332 H 408.955 0.415531 -4.19346 0
M  V30 4333 H 407.679 1.01424 -3.10452 0
M  V30 4334 H 406.338 -1.08069 -3.50309 0
M  V30 4335 H 405.986 0.933989 -4.94253 0
M  V30 4336 H 405.686 -0.570437 -5.84825 0
M  V30 4337 H 407.21 0.328147 -6.09718 0
M  V30 4338 H 408.624 -1.84272 -5.42878 0
M  V30 4339 H 407.021 -2.63307 -5.39249 0
M  V30 4340 H 408.091 -2.76284 -3.98491 0
M  V30 4341 N 409.434 1.37368 -0.772513 0
M  V30 4342 C 410.344 2.34053 -0.160081 0
M  V30 4343 C 411.36 1.60216 0.678728 0
M  V30 4344 O 412.536 1.92303 0.59847 0
M  V30 4345 C 409.601 3.3939 0.708182 0
M  V30 4346 C 408.662 4.29048 -0.147172 0
M  V30 4347 C 407.895 5.29354 0.679744 0
M  V30 4348 O 408.118 5.3723 1.91678 0
M  V30 4349 O 407.052 6.01835 0.0885444 0
M  V30 4350 H 410.878 2.88159 -0.959053 0
M  V30 4351 H 408.463 1.39543 -0.533685 0
M  V30 4352 H 410.345 4.03839 1.20384 0
M  V30 4353 H 409.02 2.8761 1.48533 0
M  V30 4354 H 407.927 3.67697 -0.689205 0
M  V30 4355 H 409.26 4.84134 -0.887423 0
M  V30 4356 N 410.912 0.523116 1.48665 0
M  V30 4357 C 411.875 -0.232592 2.28017 0
M  V30 4358 C 412.875 -0.874021 1.34972 0
M  V30 4359 O 414.065 -0.735132 1.57929 0
M  V30 4360 C 411.197 -1.33586 3.13636 0
M  V30 4361 H 412.39 0.464008 2.96289 0
M  V30 4362 H 409.943 0.278816 1.53793 0
M  V30 4363 H 410.678 -2.06593 2.4998 0
M  V30 4364 H 410.463 -0.881125 3.82071 0
M  V30 4365 H 411.953 -1.86759 3.73511 0
M  V30 4366 N 412.39 -1.55475 0.257931 0
M  V30 4367 C 413.322 -2.19192 -0.669881 0
M  V30 4368 C 414.335 -1.17148 -1.1305 0
M  V30 4369 O 415.524 -1.43959 -1.05537 0
M  V30 4370 C 412.624 -2.79016 -1.92363 0
M  V30 4371 C 411.797 -4.06586 -1.61265 0
M  V30 4372 C 410.856 -4.50622 -2.7171 0
M  V30 4373 O 409.882 -5.16765 -2.38627 0
M  V30 4374 N 411.084 -4.19325 -4.01431 0
M  V30 4375 H 413.849 -2.99441 -0.124635 0
M  V30 4376 H 411.41 -1.6171 0.0783311 0
M  V30 4377 H 413.402 -3.05427 -2.65511 0
M  V30 4378 H 411.972 -2.0286 -2.37837 0
M  V30 4379 H 411.192 -3.87646 -0.715811 0
M  V30 4380 H 412.48 -4.89737 -1.37967 0
M  V30 4381 H 411.878 -3.66247 -4.31138 0
M  V30 4382 H 410.435 -4.50547 -4.7101 0
M  V30 4383 N 413.868 0.0150385 -1.57593 0
M  V30 4384 C 415.115 0.703001 -1.89906 0
M  V30 4385 C 415.443 1.74604 -0.856944 0
M  V30 4386 O 414.698 1.95197 0.140287 0
M  V30 4387 C 414.997 1.39686 -3.28972 0
M  V30 4388 C 414.663 0.488457 -4.48246 0
M  V30 4389 C 413.325 0.2383 -4.8061 0
M  V30 4390 C 415.677 -0.137881 -5.21018 0
M  V30 4391 C 413.005 -0.646738 -5.83125 0
M  V30 4392 C 415.357 -1.0107 -6.24474 0
M  V30 4393 C 414.021 -1.27019 -6.55303 0
M  V30 4394 H 413.291 0.257246 -0.694914 0
M  V30 4395 H 415.938 -0.037259 -1.91464 0
M  V30 4396 H 414.243 2.21079 -3.23468 0
M  V30 4397 H 415.94 1.93495 -3.51227 0
M  V30 4398 H 412.53 0.693593 -4.22951 0
M  V30 4399 H 416.714 0.0423953 -4.96282 0
M  V30 4400 H 411.97 -0.855937 -6.05379 0
M  V30 4401 H 416.144 -1.50247 -6.79999 0
M  V30 4402 H 413.771 -1.95769 -7.3456 0
M  V30 4403 N 415.346 1.54954 0.287554 0
M  V30 4404 C 416.256 1.8991 1.37736 0
M  V30 4405 C 417.272 0.794701 1.54792 0
M  V30 4406 O 418.448 1.09243 1.69198 0
M  V30 4407 C 415.513 2.15108 2.71899 0
M  V30 4408 C 414.574 3.38752 2.63715 0
M  V30 4409 C 413.807 3.62739 3.91479 0
M  V30 4410 O 414.03 2.89492 4.91478 0
M  V30 4411 O 412.964 4.56267 3.92561 0
M  V30 4412 H 416.79 2.82652 1.11092 0
M  V30 4413 H 414.375 1.41315 0.484807 0
M  V30 4414 H 416.257 2.32806 3.51254 0
M  V30 4415 H 414.932 1.25551 2.9836 0
M  V30 4416 H 413.839 3.26405 1.82786 0
M  V30 4417 H 415.172 4.28483 2.42205 0
M  V30 4418 N 416.824 -0.551391 1.4764 0
M  V30 4419 C 417.787 -1.64007 1.60107 0
M  V30 4420 C 418.787 -1.53601 0.47576 0
M  V30 4421 O 419.977 -1.57655 0.740988 0
M  V30 4422 C 417.109 -3.03569 1.55108 0
M  V30 4423 H 418.302 -1.543 2.57161 0
M  V30 4424 H 415.855 -0.771776 1.35917 0
M  V30 4425 H 416.59 -3.18804 0.594519 0
M  V30 4426 H 416.375 -3.12532 2.36783 0
M  V30 4427 H 417.865 -3.82762 1.66982 0
M  V30 4428 N 418.302 -1.35869 -0.798587 0
M  V30 4429 C 419.55 -1.29332 -1.55298 0
M  V30 4430 C 419.871 0.129729 -1.94568 0
M  V30 4431 O 419.141 1.06796 -1.6423 0
M  V30 4432 H 417.721 -0.475737 -0.57592 0
M  V30 4433 H 420.383 -1.70062 -0.952093 0
M  V30 4434 H 419.479 -1.91458 -2.46476 0
M  V30 4435 N 419.78 1.02168 -1.19998 0
M  V30 4436 C 420.71 2.12488 -0.96804 0
M  V30 4437 C 421.691 1.69799 0.101185 0
M  V30 4438 O 422.876 1.94121 -0.0552993 0
M  V30 4439 C 420.006 3.43479 -0.513776 0
M  V30 4440 C 418.96 3.99884 -1.52566 0
M  V30 4441 C 418.286 5.26582 -0.928214 0
M  V30 4442 C 419.586 4.33861 -2.90795 0
M  V30 4443 H 421.28 2.32149 -1.89069 0
M  V30 4444 H 418.826 1.11564 -0.910468 0
M  V30 4445 H 420.779 4.20036 -0.338774 0
M  V30 4446 H 419.503 3.23561 0.444493 0
M  V30 4447 H 418.162 3.25429 -1.68794 0
M  V30 4448 H 417.81 5.02986 0.0378289 0
M  V30 4449 H 417.51 5.65284 -1.60397 0
M  V30 4450 H 419.034 6.05799 -0.764167 0
M  V30 4451 H 420.448 5.01327 -2.78109 0
M  V30 4452 H 418.845 4.83664 -3.55231 0
M  V30 4453 H 419.915 3.42848 -3.42904 0
M  V30 4454 N 421.258 1.00505 1.21394 0
M  V30 4455 C 422.504 0.688793 1.90745 0
M  V30 4456 C 422.837 -0.778486 1.77914 0
M  V30 4457 O 422.112 -1.56433 1.15581 0
M  V30 4458 C 422.395 1.11063 3.42545 0
M  V30 4459 C 422.248 2.63737 3.64367 0
M  V30 4460 C 423.567 0.673059 4.34923 0
M  V30 4461 H 420.686 0.251702 0.692687 0
M  V30 4462 H 423.328 1.25074 1.43026 0
M  V30 4463 H 421.478 0.632508 3.83317 0
M  V30 4464 H 423.15 3.19313 3.32922 0
M  V30 4465 H 421.393 3.05248 3.08231 0
M  V30 4466 H 422.064 2.88305 4.70727 0
M  V30 4467 H 424.54 1.08392 4.01734 0
M  V30 4468 H 423.416 0.996383 5.39781 0
M  V30 4469 H 423.677 -0.425808 4.40045 0
M  V30 4470 N 422.737 -1.36956 0.779787 0
M  V30 4471 C 423.685 -2.32053 0.15942 0
M  V30 4472 C 424.679 -1.55333 -0.675878 0
M  V30 4473 O 425.885 -1.70668 -0.57204 0
M  V30 4474 H 422.26 -0.751286 0.0327707 0
M  V30 4475 H 424.231 -2.8195 0.977078 0
M  V30 4476 C 422.98 -3.40602 -0.698977 0
M  V30 4477 H 422.303 -3.99746 -0.0655966 0
M  V30 4478 H 423.743 -4.09486 -1.09989 0
M  V30 4479 C 422.202 -2.81359 -1.85307 0
M  V30 4480 O 422.732 -2.72751 -2.94906 0
M  V30 4481 N 420.938 -2.38786 -1.65619 0
M  V30 4482 H 420.485 -2.45987 -0.764725 0
M  V30 4483 H 420.443 -1.99493 -2.43002 0
M  V30 4484 N 424.215 -0.530993 -1.48385 0
M  V30 4485 C 425.461 0.00274135 -2.028 0
M  V30 4486 C 425.794 1.33838 -1.40716 0
M  V30 4487 O 425.069 1.86465 -0.553277 0
M  V30 4488 C 425.352 0.123676 -3.59888 0
M  V30 4489 C 425.205 -1.2372 -4.3245 0
M  V30 4490 C 426.524 0.849967 -4.31814 0
M  V30 4491 H 423.643 -0.000477758 -0.737 0
M  V30 4492 H 426.285 -0.688217 -1.77098 0
M  V30 4493 H 424.435 0.712157 -3.81917 0
M  V30 4494 H 426.107 -1.86687 -4.21836 0
M  V30 4495 H 424.35 -1.81882 -3.93829 0
M  V30 4496 H 425.021 -1.10557 -5.40815 0
M  V30 4497 H 427.497 0.350572 -4.14621 0
M  V30 4498 H 426.373 0.903486 -5.41413 0
M  V30 4499 H 426.634 1.90047 -3.99167 0
M  V30 4500 N 425.693 1.55336 -0.266172 0
M  V30 4501 C 426.939 1.99692 0.353681 0
M  V30 4502 C 427.272 1.1543 1.56172 0
M  V30 4503 O 426.547 0.222218 1.93226 0
M  V30 4504 C 426.83 3.52316 0.74466 0
M  V30 4505 C 426.683 4.47337 -0.470101 0
M  V30 4506 C 428.002 4.10588 1.58447 0
M  V30 4507 H 425.121 0.725961 0.12708 0
M  V30 4508 H 427.763 1.86336 -0.371333 0
M  V30 4509 H 425.913 3.63829 1.36239 0
M  V30 4510 H 427.585 4.4778 -1.10864 0
M  V30 4511 H 425.828 4.19364 -1.10978 0
M  V30 4512 H 426.499 5.51788 -0.15291 0
M  V30 4513 H 428.975 4.02297 1.06286 0
M  V30 4514 H 427.851 5.17607 1.82686 0
M  V30 4515 H 428.112 3.60253 2.56262 0
M  V30 4516 N 427.171 -0.0066808 1.57599 0
M  V30 4517 C 428.101 -0.999296 2.11036 0
M  V30 4518 C 429.082 -1.36278 1.01795 0
M  V30 4519 O 430.267 -1.4477 1.29442 0
M  V30 4520 C 427.397 -2.29328 2.60818 0
M  V30 4521 C 426.351 -2.07159 3.74525 0
M  V30 4522 C 425.677 -3.42512 4.10596 0
M  V30 4523 C 426.977 -1.43959 5.02069 0
M  V30 4524 H 428.671 -0.554382 2.94223 0
M  V30 4525 H 426.217 -0.265221 1.41536 0
M  V30 4526 H 428.17 -2.99117 2.96828 0
M  V30 4527 H 426.894 -2.7592 1.74745 0
M  V30 4528 H 425.553 -1.39797 3.38899 0
M  V30 4529 H 425.201 -3.86795 3.21556 0
M  V30 4530 H 424.901 -3.28498 4.87199 0
M  V30 4531 H 426.425 -4.13628 4.4916 0
M  V30 4532 H 427.839 -2.03696 5.35893 0
M  V30 4533 H 426.236 -1.40452 5.83432 0
M  V30 4534 H 427.306 -0.407992 4.83181 0
M  V30 4535 N 428.649 -1.55105 -0.279332 0
M  V30 4536 C 429.898 -1.74618 -1.00952 0
M  V30 4537 C 430.211 -0.551096 -1.87676 0
M  V30 4538 O 431.417 -0.628507 -2.64125 0
M  V30 4539 C 429.873 -3.09025 -1.84476 0
M  V30 4540 C 429.481 -4.36081 -1.0265 0
M  V30 4541 C 431.225 -3.37891 -2.56963 0
M  V30 4542 C 429.132 -5.6153 -1.85576 0
M  V30 4543 H 428.062 -0.650868 -0.38064 0
M  V30 4544 H 430.713 -1.81569 -0.265475 0
M  V30 4545 H 429.095 -2.96095 -2.62952 0
M  V30 4546 H 430.269 -4.59909 -0.286354 0
M  V30 4547 H 428.584 -4.14312 -0.416464 0
M  V30 4548 H 431.181 -4.28822 -3.19399 0
M  V30 4549 H 431.524 -2.57737 -3.26921 0
M  V30 4550 H 432.057 -3.5189 -1.85522 0
M  V30 4551 H 428.796 -6.44413 -1.2005 0
M  V30 4552 H 428.316 -5.41854 -2.57204 0
M  V30 4553 H 429.995 -5.99594 -2.43096 0
M  V30 4554 N 430.127 0.543554 -1.4793 0
M  V30 4555 C 431.538 1.12561 -1.48953 0
M  V30 4556 C 431.889 1.94578 -0.251754 0
M  V30 4557 O 431.014 2.0665 0.642255 0
M  V30 4558 C 431.609 2.04801 -2.69892 0
M  V30 4559 C 430.168 2.58251 -2.73831 0
M  V30 4560 C 429.315 1.34918 -2.42265 0
M  V30 4561 H 432.266 0.32947 -1.55242 0
M  V30 4562 H 432.287 2.88886 -2.47639 0
M  V30 4563 H 431.799 1.4508 -3.59963 0
M  V30 4564 H 429.9 3.21732 -1.87934 0
M  V30 4565 H 430.013 2.98312 -3.74895 0
M  V30 4566 H 428.377 1.66046 -1.93134 0
M  V30 4567 H 429.16 0.769693 -3.3456 0
M  V30 4568 N 431.605 1.3629 0.791371 0
M  V30 4569 C 432.882 1.20962 1.53712 0
M  V30 4570 C 433.262 -0.205021 2.10102 0
M  V30 4571 O 432.61 -1.21042 1.93807 0
M  V30 4572 C 432.82 2.29002 2.63361 0
M  V30 4573 C 434.168 2.65572 3.31295 0
M  V30 4574 O 435.192 2.2803 2.73643 0
M  V30 4575 O 434.051 3.3018 4.35481 0
M  V30 4576 H 431.145 0.47086 0.679867 0
M  V30 4577 H 433.691 1.48016 0.830021 0
M  V30 4578 H 432.463 3.2382 2.19674 0
M  V30 4579 H 432.086 2.03303 3.41692 0
M  V30 4580 N 433.083 -1.0153 1.20538 0
M  V30 4581 C 434.031 -2.12215 0.952235 0
M  V30 4582 C 435.025 -1.69123 -0.0968735 0
M  V30 4583 O 436.231 -1.7992 0.0536006 0
M  V30 4584 H 432.606 -0.693576 0.290613 0
M  V30 4585 H 434.577 -2.3075 1.89201 0
M  V30 4586 C 433.326 -3.43755 0.522287 0
M  V30 4587 H 432.649 -3.7734 1.32115 0
M  V30 4588 H 434.089 -4.22254 0.384389 0
M  V30 4589 C 432.548 -3.28088 -0.765489 0
M  V30 4590 O 433.078 -3.57921 -1.8236 0
M  V30 4591 N 431.284 -2.81333 -0.728011 0
M  V30 4592 H 430.831 -2.57255 0.133332 0
M  V30 4593 H 430.789 -2.71232 -1.58999 0
M  V30 4594 N 434.561 -1.01147 -1.20859 0
M  V30 4595 C 435.809 -0.696486 -1.89719 0
M  V30 4596 C 436.13 0.775788 -1.78904 0
M  V30 4597 O 435.4 1.55759 -1.18811 0
M  V30 4598 H 433.98 -0.254628 -0.702263 0
M  V30 4599 H 436.642 -1.28197 -1.46804 0
M  V30 4600 H 435.738 -0.975357 -2.96468 0
M  V30 4601 N 436.039 1.36541 -0.78704 0
M  V30 4602 C 437.267 2.03561 -0.370199 0
M  V30 4603 C 437.682 1.59347 1.01263 0
M  V30 4604 O 437.039 0.781781 1.64907 0
M  V30 4605 C 437.09 3.59033 -0.421614 0
M  V30 4606 O 436.811 4.01634 -1.7499 0
M  V30 4607 C 438.312 4.433 0.00489763 0
M  V30 4608 H 435.532 0.653346 -0.152904 0
M  V30 4609 H 438.076 1.74566 -1.06522 0
M  V30 4610 H 436.231 3.86746 0.224971 0
M  V30 4611 H 436.645 4.96217 -1.69909 0
M  V30 4612 H 438.119 5.51939 -0.0822184 0
M  V30 4613 H 438.596 4.26285 1.05723 0
M  V30 4614 H 439.202 4.20843 -0.614085 0
M  V30 4615 N 437.518 0.538854 1.48102 0
M  V30 4616 C 438.766 0.00798599 2.02098 0
M  V30 4617 C 439.087 -1.33922 1.41739 0
M  V30 4618 O 438.357 -1.86932 0.585934 0
M  V30 4619 H 436.937 -3.62179e-05 0.747 0
M  V30 4620 H 439.599 0.7047 1.81714 0
M  V30 4621 H 438.695 -0.0937672 3.11959 0
M  V30 4622 N 438.996 -1.55193 0.274407 0
M  V30 4623 C 440.244 -1.99187 -0.341902 0
M  V30 4624 C 440.565 -1.16422 -1.56431 0
M  V30 4625 O 439.835 -0.253573 -1.94252 0
M  V30 4626 H 438.415 -0.735721 -0.129317 0
M  V30 4627 H 441.077 -1.91168 0.379578 0
M  V30 4628 H 440.173 -3.05629 -0.632253 0
M  V30 4629 N 440.474 -0.00167713 -1.576 0
M  V30 4630 C 441.699 0.69739 -1.95323 0
M  V30 4631 C 442.124 1.6642 -0.876706 0
M  V30 4632 O 441.482 1.80548 0.165007 0
M  V30 4633 C 441.53 1.40403 -3.32144 0
M  V30 4634 O 440.634 2.5185 -3.26566 0
M  V30 4635 H 439.975 0.185373 -0.637599 0
M  V30 4636 H 442.505 -0.0553665 -2.04525 0
M  V30 4637 H 442.515 1.76707 -3.67748 0
M  V30 4638 H 441.19 0.695167 -4.10049 0
M  V30 4639 H 439.767 2.17861 -3.0264 0
M  V30 4640 N 441.952 1.55251 0.271103 0
M  V30 4641 C 443.198 1.7713 0.999832 0
M  V30 4642 C 443.553 0.56659 1.83868 0
M  V30 4643 O 442.846 -0.44069 1.86463 0
M  V30 4644 C 443.04 3.01879 1.91321 0
M  V30 4645 C 442.869 4.34368 1.16426 0
M  V30 4646 C 441.639 4.97593 0.879169 0
M  V30 4647 C 443.837 5.1131 0.553749 0
M  V30 4648 N 441.819 6.13813 0.103618 0
M  V30 4649 C 443.19 6.19938 -0.0875442 0
M  V30 4650 C 445.245 4.95754 0.461782 0
M  V30 4651 C 443.948 7.14703 -0.811942 0
M  V30 4652 C 445.974 5.90875 -0.249027 0
M  V30 4653 C 445.336 6.98893 -0.879051 0
M  V30 4654 H 441.435 0.700407 0.347784 0
M  V30 4655 H 444.019 1.92744 0.275314 0
M  V30 4656 H 442.19 2.87637 2.60997 0
M  V30 4657 H 443.922 3.12154 2.57569 0
M  V30 4658 H 440.677 4.58538 1.18491 0
M  V30 4659 H 441.101 6.76455 -0.271543 0
M  V30 4660 H 445.743 4.12342 0.934552 0
M  V30 4661 H 443.461 7.97634 -1.29639 0
M  V30 4662 H 447.047 5.80916 -0.320529 0
M  V30 4663 H 445.927 7.71231 -1.42031 0
M  V30 4664 N 443.43 -0.535701 1.48216 0
M  V30 4665 C 444.655 -1.32149 1.59848 0
M  V30 4666 C 445.08 -1.86338 0.256842 0
M  V30 4667 O 444.438 -1.64107 -0.770632 0
M  V30 4668 C 444.486 -2.45224 2.64381 0
M  V30 4669 O 443.59 -3.48093 2.21144 0
M  V30 4670 H 442.931 -0.391634 0.536208 0
M  V30 4671 H 445.461 -0.645202 1.94161 0
M  V30 4672 H 445.471 -2.91491 2.85476 0
M  V30 4673 H 444.146 -2.05143 3.61786 0
M  V30 4674 H 442.723 -3.07984 2.10239 0
M  V30 4675 N 444.908 -1.36708 -0.784132 0
M  V30 4676 C 445.838 -1.34153 -1.91116 0
M  V30 4677 C 446.819 -0.212121 -1.68772 0
M  V30 4678 O 448.004 -0.410581 -1.8981 0
M  V30 4679 C 445.134 -1.13535 -3.28218 0
M  V30 4680 C 444.088 -2.23356 -3.65097 0
M  V30 4681 C 443.414 -1.87875 -5.00607 0
M  V30 4682 C 444.714 -3.65473 -3.73131 0
M  V30 4683 H 446.408 -2.28459 -1.93512 0
M  V30 4684 H 443.954 -1.09973 -0.929618 0
M  V30 4685 H 445.907 -1.10381 -4.06687 0
M  V30 4686 H 444.631 -0.156804 -3.26223 0
M  V30 4687 H 443.29 -2.25645 -2.88929 0
M  V30 4688 H 442.938 -0.885814 -4.95139 0
M  V30 4689 H 442.638 -2.61406 -5.26252 0
M  V30 4690 H 444.162 -1.86286 -5.81489 0
M  V30 4691 H 445.576 -3.65382 -4.41779 0
M  V30 4692 H 443.973 -4.37953 -4.10265 0
M  V30 4693 H 445.043 -3.99995 -2.74102 0
M  V30 4694 N 446.386 1.0089 -1.21074 0
M  V30 4695 C 447.333 2.09588 -0.966512 0
M  V30 4696 C 448.303 1.65761 0.106089 0
M  V30 4697 O 449.488 1.90758 -0.0402287 0
M  V30 4698 C 446.628 3.40958 -0.533058 0
M  V30 4699 C 445.741 3.9822 -1.67467 0
M  V30 4700 C 444.876 5.17682 -1.19076 0
M  V30 4701 C 443.915 5.67043 -2.30496 0
M  V30 4702 N 443.052 6.77759 -1.83267 0
M  V30 4703 H 447.892 2.29815 -1.89708 0
M  V30 4704 H 445.429 1.12689 -0.945489 0
M  V30 4705 H 447.387 4.1637 -0.263019 0
M  V30 4706 H 446.017 3.20781 0.360505 0
M  V30 4707 H 445.069 3.1983 -2.05944 0
M  V30 4708 H 446.381 4.3085 -2.51336 0
M  V30 4709 H 445.535 6.00326 -0.877151 0
M  V30 4710 H 444.274 4.86635 -0.322066 0
M  V30 4711 H 443.279 4.82999 -2.62664 0
M  V30 4712 H 444.504 6.00121 -3.17855 0
M  V30 4713 H 442.45 6.48527 -0.987356 0
M  V30 4714 H 442.367 7.09624 -2.60711 0
M  V30 4715 H 443.635 7.63949 -1.54928 0
M  V30 4716 N 447.864 1.01787 1.20321 0
M  V30 4717 C 449.089 0.727009 1.9424 0
M  V30 4718 C 449.514 -0.706179 1.74341 0
M  V30 4719 O 448.872 -1.48609 1.03852 0
M  V30 4720 C 448.92 1.06958 3.44372 0
M  V30 4721 O 448.024 0.181983 4.11998 0
M  V30 4722 H 447.365 0.269626 0.606793 0
M  V30 4723 H 449.895 1.36158 1.52716 0
M  V30 4724 H 449.905 1.02182 3.94997 0
M  V30 4725 H 448.58 2.11378 3.58179 0
M  V30 4726 H 447.157 0.287378 3.71791 0
M  V30 4727 N 449.342 -1.36122 0.79427 0
M  V30 4728 C 450.753 -1.81646 0.431446 0
M  V30 4729 C 451.104 -1.66043 -1.04518 0
M  V30 4730 O 450.229 -1.1841 -1.8113 0
M  V30 4731 C 450.824 -3.29785 0.776341 0
M  V30 4732 C 449.383 -3.73501 0.466282 0
M  V30 4733 C 448.53 -2.58313 1.00844 0
M  V30 4734 H 451.481 -1.24274 0.986995 0
M  V30 4735 H 451.502 -3.80437 0.0692413 0
M  V30 4736 H 451.014 -3.4111 1.8511 0
M  V30 4737 H 449.115 -3.67733 -0.600245 0
M  V30 4738 H 449.228 -4.68754 0.990288 0
M  V30 4739 H 447.592 -2.5102 0.431406 0
M  V30 4740 H 448.375 -2.72421 2.08906 0
M  V30 4741 N 450.82 -0.546701 -1.47814 0
M  V30 4742 C 452.066 -0.0187684 -2.02791 0
M  V30 4743 C 452.399 1.32338 -1.42128 0
M  V30 4744 O 451.674 1.85867 -0.573023 0
M  V30 4745 C 451.957 0.0854985 -3.59998 0
M  V30 4746 C 451.81 -1.283 -4.31114 0
M  V30 4747 C 453.129 0.80412 -4.32691 0
M  V30 4748 H 450.248 -0.0082946 -0.736953 0
M  V30 4749 H 452.89 -0.706962 -1.76358 0
M  V30 4750 H 451.04 0.671609 -3.82651 0
M  V30 4751 H 452.712 -1.91151 -4.19832 0
M  V30 4752 H 450.955 -1.86049 -3.91878 0
M  V30 4753 H 451.626 -1.16287 -5.39612 0
M  V30 4754 H 454.102 0.306576 -4.14969 0
M  V30 4755 H 452.978 0.846011 -5.42341 0
M  V30 4756 H 453.239 1.85802 -4.01161 0
M  V30 4757 N 452.299 1.55045 -0.282633 0
M  V30 4758 C 453.71 1.85473 0.213655 0
M  V30 4759 C 454.061 1.20465 1.54863 0
M  V30 4760 O 453.186 0.495676 2.10647 0
M  V30 4761 C 453.781 3.36496 0.394445 0
M  V30 4762 C 452.34 3.67022 0.834961 0
M  V30 4763 C 451.487 2.77218 -0.0674081 0
M  V30 4764 H 454.438 1.50478 -0.504202 0
M  V30 4765 H 454.459 3.60007 1.23186 0
M  V30 4766 H 453.971 3.83782 -0.577326 0
M  V30 4767 H 452.072 3.25241 1.81794 0
M  V30 4768 H 452.185 4.74433 0.667075 0
M  V30 4769 H 450.549 2.5069 0.450196 0
M  V30 4770 H 451.332 3.2732 -1.0352 0
M  V30 4771 N 453.777 0.010035 1.57597 0
M  V30 4772 C 455.188 -0.531426 1.78977 0
M  V30 4773 C 455.539 -1.73375 0.918454 0
M  V30 4774 O 454.664 -2.16047 0.123635 0
M  V30 4775 C 455.259 -0.97086 3.24592 0
M  V30 4776 C 453.818 -1.45756 3.47033 0
M  V30 4777 C 452.965 -0.413384 2.74201 0
M  V30 4778 H 455.916 0.236166 1.56933 0
M  V30 4779 H 455.937 -1.83633 3.33255 0
M  V30 4780 H 455.449 -0.0955893 3.87982 0
M  V30 4781 H 453.55 -2.35339 2.88871 0
M  V30 4782 H 453.663 -1.4781 4.55729 0
M  V30 4783 H 452.027 -0.877266 2.39115 0
M  V30 4784 H 452.81 0.453092 3.40297 0
M  V30 4785 N 455.255 -1.55392 -0.262866 0
M  V30 4786 C 456.503 -1.76127 -0.991147 0
M  V30 4787 C 456.824 -0.571083 -1.8645 0
M  V30 4788 O 456.094 0.413698 -1.91482 0
M  V30 4789 H 454.674 -0.649528 -0.368948 0
M  V30 4790 H 457.336 -1.9281 -0.284655 0
M  V30 4791 H 456.432 -2.6663 -1.62219 0
M  V30 4792 N 456.733 0.527833 -1.48498 0
M  V30 4793 C 458.144 1.10975 -1.50138 0
M  V30 4794 C 458.495 1.943 -0.272378 0
M  V30 4795 O 457.62 2.07319 0.620301 0
M  V30 4796 C 458.215 2.01927 -2.72049 0
M  V30 4797 C 456.774 2.55332 -2.76554 0
M  V30 4798 C 455.921 1.32341 -2.43683 0
M  V30 4799 H 458.872 0.312986 -1.55583 0
M  V30 4800 H 458.893 2.86244 -2.50689 0
M  V30 4801 H 458.405 1.41254 -3.61481 0
M  V30 4802 H 456.506 3.19721 -1.91336 0
M  V30 4803 H 456.619 2.94319 -3.78038 0
M  V30 4804 H 454.983 1.63989 -1.94884 0
M  V30 4805 H 455.766 0.734165 -3.35358 0
M  V30 4806 N 458.211 1.37122 0.776871 0
M  V30 4807 C 459.174 1.32301 1.8716 0
M  V30 4808 C 460.174 0.228099 1.59174 0
M  V30 4809 O 461.364 0.483642 1.67352 0
M  V30 4810 C 458.496 1.054 3.24197 0
M  V30 4811 H 459.689 2.29673 1.92848 0
M  V30 4812 H 457.242 1.22077 0.97606 0
M  V30 4813 H 457.977 0.0853872 3.24188 0
M  V30 4814 H 457.762 1.84648 3.45901 0
M  V30 4815 H 459.252 1.04664 4.04271 0
M  V30 4816 N 459.689 -1.00246 1.21608 0
M  V30 4817 C 461.1 -1.55511 1.03312 0
M  V30 4818 C 461.451 -1.91946 -0.406332 0
M  V30 4819 O 460.576 -1.73753 -1.28992 0
M  V30 4820 C 461.171 -2.82576 1.86913 0
M  V30 4821 C 459.73 -3.34318 1.72941 0
M  V30 4822 C 458.877 -2.07487 1.83968 0
M  V30 4823 H 461.828 -0.824638 1.35593 0
M  V30 4824 H 461.849 -3.54559 1.38087 0
M  V30 4825 H 461.361 -2.56026 2.91672 0
M  V30 4826 H 459.462 -3.65797 0.70877 0
M  V30 4827 H 459.575 -4.05566 2.55055 0
M  V30 4828 H 457.939 -2.20603 1.27304 0
M  V30 4829 H 458.722 -1.83346 2.9024 0
M  V30 4830 N 461.167 -1.02423 -1.1978 0
M  V30 4831 C 462.578 -0.748389 -1.71044 0
M  V30 4832 C 462.929 0.732398 -1.82017 0
M  V30 4833 O 462.054 1.57116 -1.48807 0
M  V30 4834 C 462.649 -1.35187 -3.1066 0
M  V30 4835 C 461.208 -1.12472 -3.59203 0
M  V30 4836 C 460.355 -1.45283 -2.36195 0
M  V30 4837 H 463.306 -1.19275 -1.04686 0
M  V30 4838 H 463.327 -0.746408 -3.73107 0
M  V30 4839 H 462.839 -2.4296 -3.02642 0
M  V30 4840 H 460.94 -0.0649983 -3.72543 0
M  V30 4841 H 461.053 -1.81016 -4.43588 0
M  V30 4842 H 459.417 -0.872034 -2.39307 0
M  V30 4843 H 460.2 -2.54129 -2.30811 0
M  V30 4844 N 462.645 1.35699 -0.801477 0
M  V30 4845 C 463.575 2.32436 -0.222658 0
M  V30 4846 C 464.556 1.5723 0.649057 0
M  V30 4847 O 465.741 1.85324 0.580387 0
M  V30 4848 C 462.871 3.41469 0.633719 0
M  V30 4849 C 461.825 4.27774 -0.139083 0
M  V30 4850 C 461.151 5.28082 0.838666 0
M  V30 4851 C 462.451 5.04946 -1.33517 0
M  V30 4852 H 464.145 2.81094 -1.03086 0
M  V30 4853 H 461.691 1.35146 -0.497155 0
M  V30 4854 H 463.644 4.08143 1.04868 0
M  V30 4855 H 462.368 2.91408 1.47475 0
M  V30 4856 H 461.027 3.62673 -0.535156 0
M  V30 4857 H 460.675 4.7429 1.67506 0
M  V30 4858 H 460.375 5.86695 0.32594 0
M  V30 4859 H 461.899 5.97628 1.25194 0
M  V30 4860 H 463.313 5.64593 -0.995349 0
M  V30 4861 H 461.71 5.7303 -1.78202 0
M  V30 4862 H 462.78 4.35886 -2.12442 0
M  V30 4863 N 464.123 0.554532 1.47522 0
M  V30 4864 C 465.055 -0.232106 2.28022 0
M  V30 4865 C 466.068 -0.881865 1.36847 0
M  V30 4866 O 467.257 -0.756168 1.61692 0
M  V30 4867 C 464.357 -1.34604 3.11022 0
M  V30 4868 C 463.53 -0.793582 4.30141 0
M  V30 4869 C 462.589 -1.79168 4.94758 0
M  V30 4870 O 461.615 -1.33886 5.5323 0
M  V30 4871 N 462.817 -3.12495 4.89211 0
M  V30 4872 H 465.582 0.458407 2.96173 0
M  V30 4873 H 463.143 0.390433 1.57122 0
M  V30 4874 H 465.135 -2.01243 3.51118 0
M  V30 4875 H 463.705 -1.93983 2.45131 0
M  V30 4876 H 462.925 0.0495025 3.94169 0
M  V30 4877 H 464.213 -0.403776 5.07195 0
M  V30 4878 H 463.611 -3.51931 4.42901 0
M  V30 4879 H 462.168 -3.74698 5.33333 0
M  V30 4880 N 465.601 -1.54893 0.290851 0
M  V30 4881 C 466.848 -1.99933 -0.321391 0
M  V30 4882 C 467.176 -1.17927 -1.54672 0
M  V30 4883 O 466.431 -0.240902 -1.94212 0
M  V30 4884 C 466.73 -3.49815 -0.732397 0
M  V30 4885 C 466.396 -4.4921 0.390056 0
M  V30 4886 C 465.058 -4.76107 0.698223 0
M  V30 4887 C 467.41 -5.08453 1.14562 0
M  V30 4888 C 464.738 -5.59514 1.76526 0
M  V30 4889 C 467.09 -5.9302 2.2025 0
M  V30 4890 C 465.754 -6.18232 2.51684 0
M  V30 4891 H 465.024 -0.731608 -0.117605 0
M  V30 4892 H 467.671 -1.87107 0.407839 0
M  V30 4893 H 465.976 -3.60199 -1.54155 0
M  V30 4894 H 467.673 -3.82083 -1.21712 0
M  V30 4895 H 464.263 -4.28372 0.13976 0
M  V30 4896 H 468.447 -4.87683 0.920801 0
M  V30 4897 H 463.703 -5.77289 2.01364 0
M  V30 4898 H 467.877 -6.37955 2.7926 0
M  V30 4899 H 465.504 -6.82653 3.34499 0
M  V30 4900 N 467.08 -0.0183926 -1.57589 0
M  V30 4901 C 468.31 0.67207 -1.95363 0
M  V30 4902 C 468.718 1.66807 -0.892872 0
M  V30 4903 O 468.061 1.83204 0.134958 0
M  V30 4904 C 468.123 1.44397 -3.29226 0
M  V30 4905 C 467.787 0.607511 -4.52944 0
M  V30 4906 C 468.784 -0.112657 -5.19778 0
M  V30 4907 C 466.469 0.548068 -4.99301 0
M  V30 4908 C 468.463 -0.881057 -6.31281 0
M  V30 4909 C 466.15 -0.224044 -6.10689 0
M  V30 4910 C 467.148 -0.937323 -6.76538 0
M  V30 4911 O 466.836 -1.6968 -7.85789 0
M  V30 4912 H 466.568 0.190925 -0.648478 0
M  V30 4913 H 469.122 -0.0711994 -2.05277 0
M  V30 4914 H 467.352 2.23214 -3.15773 0
M  V30 4915 H 469.041 2.02152 -3.51979 0
M  V30 4916 H 469.807 -0.0759998 -4.8494 0
M  V30 4917 H 465.686 1.09281 -4.4786 0
M  V30 4918 H 469.23 -1.43832 -6.82611 0
M  V30 4919 H 465.127 -0.262457 -6.44966 0
M  V30 4920 H 465.895 -1.61544 -8.024 0
M  V30 4921 N 468.558 1.5553 0.254621 0
M  V30 4922 C 469.969 1.67518 0.824286 0
M  V30 4923 C 470.32 0.614429 1.86331 0
M  V30 4924 O 469.445 -0.240736 2.15057 0
M  V30 4925 C 470.04 3.03692 1.50189 0
M  V30 4926 C 468.599 3.17646 2.01935 0
M  V30 4927 C 467.746 2.63373 0.867746 0
M  V30 4928 H 470.697 1.58671 0.0305843 0
M  V30 4929 H 470.718 2.97706 2.36962 0
M  V30 4930 H 470.23 3.80874 0.745431 0
M  V30 4931 H 468.331 2.45273 2.80485 0
M  V30 4932 H 468.444 4.24455 2.22204 0
M  V30 4933 H 466.808 2.20999 1.26616 0
M  V30 4934 H 467.591 3.43074 0.124498 0
M  V30 4935 N 470.036 -0.519951 1.48776 0
M  V30 4936 C 470.968 -1.63973 1.60142 0
M  V30 4937 C 471.981 -1.55404 0.485117 0
M  V30 4938 O 473.17 -1.61682 0.756391 0
M  V30 4939 C 470.27 -3.02676 1.52449 0
M  V30 4940 C 469.443 -3.36624 2.79291 0
M  V30 4941 C 468.502 -4.54652 2.64912 0
M  V30 4942 O 467.528 -4.57374 3.38818 0
M  V30 4943 N 468.73 -5.53432 1.75195 0
M  V30 4944 H 471.495 -1.54656 2.56713 0
M  V30 4945 H 469.056 -0.707439 1.45626 0
M  V30 4946 H 471.048 -3.79525 1.4051 0
M  V30 4947 H 469.618 -3.06018 0.638125 0
M  V30 4948 H 468.838 -2.48855 3.0572 0
M  V30 4949 H 470.126 -3.56094 3.6342 0
M  V30 4950 H 469.524 -5.54018 1.14371 0
M  V30 4951 H 468.081 -6.29459 1.69189 0
M  V30 4952 N 471.514 -1.37532 -0.769588 0
M  V30 4953 C 472.762 -1.32597 -1.5252 0
M  V30 4954 C 473.083 0.0884294 -1.94799 0
M  V30 4955 O 472.353 1.03289 -1.66458 0
M  V30 4956 H 470.933 -0.487846 -0.565699 0
M  V30 4957 H 473.595 -1.72044 -0.915806 0
M  V30 4958 H 472.691 -1.96643 -2.42359 0
M  V30 4959 N 472.992 0.995999 -1.22138 0
M  V30 4960 C 474.403 1.54961 -1.04135 0
M  V30 4961 C 474.754 1.92159 0.396147 0
M  V30 4962 O 473.879 1.74435 1.28069 0
M  V30 4963 C 474.474 2.81581 -1.88408 0
M  V30 4964 C 473.033 3.33396 -1.74712 0
M  V30 4965 C 472.18 2.06509 -1.85066 0
M  V30 4966 H 475.131 0.817436 -1.36028 0
M  V30 4967 H 475.152 3.53822 -1.39966 0
M  V30 4968 H 474.664 2.54476 -2.93025 0
M  V30 4969 H 472.765 3.65416 -0.728159 0
M  V30 4970 H 472.878 4.04208 -2.57202 0
M  V30 4971 H 471.242 2.19925 -1.28472 0
M  V30 4972 H 472.025 1.81804 -2.91208 0
M  V30 4973 N 474.47 1.03057 1.19235 0
M  V30 4974 C 475.886 0.747947 1.40989 0
M  V30 4975 C 476.086 -0.666752 1.90149 0
M  V30 4976 O 475.142 -1.43249 2.07933 0
M  V30 4977 C 476.455 1.7855 2.41951 0
M  V30 4978 C 478.003 1.80524 2.55695 0
M  V30 4979 C 478.478 2.83243 3.59913 0
M  V30 4980 N 479.969 2.8207 3.67411 0
M  V30 4981 C 480.704 3.58204 4.47747 0
M  V30 4982 N 480.2 4.44057 5.31775 0
M  V30 4983 N 481.993 3.46738 4.42413 0
M  V30 4984 H 474.144 1.94367 0.856468 0
M  V30 4985 H 476.407 0.840412 0.438647 0
M  V30 4986 H 476.113 2.79973 2.12857 0
M  V30 4987 H 475.987 1.6092 3.41152 0
M  V30 4988 H 478.374 0.79778 2.84112 0
M  V30 4989 H 478.455 2.02229 1.56643 0
M  V30 4990 H 478.099 3.84161 3.32239 0
M  V30 4991 H 478.029 2.58795 4.5862 0
M  V30 4992 H 480.52 2.19803 3.074 0
M  V30 4993 H 480.833 4.98884 5.90199 0
M  V30 4994 H 479.178 4.48129 5.3123 0
M  V30 4995 H 482.369 2.79077 3.75811 0
M  V30 4996 H 482.542 4.06322 5.04783 0
M  V30 4997 N 475.948 -1.35272 0.808662 0
M  V30 4998 C 477.195 -1.98709 0.390003 0
M  V30 4999 C 477.523 -1.64148 -1.04335 0
M  V30 5000 O 476.778 -0.897797 -1.73891 0
M  V30 5001 C 477.077 -3.53556 0.522798 0
M  V30 5002 C 476.743 -4.0799 1.91977 0
M  V30 5003 C 475.405 -4.22568 2.30195 0
M  V30 5004 C 477.757 -4.37442 2.83361 0
M  V30 5005 C 475.085 -4.63918 3.59162 0
M  V30 5006 C 477.437 -4.80232 4.11776 0
M  V30 5007 C 476.101 -4.93016 4.49991 0
M  V30 5008 H 475.371 -0.727127 0.142712 0
M  V30 5009 H 478.018 -1.6145 1.02985 0
M  V30 5010 H 476.323 -3.91287 -0.200494 0
M  V30 5011 H 478.02 -4.00598 0.179608 0
M  V30 5012 H 474.61 -3.97096 1.61284 0
M  V30 5013 H 478.794 -4.25731 2.55083 0
M  V30 5014 H 474.05 -4.72005 3.88615 0
M  V30 5015 H 478.224 -5.01982 4.82687 0
M  V30 5016 H 475.851 -5.24814 5.49976 0
M  V30 5017 N 477.426 -0.562348 -1.47226 0
M  V30 5018 C 478.651 -0.0432632 -2.07355 0
M  V30 5019 C 479.076 1.24332 -1.41149 0
M  V30 5020 O 478.434 1.74603 -0.488226 0
M  V30 5021 C 478.482 0.130288 -3.60365 0
M  V30 5022 O 477.586 1.19166 -3.94808 0
M  V30 5023 H 476.927 -0.0536334 -0.66183 0
M  V30 5024 H 479.457 -0.779495 -1.89169 0
M  V30 5025 H 479.467 0.342881 -4.06557 0
M  V30 5026 H 478.142 -0.809389 -4.07948 0
M  V30 5027 H 476.719 0.959153 -3.60354 0
M  V30 5028 N 478.904 1.54736 -0.299062 0
M  V30 5029 C 480.15 2.00397 0.311244 0
M  V30 5030 C 480.483 1.18716 1.53688 0
M  V30 5031 O 479.758 0.263154 1.92712 0
M  V30 5032 C 480.041 3.53817 0.669761 0
M  V30 5033 C 479.894 4.46239 -0.564882 0
M  V30 5034 C 481.213 4.13856 1.49702 0
M  V30 5035 H 478.332 0.728493 0.111653 0
M  V30 5036 H 480.974 1.85506 -0.410774 0
M  V30 5037 H 479.124 3.66637 1.28491 0
M  V30 5038 H 480.796 4.45328 -1.20337 0
M  V30 5039 H 479.039 4.16916 -1.19849 0
M  V30 5040 H 479.71 5.5134 -0.269918 0
M  V30 5041 H 482.186 4.04461 0.977284 0
M  V30 5042 H 481.062 5.21365 1.71666 0
M  V30 5043 H 481.323 3.65608 2.48563 0
M  V30 5044 N 480.382 0.0267497 1.57577 0
M  V30 5045 C 481.314 -0.984594 2.06974 0
M  V30 5046 C 482.327 -1.29032 0.992705 0
M  V30 5047 O 483.516 -1.25539 1.26895 0
M  V30 5048 C 480.616 -2.31262 2.47732 0
M  V30 5049 C 479.789 -2.1924 3.78487 0
M  V30 5050 C 478.848 -3.34956 4.05821 0
M  V30 5051 O 477.874 -3.11948 4.76106 0
M  V30 5052 N 479.076 -4.58672 3.55809 0
M  V30 5053 H 481.841 -0.563143 2.94362 0
M  V30 5054 H 479.402 -0.160061 1.61107 0
M  V30 5055 H 481.394 -3.07496 2.63112 0
M  V30 5056 H 479.964 -2.65056 1.65723 0
M  V30 5057 H 479.184 -1.27747 3.72927 0
M  V30 5058 H 480.472 -2.08409 4.64158 0
M  V30 5059 H 479.87 -4.8026 2.98942 0
M  V30 5060 H 478.427 -5.32083 3.76472 0
M  V30 5061 N 481.861 -1.55662 -0.24637 0
M  V30 5062 C 483.109 -1.77168 -0.972411 0
M  V30 5063 C 483.43 -0.590827 -1.85834 0
M  V30 5064 O 482.7 0.393365 -1.9191 0
M  V30 5065 H 481.28 -0.653405 -0.362038 0
M  V30 5066 H 483.942 -1.93101 -0.264189 0
M  V30 5067 H 483.038 -2.68335 -1.59382 0
M  V30 5068 N 483.339 0.512053 -1.4905 0
M  V30 5069 C 484.564 1.2959 -1.6193 0
M  V30 5070 C 484.989 1.85906 -0.286454 0
M  V30 5071 O 484.347 1.65312 0.744426 0
M  V30 5072 C 484.395 2.40987 -2.68249 0
M  V30 5073 O 483.499 3.44531 -2.26654 0
M  V30 5074 H 482.84 0.383053 -0.542371 0
M  V30 5075 H 485.37 0.614231 -1.95162 0
M  V30 5076 H 485.38 2.86913 -2.90078 0
M  V30 5077 H 484.055 1.99361 -3.65004 0
M  V30 5078 H 482.632 3.046 -2.15112 0
M  V30 5079 N 484.817 1.37938 0.762283 0
M  V30 5080 C 486.233 1.18945 1.06415 0
M  V30 5081 C 486.433 0.0321163 2.01474 0
M  V30 5082 O 485.489 -0.624844 2.44647 0
M  V30 5083 C 486.802 2.51218 1.65258 0
M  V30 5084 C 488.35 2.57824 1.7747 0
M  V30 5085 C 488.825 3.90251 2.39725 0
M  V30 5086 N 490.316 3.91744 2.47166 0
M  V30 5087 C 491.051 4.90966 2.96209 0
M  V30 5088 N 490.547 6.00585 3.45354 0
M  V30 5089 N 492.34 4.78363 2.9517 0
M  V30 5090 H 484.491 2.11994 0.131301 0
M  V30 5091 H 486.754 0.940262 0.120879 0
M  V30 5092 H 486.46 3.36317 1.02878 0
M  V30 5093 H 486.334 2.68989 2.64433 0
M  V30 5094 H 488.721 1.73126 2.3898 0
M  V30 5095 H 488.802 2.43928 0.770241 0
M  V30 5096 H 488.446 4.75368 1.78852 0
M  V30 5097 H 488.376 4.01454 3.40796 0
M  V30 5098 H 490.867 3.12563 2.12397 0
M  V30 5099 H 491.18 6.72236 3.81207 0
M  V30 5100 H 489.525 6.04217 3.43434 0
M  V30 5101 H 492.716 3.91841 2.56082 0
M  V30 5102 H 492.889 5.55843 3.33081 0
M  V30 5103 N 486.295 -0.989507 1.22664 0
M  V30 5104 C 487.541 -1.7321 1.05481 0
M  V30 5105 C 487.874 -1.89852 -0.408635 0
M  V30 5106 O 487.149 -1.44416 -1.30285 0
M  V30 5107 C 487.432 -3.1357 1.77047 0
M  V30 5108 C 487.285 -3.04555 3.31008 0
M  V30 5109 C 488.604 -4.12812 1.5256 0
M  V30 5110 H 485.723 -0.628697 0.384589 0
M  V30 5111 H 488.365 -1.15258 1.51049 0
M  V30 5112 H 486.515 -3.63046 1.3831 0
M  V30 5113 H 488.187 -2.62674 3.7921 0
M  V30 5114 H 486.43 -2.41278 3.6051 0
M  V30 5115 H 487.101 -4.03894 3.76263 0
M  V30 5116 H 489.577 -3.72106 1.86215 0
M  V30 5117 H 488.453 -5.09132 2.05124 0
M  V30 5118 H 488.714 -4.39711 0.458936 0
M  V30 5119 N 487.773 -1.03688 -1.18687 0
M  V30 5120 C 488.736 -0.629115 -2.20397 0
M  V30 5121 C 489.736 0.311495 -1.57754 0
M  V30 5122 O 490.926 0.0974107 -1.73927 0
M  V30 5123 C 488.058 0.0782231 -3.4081 0
M  V30 5124 H 489.251 -1.52915 -2.57987 0
M  V30 5125 H 486.804 -0.828988 -1.32505 0
M  V30 5126 H 487.539 0.992233 -3.08748 0
M  V30 5127 H 487.324 -0.597776 -3.87517 0
M  V30 5128 H 488.814 0.350156 -4.16129 0
M  V30 5129 N 489.251 1.34841 -0.815825 0
M  V30 5130 C 490.476 2.03261 -0.41226 0
M  V30 5131 C 490.901 1.61055 0.971751 0
M  V30 5132 O 490.259 0.7917 1.63101 0
M  V30 5133 C 490.307 3.56914 -0.514289 0
M  V30 5134 O 489.411 4.09728 0.468675 0
M  V30 5135 H 488.752 0.641664 -0.170771 0
M  V30 5136 H 491.282 1.72241 -1.10427 0
M  V30 5137 H 491.292 4.06156 -0.387457 0
M  V30 5138 H 489.967 3.86982 -1.52375 0
M  V30 5139 H 488.544 3.71681 0.301316 0
M  V30 5140 N 490.729 0.570148 1.46925 0
M  V30 5141 C 491.954 0.0542592 2.07329 0
M  V30 5142 C 492.379 -1.23582 1.41806 0
M  V30 5143 O 491.737 -1.74341 0.497479 0
M  V30 5144 C 491.785 -0.111175 3.60429 0
M  V30 5145 O 490.889 -1.17071 3.95434 0
M  V30 5146 H 490.23 0.0571425 0.661537 0
M  V30 5147 H 492.76 0.789516 1.88753 0
M  V30 5148 H 492.77 -0.321315 4.06733 0
M  V30 5149 H 491.445 0.831012 4.07513 0
M  V30 5150 H 490.022 -0.940029 3.60857 0
M  V30 5151 N 492.207 -1.54576 0.307264 0
M  V30 5152 C 493.137 -2.26708 -0.55907 0
M  V30 5153 C 494.118 -1.26893 -1.1328 0
M  V30 5154 O 495.303 -1.55677 -1.16097 0
M  V30 5155 C 492.433 -3.01259 -1.72801 0
M  V30 5156 C 491.387 -4.08275 -1.28435 0
M  V30 5157 C 490.713 -4.70575 -2.53895 0
M  V30 5158 C 492.013 -5.2068 -0.411038 0
M  V30 5159 H 493.707 -2.9937 0.042576 0
M  V30 5160 H 491.253 -1.43983 0.0219173 0
M  V30 5161 H 493.206 -3.50444 -2.34023 0
M  V30 5162 H 491.93 -2.26187 -2.356 0
M  V30 5163 H 490.589 -3.59949 -0.695161 0
M  V30 5164 H 490.237 -3.92136 -3.15021 0
M  V30 5165 H 489.937 -5.42854 -2.24908 0
M  V30 5166 H 491.461 -5.22527 -3.15908 0
M  V30 5167 H 492.875 -5.65721 -0.929097 0
M  V30 5168 H 491.272 -5.99716 -0.214664 0
M  V30 5169 H 492.342 -4.81629 0.562287 0
M  V30 5170 N 493.685 -0.035106 -1.57561 0
M  V30 5171 C 494.931 0.637362 -1.93156 0
M  V30 5172 C 495.286 1.69391 -0.912392 0
M  V30 5173 O 494.579 1.91469 0.070735 0
M  V30 5174 C 494.773 1.29149 -3.3325 0
M  V30 5175 C 494.602 0.29983 -4.48699 0
M  V30 5176 C 493.372 -0.102454 -5.05196 0
M  V30 5177 C 495.57 -0.448297 -5.12342 0
M  V30 5178 N 493.552 -1.08866 -6.0417 0
M  V30 5179 C 494.923 -1.28807 -6.06472 0
M  V30 5180 C 496.978 -0.508351 -4.95298 0
M  V30 5181 C 495.681 -2.18248 -6.85391 0
M  V30 5182 C 497.707 -1.39013 -5.7483 0
M  V30 5183 C 497.069 -2.21766 -6.6858 0
M  V30 5184 H 493.168 0.205358 -0.754554 0
M  V30 5185 H 495.752 -0.103682 -1.94424 0
M  V30 5186 H 493.923 2.00264 -3.3279 0
M  V30 5187 H 495.655 1.92147 -3.56177 0
M  V30 5188 H 492.41 0.273223 -4.72811 0
M  V30 5189 H 492.834 -1.57817 -6.58348 0
M  V30 5190 H 497.476 0.117197 -4.22638 0
M  V30 5191 H 495.194 -2.81855 -7.57353 0
M  V30 5192 H 498.78 -1.44096 -5.63673 0
M  V30 5193 H 497.66 -2.88892 -7.29048 0
M  V30 5194 N 495.163 1.55791 0.238111 0
M  V30 5195 C 496.391 1.82098 0.982233 0
M  V30 5196 C 496.806 0.612025 1.78605 0
M  V30 5197 O 496.163 -0.419381 1.77616 0
M  V30 5198 C 496.214 3.0673 1.91309 0
M  V30 5199 O 495.935 4.2296 1.14179 0
M  V30 5200 C 497.436 3.45903 2.77248 0
M  V30 5201 H 494.656 0.605748 0.288635 0
M  V30 5202 H 497.2 2.02862 0.258341 0
M  V30 5203 H 495.355 2.87991 2.59114 0
M  V30 5204 H 495.769 4.93653 1.7722 0
M  V30 5205 H 497.243 4.36189 3.38295 0
M  V30 5206 H 497.72 2.66891 3.48806 0
M  V30 5207 H 498.326 3.67024 2.14881 0
M  V30 5208 N 496.642 -0.504142 1.49319 0
M  V30 5209 C 497.889 -1.25846 1.58647 0
M  V30 5210 C 498.217 -1.92592 0.27177 0
M  V30 5211 O 497.472 -1.81167 -0.74007 0
M  V30 5212 C 497.771 -2.35021 2.69258 0
M  V30 5213 C 497.437 -1.85755 4.1086 0
M  V30 5214 C 496.099 -1.72038 4.49395 0
M  V30 5215 C 498.451 -1.48844 4.99495 0
M  V30 5216 C 495.779 -1.19783 5.74342 0
M  V30 5217 C 498.131 -0.980422 6.24956 0
M  V30 5218 C 496.795 -0.829622 6.62324 0
M  V30 5219 H 496.065 -0.460505 0.580531 0
M  V30 5220 H 498.712 -0.559716 1.83138 0
M  V30 5221 H 497.017 -3.10672 2.38726 0
M  V30 5222 H 498.714 -2.93083 2.73685 0
M  V30 5223 H 495.304 -1.9739 3.80441 0
M  V30 5224 H 499.488 -1.5829 4.70381 0
M  V30 5225 H 494.744 -1.06817 6.01997 0
M  V30 5226 H 498.918 -0.685608 6.93017 0
M  V30 5227 H 496.545 -0.42253 7.59025 0
M  V30 5228 N 498.12 -1.38341 -0.754957 0
M  V30 5229 C 499.345 -1.37882 -1.5493 0
M  V30 5230 C 499.77 0.0296385 -1.88077 0
M  V30 5231 O 499.128 1.01133 -1.50472 0
M  V30 5232 C 499.176 -2.23996 -2.82592 0
M  V30 5233 O 498.28 -1.65612 -3.77686 0
M  V30 5234 H 497.621 -0.470384 -0.468652 0
M  V30 5235 H 500.151 -1.82084 -0.933082 0
M  V30 5236 H 500.161 -2.37806 -3.3153 0
M  V30 5237 H 498.836 -3.26365 -2.57796 0
M  V30 5238 H 497.413 -1.60936 -3.36384 0
M  V30 5239 N 499.598 0.982988 -1.23187 0
M  V30 5240 C 500.845 1.72392 -1.06241 0
M  V30 5241 C 501.173 1.9032 0.40108 0
M  V30 5242 O 500.428 1.45084 1.31336 0
M  V30 5243 C 500.727 3.12736 -1.73006 0
M  V30 5244 C 500.393 3.14695 -3.22921 0
M  V30 5245 C 499.055 3.14937 -3.63824 0
M  V30 5246 C 501.407 3.10211 -4.1883 0
M  V30 5247 C 498.735 3.08408 -4.99101 0
M  V30 5248 C 501.087 3.05224 -5.54095 0
M  V30 5249 C 499.751 3.03787 -5.94365 0
M  V30 5250 H 499.021 0.630829 -0.388762 0
M  V30 5251 H 501.668 1.15053 -1.53085 0
M  V30 5252 H 499.973 3.73446 -1.18514 0
M  V30 5253 H 501.67 3.68828 -1.57374 0
M  V30 5254 H 498.26 3.15262 -2.90358 0
M  V30 5255 H 502.444 3.09166 -3.8824 0
M  V30 5256 H 497.7 3.05646 -5.29519 0
M  V30 5257 H 501.874 3.00712 -6.28128 0
M  V30 5258 H 499.501 2.98483 -6.99151 0
M  V30 5259 N 501.076 1.04316 1.18135 0
M  V30 5260 C 502.324 0.746542 1.87806 0
M  V30 5261 C 502.645 -0.728082 1.80898 0
M  V30 5262 O 501.915 -1.52554 1.22899 0
M  V30 5263 H 500.495 0.273157 0.695265 0
M  V30 5264 H 503.157 1.32044 1.43354 0
M  V30 5265 H 502.253 1.05362 2.93778 0
M  V30 5266 N 502.554 -1.34406 0.822964 0
M  V30 5267 C 503.484 -2.32052 0.259608 0
M  V30 5268 C 504.465 -1.58243 -0.623961 0
M  V30 5269 O 505.65 -1.86224 -0.55083 0
M  V30 5270 C 502.78 -3.42434 -0.579314 0
M  V30 5271 C 501.734 -4.27499 0.20712 0
M  V30 5272 C 501.06 -5.29349 -0.754547 0
M  V30 5273 C 502.36 -5.02758 1.41533 0
M  V30 5274 H 504.054 -2.79418 1.07545 0
M  V30 5275 H 501.6 -1.34338 0.518593 0
M  V30 5276 H 503.553 -4.0976 -0.983612 0
M  V30 5277 H 502.277 -2.93717 -1.4282 0
M  V30 5278 H 500.936 -3.61776 0.592787 0
M  V30 5279 H 500.584 -4.76895 -1.59939 0
M  V30 5280 H 500.284 -5.8714 -0.232561 0
M  V30 5281 H 501.808 -5.99544 -1.1567 0
M  V30 5282 H 503.222 -5.62938 1.08504 0
M  V30 5283 H 501.619 -5.70123 1.87296 0
M  V30 5284 H 502.689 -4.32451 2.1935 0
M  V30 5285 N 504.032 -0.577932 -1.46621 0
M  V30 5286 C 505.28 -0.061566 -2.02006 0
M  V30 5287 C 505.601 1.30117 -1.4524 0
M  V30 5288 O 504.871 1.85313 -0.63529 0
M  V30 5289 H 503.451 -0.0197692 -0.746738 0
M  V30 5290 H 506.113 -0.752631 -1.79782 0
M  V30 5291 H 505.209 0.0110238 -3.12098 0
M  V30 5292 N 505.51 1.54411 -0.315457 0
M  V30 5293 C 506.473 2.22713 0.54142 0
M  V30 5294 C 507.473 1.2179 1.04995 0
M  V30 5295 O 508.663 1.46426 0.943667 0
M  V30 5296 C 505.795 2.92485 1.75116 0
M  V30 5297 H 506.988 2.99849 -0.0555508 0
M  V30 5298 H 504.541 1.56159 -0.0664453 0
M  V30 5299 H 505.276 2.19466 2.38758 0
M  V30 5300 H 505.061 3.66483 1.39401 0
M  V30 5301 H 506.551 3.44548 2.35959 0
M  V30 5302 N 506.988 0.0434614 1.5754 0
M  V30 5303 C 508.235 -0.632035 1.92384 0
M  V30 5304 C 508.563 -1.71304 0.921157 0
M  V30 5305 O 507.818 -1.95583 -0.067744 0
M  V30 5306 C 508.117 -1.2738 3.3393 0
M  V30 5307 C 507.783 -0.321757 4.49751 0
M  V30 5308 C 506.445 -0.0597611 4.81163 0
M  V30 5309 C 508.797 0.331158 5.20147 0
M  V30 5310 C 506.125 0.862715 5.80322 0
M  V30 5311 C 508.477 1.24178 6.20292 0
M  V30 5312 C 507.141 1.51252 6.50138 0
M  V30 5313 H 506.411 -0.231278 0.703983 0
M  V30 5314 H 509.058 0.108294 1.91194 0
M  V30 5315 H 507.363 -2.08921 3.3145 0
M  V30 5316 H 509.06 -1.80326 3.58167 0
M  V30 5317 H 505.65 -0.53614 4.25233 0
M  V30 5318 H 509.834 0.141826 4.96097 0
M  V30 5319 H 505.09 1.08003 6.01785 0
M  V30 5320 H 509.264 1.75381 6.73954 0
M  V30 5321 H 506.891 2.22897 7.26788 0
M  V30 5322 N 508.466 -1.55915 -0.229846 0
M  V30 5323 C 509.691 -1.8296 -0.976743 0
M  V30 5324 C 510.116 -0.622735 -1.77493 0
M  V30 5325 O 509.474 0.428431 -1.76165 0
M  V30 5326 C 509.522 -3.07916 -1.8767 0
M  V30 5327 O 508.626 -2.86028 -2.97088 0
M  V30 5328 H 507.967 -0.603453 -0.277021 0
M  V30 5329 H 510.497 -2.0312 -0.245669 0
M  V30 5330 H 510.507 -3.37802 -2.2881 0
M  V30 5331 H 509.182 -3.95389 -1.28996 0
M  V30 5332 H 507.759 -2.67355 -2.59954 0
M  V30 5333 N 509.944 0.496216 -1.49584 0
M  V30 5334 C 511.192 1.24756 -1.58998 0
M  V30 5335 C 511.513 1.92968 -0.280775 0
M  V30 5336 O 510.783 1.82959 0.700198 0
M  V30 5337 H 509.363 0.463471 -0.585836 0
M  V30 5338 H 512.025 0.574678 -1.86235 0
M  V30 5339 H 511.121 2.00895 -2.38847 0
M  V30 5340 N 511.423 1.38739 0.74761 0
M  V30 5341 C 512.834 1.31507 1.32524 0
M  V30 5342 C 513.185 -0.0263963 1.96182 0
M  V30 5343 O 512.31 -0.92849 1.95469 0
M  V30 5344 C 512.905 2.38162 2.40966 0
M  V30 5345 C 511.464 2.34489 2.94434 0
M  V30 5346 C 510.611 2.20712 1.67873 0
M  V30 5347 H 513.562 1.4901 0.546043 0
M  V30 5348 H 513.583 2.04222 3.21051 0
M  V30 5349 H 513.095 3.35783 1.94605 0
M  V30 5350 H 511.196 1.40467 3.45108 0
M  V30 5351 H 511.309 3.28861 3.48407 0
M  V30 5352 H 509.673 1.67667 1.91729 0
M  V30 5353 H 510.456 3.20285 1.23582 0
M  V30 5354 N 512.901 -0.976442 1.23707 0
M  V30 5355 C 514.317 -1.24341 1.00058 0
M  V30 5356 C 514.517 -1.99315 -0.295932 0
M  V30 5357 O 513.573 -2.3123 -1.01435 0
M  V30 5358 C 514.886 -2.03909 2.21001 0
M  V30 5359 C 516.434 -2.17034 2.25534 0
M  V30 5360 C 516.909 -2.99994 3.46075 0
M  V30 5361 N 518.4 -3.07578 3.46338 0
M  V30 5362 C 519.135 -3.72104 4.36264 0
M  V30 5363 N 518.631 -4.3842 5.36432 0
M  V30 5364 N 520.424 -3.69029 4.23998 0
M  V30 5365 H 512.575 -0.47428 2.07037 0
M  V30 5366 H 514.838 -0.272167 0.908091 0
M  V30 5367 H 514.544 -1.56198 3.15111 0
M  V30 5368 H 514.418 -3.04654 2.22409 0
M  V30 5369 H 516.805 -2.63951 1.31961 0
M  V30 5370 H 516.886 -1.15664 2.28156 0
M  V30 5371 H 516.53 -2.53772 4.39957 0
M  V30 5372 H 516.46 -4.01541 3.40694 0
M  V30 5373 H 518.951 -2.60397 2.73865 0
M  V30 5374 H 519.264 -4.85447 6.013 0
M  V30 5375 H 517.609 -4.37116 5.40328 0
M  V30 5376 H 520.8 -3.16392 3.44984 0
M  V30 5377 H 520.973 -4.19034 4.94282 0
M  V30 5378 N 514.379 -1.04941 -1.1758 0
M  V30 5379 C 515.628 -0.753124 -1.87112 0
M  V30 5380 C 515.941 0.722507 -1.81767 0
M  V30 5381 O 517.147 1.13265 -2.46746 0
M  V30 5382 C 515.603 -1.29695 -3.35719 0
M  V30 5383 C 515.211 -2.80184 -3.49572 0
M  V30 5384 C 516.955 -1.07759 -4.10595 0
M  V30 5385 C 514.862 -3.2788 -4.92187 0
M  V30 5386 H 513.792 -0.278034 -0.700866 0
M  V30 5387 H 516.443 -1.26637 -1.32798 0
M  V30 5388 H 514.825 -0.711522 -3.89555 0
M  V30 5389 H 515.999 -3.44561 -3.05965 0
M  V30 5390 H 514.314 -3.00632 -2.88113 0
M  V30 5391 H 516.911 -1.40899 -5.15802 0
M  V30 5392 H 517.254 -0.0152302 -4.16297 0
M  V30 5393 H 517.787 -1.62809 -3.62957 0
M  V30 5394 H 514.526 -4.33535 -4.91658 0
M  V30 5395 H 514.046 -2.68245 -5.36475 0
M  V30 5396 H 515.725 -3.22412 -5.60945 0
M  V30 5397 N 515.857 1.33968 -0.830081 0
M  V30 5398 C 517.104 1.98063 -0.421566 0
M  V30 5399 C 517.432 1.65787 1.0171 0
M  V30 5400 O 516.687 0.925348 1.72441 0
M  V30 5401 C 516.986 3.52679 -0.57898 0
M  V30 5402 C 516.652 4.04884 -1.98443 0
M  V30 5403 C 515.314 4.18852 -2.36888 0
M  V30 5404 C 517.666 4.32879 -2.90285 0
M  V30 5405 C 514.994 4.58145 -3.66497 0
M  V30 5406 C 517.346 4.7362 -4.19364 0
M  V30 5407 C 516.01 4.85794 -4.57778 0
M  V30 5408 H 515.28 0.724765 -0.154262 0
M  V30 5409 H 517.927 1.59792 -1.05541 0
M  V30 5410 H 516.232 3.91556 0.138219 0
M  V30 5411 H 517.929 4.00261 -0.243317 0
M  V30 5412 H 514.519 3.9448 -1.67581 0
M  V30 5413 H 518.703 4.21619 -2.61823 0
M  V30 5414 H 513.959 4.65762 -3.96075 0
M  V30 5415 H 518.133 4.9424 -4.90612 0
M  V30 5416 H 515.76 5.15998 -5.58256 0
M  V30 5417 N 517.335 0.585699 1.46312 0
M  V30 5418 C 518.612 0.00542031 1.95599 0
M  V30 5419 C 518.992 -1.45619 1.52834 0
M  V30 5420 O 518.34 -2.14759 0.780446 0
M  V30 5421 C 518.55 0.180601 3.48532 0
M  V30 5422 C 519.898 0.049979 4.24571 0
M  V30 5423 O 520.922 0.109589 3.56031 0
M  V30 5424 O 519.781 -0.0832226 5.46437 0
M  V30 5425 H 516.875 -0.0481281 0.825598 0
M  V30 5426 H 519.421 0.654227 1.56582 0
M  V30 5427 H 518.193 1.19657 3.72556 0
M  V30 5428 H 517.816 -0.504498 3.94386 0
M  V30 5429 N 518.813 -1.54241 0.323641 0
M  V30 5430 C 520.059 -2.00867 -0.279323 0
M  V30 5431 C 520.392 -1.21146 -1.5178 0
M  V30 5432 O 519.667 -0.29378 -1.92269 0
M  V30 5433 C 519.95 -3.54837 -0.613387 0
M  V30 5434 C 519.803 -4.45284 0.635803 0
M  V30 5435 C 521.122 -4.16186 -1.43099 0
M  V30 5436 H 518.241 -0.730177 -0.100049 0
M  V30 5437 H 520.883 -1.84829 0.440235 0
M  V30 5438 H 519.033 -3.68634 -1.22641 0
M  V30 5439 H 520.705 -4.43357 1.27406 0
M  V30 5440 H 518.948 -4.14956 1.26466 0
M  V30 5441 H 519.619 -5.5084 0.357597 0
M  V30 5442 H 522.095 -4.05964 -0.912814 0
M  V30 5443 H 520.971 -5.24031 -1.6335 0
M  V30 5444 H 521.232 -3.69516 -2.42715 0
M  V30 5445 N 520.291 -0.0518155 -1.57515 0
M  V30 5446 C 521.707 0.304735 -1.56664 0
M  V30 5447 C 521.907 1.71395 -1.05953 0
M  V30 5448 O 520.963 2.42123 -0.716414 0
M  V30 5449 C 522.276 0.132614 -3.00407 0
M  V30 5450 C 523.824 0.20367 -3.12337 0
M  V30 5451 C 524.299 0.0600706 -4.57961 0
M  V30 5452 N 525.79 0.116326 -4.63054 0
M  V30 5453 C 526.525 0.0293363 -5.73392 0
M  V30 5454 N 526.021 -0.110038 -6.92713 0
M  V30 5455 N 527.814 0.0849651 -5.62036 0
M  V30 5456 H 519.965 -0.973056 -1.888 0
M  V30 5457 H 522.228 -0.377781 -0.869474 0
M  V30 5458 H 521.934 -0.839019 -3.41546 0
M  V30 5459 H 521.808 0.893376 -3.66468 0
M  V30 5460 H 524.195 1.16578 -2.71097 0
M  V30 5461 H 524.276 -0.587857 -2.48954 0
M  V30 5462 H 523.92 -0.898715 -4.99886 0
M  V30 5463 H 523.85 0.87075 -5.19351 0
M  V30 5464 H 526.341 0.22327 -3.7724 0
M  V30 5465 H 526.654 -0.169104 -7.72615 0
M  V30 5466 H 524.999 -0.145132 -6.94848 0
M  V30 5467 H 528.19 0.192411 -4.67704 0
M  V30 5468 H 528.363 0.0137131 -6.47999 0
M  V30 5469 N 521.769 1.56035 0.221574 0
M  V30 5470 C 523.016 1.79047 0.94597 0
M  V30 5471 C 523.344 0.62057 1.84334 0
M  V30 5472 O 522.599 -0.395053 1.91671 0
M  V30 5473 C 522.898 3.07813 1.8162 0
M  V30 5474 C 522.564 4.3797 1.07206 0
M  V30 5475 C 521.226 4.73334 0.866508 0
M  V30 5476 C 523.578 5.18326 0.546565 0
M  V30 5477 C 520.906 5.8657 0.123549 0
M  V30 5478 C 523.258 6.32335 -0.18305 0
M  V30 5479 C 521.922 6.66301 -0.399861 0
M  V30 5480 H 521.192 0.655178 0.346155 0
M  V30 5481 H 523.839 1.90299 0.214146 0
M  V30 5482 H 522.144 2.91682 2.61589 0
M  V30 5483 H 523.841 3.2282 2.37884 0
M  V30 5484 H 520.431 4.10202 1.24226 0
M  V30 5485 H 524.615 4.9144 0.692847 0
M  V30 5486 H 519.871 6.11376 -0.0546591 0
M  V30 5487 H 524.045 6.9383 -0.59775 0
M  V30 5488 H 521.672 7.53889 -0.977489 0
M  V30 5489 N 523.247 -0.488276 1.49845 0
M  V30 5490 C 524.179 -1.60539 1.63584 0
M  V30 5491 C 525.192 -1.5434 0.517972 0
M  V30 5492 O 526.381 -1.60041 0.790516 0
M  V30 5493 C 523.481 -2.99374 1.58835 0
M  V30 5494 C 522.654 -3.30624 2.86368 0
M  V30 5495 C 521.713 -4.4893 2.74496 0
M  V30 5496 O 520.739 -4.50085 3.48443 0
M  V30 5497 N 521.941 -5.49591 1.86894 0
M  V30 5498 H 524.706 -1.49176 2.59936 0
M  V30 5499 H 522.267 -0.67639 1.47094 0
M  V30 5500 H 524.259 -3.76459 1.48529 0
M  V30 5501 H 522.829 -3.04595 0.702892 0
M  V30 5502 H 522.049 -2.42314 3.1093 0
M  V30 5503 H 523.337 -3.48305 3.70892 0
M  V30 5504 H 522.735 -5.51467 1.26097 0
M  V30 5505 H 521.292 -6.25728 1.82503 0
M  V30 5506 N 524.725 -1.39134 -0.740242 0
M  V30 5507 C 525.973 -1.35803 -1.49673 0
M  V30 5508 C 526.294 0.0470897 -1.94943 0
M  V30 5509 O 525.564 0.997347 -1.68611 0
M  V30 5510 H 524.144 -0.499736 -0.555224 0
M  V30 5511 H 526.806 -1.73947 -0.879107 0
M  V30 5512 H 525.902 -2.0174 -2.38133 0
M  V30 5513 N 526.204 0.969867 -1.24223 0
M  V30 5514 C 527.114 2.09806 -1.0497 0
M  V30 5515 C 528.13 1.73998 0.00886455 0
M  V30 5516 O 529.306 2.00513 -0.188848 0
M  V30 5517 C 526.371 3.40467 -0.654452 0
M  V30 5518 C 525.432 3.90236 -1.78926 0
M  V30 5519 C 524.665 5.14662 -1.41277 0
M  V30 5520 O 524.888 5.69602 -0.301632 0
M  V30 5521 O 523.822 5.58761 -2.23763 0
M  V30 5522 H 527.648 2.28942 -1.99548 0
M  V30 5523 H 525.233 1.08197 -1.03023 0
M  V30 5524 H 527.115 4.19039 -0.445452 0
M  V30 5525 H 525.79 3.22636 0.262216 0
M  V30 5526 H 524.697 3.12735 -2.05299 0
M  V30 5527 H 526.03 4.1254 -2.68462 0
M  V30 5528 N 527.682 1.05563 1.17022 0
M  V30 5529 C 529.098 0.777684 1.39371 0
M  V30 5530 C 529.298 -0.626269 1.91521 0
M  V30 5531 O 528.354 -1.38806 2.10924 0
M  V30 5532 C 529.667 1.83642 2.3811 0
M  V30 5533 C 531.215 1.85907 2.51809 0
M  V30 5534 C 531.69 2.90813 3.53824 0
M  V30 5535 N 533.181 2.898 3.61345 0
M  V30 5536 C 533.916 3.6762 4.40049 0
M  V30 5537 N 533.412 4.55237 5.22237 0
M  V30 5538 N 535.205 3.56044 4.34959 0
M  V30 5539 H 527.356 1.9614 0.815047 0
M  V30 5540 H 529.619 0.849527 0.420722 0
M  V30 5541 H 529.325 2.84425 2.06871 0
M  V30 5542 H 529.199 1.6812 3.37662 0
M  V30 5543 H 531.586 0.857865 2.82356 0
M  V30 5544 H 531.667 2.05506 1.52318 0
M  V30 5545 H 531.311 3.91122 3.24015 0
M  V30 5546 H 531.241 2.68465 4.53028 0
M  V30 5547 H 533.732 2.26274 3.02669 0
M  V30 5548 H 534.045 5.11291 5.79484 0
M  V30 5549 H 532.39 4.59296 5.21605 0
M  V30 5550 H 535.581 2.86986 3.69806 0
M  V30 5551 H 535.754 4.16938 4.96051 0
M  V30 5552 N 529.16 -1.33526 0.837174 0
M  V30 5553 C 530.09 -2.31764 0.284206 0
M  V30 5554 C 531.071 -1.58896 -0.607142 0
M  V30 5555 O 532.256 -1.86798 -0.531047 0
M  V30 5556 C 529.386 -3.43029 -0.542962 0
M  V30 5557 C 528.34 -4.27255 0.252451 0
M  V30 5558 C 527.666 -5.3012 -0.69836 0
M  V30 5559 C 528.966 -5.01229 1.46858 0
M  V30 5560 H 530.66 -2.78262 1.10502 0
M  V30 5561 H 528.206 -1.3378 0.532812 0
M  V30 5562 H 530.159 -4.1078 -0.940096 0
M  V30 5563 H 528.883 -2.95216 -1.39697 0
M  V30 5564 H 527.542 -3.61127 0.631124 0
M  V30 5565 H 527.19 -4.78564 -1.54872 0
M  V30 5566 H 526.89 -5.87353 -0.170274 0
M  V30 5567 H 528.414 -6.00737 -1.09305 0
M  V30 5568 H 529.828 -5.61756 1.14469 0
M  V30 5569 H 528.225 -5.68104 1.93333 0
M  V30 5570 H 529.295 -4.301 2.23924 0
M  V30 5571 N 530.638 -0.59345 -1.46 0
M  V30 5572 C 531.884 -0.0832754 -2.02629 0
M  V30 5573 C 532.217 1.27749 -1.46266 0
M  V30 5574 O 531.492 1.8395 -0.631866 0
M  V30 5575 C 531.775 -0.0290756 -3.60088 0
M  V30 5576 C 531.628 -1.41951 -4.26814 0
M  V30 5577 C 532.947 0.666055 -4.35031 0
M  V30 5578 H 530.066 -0.031736 -0.736316 0
M  V30 5579 H 532.708 -0.762711 -1.74019 0
M  V30 5580 H 530.858 0.549532 -3.84594 0
M  V30 5581 H 532.53 -2.04411 -4.13538 0
M  V30 5582 H 530.773 -1.98422 -3.8576 0
M  V30 5583 H 531.444 -1.33395 -5.3564 0
M  V30 5584 H 533.92 0.174401 -4.15734 0
M  V30 5585 H 532.796 0.673041 -5.44758 0
M  V30 5586 H 533.057 1.72946 -4.06869 0
M  V30 5587 N 532.116 1.54067 -0.331816 0
M  V30 5588 C 533.346 2.04833 0.269605 0
M  V30 5589 C 533.754 1.20714 1.45687 0
M  V30 5590 O 533.097 0.232539 1.82222 0
M  V30 5591 C 533.159 3.51386 0.759499 0
M  V30 5592 C 532.823 4.55971 -0.306557 0
M  V30 5593 C 533.82 5.07126 -1.14538 0
M  V30 5594 C 531.505 5.00216 -0.457116 0
M  V30 5595 C 533.499 6.01096 -2.12042 0
M  V30 5596 C 531.186 5.93999 -1.43556 0
M  V30 5597 C 532.184 6.44326 -2.26568 0
M  V30 5598 O 531.872 7.36267 -3.22749 0
M  V30 5599 H 531.604 0.673509 0.0579763 0
M  V30 5600 H 534.158 1.99748 -0.478521 0
M  V30 5601 H 532.388 3.53896 1.55867 0
M  V30 5602 H 534.077 3.85184 1.28017 0
M  V30 5603 H 534.843 4.73716 -1.04009 0
M  V30 5604 H 530.722 4.60652 0.179142 0
M  V30 5605 H 534.266 6.40302 -2.76873 0
M  V30 5606 H 530.163 6.26825 -1.54146 0
M  V30 5607 H 530.931 7.54165 -3.18083 0
M  V30 5608 N 533.594 0.0601682 1.57485 0
M  V30 5609 C 534.504 -0.926121 2.15546 0
M  V30 5610 C 535.52 -1.33532 1.11558 0
M  V30 5611 O 536.696 -1.4104 1.4377 0
M  V30 5612 C 533.761 -2.17952 2.69625 0
M  V30 5613 C 532.822 -1.82783 3.88444 0
M  V30 5614 C 532.055 -3.02148 4.39935 0
M  V30 5615 O 532.278 -4.15803 3.90466 0
M  V30 5616 O 531.212 -2.82639 5.31412 0
M  V30 5617 H 535.038 -0.462289 3.00161 0
M  V30 5618 H 532.623 -0.162246 1.48516 0
M  V30 5619 H 534.505 -2.91474 3.04337 0
M  V30 5620 H 533.18 -2.63456 1.88077 0
M  V30 5621 H 532.087 -1.06549 3.58606 0
M  V30 5622 H 533.42 -1.42072 4.7125 0
M  V30 5623 N 535.072 -1.5615 -0.213296 0
M  V30 5624 C 536.321 -1.78743 -0.93455 0
M  V30 5625 C 536.634 -0.630199 -1.8517 0
M  V30 5626 O 537.84 -0.739966 -2.61222 0
M  V30 5627 C 536.296 -3.16571 -1.71203 0
M  V30 5628 C 535.904 -4.40043 -0.840617 0
M  V30 5629 C 537.648 -3.48485 -2.42401 0
M  V30 5630 C 535.555 -5.68895 -1.61592 0
M  V30 5631 H 534.485 -0.666426 -0.352692 0
M  V30 5632 H 537.136 -1.82532 -0.188227 0
M  V30 5633 H 535.518 -3.06981 -2.50157 0
M  V30 5634 H 536.692 -4.6071 -0.0910326 0
M  V30 5635 H 535.007 -4.15706 -0.240365 0
M  V30 5636 H 537.604 -4.41983 -3.00924 0
M  V30 5637 H 537.947 -2.71371 -3.15695 0
M  V30 5638 H 538.48 -3.59442 -1.7043 0
M  V30 5639 H 535.219 -6.48925 -0.926106 0
M  V30 5640 H 534.739 -5.52275 -2.33991 0
M  V30 5641 H 536.418 -6.09365 -2.17447 0
M  V30 5642 N 536.55 0.480323 -1.50102 0
M  V30 5643 C 537.775 1.26126 -1.64642 0
M  V30 5644 C 538.2 1.85257 -0.325823 0
M  V30 5645 O 537.558 1.66854 0.709194 0
M  V30 5646 C 537.606 2.35243 -2.73301 0
M  V30 5647 O 536.71 3.39646 -2.33911 0
M  V30 5648 H 536.051 0.371463 -0.550374 0
M  V30 5649 H 538.581 0.572696 -1.96421 0
M  V30 5650 H 538.591 2.80695 -2.96098 0
M  V30 5651 H 537.266 1.91574 -3.6915 0
M  V30 5652 H 535.843 2.99969 -2.21525 0
M  V30 5653 N 538.028 1.39524 0.732853 0
M  V30 5654 C 538.958 1.41153 1.86005 0
M  V30 5655 C 539.939 0.274614 1.67869 0
M  V30 5656 O 541.124 0.480745 1.88155 0
M  V30 5657 C 538.254 1.25638 3.23778 0
M  V30 5658 C 537.208 2.36752 3.56556 0
M  V30 5659 C 536.534 2.06326 4.93289 0
M  V30 5660 C 537.834 3.79069 3.5931 0
M  V30 5661 H 539.528 2.35484 1.84899 0
M  V30 5662 H 537.074 1.13348 0.888162 0
M  V30 5663 H 539.027 1.25398 4.0231 0
M  V30 5664 H 537.751 0.277772 3.25417 0
M  V30 5665 H 536.41 2.36213 2.80355 0
M  V30 5666 H 536.058 1.06897 4.9151 0
M  V30 5667 H 535.758 2.80757 5.16187 0
M  V30 5668 H 537.282 2.07739 5.74175 0
M  V30 5669 H 538.696 3.81526 4.27914 0
M  V30 5670 H 537.093 4.52878 3.93728 0
M  V30 5671 H 538.163 4.09893 2.59068 0
M  V30 5672 N 539.506 -0.963266 1.24736 0
M  V30 5673 C 540.438 -2.06162 1.0015 0
M  V30 5674 C 541.451 -1.62771 -0.0305905 0
M  V30 5675 O 542.64 -1.77296 0.206966 0
M  V30 5676 C 539.74 -3.35333 0.490385 0
M  V30 5677 C 538.913 -4.07609 1.58663 0
M  V30 5678 C 537.972 -5.15052 1.0774 0
M  V30 5679 O 536.998 -5.4098 1.77002 0
M  V30 5680 N 538.2 -5.80436 -0.0858605 0
M  V30 5681 H 540.965 -2.27825 1.94719 0
M  V30 5682 H 538.526 -1.13121 1.15825 0
M  V30 5683 H 540.518 -4.04477 0.134371 0
M  V30 5684 H 539.088 -3.10507 -0.361155 0
M  V30 5685 H 538.308 -3.32681 2.11463 0
M  V30 5686 H 539.596 -4.52656 2.32336 0
M  V30 5687 H 538.994 -5.6178 -0.664806 0
M  V30 5688 H 537.551 -6.50674 -0.382981 0
M  V30 5689 N 540.985 -1.06182 -1.16461 0
M  V30 5690 C 541.895 -0.682671 -2.24448 0
M  V30 5691 C 542.911 0.30078 -1.71381 0
M  V30 5692 O 544.087 0.150376 -2.00838 0
M  V30 5693 C 541.152 -0.0737202 -3.46622 0
M  V30 5694 C 540.213 -1.10889 -4.14731 0
M  V30 5695 C 539.446 -0.528908 -5.31073 0
M  V30 5696 O 539.669 0.65868 -5.66584 0
M  V30 5697 O 538.603 -1.26805 -5.88391 0
M  V30 5698 H 542.429 -1.58291 -2.59187 0
M  V30 5699 H 540.014 -0.834013 -1.23954 0
M  V30 5700 H 541.896 0.264192 -4.20571 0
M  V30 5701 H 540.571 0.800015 -3.13658 0
M  V30 5702 H 539.478 -1.49896 -3.42756 0
M  V30 5703 H 540.811 -1.95412 -4.51747 0
M  V30 5704 N 542.463 1.3308 -0.844243 0
M  V30 5705 C 543.426 2.27403 -0.286485 0
M  V30 5706 C 544.426 1.51179 0.547872 0
M  V30 5707 O 545.616 1.70421 0.360886 0
M  V30 5708 C 542.748 3.35653 0.595813 0
M  V30 5709 H 543.941 2.78248 -1.11885 0
M  V30 5710 H 541.494 1.43574 -0.617749 0
M  V30 5711 H 542.229 2.90058 1.4504 0
M  V30 5712 H 542.014 3.921 -0.00125994 0
M  V30 5713 H 543.504 4.05958 0.979168 0
M  V30 5714 N 543.941 0.601185 1.45683 0
M  V30 5715 C 544.871 -0.108824 2.33246 0
M  V30 5716 C 545.852 -0.865223 1.46451 0
M  V30 5717 O 547.037 -0.83704 1.75235 0
M  V30 5718 C 544.167 -1.11101 3.2905 0
M  V30 5719 C 543.121 -0.468244 4.25431 0
M  V30 5720 C 542.447 -1.57822 5.10878 0
M  V30 5721 C 543.747 0.606469 5.18767 0
M  V30 5722 H 545.441 0.622306 2.92861 0
M  V30 5723 H 542.987 0.300714 1.40825 0
M  V30 5724 H 544.94 -1.61622 3.89174 0
M  V30 5725 H 543.664 -1.87265 2.67581 0
M  V30 5726 H 542.323 0.0160484 3.66596 0
M  V30 5727 H 541.971 -2.32998 4.45781 0
M  V30 5728 H 541.671 -1.15369 5.76163 0
M  V30 5729 H 543.195 -2.08583 5.73869 0
M  V30 5730 H 544.609 0.185589 5.73 0
M  V30 5731 H 543.006 0.952381 5.92494 0
M  V30 5732 H 544.076 1.48559 4.61582 0
M  V30 5733 N 545.419 -1.53889 0.339982 0
M  V30 5734 C 546.382 -2.23547 -0.50592 0
M  V30 5735 C 547.382 -1.23445 -1.03044 0
M  V30 5736 O 548.572 -1.47909 -0.920253 0
M  V30 5737 C 545.704 -2.95234 -1.7044 0
M  V30 5738 H 546.897 -2.99722 0.103247 0
M  V30 5739 H 544.45 -1.56033 0.0912804 0
M  V30 5740 H 545.185 -2.23236 -2.35236 0
M  V30 5741 H 544.97 -3.68654 -1.33553 0
M  V30 5742 H 546.46 -3.48258 -2.30447 0
M  V30 5743 N 546.897 -0.0685191 -1.57451 0
M  V30 5744 C 548.146 0.600898 -1.92541 0
M  V30 5745 C 548.459 1.70967 -0.950239 0
M  V30 5746 O 549.665 2.43844 -1.19384 0
M  V30 5747 C 548.121 1.12019 -3.42023 0
M  V30 5748 C 547.729 0.0426028 -4.4798 0
M  V30 5749 C 549.473 1.76386 -3.86119 0
M  V30 5750 C 547.38 0.575759 -5.88591 0
M  V30 5751 H 546.31 0.228225 -0.71863 0
M  V30 5752 H 548.961 -0.140223 -1.82963 0
M  V30 5753 H 547.343 1.91418 -3.46663 0
M  V30 5754 H 548.517 -0.73182 -4.54952 0
M  V30 5755 H 546.832 -0.504642 -4.13331 0
M  V30 5756 H 549.429 2.17302 -4.88553 0
M  V30 5757 H 549.772 2.62255 -3.23308 0
M  V30 5758 H 550.305 1.03615 -3.84069 0
M  V30 5759 H 547.044 -0.245691 -6.55039 0
M  V30 5760 H 546.564 1.31778 -5.85145 0
M  V30 5761 H 548.243 1.0532 -6.3837 0
M  V30 5762 N 548.375 1.56261 0.205012 0
M  V30 5763 C 549.605 1.83874 0.942018 0
M  V30 5764 C 550.013 0.647595 1.77772 0
M  V30 5765 O 549.356 -0.393098 1.79445 0
M  V30 5766 C 549.418 3.05453 1.89575 0
M  V30 5767 C 549.082 4.39772 1.24296 0
M  V30 5768 C 550.079 5.16133 0.624724 0
M  V30 5769 C 547.764 4.86504 1.24978 0
M  V30 5770 C 549.758 6.37396 0.0220117 0
M  V30 5771 C 547.445 6.07705 0.643232 0
M  V30 5772 C 548.443 6.82993 0.0304164 0
M  V30 5773 O 548.131 8.019 -0.566654 0
M  V30 5774 H 547.863 0.614896 0.280854 0
M  V30 5775 H 550.417 2.04215 0.220285 0
M  V30 5776 H 548.647 2.80972 2.65691 0
M  V30 5777 H 550.336 3.19797 2.4997 0
M  V30 5778 H 551.102 4.81127 0.611666 0
M  V30 5779 H 546.981 4.27865 1.71616 0
M  V30 5780 H 550.525 6.96102 -0.456926 0
M  V30 5781 H 546.422 6.42181 0.653759 0
M  V30 5782 H 547.19 8.17192 -0.462588 0
M  V30 5783 N 549.853 -0.472356 1.50355 0
M  V30 5784 C 551.101 -1.22211 1.60962 0
M  V30 5785 C 551.422 -1.92497 0.311439 0
M  V30 5786 O 550.692 -1.8405 -0.671002 0
M  V30 5787 H 549.272 -0.454092 0.593135 0
M  V30 5788 H 551.934 -0.544977 1.87126 0
M  V30 5789 H 551.03 -1.9707 2.42012 0
M  V30 5790 N 551.331 -1.39911 -0.725443 0
M  V30 5791 C 552.579 -1.37382 -1.48224 0
M  V30 5792 C 552.9 0.0264107 -1.94982 0
M  V30 5793 O 552.17 0.979408 -1.6966 0
M  V30 5794 H 550.75 -0.505596 -0.549892 0
M  V30 5795 H 553.412 -1.7487 -0.860608 0
M  V30 5796 H 552.508 -2.04254 -2.3598 0
M  V30 5797 N 552.809 0.956637 -1.25245 0
M  V30 5798 C 553.757 2.0743 -1.0524 0
M  V30 5799 C 554.751 1.69392 0.0160725 0
M  V30 5800 O 555.957 1.7946 -0.139382 0
M  V30 5801 H 552.332 0.678921 -0.323373 0
M  V30 5802 H 554.303 2.2146 -1.99995 0
M  V30 5803 C 553.052 3.40872 -0.685702 0
M  V30 5804 H 552.375 3.70607 -1.49968 0
M  V30 5805 H 553.815 4.19939 -0.585415 0
M  V30 5806 C 552.274 3.31367 0.608082 0
M  V30 5807 O 552.804 3.66214 1.65076 0
M  V30 5808 N 551.01 2.84486 0.592955 0
M  V30 5809 H 550.557 2.56326 -0.25592 0
M  V30 5810 H 550.515 2.78509 1.45877 0
M  V30 5811 N 554.287 1.06798 1.15896 0
M  V30 5812 C 555.512 0.808739 1.90982 0
M  V30 5813 C 555.937 -0.6316 1.77179 0
M  V30 5814 O 555.295 -1.4407 1.10061 0
M  V30 5815 C 555.343 1.21468 3.39526 0
M  V30 5816 O 554.447 0.356562 4.10856 0
M  V30 5817 H 553.788 0.29512 0.594811 0
M  V30 5818 H 556.318 1.42513 1.46804 0
M  V30 5819 H 556.328 1.18844 3.90308 0
M  V30 5820 H 555.003 2.26379 3.48891 0
M  V30 5821 H 553.58 0.444808 3.70238 0
M  V30 5822 N 555.766 -1.3263 0.851289 0
M  V30 5823 C 557.177 -1.79653 0.5081 0
M  V30 5824 C 557.528 -1.70327 -0.973815 0
M  V30 5825 O 556.653 -1.25986 -1.75944 0
M  V30 5826 C 557.248 -3.26196 0.915515 0
M  V30 5827 C 555.807 -3.71187 0.624277 0
M  V30 5828 C 554.954 -2.53804 1.11709 0
M  V30 5829 H 557.905 -1.19976 1.03882 0
M  V30 5830 H 557.926 -3.79801 0.230535 0
M  V30 5831 H 557.438 -3.32952 1.99411 0
M  V30 5832 H 555.539 -3.69948 -0.443737 0
M  V30 5833 H 555.652 -4.64132 1.18821 0
M  V30 5834 H 554.016 -2.48964 0.537484 0
M  V30 5835 H 554.799 -2.63315 2.20272 0
M  V30 5836 N 557.244 -0.608902 -1.45362 0
M  V30 5837 C 558.207 0.0992563 -2.28985 0
M  V30 5838 C 559.207 0.793841 -1.39838 0
M  V30 5839 O 560.397 0.641804 -1.61946 0
M  V30 5840 C 557.529 1.15073 -3.20891 0
M  V30 5841 H 558.722 -0.635964 -2.93079 0
M  V30 5842 H 556.275 -0.368007 -1.51906 0
M  V30 5843 H 557.01 1.91667 -2.616 0
M  V30 5844 H 556.795 0.656867 -3.86559 0
M  V30 5845 H 558.285 1.64665 -3.83765 0
M  V30 5846 N 558.722 1.53707 -0.348139 0
M  V30 5847 C 559.685 2.23812 0.494058 0
M  V30 5848 C 560.685 1.23989 1.02388 0
M  V30 5849 O 561.875 1.48395 0.912396 0
M  V30 5850 C 559.007 2.96133 1.68872 0
M  V30 5851 H 560.2 2.99663 -0.119141 0
M  V30 5852 H 557.753 1.55983 -0.0995539 0
M  V30 5853 H 558.488 2.24481 2.34049 0
M  V30 5854 H 558.273 3.69357 1.31596 0
M  V30 5855 H 559.763 3.49475 2.28597 0
M  V30 5856 N 560.2 0.0768682 1.57412 0
M  V30 5857 C 561.133 -0.924685 2.08626 0
M  V30 5858 C 562.111 -1.28792 0.992542 0
M  V30 5859 O 563.295 -1.39634 1.26628 0
M  V30 5860 C 560.422 -2.23131 2.54814 0
M  V30 5861 C 559.468 -2.01928 3.75669 0
M  V30 5862 S 560.301 -1.27397 5.20125 0
M  V30 5863 C 561.457 -2.59329 5.69648 0
M  V30 5864 H 561.69 -0.488928 2.93252 0
M  V30 5865 H 559.223 -0.136014 1.538 0
M  V30 5866 H 561.181 -2.98226 2.82084 0
M  V30 5867 H 559.842 -2.63831 1.70447 0
M  V30 5868 H 559.035 -2.98639 4.05993 0
M  V30 5869 H 558.637 -1.34967 3.48798 0
M  V30 5870 H 560.929 -3.55394 5.76803 0
M  V30 5871 H 561.872 -2.33608 6.68456 0
M  V30 5872 H 562.28 -2.66767 4.9749 0
M  V30 5873 N 561.678 -1.56367 -0.196722 0
M  V30 5874 C 562.906 -1.84639 -0.933608 0
M  V30 5875 C 563.321 -0.659164 -1.76919 0
M  V30 5876 O 562.678 0.372142 -1.78665 0
M  V30 5877 C 562.729 -3.11694 -1.83109 0
M  V30 5878 O 562.45 -4.25838 -1.02924 0
M  V30 5879 C 563.951 -3.53132 -2.67979 0
M  V30 5880 H 561.171 -0.613188 -0.272473 0
M  V30 5881 H 563.715 -2.03475 -0.204465 0
M  V30 5882 H 561.87 -2.94759 -2.51387 0
M  V30 5883 H 562.284 -4.98178 -1.64069 0
M  V30 5884 H 563.758 -4.45005 -3.26611 0
M  V30 5885 H 564.235 -2.76045 -3.41608 0
M  V30 5886 H 564.841 -3.72592 -2.05074 0
M  V30 5887 N 563.156 0.464375 -1.50603 0
M  V30 5888 C 564.384 1.23907 -1.65695 0
M  V30 5889 C 564.799 1.85658 -0.343027 0
M  V30 5890 O 564.156 1.69529 0.675739 0
M  V30 5891 C 564.207 2.3429 -2.75301 0
M  V30 5892 O 563.928 1.7507 -4.01599 0
M  V30 5893 C 565.429 3.25051 -3.01424 0
M  V30 5894 H 562.649 0.374485 -0.556778 0
M  V30 5895 H 565.193 0.55353 -1.96866 0
M  V30 5896 H 563.348 2.98607 -2.46804 0
M  V30 5897 H 563.762 2.47812 -4.62266 0
M  V30 5898 H 565.236 3.98699 -3.81763 0
M  V30 5899 H 565.713 3.84227 -2.12758 0
M  V30 5900 H 566.319 2.66463 -3.31477 0
M  V30 5901 N 564.634 1.40294 0.718013 0
M  V30 5902 C 566.05 1.2227 1.02577 0
M  V30 5903 C 566.25 0.0961976 2.0127 0
M  V30 5904 O 565.306 -0.546695 2.46511 0
M  V30 5905 C 566.619 2.56348 1.57182 0
M  V30 5906 C 568.167 2.6334 1.69178 0
M  V30 5907 C 568.642 3.9768 2.27188 0
M  V30 5908 N 570.133 3.99409 2.34578 0
M  V30 5909 C 570.868 5.00141 2.8044 0
M  V30 5910 N 570.364 6.11268 3.26073 0
M  V30 5911 N 572.157 4.87511 2.79802 0
M  V30 5912 H 564.308 2.12304 0.0637899 0
M  V30 5913 H 566.571 0.943632 0.0909036 0
M  V30 5914 H 566.277 3.3942 0.921262 0
M  V30 5915 H 566.151 2.77266 2.55741 0
M  V30 5916 H 568.538 1.80641 2.33351 0
M  V30 5917 H 568.619 2.46255 0.692247 0
M  V30 5918 H 568.263 4.80817 1.63638 0
M  V30 5919 H 568.193 4.12093 3.27852 0
M  V30 5920 H 570.684 3.19162 2.02346 0
M  V30 5921 H 570.997 6.84023 3.59628 0
M  V30 5922 H 569.342 6.14837 3.24038 0
M  V30 5923 H 572.533 3.9979 2.43487 0
M  V30 5924 H 572.706 5.66158 3.15228 0
M  V30 5925 N 566.112 -0.949982 1.2575 0
M  V30 5926 C 567.342 -1.72721 1.13363 0
M  V30 5927 C 567.75 -1.86562 -0.314842 0
M  V30 5928 O 567.093 -1.36621 -1.22803 0
M  V30 5929 C 567.155 -3.15695 1.7198 0
M  V30 5930 C 566.819 -3.25268 3.21014 0
M  V30 5931 C 567.816 -3.09222 4.17945 0
M  V30 5932 C 565.501 -3.4894 3.61312 0
M  V30 5933 C 567.495 -3.16701 5.53154 0
M  V30 5934 C 565.182 -3.56055 4.96657 0
M  V30 5935 C 566.18 -3.3995 5.92387 0
M  V30 5936 O 565.868 -3.46757 7.25269 0
M  V30 5937 H 565.6 -0.547888 0.395973 0
M  V30 5938 H 568.154 -1.20009 1.66694 0
M  V30 5939 H 566.384 -3.69791 1.13101 0
M  V30 5940 H 568.073 -3.75295 1.54624 0
M  V30 5941 H 568.839 -2.90798 3.88151 0
M  V30 5942 H 564.718 -3.60534 2.87291 0
M  V30 5943 H 568.262 -3.04048 6.27854 0
M  V30 5944 H 564.159 -3.73997 5.26115 0
M  V30 5945 H 564.927 -3.63358 7.33426 0
M  V30 5946 N 567.59 -1.07411 -1.15328 0
M  V30 5947 C 568.836 -0.798831 -1.86404 0
M  V30 5948 C 569.169 0.673433 -1.8215 0
M  V30 5949 O 568.444 1.49428 -1.24505 0
M  V30 5950 C 568.727 -1.30846 -3.35487 0
M  V30 5951 C 568.58 -2.84532 -3.4837 0
M  V30 5952 C 569.899 -0.925486 -4.30259 0
M  V30 5953 H 567.018 -0.291659 -0.676834 0
M  V30 5954 H 569.66 -1.332 -1.35491 0
M  V30 5955 H 567.81 -0.854916 -3.78977 0
M  V30 5956 H 569.482 -3.3818 -3.13739 0
M  V30 5957 H 567.725 -3.22699 -2.8991 0
M  V30 5958 H 568.396 -3.15259 -4.53118 0
M  V30 5959 H 570.872 -1.3163 -3.94731 0
M  V30 5960 H 569.748 -1.3094 -5.33053 0
M  V30 5961 H 570.009 0.168525 -4.41779 0
M  V30 5962 N 569.068 1.32177 -0.85831 0
M  V30 5963 C 570.345 1.91781 -0.384624 0
M  V30 5964 C 570.725 1.78171 1.13217 0
M  V30 5965 O 570.073 1.18209 1.95548 0
M  V30 5966 C 570.283 3.38414 -0.853047 0
M  V30 5967 C 571.631 4.15542 -0.872359 0
M  V30 5968 O 572.655 3.47148 -0.797926 0
M  V30 5969 O 571.514 5.37678 -0.978009 0
M  V30 5970 H 568.608 0.819259 -0.112886 0
M  V30 5971 H 571.154 1.40923 -0.945453 0
M  V30 5972 H 569.926 3.4228 -1.89632 0
M  V30 5973 H 569.549 3.96683 -0.269874 0
M  V30 5974 N 570.547 0.616602 1.45037 0
M  V30 5975 C 571.795 0.115103 2.01772 0
M  V30 5976 C 572.116 -1.2622 1.48639 0
M  V30 5977 O 571.386 -1.83563 0.684199 0
M  V30 5978 H 569.966 0.0395607 0.745952 0
M  V30 5979 H 572.628 0.800032 1.77723 0
M  V30 5980 H 571.724 0.0717274 3.12018 0
M  V30 5981 N 572.025 -1.5352 0.356285 0
M  V30 5982 C 573.273 -2.00719 -0.235837 0
M  V30 5983 C 573.594 -1.24551 -1.5004 0
M  V30 5984 O 572.864 -0.356185 -1.92635 0
M  V30 5985 H 571.444 -0.741542 -0.0901366 0
M  V30 5986 H 574.106 -1.88887 0.480378 0
M  V30 5987 H 573.202 -3.08551 -0.469357 0
M  V30 5988 N 573.503 -0.0852151 -1.57369 0
M  V30 5989 C 574.75 0.580806 -1.93992 0
M  V30 5990 C 575.078 1.68801 -0.966252 0
M  V30 5991 O 574.333 1.95694 0.0158649 0
M  V30 5992 C 574.632 1.18482 -3.3719 0
M  V30 5993 C 574.298 0.2024 -4.50446 0
M  V30 5994 C 572.96 -0.0678318 -4.81152 0
M  V30 5995 C 575.312 -0.46895 -5.19086 0
M  V30 5996 C 572.64 -1.01627 -5.77831 0
M  V30 5997 C 574.992 -1.4058 -6.16782 0
M  V30 5998 C 573.656 -1.68436 -6.45899 0
M  V30 5999 H 572.926 0.212532 -0.709867 0
M  V30 6000 H 575.573 -0.158947 -1.90839 0
M  V30 6001 H 573.878 2.0006 -3.36873 0
M  V30 6002 H 575.575 1.70767 -3.62822 0
M  V30 6003 H 572.165 0.423208 -4.26505 0
M  V30 6004 H 576.349 -0.273307 -4.95547 0
M  V30 6005 H 571.605 -1.2392 -5.9871 0
M  V30 6006 H 575.779 -1.93188 -6.69068 0
M  V30 6007 H 573.406 -2.42088 -7.20623 0
M  V30 6008 N 574.981 1.5647 0.188427 0
M  V30 6009 C 576.229 1.80655 0.905986 0
M  V30 6010 C 576.55 0.659391 1.83513 0
M  V30 6011 O 575.82 -0.321868 1.93238 0
M  V30 6012 H 574.4 0.666391 0.337538 0
M  V30 6013 H 577.062 1.93949 0.192339 0
M  V30 6014 H 576.158 2.74066 1.49313 0
M  V30 6015 N 576.459 -0.456382 1.50847 0
M  V30 6016 C 577.392 -1.57177 1.65441 0
M  V30 6017 C 578.37 -1.54649 0.502224 0
M  V30 6018 O 579.554 -1.74057 0.723633 0
M  V30 6019 C 576.681 -2.95763 1.65052 0
M  V30 6020 C 575.727 -3.16389 2.86007 0
M  V30 6021 S 576.56 -2.94716 4.47105 0
M  V30 6022 C 577.716 -4.35617 4.49432 0
M  V30 6023 H 577.949 -1.44561 2.59787 0
M  V30 6024 H 575.482 -0.644758 1.40293 0
M  V30 6025 H 577.44 -3.75654 1.65512 0
M  V30 6026 H 576.101 -3.05756 0.719153 0
M  V30 6027 H 575.294 -4.17667 2.82081 0
M  V30 6028 H 574.896 -2.44293 2.8319 0
M  V30 6029 H 577.188 -5.28503 4.239 0
M  V30 6030 H 578.131 -4.44582 5.51137 0
M  V30 6031 H 578.539 -4.18382 3.78967 0
M  V30 6032 N 577.937 -1.40673 -0.710563 0
M  V30 6033 C 579.185 -1.38947 -1.46759 0
M  V30 6034 C 579.506 0.00572879 -1.94999 0
M  V30 6035 O 578.776 0.961358 -1.70689 0
M  V30 6036 H 577.356 -0.5114 -0.544499 0
M  V30 6037 H 580.018 -1.75773 -0.842012 0
M  V30 6038 H 579.114 -2.06745 -2.33801 0
M  V30 6039 N 579.415 0.9433 -1.26252 0
M  V30 6040 C 580.362 2.0417 -1.07625 0
M  V30 6041 C 581.332 1.6609 0.0180738 0
M  V30 6042 O 582.517 1.90276 -0.141289 0
M  V30 6043 C 579.657 3.37653 -0.713043 0
M  V30 6044 C 578.77 3.88783 -1.8834 0
M  V30 6045 C 577.905 5.10642 -1.4635 0
M  V30 6046 C 576.944 5.54028 -2.60229 0
M  V30 6047 N 576.081 6.67092 -2.18936 0
M  V30 6048 H 580.921 2.19436 -2.01623 0
M  V30 6049 H 578.458 1.07519 -1.00389 0
M  V30 6050 H 580.416 4.14391 -0.483358 0
M  V30 6051 H 579.046 3.22241 0.18996 0
M  V30 6052 H 578.098 3.08464 -2.22608 0
M  V30 6053 H 579.41 4.16922 -2.73821 0
M  V30 6054 H 578.564 5.94832 -1.19414 0
M  V30 6055 H 577.303 4.84244 -0.579568 0
M  V30 6056 H 576.308 4.68396 -2.87898 0
M  V30 6057 H 577.533 5.82429 -3.49219 0
M  V30 6058 H 575.479 6.42381 -1.32974 0
M  V30 6059 H 575.396 6.94806 -2.97961 0
M  V30 6060 H 576.664 7.54662 -1.95206 0
M  V30 6061 N 580.893 1.08022 1.14757 0
M  V30 6062 C 582.123 0.827646 1.89298 0
M  V30 6063 C 582.531 -0.623506 1.78631 0
M  V30 6064 O 581.874 -1.43991 1.14071 0
M  V30 6065 C 581.936 1.16553 3.40082 0
M  V30 6066 C 581.6 2.61866 3.74533 0
M  V30 6067 C 582.597 3.60116 3.74984 0
M  V30 6068 C 580.282 2.97619 4.04633 0
M  V30 6069 C 582.276 4.92151 4.05051 0
M  V30 6070 C 579.963 4.2985 4.34364 0
M  V30 6071 C 580.961 5.26926 4.34555 0
M  V30 6072 O 580.649 6.5678 4.63568 0
M  V30 6073 H 580.381 0.298396 0.606577 0
M  V30 6074 H 582.935 1.44187 1.46285 0
M  V30 6075 H 581.165 0.494296 3.83528 0
M  V30 6076 H 582.854 0.894407 3.95923 0
M  V30 6077 H 583.62 3.33837 3.51821 0
M  V30 6078 H 579.499 2.22702 4.03639 0
M  V30 6079 H 583.043 5.67915 4.05115 0
M  V30 6080 H 578.94 4.55879 4.56995 0
M  V30 6081 H 579.708 6.62035 4.81303 0
M  V30 6082 N 582.371 -1.3172 0.865308 0
M  V30 6083 C 583.599 -2.01057 0.488251 0
M  V30 6084 C 584.014 -1.64979 -0.918 0
M  V30 6085 O 583.371 -0.876597 -1.60069 0
M  V30 6086 C 583.422 -3.55964 0.630224 0
M  V30 6087 O 583.143 -3.90749 1.98109 0
M  V30 6088 C 584.644 -4.42574 0.253567 0
M  V30 6089 H 581.864 -0.64332 0.190736 0
M  V30 6090 H 584.408 -1.68058 1.16519 0
M  V30 6091 H 582.563 -3.874 0.000895422 0
M  V30 6092 H 582.977 -4.85467 1.9855 0
M  V30 6093 H 584.451 -5.50521 0.403875 0
M  V30 6094 H 584.928 -4.31724 -0.806895 0
M  V30 6095 H 585.534 -4.16547 0.858404 0
M  V30 6096 N 583.85 -0.624285 -1.44708 0
M  V30 6097 C 585.077 -0.132919 -2.06473 0
M  V30 6098 C 585.493 1.18967 -1.46602 0
M  V30 6099 O 584.85 1.72824 -0.586341 0
M  V30 6100 C 584.901 -0.00465418 -3.615 0
M  V30 6101 O 584.622 -1.27494 -4.19138 0
M  V30 6102 C 586.123 0.516213 -4.40284 0
M  V30 6103 H 583.343 -0.0765201 -0.666623 0
M  V30 6104 H 585.887 -0.856751 -1.85688 0
M  V30 6105 H 584.042 0.669583 -3.8157 0
M  V30 6106 H 584.456 -1.11536 -5.12504 0
M  V30 6107 H 585.93 0.554994 -5.49203 0
M  V30 6108 H 586.407 1.5419 -4.11245 0
M  V30 6109 H 587.013 -0.124542 -4.25118 0
M  V30 6110 N 585.328 1.53329 -0.364422 0
M  V30 6111 C 586.739 1.86345 0.115039 0
M  V30 6112 C 587.09 1.28505 1.4826 0
M  V30 6113 O 586.215 0.606639 2.07723 0
M  V30 6114 C 586.81 3.38114 0.215522 0
M  V30 6115 C 585.369 3.70932 0.639237 0
M  V30 6116 C 584.516 2.76471 -0.214261 0
M  V30 6117 H 587.467 1.47593 -0.583258 0
M  V30 6118 H 587.488 3.66031 1.0393 0
M  V30 6119 H 587 3.80182 -0.779948 0
M  V30 6120 H 585.101 3.3442 1.64298 0
M  V30 6121 H 585.214 4.77302 0.41465 0
M  V30 6122 H 583.578 2.52724 0.316678 0
M  V30 6123 H 584.361 3.21373 -1.20725 0
M  V30 6124 N 586.806 0.0935595 1.57322 0
M  V30 6125 C 587.736 -0.863062 2.16964 0
M  V30 6126 C 588.717 -1.29528 1.10256 0
M  V30 6127 O 589.902 -1.36245 1.38387 0
M  V30 6128 C 587.032 -2.12276 2.74875 0
M  V30 6129 C 585.986 -1.82921 3.86942 0
M  V30 6130 C 585.312 -3.15707 4.31548 0
M  V30 6131 C 586.612 -1.11737 5.10208 0
M  V30 6132 H 588.306 -0.366145 2.97153 0
M  V30 6133 H 585.852 -0.174673 1.42937 0
M  V30 6134 H 587.805 -2.79634 3.1525 0
M  V30 6135 H 586.529 -2.64248 1.91938 0
M  V30 6136 H 585.188 -1.17961 3.47103 0
M  V30 6137 H 584.836 -3.65563 3.45504 0
M  V30 6138 H 584.536 -2.96849 5.07104 0
M  V30 6139 H 586.06 -3.84226 4.74555 0
M  V30 6140 H 587.474 -1.69203 5.47762 0
M  V30 6141 H 585.871 -1.03064 5.91183 0
M  V30 6142 H 586.941 -0.0998818 4.84797 0
M  V30 6143 N 588.284 -1.56567 -0.180126 0
M  V30 6144 C 589.512 -1.85618 -0.913972 0
M  V30 6145 C 589.927 -0.677892 -1.7621 0
M  V30 6146 O 589.284 0.353171 -1.7905 0
M  V30 6147 C 589.335 -3.13619 -1.79793 0
M  V30 6148 O 589.056 -4.26906 -0.98402 0
M  V30 6149 C 590.557 -3.55954 -2.64219 0
M  V30 6150 H 587.777 -0.616043 -0.265954 0
M  V30 6151 H 590.321 -2.03681 -0.182872 0
M  V30 6152 H 588.476 -2.97409 -2.48247 0
M  V30 6153 H 588.89 -4.9989 -1.58776 0
M  V30 6154 H 590.364 -4.48444 -3.21873 0
M  V30 6155 H 590.841 -2.79653 -3.38661 0
M  V30 6156 H 591.447 -3.74746 -2.01111 0
M  V30 6157 N 589.762 0.448376 -1.51087 0
M  V30 6158 C 591.178 0.783984 -1.39017 0
M  V30 6159 C 591.378 1.96087 -0.463904 0
M  V30 6160 O 590.434 2.52357 0.0850534 0
M  V30 6161 C 591.747 1.07471 -2.80839 0
M  V30 6162 C 593.295 1.17981 -2.89913 0
M  V30 6163 C 593.77 1.50354 -4.32617 0
M  V30 6164 N 595.261 1.57301 -4.35673 0
M  V30 6165 C 595.996 1.839 -5.4311 0
M  V30 6166 N 595.492 2.08365 -6.60724 0
M  V30 6167 N 597.285 1.8559 -5.30578 0
M  V30 6168 H 589.436 -0.326881 -2.0987 0
M  V30 6169 H 591.699 -0.0838006 -0.944289 0
M  V30 6170 H 591.405 0.282768 -3.50561 0
M  V30 6171 H 591.279 2.00519 -3.19487 0
M  V30 6172 H 593.666 1.9624 -2.20395 0
M  V30 6173 H 593.747 0.228603 -2.54776 0
M  V30 6174 H 593.391 0.726273 -5.0268 0
M  V30 6175 H 593.321 2.46663 -4.65258 0
M  V30 6176 H 595.812 1.40342 -3.50874 0
M  V30 6177 H 596.125 2.27999 -7.38401 0
M  V30 6178 H 594.47 2.0571 -6.63859 0
M  V30 6179 H 597.661 1.65989 -4.37682 0
M  V30 6180 H 597.834 2.05983 -6.1439 0
M  V30 6181 N 591.24 1.41047 0.703093 0
M  V30 6182 C 592.488 1.39723 1.4602 0
M  V30 6183 C 592.809 0.00461257 1.94999 0
M  V30 6184 O 592.079 -0.952292 1.71196 0
M  V30 6185 H 590.659 0.514281 0.541779 0
M  V30 6186 H 593.321 1.76217 0.832678 0
M  V30 6187 H 592.417 2.07982 2.32701 0
M  V30 6188 N 592.718 -0.936591 1.26751 0
M  V30 6189 C 593.964 -1.6858 1.12733 0
M  V30 6190 C 594.297 -1.91414 -0.327745 0
M  V30 6191 O 593.572 -1.49812 -1.24043 0
M  V30 6192 C 593.855 -3.05779 1.90187 0
M  V30 6193 C 593.708 -2.90242 3.43627 0
M  V30 6194 C 595.027 -4.0597 1.69931 0
M  V30 6195 H 592.146 -0.61182 0.410908 0
M  V30 6196 H 594.788 -1.08747 1.55801 0
M  V30 6197 H 592.938 -3.56853 1.53584 0
M  V30 6198 H 594.61 -2.46354 3.9001 0
M  V30 6199 H 592.853 -2.2577 3.70419 0
M  V30 6200 H 593.524 -3.87572 3.93055 0
M  V30 6201 H 596 -3.63874 2.0183 0
M  V30 6202 H 594.876 -4.99974 2.26534 0
M  V30 6203 H 595.137 -4.37369 0.64502 0
M  V30 6204 N 594.196 -1.08629 -1.14182 0
M  V30 6205 C 595.473 -0.73002 -1.81466 0
M  V30 6206 C 595.853 0.785996 -1.95922 0
M  V30 6207 O 595.201 1.70535 -1.52086 0
M  V30 6208 C 595.411 -1.45957 -3.17014 0
M  V30 6209 C 596.759 -1.62008 -3.92477 0
M  V30 6210 O 597.783 -1.42141 -3.26611 0
M  V30 6211 O 596.642 -1.94806 -5.106 0
M  V30 6212 H 593.736 -0.261307 -0.784632 0
M  V30 6213 H 596.282 -1.188 -1.2118 0
M  V30 6214 H 595.054 -2.49221 -3.01669 0
M  V30 6215 H 594.677 -0.993222 -3.84995 0
M  V30 6216 N 595.674 1.31259 -0.872281 0
M  V30 6217 C 596.914 1.98418 -0.490894 0
M  V30 6218 C 597.278 1.67429 0.939755 0
M  V30 6219 O 598.479 2.27818 1.42661 0
M  V30 6220 C 596.75 3.49583 -0.743408 0
M  V30 6221 S 598.309 4.36359 -0.462226 0
M  V30 6222 H 595.127 0.687005 -0.183151 0
M  V30 6223 H 597.729 1.59619 -1.12881 0
M  V30 6224 H 596.433 3.69627 -1.78338 0
M  V30 6225 H 595.964 3.93291 -0.0925758 0
M  V30 6226 H 597.979 4.91173 0.704525 0
M  V30 6227 N 597.152 0.631951 1.44375 0
M  V30 6228 C 598.563 0.219036 1.85411 0
M  V30 6229 C 598.914 -1.22974 1.52879 0
M  V30 6230 O 598.039 -1.93579 0.967266 0
M  V30 6231 C 598.634 0.39075 3.36539 0
M  V30 6232 C 597.193 0.0323351 3.76386 0
M  V30 6233 C 596.34 0.703744 2.68221 0
M  V30 6234 H 599.291 0.837056 1.3483 0
M  V30 6235 H 599.312 -0.370056 3.78696 0
M  V30 6236 H 598.824 1.44527 3.60185 0
M  V30 6237 H 596.925 -1.02042 3.58355 0
M  V30 6238 H 597.038 0.442969 4.77048 0
M  V30 6239 H 595.402 0.138974 2.54321 0
M  V30 6240 H 596.185 1.76088 2.947 0
M  V30 6241 N 598.631 -1.53133 0.372548 0
M  V30 6242 C 599.861 -2.05476 -0.215202 0
M  V30 6243 C 600.269 -1.24534 -1.42436 0
M  V30 6244 O 599.612 -0.280771 -1.81542 0
M  V30 6245 C 599.674 -3.53276 -0.666068 0
M  V30 6246 C 599.338 -4.54998 0.427342 0
M  V30 6247 C 600.335 -5.03911 1.27944 0
M  V30 6248 C 598.02 -4.98828 0.589579 0
M  V30 6249 C 600.014 -5.95263 2.27905 0
M  V30 6250 C 597.701 -5.89984 1.59255 0
M  V30 6251 C 598.699 -6.38093 2.43571 0
M  V30 6252 O 598.387 -7.27451 3.42156 0
M  V30 6253 H 598.119 -0.67481 -0.040099 0
M  V30 6254 H 600.673 -1.98409 0.531312 0
M  V30 6255 H 598.903 -3.57904 -1.4643 0
M  V30 6256 H 600.592 -3.88442 -1.1776 0
M  V30 6257 H 601.358 -4.70792 1.16532 0
M  V30 6258 H 597.237 -4.60965 -0.0569456 0
M  V30 6259 H 600.781 -6.32736 2.93753 0
M  V30 6260 H 596.678 -6.22518 1.70711 0
M  V30 6261 H 597.446 -7.45467 3.37967 0
M  V30 6262 N 600.109 -0.101901 -1.5727 0
M  V30 6263 C 601.039 0.851544 -2.17419 0
M  V30 6264 C 602.02 1.28942 -1.10941 0
M  V30 6265 O 603.205 1.35509 -1.39107 0
M  V30 6266 C 600.335 2.10816 -2.75996 0
M  V30 6267 C 599.289 1.80867 -3.87906 0
M  V30 6268 C 598.615 3.13413 -4.33216 0
M  V30 6269 C 599.915 1.0903 -5.10793 0
M  V30 6270 H 601.609 0.350381 -2.97343 0
M  V30 6271 H 599.155 0.16709 -1.43027 0
M  V30 6272 H 601.108 2.77959 -3.16729 0
M  V30 6273 H 599.832 2.63227 -1.93337 0
M  V30 6274 H 598.491 1.16119 -3.47724 0
M  V30 6275 H 598.139 3.63725 -3.47438 0
M  V30 6276 H 597.839 2.94155 -5.08671 0
M  V30 6277 H 599.363 3.81704 -4.76586 0
M  V30 6278 H 600.777 1.66295 -5.48652 0
M  V30 6279 H 599.174 0.99927 -5.91722 0
M  V30 6280 H 600.244 0.0741704 -4.84843 0
M  V30 6281 N 601.587 1.56661 0.17182 0
M  V30 6282 C 602.55 1.9549 1.19651 0
M  V30 6283 C 603.55 0.838501 1.37207 0
M  V30 6284 O 604.74 1.10556 1.34622 0
M  V30 6285 C 601.872 2.24927 2.56166 0
M  V30 6286 H 603.065 2.87184 0.864007 0
M  V30 6287 H 600.618 1.50711 0.41425 0
M  V30 6288 H 601.353 1.35944 2.94431 0
M  V30 6289 H 601.138 3.06301 2.4479 0
M  V30 6290 H 602.628 2.55891 3.30014 0
M  V30 6291 N 603.065 -0.440357 1.51323 0
M  V30 6292 C 604.293 -1.21255 1.67645 0
M  V30 6293 C 604.708 -1.85088 0.37252 0
M  V30 6294 O 604.065 -1.70582 -0.648683 0
M  V30 6295 C 604.116 -2.29881 2.78993 0
M  V30 6296 O 603.837 -1.68659 4.04334 0
M  V30 6297 C 605.338 -3.20214 3.06558 0
M  V30 6298 H 602.558 -0.36558 0.562666 0
M  V30 6299 H 605.102 -0.52214 1.97722 0
M  V30 6300 H 603.257 -2.94643 2.51524 0
M  V30 6301 H 603.671 -2.40426 4.6615 0
M  V30 6302 H 605.145 -3.92575 3.88058 0
M  V30 6303 H 605.622 -3.80794 2.18844 0
M  V30 6304 H 606.228 -2.61156 3.35675 0
M  V30 6305 N 604.543 -1.41418 -0.695603 0
M  V30 6306 C 605.773 -1.43921 -1.48224 0
M  V30 6307 C 606.181 -0.0428855 -1.89151 0
M  V30 6308 O 605.524 0.948138 -1.5734 0
M  V30 6309 C 605.586 -2.28466 -2.77567 0
M  V30 6310 C 605.25 -3.76629 -2.58844 0
M  V30 6311 C 606.247 -4.6879 -2.24793 0
M  V30 6312 C 603.932 -4.2067 -2.74485 0
M  V30 6313 C 605.926 -6.02981 -2.06622 0
M  V30 6314 C 603.613 -5.54926 -2.55931 0
M  V30 6315 C 604.611 -6.45897 -2.2205 0
M  V30 6316 O 604.299 -7.77675 -2.03657 0
M  V30 6317 H 604.031 -0.492252 -0.463318 0
M  V30 6318 H 606.585 -1.86347 -0.863952 0
M  V30 6319 H 604.815 -1.80853 -3.41802 0
M  V30 6320 H 606.504 -2.2267 -3.39371 0
M  V30 6321 H 607.27 -4.36055 -2.12323 0
M  V30 6322 H 603.149 -3.50167 -2.9984 0
M  V30 6323 H 606.693 -6.73951 -1.80099 0
M  V30 6324 H 602.59 -5.8724 -2.67991 0
M  V30 6325 H 603.358 -7.88819 -2.1842 0
M  V30 6326 N 606.021 0.929856 -1.27246 0
M  V30 6327 C 607.267 1.6798 -1.13625 0
M  V30 6328 C 607.6 1.91586 0.317589 0
M  V30 6329 O 606.875 1.50467 1.23247 0
M  V30 6330 C 607.158 3.04766 -1.91806 0
M  V30 6331 C 607.011 2.88415 -3.45162 0
M  V30 6332 C 608.33 4.05063 -1.72082 0
M  V30 6333 H 605.449 0.609632 -0.414147 0
M  V30 6334 H 608.091 1.0792 -1.56376 0
M  V30 6335 H 606.241 3.56034 -1.55474 0
M  V30 6336 H 607.913 2.44282 -3.91311 0
M  V30 6337 H 606.156 2.23802 -3.71611 0
M  V30 6338 H 606.827 3.85482 -3.95105 0
M  V30 6339 H 609.303 3.62798 -2.03757 0
M  V30 6340 H 608.179 4.98765 -2.29182 0
M  V30 6341 H 608.44 4.37021 -0.668206 0
M  V30 6342 N 607.499 1.09233 1.13605 0
M  V30 6343 C 608.776 0.739633 1.81077 0
M  V30 6344 C 609.156 -0.775595 1.96336 0
M  V30 6345 O 608.504 -1.69726 1.52988 0
M  V30 6346 C 608.714 1.47636 3.16235 0
M  V30 6347 C 610.062 1.64087 3.91613 0
M  V30 6348 O 611.086 1.43871 3.25852 0
M  V30 6349 O 609.945 1.97511 5.0956 0
M  V30 6350 H 607.039 0.265464 0.783236 0
M  V30 6351 H 609.585 1.19441 1.20549 0
M  V30 6352 H 608.357 2.50818 3.00344 0
M  V30 6353 H 607.98 1.01362 3.84462 0
M  V30 6354 N 608.977 -1.30795 0.87923 0
M  V30 6355 C 610.223 -1.97035 0.50487 0
M  V30 6356 C 610.578 -1.68182 -0.934484 0
M  V30 6357 O 609.871 -0.972953 -1.65058 0
M  V30 6358 C 610.065 -3.50287 0.709476 0
M  V30 6359 C 609.894 -3.94035 2.16717 0
M  V30 6360 C 608.664 -4.1992 2.81061 0
M  V30 6361 C 610.862 -4.07288 3.1404 0
M  V30 6362 N 608.844 -4.50088 4.17486 0
M  V30 6363 C 610.215 -4.41273 4.35521 0
M  V30 6364 C 612.27 -3.89696 3.09906 0
M  V30 6365 C 610.973 -4.59501 5.534 0
M  V30 6366 C 612.999 -4.09122 4.27052 0
M  V30 6367 C 612.361 -4.43447 5.47297 0
M  V30 6368 H 608.46 -0.746181 0.233962 0
M  V30 6369 H 611.044 -1.5814 1.13577 0
M  V30 6370 H 609.215 -3.8825 0.108108 0
M  V30 6371 H 610.947 -4.03567 0.302585 0
M  V30 6372 H 607.702 -4.12906 2.3196 0
M  V30 6373 H 608.126 -4.69316 4.87926 0
M  V30 6374 H 612.768 -3.62239 2.18043 0
M  V30 6375 H 610.486 -4.85802 6.45773 0
M  V30 6376 H 614.072 -3.96985 4.25316 0
M  V30 6377 H 612.952 -4.58171 6.36435 0
M  V30 6378 N 610.455 -0.639598 -1.44038 0
M  V30 6379 C 611.405 0.0823038 -2.27851 0
M  V30 6380 C 612.389 0.807991 -1.39141 0
M  V30 6381 O 613.581 0.692702 -1.62882 0
M  V30 6382 C 610.71 1.05742 -3.26609 0
M  V30 6383 C 609.796 0.330911 -4.22807 0
M  V30 6384 N 610.187 -0.645126 -5.01669 0
M  V30 6385 C 608.485 0.574214 -4.42288 0
M  V30 6386 C 609.186 -1.07513 -5.71678 0
M  V30 6387 N 608.162 -0.412164 -5.42035 0
M  V30 6388 H 611.964 -0.666861 -2.86234 0
M  V30 6389 H 609.478 -0.465777 -1.55577 0
M  V30 6390 H 611.475 1.58927 -3.85419 0
M  V30 6391 H 610.135 1.80679 -2.69787 0
M  V30 6392 H 611.146 -1.02329 -5.0769 0
M  V30 6393 H 607.823 1.30581 -3.96554 0
M  V30 6394 H 609.213 -1.88196 -6.45005 0
M  V30 6395 N 611.933 1.52934 -0.380664 0
M  V30 6396 C 613.18 2.01467 0.204278 0
M  V30 6397 C 613.508 1.26744 1.47533 0
M  V30 6398 O 612.763 0.353723 1.92477 0
M  V30 6399 C 613.062 3.5349 0.527199 0
M  V30 6400 C 612.728 4.46171 -0.651295 0
M  V30 6401 C 611.39 4.71227 -0.974619 0
M  V30 6402 C 613.742 5.00909 -1.44012 0
M  V30 6403 C 611.07 5.4827 -2.08847 0
M  V30 6404 C 613.422 5.7917 -2.5445 0
M  V30 6405 C 612.086 6.02507 -2.87301 0
M  V30 6406 H 611.356 0.73722 0.0747504 0
M  V30 6407 H 614.003 1.84411 -0.516234 0
M  V30 6408 H 612.308 3.68574 1.32892 0
M  V30 6409 H 614.005 3.88529 0.992283 0
M  V30 6410 H 610.595 4.26829 -0.389276 0
M  V30 6411 H 614.779 4.81485 -1.20357 0
M  V30 6412 H 610.035 5.64567 -2.34679 0
M  V30 6413 H 614.209 6.20588 -3.1598 0
M  V30 6414 H 611.836 6.61989 -3.7373 0
M  V30 6415 N 613.412 0.11024 1.57214 0
M  V30 6416 C 614.342 -0.840002 2.17867 0
M  V30 6417 C 615.323 -1.28352 1.11624 0
M  V30 6418 O 616.508 -1.3477 1.39824 0
M  V30 6419 C 613.638 -2.09349 2.77111 0
M  V30 6420 C 612.592 -1.78807 3.8886 0
M  V30 6421 C 611.918 -3.11112 4.34872 0
M  V30 6422 C 613.218 -1.0632 5.11364 0
M  V30 6423 H 614.912 -0.334608 2.97524 0
M  V30 6424 H 612.458 -0.159502 1.43114 0
M  V30 6425 H 614.411 -2.76275 3.18198 0
M  V30 6426 H 613.135 -2.62198 1.9473 0
M  V30 6427 H 611.794 -1.14273 3.48335 0
M  V30 6428 H 611.442 -3.61877 3.49362 0
M  V30 6429 H 611.142 -2.91453 5.10224 0
M  V30 6430 H 612.666 -3.79171 4.78604 0
M  V30 6431 H 614.08 -1.63383 5.49526 0
M  V30 6432 H 612.477 -0.967876 5.92243 0
M  V30 6433 H 613.547 -0.0484569 4.84876 0
M  V30 6434 N 614.89 -1.56749 -0.16351 0
M  V30 6435 C 615.82 -2.00042 -1.20438 0
M  V30 6436 C 616.801 -0.877256 -1.45733 0
M  V30 6437 O 617.986 -1.1439 -1.56935 0
M  V30 6438 C 615.116 -2.36697 -2.54149 0
M  V30 6439 C 614.07 -3.52046 -2.43408 0
M  V30 6440 C 613.396 -3.74466 -3.81679 0
M  V30 6441 C 614.696 -4.85247 -1.93216 0
M  V30 6442 H 616.39 -2.87244 -0.844477 0
M  V30 6443 H 613.936 -1.38194 -0.40478 0
M  V30 6444 H 615.889 -2.65582 -3.27176 0
M  V30 6445 H 614.613 -1.46414 -2.91943 0
M  V30 6446 H 613.272 -3.23301 -1.72834 0
M  V30 6447 H 612.92 -2.81461 -4.1688 0
M  V30 6448 H 612.62 -4.52084 -3.75359 0
M  V30 6449 H 614.144 -4.0576 -4.5628 0
M  V30 6450 H 615.558 -5.12957 -2.56023 0
M  V30 6451 H 613.955 -5.66556 -1.97825 0
M  V30 6452 H 615.025 -4.7672 -0.88689 0
M  V30 6453 N 616.368 0.432326 -1.51554 0
M  V30 6454 C 617.278 1.55023 -1.76082 0
M  V30 6455 C 618.294 1.61593 -0.645265 0
M  V30 6456 O 619.47 1.78742 -0.928086 0
M  V30 6457 C 616.535 2.90964 -1.88523 0
M  V30 6458 C 615.596 2.9447 -3.12388 0
M  V30 6459 C 614.829 4.23926 -3.24225 0
M  V30 6460 O 615.052 5.16576 -2.4188 0
M  V30 6461 O 613.986 4.33818 -4.17235 0
M  V30 6462 H 617.812 1.37238 -2.70923 0
M  V30 6463 H 615.397 0.615845 -1.36117 0
M  V30 6464 H 617.279 3.71633 -1.98662 0
M  V30 6465 H 615.954 3.08865 -0.9687 0
M  V30 6466 H 614.861 2.12737 -3.07723 0
M  V30 6467 H 616.194 2.81514 -4.03746 0
M  V30 6468 N 617.846 1.41785 0.688094 0
M  V30 6469 C 619.071 1.45117 1.48175 0
M  V30 6470 C 619.496 0.060129 1.88004 0
M  V30 6471 O 618.854 -0.938385 1.55126 0
M  V30 6472 C 618.902 2.37224 2.71583 0
M  V30 6473 O 618.006 1.83443 3.69354 0
M  V30 6474 H 617.347 0.492208 0.445676 0
M  V30 6475 H 619.877 1.86329 0.845145 0
M  V30 6476 H 619.887 2.53353 3.19806 0
M  V30 6477 H 618.562 3.38293 2.41931 0
M  V30 6478 H 617.139 1.76802 3.28322 0
M  V30 6479 N 619.324 -0.923095 1.27737 0
M  V30 6480 C 620.256 -2.02871 1.06658 0
M  V30 6481 C 621.269 -1.62786 0.0212095 0
M  V30 6482 O 622.458 -1.76548 0.263267 0
M  V30 6483 C 619.558 -3.33603 0.59682 0
M  V30 6484 C 618.731 -4.02354 1.71551 0
M  V30 6485 C 617.79 -5.11364 1.24071 0
M  V30 6486 O 616.816 -5.35075 1.94123 0
M  V30 6487 N 618.018 -5.80416 0.0988444 0
M  V30 6488 H 620.783 -2.21515 2.01869 0
M  V30 6489 H 618.344 -1.09378 1.19365 0
M  V30 6490 H 620.336 -4.03845 0.262984 0
M  V30 6491 H 618.906 -3.11499 -0.262187 0
M  V30 6492 H 618.126 -3.25786 2.2194 0
M  V30 6493 H 619.414 -4.45035 2.46619 0
M  V30 6494 H 618.812 -5.63611 -0.485743 0
M  V30 6495 H 617.369 -6.51563 -0.17578 0
M  V30 6496 N 620.802 -1.09834 -1.13024 0
M  V30 6497 C 621.765 -0.745058 -2.16752 0
M  V30 6498 C 622.765 0.227435 -1.59183 0
M  V30 6499 O 623.955 0.0050786 -1.74199 0
M  V30 6500 C 621.087 -0.102543 -3.40746 0
M  V30 6501 H 622.28 -1.66375 -2.49518 0
M  V30 6502 H 619.833 -0.898061 -1.27924 0
M  V30 6503 H 620.568 0.827177 -3.13573 0
M  V30 6504 H 620.353 -0.80235 -3.83803 0
M  V30 6505 H 621.843 0.129082 -4.174 0
M  V30 6506 N 622.28 1.30327 -0.886154 0
M  V30 6507 C 623.691 1.78243 -0.555554 0
M  V30 6508 C 624.042 1.72849 0.928314 0
M  V30 6509 O 623.167 1.30607 1.72542 0
M  V30 6510 C 623.762 3.23654 -1.00168 0
M  V30 6511 C 622.321 3.69401 -0.722471 0
M  V30 6512 C 621.468 2.50753 -1.18399 0
M  V30 6513 H 624.419 1.1718 -1.07026 0
M  V30 6514 H 624.44 3.79056 -0.331152 0
M  V30 6515 H 623.952 3.27548 -2.08169 0
M  V30 6516 H 622.053 3.70995 0.345496 0
M  V30 6517 H 622.166 4.60818 -1.31085 0
M  V30 6518 H 620.53 2.47452 -0.603303 0
M  V30 6519 H 621.313 2.57383 -2.27176 0
M  V30 6520 N 623.758 0.647228 1.43697 0
M  V30 6521 C 624.705 -0.0480092 2.3075 0
M  V30 6522 C 625.675 -0.820705 1.44408 0
M  V30 6523 O 626.86 -0.798515 1.73287 0
M  V30 6524 C 624 -1.01259 3.2991 0
M  V30 6525 C 623.113 -0.236629 4.31351 0
M  V30 6526 C 622.248 -1.19447 5.17596 0
M  V30 6527 C 621.287 -0.408595 6.10735 0
M  V30 6528 N 620.424 -1.31772 6.89623 0
M  V30 6529 H 625.264 0.700238 2.89656 0
M  V30 6530 H 622.801 0.357082 1.427 0
M  V30 6531 H 624.759 -1.58538 3.85903 0
M  V30 6532 H 623.389 -1.72778 2.72667 0
M  V30 6533 H 622.441 0.452353 3.77701 0
M  V30 6534 H 623.753 0.374731 4.9739 0
M  V30 6535 H 622.907 -1.83809 5.78186 0
M  V30 6536 H 621.646 -1.83975 4.51669 0
M  V30 6537 H 620.651 0.24841 5.49239 0
M  V30 6538 H 621.876 0.232188 6.78703 0
M  V30 6539 H 619.822 -1.94991 6.2635 0
M  V30 6540 H 619.739 -0.760779 7.52162 0
M  V30 6541 H 621.007 -1.94967 7.54724 0
M  V30 6542 N 625.236 -1.5273 0.388769 0
M  V30 6543 C 626.464 -2.05992 -0.193677 0
M  V30 6544 C 626.879 -1.26053 -1.40557 0
M  V30 6545 O 626.236 -0.307049 -1.79898 0
M  V30 6546 C 626.287 -3.57068 -0.564321 0
M  V30 6547 O 626.008 -4.3398 0.599422 0
M  V30 6548 C 627.509 -4.26674 -1.20269 0
M  V30 6549 H 624.729 -0.670358 -0.0293445 0
M  V30 6550 H 627.273 -1.96857 0.553844 0
M  V30 6551 H 625.428 -3.66277 -1.26174 0
M  V30 6552 H 625.842 -5.2367 0.294895 0
M  V30 6553 H 627.316 -5.33625 -1.4124 0
M  V30 6554 H 627.793 -3.81854 -2.16989 0
M  V30 6555 H 628.399 -4.2178 -0.546047 0
M  V30 6556 N 626.714 -0.118576 -1.57153 0
M  V30 6557 C 627.963 0.539339 -1.94355 0
M  V30 6558 C 628.276 1.67858 -1.00415 0
M  V30 6559 O 629.482 2.39922 -1.27081 0
M  V30 6560 C 627.938 1.01082 -3.45414 0
M  V30 6561 C 627.546 -0.0999402 -4.47889 0
M  V30 6562 C 629.29 1.64013 -3.91535 0
M  V30 6563 C 627.197 0.388212 -5.90124 0
M  V30 6564 H 626.127 0.205247 -0.725527 0
M  V30 6565 H 628.778 -0.19836 -1.82425 0
M  V30 6566 H 627.16 1.80292 -3.52577 0
M  V30 6567 H 628.334 -0.876189 -4.52393 0
M  V30 6568 H 626.649 -0.635885 -4.11516 0
M  V30 6569 H 629.246 2.01649 -4.95219 0
M  V30 6570 H 629.589 2.51836 -3.31488 0
M  V30 6571 H 630.122 0.913439 -3.87171 0
M  V30 6572 H 626.861 -0.453963 -6.53926 0
M  V30 6573 H 626.381 1.13095 -5.89041 0
M  V30 6574 H 628.06 0.849574 -6.41398 0
M  V30 6575 N 628.193 1.56834 0.155195 0
M  V30 6576 C 629.609 1.51315 0.50755 0
M  V30 6577 C 629.809 0.825614 1.83809 0
M  V30 6578 O 628.865 0.39271 2.49427 0
M  V30 6579 C 630.178 2.96074 0.52542 0
M  V30 6580 C 631.726 3.06968 0.611505 0
M  V30 6581 C 632.201 4.53218 0.660115 0
M  V30 6582 N 633.692 4.5753 0.722564 0
M  V30 6583 C 634.427 5.68056 0.781023 0
M  V30 6584 N 633.923 6.88173 0.799327 0
M  V30 6585 N 635.716 5.56068 0.821278 0
M  V30 6586 H 627.867 1.9993 -0.717063 0
M  V30 6587 H 630.13 0.911507 -0.260496 0
M  V30 6588 H 629.836 3.49599 -0.383875 0
M  V30 6589 H 629.71 3.51587 1.36624 0
M  V30 6590 H 632.097 2.53468 1.51122 0
M  V30 6591 H 632.178 2.54513 -0.256306 0
M  V30 6592 H 631.822 5.07354 -0.23541 0
M  V30 6593 H 631.752 5.03447 1.5443 0
M  V30 6594 H 634.243 3.71054 0.716049 0
M  V30 6595 H 634.556 7.6816 0.845553 0
M  V30 6596 H 632.901 6.90751 0.767337 0
M  V30 6597 H 636.092 4.61142 0.804091 0
M  V30 6598 H 636.265 6.42223 0.863372 0
M  V30 6599 N 629.671 -0.424282 1.51781 0
M  V30 6600 C 630.948 -1.18464 1.55646 0
M  V30 6601 C 631.328 -2.08529 0.328438 0
M  V30 6602 O 630.676 -2.17969 -0.685693 0
M  V30 6603 C 630.886 -1.97514 2.87731 0
M  V30 6604 C 632.234 -2.54106 3.40169 0
M  V30 6605 O 633.258 -2.07711 2.89369 0
M  V30 6606 O 632.117 -3.38759 4.28841 0
M  V30 6607 H 629.211 -0.540055 0.626314 0
M  V30 6608 H 631.757 -0.432291 1.64102 0
M  V30 6609 H 630.529 -1.31444 3.68562 0
M  V30 6610 H 630.152 -2.79787 2.82498 0
M  V30 6611 N 631.149 -1.42148 -0.680565 0
M  V30 6612 C 632.112 -1.4488 -1.77602 0
M  V30 6613 C 633.112 -0.337209 -1.57224 0
M  V30 6614 O 634.302 -0.597778 -1.63622 0
M  V30 6615 C 631.434 -1.27483 -3.16166 0
M  V30 6616 H 632.627 -2.42412 -1.76568 0
M  V30 6617 H 630.18 -1.28511 -0.889645 0
M  V30 6618 H 630.915 -0.30851 -3.22829 0
M  V30 6619 H 630.7 -2.08037 -3.3236 0
M  V30 6620 H 632.19 -1.32265 -3.96101 0
M  V30 6621 N 632.627 0.916307 -1.28225 0
M  V30 6622 C 633.874 1.66518 -1.1523 0
M  V30 6623 C 634.202 1.92178 0.299632 0
M  V30 6624 O 633.457 1.51842 1.2346 0
M  V30 6625 C 633.756 3.03125 -1.8934 0
M  V30 6626 C 633.422 2.97135 -3.39148 0
M  V30 6627 C 632.084 2.95208 -3.80007 0
M  V30 6628 C 634.436 2.87574 -4.34685 0
M  V30 6629 C 631.764 2.81518 -5.14747 0
M  V30 6630 C 634.116 2.75424 -5.69495 0
M  V30 6631 C 632.78 2.71854 -6.09632 0
M  V30 6632 H 632.05 0.609334 -0.421655 0
M  V30 6633 H 634.697 1.06776 -1.58969 0
M  V30 6634 H 633.002 3.66639 -1.38143 0
M  V30 6635 H 634.699 3.59968 -1.76704 0
M  V30 6636 H 631.289 2.99428 -3.06661 0
M  V30 6637 H 635.473 2.88152 -4.04082 0
M  V30 6638 H 630.729 2.77148 -5.44976 0
M  V30 6639 H 634.903 2.66993 -6.43185 0
M  V30 6640 H 632.53 2.61003 -7.1399 0
M  V30 6641 N 634.105 1.10431 1.1244 0
M  V30 6642 C 635.345 0.856518 1.85589 0
M  V30 6643 C 635.709 -0.606905 1.82156 0
M  V30 6644 O 636.91 -0.97105 2.50647 0
M  V30 6645 C 635.181 1.38977 3.29272 0
M  V30 6646 S 636.74 1.27739 4.19795 0
M  V30 6647 H 633.558 0.309509 0.640098 0
M  V30 6648 H 636.16 1.40975 1.35449 0
M  V30 6649 H 634.864 2.44887 3.2933 0
M  V30 6650 H 634.395 0.833112 3.84477 0
M  V30 6651 H 636.41 0.235051 4.95643 0
M  V30 6652 N 635.583 -1.29855 0.893053 0
M  V30 6653 C 636.829 -1.96116 0.516349 0
M  V30 6654 C 637.162 -1.70281 -0.933695 0
M  V30 6655 O 636.437 -1.01205 -1.66096 0
M  V30 6656 C 636.72 -3.51068 0.801455 0
M  V30 6657 C 636.573 -3.86387 2.30272 0
M  V30 6658 C 637.892 -4.39186 0.283423 0
M  V30 6659 H 635.011 -0.712335 0.189072 0
M  V30 6660 H 637.653 -1.53587 1.11852 0
M  V30 6661 H 635.803 -3.87424 0.288949 0
M  V30 6662 H 637.475 -3.60012 2.88425 0
M  V30 6663 H 635.718 -3.34167 2.76613 0
M  V30 6664 H 636.389 -4.94512 2.45279 0
M  V30 6665 H 638.865 -4.09785 0.722187 0
M  V30 6666 H 637.741 -5.46505 0.512169 0
M  V30 6667 H 638.002 -4.34511 -0.815643 0
M  V30 6668 N 637.061 -0.65484 -1.43351 0
M  V30 6669 C 638.308 -0.168892 -2.01794 0
M  V30 6670 C 638.636 1.2177 -1.51665 0
M  V30 6671 O 637.891 1.82717 -0.70092 0
M  V30 6672 C 638.19 -0.130424 -3.57162 0
M  V30 6673 C 637.856 -1.45898 -4.26643 0
M  V30 6674 C 636.518 -1.82279 -4.4534 0
M  V30 6675 C 638.87 -2.33485 -4.65976 0
M  V30 6676 C 636.198 -3.0591 -5.00635 0
M  V30 6677 C 638.55 -3.5641 -5.22642 0
M  V30 6678 C 637.214 -3.92985 -5.39555 0
M  V30 6679 H 636.484 -0.061802 -0.738418 0
M  V30 6680 H 639.131 -0.845869 -1.71806 0
M  V30 6681 H 637.436 0.630008 -3.86702 0
M  V30 6682 H 639.133 0.262465 -4.0014 0
M  V30 6683 H 635.723 -1.16591 -4.12437 0
M  V30 6684 H 639.907 -2.06668 -4.51223 0
M  V30 6685 H 635.163 -3.34295 -5.11915 0
M  V30 6686 H 639.337 -4.24495 -5.52066 0
M  V30 6687 H 636.964 -4.88862 -5.82167 0
M  V30 6688 N 638.539 1.52521 -0.396863 0
M  V30 6689 C 639.449 2.30403 0.44178 0
M  V30 6690 C 640.465 1.37625 1.06468 0
M  V30 6691 O 641.641 1.70697 1.06886 0
M  V30 6692 C 638.706 3.1013 1.54986 0
M  V30 6693 C 637.767 4.18628 0.951279 0
M  V30 6694 C 637 4.94543 2.00655 0
M  V30 6695 O 637.223 4.70629 3.22281 0
M  V30 6696 O 636.157 5.797 1.61962 0
M  V30 6697 H 639.983 3.03087 -0.192892 0
M  V30 6698 H 637.568 1.48537 -0.16038 0
M  V30 6699 H 639.45 3.59816 2.19341 0
M  V30 6700 H 638.125 2.40251 2.16935 0
M  V30 6701 H 637.032 3.73119 0.270773 0
M  V30 6702 H 638.365 4.90763 0.375887 0
M  V30 6703 N 640.017 0.126909 1.57088 0
M  V30 6704 C 640.949 -0.850973 2.12817 0
M  V30 6705 C 641.962 -1.22457 1.07276 0
M  V30 6706 O 643.151 -1.17215 1.34622 0
M  V30 6707 C 640.251 -2.15039 2.61938 0
M  V30 6708 C 639.424 -1.94726 3.91664 0
M  V30 6709 C 638.483 -3.0847 4.26301 0
M  V30 6710 O 637.509 -2.81038 4.94981 0
M  V30 6711 N 638.711 -4.35116 3.84259 0
M  V30 6712 H 641.476 -0.3748 2.97347 0
M  V30 6713 H 639.037 -0.0572793 1.61799 0
M  V30 6714 H 641.029 -2.90141 2.82135 0
M  V30 6715 H 639.599 -2.5398 1.82244 0
M  V30 6716 H 638.819 -1.03772 3.80296 0
M  V30 6717 H 640.107 -1.78469 4.76473 0
M  V30 6718 H 639.505 -4.60276 3.2888 0
M  V30 6719 H 638.062 -5.07064 4.09548 0
M  V30 6720 N 641.495 -1.56914 -0.146875 0
M  V30 6721 C 642.443 -1.99224 -1.20053 0
M  V30 6722 C 643.437 -0.884661 -1.44465 0
M  V30 6723 O 644.643 -1.06984 -1.44756 0
M  V30 6724 H 641.018 -0.634191 -0.404112 0
M  V30 6725 H 642.989 -2.86998 -0.816987 0
M  V30 6726 C 641.738 -2.38899 -2.52632 0
M  V30 6727 H 641.061 -3.23677 -2.34677 0
M  V30 6728 H 642.501 -2.72326 -3.24984 0
M  V30 6729 C 640.96 -1.2417 -3.13183 0
M  V30 6730 O 641.49 -0.542503 -3.9802 0
M  V30 6731 N 639.696 -1.00592 -2.72635 0
M  V30 6732 H 639.243 -1.57627 -2.03744 0
M  V30 6733 H 639.201 -0.240174 -3.13481 0
M  V30 6734 N 642.974 0.416227 -1.52004 0
M  V30 6735 C 643.906 1.52552 -1.71058 0
M  V30 6736 C 644.919 1.51693 -0.59102 0
M  V30 6737 O 646.108 1.56087 -0.865973 0
M  V30 6738 C 643.208 2.91455 -1.72937 0
M  V30 6739 C 642.381 3.16584 -3.01816 0
M  V30 6740 C 641.44 4.35322 -2.95603 0
M  V30 6741 O 640.466 4.32947 -3.6952 0
M  V30 6742 N 641.668 5.40049 -2.12903 0
M  V30 6743 H 644.433 1.36604 -2.66757 0
M  V30 6744 H 641.994 0.60544 -1.50153 0
M  V30 6745 H 643.986 3.68944 -1.66321 0
M  V30 6746 H 642.556 3.00895 -0.847418 0
M  V30 6747 H 641.776 2.27203 -3.22137 0
M  V30 6748 H 643.064 3.30213 -3.87088 0
M  V30 6749 H 642.462 5.44823 -1.52265 0
M  V30 6750 H 641.019 6.16308 -2.1215 0
M  V30 6751 N 644.452 1.42507 0.673017 0
M  V30 6752 C 645.7 1.42789 1.43023 0
M  V30 6753 C 646.021 0.0459738 1.94946 0
M  V30 6754 O 645.291 -0.915765 1.73178 0
M  V30 6755 H 643.871 0.525657 0.530748 0
M  V30 6756 H 646.533 1.77944 0.795113 0
M  V30 6757 H 645.629 2.12872 2.28237 0
M  V30 6758 N 645.93 -0.909495 1.28709 0
M  V30 6759 C 646.86 -2.0291 1.15542 0
M  V30 6760 C 647.841 -1.7002 0.0521017 0
M  V30 6761 O 649.026 -1.92835 0.229849 0
M  V30 6762 C 646.156 -3.37458 0.820935 0
M  V30 6763 C 645.11 -3.84524 1.87949 0
M  V30 6764 C 644.436 -5.16086 1.39854 0
M  V30 6765 C 645.736 -4.05918 3.28676 0
M  V30 6766 H 647.43 -2.14183 2.09203 0
M  V30 6767 H 644.976 -1.02913 1.00722 0
M  V30 6768 H 646.929 -4.1528 0.715571 0
M  V30 6769 H 645.653 -3.26249 -0.151374 0
M  V30 6770 H 644.312 -3.08911 1.97408 0
M  V30 6771 H 643.96 -5.01284 0.41518 0
M  V30 6772 H 643.66 -5.48547 2.1064 0
M  V30 6773 H 645.184 -5.96459 1.30649 0
M  V30 6774 H 646.598 -4.74252 3.22115 0
M  V30 6775 H 644.995 -4.49717 3.97334 0
M  V30 6776 H 646.065 -3.10583 3.72379 0
M  V30 6777 N 647.408 -1.11026 -1.11852 0
M  V30 6778 C 648.819 -0.873203 -1.65021 0
M  V30 6779 C 649.17 0.595364 -1.86949 0
M  V30 6780 O 648.295 1.45645 -1.60051 0
M  V30 6781 C 648.89 -1.57859 -2.99777 0
M  V30 6782 C 647.449 -1.38807 -3.49871 0
M  V30 6783 C 646.596 -1.62403 -2.24768 0
M  V30 6784 H 649.547 -1.26712 -0.955503 0
M  V30 6785 H 649.568 -1.02111 -3.66543 0
M  V30 6786 H 649.08 -2.6474 -2.83786 0
M  V30 6787 H 647.181 -0.341163 -3.71035 0
M  V30 6788 H 647.294 -2.13421 -4.28938 0
M  V30 6789 H 645.658 -1.04714 -2.32179 0
M  V30 6790 H 646.441 -2.70549 -2.11324 0
M  V30 6791 N 648.886 1.2938 -0.899927 0
M  V30 6792 C 649.816 2.30144 -0.39446 0
M  V30 6793 C 650.797 1.61611 0.530639 0
M  V30 6794 O 651.982 1.89119 0.441319 0
M  V30 6795 C 649.112 3.45229 0.37868 0
M  V30 6796 C 648.066 4.25564 -0.456012 0
M  V30 6797 C 647.392 5.32848 0.444637 0
M  V30 6798 C 648.692 4.93651 -1.70605 0
M  V30 6799 H 650.386 2.72673 -1.23653 0
M  V30 6800 H 647.932 1.31086 -0.596034 0
M  V30 6801 H 649.885 4.14797 0.743037 0
M  V30 6802 H 648.609 3.01545 1.25453 0
M  V30 6803 H 647.268 3.57704 -0.802704 0
M  V30 6804 H 646.916 4.85408 1.31863 0
M  V30 6805 H 646.616 5.87497 -0.110154 0
M  V30 6806 H 648.14 6.05268 0.805182 0
M  V30 6807 H 649.554 5.55655 -1.41141 0
M  V30 6808 H 647.951 5.58233 -2.20217 0
M  V30 6809 H 649.021 4.18926 -2.4419 0
M  V30 6810 N 650.364 0.662433 1.43002 0
M  V30 6811 C 651.78 0.330835 1.56133 0
M  V30 6812 C 651.98 -1.16454 1.64441 0
M  V30 6813 O 651.036 -1.94964 1.60453 0
M  V30 6814 C 652.349 1.05029 2.81761 0
M  V30 6815 C 653.897 1.03142 2.95518 0
M  V30 6816 C 654.372 1.73196 4.2399 0
M  V30 6817 N 655.863 1.70004 4.30875 0
M  V30 6818 C 656.598 2.21074 5.29069 0
M  V30 6819 N 656.094 2.80473 6.33488 0
M  V30 6820 N 657.887 2.1152 5.20784 0
M  V30 6821 H 650.038 1.63272 1.35853 0
M  V30 6822 H 652.301 0.687149 0.653092 0
M  V30 6823 H 652.007 2.10542 2.81718 0
M  V30 6824 H 651.881 0.607664 3.72273 0
M  V30 6825 H 654.268 -0.0153339 2.95096 0
M  V30 6826 H 654.349 1.51282 2.0627 0
M  V30 6827 H 653.993 2.77833 4.25172 0
M  V30 6828 H 653.923 1.22515 5.1215 0
M  V30 6829 H 656.414 1.26667 3.56039 0
M  V30 6830 H 656.727 3.17094 7.04749 0
M  V30 6831 H 655.072 2.84538 6.34085 0
M  V30 6832 H 658.263 1.64814 4.38126 0
M  V30 6833 H 658.436 2.51629 5.97149 0
M  V30 6834 N 651.842 -1.52309 0.404946 0
M  V30 6835 C 653.258 -1.59503 0.0556255 0
M  V30 6836 C 653.458 -1.41805 -1.43156 0
M  V30 6837 O 652.514 -1.2429 -2.19792 0
M  V30 6838 C 653.827 -2.95687 0.546801 0
M  V30 6839 C 655.375 -3.08909 0.504413 0
M  V30 6840 C 655.85 -4.47566 0.97203 0
M  V30 6841 N 657.341 -4.53795 0.928679 0
M  V30 6842 C 658.076 -5.59346 1.26174 0
M  V30 6843 N 657.572 -6.72469 1.66604 0
M  V30 6844 N 659.365 -5.49532 1.18198 0
M  V30 6845 H 651.516 -1.6206 1.37296 0
M  V30 6846 H 653.779 -0.762161 0.563751 0
M  V30 6847 H 653.485 -3.13905 1.58609 0
M  V30 6848 H 653.359 -3.77172 -0.0457905 0
M  V30 6849 H 655.746 -2.90378 -0.525819 0
M  V30 6850 H 655.827 -2.2934 1.13301 0
M  V30 6851 H 655.471 -4.6684 2.00057 0
M  V30 6852 H 655.401 -5.25625 0.320292 0
M  V30 6853 H 657.892 -3.72588 0.631369 0
M  V30 6854 H 658.205 -7.48993 1.9034 0
M  V30 6855 H 656.55 -6.73761 1.70504 0
M  V30 6856 H 659.741 -4.60038 0.865011 0
M  V30 6857 H 659.914 -6.31687 1.44485 0
M  V30 6858 N 653.32 -0.135238 -1.57019 0
M  V30 6859 C 654.27 0.820408 -2.12728 0
M  V30 6860 C 655.254 1.21735 -1.05211 0
M  V30 6861 O 656.446 1.18574 -1.31413 0
M  V30 6862 C 653.575 2.06414 -2.74314 0
M  V30 6863 C 652.661 1.69083 -3.88937 0
M  V30 6864 N 653.052 1.0251 -4.95303 0
M  V30 6865 C 651.35 1.98434 -3.99425 0
M  V30 6866 C 652.051 0.846749 -5.75504 0
M  V30 6867 N 651.027 1.3769 -5.25873 0
M  V30 6868 H 654.829 0.302426 -2.9234 0
M  V30 6869 H 652.343 0.0667009 -1.62263 0
M  V30 6870 H 654.34 2.75863 -3.12579 0
M  V30 6871 H 653 2.58741 -1.96171 0
M  V30 6872 H 654.011 0.687207 -5.1332 0
M  V30 6873 H 650.688 2.52693 -3.32344 0
M  V30 6874 H 652.078 0.322949 -6.71123 0
M  V30 6875 N 654.798 1.5699 0.138552 0
M  V30 6876 C 655.748 1.9532 1.17619 0
M  V30 6877 C 656.732 0.825545 1.38107 0
M  V30 6878 O 657.924 1.08908 1.39528 0
M  V30 6879 C 655.053 2.34451 2.50774 0
M  V30 6880 C 654.139 3.53805 2.33844 0
M  V30 6881 N 654.53 4.70088 1.86685 0
M  V30 6882 C 652.828 3.59055 2.64567 0
M  V30 6883 C 653.529 5.52165 1.82998 0
M  V30 6884 N 652.505 4.94108 2.26624 0
M  V30 6885 H 656.307 2.82694 0.803809 0
M  V30 6886 H 653.821 1.5866 0.346519 0
M  V30 6887 H 655.818 2.60119 3.25797 0
M  V30 6888 H 654.478 1.48431 2.88788 0
M  V30 6889 H 655.489 4.93681 1.56523 0
M  V30 6890 H 652.166 2.83596 3.06398 0
M  V30 6891 H 653.556 6.55407 1.47957 0
M  V30 6892 N 656.276 -0.40816 1.52223 0
M  V30 6893 C 657.501 -1.18127 1.70472 0
M  V30 6894 C 657.926 -1.83491 0.41384 0
M  V30 6895 O 657.284 -1.70047 -0.628778 0
M  V30 6896 C 657.332 -2.21935 2.84213 0
M  V30 6897 O 656.436 -3.28099 2.4985 0
M  V30 6898 H 655.777 -0.344781 0.56747 0
M  V30 6899 H 658.307 -0.478328 1.9893 0
M  V30 6900 H 658.317 -2.66248 3.09153 0
M  V30 6901 H 656.992 -1.73744 3.7787 0
M  V30 6902 H 655.569 -2.89058 2.35584 0
M  V30 6903 N 657.755 -1.42862 -0.66545 0
M  V30 6904 C 659.032 -1.3431 -1.42197 0
M  V30 6905 C 659.412 0.0150265 -2.11095 0
M  V30 6906 O 658.76 1.03101 -2.03918 0
M  V30 6907 C 658.97 -2.51783 -2.41674 0
M  V30 6908 C 660.318 -2.94321 -3.0604 0
M  V30 6909 O 661.342 -2.51741 -2.52001 0
M  V30 6910 O 660.201 -3.68047 -4.03985 0
M  V30 6911 H 657.295 -0.530159 -0.634713 0
M  V30 6912 H 659.841 -1.54888 -0.693386 0
M  V30 6913 H 658.613 -3.42282 -1.89627 0
M  V30 6914 H 658.236 -2.33241 -3.22001 0
M  V30 6915 N 659.233 0.902656 -1.29189 0
M  V30 6916 C 660.163 2.02294 -1.16616 0
M  V30 6917 C 661.144 1.6999 -0.0611175 0
M  V30 6918 O 662.329 1.9271 -0.240072 0
M  V30 6919 C 659.459 3.37018 -0.83882 0
M  V30 6920 C 658.413 3.83522 -1.89986 0
M  V30 6921 C 657.739 5.15337 -1.42589 0
M  V30 6922 C 659.039 4.04169 -3.30824 0
M  V30 6923 H 660.733 2.13071 -2.10336 0
M  V30 6924 H 658.279 1.02378 -1.01266 0
M  V30 6925 H 660.232 4.14895 -0.737584 0
M  V30 6926 H 658.956 3.26325 0.134071 0
M  V30 6927 H 657.615 3.07859 -1.99043 0
M  V30 6928 H 657.263 5.01056 -0.441759 0
M  V30 6929 H 656.963 5.47423 -2.13547 0
M  V30 6930 H 658.487 5.95758 -1.3381 0
M  V30 6931 H 659.901 4.72537 -3.24626 0
M  V30 6932 H 658.298 4.47604 -3.99713 0
M  V30 6933 H 659.368 3.08604 -3.74021 0
M  V30 6934 N 660.711 1.11618 1.11262 0
M  V30 6935 C 661.941 0.88745 1.86569 0
M  V30 6936 C 662.349 -0.56636 1.80524 0
M  V30 6937 O 661.692 -1.40289 1.18594 0
M  V30 6938 C 661.754 1.27313 3.36202 0
M  V30 6939 C 661.418 2.73649 3.66013 0
M  V30 6940 C 662.415 3.71863 3.63337 0
M  V30 6941 C 660.1 3.10342 3.9496 0
M  V30 6942 C 662.094 5.04788 3.89188 0
M  V30 6943 C 659.781 4.43451 4.20469 0
M  V30 6944 C 660.779 5.40484 4.17572 0
M  V30 6945 O 660.467 6.71195 4.42439 0
M  V30 6946 H 660.199 0.317543 0.596777 0
M  V30 6947 H 662.753 1.48768 1.41624 0
M  V30 6948 H 660.983 0.616062 3.81761 0
M  V30 6949 H 662.672 1.01991 3.92877 0
M  V30 6950 H 663.438 3.44861 3.41022 0
M  V30 6951 H 659.317 2.35431 3.9635 0
M  V30 6952 H 662.861 5.80516 3.86842 0
M  V30 6953 H 658.758 4.70187 4.42261 0
M  V30 6954 H 659.526 6.77012 4.59997 0
M  V30 6955 N 662.189 -1.289 0.906776 0
M  V30 6956 C 663.414 -1.99939 0.551303 0
M  V30 6957 C 663.839 -1.67366 -0.858496 0
M  V30 6958 O 663.197 -0.902176 -1.57259 0
M  V30 6959 C 663.245 -3.52523 0.758937 0
M  V30 6960 O 662.349 -4.11983 -0.185308 0
M  V30 6961 H 661.69 -0.628376 0.214568 0
M  V30 6962 H 664.22 -1.64225 1.2203 0
M  V30 6963 H 664.23 -4.02522 0.666329 0
M  V30 6964 H 662.905 -3.75566 1.78671 0
M  V30 6965 H 661.482 -3.72873 -0.0445577 0
M  V30 6966 N 663.667 -0.670007 -1.42649 0
M  V30 6967 C 664.617 0.0339546 -2.27975 0
M  V30 6968 C 665.601 0.778295 -1.40824 0
M  V30 6969 O 666.793 0.657997 -1.64315 0
M  V30 6970 C 663.922 0.987899 -3.28779 0
M  V30 6971 C 663.008 0.241153 -4.23414 0
M  V30 6972 N 663.399 -0.751392 -5.00188 0
M  V30 6973 C 661.697 0.480269 -4.43407 0
M  V30 6974 C 662.398 -1.19615 -5.69269 0
M  V30 6975 N 661.374 -0.527045 -5.41039 0
M  V30 6976 H 665.176 -0.727425 -2.84756 0
M  V30 6977 H 662.69 -0.498673 -1.54554 0
M  V30 6978 H 664.687 1.50716 -3.88703 0
M  V30 6979 H 663.347 1.74916 -2.73559 0
M  V30 6980 H 664.358 -1.13075 -5.05405 0
M  V30 6981 H 661.035 1.2214 -3.99234 0
M  V30 6982 H 662.425 -2.01836 -6.40868 0
M  V30 6983 N 665.145 1.52092 -0.413018 0
M  V30 6984 C 666.375 2.05974 0.160648 0
M  V30 6985 C 666.783 1.28267 1.39084 0
M  V30 6986 O 666.126 0.328805 1.80733 0
M  V30 6987 C 666.188 3.54918 0.572169 0
M  V30 6988 C 665.852 4.53705 -0.547826 0
M  V30 6989 C 666.849 5.00342 -1.41259 0
M  V30 6990 C 664.534 4.97089 -0.721627 0
M  V30 6991 C 666.528 5.89011 -2.43607 0
M  V30 6992 C 664.215 5.85554 -1.74841 0
M  V30 6993 C 665.213 6.3141 -2.60403 0
M  V30 6994 O 664.901 7.18123 -3.61323 0
M  V30 6995 H 664.633 0.675636 0.0221936 0
M  V30 6996 H 667.187 1.96931 -0.58373 0
M  V30 6997 H 665.417 3.61661 1.36889 0
M  V30 6998 H 667.106 3.91428 1.0742 0
M  V30 6999 H 667.872 4.67537 -1.28974 0
M  V30 7000 H 663.751 4.60954 -0.0652911 0
M  V30 7001 H 667.295 6.24725 -3.10425 0
M  V30 7002 H 663.192 6.17773 -1.87156 0
M  V30 7003 H 663.96 7.36244 -3.57613 0
M  V30 7004 N 666.623 0.143563 1.56945 0
M  V30 7005 C 667.87 -0.508407 1.96014 0
M  V30 7006 C 668.198 -1.65099 1.02824 0
M  V30 7007 O 667.453 -1.95618 0.0567764 0
M  V30 7008 C 667.752 -1.05885 3.41355 0
M  V30 7009 C 667.418 -0.0350809 4.50886 0
M  V30 7010 C 666.08 0.246362 4.80569 0
M  V30 7011 C 668.432 0.661282 5.16988 0
M  V30 7012 C 665.76 1.23003 5.73661 0
M  V30 7013 C 668.112 1.63375 6.11139 0
M  V30 7014 C 666.776 1.92292 6.39203 0
M  V30 7015 H 666.046 -0.186039 0.717266 0
M  V30 7016 H 668.693 0.229667 1.90118 0
M  V30 7017 H 666.998 -1.87419 3.44066 0
M  V30 7018 H 668.695 -1.57183 3.6891 0
M  V30 7019 H 665.285 -0.264622 4.27782 0
M  V30 7020 H 669.469 0.457038 4.94191 0
M  V30 7021 H 664.725 1.46056 5.93698 0
M  V30 7022 H 668.899 2.17887 6.61436 0
M  V30 7023 H 666.526 2.68666 7.11142 0
M  V30 7024 N 668.101 -1.57061 -0.130224 0
M  V30 7025 C 669.349 -1.83893 -0.838313 0
M  V30 7026 C 669.67 -0.727046 -1.80939 0
M  V30 7027 O 668.94 0.249927 -1.94299 0
M  V30 7028 H 667.52 -0.67846 -0.312573 0
M  V30 7029 H 670.182 -1.94529 -0.120224 0
M  V30 7030 H 669.278 -2.79419 -1.39038 0
M  V30 7031 N 669.579 0.400081 -1.52437 0
M  V30 7032 C 670.827 1.14392 -1.6661 0
M  V30 7033 C 671.148 1.90792 -0.402927 0
M  V30 7034 O 670.418 1.87042 0.582425 0
M  V30 7035 H 668.998 0.425275 -0.614125 0
M  V30 7036 H 671.66 0.455076 -1.89513 0
M  V30 7037 H 670.756 1.85298 -2.51139 0
M  V30 7038 N 671.057 1.43213 0.657864 0
M  V30 7039 C 671.987 1.50815 1.78262 0
M  V30 7040 C 672.968 0.363211 1.66177 0
M  V30 7041 O 674.153 0.579806 1.85343 0
M  V30 7042 C 671.283 1.42625 3.16663 0
M  V30 7043 C 670.237 2.5532 3.43505 0
M  V30 7044 C 669.563 2.32184 4.81658 0
M  V30 7045 C 670.863 3.97583 3.38711 0
M  V30 7046 H 672.557 2.44954 1.72157 0
M  V30 7047 H 670.103 1.17896 0.82683 0
M  V30 7048 H 672.056 1.46548 3.95097 0
M  V30 7049 H 670.78 0.449877 3.23487 0
M  V30 7050 H 669.439 2.50742 2.6744 0
M  V30 7051 H 669.087 1.32801 4.85153 0
M  V30 7052 H 668.787 3.07724 5.00579 0
M  V30 7053 H 670.311 2.37883 5.62356 0
M  V30 7054 H 671.725 4.03673 4.07089 0
M  V30 7055 H 670.122 4.73112 3.69168 0
M  V30 7056 H 671.192 4.23049 2.36976 0
M  V30 7057 N 672.536 -0.895792 1.29666 0
M  V30 7058 C 673.499 -1.98189 1.15124 0
M  V30 7059 C 674.499 -1.60572 0.0855717 0
M  V30 7060 O 675.689 -1.70991 0.332826 0
M  V30 7061 C 672.821 -3.32289 0.761372 0
M  V30 7062 H 674.014 -2.12518 2.11603 0
M  V30 7063 H 671.567 -1.0808 1.12908 0
M  V30 7064 H 672.302 -3.23662 -0.203393 0
M  V30 7065 H 672.087 -3.60958 1.53139 0
M  V30 7066 H 673.577 -4.1198 0.682792 0
M  V30 7067 N 674.014 -1.12206 -1.10668 0
M  V30 7068 C 674.924 -0.800686 -2.20513 0
M  V30 7069 C 675.94 0.209512 -1.72734 0
M  V30 7070 O 677.116 0.043705 -2.01353 0
M  V30 7071 C 674.181 -0.257353 -3.45744 0
M  V30 7072 C 673.242 -1.32718 -4.0827 0
M  V30 7073 C 672.475 -0.809674 -5.27522 0
M  V30 7074 O 672.698 0.35742 -5.69279 0
M  V30 7075 O 671.632 -1.57816 -5.80842 0
M  V30 7076 H 675.458 -1.71807 -2.50432 0
M  V30 7077 H 673.043 -0.898546 -1.19359 0
M  V30 7078 H 674.925 0.0408849 -4.2138 0
M  V30 7079 H 673.6 0.632627 -3.17458 0
M  V30 7080 H 672.507 -1.67855 -3.34329 0
M  V30 7081 H 673.84 -2.19083 -4.40753 0
M  V30 7082 N 675.492 1.28418 -0.913599 0
M  V30 7083 C 676.72 1.99106 -0.562536 0
M  V30 7084 C 677.135 1.68273 0.856137 0
M  V30 7085 O 676.492 0.935401 1.56705 0
M  V30 7086 C 676.543 3.5338 -0.761903 0
M  V30 7087 O 676.264 3.83127 -2.12475 0
M  V30 7088 C 677.765 4.41328 -0.417651 0
M  V30 7089 H 674.985 0.635798 -0.214481 0
M  V30 7090 H 677.529 1.63618 -1.22676 0
M  V30 7091 H 675.684 3.8713 -0.144676 0
M  V30 7092 H 676.098 4.77763 -2.16431 0
M  V30 7093 H 677.572 5.48642 -0.607919 0
M  V30 7094 H 678.049 4.34422 0.646108 0
M  V30 7095 H 678.655 4.13074 -1.01241 0
M  V30 7096 N 676.97 0.677563 1.42291 0
M  V30 7097 C 678.216 0.201272 2.01799 0
M  V30 7098 C 678.549 -1.19004 1.53465 0
M  V30 7099 O 677.824 -1.79953 0.738039 0
M  V30 7100 C 678.107 0.238968 3.59306 0
M  V30 7101 C 677.96 1.66594 4.17812 0
M  V30 7102 C 679.279 -0.411287 4.38174 0
M  V30 7103 H 676.398 0.0746114 0.733214 0
M  V30 7104 H 679.04 0.862872 1.69276 0
M  V30 7105 H 677.19 -0.324368 3.87144 0
M  V30 7106 H 678.862 2.28173 4.00917 0
M  V30 7107 H 677.105 2.20576 3.73536 0
M  V30 7108 H 677.776 1.64398 5.26951 0
M  V30 7109 H 680.252 0.0682804 4.16044 0
M  V30 7110 H 679.128 -0.354286 5.47755 0
M  V30 7111 H 679.389 -1.4893 4.1626 0
M  V30 7112 N 678.448 -1.51871 0.421078 0
M  V30 7113 C 679.378 -2.30231 -0.389363 0
M  V30 7114 C 680.359 -1.34946 -1.03555 0
M  V30 7115 O 681.544 -1.63859 -1.04229 0
M  V30 7116 C 678.674 -3.13247 -1.49979 0
M  V30 7117 C 677.628 -4.16677 -0.977966 0
M  V30 7118 C 676.954 -4.88112 -2.1829 0
M  V30 7119 C 678.254 -5.22295 -0.0236775 0
M  V30 7120 H 679.948 -2.98229 0.264524 0
M  V30 7121 H 677.494 -1.43424 0.12866 0
M  V30 7122 H 679.447 -3.66838 -2.07383 0
M  V30 7123 H 678.171 -2.4304 -2.18173 0
M  V30 7124 H 676.83 -3.64114 -0.426245 0
M  V30 7125 H 676.478 -4.14423 -2.85066 0
M  V30 7126 H 676.178 -5.58041 -1.84021 0
M  V30 7127 H 677.702 -5.44521 -2.76278 0
M  V30 7128 H 679.116 -5.71055 -0.506899 0
M  V30 7129 H 677.513 -5.99656 0.230782 0
M  V30 7130 H 678.583 -4.76131 0.917999 0
M  V30 7131 N 679.926 -0.151884 -1.56866 0
M  V30 7132 C 681.172 0.498742 -1.96572 0
M  V30 7133 C 681.505 1.64194 -1.03702 0
M  V30 7134 O 680.78 1.94334 -0.0803432 0
M  V30 7135 C 681.063 1.00027 -3.45929 0
M  V30 7136 C 680.916 -0.141767 -4.49577 0
M  V30 7137 C 682.235 1.88044 -3.97904 0
M  V30 7138 H 679.354 0.17982 -0.714726 0
M  V30 7139 H 681.996 -0.234097 -1.88552 0
M  V30 7140 H 680.146 1.62476 -3.52894 0
M  V30 7141 H 681.818 -0.778269 -4.54687 0
M  V30 7142 H 680.061 -0.80019 -4.26356 0
M  V30 7143 H 680.732 0.250947 -5.51429 0
M  V30 7144 H 683.208 1.35416 -3.93449 0
M  V30 7145 H 682.084 2.20043 -5.02864 0
M  V30 7146 H 682.345 2.81916 -3.40552 0
M  V30 7147 N 681.404 1.57128 0.121893 0
M  V30 7148 C 682.65 1.84974 0.831418 0
M  V30 7149 C 682.983 0.737204 1.79663 0
M  V30 7150 O 682.258 -0.257199 1.92792 0
M  V30 7151 C 682.541 3.23397 1.58386 0
M  V30 7152 C 682.394 4.45246 0.638445 0
M  V30 7153 C 683.713 3.59355 2.54071 0
M  V30 7154 H 680.832 0.67282 0.300803 0
M  V30 7155 H 683.474 1.89759 0.0957587 0
M  V30 7156 H 681.624 3.19449 2.21098 0
M  V30 7157 H 683.296 4.61295 0.0203925 0
M  V30 7158 H 681.539 4.33771 -0.05023 0
M  V30 7159 H 682.21 5.38765 1.20151 0
M  V30 7160 H 684.686 3.64075 2.01465 0
M  V30 7161 H 683.562 4.57193 3.03752 0
M  V30 7162 H 683.823 2.86622 3.36601 0
M  V30 7163 N 682.882 -0.391992 1.52647 0
M  V30 7164 C 684.298 -0.731848 1.41831 0
M  V30 7165 C 684.498 -1.9423 0.536361 0
M  V30 7166 O 683.554 -2.52499 0.00866571 0
M  V30 7167 C 684.867 -0.969743 2.84634 0
M  V30 7168 C 686.415 -1.0714 2.94092 0
M  V30 7169 C 686.89 -1.34195 4.37899 0
M  V30 7170 N 688.381 -1.41023 4.41211 0
M  V30 7171 C 689.116 -1.63616 5.49561 0
M  V30 7172 N 688.612 -1.83699 6.68002 0
M  V30 7173 N 690.405 -1.65771 5.371 0
M  V30 7174 H 682.556 0.404547 2.08512 0
M  V30 7175 H 684.819 0.11879 0.940528 0
M  V30 7176 H 684.525 -0.152465 3.51369 0
M  V30 7177 H 684.399 -1.88523 3.26709 0
M  V30 7178 H 686.786 -1.87925 2.27526 0
M  V30 7179 H 686.867 -0.133887 2.55449 0
M  V30 7180 H 686.511 -0.539207 5.0503 0
M  V30 7181 H 686.441 -2.29226 4.74092 0
M  V30 7182 H 688.932 -1.27223 3.55841 0
M  V30 7183 H 689.245 -2.00437 7.46354 0
M  V30 7184 H 687.59 -1.8093 6.71036 0
M  V30 7185 H 690.781 -1.4963 4.43541 0
M  V30 7186 H 690.954 -1.83038 6.21612 0
M  V30 7187 N 684.36 -1.4356 -0.65026 0
M  V30 7188 C 685.585 -1.48995 -1.44275 0
M  V30 7189 C 686.01 -0.109954 -1.87778 0
M  V30 7190 O 685.368 0.896926 -1.57559 0
M  V30 7191 C 685.416 -2.44341 -2.65198 0
M  V30 7192 O 684.52 -1.93172 -3.6436 0
M  V30 7193 H 683.861 -0.503852 -0.432469 0
M  V30 7194 H 686.391 -1.88504 -0.795446 0
M  V30 7195 H 686.401 -2.61743 -3.12977 0
M  V30 7196 H 685.076 -3.44588 -2.32877 0
M  V30 7197 H 683.653 -1.85445 -3.23519 0
M  V30 7198 N 685.838 0.888903 -1.30139 0
M  V30 7199 C 686.771 1.99655 -1.10514 0
M  V30 7200 C 687.749 1.62594 -0.0138934 0
M  V30 7201 O 688.933 1.87762 -0.166689 0
M  V30 7202 C 686.06 3.31708 -0.684655 0
M  V30 7203 C 685.106 3.87755 -1.77619 0
M  V30 7204 S 685.939 4.15532 -3.37777 0
M  V30 7205 C 687.095 5.5061 -2.97622 0
M  V30 7206 H 687.328 2.15996 -2.04287 0
M  V30 7207 H 684.861 1.03682 -1.14409 0
M  V30 7208 H 686.819 4.08039 -0.448782 0
M  V30 7209 H 685.48 3.1323 0.233648 0
M  V30 7210 H 684.673 4.83164 -1.43417 0
M  V30 7211 H 684.275 3.18149 -1.96614 0
M  V30 7212 H 686.567 6.31518 -2.45338 0
M  V30 7213 H 687.51 5.89747 -3.91924 0
M  V30 7214 H 687.918 5.12983 -2.35603 0
M  V30 7215 N 687.317 1.12792 1.10072 0
M  V30 7216 C 688.542 0.908838 1.86427 0
M  V30 7217 C 688.967 -0.536793 1.80278 0
M  V30 7218 O 688.325 -1.38033 1.17543 0
M  V30 7219 C 688.373 1.39295 3.3261 0
M  V30 7220 O 687.477 0.573846 4.08388 0
M  V30 7221 H 686.818 0.326234 0.578331 0
M  V30 7222 H 689.348 1.50094 1.39043 0
M  V30 7223 H 689.358 1.39366 3.83459 0
M  V30 7224 H 688.033 2.44555 3.36401 0
M  V30 7225 H 686.61 0.640438 3.67359 0
M  V30 7226 N 688.795 -1.27931 0.920396 0
M  V30 7227 C 690.023 -1.98805 0.573087 0
M  V30 7228 C 690.438 -1.68724 -0.847201 0
M  V30 7229 O 689.795 -0.943699 -1.56207 0
M  V30 7230 C 689.846 -3.52971 0.780633 0
M  V30 7231 O 689.567 -3.81994 2.14504 0
M  V30 7232 C 691.068 -4.411 0.44105 0
M  V30 7233 H 688.288 -0.634651 0.21785 0
M  V30 7234 H 690.832 -1.62965 1.23542 0
M  V30 7235 H 688.987 -3.87048 0.165204 0
M  V30 7236 H 689.401 -4.76609 2.18962 0
M  V30 7237 H 690.875 -5.48312 0.637006 0
M  V30 7238 H 691.352 -4.34758 -0.62306 0
M  V30 7239 H 691.958 -4.12532 1.0343 0
M  V30 7240 N 690.273 -0.685099 -1.4193 0
M  V30 7241 C 691.203 -0.0273506 -2.33484 0
M  V30 7242 C 692.184 0.778366 -1.51246 0
M  V30 7243 O 693.369 0.733449 -1.79817 0
M  V30 7244 C 690.499 0.917272 -3.34968 0
M  V30 7245 C 689.453 0.21941 -4.27437 0
M  V30 7246 C 688.779 1.27768 -5.1921 0
M  V30 7247 C 690.079 -0.907894 -5.14349 0
M  V30 7248 H 691.773 -0.791994 -2.88735 0
M  V30 7249 H 689.319 -0.382308 -1.38832 0
M  V30 7250 H 691.272 1.38657 -3.97935 0
M  V30 7251 H 689.996 1.71346 -2.78043 0
M  V30 7252 H 688.655 -0.229757 -3.65879 0
M  V30 7253 H 688.303 2.06612 -4.58607 0
M  V30 7254 H 688.003 0.815803 -5.81909 0
M  V30 7255 H 689.527 1.7477 -5.85054 0
M  V30 7256 H 690.941 -0.519348 -5.70943 0
M  V30 7257 H 689.338 -1.2962 -5.85934 0
M  V30 7258 H 690.408 -1.75218 -4.52136 0
M  V30 7259 N 691.751 1.51645 -0.429126 0
M  V30 7260 C 692.681 2.30434 0.377148 0
M  V30 7261 C 693.662 1.35493 1.02838 0
M  V30 7262 O 694.847 1.6441 1.03359 0
M  V30 7263 C 691.977 3.14038 1.48315 0
M  V30 7264 C 690.931 4.1719 0.955855 0
M  V30 7265 C 690.257 4.89263 2.15698 0
M  V30 7266 C 691.557 5.223 -0.00402136 0
M  V30 7267 H 693.251 2.98085 -0.280336 0
M  V30 7268 H 690.797 1.43354 -0.136265 0
M  V30 7269 H 692.75 3.67933 2.05435 0
M  V30 7270 H 691.474 2.44193 2.16881 0
M  V30 7271 H 690.133 3.64335 0.406929 0
M  V30 7272 H 689.781 4.15929 2.82864 0
M  V30 7273 H 689.481 5.59009 1.81059 0
M  V30 7274 H 691.005 5.45978 2.73387 0
M  V30 7275 H 692.419 5.71315 0.476607 0
M  V30 7276 H 690.816 5.99525 -0.26258 0
M  V30 7277 H 691.886 4.75638 -0.943236 0
M  V30 7278 N 693.229 0.160201 1.56784 0
M  V30 7279 C 694.177 -0.791402 2.18723 0
M  V30 7280 C 695.171 -1.24567 1.14801 0
M  V30 7281 O 696.377 -1.21262 1.33025 0
M  V30 7282 H 692.752 -0.273458 0.700517 0
M  V30 7283 H 694.723 -0.244931 2.97393 0
M  V30 7284 C 693.472 -2.01509 2.83354 0
M  V30 7285 H 692.795 -1.67454 3.63041 0
M  V30 7286 H 694.235 -2.66006 3.30177 0
M  V30 7287 C 692.694 -2.83159 1.82545 0
M  V30 7288 O 693.224 -3.79944 1.30405 0
M  V30 7289 N 691.43 -2.47953 1.51552 0
M  V30 7290 H 690.977 -1.69309 1.94144 0
M  V30 7291 H 690.935 -3.02873 0.843519 0
M  V30 7292 N 694.707 -1.5719 -0.113559 0
M  V30 7293 C 695.937 -1.89053 -0.833212 0
M  V30 7294 C 696.345 -0.750139 -1.73694 0
M  V30 7295 O 695.688 0.287808 -1.81431 0
M  V30 7296 C 695.75 -3.15986 -1.71443 0
M  V30 7297 C 695.414 -4.46271 -0.984449 0
M  V30 7298 C 696.411 -5.18897 -0.322741 0
M  V30 7299 C 694.096 -4.92963 -0.964011 0
M  V30 7300 C 696.09 -6.3644 0.349646 0
M  V30 7301 C 693.777 -6.10422 -0.287828 0
M  V30 7302 C 694.775 -6.82009 0.36784 0
M  V30 7303 O 694.463 -7.97233 1.03322 0
M  V30 7304 H 694.195 -0.630225 -0.244526 0
M  V30 7305 H 696.749 -2.05152 -0.100847 0
M  V30 7306 H 694.979 -2.95984 -2.48858 0
M  V30 7307 H 696.668 -3.33826 -2.309 0
M  V30 7308 H 697.434 -4.83875 -0.330114 0
M  V30 7309 H 693.313 -4.37143 -1.46379 0
M  V30 7310 H 696.857 -6.92254 0.861996 0
M  V30 7311 H 692.754 -6.449 -0.278237 0
M  V30 7312 H 693.522 -8.13105 0.938247 0
M  V30 7313 N 696.185 0.383891 -1.52853 0
M  V30 7314 C 697.462 1.14296 -1.58732 0
M  V30 7315 C 697.842 2.07585 -0.383611 0
M  V30 7316 O 697.19 2.1971 0.627661 0
M  V30 7317 C 697.4 1.89816 -2.92867 0
M  V30 7318 C 698.748 2.44998 -3.46787 0
M  V30 7319 O 699.772 1.99966 -2.94774 0
M  V30 7320 O 698.631 3.2727 -4.37672 0
M  V30 7321 H 695.725 0.52326 -0.640413 0
M  V30 7322 H 698.271 0.388631 -1.6519 0
M  V30 7323 H 697.043 1.21626 -3.71918 0
M  V30 7324 H 696.666 2.72199 -2.89816 0
M  V30 7325 N 697.663 1.43903 0.642637 0
M  V30 7326 C 698.893 1.49323 1.4278 0
M  V30 7327 C 699.301 0.113058 1.88862 0
M  V30 7328 O 698.644 -0.889089 1.60751 0
M  V30 7329 C 698.706 2.3861 2.68897 0
M  V30 7330 C 698.37 3.85976 2.44687 0
M  V30 7331 C 699.367 4.7681 2.07239 0
M  V30 7332 C 697.052 4.30567 2.58683 0
M  V30 7333 C 699.046 6.10234 1.841 0
M  V30 7334 C 696.733 5.64042 2.35159 0
M  V30 7335 C 697.731 6.53693 1.97925 0
M  V30 7336 O 697.419 7.84698 1.74654 0
M  V30 7337 H 697.151 0.509109 0.444729 0
M  V30 7338 H 699.705 1.89425 0.794195 0
M  V30 7339 H 697.935 1.93415 3.34855 0
M  V30 7340 H 699.624 2.35112 3.30873 0
M  V30 7341 H 700.39 4.43635 1.95993 0
M  V30 7342 H 696.269 3.61054 2.86637 0
M  V30 7343 H 699.813 6.80171 1.54962 0
M  V30 7344 H 695.71 5.96782 2.46011 0
M  V30 7345 H 696.478 7.96382 1.88993 0
M  V30 7346 N 699.141 -0.881989 1.30609 0
M  V30 7347 C 700.387 -1.63647 1.19781 0
M  V30 7348 C 700.72 -1.92632 -0.246265 0
M  V30 7349 O 699.995 -1.54938 -1.17577 0
M  V30 7350 C 700.278 -2.97437 2.02985 0
M  V30 7351 C 700.131 -2.75406 3.55628 0
M  V30 7352 C 701.45 -3.98397 1.86997 0
M  V30 7353 H 698.569 -0.593841 0.436488 0
M  V30 7354 H 701.211 -1.02041 1.60273 0
M  V30 7355 H 699.361 -3.50018 1.68581 0
M  V30 7356 H 701.033 -2.2959 4.00107 0
M  V30 7357 H 699.276 -2.09856 3.79662 0
M  V30 7358 H 699.947 -3.70552 4.09139 0
M  V30 7359 H 702.423 -3.54986 2.17081 0
M  V30 7360 H 701.299 -4.89916 2.47536 0
M  V30 7361 H 701.56 -4.3424 0.829943 0
M  V30 7362 N 700.619 -1.13374 -1.09472 0
M  V30 7363 C 701.865 -0.906459 -1.82085 0
M  V30 7364 C 702.22 0.5614 -1.84027 0
M  V30 7365 O 701.513 1.41012 -1.29716 0
M  V30 7366 C 701.707 -1.42759 -3.2765 0
M  V30 7367 C 701.536 -2.94459 -3.39888 0
M  V30 7368 C 700.306 -3.62798 -3.51718 0
M  V30 7369 C 702.504 -3.92398 -3.32457 0
M  V30 7370 N 700.486 -5.02516 -3.52635 0
M  V30 7371 C 701.857 -5.18304 -3.40237 0
M  V30 7372 C 703.912 -3.84671 -3.16122 0
M  V30 7373 C 702.615 -6.37386 -3.33364 0
M  V30 7374 C 704.641 -5.03287 -3.10574 0
M  V30 7375 C 704.003 -6.28055 -3.18945 0
M  V30 7376 H 700.102 -0.385097 -0.680606 0
M  V30 7377 H 702.686 -1.44187 -1.30836 0
M  V30 7378 H 700.857 -0.919102 -3.77369 0
M  V30 7379 H 702.589 -1.14136 -3.88272 0
M  V30 7380 H 699.344 -3.13317 -3.55147 0
M  V30 7381 H 699.768 -5.75421 -3.56679 0
M  V30 7382 H 704.41 -2.89094 -3.0852 0
M  V30 7383 H 702.128 -7.33219 -3.3973 0
M  V30 7384 H 705.714 -4.99047 -2.9907 0
M  V30 7385 H 704.594 -7.18299 -3.14668 0
M  V30 7386 N 702.098 1.27442 -0.927168 0
M  V30 7387 C 703.375 1.89473 -0.485742 0
M  V30 7388 C 703.755 1.83922 1.03614 0
M  V30 7389 O 703.103 1.28409 1.89007 0
M  V30 7390 C 703.313 3.33417 -1.03123 0
M  V30 7391 C 704.661 4.10333 -1.0914 0
M  V30 7392 O 705.685 3.4243 -0.98082 0
M  V30 7393 O 704.544 5.31737 -1.26165 0
M  V30 7394 H 701.638 0.812124 -0.156154 0
M  V30 7395 H 704.184 1.35713 -1.01882 0
M  V30 7396 H 702.956 3.31747 -2.07508 0
M  V30 7397 H 702.579 3.94695 -0.479767 0
M  V30 7398 N 703.576 0.692616 1.41565 0
M  V30 7399 C 704.804 0.231279 2.05603 0
M  V30 7400 C 705.219 -1.11837 1.52111 0
M  V30 7401 O 704.576 -1.6983 0.66813 0
M  V30 7402 C 704.627 0.177125 3.61066 0
M  V30 7403 O 704.348 1.47346 4.12578 0
M  V30 7404 C 705.849 -0.30556 4.42246 0
M  V30 7405 H 703.069 0.108238 0.662213 0
M  V30 7406 H 705.613 0.944369 1.81389 0
M  V30 7407 H 703.768 -0.486769 3.8433 0
M  V30 7408 H 704.182 1.35861 5.06599 0
M  V30 7409 H 705.656 -0.29233 5.51225 0
M  V30 7410 H 706.133 -1.34393 4.18133 0
M  V30 7411 H 706.739 0.327229 4.24039 0
M  V30 7412 N 705.054 -1.51416 0.437162 0
M  V30 7413 C 706.3 -2.02386 -0.129555 0
M  V30 7414 C 706.633 -1.32071 -1.42376 0
M  V30 7415 O 705.908 -0.43559 -1.8956 0
M  V30 7416 C 706.191 -3.5841 -0.348487 0
M  V30 7417 C 706.044 -4.39341 0.964352 0
M  V30 7418 C 707.363 -4.25654 -1.11834 0
M  V30 7419 H 704.482 -0.735587 -0.0456109 0
M  V30 7420 H 707.124 -1.81055 0.576124 0
M  V30 7421 H 705.274 -3.76716 -0.949592 0
M  V30 7422 H 706.946 -4.32685 1.59942 0
M  V30 7423 H 705.189 -4.04432 1.56898 0
M  V30 7424 H 705.86 -5.4667 0.765212 0
M  V30 7425 H 708.336 -4.11617 -0.609165 0
M  V30 7426 H 707.212 -5.34704 -1.24029 0
M  V30 7427 H 707.473 -3.86502 -2.14636 0
M  V30 7428 N 706.532 -0.168513 -1.56696 0
M  V30 7429 C 707.779 0.477158 -1.96798 0
M  V30 7430 C 708.107 1.63442 -1.05437 0
M  V30 7431 O 707.362 1.95503 -0.0878903 0
M  V30 7432 C 707.661 1.00441 -3.42996 0
M  V30 7433 C 707.327 -0.0366556 -4.50885 0
M  V30 7434 C 705.989 -0.322785 -4.80116 0
M  V30 7435 C 708.341 -0.743447 -5.1587 0
M  V30 7436 C 705.669 -1.32114 -5.71632 0
M  V30 7437 C 708.021 -1.73077 -6.08463 0
M  V30 7438 C 706.685 -2.02437 -6.36062 0
M  V30 7439 H 705.955 0.174604 -0.720135 0
M  V30 7440 H 708.602 -0.259884 -1.89728 0
M  V30 7441 H 706.907 1.81922 -3.47004 0
M  V30 7442 H 708.604 1.51294 -3.71364 0
M  V30 7443 H 705.194 0.196532 -4.28149 0
M  V30 7444 H 709.378 -0.535602 -4.93401 0
M  V30 7445 H 704.634 -1.55482 -5.913 0
M  V30 7446 H 708.808 -2.28382 -6.57886 0
M  V30 7447 H 706.435 -2.79946 -7.06777 0
M  V30 7448 N 708.01 1.57248 0.105221 0
M  V30 7449 C 708.96 1.9777 1.1345 0
M  V30 7450 C 709.944 0.854654 1.36325 0
M  V30 7451 O 711.136 1.11844 1.37186 0
M  V30 7452 C 708.265 2.39717 2.45745 0
M  V30 7453 C 707.351 3.58686 2.26286 0
M  V30 7454 N 707.742 4.73942 1.76671 0
M  V30 7455 C 706.04 3.64586 2.56891 0
M  V30 7456 C 706.741 5.55923 1.71245 0
M  V30 7457 N 705.717 4.98803 2.16093 0
M  V30 7458 H 709.519 2.84336 0.743664 0
M  V30 7459 H 707.033 1.59359 0.312787 0
M  V30 7460 H 709.03 2.66971 3.20206 0
M  V30 7461 H 707.69 1.54523 2.85574 0
M  V30 7462 H 708.701 4.9689 1.46016 0
M  V30 7463 H 705.378 2.90031 3.00314 0
M  V30 7464 H 706.768 6.58398 1.34022 0
M  V30 7465 N 709.488 -0.375779 1.53054 0
M  V30 7466 C 710.899 -0.95309 1.6054 0
M  V30 7467 C 711.25 -1.90575 0.466446 0
M  V30 7468 O 710.375 -2.12507 -0.408609 0
M  V30 7469 C 710.97 -1.73537 2.90982 0
M  V30 7470 C 709.529 -2.26218 3.00836 0
M  V30 7471 C 708.676 -1.07157 2.55759 0
M  V30 7472 H 711.627 -0.154895 1.57942 0
M  V30 7473 H 711.648 -2.59574 2.78211 0
M  V30 7474 H 711.16 -1.04176 3.73857 0
M  V30 7475 H 709.261 -2.98852 2.22527 0
M  V30 7476 H 709.374 -2.54799 4.05727 0
M  V30 7477 H 707.738 -1.43553 2.10391 0
M  V30 7478 H 708.521 -0.393099 3.41042 0
M  V30 7479 N 710.966 -1.44241 -0.634997 0
M  V30 7480 C 712.191 -1.50516 -1.42687 0
M  V30 7481 C 712.616 -0.129864 -1.87651 0
M  V30 7482 O 711.974 0.880164 -1.58502 0
M  V30 7483 C 712.022 -2.4714 -2.62591 0
M  V30 7484 O 711.126 -1.97025 -3.62291 0
M  V30 7485 H 710.467 -0.50841 -0.427101 0
M  V30 7486 H 712.997 -1.89337 -0.775408 0
M  V30 7487 H 713.007 -2.65048 -3.10183 0
M  V30 7488 H 711.682 -3.47039 -2.29209 0
M  V30 7489 H 710.259 -1.88866 -3.21534 0
M  V30 7490 N 712.444 0.87505 -1.31075 0
M  V30 7491 C 713.692 1.62447 -1.20231 0
M  V30 7492 C 714.013 1.93506 0.240888 0
M  V30 7493 O 713.283 1.57847 1.16022 0
M  V30 7494 H 711.863 0.602207 -0.441991 0
M  V30 7495 H 714.525 1.04788 -1.64334 0
M  V30 7496 H 713.621 2.57031 -1.77036 0
M  V30 7497 N 713.922 1.13953 1.08869 0
M  V30 7498 C 714.885 0.824991 2.13838 0
M  V30 7499 C 715.885 -0.168198 1.59918 0
M  V30 7500 O 717.075 0.0595778 1.74098 0
M  V30 7501 C 714.207 0.228938 3.4013 0
M  V30 7502 H 715.4 1.75521 2.43171 0
M  V30 7503 H 712.953 0.94492 1.24503 0
M  V30 7504 H 713.688 -0.710227 3.16427 0
M  V30 7505 H 713.473 0.944243 3.80561 0
M  V30 7506 H 714.963 0.0259223 4.17592 0
M  V30 7507 N 715.4 -1.26948 0.933913 0
M  V30 7508 C 716.649 -1.93378 0.573409 0
M  V30 7509 C 716.962 -1.74148 -0.890614 0
M  V30 7510 O 718.168 -2.34971 -1.36017 0
M  V30 7511 C 716.624 -3.46449 0.974747 0
M  V30 7512 C 716.232 -3.74425 2.45988 0
M  V30 7513 C 717.976 -4.18924 0.685791 0
M  V30 7514 C 715.883 -5.209 2.8003 0
M  V30 7515 H 714.813 -0.723952 0.210736 0
M  V30 7516 H 717.464 -1.44143 1.13557 0
M  V30 7517 H 715.846 -3.94528 0.341181 0
M  V30 7518 H 717.02 -3.37079 3.14188 0
M  V30 7519 H 715.335 -3.15167 2.72138 0
M  V30 7520 H 717.932 -5.26786 0.916546 0
M  V30 7521 H 718.275 -4.14587 -0.377217 0
M  V30 7522 H 718.808 -3.76687 1.27874 0
M  V30 7523 H 715.547 -5.30332 3.85264 0
M  V30 7524 H 715.067 -5.59369 2.16485 0
M  V30 7525 H 716.746 -5.88837 2.68105 0
M  V30 7526 N 716.879 -0.700114 -1.41195 0
M  V30 7527 C 717.789 -0.0382854 -2.34569 0
M  V30 7528 C 718.805 0.761036 -1.56474 0
M  V30 7529 O 719.981 0.697553 -1.88934 0
M  V30 7530 C 717.046 0.883522 -3.35253 0
M  V30 7531 C 716.107 0.0758957 -4.29233 0
M  V30 7532 C 715.34 0.9538 -5.25108 0
M  V30 7533 O 715.563 2.19326 -5.26547 0
M  V30 7534 O 714.497 0.401049 -6.00562 0
M  V30 7535 H 718.323 -0.808073 -2.92752 0
M  V30 7536 H 715.908 -0.460479 -1.42127 0
M  V30 7537 H 717.79 1.41199 -3.9704 0
M  V30 7538 H 716.465 1.63272 -2.79506 0
M  V30 7539 H 715.372 -0.497274 -3.7078 0
M  V30 7540 H 716.705 -0.634741 -4.8809 0
M  V30 7541 N 718.357 1.51182 -0.445186 0
M  V30 7542 C 719.606 2.01342 0.120189 0
M  V30 7543 C 719.919 1.33353 1.43095 0
M  V30 7544 O 721.125 1.74525 2.07974 0
M  V30 7545 C 719.581 3.58925 0.264732 0
M  V30 7546 C 719.189 4.35855 -1.03606 0
M  V30 7547 C 720.933 4.17208 0.783455 0
M  V30 7548 C 718.84 5.85162 -0.856731 0
M  V30 7549 H 717.77 0.752426 0.0486922 0
M  V30 7550 H 720.421 1.74221 -0.576143 0
M  V30 7551 H 718.803 3.82525 1.02425 0
M  V30 7552 H 719.977 4.23997 -1.80452 0
M  V30 7553 H 718.292 3.89062 -1.48391 0
M  V30 7554 H 720.889 5.26475 0.934239 0
M  V30 7555 H 721.232 3.76892 1.768 0
M  V30 7556 H 721.765 3.97715 0.0820346 0
M  V30 7557 H 718.504 6.29904 -1.81388 0
M  V30 7558 H 718.024 5.99663 -0.128206 0
M  V30 7559 H 719.703 6.44963 -0.513027 0
M  V30 7560 N 719.835 0.176821 1.56605 0
M  V30 7561 C 721.251 -0.179278 1.5859 0
M  V30 7562 C 721.451 -1.62433 1.19238 0
M  V30 7563 O 720.507 -2.35665 0.906552 0
M  V30 7564 C 721.82 0.106524 3.00511 0
M  V30 7565 C 723.368 0.0451731 3.12967 0
M  V30 7566 C 723.843 0.304038 4.5699 0
M  V30 7567 N 725.334 0.252008 4.62514 0
M  V30 7568 C 726.069 0.426404 5.71812 0
M  V30 7569 N 725.565 0.660155 6.89648 0
M  V30 7570 N 727.358 0.361926 5.60934 0
M  V30 7571 H 719.509 1.12001 1.8047 0
M  V30 7572 H 721.772 0.445679 0.836704 0
M  V30 7573 H 721.478 1.10778 3.33798 0
M  V30 7574 H 721.352 -0.599337 3.72408 0
M  V30 7575 H 723.739 -0.946662 2.79504 0
M  V30 7576 H 723.82 0.78383 2.43495 0
M  V30 7577 H 723.464 1.29311 4.91163 0
M  V30 7578 H 723.394 -0.455294 5.24628 0
M  V30 7579 H 725.885 0.0772102 3.77821 0
M  V30 7580 H 726.198 0.782529 7.68828 0
M  V30 7581 H 724.543 0.696835 6.91498 0
M  V30 7582 H 727.734 0.17986 4.67754 0
M  V30 7583 H 727.907 0.501263 6.46058 0
M  V30 7584 N 721.313 -1.57302 -0.09688 0
M  V30 7585 C 722.56 -1.85997 -0.800699 0
M  V30 7586 C 722.888 -0.765089 -1.7882 0
M  V30 7587 O 722.143 0.241492 -1.94204 0
M  V30 7588 C 722.442 -3.21272 -1.56586 0
M  V30 7589 C 722.108 -4.45104 -0.72064 0
M  V30 7590 C 720.77 -4.78723 -0.487632 0
M  V30 7591 C 723.122 -5.2103 -0.132948 0
M  V30 7592 C 720.45 -5.85697 0.34296 0
M  V30 7593 C 722.802 -6.28881 0.684957 0
M  V30 7594 C 721.466 -6.61017 0.928073 0
M  V30 7595 H 720.736 -0.680613 -0.292997 0
M  V30 7596 H 723.383 -1.91399 -0.0622474 0
M  V30 7597 H 721.688 -3.11547 -2.37583 0
M  V30 7598 H 723.385 -3.40702 -2.11478 0
M  V30 7599 H 719.975 -4.18777 -0.912359 0
M  V30 7600 H 724.159 -4.95392 -0.300132 0
M  V30 7601 H 719.415 -6.09008 0.540317 0
M  V30 7602 H 723.589 -6.86886 1.14721 0
M  V30 7603 H 721.216 -7.43738 1.57348 0
M  V30 7604 N 722.791 0.367657 -1.53252 0
M  V30 7605 C 724.021 1.12955 -1.72988 0
M  V30 7606 C 724.429 1.8358 -0.457708 0
M  V30 7607 O 723.772 1.74336 0.579006 0
M  V30 7608 C 723.834 2.20545 -2.83902 0
M  V30 7609 C 723.498 1.69704 -4.24323 0
M  V30 7610 C 724.495 1.16223 -5.06743 0
M  V30 7611 C 722.18 1.7528 -4.70725 0
M  V30 7612 C 724.174 0.689935 -6.33655 0
M  V30 7613 C 721.861 1.27662 -5.97617 0
M  V30 7614 C 722.859 0.746083 -6.78913 0
M  V30 7615 O 722.547 0.276925 -8.03423 0
M  V30 7616 H 722.279 0.343753 -0.582074 0
M  V30 7617 H 724.833 0.433106 -2.00782 0
M  V30 7618 H 723.063 2.93676 -2.51577 0
M  V30 7619 H 724.752 2.82111 -2.91836 0
M  V30 7620 H 725.518 1.11256 -4.72067 0
M  V30 7621 H 721.397 2.15515 -4.07522 0
M  V30 7622 H 724.941 0.275164 -6.97057 0
M  V30 7623 H 720.838 1.32322 -6.31792 0
M  V30 7624 H 721.606 0.396445 -8.17539 0
M  V30 7625 N 724.269 1.44576 0.627338 0
M  V30 7626 C 725.232 1.51372 1.72102 0
M  V30 7627 C 726.232 0.395329 1.55865 0
M  V30 7628 O 727.422 0.658094 1.61291 0
M  V30 7629 C 724.554 1.39129 3.11217 0
M  V30 7630 H 725.747 2.48798 1.6745 0
M  V30 7631 H 723.3 1.31724 0.841336 0
M  V30 7632 H 724.035 0.428114 3.21462 0
M  V30 7633 H 723.82 2.20229 3.24409 0
M  V30 7634 H 725.31 1.46874 3.90919 0
M  V30 7635 N 725.747 -0.868086 1.31537 0
M  V30 7636 C 726.975 -1.65402 1.24298 0
M  V30 7637 C 727.39 -1.87827 -0.191389 0
M  V30 7638 O 726.747 -1.43776 -1.12404 0
M  V30 7639 C 726.798 -3.02093 1.9855 0
M  V30 7640 O 726.519 -2.80668 3.36388 0
M  V30 7641 C 728.02 -3.96538 1.98173 0
M  V30 7642 H 725.24 -0.515598 0.429417 0
M  V30 7643 H 727.784 -1.0834 1.73444 0
M  V30 7644 H 725.939 -3.55838 1.53161 0
M  V30 7645 H 726.353 -3.67504 3.74221 0
M  V30 7646 H 727.827 -4.8976 2.54635 0
M  V30 7647 H 728.304 -4.28474 0.964697 0
M  V30 7648 H 728.91 -3.48729 2.4345 0
M  V30 7649 N 727.225 -1.14528 -1.08264 0
M  V30 7650 C 728.473 -0.912599 -1.80322 0
M  V30 7651 C 728.794 0.562256 -1.86718 0
M  V30 7652 O 728.064 1.40869 -1.36135 0
M  V30 7653 H 726.644 -0.334645 -0.667849 0
M  V30 7654 H 729.306 -1.44415 -1.30883 0
M  V30 7655 H 728.402 -1.31384 -2.83098 0
M  V30 7656 N 728.703 1.26451 -0.940633 0
M  V30 7657 C 729.933 1.97581 -0.603766 0
M  V30 7658 C 730.341 1.70246 0.825395 0
M  V30 7659 O 729.684 0.967001 1.56188 0
M  V30 7660 C 729.746 3.51256 -0.765463 0
M  V30 7661 C 729.41 4.0224 -2.16915 0
M  V30 7662 C 730.407 4.1402 -3.14457 0
M  V30 7663 C 728.092 4.36263 -2.48958 0
M  V30 7664 C 730.086 4.59117 -4.42143 0
M  V30 7665 C 727.773 4.81048 -3.76877 0
M  V30 7666 C 728.771 4.92436 -4.73282 0
M  V30 7667 O 728.459 5.36234 -5.98923 0
M  V30 7668 H 728.191 0.636948 -0.226436 0
M  V30 7669 H 730.745 1.61941 -1.2635 0
M  V30 7670 H 728.975 3.86669 -0.0485956 0
M  V30 7671 H 730.664 4.03597 -0.431738 0
M  V30 7672 H 731.43 3.87981 -2.91026 0
M  V30 7673 H 727.309 4.26634 -1.74656 0
M  V30 7674 H 730.853 4.6792 -5.17394 0
M  V30 7675 H 726.75 5.06531 -4.00121 0
M  V30 7676 H 727.518 5.54456 -6.02097 0
M  V30 7677 N 730.181 0.707592 1.40822 0
M  V30 7678 C 731.43 0.240705 2.00259 0
M  V30 7679 C 731.743 -1.17027 1.56729 0
M  V30 7680 O 732.949 -1.73526 2.08809 0
M  V30 7681 C 731.405 0.379432 3.57894 0
M  V30 7682 C 731.013 1.79654 4.104 0
M  V30 7683 C 732.757 -0.0270684 4.24491 0
M  V30 7684 C 730.664 1.88628 5.60512 0
M  V30 7685 H 729.594 0.0862369 0.749052 0
M  V30 7686 H 732.245 0.877528 1.61157 0
M  V30 7687 H 730.627 -0.325842 3.94657 0
M  V30 7688 H 731.801 2.53155 3.85032 0
M  V30 7689 H 730.116 2.15379 3.56372 0
M  V30 7690 H 732.713 0.0193743 5.34696 0
M  V30 7691 H 733.056 -1.06772 4.02375 0
M  V30 7692 H 733.589 0.628361 3.92806 0
M  V30 7693 H 730.328 2.90787 5.87472 0
M  V30 7694 H 729.848 1.19528 5.8777 0
M  V30 7695 H 731.527 1.6547 6.25483 0
M  V30 7696 N 731.66 -1.50943 0.453197 0
M  V30 7697 C 732.885 -2.07116 -0.108463 0
M  V30 7698 C 733.31 -1.31681 -1.3432 0
M  V30 7699 O 732.668 -0.359256 -1.77705 0
M  V30 7700 C 732.716 -3.58447 -0.393424 0
M  V30 7701 O 731.82 -3.85038 -1.47714 0
M  V30 7702 H 731.161 -0.66398 0.0050993 0
M  V30 7703 H 733.691 -1.94362 0.639095 0
M  V30 7704 H 733.701 -4.02961 -0.639222 0
M  V30 7705 H 732.376 -4.12774 0.508946 0
M  V30 7706 H 730.953 -3.52376 -1.22006 0
M  V30 7707 N 733.138 -0.185124 -1.56509 0
M  V30 7708 C 734.363 0.465278 -2.02114 0
M  V30 7709 C 734.788 1.55083 -1.06447 0
M  V30 7710 O 734.146 1.81241 -0.0462852 0
M  V30 7711 C 734.194 1.00784 -3.46229 0
M  V30 7712 O 733.298 2.12123 -3.53663 0
M  V30 7713 H 732.639 0.109891 -0.654843 0
M  V30 7714 H 735.169 -0.293072 -2.0249 0
M  V30 7715 H 735.179 1.32697 -3.85818 0
M  V30 7716 H 733.854 0.213113 -4.15354 0
M  V30 7717 H 732.431 1.8115 -3.25943 0
M  V30 7718 N 734.616 1.57351 0.0885366 0
M  V30 7719 C 735.579 2.01557 1.09121 0
M  V30 7720 C 736.579 0.910052 1.3257 0
M  V30 7721 O 737.769 1.17537 1.28572 0
M  V30 7722 C 734.901 2.38189 2.43883 0
M  V30 7723 H 736.094 2.91361 0.710562 0
M  V30 7724 H 733.647 1.52694 0.333779 0
M  V30 7725 H 734.382 1.5136 2.86811 0
M  V30 7726 H 734.167 3.18846 2.28209 0
M  V30 7727 H 735.657 2.73025 3.15986 0
M  V30 7728 N 736.094 -0.359525 1.53444 0
M  V30 7729 C 737.341 -1.10152 1.6992 0
M  V30 7730 C 737.669 -1.89125 0.4541 0
M  V30 7731 O 736.924 -1.87396 -0.564023 0
M  V30 7732 C 737.223 -2.08287 2.90433 0
M  V30 7733 C 736.889 -1.45749 4.26694 0
M  V30 7734 C 735.551 -1.28421 4.63747 0
M  V30 7735 C 737.903 -1.00557 5.11408 0
M  V30 7736 C 735.231 -0.644951 5.83144 0
M  V30 7737 C 737.583 -0.380288 6.31456 0
M  V30 7738 C 736.247 -0.194557 6.67216 0
M  V30 7739 H 735.517 -0.403076 0.621781 0
M  V30 7740 H 738.164 -0.382612 1.87639 0
M  V30 7741 H 736.469 -2.86503 2.67251 0
M  V30 7742 H 738.166 -2.65662 3.00374 0
M  V30 7743 H 734.756 -1.6023 3.97523 0
M  V30 7744 H 738.94 -1.12735 4.83326 0
M  V30 7745 H 734.196 -0.48952 6.09437 0
M  V30 7746 H 738.37 -0.0219455 6.96397 0
M  V30 7747 H 735.997 0.30285 7.59597 0
M  V30 7748 N 737.572 -1.44907 -0.619662 0
M  V30 7749 C 738.502 -1.55488 -1.742 0
M  V30 7750 C 739.483 -0.407143 -1.65156 0
M  V30 7751 O 740.668 -0.628743 -1.8374 0
M  V30 7752 C 737.798 -1.5097 -3.1277 0
M  V30 7753 C 736.752 -2.64337 -3.36615 0
M  V30 7754 C 736.078 -2.44872 -4.75333 0
M  V30 7755 C 737.378 -4.06423 -3.28051 0
M  V30 7756 H 739.072 -2.49432 -1.65602 0
M  V30 7757 H 736.618 -1.20047 -0.795281 0
M  V30 7758 H 738.571 -1.56971 -3.91073 0
M  V30 7759 H 737.295 -0.535486 -3.2218 0
M  V30 7760 H 735.954 -2.57744 -2.60698 0
M  V30 7761 H 735.602 -1.45617 -4.81461 0
M  V30 7762 H 735.302 -3.20888 -4.92244 0
M  V30 7763 H 736.826 -2.52709 -5.55851 0
M  V30 7764 H 738.24 -4.14324 -3.96243 0
M  V30 7765 H 736.637 -4.82733 -3.56495 0
M  V30 7766 H 737.707 -4.29183 -2.25676 0
M  V30 7767 N 739.05 0.861098 -1.31996 0
M  V30 7768 C 740.297 1.61481 -1.22188 0
M  V30 7769 C 740.625 1.93276 0.217853 0
M  V30 7770 O 739.88 1.56942 1.16909 0
M  V30 7771 C 740.179 2.94822 -2.02027 0
M  V30 7772 C 739.845 2.82483 -3.51446 0
M  V30 7773 C 738.507 2.78825 -3.92186 0
M  V30 7774 C 740.859 2.68878 -4.46491 0
M  V30 7775 C 738.187 2.59433 -5.26224 0
M  V30 7776 C 740.539 2.51022 -5.80664 0
M  V30 7777 C 739.203 2.45753 -6.20614 0
M  V30 7778 H 738.473 0.590902 -0.447119 0
M  V30 7779 H 741.12 0.999376 -1.63355 0
M  V30 7780 H 739.425 3.6045 -1.53569 0
M  V30 7781 H 741.122 3.52149 -1.91812 0
M  V30 7782 H 737.712 2.86152 -3.19085 0
M  V30 7783 H 741.896 2.70754 -4.1594 0
M  V30 7784 H 737.152 2.53784 -5.5624 0
M  V30 7785 H 741.326 2.39473 -6.53931 0
M  V30 7786 H 738.953 2.30485 -7.24417 0
M  V30 7787 N 740.528 1.15101 1.07655 0
M  V30 7788 C 741.776 0.922149 1.79836 0
M  V30 7789 C 742.097 -0.552346 1.87014 0
M  V30 7790 O 741.367 -1.40145 1.3688 0
M  V30 7791 H 739.947 0.338182 0.666064 0
M  V30 7792 H 742.609 1.45107 1.30115 0
M  V30 7793 H 741.705 1.32883 2.82398 0
M  V30 7794 N 742.006 -1.2595 0.947325 0
M  V30 7795 C 742.969 -2.24407 0.466285 0
M  V30 7796 C 743.969 -1.55054 -0.426005 0
M  V30 7797 O 745.159 -1.7275 -0.224319 0
M  V30 7798 C 742.291 -3.39326 -0.327201 0
M  V30 7799 H 743.484 -2.68477 1.33642 0
M  V30 7800 H 741.037 -1.38211 0.729887 0
M  V30 7801 H 741.772 -3.00667 -1.21532 0
M  V30 7802 H 741.557 -3.9085 0.312839 0
M  V30 7803 H 743.047 -4.12455 -0.653477 0
M  V30 7804 N 743.484 -0.715051 -1.40445 0
M  V30 7805 C 744.712 -0.263959 -2.05209 0
M  V30 7806 C 745.127 1.09403 -1.53871 0
M  V30 7807 O 744.484 1.68746 -0.695064 0
M  V30 7808 C 744.535 -0.234545 -3.60738 0
M  V30 7809 O 744.256 -1.53891 -4.10182 0
M  V30 7810 C 745.757 0.235164 -4.42676 0
M  V30 7811 H 742.977 -0.11876 -0.660407 0
M  V30 7812 H 745.521 -0.973107 -1.79864 0
M  V30 7813 H 743.676 0.425563 -3.85055 0
M  V30 7814 H 744.09 -1.43903 -5.04373 0
M  V30 7815 H 745.564 0.204598 -5.51621 0
M  V30 7816 H 746.041 1.27724 -4.20218 0
M  V30 7817 H 746.647 -0.394649 -4.23465 0
M  V30 7818 N 744.962 1.50701 -0.461195 0
M  V30 7819 C 746.21 2.01867 0.0970051 0
M  V30 7820 C 746.531 1.34591 1.41104 0
M  V30 7821 O 745.801 0.488041 1.89723 0
M  V30 7822 H 744.381 0.74599 0.0388392 0
M  V30 7823 H 747.043 1.85129 -0.609357 0
M  V30 7824 H 746.139 3.11051 0.255688 0
M  V30 7825 N 746.441 0.193421 1.56409 0
M  V30 7826 C 747.388 -0.728124 2.19014 0
M  V30 7827 C 748.358 -1.21098 1.13686 0
M  V30 7828 O 749.543 -1.27517 1.4193 0
M  V30 7829 C 746.683 -1.94277 2.8522 0
M  V30 7830 C 745.796 -1.50143 4.05069 0
M  V30 7831 C 744.931 -2.67145 4.59137 0
M  V30 7832 C 743.97 -2.19609 5.71348 0
M  V30 7833 N 743.107 -3.29782 6.19829 0
M  V30 7834 H 747.947 -0.187499 2.9741 0
M  V30 7835 H 745.484 -0.0808064 1.46878 0
M  V30 7836 H 747.442 -2.65551 3.21774 0
M  V30 7837 H 746.072 -2.45673 2.09391 0
M  V30 7838 H 745.124 -0.684624 3.74189 0
M  V30 7839 H 746.436 -1.11266 4.86232 0
M  V30 7840 H 745.59 -3.46544 4.97988 0
M  V30 7841 H 744.329 -3.09295 3.77078 0
M  V30 7842 H 743.334 -1.38664 5.32027 0
M  V30 7843 H 744.559 -1.78492 6.55223 0
M  V30 7844 H 742.505 -3.71466 5.40693 0
M  V30 7845 H 742.422 -2.95069 6.96039 0
M  V30 7846 H 743.69 -4.094 6.63334 0
M  V30 7847 N 747.919 -1.57396 -0.0801906 0
M  V30 7848 C 749.149 -1.90778 -0.792924 0
M  V30 7849 C 749.557 -0.786814 -1.72064 0
M  V30 7850 O 748.9 0.249259 -1.82001 0
M  V30 7851 C 748.962 -3.19552 -1.64702 0
M  V30 7852 C 748.626 -4.48259 -0.889567 0
M  V30 7853 C 749.623 -5.19465 -0.212602 0
M  V30 7854 C 747.308 -4.94896 -0.859229 0
M  V30 7855 C 749.302 -6.35555 0.484566 0
M  V30 7856 C 746.989 -6.10895 -0.158284 0
M  V30 7857 C 747.987 -6.81075 0.512421 0
M  V30 7858 O 747.675 -7.94862 1.20209 0
M  V30 7859 H 747.407 -0.63527 -0.231103 0
M  V30 7860 H 749.961 -2.0532 -0.0573081 0
M  V30 7861 H 748.191 -3.01196 -2.42524 0
M  V30 7862 H 749.88 -3.38649 -2.23767 0
M  V30 7863 H 750.646 -4.84467 -0.227403 0
M  V30 7864 H 746.525 -4.4015 -1.37073 0
M  V30 7865 H 750.069 -6.9027 1.00864 0
M  V30 7866 H 745.966 -6.45345 -0.141381 0
M  V30 7867 H 746.734 -8.10932 1.11051 0
M  V30 7868 N 749.397 0.351382 -1.53633 0
M  V30 7869 C 750.645 1.09034 -1.70165 0
M  V30 7870 C 750.966 1.89413 -0.463422 0
M  V30 7871 O 750.236 1.888 0.522624 0
M  V30 7872 H 748.816 0.405522 -0.627344 0
M  V30 7873 H 751.478 0.394554 -1.90865 0
M  V30 7874 H 750.574 1.77215 -2.56907 0
M  V30 7875 N 750.875 1.45233 0.611969 0
M  V30 7876 C 751.823 1.53898 1.74408 0
M  V30 7877 C 752.817 0.409254 1.64382 0
M  V30 7878 O 754.023 0.584988 1.70229 0
M  V30 7879 H 750.398 0.483303 0.576127 0
M  V30 7880 H 752.369 2.49143 1.64227 0
M  V30 7881 C 751.118 1.51865 3.12782 0
M  V30 7882 H 750.441 2.38118 3.21154 0
M  V30 7883 H 751.881 1.61986 3.91838 0
M  V30 7884 C 750.34 0.242374 3.36027 0
M  V30 7885 O 750.87 -0.679587 3.9591 0
M  V30 7886 N 749.076 0.139448 2.90265 0
M  V30 7887 H 748.623 0.890571 2.41716 0
M  V30 7888 H 748.581 -0.713686 3.06193 0
M  V30 7889 N 752.353 -0.854086 1.3245 0
M  V30 7890 C 753.285 -1.96932 1.17262 0
M  V30 7891 C 754.298 -1.62445 0.107469 0
M  V30 7892 O 755.487 -1.74904 0.356481 0
M  V30 7893 C 752.587 -3.29971 0.772817 0
M  V30 7894 C 751.76 -3.92695 1.92638 0
M  V30 7895 C 750.819 -5.04068 1.51003 0
M  V30 7896 O 749.845 -5.24032 2.22213 0
M  V30 7897 N 751.047 -5.79076 0.406371 0
M  V30 7898 H 753.812 -2.10503 2.13327 0
M  V30 7899 H 751.373 -1.02897 1.24995 0
M  V30 7900 H 753.365 -4.01883 0.476684 0
M  V30 7901 H 751.935 -3.1245 -0.0967 0
M  V30 7902 H 751.155 -3.13563 2.38897 0
M  V30 7903 H 752.443 -4.31337 2.69863 0
M  V30 7904 H 751.841 -5.65393 -0.186302 0
M  V30 7905 H 750.398 -6.51579 0.169846 0
M  V30 7906 N 753.831 -1.1567 -1.07043 0
M  V30 7907 C 755.077 -0.9349 -1.79965 0
M  V30 7908 C 755.41 0.536464 -1.86643 0
M  V30 7909 O 754.685 1.39781 -1.35247 0
M  V30 7910 C 754.968 -1.55371 -3.24857 0
M  V30 7911 C 754.821 -3.09589 -3.26305 0
M  V30 7912 C 756.14 -1.24209 -4.22209 0
M  V30 7913 H 753.259 -0.341061 -0.653335 0
M  V30 7914 H 755.901 -1.42883 -1.25237 0
M  V30 7915 H 754.051 -1.13368 -3.71591 0
M  V30 7916 H 755.723 -3.60521 -2.87789 0
M  V30 7917 H 753.966 -3.43315 -2.65174 0
M  V30 7918 H 754.637 -3.48002 -4.28484 0
M  V30 7919 H 757.113 -1.60548 -3.8388 0
M  V30 7920 H 755.989 -1.70119 -5.21872 0
M  V30 7921 H 756.25 -0.15964 -4.41812 0
M  V30 7922 N 755.309 1.25446 -0.953992 0
M  V30 7923 C 756.534 1.97755 -0.625129 0
M  V30 7924 C 756.959 1.70437 0.795787 0
M  V30 7925 O 756.317 0.95992 1.53803 0
M  V30 7926 C 756.365 3.49463 -0.889251 0
M  V30 7927 O 755.469 4.12387 0.0322757 0
M  V30 7928 H 754.81 0.61998 -0.237742 0
M  V30 7929 H 757.34 1.59582 -1.28041 0
M  V30 7930 H 757.35 3.99772 -0.815263 0
M  V30 7931 H 756.025 3.68676 -1.92487 0
M  V30 7932 H 754.602 3.72782 -0.0938625 0
M  V30 7933 N 756.787 0.722489 1.40064 0
M  V30 7934 C 757.697 0.0755984 2.34478 0
M  V30 7935 C 758.713 -0.736046 1.57665 0
M  V30 7936 O 759.889 -0.667407 1.9002 0
M  V30 7937 C 756.954 -0.830075 3.36616 0
M  V30 7938 C 756.015 -0.00759884 4.29299 0
M  V30 7939 C 755.248 -0.870139 5.26559 0
M  V30 7940 O 755.471 -2.10921 5.2997 0
M  V30 7941 O 754.405 -0.305454 6.01124 0
M  V30 7942 H 758.231 0.854545 2.9143 0
M  V30 7943 H 755.816 0.483032 1.41376 0
M  V30 7944 H 757.698 -1.34864 3.99236 0
M  V30 7945 H 756.373 -1.58805 2.82069 0
M  V30 7946 H 755.28 0.556199 3.69942 0
M  V30 7947 H 756.613 0.712312 4.87018 0
M  V30 7948 N 758.265 -1.50454 0.469181 0
M  V30 7949 C 759.215 -2.25381 -0.344582 0
M  V30 7950 C 760.199 -1.28892 -0.963098 0
M  V30 7951 O 761.391 -1.53805 -0.875964 0
M  V30 7952 C 758.52 -3.12232 -1.4271 0
M  V30 7953 C 757.606 -4.16168 -0.816411 0
M  V30 7954 N 757.997 -5.05762 0.0621424 0
M  V30 7955 C 756.295 -4.32712 -1.08056 0
M  V30 7956 C 756.996 -5.80264 0.408519 0
M  V30 7957 N 755.972 -5.43171 -0.215827 0
M  V30 7958 H 759.774 -2.92016 0.332237 0
M  V30 7959 H 757.288 -1.59911 0.283209 0
M  V30 7960 H 759.285 -3.64514 -2.02324 0
M  V30 7961 H 757.945 -2.47145 -2.10593 0
M  V30 7962 H 758.956 -5.16105 0.430841 0
M  V30 7963 H 755.633 -3.78844 -1.75452 0
M  V30 7964 H 757.023 -6.62408 1.12539 0
M  V30 7965 N 759.743 -0.201713 -1.56304 0
M  V30 7966 C 760.971 0.440723 -2.02152 0
M  V30 7967 C 761.386 1.54735 -1.08179 0
M  V30 7968 O 760.743 1.82289 -0.0878196 0
M  V30 7969 C 760.794 0.990884 -3.47655 0
M  V30 7970 O 760.515 -0.0715937 -4.38041 0
M  V30 7971 C 762.016 1.70854 -4.09052 0
M  V30 7972 H 759.236 0.109987 -0.661924 0
M  V30 7973 H 761.78 -0.312358 -2.021 0
M  V30 7974 H 759.935 1.69432 -3.48384 0
M  V30 7975 H 760.349 0.338892 -5.23404 0
M  V30 7976 H 761.823 2.04572 -5.12693 0
M  V30 7977 H 762.3 2.61462 -3.52894 0
M  V30 7978 H 762.906 1.0508 -4.12114 0
M  V30 7979 N 761.222 1.57436 0.0718424 0
M  V30 7980 C 762.152 2.06724 1.08571 0
M  V30 7981 C 763.133 0.960731 1.40371 0
M  V30 7982 O 764.318 1.23345 1.49999 0
M  V30 7983 C 761.448 2.51112 2.39916 0
M  V30 7984 C 760.402 3.65639 2.22469 0
M  V30 7985 C 759.728 3.96082 3.59198 0
M  V30 7986 C 761.028 4.95687 1.64596 0
M  V30 7987 H 762.722 2.91679 0.675569 0
M  V30 7988 H 760.268 1.40319 0.32352 0
M  V30 7989 H 762.221 2.84206 3.11135 0
M  V30 7990 H 760.945 1.63186 2.8291 0
M  V30 7991 H 759.604 3.32828 1.53691 0
M  V30 7992 H 759.252 3.05287 3.99761 0
M  V30 7993 H 758.952 4.73199 3.48362 0
M  V30 7994 H 760.476 4.31672 4.31847 0
M  V30 7995 H 761.89 5.27011 2.25681 0
M  V30 7996 H 760.287 5.77126 1.64457 0
M  V30 7997 H 761.357 4.8108 0.60744 0
M  V30 7998 N 762.7 -0.34323 1.53817 0
M  V30 7999 C 763.948 -1.0813 1.70741 0
M  V30 8000 C 764.269 -1.89165 0.473461 0
M  V30 8001 O 763.539 -1.89075 -0.512605 0
M  V30 8002 H 762.119 -0.40219 0.629486 0
M  V30 8003 H 764.781 -0.384426 1.91071 0
M  V30 8004 H 763.877 -1.7585 2.57843 0
M  V30 8005 N 764.178 -1.45556 -0.604258 0
M  V30 8006 C 765.406 -1.53278 -1.38973 0
M  V30 8007 C 765.821 -0.166509 -1.88064 0
M  V30 8008 O 765.178 0.832519 -1.62405 0
M  V30 8009 C 765.229 -2.51992 -2.59195 0
M  V30 8010 O 764.95 -3.8331 -2.12143 0
M  V30 8011 C 766.451 -2.69445 -3.52015 0
M  V30 8012 H 763.671 -0.519003 -0.425297 0
M  V30 8013 H 766.215 -1.90773 -0.736621 0
M  V30 8014 H 764.37 -2.17561 -3.2054 0
M  V30 8015 H 764.784 -4.3685 -2.90279 0
M  V30 8016 H 766.258 -3.42485 -4.32907 0
M  V30 8017 H 766.735 -1.75596 -4.0257 0
M  V30 8018 H 767.341 -3.04886 -2.9652 0
M  V30 8019 N 765.656 0.84705 -1.32902 0
M  V30 8020 C 766.902 1.60414 -1.24078 0
M  V30 8021 C 767.235 1.93217 0.195105 0
M  V30 8022 O 766.51 1.58001 1.13428 0
M  V30 8023 C 766.793 2.91951 -2.108 0
M  V30 8024 C 766.646 2.6588 -3.62805 0
M  V30 8025 C 767.965 3.93299 -1.97494 0
M  V30 8026 H 765.084 0.58206 -0.452079 0
M  V30 8027 H 767.726 0.977562 -1.62922 0
M  V30 8028 H 765.876 3.45425 -1.77802 0
M  V30 8029 H 767.548 2.18902 -4.06054 0
M  V30 8030 H 765.791 1.99716 -3.85092 0
M  V30 8031 H 766.462 3.59574 -4.1882 0
M  V30 8032 H 768.938 3.49105 -2.26417 0
M  V30 8033 H 767.814 4.8318 -2.60438 0
M  V30 8034 H 768.075 4.31887 -0.944782 0
M  V30 8035 N 767.134 1.16236 1.06428 0
M  V30 8036 C 768.084 0.835994 2.12121 0
M  V30 8037 C 769.068 -0.183955 1.59845 0
M  V30 8038 O 770.26 0.0166741 1.76992 0
M  V30 8039 C 767.389 0.337333 3.41639 0
M  V30 8040 C 766.475 1.38798 4.00744 0
M  V30 8041 N 766.866 2.59799 4.3398 0
M  V30 8042 C 765.164 1.24292 4.28331 0
M  V30 8043 C 765.865 3.27213 4.80943 0
M  V30 8044 N 764.841 2.54594 4.80294 0
M  V30 8045 H 768.643 1.75615 2.35662 0
M  V30 8046 H 766.157 1.04921 1.23957 0
M  V30 8047 H 768.154 0.0851274 4.16813 0
M  V30 8048 H 766.814 -0.57677 3.19536 0
M  V30 8049 H 767.825 2.96867 4.24371 0
M  V30 8050 H 764.502 0.389464 4.15679 0
M  V30 8051 H 765.892 4.30492 5.15874 0
M  V30 8052 N 768.612 -1.24939 0.960631 0
M  V30 8053 C 769.84 -1.96881 0.636045 0
M  V30 8054 C 770.255 -1.71334 -0.793093 0
M  V30 8055 O 769.612 -0.992917 -1.53125 0
M  V30 8056 C 769.663 -3.50309 0.892533 0
M  V30 8057 O 769.384 -3.74977 2.26548 0
M  V30 8058 C 770.885 -4.39474 0.581159 0
M  V30 8059 H 768.105 -0.627399 0.237931 0
M  V30 8060 H 770.649 -1.58952 1.28664 0
M  V30 8061 H 768.804 -3.86326 0.288257 0
M  V30 8062 H 769.218 -4.69401 2.34014 0
M  V30 8063 H 770.692 -5.46008 0.811125 0
M  V30 8064 H 771.169 -4.3652 -0.48443 0
M  V30 8065 H 771.775 -4.09032 1.16502 0
M  V30 8066 N 770.09 -0.729906 -1.39679 0
M  V30 8067 C 771.04 -0.0627678 -2.27914 0
M  V30 8068 C 772.024 0.717867 -1.43998 0
M  V30 8069 O 773.216 0.587713 -1.66958 0
M  V30 8070 C 770.345 0.847564 -3.32673 0
M  V30 8071 C 769.431 0.0613515 -4.24056 0
M  V30 8072 N 769.822 -0.962863 -4.96551 0
M  V30 8073 C 768.12 0.291773 -4.45045 0
M  V30 8074 C 768.821 -1.43652 -5.63683 0
M  V30 8075 N 767.797 -0.756044 -5.38317 0
M  V30 8076 H 771.599 -0.847545 -2.81414 0
M  V30 8077 H 769.113 -0.563776 -1.523 0
M  V30 8078 H 771.11 1.34094 -3.94746 0
M  V30 8079 H 769.77 1.63156 -2.80732 0
M  V30 8080 H 770.781 -1.34409 -5.00154 0
M  V30 8081 H 767.458 1.05097 -4.04056 0
M  V30 8082 H 768.848 -2.28835 -6.31731 0
M  V30 8083 N 771.568 1.50203 -0.477153 0
M  V30 8084 C 772.793 2.07263 0.0754986 0
M  V30 8085 C 773.218 1.33801 1.32208 0
M  V30 8086 O 772.576 0.387482 1.77111 0
M  V30 8087 C 772.624 3.59028 0.336348 0
M  V30 8088 O 771.728 3.87339 1.4157 0
M  V30 8089 H 771.069 0.663815 -0.015662 0
M  V30 8090 H 773.599 1.93321 -0.669936 0
M  V30 8091 H 773.609 4.03927 0.575034 0
M  V30 8092 H 772.284 4.11912 -0.574551 0
M  V30 8093 H 770.861 3.54272 1.16385 0
M  V30 8094 N 773.046 0.209999 1.56195 0
M  V30 8095 C 774.009 -0.691232 2.18528 0
M  V30 8096 C 775.009 -1.13013 1.14388 0
M  V30 8097 O 776.199 -1.04081 1.39688 0
M  V30 8098 C 773.331 -1.94551 2.79934 0
M  V30 8099 H 774.524 -0.147953 2.99535 0
M  V30 8100 H 772.077 -0.0396243 1.5625 0
M  V30 8101 H 772.812 -2.53094 2.02766 0
M  V30 8102 H 772.597 -1.63938 3.56184 0
M  V30 8103 H 774.087 -2.58785 3.2775 0
M  V30 8104 N 774.524 -1.57472 -0.0634922 0
M  V30 8105 C 775.474 -2.00709 -1.08166 0
M  V30 8106 C 776.458 -0.890498 -1.34011 0
M  V30 8107 O 777.65 -1.15441 -1.34173 0
M  V30 8108 C 774.779 -2.46148 -2.39303 0
M  V30 8109 C 773.865 -3.64559 -2.16697 0
M  V30 8110 N 774.256 -4.78459 -1.64043 0
M  V30 8111 C 772.554 -3.71269 -2.47135 0
M  V30 8112 C 773.255 -5.60268 -1.56445 0
M  V30 8113 N 772.231 -5.04357 -2.02792 0
M  V30 8114 H 776.033 -2.86208 -0.668016 0
M  V30 8115 H 773.547 -1.60133 -0.270426 0
M  V30 8116 H 775.544 -2.75367 -3.13016 0
M  V30 8117 H 774.204 -1.62041 -2.81377 0
M  V30 8118 H 775.215 -5.00587 -1.32791 0
M  V30 8119 H 771.892 -2.97891 -2.92518 0
M  V30 8120 H 773.282 -6.6172 -1.16519 0
M  V30 8121 N 776.003 0.335068 -1.53997 0
M  V30 8122 C 777.25 1.07435 -1.71651 0
M  V30 8123 C 777.578 1.88378 -0.48413 0
M  V30 8124 O 776.833 1.8827 0.534139 0
M  V30 8125 C 777.132 2.0364 -2.9371 0
M  V30 8126 C 776.798 1.38942 -4.28959 0
M  V30 8127 C 775.46 1.21027 -4.65732 0
M  V30 8128 C 777.812 0.924083 -5.12943 0
M  V30 8129 C 775.14 0.552097 -5.84097 0
M  V30 8130 C 777.492 0.27978 -6.31981 0
M  V30 8131 C 776.156 0.0883843 -6.67441 0
M  V30 8132 H 775.426 0.393133 -0.628114 0
M  V30 8133 H 778.073 0.352712 -1.88224 0
M  V30 8134 H 776.378 2.82215 -2.71775 0
M  V30 8135 H 778.075 2.6085 -3.04562 0
M  V30 8136 H 774.665 1.53885 -4.00022 0
M  V30 8137 H 778.849 1.05032 -4.85059 0
M  V30 8138 H 774.105 0.392502 -6.10139 0
M  V30 8139 H 778.279 -0.0888479 -6.96343 0
M  V30 8140 H 775.906 -0.423657 -7.59019 0
M  V30 8141 N 777.481 1.45874 0.596531 0
M  V30 8142 C 778.428 1.55389 1.70655 0
M  V30 8143 C 779.398 0.399036 1.61236 0
M  V30 8144 O 780.583 0.61396 1.80652 0
M  V30 8145 C 777.723 1.53705 3.0898 0
M  V30 8146 C 776.836 2.79823 3.29125 0
M  V30 8147 C 775.971 2.69735 4.5762 0
M  V30 8148 C 775.01 3.90856 4.71061 0
M  V30 8149 N 774.147 3.79237 5.90867 0
M  V30 8150 H 778.987 2.50211 1.61859 0
M  V30 8151 H 776.524 1.24146 0.789069 0
M  V30 8152 H 778.482 1.50715 3.89026 0
M  V30 8153 H 777.112 0.624247 3.16706 0
M  V30 8154 H 776.164 2.92852 2.42779 0
M  V30 8155 H 777.476 3.69628 3.34927 0
M  V30 8156 H 776.63 2.64773 5.45875 0
M  V30 8157 H 775.369 1.77547 4.54234 0
M  V30 8158 H 774.374 3.96164 3.81227 0
M  V30 8159 H 775.599 4.84124 4.76236 0
M  V30 8160 H 773.545 2.89825 5.88504 0
M  V30 8161 H 773.462 4.62686 5.97877 0
M  V30 8162 H 774.73 3.78227 6.8159 0
M  V30 8163 N 778.959 -0.83999 1.33349 0
M  V30 8164 C 780.205 -1.59753 1.24927 0
M  V30 8165 C 780.538 -1.93318 -0.184855 0
M  V30 8166 O 779.813 -1.586 -1.12589 0
M  V30 8167 C 780.096 -2.90829 2.12345 0
M  V30 8168 C 779.949 -2.63953 3.6421 0
M  V30 8169 C 781.268 -3.92246 1.99577 0
M  V30 8170 H 778.387 -0.579654 0.45516 0
M  V30 8171 H 781.029 -0.968909 1.63439 0
M  V30 8172 H 779.179 -3.44478 1.79631 0
M  V30 8173 H 780.851 -2.16745 4.07209 0
M  V30 8174 H 779.094 -1.97671 3.86146 0
M  V30 8175 H 779.765 -3.57348 4.20721 0
M  V30 8176 H 782.241 -3.479 2.28265 0
M  V30 8177 H 781.117 -4.81793 2.62996 0
M  V30 8178 H 781.378 -4.3138 0.967673 0
M  V30 8179 N 780.437 -1.16799 -1.0581 0
M  V30 8180 C 781.714 -0.862616 -1.75551 0
M  V30 8181 C 782.094 0.6385 -2.01212 0
M  V30 8182 O 781.442 1.58784 -1.64317 0
M  V30 8183 C 781.652 -1.6907 -3.05314 0
M  V30 8184 C 783 -1.90675 -3.79379 0
M  V30 8185 O 784.024 -1.65976 -3.15167 0
M  V30 8186 O 782.883 -2.32145 -4.94743 0
M  V30 8187 H 779.977 -0.318789 -0.763088 0
M  V30 8188 H 782.523 -1.27461 -1.12034 0
M  V30 8189 H 781.295 -2.70912 -2.82352 0
M  V30 8190 H 780.918 -1.27606 -3.76567 0
M  V30 8191 N 781.915 1.24427 -0.967243 0
M  V30 8192 C 782.845 2.2773 -0.515899 0
M  V30 8193 C 783.826 1.64197 0.444227 0
M  V30 8194 O 785.011 1.91193 0.340451 0
M  V30 8195 C 782.141 3.46751 0.195149 0
M  V30 8196 C 781.095 4.22548 -0.680953 0
M  V30 8197 C 780.421 5.34456 0.161561 0
M  V30 8198 C 781.721 4.83914 -1.96532 0
M  V30 8199 H 783.415 2.65735 -1.37933 0
M  V30 8200 H 780.961 1.27742 -0.664681 0
M  V30 8201 H 782.914 4.18153 0.522117 0
M  V30 8202 H 781.638 3.07771 1.09292 0
M  V30 8203 H 780.297 3.52946 -0.991186 0
M  V30 8204 H 779.945 4.91716 1.05947 0
M  V30 8205 H 779.645 5.86087 -0.421418 0
M  V30 8206 H 781.169 6.08685 0.483211 0
M  V30 8207 H 782.583 5.47392 -1.70396 0
M  V30 8208 H 780.98 5.45775 -2.49499 0
M  V30 8209 H 782.05 4.05393 -2.66053 0
M  V30 8210 N 783.393 0.737304 1.3929 0
M  V30 8211 C 784.67 0.212464 1.94443 0
M  V30 8212 C 785.05 -1.28621 1.67391 0
M  V30 8213 O 784.398 -2.0529 1.00342 0
M  V30 8214 C 784.608 0.548565 3.44662 0
M  V30 8215 C 785.956 0.499177 4.21656 0
M  V30 8216 O 786.98 0.485892 3.5287 0
M  V30 8217 O 785.839 0.495739 5.44247 0
M  V30 8218 H 782.933 0.0395457 0.826054 0
M  V30 8219 H 785.479 0.816319 1.48776 0
M  V30 8220 H 784.251 1.58426 3.57795 0
M  V30 8221 H 783.874 -0.0841399 3.97511 0
M  V30 8222 N 784.871 -1.49948 0.485112 0
M  V30 8223 C 786.117 -2.02695 -0.0651022 0
M  V30 8224 C 786.45 -1.36534 -1.38102 0
M  V30 8225 O 785.725 -0.495677 -1.88078 0
M  V30 8226 C 786.008 -3.59337 -0.234285 0
M  V30 8227 C 785.861 -4.3605 1.10364 0
M  V30 8228 C 787.18 -4.28996 -0.982351 0
M  V30 8229 H 784.299 -0.736666 -0.0221856 0
M  V30 8230 H 786.941 -1.7913 0.633433 0
M  V30 8231 H 785.091 -3.79546 -0.829262 0
M  V30 8232 H 786.763 -4.27377 1.73627 0
M  V30 8233 H 785.006 -3.99236 1.69686 0
M  V30 8234 H 785.677 -5.43959 0.938743 0
M  V30 8235 H 788.153 -4.13346 -0.477904 0
M  V30 8236 H 787.029 -5.38379 -1.06955 0
M  V30 8237 H 787.29 -3.93135 -2.02231 0
M  V30 8238 N 786.349 -0.21828 -1.56081 0
M  V30 8239 C 787.312 0.679633 -2.18892 0
M  V30 8240 C 788.312 1.12405 -1.14986 0
M  V30 8241 O 789.502 1.03339 -1.40238 0
M  V30 8242 C 786.634 1.93063 -2.80962 0
M  V30 8243 H 787.827 0.132066 -2.99609 0
M  V30 8244 H 785.38 0.0313374 -1.56269 0
M  V30 8245 H 786.115 2.52015 -2.04106 0
M  V30 8246 H 785.9 1.62046 -3.57048 0
M  V30 8247 H 787.39 2.57043 -3.29118 0
M  V30 8248 N 787.827 1.57504 0.0551401 0
M  V30 8249 C 789.075 1.87684 0.74962 0
M  V30 8250 C 789.396 0.812547 1.77264 0
M  V30 8251 O 788.666 -0.15694 1.9527 0
M  V30 8252 H 787.246 0.6926 0.279846 0
M  V30 8253 H 789.908 1.94881 0.0272745 0
M  V30 8254 H 789.004 2.85734 1.25548 0
M  V30 8255 N 789.305 -0.326896 1.54172 0
M  V30 8256 C 790.235 -1.40741 1.86317 0
M  V30 8257 C 791.216 -1.54125 0.719684 0
M  V30 8258 O 792.401 -1.6806 0.973117 0
M  V30 8259 C 789.531 -2.77557 2.08757 0
M  V30 8260 C 788.485 -2.78965 3.24596 0
M  V30 8261 C 787.811 -4.18824 3.32401 0
M  V30 8262 C 789.111 -2.4301 4.62324 0
M  V30 8263 H 790.805 -1.14088 2.76811 0
M  V30 8264 H 788.351 -0.547389 1.3319 0
M  V30 8265 H 790.304 -3.53209 2.29829 0
M  V30 8266 H 789.028 -3.0568 1.15009 0
M  V30 8267 H 787.687 -2.05767 3.03406 0
M  V30 8268 H 787.335 -4.44083 2.36218 0
M  V30 8269 H 787.035 -4.20673 4.10253 0
M  V30 8270 H 788.559 -4.96294 3.55703 0
M  V30 8271 H 789.973 -3.08375 4.83299 0
M  V30 8272 H 788.37 -2.56116 5.42701 0
M  V30 8273 H 789.44 -1.38165 4.64799 0
M  V30 8274 N 790.784 -1.46188 -0.588786 0
M  V30 8275 C 791.694 -1.58865 -1.72624 0
M  V30 8276 C 792.71 -0.472348 -1.67466 0
M  V30 8277 O 793.886 -0.735638 -1.87484 0
M  V30 8278 C 790.951 -1.56989 -3.0912 0
M  V30 8279 C 790.012 -2.79804 -3.25589 0
M  V30 8280 C 789.245 -2.78009 -4.55573 0
M  V30 8281 O 789.468 -1.86406 -5.39082 0
M  V30 8282 O 788.402 -3.6947 -4.75159 0
M  V30 8283 H 792.228 -2.55047 -1.64878 0
M  V30 8284 H 789.813 -1.28912 -0.755115 0
M  V30 8285 H 791.695 -1.58618 -3.90408 0
M  V30 8286 H 790.37 -0.639648 -3.17317 0
M  V30 8287 H 789.277 -2.83732 -2.43818 0
M  V30 8288 H 790.61 -3.72017 -3.22279 0
M  V30 8289 N 792.262 0.832906 -1.33792 0
M  V30 8290 C 793.21 1.96455 -1.24532 0
M  V30 8291 C 794.204 1.68774 -0.145455 0
M  V30 8292 O 795.41 1.77314 -0.309797 0
M  V30 8293 H 791.785 0.645008 -0.386611 0
M  V30 8294 H 793.756 2.01389 -2.20193 0
M  V30 8295 C 792.505 3.32784 -1.00748 0
M  V30 8296 H 791.828 3.54626 -1.84609 0
M  V30 8297 H 793.268 4.12447 -0.98301 0
M  V30 8298 C 791.727 3.35654 0.289475 0
M  V30 8299 O 792.257 3.80281 1.29419 0
M  V30 8300 N 790.463 2.88843 0.3191 0
M  V30 8301 H 790.01 2.52719 -0.499069 0
M  V30 8302 H 789.968 2.91145 1.18667 0
M  V30 8303 N 793.74 1.17359 1.05189 0
M  V30 8304 C 794.986 0.973414 1.78595 0
M  V30 8305 C 795.341 -0.492713 1.85984 0
M  V30 8306 O 794.634 -1.361 1.3486 0
M  V30 8307 C 794.828 1.54821 3.22126 0
M  V30 8308 C 794.657 3.06871 3.28725 0
M  V30 8309 C 793.427 3.75602 3.38011 0
M  V30 8310 C 795.625 4.04467 3.17665 0
M  V30 8311 N 793.607 5.15257 3.33741 0
M  V30 8312 C 794.978 5.30574 3.20766 0
M  V30 8313 C 797.033 3.96138 3.01627 0
M  V30 8314 C 795.736 6.49319 3.09479 0
M  V30 8315 C 797.762 5.14467 2.91681 0
M  V30 8316 C 797.124 6.3946 2.95416 0
M  V30 8317 H 793.223 0.410092 0.665844 0
M  V30 8318 H 795.807 1.48944 1.25395 0
M  V30 8319 H 793.978 1.05853 3.73697 0
M  V30 8320 H 795.71 1.28467 3.83768 0
M  V30 8321 H 792.465 3.26282 3.43273 0
M  V30 8322 H 792.889 5.88263 3.35076 0
M  V30 8323 H 797.531 3.00345 2.97578 0
M  V30 8324 H 795.249 7.45322 3.12283 0
M  V30 8325 H 798.835 5.09803 2.80343 0
M  V30 8326 H 797.715 7.29483 2.87792 0
M  V30 8327 N 795.218 -1.23913 0.973828 0
M  V30 8328 C 796.464 -1.92436 0.640026 0
M  V30 8329 C 796.797 -1.75875 -0.823512 0
M  V30 8330 O 796.072 -1.11563 -1.59323 0
M  V30 8331 C 796.355 -3.4526 1.0231 0
M  V30 8332 C 796.208 -3.70961 2.54378 0
M  V30 8333 C 797.527 -4.36495 0.562155 0
M  V30 8334 H 794.646 -0.698868 0.233992 0
M  V30 8335 H 797.288 -1.46163 1.21393 0
M  V30 8336 H 795.438 -3.84802 0.534751 0
M  V30 8337 H 797.11 -3.40941 3.10737 0
M  V30 8338 H 795.353 -3.15899 2.97305 0
M  V30 8339 H 796.024 -4.77912 2.76232 0
M  V30 8340 H 798.5 -4.04363 0.981333 0
M  V30 8341 H 797.376 -5.42142 0.858689 0
M  V30 8342 H 797.637 -4.38818 -0.537659 0
M  V30 8343 N 796.696 -0.74468 -1.38897 0
M  V30 8344 C 797.942 -0.306249 -2.01081 0
M  V30 8345 C 798.297 1.09724 -1.58046 0
M  V30 8346 O 797.59 1.73923 -0.803834 0
M  V30 8347 C 797.784 -0.357302 -3.55609 0
M  V30 8348 C 797.613 -1.76421 -4.13649 0
M  V30 8349 C 796.383 -2.3787 -4.4581 0
M  V30 8350 C 798.581 -2.71942 -4.36523 0
M  V30 8351 N 796.563 -3.70614 -4.89406 0
M  V30 8352 C 797.934 -3.89437 -4.8243 0
M  V30 8353 C 799.989 -2.69579 -4.18607 0
M  V30 8354 C 798.692 -5.04917 -5.123 0
M  V30 8355 C 800.718 -3.8421 -4.49596 0
M  V30 8356 C 800.08 -5.00442 -4.95719 0
M  V30 8357 H 796.179 -0.158531 -0.765762 0
M  V30 8358 H 798.763 -0.972726 -1.6866 0
M  V30 8359 H 796.934 0.278865 -3.87398 0
M  V30 8360 H 798.666 0.100599 -4.04575 0
M  V30 8361 H 795.421 -1.8971 -4.33943 0
M  V30 8362 H 795.845 -4.38791 -5.1555 0
M  V30 8363 H 800.487 -1.80905 -3.82143 0
M  V30 8364 H 798.205 -5.94213 -5.47665 0
M  V30 8365 H 801.791 -3.83691 -4.37347 0
M  V30 8366 H 800.671 -5.87671 -5.19242 0
M  V30 8367 N 798.174 1.49689 -0.493057 0
M  V30 8368 C 799.137 2.27502 0.278485 0
M  V30 8369 C 800.137 1.33184 0.901037 0
M  V30 8370 O 801.327 1.56415 0.766801 0
M  V30 8371 C 798.459 3.10881 1.39878 0
M  V30 8372 H 799.652 2.97163 -0.404219 0
M  V30 8373 H 797.205 1.54324 -0.247774 0
M  V30 8374 H 797.94 2.45767 2.11587 0
M  V30 8375 H 797.725 3.80219 0.957924 0
M  V30 8376 H 799.215 3.69673 1.94247 0
M  V30 8377 N 799.652 0.226554 1.55963 0
M  V30 8378 C 800.562 -0.692725 2.24139 0
M  V30 8379 C 801.578 -1.20971 1.25068 0
M  V30 8380 O 802.754 -1.25027 1.57893 0
M  V30 8381 C 799.819 -1.88183 2.91184 0
M  V30 8382 C 798.88 -1.40633 4.05612 0
M  V30 8383 C 798.113 -2.53875 4.6945 0
M  V30 8384 O 798.336 -3.72129 4.32292 0
M  V30 8385 O 797.27 -2.24792 5.58348 0
M  V30 8386 H 801.096 -0.141921 3.03368 0
M  V30 8387 H 798.681 -0.0041049 1.49399 0
M  V30 8388 H 800.563 -2.57617 3.33484 0
M  V30 8389 H 799.238 -2.42064 2.14911 0
M  V30 8390 H 798.145 -0.67986 3.67871 0
M  V30 8391 H 799.478 -0.913838 4.83642 0
M  V30 8392 N 801.13 -1.57531 -0.0467866 0
M  V30 8393 C 802.407 -1.79568 -0.775536 0
M  V30 8394 C 802.787 -0.820322 -1.94509 0
M  V30 8395 O 802.135 0.14134 -2.28062 0
M  V30 8396 C 802.345 -3.26789 -1.22516 0
M  V30 8397 C 803.693 -3.91299 -1.64835 0
M  V30 8398 O 804.717 -3.30831 -1.3202 0
M  V30 8399 O 803.576 -4.97727 -2.25677 0
M  V30 8400 H 800.67 -0.737817 -0.373572 0
M  V30 8401 H 803.216 -1.69682 -0.0249302 0
M  V30 8402 H 801.988 -3.89357 -0.389446 0
M  V30 8403 H 801.611 -3.41496 -2.03633 0
M  V30 8404 N 802.608 0.318715 -1.54344 0
M  V30 8405 C 803.541 1.41644 -1.7892 0
M  V30 8406 C 804.519 1.495 -0.639421 0
M  V30 8407 O 805.703 1.66835 -0.877404 0
M  V30 8408 C 802.83 2.79701 -1.9101 0
M  V30 8409 C 801.876 2.89354 -3.13331 0
M  V30 8410 S 802.709 2.53264 -4.71824 0
M  V30 8411 C 803.865 3.93384 -4.86826 0
M  V30 8412 H 804.098 1.20585 -2.71747 0
M  V30 8413 H 801.631 0.515828 -1.45529 0
M  V30 8414 H 803.589 3.59227 -1.98661 0
M  V30 8415 H 802.25 2.9804 -0.991516 0
M  V30 8416 H 801.443 3.90574 -3.1854 0
M  V30 8417 H 801.045 2.17805 -3.04035 0
M  V30 8418 H 803.337 4.88191 -4.69761 0
M  V30 8419 H 804.28 3.93156 -5.88926 0
M  V30 8420 H 804.688 3.82564 -4.15097 0
M  V30 8421 N 804.086 1.46499 0.581025 0
M  V30 8422 C 805.332 1.52121 1.34116 0
M  V30 8423 C 805.665 0.173031 1.93428 0
M  V30 8424 O 804.94 -0.815729 1.76568 0
M  V30 8425 C 805.223 2.62108 2.46924 0
M  V30 8426 C 805.076 4.06462 1.92636 0
M  V30 8427 C 806.395 2.68167 3.48962 0
M  V30 8428 H 803.514 0.5538 0.486287 0
M  V30 8429 H 806.156 1.78443 0.652538 0
M  V30 8430 H 804.306 2.39794 3.05665 0
M  V30 8431 H 805.978 4.40068 1.3834 0
M  V30 8432 H 804.221 4.15862 1.23455 0
M  V30 8433 H 804.892 4.79152 2.74076 0
M  V30 8434 H 807.368 2.8823 3.00104 0
M  V30 8435 H 806.244 3.46942 4.2535 0
M  V30 8436 H 806.505 1.74284 4.06297 0
M  V30 8437 N 805.565 -0.825799 1.34232 0
M  V30 8438 C 806.812 -1.58185 1.26427 0
M  V30 8439 C 807.14 -1.93786 -0.166533 0
M  V30 8440 O 806.395 -1.59986 -1.12707 0
M  V30 8441 C 806.694 -2.89362 2.09772 0
M  V30 8442 C 806.36 -2.73066 3.58812 0
M  V30 8443 C 805.022 -2.68329 3.99441 0
M  V30 8444 C 807.374 -2.56946 4.53462 0
M  V30 8445 C 804.702 -2.4539 5.32917 0
M  V30 8446 C 807.054 -2.35538 5.87115 0
M  V30 8447 C 805.718 -2.29212 6.26912 0
M  V30 8448 H 804.988 -0.57884 0.462629 0
M  V30 8449 H 807.635 -0.955714 1.65947 0
M  V30 8450 H 805.94 -3.56251 1.63071 0
M  V30 8451 H 807.637 -3.4694 2.01081 0
M  V30 8452 H 804.227 -2.77591 3.26559 0
M  V30 8453 H 808.411 -2.59631 4.22972 0
M  V30 8454 H 803.667 -2.38947 5.62774 0
M  V30 8455 H 807.841 -2.22051 6.6005 0
M  V30 8456 H 805.468 -2.11197 7.30274 0
M  V30 8457 N 807.043 -1.17915 -1.04565 0
M  V30 8458 C 808.289 -0.972863 -1.77942 0
M  V30 8459 C 808.622 0.496753 -1.87739 0
M  V30 8460 O 807.897 1.3688 -1.38181 0
M  V30 8461 C 808.18 -1.62227 -3.21488 0
M  V30 8462 C 808.033 -3.16441 -3.19664 0
M  V30 8463 C 809.352 -1.33137 -4.19479 0
M  V30 8464 H 806.471 -0.354843 -0.645953 0
M  V30 8465 H 809.113 -1.45508 -1.22178 0
M  V30 8466 H 807.263 -1.21224 -3.69103 0
M  V30 8467 H 808.935 -3.66544 -2.80077 0
M  V30 8468 H 807.178 -3.48863 -2.57832 0
M  V30 8469 H 807.849 -3.57012 -4.21006 0
M  V30 8470 H 810.325 -1.68654 -3.80388 0
M  V30 8471 H 809.201 -1.81151 -5.18146 0
M  V30 8472 H 809.462 -0.253319 -4.41374 0
M  V30 8473 N 808.521 1.23394 -0.980386 0
M  V30 8474 C 809.932 1.73631 -0.686239 0
M  V30 8475 C 810.283 1.79259 0.797541 0
M  V30 8476 O 809.408 1.43046 1.62379 0
M  V30 8477 C 810.003 3.15332 -1.239 0
M  V30 8478 C 808.562 3.63024 -0.994494 0
M  V30 8479 C 807.709 2.41279 -1.36673 0
M  V30 8480 H 810.66 1.08918 -1.15423 0
M  V30 8481 H 810.681 3.75556 -0.611414 0
M  V30 8482 H 810.193 3.11204 -2.31892 0
M  V30 8483 H 808.294 3.72535 0.0693492 0
M  V30 8484 H 808.407 4.49825 -1.64906 0
M  V30 8485 H 806.771 2.42295 -0.785195 0
M  V30 8486 H 807.554 2.39822 -2.45642 0
M  V30 8487 N 809.999 0.752036 1.385 0
M  V30 8488 C 810.932 0.0717411 2.28087 0
M  V30 8489 C 811.91 -0.729945 1.45295 0
M  V30 8490 O 813.094 -0.708902 1.74662 0
M  V30 8491 C 810.221 -0.905237 3.26379 0
M  V30 8492 C 809.267 -0.189973 4.26077 0
M  V30 8493 S 810.1 1.10815 5.23909 0
M  V30 8494 C 811.256 0.134202 6.25756 0
M  V30 8495 H 811.489 0.831438 2.85437 0
M  V30 8496 H 809.022 0.544552 1.44478 0
M  V30 8497 H 810.98 -1.46358 3.83523 0
M  V30 8498 H 809.641 -1.63789 2.68015 0
M  V30 8499 H 808.834 -0.92985 4.95348 0
M  V30 8500 H 808.436 0.296804 3.7282 0
M  V30 8501 H 810.728 -0.700345 6.7387 0
M  V30 8502 H 811.671 0.794532 7.03628 0
M  V30 8503 H 812.079 -0.245801 5.63965 0
M  V30 8504 N 811.477 -1.49425 0.500989 0
M  V30 8505 C 812.44 -2.27646 -0.266416 0
M  V30 8506 C 813.44 -1.3366 -0.893961 0
M  V30 8507 O 814.63 -1.5682 -0.758495 0
M  V30 8508 C 811.762 -3.11618 -1.38227 0
M  V30 8509 H 812.955 -2.96945 0.419973 0
M  V30 8510 H 810.508 -1.5419 0.255954 0
M  V30 8511 H 811.243 -2.46885 -2.10281 0
M  V30 8512 H 811.028 -3.80721 -0.937746 0
M  V30 8513 H 812.518 -3.70698 -1.92283 0
M  V30 8514 N 812.955 -0.234822 -1.55841 0
M  V30 8515 C 814.201 0.393843 -1.98939 0
M  V30 8516 C 814.534 1.58466 -1.1226 0
M  V30 8517 O 813.809 1.93635 -0.183242 0
M  V30 8518 C 814.092 0.815492 -3.50745 0
M  V30 8519 C 813.945 -0.379878 -4.48193 0
M  V30 8520 C 815.264 1.66687 -4.07312 0
M  V30 8521 H 812.383 0.141681 -0.723253 0
M  V30 8522 H 815.025 -0.333716 -1.87046 0
M  V30 8523 H 813.175 1.43541 -3.6101 0
M  V30 8524 H 814.847 -1.0182 -4.49923 0
M  V30 8525 H 813.09 -1.02507 -4.21515 0
M  V30 8526 H 813.761 -0.0417069 -5.51984 0
M  V30 8527 H 816.237 1.14369 -4.00074 0
M  V30 8528 H 815.113 1.93078 -5.13821 0
M  V30 8529 H 815.374 2.63468 -3.55017 0
M  V30 8530 N 814.433 1.57553 0.0384317 0
M  V30 8531 C 815.844 1.77258 0.586211 0
M  V30 8532 C 816.195 0.864706 1.76117 0
M  V30 8533 O 815.32 0.057141 2.16325 0
M  V30 8534 C 815.915 3.21453 1.07021 0
M  V30 8535 C 814.474 3.42387 1.56358 0
M  V30 8536 C 813.621 2.72801 0.497508 0
M  V30 8537 H 816.572 1.57585 -0.187796 0
M  V30 8538 H 816.593 3.27451 1.93794 0
M  V30 8539 H 816.105 3.87505 0.214851 0
M  V30 8540 H 814.206 2.81497 2.44111 0
M  V30 8541 H 814.319 4.50968 1.61754 0
M  V30 8542 H 812.683 2.36305 0.95038 0
M  V30 8543 H 813.466 3.41529 -0.348234 0
M  V30 8544 N 815.911 -0.310526 1.54511 0
M  V30 8545 C 817.157 -1.04459 1.74528 0
M  V30 8546 C 817.512 -1.85251 0.519613 0
M  V30 8547 O 816.805 -1.85281 -0.488001 0
M  V30 8548 C 816.999 -1.98942 2.96912 0
M  V30 8549 C 816.828 -1.27442 4.31264 0
M  V30 8550 C 815.598 -1.00552 4.95194 0
M  V30 8551 C 817.796 -0.683695 5.09735 0
M  V30 8552 N 815.778 -0.259797 6.1335 0
M  V30 8553 C 817.149 -0.0702549 6.1996 0
M  V30 8554 C 819.204 -0.587799 4.94418 0
M  V30 8555 C 817.907 0.629791 7.16538 0
M  V30 8556 C 819.933 0.0985719 5.91318 0
M  V30 8557 C 819.295 0.700902 7.00904 0
M  V30 8558 H 815.394 -0.365496 0.69133 0
M  V30 8559 H 817.978 -0.324277 1.91981 0
M  V30 8560 H 816.149 -2.68233 2.80902 0
M  V30 8561 H 817.881 -2.6543 3.05498 0
M  V30 8562 H 814.636 -1.30123 4.55374 0
M  V30 8563 H 815.06 0.099301 6.76927 0
M  V30 8564 H 819.702 -1.03919 4.0983 0
M  V30 8565 H 817.42 1.09298 8.00674 0
M  V30 8566 H 821.006 0.172585 5.81544 0
M  V30 8567 H 819.886 1.22357 7.74596 0
M  V30 8568 N 817.389 -1.46805 -0.573248 0
M  V30 8569 C 818.614 -1.56433 -1.36175 0
M  V30 8570 C 819.039 -0.209336 -1.86932 0
M  V30 8571 O 818.397 0.812146 -1.62092 0
M  V30 8572 C 818.445 -2.58055 -2.51873 0
M  V30 8573 O 817.549 -2.12214 -3.53609 0
M  V30 8574 H 816.89 -0.526068 -0.405153 0
M  V30 8575 H 819.42 -1.92456 -0.694405 0
M  V30 8576 H 819.43 -2.77966 -2.98662 0
M  V30 8577 H 818.105 -3.56448 -2.14284 0
M  V30 8578 H 816.682 -2.02333 -3.13234 0
M  V30 8579 N 818.867 0.818669 -1.34668 0
M  V30 8580 C 820.278 1.39177 -1.24446 0
M  V30 8581 C 820.629 1.9578 0.128268 0
M  V30 8582 O 819.754 1.90382 1.02877 0
M  V30 8583 C 820.349 2.53012 -2.25323 0
M  V30 8584 C 818.908 3.06218 -2.18878 0
M  V30 8585 C 818.055 1.79112 -2.11694 0
M  V30 8586 H 821.006 0.622709 -1.45973 0
M  V30 8587 H 821.027 3.31226 -1.8727 0
M  V30 8588 H 820.539 2.11784 -3.25221 0
M  V30 8589 H 818.64 3.51939 -1.22351 0
M  V30 8590 H 818.753 3.65019 -3.10319 0
M  V30 8591 H 817.117 2.0018 -1.57481 0
M  V30 8592 H 817.9 1.40053 -3.13433 0
M  V30 8593 N 820.346 1.18468 1.03938 0
M  V30 8594 C 821.256 0.927889 2.1547 0
M  V30 8595 C 822.272 -0.108447 1.73662 0
M  V30 8596 O 823.448 0.0737636 2.01265 0
M  V30 8597 C 820.513 0.458494 3.43655 0
M  V30 8598 C 819.574 1.56295 3.99838 0
M  V30 8599 C 818.807 1.11586 5.21904 0
M  V30 8600 O 819.03 -0.0249057 5.70395 0
M  V30 8601 O 817.964 1.91412 5.70653 0
M  V30 8602 H 821.79 1.86116 2.39989 0
M  V30 8603 H 819.375 0.966607 1.13917 0
M  V30 8604 H 821.257 0.204861 4.20902 0
M  V30 8605 H 819.932 -0.446464 3.20606 0
M  V30 8606 H 818.839 1.87061 3.23974 0
M  V30 8607 H 820.172 2.44408 4.2723 0
M  V30 8608 N 821.824 -1.22873 0.986916 0
M  V30 8609 C 822.774 -2.2237 0.503547 0
M  V30 8610 C 823.758 -1.55186 -0.424998 0
M  V30 8611 O 824.95 -1.75186 -0.252791 0
M  V30 8612 C 822.079 -3.42794 -0.186355 0
M  V30 8613 C 821.165 -4.17196 0.762143 0
M  V30 8614 N 821.556 -4.68453 1.9075 0
M  V30 8615 C 819.854 -4.42255 0.576797 0
M  V30 8616 C 820.555 -5.25126 2.50235 0
M  V30 8617 N 819.531 -5.13437 1.7856 0
M  V30 8618 H 823.333 -2.59636 1.37718 0
M  V30 8619 H 820.847 -1.38476 0.848415 0
M  V30 8620 H 822.844 -4.13256 -0.549993 0
M  V30 8621 H 821.504 -3.07042 -1.05619 0
M  V30 8622 H 822.515 -4.64595 2.28848 0
M  V30 8623 H 819.192 -4.16766 -0.247474 0
M  V30 8624 H 820.582 -5.75363 3.46997 0
M  V30 8625 N 823.302 -0.75937 -1.38099 0
M  V30 8626 C 824.234 -0.0956547 -2.29 0
M  V30 8627 C 825.247 0.677561 -1.4803 0
M  V30 8628 O 826.436 0.517696 -1.70828 0
M  V30 8629 C 823.536 0.88844 -3.27047 0
M  V30 8630 C 822.709 0.171652 -4.37063 0
M  V30 8631 C 821.768 1.06733 -5.15262 0
M  V30 8632 O 820.794 0.535698 -5.66674 0
M  V30 8633 N 821.996 2.39486 -5.28797 0
M  V30 8634 H 824.761 -0.876354 -2.86601 0
M  V30 8635 H 822.322 -0.61065 -1.49942 0
M  V30 8636 H 824.314 1.49079 -3.76241 0
M  V30 8637 H 822.884 1.57018 -2.70304 0
M  V30 8638 H 822.104 -0.611473 -3.89429 0
M  V30 8639 H 823.392 -0.324121 -5.07767 0
M  V30 8640 H 822.79 2.85127 -4.88589 0
M  V30 8641 H 821.347 2.94758 -5.81344 0
M  V30 8642 N 824.78 1.49157 -0.508906 0
M  V30 8643 C 825.71 2.32109 0.254469 0
M  V30 8644 C 826.691 1.40754 0.955111 0
M  V30 8645 O 827.876 1.69658 0.944983 0
M  V30 8646 C 825.006 3.21458 1.3146 0
M  V30 8647 C 823.96 4.2167 0.733368 0
M  V30 8648 C 823.286 5.00009 1.8946 0
M  V30 8649 C 824.586 5.21544 -0.280875 0
M  V30 8650 H 826.28 2.9618 -0.43795 0
M  V30 8651 H 823.826 1.4243 -0.212062 0
M  V30 8652 H 825.779 3.78305 1.85643 0
M  V30 8653 H 824.503 2.55346 2.03632 0
M  V30 8654 H 823.162 3.65979 0.213231 0
M  V30 8655 H 822.81 4.30338 2.60419 0
M  V30 8656 H 822.51 5.67821 1.51173 0
M  V30 8657 H 824.034 5.59702 2.44061 0
M  V30 8658 H 825.448 5.73039 0.173095 0
M  V30 8659 H 823.845 5.97291 -0.580006 0
M  V30 8660 H 824.915 4.69969 -1.19404 0
M  V30 8661 N 826.258 0.243083 1.55714 0
M  V30 8662 C 827.19 -0.690766 2.18543 0
M  V30 8663 C 828.203 -1.14163 1.16064 0
M  V30 8664 O 829.392 -1.06906 1.42946 0
M  V30 8665 C 826.492 -1.95016 2.77168 0
M  V30 8666 C 825.665 -1.65137 4.05029 0
M  V30 8667 C 824.724 -2.75998 4.48009 0
M  V30 8668 O 823.75 -2.43547 5.14464 0
M  V30 8669 N 824.952 -4.05414 4.15476 0
M  V30 8670 H 827.717 -0.153203 2.99308 0
M  V30 8671 H 825.278 0.0628968 1.61778 0
M  V30 8672 H 827.27 -2.68414 3.0288 0
M  V30 8673 H 825.84 -2.39762 2.00582 0
M  V30 8674 H 825.06 -0.752768 3.86946 0
M  V30 8675 H 826.348 -1.42633 4.88399 0
M  V30 8676 H 825.746 -4.34613 3.62116 0
M  V30 8677 H 824.303 -4.75288 4.46032 0
M  V30 8678 N 827.736 -1.57571 -0.0300757 0
M  V30 8679 C 829.152 -1.54869 -0.385703 0
M  V30 8680 C 829.352 -0.969068 -1.76667 0
M  V30 8681 O 828.408 -0.589676 -2.45518 0
M  V30 8682 C 829.721 -2.99313 -0.288482 0
M  V30 8683 C 831.269 -3.10857 -0.365638 0
M  V30 8684 C 831.744 -4.5703 -0.297878 0
M  V30 8685 N 833.235 -4.61825 -0.356703 0
M  V30 8686 C 833.97 -5.72466 -0.327146 0
M  V30 8687 N 833.466 -6.92349 -0.249941 0
M  V30 8688 N 835.259 -5.60836 -0.376801 0
M  V30 8689 H 827.41 -1.936 0.87367 0
M  V30 8690 H 829.673 -0.887924 0.332106 0
M  V30 8691 H 829.379 -3.45443 0.66047 0
M  V30 8692 H 829.253 -3.61332 -1.08253 0
M  V30 8693 H 831.64 -2.64676 -1.30502 0
M  V30 8694 H 831.721 -2.51671 0.457744 0
M  V30 8695 H 831.365 -5.03879 0.637835 0
M  V30 8696 H 831.295 -5.14127 -1.13935 0
M  V30 8697 H 833.786 -3.75571 -0.418926 0
M  V30 8698 H 834.099 -7.7245 -0.23246 0
M  V30 8699 H 832.444 -6.94664 -0.216004 0
M  V30 8700 H 835.635 -4.66073 -0.435101 0
M  V30 8701 H 835.808 -6.47052 -0.350298 0
M  V30 8702 N 829.214 0.302327 -1.54673 0
M  V30 8703 C 830.144 1.37759 -1.88533 0
M  V30 8704 C 831.125 1.52961 -0.744113 0
M  V30 8705 O 832.31 1.6649 -0.999731 0
M  V30 8706 C 829.44 2.74201 -2.13146 0
M  V30 8707 C 828.394 2.73765 -3.28993 0
M  V30 8708 C 827.72 4.13483 -3.39022 0
M  V30 8709 C 829.02 2.35624 -4.66132 0
M  V30 8710 H 830.714 1.0967 -2.78591 0
M  V30 8711 H 828.26 0.52613 -1.34044 0
M  V30 8712 H 830.213 3.49508 -2.35419 0
M  V30 8713 H 828.937 3.03812 -1.19858 0
M  V30 8714 H 827.596 2.00914 -3.06642 0
M  V30 8715 H 827.244 4.40269 -2.43253 0
M  V30 8716 H 826.944 4.14093 -4.16894 0
M  V30 8717 H 828.468 4.90572 -3.63553 0
M  V30 8718 H 829.882 3.00647 -4.88143 0
M  V30 8719 H 828.279 2.47449 -5.46707 0
M  V30 8720 H 829.349 1.30753 -4.66939 0
M  V30 8721 N 830.692 1.47107 0.565454 0
M  V30 8722 C 831.624 1.55024 1.6882 0
M  V30 8723 C 832.637 0.4371 1.56822 0
M  V30 8724 O 833.826 0.706315 1.63931 0
M  V30 8725 C 830.926 1.43069 3.0722 0
M  V30 8726 C 830.099 2.68807 3.45053 0
M  V30 8727 C 829.158 2.50806 4.62583 0
M  V30 8728 O 828.184 3.24593 4.67577 0
M  V30 8729 N 829.386 1.58093 5.58558 0
M  V30 8730 H 832.151 2.51836 1.62477 0
M  V30 8731 H 829.712 1.43382 0.751885 0
M  V30 8732 H 831.704 1.28773 3.83666 0
M  V30 8733 H 830.274 0.543721 3.07835 0
M  V30 8734 H 829.494 2.97923 2.58138 0
M  V30 8735 H 830.782 3.52298 3.67101 0
M  V30 8736 H 830.18 0.972807 5.57273 0
M  V30 8737 H 828.737 1.49753 6.34364 0
M  V30 8738 N 832.17 -0.811516 1.35101 0
M  V30 8739 C 833.416 -1.57068 1.28287 0
M  V30 8740 C 833.749 -1.93667 -0.143808 0
M  V30 8741 O 833.024 -1.60953 -1.09199 0
M  V30 8742 C 833.307 -2.86259 2.18466 0
M  V30 8743 C 833.16 -2.56168 3.69727 0
M  V30 8744 C 834.479 -3.87924 2.07852 0
M  V30 8745 H 831.598 -0.569869 0.467353 0
M  V30 8746 H 834.24 -0.934023 1.65457 0
M  V30 8747 H 832.39 -3.4059 1.86898 0
M  V30 8748 H 834.062 -2.08059 4.11715 0
M  V30 8749 H 832.305 -1.89436 3.90252 0
M  V30 8750 H 832.976 -3.48344 4.28206 0
M  V30 8751 H 835.452 -3.4298 2.35593 0
M  V30 8752 H 834.328 -4.76106 2.73157 0
M  V30 8753 H 834.589 -4.2923 1.05896 0
M  V30 8754 N 833.648 -1.19017 -1.03309 0
M  V30 8755 C 834.876 -1.01534 -1.80273 0
M  V30 8756 C 835.291 0.43605 -1.83696 0
M  V30 8757 O 834.648 1.30288 -1.27794 0
M  V30 8758 C 834.699 -1.5722 -3.25522 0
M  V30 8759 O 834.42 -2.96677 -3.22358 0
M  V30 8760 C 835.921 -1.4446 -4.19102 0
M  V30 8761 H 833.141 -0.358094 -0.567459 0
M  V30 8762 H 835.685 -1.57738 -1.3015 0
M  V30 8763 H 833.84 -1.05174 -3.7285 0
M  V30 8764 H 834.254 -3.22795 -4.13405 0
M  V30 8765 H 835.728 -1.88209 -5.18923 0
M  V30 8766 H 836.205 -0.394471 -4.37425 0
M  V30 8767 H 836.811 -1.95616 -3.77643 0
M  V30 8768 N 835.127 1.22348 -0.993418 0
M  V30 8769 C 836.543 1.43222 -0.704238 0
M  V30 8770 C 836.743 1.88009 0.724909 0
M  V30 8771 O 835.799 2.03429 1.49575 0
M  V30 8772 C 837.112 2.47328 -1.71025 0
M  V30 8773 C 838.66 2.61126 -1.72576 0
M  V30 8774 C 839.135 3.68453 -2.72041 0
M  V30 8775 N 840.626 3.75911 -2.70639 0
M  V30 8776 C 841.361 4.58551 -3.44266 0
M  V30 8777 N 840.857 5.45179 -4.27495 0
M  V30 8778 N 842.65 4.52866 -3.32969 0
M  V30 8779 H 834.801 0.915832 -1.91641 0
M  V30 8780 H 837.064 0.464283 -0.826526 0
M  V30 8781 H 836.77 2.21366 -2.73295 0
M  V30 8782 H 836.644 3.45939 -1.50353 0
M  V30 8783 H 839.031 2.86431 -0.710037 0
M  V30 8784 H 839.112 1.62787 -1.97317 0
M  V30 8785 H 838.756 3.43895 -3.73763 0
M  V30 8786 H 838.686 4.66362 -2.4457 0
M  V30 8787 H 841.177 3.14014 -2.10247 0
M  V30 8788 H 841.49 6.0526 -4.80499 0
M  V30 8789 H 839.835 5.44759 -4.31582 0
M  V30 8790 H 843.026 3.84215 -2.67389 0
M  V30 8791 H 843.199 5.17039 -3.90608 0
M  V30 8792 N 836.605 0.766683 1.37694 0
M  V30 8793 C 837.552 0.147725 2.30327 0
M  V30 8794 C 838.522 -0.695366 1.50844 0
M  V30 8795 O 839.707 -0.64878 1.79431 0
M  V30 8796 C 836.847 -0.72935 3.37305 0
M  V30 8797 C 835.96 0.129795 4.31805 0
M  V30 8798 C 835.095 -0.751511 5.25857 0
M  V30 8799 C 834.134 0.110475 6.12 0
M  V30 8800 N 833.271 -0.728522 6.9831 0
M  V30 8801 H 838.111 0.943204 2.82679 0
M  V30 8802 H 835.648 0.476736 1.3916 0
M  V30 8803 H 837.606 -1.25263 3.97951 0
M  V30 8804 H 836.236 -1.49048 2.86329 0
M  V30 8805 H 835.288 0.770829 3.72508 0
M  V30 8806 H 836.6 0.794923 4.92425 0
M  V30 8807 H 835.754 -1.34146 5.91684 0
M  V30 8808 H 834.493 -1.45034 4.65636 0
M  V30 8809 H 833.498 0.712999 5.45157 0
M  V30 8810 H 834.723 0.806557 6.74293 0
M  V30 8811 H 832.669 -1.41206 6.40622 0
M  V30 8812 H 832.586 -0.12058 7.55904 0
M  V30 8813 H 833.854 -1.30303 7.68532 0
M  V30 8814 N 838.083 -1.48885 0.516809 0
M  V30 8815 C 839.013 -2.32241 -0.242157 0
M  V30 8816 C 839.994 -1.41258 -0.947633 0
M  V30 8817 O 841.179 -1.70156 -0.935973 0
M  V30 8818 C 838.309 -3.22151 -1.29754 0
M  V30 8819 C 837.263 -4.22053 -0.710995 0
M  V30 8820 C 836.589 -5.01007 -1.86806 0
M  V30 8821 C 837.889 -5.21388 0.30853 0
M  V30 8822 H 839.583 -2.95943 0.453651 0
M  V30 8823 H 837.129 -1.42316 0.219612 0
M  V30 8824 H 839.082 -3.79284 -1.83634 0
M  V30 8825 H 837.806 -2.56423 -2.02274 0
M  V30 8826 H 836.465 -3.66087 -0.193819 0
M  V30 8827 H 836.113 -4.31713 -2.58133 0
M  V30 8828 H 835.813 -5.68615 -1.48159 0
M  V30 8829 H 837.337 -5.60989 -2.4109 0
M  V30 8830 H 838.751 -5.73122 -0.142703 0
M  V30 8831 H 837.148 -5.96975 0.611673 0
M  V30 8832 H 838.218 -4.69329 1.21894 0
M  V30 8833 N 839.561 -0.251338 -1.55583 0
M  V30 8834 C 840.491 0.640437 -2.24545 0
M  V30 8835 C 841.472 1.17781 -1.22726 0
M  V30 8836 O 842.657 1.21633 -1.5139 0
M  V30 8837 C 839.787 1.8355 -2.94834 0
M  V30 8838 C 838.741 1.4307 -4.03379 0
M  V30 8839 C 838.067 2.70695 -4.61116 0
M  V30 8840 C 839.367 0.59848 -5.1886 0
M  V30 8841 H 841.061 0.0653772 -2.99329 0
M  V30 8842 H 838.607 0.0300042 -1.43969 0
M  V30 8843 H 840.56 2.46505 -3.4178 0
M  V30 8844 H 839.284 2.43601 -2.17546 0
M  V30 8845 H 837.943 0.824474 -3.57209 0
M  V30 8846 H 837.591 3.28954 -3.80524 0
M  V30 8847 H 837.291 2.44332 -5.34393 0
M  V30 8848 H 838.815 3.34541 -5.10798 0
M  V30 8849 H 840.229 1.13244 -5.62004 0
M  V30 8850 H 838.626 0.430728 -5.98552 0
M  V30 8851 H 839.696 -0.38829 -4.83343 0
M  V30 8852 N 841.039 1.57585 0.0217189 0
M  V30 8853 C 841.949 2.10444 1.03684 0
M  V30 8854 C 842.965 1.04472 1.39146 0
M  V30 8855 O 844.141 1.36249 1.48317 0
M  V30 8856 C 841.206 2.5794 2.31664 0
M  V30 8857 C 840.267 3.78425 2.02714 0
M  V30 8858 C 839.5 4.23646 3.24592 0
M  V30 8859 O 839.723 3.6834 4.35525 0
M  V30 8860 O 838.657 5.16013 3.09862 0
M  V30 8861 H 842.483 2.97354 0.617584 0
M  V30 8862 H 840.068 1.47473 0.239174 0
M  V30 8863 H 841.95 2.88785 3.06889 0
M  V30 8864 H 840.625 1.74138 2.7287 0
M  V30 8865 H 839.532 3.52587 1.25033 0
M  V30 8866 H 840.865 4.63234 1.66359 0
M  V30 8867 N 842.517 -0.29412 1.54831 0
M  V30 8868 C 843.45 -1.38779 1.81151 0
M  V30 8869 C 844.428 -1.48464 0.663124 0
M  V30 8870 O 845.612 -1.65418 0.903835 0
M  V30 8871 C 842.739 -2.76627 1.95436 0
M  V30 8872 C 841.785 -2.84333 3.17895 0
M  V30 8873 S 842.618 -2.45726 4.75793 0
M  V30 8874 C 843.774 -3.85589 4.93023 0
M  V30 8875 H 844.007 -1.16246 2.73631 0
M  V30 8876 H 841.54 -0.492611 1.46331 0
M  V30 8877 H 843.498 -3.56021 2.04351 0
M  V30 8878 H 842.159 -2.96425 1.03881 0
M  V30 8879 H 841.352 -3.85457 3.24713 0
M  V30 8880 H 840.954 -2.1294 3.07461 0
M  V30 8881 H 843.246 -4.80656 4.77468 0
M  V30 8882 H 844.189 -3.83737 5.95107 0
M  V30 8883 H 844.597 -3.75911 4.21131 0
M  V30 8884 N 843.995 -1.47404 -0.557645 0
M  V30 8885 C 844.905 -1.62491 -1.69216 0
M  V30 8886 C 845.921 -0.507764 -1.66426 0
M  V30 8887 O 847.097 -0.775241 -1.85882 0
M  V30 8888 C 844.162 -1.63511 -3.05721 0
M  V30 8889 C 843.223 -2.86648 -3.1958 0
M  V30 8890 C 842.456 -2.87609 -4.49574 0
M  V30 8891 O 842.679 -1.97799 -5.35006 0
M  V30 8892 O 841.613 -3.79465 -4.67215 0
M  V30 8893 H 845.439 -2.58487 -1.59431 0
M  V30 8894 H 843.024 -1.30485 -0.7276 0
M  V30 8895 H 844.906 -1.66863 -3.86956 0
M  V30 8896 H 843.581 -0.706812 -3.15889 0
M  V30 8897 H 842.488 -2.8884 -2.37744 0
M  V30 8898 H 843.821 -3.7877 -3.14316 0
M  V30 8899 N 845.473 0.80434 -1.35529 0
M  V30 8900 C 846.383 1.94784 -1.30753 0
M  V30 8901 C 847.399 1.72703 -0.212071 0
M  V30 8902 O 848.575 1.96494 -0.441841 0
M  V30 8903 C 845.64 3.29406 -1.08133 0
M  V30 8904 C 844.701 3.64367 -2.27013 0
M  V30 8905 C 843.934 4.92566 -2.05463 0
M  V30 8906 O 844.157 5.61166 -1.02222 0
M  V30 8907 O 843.091 5.25838 -2.92879 0
M  V30 8908 H 846.917 2.01761 -2.26994 0
M  V30 8909 H 844.502 0.942448 -1.15924 0
M  V30 8910 H 846.384 4.09995 -0.973756 0
M  V30 8911 H 845.059 3.23355 -0.149444 0
M  V30 8912 H 843.966 2.84146 -2.43335 0
M  V30 8913 H 845.299 3.75125 -3.18656 0
M  V30 8914 N 846.951 1.19563 1.02676 0
M  V30 8915 C 847.883 0.893054 2.11086 0
M  V30 8916 C 848.896 -0.115101 1.62393 0
M  V30 8917 O 850.085 0.11459 1.78132 0
M  V30 8918 C 847.185 0.315533 3.37428 0
M  V30 8919 C 846.358 1.37276 4.153 0
M  V30 8920 C 845.417 0.808398 5.19953 0
M  V30 8921 O 844.443 1.48661 5.49444 0
M  V30 8922 N 845.645 -0.387253 5.79207 0
M  V30 8923 H 848.41 1.82622 2.37633 0
M  V30 8924 H 845.971 1.09792 1.18984 0
M  V30 8925 H 847.963 -0.0759166 4.04629 0
M  V30 8926 H 846.533 -0.521961 3.08211 0
M  V30 8927 H 845.753 1.93897 3.43217 0
M  V30 8928 H 847.041 2.08509 4.64114 0
M  V30 8929 H 846.439 -0.955725 5.57568 0
M  V30 8930 H 844.996 -0.720457 6.47806 0
M  V30 8931 N 848.429 -1.21819 0.999893 0
M  V30 8932 C 849.392 -2.22227 0.561044 0
M  V30 8933 C 850.392 -1.56722 -0.359858 0
M  V30 8934 O 851.582 -1.73546 -0.150848 0
M  V30 8935 C 848.714 -3.40409 -0.182987 0
M  V30 8936 H 849.907 -2.62567 1.44909 0
M  V30 8937 H 847.46 -1.34991 0.78785 0
M  V30 8938 H 848.195 -3.05551 -1.08671 0
M  V30 8939 H 847.98 -3.89171 0.47833 0
M  V30 8940 H 849.47 -4.14856 -0.477952 0
M  V30 8941 N 849.908 -0.773975 -1.37286 0
M  V30 8942 C 850.871 -0.167974 -2.28584 0
M  V30 8943 C 851.871 0.625662 -1.48129 0
M  V30 8944 O 853.061 0.448924 -1.68316 0
M  V30 8945 C 850.193 0.769364 -3.32105 0
M  V30 8946 H 851.386 -0.972806 -2.83684 0
M  V30 8947 H 848.939 -0.542335 -1.46589 0
M  V30 8948 H 849.674 1.59912 -2.82132 0
M  V30 8949 H 849.459 0.202419 -3.91577 0
M  V30 8950 H 850.949 1.18872 -4.00324 0
M  V30 8951 N 851.386 1.48609 -0.524698 0
M  V30 8952 C 852.633 2.02497 0.0113214 0
M  V30 8953 C 852.961 1.40229 1.34781 0
M  V30 8954 O 852.216 0.53557 1.88229 0
M  V30 8955 C 852.515 3.56906 0.187873 0
M  V30 8956 C 852.181 4.37932 -1.07359 0
M  V30 8957 C 850.843 4.59792 -1.41933 0
M  V30 8958 C 853.195 4.84902 -1.911 0
M  V30 8959 C 850.523 5.25868 -2.60154 0
M  V30 8960 C 852.875 5.52281 -3.08495 0
M  V30 8961 C 851.539 5.7238 -3.4342 0
M  V30 8962 H 850.809 0.740988 0.0041428 0
M  V30 8963 H 853.456 1.78651 -0.689652 0
M  V30 8964 H 851.761 3.79563 0.971572 0
M  V30 8965 H 853.458 3.96218 0.617443 0
M  V30 8966 H 850.048 4.21175 -0.794331 0
M  V30 8967 H 854.232 4.67821 -1.65701 0
M  V30 8968 H 849.488 5.39628 -2.87422 0
M  V30 8969 H 853.662 5.87645 -3.73692 0
M  V30 8970 H 851.289 6.23354 -4.35126 0
M  V30 8971 N 852.864 0.259585 1.55447 0
M  V30 8972 C 853.794 -0.62852 2.24882 0
M  V30 8973 C 854.775 -1.17128 1.23349 0
M  V30 8974 O 855.96 -1.20829 1.52033 0
M  V30 8975 C 853.09 -1.81983 2.95803 0
M  V30 8976 C 852.044 -1.40929 4.04132 0
M  V30 8977 C 851.37 -2.68246 4.62545 0
M  V30 8978 C 852.67 -0.570956 5.1917 0
M  V30 8979 H 854.364 -0.0495021 2.99359 0
M  V30 8980 H 851.91 -0.0223688 1.43983 0
M  V30 8981 H 853.863 -2.44689 3.43082 0
M  V30 8982 H 852.587 -2.42444 2.18835 0
M  V30 8983 H 851.246 -0.805519 3.57641 0
M  V30 8984 H 850.894 -3.26931 3.82263 0
M  V30 8985 H 850.594 -2.41495 5.35681 0
M  V30 8986 H 852.118 -3.31827 5.12565 0
M  V30 8987 H 853.532 -1.10262 5.62597 0
M  V30 8988 H 851.929 -0.398979 5.98772 0
M  V30 8989 H 852.999 0.413918 4.8313 0
M  V30 8990 N 854.342 -1.57594 -0.0133615 0
M  V30 8991 C 855.588 -1.90262 -0.702019 0
M  V30 8992 C 855.921 -0.859219 -1.74158 0
M  V30 8993 O 855.196 0.123778 -1.94106 0
M  V30 8994 C 855.479 -3.3354 -1.35732 0
M  V30 8995 C 855.332 -4.48586 -0.330208 0
M  V30 8996 C 856.651 -3.76004 -2.28712 0
M  V30 8997 H 853.77 -0.691943 -0.253739 0
M  V30 8998 H 856.412 -1.89967 0.0351894 0
M  V30 8999 H 854.562 -3.33921 -1.98567 0
M  V30 9000 H 856.234 -4.6034 0.297433 0
M  V30 9001 H 854.477 -4.32394 0.348926 0
M  V30 9002 H 855.148 -5.45762 -0.827508 0
M  V30 9003 H 857.624 -3.77089 -1.75906 0
M  V30 9004 H 856.5 -4.77032 -2.71535 0
M  V30 9005 H 856.761 -3.09129 -3.16056 0
M  V30 9006 N 855.82 0.285905 -1.54985 0
M  V30 9007 C 857.068 1.01718 -1.74636 0
M  V30 9008 C 857.389 1.87277 -0.543342 0
M  V30 9009 O 856.659 1.90847 0.442078 0
M  V30 9010 H 855.239 0.378549 -0.643979 0
M  V30 9011 H 857.901 0.313247 -1.92366 0
M  V30 9012 H 856.997 1.66159 -2.64192 0
M  V30 9013 N 857.298 1.47698 0.54982 0
M  V30 9014 C 858.523 1.58579 1.33669 0
M  V30 9015 C 858.948 0.239049 1.86575 0
M  V30 9016 O 858.306 -0.786256 1.63364 0
M  V30 9017 C 858.354 2.62029 2.47736 0
M  V30 9018 O 857.458 2.17813 3.50188 0
M  V30 9019 H 856.799 0.532447 0.396732 0
M  V30 9020 H 859.329 1.93536 0.6637 0
M  V30 9021 H 859.339 2.82682 2.94202 0
M  V30 9022 H 858.014 3.59812 2.08586 0
M  V30 9023 H 856.591 2.07291 3.09976 0
M  V30 9024 N 858.776 -0.797141 1.35954 0
M  V30 9025 C 859.739 -1.89104 1.29508 0
M  V30 9026 C 860.739 -1.59495 0.204444 0
M  V30 9027 O 861.929 -1.68051 0.458746 0
M  V30 9028 C 859.061 -3.25726 1.00576 0
M  V30 9029 H 860.254 -1.96237 2.26785 0
M  V30 9030 H 857.807 -0.994075 1.20614 0
M  V30 9031 H 858.542 -3.24279 0.0372519 0
M  V30 9032 H 858.327 -3.48604 1.79492 0
M  V30 9033 H 859.817 -4.0578 0.986508 0
M  V30 9034 N 860.254 -1.20106 -1.0204 0
M  V30 9035 C 861.482 -1.0344 -1.79186 0
M  V30 9036 C 861.897 0.416542 -1.84148 0
M  V30 9037 O 861.254 1.28925 -1.29168 0
M  V30 9038 C 861.305 -1.60663 -3.23836 0
M  V30 9039 O 861.026 -3.00079 -3.19193 0
M  V30 9040 C 862.527 -1.48897 -4.17546 0
M  V30 9041 H 859.747 -0.364093 -0.563629 0
M  V30 9042 H 862.291 -1.5911 -1.28469 0
M  V30 9043 H 860.446 -1.09122 -3.71714 0
M  V30 9044 H 860.86 -3.27162 -4.09958 0
M  V30 9045 H 862.334 -1.93703 -5.16898 0
M  V30 9046 H 862.811 -0.440843 -4.36982 0
M  V30 9047 H 863.417 -1.9961 -3.75547 0
M  V30 9048 N 861.732 1.21287 -1.00634 0
M  V30 9049 C 863.143 1.72136 -0.722914 0
M  V30 9050 C 863.494 1.8091 0.759338 0
M  V30 9051 O 862.619 1.46458 1.59308 0
M  V30 9052 C 863.214 3.12633 -1.30561 0
M  V30 9053 C 861.773 3.60833 -1.07127 0
M  V30 9054 C 860.92 2.38326 -1.4176 0
M  V30 9055 H 863.871 1.06445 -1.17708 0
M  V30 9056 H 863.892 3.74174 -0.690937 0
M  V30 9057 H 863.404 3.06215 -2.38441 0
M  V30 9058 H 861.505 3.72599 -0.00968671 0
M  V30 9059 H 861.618 4.46226 -1.74411 0
M  V30 9060 H 859.982 2.40575 -0.836412 0
M  V30 9061 H 860.765 2.34558 -2.50674 0
M  V30 9062 N 863.21 0.781244 1.36873 0
M  V30 9063 C 864.626 0.461968 1.52768 0
M  V30 9064 C 864.826 -1.02099 1.73719 0
M  V30 9065 O 863.882 -1.80665 1.76399 0
M  V30 9066 C 865.195 1.2853 2.71846 0
M  V30 9067 C 866.743 1.27817 2.85713 0
M  V30 9068 C 867.218 2.08506 4.07786 0
M  V30 9069 N 868.709 2.05909 4.14917 0
M  V30 9070 C 869.444 2.65118 5.08429 0
M  V30 9071 N 868.94 3.33152 6.07438 0
M  V30 9072 N 870.733 2.54896 5.00983 0
M  V30 9073 H 862.884 1.74198 1.21527 0
M  V30 9074 H 865.147 0.740027 0.592506 0
M  V30 9075 H 864.853 2.3366 2.62861 0
M  V30 9076 H 864.727 0.920981 3.65784 0
M  V30 9077 H 867.114 0.234817 2.94164 0
M  V30 9078 H 867.195 1.68219 1.92707 0
M  V30 9079 H 866.839 3.12867 4.00096 0
M  V30 9080 H 866.769 1.65479 4.99924 0
M  V30 9081 H 869.26 1.56386 3.44023 0
M  V30 9082 H 869.573 3.75681 6.75339 0
M  V30 9083 H 867.918 3.37253 6.07689 0
M  V30 9084 H 871.109 2.01352 4.22581 0
M  V30 9085 H 871.282 3.01332 5.73675 0
M  V30 9086 N 864.689 -1.48329 0.532571 0
M  V30 9087 C 865.919 -2.066 0.00353785 0
M  V30 9088 C 866.327 -1.38913 -1.28451 0
M  V30 9089 O 865.67 -0.471385 -1.77549 0
M  V30 9090 C 865.732 -3.58342 -0.288324 0
M  V30 9091 C 865.396 -4.47917 0.906631 0
M  V30 9092 C 866.393 -4.87534 1.80572 0
M  V30 9093 C 864.078 -4.89783 1.11436 0
M  V30 9094 C 866.072 -5.6779 2.89642 0
M  V30 9095 C 863.759 -5.69809 2.20819 0
M  V30 9096 C 864.757 -6.08721 3.09755 0
M  V30 9097 O 864.445 -6.8714 4.17246 0
M  V30 9098 H 864.177 -0.675263 0.0315661 0
M  V30 9099 H 866.731 -1.91669 0.738375 0
M  V30 9100 H 864.961 -3.71395 -1.07717 0
M  V30 9101 H 866.65 -3.98726 -0.759752 0
M  V30 9102 H 867.416 -4.5581 1.65719 0
M  V30 9103 H 863.295 -4.58977 0.431382 0
M  V30 9104 H 866.839 -5.98082 3.59087 0
M  V30 9105 H 862.736 -6.00947 2.35655 0
M  V30 9106 H 863.504 -7.05498 4.14988 0
M  V30 9107 N 866.167 -0.267825 -1.55308 0
M  V30 9108 C 867.097 0.616585 -2.25212 0
M  V30 9109 C 868.078 1.16472 -1.23969 0
M  V30 9110 O 869.263 1.20021 -1.52672 0
M  V30 9111 C 866.393 1.80412 -2.96764 0
M  V30 9112 C 865.347 1.38784 -4.04874 0
M  V30 9113 C 864.673 2.65789 -4.63961 0
M  V30 9114 C 865.973 0.543415 -5.19465 0
M  V30 9115 H 867.667 0.0336257 -2.99381 0
M  V30 9116 H 865.213 0.0147328 -1.43992 0
M  V30 9117 H 867.166 2.42866 -3.44375 0
M  V30 9118 H 865.89 2.4128 -2.20118 0
M  V30 9119 H 864.549 0.786541 -3.58063 0
M  V30 9120 H 864.197 3.24899 -3.83992 0
M  V30 9121 H 863.897 2.38651 -5.36954 0
M  V30 9122 H 865.421 3.29104 -5.14318 0
M  V30 9123 H 866.835 1.07277 -5.63174 0
M  V30 9124 H 865.232 0.367219 -5.98975 0
M  V30 9125 H 866.302 -0.439534 -4.82904 0
M  V30 9126 N 867.645 1.57599 0.00500368 0
M  V30 9127 C 868.875 1.94344 0.700998 0
M  V30 9128 C 869.283 0.868011 1.68114 0
M  V30 9129 O 868.626 -0.16214 1.82983 0
M  V30 9130 C 868.688 3.27046 1.49268 0
M  V30 9131 C 868.352 4.51992 0.674684 0
M  V30 9132 C 869.349 5.19888 -0.0354833 0
M  V30 9133 C 867.034 4.98432 0.622129 0
M  V30 9134 C 869.028 6.3252 -0.787246 0
M  V30 9135 C 866.715 6.10954 -0.133362 0
M  V30 9136 C 867.713 6.77855 -0.836788 0
M  V30 9137 O 867.401 7.88221 -1.57996 0
M  V30 9138 H 867.133 0.645572 0.20053 0
M  V30 9139 H 869.687 2.0536 -0.040718 0
M  V30 9140 H 867.917 3.12424 2.27877 0
M  V30 9141 H 869.606 3.4894 2.07355 0
M  V30 9142 H 870.372 4.85 -0.00400159 0
M  V30 9143 H 866.251 4.46189 1.15917 0
M  V30 9144 H 869.795 6.84671 -1.33683 0
M  V30 9145 H 865.692 6.45285 -0.166682 0
M  V30 9146 H 866.46 8.0471 -1.49615 0
M  V30 9147 N 869.123 -0.277682 1.55134 0
M  V30 9148 C 870.053 -1.34742 1.90701 0
M  V30 9149 C 871.034 -1.51757 0.768354 0
M  V30 9150 O 872.219 -1.64879 1.02609 0
M  V30 9151 C 869.349 -2.70775 2.17481 0
M  V30 9152 C 868.303 -2.68497 3.33307 0
M  V30 9153 C 867.629 -4.08037 3.45557 0
M  V30 9154 C 868.929 -2.28178 4.69821 0
M  V30 9155 H 870.623 -1.05224 2.803 0
M  V30 9156 H 868.169 -0.504738 1.34864 0
M  V30 9157 H 870.122 -3.45719 2.40949 0
M  V30 9158 H 868.846 -3.01867 1.24676 0
M  V30 9159 H 867.505 -1.9601 3.09799 0
M  V30 9160 H 867.153 -4.36344 2.50226 0
M  V30 9161 H 866.853 -4.07409 4.23429 0
M  V30 9162 H 868.377 -4.84726 3.71312 0
M  V30 9163 H 869.791 -2.92843 4.92865 0
M  V30 9164 H 868.188 -2.3872 5.50575 0
M  V30 9165 H 869.258 -1.23308 4.6896 0
M  V30 9166 N 870.601 -1.47988 -0.541979 0
M  V30 9167 C 871.564 -1.61148 -1.62984 0
M  V30 9168 C 872.564 -0.48553 -1.53295 0
M  V30 9169 O 873.754 -0.751012 -1.5718 0
M  V30 9170 C 870.886 -1.57038 -3.02576 0
M  V30 9171 H 872.079 -2.58138 -1.52659 0
M  V30 9172 H 869.632 -1.36405 -0.763106 0
M  V30 9173 H 870.367 -0.614807 -3.18419 0
M  V30 9174 H 870.152 -2.38769 -3.11018 0
M  V30 9175 H 871.642 -1.69416 -3.81691 0
M  V30 9176 N 872.079 0.78992 -1.36375 0
M  V30 9177 C 873.304 1.58389 -1.33895 0
M  V30 9178 C 873.729 1.8794 0.0774934 0
M  V30 9179 O 873.087 1.4785 1.0493 0
M  V30 9180 C 873.135 2.88201 -2.16732 0
M  V30 9181 O 872.239 3.81778 -1.55946 0
M  V30 9182 H 871.58 0.480471 -0.458305 0
M  V30 9183 H 874.11 0.979119 -1.79651 0
M  V30 9184 H 874.12 3.37475 -2.29292 0
M  V30 9185 H 872.795 2.66019 -3.19698 0
M  V30 9186 H 871.372 3.40371 -1.52323 0
M  V30 9187 N 873.557 1.20646 1.01402 0
M  V30 9188 C 874.505 0.954493 2.12114 0
M  V30 9189 C 875.499 -0.0950737 1.69133 0
M  V30 9190 O 876.705 0.0555153 1.79914 0
M  V30 9191 H 873.08 0.29135 0.693267 0
M  V30 9192 H 875.051 1.89447 2.30548 0
M  V30 9193 C 873.8 0.525944 3.43699 0
M  V30 9194 H 873.123 1.32516 3.772 0
M  V30 9195 H 874.563 0.388883 4.22213 0
M  V30 9196 C 873.022 -0.761997 3.28169 0
M  V30 9197 O 873.552 -1.81979 3.58115 0
M  V30 9198 N 871.758 -0.725017 2.8141 0
M  V30 9199 H 871.305 0.13607 2.5724 0
M  V30 9200 H 871.263 -1.5871 2.71401 0
M  V30 9201 N 875.035 -1.20752 1.01276 0
M  V30 9202 C 875.985 -2.21252 0.550602 0
M  V30 9203 C 876.969 -1.56052 -0.391985 0
M  V30 9204 O 878.161 -1.75682 -0.215575 0
M  V30 9205 C 875.29 -3.43112 -0.113601 0
M  V30 9206 C 874.376 -4.15485 0.850465 0
M  V30 9207 N 874.767 -4.64301 2.00643 0
M  V30 9208 C 873.065 -4.40932 0.670476 0
M  V30 9209 C 873.766 -5.197 2.61317 0
M  V30 9210 N 872.742 -5.09534 1.8941 0
M  V30 9211 H 876.544 -2.56657 1.43194 0
M  V30 9212 H 874.058 -1.36646 0.877597 0
M  V30 9213 H 876.055 -4.1433 -0.462211 0
M  V30 9214 H 874.715 -3.09213 -0.990825 0
M  V30 9215 H 875.726 -4.59637 2.38651 0
M  V30 9216 H 872.403 -4.17197 -0.159016 0
M  V30 9217 H 873.793 -5.67873 3.59123 0
M  V30 9218 N 876.513 -0.788492 -1.36457 0
M  V30 9219 C 877.738 -0.371224 -2.04051 0
M  V30 9220 C 878.163 1.004 -1.59064 0
M  V30 9221 O 877.521 1.64663 -0.758679 0
M  V30 9222 C 877.569 -0.442275 -3.57877 0
M  V30 9223 O 876.673 0.55113 -4.08701 0
M  V30 9224 H 876.014 -0.157808 -0.644975 0
M  V30 9225 H 878.544 -1.06935 -1.74431 0
M  V30 9226 H 878.554 -0.305548 -4.06854 0
M  V30 9227 H 877.229 -1.44547 -3.89973 0
M  V30 9228 H 875.806 0.37614 -3.70998 0
M  V30 9229 N 877.991 1.48044 -0.54043 0
M  V30 9230 C 878.939 2.31461 0.229862 0
M  V30 9231 C 879.933 1.41884 0.925495 0
M  V30 9232 O 881.139 1.58736 0.848689 0
M  V30 9233 H 877.514 0.746227 0.0929975 0
M  V30 9234 H 879.485 2.94297 -0.493118 0
M  V30 9235 C 878.234 3.24172 1.25729 0
M  V30 9236 H 877.557 3.93052 0.731426 0
M  V30 9237 H 878.997 3.85404 1.76747 0
M  V30 9238 C 877.456 2.4651 2.2964 0
M  V30 9239 O 877.986 2.19742 3.36268 0
M  V30 9240 N 876.192 2.07817 2.03127 0
M  V30 9241 H 875.739 2.29786 1.1643 0
M  V30 9242 H 875.697 1.56168 2.72872 0
M  V30 9243 N 879.47 0.276058 1.55163 0
M  V30 9244 C 880.417 -0.611006 2.22565 0
M  V30 9245 C 881.387 -1.14902 1.19945 0
M  V30 9246 O 882.572 -1.19815 1.48489 0
M  V30 9247 C 879.712 -1.78885 2.95117 0
M  V30 9248 C 878.825 -1.2846 4.12458 0
M  V30 9249 C 877.96 -2.42432 4.72652 0
M  V30 9250 C 876.999 -1.89015 5.82185 0
M  V30 9251 N 876.136 -2.96463 6.36439 0
M  V30 9252 H 880.976 -0.0295849 2.97985 0
M  V30 9253 H 878.513 -0.00283607 1.471 0
M  V30 9254 H 880.471 -2.48121 3.35398 0
M  V30 9255 H 879.101 -2.34229 2.22119 0
M  V30 9256 H 878.153 -0.485312 3.77292 0
M  V30 9257 H 879.465 -0.853358 4.91446 0
M  V30 9258 H 878.619 -3.19659 5.15658 0
M  V30 9259 H 877.358 -2.88872 3.92943 0
M  V30 9260 H 876.363 -1.10267 5.38629 0
M  V30 9261 H 877.588 -1.43509 6.63763 0
M  V30 9262 H 875.534 -3.42283 5.59623 0
M  V30 9263 H 875.451 -2.57759 7.10701 0
M  V30 9264 H 876.719 -3.73663 6.84103 0
M  V30 9265 N 880.948 -1.576 0.00335426 0
M  V30 9266 C 882.194 -1.91833 -0.676149 0
M  V30 9267 C 882.549 -0.878079 -1.71194 0
M  V30 9268 O 881.842 0.109297 -1.91288 0
M  V30 9269 C 882.036 -3.3058 -1.35837 0
M  V30 9270 C 881.865 -4.48004 -0.390171 0
M  V30 9271 C 880.635 -5.053 0.000648493 0
M  V30 9272 C 882.833 -5.13142 0.344982 0
M  V30 9273 N 880.815 -6.06241 0.966709 0
M  V30 9274 C 882.186 -6.08944 1.16562 0
M  V30 9275 C 884.241 -4.96222 0.408457 0
M  V30 9276 C 882.944 -6.89649 2.04395 0
M  V30 9277 C 884.97 -5.77514 1.27403 0
M  V30 9278 C 884.332 -6.72912 2.08251 0
M  V30 9279 H 880.431 -0.750263 -0.220519 0
M  V30 9280 H 883.015 -1.94593 0.0644891 0
M  V30 9281 H 881.186 -3.28687 -2.06928 0
M  V30 9282 H 882.918 -3.52233 -1.99284 0
M  V30 9283 H 879.673 -4.72165 -0.368428 0
M  V30 9284 H 880.097 -6.61394 1.44521 0
M  V30 9285 H 884.739 -4.22316 -0.202324 0
M  V30 9286 H 882.457 -7.62878 2.66539 0
M  V30 9287 H 886.043 -5.66462 1.3271 0
M  V30 9288 H 884.923 -7.34721 2.74145 0
M  V30 9289 N 882.426 0.269451 -1.5528 0
M  V30 9290 C 883.674 0.998604 -1.75705 0
M  V30 9291 C 883.995 1.86691 -0.563175 0
M  V30 9292 O 883.265 1.91305 0.421811 0
M  V30 9293 H 881.845 0.371698 -0.647958 0
M  V30 9294 H 884.507 0.292826 -1.92688 0
M  V30 9295 H 883.603 1.63348 -2.6594 0
M  V30 9296 N 883.904 1.48273 0.534124 0
M  V30 9297 C 884.854 1.58889 1.63519 0
M  V30 9298 C 885.838 0.44626 1.54588 0
M  V30 9299 O 887.03 0.697474 1.62679 0
M  V30 9300 C 884.159 1.62787 3.0225 0
M  V30 9301 C 883.245 2.82515 3.16301 0
M  V30 9302 N 883.636 4.06977 3.00338 0
M  V30 9303 C 881.934 2.7976 3.47347 0
M  V30 9304 C 882.635 4.87283 3.17694 0
M  V30 9305 N 881.611 4.20024 3.45081 0
M  V30 9306 H 885.413 2.52869 1.49781 0
M  V30 9307 H 882.927 1.44587 0.739479 0
M  V30 9308 H 884.924 1.68486 3.81337 0
M  V30 9309 H 883.584 0.699201 3.17082 0
M  V30 9310 H 884.595 4.37479 2.77186 0
M  V30 9311 H 881.272 1.96132 3.68563 0
M  V30 9312 H 882.662 5.96047 3.10126 0
M  V30 9313 N 885.382 -0.782676 1.36792 0
M  V30 9314 C 886.793 -1.35828 1.28092 0
M  V30 9315 C 887.144 -1.96052 -0.076315 0
M  V30 9316 O 886.269 -1.93042 -0.977935 0
M  V30 9317 C 886.864 -2.46949 2.31952 0
M  V30 9318 C 885.423 -3.00307 2.2692 0
M  V30 9319 C 884.57 -1.73436 2.16368 0
M  V30 9320 H 887.521 -0.583788 1.47572 0
M  V30 9321 H 887.542 -3.26144 1.95986 0
M  V30 9322 H 887.054 -2.03087 3.30722 0
M  V30 9323 H 885.155 -3.48571 1.31639 0
M  V30 9324 H 885.268 -3.56663 3.19887 0
M  V30 9325 H 883.632 -1.95934 1.62733 0
M  V30 9326 H 884.415 -1.31693 3.17036 0
M  V30 9327 N 886.86 -1.21182 -1.00761 0
M  V30 9328 C 888.276 -0.968607 -1.26847 0
M  V30 9329 C 888.476 0.346561 -1.98497 0
M  V30 9330 O 887.532 1.07287 -2.28573 0
M  V30 9331 C 888.845 -2.1574 -2.09467 0
M  V30 9332 C 890.393 -2.19937 -2.22703 0
M  V30 9333 C 890.868 -3.38328 -3.08704 0
M  V30 9334 N 892.359 -3.38398 -3.16293 0
M  V30 9335 C 893.094 -4.26653 -3.83086 0
M  V30 9336 N 892.59 -5.25101 -4.5193 0
M  V30 9337 N 894.383 -4.14469 -3.797 0
M  V30 9338 H 886.534 -2.05763 -0.526816 0
M  V30 9339 H 888.797 -0.90087 -0.29519 0
M  V30 9340 H 888.503 -3.11034 -1.64167 0
M  V30 9341 H 888.377 -2.14584 -3.10216 0
M  V30 9342 H 890.764 -1.25201 -2.67224 0
M  V30 9343 H 890.845 -2.25139 -1.21433 0
M  V30 9344 H 890.489 -4.33356 -2.64886 0
M  V30 9345 H 890.419 -3.30364 -4.10082 0
M  V30 9346 H 892.91 -2.67149 -2.67282 0
M  V30 9347 H 893.223 -5.8875 -5.00592 0
M  V30 9348 H 891.568 -5.29029 -4.50726 0
M  V30 9349 H 894.759 -3.3682 -3.25069 0
M  V30 9350 H 894.932 -4.83458 -4.31477 0
M  V30 9351 N 888.338 1.20213 -1.01915 0
M  V30 9352 C 889.586 1.89272 -0.708552 0
M  V30 9353 C 889.907 1.79394 0.76438 0
M  V30 9354 O 889.177 1.198 1.54999 0
M  V30 9355 H 887.757 0.700628 -0.259094 0
M  V30 9356 H 890.419 1.45985 -1.29129 0
M  V30 9357 H 889.515 2.95841 -0.994215 0
M  V30 9358 N 889.816 0.795718 1.36037 0
M  V30 9359 C 891.046 0.382597 2.03026 0
M  V30 9360 C 891.454 -1.00779 1.60126 0
M  V30 9361 O 890.797 -1.65884 0.78919 0
M  V30 9362 C 890.859 0.374145 3.57548 0
M  V30 9363 C 890.523 1.71318 4.23673 0
M  V30 9364 C 891.52 2.6697 4.4612 0
M  V30 9365 C 889.205 1.99421 4.61017 0
M  V30 9366 C 891.199 3.88916 5.04998 0
M  V30 9367 C 888.886 3.21632 5.19611 0
M  V30 9368 C 889.884 4.16198 5.41542 0
M  V30 9369 O 889.572 5.36254 5.98905 0
M  V30 9370 H 889.304 0.154944 0.658003 0
M  V30 9371 H 891.858 1.07756 1.74865 0
M  V30 9372 H 890.088 -0.377349 3.84854 0
M  V30 9373 H 891.777 -0.01517 4.05897 0
M  V30 9374 H 892.543 2.46548 4.17659 0
M  V30 9375 H 888.422 1.2663 4.43267 0
M  V30 9376 H 891.966 4.6274 5.22032 0
M  V30 9377 H 887.863 3.4193 5.47498 0
M  V30 9378 H 888.631 5.37403 6.17366 0
M  V30 9379 N 891.294 -1.47756 0.548274 0
M  V30 9380 C 892.71 -1.58247 0.207401 0
M  V30 9381 C 892.91 -1.54804 -1.28988 0
M  V30 9382 O 891.966 -1.44673 -2.06944 0
M  V30 9383 C 893.279 -2.89129 0.826142 0
M  V30 9384 C 894.827 -3.02695 0.79655 0
M  V30 9385 C 895.302 -4.36264 1.3942 0
M  V30 9386 N 896.793 -4.42877 1.35698 0
M  V30 9387 C 897.528 -5.44773 1.78913 0
M  V30 9388 N 897.024 -6.53528 2.29942 0
M  V30 9389 N 898.817 -5.35765 1.70038 0
M  V30 9390 H 890.968 -1.48236 1.52117 0
M  V30 9391 H 893.231 -0.704957 0.633829 0
M  V30 9392 H 892.937 -2.97358 1.87806 0
M  V30 9393 H 892.811 -3.75891 0.313916 0
M  V30 9394 H 895.198 -2.94067 -0.246655 0
M  V30 9395 H 895.279 -2.17496 1.34644 0
M  V30 9396 H 894.923 -4.45646 2.43642 0
M  V30 9397 H 894.853 -5.20179 0.819827 0
M  V30 9398 H 897.344 -3.64874 0.983623 0
M  V30 9399 H 897.657 -7.27441 2.60863 0
M  V30 9400 H 896.002 -6.54442 2.33947 0
M  V30 9401 H 899.193 -4.49699 1.29955 0
M  V30 9402 H 899.366 -6.1504 2.04035 0
M  V30 9403 N 892.772 -0.284283 -1.55015 0
M  V30 9404 C 894.021 0.33055 -1.98973 0
M  V30 9405 C 894.334 1.56284 -1.17621 0
M  V30 9406 O 895.54 2.2512 -1.51767 0
M  V30 9407 C 893.996 0.639457 -3.54174 0
M  V30 9408 C 893.604 -0.573543 -4.44313 0
M  V30 9409 C 895.348 1.21641 -4.06699 0
M  V30 9410 C 893.255 -0.238715 -5.90918 0
M  V30 9411 H 892.185 0.127285 -0.743179 0
M  V30 9412 H 894.836 -0.390372 -1.793 0
M  V30 9413 H 893.218 1.41953 -3.69683 0
M  V30 9414 H 894.392 -1.3502 -4.40575 0
M  V30 9415 H 892.707 -1.06797 -4.02472 0
M  V30 9416 H 895.304 1.48088 -5.13784 0
M  V30 9417 H 895.647 2.15328 -3.56286 0
M  V30 9418 H 896.18 0.498422 -3.94665 0
M  V30 9419 H 892.919 -1.1437 -6.45445 0
M  V30 9420 H 892.439 0.500997 -5.97704 0
M  V30 9421 H 894.118 0.165774 -6.46788 0
M  V30 9422 N 894.251 1.57596 -0.0117121 0
M  V30 9423 C 895.183 2.06025 1.0043 0
M  V30 9424 C 896.196 0.980348 1.29973 0
M  V30 9425 O 897.385 1.25691 1.26744 0
M  V30 9426 C 894.485 2.45514 2.33615 0
M  V30 9427 C 893.658 3.76378 2.22842 0
M  V30 9428 C 892.717 4.02606 3.38814 0
M  V30 9429 O 891.743 4.73108 3.16477 0
M  V30 9430 N 892.945 3.51416 4.62047 0
M  V30 9431 H 895.71 2.93811 0.591206 0
M  V30 9432 H 893.271 1.60947 0.175427 0
M  V30 9433 H 895.263 2.60166 3.09993 0
M  V30 9434 H 893.833 1.63186 2.66625 0
M  V30 9435 H 893.053 3.71691 1.313 0
M  V30 9436 H 894.341 4.62149 2.12829 0
M  V30 9437 H 893.739 2.94346 4.83091 0
M  V30 9438 H 892.296 3.71377 5.35651 0
M  V30 9439 N 895.729 -0.261212 1.5542 0
M  V30 9440 C 896.662 -1.34906 1.84054 0
M  V30 9441 C 897.64 -1.47024 0.694466 0
M  V30 9442 O 898.824 -1.63463 0.938719 0
M  V30 9443 C 895.951 -2.7242 2.01259 0
M  V30 9444 C 894.997 -2.77526 3.23855 0
M  V30 9445 S 895.83 -2.35578 4.80898 0
M  V30 9446 C 896.986 -3.75045 5.01091 0
M  V30 9447 H 897.219 -1.10416 2.76035 0
M  V30 9448 H 894.752 -0.461461 1.47343 0
M  V30 9449 H 896.71 -3.51606 2.11857 0
M  V30 9450 H 895.371 -2.94155 1.10145 0
M  V30 9451 H 894.564 -3.78483 3.32816 0
M  V30 9452 H 894.166 -2.0637 3.11909 0
M  V30 9453 H 896.458 -4.7042 4.87556 0
M  V30 9454 H 897.401 -3.71027 6.03112 0
M  V30 9455 H 897.809 -3.66894 4.29009 0
M  V30 9456 N 897.207 -1.48554 -0.526253 0
M  V30 9457 C 898.137 -1.66252 -1.63959 0
M  V30 9458 C 899.118 -0.511351 -1.62232 0
M  V30 9459 O 900.303 -0.744322 -1.7937 0
M  V30 9460 C 897.433 -1.70556 -3.02536 0
M  V30 9461 C 896.387 -2.8521 -3.19123 0
M  V30 9462 C 895.713 -2.74606 -4.58798 0
M  V30 9463 C 897.013 -4.26463 -3.0154 0
M  V30 9464 H 898.707 -2.59459 -1.49404 0
M  V30 9465 H 896.253 -1.24862 -0.717326 0
M  V30 9466 H 898.206 -1.81524 -3.80298 0
M  V30 9467 H 896.93 -0.739297 -3.18123 0
M  V30 9468 H 895.589 -2.73802 -2.43779 0
M  V30 9469 H 895.237 -1.75941 -4.71226 0
M  V30 9470 H 894.937 -3.51544 -4.70841 0
M  V30 9471 H 896.461 -2.87548 -5.38655 0
M  V30 9472 H 897.875 -4.38685 -3.69091 0
M  V30 9473 H 896.272 -5.04428 -3.25073 0
M  V30 9474 H 897.342 -4.42667 -1.97925 0
M  V30 9475 N 898.685 0.775411 -1.37205 0
M  V30 9476 C 899.91 1.5696 -1.35567 0
M  V30 9477 C 900.335 1.88012 0.0575554 0
M  V30 9478 O 899.693 1.48954 1.03355 0
M  V30 9479 C 899.741 2.85886 -2.19776 0
M  V30 9480 O 898.845 3.80103 -1.59987 0
M  V30 9481 H 898.186 0.475583 -0.463375 0
M  V30 9482 H 900.716 0.96001 -1.80679 0
M  V30 9483 H 900.726 3.35024 -2.32859 0
M  V30 9484 H 899.401 2.62613 -3.22502 0
M  V30 9485 H 897.978 3.38736 -1.55924 0
M  V30 9486 N 900.163 1.21714 1.00117 0
M  V30 9487 C 901.41 1.0367 1.73951 0
M  V30 9488 C 901.738 -0.429289 1.89703 0
M  V30 9489 O 900.993 -1.33475 1.43119 0
M  V30 9490 C 901.292 1.68345 3.15269 0
M  V30 9491 C 900.958 3.18214 3.19454 0
M  V30 9492 C 899.62 3.59109 3.20303 0
M  V30 9493 C 901.972 4.14179 3.16394 0
M  V30 9494 C 899.3 4.94467 3.15783 0
M  V30 9495 C 901.652 5.49502 3.13416 0
M  V30 9496 C 900.316 5.8979 3.12577 0
M  V30 9497 H 899.586 0.379355 0.63653 0
M  V30 9498 H 902.233 1.51361 1.17312 0
M  V30 9499 H 900.538 1.12957 3.75164 0
M  V30 9500 H 902.235 1.51882 3.71124 0
M  V30 9501 H 898.825 2.85646 3.19538 0
M  V30 9502 H 903.009 3.83607 3.14895 0
M  V30 9503 H 898.265 5.24923 3.13473 0
M  V30 9504 H 902.439 6.23595 3.10003 0
M  V30 9505 H 900.066 6.94643 3.08829 0
M  V30 9506 N 901.641 -1.19671 1.02551 0
M  V30 9507 C 902.604 -2.20987 0.608055 0
M  V30 9508 C 903.604 -1.5745 -0.326534 0
M  V30 9509 O 904.794 -1.73827 -0.114003 0
M  V30 9510 C 901.926 -3.4072 -0.11074 0
M  V30 9511 H 903.119 -2.59434 1.50446 0
M  V30 9512 H 900.672 -1.3329 0.816307 0
M  V30 9513 H 901.407 -3.07787 -1.02165 0
M  V30 9514 H 901.192 -3.88069 0.560772 0
M  V30 9515 H 902.682 -4.15776 -0.389848 0
M  V30 9516 N 903.119 -0.802921 -1.35613 0
M  V30 9517 C 904.367 -0.380822 -1.9848 0
M  V30 9518 C 904.688 1.05464 -1.6402 0
M  V30 9519 O 903.958 1.72908 -0.920854 0
M  V30 9520 H 902.538 -0.137824 -0.734176 0
M  V30 9521 H 905.2 -1.02795 -1.65587 0
M  V30 9522 H 904.296 -0.483565 -3.08331 0
M  V30 9523 N 904.597 1.47463 -0.556102 0
M  V30 9524 C 905.507 2.33785 0.195378 0
M  V30 9525 C 906.523 1.48123 0.913 0
M  V30 9526 O 907.699 1.81053 0.882141 0
M  V30 9527 C 904.764 3.24795 1.21282 0
M  V30 9528 C 903.825 4.26346 0.502747 0
M  V30 9529 C 903.058 5.13007 1.47172 0
M  V30 9530 O 903.281 5.02103 2.70646 0
M  V30 9531 O 902.215 5.93588 0.996814 0
M  V30 9532 H 906.041 2.99341 -0.512676 0
M  V30 9533 H 903.626 1.46004 -0.31673 0
M  V30 9534 H 905.508 3.81015 1.80016 0
M  V30 9535 H 904.183 2.61868 1.90282 0
M  V30 9536 H 903.09 3.73889 -0.125757 0
M  V30 9537 H 904.423 4.91984 -0.145779 0
M  V30 9538 N 906.075 0.2925 1.54862 0
M  V30 9539 C 907.486 -0.201841 1.85606 0
M  V30 9540 C 907.837 -1.54093 1.21449 0
M  V30 9541 O 906.962 -2.10327 0.509079 0
M  V30 9542 C 907.557 -0.373011 3.3674 0
M  V30 9543 C 906.116 -0.811574 3.67547 0
M  V30 9544 C 905.263 0.0850583 2.7717 0
M  V30 9545 H 908.214 0.513774 1.50153 0
M  V30 9546 H 908.235 -1.20892 3.60785 0
M  V30 9547 H 907.747 0.601751 3.83407 0
M  V30 9548 H 905.848 -1.79719 3.26392 0
M  V30 9549 H 905.961 -0.636853 4.74848 0
M  V30 9550 H 904.325 -0.434224 2.50971 0
M  V30 9551 H 905.108 1.05602 3.26654 0
M  V30 9552 N 907.553 -1.57587 0.0200696 0
M  V30 9553 C 908.483 -2.12702 -0.963333 0
M  V30 9554 C 909.464 -1.04094 -1.34531 0
M  V30 9555 O 910.649 -1.31881 -1.42552 0
M  V30 9556 C 907.779 -2.64673 -2.24868 0
M  V30 9557 C 906.733 -3.77987 -2.00772 0
M  V30 9558 C 906.059 -4.16351 -3.35494 0
M  V30 9559 C 907.359 -5.0444 -1.35416 0
M  V30 9560 H 909.053 -2.95121 -0.504363 0
M  V30 9561 H 906.599 -1.41966 -0.24116 0
M  V30 9562 H 908.552 -3.01862 -2.94036 0
M  V30 9563 H 907.276 -1.79403 -2.72914 0
M  V30 9564 H 905.935 -3.41223 -1.34025 0
M  V30 9565 H 905.583 -3.28075 -3.81282 0
M  V30 9566 H 905.283 -4.92705 -3.20181 0
M  V30 9567 H 906.807 -4.56115 -4.05945 0
M  V30 9568 H 908.221 -5.39273 -1.94571 0
M  V30 9569 H 906.618 -5.85732 -1.30529 0
M  V30 9570 H 907.688 -4.83803 -0.325923 0
M  V30 9571 N 909.032 0.252966 -1.55557 0
M  V30 9572 C 910.443 0.822503 -1.67606 0
M  V30 9573 C 910.794 1.86265 -0.616411 0
M  V30 9574 O 909.919 2.15082 0.238447 0
M  V30 9575 C 910.514 1.49866 -3.03852 0
M  V30 9576 C 909.073 2.01597 -3.17861 0
M  V30 9577 C 908.22 0.864943 -2.63465 0
M  V30 9578 H 911.171 0.0288958 -1.58674 0
M  V30 9579 H 911.192 2.36646 -2.97958 0
M  V30 9580 H 910.704 0.741378 -3.80953 0
M  V30 9581 H 908.805 2.80224 -2.45571 0
M  V30 9582 H 908.918 2.21752 -4.24692 0
M  V30 9583 H 907.282 1.2638 -2.21134 0
M  V30 9584 H 908.065 0.120847 -3.43087 0
M  V30 9585 N 910.51 1.48831 0.518367 0
M  V30 9586 C 911.442 1.60317 1.63802 0
M  V30 9587 C 912.455 0.486771 1.55352 0
M  V30 9588 O 913.644 0.758111 1.61601 0
M  V30 9589 C 910.744 1.52771 3.02513 0
M  V30 9590 C 909.917 2.79649 3.36326 0
M  V30 9591 C 908.976 2.65396 4.54369 0
M  V30 9592 O 908.002 3.39304 4.57013 0
M  V30 9593 N 909.204 1.75784 5.53245 0
M  V30 9594 H 911.969 2.56878 1.54383 0
M  V30 9595 H 909.53 1.45701 0.705889 0
M  V30 9596 H 911.522 1.40914 3.79375 0
M  V30 9597 H 910.092 0.641381 3.05949 0
M  V30 9598 H 909.312 3.05985 2.48529 0
M  V30 9599 H 910.6 3.63799 3.55707 0
M  V30 9600 H 909.998 1.14961 5.53896 0
M  V30 9601 H 908.555 1.69859 6.29278 0
M  V30 9602 N 911.988 -0.768124 1.37614 0
M  V30 9603 C 912.936 -1.9029 1.33763 0
M  V30 9604 C 913.93 -1.67888 0.225814 0
M  V30 9605 O 915.136 -1.75634 0.394043 0
M  V30 9606 H 911.511 -0.625828 0.416945 0
M  V30 9607 H 913.482 -1.90654 2.29551 0
M  V30 9608 C 912.231 -3.27598 1.16511 0
M  V30 9609 H 911.554 -3.45414 2.01318 0
M  V30 9610 H 912.994 -4.07288 1.17867 0
M  V30 9611 C 911.453 -3.36653 -0.129001 0
M  V30 9612 O 911.983 -3.86023 -1.11128 0
M  V30 9613 N 910.189 -2.90036 -0.180926 0
M  V30 9614 H 909.736 -2.5005 0.619076 0
M  V30 9615 H 909.694 -2.96475 -1.04641 0
M  V30 9616 N 913.466 -1.22244 -0.994698 0
M  V30 9617 C 914.691 -1.07299 -1.77487 0
M  V30 9618 C 915.116 0.372302 -1.84379 0
M  V30 9619 O 914.474 1.2689 -1.29494 0
M  V30 9620 C 914.522 -1.68675 -3.18718 0
M  V30 9621 O 913.626 -0.939202 -4.01563 0
M  V30 9622 H 912.967 -0.376979 -0.546611 0
M  V30 9623 H 915.497 -1.62003 -1.24965 0
M  V30 9624 H 915.507 -1.73324 -3.69354 0
M  V30 9625 H 914.182 -2.73849 -3.13017 0
M  V30 9626 H 912.759 -0.968583 -3.60101 0
M  V30 9627 N 914.944 1.19125 -1.03184 0
M  V30 9628 C 916.169 1.93379 -0.749628 0
M  V30 9629 C 916.594 1.75153 0.685785 0
M  V30 9630 O 915.952 1.05579 1.47386 0
M  V30 9631 C 916 3.43101 -1.1097 0
M  V30 9632 O 915.104 4.11758 -0.230053 0
M  V30 9633 H 914.445 0.603605 -0.276689 0
M  V30 9634 H 916.975 1.51116 -1.37931 0
M  V30 9635 H 916.985 3.93778 -1.06785 0
M  V30 9636 H 915.66 3.55688 -2.15544 0
M  V30 9637 H 914.237 3.7143 -0.330748 0
M  V30 9638 N 916.422 0.810101 1.35185 0
M  V30 9639 C 917.355 0.168416 2.27578 0
M  V30 9640 C 918.333 -0.667664 1.4826 0
M  V30 9641 O 919.517 -0.634184 1.77512 0
M  V30 9642 C 916.644 -0.765994 3.29925 0
M  V30 9643 C 915.69 -0.00908802 4.26499 0
M  V30 9644 S 916.523 1.32936 5.18737 0
M  V30 9645 C 917.679 0.399485 6.24624 0
M  V30 9646 H 917.912 0.951753 2.81654 0
M  V30 9647 H 915.445 0.60534 1.42039 0
M  V30 9648 H 917.403 -1.2996 3.89385 0
M  V30 9649 H 916.064 -1.52275 2.7472 0
M  V30 9650 H 915.257 -0.718919 4.98846 0
M  V30 9651 H 914.859 0.454663 3.71226 0
M  V30 9652 H 917.151 -0.413904 6.76234 0
M  V30 9653 H 918.094 1.09225 6.99625 0
M  V30 9654 H 918.502 -0.00638358 5.645 0
M  V30 9655 N 917.9 -1.47166 0.563914 0
M  V30 9656 C 918.863 -2.28571 -0.169624 0
M  V30 9657 C 919.863 -1.37331 -0.836467 0
M  V30 9658 O 921.053 -1.59896 -0.6913 0
M  V30 9659 C 918.185 -3.17201 -1.24886 0
M  V30 9660 H 919.378 -2.94896 0.545539 0
M  V30 9661 H 916.931 -1.52966 0.321121 0
M  V30 9662 H 917.666 -2.55582 -1.99621 0
M  V30 9663 H 917.451 -3.84356 -0.775426 0
M  V30 9664 H 918.941 -3.7852 -1.76388 0
M  V30 9665 N 919.378 -0.300708 -1.54705 0
M  V30 9666 C 920.794 0.0526874 -1.59513 0
M  V30 9667 C 920.994 1.52444 -1.31769 0
M  V30 9668 O 920.05 2.27716 -1.09096 0
M  V30 9669 C 921.363 -0.344989 -2.98714 0
M  V30 9670 C 922.911 -0.29373 -3.11619 0
M  V30 9671 C 923.386 -0.666225 -4.53129 0
M  V30 9672 N 924.877 -0.618749 -4.59049 0
M  V30 9673 C 925.612 -0.879447 -5.66616 0
M  V30 9674 N 925.108 -1.2061 -6.82221 0
M  V30 9675 N 926.901 -0.806528 -5.56284 0
M  V30 9676 H 919.052 -1.25988 -1.71 0
M  V30 9677 H 921.315 -0.510758 -0.798643 0
M  V30 9678 H 921.021 -1.36953 -3.2394 0
M  V30 9679 H 920.895 0.301507 -3.75993 0
M  V30 9680 H 923.282 0.72156 -2.86142 0
M  V30 9681 H 923.363 -0.974844 -2.36496 0
M  V30 9682 H 923.007 -1.67932 -4.79334 0
M  V30 9683 H 922.937 0.0369575 -5.26587 0
M  V30 9684 H 925.428 -0.377202 -3.76013 0
M  V30 9685 H 925.741 -1.391 -7.60178 0
M  V30 9686 H 924.086 -1.24413 -6.83774 0
M  V30 9687 H 927.277 -0.550993 -4.64846 0
M  V30 9688 H 927.45 -1.01307 -6.40032 0
M  V30 9689 N 920.856 1.57574 -0.0284266 0
M  V30 9690 C 922.104 1.91393 0.649079 0
M  V30 9691 C 922.425 0.905368 1.72708 0
M  V30 9692 O 921.695 -0.0532107 1.95828 0
M  V30 9693 H 920.275 0.70646 0.24274 0
M  V30 9694 H 922.937 1.94752 -0.076066 0
M  V30 9695 H 922.033 2.91988 1.10226 0
M  V30 9696 N 922.334 -0.244713 1.55689 0
M  V30 9697 C 923.581 -0.972446 1.77622 0
M  V30 9698 C 923.909 -1.85235 0.593137 0
M  V30 9699 O 923.164 -1.91064 -0.423464 0
M  V30 9700 C 923.463 -1.8617 3.05083 0
M  V30 9701 C 923.129 -1.13696 4.3633 0
M  V30 9702 C 921.791 -0.936679 4.71996 0
M  V30 9703 C 924.143 -0.623451 5.17458 0
M  V30 9704 C 921.471 -0.210612 5.86322 0
M  V30 9705 C 923.823 0.0891587 6.32537 0
M  V30 9706 C 922.487 0.300904 6.66821 0
M  V30 9707 H 921.757 -0.355843 0.649967 0
M  V30 9708 H 924.404 -0.242372 1.8996 0
M  V30 9709 H 922.709 -2.6589 2.87767 0
M  V30 9710 H 924.406 -2.4265 3.19253 0
M  V30 9711 H 920.996 -1.30301 4.08313 0
M  V30 9712 H 925.18 -0.765725 4.90357 0
M  V30 9713 H 920.436 -0.0361062 6.11389 0
M  V30 9714 H 924.61 0.494685 6.94641 0
M  V30 9715 H 922.237 0.865466 7.55257 0
M  V30 9716 N 923.813 -1.49104 -0.510467 0
M  V30 9717 C 925.038 -1.62068 -1.29417 0
M  V30 9718 C 925.463 -0.288432 -1.85875 0
M  V30 9719 O 924.821 0.742667 -1.65391 0
M  V30 9720 C 924.869 -2.68506 -2.40701 0
M  V30 9721 O 923.973 -2.27021 -3.4429 0
M  V30 9722 H 923.314 -0.542778 -0.382476 0
M  V30 9723 H 925.844 -1.95228 -0.612154 0
M  V30 9724 H 925.854 -2.90383 -2.86604 0
M  V30 9725 H 924.529 -3.65216 -1.98973 0
M  V30 9726 H 923.106 -2.15436 -3.04371 0
M  V30 9727 N 925.291 0.760815 -1.38019 0
M  V30 9728 C 926.537 1.52109 -1.35034 0
M  V30 9729 C 926.892 1.92302 0.0615509 0
M  V30 9730 O 926.185 1.62028 1.02261 0
M  V30 9731 C 926.379 2.79024 -2.23339 0
M  V30 9732 C 926.208 2.51238 -3.72974 0
M  V30 9733 C 924.978 2.44818 -4.42032 0
M  V30 9734 C 927.176 2.18499 -4.65578 0
M  V30 9735 N 925.158 2.09232 -5.77144 0
M  V30 9736 C 926.529 1.93143 -5.89148 0
M  V30 9737 C 928.584 2.04747 -4.53854 0
M  V30 9738 C 927.287 1.55423 -7.02308 0
M  V30 9739 C 929.313 1.68428 -5.66909 0
M  V30 9740 C 928.675 1.43939 -6.89537 0
M  V30 9741 H 924.774 0.556482 -0.54941 0
M  V30 9742 H 927.358 0.886614 -1.73341 0
M  V30 9743 H 925.529 3.40292 -1.87232 0
M  V30 9744 H 927.261 3.45016 -2.11533 0
M  V30 9745 H 924.016 2.61045 -3.95161 0
M  V30 9746 H 924.44 1.94104 -6.48577 0
M  V30 9747 H 929.082 2.22358 -3.59607 0
M  V30 9748 H 926.8 1.36551 -7.96479 0
M  V30 9749 H 930.386 1.5843 -5.59814 0
M  V30 9750 H 929.266 1.16253 -7.75535 0
M  V30 9751 N 926.769 1.22769 0.988202 0
M  V30 9752 C 927.679 1.01844 2.11341 0
M  V30 9753 C 928.695 -0.0346937 1.73965 0
M  V30 9754 O 929.871 0.159061 2.00771 0
M  V30 9755 C 926.936 0.603837 3.41401 0
M  V30 9756 C 925.997 1.73113 3.92849 0
M  V30 9757 C 925.23 1.33621 5.16702 0
M  V30 9758 O 925.453 0.217041 5.69987 0
M  V30 9759 O 924.387 2.15444 5.62021 0
M  V30 9760 H 928.213 1.96127 2.31879 0
M  V30 9761 H 925.798 1.01405 1.09715 0
M  V30 9762 H 927.68 0.383196 4.19654 0
M  V30 9763 H 926.355 -0.310082 3.22211 0
M  V30 9764 H 925.262 2.00634 3.15748 0
M  V30 9765 H 926.595 2.62308 4.1648 0
M  V30 9766 N 928.247 -1.18576 1.03814 0
M  V30 9767 C 929.663 -1.4051 0.756909 0
M  V30 9768 C 929.863 -1.9057 -0.654631 0
M  V30 9769 O 928.919 -2.0884 -1.41922 0
M  V30 9770 C 930.232 -2.4081 1.80087 0
M  V30 9771 C 931.78 -2.54541 1.82148 0
M  V30 9772 C 932.255 -3.58102 2.85529 0
M  V30 9773 N 933.746 -3.65607 2.84404 0
M  V30 9774 C 934.481 -4.45458 3.61047 0
M  V30 9775 N 933.977 -5.28937 4.47434 0
M  V30 9776 N 935.77 -4.40196 3.49548 0
M  V30 9777 H 927.921 -0.844075 1.94908 0
M  V30 9778 H 930.184 -0.433287 0.843188 0
M  V30 9779 H 929.89 -2.1107 2.81322 0
M  V30 9780 H 929.764 -3.4012 1.63089 0
M  V30 9781 H 932.151 -2.83598 0.815855 0
M  V30 9782 H 932.232 -1.55352 2.03223 0
M  V30 9783 H 931.876 -3.29786 3.86269 0
M  V30 9784 H 931.806 -4.56963 2.6171 0
M  V30 9785 H 934.297 -3.05994 2.21756 0
M  V30 9786 H 934.61 -5.8701 5.02632 0
M  V30 9787 H 932.955 -5.28366 4.51503 0
M  V30 9788 H 936.146 -3.74026 2.81464 0
M  V30 9789 H 936.319 -5.02186 4.09528 0
M  V30 9790 N 929.725 -0.817259 -1.34754 0
M  V30 9791 C 930.955 -0.414849 -2.02392 0
M  V30 9792 C 931.363 0.982186 -1.61709 0
M  V30 9793 O 930.706 1.64607 -0.815481 0
M  V30 9794 C 930.768 -0.430981 -3.56907 0
M  V30 9795 C 930.432 -1.78037 -4.20894 0
M  V30 9796 C 931.429 -2.74034 -4.41816 0
M  V30 9797 C 929.114 -2.0673 -4.57786 0
M  V30 9798 C 931.108 -3.96901 -4.98747 0
M  V30 9799 C 928.795 -3.29858 -5.14429 0
M  V30 9800 C 929.793 -4.24761 -5.34853 0
M  V30 9801 O 929.481 -5.45714 -5.90298 0
M  V30 9802 H 929.213 -0.165392 -0.655455 0
M  V30 9803 H 931.767 -1.10524 -1.73129 0
M  V30 9804 H 929.997 0.316074 -3.85406 0
M  V30 9805 H 931.686 -0.0494067 -4.0587 0
M  V30 9806 H 932.452 -2.53161 -4.13684 0
M  V30 9807 H 928.331 -1.33666 -4.41197 0
M  V30 9808 H 931.875 -4.70987 -5.14604 0
M  V30 9809 H 927.772 -3.50597 -5.41989 0
M  V30 9810 H 928.54 -5.47157 -6.08738 0
M  V30 9811 N 931.203 1.46865 -0.571711 0
M  V30 9812 C 932.135 2.28277 0.205479 0
M  V30 9813 C 933.148 1.37866 0.865835 0
M  V30 9814 O 934.337 1.62564 0.737247 0
M  V30 9815 C 931.437 3.12572 1.30965 0
M  V30 9816 C 930.61 4.31038 0.743328 0
M  V30 9817 C 929.669 4.96815 1.73382 0
M  V30 9818 O 928.695 5.54755 1.2742 0
M  V30 9819 N 929.897 4.92825 3.06764 0
M  V30 9820 H 932.662 2.95618 -0.49294 0
M  V30 9821 H 930.223 1.56655 -0.408744 0
M  V30 9822 H 932.215 3.53442 1.97131 0
M  V30 9823 H 930.785 2.47378 1.91109 0
M  V30 9824 H 930.005 3.94084 -0.0955004 0
M  V30 9825 H 931.293 5.07632 0.344556 0
M  V30 9826 H 930.691 4.46978 3.46738 0
M  V30 9827 H 929.248 5.3767 3.68449 0
M  V30 9828 N 932.681 0.308908 1.54543 0
M  V30 9829 C 933.611 -0.556657 2.26768 0
M  V30 9830 C 934.592 -1.13145 1.27013 0
M  V30 9831 O 935.777 -1.15931 1.558 0
M  V30 9832 C 932.907 -1.72481 3.01443 0
M  V30 9833 C 931.861 -1.28001 4.08411 0
M  V30 9834 C 931.187 -2.53395 4.70845 0
M  V30 9835 C 932.487 -0.405497 5.20724 0
M  V30 9836 H 934.181 0.0457618 2.99365 0
M  V30 9837 H 931.727 0.0234495 1.43981 0
M  V30 9838 H 933.68 -2.3365 3.50693 0
M  V30 9839 H 932.404 -2.35359 2.26437 0
M  V30 9840 H 931.063 -0.69133 3.60022 0
M  V30 9841 H 930.711 -3.14604 3.92471 0
M  V30 9842 H 930.411 -2.2433 5.43093 0
M  V30 9843 H 931.935 -3.15352 5.22863 0
M  V30 9844 H 933.349 -0.923076 5.6582 0
M  V30 9845 H 931.746 -0.208282 5.99738 0
M  V30 9846 H 932.816 0.567412 4.81569 0
M  V30 9847 N 934.159 -1.57557 0.0367827 0
M  V30 9848 C 935.122 -2.09591 -0.927589 0
M  V30 9849 C 936.122 -1.01252 -1.24919 0
M  V30 9850 O 937.312 -1.27382 -1.18825 0
M  V30 9851 C 934.444 -2.56816 -2.24184 0
M  V30 9852 H 935.637 -2.96086 -0.476784 0
M  V30 9853 H 933.19 -1.54864 -0.211385 0
M  V30 9854 H 933.925 -1.73673 -2.73876 0
M  V30 9855 H 933.71 -3.35973 -2.0215 0
M  V30 9856 H 935.2 -2.97271 -2.93291 0
M  V30 9857 N 935.637 0.236453 -1.55816 0
M  V30 9858 C 936.883 0.964439 -1.784 0
M  V30 9859 C 937.216 1.84573 -0.603868 0
M  V30 9860 O 936.491 1.90395 0.397473 0
M  V30 9861 C 936.774 1.81608 -3.10951 0
M  V30 9862 C 936.627 0.962283 -4.39386 0
M  V30 9863 C 937.946 2.79665 -3.39817 0
M  V30 9864 H 935.065 0.349192 -0.649026 0
M  V30 9865 H 937.707 0.234247 -1.8855 0
M  V30 9866 H 935.857 2.43864 -3.02428 0
M  V30 9867 H 937.529 0.35762 -4.59912 0
M  V30 9868 H 935.772 0.267062 -4.32977 0
M  V30 9869 H 936.443 1.59222 -5.28538 0
M  V30 9870 H 938.919 2.27546 -3.4837 0
M  V30 9871 H 937.795 3.36367 -4.33761 0
M  V30 9872 H 938.056 3.56657 -2.61244 0
M  V30 9873 N 937.115 1.49373 0.502552 0
M  V30 9874 C 938.343 1.62488 1.28084 0
M  V30 9875 C 938.758 0.295667 1.86471 0
M  V30 9876 O 938.115 -0.718664 1.67754 0
M  V30 9877 C 938.166 2.69249 2.4122 0
M  V30 9878 O 937.887 3.97014 1.85234 0
M  V30 9879 C 939.388 2.93054 3.32617 0
M  V30 9880 H 936.608 0.547068 0.388533 0
M  V30 9881 H 939.152 1.95394 0.603452 0
M  V30 9882 H 937.307 2.39125 3.04792 0
M  V30 9883 H 937.721 4.55809 2.59496 0
M  V30 9884 H 939.195 3.71493 4.08285 0
M  V30 9885 H 939.672 2.02911 3.89517 0
M  V30 9886 H 940.278 3.24589 2.74813 0
M  V30 9887 N 938.594 -0.753485 1.38421 0
M  V30 9888 C 939.526 -1.87692 1.31547 0
M  V30 9889 C 940.539 -1.612 0.227671 0
M  V30 9890 O 941.728 -1.71778 0.485238 0
M  V30 9891 C 938.828 -3.23329 1.01545 0
M  V30 9892 C 938.001 -3.77324 2.21236 0
M  V30 9893 C 937.06 -4.91478 1.87977 0
M  V30 9894 O 936.086 -5.06106 2.60472 0
M  V30 9895 N 937.288 -5.74466 0.834796 0
M  V30 9896 H 940.053 -1.94099 2.28354 0
M  V30 9897 H 937.614 -0.933421 1.32283 0
M  V30 9898 H 939.606 -3.9724 0.773477 0
M  V30 9899 H 938.176 -3.12307 0.135334 0
M  V30 9900 H 937.396 -2.94978 2.61498 0
M  V30 9901 H 938.684 -4.10131 3.01115 0
M  V30 9902 H 938.082 -5.65217 0.233606 0
M  V30 9903 H 936.639 -6.48524 0.652703 0
M  V30 9904 N 940.072 -1.23292 -0.981677 0
M  V30 9905 C 941.488 -0.995295 -1.24764 0
M  V30 9906 C 941.688 0.304379 -1.99188 0
M  V30 9907 O 940.744 1.02414 -2.30798 0
M  V30 9908 C 942.057 -2.20135 -2.04844 0
M  V30 9909 C 943.605 -2.24612 -2.17988 0
M  V30 9910 C 944.08 -3.448 -3.01458 0
M  V30 9911 N 945.571 -3.45031 -3.09044 0
M  V30 9912 C 946.306 -4.34683 -3.7395 0
M  V30 9913 N 945.802 -5.34569 -4.4069 0
M  V30 9914 N 947.595 -4.22429 -3.70823 0
M  V30 9915 H 939.746 -2.06834 -0.483052 0
M  V30 9916 H 942.009 -0.906929 -0.276014 0
M  V30 9917 H 941.715 -3.14446 -1.57532 0
M  V30 9918 H 941.589 -2.21115 -3.05594 0
M  V30 9919 H 943.976 -1.30841 -2.64508 0
M  V30 9920 H 944.057 -2.27664 -1.16631 0
M  V30 9921 H 943.701 -4.38877 -2.55635 0
M  V30 9922 H 943.631 -3.38988 -4.02982 0
M  V30 9923 H 946.122 -2.72759 -2.61555 0
M  V30 9924 H 946.435 -5.99236 -4.87991 0
M  V30 9925 H 944.78 -5.3847 -4.39403 0
M  V30 9926 H 947.971 -3.43639 -3.17851 0
M  V30 9927 H 948.144 -4.92501 -4.21126 0
M  V30 9928 N 941.55 1.18024 -1.04442 0
M  V30 9929 C 942.497 2.21785 -0.638759 0
M  V30 9930 C 943.467 1.62255 0.355312 0
M  V30 9931 O 944.652 1.89176 0.24844 0
M  V30 9932 C 941.792 3.45098 -0.0118002 0
M  V30 9933 C 940.905 4.1895 -1.05379 0
M  V30 9934 C 940.04 5.2973 -0.394951 0
M  V30 9935 C 939.079 5.95359 -1.42178 0
M  V30 9936 N 938.216 6.97668 -0.787635 0
M  V30 9937 H 943.056 2.55839 -1.52808 0
M  V30 9938 H 940.593 1.25681 -0.764378 0
M  V30 9939 H 942.551 4.15564 0.369075 0
M  V30 9940 H 941.181 3.11652 0.84102 0
M  V30 9941 H 940.233 3.47274 -1.55258 0
M  V30 9942 H 941.545 4.63877 -1.83355 0
M  V30 9943 H 940.699 6.06687 0.0399244 0
M  V30 9944 H 939.438 4.85915 0.416867 0
M  V30 9945 H 938.443 5.17139 -1.86675 0
M  V30 9946 H 939.668 6.41255 -2.23536 0
M  V30 9947 H 937.614 6.56 0.00380893 0
M  V30 9948 H 937.531 7.40867 -1.50505 0
M  V30 9949 H 938.799 7.78586 -0.377282 0
M  V30 9950 N 943.028 0.824394 1.34319 0
M  V30 9951 C 943.938 0.24932 2.33271 0
M  V30 9952 C 944.954 -0.617066 1.62691 0
M  V30 9953 O 946.13 -0.524616 1.94447 0
M  V30 9954 C 943.195 -0.578094 3.41846 0
M  V30 9955 C 942.256 0.310866 4.28173 0
M  V30 9956 C 941.489 -0.477153 5.31563 0
M  V30 9957 O 941.712 -1.71028 5.44156 0
M  V30 9958 O 940.646 0.141287 6.01734 0
M  V30 9959 H 944.472 1.06837 2.84288 0
M  V30 9960 H 942.057 0.58657 1.37403 0
M  V30 9961 H 943.939 -1.04878 4.0814 0
M  V30 9962 H 942.614 -1.37444 2.93071 0
M  V30 9963 H 941.521 0.829081 3.64797 0
M  V30 9964 H 942.854 1.07161 4.80393 0
M  V30 9965 N 944.506 -1.46559 0.579492 0
M  V30 9966 C 945.416 -2.34066 -0.15816 0
M  V30 9967 C 946.432 -1.49556 -0.88932 0
M  V30 9968 O 947.608 -1.82434 -0.853226 0
M  V30 9969 C 944.673 -3.26683 -1.161 0
M  V30 9970 C 943.734 -4.27092 -0.434855 0
M  V30 9971 C 942.967 -5.15283 -1.38992 0
M  V30 9972 O 943.19 -5.06345 -2.62623 0
M  V30 9973 O 942.124 -5.95099 -0.902253 0
M  V30 9974 H 945.95 -2.98488 0.560234 0
M  V30 9975 H 943.535 -1.45482 0.339918 0
M  V30 9976 H 945.417 -3.8383 -1.73932 0
M  V30 9977 H 944.092 -2.64862 -1.86091 0
M  V30 9978 H 942.999 -3.73641 0.185224 0
M  V30 9979 H 944.332 -4.9169 0.224031 0
M  V30 9980 N 945.984 -0.3171 -1.54377 0
M  V30 9981 C 946.894 0.560867 -2.27797 0
M  V30 9982 C 947.91 1.13473 -1.31908 0
M  V30 9983 O 949.086 1.15608 -1.64914 0
M  V30 9984 C 946.151 1.70886 -3.0166 0
M  V30 9985 C 945.212 1.16745 -4.13121 0
M  V30 9986 C 944.445 2.26073 -4.83453 0
M  V30 9987 O 944.668 3.46292 -4.53252 0
M  V30 9988 O 943.602 1.91856 -5.70504 0
M  V30 9989 H 947.428 -0.035193 -3.0368 0
M  V30 9990 H 945.013 -0.0830062 -1.49169 0
M  V30 9991 H 946.895 2.37736 -3.47936 0
M  V30 9992 H 945.57 2.29122 -2.28658 0
M  V30 9993 H 944.477 0.464224 -3.71209 0
M  V30 9994 H 945.81 0.630307 -4.88147 0
M  V30 9995 N 947.462 1.57535 -0.0451378 0
M  V30 9996 C 948.873 1.80116 0.491426 0
M  V30 9997 C 949.224 0.956846 1.71286 0
M  V30 9998 O 948.349 0.17173 2.15718 0
M  V30 9999 C 948.944 3.26674 0.898315 0
M  V30 10000 C 947.503 3.50194 1.37989 0
M  V30 10001 C 946.65 2.75054 0.352202 0
M  V30 10002 H 949.601 1.56368 -0.271065 0
M  V30 10003 H 949.622 3.37263 1.76164 0
M  V30 10004 H 949.134 3.88099 0.009141 0
M  V30 10005 H 947.235 2.94041 2.28846 0
M  V30 10006 H 947.348 4.58909 1.37622 0
M  V30 10007 H 945.712 2.4101 0.823784 0
M  V30 10008 H 946.495 3.39203 -0.528782 0
M  V30 10009 N 948.94 -0.228186 1.55939 0
M  V30 10010 C 950.165 -0.974795 1.83064 0
M  V30 10011 C 950.59 -1.77426 0.624624 0
M  V30 10012 O 949.948 -1.76211 -0.426556 0
M  V30 10013 C 949.996 -1.87342 3.08116 0
M  V30 10014 O 949.1 -2.96784 2.86344 0
M  V30 10015 H 948.441 -0.276379 0.603747 0
M  V30 10016 H 950.971 -0.243507 2.03146 0
M  V30 10017 H 950.981 -2.28451 3.38045 0
M  V30 10018 H 949.656 -1.28575 3.95526 0
M  V30 10019 H 948.233 -2.59669 2.67631 0
M  V30 10020 N 950.418 -1.49637 -0.494624 0
M  V30 10021 C 951.643 -1.63431 -1.27691 0
M  V30 10022 C 952.068 -0.30813 -1.85559 0
M  V30 10023 O 951.426 0.725083 -1.66169 0
M  V30 10024 C 951.474 -2.71043 -2.3784 0
M  V30 10025 O 950.578 -2.3066 -3.41862 0
M  V30 10026 H 949.919 -0.546804 -0.376698 0
M  V30 10027 H 952.449 -1.95866 -0.591413 0
M  V30 10028 H 952.459 -2.93406 -2.83508 0
M  V30 10029 H 951.134 -3.67306 -1.95088 0
M  V30 10030 H 949.711 -2.18652 -3.02069 0
M  V30 10031 N 951.896 0.746133 -1.38819 0
M  V30 10032 C 953.121 1.54049 -1.38866 0
M  V30 10033 C 953.546 1.88092 0.0176624 0
M  V30 10034 O 952.904 1.51113 1.00173 0
M  V30 10035 C 952.952 2.8116 -2.25791 0
M  V30 10036 O 952.056 3.76623 -1.68014 0
M  V30 10037 H 951.397 0.465648 -0.473359 0
M  V30 10038 H 953.927 0.921469 -1.82675 0
M  V30 10039 H 953.937 3.30009 -2.39913 0
M  V30 10040 H 952.612 2.55713 -3.27999 0
M  V30 10041 H 951.189 3.35352 -1.63074 0
M  V30 10042 N 953.375 1.23811 0.975125 0
M  V30 10043 C 954.6 1.10109 1.75757 0
M  V30 10044 C 955.025 -0.342922 1.84948 0
M  V30 10045 O 954.383 -1.24814 1.31496 0
M  V30 10046 C 954.431 1.73724 3.15994 0
M  V30 10047 O 953.535 1.00297 4.00018 0
M  V30 10048 H 952.876 0.385627 0.540544 0
M  V30 10049 H 955.406 1.63971 1.22372 0
M  V30 10050 H 955.416 1.79178 3.6655 0
M  V30 10051 H 954.091 2.78794 3.0862 0
M  V30 10052 H 952.668 1.02575 3.58515 0
M  V30 10053 N 954.853 -1.17469 1.05066 0
M  V30 10054 C 956.099 -1.87976 0.761113 0
M  V30 10055 C 956.432 -1.80756 -0.709995 0
M  V30 10056 O 955.707 -1.21469 -1.51906 0
M  V30 10057 C 955.99 -3.38055 1.2406 0
M  V30 10058 C 955.843 -3.54032 2.77455 0
M  V30 10059 C 957.162 -4.32036 0.838612 0
M  V30 10060 H 954.281 -0.682573 0.277963 0
M  V30 10061 H 956.923 -1.38147 1.30443 0
M  V30 10062 H 955.073 -3.80622 0.778388 0
M  V30 10063 H 956.745 -3.20489 3.3179 0
M  V30 10064 H 954.988 -2.96352 3.16793 0
M  V30 10065 H 955.659 -4.59377 3.06066 0
M  V30 10066 H 958.135 -3.97303 1.23651 0
M  V30 10067 H 957.011 -5.35583 1.20173 0
M  V30 10068 H 957.272 -4.41349 -0.257498 0
M  V30 10069 N 956.331 -0.831506 -1.3388 0
M  V30 10070 C 957.578 -0.423674 -1.98018 0
M  V30 10071 C 957.906 1.01533 -1.65895 0
M  V30 10072 O 957.161 1.72342 -0.927183 0
M  V30 10073 C 957.46 -0.582733 -3.52617 0
M  V30 10074 C 957.126 -1.98874 -4.04673 0
M  V30 10075 C 955.788 -2.37334 -4.186 0
M  V30 10076 C 958.14 -2.90745 -4.3257 0
M  V30 10077 C 955.468 -3.66984 -4.57755 0
M  V30 10078 C 957.82 -4.19868 -4.73174 0
M  V30 10079 C 956.484 -4.58294 -4.85307 0
M  V30 10080 H 955.754 -0.155033 -0.7246 0
M  V30 10081 H 958.401 -1.05711 -1.59679 0
M  V30 10082 H 956.706 0.134052 -3.91571 0
M  V30 10083 H 958.403 -0.247576 -4.00235 0
M  V30 10084 H 954.993 -1.68001 -3.94301 0
M  V30 10085 H 959.177 -2.62272 -4.2134 0
M  V30 10086 H 954.433 -3.9657 -4.65341 0
M  V30 10087 H 958.607 -4.91138 -4.93717 0
M  V30 10088 H 956.234 -5.58805 -5.15404 0
M  V30 10089 N 957.809 1.4625 -0.587256 0
M  V30 10090 C 958.757 2.32076 0.156108 0
M  V30 10091 C 959.751 1.44756 0.879887 0
M  V30 10092 O 960.957 1.61356 0.797759 0
M  V30 10093 H 957.332 0.748808 0.0692098 0
M  V30 10094 H 959.303 2.9258 -0.586497 0
M  V30 10095 C 958.052 3.28008 1.15352 0
M  V30 10096 H 957.375 3.9518 0.60601 0
M  V30 10097 H 958.815 3.90832 1.64396 0
M  V30 10098 C 957.274 2.53691 2.21681 0
M  V30 10099 O 957.804 2.30329 3.29107 0
M  V30 10100 N 956.01 2.14174 1.96412 0
M  V30 10101 H 955.557 2.33374 1.09061 0
M  V30 10102 H 955.515 1.6477 2.67765 0
M  V30 10103 N 959.287 0.325282 1.54207 0
M  V30 10104 C 960.219 -0.57395 2.21897 0
M  V30 10105 C 961.232 -1.0785 1.21952 0
M  V30 10106 O 962.421 -0.991782 1.48411 0
M  V30 10107 C 959.521 -1.8005 2.87115 0
M  V30 10108 C 958.694 -1.43435 4.13213 0
M  V30 10109 C 957.753 -2.51862 4.62009 0
M  V30 10110 O 956.779 -2.15934 5.26651 0
M  V30 10111 N 957.981 -3.8282 4.36382 0
M  V30 10112 H 960.746 0.00566918 2.99699 0
M  V30 10113 H 958.307 0.148563 1.61217 0
M  V30 10114 H 960.299 -2.51981 3.16682 0
M  V30 10115 H 958.869 -2.28792 2.13009 0
M  V30 10116 H 958.089 -0.546598 3.90392 0
M  V30 10117 H 959.377 -1.16544 4.95273 0
M  V30 10118 H 958.775 -4.14807 3.84645 0
M  V30 10119 H 957.332 -4.50976 4.70599 0
M  V30 10120 N 960.765 -1.57509 0.0534917 0
M  V30 10121 C 961.713 -2.12851 -0.937931 0
M  V30 10122 C 962.707 -1.06088 -1.32067 0
M  V30 10123 O 963.913 -1.24494 -1.30005 0
M  V30 10124 H 960.288 -0.680357 -0.320342 0
M  V30 10125 H 962.259 -2.95047 -0.446077 0
M  V30 10126 C 961.008 -2.69034 -2.20264 0
M  V30 10127 H 960.331 -3.50848 -1.91693 0
M  V30 10128 H 961.771 -3.11375 -2.87788 0
M  V30 10129 C 960.23 -1.62919 -2.94888 0
M  V30 10130 O 960.76 -1.04334 -3.87914 0
M  V30 10131 N 958.966 -1.34385 -2.57661 0
M  V30 10132 H 958.513 -1.82214 -1.82088 0
M  V30 10133 H 958.471 -0.636149 -3.07897 0
M  V30 10134 N 962.243 0.219913 -1.56058 0
M  V30 10135 C 963.52 0.968493 -1.6994 0
M  V30 10136 C 963.9 2.02358 -0.601219 0
M  V30 10137 O 963.248 2.25121 0.391534 0
M  V30 10138 C 963.458 1.57745 -3.11316 0
M  V30 10139 C 964.806 2.06908 -3.70775 0
M  V30 10140 O 965.83 1.67636 -3.14288 0
M  V30 10141 O 964.689 2.79096 -4.69859 0
M  V30 10142 H 961.783 0.452521 -0.692209 0
M  V30 10143 H 964.329 0.211566 -1.68376 0
M  V30 10144 H 963.101 0.815687 -3.82704 0
M  V30 10145 H 962.724 2.39987 -3.17005 0
M  V30 10146 N 963.721 1.49897 0.486681 0
M  V30 10147 C 965.132 1.53142 1.06792 0
M  V30 10148 C 965.483 0.325856 1.93475 0
M  V30 10149 O 964.608 -0.562893 2.08951 0
M  V30 10150 C 965.203 2.77514 1.94348 0
M  V30 10151 C 963.762 2.83491 2.47609 0
M  V30 10152 C 962.909 2.47239 1.2557 0
M  V30 10153 H 965.86 1.56387 0.269962 0
M  V30 10154 H 965.881 2.58487 2.79221 0
M  V30 10155 H 965.393 3.65239 1.31232 0
M  V30 10156 H 963.494 2.0008 3.14323 0
M  V30 10157 H 963.607 3.86011 2.83782 0
M  V30 10158 H 961.971 1.99332 1.58552 0
M  V30 10159 H 962.754 3.37255 0.641404 0
M  V30 10160 N 965.199 -0.738761 1.39212 0
M  V30 10161 C 966.445 -1.49942 1.37437 0
M  V30 10162 C 966.8 -1.92375 -0.0309496 0
M  V30 10163 O 966.093 -1.63635 -0.996706 0
M  V30 10164 C 966.287 -2.75435 2.2775 0
M  V30 10165 C 966.116 -2.45273 3.76924 0
M  V30 10166 C 964.886 -2.37755 4.45871 0
M  V30 10167 C 967.084 -2.11064 4.68995 0
M  V30 10168 N 965.066 -2.00023 5.804 0
M  V30 10169 C 966.437 -1.83746 5.92147 0
M  V30 10170 C 968.492 -1.975 4.57054 0
M  V30 10171 C 967.195 -1.4423 7.04692 0
M  V30 10172 C 969.221 -1.59388 5.69517 0
M  V30 10173 C 968.583 -1.32951 6.91739 0
M  V30 10174 H 964.682 -0.547671 0.558194 0
M  V30 10175 H 967.266 -0.858925 1.7473 0
M  V30 10176 H 965.437 -3.3727 1.92622 0
M  V30 10177 H 967.169 -3.41607 2.16995 0
M  V30 10178 H 963.924 -2.54725 3.99264 0
M  V30 10179 H 964.348 -1.83761 6.51583 0
M  V30 10180 H 968.99 -2.16609 3.63099 0
M  V30 10181 H 966.708 -1.23863 7.98551 0
M  V30 10182 H 970.294 -1.49504 5.62263 0
M  V30 10183 H 969.174 -1.039 7.77287 0
M  V30 10184 N 966.677 -1.24326 -0.968545 0
M  V30 10185 C 967.64 -1.03591 -2.04454 0
M  V30 10186 C 968.64 0.0064809 -1.60799 0
M  V30 10187 O 969.83 -0.234404 -1.72616 0
M  V30 10188 C 966.962 -0.56992 -3.36102 0
M  V30 10189 H 968.155 -1.99092 -2.24282 0
M  V30 10190 H 965.708 -1.06537 -1.14366 0
M  V30 10191 H 966.443 0.388325 -3.21967 0
M  V30 10192 H 966.228 -1.32227 -3.69132 0
M  V30 10193 H 967.718 -0.445854 -4.15213 0
M  V30 10194 N 968.156 1.1691 -1.05688 0
M  V30 10195 C 969.567 1.68915 -0.795273 0
M  V30 10196 C 969.918 1.83968 0.681925 0
M  V30 10197 O 969.043 1.53083 1.52953 0
M  V30 10198 C 969.638 3.06814 -1.43703 0
M  V30 10199 C 968.197 3.55965 -1.22335 0
M  V30 10200 C 967.344 2.32099 -1.51741 0
M  V30 10201 H 970.295 1.01357 -1.22116 0
M  V30 10202 H 970.316 3.70907 -0.849016 0
M  V30 10203 H 969.828 2.95826 -2.51214 0
M  V30 10204 H 967.929 3.72222 -0.16771 0
M  V30 10205 H 968.042 4.38427 -1.9318 0
M  V30 10206 H 966.406 2.36811 -0.937696 0
M  V30 10207 H 967.189 2.23715 -2.60397 0
M  V30 10208 N 969.634 0.838594 1.33437 0
M  V30 10209 C 970.862 0.447644 2.01999 0
M  V30 10210 C 971.277 -0.951053 1.63096 0
M  V30 10211 O 970.634 -1.61802 0.844169 0
M  V30 10212 C 970.685 0.558378 3.57162 0
M  V30 10213 O 970.406 1.90196 3.94661 0
M  V30 10214 C 971.907 0.164348 4.42995 0
M  V30 10215 H 969.127 0.177736 0.647032 0
M  V30 10216 H 971.671 1.13109 1.70372 0
M  V30 10217 H 969.826 -0.0771563 3.87323 0
M  V30 10218 H 970.24 1.88729 4.89369 0
M  V30 10219 H 971.714 0.292876 5.51222 0
M  V30 10220 H 972.191 -0.893713 4.30011 0
M  V30 10221 H 972.797 0.774306 4.18192 0
M  V30 10222 N 971.112 -1.45937 0.595003 0
M  V30 10223 C 972.358 -2.0262 0.0854317 0
M  V30 10224 C 972.691 -1.46402 -1.27594 0
M  V30 10225 O 971.966 -0.633823 -1.83883 0
M  V30 10226 C 972.249 -3.60085 0.0329075 0
M  V30 10227 C 972.102 -4.26663 1.42405 0
M  V30 10228 C 973.421 -4.35101 -0.661426 0
M  V30 10229 H 970.54 -0.736282 0.0325196 0
M  V30 10230 H 973.182 -1.73938 0.764563 0
M  V30 10231 H 971.332 -3.84652 -0.545439 0
M  V30 10232 H 973.004 -4.13321 2.04851 0
M  V30 10233 H 971.247 -3.85549 1.98833 0
M  V30 10234 H 971.918 -5.35497 1.33965 0
M  V30 10235 H 974.394 -4.15753 -0.169977 0
M  V30 10236 H 973.27 -5.44829 -0.667243 0
M  V30 10237 H 973.531 -4.07053 -1.72513 0
M  V30 10238 N 972.59 -0.333456 -1.54032 0
M  V30 10239 C 973.867 0.320902 -1.9295 0
M  V30 10240 C 974.247 1.69071 -1.26405 0
M  V30 10241 O 973.595 2.24768 -0.411311 0
M  V30 10242 C 973.805 0.403257 -3.46662 0
M  V30 10243 C 975.153 0.658875 -4.19457 0
M  V30 10244 O 976.177 0.485781 -3.52872 0
M  V30 10245 O 975.036 0.993475 -5.37394 0
M  V30 10246 H 972.13 0.185158 -0.806006 0
M  V30 10247 H 974.676 -0.383895 -1.65301 0
M  V30 10248 H 973.448 -0.558409 -3.87295 0
M  V30 10249 H 973.071 1.15524 -3.80447 0
M  V30 10250 N 974.068 1.57479 -0.061844 0
M  V30 10251 C 975.315 1.93108 0.60954 0
M  V30 10252 C 975.643 0.941086 1.70217 0
M  V30 10253 O 974.898 -0.044914 1.95648 0
M  V30 10254 C 975.197 3.35394 1.23474 0
M  V30 10255 C 974.863 4.50095 0.269247 0
M  V30 10256 C 973.525 4.812 0.00360316 0
M  V30 10257 C 975.877 5.19725 -0.391839 0
M  V30 10258 C 973.205 5.79276 -0.930383 0
M  V30 10259 C 975.557 6.18801 -1.31408 0
M  V30 10260 C 974.221 6.48328 -1.58829 0
M  V30 10261 H 973.491 0.706634 0.223046 0
M  V30 10262 H 976.138 1.91054 -0.1306 0
M  V30 10263 H 974.443 3.33866 2.05039 0
M  V30 10264 H 976.14 3.60247 1.76134 0
M  V30 10265 H 972.73 4.2583 0.486477 0
M  V30 10266 H 976.914 4.95898 -0.199713 0
M  V30 10267 H 972.17 6.00484 -1.15019 0
M  V30 10268 H 976.344 6.71862 -1.83234 0
M  V30 10269 H 973.971 7.24137 -2.31363 0
M  V30 10270 N 975.546 -0.211634 1.56173 0
M  V30 10271 C 976.771 -0.955324 1.84088 0
M  V30 10272 C 977.196 -1.76754 0.643407 0
M  V30 10273 O 976.554 -1.76653 -0.407842 0
M  V30 10274 C 976.602 -1.84063 3.10085 0
M  V30 10275 O 975.706 -2.9373 2.89476 0
M  V30 10276 H 975.047 -0.26996 0.606645 0
M  V30 10277 H 977.577 -0.221947 2.03393 0
M  V30 10278 H 977.587 -2.24852 3.40449 0
M  V30 10279 H 976.262 -1.24373 3.96868 0
M  V30 10280 H 974.839 -2.56816 2.7037 0
M  V30 10281 N 977.024 -1.50153 -0.478725 0
M  V30 10282 C 978.301 -1.51274 -1.23999 0
M  V30 10283 C 978.681 -0.253048 -2.09578 0
M  V30 10284 O 978.029 0.763827 -2.15355 0
M  V30 10285 C 978.239 -2.80423 -2.07759 0
M  V30 10286 C 979.587 -3.30788 -2.66204 0
M  V30 10287 O 980.611 -2.81693 -2.18008 0
M  V30 10288 O 979.47 -4.1635 -3.53999 0
M  V30 10289 H 976.564 -0.606438 -0.562283 0
M  V30 10290 H 979.11 -1.62436 -0.491171 0
M  V30 10291 H 977.882 -3.63584 -1.44645 0
M  V30 10292 H 977.505 -2.72228 -2.89789 0
M  V30 10293 N 978.502 0.731368 -1.39602 0
M  V30 10294 C 979.749 1.491 -1.37024 0
M  V30 10295 C 980.077 1.94473 0.0326423 0
M  V30 10296 O 979.332 1.6737 1.01418 0
M  V30 10297 C 979.631 2.74224 -2.29208 0
M  V30 10298 C 979.297 2.477 -3.7677 0
M  V30 10299 C 977.959 2.40175 -4.16976 0
M  V30 10300 C 980.311 2.25098 -4.70086 0
M  V30 10301 C 977.639 2.08095 -5.48556 0
M  V30 10302 C 979.991 1.94534 -6.01946 0
M  V30 10303 C 978.655 1.85481 -6.41212 0
M  V30 10304 H 977.925 0.545595 -0.501405 0
M  V30 10305 H 980.572 0.839127 -1.72136 0
M  V30 10306 H 978.877 3.44171 -1.87225 0
M  V30 10307 H 980.574 3.32264 -2.24504 0
M  V30 10308 H 977.164 2.54436 -3.44906 0
M  V30 10309 H 981.348 2.29876 -4.39853 0
M  V30 10310 H 976.604 1.99611 -5.77897 0
M  V30 10311 H 980.778 1.76054 -6.73779 0
M  V30 10312 H 978.405 1.60389 -7.43088 0
M  V30 10313 N 979.98 1.24838 0.961938 0
M  V30 10314 C 981.229 1.0855 1.69999 0
M  V30 10315 C 981.542 -0.374645 1.91979 0
M  V30 10316 O 982.748 -0.657822 2.6341 0
M  V30 10317 C 981.204 1.89424 3.06017 0
M  V30 10318 C 980.812 3.39885 2.9186 0
M  V30 10319 C 982.556 1.81684 3.83655 0
M  V30 10320 C 980.463 4.13082 4.23223 0
M  V30 10321 H 979.393 0.402603 0.637516 0
M  V30 10322 H 982.044 1.4897 1.07146 0
M  V30 10323 H 980.426 1.41823 3.69733 0
M  V30 10324 H 981.6 3.95108 2.37121 0
M  V30 10325 H 979.915 3.4864 2.27683 0
M  V30 10326 H 982.512 2.3367 4.80939 0
M  V30 10327 H 982.855 0.783247 4.08865 0
M  V30 10328 H 983.388 2.26997 3.26676 0
M  V30 10329 H 980.127 5.16824 4.03204 0
M  V30 10330 H 979.647 3.62644 4.77755 0
M  V30 10331 H 981.326 4.20397 4.91808 0
M  V30 10332 N 981.458 -1.16348 1.06306 0
M  V30 10333 C 982.406 -2.22799 0.668087 0
M  V30 10334 C 983.4 -1.66426 -0.316051 0
M  V30 10335 O 984.606 -1.79089 -0.180902 0
M  V30 10336 H 980.981 -0.725487 0.19792 0
M  V30 10337 H 982.952 -2.53401 1.57577 0
M  V30 10338 C 981.701 -3.47628 0.0706797 0
M  V30 10339 H 981.024 -3.9132 0.819064 0
M  V30 10340 H 982.464 -4.23666 -0.16816 0
M  V30 10341 C 980.923 -3.15343 -1.18577 0
M  V30 10342 O 981.453 -3.31158 -2.27371 0
M  V30 10343 N 979.659 -2.69472 -1.08779 0
M  V30 10344 H 979.206 -2.56803 -0.202447 0
M  V30 10345 H 979.164 -2.48244 -1.92931 0
M  V30 10346 N 982.937 -0.845659 -1.3299 0
M  V30 10347 C 983.885 -0.272412 -2.30999 0
M  V30 10348 C 984.879 0.599311 -1.58444 0
M  V30 10349 O 986.085 0.488117 -1.73255 0
M  V30 10350 H 982.46 -0.0693751 -0.748793 0
M  V30 10351 H 984.431 -1.11343 -2.76849 0
M  V30 10352 C 983.18 0.532019 -3.43606 0
M  V30 10353 H 982.503 -0.129455 -3.9959 0
M  V30 10354 H 983.943 0.898853 -4.14363 0
M  V30 10355 C 982.402 1.71364 -2.90062 0
M  V30 10356 O 982.932 2.81252 -2.8681 0
M  V30 10357 N 981.138 1.53775 -2.4658 0
M  V30 10358 H 980.685 0.643836 -2.49424 0
M  V30 10359 H 980.643 2.32982 -2.11108 0
M  V30 10360 N 984.415 1.45619 -0.602734 0
M  V30 10361 C 985.325 2.34288 0.120902 0
M  V30 10362 C 986.341 1.50952 0.865414 0
M  V30 10363 O 987.517 1.83768 0.824094 0
M  V30 10364 C 984.582 3.28489 1.10888 0
M  V30 10365 C 983.643 4.2773 0.366853 0
M  V30 10366 C 982.876 5.17429 1.30776 0
M  V30 10367 O 983.099 5.10459 2.54535 0
M  V30 10368 O 982.033 5.96459 0.807464 0
M  V30 10369 H 985.859 2.97559 -0.60765 0
M  V30 10370 H 983.444 1.44922 -0.363019 0
M  V30 10371 H 985.326 3.86549 1.67803 0
M  V30 10372 H 984.001 2.67789 1.81854 0
M  V30 10373 H 982.908 3.73299 -0.244643 0
M  V30 10374 H 984.241 4.91271 -0.302226 0
M  V30 10375 N 985.893 0.34162 1.53853 0
M  V30 10376 C 987.121 -0.256929 2.05299 0
M  V30 10377 C 987.536 -1.44366 1.21671 0
M  V30 10378 O 986.893 -1.80758 0.251584 0
M  V30 10379 C 986.944 -0.673854 3.55164 0
M  V30 10380 O 986.665 0.465687 4.35618 0
M  V30 10381 C 988.166 -1.33332 4.22773 0
M  V30 10382 H 985.386 -0.0499445 0.669139 0
M  V30 10383 H 987.93 0.493048 1.98467 0
M  V30 10384 H 986.085 -1.37378 3.62224 0
M  V30 10385 H 986.499 0.133723 5.2433 0
M  V30 10386 H 987.973 -1.57582 5.29029 0
M  V30 10387 H 988.45 -2.28628 3.75001 0
M  V30 10388 H 989.056 -0.675489 4.19901 0
M  V30 10389 N 987.371 -1.57444 0.0701946 0
M  V30 10390 C 988.62 -1.92605 -0.598849 0
M  V30 10391 C 988.933 -0.952058 -1.70866 0
M  V30 10392 O 990.139 -1.19643 -2.43716 0
M  V30 10393 C 988.595 -3.42142 -1.11655 0
M  V30 10394 C 988.203 -4.47984 -0.0378355 0
M  V30 10395 C 989.947 -3.86307 -1.75975 0
M  V30 10396 C 987.854 -5.88652 -0.569495 0
M  V30 10397 H 986.784 -0.718873 -0.22746 0
M  V30 10398 H 989.435 -1.82948 0.14217 0
M  V30 10399 H 987.817 -3.46866 -1.91049 0
M  V30 10400 H 988.991 -4.54874 0.736661 0
M  V30 10401 H 987.306 -4.13277 0.50904 0
M  V30 10402 H 989.903 -4.88784 -2.16782 0
M  V30 10403 H 990.246 -3.23587 -2.61911 0
M  V30 10404 H 990.779 -3.84179 -1.03206 0
M  V30 10405 H 987.518 -6.55013 0.252662 0
M  V30 10406 H 987.038 -5.85285 -1.31155 0
M  V30 10407 H 988.717 -6.38482 -1.04641 0
M  V30 10408 N 988.849 0.203349 -1.56283 0
M  V30 10409 C 989.812 1.23566 -1.93039 0
M  V30 10410 C 990.812 1.38869 -0.810687 0
M  V30 10411 O 992.002 1.36822 -1.07821 0
M  V30 10412 C 989.134 2.60645 -2.1972 0
M  V30 10413 H 990.327 0.921692 -2.85385 0
M  V30 10414 H 987.88 0.44453 -1.49845 0
M  V30 10415 H 988.615 2.9711 -1.29985 0
M  V30 10416 H 988.4 2.50911 -3.01307 0
M  V30 10417 H 989.89 3.35103 -2.4919 0
M  V30 10418 N 990.327 1.50405 0.470755 0
M  V30 10419 C 991.575 1.61092 1.2204 0
M  V30 10420 C 991.896 0.313487 1.92464 0
M  V30 10421 O 991.166 -0.669043 1.84121 0
M  V30 10422 H 989.746 0.593618 0.45346 0
M  V30 10423 H 992.408 1.87184 0.542985 0
M  V30 10424 H 991.504 2.42222 1.96812 0
M  V30 10425 N 991.805 -0.723954 1.39988 0
M  V30 10426 C 992.752 -1.83803 1.39589 0
M  V30 10427 C 993.722 -1.64146 0.253996 0
M  V30 10428 O 994.907 -1.85398 0.450793 0
M  V30 10429 C 992.047 -3.21431 1.25604 0
M  V30 10430 C 991.16 -3.52717 2.49429 0
M  V30 10431 C 990.295 -4.79805 2.27949 0
M  V30 10432 C 989.334 -5.03968 3.47394 0
M  V30 10433 N 988.471 -6.22266 3.25161 0
M  V30 10434 H 993.311 -1.83479 2.34818 0
M  V30 10435 H 990.848 -0.896396 1.16633 0
M  V30 10436 H 992.806 -4.00892 1.15504 0
M  V30 10437 H 991.436 -3.21005 0.339986 0
M  V30 10438 H 990.488 -2.67872 2.7009 0
M  V30 10439 H 991.8 -3.66486 3.38363 0
M  V30 10440 H 990.954 -5.67268 2.15155 0
M  V30 10441 H 989.693 -4.68229 1.36428 0
M  V30 10442 H 988.698 -4.14963 3.60674 0
M  V30 10443 H 989.923 -5.17422 4.39831 0
M  V30 10444 H 987.869 -6.11957 2.36314 0
M  V30 10445 H 987.786 -6.36673 4.07656 0
M  V30 10446 H 989.054 -7.12539 3.16083 0
M  V30 10447 N 993.283 -1.25346 -0.955304 0
M  V30 10448 C 994.56 -1.00829 -1.67609 0
M  V30 10449 C 994.94 0.465675 -2.059 0
M  V30 10450 O 994.288 1.44287 -1.77182 0
M  V30 10451 C 994.498 -1.94337 -2.89886 0
M  V30 10452 C 995.846 -2.22142 -3.61854 0
M  V30 10453 O 996.87 -1.9209 -2.99967 0
M  V30 10454 O 995.729 -2.73239 -4.73289 0
M  V30 10455 H 992.823 -0.382314 -0.733325 0
M  V30 10456 H 995.369 -1.36498 -1.00829 0
M  V30 10457 H 994.141 -2.93867 -2.58376 0
M  V30 10458 H 993.764 -1.59062 -3.64397 0
M  V30 10459 N 994.761 1.15782 -1.06922 0
M  V30 10460 C 995.691 2.22538 -0.707045 0
M  V30 10461 C 996.672 1.67371 0.303471 0
M  V30 10462 O 997.857 1.9339 0.177189 0
M  V30 10463 C 994.987 3.47158 -0.0994269 0
M  V30 10464 C 993.941 4.15257 -1.03661 0
M  V30 10465 C 993.267 5.33902 -0.291974 0
M  V30 10466 C 994.567 4.65516 -2.36837 0
M  V30 10467 H 996.261 2.53089 -1.59958 0
M  V30 10468 H 993.807 1.21649 -0.770552 0
M  V30 10469 H 995.76 4.21073 0.165852 0
M  V30 10470 H 994.484 3.15926 0.828155 0
M  V30 10471 H 993.143 3.43276 -1.28674 0
M  V30 10472 H 992.791 4.98926 0.638928 0
M  V30 10473 H 992.491 5.80407 -0.916613 0
M  V30 10474 H 994.015 6.1059 -0.0343915 0
M  V30 10475 H 995.429 5.30981 -2.16175 0
M  V30 10476 H 993.826 5.22666 -2.94856 0
M  V30 10477 H 994.896 3.81387 -2.99453 0
M  V30 10478 N 996.239 0.8527 1.3254 0
M  V30 10479 C 997.485 0.455798 1.97612 0
M  V30 10480 C 997.818 -0.985616 1.6733 0
M  V30 10481 O 997.093 -1.69129 0.960493 0
M  V30 10482 C 997.376 0.69312 3.53366 0
M  V30 10483 C 997.229 2.18281 3.93285 0
M  V30 10484 C 998.548 0.148236 4.3985 0
M  V30 10485 H 995.667 0.167078 0.717812 0
M  V30 10486 H 998.309 1.07076 1.56954 0
M  V30 10487 H 996.459 0.169677 3.88129 0
M  V30 10488 H 998.131 2.77218 3.68711 0
M  V30 10489 H 996.374 2.66206 3.42515 0
M  V30 10490 H 997.045 2.29957 5.01821 0
M  V30 10491 H 999.521 0.595834 4.11812 0
M  V30 10492 H 998.397 0.343873 5.47822 0
M  V30 10493 H 998.658 -0.948872 4.31797 0
M  V30 10494 N 997.718 -1.45297 0.610449 0
M  V30 10495 C 998.681 -2.28995 -0.0968194 0
M  V30 10496 C 999.681 -1.39923 -0.792353 0
M  V30 10497 O 1000.87 -1.62014 -0.64008 0
M  V30 10498 C 998.003 -3.21013 -1.14731 0
M  V30 10499 H 999.196 -2.93012 0.639082 0
M  V30 10500 H 996.749 -1.51867 0.369624 0
M  V30 10501 H 997.484 -2.61803 -1.91388 0
M  V30 10502 H 997.269 -3.86628 -0.652753 0
M  V30 10503 H 998.759 -3.8394 -1.64256 0
M  V30 10504 N 999.196 -0.349774 -1.5367 0
M  V30 10505 C 1000.44 0.237837 -2.02005 0
M  V30 10506 C 1000.8 1.477 -1.23298 0
M  V30 10507 O 1000.09 1.8901 -0.313947 0
M  V30 10508 C 1000.28 0.598311 -3.52356 0
M  V30 10509 C 1000.11 -0.604368 -4.4562 0
M  V30 10510 C 998.883 -1.1116 -4.92922 0
M  V30 10511 C 1001.08 -1.46474 -4.93001 0
M  V30 10512 N 999.063 -2.27595 -5.70152 0
M  V30 10513 C 1000.43 -2.47593 -5.68417 0
M  V30 10514 C 1002.49 -1.48947 -4.75099 0
M  V30 10515 C 1001.19 -3.51021 -6.27835 0
M  V30 10516 C 1003.22 -2.51259 -5.35372 0
M  V30 10517 C 1002.58 -3.51103 -6.1066 0
M  V30 10518 H 998.679 0.0501688 -0.780389 0
M  V30 10519 H 1001.26 -0.490748 -1.88414 0
M  V30 10520 H 999.434 1.29599 -3.6614 0
M  V30 10521 H 1001.17 1.16965 -3.87429 0
M  V30 10522 H 997.921 -0.678699 -4.68712 0
M  V30 10523 H 998.345 -2.864 -6.13436 0
M  V30 10524 H 1002.99 -0.731138 -4.1643 0
M  V30 10525 H 1000.7 -4.27745 -6.85609 0
M  V30 10526 H 1004.29 -2.54006 -5.23423 0
M  V30 10527 H 1003.17 -4.28974 -6.56469 0
M  V30 10528 N 1000.67 1.57404 -0.0785433 0
M  V30 10529 C 1001.92 1.94031 0.589896 0
M  V30 10530 C 1002.25 0.959297 1.68852 0
M  V30 10531 O 1001.53 -0.0103978 1.94497 0
M  V30 10532 C 1001.81 3.40886 1.16055 0
M  V30 10533 C 1001.66 4.49748 0.0681072 0
M  V30 10534 C 1002.98 3.88699 2.06401 0
M  V30 10535 H 1000.1 0.70556 0.212965 0
M  V30 10536 H 1002.74 1.89439 -0.145886 0
M  V30 10537 H 1000.89 3.4493 1.78761 0
M  V30 10538 H 1002.57 4.57823 -0.565318 0
M  V30 10539 H 1000.81 4.29625 -0.600431 0
M  V30 10540 H 1001.48 5.49658 0.507906 0
M  V30 10541 H 1003.96 3.86703 1.53622 0
M  V30 10542 H 1002.83 4.92052 2.43261 0
M  V30 10543 H 1003.09 3.2703 2.97496 0
M  V30 10544 N 1002.15 -0.195058 1.56388 0
M  V30 10545 C 1003.38 -0.931642 1.84738 0
M  V30 10546 C 1003.79 -1.76849 0.661046 0
M  V30 10547 O 1003.15 -1.78705 -0.370241 0
M  V30 10548 C 1003.2 -1.82777 3.11889 0
M  V30 10549 O 1002.92 -1.02471 4.25948 0
M  V30 10550 C 1004.42 -2.67603 3.53417 0
M  V30 10551 H 1001.64 -0.271821 0.613477 0
M  V30 10552 H 1004.19 -0.202299 2.03497 0
M  V30 10553 H 1002.34 -2.51074 2.95027 0
M  V30 10554 H 1002.76 -1.63539 4.98353 0
M  V30 10555 H 1004.23 -3.26138 4.45352 0
M  V30 10556 H 1004.71 -3.41314 2.76408 0
M  V30 10557 H 1005.31 -2.04678 3.7281 0
M  V30 10558 N 1003.63 -1.50653 -0.462772 0
M  V30 10559 C 1004.59 -1.69561 -1.54213 0
M  V30 10560 C 1005.59 -0.566106 -1.50505 0
M  V30 10561 O 1006.78 -0.833273 -1.52978 0
M  V30 10562 C 1003.91 -1.72856 -2.93826 0
M  V30 10563 H 1005.11 -2.65867 -1.38761 0
M  V30 10564 H 1002.66 -1.40259 -0.689728 0
M  V30 10565 H 1003.4 -0.78273 -3.14712 0
M  V30 10566 H 1003.18 -2.54919 -2.97924 0
M  V30 10567 H 1004.67 -1.89411 -3.72174 0
M  V30 10568 N 1005.11 0.71652 -1.4037 0
M  V30 10569 C 1006.36 1.47347 -1.38324 0
M  V30 10570 C 1006.68 1.94995 0.0139949 0
M  V30 10571 O 1005.95 1.7028 0.968585 0
M  V30 10572 H 1004.53 0.546662 -0.509087 0
M  V30 10573 H 1007.19 0.849455 -1.75415 0
M  V30 10574 H 1006.29 2.34675 -2.05752 0
M  V30 10575 N 1006.59 1.25851 0.948643 0
M  V30 10576 C 1007.83 1.10954 1.69397 0
M  V30 10577 C 1008.16 -0.348443 1.91353 0
M  V30 10578 O 1007.42 -1.27285 1.48651 0
M  V30 10579 C 1007.72 1.81565 3.07846 0
M  V30 10580 C 1007.38 3.31477 3.0567 0
M  V30 10581 C 1006.04 3.72371 3.04784 0
M  V30 10582 C 1008.4 4.27225 2.98543 0
M  V30 10583 C 1005.72 5.07416 2.94527 0
M  V30 10584 C 1008.08 5.62301 2.89828 0
M  V30 10585 C 1006.74 6.02516 2.87281 0
M  V30 10586 H 1006.01 0.406011 0.619868 0
M  V30 10587 H 1008.66 1.562 1.10787 0
M  V30 10588 H 1006.96 1.28767 3.70035 0
M  V30 10589 H 1008.66 1.67486 3.64348 0
M  V30 10590 H 1005.25 2.98941 3.07135 0
M  V30 10591 H 1009.43 3.96618 2.98342 0
M  V30 10592 H 1004.69 5.37746 2.90928 0
M  V30 10593 H 1008.86 6.36182 2.83276 0
M  V30 10594 H 1006.49 7.07116 2.79089 0
M  V30 10595 N 1008.06 -1.15214 1.07534 0
M  V30 10596 C 1008.99 -2.2216 0.718837 0
M  V30 10597 C 1009.98 -1.6753 -0.29459 0
M  V30 10598 O 1011.16 -1.93481 -0.166931 0
M  V30 10599 C 1008.29 -3.471 0.117836 0
M  V30 10600 C 1007.24 -4.14701 1.05862 0
M  V30 10601 C 1006.57 -5.3374 0.320284 0
M  V30 10602 C 1007.87 -4.64254 2.39302 0
M  V30 10603 H 1009.56 -2.52237 1.61297 0
M  V30 10604 H 1007.11 -1.21239 0.776992 0
M  V30 10605 H 1009.06 -4.21156 -0.143519 0
M  V30 10606 H 1007.79 -3.16361 -0.811389 0
M  V30 10607 H 1006.45 -3.42589 1.30493 0
M  V30 10608 H 1006.09 -4.99257 -0.61246 0
M  V30 10609 H 1005.79 -5.79912 0.947381 0
M  V30 10610 H 1007.32 -6.10563 0.0667721 0
M  V30 10611 H 1008.73 -5.29827 2.18988 0
M  V30 10612 H 1007.13 -5.21095 2.97623 0
M  V30 10613 H 1008.2 -3.79793 3.01472 0
M  V30 10614 N 1009.54 -0.859717 -1.32086 0
M  V30 10615 C 1010.49 -0.279715 -2.26278 0
M  V30 10616 C 1011.48 0.577348 -1.50185 0
M  V30 10617 O 1012.67 0.425903 -1.71799 0
M  V30 10618 C 1009.8 0.526622 -3.39237 0
M  V30 10619 C 1008.88 -0.343112 -4.2271 0
M  V30 10620 N 1009.27 -1.43176 -4.85113 0
M  V30 10621 C 1007.57 -0.133744 -4.45799 0
M  V30 10622 C 1008.27 -1.96725 -5.47425 0
M  V30 10623 N 1007.25 -1.26569 -5.2866 0
M  V30 10624 H 1011.05 -1.11191 -2.72055 0
M  V30 10625 H 1008.57 -0.706372 -1.46233 0
M  V30 10626 H 1010.56 0.958587 -4.0573 0
M  V30 10627 H 1009.22 1.35655 -2.95005 0
M  V30 10628 H 1010.23 -1.81469 -4.85066 0
M  V30 10629 H 1006.91 0.661064 -4.12233 0
M  V30 10630 H 1008.3 -2.88006 -6.07044 0
M  V30 10631 N 1011.02 1.44971 -0.618145 0
M  V30 10632 C 1012.27 2.01372 -0.115004 0
M  V30 10633 C 1012.58 1.49104 1.26599 0
M  V30 10634 O 1013.79 1.97549 1.86244 0
M  V30 10635 C 1012.24 3.59567 -0.154883 0
M  V30 10636 C 1011.85 4.20832 -1.53639 0
M  V30 10637 C 1013.6 4.23491 0.292468 0
M  V30 10638 C 1011.5 5.7121 -1.53208 0
M  V30 10639 H 1010.43 0.752979 -0.0392267 0
M  V30 10640 H 1013.08 1.66329 -0.775032 0
M  V30 10641 H 1011.47 3.91847 0.572001 0
M  V30 10642 H 1012.64 4.00109 -2.28582 0
M  V30 10643 H 1010.96 3.69143 -1.92672 0
M  V30 10644 H 1013.55 5.33771 0.315032 0
M  V30 10645 H 1013.9 3.9491 1.31725 0
M  V30 10646 H 1014.43 3.95967 -0.381493 0
M  V30 10647 H 1011.17 6.04506 -2.53481 0
M  V30 10648 H 1010.69 5.94094 -0.825387 0
M  V30 10649 H 1012.37 6.34606 -1.26032 0
M  V30 10650 N 1012.5 0.357919 1.53482 0
M  V30 10651 C 1013.91 -0.122938 1.86295 0
M  V30 10652 C 1014.26 -1.48803 1.27875 0
M  V30 10653 O 1013.39 -2.07978 0.597828 0
M  V30 10654 C 1013.98 -0.229853 3.38019 0
M  V30 10655 C 1012.54 -0.654955 3.70658 0
M  V30 10656 C 1011.69 0.202539 2.76559 0
M  V30 10657 H 1014.64 0.576997 1.47839 0
M  V30 10658 H 1014.66 -1.05481 3.65587 0
M  V30 10659 H 1014.17 0.763825 3.80509 0
M  V30 10660 H 1012.27 -1.65714 3.33721 0
M  V30 10661 H 1012.38 -0.43488 4.77122 0
M  V30 10662 H 1010.75 -0.327388 2.52587 0
M  V30 10663 H 1011.53 1.19361 3.21882 0
M  V30 10664 N 1013.98 -1.5736 0.0868897 0
M  V30 10665 C 1014.93 -2.10105 -0.885435 0
M  V30 10666 C 1015.91 -1.01417 -1.24913 0
M  V30 10667 O 1017.1 -1.27704 -1.22558 0
M  V30 10668 C 1014.23 -2.67837 -2.14752 0
M  V30 10669 C 1013.32 -3.83553 -1.80963 0
M  V30 10670 N 1013.71 -4.91917 -1.17693 0
M  V30 10671 C 1012.01 -3.93134 -2.10622 0
M  V30 10672 C 1012.71 -5.72628 -1.02332 0
M  V30 10673 N 1011.68 -5.2139 -1.53796 0
M  V30 10674 H 1015.49 -2.91272 -0.392179 0
M  V30 10675 H 1013 -1.61981 -0.116566 0
M  V30 10676 H 1015 -3.03948 -2.85344 0
M  V30 10677 H 1013.66 -1.88122 -2.64651 0
M  V30 10678 H 1014.67 -5.10964 -0.844731 0
M  V30 10679 H 1011.34 -3.24416 -2.62793 0
M  V30 10680 H 1012.73 -6.69813 -0.529171 0
M  V30 10681 N 1015.45 0.186762 -1.56489 0
M  V30 10682 C 1016.42 1.21511 -1.94339 0
M  V30 10683 C 1017.42 1.38001 -0.82537 0
M  V30 10684 O 1018.61 1.3567 -1.09266 0
M  V30 10685 C 1015.74 2.583 -2.22472 0
M  V30 10686 H 1016.93 0.891371 -2.86347 0
M  V30 10687 H 1014.49 0.428612 -1.50308 0
M  V30 10688 H 1015.22 2.95715 -1.33129 0
M  V30 10689 H 1015.01 2.47701 -3.03951 0
M  V30 10690 H 1016.5 3.32441 -2.5273 0
M  V30 10691 N 1016.93 1.50896 0.454776 0
M  V30 10692 C 1017.84 1.73762 1.5762 0
M  V30 10693 C 1018.86 0.621206 1.62533 0
M  V30 10694 O 1020.03 0.901449 1.801 0
M  V30 10695 C 1017.1 1.84183 2.9373 0
M  V30 10696 C 1016.16 3.07982 2.99075 0
M  V30 10697 C 1015.39 3.17896 4.28693 0
M  V30 10698 O 1015.62 2.34184 5.20109 0
M  V30 10699 O 1014.55 4.10749 4.39964 0
M  V30 10700 H 1018.38 2.68856 1.41245 0
M  V30 10701 H 1015.96 1.35187 0.635984 0
M  V30 10702 H 1017.84 1.93123 3.74542 0
M  V30 10703 H 1016.52 0.922742 3.10269 0
M  V30 10704 H 1015.43 3.04531 2.17282 0
M  V30 10705 H 1016.76 3.99523 2.87476 0
M  V30 10706 N 1018.41 -0.709066 1.40748 0
M  V30 10707 C 1019.69 -1.4626 1.29874 0
M  V30 10708 C 1020.07 -2.10949 -0.0799322 0
M  V30 10709 O 1019.42 -2.00651 -1.09323 0
M  V30 10710 C 1019.63 -2.49302 2.44232 0
M  V30 10711 C 1020.97 -3.14945 2.84771 0
M  V30 10712 O 1022 -2.59623 2.43873 0
M  V30 10713 O 1020.86 -4.15111 3.5545 0
M  V30 10714 H 1017.95 -0.650716 0.51039 0
M  V30 10715 H 1020.5 -0.740687 1.52682 0
M  V30 10716 H 1019.27 -2.00063 3.36289 0
M  V30 10717 H 1018.89 -3.29021 2.23229 0
M  V30 10718 N 1019.89 -1.26353 -0.941956 0
M  V30 10719 C 1021.14 -1.11241 -1.68251 0
M  V30 10720 C 1021.45 0.344055 -1.9255 0
M  V30 10721 O 1022.66 0.615832 -2.64423 0
M  V30 10722 C 1021.11 -1.94269 -3.02965 0
M  V30 10723 C 1020.72 -3.44485 -2.86415 0
M  V30 10724 C 1022.47 -1.87764 -3.80716 0
M  V30 10725 C 1020.37 -4.19763 -4.16597 0
M  V30 10726 H 1019.3 -0.412694 -0.63103 0
M  V30 10727 H 1021.95 -1.50656 -1.04762 0
M  V30 10728 H 1020.34 -1.47687 -3.6743 0
M  V30 10729 H 1021.51 -3.9883 -2.30805 0
M  V30 10730 H 1019.82 -3.52218 -2.22107 0
M  V30 10731 H 1022.42 -2.41292 -4.77161 0
M  V30 10732 H 1022.76 -0.848195 -4.07568 0
M  V30 10733 H 1023.3 -2.32165 -3.23024 0
M  V30 10734 H 1020.04 -5.23173 -3.9493 0
M  V30 10735 H 1019.56 -3.70198 -4.71925 0
M  V30 10736 H 1021.24 -4.28168 -4.85058 0
M  V30 10737 N 1021.37 1.14642 -1.08144 0
M  V30 10738 C 1022.78 1.6719 -0.830923 0
M  V30 10739 C 1023.13 1.85373 0.642749 0
M  V30 10740 O 1022.25 1.56293 1.49671 0
M  V30 10741 C 1022.85 3.03697 -1.50179 0
M  V30 10742 C 1021.41 3.5329 -1.29858 0
M  V30 10743 C 1020.56 2.28828 -1.5663 0
M  V30 10744 H 1023.51 0.987441 -1.24239 0
M  V30 10745 H 1023.53 3.69023 -0.9275 0
M  V30 10746 H 1023.04 2.90431 -2.57432 0
M  V30 10747 H 1021.14 3.71783 -0.246626 0
M  V30 10748 H 1021.25 4.34231 -2.02436 0
M  V30 10749 H 1019.62 2.34769 -0.987716 0
M  V30 10750 H 1020.4 2.18141 -2.65084 0
M  V30 10751 N 1022.85 0.866709 1.31628 0
M  V30 10752 C 1023.79 0.309128 2.30537 0
M  V30 10753 C 1024.79 -0.574028 1.59378 0
M  V30 10754 O 1025.99 -0.460491 1.7401 0
M  V30 10755 H 1022.37 0.081279 0.747595 0
M  V30 10756 H 1024.34 1.15734 2.75042 0
M  V30 10757 C 1023.09 -0.477287 3.44409 0
M  V30 10758 H 1022.41 0.19301 3.99334 0
M  V30 10759 H 1023.85 -0.832818 4.1574 0
M  V30 10760 C 1022.31 -1.66727 2.92752 0
M  V30 10761 O 1022.84 -2.76654 2.91248 0
M  V30 10762 N 1021.05 -1.49833 2.48995 0
M  V30 10763 H 1020.59 -0.604073 2.50417 0
M  V30 10764 H 1020.55 -2.29594 2.14788 0
M  V30 10765 N 1024.32 -1.44642 0.625825 0
M  V30 10766 C 1025.55 -2.06458 0.135116 0
M  V30 10767 C 1025.97 -1.46729 -1.18811 0
M  V30 10768 O 1025.32 -0.58818 -1.72762 0
M  V30 10769 C 1025.37 -3.61499 0.00850114 0
M  V30 10770 O 1025.1 -4.19002 1.2794 0
M  V30 10771 C 1026.6 -4.40339 -0.511527 0
M  V30 10772 H 1023.82 -0.666541 0.0772294 0
M  V30 10773 H 1026.36 -1.85597 0.858726 0
M  V30 10774 H 1024.52 -3.81641 -0.665522 0
M  V30 10775 H 1024.93 -5.12385 1.12081 0
M  V30 10776 H 1026.4 -5.49262 -0.549149 0
M  V30 10777 H 1026.88 -4.11409 -1.53752 0
M  V30 10778 H 1027.49 -4.25104 0.129066 0
M  V30 10779 N 1025.8 -0.366053 -1.5329 0
M  V30 10780 C 1027.05 0.223824 -2.01561 0
M  V30 10781 C 1027.38 1.48382 -1.25286 0
M  V30 10782 O 1026.66 1.91385 -0.34669 0
M  V30 10783 C 1026.94 0.5153 -3.56394 0
M  V30 10784 C 1026.79 -0.758357 -4.43361 0
M  V30 10785 C 1028.11 1.31568 -4.19974 0
M  V30 10786 H 1025.23 0.0798751 -0.732659 0
M  V30 10787 H 1027.87 -0.491038 -1.83545 0
M  V30 10788 H 1026.02 1.12429 -3.71876 0
M  V30 10789 H 1027.69 -1.39584 -4.39675 0
M  V30 10790 H 1025.94 -1.37862 -4.11311 0
M  V30 10791 H 1026.61 -0.509366 -5.49645 0
M  V30 10792 H 1029.08 0.800514 -4.08327 0
M  V30 10793 H 1027.96 1.48837 -5.28336 0
M  V30 10794 H 1028.22 2.32432 -3.76069 0
M  V30 10795 N 1027.28 1.57312 -0.0952337 0
M  V30 10796 C 1028.51 1.98697 0.57682 0
M  V30 10797 C 1028.92 0.974347 1.61716 0
M  V30 10798 O 1028.28 -0.036022 1.82464 0
M  V30 10799 C 1028.33 3.40133 1.2244 0
M  V30 10800 O 1028.05 4.37518 0.225678 0
M  V30 10801 C 1029.55 3.96522 1.98205 0
M  V30 10802 H 1026.77 0.65294 0.154629 0
M  V30 10803 H 1029.32 2.03754 -0.174562 0
M  V30 10804 H 1027.47 3.3609 1.92671 0
M  V30 10805 H 1027.89 5.199 0.693116 0
M  V30 10806 H 1029.36 4.97637 2.38875 0
M  V30 10807 H 1029.84 3.34347 2.84796 0
M  V30 10808 H 1030.44 4.04038 1.3279 0
M  V30 10809 N 1028.76 -0.17846 1.56586 0
M  V30 10810 C 1030 -0.897562 1.81856 0
M  V30 10811 C 1030.34 -1.82204 0.671955 0
M  V30 10812 O 1029.61 -1.91739 -0.326535 0
M  V30 10813 C 1029.89 -1.69942 3.17477 0
M  V30 10814 C 1029.75 -0.798545 4.42655 0
M  V30 10815 C 1031.07 -2.66861 3.49962 0
M  V30 10816 H 1028.19 -0.324863 0.661539 0
M  V30 10817 H 1030.83 -0.164106 1.8929 0
M  V30 10818 H 1028.98 -2.32471 3.11271 0
M  V30 10819 H 1030.65 -0.18668 4.60922 0
M  V30 10820 H 1028.89 -0.106181 4.3367 0
M  V30 10821 H 1029.56 -1.39496 5.34083 0
M  V30 10822 H 1032.04 -2.1446 3.56576 0
M  V30 10823 H 1030.92 -3.20037 4.45946 0
M  V30 10824 H 1031.18 -3.46715 2.74301 0
M  V30 10825 N 1030.24 -1.51135 -0.446768 0
M  V30 10826 C 1031.48 -1.63013 -1.19461 0
M  V30 10827 C 1031.8 -0.344067 -1.91941 0
M  V30 10828 O 1031.07 0.639666 -1.85162 0
M  V30 10829 H 1029.65 -0.600757 -0.443959 0
M  V30 10830 H 1032.32 -1.88024 -0.513137 0
M  V30 10831 H 1031.41 -2.45322 -1.92933 0
M  V30 10832 N 1031.71 0.701592 -1.41122 0
M  V30 10833 C 1032.66 1.83691 -1.4269 0
M  V30 10834 C 1033.66 1.6662 -0.305658 0
M  V30 10835 O 1034.86 1.73554 -0.477392 0
M  V30 10836 H 1031.24 0.605222 -0.44633 0
M  V30 10837 H 1033.21 1.79485 -2.38386 0
M  V30 10838 C 1031.96 3.21666 -1.32008 0
M  V30 10839 H 1031.28 3.35416 -2.17569 0
M  V30 10840 H 1032.72 4.012 -1.37165 0
M  V30 10841 C 1031.18 3.36885 -0.0317678 0
M  V30 10842 O 1031.71 3.90885 0.925836 0
M  V30 10843 N 1029.91 2.90569 0.0423401 0
M  V30 10844 H 1029.46 2.46812 -0.737673 0
M  V30 10845 H 1029.42 3.0113 0.903764 0
M  V30 10846 N 1033.19 1.2685 0.935242 0
M  V30 10847 C 1034.44 1.12522 1.67878 0
M  V30 10848 C 1034.76 -0.330894 1.92172 0
M  V30 10849 O 1034.03 -1.23259 1.52263 0
M  V30 10850 H 1032.61 0.413418 0.622169 0
M  V30 10851 H 1035.27 1.59267 1.12339 0
M  V30 10852 H 1034.37 1.64853 2.65009 0
M  V30 10853 N 1034.67 -1.14067 1.0875 0
M  V30 10854 C 1035.92 -1.85459 0.82053 0
M  V30 10855 C 1036.25 -1.82923 -0.65213 0
M  V30 10856 O 1035.52 -1.26241 -1.47965 0
M  V30 10857 C 1035.81 -3.33937 1.34752 0
M  V30 10858 C 1035.66 -3.45026 2.88578 0
M  V30 10859 C 1036.98 -4.2915 0.975636 0
M  V30 10860 H 1034.1 -0.673384 0.299538 0
M  V30 10861 H 1036.74 -1.33927 1.34772 0
M  V30 10862 H 1034.89 -3.77953 0.899086 0
M  V30 10863 H 1036.56 -3.09771 3.41818 0
M  V30 10864 H 1034.81 -2.86124 3.26061 0
M  V30 10865 H 1035.48 -4.49408 3.20526 0
M  V30 10866 H 1037.95 -3.93168 1.36228 0
M  V30 10867 H 1036.83 -5.31489 1.37152 0
M  V30 10868 H 1037.09 -4.41945 -0.116956 0
M  V30 10869 N 1036.15 -0.873678 -1.31166 0
M  V30 10870 C 1037.4 -0.485497 -1.96182 0
M  V30 10871 C 1037.72 0.96621 -1.69379 0
M  V30 10872 O 1036.99 1.67783 -1.01121 0
M  V30 10873 H 1035.57 -0.176547 -0.725838 0
M  V30 10874 H 1038.23 -1.11428 -1.59906 0
M  V30 10875 H 1037.33 -0.646325 -3.05334 0
M  V30 10876 N 1037.63 1.44308 -0.633487 0
M  V30 10877 C 1038.87 2.02023 -0.138917 0
M  V30 10878 C 1039.2 1.49841 1.24008 0
M  V30 10879 O 1038.46 0.673718 1.83738 0
M  V30 10880 C 1038.76 3.57316 -0.0773886 0
M  V30 10881 C 1038.42 4.28762 -1.39548 0
M  V30 10882 C 1037.08 4.47997 -1.75648 0
M  V30 10883 C 1039.44 4.69391 -2.26542 0
M  V30 10884 C 1036.76 5.05121 -2.98445 0
M  V30 10885 C 1039.12 5.27876 -3.48612 0
M  V30 10886 C 1037.78 5.45329 -3.84932 0
M  V30 10887 H 1037.05 0.739254 -0.0508333 0
M  V30 10888 H 1039.7 1.73043 -0.820271 0
M  V30 10889 H 1038 3.85724 0.687345 0
M  V30 10890 H 1039.7 3.99706 0.321837 0
M  V30 10891 H 1036.29 4.14122 -1.10456 0
M  V30 10892 H 1040.47 4.54241 -1.99946 0
M  V30 10893 H 1035.73 5.16821 -3.26658 0
M  V30 10894 H 1039.9 5.58307 -4.16253 0
M  V30 10895 H 1037.53 5.8936 -4.80166 0
M  V30 10896 N 1039.1 0.374177 1.53094 0
M  V30 10897 C 1040.35 -0.212816 2.01379 0
M  V30 10898 C 1040.68 -1.48069 1.26118 0
M  V30 10899 O 1039.93 -1.92625 0.345561 0
M  V30 10900 C 1040.23 -0.542179 3.53264 0
M  V30 10901 C 1039.9 0.632375 4.46444 0
M  V30 10902 C 1038.56 0.954635 4.71636 0
M  V30 10903 C 1040.91 1.41887 5.01515 0
M  V30 10904 C 1038.24 2.06521 5.4915 0
M  V30 10905 C 1040.59 2.51993 5.80243 0
M  V30 10906 C 1039.26 2.84744 6.03719 0
M  V30 10907 H 1038.53 -0.0778749 0.736897 0
M  V30 10908 H 1041.17 0.508412 1.84628 0
M  V30 10909 H 1039.48 -1.34454 3.68007 0
M  V30 10910 H 1041.18 -1.00874 3.88105 0
M  V30 10911 H 1037.77 0.371179 4.2699 0
M  V30 10912 H 1041.95 1.18315 4.81991 0
M  V30 10913 H 1037.21 2.32284 5.65557 0
M  V30 10914 H 1041.38 3.13346 6.21922 0
M  V30 10915 H 1039.01 3.70921 6.63568 0
M  V30 10916 N 1040.58 -1.57259 0.103575 0
M  V30 10917 C 1041.51 -2.17509 -0.84923 0
M  V30 10918 C 1042.49 -1.11079 -1.28824 0
M  V30 10919 O 1043.68 -1.39252 -1.35361 0
M  V30 10920 C 1040.81 -2.76221 -2.10522 0
M  V30 10921 C 1039.76 -3.88098 -1.80454 0
M  V30 10922 C 1039.09 -4.33549 -3.12952 0
M  V30 10923 C 1040.39 -5.10909 -1.08486 0
M  V30 10924 H 1042.08 -2.9738 -0.347217 0
M  V30 10925 H 1039.63 -1.43045 -0.165568 0
M  V30 10926 H 1041.58 -3.17024 -2.77621 0
M  V30 10927 H 1040.31 -1.93617 -2.63021 0
M  V30 10928 H 1038.96 -3.47847 -1.15749 0
M  V30 10929 H 1038.61 -3.47825 -3.63355 0
M  V30 10930 H 1038.31 -5.08984 -2.93614 0
M  V30 10931 H 1039.84 -4.76992 -3.81196 0
M  V30 10932 H 1041.25 -5.48828 -1.65711 0
M  V30 10933 H 1039.65 -5.91828 -0.992973 0
M  V30 10934 H 1040.72 -4.84851 -0.0690108 0
M  V30 10935 N 1042.06 0.170153 -1.56679 0
M  V30 10936 C 1043.48 0.521966 -1.50823 0
M  V30 10937 C 1043.68 1.84589 -0.808037 0
M  V30 10938 O 1042.73 2.49791 -0.368891 0
M  V30 10939 C 1044.05 0.553648 -2.95559 0
M  V30 10940 C 1045.59 0.640769 -3.06371 0
M  V30 10941 C 1046.07 0.703332 -4.52567 0
M  V30 10942 N 1047.56 0.76619 -4.56819 0
M  V30 10943 C 1048.29 0.835192 -5.67285 0
M  V30 10944 N 1047.79 0.864957 -6.87379 0
M  V30 10945 N 1049.58 0.874302 -5.55259 0
M  V30 10946 H 1041.73 -0.697952 -2.00605 0
M  V30 10947 H 1044 -0.251787 -0.913952 0
M  V30 10948 H 1043.7 -0.350498 -3.49949 0
M  V30 10949 H 1043.58 1.39973 -3.50268 0
M  V30 10950 H 1045.96 1.53534 -2.52015 0
M  V30 10951 H 1046.05 -0.232008 -2.54746 0
M  V30 10952 H 1045.69 -0.186986 -5.07556 0
M  V30 10953 H 1045.62 1.59227 -5.0195 0
M  V30 10954 H 1048.11 0.751424 -3.70354 0
M  V30 10955 H 1048.42 0.918814 -7.67318 0
M  V30 10956 H 1046.77 0.833215 -6.89987 0
M  V30 10957 H 1049.96 0.848057 -4.60354 0
M  V30 10958 H 1050.13 0.924615 -6.4137 0
M  V30 10959 N 1043.54 1.5137 0.438746 0
M  V30 10960 C 1044.95 1.56462 1.01866 0
M  V30 10961 C 1045.3 0.387244 1.9234 0
M  V30 10962 O 1044.43 -0.496131 2.10636 0
M  V30 10963 C 1045.02 2.83557 1.85421 0
M  V30 10964 C 1043.58 2.91224 2.38464 0
M  V30 10965 C 1042.73 2.51109 1.17641 0
M  V30 10966 H 1045.68 1.57167 0.220072 0
M  V30 10967 H 1045.7 2.6724 2.70857 0
M  V30 10968 H 1045.21 3.69229 1.19546 0
M  V30 10969 H 1043.31 2.09979 3.07798 0
M  V30 10970 H 1043.42 3.94844 2.71358 0
M  V30 10971 H 1041.79 2.04276 1.5213 0
M  V30 10972 H 1042.57 3.39125 0.533785 0
M  V30 10973 N 1045.02 -0.694098 1.41492 0
M  V30 10974 C 1046.25 -1.48071 1.44078 0
M  V30 10975 C 1046.65 -1.89147 0.0448984 0
M  V30 10976 O 1046 -1.57441 -0.946464 0
M  V30 10977 C 1046.06 -2.77324 2.28761 0
M  V30 10978 C 1045.72 -2.58443 3.76904 0
M  V30 10979 C 1046.72 -2.24294 4.69029 0
M  V30 10980 C 1044.41 -2.74037 4.20962 0
M  V30 10981 C 1046.4 -2.0598 6.03201 0
M  V30 10982 C 1044.09 -2.5534 5.55198 0
M  V30 10983 C 1045.08 -2.21362 6.46133 0
M  V30 10984 O 1044.77 -2.02829 7.77892 0
M  V30 10985 H 1044.5 -0.462794 0.492745 0
M  V30 10986 H 1047.06 -0.861968 1.86438 0
M  V30 10987 H 1045.29 -3.4161 1.81217 0
M  V30 10988 H 1046.98 -3.39134 2.23031 0
M  V30 10989 H 1047.74 -2.11859 4.36281 0
M  V30 10990 H 1043.62 -2.99467 3.50486 0
M  V30 10991 H 1047.17 -1.79382 6.74142 0
M  V30 10992 H 1043.06 -2.67366 5.87525 0
M  V30 10993 H 1043.83 -2.17581 7.89051 0
M  V30 10994 N 1046.49 -1.27344 -0.928501 0
M  V30 10995 C 1047.44 -1.09835 -2.05034 0
M  V30 10996 C 1048.44 -0.0216643 -1.69386 0
M  V30 10997 O 1049.64 -0.179323 -1.79105 0
M  V30 10998 H 1046.02 -0.338416 -0.671549 0
M  V30 10999 H 1047.99 -2.04879 -2.1695 0
M  V30 11000 C 1046.74 -0.761462 -3.3926 0
M  V30 11001 H 1046.06 -1.58186 -3.67175 0
M  V30 11002 H 1047.5 -0.678812 -4.18531 0
M  V30 11003 C 1045.96 0.534118 -3.32639 0
M  V30 11004 O 1046.49 1.56877 -3.69801 0
M  V30 11005 N 1044.7 0.529437 -2.85736 0
M  V30 11006 H 1044.24 -0.312954 -2.55692 0
M  V30 11007 H 1044.2 1.39637 -2.81689 0
M  V30 11008 N 1047.97 1.13488 -1.09353 0
M  V30 11009 C 1049.22 1.84748 -0.829126 0
M  V30 11010 C 1049.55 1.83485 0.645247 0
M  V30 11011 O 1048.8 1.26767 1.49093 0
M  V30 11012 C 1049.1 3.32584 -1.30854 0
M  V30 11013 C 1048.77 3.54028 -2.7924 0
M  V30 11014 C 1047.43 3.59588 -3.19765 0
M  V30 11015 C 1049.78 3.62058 -3.74918 0
M  V30 11016 C 1047.11 3.70712 -4.54741 0
M  V30 11017 C 1049.46 3.7471 -5.09682 0
M  V30 11018 C 1048.13 3.78523 -5.49797 0
M  V30 11019 H 1047.4 0.67604 -0.303399 0
M  V30 11020 H 1050.04 1.33989 -1.36818 0
M  V30 11021 H 1048.35 3.85689 -0.689275 0
M  V30 11022 H 1050.04 3.86166 -1.08059 0
M  V30 11023 H 1046.63 3.50354 -2.4688 0
M  V30 11024 H 1050.82 3.57043 -3.44723 0
M  V30 11025 H 1046.07 3.71931 -4.8526 0
M  V30 11026 H 1050.25 3.79866 -5.83674 0
M  V30 11027 H 1047.88 3.86895 -6.54382 0
M  V30 11028 N 1049.45 0.880621 1.30701 0
M  V30 11029 C 1050.7 0.496875 1.96309 0
M  V30 11030 C 1051.03 -0.953064 1.69549 0
M  V30 11031 O 1050.28 -1.68782 0.990507 0
M  V30 11032 C 1050.58 0.713203 3.50212 0
M  V30 11033 C 1050.25 2.13756 3.97013 0
M  V30 11034 C 1048.91 2.52706 4.09503 0
M  V30 11035 C 1051.26 3.066 4.21481 0
M  V30 11036 C 1048.59 3.8372 4.43819 0
M  V30 11037 C 1050.94 4.3714 4.57265 0
M  V30 11038 C 1049.6 4.7599 4.67963 0
M  V30 11039 H 1048.87 0.18182 0.718347 0
M  V30 11040 H 1051.52 1.11564 1.55646 0
M  V30 11041 H 1049.83 0.0113694 3.91798 0
M  V30 11042 H 1051.52 0.39595 3.9904 0
M  V30 11043 H 1048.11 1.8252 3.87794 0
M  V30 11044 H 1052.3 2.77729 4.11315 0
M  V30 11045 H 1047.55 4.13568 4.50301 0
M  V30 11046 H 1051.73 5.09123 4.75149 0
M  V30 11047 H 1049.35 5.77549 4.94309 0
M  V30 11048 N 1050.93 -1.4397 0.641131 0
M  V30 11049 C 1052.21 -1.95436 0.0800918 0
M  V30 11050 C 1052.59 -1.58282 -1.39678 0
M  V30 11051 O 1051.93 -0.861867 -2.11623 0
M  V30 11052 C 1052.14 -3.47589 0.313531 0
M  V30 11053 C 1053.49 -4.2407 0.212034 0
M  V30 11054 O 1054.52 -3.55353 0.245434 0
M  V30 11055 O 1053.38 -5.46356 0.125455 0
M  V30 11056 H 1050.47 -0.826834 -0.0165735 0
M  V30 11057 H 1053.02 -1.5397 0.71353 0
M  V30 11058 H 1051.79 -3.67716 1.33793 0
M  V30 11059 H 1051.41 -3.96025 -0.353563 0
M  V30 11060 N 1052.41 -0.382291 -1.52893 0
M  V30 11061 C 1053.32 0.463745 -2.29971 0
M  V30 11062 C 1054.33 1.07777 -1.36602 0
M  V30 11063 O 1055.51 1.0851 -1.69669 0
M  V30 11064 C 1052.57 1.57938 -3.08637 0
M  V30 11065 C 1051.64 0.991182 -4.17701 0
M  V30 11066 C 1050.87 2.05365 -4.92606 0
M  V30 11067 O 1051.09 3.26757 -4.67532 0
M  V30 11068 O 1050.03 1.67487 -5.78128 0
M  V30 11069 H 1053.85 -0.163962 -3.03257 0
M  V30 11070 H 1051.44 -0.146199 -1.48683 0
M  V30 11071 H 1053.32 2.22765 -3.57706 0
M  V30 11072 H 1051.99 2.19218 -2.3817 0
M  V30 11073 H 1050.9 0.306364 -3.72843 0
M  V30 11074 H 1052.23 0.422699 -4.90382 0
M  V30 11075 N 1053.89 1.57202 -0.111913 0
M  V30 11076 C 1055.16 1.86459 0.590972 0
M  V30 11077 C 1055.54 1.01182 1.85271 0
M  V30 11078 O 1054.89 0.0887891 2.28327 0
M  V30 11079 C 1055.1 3.37455 0.890225 0
M  V30 11080 C 1056.45 4.05895 1.24638 0
M  V30 11081 O 1057.47 3.42433 0.980713 0
M  V30 11082 O 1056.33 5.17903 1.74466 0
M  V30 11083 H 1053.43 0.771652 0.297459 0
M  V30 11084 H 1055.97 1.69072 -0.145882 0
M  V30 11085 H 1054.74 3.913 -0.00419012 0
M  V30 11086 H 1054.37 3.60248 1.68248 0
M  V30 11087 N 1055.36 -0.161842 1.56767 0
M  V30 11088 C 1056.77 -0.723385 1.72116 0
M  V30 11089 C 1057.13 -1.82355 0.723961 0
M  V30 11090 O 1056.25 -2.16107 -0.112643 0
M  V30 11091 C 1056.85 -1.31895 3.12072 0
M  V30 11092 C 1055.4 -1.82722 3.29074 0
M  V30 11093 C 1054.55 -0.709863 2.6806 0
M  V30 11094 H 1057.5 0.0636647 1.58572 0
M  V30 11095 H 1057.52 -2.18871 3.11249 0
M  V30 11096 H 1057.04 -0.51801 3.84627 0
M  V30 11097 H 1055.14 -2.6543 2.61491 0
M  V30 11098 H 1055.25 -1.96614 4.36898 0
M  V30 11099 H 1053.61 -1.13273 2.28126 0
M  V30 11100 H 1054.4 0.0793884 3.43208 0
M  V30 11101 N 1056.84 -1.516 -0.430713 0
M  V30 11102 C 1058.07 -1.687 -1.20644 0
M  V30 11103 C 1058.49 -0.386555 -1.84085 0
M  V30 11104 O 1057.85 0.653952 -1.69095 0
M  V30 11105 C 1057.9 -2.80887 -2.2613 0
M  V30 11106 O 1057 -2.44952 -3.31772 0
M  V30 11107 H 1056.34 -0.562289 -0.353167 0
M  V30 11108 H 1058.87 -1.98198 -0.507807 0
M  V30 11109 H 1058.88 -3.05167 -2.70809 0
M  V30 11110 H 1057.56 -3.75249 -1.79334 0
M  V30 11111 H 1056.13 -2.31267 -2.92523 0
M  V30 11112 N 1058.32 0.686584 -1.41858 0
M  V30 11113 C 1059.57 1.44665 -1.41698 0
M  V30 11114 C 1059.89 1.94478 -0.0292442 0
M  V30 11115 O 1059.15 1.70512 0.960421 0
M  V30 11116 C 1059.45 2.66793 -2.37816 0
M  V30 11117 C 1059.11 2.35587 -3.8446 0
M  V30 11118 C 1057.78 2.26788 -4.24406 0
M  V30 11119 C 1060.13 2.10028 -4.77009 0
M  V30 11120 C 1057.46 1.90538 -5.54898 0
M  V30 11121 C 1059.81 1.75285 -6.07831 0
M  V30 11122 C 1058.47 1.64987 -6.46789 0
M  V30 11123 H 1057.74 0.529367 -0.518509 0
M  V30 11124 H 1060.39 0.783938 -1.74719 0
M  V30 11125 H 1058.69 3.38041 -1.9808 0
M  V30 11126 H 1060.39 3.24953 -2.34961 0
M  V30 11127 H 1056.98 2.43334 -3.52826 0
M  V30 11128 H 1061.17 2.15766 -4.46944 0
M  V30 11129 H 1056.42 1.81125 -5.83955 0
M  V30 11130 H 1060.6 1.5453 -6.79039 0
M  V30 11131 H 1058.22 1.36667 -7.47814 0
M  V30 11132 N 1059.8 1.27835 0.921735 0
M  V30 11133 C 1061.03 1.17182 1.70153 0
M  V30 11134 C 1061.44 -0.273207 1.87217 0
M  V30 11135 O 1060.78 -1.19729 1.39322 0
M  V30 11136 C 1060.84 1.78969 3.11786 0
M  V30 11137 C 1060.5 3.28179 3.18037 0
M  V30 11138 C 1061.5 4.24729 2.99835 0
M  V30 11139 C 1059.19 3.68995 3.40805 0
M  V30 11140 C 1061.18 5.60071 3.04301 0
M  V30 11141 C 1058.87 5.04465 3.44904 0
M  V30 11142 C 1059.87 5.99813 3.2667 0
M  V30 11143 O 1059.55 7.32813 3.30515 0
M  V30 11144 H 1059.29 0.408079 0.538932 0
M  V30 11145 H 1061.84 1.69326 1.16266 0
M  V30 11146 H 1060.07 1.2131 3.6718 0
M  V30 11147 H 1061.76 1.62946 3.71757 0
M  V30 11148 H 1062.52 3.94533 2.8208 0
M  V30 11149 H 1058.4 2.9525 3.54045 0
M  V30 11150 H 1061.95 6.34471 2.89987 0
M  V30 11151 H 1057.84 5.34315 3.62185 0
M  V30 11152 H 1058.61 7.41338 3.4693 0
M  V30 11153 N 1061.28 -1.12907 1.09954 0
M  V30 11154 C 1062.5 -1.88679 0.861099 0
M  V30 11155 C 1062.93 -1.78853 -0.582499 0
M  V30 11156 O 1062.28 -1.13992 -1.4098 0
M  V30 11157 C 1062.33 -3.36047 1.30785 0
M  V30 11158 O 1061.44 -4.09716 0.469728 0
M  V30 11159 H 1060.78 -0.586447 0.31141 0
M  V30 11160 H 1063.31 -1.42818 1.46507 0
M  V30 11161 H 1063.32 -3.86882 1.29562 0
M  V30 11162 H 1061.99 -3.42516 2.35914 0
M  V30 11163 H 1060.57 -3.6887 0.54674 0
M  V30 11164 N 1062.75 -0.88754 -1.30232 0
M  V30 11165 C 1063.72 -0.361095 -2.26338 0
M  V30 11166 C 1064.72 0.497871 -1.52898 0
M  V30 11167 O 1065.91 0.30466 -1.71515 0
M  V30 11168 C 1063.04 0.485135 -3.3743 0
M  V30 11169 H 1064.23 -1.20973 -2.74419 0
M  V30 11170 H 1061.78 -0.664619 -1.41466 0
M  V30 11171 H 1062.52 1.35425 -2.9467 0
M  V30 11172 H 1062.3 -0.130173 -3.91884 0
M  V30 11173 H 1063.79 0.845169 -4.08958 0
M  V30 11174 N 1064.23 1.43628 -0.648757 0
M  V30 11175 C 1065.51 1.95391 -0.0904551 0
M  V30 11176 C 1065.89 1.59021 1.38837 0
M  V30 11177 O 1065.24 0.873078 2.11163 0
M  V30 11178 C 1065.45 3.47418 -0.33196 0
M  V30 11179 C 1066.8 4.23952 -0.234521 0
M  V30 11180 O 1067.82 3.55218 -0.264276 0
M  V30 11181 O 1066.68 5.46282 -0.154428 0
M  V30 11182 H 1063.77 0.82691 0.0121884 0
M  V30 11183 H 1066.32 1.5359 -0.721685 0
M  V30 11184 H 1065.09 3.67001 -1.35741 0
M  V30 11185 H 1064.71 3.96207 0.332556 0
M  V30 11186 N 1065.71 0.390394 1.52688 0
M  V30 11187 C 1066.94 -0.194013 2.06491 0
M  V30 11188 C 1067.36 -1.3965 1.26014 0
M  V30 11189 O 1066.72 -1.79038 0.285468 0
M  V30 11190 C 1066.77 -0.541306 3.56514 0
M  V30 11191 O 1065.87 -1.63509 3.78601 0
M  V30 11192 H 1065.21 -0.0223608 0.663623 0
M  V30 11193 H 1067.74 0.558179 1.96839 0
M  V30 11194 H 1067.75 -0.805301 3.99974 0
M  V30 11195 H 1066.43 0.337828 4.14526 0
M  V30 11196 H 1065 -1.36473 3.4703 0
M  V30 11197 N 1067.19 -1.57141 0.120249 0
M  V30 11198 C 1068.44 -1.94413 -0.53727 0
M  V30 11199 C 1068.75 -1.00594 -1.67751 0
M  V30 11200 O 1069.96 -1.27336 -2.39787 0
M  V30 11201 C 1068.41 -3.45521 -1.00714 0
M  V30 11202 C 1068.02 -4.47878 0.104706 0
M  V30 11203 C 1069.76 -3.9171 -1.63596 0
M  V30 11204 C 1067.67 -5.90165 -0.381932 0
M  V30 11205 H 1066.6 -0.725745 -0.204475 0
M  V30 11206 H 1069.25 -1.82404 0.200302 0
M  V30 11207 H 1067.63 -3.52769 -1.79917 0
M  V30 11208 H 1068.81 -4.523 0.881002 0
M  V30 11209 H 1067.12 -4.11448 0.640264 0
M  V30 11210 H 1069.72 -4.95433 -2.01122 0
M  V30 11211 H 1070.06 -3.31756 -2.51483 0
M  V30 11212 H 1070.6 -3.87268 -0.909319 0
M  V30 11213 H 1067.34 -6.53877 0.460921 0
M  V30 11214 H 1066.86 -5.89161 -1.12468 0
M  V30 11215 H 1068.53 -6.41488 -0.842748 0
M  V30 11216 N 1068.67 0.153526 -1.5685 0
M  V30 11217 C 1069.9 0.881055 -1.86872 0
M  V30 11218 C 1070.3 1.75547 -0.705692 0
M  V30 11219 O 1069.65 1.8064 0.333888 0
M  V30 11220 C 1069.71 1.79429 -3.11521 0
M  V30 11221 C 1069.37 1.0977 -4.43621 0
M  V30 11222 C 1070.37 0.454693 -5.17908 0
M  V30 11223 C 1068.06 1.08915 -4.9035 0
M  V30 11224 C 1070.05 -0.187562 -6.37124 0
M  V30 11225 C 1067.74 0.443084 -6.09492 0
M  V30 11226 C 1068.73 -0.194154 -6.82724 0
M  V30 11227 O 1068.42 -0.829995 -7.99604 0
M  V30 11228 H 1068.15 0.260486 -0.623797 0
M  V30 11229 H 1070.71 0.153024 -2.04829 0
M  V30 11230 H 1068.94 2.5631 -2.89555 0
M  V30 11231 H 1070.63 2.39321 -3.27842 0
M  V30 11232 H 1071.39 0.453151 -4.82878 0
M  V30 11233 H 1067.27 1.57456 -4.33276 0
M  V30 11234 H 1070.82 -0.685542 -6.94223 0
M  V30 11235 H 1066.71 0.44227 -6.43983 0
M  V30 11236 H 1067.48 -0.731013 -8.15229 0
M  V30 11237 N 1070.14 1.51827 0.422667 0
M  V30 11238 C 1071.39 1.6522 1.17084 0
M  V30 11239 C 1071.72 0.375508 1.90841 0
M  V30 11240 O 1070.97 -0.641029 1.84903 0
M  V30 11241 C 1071.27 2.81572 2.20119 0
M  V30 11242 C 1070.94 4.20303 1.63268 0
M  V30 11243 C 1069.6 4.5804 1.47488 0
M  V30 11244 C 1071.95 5.06812 1.21618 0
M  V30 11245 C 1069.28 5.79979 0.885531 0
M  V30 11246 C 1071.63 6.29343 0.641071 0
M  V30 11247 C 1070.3 6.65841 0.470286 0
M  V30 11248 H 1069.57 0.604581 0.428442 0
M  V30 11249 H 1072.21 1.85896 0.459874 0
M  V30 11250 H 1070.52 2.55175 2.97309 0
M  V30 11251 H 1072.22 2.89132 2.77856 0
M  V30 11252 H 1068.81 3.90557 1.76531 0
M  V30 11253 H 1072.99 4.78251 1.32624 0
M  V30 11254 H 1068.25 6.06892 0.741105 0
M  V30 11255 H 1072.42 6.9571 0.309888 0
M  V30 11256 H 1070.05 7.60199 0.0115038 0
M  V30 11257 N 1071.62 -0.679052 1.4222 0
M  V30 11258 C 1073.04 -0.991665 1.25053 0
M  V30 11259 C 1073.24 -2.00928 0.151665 0
M  V30 11260 O 1072.29 -2.47925 -0.478507 0
M  V30 11261 C 1073.61 -1.50053 2.60585 0
M  V30 11262 C 1075.16 -1.61852 2.67905 0
M  V30 11263 C 1075.63 -2.16135 4.03794 0
M  V30 11264 N 1077.12 -2.23474 4.05726 0
M  V30 11265 C 1077.86 -2.66541 5.07685 0
M  V30 11266 N 1077.35 -3.09092 6.20028 0
M  V30 11267 N 1079.15 -2.66252 4.95042 0
M  V30 11268 H 1071.3 -0.00521851 2.12399 0
M  V30 11269 H 1073.56 -0.0648465 0.94578 0
M  V30 11270 H 1073.27 -0.82731 3.41831 0
M  V30 11271 H 1073.14 -2.47998 2.84213 0
M  V30 11272 H 1075.53 -2.28281 1.87008 0
M  V30 11273 H 1075.61 -0.624074 2.4807 0
M  V30 11274 H 1075.25 -1.50316 4.85147 0
M  V30 11275 H 1075.18 -3.16363 4.20978 0
M  V30 11276 H 1077.67 -1.93467 3.24621 0
M  V30 11277 H 1077.99 -3.40627 6.93681 0
M  V30 11278 H 1076.33 -3.06959 6.23539 0
M  V30 11279 H 1079.52 -2.32369 4.06352 0
M  V30 11280 H 1079.69 -2.99496 5.74636 0
M  V30 11281 N 1073.1 -1.28322 -0.914942 0
M  V30 11282 C 1074.35 -1.15179 -1.66067 0
M  V30 11283 C 1074.67 0.300279 -1.92674 0
M  V30 11284 O 1073.94 1.20821 -1.54205 0
M  V30 11285 H 1072.52 -0.423264 -0.615513 0
M  V30 11286 H 1075.18 -1.61034 -1.09791 0
M  V30 11287 H 1074.28 -1.69048 -2.62353 0
M  V30 11288 N 1074.58 1.12322 -1.10551 0
M  V30 11289 C 1075.86 1.80201 -0.760715 0
M  V30 11290 C 1076.24 1.97228 0.752628 0
M  V30 11291 O 1075.58 1.54958 1.67929 0
M  V30 11292 C 1075.79 3.14491 -1.51316 0
M  V30 11293 C 1077.14 3.89671 -1.68647 0
M  V30 11294 O 1078.17 3.24151 -1.47664 0
M  V30 11295 O 1077.02 5.0722 -2.03445 0
M  V30 11296 H 1074.12 0.780084 -0.274587 0
M  V30 11297 H 1076.66 1.19147 -1.20839 0
M  V30 11298 H 1075.44 2.97396 -2.54306 0
M  V30 11299 H 1075.06 3.83253 -1.05842 0
M  V30 11300 N 1076.06 0.894434 1.2976 0
M  V30 11301 C 1076.99 0.325525 2.26877 0
M  V30 11302 C 1078 -0.525218 1.54095 0
M  V30 11303 O 1079.19 -0.343231 1.75169 0
M  V30 11304 C 1076.29 -0.554952 3.34325 0
M  V30 11305 C 1075.46 0.268868 4.36573 0
M  V30 11306 C 1074.52 -0.543601 5.23385 0
M  V30 11307 O 1073.55 0.0370454 5.69188 0
M  V30 11308 N 1074.75 -1.85079 5.50205 0
M  V30 11309 H 1077.52 1.16021 2.76332 0
M  V30 11310 H 1075.08 0.758382 1.43039 0
M  V30 11311 H 1077.07 -1.10476 3.89329 0
M  V30 11312 H 1075.64 -1.29031 2.84727 0
M  V30 11313 H 1074.86 1.0001 3.81302 0
M  V30 11314 H 1076.15 0.833248 5.01931 0
M  V30 11315 H 1075.54 -2.34533 5.14792 0
M  V30 11316 H 1074.1 -2.34784 6.08046 0
M  V30 11317 N 1077.53 -1.43282 0.656365 0
M  V30 11318 C 1078.81 -1.9534 0.100816 0
M  V30 11319 C 1079.19 -1.59755 -1.37992 0
M  V30 11320 O 1078.54 -0.884264 -2.10697 0
M  V30 11321 C 1078.75 -3.47237 0.35038 0
M  V30 11322 C 1080.1 -4.23822 0.257001 0
M  V30 11323 O 1081.12 -3.55073 0.283111 0
M  V30 11324 O 1079.98 -5.46192 0.183397 0
M  V30 11325 H 1077.07 -0.826963 -0.00780287 0
M  V30 11326 H 1079.62 -1.53205 0.72982 0
M  V30 11327 H 1078.39 -3.66276 1.37685 0
M  V30 11328 H 1078.02 -3.96378 -0.311539 0
M  V30 11329 N 1079.01 -0.398486 -1.52479 0
M  V30 11330 C 1079.98 0.420206 -2.25315 0
M  V30 11331 C 1080.98 0.982559 -1.27289 0
M  V30 11332 O 1082.17 0.863113 -1.51314 0
M  V30 11333 C 1079.3 1.59045 -3.01525 0
M  V30 11334 H 1080.49 -0.217599 -2.9911 0
M  V30 11335 H 1078.04 -0.150784 -1.55571 0
M  V30 11336 H 1078.78 2.26542 -2.32054 0
M  V30 11337 H 1078.56 1.19382 -3.73484 0
M  V30 11338 H 1080.05 2.16984 -3.56802 0
M  V30 11339 N 1080.49 1.57075 -0.12858 0
M  V30 11340 C 1081.74 1.95134 0.526046 0
M  V30 11341 C 1082.06 1.01337 1.66601 0
M  V30 11342 O 1081.33 0.0714361 1.9577 0
M  V30 11343 H 1079.91 0.720468 0.19732 0
M  V30 11344 H 1082.57 1.93874 -0.199767 0
M  V30 11345 H 1081.67 2.98406 0.914332 0
M  V30 11346 N 1081.97 -0.145205 1.5693 0
M  V30 11347 C 1082.93 -1.16316 1.97492 0
M  V30 11348 C 1083.93 -1.35764 0.861668 0
M  V30 11349 O 1085.12 -1.32726 1.12825 0
M  V30 11350 C 1082.25 -2.52311 2.29242 0
M  V30 11351 H 1083.45 -0.815138 2.8861 0
M  V30 11352 H 1081 -0.38861 1.51392 0
M  V30 11353 H 1081.74 -2.92081 1.40922 0
M  V30 11354 H 1081.52 -2.39555 3.10412 0
M  V30 11355 H 1083.01 -3.25624 2.61456 0
M  V30 11356 N 1083.45 -1.52049 -0.414609 0
M  V30 11357 C 1084.69 -1.67511 -1.17129 0
M  V30 11358 C 1085.05 -0.39383 -1.87917 0
M  V30 11359 O 1086.25 -0.424496 -2.65427 0
M  V30 11360 C 1084.52 -2.85982 -2.14357 0
M  V30 11361 S 1086.08 -3.21898 -2.98206 0
M  V30 11362 H 1082.9 -0.589923 -0.396877 0
M  V30 11363 H 1085.5 -1.90025 -0.459409 0
M  V30 11364 H 1084.21 -3.77488 -1.6103 0
M  V30 11365 H 1083.74 -2.65725 -2.90092 0
M  V30 11366 H 1085.75 -2.70095 -4.16249 0
M  V30 11367 N 1084.93 0.6715 -1.42579 0
M  V30 11368 C 1085.84 1.81435 -1.48723 0
M  V30 11369 C 1086.85 1.69895 -0.375716 0
M  V30 11370 O 1088.03 1.91388 -0.627115 0
M  V30 11371 C 1085.09 3.17599 -1.39038 0
M  V30 11372 C 1084.15 3.41071 -2.60709 0
M  V30 11373 C 1083.39 4.7074 -2.51476 0
M  V30 11374 O 1083.61 5.48868 -1.55243 0
M  V30 11375 O 1082.54 4.95528 -3.41666 0
M  V30 11376 H 1086.37 1.79206 -2.45191 0
M  V30 11377 H 1083.95 0.827666 -1.24379 0
M  V30 11378 H 1085.84 3.98847 -1.3601 0
M  V30 11379 H 1084.51 3.20458 -0.456966 0
M  V30 11380 H 1083.42 2.59659 -2.69311 0
M  V30 11381 H 1084.75 3.43045 -3.5296 0
M  V30 11382 N 1086.4 1.28806 0.908124 0
M  V30 11383 C 1087.65 1.1646 1.66027 0
M  V30 11384 C 1087.98 -0.285025 1.92097 0
M  V30 11385 O 1087.26 -1.20675 1.52538 0
M  V30 11386 C 1087.54 1.96951 3.01467 0
M  V30 11387 C 1087.39 3.50007 2.82515 0
M  V30 11388 C 1088.71 1.78932 4.02084 0
M  V30 11389 H 1085.83 0.424435 0.602515 0
M  V30 11390 H 1088.47 1.58185 1.0525 0
M  V30 11391 H 1086.62 1.61495 3.53344 0
M  V30 11392 H 1088.3 3.95401 2.37605 0
M  V30 11393 H 1086.54 3.75356 2.17463 0
M  V30 11394 H 1087.21 4.01591 3.7872 0
M  V30 11395 H 1089.69 2.09885 3.59287 0
M  V30 11396 H 1088.56 2.37615 4.94803 0
M  V30 11397 H 1088.82 0.742286 4.35824 0
M  V30 11398 N 1087.88 -1.11734 1.11145 0
M  V30 11399 C 1088.83 -2.19765 0.761982 0
M  V30 11400 C 1089.82 -1.67616 -0.24518 0
M  V30 11401 O 1091.03 -1.79695 -0.104781 0
M  V30 11402 H 1087.4 -0.71644 0.228513 0
M  V30 11403 H 1089.38 -2.4649 1.68183 0
M  V30 11404 C 1088.12 -3.47016 0.218057 0
M  V30 11405 H 1087.45 -3.87494 0.984299 0
M  V30 11406 H 1088.89 -4.23998 0.0116825 0
M  V30 11407 C 1087.35 -3.20088 -1.05096 0
M  V30 11408 O 1087.88 -3.40503 -2.1312 0
M  V30 11409 N 1086.08 -2.73844 -0.972523 0
M  V30 11410 H 1085.63 -2.57431 -0.0933459 0
M  V30 11411 H 1085.59 -2.56204 -1.82228 0
M  V30 11412 N 1089.36 -0.901303 -1.29284 0
M  V30 11413 C 1090.77 -0.576317 -1.77582 0
M  V30 11414 C 1091.12 0.908078 -1.73921 0
M  V30 11415 O 1090.25 1.71006 -1.32611 0
M  V30 11416 C 1090.84 -1.03938 -3.22463 0
M  V30 11417 C 1089.4 -0.765533 -3.68533 0
M  V30 11418 C 1088.55 -1.21318 -2.49354 0
M  V30 11419 H 1091.5 -1.08386 -1.15923 0
M  V30 11420 H 1091.52 -0.375367 -3.78644 0
M  V30 11421 H 1091.03 -2.11977 -3.25096 0
M  V30 11422 H 1089.13 0.302176 -3.71373 0
M  V30 11423 H 1089.25 -1.36454 -4.59257 0
M  V30 11424 H 1087.61 -0.632141 -2.46731 0
M  V30 11425 H 1088.39 -2.30165 -2.54714 0
M  V30 11426 N 1090.84 1.42931 -0.663954 0
M  V30 11427 C 1091.77 2.33499 0.00731327 0
M  V30 11428 C 1092.75 1.50074 0.800733 0
M  V30 11429 O 1093.93 1.78708 0.760062 0
M  V30 11430 C 1091.06 3.33569 0.966897 0
M  V30 11431 C 1090.02 4.27064 0.282839 0
M  V30 11432 C 1089.34 5.17257 1.35461 0
M  V30 11433 C 1090.64 5.1564 -0.831438 0
M  V30 11434 H 1092.34 2.89879 -0.749044 0
M  V30 11435 H 1089.88 1.39385 -0.361656 0
M  V30 11436 H 1091.84 3.95833 1.44549 0
M  V30 11437 H 1090.56 2.75469 1.75455 0
M  V30 11438 H 1089.22 3.6618 -0.175417 0
M  V30 11439 H 1088.87 4.5549 2.13397 0
M  V30 11440 H 1088.57 5.80634 0.902098 0
M  V30 11441 H 1090.09 5.82395 1.83436 0
M  V30 11442 H 1091.51 5.71651 -0.434534 0
M  V30 11443 H 1089.9 5.87794 -1.20908 0
M  V30 11444 H 1090.97 4.54687 -1.68487 0
M  V30 11445 N 1092.32 0.406567 1.52266 0
M  V30 11446 C 1093.28 -0.408251 2.25535 0
M  V30 11447 C 1094.28 -0.975795 1.27808 0
M  V30 11448 O 1095.47 -0.855077 1.5177 0
M  V30 11449 C 1092.6 -1.57443 3.02365 0
M  V30 11450 H 1093.79 0.233459 2.9899 0
M  V30 11451 H 1091.35 0.159032 1.55489 0
M  V30 11452 H 1092.08 -2.25308 2.33252 0
M  V30 11453 H 1091.87 -1.17399 3.74112 0
M  V30 11454 H 1093.36 -2.15088 3.57948 0
M  V30 11455 N 1093.79 -1.57004 0.136909 0
M  V30 11456 C 1095.03 -1.97686 -0.519583 0
M  V30 11457 C 1095.4 -1.01951 -1.62696 0
M  V30 11458 O 1096.6 -1.31639 -2.3436 0
M  V30 11459 C 1094.87 -3.42474 -1.02206 0
M  V30 11460 S 1096.43 -4.05176 -1.68457 0
M  V30 11461 H 1093.25 -0.690787 -0.168329 0
M  V30 11462 H 1095.85 -1.94187 0.226234 0
M  V30 11463 H 1094.55 -4.09887 -0.205194 0
M  V30 11464 H 1094.08 -3.49664 -1.80273 0
M  V30 11465 H 1096.1 -3.97401 -2.97131 0
M  V30 11466 N 1095.27 0.136881 -1.57004 0
M  V30 11467 C 1096.2 1.17026 -2.02057 0
M  V30 11468 C 1097.18 1.44223 -0.901866 0
M  V30 11469 O 1098.37 1.54971 -1.17037 0
M  V30 11470 C 1095.5 2.50095 -2.40977 0
M  V30 11471 C 1094.45 2.37398 -3.56127 0
M  V30 11472 C 1093.78 3.75268 -3.80891 0
M  V30 11473 C 1095.08 1.84952 -4.88457 0
M  V30 11474 H 1096.77 0.795601 -2.88636 0
M  V30 11475 H 1094.32 0.381266 -1.38861 0
M  V30 11476 H 1096.27 3.22621 -2.71097 0
M  V30 11477 H 1095 2.89416 -1.51348 0
M  V30 11478 H 1093.65 1.67322 -3.26188 0
M  V30 11479 H 1093.3 4.12043 -2.88496 0
M  V30 11480 H 1093 3.67631 -4.5839 0
M  V30 11481 H 1094.53 4.49327 -4.13446 0
M  V30 11482 H 1095.94 2.4728 -5.17229 0
M  V30 11483 H 1094.34 1.88181 -5.69832 0
M  V30 11484 H 1095.41 0.805848 -4.78157 0
M  V30 11485 N 1096.75 1.52266 0.40654 0
M  V30 11486 C 1098.16 1.58587 0.985241 0
M  V30 11487 C 1098.51 0.427955 1.91476 0
M  V30 11488 O 1097.64 -0.451341 2.11641 0
M  V30 11489 C 1098.23 2.87426 1.79365 0
M  V30 11490 C 1096.79 2.96217 2.32233 0
M  V30 11491 C 1095.94 2.53548 1.12288 0
M  V30 11492 H 1098.89 1.57598 0.186685 0
M  V30 11493 H 1098.91 2.72925 2.65127 0
M  V30 11494 H 1098.42 3.71682 1.11687 0
M  V30 11495 H 1096.52 2.1646 3.03275 0
M  V30 11496 H 1096.64 4.00511 2.62922 0
M  V30 11497 H 1095 2.07457 1.47763 0
M  V30 11498 H 1095.78 3.40181 0.461731 0
M  V30 11499 N 1098.23 -0.663929 1.42933 0
M  V30 11500 C 1099.16 -1.78946 1.43217 0
M  V30 11501 C 1100.17 -1.59426 0.329727 0
M  V30 11502 O 1101.36 -1.68344 0.5935 0
M  V30 11503 C 1098.46 -3.16217 1.21902 0
M  V30 11504 C 1097.64 -3.6249 2.44785 0
M  V30 11505 C 1096.69 -4.78529 2.18853 0
M  V30 11506 O 1095.72 -4.88516 2.92131 0
M  V30 11507 N 1096.92 -5.67994 1.19845 0
M  V30 11508 H 1099.69 -1.79184 2.40236 0
M  V30 11509 H 1097.25 -0.847404 1.37952 0
M  V30 11510 H 1099.24 -3.91517 1.02454 0
M  V30 11511 H 1097.81 -3.10814 0.333676 0
M  V30 11512 H 1097.03 -2.77751 2.79729 0
M  V30 11513 H 1098.32 -3.90151 3.26588 0
M  V30 11514 H 1097.72 -5.62588 0.59259 0
M  V30 11515 H 1096.27 -6.4306 1.06382 0
M  V30 11516 N 1099.71 -1.29285 -0.901281 0
M  V30 11517 C 1100.67 -1.14283 -1.98676 0
M  V30 11518 C 1101.67 -0.0787641 -1.60607 0
M  V30 11519 O 1102.86 -0.325574 -1.71131 0
M  V30 11520 C 1099.99 -0.747279 -3.32609 0
M  V30 11521 H 1101.18 -2.10701 -2.13413 0
M  V30 11522 H 1098.74 -1.12449 -1.08558 0
M  V30 11523 H 1099.47 0.217111 -3.23572 0
M  V30 11524 H 1099.26 -1.51608 -3.61604 0
M  V30 11525 H 1100.75 -0.665322 -4.12266 0
M  V30 11526 N 1101.18 1.11143 -1.11736 0
M  V30 11527 C 1102.15 2.15456 -0.78174 0
M  V30 11528 C 1103.15 1.59547 0.200383 0
M  V30 11529 O 1104.34 1.74183 -0.0244893 0
M  V30 11530 C 1101.47 3.40523 -0.160364 0
M  V30 11531 H 1102.66 2.46658 -1.70586 0
M  V30 11532 H 1100.22 1.26381 -0.919644 0
M  V30 11533 H 1100.95 3.14932 0.773835 0
M  V30 11534 H 1100.74 3.82386 -0.867378 0
M  V30 11535 H 1102.23 4.17559 0.0582175 0
M  V30 11536 N 1102.66 0.908147 1.28804 0
M  V30 11537 C 1103.63 0.397058 2.25735 0
M  V30 11538 C 1104.63 -0.473483 1.53671 0
M  V30 11539 O 1105.82 -0.277335 1.71978 0
M  V30 11540 C 1102.95 -0.431392 3.38159 0
M  V30 11541 H 1104.14 1.25323 2.72459 0
M  V30 11542 H 1101.69 0.687041 1.4039 0
M  V30 11543 H 1102.43 -1.3072 2.96787 0
M  V30 11544 H 1102.21 0.192502 3.91627 0
M  V30 11545 H 1103.7 -0.78 4.10251 0
M  V30 11546 N 1104.14 -1.42577 0.671525 0
M  V30 11547 C 1105.38 -2.03455 0.196271 0
M  V30 11548 C 1105.74 -1.51934 -1.17389 0
M  V30 11549 O 1106.95 -2.04577 -1.74361 0
M  V30 11550 C 1105.22 -3.56687 0.225624 0
M  V30 11551 S 1106.78 -4.38434 -0.179107 0
M  V30 11552 H 1103.59 -0.706371 0.0809995 0
M  V30 11553 H 1106.2 -1.74375 0.883948 0
M  V30 11554 H 1104.9 -3.91684 1.22524 0
M  V30 11555 H 1104.43 -3.90436 -0.481994 0
M  V30 11556 H 1106.45 -4.75646 -1.41332 0
M  V30 11557 N 1105.62 -0.414636 -1.52048 0
M  V30 11558 C 1106.58 0.396285 -2.25748 0
M  V30 11559 C 1107.58 0.969003 -1.28324 0
M  V30 11560 O 1108.77 0.847016 -1.52221 0
M  V30 11561 C 1105.9 1.55838 -3.03195 0
M  V30 11562 H 1107.1 -0.249311 -2.98862 0
M  V30 11563 H 1104.65 -0.167276 -1.55402 0
M  V30 11564 H 1105.38 2.24068 -2.34444 0
M  V30 11565 H 1105.17 1.15414 -3.74729 0
M  V30 11566 H 1106.66 2.13187 -3.59084 0
M  V30 11567 N 1107.1 1.56929 -0.145233 0
M  V30 11568 C 1108.51 1.82877 0.375884 0
M  V30 11569 C 1108.86 1.06384 1.64854 0
M  V30 11570 O 1107.98 0.30857 2.14189 0
M  V30 11571 C 1108.58 3.31725 0.688744 0
M  V30 11572 C 1107.14 3.58261 1.15439 0
M  V30 11573 C 1106.28 2.76737 0.176565 0
M  V30 11574 H 1109.24 1.54328 -0.36996 0
M  V30 11575 H 1109.26 3.47784 1.54359 0
M  V30 11576 H 1108.77 3.87371 -0.237694 0
M  V30 11577 H 1106.87 3.08 2.09683 0
M  V30 11578 H 1106.98 4.66732 1.08158 0
M  V30 11579 H 1105.35 2.45761 0.668843 0
M  V30 11580 H 1106.13 3.35154 -0.743432 0
M  V30 11581 N 1108.58 -0.128553 1.57075 0
M  V30 11582 C 1109.85 -0.867766 1.75297 0
M  V30 11583 C 1110.23 -1.98508 0.718176 0
M  V30 11584 O 1109.58 -2.2702 -0.259616 0
M  V30 11585 C 1109.79 -1.39326 3.19983 0
M  V30 11586 C 1111.14 -1.84939 3.82208 0
M  V30 11587 O 1112.16 -1.49027 3.23527 0
M  V30 11588 O 1111.02 -2.51227 4.85332 0
M  V30 11589 H 1108.12 -0.411393 0.717415 0
M  V30 11590 H 1110.66 -0.113038 1.69323 0
M  V30 11591 H 1109.43 -0.591172 3.86809 0
M  V30 11592 H 1109.06 -2.21097 3.30457 0
M  V30 11593 N 1110.05 -1.5248 -0.398459 0
M  V30 11594 C 1110.98 -1.79549 -1.49279 0
M  V30 11595 C 1111.96 -0.647004 -1.57315 0
M  V30 11596 O 1113.15 -0.893661 -1.72416 0
M  V30 11597 C 1110.28 -1.95582 -2.86993 0
M  V30 11598 C 1109.23 -3.1123 -2.93803 0
M  V30 11599 C 1108.56 -3.12501 -4.33874 0
M  V30 11600 C 1109.86 -4.50485 -2.64312 0
M  V30 11601 H 1111.55 -2.71187 -1.26877 0
M  V30 11602 H 1109.1 -1.30492 -0.608924 0
M  V30 11603 H 1111.05 -2.13102 -3.63546 0
M  V30 11604 H 1109.78 -1.00625 -3.10712 0
M  V30 11605 H 1108.44 -2.93477 -2.19697 0
M  V30 11606 H 1108.08 -2.15245 -4.54619 0
M  V30 11607 H 1107.78 -3.90183 -4.39353 0
M  V30 11608 H 1109.31 -3.32164 -5.12347 0
M  V30 11609 H 1110.72 -4.68387 -3.30585 0
M  V30 11610 H 1109.12 -5.30163 -2.81153 0
M  V30 11611 H 1110.19 -4.57848 -1.59696 0
M  V30 11612 N 1111.53 0.65634 -1.43283 0
M  V30 11613 C 1112.94 1.23744 -1.39801 0
M  V30 11614 C 1113.29 1.95942 -0.100507 0
M  V30 11615 O 1112.42 2.01063 0.800161 0
M  V30 11616 C 1113.01 2.25062 -2.53244 0
M  V30 11617 C 1111.57 2.78657 -2.53036 0
M  V30 11618 C 1110.72 1.53251 -2.31105 0
M  V30 11619 H 1113.67 0.448553 -1.52229 0
M  V30 11620 H 1113.69 3.07174 -2.24553 0
M  V30 11621 H 1113.2 1.72487 -3.47664 0
M  V30 11622 H 1111.3 3.35304 -1.62487 0
M  V30 11623 H 1111.42 3.26414 -3.507 0
M  V30 11624 H 1109.78 1.80487 -1.79713 0
M  V30 11625 H 1110.56 1.02615 -3.27605 0
M  V30 11626 N 1113.01 1.29761 0.894412 0
M  V30 11627 C 1113.97 1.15335 1.98067 0
M  V30 11628 C 1114.97 0.0872804 1.60563 0
M  V30 11629 O 1116.16 0.334645 1.70955 0
M  V30 11630 C 1113.29 0.764907 3.32208 0
M  V30 11631 H 1114.49 2.11829 2.12293 0
M  V30 11632 H 1112.04 1.13023 1.0796 0
M  V30 11633 H 1112.78 -0.199948 3.23683 0
M  V30 11634 H 1112.56 1.53523 3.60795 0
M  V30 11635 H 1114.05 0.687176 4.11907 0
M  V30 11636 N 1114.49 -1.10549 1.12324 0
M  V30 11637 C 1115.73 -1.82485 0.877817 0
M  V30 11638 C 1116.06 -1.85131 -0.596373 0
M  V30 11639 O 1115.32 -1.30675 -1.45679 0
M  V30 11640 C 1115.62 -3.28997 1.39626 0
M  V30 11641 C 1115.28 -3.465 2.88529 0
M  V30 11642 C 1113.94 -3.50984 3.29186 0
M  V30 11643 C 1116.3 -3.51991 3.84385 0
M  V30 11644 C 1113.62 -3.58525 4.6441 0
M  V30 11645 C 1115.98 -3.61065 5.19437 0
M  V30 11646 C 1114.64 -3.63813 5.5964 0
M  V30 11647 H 1113.91 -0.667758 0.321216 0
M  V30 11648 H 1116.56 -1.30314 1.40323 0
M  V30 11649 H 1114.86 -3.83726 0.791291 0
M  V30 11650 H 1116.56 -3.83165 1.18259 0
M  V30 11651 H 1113.15 -3.43686 2.56082 0
M  V30 11652 H 1117.33 -3.47777 3.54069 0
M  V30 11653 H 1112.59 -3.58934 4.94951 0
M  V30 11654 H 1116.76 -3.64257 5.9354 0
M  V30 11655 H 1114.39 -3.69409 6.6441 0
M  V30 11656 N 1115.97 -0.914965 -1.28321 0
M  V30 11657 C 1117.19 -0.564023 -1.99583 0
M  V30 11658 C 1117.62 0.847821 -1.6791 0
M  V30 11659 O 1116.97 1.56682 -0.912171 0
M  V30 11660 C 1117.02 -0.781368 -3.52033 0
M  V30 11661 O 1116.13 0.159072 -4.12093 0
M  V30 11662 H 1115.47 -0.218565 -0.626997 0
M  V30 11663 H 1118 -1.23074 -1.63444 0
M  V30 11664 H 1118.01 -0.691946 -4.0209 0
M  V30 11665 H 1116.68 -1.81059 -3.7442 0
M  V30 11666 H 1115.26 0.0208145 -3.72894 0
M  V30 11667 N 1117.44 1.42219 -0.679077 0
M  V30 11668 C 1118.39 2.27992 0.0194379 0
M  V30 11669 C 1119.38 1.41317 0.769313 0
M  V30 11670 O 1120.57 1.64731 0.647521 0
M  V30 11671 C 1117.7 3.29401 0.966945 0
M  V30 11672 C 1116.78 4.23559 0.214187 0
M  V30 11673 N 1117.18 4.99699 -0.783226 0
M  V30 11674 C 1115.47 4.43703 0.452026 0
M  V30 11675 C 1116.17 5.68496 -1.23237 0
M  V30 11676 N 1115.15 5.40692 -0.561484 0
M  V30 11677 H 1118.95 2.84287 -0.745542 0
M  V30 11678 H 1116.47 1.54234 -0.508504 0
M  V30 11679 H 1118.46 3.89655 1.48238 0
M  V30 11680 H 1117.12 2.74667 1.7317 0
M  V30 11681 H 1118.13 5.04675 -1.16291 0
M  V30 11682 H 1114.81 4.00004 1.19595 0
M  V30 11683 H 1116.2 6.3957 -2.05912 0
M  V30 11684 N 1118.92 0.422693 1.51826 0
M  V30 11685 C 1120.17 -0.148348 2.01555 0
M  V30 11686 C 1120.49 -1.44483 1.30956 0
M  V30 11687 O 1119.76 -1.90904 0.439599 0
M  V30 11688 H 1118.34 -0.0578116 0.74476 0
M  V30 11689 H 1121 0.562046 1.8662 0
M  V30 11690 H 1120.1 -0.334766 3.10299 0
M  V30 11691 N 1120.4 -1.5685 0.153553 0
M  V30 11692 C 1121.65 -1.95946 -0.494936 0
M  V30 11693 C 1121.97 -1.03975 -1.64967 0
M  V30 11694 O 1121.24 -0.102572 -1.95631 0
M  V30 11695 H 1119.82 -0.723516 -0.185833 0
M  V30 11696 H 1122.48 -1.93531 0.230585 0
M  V30 11697 H 1121.58 -2.99823 -0.866743 0
M  V30 11698 N 1121.88 0.120221 -1.57141 0
M  V30 11699 C 1123.12 0.828222 -1.84788 0
M  V30 11700 C 1123.45 1.79936 -0.738459 0
M  V30 11701 O 1122.71 1.93824 0.270295 0
M  V30 11702 C 1123.01 1.61338 -3.18912 0
M  V30 11703 C 1122.67 0.786637 -4.43985 0
M  V30 11704 C 1121.33 0.558645 -4.77946 0
M  V30 11705 C 1123.69 0.210281 -5.20776 0
M  V30 11706 C 1121.01 -0.255975 -5.86141 0
M  V30 11707 C 1123.37 -0.591523 -6.29828 0
M  V30 11708 C 1122.03 -0.829843 -6.62322 0
M  V30 11709 H 1121.3 0.303068 -0.676188 0
M  V30 11710 H 1123.95 0.0906538 -1.91285 0
M  V30 11711 H 1122.25 2.42182 -3.07986 0
M  V30 11712 H 1123.95 2.16513 -3.37525 0
M  V30 11713 H 1120.54 0.974426 -4.17376 0
M  V30 11714 H 1124.72 0.373641 -4.94892 0
M  V30 11715 H 1119.98 -0.449849 -6.09743 0
M  V30 11716 H 1124.15 -1.04512 -6.88513 0
M  V30 11717 H 1121.78 -1.4629 -7.45992 0
M  V30 11718 N 1123.36 1.52689 0.390367 0
M  V30 11719 C 1124.58 1.71839 1.16129 0
M  V30 11720 C 1125.01 0.435226 1.82996 0
M  V30 11721 O 1124.36 -0.60889 1.70769 0
M  V30 11722 C 1124.41 2.86784 2.18603 0
M  V30 11723 O 1123.52 2.53662 3.25161 0
M  V30 11724 H 1122.86 0.571455 0.338135 0
M  V30 11725 H 1125.39 1.99475 0.45508 0
M  V30 11726 H 1125.4 3.12239 2.62622 0
M  V30 11727 H 1124.07 3.79872 1.69322 0
M  V30 11728 H 1122.65 2.38942 2.86289 0
M  V30 11729 N 1124.83 -0.648732 1.43629 0
M  V30 11730 C 1125.78 -1.75473 1.45579 0
M  V30 11731 C 1126.77 -1.57611 0.323683 0
M  V30 11732 O 1127.96 -1.67646 0.56778 0
M  V30 11733 C 1125.09 -3.14083 1.38589 0
M  V30 11734 C 1124.18 -3.37477 2.56846 0
M  V30 11735 N 1124.57 -3.31322 3.82177 0
M  V30 11736 C 1122.86 -3.68212 2.51666 0
M  V30 11737 C 1123.57 -3.54921 4.60875 0
M  V30 11738 N 1122.54 -3.76951 3.91675 0
M  V30 11739 H 1126.34 -1.69146 2.40347 0
M  V30 11740 H 1123.86 -0.850566 1.38344 0
M  V30 11741 H 1125.85 -3.93374 1.38068 0
M  V30 11742 H 1124.51 -3.21588 0.448442 0
M  V30 11743 H 1125.53 -3.10633 4.144 0
M  V30 11744 H 1122.2 -3.82806 1.66631 0
M  V30 11745 H 1123.59 -3.55904 5.69897 0
M  V30 11746 N 1126.31 -1.30234 -0.887518 0
M  V30 11747 C 1127.26 -1.16302 -2.01436 0
M  V30 11748 C 1128.25 -0.0755422 -1.69231 0
M  V30 11749 O 1129.46 -0.236213 -1.78443 0
M  V30 11750 H 1125.84 -0.35961 -0.660443 0
M  V30 11751 H 1127.81 -2.11677 -2.10322 0
M  V30 11752 C 1126.56 -0.869009 -3.36665 0
M  V30 11753 H 1125.88 -1.69787 -3.61956 0
M  V30 11754 H 1127.32 -0.811621 -4.16159 0
M  V30 11755 C 1125.78 0.428021 -3.3417 0
M  V30 11756 O 1126.31 1.45033 -3.74604 0
M  V30 11757 N 1124.51 0.438264 -2.87276 0
M  V30 11758 H 1124.06 -0.394142 -2.54567 0
M  V30 11759 H 1124.02 1.30604 -2.85989 0
M  V30 11760 O 1127.83 1.02351 -1.24926 0
M  V30 11761 H 1128.52 1.64072 -1.02957 0
M  V30 END ATOM
M  V30 BEGIN BOND
M  V30 END BOND
M  V30 END CTAB
M  END
$$$$
