drugbank_target|P77444 Cysteine desulfurase (DB02345; DB02761; DB03049; DB04217)
 OpenBabel12092119553D

  0  0  0     0  0            999 V3000
M  V30 BEGIN CTAB
M  V30 COUNTS 6217 6288 0 0 0
M  V30 BEGIN ATOM
M  V30 1 H -0.908 1.98254 -0.117106 0
M  V30 2 N 0 1.576 0 0
M  V30 3 C 0.933 2.03868 1.02534 0
M  V30 4 C 1.911 0.928543 1.3348 0
M  V30 5 O 3.095 1.19667 1.45644 0
M  V30 6 C 0.222 2.43627 2.35294 0
M  V30 7 C -0.732 3.65373 2.2001 0
M  V30 8 S 0.101 5.13292 1.52614 0
M  V30 9 C 1.257 5.56322 2.86805 0
M  V30 10 H 1.49 2.90518 0.631377 0
M  V30 11 H -0.977 1.52953 0.210867 0
M  V30 12 H 0.981 2.67203 3.11629 0
M  V30 13 H -0.358 1.57376 2.7183 0
M  V30 14 H -1.165 3.90944 3.18086 0
M  V30 15 H -1.563 3.418 1.51819 0
M  V30 16 H 0.729 5.58782 3.83104 0
M  V30 17 H 1.672 6.56266 2.65933 0
M  V30 18 H 2.08 4.83886 2.90714 0
M  V30 19 N 1.4781 -0.272755 1.55222 0
M  V30 20 C 2.7271 -1.00211 1.75045 0
M  V30 21 C 3.0401 -1.87441 0.559046 0
M  V30 22 O 4.2461 -2.63856 0.639698 0
M  V30 23 C 2.7021 -1.83165 3.09804 0
M  V30 24 C 2.3101 -1.008 4.36513 0
M  V30 25 C 4.0541 -2.55529 3.38977 0
M  V30 26 C 1.9611 -1.83194 5.62311 0
M  V30 27 H 0.8911 -0.377878 0.652476 0
M  V30 28 H 3.5421 -0.257776 1.8168 0
M  V30 29 H 1.9241 -2.61694 2.97207 0
M  V30 30 H 3.0981 -0.266855 4.60027 0
M  V30 31 H 1.4131 -0.398897 4.14485 0
M  V30 32 H 4.0101 -3.17578 4.30172 0
M  V30 33 H 4.3531 -3.25825 2.59121 0
M  V30 34 H 4.8861 -1.84029 3.52673 0
M  V30 35 H 1.6251 -1.17318 6.44916 0
M  V30 36 H 1.1451 -2.54905 5.4294 0
M  V30 37 H 2.8241 -2.40552 6.00619 0
M  V30 38 N 2.9562 -1.48159 -0.537278 0
M  V30 39 C 4.2032 -1.55804 -1.29349 0
M  V30 40 C 4.5312 -0.228802 -1.9315 0
M  V30 41 O 3.7862 0.780242 -1.79473 0
M  V30 42 C 4.0852 -2.63956 -2.40961 0
M  V30 43 C 3.7512 -4.0662 -1.94861 0
M  V30 44 C 2.4132 -4.45452 -1.82006 0
M  V30 45 C 4.7652 -4.96055 -1.59933 0
M  V30 46 C 2.0932 -5.71531 -1.32547 0
M  V30 47 C 4.4452 -6.22617 -1.11939 0
M  V30 48 C 3.1092 -6.60312 -0.976951 0
M  V30 49 H 2.3792 -0.570129 -0.473322 0
M  V30 50 H 5.0262 -1.81845 -0.600372 0
M  V30 51 H 3.3312 -2.31747 -3.15912 0
M  V30 52 H 5.0282 -2.67089 -2.99107 0
M  V30 53 H 1.6182 -3.75949 -2.05815 0
M  V30 54 H 5.8022 -4.66738 -1.68728 0
M  V30 55 H 1.0582 -5.99468 -1.202 0
M  V30 56 H 5.2322 -6.91318 -0.839811 0
M  V30 57 H 2.8592 -7.57895 -0.591501 0
M  V30 58 N 4.4343 0.785586 -1.36625 0
M  V30 59 C 5.6593 1.57963 -1.34397 0
M  V30 60 C 6.0843 1.87964 0.071526 0
M  V30 61 O 5.4423 1.48182 1.0446 0
M  V30 62 C 5.4903 2.87511 -2.17646 0
M  V30 63 O 4.5943 3.81281 -1.57158 0
M  V30 64 H 3.9353 0.479014 -0.459828 0
M  V30 65 H 6.4653 0.973411 -1.79961 0
M  V30 66 H 6.4753 3.36745 -2.30362 0
M  V30 67 H 5.1503 2.65002 -3.20541 0
M  V30 68 H 3.7273 3.39885 -1.53403 0
M  V30 69 N 5.9124 1.20967 1.01018 0
M  V30 70 C 7.1584 1.02526 1.74975 0
M  V30 71 C 7.4914 -0.4408 1.89131 0
M  V30 72 O 6.7664 -1.32718 1.42184 0
M  V30 73 C 7.0494 1.71699 3.1653 0
M  V30 74 C 6.9024 3.25791 3.10129 0
M  V30 75 C 8.2214 1.45531 4.15342 0
M  V30 76 H 5.3404 0.373863 0.635134 0
M  V30 77 H 7.9824 1.49071 1.17805 0
M  V30 78 H 6.1324 1.32128 3.65341 0
M  V30 79 H 7.8044 3.74697 2.69072 0
M  V30 80 H 6.0474 3.56363 2.47362 0
M  V30 81 H 6.7184 3.69353 4.10222 0
M  V30 82 H 9.1944 1.79872 3.75213 0
M  V30 83 H 8.0704 1.96453 5.1254 0
M  V30 84 H 8.3314 0.384237 4.40427 0
M  V30 85 N 7.3905 -1.2043 1.01659 0
M  V30 86 C 8.6675 -1.8548 0.621004 0
M  V30 87 C 9.0475 -1.9091 -0.900919 0
M  V30 88 O 8.3955 -1.41694 -1.79263 0
M  V30 89 C 8.6055 -3.25119 1.2688 0
M  V30 90 C 9.9535 -4.01403 1.38423 0
M  V30 91 O 10.9775 -3.34473 1.22501 0
M  V30 92 O 9.8365 -5.21265 1.64151 0
M  V30 93 H 6.9305 -0.798761 0.214266 0
M  V30 94 H 9.4765 -1.28019 1.11396 0
M  V30 95 H 8.2485 -3.15932 2.30873 0
M  V30 96 H 7.8715 -3.90212 0.762917 0
M  V30 97 N 8.8686 -0.792821 -1.36206 0
M  V30 98 C 9.8156 -0.191653 -2.30003 0
M  V30 99 C 10.7856 0.666453 -1.52143 0
M  V30 100 O 11.9706 0.61442 -1.80636 0
M  V30 101 C 9.1106 0.664848 -3.38635 0
M  V30 102 C 8.2236 -0.212175 -4.31479 0
M  V30 103 C 7.3586 0.651022 -5.27196 0
M  V30 104 C 6.3976 -0.227247 -6.11678 0
M  V30 105 N 5.5346 0.595127 -6.99573 0
M  V30 106 H 10.3746 -0.996978 -2.80828 0
M  V30 107 H 7.9116 -0.503206 -1.38225 0
M  V30 108 H 9.8696 1.17645 -4.00269 0
M  V30 109 H 8.4996 1.43557 -2.89122 0
M  V30 110 H 7.5516 -0.841777 -3.70969 0
M  V30 111 H 8.8636 -0.888751 -4.90818 0
M  V30 112 H 8.0176 1.2283 -5.94136 0
M  V30 113 H 6.7566 1.36121 -4.68319 0
M  V30 114 H 5.7616 -0.816904 -5.43697 0
M  V30 115 H 6.9866 -0.93509 -6.72631 0
M  V30 116 H 4.9326 1.28955 -6.432 0
M  V30 117 H 4.8496 -0.0236952 -7.55996 0
M  V30 118 H 6.1176 1.15613 -7.70879 0
M  V30 119 N 10.3467 1.47872 -0.545128 0
M  V30 120 C 11.5927 2.02793 -0.0166104 0
M  V30 121 C 11.9257 1.41987 1.32489 0
M  V30 122 O 11.2007 0.571045 1.85928 0
M  V30 123 C 11.4837 3.59989 0.0893294 0
M  V30 124 C 11.3367 4.3125 -1.27841 0
M  V30 125 C 12.6557 4.32606 0.808724 0
M  V30 126 H 9.7747 0.736962 -0.00751035 0
M  V30 127 H 12.4167 1.76433 -0.705085 0
M  V30 128 H 10.5667 3.82579 0.675681 0
M  V30 129 H 12.2387 4.20035 -1.90704 0
M  V30 130 H 10.4817 3.92076 -1.85632 0
M  V30 131 H 11.1527 5.39736 -1.15713 0
M  V30 132 H 13.6287 4.14936 0.310992 0
M  V30 133 H 12.5047 5.42251 0.851782 0
M  V30 134 H 12.7657 4.00963 1.86229 0
M  V30 135 N 11.8248 0.280983 1.55075 0
M  V30 136 C 13.2408 -0.0729964 1.59433 0
M  V30 137 C 13.4408 -1.5411 1.29817 0
M  V30 138 O 12.4968 -2.29086 1.06187 0
M  V30 139 C 13.8098 0.306921 2.9913 0
M  V30 140 C 15.3578 0.254023 3.11968 0
M  V30 141 C 15.8328 0.608467 4.5394 0
M  V30 142 N 17.3238 0.560241 4.59799 0
M  V30 143 C 18.0588 0.80722 5.6769 0
M  V30 144 N 17.5548 1.11912 6.83701 0
M  V30 145 N 19.3478 0.735623 5.57266 0
M  V30 146 H 11.4988 1.238 1.7259 0
M  V30 147 H 13.7618 0.500547 0.805082 0
M  V30 148 H 13.4678 1.32816 3.25657 0
M  V30 149 H 13.3418 -0.349363 3.75579 0
M  V30 150 H 15.7288 -0.75794 2.852 0
M  V30 151 H 15.8098 0.944649 2.37718 0
M  V30 152 H 15.4538 1.61814 4.81434 0
M  V30 153 H 15.3838 -0.104013 5.26497 0
M  V30 154 H 17.8748 0.329288 3.76463 0
M  V30 155 H 18.1878 1.29409 7.61888 0
M  V30 156 H 16.5328 1.15695 6.85303 0
M  V30 157 H 19.7238 0.491752 4.6551 0
M  V30 158 H 19.8968 0.931482 6.4127 0
M  V30 159 N 13.3029 -1.57598 0.00835791 0
M  V30 160 C 14.2659 -2.07884 -0.965242 0
M  V30 161 C 15.2659 -0.989825 -1.26725 0
M  V30 162 O 16.4559 -1.25218 -1.21104 0
M  V30 163 C 13.5879 -2.52731 -2.28779 0
M  V30 164 H 14.7809 -2.95178 -0.530112 0
M  V30 165 H 12.3339 -1.54458 -0.239283 0
M  V30 166 H 13.0689 -1.68705 -2.76964 0
M  V30 167 H 12.8539 -3.32272 -2.08177 0
M  V30 168 H 14.3439 -2.91933 -2.98605 0
M  V30 169 N 14.781 0.264519 -1.55364 0
M  V30 170 C 16.058 1.01677 -1.67096 0
M  V30 171 C 16.438 2.03996 -0.543015 0
M  V30 172 O 15.786 2.23907 0.45585 0
M  V30 173 C 15.996 1.66596 -3.0667 0
M  V30 174 C 17.344 2.17442 -3.64697 0
M  V30 175 O 18.368 1.76568 -3.09358 0
M  V30 176 O 17.227 2.92439 -4.61673 0
M  V30 177 H 14.321 0.472161 -0.678965 0
M  V30 178 H 16.867 0.259703 -1.67701 0
M  V30 179 H 15.639 0.924962 -3.80211 0
M  V30 180 H 15.262 2.48968 -3.10001 0
M  V30 181 N 16.2591 1.48442 0.529413 0
M  V30 182 C 17.5061 1.56488 1.28521 0
M  V30 183 C 17.8341 0.239042 1.93025 0
M  V30 184 O 17.0891 -0.770713 1.79885 0
M  V30 185 C 17.3881 2.6523 2.39558 0
M  V30 186 C 17.0541 4.07648 1.92702 0
M  V30 187 C 15.7161 4.46411 1.79641 0
M  V30 188 C 18.0681 4.96896 1.573 0
M  V30 189 C 15.3961 5.72226 1.29514 0
M  V30 190 C 17.7481 6.23202 1.08636 0
M  V30 191 C 16.4121 6.60821 0.941919 0
M  V30 192 H 15.6821 0.572631 0.470292 0
M  V30 193 H 18.3291 1.82161 0.59072 0
M  V30 194 H 16.6341 2.33419 3.14679 0
M  V30 195 H 18.3311 2.68671 2.97686 0
M  V30 196 H 14.9211 3.77036 2.03819 0
M  V30 197 H 19.1051 4.67626 1.66251 0
M  V30 198 H 14.3611 6.00097 1.17019 0
M  V30 199 H 18.5351 6.91753 0.803136 0
M  V30 200 H 16.1621 7.58198 0.5513 0
M  V30 201 N 17.7372 -0.778329 1.37039 0
M  V30 202 C 19.1482 -1.35421 1.28523 0
M  V30 203 C 19.4992 -1.96075 -0.0700901 0
M  V30 204 O 18.6242 -1.93352 -0.971801 0
M  V30 205 C 19.2192 -2.46211 2.32735 0
M  V30 206 C 17.7782 -2.99585 2.27873 0
M  V30 207 C 16.9252 -1.72748 2.16918 0
M  V30 208 H 19.8762 -0.5791 1.47757 0
M  V30 209 H 19.8972 -3.2552 1.9702 0
M  V30 210 H 19.4092 -2.02036 3.31365 0
M  V30 211 H 17.5102 -3.48152 1.32745 0
M  V30 212 H 17.6232 -3.55646 3.21018 0
M  V30 213 H 15.9872 -1.95416 1.63354 0
M  V30 214 H 16.7702 -1.30686 3.17452 0
M  V30 215 N 19.2153 -1.21501 -1.00376 0
M  V30 216 C 20.4613 -1.03452 -1.74429 0
M  V30 217 C 20.7943 0.430764 -1.89362 0
M  V30 218 O 20.0693 1.31962 -1.42886 0
M  V30 219 C 20.3523 -1.73375 -3.15615 0
M  V30 220 C 20.2053 -3.27431 -3.08397 0
M  V30 221 C 21.5243 -1.47732 -4.14564 0
M  V30 222 H 18.6433 -0.377226 -0.633143 0
M  V30 223 H 21.2853 -1.49693 -1.17013 0
M  V30 224 H 19.4353 -1.34064 -3.64636 0
M  V30 225 H 21.1073 -3.76119 -2.67081 0
M  V30 226 H 19.3503 -3.5767 -2.45468 0
M  V30 227 H 20.0213 -3.71524 -4.08258 0
M  V30 228 H 22.4973 -1.8186 -3.74254 0
M  V30 229 H 21.3733 -1.99169 -5.11491 0
M  V30 230 H 21.6343 -0.407589 -4.40217 0
M  V30 231 N 20.6934 1.19889 -1.02296 0
M  V30 232 C 21.6234 2.25141 -0.619174 0
M  V30 233 C 22.6044 1.66051 0.368915 0
M  V30 234 O 23.7894 1.92546 0.252941 0
M  V30 235 C 20.9194 3.4728 0.0368783 0
M  V30 236 C 19.8734 4.19005 -0.872865 0
M  V30 237 C 19.1994 5.34637 -0.0822402 0
M  V30 238 C 20.4994 4.74452 -2.18387 0
M  V30 239 H 22.1934 2.59171 -1.49903 0
M  V30 240 H 19.7394 1.24579 -0.722222 0
M  V30 241 H 21.6924 4.20098 0.330958 0
M  V30 242 H 20.4164 3.12433 0.95149 0
M  V30 243 H 19.0754 3.48061 -1.15105 0
M  V30 244 H 18.7234 4.96034 0.83422 0
M  V30 245 H 18.4234 5.83557 -0.688149 0
M  V30 246 H 19.9474 6.10255 0.205238 0
M  V30 247 H 21.3614 5.39055 -1.95172 0
M  V30 248 H 19.7584 5.33834 -2.74119 0
M  V30 249 H 20.8284 3.92844 -2.84257 0
M  V30 250 N 22.1715 0.800033 1.35784 0
M  V30 251 C 23.3965 0.388511 2.03729 0
M  V30 252 C 23.8215 -0.990481 1.5991 0
M  V30 253 O 23.1795 -1.64013 0.772612 0
M  V30 254 C 23.2275 0.4726 3.5749 0
M  V30 255 O 22.3315 -0.51646 4.09153 0
M  V30 256 H 21.6725 0.163271 0.643614 0
M  V30 257 H 24.2025 1.0841 1.73518 0
M  V30 258 H 24.2125 0.34003 4.06581 0
M  V30 259 H 22.8875 1.47848 3.88734 0
M  V30 260 H 21.4645 -0.344673 3.71304 0
M  V30 261 N 23.6496 -1.47581 0.552962 0
M  V30 262 C 25.0656 -1.5818 0.212424 0
M  V30 263 C 25.2656 -1.55213 -1.28496 0
M  V30 264 O 24.3216 -1.45329 -2.06484 0
M  V30 265 C 25.6346 -2.88865 0.835318 0
M  V30 266 C 27.1826 -3.0244 0.806156 0
M  V30 267 C 27.6576 -4.35819 1.40804 0
M  V30 268 N 29.1486 -4.42444 1.37103 0
M  V30 269 C 29.8836 -5.44202 1.80641 0
M  V30 270 N 29.3796 -6.52795 2.32015 0
M  V30 271 N 31.1726 -5.35222 1.71738 0
M  V30 272 H 23.3236 -1.47753 1.52587 0
M  V30 273 H 25.5866 -0.702941 0.636064 0
M  V30 274 H 25.2926 -2.9676 1.88749 0
M  V30 275 H 25.1666 -3.7579 0.325848 0
M  V30 276 H 27.5536 -2.94144 -0.237317 0
M  V30 277 H 27.6346 -2.17068 1.35334 0
M  V30 278 H 27.2786 -4.44871 2.45056 0
M  V30 279 H 27.2086 -5.19916 0.836338 0
M  V30 280 H 29.6996 -3.6456 0.995202 0
M  V30 281 H 30.0126 -7.26609 2.63171 0
M  V30 282 H 28.3576 -6.53696 2.36023 0
M  V30 283 H 31.5486 -4.49284 1.31382 0
M  V30 284 H 31.7216 -6.14389 2.05987 0
M  V30 285 N 25.1277 -0.289203 -1.54924 0
M  V30 286 C 26.0377 0.601863 -2.26748 0
M  V30 287 C 27.0537 1.15834 -1.2984 0
M  V30 288 O 28.2297 1.18564 -1.62802 0
M  V30 289 C 25.2947 1.76299 -2.98529 0
M  V30 290 C 24.3557 1.24178 -4.10948 0
M  V30 291 C 23.5887 2.34757 -4.79296 0
M  V30 292 O 23.8117 3.54411 -4.46933 0
M  V30 293 O 22.7457 2.02115 -5.66951 0
M  V30 294 H 26.5717 0.0195879 -3.03694 0
M  V30 295 H 24.1567 -0.0560868 -1.49295 0
M  V30 296 H 26.0387 2.43973 -3.43592 0
M  V30 297 H 24.7137 2.33209 -2.24488 0
M  V30 298 H 23.6207 0.531104 -3.70311 0
M  V30 299 H 24.9537 0.718252 -4.86931 0
M  V30 300 N 26.6058 1.57591 -0.0167156 0
M  V30 301 C 27.8518 1.91567 0.665582 0
M  V30 302 C 28.1848 0.892298 1.72487 0
M  V30 303 O 27.4598 -0.0867127 1.94307 0
M  V30 304 C 27.7428 3.36069 1.29342 0
M  V30 305 C 27.5958 4.49135 0.244541 0
M  V30 306 C 28.9148 3.803 2.21495 0
M  V30 307 H 26.0338 0.69666 0.240488 0
M  V30 308 H 28.6758 1.89866 -0.0714356 0
M  V30 309 H 26.8258 3.3765 1.92158 0
M  V30 310 H 28.4978 4.59689 -0.385228 0
M  V30 311 H 26.7408 4.3165 -0.431379 0
M  V30 312 H 27.4118 5.47242 0.723207 0
M  V30 313 H 29.8878 3.80377 1.68678 0
M  V30 314 H 28.7638 4.82127 2.62382 0
M  V30 315 H 29.0248 3.15104 3.101 0
M  V30 316 N 28.0839 -0.256276 1.55502 0
M  V30 317 C 29.0319 -1.33694 1.90338 0
M  V30 318 C 30.0259 -1.50299 0.781441 0
M  V30 319 O 31.2319 -1.51885 0.965966 0
M  V30 320 H 27.6069 -0.447483 0.60437 0
M  V30 321 H 29.5779 -1.01574 2.8058 0
M  V30 322 C 28.3269 -2.68724 2.20642 0
M  V30 323 H 27.6499 -2.56743 3.06469 0
M  V30 324 H 29.0899 -3.43237 2.48926 0
M  V30 325 C 27.5489 -3.21101 1.01959 0
M  V30 326 O 28.0789 -4.0084 0.262762 0
M  V30 327 N 26.2849 -2.79003 0.812746 0
M  V30 328 H 25.8319 -2.14271 1.42989 0
M  V30 329 H 25.7899 -3.14393 0.0203076 0
M  V30 330 N 29.562 -1.4872 -0.521534 0
M  V30 331 C 30.81 -1.56857 -1.27437 0
M  V30 332 C 31.131 -0.247982 -1.93417 0
M  V30 333 O 30.401 0.731151 -1.81744 0
M  V30 334 H 28.981 -0.577885 -0.473347 0
M  V30 335 H 31.643 -1.85233 -0.606205 0
M  V30 336 H 30.739 -2.35402 -2.0492 0
M  V30 337 N 31.0401 0.771051 -1.3745 0
M  V30 338 C 31.9701 1.89827 -1.3597 0
M  V30 339 C 32.9511 1.68562 -0.228216 0
M  V30 340 O 34.1361 1.8941 -0.428675 0
M  V30 341 C 31.2661 3.2712 -1.16662 0
M  V30 342 C 30.2201 3.6295 -2.2683 0
M  V30 343 C 29.5461 4.98791 -1.92644 0
M  V30 344 C 30.8461 3.69627 -3.69017 0
M  V30 345 H 32.5401 1.91323 -2.30295 0
M  V30 346 H 30.0861 0.919082 -1.10855 0
M  V30 347 H 32.0391 4.05615 -1.14256 0
M  V30 348 H 30.7631 3.26059 -0.187926 0
M  V30 349 H 29.4221 2.86763 -2.28392 0
M  V30 350 H 29.0701 4.94271 -0.933021 0
M  V30 351 H 28.7701 5.23733 -2.66416 0
M  V30 352 H 30.2941 5.79685 -1.91826 0
M  V30 353 H 31.7081 4.38273 -3.69581 0
M  V30 354 H 30.1051 4.06067 -4.41848 0
M  V30 355 H 31.1751 2.70273 -4.02592 0
M  V30 356 N 32.5182 1.22032 0.997298 0
M  V30 357 C 33.9292 1.0397 1.55071 0
M  V30 358 C 34.2802 -0.398192 1.92117 0
M  V30 359 O 33.4052 -1.28254 1.74298 0
M  V30 360 C 34.0002 1.88109 2.81781 0
M  V30 361 C 32.5592 1.74357 3.33581 0
M  V30 362 C 31.7062 1.84846 2.06706 0
M  V30 363 H 34.6572 1.35941 0.818883 0
M  V30 364 H 34.6782 1.39589 3.53971 0
M  V30 365 H 34.1902 2.92754 2.54787 0
M  V30 366 H 32.2912 0.72427 3.65493 0
M  V30 367 H 32.4042 2.56772 4.04481 0
M  V30 368 H 30.7682 1.28238 2.20062 0
M  V30 369 H 31.5512 2.91014 1.82114 0
M  V30 370 N 33.9963 -1.19345 1.0293 0
M  V30 371 C 34.9263 -2.2481 0.631105 0
M  V30 372 C 35.9073 -1.66245 -0.360104 0
M  V30 373 O 37.0923 -1.92677 -0.242726 0
M  V30 374 C 34.2223 -3.47295 -0.0184607 0
M  V30 375 C 33.1763 -4.18536 0.895073 0
M  V30 376 C 32.5023 -5.34586 0.110592 0
M  V30 377 C 33.8023 -4.73287 2.209 0
M  V30 378 H 35.4963 -2.58372 1.51275 0
M  V30 379 H 33.0423 -1.24194 0.728818 0
M  V30 380 H 34.9953 -4.20268 -0.308675 0
M  V30 381 H 33.7193 -3.12933 -0.934907 0
M  V30 382 H 32.3783 -3.47446 1.16949 0
M  V30 383 H 32.0263 -4.96469 -0.807902 0
M  V30 384 H 31.7263 -5.83183 0.719087 0
M  V30 385 H 33.2503 -6.10355 -0.172871 0
M  V30 386 H 34.6643 -5.38013 1.98028 0
M  V30 387 H 33.0613 -5.32373 2.76946 0
M  V30 388 H 34.1313 -3.91331 2.86336 0
M  V30 389 N 35.4744 -0.807222 -1.35358 0
M  V30 390 C 36.4374 -0.223665 -2.28106 0
M  V30 391 C 37.4374 0.589354 -1.4961 0
M  V30 392 O 38.6274 0.407745 -1.69361 0
M  V30 393 C 35.7594 0.688149 -3.33882 0
M  V30 394 H 36.9524 -1.04169 -2.81227 0
M  V30 395 H 34.5054 -0.577921 -1.45223 0
M  V30 396 H 35.2404 1.52984 -2.85948 0
M  V30 397 H 35.0254 0.10687 -3.91954 0
M  V30 398 H 36.5154 1.09075 -4.03104 0
M  V30 399 N 36.9525 1.47285 -0.560781 0
M  V30 400 C 38.1825 2.06555 -0.0429638 0
M  V30 401 C 38.5905 1.41339 1.25777 0
M  V30 402 O 37.9335 0.505182 1.76617 0
M  V30 403 C 37.9955 3.58827 0.219887 0
M  V30 404 C 37.6595 4.46105 -0.991944 0
M  V30 405 C 38.6565 4.84 -1.89843 0
M  V30 406 C 36.3415 4.87567 -1.20762 0
M  V30 407 C 38.3355 5.6216 -3.00425 0
M  V30 408 C 36.0225 5.65491 -2.31653 0
M  V30 409 C 37.0205 6.02699 -3.21315 0
M  V30 410 O 36.7085 6.79052 -4.30283 0
M  V30 411 H 36.4405 0.674537 -0.0444468 0
M  V30 412 H 38.9945 1.90225 -0.774818 0
M  V30 413 H 37.2245 3.73383 1.00609 0
M  V30 414 H 38.9135 4.00103 0.683522 0
M  V30 415 H 39.6795 4.52564 -1.74387 0
M  V30 416 H 35.5585 4.5807 -0.518893 0
M  V30 417 H 39.1025 5.9112 -3.70436 0
M  V30 418 H 34.9995 5.9634 -2.47081 0
M  V30 419 H 35.7675 6.9745 -4.28376 0
M  V30 420 N 38.4306 0.297415 1.54768 0
M  V30 421 C 39.3606 -0.573494 2.26348 0
M  V30 422 C 40.3416 -1.14085 1.26169 0
M  V30 423 O 41.5266 -1.17086 1.54934 0
M  V30 424 C 38.6566 -1.74716 3.00153 0
M  V30 425 C 37.6106 -1.31032 4.07449 0
M  V30 426 C 36.9366 -2.56887 4.68949 0
M  V30 427 C 38.2366 -0.444183 5.20408 0
M  V30 428 H 39.9306 0.0235131 2.99391 0
M  V30 429 H 37.4766 0.0127488 1.43994 0
M  V30 430 H 39.4296 -2.3625 3.48947 0
M  V30 431 H 38.1536 -2.37035 2.24682 0
M  V30 432 H 36.8126 -0.718066 3.59499 0
M  V30 433 H 36.4606 -3.17512 3.90122 0
M  V30 434 H 36.1606 -2.2836 5.41411 0
M  V30 435 H 37.6846 -3.19229 5.20505 0
M  V30 436 H 39.0986 -0.9651 5.65118 0
M  V30 437 H 37.4956 -0.252846 5.99567 0
M  V30 438 H 38.5656 0.531609 4.81977 0
M  V30 439 N 39.9087 -1.5758 0.0250728 0
M  V30 440 C 41.1857 -1.82917 -0.692873 0
M  V30 441 C 41.5657 -0.908137 -1.90568 0
M  V30 442 O 40.9137 0.0372298 -2.2847 0
M  V30 443 C 41.1237 -3.32034 -1.07492 0
M  V30 444 C 42.4717 -3.98406 -1.46826 0
M  V30 445 O 43.4957 -3.36505 -1.16801 0
M  V30 446 O 42.3547 -5.07497 -2.02754 0
M  V30 447 H 39.4487 -0.754079 -0.33955 0
M  V30 448 H 41.9947 -1.69619 0.0524456 0
M  V30 449 H 40.7667 -3.90728 -0.211552 0
M  V30 450 H 40.3897 -3.50424 -1.87854 0
M  V30 451 N 41.3868 0.248026 -1.55636 0
M  V30 452 C 42.6118 0.998028 -1.81808 0
M  V30 453 C 43.0368 1.78207 -0.601979 0
M  V30 454 O 42.3948 1.75653 0.448961 0
M  V30 455 C 42.4428 1.9125 -3.05705 0
M  V30 456 O 41.5468 3.00406 -2.82542 0
M  V30 457 H 40.8878 0.284045 -0.600179 0
M  V30 458 H 43.4178 0.269357 -2.02819 0
M  V30 459 H 43.4278 2.32737 -3.35108 0
M  V30 460 H 42.1028 1.33602 -3.93857 0
M  V30 461 H 40.6798 2.63056 -2.64303 0
M  V30 462 N 42.8649 1.48995 0.513639 0
M  V30 463 C 43.8279 1.64229 1.59879 0
M  V30 464 C 44.8279 0.514696 1.5234 0
M  V30 465 O 46.0179 0.78087 1.55718 0
M  V30 466 C 43.1499 1.62783 2.99524 0
M  V30 467 H 44.3429 2.61004 1.47705 0
M  V30 468 H 41.8959 1.37837 0.736936 0
M  V30 469 H 42.6309 0.675461 3.17188 0
M  V30 470 H 42.4159 2.4466 3.06404 0
M  V30 471 H 43.9059 1.76669 3.78388 0
M  V30 472 N 44.343 -0.763751 1.37857 0
M  V30 473 C 45.306 -1.85889 1.34081 0
M  V30 474 C 46.306 -1.58949 0.243277 0
M  V30 475 O 47.496 -1.66882 0.499589 0
M  V30 476 C 44.628 -3.23176 1.08489 0
M  V30 477 H 45.821 -1.90648 2.31502 0
M  V30 478 H 43.374 -0.964367 1.23003 0
M  V30 479 H 44.109 -3.24091 0.116318 0
M  V30 480 H 43.894 -3.44124 1.8794 0
M  V30 481 H 45.384 -4.03254 1.08517 0
M  V30 482 N 45.8211 -1.22559 -0.990812 0
M  V30 483 C 47.0461 -1.07862 -1.77145 0
M  V30 484 C 47.4711 0.366447 -1.84496 0
M  V30 485 O 46.8291 1.26478 -1.29896 0
M  V30 486 C 46.8771 -1.69686 -3.18181 0
M  V30 487 O 45.9811 -0.951946 -4.01263 0
M  V30 488 H 45.3221 -0.378712 -0.545411 0
M  V30 489 H 47.8521 -1.62399 -1.2445 0
M  V30 490 H 47.8621 -1.74496 -3.68802 0
M  V30 491 H 46.5371 -2.74841 -3.12146 0
M  V30 492 H 45.1141 -0.980011 -3.59792 0
M  V30 493 N 47.2992 1.18797 -1.03562 0
M  V30 494 C 48.2622 2.20464 -0.626769 0
M  V30 495 C 49.2622 1.57721 0.313173 0
M  V30 496 O 50.4522 1.73917 0.0992615 0
M  V30 497 C 47.5842 3.40802 0.0818498 0
M  V30 498 H 48.7772 2.58149 -1.5264 0
M  V30 499 H 46.3302 1.32593 -0.827578 0
M  V30 500 H 47.0652 3.08642 0.995518 0
M  V30 501 H 46.8502 3.8758 -0.593652 0
M  V30 502 H 48.3402 4.16092 0.354584 0
M  V30 503 N 48.7773 0.814389 1.34928 0
M  V30 504 C 49.7093 0.187834 2.28429 0
M  V30 505 C 50.7223 -0.617374 1.5064 0
M  V30 506 O 51.9113 -0.448454 1.72775 0
M  V30 507 C 49.0113 -0.755962 3.30361 0
M  V30 508 C 48.1843 0.00456686 4.374 0
M  V30 509 C 47.2433 -0.858876 5.19143 0
M  V30 510 O 46.2693 -0.306968 5.68372 0
M  V30 511 N 47.4713 -2.17988 5.38016 0
M  V30 512 H 50.2363 0.991105 2.82838 0
M  V30 513 H 47.7973 0.670561 1.4736 0
M  V30 514 H 49.7893 -1.338 3.81942 0
M  V30 515 H 48.3593 -1.46001 2.7641 0
M  V30 516 H 47.5793 0.767865 3.86649 0
M  V30 517 H 48.8673 0.528422 5.06049 0
M  V30 518 H 48.2653 -2.65212 4.99679 0
M  V30 519 H 46.8223 -2.71098 5.92747 0
M  V30 520 N 50.2554 -1.46986 0.568584 0
M  V30 521 C 51.2024 -2.30153 -0.172707 0
M  V30 522 C 52.1724 -1.39759 -0.897586 0
M  V30 523 O 53.3574 -1.68716 -0.891044 0
M  V30 524 C 50.4974 -3.23952 -1.1895 0
M  V30 525 C 49.6104 -4.29441 -0.469517 0
M  V30 526 C 48.7454 -5.1038 -1.47259 0
M  V30 527 C 47.7844 -6.07632 -0.738225 0
M  V30 528 N 46.9214 -6.8149 -1.68868 0
M  V30 529 H 51.7614 -2.93019 0.542596 0
M  V30 530 H 49.2984 -1.44422 0.279401 0
M  V30 531 H 51.2564 -3.76767 -1.79173 0
M  V30 532 H 49.8864 -2.62926 -1.87269 0
M  V30 533 H 48.9384 -3.79594 0.247467 0
M  V30 534 H 50.2504 -4.98689 0.105241 0
M  V30 535 H 49.4044 -5.67402 -2.14803 0
M  V30 536 H 48.1434 -4.4106 -2.08128 0
M  V30 537 H 47.1484 -5.49778 -0.0489293 0
M  V30 538 H 48.3734 -6.78966 -0.135129 0
M  V30 539 H 46.3194 -6.14891 -2.28573 0
M  V30 540 H 46.2364 -7.46948 -1.16636 0
M  V30 541 H 47.5044 -7.43078 -2.3549 0
M  V30 542 N 51.7335 -0.305618 -1.54608 0
M  V30 543 C 53.1445 0.186098 -1.8577 0
M  V30 544 C 53.4955 1.53058 -1.22751 0
M  V30 545 O 52.6205 2.09888 -0.526893 0
M  V30 546 C 53.2155 0.344449 -3.37044 0
M  V30 547 C 51.7745 0.780384 -3.68221 0
M  V30 548 C 50.9215 -0.108554 -2.77087 0
M  V30 549 H 53.8725 -0.526485 -1.49712 0
M  V30 550 H 53.8935 1.17828 -3.61796 0
M  V30 551 H 53.4055 -0.634235 -3.82883 0
M  V30 552 H 51.5065 1.76945 -3.27904 0
M  V30 553 H 51.6195 0.596572 -4.75371 0
M  V30 554 H 49.9835 0.412931 -2.5133 0
M  V30 555 H 50.7665 -1.08368 -3.25747 0
M  V30 556 N 53.2116 1.57565 -0.0334293 0
M  V30 557 C 54.4366 1.96689 0.657895 0
M  V30 558 C 54.8616 0.910057 1.64619 0
M  V30 559 O 54.2196 -0.128598 1.80843 0
M  V30 560 C 54.2676 3.34905 1.33683 0
M  V30 561 O 53.3716 3.31574 2.45219 0
M  V30 562 H 52.7126 0.641205 0.172489 0
M  V30 563 H 55.2426 2.04372 -0.0965621 0
M  V30 564 H 55.2526 3.71234 1.69262 0
M  V30 565 H 53.9276 4.11366 0.612411 0
M  V30 566 H 52.5046 3.06968 2.11719 0
M  V30 567 N 54.6897 -0.239769 1.55765 0
M  V30 568 C 55.6217 -1.32001 1.87372 0
M  V30 569 C 56.6347 -1.43944 0.760522 0
M  V30 570 O 57.8237 -1.45167 1.0387 0
M  V30 571 C 54.9237 -2.69779 2.05115 0
M  V30 572 C 54.0967 -2.80014 3.36022 0
M  V30 573 C 53.1557 -3.98684 3.4342 0
M  V30 574 O 52.1817 -3.87877 4.16582 0
M  V30 575 N 53.3837 -5.12176 2.73232 0
M  V30 576 H 56.1487 -1.0522 2.80622 0
M  V30 577 H 53.7097 -0.429857 1.56089 0
M  V30 578 H 55.7017 -3.47517 2.07399 0
M  V30 579 H 54.2717 -2.89237 1.18577 0
M  V30 580 H 53.4917 -1.88896 3.45994 0
M  V30 581 H 54.7797 -2.83808 4.22292 0
M  V30 582 H 54.1777 -5.2385 2.13536 0
M  V30 583 H 52.7347 -5.88022 2.81199 0
M  V30 584 N 56.1678 -1.49265 -0.50573 0
M  V30 585 C 57.4138 -1.58748 -1.26202 0
M  V30 586 C 57.7468 -0.271227 -1.92297 0
M  V30 587 O 57.0218 0.724831 -1.80489 0
M  V30 588 C 57.3048 -2.74332 -2.33268 0
M  V30 589 C 57.1578 -4.15737 -1.71705 0
M  V30 590 C 58.4768 -2.85576 -3.34865 0
M  V30 591 H 55.5958 -0.577826 -0.457478 0
M  V30 592 H 58.2378 -1.81532 -0.560897 0
M  V30 593 H 56.3878 -2.55036 -2.93068 0
M  V30 594 H 58.0598 -4.46537 -1.15769 0
M  V30 595 H 56.3028 -4.21605 -1.02135 0
M  V30 596 H 56.9738 -4.92477 -2.49341 0
M  V30 597 H 59.4498 -3.03127 -2.8505 0
M  V30 598 H 58.3258 -3.68135 -4.07146 0
M  V30 599 H 58.5868 -1.94732 -3.96903 0
M  V30 600 N 57.6459 0.756429 -1.3826 0
M  V30 601 C 58.8949 1.51082 -1.3363 0
M  V30 602 C 59.2079 1.95467 0.0720068 0
M  V30 603 O 60.4139 2.7043 0.240834 0
M  V30 604 C 58.8699 2.72893 -2.34644 0
M  V30 605 C 58.4779 2.35544 -3.81081 0
M  V30 606 C 60.2219 3.50791 -2.39052 0
M  V30 607 C 58.1289 3.53948 -4.73787 0
M  V30 608 H 57.0589 0.56727 -0.49671 0
M  V30 609 H 59.7099 0.827147 -1.638 0
M  V30 610 H 58.0919 3.43227 -1.97513 0
M  V30 611 H 59.2659 1.72894 -4.27135 0
M  V30 612 H 57.5809 1.70786 -3.79764 0
M  V30 613 H 60.1779 4.38823 -3.05513 0
M  V30 614 H 60.5209 3.91745 -1.40861 0
M  V30 615 H 61.0539 2.87467 -2.74968 0
M  V30 616 H 57.7929 3.18064 -5.73163 0
M  V30 617 H 57.3129 4.15651 -4.32428 0
M  V30 618 H 58.9919 4.20566 -4.91663 0
M  V30 619 N 59.124 1.23083 0.984299 0
M  V30 620 C 60.401 0.9689 1.69917 0
M  V30 621 C 60.781 -0.513604 2.04757 0
M  V30 622 O 60.129 -1.48383 1.73767 0
M  V30 623 C 60.339 1.87518 2.94343 0
M  V30 624 C 61.687 2.13636 3.6694 0
M  V30 625 O 62.711 1.85036 3.04368 0
M  V30 626 O 61.57 2.62119 4.79537 0
M  V30 627 H 58.664 0.365095 0.742048 0
M  V30 628 H 61.21 1.34107 1.03987 0
M  V30 629 H 59.982 2.87756 2.65164 0
M  V30 630 H 59.605 1.50514 3.6801 0
M  V30 631 N 60.6021 -1.18246 1.0419 0
M  V30 632 C 61.5651 -2.20128 0.638452 0
M  V30 633 C 62.5651 -1.57885 -0.304805 0
M  V30 634 O 63.7551 -1.73967 -0.0900369 0
M  V30 635 C 60.8871 -3.4084 -0.0637751 0
M  V30 636 H 62.0801 -2.57336 1.54007 0
M  V30 637 H 59.6331 -1.32152 0.834598 0
M  V30 638 H 60.3681 -3.09166 -0.979136 0
M  V30 639 H 60.1531 -3.8726 0.614198 0
M  V30 640 H 61.6431 -4.16274 -0.332512 0
M  V30 641 N 62.0802 -0.821533 -1.34494 0
M  V30 642 C 62.9902 -0.244355 -2.33324 0
M  V30 643 C 64.0062 0.620527 -1.62559 0
M  V30 644 O 65.1822 0.528754 -1.94335 0
M  V30 645 C 62.2472 0.585368 -3.41723 0
M  V30 646 C 61.3082 -0.301752 -4.28238 0
M  V30 647 C 60.5412 0.488466 -5.3146 0
M  V30 648 O 60.7642 1.72186 -5.4379 0
M  V30 649 O 59.6982 -0.12848 -6.01763 0
M  V30 650 H 63.5242 -1.06231 -2.84515 0
M  V30 651 H 61.1092 -0.583645 -1.37528 0
M  V30 652 H 62.9912 1.05747 -4.07916 0
M  V30 653 H 61.6662 1.38068 -2.92778 0
M  V30 654 H 60.5732 -0.821315 -3.64973 0
M  V30 655 H 61.9062 -1.06138 -4.8062 0
M  V30 656 N 63.5583 1.46682 -0.576371 0
M  V30 657 C 64.5213 2.28707 0.150239 0
M  V30 658 C 65.5213 1.38035 0.824794 0
M  V30 659 O 66.7113 1.60476 0.677719 0
M  V30 660 C 63.8433 3.18248 1.22192 0
M  V30 661 H 65.0363 2.94423 -0.570521 0
M  V30 662 H 62.5893 1.52688 -0.334078 0
M  V30 663 H 63.3243 2.57265 1.97447 0
M  V30 664 H 63.1093 3.85 0.742812 0
M  V30 665 H 64.5993 3.80001 1.73172 0
M  V30 666 N 65.0364 0.313813 1.54444 0
M  V30 667 C 65.9464 -0.565714 2.27677 0
M  V30 668 C 66.9624 -1.13754 1.31666 0
M  V30 669 O 68.1384 -1.15959 1.64668 0
M  V30 670 C 65.2034 -1.71528 3.01296 0
M  V30 671 C 64.2644 -1.17624 4.12872 0
M  V30 672 C 63.4974 -2.27102 4.8297 0
M  V30 673 O 63.7204 -3.47256 4.52514 0
M  V30 674 O 62.6544 -1.9307 5.70094 0
M  V30 675 H 66.4804 0.0287296 3.03686 0
M  V30 676 H 64.0654 0.0798312 1.49187 0
M  V30 677 H 65.9474 -2.38476 3.4743 0
M  V30 678 H 64.6224 -2.29608 2.2817 0
M  V30 679 H 63.5294 -0.472124 3.71109 0
M  V30 680 H 64.8624 -0.640695 4.88012 0
M  V30 681 N 66.5145 -1.57545 0.0417849 0
M  V30 682 C 67.7615 -1.92317 -0.634082 0
M  V30 683 C 68.0895 -0.919334 -1.71402 0
M  V30 684 O 67.3445 0.0698253 -1.95575 0
M  V30 685 C 67.6435 -3.33794 -1.27735 0
M  V30 686 C 67.3095 -4.49716 -0.326543 0
M  V30 687 C 65.9715 -4.81156 -0.0648814 0
M  V30 688 C 68.3235 -5.20182 0.325623 0
M  V30 689 C 65.6515 -5.80414 0.856539 0
M  V30 690 C 68.0035 -6.20424 1.23518 0
M  V30 691 C 66.6675 -6.50298 1.5056 0
M  V30 692 H 65.9375 -0.703736 -0.232027 0
M  V30 693 H 68.5845 -1.91205 0.106259 0
M  V30 694 H 66.8895 -3.31228 -2.09274 0
M  V30 695 H 68.5865 -3.57975 -1.80707 0
M  V30 696 H 65.1765 -4.25176 -0.540665 0
M  V30 697 H 69.3605 -4.96112 0.136546 0
M  V30 698 H 64.6165 -6.019 1.07363 0
M  V30 699 H 68.7905 -6.74141 1.74664 0
M  V30 700 H 66.4175 -7.27025 2.22123 0
M  V30 701 N 67.9926 0.231505 -1.5589 0
M  V30 702 C 69.2226 0.973092 -1.82248 0
M  V30 703 C 69.6306 1.78845 -0.617328 0
M  V30 704 O 68.9736 1.78752 0.423499 0
M  V30 705 C 69.0356 1.94732 -3.02192 0
M  V30 706 C 68.6996 1.31743 -4.37599 0
M  V30 707 C 69.6966 0.712238 -5.14998 0
M  V30 708 C 67.3816 1.33218 -4.84312 0
M  V30 709 C 69.3756 0.130195 -6.37267 0
M  V30 710 C 67.0626 0.746286 -6.06526 0
M  V30 711 C 68.0606 0.146337 -6.82843 0
M  V30 712 O 67.7486 -0.430465 -8.02747 0
M  V30 713 H 67.4806 0.29125 -0.61004 0
M  V30 714 H 70.0346 0.254915 -2.03812 0
M  V30 715 H 68.2646 2.70422 -2.76422 0
M  V30 716 H 69.9536 2.55362 -3.15508 0
M  V30 717 H 70.7196 0.69324 -4.8002 0
M  V30 718 H 66.5986 1.78854 -4.24891 0
M  V30 719 H 70.1426 -0.33871 -6.96777 0
M  V30 720 H 66.0396 0.762663 -6.40979 0
M  V30 721 H 66.8076 -0.323818 -8.17859 0
M  V30 722 N 69.4707 1.49531 0.497807 0
M  V30 723 C 70.8867 1.36365 0.829266 0
M  V30 724 C 71.0867 0.399184 1.97506 0
M  V30 725 O 70.1427 -0.167977 2.51941 0
M  V30 726 C 71.4557 2.77153 1.16647 0
M  V30 727 C 73.0037 2.85877 1.27449 0
M  V30 728 C 73.4787 4.2744 1.64497 0
M  V30 729 N 74.9697 4.30265 1.7154 0
M  V30 730 C 75.7047 5.3677 2.01656 0
M  V30 731 N 75.2007 6.53516 2.29976 0
M  V30 732 N 76.9937 5.24189 2.02934 0
M  V30 733 H 69.1447 2.10831 -0.257703 0
M  V30 734 H 71.4077 0.946534 -0.0527091 0
M  V30 735 H 71.1137 3.49442 0.397872 0
M  V30 736 H 70.9877 3.12722 2.10915 0
M  V30 737 H 73.3747 2.13824 2.0338 0
M  V30 738 H 73.4557 2.53887 0.312244 0
M  V30 739 H 73.0997 5.00021 0.891151 0
M  V30 740 H 73.0297 4.56896 2.61827 0
M  V30 741 H 75.5207 3.4607 1.51802 0
M  V30 742 H 75.8337 7.30506 2.52153 0
M  V30 743 H 74.1787 6.56737 2.27425 0
M  V30 744 H 77.3697 4.31988 1.80289 0
M  V30 745 H 77.5427 6.07286 2.26071 0
M  V30 746 N 70.9488 -0.749086 1.3866 0
M  V30 747 C 71.8988 -1.85368 1.32751 0
M  V30 748 C 72.8828 -1.59511 0.210945 0
M  V30 749 O 74.0748 -1.71255 0.447299 0
M  V30 750 C 71.2038 -3.23131 1.15935 0
M  V30 751 C 70.2898 -3.54864 2.32233 0
M  V30 752 N 70.6808 -3.57625 3.57684 0
M  V30 753 C 68.9788 -3.85154 2.24883 0
M  V30 754 C 69.6798 -3.86753 4.34508 0
M  V30 755 N 68.6558 -4.03812 3.63918 0
M  V30 756 H 72.4578 -1.85787 2.27729 0
M  V30 757 H 69.9718 -0.946658 1.31955 0
M  V30 758 H 71.9688 -4.02185 1.09786 0
M  V30 759 H 70.6288 -3.23961 0.218947 0
M  V30 760 H 71.6398 -3.39276 3.91295 0
M  V30 761 H 68.3168 -3.93672 1.39027 0
M  V30 762 H 69.7068 -3.95474 5.43185 0
M  V30 763 N 72.4269 -1.23603 -0.977757 0
M  V30 764 C 73.6749 -1.06759 -1.71601 0
M  V30 765 C 73.9959 0.395929 -1.90938 0
M  V30 766 O 73.2659 1.28356 -1.47992 0
M  V30 767 H 71.8459 -0.392062 -0.635843 0
M  V30 768 H 74.5079 -1.55362 -1.1768 0
M  V30 769 H 73.6039 -1.55763 -2.70452 0
M  V30 770 N 73.905 1.17692 -1.04816 0
M  V30 771 C 75.135 1.91508 -0.775128 0
M  V30 772 C 75.543 1.76844 0.67253 0
M  V30 773 O 74.886 1.10057 1.47082 0
M  V30 774 C 74.948 3.43167 -1.0713 0
M  V30 775 C 74.612 3.81612 -2.51438 0
M  V30 776 C 75.609 3.84772 -3.49638 0
M  V30 777 C 73.294 4.12687 -2.86348 0
M  V30 778 C 75.288 4.18469 -4.80794 0
M  V30 779 C 72.975 4.46053 -4.17708 0
M  V30 780 C 73.973 4.48921 -5.14741 0
M  V30 781 O 73.661 4.81504 -6.43746 0
M  V30 782 H 73.393 0.614575 -0.281555 0
M  V30 783 H 75.947 1.50206 -1.40098 0
M  V30 784 H 74.177 3.84745 -0.388342 0
M  V30 785 H 75.866 3.98239 -0.784883 0
M  V30 786 H 76.632 3.60893 -3.24008 0
M  V30 787 H 72.511 4.09627 -2.11486 0
M  V30 788 H 76.055 4.20623 -5.56527 0
M  V30 789 H 71.952 4.69393 -4.43103 0
M  V30 790 H 72.72 4.99377 -6.4851 0
M  V30 791 N 75.3831 0.828654 1.34056 0
M  V30 792 C 76.3461 0.259927 2.27721 0
M  V30 793 C 77.3461 -0.565478 1.50529 0
M  V30 794 O 78.5361 -0.38075 1.69988 0
M  V30 795 C 75.6681 -0.634944 3.34935 0
M  V30 796 H 76.8611 1.0863 2.79534 0
M  V30 797 H 74.4141 0.600951 1.44285 0
M  V30 798 H 75.1491 -1.48416 2.88346 0
M  V30 799 H 74.9341 -0.0444999 3.92075 0
M  V30 800 H 76.4241 -1.02648 4.04788 0
M  V30 801 N 76.8612 -1.46375 0.584142 0
M  V30 802 C 77.8242 -2.28784 -0.138108 0
M  V30 803 C 78.8242 -1.38471 -0.817462 0
M  V30 804 O 80.0142 -1.60833 -0.669199 0
M  V30 805 C 77.1462 -3.18892 -1.20503 0
M  V30 806 H 78.3392 -2.94117 0.586127 0
M  V30 807 H 75.8922 -1.52509 0.342171 0
M  V30 808 H 76.6272 -2.58309 -1.96079 0
M  V30 809 H 76.4122 -3.85388 -0.722384 0
M  V30 810 H 77.9022 -3.80914 -1.71155 0
M  V30 811 N 78.3393 -0.321999 -1.54275 0
M  V30 812 C 79.5853 0.281461 -2.00837 0
M  V30 813 C 79.9183 1.51909 -1.20985 0
M  V30 814 O 79.1933 1.923 -0.291733 0
M  V30 815 C 79.4763 0.617162 -3.54772 0
M  V30 816 C 79.3293 -0.631064 -4.45351 0
M  V30 817 C 80.6483 1.43542 -4.16033 0
M  V30 818 H 77.7673 0.100826 -0.730071 0
M  V30 819 H 80.4093 -0.438268 -1.84876 0
M  V30 820 H 78.5593 1.23034 -3.68504 0
M  V30 821 H 80.2313 -1.26934 -4.43492 0
M  V30 822 H 78.4743 -1.26025 -4.15091 0
M  V30 823 H 79.1453 -0.351735 -5.50878 0
M  V30 824 H 81.6213 0.917134 -4.05867 0
M  V30 825 H 80.4973 1.63907 -5.23856 0
M  V30 826 H 80.7583 2.43108 -3.69257 0
M  V30 827 N 79.8174 1.5752 -0.0501392 0
M  V30 828 C 80.7674 2.07981 0.934231 0
M  V30 829 C 81.7514 0.984745 1.27246 0
M  V30 830 O 82.9434 1.24809 1.25506 0
M  V30 831 C 80.0724 2.62751 2.20945 0
M  V30 832 C 79.1584 3.79225 1.89865 0
M  V30 833 N 79.5494 4.89036 1.29142 0
M  V30 834 C 77.8474 3.88111 2.19741 0
M  V30 835 C 78.5484 5.70084 1.15669 0
M  V30 836 N 77.5244 5.17659 1.65923 0
M  V30 837 H 81.3264 2.90277 0.460053 0
M  V30 838 H 78.8404 1.61665 0.15434 0
M  V30 839 H 80.8374 2.97205 2.9236 0
M  V30 840 H 79.4974 1.81894 2.6897 0
M  V30 841 H 80.5084 5.08854 0.963756 0
M  V30 842 H 77.1854 3.18194 2.70293 0
M  V30 843 H 78.5754 6.68395 0.685356 0
M  V30 844 N 81.2955 -0.223234 1.56011 0
M  V30 845 C 82.7115 -0.572856 1.48965 0
M  V30 846 C 82.9115 -1.87225 0.74492 0
M  V30 847 O 81.9675 -2.50899 0.283896 0
M  V30 848 C 83.2805 -0.653646 2.9351 0
M  V30 849 C 84.8285 -0.744386 3.0402 0
M  V30 850 C 85.3035 -0.856535 4.49919 0
M  V30 851 N 86.7945 -0.9208 4.53955 0
M  V30 852 C 87.5295 -1.02726 5.64123 0
M  V30 853 N 87.0255 -1.09777 6.84047 0
M  V30 854 N 88.8185 -1.06226 5.51971 0
M  V30 855 H 80.9695 0.629462 2.02858 0
M  V30 856 H 83.2325 0.220621 0.921971 0
M  V30 857 H 82.9385 0.231518 3.50937 0
M  V30 858 H 82.8125 -1.51781 3.45315 0
M  V30 859 H 85.1995 -1.61999 2.46658 0
M  V30 860 H 85.2805 0.14541 2.55386 0
M  V30 861 H 84.9245 0.0146069 5.07898 0
M  V30 862 H 84.8545 -1.76172 4.96257 0
M  V30 863 H 87.3455 -0.876694 3.6759 0
M  V30 864 H 87.6585 -1.17872 7.63758 0
M  V30 865 H 86.0035 -1.06693 6.86762 0
M  V30 866 H 89.1945 -1.00382 4.5721 0
M  V30 867 H 89.3675 -1.14177 6.37862 0
M  V30 868 N 82.7736 -1.49793 -0.48987 0
M  V30 869 C 84.0216 -1.59525 -1.24081 0
M  V30 870 C 84.3426 -0.288953 -1.92847 0
M  V30 871 O 83.6126 0.692436 -1.83254 0
M  V30 872 H 82.1926 -0.587796 -0.460983 0
M  V30 873 H 84.8546 -1.86477 -0.566778 0
M  V30 874 H 83.9506 -2.39696 -1.99881 0
M  V30 875 N 84.2517 0.741722 -1.39055 0
M  V30 876 C 85.5007 1.49656 -1.35225 0
M  V30 877 C 85.8137 1.95533 0.0512708 0
M  V30 878 O 87.0197 2.7067 0.212138 0
M  V30 879 C 85.4757 2.70389 -2.37525 0
M  V30 880 C 85.0837 2.31489 -3.83558 0
M  V30 881 C 86.8277 3.48236 -2.42759 0
M  V30 882 C 84.7347 3.48903 -4.77515 0
M  V30 883 H 83.6647 0.56197 -0.502699 0
M  V30 884 H 86.3157 0.809727 -1.64668 0
M  V30 885 H 84.6977 3.41113 -2.01142 0
M  V30 886 H 85.8717 1.68354 -4.28945 0
M  V30 887 H 84.1867 1.66749 -3.81554 0
M  V30 888 H 86.7837 4.35558 -3.1015 0
M  V30 889 H 87.1267 3.90229 -1.45008 0
M  V30 890 H 87.6597 2.84535 -2.78002 0
M  V30 891 H 84.3987 3.11966 -5.76504 0
M  V30 892 H 83.9187 4.11041 -4.36813 0
M  V30 893 H 85.5977 4.15328 -4.96096 0
M  V30 894 N 85.7298 1.2412 0.971189 0
M  V30 895 C 86.6798 0.997551 2.05019 0
M  V30 896 C 87.6638 -0.0597747 1.60789 0
M  V30 897 O 88.8558 0.153516 1.76333 0
M  V30 898 C 85.9848 0.600557 3.38006 0
M  V30 899 C 85.0708 1.69377 3.88809 0
M  V30 900 N 85.4618 2.92586 4.12586 0
M  V30 901 C 83.7598 1.57048 4.17435 0
M  V30 902 C 84.4608 3.63431 4.54195 0
M  V30 903 N 83.4368 2.90979 4.59165 0
M  V30 904 H 87.2388 1.93316 2.21374 0
M  V30 905 H 84.7528 1.14194 1.1547 0
M  V30 906 H 86.7498 0.40725 4.14906 0
M  V30 907 H 85.4098 -0.327903 3.2304 0
M  V30 908 H 86.4208 3.288 4.00139 0
M  V30 909 H 83.0978 0.709798 4.11422 0
M  V30 910 H 84.4878 4.69102 4.81033 0
M  V30 911 N 87.2079 -1.17134 1.05439 0
M  V30 912 C 88.4359 -1.91372 0.786414 0
M  V30 913 C 88.8509 -1.76955 -0.658202 0
M  V30 914 O 88.2079 -1.10838 -1.44987 0
M  V30 915 C 88.2589 -3.42356 1.1608 0
M  V30 916 O 87.9799 -3.56332 2.54871 0
M  V30 917 C 89.4809 -4.33663 0.919322 0
M  V30 918 H 86.7009 -0.607118 0.285743 0
M  V30 919 H 89.2449 -1.48525 1.40572 0
M  V30 920 H 87.3999 -3.82939 0.586191 0
M  V30 921 H 87.8139 -4.49896 2.69618 0
M  V30 922 H 89.2879 -5.38099 1.231 0
M  V30 923 H 89.7649 -4.38959 -0.145359 0
M  V30 924 H 90.3709 -3.98796 1.47789 0
M  V30 925 N 88.686 -0.835752 -1.33615 0
M  V30 926 C 89.616 -0.281739 -2.31794 0
M  V30 927 C 90.597 0.608833 -1.58831 0
M  V30 928 O 91.782 0.533035 -1.86741 0
M  V30 929 C 88.912 0.546612 -3.42971 0
M  V30 930 C 87.866 -0.247904 -4.27281 0
M  V30 931 C 87.192 0.704001 -5.30045 0
M  V30 932 C 88.492 -1.46324 -5.01385 0
M  V30 933 H 90.186 -1.10206 -2.78379 0
M  V30 934 H 87.732 -0.531388 -1.33837 0
M  V30 935 H 89.685 0.944467 -4.1068 0
M  V30 936 H 88.409 1.40011 -2.95067 0
M  V30 937 H 87.068 -0.627281 -3.61194 0
M  V30 938 H 86.716 1.55381 -4.78399 0
M  V30 939 H 86.416 0.176524 -5.87335 0
M  V30 940 H 87.94 1.09944 -6.0062 0
M  V30 941 H 89.354 -1.13871 -5.61877 0
M  V30 942 H 87.751 -1.92728 -5.6831 0
M  V30 943 H 88.821 -2.23467 -4.30338 0
M  V30 944 N 90.1641 1.46063 -0.591896 0
M  V30 945 C 91.3891 2.07226 -0.0850314 0
M  V30 946 C 91.8141 1.43625 1.21463 0
M  V30 947 O 91.1721 0.523305 1.73583 0
M  V30 948 C 91.2201 3.60554 0.0576567 0
M  V30 949 O 90.3241 3.97128 1.11188 0
M  V30 950 H 89.6651 0.660615 -0.0669568 0
M  V30 951 H 92.1951 1.8756 -0.81745 0
M  V30 952 H 92.2051 4.07165 0.2609 0
M  V30 953 H 90.8801 4.06235 -0.891416 0
M  V30 954 H 89.4571 3.62213 0.886356 0
M  V30 955 N 91.6422 0.330177 1.54103 0
M  V30 956 C 92.6052 -0.520144 2.2322 0
M  V30 957 C 93.6052 -1.03828 1.22786 0
M  V30 958 O 94.7952 -0.929652 1.4732 0
M  V30 959 C 91.9272 -1.72317 2.94142 0
M  V30 960 H 93.1202 0.0841605 2.99782 0
M  V30 961 H 90.6732 0.0813433 1.56088 0
M  V30 962 H 91.4082 -2.36653 2.21734 0
M  V30 963 H 91.1932 -1.35898 3.67796 0
M  V30 964 H 92.6832 -2.3266 3.46784 0
M  V30 965 N 93.1203 -1.57491 0.0584922 0
M  V30 966 C 94.0523 -2.08916 -0.942694 0
M  V30 967 C 95.0653 -1.0185 -1.27006 0
M  V30 968 O 96.2543 -1.29398 -1.22957 0
M  V30 969 C 93.3543 -2.52341 -2.26224 0
M  V30 970 C 92.5273 -3.82827 -2.1157 0
M  V30 971 C 91.5863 -4.12487 -3.26712 0
M  V30 972 O 90.6123 -4.82295 -3.02292 0
M  V30 973 N 91.8143 -3.64978 -4.5141 0
M  V30 974 H 94.5793 -2.95437 -0.503722 0
M  V30 975 H 92.1403 -1.61397 -0.12757 0
M  V30 976 H 94.1323 -2.69254 -3.02133 0
M  V30 977 H 92.7023 -1.7103 -2.61663 0
M  V30 978 H 91.9223 -3.75425 -1.20208 0
M  V30 979 H 93.2103 -4.68263 -1.99015 0
M  V30 980 H 92.6083 -3.08558 -4.7414 0
M  V30 981 H 91.1653 -3.87115 -5.2439 0
M  V30 982 N 94.5984 0.214957 -1.56127 0
M  V30 983 C 95.5614 1.24997 -1.92116 0
M  V30 984 C 96.5614 1.39467 -0.800344 0
M  V30 985 O 97.7514 1.37619 -1.06802 0
M  V30 986 C 94.8834 2.62271 -2.17777 0
M  V30 987 H 96.0764 0.942875 -2.84693 0
M  V30 988 H 93.6294 0.455654 -1.49511 0
M  V30 989 H 94.3644 2.98068 -1.27773 0
M  V30 990 H 94.1494 2.53143 -2.99434 0
M  V30 991 H 95.6394 3.36946 -2.46693 0
M  V30 992 N 96.0765 1.50051 0.48192 0
M  V30 993 C 97.3045 1.64237 1.25832 0
M  V30 994 C 97.7195 0.321336 1.86045 0
M  V30 995 O 97.0765 -0.695478 1.68729 0
M  V30 996 C 97.1275 2.72548 2.37487 0
M  V30 997 O 96.8485 3.99529 1.79745 0
M  V30 998 C 98.3495 2.9761 3.28547 0
M  V30 999 H 95.5695 0.55237 0.380957 0
M  V30 1000 H 98.1135 1.96207 0.576467 0
M  V30 1001 H 96.2685 2.43303 3.01467 0
M  V30 1002 H 96.6825 4.59342 2.5319 0
M  V30 1003 H 98.1565 3.77084 4.03127 0
M  V30 1004 H 98.6335 2.0826 3.86684 0
M  V30 1005 H 99.2395 3.28345 2.70314 0
M  V30 1006 N 97.5546 -0.734337 1.39446 0
M  V30 1007 C 98.4646 -1.87879 1.40495 0
M  V30 1008 C 99.4806 -1.714 0.299672 0
M  V30 1009 O 100.657 -1.93991 0.541249 0
M  V30 1010 C 97.7216 -3.23477 1.24754 0
M  V30 1011 C 96.7826 -3.52344 2.45259 0
M  V30 1012 C 96.0156 -4.81473 2.30259 0
M  V30 1013 O 96.2386 -5.55237 1.30643 0
M  V30 1014 O 95.1726 -5.10254 3.19256 0
M  V30 1015 H 98.9986 -1.89949 2.36966 0
M  V30 1016 H 96.5836 -0.882243 1.20569 0
M  V30 1017 H 98.4656 -4.04509 1.18111 0
M  V30 1018 H 97.1406 -3.22176 0.313781 0
M  V30 1019 H 96.0476 -2.71396 2.57478 0
M  V30 1020 H 97.3806 -3.58426 3.37331 0
M  V30 1021 N 99.0327 -1.24633 -0.964593 0
M  V30 1022 C 99.9797 -1.04144 -2.05968 0
M  V30 1023 C 100.95 0.046262 -1.66036 0
M  V30 1024 O 102.135 -0.108972 -1.90489 0
M  V30 1025 C 99.2747 -0.65563 -3.38815 0
M  V30 1026 C 98.3877 -1.81714 -3.91923 0
M  V30 1027 C 97.5227 -1.37662 -5.13052 0
M  V30 1028 C 96.5617 -2.50788 -5.58365 0
M  V30 1029 N 95.6987 -2.07582 -6.70712 0
M  V30 1030 H 100.539 -1.9787 -2.22827 0
M  V30 1031 H 98.0757 -0.9855 -1.09208 0
M  V30 1032 H 100.034 -0.412954 -4.15151 0
M  V30 1033 H 98.6637 0.244627 -3.21872 0
M  V30 1034 H 97.7157 -2.1734 -3.12198 0
M  V30 1035 H 99.0277 -2.66705 -4.21509 0
M  V30 1036 H 98.1817 -1.093 -5.96773 0
M  V30 1037 H 96.9207 -0.497293 -4.85158 0
M  V30 1038 H 95.9257 -2.79906 -4.73215 0
M  V30 1039 H 97.1507 -3.39283 -5.88272 0
M  V30 1040 H 95.0967 -1.22051 -6.44546 0
M  V30 1041 H 95.0137 -2.86125 -6.99763 0
M  V30 1042 H 96.2817 -1.82369 -7.57867 0
M  V30 1043 N 100.511 1.16574 -1.06058 0
M  V30 1044 C 101.444 2.19798 -0.61352 0
M  V30 1045 C 102.422 1.58509 0.362453 0
M  V30 1046 O 103.606 1.86527 0.271994 0
M  V30 1047 C 100.733 3.3855 0.100915 0
M  V30 1048 C 99.7788 4.18317 -0.831438 0
M  V30 1049 S 100.612 4.82375 -2.32539 0
M  V30 1050 C 101.768 6.04508 -1.62238 0
M  V30 1051 H 102.001 2.5738 -1.48805 0
M  V30 1052 H 99.5338 1.27327 -0.873338 0
M  V30 1053 H 101.492 4.07358 0.506898 0
M  V30 1054 H 100.153 2.99338 0.951604 0
M  V30 1055 H 99.3458 5.03232 -0.278071 0
M  V30 1056 H 98.9478 3.5499 -1.17719 0
M  V30 1057 H 101.24 6.71133 -0.926622 0
M  V30 1058 H 102.183 6.64389 -2.44934 0
M  V30 1059 H 102.591 5.53559 -1.106 0
M  V30 1060 N 101.989 0.842826 1.3317 0
M  V30 1061 C 102.899 0.281444 2.32906 0
M  V30 1062 C 103.915 -0.594587 1.63526 0
M  V30 1063 O 105.091 -0.49777 1.95152 0
M  V30 1064 C 102.156 -0.530929 3.42611 0
M  V30 1065 C 101.217 0.369843 4.27704 0
M  V30 1066 C 100.45 -0.403853 5.3217 0
M  V30 1067 O 100.673 -1.63513 5.46461 0
M  V30 1068 O 99.6069 0.224199 6.01482 0
M  V30 1069 H 103.433 1.10744 2.82789 0
M  V30 1070 H 101.018 0.60545 1.36582 0
M  V30 1071 H 102.9 -0.992437 4.09547 0
M  V30 1072 H 101.575 -1.33392 2.94938 0
M  V30 1073 H 100.482 0.879275 3.6362 0
M  V30 1074 H 101.815 1.13771 4.78871 0
M  V30 1075 N 103.467 -1.45747 0.599634 0
M  V30 1076 C 104.415 -2.322 -0.136426 0
M  V30 1077 C 105.409 -1.45497 -0.867583 0
M  V30 1078 O 106.615 -1.62027 -0.78405 0
M  V30 1079 H 102.99 -0.749368 -0.0628588 0
M  V30 1080 H 104.961 -2.92072 0.611281 0
M  V30 1081 C 103.71 -3.28974 -1.12567 0
M  V30 1082 H 103.033 -3.9568 -0.572484 0
M  V30 1083 H 104.473 -3.92212 -1.61077 0
M  V30 1084 C 102.932 -2.55561 -2.19523 0
M  V30 1085 O 103.462 -2.33111 -3.27143 0
M  V30 1086 N 101.668 -2.15832 -1.94589 0
M  V30 1087 H 101.215 -2.3429 -1.07078 0
M  V30 1088 H 101.173 -1.67034 -2.66359 0
M  V30 1089 N 104.945 -0.338344 -1.53925 0
M  V30 1090 C 106.191 0.260143 -2.01125 0
M  V30 1091 C 106.524 1.50617 -1.22589 0
M  V30 1092 O 105.799 1.91979 -0.312113 0
M  V30 1093 C 106.082 0.579499 -3.55407 0
M  V30 1094 C 105.935 -0.678264 -4.44657 0
M  V30 1095 C 107.254 1.39122 -4.17532 0
M  V30 1096 H 104.373 0.0930772 -0.731099 0
M  V30 1097 H 107.015 -0.457852 -1.84401 0
M  V30 1098 H 105.165 1.19118 -3.69788 0
M  V30 1099 H 106.837 -1.31631 -4.42121 0
M  V30 1100 H 105.08 -1.3042 -4.13731 0
M  V30 1101 H 105.751 -0.410143 -5.50474 0
M  V30 1102 H 108.227 0.874035 -4.06817 0
M  V30 1103 H 107.103 1.58342 -5.25565 0
M  V30 1104 H 107.364 2.39178 -3.71815 0
M  V30 1105 N 106.423 1.57458 -0.0668435 0
M  V30 1106 C 107.839 1.56947 0.289772 0
M  V30 1107 C 108.039 1.07584 1.70376 0
M  V30 1108 O 107.095 0.739486 2.41429 0
M  V30 1109 C 108.408 3.0052 0.103943 0
M  V30 1110 C 109.956 3.12517 0.173857 0
M  V30 1111 C 110.431 4.57997 0.0163682 0
M  V30 1112 N 111.922 4.63144 0.0721352 0
M  V30 1113 C 112.657 5.73394 -0.0253794 0
M  V30 1114 N 112.153 6.92576 -0.176133 0
M  V30 1115 N 113.946 5.62091 0.0313305 0
M  V30 1116 H 106.097 1.87863 -0.991027 0
M  V30 1117 H 108.36 0.86583 -0.38606 0
M  V30 1118 H 108.066 3.40729 -0.871572 0
M  V30 1119 H 107.94 3.67304 0.858366 0
M  V30 1120 H 110.327 2.72197 1.13985 0
M  V30 1121 H 110.408 2.48381 -0.611586 0
M  V30 1122 H 110.052 4.99005 -0.946374 0
M  V30 1123 H 109.982 5.20158 0.821153 0
M  V30 1124 H 112.473 3.77436 0.187263 0
M  V30 1125 H 112.786 7.72418 -0.242821 0
M  V30 1126 H 111.131 6.94678 -0.211429 0
M  V30 1127 H 114.322 4.67867 0.147773 0
M  V30 1128 H 114.495 6.47982 -0.048121 0
M  V30 1129 N 107.901 -0.206675 1.56239 0
M  V30 1130 C 108.848 -1.25617 1.93621 0
M  V30 1131 C 109.818 -1.45824 0.795274 0
M  V30 1132 O 111.003 -1.59148 1.05245 0
M  V30 1133 C 108.143 -2.59839 2.27107 0
M  V30 1134 C 107.256 -2.47308 3.54207 0
M  V30 1135 C 106.391 -3.74155 3.7707 0
M  V30 1136 C 105.43 -3.56407 4.97635 0
M  V30 1137 N 104.567 -4.75238 5.1681 0
M  V30 1138 H 109.407 -0.930383 2.83104 0
M  V30 1139 H 106.944 -0.448065 1.4011 0
M  V30 1140 H 108.902 -3.38021 2.44535 0
M  V30 1141 H 107.532 -2.90485 1.40778 0
M  V30 1142 H 106.584 -1.60483 3.4489 0
M  V30 1143 H 107.896 -2.30122 4.42544 0
M  V30 1144 H 107.05 -4.60778 3.94675 0
M  V30 1145 H 105.789 -3.94282 2.87042 0
M  V30 1146 H 104.794 -2.68168 4.79964 0
M  V30 1147 H 106.019 -3.37736 5.89161 0
M  V30 1148 H 103.965 -4.95651 4.29728 0
M  V30 1149 H 103.882 -4.60835 5.99306 0
M  V30 1150 H 105.15 -5.63246 5.38864 0
M  V30 1151 N 109.379 -1.50304 -0.473955 0
M  V30 1152 C 110.795 -1.37667 -0.807466 0
M  V30 1153 C 110.995 -0.430555 -1.96846 0
M  V30 1154 O 110.051 0.127874 -2.52176 0
M  V30 1155 C 111.364 -2.78974 -1.12223 0
M  V30 1156 C 112.912 -2.87868 -1.22885 0
M  V30 1157 C 113.387 -4.30003 -1.57676 0
M  V30 1158 N 114.878 -4.3294 -1.64673 0
M  V30 1159 C 115.613 -5.3991 -1.93091 0
M  V30 1160 N 115.109 -6.57092 -2.1955 0
M  V30 1161 N 116.902 -5.27351 -1.94569 0
M  V30 1162 H 109.053 -2.10394 0.291212 0
M  V30 1163 H 111.316 -0.945575 0.0677609 0
M  V30 1164 H 111.022 -3.50031 -0.342229 0
M  V30 1165 H 110.896 -3.16038 -2.05913 0
M  V30 1166 H 113.283 -2.17032 -1.99953 0
M  V30 1167 H 113.364 -2.54352 -0.271814 0
M  V30 1168 H 113.008 -5.01375 -0.81149 0
M  V30 1169 H 112.938 -4.61004 -2.54525 0
M  V30 1170 H 115.429 -3.48441 -1.46277 0
M  V30 1171 H 115.742 -7.34425 -2.405 0
M  V30 1172 H 114.087 -6.60272 -2.16948 0
M  V30 1173 H 117.278 -4.34801 -1.73394 0
M  V30 1174 H 117.451 -6.10805 -2.16381 0
M  V30 1175 N 110.857 0.726932 -1.39834 0
M  V30 1176 C 111.82 1.82269 -1.38962 0
M  V30 1177 C 112.82 1.58248 -0.285334 0
M  V30 1178 O 114.01 1.65499 -0.54366 0
M  V30 1179 C 111.142 3.20186 -1.17019 0
M  V30 1180 H 112.335 1.84443 -2.36476 0
M  V30 1181 H 109.888 0.931416 -1.25516 0
M  V30 1182 H 110.623 3.23669 -0.202204 0
M  V30 1183 H 110.408 3.3902 -1.96998 0
M  V30 1184 H 111.898 4.00235 -1.1917 0
M  V30 1185 N 112.336 1.25143 0.95797 0
M  V30 1186 C 113.561 1.12521 1.74223 0
M  V30 1187 C 113.986 -0.317402 1.85403 0
M  V30 1188 O 113.344 -1.2299 1.33204 0
M  V30 1189 C 113.392 1.78062 3.1357 0
M  V30 1190 O 112.496 1.058 3.98598 0
M  V30 1191 H 111.837 0.39304 0.535178 0
M  V30 1192 H 114.367 1.65641 1.201 0
M  V30 1193 H 114.377 1.84213 3.64046 0
M  V30 1194 H 113.052 2.83021 3.04749 0
M  V30 1195 H 111.629 1.07506 3.57067 0
M  V30 1196 N 113.814 -1.1601 1.06675 0
M  V30 1197 C 114.744 -2.22688 0.702307 0
M  V30 1198 C 115.725 -1.67306 -0.307032 0
M  V30 1199 O 116.91 -1.93352 -0.181305 0
M  V30 1200 C 114.04 -3.47178 0.092038 0
M  V30 1201 C 112.994 -4.15477 1.02777 0
M  V30 1202 C 112.32 -5.33963 0.28061 0
M  V30 1203 C 113.62 -4.66019 2.35846 0
M  V30 1204 H 115.314 -2.53429 1.59419 0
M  V30 1205 H 112.86 -1.21813 0.767961 0
M  V30 1206 H 114.813 -4.21037 -0.174814 0
M  V30 1207 H 113.537 -3.15749 -0.834877 0
M  V30 1208 H 112.196 -3.43549 1.27944 0
M  V30 1209 H 111.844 -4.98788 -0.649545 0
M  V30 1210 H 111.544 -5.806 0.904258 0
M  V30 1211 H 113.068 -6.10596 0.021396 0
M  V30 1212 H 114.482 -5.3144 2.15045 0
M  V30 1213 H 112.879 -5.23293 2.93743 0
M  V30 1214 H 113.949 -3.82023 2.98641 0
M  V30 1215 N 115.292 -0.849877 -1.32721 0
M  V30 1216 C 116.539 -0.450923 -1.97416 0
M  V30 1217 C 116.867 0.992376 -1.67279 0
M  V30 1218 O 116.122 1.71048 -0.950845 0
M  V30 1219 C 116.421 -0.631272 -3.51781 0
M  V30 1220 C 116.087 -2.04432 -4.01894 0
M  V30 1221 C 114.749 -2.4308 -4.1529 0
M  V30 1222 C 117.101 -2.96679 -4.28522 0
M  V30 1223 C 114.429 -3.73257 -4.52654 0
M  V30 1224 C 116.781 -4.26349 -4.67343 0
M  V30 1225 C 115.445 -4.64939 -4.78945 0
M  V30 1226 H 114.715 -0.165004 -0.722395 0
M  V30 1227 H 117.362 -1.07901 -1.58207 0
M  V30 1228 H 115.667 0.0800767 -3.91718 0
M  V30 1229 H 117.364 -0.302709 -3.99856 0
M  V30 1230 H 113.954 -1.73419 -3.91949 0
M  V30 1231 H 118.138 -2.68054 -4.17685 0
M  V30 1232 H 113.394 -4.02946 -4.59831 0
M  V30 1233 H 117.568 -4.97895 -4.86902 0
M  V30 1234 H 115.195 -5.65855 -5.07654 0
M  V30 1235 N 116.77 1.45427 -0.607355 0
M  V30 1236 C 118.019 2.01452 -0.100036 0
M  V30 1237 C 118.332 1.48159 1.27704 0
M  V30 1238 O 119.538 1.96159 1.87707 0
M  V30 1239 C 117.994 3.59672 -0.128158 0
M  V30 1240 C 117.602 4.21962 -1.50507 0
M  V30 1241 C 119.346 4.23262 0.323932 0
M  V30 1242 C 117.253 5.72333 -1.48959 0
M  V30 1243 H 116.183 0.75325 -0.0336299 0
M  V30 1244 H 118.834 1.66901 -0.76265 0
M  V30 1245 H 117.216 3.91411 0.601105 0
M  V30 1246 H 118.39 4.01796 -2.25602 0
M  V30 1247 H 116.705 3.70565 -1.89923 0
M  V30 1248 H 119.302 5.33522 0.354691 0
M  V30 1249 H 119.645 3.93921 1.34656 0
M  V30 1250 H 120.178 3.96239 -0.352056 0
M  V30 1251 H 116.917 6.06373 -2.48981 0
M  V30 1252 H 116.437 5.94691 -0.781214 0
M  V30 1253 H 118.116 6.35525 -1.21313 0
M  V30 1254 N 118.248 0.346503 1.53744 0
M  V30 1255 C 119.196 -0.52422 2.26616 0
M  V30 1256 C 120.19 -1.09948 1.28871 0
M  V30 1257 O 121.396 -1.04488 1.46568 0
M  V30 1258 H 117.771 -0.187743 0.728187 0
M  V30 1259 H 119.742 0.11239 2.98188 0
M  V30 1260 C 118.491 -1.66186 3.05414 0
M  V30 1261 H 117.814 -1.22848 3.80458 0
M  V30 1262 H 119.254 -2.24622 3.59612 0
M  V30 1263 C 117.713 -2.59302 2.1509 0
M  V30 1264 O 118.243 -3.61628 1.74895 0
M  V30 1265 N 116.449 -2.28055 1.8011 0
M  V30 1266 H 115.996 -1.44883 2.12994 0
M  V30 1267 H 115.954 -2.90615 1.19958 0
M  V30 1268 N 119.726 -1.57421 0.075193 0
M  V30 1269 C 120.689 -2.11791 -0.876203 0
M  V30 1270 C 121.689 -1.04268 -1.22412 0
M  V30 1271 O 122.879 -1.30242 -1.15684 0
M  V30 1272 C 120.011 -2.62207 -2.17854 0
M  V30 1273 H 121.204 -2.9716 -0.40444 0
M  V30 1274 H 118.757 -1.55333 -0.173557 0
M  V30 1275 H 119.492 -1.803 -2.6956 0
M  V30 1276 H 119.277 -3.40802 -1.93897 0
M  V30 1277 H 120.767 -3.04335 -2.85955 0
M  V30 1278 N 121.204 0.198386 -1.56346 0
M  V30 1279 C 122.62 0.549085 -1.49857 0
M  V30 1280 C 122.82 1.86016 -0.774611 0
M  V30 1281 O 121.876 2.50416 -0.323776 0
M  V30 1282 C 123.189 0.606868 -2.94512 0
M  V30 1283 C 124.737 0.695925 -3.05165 0
M  V30 1284 C 125.212 0.784848 -4.51225 0
M  V30 1285 N 126.703 0.848463 -4.55363 0
M  V30 1286 C 127.438 0.937378 -5.65686 0
M  V30 1287 N 126.934 0.9888 -6.85707 0
M  V30 1288 N 128.727 0.974312 -5.53592 0
M  V30 1289 H 120.878 -0.661655 -2.01831 0
M  V30 1290 H 123.141 -0.235261 -0.918344 0
M  V30 1291 H 122.847 -0.28732 -3.50524 0
M  V30 1292 H 122.721 1.46268 -3.47686 0
M  V30 1293 H 125.108 1.58055 -2.49204 0
M  V30 1294 H 125.189 -0.186022 -2.55123 0
M  V30 1295 H 124.833 -0.0954072 -5.0781 0
M  V30 1296 H 124.763 1.68255 -4.98997 0
M  V30 1297 H 127.254 0.818103 -3.68938 0
M  V30 1298 H 127.567 1.05707 -7.65536 0
M  V30 1299 H 125.912 0.957534 -6.88372 0
M  V30 1300 H 129.103 0.930954 -4.58749 0
M  V30 1301 H 129.276 1.04015 -6.39597 0
M  V30 1302 N 122.682 1.50554 0.465978 0
M  V30 1303 C 123.907 1.65838 1.24549 0
M  V30 1304 C 124.332 0.343486 1.84937 0
M  V30 1305 O 123.69 -0.69324 1.67523 0
M  V30 1306 C 123.738 2.75533 2.32624 0
M  V30 1307 O 122.842 2.37142 3.37398 0
M  V30 1308 H 122.183 0.553893 0.366194 0
M  V30 1309 H 124.713 1.96959 0.553927 0
M  V30 1310 H 124.723 2.98763 2.77857 0
M  V30 1311 H 123.398 3.70962 1.88043 0
M  V30 1312 H 121.975 2.24377 2.97841 0
M  V30 1313 N 124.16 -0.719506 1.40217 0
M  V30 1314 C 125.123 -1.8153 1.39927 0
M  V30 1315 C 126.123 -1.58095 0.293723 0
M  V30 1316 O 127.313 -1.65209 0.552429 0
M  V30 1317 C 124.445 -3.19561 1.18716 0
M  V30 1318 H 125.638 -1.83186 2.37451 0
M  V30 1319 H 123.191 -0.924746 1.26008 0
M  V30 1320 H 123.926 -3.23557 0.219366 0
M  V30 1321 H 123.711 -3.3797 1.98793 0
M  V30 1322 H 125.201 -3.99598 1.21291 0
M  V30 1323 N 125.638 -1.25649 -0.95132 0
M  V30 1324 C 126.548 -1.08073 -2.08224 0
M  V30 1325 C 127.564 -0.0169666 -1.73992 0
M  V30 1326 O 128.74 -0.218593 -2.0021 0
M  V30 1327 C 125.805 -0.704922 -3.39458 0
M  V30 1328 C 124.866 -1.84699 -3.87537 0
M  V30 1329 C 124.099 -1.48902 -5.12508 0
M  V30 1330 O 124.322 -0.386156 -5.69091 0
M  V30 1331 O 123.256 -2.32033 -5.55378 0
M  V30 1332 H 127.082 -2.02924 -2.25954 0
M  V30 1333 H 124.667 -1.04618 -1.06656 0
M  V30 1334 H 126.549 -0.507609 -4.18332 0
M  V30 1335 H 125.224 0.214291 -3.2299 0
M  V30 1336 H 124.131 -2.09919 -3.09653 0
M  V30 1337 H 125.464 -2.74557 -4.08509 0
M  V30 1338 N 127.117 1.15442 -1.07289 0
M  V30 1339 C 128.027 2.23786 -0.704057 0
M  V30 1340 C 129.043 1.7166 0.284413 0
M  V30 1341 O 130.219 2.00972 0.131205 0
M  V30 1342 C 127.284 3.46535 -0.106792 0
M  V30 1343 C 126.345 4.13654 -1.14842 0
M  V30 1344 C 125.578 5.30544 -0.57956 0
M  V30 1345 O 125.801 5.67187 0.604585 0
M  V30 1346 O 124.735 5.87154 -1.32414 0
M  V30 1347 H 128.561 2.57664 -1.60757 0
M  V30 1348 H 126.146 1.23152 -0.845803 0
M  V30 1349 H 128.028 4.20804 0.224048 0
M  V30 1350 H 126.703 3.14407 0.770049 0
M  V30 1351 H 125.61 3.4131 -1.5316 0
M  V30 1352 H 126.943 4.49861 -1.99714 0
M  V30 1353 N 128.595 0.856903 1.32268 0
M  V30 1354 C 129.525 0.31858 2.31316 0
M  V30 1355 C 130.506 -0.583487 1.59779 0
M  V30 1356 O 131.691 -0.503259 1.87566 0
M  V30 1357 C 128.821 -0.491979 3.43798 0
M  V30 1358 C 127.775 0.315849 4.26833 0
M  V30 1359 C 127.101 -0.619586 5.31098 0
M  V30 1360 C 128.401 1.54282 4.98993 0
M  V30 1361 H 130.095 1.14621 2.76591 0
M  V30 1362 H 127.641 0.552613 1.32974 0
M  V30 1363 H 129.594 -0.879012 4.1213 0
M  V30 1364 H 128.318 -1.35299 2.97257 0
M  V30 1365 H 126.977 0.684664 3.6015 0
M  V30 1366 H 126.625 -1.47751 4.8081 0
M  V30 1367 H 126.325 -0.0830621 5.87541 0
M  V30 1368 H 127.849 -1.00375 6.02293 0
M  V30 1369 H 129.263 1.22796 5.59995 0
M  V30 1370 H 127.66 2.01745 5.65172 0
M  V30 1371 H 128.73 2.30285 4.26728 0
M  V30 1372 N 130.073 -1.45103 0.615059 0
M  V30 1373 C 131.319 -2.02483 0.113347 0
M  V30 1374 C 131.652 -1.48146 -1.25564 0
M  V30 1375 O 130.927 -0.659104 -1.82992 0
M  V30 1376 C 131.21 -3.60005 0.0825278 0
M  V30 1377 C 131.063 -4.2466 1.48271 0
M  V30 1378 C 132.382 -4.35972 -0.601401 0
M  V30 1379 H 129.501 -0.735764 0.0426632 0
M  V30 1380 H 132.143 -1.72868 0.788461 0
M  V30 1381 H 130.293 -3.85367 -0.492378 0
M  V30 1382 H 131.965 -4.10458 2.10527 0
M  V30 1383 H 130.208 -3.82772 2.04127 0
M  V30 1384 H 130.879 -5.336 1.41332 0
M  V30 1385 H 133.355 -4.15947 -0.112666 0
M  V30 1386 H 132.231 -5.45697 -0.592097 0
M  V30 1387 H 132.492 -4.09391 -1.66887 0
M  V30 1388 N 131.551 -0.354651 -1.53558 0
M  V30 1389 C 132.798 0.238443 -2.01091 0
M  V30 1390 C 133.126 1.49663 -1.24222 0
M  V30 1391 O 132.381 1.93049 -0.321003 0
M  V30 1392 C 132.68 0.587121 -3.52545 0
M  V30 1393 C 132.346 -0.575472 -4.47213 0
M  V30 1394 C 131.008 -0.894497 -4.72813 0
M  V30 1395 C 133.36 -1.35489 -5.03281 0
M  V30 1396 C 130.688 -1.99511 -5.51736 0
M  V30 1397 C 133.04 -2.44583 -5.83405 0
M  V30 1398 C 131.704 -2.77033 -6.07296 0
M  V30 1399 H 130.974 0.0872526 -0.735845 0
M  V30 1400 H 133.621 -0.484859 -1.8526 0
M  V30 1401 H 131.926 1.39129 -3.66265 0
M  V30 1402 H 133.623 1.05809 -3.86789 0
M  V30 1403 H 130.213 -0.316774 -4.27428 0
M  V30 1404 H 134.397 -1.12167 -4.83459 0
M  V30 1405 H 129.653 -2.25063 -5.68469 0
M  V30 1406 H 133.827 -3.05401 -6.25862 0
M  V30 1407 H 131.454 -3.6244 -6.68237 0
M  V30 1408 N 133.029 1.57378 -0.0835403 0
M  V30 1409 C 134.275 1.94217 0.583733 0
M  V30 1410 C 134.608 0.964653 1.68547 0
M  V30 1411 O 133.883 -0.00422258 1.945 0
M  V30 1412 C 134.166 3.41253 1.14972 0
M  V30 1413 C 134.019 4.49768 0.0538277 0
M  V30 1414 C 135.338 3.89352 2.05166 0
M  V30 1415 H 132.457 0.706233 0.210724 0
M  V30 1416 H 135.099 1.89392 -0.1519 0
M  V30 1417 H 133.249 3.45496 1.77665 0
M  V30 1418 H 134.921 4.57641 -0.579851 0
M  V30 1419 H 133.164 4.29432 -0.614068 0
M  V30 1420 H 133.835 5.49817 0.490452 0
M  V30 1421 H 136.311 3.87189 1.52393 0
M  V30 1422 H 135.187 4.92822 2.41698 0
M  V30 1423 H 135.448 3.27973 2.96456 0
M  V30 1424 N 134.507 -0.190092 1.56449 0
M  V30 1425 C 135.923 -0.54113 1.50146 0
M  V30 1426 C 136.123 -1.85603 0.784465 0
M  V30 1427 O 135.179 -2.5024 0.337051 0
M  V30 1428 C 136.492 -0.591241 2.9483 0
M  V30 1429 C 138.04 -0.679732 3.0553 0
M  V30 1430 C 138.515 -0.760908 4.51635 0
M  V30 1431 N 140.006 -0.824302 4.55806 0
M  V30 1432 C 140.741 -0.907365 5.66175 0
M  V30 1433 N 140.237 -0.952422 6.86222 0
M  V30 1434 N 142.03 -0.94494 5.541 0
M  V30 1435 H 134.181 0.67235 2.01478 0
M  V30 1436 H 136.444 0.240127 0.917084 0
M  V30 1437 H 136.15 0.305905 3.50367 0
M  V30 1438 H 136.024 -1.44422 3.48457 0
M  V30 1439 H 138.411 -1.56731 2.50039 0
M  V30 1440 H 138.492 0.199549 2.5502 0
M  V30 1441 H 138.136 0.122336 5.07753 0
M  V30 1442 H 138.066 -1.65606 4.99882 0
M  V30 1443 H 140.557 -0.798526 3.69367 0
M  V30 1444 H 140.87 -1.01645 7.66086 0
M  V30 1445 H 139.215 -0.921014 6.8887 0
M  V30 1446 H 142.406 -0.906612 4.59236 0
M  V30 1447 H 142.579 -1.00622 6.4014 0
M  V30 1448 N 135.985 -1.50799 -0.457987 0
M  V30 1449 C 137.233 -1.62121 -1.2067 0
M  V30 1450 C 137.554 -0.329793 -1.92191 0
M  V30 1451 O 136.824 0.653409 -1.84682 0
M  V30 1452 H 135.404 -0.597441 -0.448411 0
M  V30 1453 H 138.066 -1.87637 -0.527096 0
M  V30 1454 H 137.162 -2.43882 -1.94751 0
M  V30 1455 N 137.463 0.71206 -1.40597 0
M  V30 1456 C 138.691 1.50111 -1.42388 0
M  V30 1457 C 139.106 1.88784 -0.0245395 0
M  V30 1458 O 138.463 1.55681 0.952351 0
M  V30 1459 C 138.514 2.7742 -2.31776 0
M  V30 1460 O 138.235 2.40382 -3.66262 0
M  V30 1461 C 139.736 3.7129 -2.42196 0
M  V30 1462 H 136.956 0.46314 -0.485533 0
M  V30 1463 H 139.5 0.878068 -1.8469 0
M  V30 1464 H 137.655 3.36001 -1.92827 0
M  V30 1465 H 138.069 3.22324 -4.13772 0
M  V30 1466 H 139.543 4.57448 -3.08943 0
M  V30 1467 H 140.02 4.14641 -1.44809 0
M  V30 1468 H 140.626 3.18619 -2.81712 0
M  V30 1469 N 138.941 1.26152 0.944643 0
M  V30 1470 C 140.169 1.14259 1.72489 0
M  V30 1471 C 140.584 -0.302555 1.8636 0
M  V30 1472 O 139.941 -1.20741 1.36849 0
M  V30 1473 C 139.992 1.80266 3.13347 0
M  V30 1474 O 139.713 3.19133 3.00143 0
M  V30 1475 C 141.214 1.74283 4.07603 0
M  V30 1476 H 138.434 0.398051 0.540181 0
M  V30 1477 H 140.978 1.66706 1.18446 0
M  V30 1478 H 139.133 1.31766 3.64303 0
M  V30 1479 H 139.547 3.51744 3.89071 0
M  V30 1480 H 141.021 2.25111 5.04013 0
M  V30 1481 H 141.498 0.708631 4.33446 0
M  V30 1482 H 142.104 2.22319 3.62567 0
M  V30 1483 N 140.419 -1.14872 1.07899 0
M  V30 1484 C 141.329 -2.2341 0.715915 0
M  V30 1485 C 142.345 -1.71808 -0.275306 0
M  V30 1486 O 143.521 -2.01039 -0.120545 0
M  V30 1487 C 140.586 -3.46474 0.125168 0
M  V30 1488 C 139.647 -4.13039 1.17034 0
M  V30 1489 C 138.88 -5.30229 0.607688 0
M  V30 1490 O 139.103 -5.675 -0.574497 0
M  V30 1491 O 138.037 -5.86444 1.35526 0
M  V30 1492 H 141.863 -2.56808 1.62121 0
M  V30 1493 H 139.448 -1.22702 0.852322 0
M  V30 1494 H 141.33 -4.20917 -0.201729 0
M  V30 1495 H 140.005 -3.14811 -0.753364 0
M  V30 1496 H 138.912 -3.40493 1.54968 0
M  V30 1497 H 140.245 -4.48796 2.02097 0
M  V30 1498 N 141.898 -0.863906 -1.31812 0
M  V30 1499 C 143.146 -0.470904 -1.96537 0
M  V30 1500 C 143.467 0.978771 -1.68657 0
M  V30 1501 O 142.737 1.6853 -0.998717 0
M  V30 1502 H 141.317 -0.171148 -0.72713 0
M  V30 1503 H 143.979 -1.10236 -1.60729 0
M  V30 1504 H 143.075 -0.623616 -3.05806 0
M  V30 1505 N 143.376 1.44774 -0.622745 0
M  V30 1506 C 144.625 2.01334 -0.121397 0
M  V30 1507 C 144.938 1.49505 1.26125 0
M  V30 1508 O 146.144 1.98139 1.85616 0
M  V30 1509 C 144.6 3.59516 -0.166298 0
M  V30 1510 C 144.208 4.20342 -1.54974 0
M  V30 1511 C 145.952 4.23582 0.279021 0
M  V30 1512 C 143.859 5.70721 -1.55021 0
M  V30 1513 H 142.789 0.752851 -0.0416172 0
M  V30 1514 H 145.44 1.66083 -0.780309 0
M  V30 1515 H 143.822 3.92027 0.559557 0
M  V30 1516 H 144.996 3.99381 -2.29851 0
M  V30 1517 H 143.311 3.68529 -1.93843 0
M  V30 1518 H 145.908 5.33868 0.298083 0
M  V30 1519 H 146.251 3.95327 1.30471 0
M  V30 1520 H 146.784 3.95843 -0.394063 0
M  V30 1521 H 143.523 6.03698 -2.55399 0
M  V30 1522 H 143.043 5.93829 -0.844245 0
M  V30 1523 H 144.722 6.34203 -1.28047 0
M  V30 1524 N 144.854 0.36279 1.53368 0
M  V30 1525 C 145.802 -0.500155 2.27159 0
M  V30 1526 C 146.796 -1.08575 1.3003 0
M  V30 1527 O 148.002 -1.02927 1.47668 0
M  V30 1528 H 144.377 -0.180009 0.730138 0
M  V30 1529 H 146.348 0.14401 2.98052 0
M  V30 1530 C 145.097 -1.62937 3.07159 0
M  V30 1531 H 144.42 -1.18806 3.8174 0
M  V30 1532 H 145.86 -2.20795 3.61975 0
M  V30 1533 C 144.319 -2.57007 2.17829 0
M  V30 1534 O 144.849 -3.59752 1.78721 0
M  V30 1535 N 143.055 -2.26131 1.82518 0
M  V30 1536 H 142.602 -1.42616 2.14519 0
M  V30 1537 H 142.56 -2.89327 1.23034 0
M  V30 1538 N 146.332 -1.57332 0.0918853 0
M  V30 1539 C 147.262 -2.16872 -0.865371 0
M  V30 1540 C 148.243 -1.10118 -1.29646 0
M  V30 1541 O 149.428 -1.38242 -1.36392 0
M  V30 1542 C 146.558 -2.74649 -2.12569 0
M  V30 1543 C 145.512 -3.86747 -1.83333 0
M  V30 1544 C 144.838 -4.31212 -3.16166 0
M  V30 1545 C 146.138 -5.10089 -1.1228 0
M  V30 1546 H 147.832 -2.97114 -0.369307 0
M  V30 1547 H 145.378 -1.42918 -0.176194 0
M  V30 1548 H 147.331 -3.14952 -2.7997 0
M  V30 1549 H 146.055 -1.91657 -2.64452 0
M  V30 1550 H 144.714 -3.46978 -1.18331 0
M  V30 1551 H 144.362 -3.45115 -3.6593 0
M  V30 1552 H 144.062 -5.06788 -2.97388 0
M  V30 1553 H 145.586 -4.74146 -3.84731 0
M  V30 1554 H 147 -5.47582 -1.69785 0
M  V30 1555 H 145.397 -5.91073 -1.03693 0
M  V30 1556 H 146.467 -4.84786 -0.105041 0
M  V30 1557 N 147.81 0.181792 -1.56548 0
M  V30 1558 C 149.056 0.901431 -1.81665 0
M  V30 1559 C 149.389 1.82347 -0.668075 0
M  V30 1560 O 148.664 1.91669 0.330615 0
M  V30 1561 C 148.947 1.70618 -3.17115 0
M  V30 1562 C 148.8 0.807964 -4.42484 0
M  V30 1563 C 150.119 2.67605 -3.49393 0
M  V30 1564 H 147.238 0.32627 -0.660846 0
M  V30 1565 H 149.88 0.168134 -1.89255 0
M  V30 1566 H 148.03 2.33133 -3.10775 0
M  V30 1567 H 149.702 0.19649 -4.60881 0
M  V30 1568 H 147.945 0.115411 -4.33646 0
M  V30 1569 H 148.616 1.40632 -5.33785 0
M  V30 1570 H 151.092 2.15218 -3.56118 0
M  V30 1571 H 149.968 3.20985 -4.45264 0
M  V30 1572 H 150.229 3.47298 -2.73563 0
M  V30 1573 N 149.288 1.51039 0.449983 0
M  V30 1574 C 150.251 1.70863 1.5277 0
M  V30 1575 C 151.251 0.578846 1.5002 0
M  V30 1576 O 152.441 0.846213 1.52266 0
M  V30 1577 C 149.573 1.75341 2.9235 0
M  V30 1578 H 150.766 2.67034 1.36502 0
M  V30 1579 H 148.319 1.40838 0.677812 0
M  V30 1580 H 149.054 0.809383 3.14037 0
M  V30 1581 H 148.839 2.57436 2.95752 0
M  V30 1582 H 150.329 1.92559 3.70555 0
M  V30 1583 N 150.766 -0.704594 1.40972 0
M  V30 1584 C 151.714 -1.83994 1.42299 0
M  V30 1585 C 152.708 -1.66684 0.302111 0
M  V30 1586 O 153.914 -1.73655 0.473697 0
M  V30 1587 H 150.289 -0.606171 0.44504 0
M  V30 1588 H 152.26 -1.79992 2.38003 0
M  V30 1589 C 151.009 -3.21946 1.31323 0
M  V30 1590 H 150.332 -3.35878 2.16855 0
M  V30 1591 H 151.772 -4.01491 1.36311 0
M  V30 1592 C 150.231 -3.36891 0.0245977 0
M  V30 1593 O 150.761 -3.90687 -0.934153 0
M  V30 1594 N 148.967 -2.90559 -0.0485243 0
M  V30 1595 H 148.514 -2.46968 0.732419 0
M  V30 1596 H 148.472 -3.00937 -0.910171 0
M  V30 1597 N 152.244 -1.26651 -0.937939 0
M  V30 1598 C 153.469 -1.15279 -1.72411 0
M  V30 1599 C 153.894 0.287866 -1.85884 0
M  V30 1600 O 153.252 1.20855 -1.35143 0
M  V30 1601 C 153.3 -1.83028 -3.10698 0
M  V30 1602 O 152.404 -1.12128 -3.96864 0
M  V30 1603 H 151.745 -0.401504 -0.528858 0
M  V30 1604 H 154.275 -1.67531 -1.1745 0
M  V30 1605 H 154.285 -1.89981 -3.6107 0
M  V30 1606 H 152.96 -2.87833 -3.00208 0
M  V30 1607 H 151.537 -1.13173 -3.55312 0
M  V30 1608 N 153.722 1.14298 -1.08507 0
M  V30 1609 C 154.968 1.85854 -0.826438 0
M  V30 1610 C 155.323 1.81413 0.640878 0
M  V30 1611 O 154.616 1.23463 1.46518 0
M  V30 1612 C 154.81 3.33547 -1.28379 0
M  V30 1613 C 154.639 3.52369 -2.79403 0
M  V30 1614 C 153.409 3.67159 -3.47164 0
M  V30 1615 C 155.607 3.49203 -3.77573 0
M  V30 1616 N 153.589 3.74149 -4.86709 0
M  V30 1617 C 154.96 3.6245 -5.03021 0
M  V30 1618 C 157.015 3.32547 -3.70563 0
M  V30 1619 C 155.718 3.60761 -6.2229 0
M  V30 1620 C 157.744 3.32162 -4.89308 0
M  V30 1621 C 157.106 3.45949 -6.13595 0
M  V30 1622 H 153.205 0.696705 -0.355143 0
M  V30 1623 H 155.789 1.36981 -1.38362 0
M  V30 1624 H 153.96 3.81008 -0.754166 0
M  V30 1625 H 155.692 3.92867 -0.971469 0
M  V30 1626 H 152.447 3.68433 -2.9758 0
M  V30 1627 H 152.871 3.81359 -5.5937 0
M  V30 1628 H 157.513 3.20797 -2.75407 0
M  V30 1629 H 155.231 3.71286 -7.17755 0
M  V30 1630 H 158.817 3.20485 -4.85573 0
M  V30 1631 H 157.697 3.456 -7.03939 0
M  V30 1632 N 155.201 0.870884 1.31352 0
M  V30 1633 C 156.449 0.48132 1.96285 0
M  V30 1634 C 156.77 -0.969813 1.69173 0
M  V30 1635 O 156.04 -1.67998 1.00764 0
M  V30 1636 H 154.62 0.175002 0.726212 0
M  V30 1637 H 157.282 1.11087 1.60143 0
M  V30 1638 H 156.378 0.639825 3.05471 0
M  V30 1639 N 156.679 -1.44442 0.630414 0
M  V30 1640 C 157.627 -2.32437 -0.0871428 0
M  V30 1641 C 158.621 -1.47304 -0.836525 0
M  V30 1642 O 159.827 -1.63653 -0.749506 0
M  V30 1643 H 156.202 -0.750533 -0.0469495 0
M  V30 1644 H 158.173 -2.90709 0.673096 0
M  V30 1645 C 156.922 -3.31288 -1.05563 0
M  V30 1646 H 156.245 -3.96805 -0.488426 0
M  V30 1647 H 157.685 -3.9554 -1.52721 0
M  V30 1648 C 156.144 -2.6016 -2.14052 0
M  V30 1649 O 156.674 -2.39997 -3.22124 0
M  V30 1650 N 154.88 -2.19911 -1.89967 0
M  V30 1651 H 154.427 -2.36509 -1.02085 0
M  V30 1652 H 154.385 -1.72646 -2.62756 0
M  V30 1653 N 158.157 -0.370918 -1.53173 0
M  V30 1654 C 159.382 0.220293 -2.06227 0
M  V30 1655 C 159.807 1.41243 -1.24225 0
M  V30 1656 O 159.165 1.79387 -0.262645 0
M  V30 1657 C 159.213 0.586663 -3.55796 0
M  V30 1658 O 158.317 1.68317 -3.76488 0
M  V30 1659 H 157.658 0.0308099 -0.663285 0
M  V30 1660 H 160.188 -0.533068 -1.97534 0
M  V30 1661 H 160.198 0.85617 -3.98916 0
M  V30 1662 H 158.873 -0.285013 -4.14922 0
M  V30 1663 H 157.45 1.40881 -3.45264 0
M  V30 1664 N 159.635 1.57281 -0.100228 0
M  V30 1665 C 160.583 2.15542 0.874328 0
M  V30 1666 C 161.577 1.09962 1.28859 0
M  V30 1667 O 162.783 1.28298 1.26252 0
M  V30 1668 H 159.158 0.689567 0.300003 0
M  V30 1669 H 161.129 2.96241 0.35829 0
M  V30 1670 C 159.878 2.75454 2.1218 0
M  V30 1671 H 159.201 3.56384 1.81193 0
M  V30 1672 H 160.641 3.19781 2.78417 0
M  V30 1673 C 159.1 1.71602 2.89921 0
M  V30 1674 O 159.63 1.15804 3.84646 0
M  V30 1675 N 157.836 1.41975 2.53558 0
M  V30 1676 H 157.383 1.87539 1.76598 0
M  V30 1677 H 157.341 0.727274 3.05873 0
M  V30 1678 N 161.113 -0.173488 1.56642 0
M  V30 1679 C 162.359 -0.891784 1.8214 0
M  V30 1680 C 162.692 -1.8199 0.677736 0
M  V30 1681 O 161.967 -1.91842 -0.320446 0
M  V30 1682 C 162.25 -1.68933 3.18015 0
M  V30 1683 C 162.103 -0.784487 4.42906 0
M  V30 1684 C 163.422 -2.65748 3.50808 0
M  V30 1685 H 160.541 -0.322761 0.662567 0
M  V30 1686 H 163.183 -0.158095 1.89341 0
M  V30 1687 H 161.333 -2.31482 3.12007 0
M  V30 1688 H 163.005 -0.172046 4.60979 0
M  V30 1689 H 161.248 -0.0924117 4.33702 0
M  V30 1690 H 161.919 -1.37799 5.34524 0
M  V30 1691 H 164.395 -2.13327 3.57255 0
M  V30 1692 H 163.271 -3.18619 4.4696 0
M  V30 1693 H 163.532 -3.45842 2.75401 0
M  V30 1694 N 162.591 -1.51276 -0.441967 0
M  V30 1695 C 164.007 -1.39349 -0.778083 0
M  V30 1696 C 164.207 -0.472212 -1.95889 0
M  V30 1697 O 163.263 0.0743551 -2.5239 0
M  V30 1698 C 164.576 -2.81292 -1.0628 0
M  V30 1699 C 166.124 -2.9041 -1.16751 0
M  V30 1700 C 166.599 -4.33251 -1.48519 0
M  V30 1701 N 168.09 -4.36336 -1.55453 0
M  V30 1702 C 168.825 -5.43885 -1.81596 0
M  V30 1703 N 168.321 -6.61601 -2.05562 0
M  V30 1704 N 170.114 -5.3136 -1.8334 0
M  V30 1705 H 162.265 -2.09729 0.335774 0
M  V30 1706 H 164.528 -0.943925 0.0878028 0
M  V30 1707 H 164.234 -3.50678 -0.267905 0
M  V30 1708 H 164.108 -3.20334 -1.99163 0
M  V30 1709 H 166.495 -2.21225 -1.95304 0
M  V30 1710 H 166.576 -2.54871 -0.217801 0
M  V30 1711 H 166.22 -5.02984 -0.704958 0
M  V30 1712 H 166.15 -4.66299 -2.44689 0
M  V30 1713 H 168.641 -3.51466 -1.38853 0
M  V30 1714 H 168.954 -7.39361 -2.24867 0
M  V30 1715 H 167.299 -6.64725 -2.02894 0
M  V30 1716 H 170.49 -4.38382 -1.64132 0
M  V30 1717 H 170.663 -6.15258 -2.03377 0
M  V30 1718 N 164.069 0.697108 -1.41344 0
M  V30 1719 C 165.032 1.79281 -1.42797 0
M  V30 1720 C 166.032 1.57607 -0.318837 0
M  V30 1721 O 167.222 1.64309 -0.578642 0
M  V30 1722 C 164.354 3.17632 -1.23785 0
M  V30 1723 H 165.547 1.79385 -2.40335 0
M  V30 1724 H 163.1 0.904582 -1.27464 0
M  V30 1725 H 163.835 3.23167 -0.270814 0
M  V30 1726 H 163.62 3.34765 -2.04144 0
M  V30 1727 H 165.11 3.97617 -1.27633 0
M  V30 1728 N 165.547 1.27147 0.931209 0
M  V30 1729 C 166.795 1.13055 1.6752 0
M  V30 1730 C 167.116 -0.324791 1.92276 0
M  V30 1731 O 166.386 -1.22775 1.52654 0
M  V30 1732 H 164.966 0.415391 0.620854 0
M  V30 1733 H 167.628 1.59623 1.11833 0
M  V30 1734 H 166.724 1.65694 2.64485 0
M  V30 1735 N 167.025 -1.13721 1.09112 0
M  V30 1736 C 168.302 -1.81155 0.737706 0
M  V30 1737 C 168.682 -1.96253 -0.777683 0
M  V30 1738 O 168.03 -1.52807 -1.69889 0
M  V30 1739 C 168.24 -3.16392 1.47299 0
M  V30 1740 C 169.588 -3.91787 1.63671 0
M  V30 1741 O 170.612 -3.26005 1.43524 0
M  V30 1742 O 169.471 -5.0977 1.96969 0
M  V30 1743 H 166.565 -0.783518 0.26463 0
M  V30 1744 H 169.111 -1.20676 1.19312 0
M  V30 1745 H 167.883 -3.0061 2.50498 0
M  V30 1746 H 167.506 -3.8457 1.00953 0
M  V30 1747 N 168.503 -0.877838 -1.30888 0
M  V30 1748 C 169.451 -0.328662 -2.30266 0
M  V30 1749 C 170.445 0.560496 -1.59859 0
M  V30 1750 O 171.651 0.445722 -1.74394 0
M  V30 1751 H 168.026 -0.0876142 -0.746879 0
M  V30 1752 H 169.997 -1.18061 -2.74051 0
M  V30 1753 C 168.746 0.448071 -3.44801 0
M  V30 1754 H 168.069 -0.226859 -3.99156 0
M  V30 1755 H 169.509 0.797541 -4.16432 0
M  V30 1756 C 167.968 1.64239 -2.94155 0
M  V30 1757 O 168.498 2.74175 -2.93583 0
M  V30 1758 N 166.704 1.47716 -2.50256 0
M  V30 1759 H 166.251 0.582821 -2.5092 0
M  V30 1760 H 166.209 2.27765 -2.16727 0
M  V30 1761 N 169.982 1.44106 -0.638065 0
M  V30 1762 C 171.231 2.01194 -0.142744 0
M  V30 1763 C 171.544 1.50835 1.24532 0
M  V30 1764 O 172.75 2.00096 1.83504 0
M  V30 1765 C 171.206 3.59319 -0.20442 0
M  V30 1766 C 170.814 4.18674 -1.59423 0
M  V30 1767 C 172.558 4.23854 0.234079 0
M  V30 1768 C 170.465 5.69045 -1.61065 0
M  V30 1769 H 169.395 0.752367 -0.0495998 0
M  V30 1770 H 172.046 1.65246 -0.797881 0
M  V30 1771 H 170.428 3.92598 0.517946 0
M  V30 1772 H 171.602 3.96921 -2.34074 0
M  V30 1773 H 169.917 3.66453 -1.97741 0
M  V30 1774 H 172.514 5.34155 0.241443 0
M  V30 1775 H 172.857 3.96688 1.2627 0
M  V30 1776 H 173.39 3.95403 -0.436025 0
M  V30 1777 H 170.129 6.00956 -2.61787 0
M  V30 1778 H 169.649 5.929 -0.90718 0
M  V30 1779 H 171.328 6.32809 -1.34766 0
M  V30 1780 N 171.46 0.379036 1.52974 0
M  V30 1781 C 172.709 -0.207612 2.00629 0
M  V30 1782 C 173.022 -1.48758 1.27006 0
M  V30 1783 O 174.228 -2.15365 1.65318 0
M  V30 1784 C 172.684 -0.42053 3.57435 0
M  V30 1785 C 172.292 0.845587 4.39948 0
M  V30 1786 C 174.036 -0.964102 4.13407 0
M  V30 1787 C 171.943 0.601513 5.88333 0
M  V30 1788 H 170.873 -0.0813591 0.749598 0
M  V30 1789 H 173.524 0.499853 1.76561 0
M  V30 1790 H 171.906 -1.18959 3.7771 0
M  V30 1791 H 173.08 1.61848 4.31442 0
M  V30 1792 H 171.395 1.31336 3.95145 0
M  V30 1793 H 173.992 -1.16225 5.21916 0
M  V30 1794 H 174.335 -1.93019 3.68849 0
M  V30 1795 H 174.868 -0.25487 3.96983 0
M  V30 1796 H 171.607 1.53831 6.37194 0
M  V30 1797 H 171.127 -0.132628 5.99653 0
M  V30 1798 H 172.806 0.232134 6.46583 0
M  V30 1799 N 172.938 -1.57226 0.108567 0
M  V30 1800 C 174.187 -1.94008 -0.551703 0
M  V30 1801 C 174.5 -0.993442 -1.68494 0
M  V30 1802 O 175.706 -1.25551 -2.40726 0
M  V30 1803 C 174.162 -3.44763 -1.03279 0
M  V30 1804 C 173.77 -4.47943 0.0714193 0
M  V30 1805 C 175.514 -3.90483 -1.66503 0
M  V30 1806 C 173.421 -5.89865 -0.425779 0
M  V30 1807 H 172.351 -0.724206 -0.209863 0
M  V30 1808 H 175.002 -1.82547 0.186741 0
M  V30 1809 H 173.384 -3.51422 -1.82533 0
M  V30 1810 H 174.558 -4.52942 0.847365 0
M  V30 1811 H 172.873 -4.11913 0.609669 0
M  V30 1812 H 175.47 -4.93925 -2.04798 0
M  V30 1813 H 175.813 -3.29877 -2.53942 0
M  V30 1814 H 176.346 -3.86581 -0.938074 0
M  V30 1815 H 173.085 -6.54202 0.412316 0
M  V30 1816 H 172.605 -5.88309 -1.16843 0
M  V30 1817 H 174.284 -6.40844 -0.890397 0
M  V30 1818 N 174.416 0.165178 -1.56732 0
M  V30 1819 C 175.641 0.900253 -1.86843 0
M  V30 1820 C 176.066 1.74766 -0.695596 0
M  V30 1821 O 175.424 1.77786 0.35522 0
M  V30 1822 C 175.472 1.74777 -3.15413 0
M  V30 1823 O 174.576 2.85007 -2.98068 0
M  V30 1824 H 173.917 0.251832 -0.614391 0
M  V30 1825 H 176.447 0.161468 -2.03962 0
M  V30 1826 H 176.457 2.14646 -3.46974 0
M  V30 1827 H 175.132 1.12537 -4.00385 0
M  V30 1828 H 173.709 2.48676 -2.77875 0
M  V30 1829 N 175.894 1.51508 0.433938 0
M  V30 1830 C 176.826 1.69266 1.54537 0
M  V30 1831 C 177.839 0.573276 1.52373 0
M  V30 1832 O 179.028 0.847698 1.57087 0
M  V30 1833 C 176.128 1.69524 2.93453 0
M  V30 1834 C 175.301 2.98101 3.20085 0
M  V30 1835 C 174.36 2.90502 4.38742 0
M  V30 1836 O 173.386 3.64442 4.3723 0
M  V30 1837 N 174.588 2.06586 5.42496 0
M  V30 1838 H 177.353 2.65145 1.39708 0
M  V30 1839 H 174.914 1.49437 0.622922 0
M  V30 1840 H 176.906 1.62004 3.70859 0
M  V30 1841 H 175.476 0.812245 3.01863 0
M  V30 1842 H 174.696 3.19464 2.30947 0
M  V30 1843 H 175.984 3.83207 3.34708 0
M  V30 1844 H 175.382 1.45896 5.46563 0
M  V30 1845 H 173.939 2.04943 6.18742 0
M  V30 1846 N 177.372 -0.689602 1.41712 0
M  V30 1847 C 178.305 -1.81403 1.3845 0
M  V30 1848 C 179.283 -1.60653 0.250874 0
M  V30 1849 O 180.467 -1.83323 0.43874 0
M  V30 1850 C 177.594 -3.18176 1.1611 0
M  V30 1851 C 176.64 -3.57705 2.3227 0
M  V30 1852 S 177.473 -3.61827 3.94767 0
M  V30 1853 C 178.629 -5.01318 3.74742 0
M  V30 1854 H 178.862 -1.83893 2.33603 0
M  V30 1855 H 176.395 -0.858878 1.28307 0
M  V30 1856 H 178.353 -3.97132 1.03907 0
M  V30 1857 H 177.014 -3.13288 0.225668 0
M  V30 1858 H 176.207 -4.57082 2.12349 0
M  V30 1859 H 175.809 -2.86073 2.40911 0
M  V30 1860 H 178.101 -5.88986 3.34817 0
M  V30 1861 H 179.044 -5.26283 4.73743 0
M  V30 1862 H 179.452 -4.73138 3.07898 0
M  V30 1863 N 178.85 -1.27639 -0.924453 0
M  V30 1864 C 179.76 -1.12466 -2.05885 0
M  V30 1865 C 180.776 -0.053869 -1.73917 0
M  V30 1866 O 181.952 -0.261012 -1.99702 0
M  V30 1867 C 179.017 -0.776768 -3.37886 0
M  V30 1868 C 178.078 -1.92878 -3.83532 0
M  V30 1869 C 177.311 -1.59739 -5.09234 0
M  V30 1870 O 177.534 -0.506782 -5.68144 0
M  V30 1871 O 176.468 -2.43761 -5.50331 0
M  V30 1872 H 180.294 -2.07671 -2.21599 0
M  V30 1873 H 177.879 -1.06857 -1.04413 0
M  V30 1874 H 179.761 -0.596229 -4.17161 0
M  V30 1875 H 178.436 0.145732 -3.23372 0
M  V30 1876 H 177.343 -2.1644 -3.0513 0
M  V30 1877 H 178.676 -2.8316 -4.02593 0
M  V30 1878 N 180.328 1.1314 -1.09713 0
M  V30 1879 C 181.278 2.16709 -0.708593 0
M  V30 1880 C 182.262 1.58471 0.278523 0
M  V30 1881 O 183.454 1.76779 0.088427 0
M  V30 1882 C 180.583 3.43039 -0.133923 0
M  V30 1883 C 179.669 4.08277 -1.14763 0
M  V30 1884 N 180.06 4.48637 -2.33577 0
M  V30 1885 C 178.358 4.34954 -0.986446 0
M  V30 1886 C 179.059 4.9952 -2.98085 0
M  V30 1887 N 178.035 4.94561 -2.25632 0
M  V30 1888 H 181.837 2.45672 -1.61315 0
M  V30 1889 H 179.351 1.29967 -0.973775 0
M  V30 1890 H 181.348 4.16583 0.162465 0
M  V30 1891 H 180.008 3.15549 0.765447 0
M  V30 1892 H 181.019 4.41246 -2.7115 0
M  V30 1893 H 177.696 4.17258 -0.142008 0
M  V30 1894 H 179.086 5.40521 -3.99108 0
M  V30 1895 N 181.806 0.884767 1.30421 0
M  V30 1896 C 182.756 0.322846 2.25703 0
M  V30 1897 C 183.74 -0.548582 1.51259 0
M  V30 1898 O 184.932 -0.39304 1.72581 0
M  V30 1899 C 182.061 -0.461787 3.4018 0
M  V30 1900 C 181.147 0.423717 4.21978 0
M  V30 1901 N 181.538 1.52408 4.82292 0
M  V30 1902 C 179.836 0.218795 4.45463 0
M  V30 1903 C 180.537 2.07136 5.43571 0
M  V30 1904 N 179.513 1.36635 5.26148 0
M  V30 1905 H 183.315 1.16363 2.69883 0
M  V30 1906 H 180.829 0.73415 1.44859 0
M  V30 1907 H 182.826 -0.880985 4.07485 0
M  V30 1908 H 181.486 -1.30001 2.9754 0
M  V30 1909 H 182.497 1.90693 4.81515 0
M  V30 1910 H 179.174 -0.582275 4.1342 0
M  V30 1911 H 180.564 2.99538 6.01437 0
M  V30 1912 N 183.284 -1.43765 0.645699 0
M  V30 1913 C 184.247 -2.29163 -0.0409488 0
M  V30 1914 C 185.247 -1.41813 -0.757996 0
M  V30 1915 O 186.437 -1.63527 -0.600382 0
M  V30 1916 C 183.569 -3.23716 -1.06869 0
M  V30 1917 H 184.762 -2.91366 0.710345 0
M  V30 1918 H 182.315 -1.5092 0.406547 0
M  V30 1919 H 183.05 -2.66393 -1.84947 0
M  V30 1920 H 182.835 -3.88105 -0.558277 0
M  V30 1921 H 184.325 -3.87831 -1.54845 0
M  V30 1922 N 184.763 -0.387143 -1.52771 0
M  V30 1923 C 185.711 0.463953 -2.27926 0
M  V30 1924 C 186.705 1.06493 -1.31741 0
M  V30 1925 O 187.911 1.00565 -1.49287 0
M  V30 1926 H 184.286 0.16837 -0.732909 0
M  V30 1927 H 186.257 -0.19141 -2.97785 0
M  V30 1928 C 185.006 1.5803 -3.09713 0
M  V30 1929 H 184.329 1.12718 -3.83581 0
M  V30 1930 H 185.769 2.15008 -3.65442 0
M  V30 1931 C 184.228 2.53509 -2.2189 0
M  V30 1932 O 184.758 3.56863 -1.84422 0
M  V30 1933 N 182.964 2.23199 -1.86093 0
M  V30 1934 H 182.511 1.39185 -2.16761 0
M  V30 1935 H 182.469 2.87333 -1.27621 0
M  V30 1936 N 186.241 1.57166 -0.116904 0
M  V30 1937 C 187.49 1.94298 0.541407 0
M  V30 1938 C 187.803 1.00236 1.67964 0
M  V30 1939 O 189.009 1.26826 2.40057 0
M  V30 1940 C 187.465 3.45306 1.01449 0
M  V30 1941 C 187.073 4.47899 -0.0951738 0
M  V30 1942 C 188.817 3.91361 1.6443 0
M  V30 1943 C 186.724 5.90083 0.394491 0
M  V30 1944 H 185.654 0.725308 0.206019 0
M  V30 1945 H 188.305 1.82446 -0.196419 0
M  V30 1946 H 186.687 3.52385 1.80667 0
M  V30 1947 H 187.861 4.52486 -0.871374 0
M  V30 1948 H 186.176 4.11583 -0.631505 0
M  V30 1949 H 188.773 4.95004 2.02176 0
M  V30 1950 H 189.116 3.3122 2.52189 0
M  V30 1951 H 189.649 3.87073 0.917559 0
M  V30 1952 H 186.388 6.53974 -0.447004 0
M  V30 1953 H 185.908 5.88921 1.13722 0
M  V30 1954 H 187.587 6.41307 0.856399 0
M  V30 1955 N 187.719 -0.156864 1.56817 0
M  V30 1956 C 188.965 -0.872416 1.83076 0
M  V30 1957 C 189.298 -1.81261 0.697001 0
M  V30 1958 O 188.573 -1.92171 -0.30008 0
M  V30 1959 C 188.856 -1.65551 3.19789 0
M  V30 1960 C 188.709 -0.737467 4.43713 0
M  V30 1961 C 190.028 -2.62012 3.53606 0
M  V30 1962 H 187.147 -0.315715 0.665953 0
M  V30 1963 H 189.789 -0.138004 1.89498 0
M  V30 1964 H 187.939 -2.28159 3.14445 0
M  V30 1965 H 189.611 -0.123143 4.61136 0
M  V30 1966 H 187.854 -0.0464067 4.33775 0
M  V30 1967 H 188.525 -1.32122 5.35955 0
M  V30 1968 H 191.001 -2.09525 3.59497 0
M  V30 1969 H 189.877 -3.13861 4.50314 0
M  V30 1970 H 190.138 -3.42902 2.79053 0
M  V30 1971 N 189.197 -1.51736 -0.425897 0
M  V30 1972 C 190.608 -1.5732 -1.00536 0
M  V30 1973 C 190.959 -0.403537 -1.92005 0
M  V30 1974 O 190.084 0.478256 -2.11049 0
M  V30 1975 C 190.679 -2.85119 -1.8301 0
M  V30 1976 C 189.238 -2.93236 -2.35987 0
M  V30 1977 C 188.385 -2.52098 -1.15508 0
M  V30 1978 H 191.336 -1.57348 -0.206739 0
M  V30 1979 H 191.357 -2.69526 -2.68581 0
M  V30 1980 H 190.869 -3.7023 -1.16411 0
M  V30 1981 H 188.97 -2.12581 -3.06007 0
M  V30 1982 H 189.083 -3.9713 -2.68001 0
M  V30 1983 H 187.447 -2.05558 -1.50393 0
M  V30 1984 H 188.23 -3.39565 -0.505014 0
M  V30 1985 N 190.675 0.682077 -1.42076 0
M  V30 1986 C 191.921 1.44283 -1.43366 0
M  V30 1987 C 192.276 1.92344 -0.0465775 0
M  V30 1988 O 191.569 1.67517 0.929973 0
M  V30 1989 C 191.763 2.66036 -2.38662 0
M  V30 1990 C 191.592 2.29889 -3.86499 0
M  V30 1991 C 190.362 2.19599 -4.55087 0
M  V30 1992 C 192.56 1.91999 -4.77117 0
M  V30 1993 N 190.542 1.76478 -5.87987 0
M  V30 1994 C 191.913 1.59741 -5.99068 0
M  V30 1995 C 193.968 1.78927 -4.64639 0
M  V30 1996 C 192.671 1.15723 -7.0993 0
M  V30 1997 C 194.697 1.36314 -5.75476 0
M  V30 1998 C 194.059 1.04975 -6.96534 0
M  V30 1999 H 190.158 0.524739 -0.579805 0
M  V30 2000 H 192.742 0.787834 -1.78048 0
M  V30 2001 H 190.913 3.29237 -2.06053 0
M  V30 2002 H 192.645 3.32588 -2.30581 0
M  V30 2003 H 189.4 2.38433 -4.09202 0
M  V30 2004 H 189.824 1.57362 -6.58458 0
M  V30 2005 H 194.466 2.01805 -3.7153 0
M  V30 2006 H 192.184 0.91591 -8.02893 0
M  V30 2007 H 195.77 1.26731 -5.6783 0
M  V30 2008 H 194.65 0.725017 -7.80841 0
M  V30 2009 N 192.153 1.28127 0.917671 0
M  V30 2010 C 193.085 1.07517 2.02417 0
M  V30 2011 C 194.098 0.0281099 1.62776 0
M  V30 2012 O 195.287 0.270748 1.76435 0
M  V30 2013 C 192.387 0.610957 3.33347 0
M  V30 2014 C 191.56 1.73255 4.01624 0
M  V30 2015 C 190.619 1.26238 5.10833 0
M  V30 2016 O 189.645 1.96389 5.34247 0
M  V30 2017 N 190.847 0.123448 5.80369 0
M  V30 2018 H 193.612 2.02806 2.20658 0
M  V30 2019 H 191.173 1.19827 1.08871 0
M  V30 2020 H 193.165 0.280101 4.0373 0
M  V30 2021 H 191.735 -0.24898 3.11607 0
M  V30 2022 H 190.955 2.23319 3.24842 0
M  V30 2023 H 192.243 2.48503 4.43986 0
M  V30 2024 H 191.641 -0.461847 5.63812 0
M  V30 2025 H 190.198 -0.148158 6.51632 0
M  V30 2026 N 193.631 -1.12557 1.10312 0
M  V30 2027 C 194.564 -2.1737 0.694674 0
M  V30 2028 C 195.542 -1.59745 -0.303373 0
M  V30 2029 O 196.726 -1.87408 -0.202578 0
M  V30 2030 C 193.853 -3.38691 0.0248052 0
M  V30 2031 C 192.899 -4.14943 0.986121 0
M  V30 2032 S 193.732 -4.73413 2.50281 0
M  V30 2033 C 194.888 -5.9807 1.84562 0
M  V30 2034 H 195.121 -2.5168 1.58255 0
M  V30 2035 H 192.654 -1.23998 0.919992 0
M  V30 2036 H 194.612 -4.08959 -0.355361 0
M  V30 2037 H 193.273 -3.02664 -0.839851 0
M  V30 2038 H 192.466 -5.01854 0.464651 0
M  V30 2039 H 192.068 -3.50377 1.30813 0
M  V30 2040 H 194.36 -6.67232 1.17507 0
M  V30 2041 H 195.303 -6.54841 2.69423 0
M  V30 2042 H 195.711 -5.49073 1.31069 0
M  V30 2043 N 195.109 -0.891671 -1.2995 0
M  V30 2044 C 196.039 -0.379797 -2.30391 0
M  V30 2045 C 197.02 0.540919 -1.6127 0
M  V30 2046 O 198.205 0.453352 -1.88834 0
M  V30 2047 C 195.335 0.400654 -3.44981 0
M  V30 2048 C 194.289 -0.428905 -4.25846 0
M  V30 2049 C 193.615 0.478557 -5.32554 0
M  V30 2050 C 194.915 -1.67458 -4.94727 0
M  V30 2051 H 196.609 -1.21914 -2.73454 0
M  V30 2052 H 194.155 -0.587675 -1.31462 0
M  V30 2053 H 196.108 0.769434 -4.14316 0
M  V30 2054 H 194.832 1.27371 -3.0074 0
M  V30 2055 H 193.491 -0.779911 -3.58208 0
M  V30 2056 H 193.139 1.34951 -4.84559 0
M  V30 2057 H 192.839 -0.0727433 -5.87555 0
M  V30 2058 H 194.363 0.843705 -6.04743 0
M  V30 2059 H 195.777 -1.376 -5.56542 0
M  V30 2060 H 194.174 -2.16659 -5.59624 0
M  V30 2061 H 195.244 -2.41518 -4.20473 0
M  V30 2062 N 196.587 1.43421 -0.653314 0
M  V30 2063 C 197.827 2.03689 -0.170346 0
M  V30 2064 C 198.191 1.50427 1.19314 0
M  V30 2065 O 199.392 2.0234 1.76952 0
M  V30 2066 C 197.663 3.56946 -0.180183 0
M  V30 2067 S 199.222 4.38171 0.234925 0
M  V30 2068 H 196.04 0.707345 -0.0719976 0
M  V30 2069 H 198.642 1.75486 -0.86167 0
M  V30 2070 H 197.346 3.93212 -1.17526 0
M  V30 2071 H 196.877 3.89791 0.531675 0
M  V30 2072 H 198.892 4.73808 1.47378 0
M  V30 2073 N 198.065 0.39524 1.52563 0
M  V30 2074 C 199.028 -0.425001 2.25225 0
M  V30 2075 C 200.028 -0.985266 1.27079 0
M  V30 2076 O 201.218 -0.866332 1.5113 0
M  V30 2077 C 198.35 -1.59686 3.01186 0
M  V30 2078 H 199.543 0.211233 2.99155 0
M  V30 2079 H 197.096 0.147472 1.55603 0
M  V30 2080 H 197.831 -2.27035 2.31572 0
M  V30 2081 H 197.616 -1.20176 3.73229 0
M  V30 2082 H 199.106 -2.17743 3.5634 0
M  V30 2083 N 199.544 -1.57102 0.125237 0
M  V30 2084 C 200.96 -1.57915 -0.231322 0
M  V30 2085 C 201.16 -1.13833 -1.66266 0
M  V30 2086 O 200.216 -0.828581 -2.38518 0
M  V30 2087 C 201.529 -3.00699 0.00766489 0
M  V30 2088 C 203.077 -3.12947 -0.0577483 0
M  V30 2089 C 203.552 -4.57742 0.153626 0
M  V30 2090 N 205.043 -4.63092 0.0998073 0
M  V30 2091 C 205.778 -5.72905 0.238174 0
M  V30 2092 N 205.274 -6.91445 0.433057 0
M  V30 2093 N 207.067 -5.6182 0.177308 0
M  V30 2094 H 199.218 -1.84055 1.06007 0
M  V30 2095 H 201.481 -0.850905 0.417929 0
M  V30 2096 H 201.187 -3.3726 0.997431 0
M  V30 2097 H 201.061 -3.70236 -0.721452 0
M  V30 2098 H 203.448 -2.7624 -1.03804 0
M  V30 2099 H 203.529 -2.4594 0.70335 0
M  V30 2100 H 203.173 -4.95149 1.13092 0
M  V30 2101 H 203.103 -5.22848 -0.627534 0
M  V30 2102 H 205.594 -3.77871 -0.047051 0
M  V30 2103 H 205.907 -7.70985 0.529332 0
M  V30 2104 H 204.252 -6.93415 0.469109 0
M  V30 2105 H 207.443 -4.68093 0.0259748 0
M  V30 2106 H 207.616 -6.47357 0.288582 0
M  V30 2107 N 201.022 0.148545 -1.56898 0
M  V30 2108 C 202.268 0.862694 -1.83536 0
M  V30 2109 C 202.601 1.80889 -0.706604 0
M  V30 2110 O 201.876 1.92328 0.289885 0
M  V30 2111 C 202.159 1.63853 -3.20662 0
M  V30 2112 C 202.012 0.713925 -4.44098 0
M  V30 2113 C 203.331 2.60133 -3.54991 0
M  V30 2114 H 200.45 0.312179 -0.667618 0
M  V30 2115 H 203.092 0.127953 -1.89569 0
M  V30 2116 H 201.242 2.26489 -3.1565 0
M  V30 2117 H 202.914 0.098686 -4.61194 0
M  V30 2118 H 201.157 0.0234019 -4.33794 0
M  V30 2119 H 201.828 1.29278 -5.36648 0
M  V30 2120 H 204.304 2.07616 -3.60603 0
M  V30 2121 H 203.18 3.11468 -4.51972 0
M  V30 2122 H 203.441 3.41417 -2.80868 0
M  V30 2123 N 202.5 1.5196 0.417844 0
M  V30 2124 C 203.748 1.65263 1.16329 0
M  V30 2125 C 204.069 0.380634 1.91249 0
M  V30 2126 O 203.339 -0.604214 1.86349 0
M  V30 2127 H 201.919 0.60912 0.432414 0
M  V30 2128 H 204.581 1.88969 0.477162 0
M  V30 2129 H 203.677 2.4896 1.88217 0
M  V30 2130 N 203.978 -0.674533 1.42435 0
M  V30 2131 C 204.941 -1.76986 1.45632 0
M  V30 2132 C 205.941 -1.5708 0.343871 0
M  V30 2133 O 207.131 -1.63367 0.604709 0
M  V30 2134 C 204.263 -3.15623 1.28822 0
M  V30 2135 H 205.456 -1.75539 2.43158 0
M  V30 2136 H 203.009 -0.884189 1.28887 0
M  V30 2137 H 203.744 -3.22696 0.322193 0
M  V30 2138 H 203.529 -3.31475 2.09444 0
M  V30 2139 H 205.019 -3.95537 1.33942 0
M  V30 2140 N 205.456 -1.28612 -0.910864 0
M  V30 2141 C 206.366 -1.14643 -2.0468 0
M  V30 2142 C 207.382 -0.0723121 -1.7385 0
M  V30 2143 O 208.558 -0.282178 -1.99413 0
M  V30 2144 C 205.623 -0.812561 -3.37044 0
M  V30 2145 C 204.684 -1.96935 -3.81465 0
M  V30 2146 C 203.917 -1.65131 -5.07511 0
M  V30 2147 O 204.14 -0.567013 -5.67575 0
M  V30 2148 O 203.074 -2.49585 -5.47714 0
M  V30 2149 H 206.9 -2.1001 -2.19384 0
M  V30 2150 H 204.485 -1.07958 -1.03274 0
M  V30 2151 H 206.367 -0.640441 -4.16505 0
M  V30 2152 H 205.042 0.111426 -3.23508 0
M  V30 2153 H 203.949 -2.19664 -3.02818 0
M  V30 2154 H 205.282 -2.87414 -3.99567 0
M  V30 2155 N 206.934 1.1197 -1.10907 0
M  V30 2156 C 207.864 2.19928 -0.784473 0
M  V30 2157 C 208.845 1.6833 0.244726 0
M  V30 2158 O 210.03 1.93892 0.109418 0
M  V30 2159 C 207.16 3.46597 -0.220827 0
M  V30 2160 C 206.114 4.11376 -1.18127 0
M  V30 2161 C 205.44 5.32554 -0.478594 0
M  V30 2162 C 206.74 4.56945 -2.52979 0
M  V30 2163 H 208.434 2.47337 -1.68715 0
M  V30 2164 H 205.98 1.18879 -0.812642 0
M  V30 2165 H 207.933 4.21396 0.0184278 0
M  V30 2166 H 206.657 3.1863 0.717113 0
M  V30 2167 H 205.316 3.38564 -1.40606 0
M  V30 2168 H 204.964 5.00856 0.463976 0
M  V30 2169 H 204.664 5.76844 -1.11912 0
M  V30 2170 H 206.188 6.10096 -0.248 0
M  V30 2171 H 207.602 5.23093 -2.3462 0
M  V30 2172 H 205.999 5.1203 -3.12962 0
M  V30 2173 H 207.069 3.70676 -3.12614 0
M  V30 2174 N 208.412 0.89855 1.29475 0
M  V30 2175 C 209.828 0.594483 1.48115 0
M  V30 2176 C 210.028 -0.86431 1.82022 0
M  V30 2177 O 209.084 -1.64457 1.91599 0
M  V30 2178 C 210.397 1.51932 2.59494 0
M  V30 2179 C 211.945 1.5244 2.7337 0
M  V30 2180 C 212.42 2.43548 3.87877 0
M  V30 2181 N 213.911 2.41589 3.95208 0
M  V30 2182 C 214.646 3.08789 4.83153 0
M  V30 2183 N 214.142 3.85265 5.75798 0
M  V30 2184 N 215.935 2.97952 4.76635 0
M  V30 2185 H 208.086 1.84207 1.05742 0
M  V30 2186 H 210.349 0.789251 0.525154 0
M  V30 2187 H 210.055 2.55865 2.41301 0
M  V30 2188 H 209.929 1.23899 3.56271 0
M  V30 2189 H 212.316 0.492518 2.90961 0
M  V30 2190 H 212.397 1.8451 1.77172 0
M  V30 2191 H 212.041 3.46829 3.71041 0
M  V30 2192 H 211.971 2.08788 4.83441 0
M  V30 2193 H 214.462 1.86025 3.28943 0
M  V30 2194 H 214.775 4.33598 6.39697 0
M  V30 2195 H 213.12 3.89371 5.75687 0
M  V30 2196 H 216.311 2.37723 4.03244 0
M  V30 2197 H 216.484 3.50599 5.44962 0
M  V30 2198 N 209.89 -1.43072 0.660911 0
M  V30 2199 C 211.136 -2.0202 0.177708 0
M  V30 2200 C 211.469 -1.52066 -1.20787 0
M  V30 2201 O 210.744 -0.716987 -1.80802 0
M  V30 2202 C 211.027 -3.59561 0.197019 0
M  V30 2203 C 210.88 -4.19727 1.61706 0
M  V30 2204 C 212.199 -4.37664 -0.462396 0
M  V30 2205 H 209.318 -0.734034 0.0660494 0
M  V30 2206 H 211.96 -1.70272 0.843058 0
M  V30 2207 H 210.11 -3.86739 -0.369527 0
M  V30 2208 H 211.782 -4.03553 2.23479 0
M  V30 2209 H 210.025 -3.76084 2.16201 0
M  V30 2210 H 210.696 -5.28834 1.58237 0
M  V30 2211 H 213.172 -4.16095 0.0197215 0
M  V30 2212 H 212.048 -5.47305 -0.418188 0
M  V30 2213 H 212.309 -4.14493 -1.53778 0
M  V30 2214 N 211.368 -0.403325 -1.52352 0
M  V30 2215 C 212.617 0.175668 -2.00934 0
M  V30 2216 C 212.93 1.46718 -1.29356 0
M  V30 2217 O 214.136 2.12708 -1.68724 0
M  V30 2218 C 212.592 0.363612 -3.58058 0
M  V30 2219 C 212.2 -0.915472 -4.38547 0
M  V30 2220 C 213.944 0.89821 -4.14888 0
M  V30 2221 C 211.851 -0.695035 -5.87302 0
M  V30 2222 H 210.781 0.0694234 -0.750797 0
M  V30 2223 H 213.432 -0.527879 -1.75743 0
M  V30 2224 H 211.814 1.12935 -3.79555 0
M  V30 2225 H 212.988 -1.68691 -4.28812 0
M  V30 2226 H 211.303 -1.37606 -3.93006 0
M  V30 2227 H 213.9 1.07907 -5.23699 0
M  V30 2228 H 214.243 1.87126 -3.71873 0
M  V30 2229 H 214.776 0.191681 -3.97338 0
M  V30 2230 H 211.515 -1.63948 -6.34666 0
M  V30 2231 H 211.035 0.0372116 -5.99788 0
M  V30 2232 H 212.714 -0.33497 -6.46132 0
M  V30 2233 N 212.846 1.57033 -0.133567 0
M  V30 2234 C 214.257 1.82593 0.389464 0
M  V30 2235 C 214.608 1.05156 1.6564 0
M  V30 2236 O 213.733 0.292644 2.14412 0
M  V30 2237 C 214.328 3.31204 0.713377 0
M  V30 2238 C 212.887 3.57393 1.18098 0
M  V30 2239 C 212.034 2.76598 0.197126 0
M  V30 2240 H 214.985 1.54598 -0.358481 0
M  V30 2241 H 215.006 3.46627 1.56939 0
M  V30 2242 H 214.518 3.87537 -0.2089 0
M  V30 2243 H 212.619 3.06433 2.11966 0
M  V30 2244 H 212.732 4.65915 1.11624 0
M  V30 2245 H 211.096 2.45257 0.687088 0
M  V30 2246 H 211.879 3.35697 -0.718504 0
M  V30 2247 N 214.325 -0.140222 1.56975 0
M  V30 2248 C 215.255 -1.17456 2.01808 0
M  V30 2249 C 216.236 -1.44415 0.898794 0
M  V30 2250 O 217.421 -1.5522 1.16707 0
M  V30 2251 C 214.551 -2.50607 2.40444 0
M  V30 2252 C 213.505 -2.38155 3.55621 0
M  V30 2253 C 212.831 -3.76078 3.80091 0
M  V30 2254 C 214.131 -1.85991 4.88062 0
M  V30 2255 H 215.825 -0.801743 2.88466 0
M  V30 2256 H 213.371 -0.38422 1.38779 0
M  V30 2257 H 215.324 -3.23197 2.7041 0
M  V30 2258 H 214.048 -2.89737 1.50732 0
M  V30 2259 H 212.707 -1.68016 3.25832 0
M  V30 2260 H 212.355 -4.12656 2.87618 0
M  V30 2261 H 212.055 -3.68606 4.57606 0
M  V30 2262 H 213.579 -4.50206 4.12488 0
M  V30 2263 H 214.993 -2.4838 5.16701 0
M  V30 2264 H 213.39 -1.89393 5.6943 0
M  V30 2265 H 214.46 -0.816023 4.77984 0
M  V30 2266 N 215.803 -1.52179 -0.40978 0
M  V30 2267 C 216.751 -1.76086 -1.51975 0
M  V30 2268 C 217.745 -0.627964 -1.57331 0
M  V30 2269 O 218.951 -0.809993 -1.60745 0
M  V30 2270 H 215.326 -0.556829 -0.505416 0
M  V30 2271 H 217.297 -2.69077 -1.28996 0
M  V30 2272 C 216.046 -1.92799 -2.8935 0
M  V30 2273 H 215.369 -2.79392 -2.85972 0
M  V30 2274 H 216.809 -2.13527 -3.66309 0
M  V30 2275 C 215.268 -0.694923 -3.29655 0
M  V30 2276 O 215.798 0.13751 -4.01465 0
M  V30 2277 N 214.004 -0.53101 -2.85707 0
M  V30 2278 H 213.551 -1.20952 -2.27439 0
M  V30 2279 H 213.509 0.292718 -3.13034 0
M  V30 2280 N 217.281 0.66697 -1.42791 0
M  V30 2281 C 218.692 1.2478 -1.38877 0
M  V30 2282 C 219.043 1.96012 -0.0859426 0
M  V30 2283 O 218.168 2.00463 0.815081 0
M  V30 2284 C 218.763 2.26938 -2.51564 0
M  V30 2285 C 217.322 2.80529 -2.50959 0
M  V30 2286 C 216.469 1.54965 -2.29959 0
M  V30 2287 H 219.42 0.459853 -1.51892 0
M  V30 2288 H 219.441 3.08834 -2.22265 0
M  V30 2289 H 218.953 1.75065 -3.46372 0
M  V30 2290 H 217.054 3.36502 -1.59991 0
M  V30 2291 H 217.167 3.29012 -3.48265 0
M  V30 2292 H 215.531 1.81817 -1.78366 0
M  V30 2293 H 216.314 1.05047 -3.26833 0
M  V30 2294 N 218.759 1.29093 0.90403 0
M  V30 2295 C 220.036 1.075 1.63411 0
M  V30 2296 C 220.416 -0.382346 2.07609 0
M  V30 2297 O 219.764 -1.37031 1.82851 0
M  V30 2298 C 219.974 2.05858 2.81822 0
M  V30 2299 C 221.322 2.36539 3.52611 0
M  V30 2300 O 222.346 2.04019 2.91984 0
M  V30 2301 O 221.205 2.92085 4.61897 0
M  V30 2302 H 218.299 0.411547 0.717327 0
M  V30 2303 H 220.845 1.40449 0.952479 0
M  V30 2304 H 219.617 3.04037 2.46327 0
M  V30 2305 H 219.24 1.73613 3.57693 0
M  V30 2306 N 220.237 -1.11381 1.11499 0
M  V30 2307 C 221.485 -1.8277 0.862524 0
M  V30 2308 C 221.806 -1.85097 -0.613534 0
M  V30 2309 O 221.076 -1.32198 -1.4457 0
M  V30 2310 H 219.656 -0.676823 0.316101 0
M  V30 2311 H 222.318 -1.34816 1.4075 0
M  V30 2312 H 221.414 -2.86614 1.23527 0
M  V30 2313 N 221.715 -0.905404 -1.28997 0
M  V30 2314 C 222.943 -0.549846 -1.9946 0
M  V30 2315 C 223.358 0.866834 -1.67724 0
M  V30 2316 O 222.715 1.57298 -0.925404 0
M  V30 2317 C 222.766 -0.739387 -3.53858 0
M  V30 2318 O 222.487 -2.10031 -3.84472 0
M  V30 2319 C 223.988 -0.389541 -4.41585 0
M  V30 2320 H 221.208 -0.210429 -0.637151 0
M  V30 2321 H 223.752 -1.21632 -1.64396 0
M  V30 2322 H 221.907 -0.120023 -3.87214 0
M  V30 2323 H 222.321 -2.13385 -4.79132 0
M  V30 2324 H 223.795 -0.572972 -5.49018 0
M  V30 2325 H 224.272 0.673756 -4.34001 0
M  V30 2326 H 224.878 -0.986089 -4.1371 0
M  V30 2327 N 223.193 1.4272 -0.668489 0
M  V30 2328 C 224.123 2.335 -0.000100175 0
M  V30 2329 C 225.104 1.50328 0.795964 0
M  V30 2330 O 226.289 1.78949 0.754385 0
M  V30 2331 C 223.419 3.33874 0.956302 0
M  V30 2332 C 222.373 4.27152 0.269278 0
M  V30 2333 C 221.699 5.17684 1.33818 0
M  V30 2334 C 222.999 5.15373 -0.847805 0
M  V30 2335 H 224.693 2.89639 -0.758244 0
M  V30 2336 H 222.239 1.39269 -0.366079 0
M  V30 2337 H 224.192 3.9629 1.43292 0
M  V30 2338 H 222.916 2.76025 1.74579 0
M  V30 2339 H 221.575 3.66123 -0.187042 0
M  V30 2340 H 221.223 4.56165 2.1195 0
M  V30 2341 H 220.923 5.80918 0.883659 0
M  V30 2342 H 222.447 5.82974 1.81586 0
M  V30 2343 H 223.861 5.7151 -0.452681 0
M  V30 2344 H 222.258 5.87407 -1.22773 0
M  V30 2345 H 223.328 4.5415 -1.69929 0
M  V30 2346 N 224.671 0.411399 1.52136 0
M  V30 2347 C 225.603 -0.448386 2.24771 0
M  V30 2348 C 226.616 -1.00828 1.27818 0
M  V30 2349 O 227.805 -0.906841 1.53749 0
M  V30 2350 C 224.905 -1.63636 2.96777 0
M  V30 2351 C 224.078 -1.19995 4.20618 0
M  V30 2352 C 223.137 -2.25509 4.75428 0
M  V30 2353 O 222.163 -1.86007 5.3795 0
M  V30 2354 N 223.365 -3.577 4.57199 0
M  V30 2355 H 226.13 0.174025 2.99194 0
M  V30 2356 H 223.691 0.238897 1.60128 0
M  V30 2357 H 225.683 -2.33793 3.30338 0
M  V30 2358 H 224.253 -2.16465 2.25526 0
M  V30 2359 H 223.473 -0.326421 3.92846 0
M  V30 2360 H 224.761 -0.885365 5.01038 0
M  V30 2361 H 224.159 -3.92543 4.07341 0
M  V30 2362 H 222.716 -4.23827 4.95191 0
M  V30 2363 N 226.149 -1.5696 0.141893 0
M  V30 2364 C 227.079 -2.19516 -0.795936 0
M  V30 2365 C 228.06 -1.14187 -1.26077 0
M  V30 2366 O 229.245 -1.42511 -1.31925 0
M  V30 2367 C 226.375 -2.81272 -2.03723 0
M  V30 2368 C 225.329 -3.92384 -1.70936 0
M  V30 2369 C 224.655 -4.41052 -3.02287 0
M  V30 2370 C 225.955 -5.13403 -0.959954 0
M  V30 2371 H 227.649 -2.98138 -0.274596 0
M  V30 2372 H 225.195 -1.43406 -0.130636 0
M  V30 2373 H 227.148 -3.237 -2.69808 0
M  V30 2374 H 225.872 -1.99973 -2.58221 0
M  V30 2375 H 224.531 -3.50566 -1.07232 0
M  V30 2376 H 224.179 -3.56582 -3.54765 0
M  V30 2377 H 223.879 -5.15993 -2.81114 0
M  V30 2378 H 225.403 -4.86146 -3.69451 0
M  V30 2379 H 226.817 -5.52706 -1.52279 0
M  V30 2380 H 225.214 -5.94073 -0.848357 0
M  V30 2381 H 226.284 -4.84875 0.0492434 0
M  V30 2382 N 227.627 0.131896 -1.57047 0
M  V30 2383 C 228.537 1.1815 -2.02676 0
M  V30 2384 C 229.553 1.46113 -0.944824 0
M  V30 2385 O 230.729 1.57485 -1.25541 0
M  V30 2386 C 227.794 2.49139 -2.41103 0
M  V30 2387 C 226.855 2.28688 -3.63318 0
M  V30 2388 C 226.088 3.53431 -3.99903 0
M  V30 2389 O 226.311 4.60223 -3.36973 0
M  V30 2390 O 225.245 3.45198 -4.93074 0
M  V30 2391 H 229.071 0.824069 -2.92306 0
M  V30 2392 H 226.656 0.341745 -1.45439 0
M  V30 2393 H 228.538 3.26338 -2.66611 0
M  V30 2394 H 227.213 2.84382 -1.54624 0
M  V30 2395 H 226.12 1.4939 -3.42977 0
M  V30 2396 H 227.453 1.98355 -4.50462 0
M  V30 2397 N 229.106 1.52395 0.401703 0
M  V30 2398 C 230.334 1.70676 1.16949 0
M  V30 2399 C 230.749 0.419503 1.8408 0
M  V30 2400 O 230.106 -0.605061 1.72178 0
M  V30 2401 C 230.157 2.84753 2.22706 0
M  V30 2402 O 229.878 4.08495 1.58314 0
M  V30 2403 C 231.379 3.14608 3.12309 0
M  V30 2404 H 228.599 0.571787 0.351142 0
M  V30 2405 H 231.143 1.98987 0.471652 0
M  V30 2406 H 229.298 2.58941 2.88147 0
M  V30 2407 H 229.712 4.72117 2.28485 0
M  V30 2408 H 231.186 3.97923 3.82572 0
M  V30 2409 H 231.663 2.28464 3.75101 0
M  V30 2410 H 232.269 3.42212 2.52529 0
M  V30 2411 N 230.584 -0.659388 1.43143 0
M  V30 2412 C 231.514 -1.78422 1.50625 0
M  V30 2413 C 232.495 -1.66216 0.361443 0
M  V30 2414 O 233.68 -1.85404 0.577834 0
M  V30 2415 C 230.81 -3.16815 1.42287 0
M  V30 2416 C 229.764 -3.43777 2.54954 0
M  V30 2417 C 229.09 -4.81905 2.31671 0
M  V30 2418 C 230.39 -3.39134 3.97222 0
M  V30 2419 H 232.084 -1.72417 2.44771 0
M  V30 2420 H 229.63 -0.828084 1.17808 0
M  V30 2421 H 231.583 -3.95253 1.46127 0
M  V30 2422 H 230.307 -3.23534 0.446435 0
M  V30 2423 H 228.966 -2.67707 2.50457 0
M  V30 2424 H 228.614 -4.85294 1.32284 0
M  V30 2425 H 228.314 -5.00906 3.07192 0
M  V30 2426 H 229.838 -5.62609 2.37284 0
M  V30 2427 H 231.252 -4.07518 4.03239 0
M  V30 2428 H 229.649 -3.69671 4.72719 0
M  V30 2429 H 230.719 -2.37426 4.22797 0
M  V30 2430 N 232.062 -1.29571 -0.897171 0
M  V30 2431 C 233.473 -1.15964 -1.46319 0
M  V30 2432 C 233.824 0.244267 -1.94674 0
M  V30 2433 O 232.949 1.13998 -1.83939 0
M  V30 2434 C 233.544 -2.09906 -2.65942 0
M  V30 2435 C 232.103 -2.00314 -3.18671 0
M  V30 2436 C 231.25 -2.00687 -1.91363 0
M  V30 2437 H 234.201 -1.42019 -0.708268 0
M  V30 2438 H 234.222 -1.67276 -3.41759 0
M  V30 2439 H 233.734 -3.12075 -2.30718 0
M  V30 2440 H 231.835 -1.01242 -3.58582 0
M  V30 2441 H 231.948 -2.88102 -3.82798 0
M  V30 2442 H 230.312 -1.45319 -2.09175 0
M  V30 2443 H 231.095 -3.04566 -1.58413 0
M  V30 2444 N 233.54 1.10788 -1.12088 0
M  V30 2445 C 234.768 1.86461 -0.896651 0
M  V30 2446 C 235.183 1.80492 0.553912 0
M  V30 2447 O 234.54 1.19102 1.38278 0
M  V30 2448 C 234.591 3.35006 -1.35843 0
M  V30 2449 O 234.312 3.40866 -2.75213 0
M  V30 2450 C 235.813 4.27565 -1.1706 0
M  V30 2451 H 233.033 0.589425 -0.320654 0
M  V30 2452 H 235.577 1.40076 -1.48993 0
M  V30 2453 H 233.732 3.7887 -0.808458 0
M  V30 2454 H 234.146 4.33411 -2.9539 0
M  V30 2455 H 235.62 5.30007 -1.54263 0
M  V30 2456 H 236.097 4.3906 -0.110814 0
M  V30 2457 H 236.703 3.89501 -1.70789 0
M  V30 2458 N 235.018 0.912232 1.28515 0
M  V30 2459 C 235.948 0.416403 2.29757 0
M  V30 2460 C 236.929 -0.515194 1.6211 0
M  V30 2461 O 238.114 -0.423253 1.89532 0
M  V30 2462 C 235.244 -0.34572 3.45575 0
M  V30 2463 C 234.198 0.496599 4.25109 0
M  V30 2464 C 233.524 -0.393771 5.33248 0
M  V30 2465 C 234.824 1.75307 4.92001 0
M  V30 2466 H 236.518 1.26249 2.7148 0
M  V30 2467 H 234.064 0.608515 1.30511 0
M  V30 2468 H 236.017 -0.703422 4.15488 0
M  V30 2469 H 234.741 -1.2257 3.02728 0
M  V30 2470 H 233.4 0.8368 3.56922 0
M  V30 2471 H 233.048 -1.27225 4.86644 0
M  V30 2472 H 232.748 0.166209 5.87365 0
M  V30 2473 H 234.272 -0.747389 6.06009 0
M  V30 2474 H 235.686 1.46437 5.54283 0
M  V30 2475 H 234.083 2.25534 5.56106 0
M  V30 2476 H 235.153 2.48176 4.16577 0
M  V30 2477 N 236.496 -1.42363 0.676048 0
M  V30 2478 C 237.743 -2.01522 0.19883 0
M  V30 2479 C 238.071 -1.53456 -1.19505 0
M  V30 2480 O 237.326 -0.727967 -1.81657 0
M  V30 2481 C 237.625 -3.56929 0.183431 0
M  V30 2482 C 237.291 -4.24431 1.52215 0
M  V30 2483 C 235.953 -4.42585 1.8887 0
M  V30 2484 C 238.305 -4.62459 2.40377 0
M  V30 2485 C 235.633 -4.96039 3.13309 0
M  V30 2486 C 237.985 -5.17294 3.64129 0
M  V30 2487 C 236.649 -5.33661 4.00951 0
M  V30 2488 H 235.919 -0.737419 0.0727571 0
M  V30 2489 H 238.566 -1.70531 0.871281 0
M  V30 2490 H 236.871 -3.87594 -0.572532 0
M  V30 2491 H 238.568 -4.00486 -0.203035 0
M  V30 2492 H 235.158 -4.10661 1.22701 0
M  V30 2493 H 239.342 -4.48105 2.13343 0
M  V30 2494 H 234.598 -5.06896 3.41857 0
M  V30 2495 H 238.772 -5.45704 4.32644 0
M  V30 2496 H 236.399 -5.74845 4.9745 0
M  V30 2497 N 237.974 -0.419461 -1.51915 0
M  V30 2498 C 239.251 0.211999 -1.94448 0
M  V30 2499 C 239.631 1.61703 -1.35703 0
M  V30 2500 O 238.979 2.22102 -0.536931 0
M  V30 2501 C 239.189 0.207872 -3.4838 0
M  V30 2502 C 240.537 0.422192 -4.22496 0
M  V30 2503 O 241.561 0.286778 -3.55044 0
M  V30 2504 O 240.42 0.690009 -5.42126 0
M  V30 2505 H 237.514 0.139586 -0.815135 0
M  V30 2506 H 240.06 -0.476151 -1.62883 0
M  V30 2507 H 238.832 -0.775102 -3.83546 0
M  V30 2508 H 238.455 0.939688 -3.86336 0
M  V30 2509 N 239.452 1.56882 -0.150215 0
M  V30 2510 C 240.362 2.20494 0.801222 0
M  V30 2511 C 241.378 1.19019 1.26927 0
M  V30 2512 O 242.554 1.51607 1.32579 0
M  V30 2513 C 239.619 2.81659 2.02161 0
M  V30 2514 C 238.68 3.9827 1.60249 0
M  V30 2515 C 237.913 4.56508 2.7647 0
M  V30 2516 O 238.136 4.13627 3.92771 0
M  V30 2517 O 237.07 5.46719 2.51757 0
M  V30 2518 H 240.896 3.02315 0.289717 0
M  V30 2519 H 238.481 1.49202 0.0769684 0
M  V30 2520 H 240.363 3.20522 2.73576 0
M  V30 2521 H 239.038 2.02849 2.52258 0
M  V30 2522 H 237.945 3.64117 0.858477 0
M  V30 2523 H 239.278 4.78609 1.14864 0
M  V30 2524 N 240.93 -0.123565 1.57115 0
M  V30 2525 C 241.877 -1.15177 2.00007 0
M  V30 2526 C 242.847 -1.41403 0.871454 0
M  V30 2527 O 244.032 -1.53346 1.13533 0
M  V30 2528 C 241.172 -2.47436 2.40561 0
M  V30 2529 C 240.285 -2.28184 3.66819 0
M  V30 2530 C 239.42 -3.53641 3.96373 0
M  V30 2531 C 238.459 -3.29528 5.15827 0
M  V30 2532 N 237.596 -4.47175 5.41275 0
M  V30 2533 H 242.436 -0.779008 2.87638 0
M  V30 2534 H 239.973 -0.373166 1.42288 0
M  V30 2535 H 241.931 -3.24584 2.62109 0
M  V30 2536 H 240.561 -2.82614 1.55978 0
M  V30 2537 H 239.613 -1.41976 3.52912 0
M  V30 2538 H 240.925 -2.0634 4.5412 0
M  V30 2539 H 240.079 -4.39209 4.18545 0
M  V30 2540 H 238.818 -3.78512 3.07538 0
M  V30 2541 H 237.823 -2.42349 4.93505 0
M  V30 2542 H 239.048 -3.06031 6.06236 0
M  V30 2543 H 236.994 -4.72175 4.55397 0
M  V30 2544 H 236.911 -4.28419 6.22891 0
M  V30 2545 H 238.179 -5.3389 5.67963 0
M  V30 2546 N 242.408 -1.52605 -0.393616 0
M  V30 2547 C 243.636 -1.71294 -1.16043 0
M  V30 2548 C 244.051 -0.429259 -1.83855 0
M  V30 2549 O 243.408 0.595921 -1.72496 0
M  V30 2550 C 243.459 -2.8593 -2.21193 0
M  V30 2551 O 243.18 -4.09329 -1.56146 0
M  V30 2552 C 244.681 -3.16259 -3.10636 0
M  V30 2553 H 241.901 -0.573641 -0.348104 0
M  V30 2554 H 244.445 -1.99234 -0.461092 0
M  V30 2555 H 242.6 -2.60465 -2.86769 0
M  V30 2556 H 243.014 -4.73323 -2.25978 0
M  V30 2557 H 244.488 -3.99946 -3.80456 0
M  V30 2558 H 244.965 -2.3045 -3.73884 0
M  V30 2559 H 245.571 -3.43547 -2.50711 0
M  V30 2560 N 243.887 0.651787 -1.4349 0
M  V30 2561 C 245.303 0.96762 -1.26922 0
M  V30 2562 C 245.503 2.00602 -0.189982 0
M  V30 2563 O 244.559 2.48793 0.431107 0
M  V30 2564 C 245.872 1.45052 -2.63401 0
M  V30 2565 C 247.42 1.5671 -2.70945 0
M  V30 2566 C 247.895 2.0839 -4.07845 0
M  V30 2567 N 249.386 2.1569 -4.09917 0
M  V30 2568 C 250.121 2.56804 -5.12679 0
M  V30 2569 N 249.617 2.97203 -6.25813 0
M  V30 2570 N 251.41 2.56756 -5.00033 0
M  V30 2571 H 243.561 -0.0353158 -2.12371 0
M  V30 2572 H 245.824 0.0467858 -0.946845 0
M  V30 2573 H 245.53 0.761926 -3.43348 0
M  V30 2574 H 245.404 2.42529 -2.88894 0
M  V30 2575 H 247.791 2.2467 -1.9133 0
M  V30 2576 H 247.872 0.57662 -2.49216 0
M  V30 2577 H 247.516 1.41031 -4.87927 0
M  V30 2578 H 247.446 3.08271 -4.26938 0
M  V30 2579 H 249.937 1.87237 -3.28254 0
M  V30 2580 H 250.25 3.27328 -7.00055 0
M  V30 2581 H 248.595 2.95004 -6.29283 0
M  V30 2582 H 251.786 2.24572 -4.10713 0
M  V30 2583 H 251.959 2.88475 -5.80247 0
M  V30 2584 N 245.365 1.30045 0.890287 0
M  V30 2585 C 246.295 1.18541 2.01172 0
M  V30 2586 C 247.276 0.0773356 1.69924 0
M  V30 2587 O 248.461 0.25845 1.92473 0
M  V30 2588 C 245.591 0.870941 3.36202 0
M  V30 2589 C 244.545 1.93637 3.81692 0
M  V30 2590 C 243.871 1.475 5.13953 0
M  V30 2591 C 245.171 3.34666 4.00994 0
M  V30 2592 H 246.865 2.12359 2.11054 0
M  V30 2593 H 244.411 1.02238 1.01407 0
M  V30 2594 H 246.364 0.777141 4.14172 0
M  V30 2595 H 245.088 -0.102926 3.26438 0
M  V30 2596 H 243.747 2.01972 3.05946 0
M  V30 2597 H 243.395 0.489551 5.00612 0
M  V30 2598 H 243.095 2.1876 5.4536 0
M  V30 2599 H 244.619 1.39489 5.94454 0
M  V30 2600 H 246.033 3.2912 4.69417 0
M  V30 2601 H 244.43 4.03966 4.43769 0
M  V30 2602 H 245.5 3.76949 3.05021 0
M  V30 2603 N 246.843 -1.10192 1.12674 0
M  V30 2604 C 247.773 -2.18652 0.819362 0
M  V30 2605 C 248.754 -1.68698 -0.217915 0
M  V30 2606 O 249.939 -1.94041 -0.0785581 0
M  V30 2607 C 247.069 -3.46202 0.27594 0
M  V30 2608 C 246.023 -4.09444 1.24656 0
M  V30 2609 C 245.349 -5.31725 0.563258 0
M  V30 2610 C 246.649 -4.52863 2.60217 0
M  V30 2611 H 248.343 -2.44622 1.72628 0
M  V30 2612 H 245.889 -1.17571 0.831451 0
M  V30 2613 H 247.842 -4.21372 0.0486149 0
M  V30 2614 H 246.566 -3.1973 -0.666331 0
M  V30 2615 H 245.225 -3.36284 1.45974 0
M  V30 2616 H 244.873 -5.0153 -0.384235 0
M  V30 2617 H 244.573 -5.74991 1.21075 0
M  V30 2618 H 246.097 -6.09624 0.34503 0
M  V30 2619 H 247.511 -5.19294 2.42913 0
M  V30 2620 H 245.908 -5.06986 3.21068 0
M  V30 2621 H 246.978 -3.65656 3.18471 0
M  V30 2622 N 248.321 -0.919034 -1.28029 0
M  V30 2623 C 249.284 -0.416182 -2.2539 0
M  V30 2624 C 250.284 0.460438 -1.54067 0
M  V30 2625 O 251.474 0.262744 -1.72207 0
M  V30 2626 C 248.606 0.402707 -3.38513 0
M  V30 2627 H 249.799 -1.27629 -2.71387 0
M  V30 2628 H 247.352 -0.698919 -1.39803 0
M  V30 2629 H 248.087 1.282 -2.97885 0
M  V30 2630 H 247.872 -0.225698 -3.9145 0
M  V30 2631 H 249.362 0.745191 -4.10897 0
M  V30 2632 N 249.799 1.42003 -0.683588 0
M  V30 2633 C 251.048 2.00638 -0.206681 0
M  V30 2634 C 251.361 1.5472 1.19671 0
M  V30 2635 O 252.567 2.05833 1.77045 0
M  V30 2636 C 251.023 3.58487 -0.318632 0
M  V30 2637 C 250.631 4.1339 -1.72663 0
M  V30 2638 C 252.375 4.24384 0.0991141 0
M  V30 2639 C 250.282 5.63633 -1.79087 0
M  V30 2640 H 249.212 0.750408 -0.0735107 0
M  V30 2641 H 251.863 1.62624 -0.850048 0
M  V30 2642 H 250.245 3.94047 0.392781 0
M  V30 2643 H 251.419 3.89273 -2.46583 0
M  V30 2644 H 249.734 3.59976 -2.09299 0
M  V30 2645 H 252.331 5.34652 0.0713833 0
M  V30 2646 H 252.674 4.00505 1.13586 0
M  V30 2647 H 253.207 3.93816 -0.561599 0
M  V30 2648 H 249.946 5.92323 -2.80774 0
M  V30 2649 H 249.466 5.89714 -1.09535 0
M  V30 2650 H 251.145 6.28201 -1.5483 0
M  V30 2651 N 251.277 0.427512 1.51691 0
M  V30 2652 C 252.505 -0.141191 2.06418 0
M  V30 2653 C 252.92 -1.37303 1.29589 0
M  V30 2654 O 252.277 -1.79059 0.352732 0
M  V30 2655 C 252.328 -0.473266 3.58389 0
M  V30 2656 O 252.049 0.709673 4.32314 0
M  V30 2657 C 253.55 -1.09371 4.29596 0
M  V30 2658 H 250.77 -0.0122747 0.670888 0
M  V30 2659 H 253.314 0.603764 1.95384 0
M  V30 2660 H 251.469 -1.16812 3.69369 0
M  V30 2661 H 251.883 0.42807 5.2275 0
M  V30 2662 H 253.357 -1.27613 5.37046 0
M  V30 2663 H 253.834 -2.072 3.87253 0
M  V30 2664 H 254.44 -0.43853 4.23033 0
M  V30 2665 N 252.755 -1.56801 0.158532 0
M  V30 2666 C 253.705 -2.13923 -0.788738 0
M  V30 2667 C 254.689 -1.07006 -1.2016 0
M  V30 2668 O 255.881 -1.33159 -1.1661 0
M  V30 2669 C 253.01 -2.77348 -2.02319 0
M  V30 2670 C 252.096 -3.91404 -1.6329 0
M  V30 2671 N 252.487 -4.9677 -0.951463 0
M  V30 2672 C 250.785 -4.02326 -1.92482 0
M  V30 2673 C 251.486 -5.76698 -0.761221 0
M  V30 2674 N 250.462 -5.27859 -1.29869 0
M  V30 2675 H 254.264 -2.92757 -0.258995 0
M  V30 2676 H 251.778 -1.62344 -0.0426055 0
M  V30 2677 H 253.775 -3.16639 -2.71192 0
M  V30 2678 H 252.435 -1.99991 -2.558 0
M  V30 2679 H 253.446 -5.14284 -0.610928 0
M  V30 2680 H 250.123 -3.36059 -2.47732 0
M  V30 2681 H 251.513 -6.71529 -0.223284 0
M  V30 2682 N 254.233 0.115231 -1.57178 0
M  V30 2683 C 255.479 0.82357 -1.85325 0
M  V30 2684 C 255.812 1.79349 -0.744814 0
M  V30 2685 O 255.087 1.92899 0.249024 0
M  V30 2686 C 255.37 1.57014 -3.24066 0
M  V30 2687 C 255.223 0.619565 -4.45513 0
M  V30 2688 C 256.542 2.52545 -3.60429 0
M  V30 2689 H 253.661 0.297948 -0.674089 0
M  V30 2690 H 256.303 0.0877138 -1.89797 0
M  V30 2691 H 254.453 2.19742 -3.20383 0
M  V30 2692 H 256.125 0.000837639 -4.613 0
M  V30 2693 H 254.368 -0.0686174 -4.33746 0
M  V30 2694 H 255.039 1.17866 -5.3927 0
M  V30 2695 H 257.515 1.9992 -3.64926 0
M  V30 2696 H 256.391 3.01811 -4.58477 0
M  V30 2697 H 256.652 3.35383 -2.88047 0
M  V30 2698 N 255.711 1.52812 0.385517 0
M  V30 2699 C 256.936 1.72207 1.15583 0
M  V30 2700 C 257.361 0.441034 1.82857 0
M  V30 2701 O 256.719 -0.603465 1.70962 0
M  V30 2702 C 256.767 2.87476 2.17692 0
M  V30 2703 O 255.871 2.54693 3.24354 0
M  V30 2704 H 255.212 0.572526 0.336319 0
M  V30 2705 H 257.742 1.99618 0.448744 0
M  V30 2706 H 257.752 3.13072 2.6163 0
M  V30 2707 H 256.427 3.80408 1.68115 0
M  V30 2708 H 255.004 2.3985 2.85529 0
M  V30 2709 N 257.189 -0.644168 1.43834 0
M  V30 2710 C 258.137 -1.77793 1.49974 0
M  V30 2711 C 259.131 -1.65253 0.372536 0
M  V30 2712 O 260.337 -1.7149 0.546924 0
M  V30 2713 H 256.712 -0.58675 0.47035 0
M  V30 2714 H 258.683 -1.69736 2.45423 0
M  V30 2715 C 257.432 -3.16087 1.4486 0
M  V30 2716 H 256.755 -3.26378 2.30905 0
M  V30 2717 H 258.195 -3.95349 1.53217 0
M  V30 2718 C 256.654 -3.36484 0.167463 0
M  V30 2719 O 257.184 -3.94298 -0.767609 0
M  V30 2720 N 255.39 -2.90504 0.0747556 0
M  V30 2721 H 254.937 -2.4364 0.836507 0
M  V30 2722 H 254.895 -3.04527 -0.781714 0
M  V30 2723 N 258.668 -1.30515 -0.883378 0
M  V30 2724 C 259.914 -1.19607 -1.63774 0
M  V30 2725 C 260.247 0.248314 -1.92606 0
M  V30 2726 O 259.522 1.17742 -1.54813 0
M  V30 2727 C 259.805 -2.02669 -2.97653 0
M  V30 2728 C 259.658 -3.55335 -2.75784 0
M  V30 2729 C 260.977 -1.86573 -3.98596 0
M  V30 2730 H 258.096 -0.435856 -0.594305 0
M  V30 2731 H 260.738 -1.60165 -1.02212 0
M  V30 2732 H 258.888 -1.68208 -3.50197 0
M  V30 2733 H 260.56 -3.99863 -2.30016 0
M  V30 2734 H 258.803 -3.79438 -2.1026 0
M  V30 2735 H 259.474 -4.08745 -3.70988 0
M  V30 2736 H 261.95 -2.16703 -3.55217 0
M  V30 2737 H 260.826 -2.47014 -4.90179 0
M  V30 2738 H 261.087 -0.825321 -4.34328 0
M  V30 2739 N 260.146 1.09593 -1.13257 0
M  V30 2740 C 261.076 2.18214 -0.830946 0
M  V30 2741 C 262.057 1.68812 0.208966 0
M  V30 2742 O 263.242 1.9408 0.0682666 0
M  V30 2743 C 260.372 3.46051 -0.294296 0
M  V30 2744 C 259.326 4.08778 -1.26826 0
M  V30 2745 C 258.652 5.31419 -0.591449 0
M  V30 2746 C 259.952 4.51476 -2.62615 0
M  V30 2747 H 261.646 2.43703 -1.73923 0
M  V30 2748 H 259.192 1.17128 -0.837675 0
M  V30 2749 H 261.145 4.2134 -0.0709606 0
M  V30 2750 H 259.869 3.20079 0.649366 0
M  V30 2751 H 258.528 3.35505 -1.47756 0
M  V30 2752 H 258.176 5.01727 0.357633 0
M  V30 2753 H 257.876 5.74341 -1.24123 0
M  V30 2754 H 259.4 6.09433 -0.377355 0
M  V30 2755 H 260.814 5.17999 -2.45663 0
M  V30 2756 H 259.211 5.05277 -3.23752 0
M  V30 2757 H 260.281 3.63962 -3.20406 0
M  V30 2758 N 261.624 0.925811 1.2754 0
M  V30 2759 C 262.872 0.564138 1.94067 0
M  V30 2760 C 263.193 -0.897188 1.73134 0
M  V30 2761 O 262.463 -1.63573 1.07799 0
M  V30 2762 H 261.043 0.205645 0.718136 0
M  V30 2763 H 263.705 1.1778 1.55287 0
M  V30 2764 H 262.801 0.76881 3.02483 0
M  V30 2765 N 263.102 -1.41638 0.69111 0
M  V30 2766 C 264.33 -2.05628 0.22909 0
M  V30 2767 C 264.745 -1.51992 -1.11999 0
M  V30 2768 O 264.102 -0.666322 -1.69901 0
M  V30 2769 C 264.153 -3.61084 0.173283 0
M  V30 2770 O 263.874 -4.12735 1.46907 0
M  V30 2771 C 265.375 -4.42213 -0.310266 0
M  V30 2772 H 262.595 -0.662327 0.107534 0
M  V30 2773 H 265.139 -1.81489 0.942438 0
M  V30 2774 H 263.294 -3.84278 -0.490858 0
M  V30 2775 H 263.708 -5.06743 1.35322 0
M  V30 2776 H 265.182 -5.51194 -0.298196 0
M  V30 2777 H 265.659 -4.1799 -1.34838 0
M  V30 2778 H 266.265 -4.24074 0.322716 0
M  V30 2779 N 264.58 -0.43555 -1.51462 0
M  V30 2780 C 265.49 0.383001 -2.31453 0
M  V30 2781 C 266.506 1.02931 -1.4029 0
M  V30 2782 O 267.682 1.02507 -1.73362 0
M  V30 2783 C 264.747 1.47043 -3.13973 0
M  V30 2784 C 263.808 0.844433 -4.20913 0
M  V30 2785 C 263.041 1.88004 -4.9949 0
M  V30 2786 O 263.264 3.10199 -4.78678 0
M  V30 2787 O 262.198 1.47157 -5.83634 0
M  V30 2788 H 266.024 -0.269964 -3.02498 0
M  V30 2789 H 263.609 -0.19813 -1.4808 0
M  V30 2790 H 265.491 2.10113 -3.65281 0
M  V30 2791 H 264.166 2.10751 -2.45695 0
M  V30 2792 H 263.073 0.175729 -3.73687 0
M  V30 2793 H 264.406 0.250869 -4.9156 0
M  V30 2794 N 266.058 1.56714 -0.166846 0
M  V30 2795 C 267.006 2.19056 0.782123 0
M  V30 2796 C 268 1.15328 1.24079 0
M  V30 2797 O 269.206 1.33537 1.20697 0
M  V30 2798 H 265.581 0.70167 0.270486 0
M  V30 2799 H 267.552 2.97494 0.232322 0
M  V30 2800 C 266.301 2.84206 2.00306 0
M  V30 2801 H 265.624 3.63748 1.65914 0
M  V30 2802 H 267.064 3.31302 2.64604 0
M  V30 2803 C 265.523 1.83744 2.82382 0
M  V30 2804 O 266.053 1.32014 3.79388 0
M  V30 2805 N 264.259 1.52601 2.47308 0
M  V30 2806 H 263.806 1.9486 1.68485 0
M  V30 2807 H 263.764 0.856351 3.02513 0
M  V30 2808 N 267.536 -0.106894 1.57237 0
M  V30 2809 C 268.947 -0.662723 1.74542 0
M  V30 2810 C 269.298 -1.7971 0.787319 0
M  V30 2811 O 268.423 -2.16368 -0.0369636 0
M  V30 2812 C 269.018 -1.20896 3.16496 0
M  V30 2813 C 267.577 -1.71096 3.35266 0
M  V30 2814 C 266.724 -0.615642 2.7038 0
M  V30 2815 H 269.675 0.119106 1.58252 0
M  V30 2816 H 269.696 -2.07847 3.18716 0
M  V30 2817 H 269.208 -0.383122 3.86204 0
M  V30 2818 H 267.309 -2.56119 2.70618 0
M  V30 2819 H 267.422 -1.81208 4.43509 0
M  V30 2820 H 265.786 -1.05222 2.31949 0
M  V30 2821 H 266.569 0.199419 3.4272 0
M  V30 2822 N 269.014 -1.53014 -0.377408 0
M  V30 2823 C 269.944 -1.81589 -1.46791 0
M  V30 2824 C 270.925 -0.668622 -1.56408 0
M  V30 2825 O 272.11 -0.917337 -1.71168 0
M  V30 2826 C 269.24 -1.99519 -2.8427 0
M  V30 2827 C 268.194 -3.15249 -2.89486 0
M  V30 2828 C 267.52 -3.18451 -4.29527 0
M  V30 2829 C 268.82 -4.54084 -2.58079 0
M  V30 2830 H 270.514 -2.7291 -1.23127 0
M  V30 2831 H 268.06 -1.31319 -0.590883 0
M  V30 2832 H 270.013 -2.18092 -3.60575 0
M  V30 2833 H 268.737 -1.04897 -3.09296 0
M  V30 2834 H 267.396 -2.96477 -2.15631 0
M  V30 2835 H 267.044 -2.2149 -4.5161 0
M  V30 2836 H 266.744 -3.962 -4.33934 0
M  V30 2837 H 268.268 -3.39193 -5.07721 0
M  V30 2838 H 269.682 -4.72899 -3.24098 0
M  V30 2839 H 268.079 -5.33987 -2.7382 0
M  V30 2840 H 269.149 -4.60006 -1.53372 0
M  V30 2841 N 270.492 0.636531 -1.44174 0
M  V30 2842 C 271.455 1.73063 -1.50273 0
M  V30 2843 C 272.455 1.56113 -0.385397 0
M  V30 2844 O 273.645 1.61707 -0.64781 0
M  V30 2845 C 270.777 3.12096 -1.37145 0
M  V30 2846 H 271.97 1.69031 -2.47727 0
M  V30 2847 H 269.523 0.849706 -1.31186 0
M  V30 2848 H 270.258 3.21728 -0.407636 0
M  V30 2849 H 270.043 3.25805 -2.18159 0
M  V30 2850 H 271.533 3.91846 -1.44382 0
M  V30 2851 N 271.97 1.30982 0.876444 0
M  V30 2852 C 272.88 1.2003 2.01569 0
M  V30 2853 C 273.896 0.11838 1.73597 0
M  V30 2854 O 275.072 0.33495 1.98595 0
M  V30 2855 C 272.137 0.901637 3.34771 0
M  V30 2856 C 271.198 2.06979 3.76109 0
M  V30 2857 C 270.431 1.78529 5.02954 0
M  V30 2858 O 270.654 0.717296 5.65872 0
M  V30 2859 O 269.588 2.64019 5.40905 0
M  V30 2860 H 273.414 2.15753 2.13739 0
M  V30 2861 H 270.999 1.10658 1.00375 0
M  V30 2862 H 272.881 0.750645 4.1466 0
M  V30 2863 H 271.556 -0.0256141 3.2369 0
M  V30 2864 H 270.463 2.27616 2.96887 0
M  V30 2865 H 271.796 2.97907 3.91807 0
M  V30 2866 N 273.449 -1.08991 1.13837 0
M  V30 2867 C 274.382 -2.15049 0.763477 0
M  V30 2868 C 275.36 -1.60629 -0.252398 0
M  V30 2869 O 276.544 -1.87958 -0.142853 0
M  V30 2870 C 273.671 -3.38441 0.132545 0
M  V30 2871 C 272.717 -4.11596 1.11763 0
M  V30 2872 S 273.55 -4.6521 2.65216 0
M  V30 2873 C 274.706 -5.91896 2.03495 0
M  V30 2874 H 274.939 -2.46518 1.66182 0
M  V30 2875 H 272.472 -1.21008 0.958976 0
M  V30 2876 H 274.43 -4.09883 -0.225074 0
M  V30 2877 H 273.091 -3.05182 -0.743135 0
M  V30 2878 H 272.284 -5.00121 0.624076 0
M  V30 2879 H 271.886 -3.46038 1.41894 0
M  V30 2880 H 274.178 -6.63156 1.38675 0
M  V30 2881 H 275.121 -6.45938 2.9012 0
M  V30 2882 H 275.529 -5.44625 1.48471 0
M  V30 2883 N 274.927 -0.932562 -1.27047 0
M  V30 2884 C 276.176 -0.571351 -1.93439 0
M  V30 2885 C 276.489 0.892467 -1.74053 0
M  V30 2886 O 277.695 1.36267 -2.34826 0
M  V30 2887 C 276.151 -0.97106 -3.46552 0
M  V30 2888 C 275.759 -2.4559 -3.74686 0
M  V30 2889 C 277.503 -0.681333 -4.18997 0
M  V30 2890 C 275.41 -2.79475 -5.21198 0
M  V30 2891 H 274.34 -0.209966 -0.724176 0
M  V30 2892 H 276.991 -1.13403 -1.44263 0
M  V30 2893 H 275.373 -0.336983 -3.94564 0
M  V30 2894 H 276.547 -3.13829 -3.37414 0
M  V30 2895 H 274.862 -2.71802 -3.15456 0
M  V30 2896 H 277.459 -0.910939 -5.26883 0
M  V30 2897 H 277.802 0.381628 -4.14547 0
M  V30 2898 H 278.335 -1.27473 -3.76823 0
M  V30 2899 H 275.074 -3.847 -5.30741 0
M  V30 2900 H 274.594 -2.1589 -5.596 0
M  V30 2901 H 276.273 -2.67478 -5.89122 0
M  V30 2902 N 276.405 1.4127 -0.698611 0
M  V30 2903 C 277.633 2.05503 -0.239992 0
M  V30 2904 C 278.048 1.52584 1.11191 0
M  V30 2905 O 277.405 0.675323 1.69545 0
M  V30 2906 C 277.456 3.60987 -0.192429 0
M  V30 2907 O 277.177 4.1195 -1.49094 0
M  V30 2908 C 278.678 4.42371 0.28681 0
M  V30 2909 H 275.898 0.661748 -0.111045 0
M  V30 2910 H 278.442 1.80987 -0.95205 0
M  V30 2911 H 276.597 3.84533 0.470472 0
M  V30 2912 H 277.011 5.06018 -1.38007 0
M  V30 2913 H 278.485 5.51344 0.26896 0
M  V30 2914 H 278.962 4.18699 1.32619 0
M  V30 2915 H 279.568 4.23897 -0.345201 0
M  V30 2916 N 277.883 0.443576 1.51229 0
M  V30 2917 C 278.813 -0.355142 2.30783 0
M  V30 2918 C 279.794 -1.0154 1.36468 0
M  V30 2919 O 280.979 -1.01785 1.65389 0
M  V30 2920 C 278.109 -1.45312 3.15439 0
M  V30 2921 C 277.063 -0.916002 4.18083 0
M  V30 2922 C 276.389 -2.1102 4.91299 0
M  V30 2923 C 277.689 0.0538602 5.22272 0
M  V30 2924 H 279.383 0.308767 2.97804 0
M  V30 2925 H 276.929 0.149937 1.43217 0
M  V30 2926 H 278.882 -2.01914 3.69876 0
M  V30 2927 H 277.606 -2.14541 2.46252 0
M  V30 2928 H 276.265 -0.372145 3.64706 0
M  V30 2929 H 275.913 -2.78882 4.18609 0
M  V30 2930 H 275.613 -1.75717 5.60712 0
M  V30 2931 H 277.137 -2.68164 5.48562 0
M  V30 2932 H 278.551 -0.422069 5.71744 0
M  V30 2933 H 276.948 0.319776 5.99247 0
M  V30 2934 H 278.018 0.98858 4.74716 0
M  V30 2935 N 279.361 -1.56624 0.175154 0
M  V30 2936 C 280.324 -2.16934 -0.739738 0
M  V30 2937 C 281.324 -1.11842 -1.15533 0
M  V30 2938 O 282.514 -1.37335 -1.07167 0
M  V30 2939 C 279.646 -2.75531 -2.00738 0
M  V30 2940 H 280.839 -2.99131 -0.214639 0
M  V30 2941 H 278.392 -1.56123 -0.0744197 0
M  V30 2942 H 279.127 -1.97078 -2.57548 0
M  V30 2943 H 278.912 -3.52444 -1.71831 0
M  V30 2944 H 280.402 -3.21904 -2.66021 0
M  V30 2945 N 280.839 0.0985539 -1.57292 0
M  V30 2946 C 281.789 1.1261 -1.9825 0
M  V30 2947 C 282.773 1.35961 -0.860426 0
M  V30 2948 O 283.965 1.36711 -1.12424 0
M  V30 2949 C 281.094 2.44727 -2.40757 0
M  V30 2950 C 280.18 2.24764 -3.59642 0
M  V30 2951 N 280.571 1.74661 -4.74687 0
M  V30 2952 C 278.869 2.55344 -3.65672 0
M  V30 2953 C 279.57 1.68887 -5.56644 0
M  V30 2954 N 278.546 2.13976 -4.99715 0
M  V30 2955 H 282.348 0.731604 -2.84648 0
M  V30 2956 H 279.862 0.306029 -1.59491 0
M  V30 2957 H 281.859 3.19072 -2.68326 0
M  V30 2958 H 280.519 2.84917 -1.55733 0
M  V30 2959 H 281.53 1.43908 -4.97505 0
M  V30 2960 H 278.207 2.99081 -2.91302 0
M  V30 2961 H 279.597 1.3123 -6.5896 0
M  V30 2962 N 282.317 1.53212 0.369288 0
M  V30 2963 C 283.249 1.75668 1.47219 0
M  V30 2964 C 284.262 0.637387 1.49804 0
M  V30 2965 O 285.451 0.913561 1.5335 0
M  V30 2966 C 282.551 1.81818 2.85999 0
M  V30 2967 C 281.724 3.11409 3.07153 0
M  V30 2968 C 280.783 3.08849 4.26026 0
M  V30 2969 O 279.809 3.82659 4.2138 0
M  V30 2970 N 281.011 2.29409 5.33246 0
M  V30 2971 H 283.776 2.70832 1.28337 0
M  V30 2972 H 281.337 1.51944 0.55898 0
M  V30 2973 H 283.329 1.77588 3.63655 0
M  V30 2974 H 281.899 0.939544 2.98146 0
M  V30 2975 H 281.119 3.28971 2.1719 0
M  V30 2976 H 282.407 3.97059 3.18154 0
M  V30 2977 H 281.805 1.68946 5.39883 0
M  V30 2978 H 280.362 2.31001 6.09493 0
M  V30 2979 N 283.795 -0.628877 1.44509 0
M  V30 2980 C 284.745 -1.7345 1.47983 0
M  V30 2981 C 285.729 -1.5715 0.345373 0
M  V30 2982 O 286.921 -1.66848 0.590829 0
M  V30 2983 C 284.05 -3.12143 1.42904 0
M  V30 2984 C 283.136 -3.33906 2.61472 0
M  V30 2985 N 283.527 -3.26024 3.86706 0
M  V30 2986 C 281.825 -3.64709 2.56716 0
M  V30 2987 C 282.526 -3.48536 4.65722 0
M  V30 2988 N 281.502 -3.71517 3.96832 0
M  V30 2989 H 285.304 -1.65818 2.42655 0
M  V30 2990 H 282.818 -0.831419 1.39503 0
M  V30 2991 H 284.815 -3.91433 1.43476 0
M  V30 2992 H 283.475 -3.2094 0.492717 0
M  V30 2993 H 284.486 -3.04893 4.18641 0
M  V30 2994 H 281.163 -3.80473 1.71891 0
M  V30 2995 H 282.553 -3.48016 5.74747 0
M  V30 2996 N 285.273 -1.31445 -0.869486 0
M  V30 2997 C 286.521 -1.20918 -1.61936 0
M  V30 2998 C 286.842 0.232683 -1.93607 0
M  V30 2999 O 286.112 1.15352 -1.58338 0
M  V30 3000 H 284.692 -0.44454 -0.600328 0
M  V30 3001 H 287.354 -1.64776 -1.0409 0
M  V30 3002 H 286.45 -1.78124 -2.56278 0
M  V30 3003 N 286.751 1.08385 -1.14413 0
M  V30 3004 C 287.714 2.13486 -0.834048 0
M  V30 3005 C 288.714 1.59988 0.161418 0
M  V30 3006 O 289.904 1.74071 -0.0669575 0
M  V30 3007 C 287.036 3.4003 -0.243354 0
M  V30 3008 H 288.229 2.42425 -1.7655 0
M  V30 3009 H 285.782 1.24101 -0.950189 0
M  V30 3010 H 286.517 3.16726 0.696807 0
M  V30 3011 H 286.302 3.80157 -0.960367 0
M  V30 3012 H 287.792 4.17577 -0.0436242 0
M  V30 3013 N 288.23 0.939286 1.26551 0
M  V30 3014 C 289.177 0.446088 2.26448 0
M  V30 3015 C 290.147 -0.493234 1.58608 0
M  V30 3016 O 291.332 -0.409857 1.86346 0
M  V30 3017 C 288.472 -0.284375 3.43926 0
M  V30 3018 C 287.585 0.690399 4.26448 0
M  V30 3019 C 286.72 -0.0610712 5.31165 0
M  V30 3020 C 285.759 0.905649 6.05363 0
M  V30 3021 N 284.896 0.186055 7.01853 0
M  V30 3022 H 289.736 1.30291 2.68008 0
M  V30 3023 H 287.273 0.65371 1.31776 0
M  V30 3024 H 289.231 -0.724313 4.10864 0
M  V30 3025 H 287.861 -1.10535 3.03285 0
M  V30 3026 H 286.913 1.24885 3.59316 0
M  V30 3027 H 288.225 1.42873 4.779 0
M  V30 3028 H 287.379 -0.56038 6.04106 0
M  V30 3029 H 286.118 -0.832297 4.80546 0
M  V30 3030 H 285.123 1.4161 5.3125 0
M  V30 3031 H 286.348 1.67685 6.58072 0
M  V30 3032 H 284.294 -0.566714 6.53548 0
M  V30 3033 H 284.211 0.863752 7.51049 0
M  V30 3034 H 285.479 -0.292221 7.78952 0
M  V30 3035 N 289.708 -1.40897 0.706093 0
M  V30 3036 C 290.954 -2.01352 0.241889 0
M  V30 3037 C 291.287 -1.55832 -1.15888 0
M  V30 3038 O 290.562 -0.774145 -1.7843 0
M  V30 3039 C 290.845 -3.58752 0.311311 0
M  V30 3040 C 290.698 -4.1437 1.74978 0
M  V30 3041 C 292.017 -4.38914 -0.322922 0
M  V30 3042 H 289.136 -0.731562 0.0893687 0
M  V30 3043 H 291.778 -1.67504 0.896802 0
M  V30 3044 H 289.928 -3.87718 -0.246302 0
M  V30 3045 H 291.6 -3.96239 2.36205 0
M  V30 3046 H 289.843 -3.69016 2.28057 0
M  V30 3047 H 290.514 -5.23532 1.74981 0
M  V30 3048 H 292.99 -4.15822 0.152089 0
M  V30 3049 H 291.866 -5.48358 -0.243855 0
M  V30 3050 H 292.127 -4.19176 -1.40513 0
M  V30 3051 N 291.186 -0.45159 -1.50991 0
M  V30 3052 C 292.116 0.342898 -2.30969 0
M  V30 3053 C 293.097 1.00815 -1.37005 0
M  V30 3054 O 294.282 1.00907 -1.65926 0
M  V30 3055 C 291.412 1.43637 -3.16205 0
M  V30 3056 C 290.366 0.893818 -4.18563 0
M  V30 3057 C 289.692 2.08411 -4.92411 0
M  V30 3058 C 290.992 -0.0815568 -5.22236 0
M  V30 3059 H 292.686 -0.324556 -2.97636 0
M  V30 3060 H 290.232 -0.157531 -1.43136 0
M  V30 3061 H 292.185 1.9995 -3.70942 0
M  V30 3062 H 290.909 2.13232 -2.47386 0
M  V30 3063 H 289.568 0.352798 -3.64898 0
M  V30 3064 H 289.216 2.76658 -4.20082 0
M  V30 3065 H 288.916 1.72741 -5.61636 0
M  V30 3066 H 290.44 2.65251 -5.49976 0
M  V30 3067 H 291.854 0.391742 -5.7196 0
M  V30 3068 H 290.251 -0.351551 -5.99069 0
M  V30 3069 H 291.321 -1.01374 -4.74185 0
M  V30 3070 N 292.664 1.56529 -0.183458 0
M  V30 3071 C 293.91 1.97537 0.459036 0
M  V30 3072 C 294.243 1.06989 1.62071 0
M  V30 3073 O 293.518 0.11948 1.94133 0
M  V30 3074 C 293.801 3.47874 0.930368 0
M  V30 3075 C 293.654 4.492 -0.232317 0
M  V30 3076 C 294.973 4.01612 1.79989 0
M  V30 3077 H 292.092 0.718204 0.165383 0
M  V30 3078 H 294.734 1.88042 -0.272038 0
M  V30 3079 H 292.884 3.56095 1.55333 0
M  V30 3080 H 294.556 4.53027 -0.86972 0
M  V30 3081 H 292.799 4.24657 -0.885928 0
M  V30 3082 H 293.47 5.51823 0.139796 0
M  V30 3083 H 295.946 3.96097 1.27461 0
M  V30 3084 H 294.822 5.07195 2.09867 0
M  V30 3085 H 295.083 3.46163 2.74998 0
M  V30 3086 N 294.142 -0.090211 1.57342 0
M  V30 3087 C 295.419 -0.824761 1.77361 0
M  V30 3088 C 295.799 -1.96698 0.76637 0
M  V30 3089 O 295.147 -2.27586 -0.204179 0
M  V30 3090 C 295.357 -1.31481 3.23286 0
M  V30 3091 C 296.705 -1.75563 3.86604 0
M  V30 3092 O 297.729 -1.41093 3.27065 0
M  V30 3093 O 296.588 -2.39317 4.91314 0
M  V30 3094 H 293.682 -0.393776 0.727234 0
M  V30 3095 H 296.228 -0.0717138 1.69548 0
M  V30 3096 H 295 -0.496671 3.88135 0
M  V30 3097 H 294.623 -2.12973 3.35751 0
M  V30 3098 N 295.62 -1.53406 -0.361157 0
M  V30 3099 C 296.868 -1.69467 -1.10115 0
M  V30 3100 C 297.189 -0.451352 -1.89705 0
M  V30 3101 O 296.459 0.534636 -1.88463 0
M  V30 3102 H 295.039 -0.624749 -0.409508 0
M  V30 3103 H 297.701 -1.90609 -0.406699 0
M  V30 3104 H 296.797 -2.55774 -1.78847 0
M  V30 3105 N 297.098 0.621204 -1.44841 0
M  V30 3106 C 298.061 1.71459 -1.521 0
M  V30 3107 C 299.061 1.55696 -0.401933 0
M  V30 3108 O 300.251 1.61011 -0.664925 0
M  V30 3109 C 297.383 3.10624 -1.40447 0
M  V30 3110 H 298.576 1.66394 -2.49506 0
M  V30 3111 H 296.129 0.835745 -1.3208 0
M  V30 3112 H 296.864 3.21277 -0.441737 0
M  V30 3113 H 296.649 3.23473 -2.21602 0
M  V30 3114 H 298.139 3.90293 -1.4853 0
M  V30 3115 N 298.576 1.31904 0.862503 0
M  V30 3116 C 299.508 1.16005 1.97675 0
M  V30 3117 C 300.521 0.0971234 1.6251 0
M  V30 3118 O 301.71 0.345337 1.75128 0
M  V30 3119 C 298.81 0.751791 3.30456 0
M  V30 3120 C 297.983 1.90133 3.93914 0
M  V30 3121 C 297.042 1.4779 5.05019 0
M  V30 3122 O 296.068 2.18872 5.25437 0
M  V30 3123 N 297.27 0.369491 5.79323 0
M  V30 3124 H 300.035 2.11982 2.11857 0
M  V30 3125 H 297.596 1.24337 1.03691 0
M  V30 3126 H 299.588 0.451084 4.02178 0
M  V30 3127 H 298.158 -0.116593 3.12382 0
M  V30 3128 H 297.378 2.36896 3.15078 0
M  V30 3129 H 298.666 2.67111 4.33047 0
M  V30 3130 H 298.064 -0.222299 5.65263 0
M  V30 3131 H 296.621 0.128354 6.51674 0
M  V30 3132 N 300.054 -1.07777 1.14986 0
M  V30 3133 C 301.017 -2.13041 0.845358 0
M  V30 3134 C 302.017 -1.60071 -0.152931 0
M  V30 3135 O 303.207 -1.74033 0.0761879 0
M  V30 3136 C 300.339 -3.39896 0.261383 0
M  V30 3137 H 301.532 -2.41485 1.77834 0
M  V30 3138 H 299.085 -1.23595 0.956757 0
M  V30 3139 H 299.82 -3.17091 -0.68 0
M  V30 3140 H 299.605 -3.79642 0.980514 0
M  V30 3141 H 301.095 -4.17548 0.0657687 0
M  V30 3142 N 301.532 -0.945985 -1.26051 0
M  V30 3143 C 302.778 -0.597002 -1.93814 0
M  V30 3144 C 303.111 0.862484 -1.73997 0
M  V30 3145 O 302.386 1.61769 -1.07986 0
M  V30 3146 C 302.669 -0.945937 -3.47454 0
M  V30 3147 C 302.522 -2.46052 -3.76535 0
M  V30 3148 C 303.841 -0.464785 -4.37639 0
M  V30 3149 H 300.96 -0.218366 -0.703907 0
M  V30 3150 H 303.602 -1.18107 -1.48831 0
M  V30 3151 H 301.752 -0.448902 -3.85898 0
M  V30 3152 H 303.424 -3.03065 -3.47778 0
M  V30 3153 H 301.667 -2.90194 -3.22444 0
M  V30 3154 H 302.338 -2.65517 -4.83947 0
M  V30 3155 H 304.814 -0.891016 -4.06448 0
M  V30 3156 H 303.69 -0.737712 -5.4392 0
M  V30 3157 H 303.951 0.635274 -4.37512 0
M  V30 3158 N 303.011 1.40521 -0.713556 0
M  V30 3159 C 303.944 2.28198 -0.00881422 0
M  V30 3160 C 304.922 1.43227 0.769735 0
M  V30 3161 O 306.106 1.72641 0.756799 0
M  V30 3162 C 303.233 3.23758 0.994899 0
M  V30 3163 C 302.279 4.25391 0.3074 0
M  V30 3164 S 303.112 5.26765 -0.963247 0
M  V30 3165 C 304.268 6.25888 0.0384143 0
M  V30 3166 H 304.501 2.87622 -0.752407 0
M  V30 3167 H 302.034 1.45925 -0.504502 0
M  V30 3168 H 303.992 3.79341 1.56879 0
M  V30 3169 H 302.653 2.63396 1.71118 0
M  V30 3170 H 301.846 4.92596 1.0661 0
M  V30 3171 H 301.448 3.73497 -0.193879 0
M  V30 3172 H 303.74 6.71683 0.885912 0
M  V30 3173 H 304.683 7.05552 -0.60019 0
M  V30 3174 H 305.091 5.63072 0.401233 0
M  V30 3175 N 304.489 0.459591 1.5075 0
M  V30 3176 C 305.439 -0.358926 2.25157 0
M  V30 3177 C 306.423 -0.971285 1.28276 0
M  V30 3178 O 307.615 -0.885739 1.53244 0
M  V30 3179 C 304.744 -1.44695 3.11317 0
M  V30 3180 C 303.83 -0.842894 4.15639 0
M  V30 3181 N 304.221 0.0299373 5.05791 0
M  V30 3182 C 302.519 -1.10809 4.32015 0
M  V30 3183 C 303.22 0.371563 5.80512 0
M  V30 3184 N 302.196 -0.250409 5.43023 0
M  V30 3185 H 305.998 0.313636 2.92222 0
M  V30 3186 H 303.512 0.273021 1.60089 0
M  V30 3187 H 305.509 -2.04641 3.63218 0
M  V30 3188 H 304.169 -2.12162 2.45799 0
M  V30 3189 H 305.18 0.39797 5.16369 0
M  V30 3190 H 301.857 -1.7786 3.77719 0
M  V30 3191 H 303.247 1.08319 6.63111 0
M  V30 3192 N 305.967 -1.56429 0.191757 0
M  V30 3193 C 306.917 -2.15548 -0.743184 0
M  V30 3194 C 307.901 -1.09531 -1.17863 0
M  V30 3195 O 309.093 -1.35602 -1.13759 0
M  V30 3196 C 306.222 -2.81577 -1.96391 0
M  V30 3197 C 305.308 -3.9478 -1.54951 0
M  V30 3198 N 305.699 -4.98677 -0.845876 0
M  V30 3199 C 303.997 -4.06319 -1.83905 0
M  V30 3200 C 304.698 -5.78183 -0.638724 0
M  V30 3201 N 303.674 -5.30495 -1.18643 0
M  V30 3202 H 307.476 -2.9324 -0.196839 0
M  V30 3203 H 304.99 -1.62398 -0.0081603 0
M  V30 3204 H 306.987 -3.22321 -2.64415 0
M  V30 3205 H 305.647 -2.05371 -2.51501 0
M  V30 3206 H 306.658 -5.15464 -0.501704 0
M  V30 3207 H 303.335 -3.41238 -2.40548 0
M  V30 3208 H 304.725 -6.71851 -0.0807929 0
M  V30 3209 N 307.445 0.0818655 -1.57387 0
M  V30 3210 C 308.856 0.634871 -1.75574 0
M  V30 3211 C 309.207 1.78435 -0.815809 0
M  V30 3212 O 308.332 2.164 0.0025366 0
M  V30 3213 C 308.927 1.15845 -3.18379 0
M  V30 3214 C 307.486 1.65741 -3.37945 0
M  V30 3215 C 306.633 0.572549 -2.71325 0
M  V30 3216 H 309.584 -0.144268 -1.58043 0
M  V30 3217 H 309.605 2.02751 -3.21982 0
M  V30 3218 H 309.117 0.321631 -3.86765 0
M  V30 3219 H 307.218 2.51781 -2.74658 0
M  V30 3220 H 307.331 1.74129 -4.46336 0
M  V30 3221 H 305.695 1.01518 -2.33594 0
M  V30 3222 H 306.478 -0.253918 -3.4236 0
M  V30 3223 N 308.923 1.53595 0.353017 0
M  V30 3224 C 310.169 1.70638 1.09593 0
M  V30 3225 C 310.502 0.463286 1.88593 0
M  V30 3226 O 309.777 -0.539597 1.86865 0
M  V30 3227 C 310.06 2.96406 2.04489 0
M  V30 3228 C 309.913 4.30901 1.29014 0
M  V30 3229 C 311.232 3.17812 3.0444 0
M  V30 3230 H 308.351 0.620913 0.397034 0
M  V30 3231 H 310.993 1.86254 0.375446 0
M  V30 3232 H 309.143 2.83223 2.65927 0
M  V30 3233 H 310.815 4.55917 0.702638 0
M  V30 3234 H 309.058 4.29741 0.592071 0
M  V30 3235 H 309.729 5.1506 1.98537 0
M  V30 3236 H 312.205 3.30263 2.53112 0
M  V30 3237 H 311.081 4.07223 3.6805 0
M  V30 3238 H 311.342 2.33669 3.75301 0
M  V30 3239 N 310.401 -0.613514 1.45168 0
M  V30 3240 C 311.678 -1.37263 1.39349 0
M  V30 3241 C 312.058 -2.11012 0.0610848 0
M  V30 3242 O 311.406 -2.07502 -0.956825 0
M  V30 3243 C 311.616 -2.3244 2.60332 0
M  V30 3244 C 312.964 -2.9523 3.05163 0
M  V30 3245 O 313.988 -2.42762 2.60663 0
M  V30 3246 O 312.847 -3.90454 3.82372 0
M  V30 3247 H 309.941 -0.615188 0.552696 0
M  V30 3248 H 312.487 -0.637097 1.57287 0
M  V30 3249 H 311.259 -1.77164 3.48896 0
M  V30 3250 H 310.882 -3.13383 2.44698 0
M  V30 3251 N 311.879 -1.3236 -0.855495 0
M  V30 3252 C 313.125 -1.23054 -1.612 0
M  V30 3253 C 313.458 0.207404 -1.93089 0
M  V30 3254 O 312.733 1.14432 -1.57275 0
M  V30 3255 C 313.016 -2.08937 -2.93287 0
M  V30 3256 C 312.869 -3.61105 -2.68185 0
M  V30 3257 C 314.188 -1.94986 -3.94549 0
M  V30 3258 H 311.307 -0.448364 -0.584926 0
M  V30 3259 H 313.949 -1.62297 -0.987917 0
M  V30 3260 H 312.099 -1.75599 -3.46551 0
M  V30 3261 H 313.771 -4.04652 -2.21483 0
M  V30 3262 H 312.014 -3.83813 -2.02164 0
M  V30 3263 H 312.685 -4.16522 -3.62234 0
M  V30 3264 H 315.161 -2.24189 -3.5054 0
M  V30 3265 H 314.037 -2.57356 -4.84829 0
M  V30 3266 H 314.298 -0.917263 -4.3248 0
M  V30 3267 N 313.357 1.07166 -1.15556 0
M  V30 3268 C 314.289 2.14341 -0.811815 0
M  V30 3269 C 315.302 1.61835 0.177015 0
M  V30 3270 O 316.491 1.78439 -0.0464996 0
M  V30 3271 C 313.591 3.38387 -0.186481 0
M  V30 3272 C 312.764 4.20238 -1.21321 0
M  V30 3273 C 311.823 5.2266 -0.609302 0
M  V30 3274 O 310.849 5.54719 -1.27576 0
M  V30 3275 N 312.051 5.77306 0.608099 0
M  V30 3276 H 314.816 2.44431 -1.73417 0
M  V30 3277 H 312.377 1.23089 -1.0517 0
M  V30 3278 H 314.369 4.04044 0.230339 0
M  V30 3279 H 312.939 3.05994 0.639249 0
M  V30 3280 H 312.159 3.50369 -1.80652 0
M  V30 3281 H 313.447 4.71736 -1.90638 0
M  V30 3282 H 312.845 5.53513 1.1679 0
M  V30 3283 H 311.402 6.44583 0.96725 0
M  V30 3284 N 314.835 0.952656 1.25548 0
M  V30 3285 C 315.798 0.475794 2.24207 0
M  V30 3286 C 316.798 -0.419428 1.55234 0
M  V30 3287 O 317.988 -0.216994 1.72843 0
M  V30 3288 C 315.12 -0.312814 3.39462 0
M  V30 3289 H 316.313 1.34779 2.67908 0
M  V30 3290 H 313.866 0.735739 1.37901 0
M  V30 3291 H 314.601 -1.20257 3.01179 0
M  V30 3292 H 314.386 0.329404 3.90714 0
M  V30 3293 H 315.876 -0.635986 4.12729 0
M  V30 3294 N 316.313 -1.40141 0.720998 0
M  V30 3295 C 317.243 -2.33339 0.0867621 0
M  V30 3296 C 318.224 -1.53178 -0.739622 0
M  V30 3297 O 319.409 -1.81625 -0.687449 0
M  V30 3298 C 316.539 -3.37194 -0.831728 0
M  V30 3299 C 315.493 -4.27857 -0.110558 0
M  V30 3300 C 314.819 -5.22294 -1.14513 0
M  V30 3301 C 316.119 -5.11872 1.0385 0
M  V30 3302 H 317.813 -2.86626 0.865219 0
M  V30 3303 H 315.359 -1.37814 0.417516 0
M  V30 3304 H 317.312 -4.01335 -1.28485 0
M  V30 3305 H 316.036 -2.82314 -1.64214 0
M  V30 3306 H 314.695 -3.65176 0.322797 0
M  V30 3307 H 314.343 -4.63717 -1.94874 0
M  V30 3308 H 314.043 -5.83797 -0.667446 0
M  V30 3309 H 315.567 -5.89312 -1.59824 0
M  V30 3310 H 316.981 -5.69436 0.664482 0
M  V30 3311 H 315.378 -5.82445 1.4449 0
M  V30 3312 H 316.448 -4.4753 1.86668 0
M  V30 3313 N 317.792 -0.46758 -1.50504 0
M  V30 3314 C 319.069 0.15003 -1.95024 0
M  V30 3315 C 319.449 1.57304 -1.40779 0
M  V30 3316 O 318.797 2.20281 -0.607319 0
M  V30 3317 C 319.007 0.0969324 -3.48865 0
M  V30 3318 C 320.355 0.287565 -4.23625 0
M  V30 3319 O 321.379 0.173678 -3.55776 0
M  V30 3320 O 320.238 0.517186 -5.44047 0
M  V30 3321 H 317.332 0.113582 -0.819163 0
M  V30 3322 H 319.878 -0.52773 -1.61286 0
M  V30 3323 H 318.65 -0.896732 -3.80886 0
M  V30 3324 H 318.273 0.816303 -3.8913 0
M  V30 3325 N 319.27 1.56325 -0.20005 0
M  V30 3326 C 320.51 1.99619 0.439519 0
M  V30 3327 C 320.874 1.08423 1.58456 0
M  V30 3328 O 322.075 1.40973 2.28867 0
M  V30 3329 C 320.346 3.46314 0.883258 0
M  V30 3330 S 321.905 4.11634 1.51997 0
M  V30 3331 H 318.723 0.697007 0.140363 0
M  V30 3332 H 321.325 1.93118 -0.304282 0
M  V30 3333 H 320.029 4.10381 0.0398967 0
M  V30 3334 H 319.56 3.56643 1.6604 0
M  V30 3335 H 321.575 4.09049 2.8088 0
M  V30 3336 N 320.748 -0.0735177 1.57428 0
M  V30 3337 C 322.025 -0.805903 1.78226 0
M  V30 3338 C 322.405 -1.95874 0.787189 0
M  V30 3339 O 321.753 -2.2779 -0.180029 0
M  V30 3340 C 321.963 -1.28045 3.24662 0
M  V30 3341 C 323.311 -1.71453 3.88444 0
M  V30 3342 O 324.335 -1.37616 3.28543 0
M  V30 3343 O 323.194 -2.34093 4.93825 0
M  V30 3344 H 320.288 -0.386041 0.73137 0
M  V30 3345 H 322.834 -0.0537269 1.69615 0
M  V30 3346 H 321.606 -0.455476 3.8864 0
M  V30 3347 H 321.229 -2.094 3.37991 0
M  V30 3348 N 322.226 -1.5378 -0.344866 0
M  V30 3349 C 323.473 -1.70963 -1.08526 0
M  V30 3350 C 323.801 -0.472126 -1.88683 0
M  V30 3351 O 323.056 0.546116 -1.87926 0
M  V30 3352 C 323.355 -2.92407 -2.05506 0
M  V30 3353 C 323.021 -4.28066 -1.41671 0
M  V30 3354 C 321.683 -4.64951 -1.2399 0
M  V30 3355 C 324.035 -5.12344 -0.956726 0
M  V30 3356 C 321.363 -5.83733 -0.589277 0
M  V30 3357 C 323.715 -6.3179 -0.320015 0
M  V30 3358 C 322.379 -6.67372 -0.130881 0
M  V30 3359 H 321.649 -0.625598 -0.397124 0
M  V30 3360 H 324.296 -1.87995 -0.36469 0
M  V30 3361 H 322.601 -2.69973 -2.8394 0
M  V30 3362 H 324.298 -3.02895 -2.62784 0
M  V30 3363 H 320.888 -3.99034 -1.56429 0
M  V30 3364 H 325.072 -4.8438 -1.08118 0
M  V30 3365 H 320.328 -6.09877 -0.431344 0
M  V30 3366 H 324.502 -6.96386 0.0445072 0
M  V30 3367 H 322.129 -7.59273 0.375318 0
M  V30 3368 N 323.704 0.605807 -1.45491 0
M  V30 3369 C 324.934 1.38934 -1.52908 0
M  V30 3370 C 325.342 1.88513 -0.161086 0
M  V30 3371 O 324.685 1.62962 0.847891 0
M  V30 3372 C 324.747 2.62737 -2.45376 0
M  V30 3373 C 324.411 2.34785 -3.92078 0
M  V30 3374 C 325.408 1.95038 -4.8193 0
M  V30 3375 C 323.093 2.47642 -4.37011 0
M  V30 3376 C 325.087 1.68511 -6.14722 0
M  V30 3377 C 322.774 2.20728 -5.69844 0
M  V30 3378 C 323.772 1.81225 -6.58519 0
M  V30 3379 O 323.46 1.54627 -7.88889 0
M  V30 3380 H 323.192 0.431629 -0.520262 0
M  V30 3381 H 325.746 0.74573 -1.91384 0
M  V30 3382 H 323.976 3.29824 -2.01874 0
M  V30 3383 H 325.665 3.24783 -2.43456 0
M  V30 3384 H 326.431 1.84639 -4.48479 0
M  V30 3385 H 322.31 2.77356 -3.68232 0
M  V30 3386 H 325.854 1.37602 -6.83894 0
M  V30 3387 H 321.751 2.30744 -6.02849 0
M  V30 3388 H 322.519 1.68665 -8.00933 0
M  V30 3389 N 325.182 1.32811 0.848464 0
M  V30 3390 C 326.428 1.23907 1.60546 0
M  V30 3391 C 326.761 -0.197161 1.93197 0
M  V30 3392 O 326.036 -1.13596 1.5788 0
M  V30 3393 C 326.319 2.10489 2.92175 0
M  V30 3394 C 326.172 3.62522 2.66266 0
M  V30 3395 C 327.491 1.97075 3.93509 0
M  V30 3396 H 324.61 0.451459 0.58254 0
M  V30 3397 H 327.252 1.62818 0.979296 0
M  V30 3398 H 325.402 1.77434 3.45614 0
M  V30 3399 H 327.074 4.05821 2.19334 0
M  V30 3400 H 325.317 3.84879 2.00126 0
M  V30 3401 H 325.988 4.18437 3.6002 0
M  V30 3402 H 328.464 2.26045 3.49346 0
M  V30 3403 H 327.34 2.59923 4.83457 0
M  V30 3404 H 327.601 0.940186 4.31987 0
M  V30 3405 N 326.66 -1.06551 1.16123 0
M  V30 3406 C 327.907 -1.79302 0.941126 0
M  V30 3407 C 328.235 -1.87105 -0.531235 0
M  V30 3408 O 327.49 -1.35692 -1.41018 0
M  V30 3409 C 327.789 -3.23911 1.51052 0
M  V30 3410 C 327.455 -3.36193 3.00475 0
M  V30 3411 C 326.117 -3.39252 3.41265 0
M  V30 3412 C 328.469 -3.38326 3.96465 0
M  V30 3413 C 325.797 -3.42057 4.76669 0
M  V30 3414 C 328.149 -3.4267 5.31752 0
M  V30 3415 C 326.813 -3.4401 5.72026 0
M  V30 3416 H 326.083 -0.656111 0.344382 0
M  V30 3417 H 328.73 -1.25325 1.44796 0
M  V30 3418 H 327.035 -3.80723 0.925063 0
M  V30 3419 H 328.732 -3.78793 1.31593 0
M  V30 3420 H 325.322 -3.34516 2.6795 0
M  V30 3421 H 329.506 -3.35176 3.6602 0
M  V30 3422 H 324.762 -3.41398 5.07206 0
M  V30 3423 H 328.936 -3.43268 6.05921 0
M  V30 3424 H 326.563 -3.45937 6.76928 0
M  V30 3425 N 328.138 -0.959301 -1.25041 0
M  V30 3426 C 329.363 -0.633507 -1.97488 0
M  V30 3427 C 329.788 0.788555 -1.70773 0
M  V30 3428 O 329.146 1.53394 -0.966431 0
M  V30 3429 C 329.194 -0.904057 -3.49083 0
M  V30 3430 O 328.298 0.0147939 -4.12397 0
M  V30 3431 H 327.639 -0.240368 -0.618966 0
M  V30 3432 H 330.169 -1.28717 -1.59038 0
M  V30 3433 H 330.179 -0.832203 -3.99423 0
M  V30 3434 H 328.854 -1.94048 -3.67856 0
M  V30 3435 H 327.431 -0.109664 -3.72739 0
M  V30 3436 N 329.616 1.39756 -0.72842 0
M  V30 3437 C 330.864 2.00248 -0.272946 0
M  V30 3438 C 331.185 1.58077 1.14178 0
M  V30 3439 O 330.455 0.826014 1.77634 0
M  V30 3440 H 329.035 0.740554 -0.0979247 0
M  V30 3441 H 331.697 1.70903 -0.936912 0
M  V30 3442 H 330.793 3.10495 -0.316142 0
M  V30 3443 N 331.094 0.475555 1.50254 0
M  V30 3444 C 332.044 -0.335025 2.25525 0
M  V30 3445 C 333.028 -0.957625 1.29299 0
M  V30 3446 O 334.22 -0.869436 1.54175 0
M  V30 3447 C 331.349 -1.41385 3.12834 0
M  V30 3448 C 330.435 -0.798762 4.1651 0
M  V30 3449 N 330.826 0.0835815 5.05731 0
M  V30 3450 C 329.124 -1.06221 4.33166 0
M  V30 3451 C 329.825 0.433113 5.80085 0
M  V30 3452 N 328.801 -0.1928 5.43258 0
M  V30 3453 H 332.603 0.344612 2.91873 0
M  V30 3454 H 330.117 0.289986 1.5979 0
M  V30 3455 H 332.114 -2.00777 3.65368 0
M  V30 3456 H 330.774 -2.09543 2.48036 0
M  V30 3457 H 331.785 0.452715 5.15918 0
M  V30 3458 H 328.462 -1.73844 3.79585 0
M  V30 3459 H 329.852 1.15346 6.61925 0
M  V30 3460 N 332.573 -1.56217 0.208337 0
M  V30 3461 C 333.52 -2.19699 -0.707192 0
M  V30 3462 C 334.49 -1.14836 -1.20008 0
M  V30 3463 O 335.675 -1.4314 -1.26157 0
M  V30 3464 C 332.815 -2.87061 -1.91546 0
M  V30 3465 C 331.928 -4.06483 -1.46271 0
M  V30 3466 C 331.063 -4.61665 -2.62752 0
M  V30 3467 C 330.102 -5.73417 -2.14147 0
M  V30 3468 N 329.239 -6.22948 -3.23853 0
M  V30 3469 H 334.079 -2.97575 -0.159111 0
M  V30 3470 H 331.616 -1.46948 -0.0667874 0
M  V30 3471 H 333.574 -3.24294 -2.62468 0
M  V30 3472 H 332.204 -2.11725 -2.43664 0
M  V30 3473 H 331.256 -3.74825 -0.648886 0
M  V30 3474 H 332.568 -4.87271 -1.06622 0
M  V30 3475 H 331.722 -5.01272 -3.41776 0
M  V30 3476 H 330.461 -3.80013 -3.05682 0
M  V30 3477 H 329.466 -5.33326 -1.33581 0
M  V30 3478 H 330.691 -6.56897 -1.72232 0
M  V30 3479 H 328.637 -5.44213 -3.6629 0
M  V30 3480 H 328.554 -6.98823 -2.88414 0
M  V30 3481 H 329.822 -6.6721 -4.03052 0
M  V30 3482 N 334.051 0.0651679 -1.57465 0
M  V30 3483 C 334.981 1.07693 -2.07182 0
M  V30 3484 C 335.962 1.39962 -0.966673 0
M  V30 3485 O 337.147 1.49475 -1.2398 0
M  V30 3486 C 334.277 2.3885 -2.52127 0
M  V30 3487 C 333.231 2.20917 -3.66579 0
M  V30 3488 C 332.557 3.57515 -3.97601 0
M  V30 3489 C 333.857 1.62493 -4.9638 0
M  V30 3490 H 335.551 0.663199 -2.91962 0
M  V30 3491 H 333.097 0.317569 -1.40455 0
M  V30 3492 H 335.05 3.09928 -2.85522 0
M  V30 3493 H 333.774 2.82215 -1.64384 0
M  V30 3494 H 332.433 1.52279 -3.33477 0
M  V30 3495 H 332.081 3.98463 -3.06979 0
M  V30 3496 H 331.781 3.46353 -4.74672 0
M  V30 3497 H 333.305 4.30013 -4.33499 0
M  V30 3498 H 334.719 2.23445 -5.27963 0
M  V30 3499 H 333.116 1.62009 -5.77818 0
M  V30 3500 H 334.186 0.587041 -4.81333 0
M  V30 3501 N 335.529 1.53961 0.336706 0
M  V30 3502 C 336.759 1.75229 1.09446 0
M  V30 3503 C 337.167 0.494602 1.82621 0
M  V30 3504 O 336.51 -0.543764 1.75468 0
M  V30 3505 C 336.572 2.88288 2.1478 0
M  V30 3506 C 336.236 4.27656 1.6112 0
M  V30 3507 C 337.233 5.08981 1.0599 0
M  V30 3508 C 334.918 4.74161 1.6576 0
M  V30 3509 C 336.912 6.34916 0.562129 0
M  V30 3510 C 334.599 6.00067 1.15595 0
M  V30 3511 C 335.597 6.80278 0.609147 0
M  V30 3512 O 335.285 8.03818 0.114999 0
M  V30 3513 H 335.017 0.588881 0.331956 0
M  V30 3514 H 337.571 2.01614 0.392566 0
M  V30 3515 H 335.801 2.57443 2.88548 0
M  V30 3516 H 337.49 2.97461 2.76174 0
M  V30 3517 H 338.256 4.74213 1.01722 0
M  V30 3518 H 334.135 4.11781 2.07261 0
M  V30 3519 H 337.679 6.9747 0.134668 0
M  V30 3520 H 333.576 6.3433 1.19566 0
M  V30 3521 H 334.344 8.18172 0.231651 0
M  V30 3522 N 337.007 -0.598083 1.45811 0
M  V30 3523 C 338.255 -1.35413 1.50026 0
M  V30 3524 C 338.576 -1.94444 0.147177 0
M  V30 3525 O 337.846 -1.77701 -0.824571 0
M  V30 3526 H 336.426 -0.502727 0.552517 0
M  V30 3527 H 339.088 -0.701606 1.81834 0
M  V30 3528 H 338.184 -2.16871 2.2444 0
M  V30 3529 N 338.485 -1.33259 -0.841409 0
M  V30 3530 C 339.896 -1.22066 -1.41269 0
M  V30 3531 C 340.247 0.161479 -1.95534 0
M  V30 3532 O 339.372 1.06094 -1.88608 0
M  V30 3533 C 339.967 -2.20996 -2.568 0
M  V30 3534 C 338.526 -2.13649 -3.09888 0
M  V30 3535 C 337.673 -2.08623 -1.82679 0
M  V30 3536 H 340.624 -1.44895 -0.647395 0
M  V30 3537 H 340.645 -1.81621 -3.34356 0
M  V30 3538 H 340.157 -3.2158 -2.17274 0
M  V30 3539 H 338.258 -1.16359 -3.53965 0
M  V30 3540 H 338.371 -3.04079 -3.70234 0
M  V30 3541 H 336.735 -1.54061 -2.02824 0
M  V30 3542 H 337.518 -3.1101 -1.45353 0
M  V30 3543 N 339.963 1.05934 -1.16686 0
M  V30 3544 C 341.191 1.8249 -0.974929 0
M  V30 3545 C 341.606 1.82679 0.476861 0
M  V30 3546 O 340.963 1.2486 1.33103 0
M  V30 3547 C 341.014 3.28943 -1.49929 0
M  V30 3548 O 340.735 3.28886 -2.89423 0
M  V30 3549 C 342.236 4.22215 -1.35089 0
M  V30 3550 H 339.456 0.575295 -0.345365 0
M  V30 3551 H 342 1.33631 -1.548 0
M  V30 3552 H 340.155 3.751 -0.968423 0
M  V30 3553 H 340.569 4.20493 -3.13506 0
M  V30 3554 H 342.043 5.22987 -1.76603 0
M  V30 3555 H 342.52 4.38195 -0.296935 0
M  V30 3556 H 343.126 3.81907 -1.87155 0
M  V30 3557 N 341.441 0.965919 1.2453 0
M  V30 3558 C 342.689 0.625593 1.92174 0
M  V30 3559 C 343.01 -0.841652 1.75901 0
M  V30 3560 O 342.28 -1.60061 1.12948 0
M  V30 3561 H 340.86 0.228388 0.71123 0
M  V30 3562 H 343.522 1.2266 1.51461 0
M  V30 3563 H 342.618 0.864653 2.99884 0
M  V30 3564 N 342.919 -1.39368 0.735821 0
M  V30 3565 C 344.168 -1.99733 0.281004 0
M  V30 3566 C 344.481 -1.59055 -1.13846 0
M  V30 3567 O 345.687 -2.12262 -1.69284 0
M  V30 3568 C 344.143 -3.57057 0.451462 0
M  V30 3569 C 343.751 -4.06697 1.87886 0
M  V30 3570 C 345.495 -4.2446 0.0584616 0
M  V30 3571 C 343.402 -5.56598 1.99883 0
M  V30 3572 H 342.332 -0.747163 0.101311 0
M  V30 3573 H 344.983 -1.59357 0.909819 0
M  V30 3574 H 343.365 -3.95234 -0.246263 0
M  V30 3575 H 344.539 -3.79853 2.60861 0
M  V30 3576 H 342.854 -3.5196 2.22515 0
M  V30 3577 H 345.451 -5.34549 0.127099 0
M  V30 3578 H 345.794 -4.04444 -0.986433 0
M  V30 3579 H 346.327 -3.9146 0.707374 0
M  V30 3580 H 343.066 -5.81494 3.02564 0
M  V30 3581 H 342.586 -5.85242 1.31346 0
M  V30 3582 H 344.265 -6.22022 1.78039 0
M  V30 3583 N 344.397 -0.483516 -1.5 0
M  V30 3584 C 345.645 0.067027 -2.01989 0
M  V30 3585 C 345.966 1.3909 -1.36671 0
M  V30 3586 O 345.236 1.88978 -0.516152 0
M  V30 3587 H 343.816 0.0277606 -0.746484 0
M  V30 3588 H 346.478 -0.636773 -1.84204 0
M  V30 3589 H 345.574 0.209484 -3.11396 0
M  V30 3590 N 345.875 1.56104 -0.216619 0
M  V30 3591 C 347.124 1.97348 0.416744 0
M  V30 3592 C 347.437 1.10715 1.6125 0
M  V30 3593 O 348.643 1.41836 2.31506 0
M  V30 3594 C 347.099 3.51059 0.792835 0
M  V30 3595 C 346.707 4.46387 -0.379828 0
M  V30 3596 C 348.451 4.01026 1.39208 0
M  V30 3597 C 346.358 5.91397 0.0184223 0
M  V30 3598 H 345.288 0.736942 0.159475 0
M  V30 3599 H 347.939 1.80827 -0.31205 0
M  V30 3600 H 346.321 3.63162 1.57891 0
M  V30 3601 H 347.495 4.46029 -1.15737 0
M  V30 3602 H 345.81 4.06734 -0.891979 0
M  V30 3603 H 348.407 5.0686 1.70286 0
M  V30 3604 H 348.75 3.46587 2.30614 0
M  V30 3605 H 349.283 3.92125 0.669537 0
M  V30 3606 H 346.022 6.49807 -0.862002 0
M  V30 3607 H 345.542 5.94961 0.760384 0
M  V30 3608 H 347.221 6.45455 0.446818 0
M  V30 3609 N 347.353 -0.0568162 1.57498 0
M  V30 3610 C 348.283 -1.06593 2.0775 0
M  V30 3611 C 349.264 -1.39448 0.974082 0
M  V30 3612 O 350.449 -1.48815 1.24771 0
M  V30 3613 C 347.579 -2.37509 2.5339 0
M  V30 3614 C 346.533 -2.1897 3.67745 0
M  V30 3615 C 345.859 -3.55402 3.99492 0
M  V30 3616 C 347.159 -1.59859 4.97235 0
M  V30 3617 H 348.853 -0.647706 2.9231 0
M  V30 3618 H 346.399 -0.310116 1.40621 0
M  V30 3619 H 348.352 -3.08409 2.87162 0
M  V30 3620 H 347.076 -2.8134 1.65878 0
M  V30 3621 H 345.735 -1.50508 3.3428 0
M  V30 3622 H 345.383 -3.9683 3.09088 0
M  V30 3623 H 345.083 -3.43831 4.76502 0
M  V30 3624 H 346.607 -4.27708 4.35773 0
M  V30 3625 H 348.021 -2.20642 5.29141 0
M  V30 3626 H 346.418 -1.58942 5.78669 0
M  V30 3627 H 347.488 -0.561506 4.81638 0
M  V30 3628 N 348.832 -1.54138 -0.328536 0
M  V30 3629 C 350.062 -1.75807 -1.08516 0
M  V30 3630 C 350.47 -0.50428 -1.82356 0
M  V30 3631 O 349.813 0.534451 -1.75754 0
M  V30 3632 C 349.875 -2.89423 -2.13248 0
M  V30 3633 C 349.539 -4.28504 -1.5885 0
M  V30 3634 C 350.536 -5.09536 -1.03289 0
M  V30 3635 C 348.221 -4.75034 -1.63243 0
M  V30 3636 C 350.215 -6.35206 -0.52845 0
M  V30 3637 C 347.902 -6.00672 -1.12411 0
M  V30 3638 C 348.9 -6.80592 -0.573062 0
M  V30 3639 O 348.588 -8.03867 -0.0723692 0
M  V30 3640 H 348.32 -0.590633 -0.328829 0
M  V30 3641 H 350.874 -2.01819 -0.381868 0
M  V30 3642 H 349.104 -2.5897 -2.87178 0
M  V30 3643 H 350.793 -2.98921 -2.74592 0
M  V30 3644 H 351.559 -4.74745 -0.99206 0
M  V30 3645 H 347.438 -4.12875 -2.05074 0
M  V30 3646 H 350.982 -6.97532 -0.0976774 0
M  V30 3647 H 346.879 -6.34955 -1.162 0
M  V30 3648 H 347.647 -8.18283 -0.188258 0
M  V30 3649 N 350.31 0.590341 -1.46126 0
M  V30 3650 C 351.556 1.35082 -1.51264 0
M  V30 3651 C 351.889 1.93534 -0.160711 0
M  V30 3652 O 351.164 1.76045 0.826956 0
M  V30 3653 C 351.447 2.48588 -2.6053 0
M  V30 3654 C 351.3 1.95221 -4.05227 0
M  V30 3655 C 352.619 3.50662 -2.6594 0
M  V30 3656 H 349.738 0.489803 -0.550692 0
M  V30 3657 H 352.38 0.663887 -1.78024 0
M  V30 3658 H 350.53 3.07186 -2.37843 0
M  V30 3659 H 352.202 1.41139 -4.39178 0
M  V30 3660 H 350.445 1.26101 -4.15068 0
M  V30 3661 H 351.116 2.77121 -4.77397 0
M  V30 3662 H 353.592 3.01934 -2.86313 0
M  V30 3663 H 352.468 4.27551 -3.44226 0
M  V30 3664 H 352.729 4.07399 -1.71694 0
M  V30 3665 N 351.788 1.33704 0.83433 0
M  V30 3666 C 352.735 1.24335 1.94447 0
M  V30 3667 C 353.705 0.120991 1.65659 0
M  V30 3668 O 354.89 0.300035 1.88426 0
M  V30 3669 C 352.03 0.993124 3.30501 0
M  V30 3670 C 351.143 2.20217 3.71657 0
M  V30 3671 C 350.278 1.88572 4.96602 0
M  V30 3672 C 349.317 3.05683 5.30306 0
M  V30 3673 N 348.454 2.73997 6.46429 0
M  V30 3674 H 353.294 2.1928 2.01792 0
M  V30 3675 H 350.831 1.09035 0.987404 0
M  V30 3676 H 352.789 0.828467 4.08892 0
M  V30 3677 H 351.419 0.0803902 3.227 0
M  V30 3678 H 350.471 2.47642 2.88752 0
M  V30 3679 H 351.783 3.07752 3.92543 0
M  V30 3680 H 350.937 1.68776 5.82752 0
M  V30 3681 H 349.676 0.982799 4.77695 0
M  V30 3682 H 348.681 3.26088 4.42659 0
M  V30 3683 H 349.906 3.96737 5.51159 0
M  V30 3684 H 347.852 1.86268 6.28999 0
M  V30 3685 H 347.769 3.55064 6.67432 0
M  V30 3686 H 349.037 2.57679 7.35678 0
M  V30 3687 N 353.266 -1.05314 1.17247 0
M  V30 3688 C 354.176 -2.16538 0.90268 0
M  V30 3689 C 355.192 -1.73523 -0.128707 0
M  V30 3690 O 356.368 -2.01337 0.0502701 0
M  V30 3691 C 353.433 -3.44167 0.418356 0
M  V30 3692 C 352.494 -4.01635 1.51618 0
M  V30 3693 C 351.727 -5.23171 1.05487 0
M  V30 3694 O 351.95 -5.70327 -0.0914715 0
M  V30 3695 O 350.884 -5.72848 1.8474 0
M  V30 3696 H 354.71 -2.42145 1.83302 0
M  V30 3697 H 352.295 -1.15037 0.953246 0
M  V30 3698 H 354.177 -4.21112 0.155726 0
M  V30 3699 H 352.852 -3.20063 -0.48385 0
M  V30 3700 H 351.759 -3.26135 1.83268 0
M  V30 3701 H 353.092 -4.30053 2.39405 0
M  V30 3702 N 354.744 -0.972509 -1.24016 0
M  V30 3703 C 355.707 -0.511403 -2.23422 0
M  V30 3704 C 356.707 0.394679 -1.55881 0
M  V30 3705 O 357.897 0.189469 -1.73167 0
M  V30 3706 C 355.029 0.258769 -3.39916 0
M  V30 3707 H 356.222 -1.39024 -2.6573 0
M  V30 3708 H 353.775 -0.757585 -1.36713 0
M  V30 3709 H 354.51 1.1545 -3.03054 0
M  V30 3710 H 354.295 -0.391522 -3.9014 0
M  V30 3711 H 355.785 0.570244 -4.13688 0
M  V30 3712 N 356.222 1.38976 -0.743202 0
M  V30 3713 C 357.152 2.33171 -0.123873 0
M  V30 3714 C 358.133 1.54336 0.71516 0
M  V30 3715 O 359.318 1.82696 0.658467 0
M  V30 3716 C 356.448 3.38474 0.777978 0
M  V30 3717 C 355.402 4.27979 0.0424758 0
M  V30 3718 C 354.728 5.2405 1.06189 0
M  V30 3719 C 356.028 5.10155 -1.1198 0
M  V30 3720 H 357.722 2.85213 -0.910709 0
M  V30 3721 H 355.268 1.37133 -0.439388 0
M  V30 3722 H 357.221 4.03328 1.22084 0
M  V30 3723 H 355.945 2.84891 1.59702 0
M  V30 3724 H 354.604 3.64616 -0.380853 0
M  V30 3725 H 354.252 4.66758 1.87472 0
M  V30 3726 H 353.952 5.84785 0.574485 0
M  V30 3727 H 355.476 5.9178 1.50428 0
M  V30 3728 H 356.89 5.68307 -0.75499 0
M  V30 3729 H 355.287 5.80073 -1.53738 0
M  V30 3730 H 356.357 4.44504 -1.93764 0
M  V30 3731 N 357.7 0.491464 1.49741 0
M  V30 3732 C 358.63 -0.28154 2.31796 0
M  V30 3733 C 359.611 -0.971473 1.3963 0
M  V30 3734 O 360.796 -0.964719 1.68543 0
M  V30 3735 C 357.926 -1.35203 3.19902 0
M  V30 3736 C 356.88 -0.782529 4.20786 0
M  V30 3737 C 356.206 -1.95283 4.97764 0
M  V30 3738 C 357.506 0.21999 5.21837 0
M  V30 3739 H 359.2 0.403355 2.96671 0
M  V30 3740 H 356.746 0.195425 1.42668 0
M  V30 3741 H 358.699 -1.90045 3.76113 0
M  V30 3742 H 357.423 -2.06598 2.52953 0
M  V30 3743 H 356.082 -0.255928 3.65706 0
M  V30 3744 H 355.73 -2.65423 4.2727 0
M  V30 3745 H 355.43 -1.57789 5.66018 0
M  V30 3746 H 356.954 -2.50577 5.56816 0
M  V30 3747 H 358.368 -0.23996 5.72798 0
M  V30 3748 H 356.765 0.51026 5.97927 0
M  V30 3749 H 357.835 1.13911 4.7133 0
M  V30 3750 N 359.178 -1.55987 0.224894 0
M  V30 3751 C 360.11 -2.17722 -0.716224 0
M  V30 3752 C 361.123 -1.14723 -1.15509 0
M  V30 3753 O 362.312 -1.41688 -1.08567 0
M  V30 3754 C 359.412 -2.74873 -1.98238 0
M  V30 3755 C 358.585 -4.03074 -1.69853 0
M  V30 3756 C 357.644 -4.44757 -2.81208 0
M  V30 3757 O 356.67 -5.11587 -2.49534 0
M  V30 3758 N 357.872 -4.10716 -4.10235 0
M  V30 3759 H 360.637 -2.99109 -0.188123 0
M  V30 3760 H 358.198 -1.6184 0.0440123 0
M  V30 3761 H 360.19 -2.99727 -2.7193 0
M  V30 3762 H 358.76 -1.9777 -2.42086 0
M  V30 3763 H 357.98 -3.86041 -0.797875 0
M  V30 3764 H 359.268 -4.86701 -1.48324 0
M  V30 3765 H 358.666 -3.57019 -4.38809 0
M  V30 3766 H 357.223 -4.40455 -4.80461 0
M  V30 3767 N 360.656 0.0484629 -1.57525 0
M  V30 3768 C 361.566 1.07241 -2.08654 0
M  V30 3769 C 362.582 1.409 -1.02095 0
M  V30 3770 O 363.758 1.50609 -1.33712 0
M  V30 3771 C 360.823 2.36008 -2.5397 0
M  V30 3772 C 359.884 2.09108 -3.7493 0
M  V30 3773 C 359.117 3.31736 -4.18075 0
M  V30 3774 O 359.34 4.41714 -3.60895 0
M  V30 3775 O 358.274 3.18576 -5.10679 0
M  V30 3776 H 362.1 0.667965 -2.96263 0
M  V30 3777 H 359.685 0.26417 -1.47046 0
M  V30 3778 H 361.567 3.11747 -2.83535 0
M  V30 3779 H 360.242 2.75786 -1.69481 0
M  V30 3780 H 359.149 1.31 -3.50414 0
M  V30 3781 H 360.482 1.74198 -4.60343 0
M  V30 3782 N 362.134 1.5431 0.320358 0
M  V30 3783 C 363.067 1.78769 1.41834 0
M  V30 3784 C 364.045 0.63783 1.49568 0
M  V30 3785 O 365.229 0.875628 1.66928 0
M  V30 3786 C 362.356 1.90712 2.79905 0
M  V30 3787 C 361.402 3.13023 2.89687 0
M  V30 3788 S 362.235 4.71554 2.53766 0
M  V30 3789 C 363.391 4.86408 3.93902 0
M  V30 3790 H 363.624 2.71619 1.20874 0
M  V30 3791 H 361.157 1.45474 0.517377 0
M  V30 3792 H 363.115 1.98279 3.59438 0
M  V30 3793 H 361.776 0.988343 2.98145 0
M  V30 3794 H 360.969 3.18124 3.90913 0
M  V30 3795 H 360.571 3.03803 2.18128 0
M  V30 3796 H 362.863 4.69241 4.88691 0
M  V30 3797 H 363.806 5.88508 3.93782 0
M  V30 3798 H 364.214 4.14689 3.83005 0
M  V30 3799 N 363.613 -0.582584 1.46437 0
M  V30 3800 C 365.024 -1.1647 1.45916 0
M  V30 3801 C 365.375 -1.95177 0.200077 0
M  V30 3802 O 364.5 -2.04874 -0.696819 0
M  V30 3803 C 365.095 -2.11885 2.64367 0
M  V30 3804 C 363.654 -2.65421 2.66887 0
M  V30 3805 C 362.801 -1.41294 2.38603 0
M  V30 3806 H 365.752 -0.370514 1.54314 0
M  V30 3807 H 365.773 -2.9535 2.39892 0
M  V30 3808 H 365.285 -1.54573 3.5599 0
M  V30 3809 H 363.386 -3.26602 1.79338 0
M  V30 3810 H 363.499 -3.08147 3.66854 0
M  V30 3811 H 361.863 -1.71109 1.88663 0
M  V30 3812 H 362.646 -0.858125 3.32402 0
M  V30 3813 N 365.091 -1.34144 -0.827227 0
M  V30 3814 C 366.502 -1.23557 -1.39966 0
M  V30 3815 C 366.853 0.140731 -1.95695 0
M  V30 3816 O 365.978 1.04087 -1.89723 0
M  V30 3817 C 366.573 -2.23708 -2.54441 0
M  V30 3818 C 365.132 -2.16924 -3.07605 0
M  V30 3819 C 364.279 -2.10549 -1.80456 0
M  V30 3820 H 367.23 -1.45573 -0.631991 0
M  V30 3821 H 367.251 -1.85157 -3.32411 0
M  V30 3822 H 366.763 -3.23866 -2.13851 0
M  V30 3823 H 364.864 -1.20107 -3.52711 0
M  V30 3824 H 364.977 -3.07988 -3.66988 0
M  V30 3825 H 363.341 -1.56203 -2.01178 0
M  V30 3826 H 364.124 -3.12535 -1.42046 0
M  V30 3827 N 366.569 1.04691 -1.17803 0
M  V30 3828 C 367.815 1.78181 -0.980977 0
M  V30 3829 C 368.17 1.86191 0.484825 0
M  V30 3830 O 367.463 1.35436 1.35527 0
M  V30 3831 C 367.657 3.21467 -1.56186 0
M  V30 3832 C 367.486 3.27422 -3.08261 0
M  V30 3833 C 366.256 3.36415 -3.77032 0
M  V30 3834 C 368.454 3.15947 -4.0581 0
M  V30 3835 N 366.436 3.31554 -5.16667 0
M  V30 3836 C 367.807 3.18514 -5.31929 0
M  V30 3837 C 369.862 2.99945 -3.97413 0
M  V30 3838 C 368.565 3.06723 -6.50625 0
M  V30 3839 C 370.591 2.89497 -5.15699 0
M  V30 3840 C 369.953 2.92702 -6.40706 0
M  V30 3841 H 366.052 0.6641 -0.412911 0
M  V30 3842 H 368.636 1.24762 -1.49474 0
M  V30 3843 H 366.807 3.73245 -1.07436 0
M  V30 3844 H 368.539 3.8322 -1.30093 0
M  V30 3845 H 365.294 3.41887 -3.27735 0
M  V30 3846 H 365.718 3.3258 -5.89678 0
M  V30 3847 H 370.36 2.96302 -3.01604 0
M  V30 3848 H 368.078 3.0912 -7.46639 0
M  V30 3849 H 371.664 2.78179 -5.10987 0
M  V30 3850 H 370.544 2.84697 -7.30696 0
M  V30 3851 N 368.047 0.979072 1.23499 0
M  V30 3852 C 368.957 0.526431 2.28617 0
M  V30 3853 C 369.973 -0.418126 1.68901 0
M  V30 3854 O 371.149 -0.288372 1.99325 0
M  V30 3855 C 368.214 -0.165235 3.46306 0
M  V30 3856 C 367.275 0.82056 4.21385 0
M  V30 3857 C 366.508 0.161807 5.33455 0
M  V30 3858 O 366.731 -1.04742 5.60701 0
M  V30 3859 O 365.665 0.859708 5.95729 0
M  V30 3860 H 369.491 1.4006 2.69475 0
M  V30 3861 H 367.076 0.746643 1.29405 0
M  V30 3862 H 368.958 -0.553287 4.17752 0
M  V30 3863 H 367.633 -1.01419 3.07402 0
M  V30 3864 H 366.54 1.25929 3.52268 0
M  V30 3865 H 367.873 1.63828 4.64135 0
M  V30 3866 N 369.525 -1.3858 0.750561 0
M  V30 3867 C 370.773 -1.99789 0.30477 0
M  V30 3868 C 371.094 -1.59874 -1.11649 0
M  V30 3869 O 370.364 -0.85417 -1.76297 0
M  V30 3870 H 368.944 -0.738902 0.109694 0
M  V30 3871 H 371.606 -1.69391 0.963983 0
M  V30 3872 H 370.702 -3.09952 0.365499 0
M  V30 3873 N 371.003 -0.499398 -1.49478 0
M  V30 3874 C 372.251 0.0455996 -2.02049 0
M  V30 3875 C 372.572 1.37633 -1.38138 0
M  V30 3876 O 371.842 1.8842 -0.536166 0
M  V30 3877 H 370.422 0.0198416 -0.746736 0
M  V30 3878 H 373.084 -0.656274 -1.83519 0
M  V30 3879 H 372.18 0.176445 -3.11601 0
M  V30 3880 N 372.481 1.55866 -0.233164 0
M  V30 3881 C 373.729 1.9821 0.394593 0
M  V30 3882 C 374.05 1.12234 1.59463 0
M  V30 3883 O 373.32 0.201981 1.94856 0
M  V30 3884 H 371.9 0.732034 0.148778 0
M  V30 3885 H 374.562 1.92107 -0.32876 0
M  V30 3886 H 373.658 3.03845 0.713063 0
M  V30 3887 N 373.959 -0.0401083 1.57549 0
M  V30 3888 C 375.184 -0.748931 1.93406 0
M  V30 3889 C 375.609 -1.68686 0.832274 0
M  V30 3890 O 374.967 -1.80047 -0.212818 0
M  V30 3891 C 375.015 -1.4916 3.28304 0
M  V30 3892 O 374.119 -2.6042 3.19774 0
M  V30 3893 H 373.46 -0.202212 0.63246 0
M  V30 3894 H 375.99 0.00112086 2.046 0
M  V30 3895 H 376 -1.86395 3.62934 0
M  V30 3896 H 374.675 -0.80364 4.08062 0
M  V30 3897 H 373.252 -2.25808 2.96758 0
M  V30 3898 N 375.437 -1.54477 -0.31217 0
M  V30 3899 C 376.37 -1.79519 -1.40884 0
M  V30 3900 C 377.348 -0.645753 -1.49227 0
M  V30 3901 O 378.532 -0.884468 -1.66461 0
M  V30 3902 C 375.659 -1.92194 -2.78889 0
M  V30 3903 C 374.705 -3.14555 -2.88023 0
M  V30 3904 S 375.538 -4.72893 -2.51262 0
M  V30 3905 C 376.694 -4.8849 -3.91317 0
M  V30 3906 H 376.927 -2.72256 -1.19432 0
M  V30 3907 H 374.46 -1.45746 -0.509654 0
M  V30 3908 H 376.418 -2.00182 -3.58382 0
M  V30 3909 H 375.079 -1.00414 -2.97617 0
M  V30 3910 H 374.272 -3.20193 -3.89221 0
M  V30 3911 H 373.874 -3.04955 -2.16514 0
M  V30 3912 H 376.166 -4.71826 -4.86196 0
M  V30 3913 H 377.109 -5.90588 -3.90656 0
M  V30 3914 H 377.517 -4.16715 -3.80801 0
M  V30 3915 N 376.915 0.57481 -1.46744 0
M  V30 3916 C 378.164 1.32898 -1.51727 0
M  V30 3917 C 378.477 1.948 -0.176692 0
M  V30 3918 O 379.683 2.71299 -0.104385 0
M  V30 3919 C 378.139 2.40901 -2.67385 0
M  V30 3920 C 377.747 1.85266 -4.07898 0
M  V30 3921 C 379.491 3.17609 -2.81646 0
M  V30 3922 C 377.398 2.90945 -5.14883 0
M  V30 3923 H 376.328 0.499631 -0.564699 0
M  V30 3924 H 378.979 0.612536 -1.72975 0
M  V30 3925 H 377.361 3.15379 -2.39483 0
M  V30 3926 H 378.535 1.17278 -4.45626 0
M  V30 3927 H 376.85 1.21199 -3.98371 0
M  V30 3928 H 379.447 3.96493 -3.58744 0
M  V30 3929 H 379.79 3.70696 -1.89448 0
M  V30 3930 H 380.323 2.50239 -3.09233 0
M  V30 3931 H 377.062 2.42736 -6.089 0
M  V30 3932 H 376.582 3.57398 -4.81691 0
M  V30 3933 H 378.261 3.54755 -5.41071 0
M  V30 3934 N 378.394 1.34581 0.820102 0
M  V30 3935 C 379.357 1.2628 1.91275 0
M  V30 3936 C 380.357 0.177344 1.59819 0
M  V30 3937 O 381.547 0.430156 1.68806 0
M  V30 3938 C 378.679 0.950327 3.27386 0
M  V30 3939 H 379.872 2.23421 2.00057 0
M  V30 3940 H 377.425 1.1891 1.0144 0
M  V30 3941 H 378.16 -0.0177938 3.24295 0
M  V30 3942 H 377.945 1.73549 3.51601 0
M  V30 3943 H 379.435 0.917492 4.07396 0
M  V30 3944 N 379.872 -1.04064 1.18357 0
M  V30 3945 C 381.1 -1.80916 1.00384 0
M  V30 3946 C 381.515 -1.83414 -0.447738 0
M  V30 3947 O 380.872 -1.26962 -1.31099 0
M  V30 3948 C 380.923 -3.26516 1.55144 0
M  V30 3949 O 380.644 -3.2424 2.94618 0
M  V30 3950 C 382.145 -4.20013 1.41789 0
M  V30 3951 H 379.365 -0.569728 0.354474 0
M  V30 3952 H 381.909 -1.31151 1.56906 0
M  V30 3953 H 380.064 -3.73512 1.02798 0
M  V30 3954 H 380.478 -4.15452 3.20156 0
M  V30 3955 H 381.952 -5.20111 1.84901 0
M  V30 3956 H 382.429 -4.37667 0.36661 0
M  V30 3957 H 383.035 -3.78881 1.93207 0
M  V30 3958 N 381.35 -0.985608 -1.22978 0
M  V30 3959 C 382.596 -0.65836 -1.91816 0
M  V30 3960 C 382.929 0.806692 -1.76653 0
M  V30 3961 O 382.204 1.58252 -1.13078 0
M  V30 3962 C 382.487 -1.056 -3.44268 0
M  V30 3963 C 382.34 -2.57906 -3.68516 0
M  V30 3964 C 383.659 -0.603781 -4.35939 0
M  V30 3965 H 380.778 -0.24065 -0.696604 0
M  V30 3966 H 383.42 -1.22783 -1.44998 0
M  V30 3967 H 381.57 -0.571445 -3.84274 0
M  V30 3968 H 383.242 -3.13976 -3.3796 0
M  V30 3969 H 381.485 -3.00305 -3.13048 0
M  V30 3970 H 382.156 -2.80779 -4.75255 0
M  V30 3971 H 384.632 -1.01987 -4.03408 0
M  V30 3972 H 383.508 -0.910383 -5.41298 0
M  V30 3973 H 383.769 0.495761 -4.39312 0
M  V30 3974 N 382.828 1.3818 -0.7579 0
M  V30 3975 C 384.053 2.04827 -0.325679 0
M  V30 3976 C 384.478 1.56788 1.03919 0
M  V30 3977 O 383.836 0.721811 1.66312 0
M  V30 3978 C 383.884 3.58774 -0.362447 0
M  V30 3979 O 382.988 4.07372 0.642033 0
M  V30 3980 H 382.329 0.64833 -0.143402 0
M  V30 3981 H 384.859 1.7677 -1.03023 0
M  V30 3982 H 384.869 4.07434 -0.214844 0
M  V30 3983 H 383.544 3.93096 -1.35824 0
M  V30 3984 H 382.121 3.70068 0.458688 0
M  V30 3985 N 384.306 0.507319 1.49211 0
M  V30 3986 C 385.236 -0.256939 2.32082 0
M  V30 3987 C 386.217 -0.956609 1.40652 0
M  V30 3988 O 387.402 -0.946788 1.69557 0
M  V30 3989 C 384.532 -1.31802 3.21318 0
M  V30 3990 C 383.486 -0.737855 4.21592 0
M  V30 3991 C 382.812 -1.89992 4.99807 0
M  V30 3992 C 384.112 0.275325 5.21574 0
M  V30 3993 H 385.806 0.434798 2.96226 0
M  V30 3994 H 383.352 0.210546 1.42452 0
M  V30 3995 H 385.305 -1.86045 3.78107 0
M  V30 3996 H 384.029 -2.03903 2.5513 0
M  V30 3997 H 382.688 -0.217126 3.65956 0
M  V30 3998 H 382.336 -2.60877 4.30061 0
M  V30 3999 H 382.036 -1.51777 5.6766 0
M  V30 4000 H 383.56 -2.44657 5.59442 0
M  V30 4001 H 384.974 -0.179193 5.7302 0
M  V30 4002 H 383.371 0.573649 5.97352 0
M  V30 4003 H 384.441 1.18903 4.70096 0
M  V30 4004 N 385.784 -1.5574 0.241426 0
M  V30 4005 C 387.009 -2.0366 -0.392111 0
M  V30 4006 C 387.434 -1.11969 -1.51144 0
M  V30 4007 O 386.792 -0.111594 -1.80956 0
M  V30 4008 C 386.84 -3.49638 -0.882371 0
M  V30 4009 O 385.944 -3.6108 -1.99235 0
M  V30 4010 H 385.285 -0.658379 -0.0862122 0
M  V30 4011 H 387.815 -2.01302 0.365881 0
M  V30 4012 H 387.825 -3.90351 -1.18702 0
M  V30 4013 H 386.5 -4.15852 -0.0632361 0
M  V30 4014 H 385.077 -3.32262 -1.69282 0
M  V30 4015 N 387.262 0.0317525 -1.57568 0
M  V30 4016 C 388.172 1.05021 -2.0978 0
M  V30 4017 C 389.188 1.39809 -1.03583 0
M  V30 4018 O 390.364 1.49182 -1.35302 0
M  V30 4019 C 387.429 2.33301 -2.56459 0
M  V30 4020 C 386.49 2.0512 -3.77127 0
M  V30 4021 C 385.723 3.27283 -4.2157 0
M  V30 4022 O 385.946 4.37861 -3.65559 0
M  V30 4023 O 384.88 3.13141 -5.14029 0
M  V30 4024 H 388.706 0.636505 -2.96955 0
M  V30 4025 H 386.291 0.248559 -1.47318 0
M  V30 4026 H 388.173 3.08722 -2.86825 0
M  V30 4027 H 386.848 2.73973 -1.72397 0
M  V30 4028 H 385.755 1.27276 -3.51784 0
M  V30 4029 H 387.088 1.69305 -4.62165 0
M  V30 4030 N 388.74 1.54641 0.303973 0
M  V30 4031 C 389.988 1.73437 1.0375 0
M  V30 4032 C 390.309 0.521449 1.87899 0
M  V30 4033 O 389.579 -0.46432 1.90318 0
M  V30 4034 H 388.159 0.639518 0.386039 0
M  V30 4035 H 390.821 1.91988 0.335675 0
M  V30 4036 H 389.917 2.62235 1.69231 0
M  V30 4037 N 390.218 -0.567019 1.47046 0
M  V30 4038 C 391.446 -1.35027 1.56765 0
M  V30 4039 C 391.861 -1.8758 0.214316 0
M  V30 4040 O 391.218 -1.64471 -0.790919 0
M  V30 4041 C 391.269 -2.52698 2.58507 0
M  V30 4042 O 390.99 -2.0232 3.88585 0
M  V30 4043 C 392.491 -3.45043 2.78316 0
M  V30 4044 H 389.711 -0.41195 0.529658 0
M  V30 4045 H 392.255 -0.687832 1.92585 0
M  V30 4046 H 390.41 -3.149 2.25648 0
M  V30 4047 H 390.824 -2.79068 4.44096 0
M  V30 4048 H 392.298 -4.2405 3.53391 0
M  V30 4049 H 392.775 -3.97971 1.85784 0
M  V30 4050 H 393.381 -2.88665 3.12334 0
M  V30 4051 N 391.696 -1.35014 -0.812953 0
M  V30 4052 C 392.924 -1.31031 -1.6012 0
M  V30 4053 C 393.339 0.113558 -1.88458 0
M  V30 4054 O 392.696 1.06363 -1.48301 0
M  V30 4055 C 392.747 -2.10872 -2.93624 0
M  V30 4056 O 392.468 -3.47706 -2.66518 0
M  V30 4057 C 393.969 -2.14401 -3.88004 0
M  V30 4058 H 391.189 -0.45037 -0.497401 0
M  V30 4059 H 393.733 -1.77775 -1.01076 0
M  V30 4060 H 391.888 -1.67744 -3.492 0
M  V30 4061 H 392.302 -3.89097 -3.51715 0
M  V30 4062 H 393.776 -2.74669 -4.78812 0
M  V30 4063 H 394.253 -1.14105 -4.24119 0
M  V30 4064 H 394.859 -2.57662 -3.38364 0
M  V30 4065 N 393.175 1.03435 -1.18907 0
M  V30 4066 C 394.421 1.7713 -0.99982 0
M  V30 4067 C 394.776 1.86695 0.465049 0
M  V30 4068 O 394.069 1.36866 1.34083 0
M  V30 4069 C 394.263 3.19792 -1.59586 0
M  V30 4070 C 394.092 3.24134 -3.11717 0
M  V30 4071 C 392.862 3.32398 -3.80578 0
M  V30 4072 C 395.06 3.11625 -4.09138 0
M  V30 4073 N 393.042 3.26055 -5.20155 0
M  V30 4074 C 394.413 3.12855 -5.35277 0
M  V30 4075 C 396.468 2.95713 -4.00572 0
M  V30 4076 C 395.171 2.99805 -6.53842 0
M  V30 4077 C 397.197 2.84011 -5.1874 0
M  V30 4078 C 396.559 2.8589 -6.43775 0
M  V30 4079 H 392.658 0.659683 -0.419931 0
M  V30 4080 H 395.242 1.2317 -1.50789 0
M  V30 4081 H 393.413 3.72085 -1.11389 0
M  V30 4082 H 395.145 3.81819 -1.3415 0
M  V30 4083 H 391.9 3.38392 -3.31342 0
M  V30 4084 H 392.324 3.26307 -5.93172 0
M  V30 4085 H 396.966 2.93086 -3.0473 0
M  V30 4086 H 394.684 3.01184 -7.49876 0
M  V30 4087 H 398.27 2.72744 -5.13909 0
M  V30 4088 H 397.15 2.76931 -7.33675 0
M  V30 4089 N 394.653 0.992116 1.22453 0
M  V30 4090 C 395.881 0.685944 1.95198 0
M  V30 4091 C 396.296 -0.749233 1.73297 0
M  V30 4092 O 395.653 -1.50549 1.03156 0
M  V30 4093 C 395.704 0.981395 3.47924 0
M  V30 4094 O 395.425 2.36018 3.6909 0
M  V30 4095 C 396.926 0.692815 4.37853 0
M  V30 4096 H 394.146 0.253821 0.621141 0
M  V30 4097 H 396.69 1.32668 1.55626 0
M  V30 4098 H 394.845 0.386481 3.85467 0
M  V30 4099 H 395.259 2.45884 4.63294 0
M  V30 4100 H 396.733 0.949818 5.43767 0
M  V30 4101 H 397.21 -0.373181 4.37612 0
M  V30 4102 H 397.816 1.26874 4.05935 0
M  V30 4103 N 396.131 -1.37776 0.765217 0
M  V30 4104 C 397.078 -2.30342 0.145274 0
M  V30 4105 C 398.048 -1.5077 -0.696971 0
M  V30 4106 O 399.233 -1.79362 -0.650689 0
M  V30 4107 C 396.373 -3.37227 -0.732939 0
M  V30 4108 C 395.486 -4.31819 0.125199 0
M  V30 4109 C 394.621 -5.25777 -0.757107 0
M  V30 4110 C 393.66 -6.12012 0.103963 0
M  V30 4111 N 392.797 -6.98232 -0.735953 0
M  V30 4112 H 397.637 -2.8278 0.940195 0
M  V30 4113 H 395.174 -1.39211 0.475255 0
M  V30 4114 H 397.132 -3.97818 -1.25686 0
M  V30 4115 H 395.762 -2.86171 -1.49353 0
M  V30 4116 H 394.814 -3.7259 0.766865 0
M  V30 4117 H 396.126 -4.92509 0.789683 0
M  V30 4118 H 395.28 -5.91541 -1.34776 0
M  V30 4119 H 394.019 -4.65481 -1.45529 0
M  V30 4120 H 393.024 -5.45233 0.707197 0
M  V30 4121 H 394.249 -6.74379 0.799381 0
M  V30 4122 H 392.195 -6.40472 -1.41887 0
M  V30 4123 H 392.112 -7.55891 -0.128624 0
M  V30 4124 H 393.38 -7.68393 -1.31121 0
M  V30 4125 N 397.609 -0.515225 -1.4894 0
M  V30 4126 C 398.572 0.244681 -2.2789 0
M  V30 4127 C 399.572 0.881166 -1.34507 0
M  V30 4128 O 400.762 0.743497 -1.57537 0
M  V30 4129 C 397.894 1.35247 -3.12923 0
M  V30 4130 H 399.087 -0.448289 -2.96531 0
M  V30 4131 H 396.64 -0.270656 -1.53939 0
M  V30 4132 H 397.375 2.07916 -2.48881 0
M  V30 4133 H 397.16 0.901374 -3.81599 0
M  V30 4134 H 398.65 1.88737 -3.72516 0
M  V30 4135 N 399.087 1.5561 -0.249682 0
M  V30 4136 C 400.498 1.84979 0.252949 0
M  V30 4137 C 400.849 1.17153 1.57384 0
M  V30 4138 O 399.974 0.450884 2.11651 0
M  V30 4139 C 400.569 3.35584 0.465732 0
M  V30 4140 C 399.128 3.65169 0.912624 0
M  V30 4141 C 398.275 2.77299 -0.00859085 0
M  V30 4142 H 401.226 1.51513 -0.47217 0
M  V30 4143 H 401.247 3.57313 1.30795 0
M  V30 4144 H 400.759 3.8492 -0.49579 0
M  V30 4145 H 398.86 3.21312 1.88652 0
M  V30 4146 H 398.973 4.72912 0.767559 0
M  V30 4147 H 397.337 2.49678 0.50327 0
M  V30 4148 H 398.12 3.29442 -0.965537 0
M  V30 4149 N 400.565 -0.0233959 1.57583 0
M  V30 4150 C 401.811 -0.708611 1.90657 0
M  V30 4151 C 402.166 -1.7266 0.848895 0
M  V30 4152 O 401.459 -1.91075 -0.141749 0
M  V30 4153 C 401.653 -1.41428 3.28227 0
M  V30 4154 C 401.482 -0.466155 4.47277 0
M  V30 4155 C 400.252 -0.085117 5.05228 0
M  V30 4156 C 402.45 0.257836 5.13653 0
M  V30 4157 N 400.432 0.863672 6.07794 0
M  V30 4158 C 401.803 1.06209 6.10835 0
M  V30 4159 C 403.858 0.324174 4.96844 0
M  V30 4160 C 402.561 1.9266 6.93018 0
M  V30 4161 C 404.587 1.17583 5.79593 0
M  V30 4162 C 403.949 1.96799 6.7635 0
M  V30 4163 H 400.048 -0.233222 0.746412 0
M  V30 4164 H 402.632 0.0314512 1.94675 0
M  V30 4165 H 400.803 -2.12477 3.25128 0
M  V30 4166 H 402.535 -2.05233 3.488 0
M  V30 4167 H 399.29 -0.448516 4.71471 0
M  V30 4168 H 399.714 1.33274 6.63752 0
M  V30 4169 H 404.356 -0.273975 4.21911 0
M  V30 4170 H 402.074 2.53552 7.67292 0
M  V30 4171 H 405.66 1.23076 5.68633 0
M  V30 4172 H 404.54 2.61635 7.39268 0
M  V30 4173 N 402.043 -1.548 -0.295768 0
M  V30 4174 C 403.459 -1.4613 -0.641722 0
M  V30 4175 C 403.659 -0.656771 -1.90496 0
M  V30 4176 O 402.715 -0.166547 -2.5195 0
M  V30 4177 C 404.028 -2.90141 -0.789852 0
M  V30 4178 C 405.576 -3.00216 -0.885396 0
M  V30 4179 C 406.051 -4.45434 -1.06548 0
M  V30 4180 N 407.542 -4.49166 -1.13156 0
M  V30 4181 C 408.277 -5.58717 -1.28929 0
M  V30 4182 N 407.773 -6.78182 -1.41567 0
M  V30 4183 N 409.566 -5.46415 -1.31859 0
M  V30 4184 H 401.717 -2.05574 0.534147 0
M  V30 4185 H 403.98 -0.931259 0.177372 0
M  V30 4186 H 403.686 -3.51635 0.0675598 0
M  V30 4187 H 403.56 -3.37859 -1.67724 0
M  V30 4188 H 405.947 -2.38833 -1.73329 0
M  V30 4189 H 406.028 -2.55787 0.0261185 0
M  V30 4190 H 405.672 -5.07413 -0.222335 0
M  V30 4191 H 405.602 -4.87499 -1.9913 0
M  V30 4192 H 408.093 -3.631 -1.04721 0
M  V30 4193 H 408.406 -7.57428 -1.53372 0
M  V30 4194 H 406.751 -6.81037 -1.38613 0
M  V30 4195 H 409.942 -4.5203 -1.21601 0
M  V30 4196 H 410.115 -6.31841 -1.43808 0
M  V30 4197 N 403.521 0.559213 -1.47345 0
M  V30 4198 C 404.768 1.31648 -1.53867 0
M  V30 4199 C 405.096 1.93468 -0.200104 0
M  V30 4200 O 404.351 1.78295 0.806799 0
M  V30 4201 C 404.65 2.44853 -2.6035 0
M  V30 4202 C 404.316 2.00876 -4.03683 0
M  V30 4203 C 402.978 1.88599 -4.42701 0
M  V30 4204 C 405.33 1.67279 -4.93626 0
M  V30 4205 C 402.658 1.41017 -5.69501 0
M  V30 4206 C 405.01 1.21169 -6.20887 0
M  V30 4207 C 403.674 1.07487 -6.58789 0
M  V30 4208 H 402.944 0.481734 -0.56304 0
M  V30 4209 H 405.591 0.627301 -1.80934 0
M  V30 4210 H 403.896 3.19318 -2.27032 0
M  V30 4211 H 405.593 3.03039 -2.62619 0
M  V30 4212 H 402.183 2.11374 -3.72853 0
M  V30 4213 H 406.367 1.75638 -4.64182 0
M  V30 4214 H 401.623 1.29086 -5.97618 0
M  V30 4215 H 405.797 0.942345 -6.89995 0
M  V30 4216 H 403.424 0.703946 -7.56934 0
M  V30 4217 N 404.999 1.35443 0.805782 0
M  V30 4218 C 405.909 1.30546 1.94923 0
M  V30 4219 C 406.925 0.210233 1.72725 0
M  V30 4220 O 408.101 0.43975 1.9654 0
M  V30 4221 C 405.166 1.07782 3.29521 0
M  V30 4222 C 404.227 2.26625 3.64609 0
M  V30 4223 C 403.46 2.04938 4.92784 0
M  V30 4224 O 403.683 1.01624 5.61274 0
M  V30 4225 O 402.617 2.9232 5.26149 0
M  V30 4226 H 406.443 2.26779 2.02002 0
M  V30 4227 H 404.028 1.15823 0.943682 0
M  V30 4228 H 405.91 0.969392 4.10098 0
M  V30 4229 H 404.585 0.146003 3.23371 0
M  V30 4230 H 403.492 2.43033 2.84404 0
M  V30 4231 H 404.825 3.18257 3.75464 0
M  V30 4232 N 406.477 -1.02803 1.19454 0
M  V30 4233 C 407.44 -2.09264 0.934955 0
M  V30 4234 C 408.44 -1.60576 -0.0849015 0
M  V30 4235 O 409.63 -1.73554 0.149933 0
M  V30 4236 C 406.762 -3.38482 0.40531 0
M  V30 4237 H 407.955 -2.33726 1.87916 0
M  V30 4238 H 405.508 -1.19426 1.00832 0
M  V30 4239 H 406.243 -3.19689 -0.544899 0
M  V30 4240 H 406.028 -3.75142 1.14065 0
M  V30 4241 H 407.518 -4.16894 0.242806 0
M  V30 4242 N 407.956 -0.998596 -1.21925 0
M  V30 4243 C 409.204 -0.676325 -1.90448 0
M  V30 4244 C 409.525 0.794719 -1.78071 0
M  V30 4245 O 408.795 1.5701 -1.17152 0
M  V30 4246 H 407.375 -0.247165 -0.704925 0
M  V30 4247 H 410.037 -1.26633 -1.48156 0
M  V30 4248 H 409.133 -0.943858 -2.97486 0
M  V30 4249 N 409.434 1.37368 -0.772513 0
M  V30 4250 C 410.662 2.03942 -0.348588 0
M  V30 4251 C 411.077 1.58264 1.02947 0
M  V30 4252 O 410.434 0.764246 1.65727 0
M  V30 4253 C 410.485 3.5946 -0.38351 0
M  V30 4254 O 410.206 4.03468 -1.70721 0
M  V30 4255 C 411.707 4.4327 0.0519152 0
M  V30 4256 H 408.927 0.654931 -0.145966 0
M  V30 4257 H 411.471 1.75686 -1.04665 0
M  V30 4258 H 409.626 3.86486 0.265978 0
M  V30 4259 H 410.04 4.97991 -1.64636 0
M  V30 4260 H 411.514 5.51995 -0.0236733 0
M  V30 4261 H 411.991 4.2514 1.10238 0
M  V30 4262 H 412.597 4.21471 -0.569415 0
M  V30 4263 N 410.912 0.523116 1.48665 0
M  V30 4264 C 412.323 0.0808997 1.86525 0
M  V30 4265 C 412.674 -1.33975 1.43336 0
M  V30 4266 O 411.799 -2.00221 0.821009 0
M  V30 4267 C 412.394 0.140037 3.3851 0
M  V30 4268 C 410.953 -0.246948 3.75589 0
M  V30 4269 C 410.1 0.502845 2.72703 0
M  V30 4270 H 413.051 0.734736 1.40667 0
M  V30 4271 H 413.072 -0.649945 3.74908 0
M  V30 4272 H 412.584 1.17412 3.69914 0
M  V30 4273 H 410.685 -1.28343 3.49798 0
M  V30 4274 H 410.798 0.0878859 4.79019 0
M  V30 4275 H 409.162 -0.0500581 2.54651 0
M  V30 4276 H 409.945 1.53743 3.0695 0
M  V30 4277 N 412.39 -1.55475 0.257931 0
M  V30 4278 C 413.338 -2.23244 -0.653076 0
M  V30 4279 C 414.332 -1.22366 -1.17144 0
M  V30 4280 O 415.538 -1.40347 -1.12706 0
M  V30 4281 H 411.913 -0.716247 -0.229117 0
M  V30 4282 H 413.884 -2.98343 -0.0584788 0
M  V30 4283 C 412.633 -2.95401 -1.83395 0
M  V30 4284 H 411.956 -3.72802 -1.44424 0
M  V30 4285 H 413.396 -3.46165 -2.44838 0
M  V30 4286 C 411.855 -1.99895 -2.71189 0
M  V30 4287 O 412.385 -1.53909 -3.71046 0
M  V30 4288 N 410.591 -1.6676 -2.3799 0
M  V30 4289 H 410.138 -2.04352 -1.56837 0
M  V30 4290 H 410.096 -1.03127 -2.97005 0
M  V30 4291 N 413.868 0.0150385 -1.57593 0
M  V30 4292 C 415.096 0.714395 -1.94175 0
M  V30 4293 C 415.511 1.68135 -0.858841 0
M  V30 4294 O 414.868 1.81766 0.163567 0
M  V30 4295 C 414.919 1.45933 -3.30735 0
M  V30 4296 O 414.64 0.531167 -4.34868 0
M  V30 4297 C 416.141 2.25456 -3.81686 0
M  V30 4298 H 413.361 0.199923 -0.640525 0
M  V30 4299 H 415.905 -0.0316096 -2.04476 0
M  V30 4300 H 414.06 2.15709 -3.21789 0
M  V30 4301 H 414.474 1.05509 -5.13778 0
M  V30 4302 H 415.948 2.731 -4.79709 0
M  V30 4303 H 416.425 3.07485 -3.13607 0
M  V30 4304 H 417.031 1.60727 -3.9376 0
M  V30 4305 N 415.346 1.54954 0.287554 0
M  V30 4306 C 416.594 1.74528 1.01904 0
M  V30 4307 C 416.915 0.541349 1.87335 0
M  V30 4308 O 416.185 -0.444108 1.908 0
M  V30 4309 H 414.765 0.643576 0.379235 0
M  V30 4310 H 417.427 1.92333 0.315294 0
M  V30 4311 H 416.523 2.64015 1.6644 0
M  V30 4312 N 416.824 -0.551391 1.4764 0
M  V30 4313 C 418.072 -1.30572 1.54258 0
M  V30 4314 C 418.393 -1.93877 0.208963 0
M  V30 4315 O 417.663 -1.80234 -0.767619 0
M  V30 4316 H 416.243 -0.484894 0.568231 0
M  V30 4317 H 418.905 -0.643402 1.83974 0
M  V30 4318 H 418.001 -2.09621 2.31226 0
M  V30 4319 N 418.302 -1.35869 -0.798587 0
M  V30 4320 C 419.551 -1.28921 -1.5512 0
M  V30 4321 C 419.864 0.13208 -1.95154 0
M  V30 4322 O 421.07 0.323879 -2.69561 0
M  V30 4323 C 419.526 -2.26141 -2.79979 0
M  V30 4324 C 419.134 -3.73658 -2.47151 0
M  V30 4325 C 420.878 -2.28152 -3.57976 0
M  V30 4326 C 418.785 -4.62679 -3.6835 0
M  V30 4327 H 417.715 -0.479031 -0.582276 0
M  V30 4328 H 420.366 -1.61179 -0.877125 0
M  V30 4329 H 418.748 -1.86865 -3.49138 0
M  V30 4330 H 419.922 -4.21616 -1.85947 0
M  V30 4331 H 418.237 -3.74333 -1.82383 0
M  V30 4332 H 420.834 -2.91875 -4.4801 0
M  V30 4333 H 421.177 -1.28748 -3.95891 0
M  V30 4334 H 421.71 -2.65998 -2.95787 0
M  V30 4335 H 418.449 -5.63111 -3.35538 0
M  V30 4336 H 417.969 -4.19442 -4.28752 0
M  V30 4337 H 419.648 -4.78498 -4.35487 0
M  V30 4338 N 419.78 1.02168 -1.19998 0
M  V30 4339 C 421.029 1.75091 -1.0013 0
M  V30 4340 C 421.342 1.89923 0.467835 0
M  V30 4341 O 422.548 2.59888 0.785515 0
M  V30 4342 C 421.004 3.14892 -1.74273 0
M  V30 4343 C 420.612 3.0809 -3.25245 0
M  V30 4344 C 422.356 3.9206 -1.62755 0
M  V30 4345 C 420.263 4.42867 -3.91948 0
M  V30 4346 H 419.193 0.656394 -0.37103 0
M  V30 4347 H 421.844 1.14284 -1.43567 0
M  V30 4348 H 420.226 3.7621 -1.2362 0
M  V30 4349 H 421.4 2.5611 -3.83072 0
M  V30 4350 H 419.715 2.44416 -3.3712 0
M  V30 4351 H 422.312 4.91764 -2.09934 0
M  V30 4352 H 422.655 4.12199 -0.582894 0
M  V30 4353 H 423.188 3.37359 -2.10793 0
M  V30 4354 H 419.927 4.27931 -4.96543 0
M  V30 4355 H 419.447 4.94874 -3.3891 0
M  V30 4356 H 421.126 5.11728 -3.95909 0
M  V30 4357 N 421.258 1.00505 1.21394 0
M  V30 4358 C 422.506 0.686415 1.90086 0
M  V30 4359 C 422.827 -0.785264 1.7849 0
M  V30 4360 O 422.097 -1.56387 1.17983 0
M  V30 4361 H 420.677 0.2509 0.703604 0
M  V30 4362 H 423.339 1.27417 1.47482 0
M  V30 4363 H 422.435 0.959621 2.96981 0
M  V30 4364 N 422.737 -1.36956 0.779787 0
M  V30 4365 C 423.667 -2.32761 0.185651 0
M  V30 4366 C 424.648 -1.56177 -0.673989 0
M  V30 4367 O 425.833 -1.84378 -0.609797 0
M  V30 4368 C 422.963 -3.40418 -0.687964 0
M  V30 4369 C 421.917 -4.27941 0.0710102 0
M  V30 4370 C 421.243 -5.26681 -0.922573 0
M  V30 4371 C 422.543 -5.07006 1.25467 0
M  V30 4372 H 424.237 -2.82698 0.986008 0
M  V30 4373 H 421.783 -1.3592 0.475592 0
M  V30 4374 H 423.736 -4.06423 -1.11348 0
M  V30 4375 H 422.46 -2.89025 -1.52093 0
M  V30 4376 H 421.119 -3.63478 0.47739 0
M  V30 4377 H 420.767 -4.71565 -1.7503 0
M  V30 4378 H 420.467 -5.86103 -0.419237 0
M  V30 4379 H 421.991 -5.9556 -1.34686 0
M  V30 4380 H 423.405 -5.66105 0.905401 0
M  V30 4381 H 421.802 -5.75793 1.69063 0
M  V30 4382 H 422.872 -4.3921 2.05481 0
M  V30 4383 N 424.215 -0.530993 -1.48385 0
M  V30 4384 C 425.463 0.00273189 -2.021 0
M  V30 4385 C 425.784 1.34672 -1.41027 0
M  V30 4386 O 425.054 1.8724 -0.576012 0
M  V30 4387 H 423.634 0.00399774 -0.746989 0
M  V30 4388 H 426.296 -0.695054 -1.82085 0
M  V30 4389 H 425.392 0.11031 -3.11905 0
M  V30 4390 N 425.693 1.55336 -0.266172 0
M  V30 4391 C 426.656 2.20878 0.612001 0
M  V30 4392 C 427.656 1.18388 1.08816 0
M  V30 4393 O 428.846 1.4335 0.989774 0
M  V30 4394 C 425.978 2.86765 1.84332 0
M  V30 4395 H 427.171 2.99873 0.0398718 0
M  V30 4396 H 424.724 1.56291 -0.0167309 0
M  V30 4397 H 425.459 2.11759 2.45619 0
M  V30 4398 H 425.244 3.61862 1.5099 0
M  V30 4399 H 426.734 3.36867 2.46801 0
M  V30 4400 N 427.171 -0.0066808 1.57599 0
M  V30 4401 C 428.134 -0.985035 2.06953 0
M  V30 4402 C 429.134 -1.27663 0.977687 0
M  V30 4403 O 430.324 -1.22293 1.24057 0
M  V30 4404 C 427.456 -2.3118 2.50536 0
M  V30 4405 H 428.649 -0.558255 2.94658 0
M  V30 4406 H 426.202 -0.254011 1.54222 0
M  V30 4407 H 426.937 -2.78561 1.66054 0
M  V30 4408 H 426.722 -2.11338 3.3027 0
M  V30 4409 H 428.212 -3.01377 2.8907 0
M  V30 4410 N 428.649 -1.55105 -0.279332 0
M  V30 4411 C 429.579 -1.90557 -1.34945 0
M  V30 4412 C 430.56 -0.766738 -1.51839 0
M  V30 4413 O 431.745 -1.02434 -1.64988 0
M  V30 4414 C 428.875 -2.17193 -2.71006 0
M  V30 4415 C 427.829 -3.33021 -2.68851 0
M  V30 4416 C 427.155 -3.45123 -4.08405 0
M  V30 4417 C 428.455 -4.69578 -2.28678 0
M  V30 4418 H 430.149 -2.80188 -1.05522 0
M  V30 4419 H 427.695 -1.34811 -0.506173 0
M  V30 4420 H 429.648 -2.40581 -3.45975 0
M  V30 4421 H 428.372 -1.24355 -3.01999 0
M  V30 4422 H 427.031 -3.0959 -1.9634 0
M  V30 4423 H 426.679 -2.49762 -4.3661 0
M  V30 4424 H 426.379 -4.22995 -4.07859 0
M  V30 4425 H 427.903 -3.70796 -4.85121 0
M  V30 4426 H 429.317 -4.92553 -2.93368 0
M  V30 4427 H 427.714 -5.5032 -2.39306 0
M  V30 4428 H 428.784 -4.68828 -1.23807 0
M  V30 4429 N 430.127 0.543554 -1.4793 0
M  V30 4430 C 431.037 1.67657 -1.64098 0
M  V30 4431 C 432.053 1.65934 -0.523622 0
M  V30 4432 O 433.229 1.85133 -0.792943 0
M  V30 4433 C 430.294 3.04146 -1.66421 0
M  V30 4434 C 429.355 3.16831 -2.89684 0
M  V30 4435 C 428.588 4.46809 -2.91886 0
M  V30 4436 O 428.811 5.33095 -2.02895 0
M  V30 4437 O 427.745 4.63573 -3.83906 0
M  V30 4438 H 431.571 1.56957 -2.59997 0
M  V30 4439 H 429.156 0.715116 -1.31173 0
M  V30 4440 H 431.038 3.85346 -1.70548 0
M  V30 4441 H 429.713 3.152 -0.736923 0
M  V30 4442 H 428.62 2.34977 -2.91095 0
M  V30 4443 H 429.953 3.10687 -3.81752 0
M  V30 4444 N 431.605 1.3629 0.791371 0
M  V30 4445 C 432.835 1.33368 1.57786 0
M  V30 4446 C 433.243 -0.0875188 1.88997 0
M  V30 4447 O 432.586 -1.05427 1.50435 0
M  V30 4448 C 432.648 2.08802 2.92646 0
M  V30 4449 C 432.312 3.57903 2.84174 0
M  V30 4450 C 433.309 4.52191 2.56553 0
M  V30 4451 C 430.994 4.00762 3.02812 0
M  V30 4452 C 432.988 5.87315 2.47669 0
M  V30 4453 C 430.675 5.35977 2.93551 0
M  V30 4454 C 431.673 6.29066 2.66017 0
M  V30 4455 O 431.361 7.61798 2.56746 0
M  V30 4456 H 431.093 0.459166 0.496128 0
M  V30 4457 H 433.647 1.79952 0.990269 0
M  V30 4458 H 431.877 1.56878 3.53449 0
M  V30 4459 H 433.566 1.98762 3.53904 0
M  V30 4460 H 434.332 4.20393 2.41858 0
M  V30 4461 H 430.211 3.2868 3.2325 0
M  V30 4462 H 433.755 6.59943 2.26099 0
M  V30 4463 H 429.652 5.67384 3.07808 0
M  V30 4464 H 430.42 7.71898 2.72242 0
M  V30 4465 N 433.083 -1.0153 1.20538 0
M  V30 4466 C 434.329 -1.75408 1.01783 0
M  V30 4467 C 434.662 -1.88943 -0.448814 0
M  V30 4468 O 433.937 -1.4162 -1.33319 0
M  V30 4469 C 434.22 -3.17255 1.70356 0
M  V30 4470 C 434.073 -3.11508 3.24473 0
M  V30 4471 C 435.392 -4.15955 1.43769 0
M  V30 4472 H 432.511 -0.636713 0.371167 0
M  V30 4473 H 435.153 -1.18436 1.4857 0
M  V30 4474 H 433.303 -3.65898 1.30578 0
M  V30 4475 H 434.975 -2.70658 3.73553 0
M  V30 4476 H 433.218 -2.4887 3.55311 0
M  V30 4477 H 433.889 -4.11784 3.67611 0
M  V30 4478 H 436.365 -3.75973 1.7828 0
M  V30 4479 H 435.241 -5.13368 1.94279 0
M  V30 4480 H 435.502 -4.40586 0.365564 0
M  V30 4481 N 434.561 -1.01147 -1.20859 0
M  V30 4482 C 435.786 -0.716698 -1.94623 0
M  V30 4483 C 436.211 0.715415 -1.73964 0
M  V30 4484 O 435.569 1.49157 -1.03062 0
M  V30 4485 C 435.617 -1.0513 -3.44935 0
M  V30 4486 O 434.721 -0.160131 -4.12089 0
M  V30 4487 H 434.062 -0.266404 -0.608214 0
M  V30 4488 H 436.592 -1.35346 -1.53436 0
M  V30 4489 H 436.602 -1.00086 -3.95533 0
M  V30 4490 H 435.277 -2.09475 -3.59295 0
M  V30 4491 H 433.854 -0.267657 -3.71938 0
M  V30 4492 N 436.039 1.36541 -0.78704 0
M  V30 4493 C 437.002 2.28413 -0.189778 0
M  V30 4494 C 438.002 1.48719 0.611499 0
M  V30 4495 O 439.192 1.68737 0.432842 0
M  V30 4496 C 436.324 3.32824 0.737638 0
M  V30 4497 H 437.517 2.82743 -0.999831 0
M  V30 4498 H 435.07 1.46065 -0.556298 0
M  V30 4499 H 435.805 2.83646 1.57212 0
M  V30 4500 H 435.59 3.91752 0.165044 0
M  V30 4501 H 437.08 4.0144 1.15047 0
M  V30 4502 N 437.518 0.538854 1.48102 0
M  V30 4503 C 438.448 -0.207654 2.32575 0
M  V30 4504 C 439.429 -0.926559 1.4265 0
M  V30 4505 O 440.614 -0.91061 1.71527 0
M  V30 4506 C 437.744 -1.24957 3.24042 0
M  V30 4507 C 436.698 -0.648263 4.23062 0
M  V30 4508 C 436.024 -1.79348 5.03725 0
M  V30 4509 C 437.324 0.385897 5.20872 0
M  V30 4510 H 439.018 0.497534 2.95237 0
M  V30 4511 H 436.564 0.240715 1.41974 0
M  V30 4512 H 438.517 -1.77983 3.81969 0
M  V30 4513 H 437.241 -1.98446 2.59397 0
M  V30 4514 H 435.9 -0.139452 3.66335 0
M  V30 4515 H 435.548 -2.51696 4.35498 0
M  V30 4516 H 435.248 -1.39702 5.70751 0
M  V30 4517 H 436.772 -2.32735 5.64506 0
M  V30 4518 H 438.186 -0.057607 5.73271 0
M  V30 4519 H 436.583 0.700227 5.96001 0
M  V30 4520 H 437.653 1.28848 4.67468 0
M  V30 4521 N 438.996 -1.55193 0.274407 0
M  V30 4522 C 440.244 -1.99187 -0.341902 0
M  V30 4523 C 440.565 -1.16422 -1.56431 0
M  V30 4524 O 439.835 -0.253573 -1.94252 0
M  V30 4525 H 438.415 -0.735721 -0.129317 0
M  V30 4526 H 441.077 -1.91168 0.379578 0
M  V30 4527 H 440.173 -3.05629 -0.632253 0
M  V30 4528 N 440.474 -0.00167713 -1.576 0
M  V30 4529 C 441.404 0.988091 -2.11563 0
M  V30 4530 C 442.385 1.35736 -1.02517 0
M  V30 4531 O 443.57 1.44082 -1.30208 0
M  V30 4532 C 440.7 2.27941 -2.62031 0
M  V30 4533 C 439.654 2.0517 -3.75619 0
M  V30 4534 C 438.98 3.4033 -4.12407 0
M  V30 4535 C 440.28 1.41294 -5.02825 0
M  V30 4536 H 441.974 0.538771 -2.94513 0
M  V30 4537 H 439.52 0.257712 -1.41675 0
M  V30 4538 H 441.473 2.97539 -2.9841 0
M  V30 4539 H 440.197 2.74989 -1.76205 0
M  V30 4540 H 438.856 1.37998 -3.39635 0
M  V30 4541 H 438.504 3.85085 -3.23603 0
M  V30 4542 H 438.204 3.25909 -4.88935 0
M  V30 4543 H 439.728 4.1124 -4.51347 0
M  V30 4544 H 441.142 2.00851 -5.36965 0
M  V30 4545 H 439.539 1.37356 -5.84169 0
M  V30 4546 H 440.609 0.382362 -4.8339 0
M  V30 4547 N 441.952 1.55251 0.271103 0
M  V30 4548 C 442.9 1.89054 1.35504 0
M  V30 4549 C 443.894 0.767064 1.51038 0
M  V30 4550 O 445.1 0.951429 1.528 0
M  V30 4551 H 441.475 0.600072 0.45323 0
M  V30 4552 H 443.446 2.79598 1.04247 0
M  V30 4553 C 442.195 2.18068 2.70817 0
M  V30 4554 H 441.518 3.04005 2.59656 0
M  V30 4555 H 442.958 2.4564 3.45597 0
M  V30 4556 C 441.417 0.988901 3.2206 0
M  V30 4557 O 441.947 0.224501 4.01072 0
M  V30 4558 N 440.153 0.786085 2.79766 0
M  V30 4559 H 439.7 1.40937 2.15626 0
M  V30 4560 H 439.658 -0.00969349 3.14399 0
M  V30 4561 N 443.43 -0.535701 1.48216 0
M  V30 4562 C 444.378 -1.66179 1.62749 0
M  V30 4563 C 445.372 -1.62034 0.49409 0
M  V30 4564 O 446.578 -1.6696 0.672624 0
M  V30 4565 H 442.953 -0.550244 0.512578 0
M  V30 4566 H 444.924 -1.51063 2.57337 0
M  V30 4567 C 443.673 -3.04471 1.67907 0
M  V30 4568 H 442.996 -3.08351 2.54479 0
M  V30 4569 H 444.436 -3.82894 1.82121 0
M  V30 4570 C 442.895 -3.34314 0.416596 0
M  V30 4571 O 443.425 -3.98905 -0.473014 0
M  V30 4572 N 441.631 -2.89149 0.290038 0
M  V30 4573 H 441.178 -2.36764 1.01493 0
M  V30 4574 H 441.136 -3.09486 -0.55367 0
M  V30 4575 N 444.908 -1.36708 -0.784132 0
M  V30 4576 C 446.157 -1.30559 -1.53744 0
M  V30 4577 C 446.47 0.111374 -1.95283 0
M  V30 4578 O 447.676 0.29527 -2.6989 0
M  V30 4579 C 446.132 -2.29098 -2.77565 0
M  V30 4580 C 445.74 -3.76258 -2.43174 0
M  V30 4581 C 447.484 -2.31936 -3.55536 0
M  V30 4582 C 445.391 -4.6656 -3.63422 0
M  V30 4583 H 444.321 -0.48518 -0.577162 0
M  V30 4584 H 446.972 -1.62101 -0.859981 0
M  V30 4585 H 445.354 -1.90557 -3.47137 0
M  V30 4586 H 446.528 -4.23565 -1.81465 0
M  V30 4587 H 444.843 -3.76246 -1.78403 0
M  V30 4588 H 447.44 -2.9661 -4.44889 0
M  V30 4589 H 447.783 -1.3294 -3.94503 0
M  V30 4590 H 448.316 -2.6912 -2.92949 0
M  V30 4591 H 445.055 -5.66638 -3.29547 0
M  V30 4592 H 444.575 -4.23966 -4.24279 0
M  V30 4593 H 446.254 -4.8309 -4.30387 0
M  V30 4594 N 446.386 1.0089 -1.21074 0
M  V30 4595 C 447.349 2.0775 -0.968129 0
M  V30 4596 C 448.349 1.6069 0.0593445 0
M  V30 4597 O 449.539 1.73293 -0.177525 0
M  V30 4598 C 446.671 3.37794 -0.459108 0
M  V30 4599 H 447.864 2.30707 -1.9161 0
M  V30 4600 H 445.417 1.17807 -1.02719 0
M  V30 4601 H 446.152 3.20516 0.49397 0
M  V30 4602 H 445.937 3.7328 -1.20019 0
M  V30 4603 H 447.427 4.16454 -0.309099 0
M  V30 4604 N 447.864 1.01787 1.20321 0
M  V30 4605 C 448.774 0.598898 2.26827 0
M  V30 4606 C 449.79 -0.36418 1.70146 0
M  V30 4607 O 450.966 -0.224812 2.00141 0
M  V30 4608 C 448.031 -0.0549769 3.46656 0
M  V30 4609 C 447.092 0.954205 4.18561 0
M  V30 4610 C 446.325 0.331439 5.3267 0
M  V30 4611 O 446.548 -0.86851 5.63749 0
M  V30 4612 O 445.482 1.0488 5.92692 0
M  V30 4613 H 449.308 1.48562 2.64883 0
M  V30 4614 H 446.893 0.787434 1.26964 0
M  V30 4615 H 448.775 -0.420102 4.19301 0
M  V30 4616 H 447.45 -0.915876 3.10473 0
M  V30 4617 H 446.357 1.37072 3.48083 0
M  V30 4618 H 447.69 1.78511 4.58688 0
M  V30 4619 N 449.342 -1.36122 0.79427 0
M  V30 4620 C 450.572 -2.03067 0.380437 0
M  V30 4621 C 450.98 -1.60018 -1.00949 0
M  V30 4622 O 450.323 -0.787425 -1.65968 0
M  V30 4623 C 450.385 -3.57587 0.37034 0
M  V30 4624 C 450.049 -4.23855 1.70867 0
M  V30 4625 C 451.046 -4.46404 2.66496 0
M  V30 4626 C 448.731 -4.61229 1.9893 0
M  V30 4627 C 450.725 -5.05412 3.88378 0
M  V30 4628 C 448.412 -5.19953 3.21079 0
M  V30 4629 C 449.41 -5.41985 4.15621 0
M  V30 4630 O 449.098 -5.99475 5.35616 0
M  V30 4631 H 448.83 -0.658168 0.154243 0
M  V30 4632 H 451.384 -1.7498 1.0757 0
M  V30 4633 H 449.614 -3.84814 -0.381444 0
M  V30 4634 H 451.303 -4.05895 -0.0194894 0
M  V30 4635 H 452.069 -4.17921 2.46103 0
M  V30 4636 H 447.948 -4.43402 1.26158 0
M  V30 4637 H 451.492 -5.22524 4.62185 0
M  V30 4638 H 447.389 -5.47862 3.41347 0
M  V30 4639 H 448.157 -6.17937 5.36745 0
M  V30 4640 N 450.82 -0.546701 -1.47814 0
M  V30 4641 C 451.73 0.21026 -2.33656 0
M  V30 4642 C 452.746 0.922413 -1.47538 0
M  V30 4643 O 453.922 0.893652 -1.80488 0
M  V30 4644 C 450.987 1.23348 -3.24016 0
M  V30 4645 C 450.048 0.529883 -4.26017 0
M  V30 4646 C 449.281 1.50435 -5.12059 0
M  V30 4647 O 449.504 2.73837 -5.00369 0
M  V30 4648 O 448.438 1.03459 -5.92942 0
M  V30 4649 H 452.264 -0.493605 -2.99662 0
M  V30 4650 H 449.849 -0.307427 -1.46203 0
M  V30 4651 H 451.731 1.82438 -3.79861 0
M  V30 4652 H 450.406 1.91945 -2.60651 0
M  V30 4653 H 449.313 -0.101948 -3.73961 0
M  V30 4654 H 450.646 -0.11445 -4.92067 0
M  V30 4655 N 452.299 1.55045 -0.282633 0
M  V30 4656 C 453.231 2.2023 0.634924 0
M  V30 4657 C 454.244 1.18931 1.11172 0
M  V30 4658 O 455.433 1.4562 1.03233 0
M  V30 4659 C 452.533 2.82041 1.87899 0
M  V30 4660 C 451.706 4.091 1.54776 0
M  V30 4661 C 450.765 4.54887 2.64507 0
M  V30 4662 O 449.791 5.20496 2.30375 0
M  V30 4663 N 450.993 4.25659 3.94709 0
M  V30 4664 H 453.758 2.99601 0.0769811 0
M  V30 4665 H 451.319 1.61565 -0.104048 0
M  V30 4666 H 453.311 3.09613 2.60619 0
M  V30 4667 H 451.881 2.06618 2.3458 0
M  V30 4668 H 451.101 3.88736 0.654049 0
M  V30 4669 H 452.389 4.9187 1.30158 0
M  V30 4670 H 451.787 3.7306 4.25256 0
M  V30 4671 H 450.344 4.57984 4.63782 0
M  V30 4672 N 453.777 0.010035 1.57597 0
M  V30 4673 C 454.725 -0.996272 2.10184 0
M  V30 4674 C 455.719 -1.34942 1.02406 0
M  V30 4675 O 456.925 -1.33389 1.20861 0
M  V30 4676 H 453.3 -0.338982 0.671264 0
M  V30 4677 H 455.271 -0.527272 2.93705 0
M  V30 4678 C 454.02 -2.27599 2.62857 0
M  V30 4679 H 453.343 -2.01295 3.45428 0
M  V30 4680 H 454.783 -2.96265 3.0332 0
M  V30 4681 C 453.242 -2.99269 1.54725 0
M  V30 4682 O 453.772 -3.90644 0.93597 0
M  V30 4683 N 451.978 -2.61269 1.27228 0
M  V30 4684 H 451.525 -1.87043 1.77123 0
M  V30 4685 H 451.483 -3.09534 0.550999 0
M  V30 4686 N 455.255 -1.55392 -0.262866 0
M  V30 4687 C 456.185 -1.91978 -1.32917 0
M  V30 4688 C 457.166 -0.7828 -1.51017 0
M  V30 4689 O 458.351 -1.04178 -1.63892 0
M  V30 4690 C 455.481 -2.20055 -2.68687 0
M  V30 4691 C 454.435 -3.35854 -2.65304 0
M  V30 4692 C 453.761 -3.49435 -4.04721 0
M  V30 4693 C 455.061 -4.71977 -2.23685 0
M  V30 4694 H 456.755 -2.81292 -1.02544 0
M  V30 4695 H 454.301 -1.3534 -0.491846 0
M  V30 4696 H 456.254 -2.44237 -3.43404 0
M  V30 4697 H 454.978 -1.27551 -3.00663 0
M  V30 4698 H 453.637 -3.11655 -1.93045 0
M  V30 4699 H 453.285 -2.54379 -4.33936 0
M  V30 4700 H 452.985 -4.27297 -4.0335 0
M  V30 4701 H 454.509 -3.7592 -4.81161 0
M  V30 4702 H 455.923 -4.95637 -2.88127 0
M  V30 4703 H 454.32 -5.52828 -2.33456 0
M  V30 4704 H 455.39 -4.70115 -1.18827 0
M  V30 4705 N 456.733 0.527833 -1.48498 0
M  V30 4706 C 457.666 1.64892 -1.57753 0
M  V30 4707 C 458.644 1.5687 -0.427867 0
M  V30 4708 O 459.828 1.77311 -0.639764 0
M  V30 4709 C 456.955 3.03301 -1.50752 0
M  V30 4710 C 456.001 3.29675 -2.70586 0
M  V30 4711 S 456.834 3.15712 -4.32535 0
M  V30 4712 C 457.99 4.56564 -4.28136 0
M  V30 4713 H 458.223 1.56792 -2.52594 0
M  V30 4714 H 455.756 0.710959 -1.37057 0
M  V30 4715 H 457.714 3.83123 -1.474 0
M  V30 4716 H 456.375 3.08839 -0.572454 0
M  V30 4717 H 455.568 4.3065 -2.61833 0
M  V30 4718 H 455.17 2.57526 -2.71212 0
M  V30 4719 H 457.462 5.48126 -3.98201 0
M  V30 4720 H 458.405 4.70371 -5.29298 0
M  V30 4721 H 458.813 4.35987 -3.58574 0
M  V30 4722 N 458.211 1.37122 0.776871 0
M  V30 4723 C 459.161 1.28989 1.88005 0
M  V30 4724 C 460.145 0.178765 1.59904 0
M  V30 4725 O 461.337 0.412705 1.72121 0
M  V30 4726 C 458.466 1.09402 3.25402 0
M  V30 4727 C 457.552 2.25036 3.59471 0
M  V30 4728 N 457.943 3.50407 3.64759 0
M  V30 4729 C 456.241 2.17078 3.89607 0
M  V30 4730 C 456.942 4.26628 3.95428 0
M  V30 4731 N 455.918 3.55709 4.11062 0
M  V30 4732 H 459.72 2.2394 1.90337 0
M  V30 4733 H 457.234 1.30021 0.973052 0
M  V30 4734 H 459.231 1.01661 4.04315 0
M  V30 4735 H 457.891 0.153632 3.24336 0
M  V30 4736 H 458.902 3.8438 3.47091 0
M  V30 4737 H 455.579 1.31067 3.96393 0
M  V30 4738 H 456.969 5.35107 4.06338 0
M  V30 4739 N 459.689 -1.00246 1.21608 0
M  V30 4740 C 460.919 -1.77373 1.05935 0
M  V30 4741 C 461.327 -1.85059 -0.393686 0
M  V30 4742 O 460.67 -1.31289 -1.28487 0
M  V30 4743 C 460.732 -3.22705 1.58435 0
M  V30 4744 C 460.396 -3.38591 3.06929 0
M  V30 4745 C 461.393 -3.2667 4.04454 0
M  V30 4746 C 459.078 -3.6395 3.46187 0
M  V30 4747 C 461.072 -3.39877 5.39224 0
M  V30 4748 C 458.759 -3.768 4.81108 0
M  V30 4749 C 459.757 -3.6477 5.77436 0
M  V30 4750 O 459.445 -3.77206 7.09909 0
M  V30 4751 H 459.177 -0.56419 0.372378 0
M  V30 4752 H 461.731 -1.26971 1.61454 0
M  V30 4753 H 459.961 -3.74255 0.973147 0
M  V30 4754 H 461.65 -3.81515 1.38568 0
M  V30 4755 H 462.416 -3.06999 3.75468 0
M  V30 4756 H 458.295 -3.72395 2.71741 0
M  V30 4757 H 461.839 -3.30404 6.14393 0
M  V30 4758 H 457.736 -3.95975 5.09779 0
M  V30 4759 H 458.504 -3.94138 7.17355 0
M  V30 4760 N 461.167 -1.02423 -1.1978 0
M  V30 4761 C 462.13 -0.605703 -2.21052 0
M  V30 4762 C 463.13 0.328209 -1.57415 0
M  V30 4763 O 464.32 0.115853 -1.73814 0
M  V30 4764 C 461.452 0.114366 -3.40708 0
M  V30 4765 H 462.645 -1.5017 -2.59594 0
M  V30 4766 H 460.198 -0.814888 -1.33376 0
M  V30 4767 H 460.933 1.02492 -3.07678 0
M  V30 4768 H 460.718 -0.556641 -3.88129 0
M  V30 4769 H 462.208 0.394272 -4.15735 0
M  V30 4770 N 462.645 1.35699 -0.801477 0
M  V30 4771 C 463.575 2.32436 -0.222658 0
M  V30 4772 C 464.556 1.5723 0.649057 0
M  V30 4773 O 465.741 1.85324 0.580387 0
M  V30 4774 C 462.871 3.41469 0.633719 0
M  V30 4775 C 461.825 4.27774 -0.139083 0
M  V30 4776 C 461.151 5.28082 0.838666 0
M  V30 4777 C 462.451 5.04946 -1.33517 0
M  V30 4778 H 464.145 2.81094 -1.03086 0
M  V30 4779 H 461.691 1.35146 -0.497155 0
M  V30 4780 H 463.644 4.08143 1.04868 0
M  V30 4781 H 462.368 2.91408 1.47475 0
M  V30 4782 H 461.027 3.62673 -0.535156 0
M  V30 4783 H 460.675 4.7429 1.67506 0
M  V30 4784 H 460.375 5.86695 0.32594 0
M  V30 4785 H 461.899 5.97628 1.25194 0
M  V30 4786 H 463.313 5.64593 -0.995349 0
M  V30 4787 H 461.71 5.7303 -1.78202 0
M  V30 4788 H 462.78 4.35886 -2.12442 0
M  V30 4789 N 464.123 0.554532 1.47522 0
M  V30 4790 C 465.348 0.0322661 2.07375 0
M  V30 4791 C 465.773 -1.25079 1.40488 0
M  V30 4792 O 465.131 -1.74859 0.47896 0
M  V30 4793 C 465.179 -0.149397 3.6029 0
M  V30 4794 O 464.283 -1.21259 3.9417 0
M  V30 4795 H 463.624 0.0501228 0.662106 0
M  V30 4796 H 466.154 0.769452 1.8958 0
M  V30 4797 H 466.164 -0.364437 4.06369 0
M  V30 4798 H 464.839 0.787743 4.08372 0
M  V30 4799 H 463.416 -0.97825 3.5984 0
M  V30 4800 N 465.601 -1.54893 0.290851 0
M  V30 4801 C 466.533 -2.20564 -0.623236 0
M  V30 4802 C 467.546 -1.19519 -1.1054 0
M  V30 4803 O 468.735 -1.46165 -1.02459 0
M  V30 4804 C 465.835 -2.83033 -1.86401 0
M  V30 4805 C 465.008 -4.09916 -1.52604 0
M  V30 4806 C 464.067 -4.56284 -2.62091 0
M  V30 4807 O 463.093 -5.2171 -2.27612 0
M  V30 4808 N 464.295 -4.27746 -3.92446 0
M  V30 4809 H 467.06 -2.99638 -0.0610915 0
M  V30 4810 H 464.621 -1.61508 0.112615 0
M  V30 4811 H 466.613 -3.1099 -2.58973 0
M  V30 4812 H 465.183 -2.0786 -2.33481 0
M  V30 4813 H 464.403 -3.89078 -0.633424 0
M  V30 4814 H 465.691 -4.92554 -1.27547 0
M  V30 4815 H 465.089 -3.7531 -4.23272 0
M  V30 4816 H 463.646 -4.60437 -4.61347 0
M  V30 4817 N 467.08 -0.0183926 -1.57589 0
M  V30 4818 C 468.01 0.965596 -2.12599 0
M  V30 4819 C 468.991 1.34641 -1.0395 0
M  V30 4820 O 470.176 1.42693 -1.31729 0
M  V30 4821 C 467.306 2.25149 -2.64434 0
M  V30 4822 C 466.26 2.01175 -3.77773 0
M  V30 4823 C 465.586 3.35937 -4.15994 0
M  V30 4824 C 466.886 1.35953 -5.04296 0
M  V30 4825 H 468.58 0.507504 -2.95067 0
M  V30 4826 H 466.126 0.242671 -1.41941 0
M  V30 4827 H 468.079 2.94357 -3.01549 0
M  V30 4828 H 466.803 2.73105 -1.79112 0
M  V30 4829 H 465.462 1.34388 -3.4108 0
M  V30 4830 H 465.11 3.81631 -3.27669 0
M  V30 4831 H 464.81 3.20705 -4.92364 0
M  V30 4832 H 466.334 4.0643 -4.55683 0
M  V30 4833 H 467.748 1.95144 -5.39065 0
M  V30 4834 H 466.145 1.31152 -5.85593 0
M  V30 4835 H 467.215 0.331071 -4.83768 0
M  V30 4836 N 468.558 1.5553 0.254621 0
M  V30 4837 C 469.468 1.92789 1.33677 0
M  V30 4838 C 470.484 0.827356 1.53071 0
M  V30 4839 O 471.66 1.12807 1.66843 0
M  V30 4840 C 468.725 2.20827 2.67275 0
M  V30 4841 C 467.786 3.4427 2.5647 0
M  V30 4842 C 467.019 3.70961 3.83697 0
M  V30 4843 O 467.242 2.99852 4.85227 0
M  V30 4844 O 466.176 4.64491 3.82794 0
M  V30 4845 H 470.002 2.84945 1.05071 0
M  V30 4846 H 467.587 1.42312 0.454723 0
M  V30 4847 H 469.469 2.40204 3.46237 0
M  V30 4848 H 468.144 1.31851 2.9563 0
M  V30 4849 H 467.051 3.30209 1.75821 0
M  V30 4850 H 468.384 4.33524 2.33062 0
M  V30 4851 N 470.036 -0.519951 1.48776 0
M  V30 4852 C 471.261 -1.30447 1.6124 0
M  V30 4853 C 471.686 -1.86055 0.276591 0
M  V30 4854 O 471.044 -1.64915 -0.753183 0
M  V30 4855 C 471.092 -2.42406 2.66967 0
M  V30 4856 O 470.196 -3.45728 2.24824 0
M  V30 4857 H 469.537 -0.385924 0.540332 0
M  V30 4858 H 472.067 -0.624572 1.94834 0
M  V30 4859 H 472.077 -2.88447 2.88552 0
M  V30 4860 H 470.752 -2.01294 3.63941 0
M  V30 4861 H 469.329 -3.05737 2.13494 0
M  V30 4862 N 471.514 -1.37532 -0.769588 0
M  V30 4863 C 472.76 -1.33057 -1.53048 0
M  V30 4864 C 473.093 0.0841865 -1.94017 0
M  V30 4865 O 472.368 1.04198 -1.64235 0
M  V30 4866 C 472.651 -2.27166 -2.79406 0
M  V30 4867 C 472.504 -3.77429 -2.44677 0
M  V30 4868 C 473.823 -2.19683 -3.81349 0
M  V30 4869 H 470.942 -0.484655 -0.555228 0
M  V30 4870 H 473.584 -1.68251 -0.882702 0
M  V30 4871 H 471.734 -1.97283 -3.34682 0
M  V30 4872 H 473.406 -4.17918 -1.953 0
M  V30 4873 H 471.649 -3.95892 -1.77346 0
M  V30 4874 H 472.32 -4.38716 -3.35011 0
M  V30 4875 H 474.796 -2.46029 -3.35573 0
M  V30 4876 H 473.672 -2.87668 -4.67481 0
M  V30 4877 H 473.933 -1.19045 -4.25771 0
M  V30 4878 N 472.992 0.995999 -1.22138 0
M  V30 4879 C 474.403 1.54961 -1.04135 0
M  V30 4880 C 474.754 1.92159 0.396147 0
M  V30 4881 O 473.879 1.74435 1.28069 0
M  V30 4882 C 474.474 2.81581 -1.88408 0
M  V30 4883 C 473.033 3.33396 -1.74712 0
M  V30 4884 C 472.18 2.06509 -1.85066 0
M  V30 4885 H 475.131 0.817436 -1.36028 0
M  V30 4886 H 475.152 3.53822 -1.39966 0
M  V30 4887 H 474.664 2.54476 -2.93025 0
M  V30 4888 H 472.765 3.65416 -0.728159 0
M  V30 4889 H 472.878 4.04208 -2.57202 0
M  V30 4890 H 471.242 2.19925 -1.28472 0
M  V30 4891 H 472.025 1.81804 -2.91208 0
M  V30 4892 N 474.47 1.03057 1.19235 0
M  V30 4893 C 475.747 0.642608 1.84743 0
M  V30 4894 C 476.127 -0.878577 1.91948 0
M  V30 4895 O 475.475 -1.77597 1.43776 0
M  V30 4896 C 475.685 1.30665 3.23616 0
M  V30 4897 C 477.033 1.43098 3.9976 0
M  V30 4898 O 478.057 1.26396 3.3302 0
M  V30 4899 O 476.916 1.70223 5.19313 0
M  V30 4900 H 474.01 0.223573 0.796206 0
M  V30 4901 H 476.556 1.12883 1.26711 0
M  V30 4902 H 475.328 2.34544 3.13217 0
M  V30 4903 H 474.951 0.808405 3.89295 0
M  V30 4904 N 475.948 -1.35272 0.808662 0
M  V30 4905 C 476.878 -2.32315 0.234981 0
M  V30 4906 C 477.859 -1.57572 -0.64071 0
M  V30 4907 O 479.044 -1.8563 -0.570551 0
M  V30 4908 C 476.174 -3.41801 -0.615601 0
M  V30 4909 C 475.128 -4.27694 0.161767 0
M  V30 4910 C 474.454 -5.28519 -0.810649 0
M  V30 4911 C 475.754 -5.04231 1.36193 0
M  V30 4912 H 477.448 -2.80543 1.04575 0
M  V30 4913 H 474.994 -1.3488 0.504315 0
M  V30 4914 H 476.947 -4.08693 -1.02702 0
M  V30 4915 H 475.671 -2.92186 -1.45928 0
M  V30 4916 H 474.33 -3.62384 0.554382 0
M  V30 4917 H 473.978 -4.75171 -1.64988 0
M  V30 4918 H 473.678 -5.8686 -0.294822 0
M  V30 4919 H 475.202 -5.98283 -1.22023 0
M  V30 4920 H 476.616 -5.64058 1.02528 0
M  V30 4921 H 475.013 -5.72077 1.81239 0
M  V30 4922 H 476.083 -4.34753 2.14751 0
M  V30 4923 N 477.426 -0.562348 -1.47226 0
M  V30 4924 C 478.654 -0.0452275 -2.06851 0
M  V30 4925 C 479.069 1.25078 -1.41424 0
M  V30 4926 O 478.426 1.75156 -0.512513 0
M  V30 4927 C 478.477 0.148674 -3.61194 0
M  V30 4928 O 478.198 -1.09602 -4.24169 0
M  V30 4929 C 479.699 0.702488 -4.37699 0
M  V30 4930 H 476.919 -0.0481775 -0.669268 0
M  V30 4931 H 479.463 -0.777223 -1.89155 0
M  V30 4932 H 477.618 0.830817 -3.78386 0
M  V30 4933 H 478.032 -0.896982 -5.16773 0
M  V30 4934 H 479.506 0.78743 -5.46355 0
M  V30 4935 H 479.983 1.71493 -4.04335 0
M  V30 4936 H 480.589 0.0558772 -4.25263 0
M  V30 4937 N 478.904 1.54736 -0.299062 0
M  V30 4938 C 479.834 2.26409 0.571085 0
M  V30 4939 C 480.815 1.2629 1.13951 0
M  V30 4940 O 482 1.55059 1.16921 0
M  V30 4941 C 479.13 3.00338 1.74396 0
M  V30 4942 C 478.084 4.07588 1.30599 0
M  V30 4943 C 477.41 4.69222 2.56387 0
M  V30 4944 C 478.71 5.20455 0.438645 0
M  V30 4945 H 480.404 2.99388 -0.0266991 0
M  V30 4946 H 477.95 1.43993 -0.0142812 0
M  V30 4947 H 479.903 3.49198 2.35878 0
M  V30 4948 H 478.627 2.24934 2.36796 0
M  V30 4949 H 477.286 3.59575 0.71424 0
M  V30 4950 H 476.934 3.9046 3.17097 0
M  V30 4951 H 476.634 5.41653 2.27784 0
M  V30 4952 H 478.158 5.20844 3.18675 0
M  V30 4953 H 479.572 5.65221 0.959085 0
M  V30 4954 H 477.969 5.99594 0.246466 0
M  V30 4955 H 479.039 4.8192 -0.536738 0
M  V30 4956 N 480.382 0.0267497 1.57577 0
M  V30 4957 C 481.612 -0.6617 1.95717 0
M  V30 4958 C 482.02 -1.66331 0.901706 0
M  V30 4959 O 481.363 -1.83273 -0.125241 0
M  V30 4960 C 481.425 -1.42649 3.29987 0
M  V30 4961 C 481.089 -0.583482 4.5326 0
M  V30 4962 C 482.086 0.140221 5.19711 0
M  V30 4963 C 479.771 -0.521581 4.99585 0
M  V30 4964 C 481.765 0.914523 6.30805 0
M  V30 4965 C 479.452 0.256428 6.10562 0
M  V30 4966 C 480.45 0.973189 6.76031 0
M  V30 4967 O 480.138 1.73845 7.84878 0
M  V30 4968 H 479.87 -0.187483 0.649481 0
M  V30 4969 H 482.424 0.0820847 2.05236 0
M  V30 4970 H 480.654 -2.21536 3.16952 0
M  V30 4971 H 482.343 -2.00282 3.53047 0
M  V30 4972 H 483.109 0.101716 4.84893 0
M  V30 4973 H 478.988 -1.06904 4.48433 0
M  V30 4974 H 482.532 1.4745 6.81839 0
M  V30 4975 H 478.429 0.296657 6.44818 0
M  V30 4976 H 479.197 1.65797 8.01532 0
M  V30 4977 N 481.861 -1.55662 -0.24637 0
M  V30 4978 C 483.109 -1.77168 -0.972411 0
M  V30 4979 C 483.43 -0.590827 -1.85834 0
M  V30 4980 O 482.7 0.393365 -1.9191 0
M  V30 4981 H 481.28 -0.653405 -0.362038 0
M  V30 4982 H 483.942 -1.93101 -0.264189 0
M  V30 4983 H 483.038 -2.68335 -1.59382 0
M  V30 4984 N 483.339 0.512053 -1.4905 0
M  V30 4985 C 484.75 1.09376 -1.51307 0
M  V30 4986 C 485.101 1.94 -0.292971 0
M  V30 4987 O 484.226 2.07965 0.598277 0
M  V30 4988 C 484.821 1.99031 -2.74176 0
M  V30 4989 C 483.38 2.52385 -2.79247 0
M  V30 4990 C 482.527 1.29749 -2.45073 0
M  V30 4991 H 485.478 0.296467 -1.55906 0
M  V30 4992 H 485.499 2.83569 -2.53711 0
M  V30 4993 H 485.011 1.37412 -3.62959 0
M  V30 4994 H 483.112 3.17673 -1.94716 0
M  V30 4995 H 483.225 2.90293 -3.81139 0
M  V30 4996 H 481.589 1.61912 -1.96612 0
M  V30 4997 H 482.372 0.698555 -3.36118 0
M  V30 4998 N 484.817 1.37938 0.762283 0
M  V30 4999 C 485.749 1.30349 1.88525 0
M  V30 5000 C 486.762 0.217402 1.61342 0
M  V30 5001 O 487.951 0.474291 1.72084 0
M  V30 5002 C 485.051 0.994844 3.23969 0
M  V30 5003 C 484.224 2.18829 3.78725 0
M  V30 5004 C 483.283 1.84844 4.92665 0
M  V30 5005 O 482.309 2.57244 5.07754 0
M  V30 5006 N 483.511 0.798201 5.74986 0
M  V30 5007 H 486.276 2.27114 1.95549 0
M  V30 5008 H 483.837 1.31686 0.941825 0
M  V30 5009 H 485.829 0.748168 3.97724 0
M  V30 5010 H 484.399 0.115446 3.12387 0
M  V30 5011 H 483.619 2.59615 2.96637 0
M  V30 5012 H 484.907 2.98497 4.1204 0
M  V30 5013 H 484.305 0.197611 5.65355 0
M  V30 5014 H 482.862 0.611396 6.48926 0
M  V30 5015 N 486.295 -0.989507 1.22664 0
M  V30 5016 C 487.243 -2.10148 0.997035 0
M  V30 5017 C 488.237 -1.6929 -0.0609783 0
M  V30 5018 O 489.443 -1.79766 0.0917523 0
M  V30 5019 H 485.818 -0.687256 0.305259 0
M  V30 5020 H 487.789 -2.26685 1.94053 0
M  V30 5021 C 486.538 -3.4257 0.595085 0
M  V30 5022 H 485.861 -3.74453 1.40089 0
M  V30 5023 H 487.301 -4.21344 0.473869 0
M  V30 5024 C 485.76 -3.29638 -0.695725 0
M  V30 5025 O 486.29 -3.61709 -1.74727 0
M  V30 5026 N 484.496 -2.82814 -0.668173 0
M  V30 5027 H 484.043 -2.56914 0.18787 0
M  V30 5028 H 484.001 -2.74544 -1.5321 0
M  V30 5029 N 487.773 -1.03688 -1.18687 0
M  V30 5030 C 489.189 -0.755413 -1.4059 0
M  V30 5031 C 489.389 0.656659 -1.905 0
M  V30 5032 O 488.445 1.42144 -2.08689 0
M  V30 5033 C 489.758 -1.7983 -2.41001 0
M  V30 5034 C 491.306 -1.81877 -2.54735 0
M  V30 5035 C 491.781 -2.85148 -3.58406 0
M  V30 5036 N 493.272 -2.84015 -3.6591 0
M  V30 5037 C 494.007 -3.60573 -4.45841 0
M  V30 5038 N 493.503 -4.46871 -5.29413 0
M  V30 5039 N 495.296 -3.49079 -4.40568 0
M  V30 5040 H 487.447 -1.94818 -0.846148 0
M  V30 5041 H 489.71 -0.842727 -0.434184 0
M  V30 5042 H 489.416 -2.81097 -2.1137 0
M  V30 5043 H 489.29 -1.62727 -3.40294 0
M  V30 5044 H 491.677 -0.812836 -2.83685 0
M  V30 5045 H 491.758 -2.03057 -1.55568 0
M  V30 5046 H 491.402 -3.85918 -3.30197 0
M  V30 5047 H 491.332 -2.61224 -4.57241 0
M  V30 5048 H 493.823 -2.21431 -3.0623 0
M  V30 5049 H 494.136 -5.02007 -5.87545 0
M  V30 5050 H 492.481 -4.5094 -5.28846 0
M  V30 5051 H 495.672 -2.81066 -3.74325 0
M  V30 5052 H 495.845 -4.08994 -5.02621 0
M  V30 5053 N 489.251 1.34841 -0.815825 0
M  V30 5054 C 490.181 2.32187 -0.247298 0
M  V30 5055 C 491.162 1.5791 0.632344 0
M  V30 5056 O 492.347 1.8593 0.560698 0
M  V30 5057 C 489.477 3.42122 0.597466 0
M  V30 5058 C 488.431 4.27602 -0.184446 0
M  V30 5059 C 487.757 5.28942 0.782609 0
M  V30 5060 C 489.057 5.03502 -1.38865 0
M  V30 5061 H 490.751 2.79985 -1.06061 0
M  V30 5062 H 488.297 1.34611 -0.511461 0
M  V30 5063 H 490.25 4.09232 1.00533 0
M  V30 5064 H 488.974 2.92956 1.44376 0
M  V30 5065 H 487.633 3.62085 -0.573592 0
M  V30 5066 H 487.281 4.7604 1.62466 0
M  V30 5067 H 486.981 5.87008 0.263695 0
M  V30 5068 H 488.505 5.98922 1.18848 0
M  V30 5069 H 489.919 5.63506 -1.05518 0
M  V30 5070 H 488.316 5.71108 -1.8427 0
M  V30 5071 H 489.386 4.33608 -2.17054 0
M  V30 5072 N 490.729 0.570148 1.46925 0
M  V30 5073 C 491.977 0.0508523 2.02036 0
M  V30 5074 C 492.298 -1.30885 1.44548 0
M  V30 5075 O 491.568 -1.85647 0.625453 0
M  V30 5076 H 490.148 0.0158088 0.746833 0
M  V30 5077 H 492.81 0.743086 1.80178 0
M  V30 5078 H 491.906 -0.027575 3.12088 0
M  V30 5079 N 492.207 -1.54576 0.307264 0
M  V30 5080 C 493.453 -2.0056 -0.300612 0
M  V30 5081 C 493.786 -1.1953 -1.53057 0
M  V30 5082 O 493.061 -0.27337 -1.92569 0
M  V30 5083 C 493.344 -3.54167 -0.650987 0
M  V30 5084 C 493.197 -4.45933 0.588539 0
M  V30 5085 C 494.516 -4.14645 -1.47506 0
M  V30 5086 H 491.635 -0.729075 -0.107788 0
M  V30 5087 H 494.277 -1.85286 0.420606 0
M  V30 5088 H 492.427 -3.67313 -1.26544 0
M  V30 5089 H 494.099 -4.44683 1.22697 0
M  V30 5090 H 492.342 -4.16274 1.22058 0
M  V30 5091 H 493.013 -5.51189 0.299153 0
M  V30 5092 H 495.489 -4.04973 -0.955821 0
M  V30 5093 H 494.365 -5.22269 -1.68899 0
M  V30 5094 H 494.626 -3.66921 -2.4662 0
M  V30 5095 N 493.685 -0.035106 -1.57561 0
M  V30 5096 C 494.934 0.641604 -1.91223 0
M  V30 5097 C 495.247 1.72944 -0.913761 0
M  V30 5098 O 496.453 2.46321 -1.14185 0
M  V30 5099 C 494.909 1.19249 -3.3957 0
M  V30 5100 C 494.517 0.137616 -4.47789 0
M  V30 5101 C 496.261 1.84537 -3.82291 0
M  V30 5102 C 494.168 0.700478 -5.87237 0
M  V30 5103 H 493.098 0.243417 -0.713627 0
M  V30 5104 H 495.749 -0.101382 -1.8322 0
M  V30 5105 H 494.131 1.98728 -3.42525 0
M  V30 5106 H 495.305 -0.635153 -4.56402 0
M  V30 5107 H 493.62 -0.416855 -4.14308 0
M  V30 5108 H 496.217 2.27616 -4.83834 0
M  V30 5109 H 496.56 2.69054 -3.17672 0
M  V30 5110 H 497.093 1.11739 -3.81784 0
M  V30 5111 H 493.832 -0.106693 -6.55413 0
M  V30 5112 H 493.352 1.4416 -5.82218 0
M  V30 5113 H 495.031 1.18837 -6.35993 0
M  V30 5114 N 495.163 1.55791 0.238111 0
M  V30 5115 C 496.126 1.90239 1.27835 0
M  V30 5116 C 497.126 0.779552 1.4064 0
M  V30 5117 O 498.316 1.04747 1.3919 0
M  V30 5118 C 495.448 2.13859 2.65475 0
M  V30 5119 H 496.641 2.83262 0.985034 0
M  V30 5120 H 494.194 1.48818 0.477799 0
M  V30 5121 H 494.929 1.23334 2.99932 0
M  V30 5122 H 494.714 2.95643 2.57561 0
M  V30 5123 H 496.204 2.41664 3.40571 0
M  V30 5124 N 496.642 -0.504142 1.49319 0
M  V30 5125 C 497.889 -1.25846 1.58647 0
M  V30 5126 C 498.217 -1.92592 0.27177 0
M  V30 5127 O 497.472 -1.81167 -0.74007 0
M  V30 5128 C 497.771 -2.35021 2.69258 0
M  V30 5129 C 497.437 -1.85755 4.1086 0
M  V30 5130 C 496.099 -1.72038 4.49395 0
M  V30 5131 C 498.451 -1.48844 4.99495 0
M  V30 5132 C 495.779 -1.19783 5.74342 0
M  V30 5133 C 498.131 -0.980422 6.24956 0
M  V30 5134 C 496.795 -0.829622 6.62324 0
M  V30 5135 H 496.065 -0.460505 0.580531 0
M  V30 5136 H 498.712 -0.559716 1.83138 0
M  V30 5137 H 497.017 -3.10672 2.38726 0
M  V30 5138 H 498.714 -2.93083 2.73685 0
M  V30 5139 H 495.304 -1.9739 3.80441 0
M  V30 5140 H 499.488 -1.5829 4.70381 0
M  V30 5141 H 494.744 -1.06817 6.01997 0
M  V30 5142 H 498.918 -0.685608 6.93017 0
M  V30 5143 H 496.545 -0.42253 7.59025 0
M  V30 5144 N 498.12 -1.38341 -0.754957 0
M  V30 5145 C 499.068 -1.35573 -1.89005 0
M  V30 5146 C 500.062 -0.241824 -1.67665 0
M  V30 5147 O 501.268 -0.410785 -1.7525 0
M  V30 5148 H 497.643 -0.422898 -0.621821 0
M  V30 5149 H 499.614 -2.31359 -1.88455 0
M  V30 5150 C 498.363 -1.19631 -3.26471 0
M  V30 5151 H 497.686 -2.04605 -3.43477 0
M  V30 5152 H 499.126 -1.21748 -4.06144 0
M  V30 5153 C 497.585 0.0968705 -3.36761 0
M  V30 5154 O 498.115 1.07439 -3.87066 0
M  V30 5155 N 496.321 0.153242 -2.90196 0
M  V30 5156 H 495.868 -0.642908 -2.49448 0
M  V30 5157 H 495.826 1.01807 -2.9746 0
M  V30 5158 N 499.598 0.982988 -1.23187 0
M  V30 5159 C 500.528 2.09301 -1.03515 0
M  V30 5160 C 501.509 1.70035 0.0471136 0
M  V30 5161 O 502.694 1.93847 -0.117029 0
M  V30 5162 C 499.824 3.4167 -0.622791 0
M  V30 5163 C 498.778 3.94828 -1.65211 0
M  V30 5164 C 498.104 5.23362 -1.09527 0
M  V30 5165 C 499.404 4.2439 -3.04451 0
M  V30 5166 H 501.098 2.26016 -1.96359 0
M  V30 5167 H 498.644 1.08611 -0.945501 0
M  V30 5168 H 500.597 4.18746 -0.472233 0
M  V30 5169 H 499.321 3.24811 0.341329 0
M  V30 5170 H 497.98 3.19895 -1.79061 0
M  V30 5171 H 497.628 5.02852 -0.122211 0
M  V30 5172 H 497.328 5.59895 -1.783 0
M  V30 5173 H 498.852 6.03062 -0.956511 0
M  V30 5174 H 500.266 4.92225 -2.93917 0
M  V30 5175 H 498.663 4.72118 -3.70438 0
M  V30 5176 H 499.733 3.31765 -3.53638 0
M  V30 5177 N 501.076 1.04316 1.18135 0
M  V30 5178 C 502.324 0.746542 1.87806 0
M  V30 5179 C 502.645 -0.728082 1.80898 0
M  V30 5180 O 501.915 -1.52554 1.22899 0
M  V30 5181 H 500.495 0.273157 0.695265 0
M  V30 5182 H 503.157 1.32044 1.43354 0
M  V30 5183 H 502.253 1.05362 2.93778 0
M  V30 5184 N 502.554 -1.34406 0.822964 0
M  V30 5185 C 503.501 -2.29519 0.24284 0
M  V30 5186 C 504.471 -1.5359 -0.632397 0
M  V30 5187 O 505.656 -1.8196 -0.57403 0
M  V30 5188 C 502.796 -3.40032 -0.58925 0
M  V30 5189 C 501.909 -4.30899 0.308236 0
M  V30 5190 C 501.044 -5.28515 -0.533425 0
M  V30 5191 C 500.083 -6.1102 0.363444 0
M  V30 5192 N 499.22 -7.00725 -0.439147 0
M  V30 5193 H 504.06 -2.78537 1.05929 0
M  V30 5194 H 501.597 -1.3707 0.533872 0
M  V30 5195 H 503.555 -4.0279 -1.087 0
M  V30 5196 H 502.185 -2.92248 -1.37081 0
M  V30 5197 H 501.237 -3.69002 0.924203 0
M  V30 5198 H 502.549 -4.88717 0.997862 0
M  V30 5199 H 501.703 -5.96725 -1.09565 0
M  V30 5200 H 500.442 -4.71235 -1.25656 0
M  V30 5201 H 499.447 -5.41743 0.937812 0
M  V30 5202 H 500.672 -6.70381 1.08469 0
M  V30 5203 H 498.618 -6.45913 -1.14595 0
M  V30 5204 H 498.535 -7.55756 0.19209 0
M  V30 5205 H 499.803 -7.73263 -0.984124 0
M  V30 5206 N 504.032 -0.577932 -1.46621 0
M  V30 5207 C 504.982 0.178869 -2.27297 0
M  V30 5208 C 505.966 0.866279 -1.35589 0
M  V30 5209 O 507.158 0.761163 -1.59798 0
M  V30 5210 C 504.287 1.19499 -3.2183 0
M  V30 5211 C 503.373 0.50994 -4.21023 0
M  V30 5212 N 503.764 -0.43177 -5.03954 0
M  V30 5213 C 502.062 0.761287 -4.39455 0
M  V30 5214 C 502.763 -0.831693 -5.75724 0
M  V30 5215 N 501.739 -0.181897 -5.43296 0
M  V30 5216 H 505.541 -0.544859 -2.88805 0
M  V30 5217 H 503.055 -0.399373 -1.57413 0
M  V30 5218 H 505.052 1.75131 -3.78332 0
M  V30 5219 H 503.712 1.91959 -2.61881 0
M  V30 5220 H 504.723 -0.807045 -5.11573 0
M  V30 5221 H 501.4 1.47282 -3.90659 0
M  V30 5222 H 502.79 -1.6067 -6.52407 0
M  V30 5223 N 505.51 1.54411 -0.315457 0
M  V30 5224 C 506.46 2.20772 0.569549 0
M  V30 5225 C 507.444 1.18551 1.08787 0
M  V30 5226 O 508.636 1.44213 1.02624 0
M  V30 5227 C 505.765 2.96293 1.73394 0
M  V30 5228 C 504.851 4.05844 1.2309 0
M  V30 5229 N 505.242 5.03822 0.446927 0
M  V30 5230 C 503.54 4.19648 1.51035 0
M  V30 5231 C 504.241 5.8143 0.17725 0
M  V30 5232 N 503.217 5.38245 0.761118 0
M  V30 5233 H 507.019 2.93877 -0.0368076 0
M  V30 5234 H 504.533 1.61949 -0.120915 0
M  V30 5235 H 506.53 3.42313 2.37965 0
M  V30 5236 H 505.19 2.24708 2.34386 0
M  V30 5237 H 506.201 5.17821 0.0905027 0
M  V30 5238 H 502.878 3.59274 2.1267 0
M  V30 5239 H 504.268 6.70369 -0.45335 0
M  V30 5240 N 506.988 0.0434614 1.5754 0
M  V30 5241 C 507.951 -0.918696 2.09982 0
M  V30 5242 C 508.951 -1.24488 1.01781 0
M  V30 5243 O 510.141 -1.18284 1.27885 0
M  V30 5244 C 507.273 -2.23093 2.57764 0
M  V30 5245 H 508.466 -0.464229 2.96285 0
M  V30 5246 H 506.019 -0.204818 1.54952 0
M  V30 5247 H 506.754 -2.73137 1.74832 0
M  V30 5248 H 506.539 -2.00724 3.36827 0
M  V30 5249 H 508.029 -2.92028 2.98512 0
M  V30 5250 N 508.466 -1.55915 -0.229846 0
M  V30 5251 C 509.696 -1.82352 -0.971152 0
M  V30 5252 C 510.104 -0.619231 -1.7878 0
M  V30 5253 O 509.447 0.421597 -1.78797 0
M  V30 5254 C 509.509 -3.02399 -1.9441 0
M  V30 5255 C 509.173 -4.37739 -1.31277 0
M  V30 5256 C 510.17 -5.15074 -0.706757 0
M  V30 5257 C 507.855 -4.84454 -1.32702 0
M  V30 5258 C 509.849 -6.37281 -0.123413 0
M  V30 5259 C 507.536 -6.06605 -0.739831 0
M  V30 5260 C 508.534 -6.82858 -0.139071 0
M  V30 5261 O 508.222 -8.027 0.439007 0
M  V30 5262 H 507.954 -0.61035 -0.290601 0
M  V30 5263 H 510.508 -2.03839 -0.252746 0
M  V30 5264 H 508.738 -2.76709 -2.70128 0
M  V30 5265 H 510.427 -3.15779 -2.55026 0
M  V30 5266 H 511.193 -4.80093 -0.688131 0
M  V30 5267 H 507.072 -4.25081 -1.78402 0
M  V30 5268 H 510.616 -6.96741 0.346124 0
M  V30 5269 H 506.513 -6.4106 -0.755841 0
M  V30 5270 H 507.281 -8.17824 0.332521 0
M  V30 5271 N 509.944 0.496216 -1.49584 0
M  V30 5272 C 511.221 1.25755 -1.49816 0
M  V30 5273 C 511.601 2.09859 -0.228572 0
M  V30 5274 O 510.949 2.14449 0.788908 0
M  V30 5275 C 511.159 2.11017 -2.7798 0
M  V30 5276 C 512.507 2.70047 -3.27658 0
M  V30 5277 O 513.531 2.21281 -2.79129 0
M  V30 5278 O 512.39 3.58834 -4.1219 0
M  V30 5279 H 509.484 0.569322 -0.599834 0
M  V30 5280 H 512.03 0.510094 -1.61852 0
M  V30 5281 H 510.802 1.48879 -3.61871 0
M  V30 5282 H 510.425 2.92947 -2.68827 0
M  V30 5283 N 511.423 1.38739 0.74761 0
M  V30 5284 C 512.669 1.35475 1.50912 0
M  V30 5285 C 513.002 -0.0533093 1.94127 0
M  V30 5286 O 512.277 -1.01572 1.65871 0
M  V30 5287 C 512.56 2.31582 2.75757 0
M  V30 5288 C 512.413 3.81274 2.38642 0
M  V30 5289 C 513.732 2.25722 3.77806 0
M  V30 5290 H 510.851 0.493427 0.547447 0
M  V30 5291 H 513.493 1.69634 0.855823 0
M  V30 5292 H 511.643 2.02582 3.31501 0
M  V30 5293 H 513.315 4.20972 1.88626 0
M  V30 5294 H 511.558 3.98664 1.71025 0
M  V30 5295 H 512.229 4.4399 3.27989 0
M  V30 5296 H 514.705 2.51336 3.31616 0
M  V30 5297 H 513.581 2.95069 4.62845 0
M  V30 5298 H 513.842 1.25803 4.23823 0
M  V30 5299 N 512.901 -0.976442 1.23707 0
M  V30 5300 C 514.149 -1.71487 1.06942 0
M  V30 5301 C 514.47 -1.9098 -0.393897 0
M  V30 5302 O 513.74 -1.48128 -1.28198 0
M  V30 5303 H 512.32 -0.635425 0.392739 0
M  V30 5304 H 514.982 -1.17515 1.55487 0
M  V30 5305 H 514.078 -2.70286 1.56051 0
M  V30 5306 N 514.379 -1.04941 -1.1758 0
M  V30 5307 C 515.604 -0.778253 -1.92245 0
M  V30 5308 C 516.029 0.659707 -1.76152 0
M  V30 5309 O 515.387 1.45803 -1.07755 0
M  V30 5310 C 515.435 -1.16051 -3.41416 0
M  V30 5311 O 514.539 -0.291153 -4.11371 0
M  V30 5312 H 513.88 -0.285619 -0.599431 0
M  V30 5313 H 516.41 -1.40159 -1.49052 0
M  V30 5314 H 516.42 -1.12619 -3.92149 0
M  V30 5315 H 515.095 -2.208 -3.52449 0
M  V30 5316 H 513.672 -0.385851 -3.70898 0
M  V30 5317 N 515.857 1.33968 -0.830081 0
M  V30 5318 C 517.104 1.98063 -0.421566 0
M  V30 5319 C 517.432 1.65787 1.0171 0
M  V30 5320 O 516.687 0.925348 1.72441 0
M  V30 5321 C 516.986 3.52679 -0.57898 0
M  V30 5322 C 516.652 4.04884 -1.98443 0
M  V30 5323 C 515.314 4.18852 -2.36888 0
M  V30 5324 C 517.666 4.32879 -2.90285 0
M  V30 5325 C 514.994 4.58145 -3.66497 0
M  V30 5326 C 517.346 4.7362 -4.19364 0
M  V30 5327 C 516.01 4.85794 -4.57778 0
M  V30 5328 H 515.28 0.724765 -0.154262 0
M  V30 5329 H 517.927 1.59792 -1.05541 0
M  V30 5330 H 516.232 3.91556 0.138219 0
M  V30 5331 H 517.929 4.00261 -0.243317 0
M  V30 5332 H 514.519 3.9448 -1.67581 0
M  V30 5333 H 518.703 4.21619 -2.61823 0
M  V30 5334 H 513.959 4.65762 -3.96075 0
M  V30 5335 H 518.133 4.9424 -4.90612 0
M  V30 5336 H 515.76 5.15998 -5.58256 0
M  V30 5337 N 517.335 0.585699 1.46312 0
M  V30 5338 C 518.265 -0.133556 2.33118 0
M  V30 5339 C 519.246 -0.880707 1.45525 0
M  V30 5340 O 520.431 -0.855579 1.74337 0
M  V30 5341 C 517.561 -1.14585 3.27853 0
M  V30 5342 C 516.515 -0.513341 4.2491 0
M  V30 5343 C 515.841 -1.63231 5.09175 0
M  V30 5344 C 517.141 0.551413 5.19381 0
M  V30 5345 H 518.835 0.59121 2.93505 0
M  V30 5346 H 516.381 0.285761 1.41136 0
M  V30 5347 H 518.334 -1.65741 3.87438 0
M  V30 5348 H 517.058 -1.90093 2.65579 0
M  V30 5349 H 515.717 -0.0228349 3.66593 0
M  V30 5350 H 515.365 -2.37713 4.43285 0
M  V30 5351 H 515.065 -1.21473 5.74907 0
M  V30 5352 H 516.589 -2.14658 5.71624 0
M  V30 5353 H 518.003 0.124804 5.73164 0
M  V30 5354 H 516.4 0.889486 5.93471 0
M  V30 5355 H 517.47 1.43655 4.63132 0
M  V30 5356 N 518.813 -1.54241 0.323641 0
M  V30 5357 C 520.09 -1.92741 -0.333181 0
M  V30 5358 C 520.47 -1.25326 -1.69872 0
M  V30 5359 O 519.818 -0.396991 -2.25025 0
M  V30 5360 C 520.028 -3.46399 -0.425322 0
M  V30 5361 C 521.376 -4.19029 -0.68557 0
M  V30 5362 O 522.4 -3.52555 -0.50824 0
M  V30 5363 O 521.259 -5.36751 -1.02767 0
M  V30 5364 H 518.353 -0.804811 -0.190286 0
M  V30 5365 H 520.899 -1.65542 0.373361 0
M  V30 5366 H 519.671 -3.87643 0.533737 0
M  V30 5367 H 519.294 -3.79704 -1.17944 0
M  V30 5368 N 520.291 -0.0518155 -1.57515 0
M  V30 5369 C 521.239 0.940195 -2.12751 0
M  V30 5370 C 522.233 1.3218 -1.05948 0
M  V30 5371 O 523.439 1.30138 -1.24355 0
M  V30 5372 H 519.814 0.321066 -0.680015 0
M  V30 5373 H 521.785 0.449217 -2.94999 0
M  V30 5374 C 520.534 2.2055 -2.68799 0
M  V30 5375 H 519.857 1.92066 -3.50643 0
M  V30 5376 H 521.297 2.88119 -3.11068 0
M  V30 5377 C 519.756 2.95061 -1.62605 0
M  V30 5378 O 520.286 3.88025 -1.03921 0
M  V30 5379 N 518.492 2.57804 -1.34111 0
M  V30 5380 H 518.039 1.82281 -1.8202 0
M  V30 5381 H 517.997 3.07964 -0.632872 0
M  V30 5382 N 521.769 1.56035 0.221574 0
M  V30 5383 C 522.999 1.82864 0.961468 0
M  V30 5384 C 523.407 0.628703 1.78449 0
M  V30 5385 O 522.75 -0.412109 1.79018 0
M  V30 5386 C 522.812 3.03425 1.92804 0
M  V30 5387 C 522.476 4.38429 1.28954 0
M  V30 5388 C 523.473 5.15441 0.679431 0
M  V30 5389 C 521.158 4.85151 1.30131 0
M  V30 5390 C 523.152 6.37337 0.0896148 0
M  V30 5391 C 520.839 6.06989 0.707651 0
M  V30 5392 C 521.837 6.82923 0.102855 0
M  V30 5393 O 521.525 8.02456 -0.48157 0
M  V30 5394 H 521.257 0.611883 0.28736 0
M  V30 5395 H 523.811 2.0397 0.241932 0
M  V30 5396 H 522.041 2.78138 2.68656 0
M  V30 5397 H 523.73 3.17127 2.53348 0
M  V30 5398 H 524.496 4.80452 0.662661 0
M  V30 5399 H 520.375 4.26021 1.76145 0
M  V30 5400 H 523.919 6.96547 -0.383069 0
M  V30 5401 H 519.816 6.41451 0.721834 0
M  V30 5402 H 520.584 8.17636 -0.375887 0
M  V30 5403 N 523.247 -0.488276 1.49845 0
M  V30 5404 C 524.495 -1.23911 1.59657 0
M  V30 5405 C 524.816 -1.92816 0.291005 0
M  V30 5406 O 524.086 -1.83328 -0.690485 0
M  V30 5407 H 522.666 -0.460357 0.588286 0
M  V30 5408 H 525.328 -0.564794 1.86537 0
M  V30 5409 H 524.424 -1.99625 2.39909 0
M  V30 5410 N 524.725 -1.39134 -0.740242 0
M  V30 5411 C 525.974 -1.35384 -1.49512 0
M  V30 5412 C 526.287 0.04919 -1.95538 0
M  V30 5413 O 527.493 0.209257 -2.70692 0
M  V30 5414 C 525.949 -2.37812 -2.70136 0
M  V30 5415 C 525.557 -3.83804 -2.31081 0
M  V30 5416 C 527.301 -2.4313 -3.47977 0
M  V30 5417 C 525.208 -4.77886 -3.48395 0
M  V30 5418 H 524.138 -0.503297 -0.561434 0
M  V30 5419 H 526.789 -1.64754 -0.807974 0
M  V30 5420 H 525.171 -2.01505 -3.40899 0
M  V30 5421 H 526.345 -4.29123 -1.67898 0
M  V30 5422 H 524.66 -3.81732 -1.66343 0
M  V30 5423 H 527.257 -3.10614 -4.35228 0
M  V30 5424 H 527.6 -1.45423 -3.90074 0
M  V30 5425 H 528.133 -2.78304 -2.84239 0
M  V30 5426 H 524.872 -5.76836 -3.11353 0
M  V30 5427 H 524.392 -4.3725 -4.10576 0
M  V30 5428 H 526.071 -4.96538 -4.148 0
M  V30 5429 N 526.204 0.969867 -1.24223 0
M  V30 5430 C 527.167 2.04564 -1.03373 0
M  V30 5431 C 528.167 1.60798 0.00819206 0
M  V30 5432 O 529.357 1.72641 -0.232567 0
M  V30 5433 C 526.489 3.36163 -0.566343 0
M  V30 5434 H 527.682 2.24494 -1.98853 0
M  V30 5435 H 525.235 1.1448 -1.06415 0
M  V30 5436 H 525.97 3.21925 0.391751 0
M  V30 5437 H 525.755 3.69273 -1.31834 0
M  V30 5438 H 527.245 4.1526 -0.441435 0
M  V30 5439 N 527.682 1.05563 1.17022 0
M  V30 5440 C 528.928 0.769074 1.87652 0
M  V30 5441 C 529.261 -0.702326 1.81055 0
M  V30 5442 O 528.536 -1.5139 1.22112 0
M  V30 5443 C 528.819 1.25492 3.37526 0
M  V30 5444 C 528.672 2.78953 3.52853 0
M  V30 5445 C 529.991 0.856919 4.31677 0
M  V30 5446 H 527.11 0.280854 0.681388 0
M  V30 5447 H 529.752 1.31027 1.37593 0
M  V30 5448 H 527.902 0.794516 3.80289 0
M  V30 5449 H 529.574 3.33146 3.19079 0
M  V30 5450 H 527.817 3.18046 2.95007 0
M  V30 5451 H 528.488 3.08011 4.58076 0
M  V30 5452 H 530.964 1.25334 3.96775 0
M  V30 5453 H 529.84 1.22443 5.35069 0
M  V30 5454 H 530.101 -0.238787 4.41455 0
M  V30 5455 N 529.16 -1.33526 0.837174 0
M  V30 5456 C 530.576 -1.50727 0.524743 0
M  V30 5457 C 530.776 -1.77792 -0.948279 0
M  V30 5458 O 529.832 -1.83719 -1.73216 0
M  V30 5459 C 531.145 -2.66299 1.39661 0
M  V30 5460 C 532.693 -2.80183 1.39521 0
M  V30 5461 C 533.168 -3.98815 2.25189 0
M  V30 5462 N 534.659 -4.06047 2.2289 0
M  V30 5463 C 535.394 -4.97032 2.85915 0
M  V30 5464 N 534.89 -5.93143 3.57985 0
M  V30 5465 N 536.683 -4.90015 2.75394 0
M  V30 5466 H 528.834 -1.1422 1.79074 0
M  V30 5467 H 531.097 -0.561399 0.763894 0
M  V30 5468 H 530.803 -2.52974 2.4433 0
M  V30 5469 H 530.677 -3.61663 1.07145 0
M  V30 5470 H 533.064 -2.92942 0.356253 0
M  V30 5471 H 533.145 -1.85586 1.76044 0
M  V30 5472 H 532.789 -3.86817 3.29143 0
M  V30 5473 H 532.719 -4.92654 1.86009 0
M  V30 5474 H 535.21 -3.37262 1.70478 0
M  V30 5475 H 535.523 -6.59227 4.03286 0
M  V30 5476 H 533.868 -5.93223 3.62093 0
M  V30 5477 H 537.059 -4.13894 2.18654 0
M  V30 5478 H 537.232 -5.60724 3.24796 0
M  V30 5479 N 530.638 -0.59345 -1.46 0
M  V30 5480 C 531.866 -0.0890934 -2.06708 0
M  V30 5481 C 532.281 1.2205 -1.44046 0
M  V30 5482 O 531.638 1.74029 -0.549551 0
M  V30 5483 C 531.689 0.0720263 -3.61428 0
M  V30 5484 O 531.41 -1.18574 -4.21748 0
M  V30 5485 C 532.911 0.609487 -4.3909 0
M  V30 5486 H 530.131 -0.0623628 -0.668096 0
M  V30 5487 H 532.675 -0.817171 -1.87464 0
M  V30 5488 H 530.83 0.750369 -3.80063 0
M  V30 5489 H 531.244 -1.0064 -5.14754 0
M  V30 5490 H 532.718 0.671363 -5.47902 0
M  V30 5491 H 533.195 1.62878 -4.07882 0
M  V30 5492 H 533.801 -0.03434 -4.25286 0
M  V30 5493 N 532.116 1.54067 -0.331816 0
M  V30 5494 C 533.364 2.00319 0.267739 0
M  V30 5495 C 533.685 1.22148 1.52003 0
M  V30 5496 O 532.955 0.325494 1.93177 0
M  V30 5497 H 531.535 0.740014 0.101922 0
M  V30 5498 H 534.197 1.89628 -0.450267 0
M  V30 5499 H 533.293 3.07765 0.518385 0
M  V30 5500 N 533.594 0.0601682 1.57485 0
M  V30 5501 C 534.544 -0.920969 2.08572 0
M  V30 5502 C 535.528 -1.26617 0.992827 0
M  V30 5503 O 536.72 -1.24708 1.25606 0
M  V30 5504 C 533.849 -2.19267 2.64153 0
M  V30 5505 C 532.935 -1.87447 3.80427 0
M  V30 5506 N 533.326 -1.26025 4.89848 0
M  V30 5507 C 531.624 -2.17265 3.89502 0
M  V30 5508 C 532.325 -1.12036 5.70809 0
M  V30 5509 N 531.301 -1.62624 5.18705 0
M  V30 5510 H 535.103 -0.441561 2.90564 0
M  V30 5511 H 532.617 -0.144043 1.6176 0
M  V30 5512 H 534.614 -2.90462 2.99061 0
M  V30 5513 H 533.274 -2.67806 1.83603 0
M  V30 5514 H 534.285 -0.931336 5.09457 0
M  V30 5515 H 530.962 -2.68262 3.19909 0
M  V30 5516 H 532.352 -0.642783 6.68818 0
M  V30 5517 N 535.072 -1.5615 -0.213296 0
M  V30 5518 C 536.022 -1.89485 -1.26804 0
M  V30 5519 C 537.006 -0.758713 -1.41889 0
M  V30 5520 O 538.198 -1.02127 -1.44565 0
M  V30 5521 C 535.327 -2.22219 -2.61675 0
M  V30 5522 C 534.413 -3.42245 -2.50458 0
M  V30 5523 N 534.804 -4.60645 -2.089 0
M  V30 5524 C 533.102 -3.46023 -2.81397 0
M  V30 5525 C 533.803 -5.42805 -2.09135 0
M  V30 5526 N 532.779 -4.82732 -2.49941 0
M  V30 5527 H 536.581 -2.78537 -0.937771 0
M  V30 5528 H 534.095 -1.56826 -0.421824 0
M  V30 5529 H 536.092 -2.44278 -3.37837 0
M  V30 5530 H 534.752 -1.34484 -2.95541 0
M  V30 5531 H 535.763 -4.85651 -1.79899 0
M  V30 5532 H 532.44 -2.68654 -3.1958 0
M  V30 5533 H 533.83 -6.47601 -1.79059 0
M  V30 5534 N 536.55 0.480323 -1.50102 0
M  V30 5535 C 537.79 1.24301 -1.62261 0
M  V30 5536 C 538.154 1.89452 -0.311758 0
M  V30 5537 O 539.355 2.67022 -0.308696 0
M  V30 5538 C 537.626 2.26588 -2.76392 0
M  V30 5539 S 539.185 3.11919 -3.08629 0
M  V30 5540 H 536.003 0.42215 -0.57211 0
M  V30 5541 H 538.605 0.541591 -1.87848 0
M  V30 5542 H 537.309 1.7729 -3.70131 0
M  V30 5543 H 536.84 3.01371 -2.52862 0
M  V30 5544 H 538.855 4.27598 -2.51742 0
M  V30 5545 N 538.028 1.39524 0.732853 0
M  V30 5546 C 538.991 1.38189 1.82857 0
M  V30 5547 C 539.991 0.278624 1.58368 0
M  V30 5548 O 541.181 0.536639 1.65728 0
M  V30 5549 C 538.313 1.15661 3.2068 0
M  V30 5550 H 539.506 2.35692 1.85444 0
M  V30 5551 H 537.059 1.2512 0.936728 0
M  V30 5552 H 537.794 0.188482 3.23752 0
M  V30 5553 H 537.579 1.95559 3.39852 0
M  V30 5554 H 539.069 1.17472 4.00737 0
M  V30 5555 N 539.506 -0.963266 1.24736 0
M  V30 5556 C 540.439 -2.05758 0.986852 0
M  V30 5557 C 541.417 -1.62398 -0.0809272 0
M  V30 5558 O 542.601 -1.88414 0.0569347 0
M  V30 5559 C 539.728 -3.35135 0.490095 0
M  V30 5560 C 538.774 -3.97451 1.54709 0
M  V30 5561 S 539.607 -4.34519 3.12976 0
M  V30 5562 C 540.763 -5.67026 2.65014 0
M  V30 5563 H 540.996 -2.27539 1.91346 0
M  V30 5564 H 538.529 -1.10176 1.08169 0
M  V30 5565 H 540.487 -4.09962 0.21012 0
M  V30 5566 H 539.148 -3.11335 -0.415873 0
M  V30 5567 H 538.341 -4.90704 1.15003 0
M  V30 5568 H 537.943 -3.29071 1.77731 0
M  V30 5569 H 540.235 -6.44748 2.08102 0
M  V30 5570 H 541.178 -6.11594 3.56873 0
M  V30 5571 H 541.586 -5.25847 2.05294 0
M  V30 5572 N 540.985 -1.06182 -1.16461 0
M  V30 5573 C 542.396 -0.802426 -1.68576 0
M  V30 5574 C 542.747 0.67412 -1.84255 0
M  V30 5575 O 541.872 1.52303 -1.5373 0
M  V30 5576 C 542.467 -1.45002 -3.06202 0
M  V30 5577 C 541.026 -1.23843 -3.55443 0
M  V30 5578 C 540.173 -1.52724 -2.31454 0
M  V30 5579 H 543.124 -1.22545 -1.00839 0
M  V30 5580 H 543.145 -0.864731 -3.70544 0
M  V30 5581 H 542.657 -2.52466 -2.94759 0
M  V30 5582 H 540.758 -0.183487 -3.72148 0
M  V30 5583 H 540.871 -1.95036 -4.37604 0
M  V30 5584 H 539.235 -0.947726 -2.36411 0
M  V30 5585 H 540.018 -2.61343 -2.22609 0
M  V30 5586 N 542.463 1.3308 -0.844243 0
M  V30 5587 C 543.393 2.3161 -0.296493 0
M  V30 5588 C 544.374 1.59215 0.598707 0
M  V30 5589 O 545.559 1.87077 0.521134 0
M  V30 5590 C 542.689 3.43313 0.524762 0
M  V30 5591 C 541.643 4.27115 -0.275106 0
M  V30 5592 C 540.969 5.30483 0.670236 0
M  V30 5593 C 542.269 5.00443 -1.49514 0
M  V30 5594 H 543.963 2.77672 -1.11976 0
M  V30 5595 H 541.509 1.33496 -0.539899 0
M  V30 5596 H 543.462 4.11273 0.918298 0
M  V30 5597 H 542.186 2.95952 1.3813 0
M  V30 5598 H 540.845 3.60787 -0.650267 0
M  V30 5599 H 540.493 4.79379 1.52332 0
M  V30 5600 H 540.193 5.87435 0.139123 0
M  V30 5601 H 541.717 6.01308 1.06117 0
M  V30 5602 H 543.131 5.61141 -1.17447 0
M  V30 5603 H 541.528 5.67071 -1.96343 0
M  V30 5604 H 542.598 4.28906 -2.26202 0
M  V30 5605 N 543.941 0.601185 1.45683 0
M  V30 5606 C 544.874 -0.17013 2.27565 0
M  V30 5607 C 545.852 -0.879661 1.36751 0
M  V30 5608 O 547.036 -0.889827 1.66176 0
M  V30 5609 C 544.163 -1.24568 3.14961 0
M  V30 5610 C 543.209 -0.639978 4.21671 0
M  V30 5611 S 544.042 0.547275 5.32696 0
M  V30 5612 C 545.198 -0.529019 6.2366 0
M  V30 5613 H 545.431 0.524583 2.92635 0
M  V30 5614 H 542.964 0.388537 1.49431 0
M  V30 5615 H 544.922 -1.86138 3.65873 0
M  V30 5616 H 543.583 -1.91243 2.49169 0
M  V30 5617 H 542.776 -1.44903 4.8272 0
M  V30 5618 H 542.378 -0.0995558 3.73867 0
M  V30 5619 H 544.67 -1.40981 6.62669 0
M  V30 5620 H 545.613 0.0451599 7.08086 0
M  V30 5621 H 546.021 -0.84147 5.58193 0
M  V30 5622 N 545.419 -1.53889 0.339982 0
M  V30 5623 C 546.382 -2.23547 -0.50592 0
M  V30 5624 C 547.382 -1.23445 -1.03044 0
M  V30 5625 O 548.572 -1.47909 -0.920253 0
M  V30 5626 C 545.704 -2.95234 -1.7044 0
M  V30 5627 H 546.897 -2.99722 0.103247 0
M  V30 5628 H 544.45 -1.56033 0.0912804 0
M  V30 5629 H 545.185 -2.23236 -2.35236 0
M  V30 5630 H 544.97 -3.68654 -1.33553 0
M  V30 5631 H 546.46 -3.48258 -2.30447 0
M  V30 5632 N 546.897 -0.0685191 -1.57451 0
M  V30 5633 C 548.127 0.609577 -1.97402 0
M  V30 5634 C 548.535 1.63882 -0.945489 0
M  V30 5635 O 547.878 1.8354 0.0766052 0
M  V30 5636 C 547.94 1.3385 -3.33653 0
M  V30 5637 C 547.604 0.463103 -4.54648 0
M  V30 5638 C 548.601 -0.277964 -5.19156 0
M  V30 5639 C 546.286 0.388941 -5.00792 0
M  V30 5640 C 548.28 -1.08145 -6.28159 0
M  V30 5641 C 545.967 -0.418217 -6.09667 0
M  V30 5642 C 546.965 -1.15208 -6.73213 0
M  V30 5643 O 546.653 -1.94594 -7.79993 0
M  V30 5644 H 546.385 0.170197 -0.654224 0
M  V30 5645 H 548.939 -0.13647 -2.04946 0
M  V30 5646 H 547.169 2.13055 -3.22714 0
M  V30 5647 H 548.858 1.90851 -3.58233 0
M  V30 5648 H 549.624 -0.230241 -4.84453 0
M  V30 5649 H 545.503 0.949769 -4.5111 0
M  V30 5650 H 549.047 -1.65476 -6.7769 0
M  V30 5651 H 544.944 -0.467515 -6.43805 0
M  V30 5652 H 545.712 -1.8699 -7.96854 0
M  V30 5653 N 548.375 1.56261 0.205012 0
M  V30 5654 C 549.605 1.83874 0.942018 0
M  V30 5655 C 550.013 0.647595 1.77772 0
M  V30 5656 O 549.356 -0.393098 1.79445 0
M  V30 5657 C 549.418 3.05453 1.89575 0
M  V30 5658 C 549.082 4.39772 1.24296 0
M  V30 5659 C 550.079 5.16133 0.624724 0
M  V30 5660 C 547.764 4.86504 1.24978 0
M  V30 5661 C 549.758 6.37396 0.0220117 0
M  V30 5662 C 547.445 6.07705 0.643232 0
M  V30 5663 C 548.443 6.82993 0.0304164 0
M  V30 5664 O 548.131 8.019 -0.566654 0
M  V30 5665 H 547.863 0.614896 0.280854 0
M  V30 5666 H 550.417 2.04215 0.220285 0
M  V30 5667 H 548.647 2.80972 2.65691 0
M  V30 5668 H 550.336 3.19797 2.4997 0
M  V30 5669 H 551.102 4.81127 0.611666 0
M  V30 5670 H 546.981 4.27865 1.71616 0
M  V30 5671 H 550.525 6.96102 -0.456926 0
M  V30 5672 H 546.422 6.42181 0.653759 0
M  V30 5673 H 547.19 8.17192 -0.462588 0
M  V30 5674 N 549.853 -0.472356 1.50355 0
M  V30 5675 C 550.801 -1.59126 1.69651 0
M  V30 5676 C 551.795 -1.59793 0.56237 0
M  V30 5677 O 553.001 -1.63957 0.742832 0
M  V30 5678 H 549.376 -0.528008 0.535454 0
M  V30 5679 H 551.347 -1.40013 2.63513 0
M  V30 5680 C 550.096 -2.97075 1.8067 0
M  V30 5681 H 549.419 -2.9728 2.67329 0
M  V30 5682 H 550.859 -3.74825 1.98197 0
M  V30 5683 C 549.318 -3.32247 0.558016 0
M  V30 5684 O 549.848 -4.00553 -0.303399 0
M  V30 5685 N 548.054 -2.87659 0.412415 0
M  V30 5686 H 547.601 -2.32246 1.11443 0
M  V30 5687 H 547.559 -3.11556 -0.421908 0
M  V30 5688 N 551.331 -1.39911 -0.725443 0
M  V30 5689 C 552.577 -1.37858 -1.48738 0
M  V30 5690 C 552.91 0.0224187 -1.94187 0
M  V30 5691 O 552.185 0.989204 -1.67466 0
M  V30 5692 C 552.468 -2.3594 -2.72038 0
M  V30 5693 C 552.321 -3.85023 -2.32546 0
M  V30 5694 C 553.64 -2.31704 -3.74167 0
M  V30 5695 H 550.759 -0.502074 -0.539528 0
M  V30 5696 H 553.401 -1.70974 -0.828728 0
M  V30 5697 H 551.551 -2.0783 -3.28236 0
M  V30 5698 H 553.223 -4.2392 -1.81905 0
M  V30 5699 H 551.466 -4.01334 -1.64661 0
M  V30 5700 H 552.137 -4.49152 -3.20884 0
M  V30 5701 H 554.613 -2.5658 -3.27576 0
M  V30 5702 H 553.489 -3.02395 -4.58092 0
M  V30 5703 H 553.75 -1.3253 -4.21768 0
M  V30 5704 N 552.809 0.956637 -1.25245 0
M  V30 5705 C 554.22 1.51569 -1.09012 0
M  V30 5706 C 554.571 1.93322 0.334813 0
M  V30 5707 O 553.696 1.78421 1.22454 0
M  V30 5708 C 554.291 2.75444 -1.97271 0
M  V30 5709 C 552.85 3.27669 -1.8523 0
M  V30 5710 C 551.997 2.00517 -1.91542 0
M  V30 5711 H 554.948 0.773746 -1.3856 0
M  V30 5712 H 554.969 3.4919 -1.51151 0
M  V30 5713 H 554.481 2.45024 -3.00973 0
M  V30 5714 H 552.582 3.62914 -0.844045 0
M  V30 5715 H 552.695 3.9582 -2.69932 0
M  V30 5716 H 551.059 2.15727 -1.35404 0
M  V30 5717 H 551.842 1.72448 -2.96844 0
M  V30 5718 N 554.287 1.06798 1.15896 0
M  V30 5719 C 555.25 0.687328 2.18651 0
M  V30 5720 C 556.25 -0.269559 1.58524 0
M  V30 5721 O 557.44 -0.0512627 1.74125 0
M  V30 5722 C 554.572 0.0121642 3.40898 0
M  V30 5723 H 555.765 1.59701 2.53842 0
M  V30 5724 H 553.318 0.863828 1.3026 0
M  V30 5725 H 554.053 -0.910025 3.1127 0
M  V30 5726 H 553.838 0.700309 3.85795 0
M  V30 5727 H 555.328 -0.239703 4.16911 0
M  V30 5728 N 555.766 -1.3263 0.851289 0
M  V30 5729 C 556.699 -2.26952 0.238318 0
M  V30 5730 C 557.677 -1.50243 -0.621757 0
M  V30 5731 O 558.861 -1.79378 -0.579298 0
M  V30 5732 C 555.988 -3.32124 -0.664178 0
M  V30 5733 C 555.034 -4.26325 0.122067 0
M  V30 5734 S 555.867 -5.14404 1.48824 0
M  V30 5735 C 557.023 -6.231 0.591372 0
M  V30 5736 H 557.256 -2.78594 1.03791 0
M  V30 5737 H 554.789 -1.4011 0.648731 0
M  V30 5738 H 556.747 -3.93197 -1.17924 0
M  V30 5739 H 555.408 -2.79273 -1.43755 0
M  V30 5740 H 554.601 -5.00821 -0.565181 0
M  V30 5741 H 554.203 -3.69652 0.568602 0
M  V30 5742 H 556.495 -6.77187 -0.205762 0
M  V30 5743 H 557.438 -6.95936 1.30687 0
M  V30 5744 H 557.846 -5.64252 0.167206 0
M  V30 5745 N 557.244 -0.608902 -1.45362 0
M  V30 5746 C 558.484 -0.10763 -2.04116 0
M  V30 5747 C 558.848 1.23883 -1.46686 0
M  V30 5748 O 560.049 1.83091 -1.96803 0
M  V30 5749 C 558.32 -0.0703351 -3.57331 0
M  V30 5750 S 559.879 0.369554 -4.37241 0
M  V30 5751 H 556.697 -0.0502123 -0.709225 0
M  V30 5752 H 559.299 -0.8073 -1.78053 0
M  V30 5753 H 558.003 -1.05379 -3.9664 0
M  V30 5754 H 557.534 0.651287 -3.87971 0
M  V30 5755 H 559.549 1.61878 -4.69052 0
M  V30 5756 N 558.722 1.53707 -0.348139 0
M  V30 5757 C 560.138 1.596 0.00361134 0
M  V30 5758 C 560.338 1.36394 1.4832 0
M  V30 5759 O 559.394 1.16046 2.24253 0
M  V30 5760 C 560.707 2.97512 -0.436682 0
M  V30 5761 C 562.255 3.10568 -0.389416 0
M  V30 5762 C 562.73 4.50866 -0.805249 0
M  V30 5763 N 564.221 4.56929 -0.759616 0
M  V30 5764 C 564.956 5.63643 -1.05327 0
M  V30 5765 N 564.452 6.78189 -1.41531 0
M  V30 5766 N 566.245 5.5354 -0.977207 0
M  V30 5767 H 558.396 1.67044 -1.31187 0
M  V30 5768 H 560.659 0.782559 -0.535075 0
M  V30 5769 H 560.365 3.19575 -1.46849 0
M  V30 5770 H 560.239 3.76742 0.185744 0
M  V30 5771 H 562.626 2.88226 0.633228 0
M  V30 5772 H 562.707 2.33387 -1.04711 0
M  V30 5773 H 562.351 4.73943 -1.82593 0
M  V30 5774 H 562.281 5.26452 -0.124989 0
M  V30 5775 H 564.772 3.74675 -0.49265 0
M  V30 5776 H 565.085 7.55541 -1.62411 0
M  V30 5777 H 563.43 6.79624 -1.45381 0
M  V30 5778 H 566.621 4.62932 -0.693675 0
M  V30 5779 H 566.794 6.36614 -1.2094 0
M  V30 5780 N 560.2 0.0768682 1.57412 0
M  V30 5781 C 561.163 -0.873949 2.11884 0
M  V30 5782 C 562.163 -1.22301 1.04398 0
M  V30 5783 O 563.353 -1.15545 1.30365 0
M  V30 5784 C 560.485 -2.17575 2.62438 0
M  V30 5785 H 561.678 -0.401278 2.97203 0
M  V30 5786 H 559.231 -0.171904 1.55352 0
M  V30 5787 H 559.966 -2.69368 1.80587 0
M  V30 5788 H 559.751 -1.93534 3.41009 0
M  V30 5789 H 561.241 -2.85631 3.04639 0
M  V30 5790 N 561.678 -1.56367 -0.196722 0
M  V30 5791 C 562.903 -1.84991 -0.937714 0
M  V30 5792 C 563.328 -0.660244 -1.76132 0
M  V30 5793 O 562.686 0.390967 -1.77034 0
M  V30 5794 C 562.734 -3.11828 -1.81096 0
M  V30 5795 O 561.838 -2.92266 -2.90955 0
M  V30 5796 H 561.179 -0.609193 -0.264159 0
M  V30 5797 H 563.709 -2.03595 -0.202529 0
M  V30 5798 H 563.719 -3.42579 -2.21594 0
M  V30 5799 H 562.394 -3.98037 -1.2058 0
M  V30 5800 H 560.971 -2.72809 -2.54224 0
M  V30 5801 N 563.156 0.464375 -1.50603 0
M  V30 5802 C 564.086 1.56944 -1.72889 0
M  V30 5803 C 565.067 1.59979 -0.577997 0
M  V30 5804 O 566.252 1.76138 -0.817855 0
M  V30 5805 C 563.382 2.95225 -1.8292 0
M  V30 5806 C 562.336 3.07056 -2.98162 0
M  V30 5807 C 561.662 4.47051 -2.93343 0
M  V30 5808 C 562.962 2.83648 -4.38567 0
M  V30 5809 H 564.656 1.38547 -2.65415 0
M  V30 5810 H 562.202 0.665082 -1.27721 0
M  V30 5811 H 564.155 3.72467 -1.97095 0
M  V30 5812 H 562.879 3.14793 -0.870209 0
M  V30 5813 H 561.538 2.32248 -2.83648 0
M  V30 5814 H 561.186 4.63547 -1.95276 0
M  V30 5815 H 560.886 4.55902 -3.70712 0
M  V30 5816 H 562.41 5.26304 -3.09575 0
M  V30 5817 H 563.824 3.50636 -4.53572 0
M  V30 5818 H 562.221 3.03937 -5.17438 0
M  V30 5819 H 563.291 1.79451 -4.50472 0
M  V30 5820 N 564.634 1.40294 0.718013 0
M  V30 5821 C 565.597 1.4012 1.81381 0
M  V30 5822 C 566.597 0.295405 1.58063 0
M  V30 5823 O 567.787 0.554187 1.6515 0
M  V30 5824 C 564.919 1.19056 3.19435 0
M  V30 5825 H 566.112 2.37645 1.82933 0
M  V30 5826 H 563.665 1.26107 0.923405 0
M  V30 5827 H 564.4 0.222809 3.23534 0
M  V30 5828 H 564.185 1.99152 3.37758 0
M  V30 5829 H 565.675 1.21716 3.99468 0
M  V30 5830 N 566.112 -0.949982 1.2575 0
M  V30 5831 C 567.045 -2.047 1.00862 0
M  V30 5832 C 568.023 -1.62475 -0.0636982 0
M  V30 5833 O 569.207 -1.88343 0.0769153 0
M  V30 5834 C 566.334 -3.34597 0.525613 0
M  V30 5835 C 565.38 -3.95788 1.58916 0
M  V30 5836 S 566.213 -4.31175 3.17567 0
M  V30 5837 C 567.369 -5.64183 2.71013 0
M  V30 5838 H 567.602 -2.25497 1.93749 0
M  V30 5839 H 565.135 -1.09022 1.09332 0
M  V30 5840 H 567.093 -4.09716 0.25359 0
M  V30 5841 H 565.754 -3.11758 -0.382828 0
M  V30 5842 H 564.947 -4.89457 1.20201 0
M  V30 5843 H 564.549 -3.27168 1.81211 0
M  V30 5844 H 566.841 -6.42504 2.14928 0
M  V30 5845 H 567.784 -6.07774 3.6334 0
M  V30 5846 H 568.192 -5.2364 2.1086 0
M  V30 5847 N 567.59 -1.07411 -1.15328 0
M  V30 5848 C 568.82 -0.817595 -1.89734 0
M  V30 5849 C 569.228 0.63297 -1.78298 0
M  V30 5850 O 568.571 1.44594 -1.13306 0
M  V30 5851 C 568.633 -1.14748 -3.40695 0
M  V30 5852 C 568.297 -2.59876 -3.75917 0
M  V30 5853 C 569.294 -3.58122 -3.76888 0
M  V30 5854 C 566.979 -2.95469 -4.06206 0
M  V30 5855 C 568.973 -4.89996 -4.07655 0
M  V30 5856 C 566.66 -4.2754 -4.36638 0
M  V30 5857 C 567.658 -5.24614 -4.37344 0
M  V30 5858 O 567.346 -6.54312 -4.67045 0
M  V30 5859 H 567.078 -0.295175 -0.608151 0
M  V30 5860 H 569.632 -1.43409 -1.47048 0
M  V30 5861 H 567.862 -0.47395 -3.83785 0
M  V30 5862 H 569.551 -0.873397 -3.96392 0
M  V30 5863 H 570.317 -3.31966 -3.53587 0
M  V30 5864 H 566.196 -2.20558 -4.04815 0
M  V30 5865 H 569.74 -5.65759 -4.08121 0
M  V30 5866 H 565.637 -4.53449 -4.59407 0
M  V30 5867 H 566.405 -6.59473 -4.84807 0
M  V30 5868 N 569.068 1.32177 -0.85831 0
M  V30 5869 C 570.016 2.30729 -0.294442 0
M  V30 5870 C 571.01 1.59009 0.584165 0
M  V30 5871 O 572.216 1.73713 0.471562 0
M  V30 5872 H 568.591 0.748097 -0.0765171 0
M  V30 5873 H 570.562 2.75774 -1.1398 0
M  V30 5874 C 569.311 3.44098 0.499208 0
M  V30 5875 H 568.634 3.99449 -0.167579 0
M  V30 5876 H 570.074 4.15202 0.859273 0
M  V30 5877 C 568.533 2.91684 1.68588 0
M  V30 5878 O 569.063 2.89481 2.78503 0
M  V30 5879 N 567.269 2.48036 1.51415 0
M  V30 5880 H 566.816 2.50027 0.620006 0
M  V30 5881 H 566.774 2.13322 2.30957 0
M  V30 5882 N 570.547 0.616602 1.45037 0
M  V30 5883 C 571.775 0.121968 2.0654 0
M  V30 5884 C 572.19 -1.19743 1.45969 0
M  V30 5885 O 571.547 -1.73133 0.577168 0
M  V30 5886 C 571.598 -0.0145171 3.61497 0
M  V30 5887 O 571.319 1.25269 4.19809 0
M  V30 5888 C 572.82 -0.539555 4.40004 0
M  V30 5889 H 570.04 0.0729837 0.667019 0
M  V30 5890 H 572.584 0.846891 1.8614 0
M  V30 5891 H 570.739 -0.689809 3.81209 0
M  V30 5892 H 571.153 1.08816 5.13088 0
M  V30 5893 H 572.627 -0.584112 5.48901 0
M  V30 5894 H 573.104 -1.56368 4.10421 0
M  V30 5895 H 573.71 0.101995 4.25178 0
M  V30 5896 N 572.025 -1.5352 0.356285 0
M  V30 5897 C 572.975 -2.22204 -0.510815 0
M  V30 5898 C 573.959 -1.21393 -1.05605 0
M  V30 5899 O 575.151 -1.46883 -0.987639 0
M  V30 5900 C 572.28 -3.00786 -1.65478 0
M  V30 5901 C 571.366 -4.08965 -1.12287 0
M  V30 5902 N 571.757 -5.04829 -0.313191 0
M  V30 5903 C 570.055 -4.23505 -1.39856 0
M  V30 5904 C 570.756 -5.81695 -0.0230322 0
M  V30 5905 N 569.732 -5.40074 -0.618144 0
M  V30 5906 H 573.534 -2.93676 0.114711 0
M  V30 5907 H 571.048 -1.61572 0.163811 0
M  V30 5908 H 573.045 -3.48502 -2.28806 0
M  V30 5909 H 571.705 -2.30843 -2.28345 0
M  V30 5910 H 572.716 -5.17879 0.0468202 0
M  V30 5911 H 569.393 -3.64786 -2.0307 0
M  V30 5912 H 570.783 -6.68931 0.630927 0
M  V30 5913 N 573.503 -0.0852151 -1.57369 0
M  V30 5914 C 574.413 0.891712 -2.16992 0
M  V30 5915 C 575.429 1.3174 -1.13669 0
M  V30 5916 O 576.605 1.38735 -1.45995 0
M  V30 5917 C 573.67 2.13635 -2.73059 0
M  V30 5918 C 572.731 1.7658 -3.91303 0
M  V30 5919 C 571.964 2.95111 -4.44686 0
M  V30 5920 O 572.187 4.09539 -3.97032 0
M  V30 5921 O 571.121 2.74149 -5.35841 0
M  V30 5922 H 574.947 0.414477 -3.00858 0
M  V30 5923 H 572.532 0.138598 -1.48756 0
M  V30 5924 H 574.414 2.86595 -3.08935 0
M  V30 5925 H 573.089 2.6043 -1.92244 0
M  V30 5926 H 571.996 1.00831 -3.60255 0
M  V30 5927 H 573.329 1.34557 -4.7345 0
M  V30 5928 N 574.981 1.5647 0.188427 0
M  V30 5929 C 575.891 1.98285 1.2538 0
M  V30 5930 C 576.907 0.891535 1.49424 0
M  V30 5931 O 578.083 1.19782 1.61908 0
M  V30 5932 C 575.148 2.31965 2.57669 0
M  V30 5933 C 574.209 3.54838 2.41638 0
M  V30 5934 C 573.442 3.86901 3.67618 0
M  V30 5935 O 573.665 3.20163 4.72072 0
M  V30 5936 O 572.599 4.80309 3.62749 0
M  V30 5937 H 576.425 2.89145 0.928912 0
M  V30 5938 H 574.01 1.44112 0.393955 0
M  V30 5939 H 575.892 2.54673 3.35737 0
M  V30 5940 H 574.567 1.44271 2.89771 0
M  V30 5941 H 573.474 3.37369 1.61658 0
M  V30 5942 H 574.807 4.43019 2.14465 0
M  V30 5943 N 576.459 -0.456382 1.50847 0
M  V30 5944 C 577.705 -1.20914 1.62811 0
M  V30 5945 C 578.038 -1.91301 0.334304 0
M  V30 5946 O 577.313 -1.82775 -0.665098 0
M  V30 5947 C 577.596 -2.24122 2.81853 0
M  V30 5948 C 577.449 -1.57944 4.21158 0
M  V30 5949 C 578.768 -3.25295 2.96431 0
M  V30 5950 H 575.887 -0.438233 0.592554 0
M  V30 5951 H 578.529 -0.50091 1.83278 0
M  V30 5952 H 576.679 -2.84524 2.64534 0
M  V30 5953 H 578.351 -1.01025 4.50102 0
M  V30 5954 H 576.594 -0.882185 4.24735 0
M  V30 5955 H 577.265 -2.33014 5.00408 0
M  V30 5956 H 579.741 -2.7493 3.12335 0
M  V30 5957 H 578.617 -3.94822 3.81322 0
M  V30 5958 H 578.878 -3.90286 2.07676 0
M  V30 5959 N 577.937 -1.40673 -0.710563 0
M  V30 5960 C 579.214 -1.29718 -1.46398 0
M  V30 5961 C 579.594 0.082177 -2.1094 0
M  V30 5962 O 578.942 1.09536 -2.00534 0
M  V30 5963 C 579.152 -2.43967 -2.49562 0
M  V30 5964 C 580.5 -2.84436 -3.15248 0
M  V30 5965 O 581.524 -2.43597 -2.59883 0
M  V30 5966 O 580.383 -3.55008 -4.1549 0
M  V30 5967 H 577.477 -0.509697 -0.651258 0
M  V30 5968 H 580.023 -1.52603 -0.742312 0
M  V30 5969 H 578.795 -3.36076 -2.0042 0
M  V30 5970 H 578.418 -2.22879 -3.29258 0
M  V30 5971 N 579.415 0.9433 -1.26252 0
M  V30 5972 C 580.831 1.21644 -1.03319 0
M  V30 5973 C 581.031 2.0003 0.242983 0
M  V30 5974 O 580.087 2.33838 0.952688 0
M  V30 5975 C 581.4 1.97978 -2.2633 0
M  V30 5976 C 582.948 2.10978 -2.31209 0
M  V30 5977 C 583.423 2.90713 -3.53907 0
M  V30 5978 N 584.914 2.98287 -3.54371 0
M  V30 5979 C 585.649 3.60406 -4.45976 0
M  V30 5980 N 585.145 4.24043 -5.47868 0
M  V30 5981 N 586.938 3.57658 -4.33633 0
M  V30 5982 H 579.089 0.419221 -2.08222 0
M  V30 5983 H 581.352 0.247995 -0.914988 0
M  V30 5984 H 581.058 1.47788 -3.19142 0
M  V30 5985 H 580.932 2.9865 -2.30408 0
M  V30 5986 H 583.319 2.6036 -1.38913 0
M  V30 5987 H 583.4 1.09575 -2.31143 0
M  V30 5988 H 583.044 2.42018 -4.46531 0
M  V30 5989 H 582.974 3.92367 -3.5122 0
M  V30 5990 H 585.465 2.53044 -2.80673 0
M  V30 5991 H 585.778 4.69334 -6.13959 0
M  V30 5992 H 584.123 4.22637 -5.51728 0
M  V30 5993 H 587.314 3.07134 -3.53251 0
M  V30 5994 H 587.487 4.05782 -5.05218 0
M  V30 5995 N 580.893 1.08022 1.14757 0
M  V30 5996 C 581.823 0.728248 2.21853 0
M  V30 5997 C 582.804 -0.287486 1.67653 0
M  V30 5998 O 583.989 -0.158727 1.9355 0
M  V30 5999 C 581.119 0.132549 3.47047 0
M  V30 6000 C 580.073 1.07619 4.14249 0
M  V30 6001 C 579.399 0.342907 5.33599 0
M  V30 6002 C 580.699 2.41268 4.63235 0
M  V30 6003 H 582.393 1.62365 2.51551 0
M  V30 6004 H 579.939 0.782125 1.20908 0
M  V30 6005 H 581.892 -0.125665 4.21213 0
M  V30 6006 H 580.616 -0.797971 3.16702 0
M  V30 6007 H 579.275 1.31944 3.42033 0
M  V30 6008 H 578.923 -0.59129 4.99513 0
M  V30 6009 H 578.623 0.971955 5.79506 0
M  V30 6010 H 580.147 0.0926538 6.1053 0
M  V30 6011 H 581.561 2.21232 5.28894 0
M  V30 6012 H 579.958 2.9983 5.19829 0
M  V30 6013 H 581.028 3.03079 3.78512 0
M  V30 6014 N 582.371 -1.3172 0.865308 0
M  V30 6015 C 583.617 -1.97168 0.474633 0
M  V30 6016 C 583.95 -1.68263 -0.969604 0
M  V30 6017 O 583.225 -0.976588 -1.68205 0
M  V30 6018 C 583.508 -3.52689 0.726808 0
M  V30 6019 C 583.361 -3.91185 2.22024 0
M  V30 6020 C 584.68 -4.39689 0.190201 0
M  V30 6021 H 581.799 -0.716185 0.17392 0
M  V30 6022 H 584.441 -1.55925 1.08569 0
M  V30 6023 H 582.591 -3.8795 0.206705 0
M  V30 6024 H 584.263 -3.66049 2.80724 0
M  V30 6025 H 582.506 -3.3996 2.69462 0
M  V30 6026 H 583.177 -4.99604 2.34735 0
M  V30 6027 H 585.653 -4.11225 0.635103 0
M  V30 6028 H 584.529 -5.47469 0.396132 0
M  V30 6029 H 584.79 -4.32683 -0.907625 0
M  V30 6030 N 583.85 -0.624285 -1.44708 0
M  V30 6031 C 585.077 -0.132919 -2.06473 0
M  V30 6032 C 585.493 1.18967 -1.46602 0
M  V30 6033 O 584.85 1.72824 -0.586341 0
M  V30 6034 C 584.901 -0.00465418 -3.615 0
M  V30 6035 O 584.622 -1.27494 -4.19138 0
M  V30 6036 C 586.123 0.516213 -4.40284 0
M  V30 6037 H 583.343 -0.0765201 -0.666623 0
M  V30 6038 H 585.887 -0.856751 -1.85688 0
M  V30 6039 H 584.042 0.669583 -3.8157 0
M  V30 6040 H 584.456 -1.11536 -5.12504 0
M  V30 6041 H 585.93 0.554994 -5.49203 0
M  V30 6042 H 586.407 1.5419 -4.11245 0
M  V30 6043 H 587.013 -0.124542 -4.25118 0
M  V30 6044 N 585.328 1.53329 -0.364422 0
M  V30 6045 C 586.576 2.00842 0.225189 0
M  V30 6046 C 586.897 1.25345 1.49378 0
M  V30 6047 O 586.167 0.366396 1.92443 0
M  V30 6048 H 584.747 0.742009 0.0862027 0
M  V30 6049 H 587.409 1.8863 -0.490389 0
M  V30 6050 H 586.505 3.08795 0.452987 0
M  V30 6051 N 586.806 0.0935595 1.57322 0
M  V30 6052 C 587.736 -0.863062 2.16964 0
M  V30 6053 C 588.717 -1.29528 1.10256 0
M  V30 6054 O 589.902 -1.36245 1.38387 0
M  V30 6055 C 587.032 -2.12276 2.74875 0
M  V30 6056 C 585.986 -1.82921 3.86942 0
M  V30 6057 C 585.312 -3.15707 4.31548 0
M  V30 6058 C 586.612 -1.11737 5.10208 0
M  V30 6059 H 588.306 -0.366145 2.97153 0
M  V30 6060 H 585.852 -0.174673 1.42937 0
M  V30 6061 H 587.805 -2.79634 3.1525 0
M  V30 6062 H 586.529 -2.64248 1.91938 0
M  V30 6063 H 585.188 -1.17961 3.47103 0
M  V30 6064 H 584.836 -3.65563 3.45504 0
M  V30 6065 H 584.536 -2.96849 5.07104 0
M  V30 6066 H 586.06 -3.84226 4.74555 0
M  V30 6067 H 587.474 -1.69203 5.47762 0
M  V30 6068 H 585.871 -1.03064 5.91183 0
M  V30 6069 H 586.941 -0.0998818 4.84797 0
M  V30 6070 N 588.284 -1.56567 -0.180126 0
M  V30 6071 C 589.216 -1.92275 -1.24751 0
M  V30 6072 C 590.229 -0.814922 -1.40936 0
M  V30 6073 O 591.418 -1.09336 -1.41095 0
M  V30 6074 C 588.518 -2.15265 -2.61752 0
M  V30 6075 C 587.691 -3.46467 -2.66981 0
M  V30 6076 C 586.75 -3.58391 -3.85283 0
M  V30 6077 O 585.776 -4.31086 -3.7169 0
M  V30 6078 N 586.978 -2.92587 -5.01371 0
M  V30 6079 H 589.743 -2.84435 -0.944302 0
M  V30 6080 H 587.304 -1.57617 -0.369952 0
M  V30 6081 H 589.296 -2.20515 -3.39345 0
M  V30 6082 H 587.866 -1.29533 -2.845 0
M  V30 6083 H 587.086 -3.52953 -1.75549 0
M  V30 6084 H 588.374 -4.32819 -2.67479 0
M  V30 6085 H 587.772 -2.3338 -5.15316 0
M  V30 6086 H 586.329 -3.03444 -5.76858 0
M  V30 6087 N 589.762 0.448376 -1.51087 0
M  V30 6088 C 591.178 0.783984 -1.39017 0
M  V30 6089 C 591.378 1.96087 -0.463904 0
M  V30 6090 O 590.434 2.52357 0.0850534 0
M  V30 6091 C 591.747 1.07471 -2.80839 0
M  V30 6092 C 593.295 1.17981 -2.89913 0
M  V30 6093 C 593.77 1.50354 -4.32617 0
M  V30 6094 N 595.261 1.57301 -4.35673 0
M  V30 6095 C 595.996 1.839 -5.4311 0
M  V30 6096 N 595.492 2.08365 -6.60724 0
M  V30 6097 N 597.285 1.8559 -5.30578 0
M  V30 6098 H 589.436 -0.326881 -2.0987 0
M  V30 6099 H 591.699 -0.0838006 -0.944289 0
M  V30 6100 H 591.405 0.282768 -3.50561 0
M  V30 6101 H 591.279 2.00519 -3.19487 0
M  V30 6102 H 593.666 1.9624 -2.20395 0
M  V30 6103 H 593.747 0.228603 -2.54776 0
M  V30 6104 H 593.391 0.726273 -5.0268 0
M  V30 6105 H 593.321 2.46663 -4.65258 0
M  V30 6106 H 595.812 1.40342 -3.50874 0
M  V30 6107 H 596.125 2.27999 -7.38401 0
M  V30 6108 H 594.47 2.0571 -6.63859 0
M  V30 6109 H 597.661 1.65989 -4.37682 0
M  V30 6110 H 597.834 2.05983 -6.1439 0
M  V30 6111 N 591.24 1.41047 0.703093 0
M  V30 6112 C 592.489 1.39301 1.4587 0
M  V30 6113 C 592.802 0.00267077 1.956 0
M  V30 6114 O 594.008 -0.137414 2.71152 0
M  V30 6115 C 592.464 2.44891 2.63735 0
M  V30 6116 C 592.072 3.89796 2.20824 0
M  V30 6117 C 593.816 2.5227 3.41409 0
M  V30 6118 C 591.723 4.86955 3.35602 0
M  V30 6119 H 590.653 0.518005 0.547893 0
M  V30 6120 H 593.304 1.66839 0.764009 0
M  V30 6121 H 591.686 2.10472 3.35436 0
M  V30 6122 H 592.86 4.33424 1.56461 0
M  V30 6123 H 591.175 3.86008 1.56163 0
M  V30 6124 H 593.772 3.22044 4.26839 0
M  V30 6125 H 594.115 1.55714 3.86081 0
M  V30 6126 H 594.648 2.85742 2.7676 0
M  V30 6127 H 591.387 5.84888 2.9595 0
M  V30 6128 H 590.907 4.47982 3.98839 0
M  V30 6129 H 592.586 5.07361 4.01489 0
M  V30 6130 N 592.718 -0.936591 1.26751 0
M  V30 6131 C 593.668 -2.0219 1.05371 0
M  V30 6132 C 594.652 -1.60893 -0.0154112 0
M  V30 6133 O 595.844 -1.75843 0.202085 0
M  V30 6134 C 592.973 -3.36222 0.693541 0
M  V30 6135 C 592.059 -3.8399 1.80035 0
M  V30 6136 N 592.45 -4.0436 3.03852 0
M  V30 6137 C 590.748 -4.12945 1.685 0
M  V30 6138 C 591.449 -4.44 3.75818 0
M  V30 6139 N 590.425 -4.50966 3.03531 0
M  V30 6140 H 594.227 -2.15958 1.99347 0
M  V30 6141 H 591.741 -1.12277 1.17335 0
M  V30 6142 H 593.738 -4.13625 0.521513 0
M  V30 6143 H 592.398 -3.23821 -0.238693 0
M  V30 6144 H 593.409 -3.9092 3.39709 0
M  V30 6145 H 590.086 -4.09308 0.822986 0
M  V30 6146 H 591.476 -4.67914 4.82189 0
M  V30 6147 N 594.196 -1.08629 -1.14182 0
M  V30 6148 C 595.612 -0.814363 -1.3726 0
M  V30 6149 C 595.812 0.575271 -1.93114 0
M  V30 6150 O 594.868 1.33165 -2.1453 0
M  V30 6151 C 596.181 -1.8989 -2.33157 0
M  V30 6152 C 597.729 -1.92518 -2.46791 0
M  V30 6153 C 598.204 -3.00092 -3.45989 0
M  V30 6154 N 599.695 -2.99279 -3.53534 0
M  V30 6155 C 600.43 -3.79158 -4.30147 0
M  V30 6156 N 599.926 -4.68923 -5.09983 0
M  V30 6157 N 601.719 -3.67451 -4.25366 0
M  V30 6158 H 593.87 -1.98232 -0.762758 0
M  V30 6159 H 596.133 -0.860383 -0.398051 0
M  V30 6160 H 595.839 -2.89809 -1.99257 0
M  V30 6161 H 595.713 -1.77013 -3.33086 0
M  V30 6162 H 598.1 -0.932425 -2.79982 0
M  V30 6163 H 598.181 -2.09473 -1.46816 0
M  V30 6164 H 597.825 -3.99575 -3.13532 0
M  V30 6165 H 597.755 -2.80382 -4.45751 0
M  V30 6166 H 600.246 -2.3422 -2.96563 0
M  V30 6167 H 600.559 -5.26475 -5.65724 0
M  V30 6168 H 598.904 -4.72964 -5.09244 0
M  V30 6169 H 602.095 -2.9669 -3.62067 0
M  V30 6170 H 602.268 -4.29944 -4.84822 0
M  V30 6171 N 595.674 1.31259 -0.872281 0
M  V30 6172 C 596.604 2.30929 -0.345554 0
M  V30 6173 C 597.585 1.60449 0.5648 0
M  V30 6174 O 598.77 1.8814 0.481335 0
M  V30 6175 C 595.9 3.44348 0.451823 0
M  V30 6176 C 594.854 4.26435 -0.365641 0
M  V30 6177 C 594.18 5.31785 0.557562 0
M  V30 6178 C 595.48 4.97159 -1.60095 0
M  V30 6179 H 597.174 2.75234 -1.17841 0
M  V30 6180 H 594.72 1.3232 -0.568094 0
M  V30 6181 H 596.673 4.13128 0.830854 0
M  V30 6182 H 595.397 2.98816 1.31821 0
M  V30 6183 H 594.056 3.59326 -0.726649 0
M  V30 6184 H 593.704 4.82502 1.4213 0
M  V30 6185 H 593.404 5.87598 0.0144878 0
M  V30 6186 H 594.928 6.03424 0.933387 0
M  V30 6187 H 596.342 5.58523 -1.29323 0
M  V30 6188 H 594.739 5.62779 -2.08327 0
M  V30 6189 H 595.809 4.24012 -2.35249 0
M  V30 6190 N 597.152 0.631951 1.44375 0
M  V30 6191 C 598.082 -0.0593243 2.33425 0
M  V30 6192 C 599.063 -0.833964 1.48253 0
M  V30 6193 O 600.248 -0.799682 1.76971 0
M  V30 6194 C 597.378 -1.04096 3.31333 0
M  V30 6195 C 596.332 -0.377899 4.26328 0
M  V30 6196 C 595.658 -1.4695 5.14111 0
M  V30 6197 C 596.958 0.716371 5.17364 0
M  V30 6198 H 598.652 0.684287 2.91475 0
M  V30 6199 H 596.198 0.330518 1.40156 0
M  V30 6200 H 598.151 -1.53331 3.92514 0
M  V30 6201 H 596.875 -1.81547 2.71493 0
M  V30 6202 H 595.534 0.0938054 3.6648 0
M  V30 6203 H 595.182 -2.2349 4.50623 0
M  V30 6204 H 594.882 -1.03121 5.78481 0
M  V30 6205 H 596.406 -1.96363 5.78164 0
M  V30 6206 H 597.82 0.307089 5.72477 0
M  V30 6207 H 596.217 1.07784 5.90341 0
M  V30 6208 H 597.287 1.58316 4.58327 0
M  V30 6209 N 598.631 -1.53133 0.372548 0
M  V30 6210 C 599.879 -2.00958 -0.214534 0
M  V30 6211 C 600.2 -1.26135 -1.48711 0
M  V30 6212 O 599.47 -0.376597 -1.92246 0
M  V30 6213 H 598.05 -0.742456 -0.0822664 0
M  V30 6214 H 600.712 -1.88367 0.500385 0
M  V30 6215 H 599.808 -3.09031 -0.436605 0
M  V30 6216 O 600.148 -0.242051 -1.59676 0
M  V30 6217 H 600.839 0.334494 -1.9079 0
M  V30 END ATOM
M  V30 BEGIN BOND
M  V30 END BOND
M  V30 END CTAB
M  END
$$$$
