drugbank_target|P25100 Alpha-1D adrenergic receptor (DB00211; DB00248; DB00298; DB00321; DB00346; DB00368; DB00388; DB00457; DB00458; DB00540; DB00575; DB00590; DB00622; DB00661; DB00668; DB00692; DB00696; DB00706; DB00723; DB00800; DB00908; DB00925; DB00935; DB01136; DB01142; DB01162; DB01186; DB01200; DB01403; DB04855; DB05469; DB05492; DB06144; DB06153; DB06207; DB06229; DB06262; DB06694; DB09202; DB11124)
 OpenBabel12092119373D

  0  0  0     0  0            999 V3000
M  V30 BEGIN CTAB
M  V30 COUNTS 8544 8645 0 0 0
M  V30 BEGIN ATOM
M  V30 1 H -0.908 1.98254 -0.117106 0
M  V30 2 N 0 1.576 0 0
M  V30 3 C 0.933 2.03868 1.02534 0
M  V30 4 C 1.911 0.928543 1.3348 0
M  V30 5 O 3.095 1.19667 1.45644 0
M  V30 6 C 0.222 2.43627 2.35294 0
M  V30 7 C -0.732 3.65373 2.2001 0
M  V30 8 S 0.101 5.13292 1.52614 0
M  V30 9 C 1.257 5.56322 2.86805 0
M  V30 10 H 1.49 2.90518 0.631377 0
M  V30 11 H -0.977 1.52953 0.210867 0
M  V30 12 H 0.981 2.67203 3.11629 0
M  V30 13 H -0.358 1.57376 2.7183 0
M  V30 14 H -1.165 3.90944 3.18086 0
M  V30 15 H -1.563 3.418 1.51819 0
M  V30 16 H 0.729 5.58782 3.83104 0
M  V30 17 H 1.672 6.56266 2.65933 0
M  V30 18 H 2.08 4.83886 2.90714 0
M  V30 19 N 1.4781 -0.272755 1.55222 0
M  V30 20 C 2.7061 -1.02255 1.79865 0
M  V30 21 C 3.1211 -1.79924 0.572088 0
M  V30 22 O 2.4781 -1.76638 -0.458842 0
M  V30 23 C 2.5291 -1.98094 3.02392 0
M  V30 24 O 2.2501 -1.23572 4.20311 0
M  V30 25 C 3.7511 -2.84884 3.39641 0
M  V30 26 H 0.9711 -0.302057 0.599168 0
M  V30 27 H 3.5151 -0.303465 2.02236 0
M  V30 28 H 1.6701 -2.65465 2.82147 0
M  V30 29 H 2.0841 -1.88172 4.89583 0
M  V30 30 H 3.5581 -3.47927 4.28545 0
M  V30 31 H 4.0351 -3.54665 2.59055 0
M  V30 32 H 4.6411 -2.23003 3.62146 0
M  V30 33 N 2.9562 -1.48159 -0.537278 0
M  V30 34 C 4.2032 -1.55804 -1.29349 0
M  V30 35 C 4.5312 -0.228802 -1.9315 0
M  V30 36 O 3.7862 0.780242 -1.79473 0
M  V30 37 C 4.0852 -2.63956 -2.40961 0
M  V30 38 C 3.7512 -4.0662 -1.94861 0
M  V30 39 C 2.4132 -4.45452 -1.82006 0
M  V30 40 C 4.7652 -4.96055 -1.59933 0
M  V30 41 C 2.0932 -5.71531 -1.32547 0
M  V30 42 C 4.4452 -6.22617 -1.11939 0
M  V30 43 C 3.1092 -6.60312 -0.976951 0
M  V30 44 H 2.3792 -0.570129 -0.473322 0
M  V30 45 H 5.0262 -1.81845 -0.600372 0
M  V30 46 H 3.3312 -2.31747 -3.15912 0
M  V30 47 H 5.0282 -2.67089 -2.99107 0
M  V30 48 H 1.6182 -3.75949 -2.05815 0
M  V30 49 H 5.8022 -4.66738 -1.68728 0
M  V30 50 H 1.0582 -5.99468 -1.202 0
M  V30 51 H 5.2322 -6.91318 -0.839811 0
M  V30 52 H 2.8592 -7.57895 -0.591501 0
M  V30 53 N 4.4343 0.785586 -1.36625 0
M  V30 54 C 5.8503 1.08419 -1.17122 0
M  V30 55 C 6.0503 2.015 0.00208491 0
M  V30 56 O 5.1063 2.43551 0.666278 0
M  V30 57 C 6.4193 1.69498 -2.48377 0
M  V30 58 C 7.9673 1.81821 -2.54775 0
M  V30 59 C 8.4423 2.46315 -3.86126 0
M  V30 60 N 9.9333 2.53779 -3.87492 0
M  V30 61 C 10.6683 3.045 -4.85868 0
M  V30 62 N 10.1643 3.55499 -5.94637 0
M  V30 63 N 11.9573 3.03247 -4.73284 0
M  V30 64 H 4.1083 0.167264 -2.1174 0
M  V30 65 H 6.3713 0.13682 -0.938075 0
M  V30 66 H 6.0773 1.08571 -3.34522 0
M  V30 67 H 5.9513 2.6896 -2.64462 0
M  V30 68 H 8.3383 2.41884 -1.69045 0
M  V30 69 H 8.4193 0.811532 -2.42586 0
M  V30 70 H 8.0633 1.86895 -4.72263 0
M  V30 71 H 7.9933 3.47561 -3.95612 0
M  V30 72 H 10.4843 2.17672 -3.08913 0
M  V30 73 H 10.7973 3.92562 -6.65669 0
M  V30 74 H 9.1423 3.5364 -5.98301 0
M  V30 75 H 12.3333 2.62696 -3.87438 0
M  V30 76 H 12.5063 3.42467 -5.50109 0
M  V30 77 N 5.9124 1.20967 1.01018 0
M  V30 78 C 7.1894 0.93264 1.71934 0
M  V30 79 C 7.5694 -0.55692 2.03621 0
M  V30 80 O 6.9174 -1.52035 1.7058 0
M  V30 81 C 7.1274 1.81233 2.98254 0
M  V30 82 C 8.4754 2.05804 3.71389 0
M  V30 83 O 9.4994 1.78539 3.08225 0
M  V30 84 O 8.3584 2.51888 4.84989 0
M  V30 85 H 5.4524 0.349272 0.749625 0
M  V30 86 H 7.9984 1.31871 1.06808 0
M  V30 87 H 6.7704 2.82067 2.71208 0
M  V30 88 H 6.3934 1.42674 3.7112 0
M  V30 89 N 7.3905 -1.2043 1.01659 0
M  V30 90 C 8.3205 -2.25466 0.607226 0
M  V30 91 C 9.3015 -1.65853 -0.377716 0
M  V30 92 O 10.4865 -1.92409 -0.263149 0
M  V30 93 C 7.6165 -3.47256 -0.0552949 0
M  V30 94 C 6.5705 -4.19462 0.850632 0
M  V30 95 C 5.8965 -5.34673 0.0538859 0
M  V30 96 C 7.1965 -4.75603 2.15868 0
M  V30 97 H 8.8905 -2.59962 1.48526 0
M  V30 98 H 6.4365 -1.2496 0.715605 0
M  V30 99 H 8.3895 -4.19917 -0.353233 0
M  V30 100 H 7.1135 -3.11924 -0.968045 0
M  V30 101 H 5.7725 -3.48667 1.13257 0
M  V30 102 H 5.4205 -4.95585 -0.860514 0
M  V30 103 H 5.1205 -5.83913 0.657192 0
M  V30 104 H 6.6445 -6.10138 -0.237598 0
M  V30 105 H 8.0585 -5.40083 1.92311 0
M  V30 106 H 6.4555 -5.3528 2.71284 0
M  V30 107 H 7.5255 -3.94346 2.82169 0
M  V30 108 N 8.8686 -0.792821 -1.36206 0
M  V30 109 C 9.7986 -0.207853 -2.32573 0
M  V30 110 C 10.7796 0.659055 -1.56813 0
M  V30 111 O 11.9646 0.592176 -1.84951 0
M  V30 112 C 9.0946 0.655449 -3.41059 0
M  V30 113 C 8.0486 -0.111842 -4.27854 0
M  V30 114 C 7.3746 0.872274 -5.27537 0
M  V30 115 C 8.6746 -1.30299 -5.05786 0
M  V30 116 H 10.3686 -1.01294 -2.81744 0
M  V30 117 H 7.9146 -0.48854 -1.3546 0
M  V30 118 H 9.8676 1.07464 -4.07467 0
M  V30 119 H 8.5916 1.49328 -2.90463 0
M  V30 120 H 7.2506 -0.512053 -3.63006 0
M  V30 121 H 6.8986 1.70523 -4.73214 0
M  V30 122 H 6.5986 0.363291 -5.86476 0
M  V30 123 H 8.1226 1.28996 -5.96818 0
M  V30 124 H 9.5366 -0.959379 -5.65216 0
M  V30 125 H 7.9336 -1.7455 -5.74154 0
M  V30 126 H 9.0036 -2.09663 -4.37229 0
M  V30 127 N 10.3467 1.47872 -0.545128 0
M  V30 128 C 11.5717 2.07391 -0.0190611 0
M  V30 129 C 11.9967 1.39688 1.25971 0
M  V30 130 O 11.3547 0.467816 1.7516 0
M  V30 131 C 11.4027 3.60188 0.172335 0
M  V30 132 O 10.5067 3.9339 1.23766 0
M  V30 133 H 9.8477 0.662411 -0.0459059 0
M  V30 134 H 12.3777 1.90066 -0.757365 0
M  V30 135 H 12.3877 4.06129 0.390305 0
M  V30 136 H 11.0627 4.08865 -0.761725 0
M  V30 137 H 9.6397 3.5921 1.00114 0
M  V30 138 N 11.8248 0.280983 1.55075 0
M  V30 139 C 13.0708 -0.33461 2.00021 0
M  V30 140 C 13.4038 -1.55063 1.16915 0
M  V30 141 O 12.6788 -1.93006 0.240646 0
M  V30 142 C 12.9618 -0.711007 3.53011 0
M  V30 143 C 12.8148 0.512766 4.46868 0
M  V30 144 C 14.1338 -1.54522 4.12081 0
M  V30 145 H 11.2528 -0.120147 0.727141 0
M  V30 146 H 13.8948 0.389097 1.85973 0
M  V30 147 H 12.0448 -1.32761 3.65112 0
M  V30 148 H 13.7168 1.15131 4.46702 0
M  V30 149 H 11.9598 1.14975 4.18286 0
M  V30 150 H 12.6308 0.205556 5.51617 0
M  V30 151 H 15.1068 -1.02442 4.03293 0
M  V30 152 H 13.9828 -1.77739 5.19327 0
M  V30 153 H 14.2438 -2.52813 3.62682 0
M  V30 154 N 13.3029 -1.57598 0.00835791 0
M  V30 155 C 14.5279 -1.95617 -0.689103 0
M  V30 156 C 14.9529 -0.883753 -1.66046 0
M  V30 157 O 14.3109 0.157352 -1.80616 0
M  V30 158 C 14.3589 -3.32736 -1.38994 0
M  V30 159 O 13.4629 -3.27631 -2.50463 0
M  V30 160 H 12.8039 -0.638379 -0.182668 0
M  V30 161 H 15.3339 -2.045 0.064036 0
M  V30 162 H 15.3439 -3.68494 -1.75147 0
M  V30 163 H 14.0189 -4.1034 -0.677778 0
M  V30 164 H 12.5959 -3.03561 -2.16576 0
M  V30 165 N 14.781 0.264519 -1.55364 0
M  V30 166 C 16.028 0.994986 -1.7637 0
M  V30 167 C 16.356 1.85976 -0.5695 0
M  V30 168 O 15.611 1.90509 0.44776 0
M  V30 169 C 15.91 1.9004 -3.02687 0
M  V30 170 C 15.576 1.19243 -4.34847 0
M  V30 171 C 14.238 0.996709 -4.70764 0
M  V30 172 C 16.59 0.689296 -5.16622 0
M  V30 173 C 13.918 0.285261 -5.86006 0
M  V30 174 C 16.27 -0.00860079 -6.32599 0
M  V30 175 C 14.934 -0.215963 -6.67151 0
M  V30 176 H 14.204 0.364091 -0.645383 0
M  V30 177 H 16.851 0.266543 -1.89636 0
M  V30 178 H 15.156 2.69533 -2.84357 0
M  V30 179 H 16.853 2.46695 -3.16137 0
M  V30 180 H 13.443 1.3549 -4.06621 0
M  V30 181 H 17.627 0.828108 -4.89342 0
M  V30 182 H 12.883 0.113961 -6.11294 0
M  V30 183 H 17.057 -0.406186 -6.95214 0
M  V30 184 H 14.684 -0.769217 -7.56298 0
M  V30 185 N 16.2591 1.48442 0.529413 0
M  V30 186 C 17.1691 1.6569 1.66084 0
M  V30 187 C 18.1851 0.539432 1.65427 0
M  V30 188 O 19.3611 0.810572 1.84368 0
M  V30 189 C 16.4261 1.69315 3.02545 0
M  V30 190 C 15.4871 2.92694 3.14052 0
M  V30 191 C 14.7201 2.96137 4.44003 0
M  V30 192 O 14.9431 2.07973 5.31134 0
M  V30 193 O 13.8771 3.88312 4.59888 0
M  V30 194 H 17.7031 2.61483 1.54469 0
M  V30 195 H 15.2881 1.3185 0.702567 0
M  V30 196 H 17.1701 1.74217 3.83701 0
M  V30 197 H 15.8451 0.766966 3.14483 0
M  V30 198 H 14.7521 2.93324 2.32189 0
M  V30 199 H 16.0851 3.84699 3.0703 0
M  V30 200 N 17.7372 -0.778329 1.37039 0
M  V30 201 C 18.9852 -1.53361 1.31623 0
M  V30 202 C 19.3062 -1.94739 -0.100831 0
M  V30 203 O 18.5762 -1.65797 -1.04347 0
M  V30 204 H 17.1562 -0.568794 0.484234 0
M  V30 205 H 19.8182 -0.926742 1.71457 0
M  V30 206 H 18.9142 -2.43606 1.95096 0
M  V30 207 N 19.2153 -1.21501 -1.00376 0
M  V30 208 C 20.6263 -1.03146 -1.55621 0
M  V30 209 C 20.9773 0.408375 -1.91903 0
M  V30 210 O 20.1023 1.29177 -1.73616 0
M  V30 211 C 20.6973 -1.86612 -2.82775 0
M  V30 212 C 19.2563 -1.72586 -3.34501 0
M  V30 213 C 18.4033 -1.83747 -2.07683 0
M  V30 214 H 21.3543 -1.35505 -0.826081 0
M  V30 215 H 21.3753 -1.3771 -3.54706 0
M  V30 216 H 20.8873 -2.91399 -2.56336 0
M  V30 217 H 18.9883 -0.704877 -3.65872 0
M  V30 218 H 19.1013 -2.54623 -4.05837 0
M  V30 219 H 17.4653 -1.27069 -2.20739 0
M  V30 220 H 18.2483 -2.90044 -1.83655 0
M  V30 221 N 20.6934 1.19889 -1.02296 0
M  V30 222 C 22.1094 1.41462 -0.738954 0
M  V30 223 C 22.3094 1.89721 0.678846 0
M  V30 224 O 21.3654 2.07016 1.4457 0
M  V30 225 C 22.6784 2.43083 -1.77005 0
M  V30 226 C 24.2264 2.5684 -1.78892 0
M  V30 227 C 24.7014 3.61709 -2.80945 0
M  V30 228 N 26.1924 3.69199 -2.79725 0
M  V30 229 C 26.9274 4.50019 -3.55345 0
M  V30 230 N 26.4234 5.34592 -4.40662 0
M  V30 231 N 28.2164 4.44612 -3.43914 0
M  V30 232 H 20.3674 0.868827 -1.93817 0
M  V30 233 H 22.6304 0.44399 -0.837602 0
M  V30 234 H 22.3364 2.14636 -2.78612 0
M  V30 235 H 22.2104 3.4217 -1.58744 0
M  V30 236 H 24.5974 2.84614 -0.779674 0
M  V30 237 H 24.6784 1.57927 -2.01228 0
M  V30 238 H 24.3224 3.34678 -3.82038 0
M  V30 239 H 24.2524 4.60259 -2.5587 0
M  V30 240 H 26.7434 3.08794 -2.17842 0
M  V30 241 H 27.0564 5.93363 -4.95116 0
M  V30 242 H 25.4014 5.34073 -4.44737 0
M  V30 243 H 28.5924 3.7758 -2.76679 0
M  V30 244 H 28.7654 5.0736 -4.031 0
M  V30 245 N 22.1715 0.800033 1.35784 0
M  V30 246 C 23.5825 0.439142 1.81462 0
M  V30 247 C 23.9335 -1.03813 1.66485 0
M  V30 248 O 23.0585 -1.80626 1.19177 0
M  V30 249 C 23.6535 0.790314 3.29453 0
M  V30 250 C 22.2125 0.482111 3.733 0
M  V30 251 C 21.3595 1.01938 2.57883 0
M  V30 252 H 24.3105 0.992254 1.23855 0
M  V30 253 H 24.3315 0.0853677 3.80404 0
M  V30 254 H 23.8435 1.86554 3.40322 0
M  V30 255 H 21.9445 -0.584652 3.67984 0
M  V30 256 H 22.0575 1.01015 4.6833 0
M  V30 257 H 20.4215 0.442043 2.50835 0
M  V30 258 H 21.2045 2.10059 2.71533 0
M  V30 259 N 23.6496 -1.47581 0.552962 0
M  V30 260 C 24.9266 -1.95563 -0.0381515 0
M  V30 261 C 25.3066 -1.49552 -1.48988 0
M  V30 262 O 24.6546 -0.732414 -2.16444 0
M  V30 263 C 24.8646 -3.48848 0.102919 0
M  V30 264 C 26.2126 -4.24577 -0.0446082 0
M  V30 265 O 27.2366 -3.56187 0.0302548 0
M  V30 266 O 26.0956 -5.46116 -0.204923 0
M  V30 267 H 23.1896 -0.824321 -0.0665067 0
M  V30 268 H 25.7356 -1.58001 0.619186 0
M  V30 269 H 24.5076 -3.75129 1.11328 0
M  V30 270 H 24.1306 -3.93165 -0.592224 0
M  V30 271 N 25.1277 -0.289203 -1.54924 0
M  V30 272 C 26.3527 0.329299 -2.04769 0
M  V30 273 C 26.7777 1.4763 -1.16564 0
M  V30 274 O 26.1357 1.80527 -0.167186 0
M  V30 275 C 26.1837 0.774438 -3.52186 0
M  V30 276 O 25.2877 1.88038 -3.67036 0
M  V30 277 H 24.6287 0.0659259 -0.660719 0
M  V30 278 H 27.1587 -0.42761 -2.00082 0
M  V30 279 H 27.1687 1.06642 -3.93816 0
M  V30 280 H 25.8437 -0.0646707 -4.1585 0
M  V30 281 H 24.4207 1.58985 -3.3731 0
M  V30 282 N 26.6058 1.57591 -0.0167156 0
M  V30 283 C 27.8308 1.9598 0.67872 0
M  V30 284 C 28.2558 0.892546 1.65575 0
M  V30 285 O 27.6138 -0.147772 1.80697 0
M  V30 286 C 27.6618 3.33468 1.37227 0
M  V30 287 O 26.7658 3.28954 2.48722 0
M  V30 288 H 26.1068 0.639339 0.17928 0
M  V30 289 H 28.6368 2.04463 -0.0748802 0
M  V30 290 H 28.6468 3.69417 1.7319 0
M  V30 291 H 27.3218 4.10694 0.656007 0
M  V30 292 H 25.8988 3.04705 2.14963 0
M  V30 293 N 28.0839 -0.256276 1.55502 0
M  V30 294 C 29.0469 -1.30047 1.88734 0
M  V30 295 C 30.0469 -1.4154 0.763086 0
M  V30 296 O 31.2369 -1.40403 1.03115 0
M  V30 297 C 28.3689 -2.67953 2.10747 0
M  V30 298 H 29.5619 -1.01802 2.82093 0
M  V30 299 H 27.1149 -0.495134 1.4825 0
M  V30 300 H 27.8499 -3.01351 1.19825 0
M  V30 301 H 27.6349 -2.60993 2.92617 0
M  V30 302 H 29.1249 -3.43368 2.37673 0
M  V30 303 N 29.562 -1.4872 -0.521534 0
M  V30 304 C 30.81 -1.56857 -1.27437 0
M  V30 305 C 31.131 -0.247982 -1.93417 0
M  V30 306 O 30.401 0.731151 -1.81744 0
M  V30 307 H 28.981 -0.577885 -0.473347 0
M  V30 308 H 31.643 -1.85233 -0.606205 0
M  V30 309 H 30.739 -2.35402 -2.0492 0
M  V30 310 N 31.0401 0.771051 -1.3745 0
M  V30 311 C 32.2881 1.52661 -1.32435 0
M  V30 312 C 32.6091 1.9479 0.0905024 0
M  V30 313 O 31.8791 1.66348 1.03466 0
M  V30 314 H 30.4591 0.566218 -0.487244 0
M  V30 315 H 33.1211 0.917636 -1.71946 0
M  V30 316 H 32.2171 2.42568 -1.96385 0
M  V30 317 N 32.5182 1.22032 0.997298 0
M  V30 318 C 33.7432 1.06921 1.77715 0
M  V30 319 C 34.1682 -0.376226 1.84299 0
M  V30 320 O 33.5262 -1.27165 1.29223 0
M  V30 321 C 33.5742 1.67996 3.19076 0
M  V30 322 O 32.6782 0.930653 4.01762 0
M  V30 323 H 32.0192 0.375814 0.547412 0
M  V30 324 H 34.5492 1.61737 1.25309 0
M  V30 325 H 34.5592 1.72538 3.69723 0
M  V30 326 H 33.2342 2.73182 3.13599 0
M  V30 327 H 31.8112 0.960917 3.60307 0
M  V30 328 N 33.9963 -1.19345 1.0293 0
M  V30 329 C 35.2213 -1.93538 0.745511 0
M  V30 330 C 35.6463 -1.75007 -0.689511 0
M  V30 331 O 35.0043 -1.05265 -1.47611 0
M  V30 332 C 35.0523 -3.43336 1.10239 0
M  V30 333 O 34.1563 -4.11806 0.221289 0
M  V30 334 H 33.4973 -0.604193 0.275404 0
M  V30 335 H 36.0273 -1.5141 1.37609 0
M  V30 336 H 36.0373 -3.94004 1.05947 0
M  V30 337 H 34.7123 -3.56146 2.14786 0
M  V30 338 H 33.2893 -3.715 0.322842 0
M  V30 339 N 35.4744 -0.807222 -1.35358 0
M  V30 340 C 36.4374 -0.223665 -2.28106 0
M  V30 341 C 37.4374 0.589354 -1.4961 0
M  V30 342 O 38.6274 0.407745 -1.69361 0
M  V30 343 C 35.7594 0.688149 -3.33882 0
M  V30 344 H 36.9524 -1.04169 -2.81227 0
M  V30 345 H 34.5054 -0.577921 -1.45223 0
M  V30 346 H 35.2404 1.52984 -2.85948 0
M  V30 347 H 35.0254 0.10687 -3.91954 0
M  V30 348 H 36.5154 1.09075 -4.03104 0
M  V30 349 N 36.9525 1.47285 -0.560781 0
M  V30 350 C 38.2005 2.02064 -0.0379868 0
M  V30 351 C 38.5215 1.43711 1.31803 0
M  V30 352 O 37.7915 0.61362 1.86042 0
M  V30 353 H 36.3715 0.746918 -0.0110531 0
M  V30 354 H 39.0335 1.80648 -0.731598 0
M  V30 355 H 38.1295 3.12064 0.0474463 0
M  V30 356 N 38.4306 0.297415 1.54768 0
M  V30 357 C 39.6786 -0.312295 1.99673 0
M  V30 358 C 39.9996 -1.54686 1.18732 0
M  V30 359 O 39.2696 -1.93854 0.282382 0
M  V30 360 H 37.8496 -0.118381 0.73756 0
M  V30 361 H 40.5116 0.407915 1.90583 0
M  V30 362 H 39.6076 -0.586813 3.06534 0
M  V30 363 N 39.9087 -1.5758 0.0250728 0
M  V30 364 C 41.1567 -1.91255 -0.653151 0
M  V30 365 C 41.4777 -0.901691 -1.729 0
M  V30 366 O 40.7477 0.0573785 -1.95816 0
M  V30 367 H 39.3277 -0.705942 -0.244243 0
M  V30 368 H 41.9897 -1.94767 0.0719209 0
M  V30 369 H 41.0857 -2.91752 -1.10847 0
M  V30 370 N 41.3868 0.248026 -1.55636 0
M  V30 371 C 42.6348 0.974295 -1.77065 0
M  V30 372 C 42.9558 1.85897 -0.588849 0
M  V30 373 O 42.2258 1.91868 0.395407 0
M  V30 374 H 40.8058 0.362733 -0.653019 0
M  V30 375 H 43.4678 0.266244 -1.93073 0
M  V30 376 H 42.5638 1.59667 -2.68166 0
M  V30 377 N 42.8649 1.48995 0.513639 0
M  V30 378 C 44.1129 1.57531 1.26604 0
M  V30 379 C 44.4339 0.258236 1.93283 0
M  V30 380 O 43.7039 -0.721502 1.8213 0
M  V30 381 H 42.2839 0.580387 0.470276 0
M  V30 382 H 44.9459 1.85552 0.596373 0
M  V30 383 H 44.0419 2.36486 2.03669 0
M  V30 384 N 44.343 -0.763751 1.37857 0
M  V30 385 C 45.568 -1.55805 1.36893 0
M  V30 386 C 45.993 -1.88054 -0.0416135 0
M  V30 387 O 45.351 -1.49825 -1.02089 0
M  V30 388 C 45.399 -2.84012 2.22192 0
M  V30 389 O 44.503 -3.78732 1.63204 0
M  V30 390 H 43.844 -0.471638 0.46739 0
M  V30 391 H 46.374 -0.944657 1.81487 0
M  V30 392 H 46.384 -3.33037 2.35691 0
M  V30 393 H 45.059 -2.59869 3.24716 0
M  V30 394 H 43.636 -3.37402 1.58791 0
M  V30 395 N 45.8211 -1.22559 -0.990812 0
M  V30 396 C 46.7841 -0.998863 -2.0629 0
M  V30 397 C 47.7841 0.0354834 -1.60761 0
M  V30 398 O 48.9741 -0.203231 -1.7301 0
M  V30 399 C 46.1061 -0.509203 -3.37076 0
M  V30 400 H 47.2991 -1.95014 -2.27837 0
M  V30 401 H 44.8521 -1.04456 -1.16269 0
M  V30 402 H 45.5871 0.446335 -3.21214 0
M  V30 403 H 45.3721 -1.25547 -3.71457 0
M  V30 404 H 46.8621 -0.370888 -4.1595 0
M  V30 405 N 47.2992 1.18797 -1.03562 0
M  V30 406 C 48.5472 1.88278 -0.734569 0
M  V30 407 C 48.8682 1.8043 0.739586 0
M  V30 408 O 48.1382 1.21925 1.53333 0
M  V30 409 H 46.7182 0.696991 -0.268725 0
M  V30 410 H 49.3802 1.44192 -1.31129 0
M  V30 411 H 48.4762 2.94443 -1.03489 0
M  V30 412 N 48.7773 0.814389 1.34928 0
M  V30 413 C 50.0253 0.397636 1.9815 0
M  V30 414 C 50.3463 -1.04069 1.64908 0
M  V30 415 O 49.6163 -1.72121 0.93548 0
M  V30 416 H 48.1963 0.144043 0.732981 0
M  V30 417 H 50.8583 1.04195 1.6471 0
M  V30 418 H 49.9543 0.509688 3.0791 0
M  V30 419 N 50.2554 -1.46986 0.568584 0
M  V30 420 C 51.2184 -2.28624 -0.162366 0
M  V30 421 C 52.2184 -1.37596 -0.832103 0
M  V30 422 O 53.4084 -1.60115 -0.68622 0
M  V30 423 C 50.5404 -3.17596 -1.23878 0
M  V30 424 H 51.7334 -2.94722 0.554899 0
M  V30 425 H 49.2864 -1.52863 0.325976 0
M  V30 426 H 50.0214 -2.56214 -1.98808 0
M  V30 427 H 49.8064 -3.846 -0.763219 0
M  V30 428 H 51.2964 -3.79078 -1.75185 0
M  V30 429 N 51.7335 -0.305618 -1.54608 0
M  V30 430 C 52.6965 0.555591 -2.22364 0
M  V30 431 C 53.6965 1.05768 -1.21119 0
M  V30 432 O 54.8865 0.952972 -1.45822 0
M  V30 433 C 52.0185 1.76974 -2.91364 0
M  V30 434 H 53.2115 -0.0364572 -2.99878 0
M  V30 435 H 50.7645 -0.0565007 -1.56198 0
M  V30 436 H 51.4995 2.40151 -2.17941 0
M  V30 437 H 51.2845 1.41732 -3.65588 0
M  V30 438 H 52.7745 2.38148 -3.43038 0
M  V30 439 N 53.2116 1.57565 -0.0334293 0
M  V30 440 C 54.6226 1.79746 0.504798 0
M  V30 441 C 54.9736 0.944091 1.71992 0
M  V30 442 O 54.0986 0.155694 2.15839 0
M  V30 443 C 54.6936 3.25997 0.922567 0
M  V30 444 C 53.2526 3.49159 1.40588 0
M  V30 445 C 52.3996 2.74785 0.372633 0
M  V30 446 H 55.3506 1.56565 -0.259436 0
M  V30 447 H 55.3716 3.35945 1.78666 0
M  V30 448 H 54.8836 3.88081 0.0379825 0
M  V30 449 H 52.9846 2.92332 2.31025 0
M  V30 450 H 53.0976 4.57873 1.41028 0
M  V30 451 H 51.4616 2.40391 0.841672 0
M  V30 452 H 52.2446 3.39587 -0.503559 0
M  V30 453 N 54.6897 -0.239769 1.55765 0
M  V30 454 C 55.9147 -0.988373 1.82335 0
M  V30 455 C 56.3397 -1.77886 0.611421 0
M  V30 456 O 55.6977 -1.75889 -0.439639 0
M  V30 457 C 55.7457 -1.89627 3.06715 0
M  V30 458 O 54.8497 -2.98904 2.84131 0
M  V30 459 H 54.1907 -0.280858 0.601677 0
M  V30 460 H 56.7207 -0.258597 2.02959 0
M  V30 461 H 56.7307 -2.30957 3.36338 0
M  V30 462 H 55.4057 -1.31511 3.9456 0
M  V30 463 H 53.9827 -2.61651 2.65694 0
M  V30 464 N 56.1678 -1.49265 -0.50573 0
M  V30 465 C 57.0778 -1.68312 -1.63427 0
M  V30 466 C 58.0938 -0.565682 -1.64548 0
M  V30 467 O 59.2698 -0.839801 -1.83055 0
M  V30 468 C 56.3348 -1.74107 -2.99813 0
M  V30 469 C 55.3958 -2.97653 -3.09356 0
M  V30 470 C 54.6288 -3.03163 -4.39236 0
M  V30 471 O 54.8518 -2.16396 -5.27758 0
M  V30 472 O 53.7858 -3.9558 -4.53652 0
M  V30 473 H 57.6118 -2.63907 -1.50289 0
M  V30 474 H 55.1968 -1.32951 -0.681502 0
M  V30 475 H 57.0788 -1.803 -3.80881 0
M  V30 476 H 55.7538 -0.816901 -3.13223 0
M  V30 477 H 54.6608 -2.96981 -2.27493 0
M  V30 478 H 55.9938 -3.89535 -3.00871 0
M  V30 479 N 57.6459 0.756429 -1.3826 0
M  V30 480 C 58.8939 1.51248 -1.34047 0
M  V30 481 C 59.2149 1.94875 0.0698372 0
M  V30 482 O 58.4849 1.67436 1.01696 0
M  V30 483 H 57.0649 0.561018 -0.493222 0
M  V30 484 H 59.7269 0.899347 -1.7291 0
M  V30 485 H 58.8229 2.40472 -1.98947 0
M  V30 486 N 59.124 1.23083 0.984299 0
M  V30 487 C 60.535 1.05609 1.5396 0
M  V30 488 C 60.886 -0.377793 1.92528 0
M  V30 489 O 60.011 -1.26398 1.75649 0
M  V30 490 C 60.606 1.91087 2.7977 0
M  V30 491 C 59.165 1.77885 3.31713 0
M  V30 492 C 58.312 1.87028 2.04733 0
M  V30 493 H 61.263 1.36802 0.804419 0
M  V30 494 H 61.284 1.43336 3.5247 0
M  V30 495 H 60.796 2.9544 2.51668 0
M  V30 496 H 58.897 0.762995 3.64704 0
M  V30 497 H 59.01 2.61047 4.01735 0
M  V30 498 H 57.374 1.30565 2.18689 0
M  V30 499 H 58.157 2.92929 1.79017 0
M  V30 500 N 60.6021 -1.18246 1.0419 0
M  V30 501 C 61.5651 -2.20128 0.638452 0
M  V30 502 C 62.5651 -1.57885 -0.304805 0
M  V30 503 O 63.7551 -1.73967 -0.0900369 0
M  V30 504 C 60.8871 -3.4084 -0.0637751 0
M  V30 505 H 62.0801 -2.57336 1.54007 0
M  V30 506 H 59.6331 -1.32152 0.834598 0
M  V30 507 H 60.3681 -3.09166 -0.979136 0
M  V30 508 H 60.1531 -3.8726 0.614198 0
M  V30 509 H 61.6431 -4.16274 -0.332512 0
M  V30 510 N 62.0802 -0.821533 -1.34494 0
M  V30 511 C 63.3262 -0.409552 -1.98622 0
M  V30 512 C 63.6592 1.0244 -1.64984 0
M  V30 513 O 62.9342 1.71325 -0.920758 0
M  V30 514 C 63.2172 -0.610458 -3.54888 0
M  V30 515 C 63.0702 -2.09043 -3.98273 0
M  V30 516 C 64.3892 -0.0455379 -4.40076 0
M  V30 517 H 61.5082 -0.15028 -0.721516 0
M  V30 518 H 64.1502 -1.03384 -1.59411 0
M  V30 519 H 62.3002 -0.079044 -3.8842 0
M  V30 520 H 63.9722 -2.68537 -3.75081 0
M  V30 521 H 62.2152 -2.58139 -3.48635 0
M  V30 522 H 62.8862 -2.18182 -5.07051 0
M  V30 523 H 65.3622 -0.499557 -4.1309 0
M  V30 524 H 64.2382 -0.215922 -5.48475 0
M  V30 525 H 64.4992 1.04939 -4.29465 0
M  V30 526 N 63.5583 1.46682 -0.576371 0
M  V30 527 C 64.8063 2.02013 -0.0594163 0
M  V30 528 C 65.1273 1.45101 1.30271 0
M  V30 529 O 64.3973 0.633317 1.8538 0
M  V30 530 H 62.9773 0.746759 -0.0189745 0
M  V30 531 H 65.6393 1.79862 -0.750717 0
M  V30 532 H 64.7353 3.12097 0.014345 0
M  V30 533 N 65.0364 0.313813 1.54444 0
M  V30 534 C 66.2844 -0.291099 1.99993 0
M  V30 535 C 66.6054 -1.53418 1.20366 0
M  V30 536 O 65.8754 -1.93544 0.302927 0
M  V30 537 H 64.4554 -0.110552 0.738774 0
M  V30 538 H 67.1174 0.428106 1.9014 0
M  V30 539 H 66.2134 -0.554268 3.07139 0
M  V30 540 N 66.5145 -1.57545 0.0417849 0
M  V30 541 C 67.7605 -1.92601 -0.635021 0
M  V30 542 C 68.0935 -0.919627 -1.71045 0
M  V30 543 O 67.3685 0.0557892 -1.9442 0
M  V30 544 C 67.6515 -3.38085 -1.23979 0
M  V30 545 C 67.5045 -4.49467 -0.173057 0
M  V30 546 C 68.8235 -3.83776 -2.15416 0
M  V30 547 H 65.9425 -0.700397 -0.229374 0
M  V30 548 H 68.5845 -1.89728 0.101633 0
M  V30 549 H 66.7345 -3.40664 -1.86762 0
M  V30 550 H 68.4065 -4.59018 0.458312 0
M  V30 551 H 66.6495 -4.30909 0.499996 0
M  V30 552 H 67.3205 -5.48323 -0.636054 0
M  V30 553 H 69.7965 -3.83013 -1.62605 0
M  V30 554 H 68.6725 -4.8624 -2.54679 0
M  V30 555 H 68.9335 -3.19998 -3.05047 0
M  V30 556 N 67.9926 0.231505 -1.5589 0
M  V30 557 C 69.4036 0.799327 -1.68724 0
M  V30 558 C 69.7546 1.85398 -0.642022 0
M  V30 559 O 68.8796 2.1539 0.208784 0
M  V30 560 C 69.4746 1.45664 -3.05888 0
M  V30 561 C 68.0336 1.97197 -3.20609 0
M  V30 562 C 67.1806 0.828552 -2.64632 0
M  V30 563 H 70.1316 0.00702616 -1.58698 0
M  V30 564 H 70.1526 2.32517 -3.01191 0
M  V30 565 H 69.6646 0.688808 -3.81939 0
M  V30 566 H 67.7656 2.76813 -2.4941 0
M  V30 567 H 67.8786 2.15878 -4.27707 0
M  V30 568 H 66.2426 1.23321 -2.22854 0
M  V30 569 H 67.0256 0.0735544 -3.43221 0
M  V30 570 N 69.4707 1.49531 0.497807 0
M  V30 571 C 70.7187 1.58865 1.24926 0
M  V30 572 C 71.0397 0.278721 1.92998 0
M  V30 573 O 70.3097 -0.702144 1.82885 0
M  V30 574 H 68.8897 0.585343 0.464094 0
M  V30 575 H 71.5517 1.86174 0.57666 0
M  V30 576 H 70.6477 2.38633 2.01149 0
M  V30 577 N 70.9488 -0.749086 1.3866 0
M  V30 578 C 72.1968 -1.50535 1.34847 0
M  V30 579 C 72.5178 -1.94909 -0.0595016 0
M  V30 580 O 71.7878 -1.67973 -1.00806 0
M  V30 581 H 70.3678 -0.558395 0.49619 0
M  V30 582 H 73.0298 -0.890165 1.73384 0
M  V30 583 H 72.1258 -2.39413 2.00219 0
M  V30 584 N 72.4269 -1.23603 -0.977757 0
M  V30 585 C 73.3899 -1.02069 -2.05218 0
M  V30 586 C 74.3899 0.0184305 -1.60789 0
M  V30 587 O 75.5799 -0.221569 -1.72785 0
M  V30 588 C 72.7119 -0.544926 -3.36517 0
M  V30 589 H 73.9049 -1.9742 -2.25755 0
M  V30 590 H 71.4579 -1.05684 -1.15155 0
M  V30 591 H 72.1929 0.412241 -3.21669 0
M  V30 592 H 71.9779 -1.2948 -3.70105 0
M  V30 593 H 73.4679 -0.414985 -4.15533 0
M  V30 594 N 73.905 1.17692 -1.04816 0
M  V30 595 C 75.153 1.87488 -0.754497 0
M  V30 596 C 75.474 1.81205 0.720407 0
M  V30 597 O 74.744 1.23544 1.52032 0
M  V30 598 H 73.324 0.694101 -0.276102 0
M  V30 599 H 75.986 1.42793 -1.32651 0
M  V30 600 H 75.082 2.93328 -1.06606 0
M  V30 601 N 75.3831 0.828654 1.34056 0
M  V30 602 C 76.6311 0.41863 1.97717 0
M  V30 603 C 76.9521 -1.02314 1.66002 0
M  V30 604 O 76.2221 -1.71119 0.953683 0
M  V30 605 H 74.8021 0.151809 0.731412 0
M  V30 606 H 77.4641 1.05936 1.63596 0
M  V30 607 H 76.5601 0.542318 3.07352 0
M  V30 608 N 76.8612 -1.46375 0.584142 0
M  V30 609 C 78.1092 -2.01978 0.0701287 0
M  V30 610 C 78.4302 -1.4579 -1.295 0
M  V30 611 O 77.7002 -0.64314 -1.85042 0
M  V30 612 H 76.2802 -0.746648 0.0229345 0
M  V30 613 H 78.9422 -1.79461 0.760245 0
M  V30 614 H 78.0382 -3.121 0.0022064 0
M  V30 615 N 78.3393 -0.321999 -1.54275 0
M  V30 616 C 79.5873 0.280489 -2.00144 0
M  V30 617 C 79.9083 1.52777 -1.21178 0
M  V30 618 O 79.1783 1.9338 -0.313187 0
M  V30 619 H 77.7583 0.106632 -0.73935 0
M  V30 620 H 80.4203 -0.438184 -1.8991 0
M  V30 621 H 79.5163 0.537972 -3.07428 0
M  V30 622 N 79.8174 1.5752 -0.0501392 0
M  V30 623 C 81.0654 1.9227 0.622642 0
M  V30 624 C 81.3864 0.929083 1.71444 0
M  V30 625 O 80.6564 -0.0262186 1.95882 0
M  V30 626 H 79.2364 0.709739 0.232981 0
M  V30 627 H 81.8984 1.94628 -0.102898 0
M  V30 628 H 80.9944 2.93479 1.06191 0
M  V30 629 N 81.2955 -0.223234 1.56011 0
M  V30 630 C 82.5415 -0.949279 1.79211 0
M  V30 631 C 82.8745 -1.84054 0.619494 0
M  V30 632 O 82.1495 -1.90726 -0.381317 0
M  V30 633 C 82.4325 -1.78965 3.12479 0
M  V30 634 C 82.2855 -0.924997 4.40186 0
M  V30 635 C 83.6045 -2.76774 3.42175 0
M  V30 636 H 80.7235 -0.343676 0.651963 0
M  V30 637 H 83.3655 -0.218253 1.88742 0
M  V30 638 H 81.5155 -2.41291 3.04485 0
M  V30 639 H 83.1875 -0.318615 4.60198 0
M  V30 640 H 81.4305 -0.230344 4.33188 0
M  V30 641 H 82.1015 -1.54735 5.29869 0
M  V30 642 H 84.5775 -2.24584 3.50287 0
M  V30 643 H 83.4535 -3.32678 4.36597 0
M  V30 644 H 83.7145 -3.54429 2.64258 0
M  V30 645 N 82.7736 -1.49793 -0.48987 0
M  V30 646 C 84.0196 -1.60078 -1.24511 0
M  V30 647 C 84.3526 -0.291608 -1.91998 0
M  V30 648 O 83.6276 0.705647 -1.81248 0
M  V30 649 C 83.9106 -2.76791 -2.30345 0
M  V30 650 C 83.7636 -4.17535 -1.67286 0
M  V30 651 C 85.0826 -2.89111 -3.31817 0
M  V30 652 H 82.2016 -0.582645 -0.451324 0
M  V30 653 H 84.8436 -1.82117 -0.541612 0
M  V30 654 H 82.9936 -2.5813 -2.90346 0
M  V30 655 H 84.6656 -4.4774 -1.11026 0
M  V30 656 H 82.9086 -4.22665 -0.976577 0
M  V30 657 H 83.5796 -4.95094 -2.44103 0
M  V30 658 H 86.0556 -3.06133 -2.81819 0
M  V30 659 H 84.9316 -3.72433 -4.03219 0
M  V30 660 H 85.1926 -1.9893 -3.94815 0
M  V30 661 N 84.2517 0.741722 -1.39055 0
M  V30 662 C 85.4997 1.49818 -1.35643 0
M  V30 663 C 85.8207 1.94938 0.0491642 0
M  V30 664 O 85.0907 1.68505 0.999141 0
M  V30 665 H 83.6707 0.555755 -0.499144 0
M  V30 666 H 86.3327 0.880957 -1.73854 0
M  V30 667 H 85.4287 2.38348 -2.01486 0
M  V30 668 N 85.7298 1.2412 0.971189 0
M  V30 669 C 86.6928 1.03156 2.04674 0
M  V30 670 C 87.6928 -0.00990322 1.60797 0
M  V30 671 O 88.8828 0.230729 1.72665 0
M  V30 672 C 86.0148 0.562765 3.36223 0
M  V30 673 H 87.2078 1.98614 2.24705 0
M  V30 674 H 84.7608 1.06293 1.14593 0
M  V30 675 H 85.4958 -0.395176 3.21883 0
M  V30 676 H 85.2808 1.31441 3.69413 0
M  V30 677 H 86.7708 0.437015 4.15307 0
M  V30 678 N 87.2079 -1.17134 1.05439 0
M  V30 679 C 88.4559 -1.87085 0.764429 0
M  V30 680 C 88.7769 -1.81584 -0.710787 0
M  V30 681 O 88.0469 -1.24349 -1.51374 0
M  V30 682 H 86.6269 -0.692627 0.279779 0
M  V30 683 H 89.2889 -1.42087 1.33406 0
M  V30 684 H 88.3849 -2.92759 1.0816 0
M  V30 685 N 88.686 -0.835752 -1.33615 0
M  V30 686 C 89.911 -0.442389 -2.02627 0
M  V30 687 C 90.336 0.947735 -1.62479 0
M  V30 688 O 89.694 1.61907 -0.815826 0
M  V30 689 C 89.742 -0.567216 -3.56111 0
M  V30 690 O 88.846 0.407799 -4.10379 0
M  V30 691 H 88.187 -0.180278 -0.639059 0
M  V30 692 H 90.717 -1.12972 -1.70583 0
M  V30 693 H 90.727 -0.447708 -4.05536 0
M  V30 694 H 89.402 -1.58103 -3.84677 0
M  V30 695 H 87.979 0.246107 -3.72087 0
M  V30 696 N 90.1641 1.46063 -0.591896 0
M  V30 697 C 91.4121 2.01938 -0.0808391 0
M  V30 698 C 91.7331 1.46475 1.28725 0
M  V30 699 O 91.0031 0.652944 1.84698 0
M  V30 700 H 89.5831 0.746516 -0.0268938 0
M  V30 701 H 92.2451 1.79055 -0.769752 0
M  V30 702 H 91.3411 3.12094 -0.0187578 0
M  V30 703 N 91.6422 0.330177 1.54103 0
M  V30 704 C 92.5522 -0.541534 2.28264 0
M  V30 705 C 93.5682 -1.12351 1.32866 0
M  V30 706 O 94.7442 -1.14206 1.65888 0
M  V30 707 C 91.8092 -1.68322 3.03098 0
M  V30 708 C 90.8702 -1.13238 4.14096 0
M  V30 709 C 90.1032 -2.21966 4.85352 0
M  V30 710 O 90.3262 -3.42437 4.56172 0
M  V30 711 O 89.2602 -1.87013 5.7211 0
M  V30 712 H 93.0862 0.060938 3.03639 0
M  V30 713 H 90.6712 0.09565 1.49093 0
M  V30 714 H 92.5532 -2.34777 3.49939 0
M  V30 715 H 91.2282 -2.27176 2.30593 0
M  V30 716 H 90.1352 -0.432736 3.71589 0
M  V30 717 H 91.4682 -0.588898 4.88664 0
M  V30 718 N 93.1203 -1.57491 0.0584922 0
M  V30 719 C 94.3973 -1.84346 -0.653918 0
M  V30 720 C 94.7773 -0.948355 -1.88599 0
M  V30 721 O 94.1253 -0.0112403 -2.28497 0
M  V30 722 C 94.3353 -3.34239 -1.00425 0
M  V30 723 C 95.6833 -4.01431 -1.38342 0
M  V30 724 O 96.7073 -3.38907 -1.09637 0
M  V30 725 O 95.5663 -5.11683 -1.91943 0
M  V30 726 H 92.6603 -0.761112 -0.323478 0
M  V30 727 H 95.2063 -1.6947 0.0884125 0
M  V30 728 H 93.9783 -3.91089 -0.128625 0
M  V30 729 H 93.6013 -3.54329 -1.80378 0
M  V30 730 N 94.5984 0.214957 -1.56127 0
M  V30 731 C 95.5464 1.28601 -1.93816 0
M  V30 732 C 96.5404 1.48175 -0.821016 0
M  V30 733 O 97.7464 1.49271 -1.0059 0
M  V30 734 H 94.1214 0.431302 -0.616022 0
M  V30 735 H 96.0924 0.940991 -2.83175 0
M  V30 736 C 94.8414 2.62779 -2.27689 0
M  V30 737 H 94.1644 2.48527 -3.13168 0
M  V30 738 H 95.6044 3.36517 -2.57939 0
M  V30 739 C 94.0634 3.18285 -1.10436 0
M  V30 740 O 94.5934 4.00002 -0.368945 0
M  V30 741 N 92.7994 2.7675 -0.886433 0
M  V30 742 H 92.3464 2.10404 -1.48619 0
M  V30 743 H 92.3044 3.14229 -0.103656 0
M  V30 744 N 96.0765 1.50051 0.48192 0
M  V30 745 C 97.4925 1.37237 0.814756 0
M  V30 746 C 97.6925 0.420109 1.97072 0
M  V30 747 O 96.7485 -0.141246 2.52105 0
M  V30 748 C 98.0615 2.78375 1.13701 0
M  V30 749 C 99.6095 2.87213 1.2441 0
M  V30 750 C 100.084 4.29161 1.59954 0
M  V30 751 N 101.575 4.32061 1.66967 0
M  V30 752 C 102.31 5.38879 1.95952 0
M  V30 753 N 101.806 6.55918 2.23031 0
M  V30 754 N 103.599 5.26312 1.97363 0
M  V30 755 H 95.7505 2.10546 -0.28005 0
M  V30 756 H 98.0135 0.945921 -0.0627454 0
M  V30 757 H 97.7195 3.49845 0.360787 0
M  V30 758 H 97.5935 3.14941 2.07586 0
M  V30 759 H 99.9805 2.15969 2.01101 0
M  V30 760 H 100.061 2.54204 0.285299 0
M  V30 761 H 99.7055 5.00938 0.838067 0
M  V30 762 H 99.6355 4.59648 2.56966 0
M  V30 763 H 102.126 3.47661 1.48123 0
M  V30 764 H 102.439 7.33139 2.44391 0
M  V30 765 H 100.784 6.59112 2.20447 0
M  V30 766 H 103.975 4.33876 1.75697 0
M  V30 767 H 104.148 6.09649 2.19618 0
M  V30 768 N 97.5546 -0.734337 1.39446 0
M  V30 769 C 98.7796 -1.52866 1.40167 0
M  V30 770 C 99.2046 -1.881 -0.00171513 0
M  V30 771 O 98.5626 -1.51957 -0.988879 0
M  V30 772 C 98.6106 -2.79235 2.28167 0
M  V30 773 O 97.7146 -3.75185 1.71201 0
M  V30 774 H 97.0556 -0.461618 0.477289 0
M  V30 775 H 99.5856 -0.905949 1.8345 0
M  V30 776 H 99.5956 -3.27963 2.42702 0
M  V30 777 H 98.2706 -2.52923 3.30156 0
M  V30 778 H 96.8476 -3.33958 1.65912 0
M  V30 779 N 99.0327 -1.24633 -0.964593 0
M  V30 780 C 100.258 -1.11596 -1.74818 0
M  V30 781 C 100.683 0.32723 -1.85232 0
M  V30 782 O 100.041 1.23695 -1.32549 0
M  V30 783 C 100.089 -1.76397 -3.1451 0
M  V30 784 O 99.1927 -1.03685 -3.99153 0
M  V30 785 H 98.5337 -0.390196 -0.537255 0
M  V30 786 H 101.064 -1.65002 -1.20977 0
M  V30 787 H 101.074 -1.8228 -3.65018 0
M  V30 788 H 99.7487 -2.81401 -3.06246 0
M  V30 789 H 98.3257 -1.05611 -3.57632 0
M  V30 790 N 100.511 1.16574 -1.06058 0
M  V30 791 C 101.474 2.19085 -0.673392 0
M  V30 792 C 102.474 1.5835 0.279648 0
M  V30 793 O 103.664 1.74088 0.0623488 0
M  V30 794 C 100.796 3.40899 0.00954234 0
M  V30 795 H 101.989 2.54853 -1.58081 0
M  V30 796 H 99.5418 1.30808 -0.855516 0
M  V30 797 H 100.277 3.10684 0.929826 0
M  V30 798 H 100.062 3.86233 -0.67573 0
M  V30 799 H 101.552 4.1675 0.266245 0
M  V30 800 N 101.989 0.842826 1.3317 0
M  V30 801 C 103.237 0.439577 1.97262 0
M  V30 802 C 103.558 -1.00548 1.67078 0
M  V30 803 O 102.828 -1.70098 0.971779 0
M  V30 804 H 101.408 0.159558 0.72976 0
M  V30 805 H 104.07 1.07665 1.62463 0
M  V30 806 H 103.166 0.574886 3.0676 0
M  V30 807 N 103.467 -1.45747 0.599634 0
M  V30 808 C 104.377 -2.34262 -0.125888 0
M  V30 809 C 105.393 -1.50768 -0.868625 0
M  V30 810 O 106.569 -1.83592 -0.828003 0
M  V30 811 C 103.634 -3.28252 -1.11587 0
M  V30 812 C 102.695 -4.27651 -0.375956 0
M  V30 813 C 101.928 -5.1715 -1.31877 0
M  V30 814 O 102.151 -5.09916 -2.55621 0
M  V30 815 O 101.085 -5.96286 -0.820157 0
M  V30 816 H 104.911 -2.97688 0.601315 0
M  V30 817 H 102.496 -1.44999 0.359934 0
M  V30 818 H 104.378 -3.86191 -1.68626 0
M  V30 819 H 103.053 -2.67401 -1.82424 0
M  V30 820 H 101.96 -3.7335 0.236698 0
M  V30 821 H 103.293 -4.91334 0.29177 0
M  V30 822 N 104.945 -0.338344 -1.53925 0
M  V30 823 C 106.356 0.146651 -1.86123 0
M  V30 824 C 106.707 1.5042 -1.2597 0
M  V30 825 O 105.832 2.08723 -0.571294 0
M  V30 826 C 106.427 0.272879 -3.37699 0
M  V30 827 C 104.986 0.702103 -3.69794 0
M  V30 828 C 104.133 -0.167304 -2.76795 0
M  V30 829 H 107.084 -0.558123 -1.48562 0
M  V30 830 H 107.105 1.10128 -3.64214 0
M  V30 831 H 106.617 -0.715307 -3.81451 0
M  V30 832 H 104.718 1.6995 -3.31584 0
M  V30 833 H 104.831 0.495604 -4.7653 0
M  V30 834 H 103.195 0.359527 -2.5215 0
M  V30 835 H 103.978 -1.15253 -3.23375 0
M  V30 836 N 106.423 1.57458 -0.0668435 0
M  V30 837 C 107.671 1.92919 0.602214 0
M  V30 838 C 107.992 0.947215 1.70449 0
M  V30 839 O 107.262 -0.00544117 1.95899 0
M  V30 840 H 105.842 0.71217 0.22544 0
M  V30 841 H 108.504 1.94508 -0.123535 0
M  V30 842 H 107.6 2.94589 1.03073 0
M  V30 843 N 107.901 -0.206675 1.56239 0
M  V30 844 C 109.126 -0.949474 1.8439 0
M  V30 845 C 109.551 -1.76549 0.649016 0
M  V30 846 O 108.909 -1.76782 -0.402231 0
M  V30 847 C 108.957 -1.83078 3.10668 0
M  V30 848 O 108.061 -2.9281 2.90407 0
M  V30 849 H 107.402 -0.268033 0.607499 0
M  V30 850 H 109.932 -0.215488 2.03462 0
M  V30 851 H 109.942 -2.2377 3.41161 0
M  V30 852 H 108.617 -1.23112 3.97261 0
M  V30 853 H 107.194 -2.55956 2.71184 0
M  V30 854 N 109.379 -1.50304 -0.473955 0
M  V30 855 C 110.342 -1.6841 -1.55469 0
M  V30 856 C 111.342 -0.554905 -1.50922 0
M  V30 857 O 112.532 -0.821882 -1.53593 0
M  V30 858 C 109.664 -1.70667 -2.95102 0
M  V30 859 H 110.857 -2.64828 -1.40733 0
M  V30 860 H 108.41 -1.39742 -0.700132 0
M  V30 861 H 109.145 -0.75932 -3.15285 0
M  V30 862 H 108.93 -2.52698 -2.9981 0
M  V30 863 H 110.42 -1.8664 -3.73571 0
M  V30 864 N 110.857 0.726932 -1.39834 0
M  V30 865 C 112.105 1.4837 -1.37225 0
M  V30 866 C 112.426 1.94979 0.0284857 0
M  V30 867 O 111.696 1.69555 0.981213 0
M  V30 868 H 110.276 0.55043 -0.505011 0
M  V30 869 H 112.938 0.862468 -1.74778 0
M  V30 870 H 112.034 2.36198 -2.04003 0
M  V30 871 N 112.336 1.25143 0.95797 0
M  V30 872 C 113.299 1.05321 2.03569 0
M  V30 873 C 114.299 0.007152 1.60798 0
M  V30 874 O 115.489 0.24903 1.72411 0
M  V30 875 C 112.621 0.598394 3.35607 0
M  V30 876 H 113.814 2.00986 2.22586 0
M  V30 877 H 111.367 1.07502 1.13459 0
M  V30 878 H 112.102 -0.361014 3.22284 0
M  V30 879 H 111.887 1.35351 3.67998 0
M  V30 880 H 113.377 0.48104 4.1482 0
M  V30 881 N 113.814 -1.1601 1.06675 0
M  V30 882 C 115.062 -1.86264 0.784229 0
M  V30 883 C 115.383 -1.82328 -0.691488 0
M  V30 884 O 114.653 -1.25947 -1.50047 0
M  V30 885 H 113.233 -0.689621 0.28711 0
M  V30 886 H 115.895 -1.40664 1.34906 0
M  V30 887 H 114.991 -2.91595 1.11259 0
M  V30 888 N 115.292 -0.849877 -1.32721 0
M  V30 889 C 116.54 -0.450032 -1.97026 0
M  V30 890 C 116.861 0.996604 -1.67609 0
M  V30 891 O 116.131 1.6958 -0.980786 0
M  V30 892 H 114.711 -0.163426 -0.728904 0
M  V30 893 H 117.373 -1.08526 -1.6189 0
M  V30 894 H 116.469 -0.591146 -3.0645 0
M  V30 895 N 116.77 1.45427 -0.607355 0
M  V30 896 C 118.047 1.9557 -0.0344566 0
M  V30 897 C 118.427 1.54979 1.43334 0
M  V30 898 O 117.775 0.812241 2.13576 0
M  V30 899 C 117.985 3.48226 -0.232321 0
M  V30 900 C 119.333 4.2445 -0.113001 0
M  V30 901 O 120.357 3.55829 -0.162431 0
M  V30 902 O 119.216 5.465 0.00209442 0
M  V30 903 H 116.31 0.826222 0.0358667 0
M  V30 904 H 118.856 1.55594 -0.6774 0
M  V30 905 H 117.628 3.70739 -1.25174 0
M  V30 906 H 117.251 3.95092 0.445896 0
M  V30 907 N 118.248 0.346503 1.53744 0
M  V30 908 C 119.494 -0.249473 2.0126 0
M  V30 909 C 119.827 -1.49965 1.23386 0
M  V30 910 O 119.102 -1.91811 0.32229 0
M  V30 911 C 119.385 -0.560643 3.55709 0
M  V30 912 C 119.238 0.701836 4.44291 0
M  V30 913 C 120.557 -1.36905 4.18264 0
M  V30 914 H 117.676 -0.0891987 0.731582 0
M  V30 915 H 120.318 0.467624 1.84156 0
M  V30 916 H 118.468 -1.17156 3.70414 0
M  V30 917 H 120.14 1.33974 4.41417 0
M  V30 918 H 118.383 1.32612 4.13033 0
M  V30 919 H 119.054 0.43933 5.50249 0
M  V30 920 H 121.53 -0.852448 4.07275 0
M  V30 921 H 120.406 -1.55553 5.26398 0
M  V30 922 H 120.667 -2.37203 3.73078 0
M  V30 923 N 119.726 -1.57421 0.075193 0
M  V30 924 C 120.674 -2.14124 -0.908508 0
M  V30 925 C 121.668 -1.07898 -1.30592 0
M  V30 926 O 122.874 -1.26273 -1.28277 0
M  V30 927 H 119.249 -0.684707 -0.310935 0
M  V30 928 H 121.22 -2.95634 -0.405374 0
M  V30 929 C 119.969 -2.72044 -2.16535 0
M  V30 930 H 119.292 -3.53456 -1.86839 0
M  V30 931 H 120.732 -3.15311 -2.83469 0
M  V30 932 C 119.191 -1.66968 -2.92615 0
M  V30 933 O 119.721 -1.0967 -3.86439 0
M  V30 934 N 117.927 -1.37923 -2.55784 0
M  V30 935 H 117.474 -1.84706 -1.79559 0
M  V30 936 H 117.432 -0.67852 -3.06991 0
M  V30 937 N 121.204 0.198386 -1.56346 0
M  V30 938 C 122.452 0.91747 -1.80075 0
M  V30 939 C 122.773 1.83929 -0.647692 0
M  V30 940 O 122.043 1.93029 0.334166 0
M  V30 941 H 120.623 0.341774 -0.664228 0
M  V30 942 H 123.285 0.204684 -1.93822 0
M  V30 943 H 122.381 1.51055 -2.7311 0
M  V30 944 N 122.682 1.50554 0.465978 0
M  V30 945 C 123.91 1.65563 1.24083 0
M  V30 946 C 124.325 0.341051 1.85694 0
M  V30 947 O 123.682 -0.677543 1.69457 0
M  V30 948 C 123.733 2.75051 2.34583 0
M  V30 949 O 123.454 4.01413 1.75497 0
M  V30 950 C 124.955 3.01078 3.25372 0
M  V30 951 H 122.175 0.55638 0.375077 0
M  V30 952 H 124.719 1.96807 0.555624 0
M  V30 953 H 122.874 2.46486 2.9887 0
M  V30 954 H 123.288 4.62002 2.48303 0
M  V30 955 H 124.762 3.81339 3.99105 0
M  V30 956 H 125.239 2.12349 3.84453 0
M  V30 957 H 125.845 3.31194 2.66816 0
M  V30 958 N 124.16 -0.719506 1.40217 0
M  V30 959 C 125.123 -1.8153 1.39927 0
M  V30 960 C 126.123 -1.58095 0.293723 0
M  V30 961 O 127.313 -1.65209 0.552429 0
M  V30 962 C 124.445 -3.19561 1.18716 0
M  V30 963 H 125.638 -1.83186 2.37451 0
M  V30 964 H 123.191 -0.924746 1.26008 0
M  V30 965 H 123.926 -3.23557 0.219366 0
M  V30 966 H 123.711 -3.3797 1.98793 0
M  V30 967 H 125.201 -3.99598 1.21291 0
M  V30 968 N 125.638 -1.25649 -0.95132 0
M  V30 969 C 126.601 -1.06399 -2.03007 0
M  V30 970 C 127.601 -0.0156794 -1.60792 0
M  V30 971 O 128.791 -0.25817 -1.72276 0
M  V30 972 C 125.923 -0.616184 -3.35285 0
M  V30 973 H 127.116 -2.02164 -2.21517 0
M  V30 974 H 124.669 -1.08103 -1.12887 0
M  V30 975 H 125.404 0.343917 -3.22471 0
M  V30 976 H 125.189 -1.37301 -3.67275 0
M  V30 977 H 126.679 -0.503032 -4.14559 0
M  V30 978 N 127.117 1.15442 -1.07289 0
M  V30 979 C 128.363 1.86489 -0.796846 0
M  V30 980 C 128.696 1.82078 0.675371 0
M  V30 981 O 127.971 1.24346 1.4956 0
M  V30 982 C 128.254 3.35626 -1.30489 0
M  V30 983 C 128.107 3.48673 -2.84161 0
M  V30 984 C 129.426 4.30357 -0.920907 0
M  V30 985 H 126.545 0.677144 -0.290939 0
M  V30 986 H 129.187 1.35633 -1.33056 0
M  V30 987 H 127.337 3.79068 -0.850883 0
M  V30 988 H 129.009 3.14099 -3.37846 0
M  V30 989 H 127.252 2.90253 -3.22391 0
M  V30 990 H 127.923 4.53453 -3.14777 0
M  V30 991 H 130.399 3.94871 -1.3121 0
M  V30 992 H 129.275 5.33193 -1.30372 0
M  V30 993 H 129.536 4.4176 0.173226 0
M  V30 994 N 128.595 0.856903 1.32268 0
M  V30 995 C 129.843 0.460474 1.96784 0
M  V30 996 C 130.164 -0.987701 1.68135 0
M  V30 997 O 129.434 -1.69058 0.989765 0
M  V30 998 H 128.014 0.167289 0.728027 0
M  V30 999 H 130.676 1.09383 1.61312 0
M  V30 1000 H 129.772 0.60739 3.06133 0
M  V30 1001 N 130.073 -1.45103 0.615059 0
M  V30 1002 C 131.321 -2.01784 0.112955 0
M  V30 1003 C 131.642 -1.48504 -1.26378 0
M  V30 1004 O 130.912 -0.682245 -1.83636 0
M  V30 1005 H 129.492 -0.745993 0.0387668 0
M  V30 1006 H 132.154 -1.77808 0.798141 0
M  V30 1007 H 131.25 -3.12025 0.0684069 0
M  V30 1008 N 131.551 -0.354651 -1.53558 0
M  V30 1009 C 132.481 0.489091 -2.2832 0
M  V30 1010 C 133.462 1.09324 -1.30316 0
M  V30 1011 O 134.647 1.11255 -1.59173 0
M  V30 1012 C 131.777 1.63456 -3.0643 0
M  V30 1013 C 130.731 1.1582 -4.12031 0
M  V30 1014 C 130.057 2.39305 -4.7816 0
M  V30 1015 C 131.357 0.250731 -5.21698 0
M  V30 1016 H 133.051 -0.134614 -2.99097 0
M  V30 1017 H 130.597 -0.0661826 -1.43848 0
M  V30 1018 H 132.55 2.23136 -3.57475 0
M  V30 1019 H 131.274 2.28533 -2.33325 0
M  V30 1020 H 129.933 0.584146 -3.61916 0
M  V30 1021 H 129.581 3.02814 -4.01637 0
M  V30 1022 H 129.281 2.08109 -5.49513 0
M  V30 1023 H 130.805 2.99691 -5.31994 0
M  V30 1024 H 132.219 0.754695 -5.68311 0
M  V30 1025 H 130.616 0.0301468 -6.00092 0
M  V30 1026 H 131.686 -0.710125 -4.79672 0
M  V30 1027 N 133.029 1.57378 -0.0835403 0
M  V30 1028 C 134.275 1.94217 0.583733 0
M  V30 1029 C 134.608 0.964653 1.68547 0
M  V30 1030 O 133.883 -0.00422258 1.945 0
M  V30 1031 C 134.166 3.41253 1.14972 0
M  V30 1032 C 134.019 4.49768 0.0538277 0
M  V30 1033 C 135.338 3.89352 2.05166 0
M  V30 1034 H 132.457 0.706233 0.210724 0
M  V30 1035 H 135.099 1.89392 -0.1519 0
M  V30 1036 H 133.249 3.45496 1.77665 0
M  V30 1037 H 134.921 4.57641 -0.579851 0
M  V30 1038 H 133.164 4.29432 -0.614068 0
M  V30 1039 H 133.835 5.49817 0.490452 0
M  V30 1040 H 136.311 3.87189 1.52393 0
M  V30 1041 H 135.187 4.92822 2.41698 0
M  V30 1042 H 135.448 3.27973 2.96456 0
M  V30 1043 N 134.507 -0.190092 1.56449 0
M  V30 1044 C 135.753 -0.911052 1.81184 0
M  V30 1045 C 136.086 -1.82699 0.658396 0
M  V30 1046 O 135.361 -1.91491 -0.340775 0
M  V30 1047 C 135.644 -1.72297 3.16205 0
M  V30 1048 C 135.497 -0.831419 4.42049 0
M  V30 1049 C 136.816 -2.69454 3.47969 0
M  V30 1050 H 133.935 -0.32977 0.659106 0
M  V30 1051 H 136.577 -0.178169 1.89163 0
M  V30 1052 H 134.727 -2.34778 3.09534 0
M  V30 1053 H 136.399 -0.220929 4.60771 0
M  V30 1054 H 134.642 -0.138406 4.33579 0
M  V30 1055 H 135.313 -1.43461 5.33032 0
M  V30 1056 H 137.789 -2.17104 3.54972 0
M  V30 1057 H 136.665 -3.23342 4.43555 0
M  V30 1058 H 136.926 -3.48744 2.71717 0
M  V30 1059 N 135.985 -1.50799 -0.457987 0
M  V30 1060 C 137.21 -1.66496 -1.23668 0
M  V30 1061 C 137.635 -0.353288 -1.84752 0
M  V30 1062 O 136.993 0.684346 -1.67888 0
M  V30 1063 C 137.041 -2.76763 -2.3116 0
M  V30 1064 O 136.145 -2.38928 -3.36136 0
M  V30 1065 H 135.486 -0.555828 -0.363252 0
M  V30 1066 H 138.016 -1.9725 -0.543474 0
M  V30 1067 H 138.026 -3.00232 -2.76269 0
M  V30 1068 H 136.701 -3.71954 -1.86073 0
M  V30 1069 H 135.278 -2.25953 -2.96647 0
M  V30 1070 N 137.463 0.71206 -1.40597 0
M  V30 1071 C 138.426 1.80785 -1.40888 0
M  V30 1072 C 139.426 1.57937 -0.302103 0
M  V30 1073 O 140.616 1.64913 -0.561182 0
M  V30 1074 C 137.748 3.18927 -1.20409 0
M  V30 1075 H 138.941 1.81924 -2.38419 0
M  V30 1076 H 136.494 0.91805 -1.26497 0
M  V30 1077 H 137.229 3.23436 -0.236522 0
M  V30 1078 H 137.014 3.36911 -2.00582 0
M  V30 1079 H 138.504 3.98949 -1.23408 0
M  V30 1080 N 138.941 1.26152 0.944643 0
M  V30 1081 C 139.873 1.03199 2.04652 0
M  V30 1082 C 140.886 -0.00642356 1.62799 0
M  V30 1083 O 142.075 0.233263 1.76969 0
M  V30 1084 C 139.175 0.540111 3.34568 0
M  V30 1085 C 138.348 1.64697 4.05208 0
M  V30 1086 C 137.407 1.15374 5.13396 0
M  V30 1087 O 136.433 1.85013 5.38293 0
M  V30 1088 N 137.635 0.00031529 5.805 0
M  V30 1089 H 140.4 1.9808 2.2491 0
M  V30 1090 H 137.961 1.17491 1.11389 0
M  V30 1091 H 139.953 0.194401 4.04233 0
M  V30 1092 H 138.523 -0.315021 3.11009 0
M  V30 1093 H 137.743 2.16379 3.29506 0
M  V30 1094 H 139.031 2.3903 4.49157 0
M  V30 1095 H 138.429 -0.581336 5.62705 0
M  V30 1096 H 136.986 -0.286346 6.51171 0
M  V30 1097 N 140.419 -1.14872 1.07899 0
M  V30 1098 C 141.667 -1.85422 0.803941 0
M  V30 1099 C 141.988 -1.83051 -0.67211 0
M  V30 1100 O 141.258 -1.27532 -1.48703 0
M  V30 1101 H 139.838 -0.686537 0.294408 0
M  V30 1102 H 142.5 -1.39226 1.3639 0
M  V30 1103 H 141.596 -2.90399 1.14346 0
M  V30 1104 N 141.898 -0.863906 -1.31812 0
M  V30 1105 C 143.144 -0.472535 -1.97218 0
M  V30 1106 C 143.477 0.971394 -1.68159 0
M  V30 1107 O 142.752 1.68309 -0.974798 0
M  V30 1108 C 143.035 -0.723054 -3.52766 0
M  V30 1109 C 142.888 -2.21608 -3.91421 0
M  V30 1110 C 144.207 -0.185522 -4.39709 0
M  V30 1111 H 141.326 -0.173158 -0.71637 0
M  V30 1112 H 143.968 -1.08403 -1.56041 0
M  V30 1113 H 142.118 -0.202577 -3.87971 0
M  V30 1114 H 143.79 -2.80334 -3.66347 0
M  V30 1115 H 142.033 -2.691 -3.40246 0
M  V30 1116 H 142.704 -2.34203 -4.99853 0
M  V30 1117 H 145.18 -0.630726 -4.11292 0
M  V30 1118 H 144.056 -0.390306 -5.47511 0
M  V30 1119 H 144.317 0.912229 -4.32586 0
M  V30 1120 N 143.376 1.44774 -0.622745 0
M  V30 1121 C 144.624 2.01721 -0.123655 0
M  V30 1122 C 144.945 1.49172 1.25589 0
M  V30 1123 O 144.215 0.691974 1.83272 0
M  V30 1124 H 142.795 0.745777 -0.0427225 0
M  V30 1125 H 145.457 1.77382 -0.807559 0
M  V30 1126 H 144.553 3.11984 -0.0849534 0
M  V30 1127 N 144.854 0.36279 1.53368 0
M  V30 1128 C 146.1 -0.228113 2.01513 0
M  V30 1129 C 146.433 -1.48648 1.2497 0
M  V30 1130 O 145.708 -1.91459 0.342616 0
M  V30 1131 C 145.991 -0.522884 3.56284 0
M  V30 1132 C 145.844 0.74892 4.43521 0
M  V30 1133 C 147.163 -1.32461 4.19693 0
M  V30 1134 H 144.282 -0.0814343 0.732487 0
M  V30 1135 H 146.924 0.48713 1.83649 0
M  V30 1136 H 145.074 -1.1322 3.71636 0
M  V30 1137 H 146.746 1.38648 4.39971 0
M  V30 1138 H 144.989 1.36986 4.11603 0
M  V30 1139 H 145.66 0.497667 5.49752 0
M  V30 1140 H 148.136 -0.809203 4.08156 0
M  V30 1141 H 147.012 -1.49961 5.28018 0
M  V30 1142 H 147.273 -2.33232 3.75573 0
M  V30 1143 N 146.332 -1.57332 0.0918853 0
M  V30 1144 C 147.58 -1.93853 -0.571446 0
M  V30 1145 C 147.901 -0.974212 -1.6892 0
M  V30 1146 O 147.171 -0.0257254 -1.95883 0
M  V30 1147 H 145.751 -0.715666 -0.214082 0
M  V30 1148 H 148.413 -1.94287 0.154464 0
M  V30 1149 H 147.509 -2.96191 -0.983729 0
M  V30 1150 N 147.81 0.181792 -1.56548 0
M  V30 1151 C 149.056 0.901431 -1.81665 0
M  V30 1152 C 149.389 1.82347 -0.668075 0
M  V30 1153 O 148.664 1.91669 0.330615 0
M  V30 1154 C 148.947 1.70618 -3.17115 0
M  V30 1155 C 148.8 0.807964 -4.42484 0
M  V30 1156 C 150.119 2.67605 -3.49393 0
M  V30 1157 H 147.238 0.32627 -0.660846 0
M  V30 1158 H 149.88 0.168134 -1.89255 0
M  V30 1159 H 148.03 2.33133 -3.10775 0
M  V30 1160 H 149.702 0.19649 -4.60881 0
M  V30 1161 H 147.945 0.115411 -4.33646 0
M  V30 1162 H 148.616 1.40632 -5.33785 0
M  V30 1163 H 151.092 2.15218 -3.56118 0
M  V30 1164 H 149.968 3.20985 -4.45264 0
M  V30 1165 H 150.229 3.47298 -2.73563 0
M  V30 1166 N 149.288 1.51039 0.449983 0
M  V30 1167 C 150.535 1.63081 1.20045 0
M  V30 1168 C 150.863 0.341024 1.91487 0
M  V30 1169 O 150.118 -0.674276 1.83717 0
M  V30 1170 C 150.417 2.77556 2.25161 0
M  V30 1171 C 150.083 4.17289 1.70823 0
M  V30 1172 C 148.745 4.55305 1.55725 0
M  V30 1173 C 151.097 5.04536 1.3074 0
M  V30 1174 C 148.425 5.78287 0.989999 0
M  V30 1175 C 150.777 6.28085 0.754482 0
M  V30 1176 C 149.441 6.64885 0.590308 0
M  V30 1177 H 148.711 0.596755 0.439277 0
M  V30 1178 H 151.358 1.85037 0.49333 0
M  V30 1179 H 149.663 2.49771 3.01863 0
M  V30 1180 H 151.36 2.84073 2.83026 0
M  V30 1181 H 147.95 3.8731 1.83546 0
M  V30 1182 H 152.134 4.75782 1.41229 0
M  V30 1183 H 147.39 6.05456 0.850451 0
M  V30 1184 H 151.564 6.95038 0.435324 0
M  V30 1185 H 149.191 7.60055 0.14862 0
M  V30 1186 N 150.766 -0.704594 1.40972 0
M  V30 1187 C 151.696 -1.83124 1.44872 0
M  V30 1188 C 152.677 -1.67281 0.30838 0
M  V30 1189 O 153.862 -1.87149 0.518556 0
M  V30 1190 C 150.992 -3.21181 1.32136 0
M  V30 1191 C 149.946 -3.51714 2.43888 0
M  V30 1192 C 149.272 -4.89032 2.16222 0
M  V30 1193 C 150.572 -3.516 3.86232 0
M  V30 1194 H 152.266 -1.80117 2.39161 0
M  V30 1195 H 149.812 -0.865145 1.15114 0
M  V30 1196 H 151.765 -3.99702 1.33479 0
M  V30 1197 H 150.489 -3.24791 0.343279 0
M  V30 1198 H 149.148 -2.75539 2.41813 0
M  V30 1199 H 148.796 -4.89256 1.16778 0
M  V30 1200 H 148.496 -5.10426 2.911 0
M  V30 1201 H 150.02 -5.69873 2.19265 0
M  V30 1202 H 151.434 -4.2014 3.9007 0
M  V30 1203 H 149.831 -3.84523 4.60719 0
M  V30 1204 H 150.901 -2.50757 4.15029 0
M  V30 1205 N 152.244 -1.26651 -0.937939 0
M  V30 1206 C 153.207 -1.08546 -2.01867 0
M  V30 1207 C 154.207 -0.0327327 -1.60767 0
M  V30 1208 O 155.397 -0.276427 -1.71993 0
M  V30 1209 C 152.529 -0.651711 -3.34613 0
M  V30 1210 H 153.722 -2.04502 -2.1936 0
M  V30 1211 H 151.275 -1.09294 -1.11734 0
M  V30 1212 H 152.01 0.309696 -3.22818 0
M  V30 1213 H 151.795 -1.41189 -3.65798 0
M  V30 1214 H 153.285 -0.546973 -4.14002 0
M  V30 1215 N 153.722 1.14298 -1.08507 0
M  V30 1216 C 154.685 2.17607 -0.719711 0
M  V30 1217 C 155.685 1.58907 0.245997 0
M  V30 1218 O 156.875 1.74181 0.0254081 0
M  V30 1219 C 154.007 3.40842 -0.0627695 0
M  V30 1220 H 155.2 2.51443 -1.63452 0
M  V30 1221 H 152.753 1.28963 -0.88307 0
M  V30 1222 H 153.488 3.12587 0.863716 0
M  V30 1223 H 153.273 3.84713 -0.757504 0
M  V30 1224 H 154.763 4.17221 0.177786 0
M  V30 1225 N 155.201 0.870884 1.31352 0
M  V30 1226 C 156.448 0.482273 1.96673 0
M  V30 1227 C 156.776 -0.965638 1.68836 0
M  V30 1228 O 156.031 -1.69514 0.977937 0
M  V30 1229 C 156.33 0.687157 3.50732 0
M  V30 1230 C 155.996 2.108 3.9859 0
M  V30 1231 C 154.658 2.49656 4.1137 0
M  V30 1232 C 157.01 3.03459 4.23748 0
M  V30 1233 C 154.338 3.80412 4.46659 0
M  V30 1234 C 156.69 4.3373 4.60501 0
M  V30 1235 C 155.354 4.725 4.71487 0
M  V30 1236 H 154.624 0.176476 0.719679 0
M  V30 1237 H 157.271 1.10405 1.56471 0
M  V30 1238 H 155.576 -0.0177476 3.91796 0
M  V30 1239 H 157.273 0.366284 3.99324 0
M  V30 1240 H 153.863 1.79633 3.8914 0
M  V30 1241 H 158.047 2.74665 4.13368 0
M  V30 1242 H 153.303 4.1021 4.53362 0
M  V30 1243 H 157.477 5.05578 4.78919 0
M  V30 1244 H 155.104 5.73859 4.98588 0
M  V30 1245 N 156.679 -1.44442 0.630414 0
M  V30 1246 C 157.928 -2.01267 0.132073 0
M  V30 1247 C 158.241 -1.50172 -1.25331 0
M  V30 1248 O 159.447 -1.9912 -1.84562 0
M  V30 1249 C 157.903 -3.59422 0.185362 0
M  V30 1250 C 157.511 -4.19514 1.57201 0
M  V30 1251 C 159.255 -4.23724 -0.256553 0
M  V30 1252 C 157.162 -5.69891 1.58045 0
M  V30 1253 H 156.092 -0.752619 0.0456092 0
M  V30 1254 H 158.743 -1.65666 0.789106 0
M  V30 1255 H 157.125 -3.92318 -0.538759 0
M  V30 1256 H 158.299 -3.98156 2.31966 0
M  V30 1257 H 156.614 -3.67496 1.95795 0
M  V30 1258 H 159.211 -5.34019 -0.269767 0
M  V30 1259 H 159.554 -3.96013 -1.28372 0
M  V30 1260 H 160.087 -3.95629 0.41505 0
M  V30 1261 H 156.826 -6.02336 2.58597 0
M  V30 1262 H 156.346 -5.93373 0.875725 0
M  V30 1263 H 158.025 -6.33515 1.31408 0
M  V30 1264 N 158.157 -0.370918 -1.53173 0
M  V30 1265 C 159.087 0.464847 -2.28826 0
M  V30 1266 C 160.068 1.07936 -1.31468 0
M  V30 1267 O 161.253 1.0956 -1.60344 0
M  V30 1268 C 158.383 1.60196 -3.08147 0
M  V30 1269 C 157.337 1.11443 -4.13237 0
M  V30 1270 C 156.663 2.3422 -4.80672 0
M  V30 1271 C 157.963 0.195384 -5.21934 0
M  V30 1272 H 159.657 -0.166329 -2.98938 0
M  V30 1273 H 157.203 -0.0814359 -1.4377 0
M  V30 1274 H 159.156 2.19332 -3.59822 0
M  V30 1275 H 157.88 2.26045 -2.35735 0
M  V30 1276 H 156.539 0.545727 -3.62515 0
M  V30 1277 H 156.187 2.98537 -4.04827 0
M  V30 1278 H 155.887 2.02269 -5.51689 0
M  V30 1279 H 157.411 2.94032 -5.35143 0
M  V30 1280 H 158.825 0.694375 -5.69079 0
M  V30 1281 H 157.222 -0.0335027 -6.00091 0
M  V30 1282 H 158.292 -0.760961 -4.78892 0
M  V30 1283 N 159.635 1.57281 -0.100228 0
M  V30 1284 C 160.568 2.09976 0.893612 0
M  V30 1285 C 161.546 1.01155 1.27304 0
M  V30 1286 O 162.73 1.28687 1.37739 0
M  V30 1287 C 159.857 2.58098 2.19324 0
M  V30 1288 C 158.903 3.78626 1.96328 0
M  V30 1289 S 159.736 5.21959 1.19662 0
M  V30 1290 C 160.892 5.73435 2.50844 0
M  V30 1291 H 161.125 2.93946 0.44534 0
M  V30 1292 H 158.658 1.53985 0.113167 0
M  V30 1293 H 160.616 2.8648 2.94005 0
M  V30 1294 H 159.277 1.74344 2.61272 0
M  V30 1295 H 158.47 4.10382 2.92579 0
M  V30 1296 H 158.072 3.50763 1.29775 0
M  V30 1297 H 160.364 5.82015 3.46792 0
M  V30 1298 H 161.307 6.7185 2.23659 0
M  V30 1299 H 161.715 5.01395 2.59352 0
M  V30 1300 N 161.113 -0.173488 1.56642 0
M  V30 1301 C 162.076 -1.19859 1.95362 0
M  V30 1302 C 163.076 -1.37296 0.83704 0
M  V30 1303 O 164.266 -1.34739 1.10413 0
M  V30 1304 C 161.398 -2.56405 2.24654 0
M  V30 1305 H 162.591 -0.867062 2.87092 0
M  V30 1306 H 160.144 -0.415853 1.50666 0
M  V30 1307 H 160.879 -2.94576 1.35631 0
M  V30 1308 H 160.664 -2.45115 3.06041 0
M  V30 1309 H 162.154 -3.30287 2.5554 0
M  V30 1310 N 162.591 -1.51276 -0.441967 0
M  V30 1311 C 163.837 -1.63958 -1.19355 0
M  V30 1312 C 164.17 -0.352543 -1.90973 0
M  V30 1313 O 163.445 0.647627 -1.83401 0
M  V30 1314 C 163.728 -2.83979 -2.21422 0
M  V30 1315 C 163.581 -4.22646 -1.53918 0
M  V30 1316 C 164.9 -2.99521 -3.22451 0
M  V30 1317 H 162.019 -0.596709 -0.432559 0
M  V30 1318 H 164.661 -1.83748 -0.483398 0
M  V30 1319 H 162.811 -2.67237 -2.81987 0
M  V30 1320 H 164.483 -4.51045 -0.967256 0
M  V30 1321 H 162.726 -4.25558 -0.841615 0
M  V30 1322 H 163.397 -5.02609 -2.28229 0
M  V30 1323 H 165.873 -3.14944 -2.71937 0
M  V30 1324 H 164.749 -3.85072 -3.91166 0
M  V30 1325 H 165.01 -2.11391 -3.88287 0
M  V30 1326 N 164.069 0.697108 -1.41344 0
M  V30 1327 C 165.032 1.79281 -1.42797 0
M  V30 1328 C 166.032 1.57607 -0.318837 0
M  V30 1329 O 167.222 1.64309 -0.578642 0
M  V30 1330 C 164.354 3.17632 -1.23785 0
M  V30 1331 H 165.547 1.79385 -2.40335 0
M  V30 1332 H 163.1 0.904582 -1.27464 0
M  V30 1333 H 163.835 3.23167 -0.270814 0
M  V30 1334 H 163.62 3.34765 -2.04144 0
M  V30 1335 H 165.11 3.97617 -1.27633 0
M  V30 1336 N 165.547 1.27147 0.931209 0
M  V30 1337 C 166.795 1.13055 1.6752 0
M  V30 1338 C 167.116 -0.324791 1.92276 0
M  V30 1339 O 166.386 -1.22775 1.52654 0
M  V30 1340 H 164.966 0.415391 0.620854 0
M  V30 1341 H 167.628 1.59623 1.11833 0
M  V30 1342 H 166.724 1.65694 2.64485 0
M  V30 1343 N 167.025 -1.13721 1.09112 0
M  V30 1344 C 167.973 -2.21103 0.722219 0
M  V30 1345 C 168.967 -1.67147 -0.275374 0
M  V30 1346 O 170.173 -1.79477 -0.137176 0
M  V30 1347 H 166.548 -0.720445 0.215553 0
M  V30 1348 H 168.519 -2.49483 1.63709 0
M  V30 1349 C 167.268 -3.47352 0.15543 0
M  V30 1350 H 166.591 -3.89206 0.914246 0
M  V30 1351 H 168.031 -4.2395 -0.0647967 0
M  V30 1352 C 166.49 -3.1814 -1.10852 0
M  V30 1353 O 167.02 -3.36604 -2.19227 0
M  V30 1354 N 165.226 -2.72045 -1.02176 0
M  V30 1355 H 164.773 -2.57221 -0.139764 0
M  V30 1356 H 164.731 -2.52875 -1.8682 0
M  V30 1357 N 168.503 -0.877838 -1.30888 0
M  V30 1358 C 169.433 -0.35534 -2.3078 0
M  V30 1359 C 170.414 0.557994 -1.60687 0
M  V30 1360 O 171.599 0.473355 -1.88343 0
M  V30 1361 C 168.729 0.437221 -3.44537 0
M  V30 1362 C 167.683 -0.383715 -4.26276 0
M  V30 1363 C 167.009 0.535014 -5.32017 0
M  V30 1364 C 168.309 -1.62201 -4.96476 0
M  V30 1365 H 170.003 -1.19007 -2.74732 0
M  V30 1366 H 167.549 -0.573698 -1.32078 0
M  V30 1367 H 169.502 0.813334 -4.13477 0
M  V30 1368 H 168.226 1.30553 -2.99372 0
M  V30 1369 H 166.885 -0.741874 -3.59015 0
M  V30 1370 H 166.533 1.40083 -4.831 0
M  V30 1371 H 166.233 -0.0104211 -5.87599 0
M  V30 1372 H 167.757 0.907799 -6.03814 0
M  V30 1373 H 169.171 -1.31689 -5.5797 0
M  V30 1374 H 167.568 -2.10711 -5.61891 0
M  V30 1375 H 168.638 -2.37044 -4.23011 0
M  V30 1376 N 169.982 1.44106 -0.638065 0
M  V30 1377 C 170.912 2.33448 0.0494287 0
M  V30 1378 C 171.893 1.48606 0.827672 0
M  V30 1379 O 173.078 1.77308 0.792173 0
M  V30 1380 C 170.208 3.31771 1.02691 0
M  V30 1381 C 169.162 4.26485 0.359823 0
M  V30 1382 C 168.488 5.14729 1.44769 0
M  V30 1383 C 169.788 5.17056 -0.738296 0
M  V30 1384 H 171.482 2.91183 -0.696636 0
M  V30 1385 H 169.028 1.40014 -0.336456 0
M  V30 1386 H 170.981 3.93161 1.51666 0
M  V30 1387 H 169.705 2.7226 1.80395 0
M  V30 1388 H 168.364 3.66437 -0.10934 0
M  V30 1389 H 168.012 4.51566 2.21578 0
M  V30 1390 H 167.712 5.78913 1.00668 0
M  V30 1391 H 169.236 5.78991 1.93911 0
M  V30 1392 H 170.65 5.72342 -0.331354 0
M  V30 1393 H 169.047 5.89879 -1.10286 0
M  V30 1394 H 170.117 4.57652 -1.60258 0
M  V30 1395 N 171.46 0.379036 1.52974 0
M  V30 1396 C 172.706 -0.206727 2.01744 0
M  V30 1397 C 173.039 -1.47314 1.26539 0
M  V30 1398 O 172.314 -1.91084 0.362903 0
M  V30 1399 C 172.597 -0.485066 3.56818 0
M  V30 1400 C 172.45 0.795919 4.42702 0
M  V30 1401 C 173.769 -1.28003 4.21074 0
M  V30 1402 H 170.888 -0.0736607 0.73331 0
M  V30 1403 H 173.53 0.506581 1.83122 0
M  V30 1404 H 171.68 -1.09272 3.72816 0
M  V30 1405 H 173.352 1.43307 4.38476 0
M  V30 1406 H 171.595 1.41344 4.10127 0
M  V30 1407 H 172.266 0.555947 5.49193 0
M  V30 1408 H 174.742 -0.765867 4.08991 0
M  V30 1409 H 173.618 -1.44352 5.29579 0
M  V30 1410 H 173.879 -2.29236 3.78026 0
M  V30 1411 N 172.938 -1.57226 0.108567 0
M  V30 1412 C 174.187 -1.94008 -0.551703 0
M  V30 1413 C 174.5 -0.993442 -1.68494 0
M  V30 1414 O 175.706 -1.25551 -2.40726 0
M  V30 1415 C 174.162 -3.44763 -1.03279 0
M  V30 1416 C 173.77 -4.47943 0.0714193 0
M  V30 1417 C 175.514 -3.90483 -1.66503 0
M  V30 1418 C 173.421 -5.89865 -0.425779 0
M  V30 1419 H 172.351 -0.724206 -0.209863 0
M  V30 1420 H 175.002 -1.82547 0.186741 0
M  V30 1421 H 173.384 -3.51422 -1.82533 0
M  V30 1422 H 174.558 -4.52942 0.847365 0
M  V30 1423 H 172.873 -4.11913 0.609669 0
M  V30 1424 H 175.47 -4.93925 -2.04798 0
M  V30 1425 H 175.813 -3.29877 -2.53942 0
M  V30 1426 H 176.346 -3.86581 -0.938074 0
M  V30 1427 H 173.085 -6.54202 0.412316 0
M  V30 1428 H 172.605 -5.88309 -1.16843 0
M  V30 1429 H 174.284 -6.40844 -0.890397 0
M  V30 1430 N 174.416 0.165178 -1.56732 0
M  V30 1431 C 175.346 1.20651 -1.99914 0
M  V30 1432 C 176.327 1.45827 -0.875705 0
M  V30 1433 O 177.512 1.57057 -1.14223 0
M  V30 1434 C 174.642 2.54401 -2.36427 0
M  V30 1435 C 173.596 2.43782 -3.51787 0
M  V30 1436 C 172.922 3.82078 -3.7406 0
M  V30 1437 C 174.222 1.93732 -4.85041 0
M  V30 1438 H 175.916 0.847534 -2.87154 0
M  V30 1439 H 173.462 0.40625 -1.38151 0
M  V30 1440 H 175.415 3.27458 -2.65234 0
M  V30 1441 H 174.139 2.92098 -1.46103 0
M  V30 1442 H 172.798 1.73178 -3.23117 0
M  V30 1443 H 172.446 4.17179 -2.81017 0
M  V30 1444 H 172.146 3.7584 -4.51684 0
M  V30 1445 H 173.67 4.56712 -4.05274 0
M  V30 1446 H 175.084 2.56569 -5.12684 0
M  V30 1447 H 173.481 1.98428 -5.66345 0
M  V30 1448 H 174.551 0.891962 -4.76626 0
M  V30 1449 N 175.894 1.51508 0.433938 0
M  V30 1450 C 177.119 1.68443 1.21003 0
M  V30 1451 C 177.544 0.382636 1.84167 0
M  V30 1452 O 176.902 -0.65755 1.68956 0
M  V30 1453 C 176.95 2.80405 2.26727 0
M  V30 1454 O 176.054 2.44245 3.32292 0
M  V30 1455 H 175.395 0.561536 0.354363 0
M  V30 1456 H 177.925 1.9809 0.512024 0
M  V30 1457 H 177.935 3.0459 2.71457 0
M  V30 1458 H 176.61 3.74867 1.80132 0
M  V30 1459 H 175.187 2.30644 2.93015 0
M  V30 1460 N 177.372 -0.689602 1.41712 0
M  V30 1461 C 178.618 -1.45181 1.41599 0
M  V30 1462 C 178.951 -1.94181 0.0270081 0
M  V30 1463 O 178.226 -1.6993 -0.946265 0
M  V30 1464 C 178.509 -2.65945 2.42787 0
M  V30 1465 C 178.362 -2.22672 3.90816 0
M  V30 1466 C 179.681 -3.68149 2.41151 0
M  V30 1467 H 176.8 -0.526576 0.515642 0
M  V30 1468 H 179.442 -0.784947 1.73028 0
M  V30 1469 H 177.592 -3.2284 2.16116 0
M  V30 1470 H 179.264 -1.71058 4.28412 0
M  V30 1471 H 177.507 -1.54394 4.05395 0
M  V30 1472 H 178.178 -3.0935 4.57172 0
M  V30 1473 H 180.654 -3.2094 2.64834 0
M  V30 1474 H 179.53 -4.50248 3.13955 0
M  V30 1475 H 179.791 -4.18259 1.43221 0
M  V30 1476 N 178.85 -1.27639 -0.924453 0
M  V30 1477 C 179.813 -1.10681 -2.00705 0
M  V30 1478 C 180.813 -0.0497823 -1.60723 0
M  V30 1479 O 182.003 -0.294654 -1.7169 0
M  V30 1480 C 179.135 -0.687164 -3.33902 0
M  V30 1481 H 180.328 -2.06817 -2.17179 0
M  V30 1482 H 177.881 -1.10473 -1.10569 0
M  V30 1483 H 178.616 0.275439 -3.23128 0
M  V30 1484 H 178.401 -1.45061 -3.6428 0
M  V30 1485 H 179.891 -0.590853 -4.13399 0
M  V30 1486 N 180.328 1.1314 -1.09713 0
M  V30 1487 C 181.568 1.8613 -0.844683 0
M  V30 1488 C 181.932 1.81765 0.618491 0
M  V30 1489 O 183.133 2.50024 0.98699 0
M  V30 1490 C 181.404 3.30151 -1.36877 0
M  V30 1491 S 182.963 4.206 -1.25064 0
M  V30 1492 H 179.781 0.642056 -0.305427 0
M  V30 1493 H 182.383 1.36343 -1.4011 0
M  V30 1494 H 181.087 3.30883 -2.42786 0
M  V30 1495 H 180.618 3.85 -0.808614 0
M  V30 1496 H 182.633 4.95783 -0.203486 0
M  V30 1497 N 181.806 0.884767 1.30421 0
M  V30 1498 C 182.754 0.340869 2.30089 0
M  V30 1499 C 183.748 -0.55201 1.60154 0
M  V30 1500 O 184.954 -0.436467 1.74628 0
M  V30 1501 H 181.329 0.0915739 0.746404 0
M  V30 1502 H 183.3 1.19513 2.73421 0
M  V30 1503 C 182.049 -0.429779 3.45034 0
M  V30 1504 H 181.372 0.248024 3.9903 0
M  V30 1505 H 182.812 -0.775445 4.16849 0
M  V30 1506 C 181.271 -1.62677 2.95022 0
M  V30 1507 O 181.801 -2.72614 2.95033 0
M  V30 1508 N 180.007 -1.46387 2.51036 0
M  V30 1509 H 179.554 -0.569506 2.51226 0
M  V30 1510 H 179.512 -2.26612 2.17932 0
M  V30 1511 N 183.284 -1.43765 0.645699 0
M  V30 1512 C 184.7 -1.56509 0.312591 0
M  V30 1513 C 184.9 -1.6307 -1.18365 0
M  V30 1514 O 183.956 -1.58167 -1.96824 0
M  V30 1515 C 185.269 -2.82968 1.01733 0
M  V30 1516 C 186.817 -2.96701 0.996865 0
M  V30 1517 C 187.292 -4.25982 1.68236 0
M  V30 1518 N 188.783 -4.32829 1.64964 0
M  V30 1519 C 189.518 -5.31613 2.14885 0
M  V30 1520 N 189.014 -6.36718 2.73061 0
M  V30 1521 N 190.807 -5.23217 2.05428 0
M  V30 1522 H 182.958 -1.3775 1.61675 0
M  V30 1523 H 185.221 -0.661067 0.679481 0
M  V30 1524 H 184.927 -2.84156 2.0724 0
M  V30 1525 H 184.801 -3.72957 0.564177 0
M  V30 1526 H 187.188 -2.95058 -0.0497719 0
M  V30 1527 H 187.269 -2.08022 1.48865 0
M  V30 1528 H 186.913 -4.28386 2.72852 0
M  V30 1529 H 186.843 -5.13545 1.16529 0
M  V30 1530 H 189.334 -3.57493 1.22503 0
M  V30 1531 H 189.647 -7.08401 3.08848 0
M  V30 1532 H 187.992 -6.37362 2.77118 0
M  V30 1533 H 191.183 -4.40019 1.59689 0
M  V30 1534 H 191.356 -6.00045 2.44643 0
M  V30 1535 N 184.763 -0.387143 -1.52771 0
M  V30 1536 C 185.713 0.465942 -2.23188 0
M  V30 1537 C 186.697 1.03138 -1.23496 0
M  V30 1538 O 187.889 0.957845 -1.48843 0
M  V30 1539 C 185.018 1.59384 -3.04059 0
M  V30 1540 C 184.104 1.04024 -4.11144 0
M  V30 1541 N 184.495 0.211416 -5.05358 0
M  V30 1542 C 182.793 1.31295 -4.26237 0
M  V30 1543 C 183.494 -0.0941698 -5.81624 0
M  V30 1544 N 182.47 0.509207 -5.4121 0
M  V30 1545 H 186.272 -0.173856 -2.93385 0
M  V30 1546 H 183.786 -0.19633 -1.61209 0
M  V30 1547 H 185.783 2.21738 -3.53041 0
M  V30 1548 H 184.443 2.23648 -2.35397 0
M  V30 1549 H 185.454 -0.151151 -5.17679 0
M  V30 1550 H 182.131 1.95679 -3.68803 0
M  V30 1551 H 183.521 -0.765572 -6.67524 0
M  V30 1552 N 186.241 1.57166 -0.116904 0
M  V30 1553 C 187.171 2.18222 0.830759 0
M  V30 1554 C 188.152 1.12167 1.27877 0
M  V30 1555 O 189.337 1.40394 1.34176 0
M  V30 1556 C 186.467 2.77996 2.08172 0
M  V30 1557 C 185.421 3.89614 1.77157 0
M  V30 1558 C 184.747 4.36187 3.09265 0
M  V30 1559 C 186.047 5.1181 1.04151 0
M  V30 1560 H 187.741 2.97664 0.321992 0
M  V30 1561 H 185.287 1.4318 0.153434 0
M  V30 1562 H 187.24 3.19366 2.74924 0
M  V30 1563 H 185.964 1.9584 2.6137 0
M  V30 1564 H 184.623 3.48816 1.12796 0
M  V30 1565 H 184.271 3.50893 3.60393 0
M  V30 1566 H 183.971 5.11455 2.89288 0
M  V30 1567 H 185.495 4.80207 3.77139 0
M  V30 1568 H 186.909 5.50214 1.61052 0
M  V30 1569 H 185.306 5.92648 0.942762 0
M  V30 1570 H 186.376 4.84892 0.0279022 0
M  V30 1571 N 187.719 -0.156864 1.56817 0
M  V30 1572 C 188.651 -1.21883 1.94106 0
M  V30 1573 C 189.664 -1.3971 0.835754 0
M  V30 1574 O 190.853 -1.39457 1.11418 0
M  V30 1575 C 187.953 -2.58527 2.19127 0
M  V30 1576 C 187.126 -2.61809 3.50393 0
M  V30 1577 C 186.185 -3.7992 3.64071 0
M  V30 1578 O 185.211 -3.65249 4.36557 0
M  V30 1579 N 186.413 -4.96973 2.99997 0
M  V30 1580 H 189.178 -0.901974 2.85805 0
M  V30 1581 H 186.739 -0.346513 1.58148 0
M  V30 1582 H 188.731 -3.36034 2.25529 0
M  V30 1583 H 187.301 -2.82545 1.33742 0
M  V30 1584 H 186.521 -1.7029 3.5552 0
M  V30 1585 H 187.809 -2.61024 4.36742 0
M  V30 1586 H 187.207 -5.11794 2.41004 0
M  V30 1587 H 185.764 -5.7229 3.11974 0
M  V30 1588 N 189.197 -1.51736 -0.425897 0
M  V30 1589 C 190.425 -1.68794 -1.1965 0
M  V30 1590 C 190.84 -0.390164 -1.84725 0
M  V30 1591 O 190.197 0.632376 -1.71194 0
M  V30 1592 C 190.248 -2.81174 -2.27208 0
M  V30 1593 O 189.969 -4.05925 -1.64793 0
M  V30 1594 C 191.47 -3.09599 -3.17275 0
M  V30 1595 H 188.69 -0.566128 -0.360194 0
M  V30 1596 H 191.234 -1.98211 -0.503249 0
M  V30 1597 H 189.389 -2.54324 -2.9223 0
M  V30 1598 H 189.803 -4.68423 -2.35967 0
M  V30 1599 H 191.277 -3.91786 -3.88854 0
M  V30 1600 H 191.754 -2.22468 -3.78688 0
M  V30 1601 H 192.36 -3.38151 -2.57941 0
M  V30 1602 N 190.675 0.682077 -1.42076 0
M  V30 1603 C 191.921 1.44428 -1.42367 0
M  V30 1604 C 192.254 1.94164 -0.0373056 0
M  V30 1605 O 191.529 1.70429 0.937239 0
M  V30 1606 C 191.812 2.64654 -2.44194 0
M  V30 1607 C 191.665 2.20596 -3.91991 0
M  V30 1608 C 192.984 3.66865 -2.431 0
M  V30 1609 H 190.103 0.523834 -0.518428 0
M  V30 1610 H 192.745 0.77576 -1.73442 0
M  V30 1611 H 190.895 3.2169 -2.17826 0
M  V30 1612 H 192.567 1.68783 -4.29313 0
M  V30 1613 H 190.81 1.52242 -4.06208 0
M  V30 1614 H 191.481 3.06921 -4.58807 0
M  V30 1615 H 193.957 3.19531 -2.66532 0
M  V30 1616 H 192.833 4.48577 -3.16339 0
M  V30 1617 H 193.094 4.17493 -1.45437 0
M  V30 1618 N 192.153 1.28127 0.917671 0
M  V30 1619 C 193.381 1.17892 1.70026 0
M  V30 1620 C 193.796 -0.262958 1.8696 0
M  V30 1621 O 193.153 -1.17811 1.3938 0
M  V30 1622 C 193.204 1.86872 3.09453 0
M  V30 1623 O 192.925 3.25428 2.93306 0
M  V30 1624 C 194.426 1.8289 4.03815 0
M  V30 1625 H 191.646 0.40942 0.531617 0
M  V30 1626 H 194.19 1.69181 1.14883 0
M  V30 1627 H 192.345 1.39464 3.61426 0
M  V30 1628 H 192.759 3.59918 3.81523 0
M  V30 1629 H 194.233 2.35751 4.99125 0
M  V30 1630 H 194.71 0.800412 4.31845 0
M  V30 1631 H 195.316 2.29959 3.57769 0
M  V30 1632 N 193.631 -1.12557 1.10312 0
M  V30 1633 C 194.579 -2.20325 0.745629 0
M  V30 1634 C 195.573 -1.67429 -0.25763 0
M  V30 1635 O 196.779 -1.79612 -0.118132 0
M  V30 1636 H 193.154 -0.718118 0.223182 0
M  V30 1637 H 195.125 -2.47733 1.66346 0
M  V30 1638 C 193.874 -3.47168 0.192262 0
M  V30 1639 H 193.197 -3.88215 0.955475 0
M  V30 1640 H 194.637 -4.23995 -0.0198274 0
M  V30 1641 C 193.096 -3.19298 -1.07472 0
M  V30 1642 O 193.626 -3.3891 -2.15645 0
M  V30 1643 N 191.832 -2.73113 -0.992847 0
M  V30 1644 H 191.379 -2.57354 -0.112474 0
M  V30 1645 H 191.337 -2.54842 -1.84127 0
M  V30 1646 N 195.109 -0.891671 -1.2995 0
M  V30 1647 C 196.339 -0.527893 -1.99742 0
M  V30 1648 C 196.747 0.88979 -1.66971 0
M  V30 1649 O 196.09 1.59766 -0.906667 0
M  V30 1650 C 196.152 -0.630804 -3.53922 0
M  V30 1651 C 195.816 -2.01401 -4.10228 0
M  V30 1652 C 196.813 -2.98422 -4.25724 0
M  V30 1653 C 194.498 -2.32121 -4.45449 0
M  V30 1654 C 196.492 -4.24293 -4.75662 0
M  V30 1655 C 194.179 -3.58237 -4.95086 0
M  V30 1656 C 195.177 -4.54137 -5.10146 0
M  V30 1657 O 194.865 -5.78014 -5.58708 0
M  V30 1658 H 194.597 -0.201953 -0.645129 0
M  V30 1659 H 197.151 -1.20076 -1.66646 0
M  V30 1660 H 195.381 0.0990616 -3.86573 0
M  V30 1661 H 197.07 -0.277338 -4.04951 0
M  V30 1662 H 197.836 -2.76001 -3.98809 0
M  V30 1663 H 193.715 -1.5824 -4.32991 0
M  V30 1664 H 197.259 -4.99153 -4.87332 0
M  V30 1665 H 193.156 -3.80491 -5.21437 0
M  V30 1666 H 193.924 -5.8049 -5.77039 0
M  V30 1667 N 196.587 1.43421 -0.653314 0
M  V30 1668 C 197.834 2.01812 -0.166745 0
M  V30 1669 C 198.162 1.51535 1.21931 0
M  V30 1670 O 197.417 0.698975 1.82792 0
M  V30 1671 C 197.716 3.57176 -0.126623 0
M  V30 1672 C 197.382 4.26798 -1.45444 0
M  V30 1673 C 196.044 4.45534 -1.81805 0
M  V30 1674 C 198.396 4.66225 -2.32989 0
M  V30 1675 C 195.724 5.00961 -3.05377 0
M  V30 1676 C 198.076 5.23021 -3.55853 0
M  V30 1677 C 196.74 5.39973 -3.9241 0
M  V30 1678 H 196.01 0.738484 -0.0610162 0
M  V30 1679 H 198.657 1.71896 -0.84404 0
M  V30 1680 H 196.962 3.86634 0.634123 0
M  V30 1681 H 198.659 4.00112 0.266723 0
M  V30 1682 H 195.249 4.12561 -1.16153 0
M  V30 1683 H 199.433 4.51443 -2.06187 0
M  V30 1684 H 194.689 5.12271 -3.3375 0
M  V30 1685 H 198.863 5.52518 -4.23907 0
M  V30 1686 H 196.49 5.82687 -4.88242 0
M  V30 1687 N 198.065 0.39524 1.52563 0
M  V30 1688 C 199.314 -0.186321 2.00838 0
M  V30 1689 C 199.627 -1.47402 1.28577 0
M  V30 1690 O 200.833 -2.13599 1.67593 0
M  V30 1691 C 199.289 -0.382595 3.57861 0
M  V30 1692 C 198.897 0.892202 4.39026 0
M  V30 1693 C 200.641 -0.9202 4.14406 0
M  V30 1694 C 198.548 0.66388 5.87662 0
M  V30 1695 H 197.478 -0.0734041 0.750418 0
M  V30 1696 H 200.129 0.518552 1.76021 0
M  V30 1697 H 198.511 -1.14946 3.7895 0
M  V30 1698 H 199.685 1.66414 4.29701 0
M  V30 1699 H 198 1.35519 3.9373 0
M  V30 1700 H 200.597 -1.10683 5.23119 0
M  V30 1701 H 200.94 -1.89096 3.70875 0
M  V30 1702 H 201.473 -0.212751 3.97231 0
M  V30 1703 H 198.212 1.6058 6.35527 0
M  V30 1704 H 197.732 -0.0690193 5.9976 0
M  V30 1705 H 199.411 0.300699 6.46301 0
M  V30 1706 N 199.544 -1.57102 0.125237 0
M  V30 1707 C 200.79 -1.95697 -0.532035 0
M  V30 1708 C 201.123 -1.009 -1.6593 0
M  V30 1709 O 200.398 -0.047347 -1.94442 0
M  V30 1710 C 200.681 -3.44181 -1.05884 0
M  V30 1711 C 200.534 -4.49752 0.0654392 0
M  V30 1712 C 201.853 -3.94655 -1.9477 0
M  V30 1713 H 198.972 -0.711571 -0.191925 0
M  V30 1714 H 201.614 -1.88923 0.20206 0
M  V30 1715 H 199.764 -3.50085 -1.68442 0
M  V30 1716 H 201.436 -4.55943 0.700982 0
M  V30 1717 H 199.679 -4.27653 0.727709 0
M  V30 1718 H 200.35 -5.50924 -0.344505 0
M  V30 1719 H 202.826 -3.91094 -1.42074 0
M  V30 1720 H 201.702 -4.99057 -2.28546 0
M  V30 1721 H 201.963 -3.35718 -2.87656 0
M  V30 1722 N 201.022 0.148545 -1.56898 0
M  V30 1723 C 201.97 1.20265 -1.99096 0
M  V30 1724 C 202.964 1.44559 -0.883123 0
M  V30 1725 O 204.17 1.4487 -1.0683 0
M  V30 1726 H 200.545 0.404786 -0.63376 0
M  V30 1727 H 202.516 0.82004 -2.86911 0
M  V30 1728 C 201.265 2.52886 -2.3863 0
M  V30 1729 H 200.588 2.35021 -3.23427 0
M  V30 1730 H 202.028 3.25274 -2.7198 0
M  V30 1731 C 200.487 3.13315 -1.23837 0
M  V30 1732 O 201.017 3.98077 -0.538268 0
M  V30 1733 N 199.223 2.72742 -1.00301 0
M  V30 1734 H 198.77 2.03912 -1.5741 0
M  V30 1735 H 198.728 3.13507 -0.236838 0
M  V30 1736 N 202.5 1.5196 0.417844 0
M  V30 1737 C 203.43 1.77634 1.51554 0
M  V30 1738 C 204.411 0.626918 1.58126 0
M  V30 1739 O 205.596 0.871632 1.7354 0
M  V30 1740 C 202.726 1.91911 2.8946 0
M  V30 1741 C 201.68 3.07463 2.97743 0
M  V30 1742 C 201.006 3.06951 4.37819 0
M  V30 1743 C 202.306 4.47082 2.70027 0
M  V30 1744 H 204 2.6955 1.3032 0
M  V30 1745 H 201.546 1.29706 0.625492 0
M  V30 1746 H 203.499 2.08455 3.6623 0
M  V30 1747 H 202.223 0.966598 3.11969 0
M  V30 1748 H 200.882 2.90656 2.23416 0
M  V30 1749 H 200.53 2.09438 4.57323 0
M  V30 1750 H 200.23 3.84556 4.44286 0
M  V30 1751 H 201.754 3.25613 5.16535 0
M  V30 1752 H 203.168 4.6414 3.36522 0
M  V30 1753 H 201.565 5.2654 2.87881 0
M  V30 1754 H 202.635 4.55777 1.65514 0
M  V30 1755 N 203.978 -0.674533 1.42435 0
M  V30 1756 C 204.941 -1.76986 1.45632 0
M  V30 1757 C 205.941 -1.5708 0.343871 0
M  V30 1758 O 207.131 -1.63367 0.604709 0
M  V30 1759 C 204.263 -3.15623 1.28822 0
M  V30 1760 H 205.456 -1.75539 2.43158 0
M  V30 1761 H 203.009 -0.884189 1.28887 0
M  V30 1762 H 203.744 -3.22696 0.322193 0
M  V30 1763 H 203.529 -3.31475 2.09444 0
M  V30 1764 H 205.019 -3.95537 1.33942 0
M  V30 1765 N 205.456 -1.28612 -0.910864 0
M  V30 1766 C 206.702 -1.16106 -1.66274 0
M  V30 1767 C 207.035 0.289113 -1.92036 0
M  V30 1768 O 206.31 1.21 -1.52281 0
M  V30 1769 C 206.593 -1.96309 -3.01885 0
M  V30 1770 C 206.446 -3.49405 -2.8326 0
M  V30 1771 C 207.765 -1.78076 -4.02463 0
M  V30 1772 H 204.884 -0.423152 -0.603417 0
M  V30 1773 H 207.526 -1.57961 -1.05586 0
M  V30 1774 H 205.676 -1.60742 -3.53687 0
M  V30 1775 H 207.348 -3.94894 -2.38446 0
M  V30 1776 H 205.591 -3.74893 -2.18261 0
M  V30 1777 H 206.262 -4.00784 -3.79574 0
M  V30 1778 H 208.738 -2.0912 -3.59733 0
M  V30 1779 H 207.614 -2.36561 -4.95308 0
M  V30 1780 H 207.875 -0.733008 -4.35981 0
M  V30 1781 N 206.934 1.1197 -1.10907 0
M  V30 1782 C 207.897 2.16031 -0.765707 0
M  V30 1783 C 208.897 1.59393 0.212235 0
M  V30 1784 O 210.087 1.74196 -0.0115441 0
M  V30 1785 C 207.219 3.40632 -0.135053 0
M  V30 1786 H 208.412 2.47919 -1.68748 0
M  V30 1787 H 205.965 1.27061 -0.910226 0
M  V30 1788 H 206.7 3.14348 0.797218 0
M  V30 1789 H 206.485 3.8302 -0.838937 0
M  V30 1790 H 207.975 4.17505 0.0892469 0
M  V30 1791 N 208.412 0.89855 1.29475 0
M  V30 1792 C 209.689 0.443416 1.90508 0
M  V30 1793 C 210.069 -1.07685 1.81569 0
M  V30 1794 O 209.417 -1.9182 1.24166 0
M  V30 1795 C 209.627 0.956708 3.35631 0
M  V30 1796 C 210.975 0.999728 4.12663 0
M  V30 1797 O 211.999 0.904299 3.4453 0
M  V30 1798 O 210.858 1.14289 5.34416 0
M  V30 1799 H 207.952 0.138025 0.815401 0
M  V30 1800 H 210.498 0.98834 1.37949 0
M  V30 1801 H 209.27 2.00067 3.36287 0
M  V30 1802 H 208.893 0.391728 3.95666 0
M  V30 1803 N 209.89 -1.43072 0.660911 0
M  V30 1804 C 210.82 -2.33497 -0.0122829 0
M  V30 1805 C 211.801 -1.49903 -0.803925 0
M  V30 1806 O 212.986 -1.78546 -0.763864 0
M  V30 1807 C 210.116 -3.33363 -0.973994 0
M  V30 1808 C 209.07 -4.27003 -0.291928 0
M  V30 1809 C 208.396 -5.16967 -1.36562 0
M  V30 1810 C 209.696 -5.15816 0.820462 0
M  V30 1811 H 211.39 -2.90038 0.742873 0
M  V30 1812 H 208.936 -1.39461 0.358688 0
M  V30 1813 H 210.889 -3.95524 -1.45392 0
M  V30 1814 H 209.613 -2.75095 -1.7604 0
M  V30 1815 H 208.272 -3.66217 0.167623 0
M  V30 1816 H 207.92 -4.55034 -2.14366 0
M  V30 1817 H 207.62 -5.80441 -0.914454 0
M  V30 1818 H 209.144 -5.82003 -1.84675 0
M  V30 1819 H 210.558 -5.71742 0.422366 0
M  V30 1820 H 208.955 -5.8805 1.19656 0
M  V30 1821 H 210.025 -4.55045 1.67518 0
M  V30 1822 N 211.368 -0.403325 -1.52352 0
M  V30 1823 C 212.298 0.416205 -2.29761 0
M  V30 1824 C 213.279 1.05123 -1.33728 0
M  V30 1825 O 214.464 1.06134 -1.62632 0
M  V30 1826 C 211.594 1.53624 -3.11475 0
M  V30 1827 C 210.548 1.02653 -4.15507 0
M  V30 1828 C 209.874 2.23971 -4.85532 0
M  V30 1829 C 211.174 0.08463 -5.22231 0
M  V30 1830 H 212.868 -0.229701 -2.98518 0
M  V30 1831 H 210.414 -0.111913 -1.43564 0
M  V30 1832 H 212.367 2.1165 -3.64393 0
M  V30 1833 H 211.091 2.20994 -2.40477 0
M  V30 1834 H 209.75 0.46871 -3.63591 0
M  V30 1835 H 209.398 2.89883 -4.11068 0
M  V30 1836 H 209.098 1.90521 -5.55856 0
M  V30 1837 H 210.622 2.82614 -5.41259 0
M  V30 1838 H 212.036 0.573509 -5.70424 0
M  V30 1839 H 210.433 -0.160783 -5.99885 0
M  V30 1840 H 211.503 -0.86237 -4.7717 0
M  V30 1841 N 212.846 1.57033 -0.133567 0
M  V30 1842 C 213.776 2.1909 0.807567 0
M  V30 1843 C 214.757 1.13517 1.26681 0
M  V30 1844 O 215.942 1.41809 1.32679 0
M  V30 1845 C 213.072 2.80188 2.05212 0
M  V30 1846 C 212.026 3.91471 1.73015 0
M  V30 1847 C 211.352 4.39443 3.04622 0
M  V30 1848 C 212.652 5.12886 0.987168 0
M  V30 1849 H 214.346 2.97988 0.290403 0
M  V30 1850 H 211.892 1.43335 0.138239 0
M  V30 1851 H 213.845 3.22264 2.71521 0
M  V30 1852 H 212.569 1.98601 2.59278 0
M  V30 1853 H 211.228 3.49993 1.0909 0
M  V30 1854 H 210.876 3.54695 3.56651 0
M  V30 1855 H 210.576 5.14495 2.83847 0
M  V30 1856 H 212.1 4.8418 3.72024 0
M  V30 1857 H 213.514 5.51891 1.55208 0
M  V30 1858 H 211.911 5.93615 0.87985 0
M  V30 1859 H 212.981 4.84894 -0.0235286 0
M  V30 1860 N 214.325 -0.140222 1.56975 0
M  V30 1861 C 215.55 -0.870414 1.88251 0
M  V30 1862 C 215.975 -1.73637 0.723312 0
M  V30 1863 O 215.333 -1.78329 -0.32689 0
M  V30 1864 C 215.381 -1.69737 3.18154 0
M  V30 1865 O 214.485 -2.80229 3.02565 0
M  V30 1866 H 213.826 -0.242025 0.61832 0
M  V30 1867 H 216.356 -0.128999 2.04193 0
M  V30 1868 H 216.366 -2.09099 3.50345 0
M  V30 1869 H 215.041 -1.06152 4.02125 0
M  V30 1870 H 213.618 -2.44224 2.81796 0
M  V30 1871 N 215.803 -1.52179 -0.40978 0
M  V30 1872 C 216.766 -1.74853 -1.48186 0
M  V30 1873 C 217.766 -0.618417 -1.48433 0
M  V30 1874 O 218.956 -0.886286 -1.49969 0
M  V30 1875 C 216.088 -1.8303 -2.87598 0
M  V30 1876 H 217.281 -2.70559 -1.29374 0
M  V30 1877 H 214.834 -1.42586 -0.640233 0
M  V30 1878 H 215.569 -0.89236 -3.11781 0
M  V30 1879 H 215.354 -2.65187 -2.88822 0
M  V30 1880 H 216.844 -2.02316 -3.65319 0
M  V30 1881 N 217.281 0.66697 -1.42791 0
M  V30 1882 C 218.509 1.45505 -1.47091 0
M  V30 1883 C 218.924 1.8861 -0.0845873 0
M  V30 1884 O 218.281 1.58632 0.90234 0
M  V30 1885 C 218.332 2.69906 -2.40485 0
M  V30 1886 O 218.053 2.28608 -3.73725 0
M  V30 1887 C 219.554 3.63396 -2.53886 0
M  V30 1888 H 216.774 0.447459 -0.500022 0
M  V30 1889 H 219.318 0.818866 -1.8739 0
M  V30 1890 H 217.473 3.29696 -2.03419 0
M  V30 1891 H 217.887 3.08997 -4.23817 0
M  V30 1892 H 219.361 4.47387 -3.2334 0
M  V30 1893 H 219.838 4.09824 -1.57927 0
M  V30 1894 H 220.444 3.09495 -2.91706 0
M  V30 1895 N 218.759 1.29093 0.90403 0
M  V30 1896 C 220.005 1.16986 1.65656 0
M  V30 1897 C 220.338 -0.278925 1.92186 0
M  V30 1898 O 219.613 -1.2019 1.5292 0
M  V30 1899 C 219.896 1.97908 3.0084 0
M  V30 1900 C 219.749 3.50903 2.81403 0
M  V30 1901 C 221.068 1.80208 4.01513 0
M  V30 1902 H 218.187 0.426346 0.601164 0
M  V30 1903 H 220.829 1.58518 1.04747 0
M  V30 1904 H 218.979 1.62616 3.52829 0
M  V30 1905 H 220.651 3.96153 2.36348 0
M  V30 1906 H 218.894 3.76045 2.1627 0
M  V30 1907 H 219.565 4.02791 3.77443 0
M  V30 1908 H 222.041 2.11025 3.58619 0
M  V30 1909 H 220.917 2.39184 4.94047 0
M  V30 1910 H 221.178 0.756119 4.35586 0
M  V30 1911 N 220.237 -1.11381 1.11499 0
M  V30 1912 C 221.167 -2.19509 0.796125 0
M  V30 1913 C 222.148 -1.68458 -0.235796 0
M  V30 1914 O 223.333 -1.93947 -0.0991344 0
M  V30 1915 C 220.463 -3.46475 0.239205 0
M  V30 1916 C 219.417 -4.10744 1.20307 0
M  V30 1917 C 218.743 -5.32293 0.50683 0
M  V30 1918 C 220.043 -4.55597 2.55399 0
M  V30 1919 H 221.737 -2.46439 1.70024 0
M  V30 1920 H 219.283 -1.18446 0.818935 0
M  V30 1921 H 221.236 -4.214 0.00392006 0
M  V30 1922 H 219.96 -3.19006 -0.700206 0
M  V30 1923 H 218.619 -3.37813 1.42399 0
M  V30 1924 H 218.267 -5.01095 -0.437408 0
M  V30 1925 H 217.967 -5.76243 1.1497 0
M  V30 1926 H 219.491 -6.09956 0.280351 0
M  V30 1927 H 220.905 -5.21841 2.37391 0
M  V30 1928 H 219.302 -5.10363 3.15673 0
M  V30 1929 H 220.372 -3.69013 3.14575 0
M  V30 1930 N 221.715 -0.905404 -1.28997 0
M  V30 1931 C 223.126 -0.581953 -1.77398 0
M  V30 1932 C 223.477 0.902552 -1.74208 0
M  V30 1933 O 222.602 1.70584 -1.33154 0
M  V30 1934 C 223.197 -1.04961 -3.22131 0
M  V30 1935 C 221.756 -0.777229 -3.68288 0
M  V30 1936 C 220.903 -1.22109 -2.48967 0
M  V30 1937 H 223.854 -1.08754 -1.15578 0
M  V30 1938 H 223.875 -0.387387 -3.78523 0
M  V30 1939 H 223.387 -2.13008 -3.24421 0
M  V30 1940 H 221.488 0.290383 -3.71467 0
M  V30 1941 H 221.601 -1.37911 -4.58822 0
M  V30 1942 H 219.965 -0.639971 -2.46529 0
M  V30 1943 H 220.748 -2.30972 -2.53982 0
M  V30 1944 N 223.193 1.4272 -0.668489 0
M  V30 1945 C 224.44 2.01624 -0.18814 0
M  V30 1946 C 224.768 1.5282 1.20317 0
M  V30 1947 O 224.023 0.718323 1.8204 0
M  V30 1948 C 224.322 3.57021 -0.164499 0
M  V30 1949 C 223.988 4.25232 -1.49962 0
M  V30 1950 C 222.65 4.4358 -1.8652 0
M  V30 1951 C 225.002 4.63727 -2.37921 0
M  V30 1952 C 222.33 4.97694 -3.10674 0
M  V30 1953 C 224.682 5.19218 -3.6138 0
M  V30 1954 C 223.346 5.3578 -3.98115 0
M  V30 1955 H 222.616 0.737795 -0.0688454 0
M  V30 1956 H 225.263 1.70991 -0.862225 0
M  V30 1957 H 223.568 3.87285 0.593079 0
M  V30 1958 H 225.265 4.00372 0.224271 0
M  V30 1959 H 221.855 4.11306 -1.20522 0
M  V30 1960 H 226.039 4.4923 -2.10964 0
M  V30 1961 H 221.295 5.08702 -3.39164 0
M  V30 1962 H 225.469 5.4799 -4.29743 0
M  V30 1963 H 223.096 5.77475 -4.94395 0
M  V30 1964 N 224.671 0.411399 1.52136 0
M  V30 1965 C 225.896 -0.165538 2.06738 0
M  V30 1966 C 226.321 -1.379 1.27926 0
M  V30 1967 O 225.679 -1.78628 0.310114 0
M  V30 1968 C 225.727 -0.492124 3.57226 0
M  V30 1969 O 224.831 -1.58276 3.80818 0
M  V30 1970 H 224.172 -0.0132132 0.663869 0
M  V30 1971 H 226.702 0.585253 1.96051 0
M  V30 1972 H 226.712 -0.750104 4.01045 0
M  V30 1973 H 225.387 0.394922 4.14021 0
M  V30 1974 H 223.964 -1.31677 3.48877 0
M  V30 1975 N 226.149 -1.5696 0.141893 0
M  V30 1976 C 227.112 -2.15316 -0.785587 0
M  V30 1977 C 228.112 -1.09366 -1.1788 0
M  V30 1978 O 229.302 -1.35031 -1.10056 0
M  V30 1979 C 226.434 -2.71211 -2.06537 0
M  V30 1980 H 227.627 -2.98608 -0.278041 0
M  V30 1981 H 225.18 -1.5593 -0.107519 0
M  V30 1982 H 225.915 -1.91571 -2.6167 0
M  V30 1983 H 225.7 -3.4872 -1.79268 0
M  V30 1984 H 227.19 -3.16189 -2.72789 0
M  V30 1985 N 227.627 0.131896 -1.57047 0
M  V30 1986 C 228.855 0.856461 -1.88341 0
M  V30 1987 C 229.27 1.74042 -0.731757 0
M  V30 1988 O 228.627 1.80051 0.297945 0
M  V30 1989 C 228.678 1.70064 -3.18999 0
M  V30 1990 O 228.399 0.852278 -4.2973 0
M  V30 1991 C 229.9 2.53148 -3.63911 0
M  V30 1992 H 227.12 0.246885 -0.62393 0
M  V30 1993 H 229.664 0.120152 -2.04147 0
M  V30 1994 H 227.819 2.38984 -3.04902 0
M  V30 1995 H 228.233 1.43329 -5.04537 0
M  V30 1996 H 229.707 3.07931 -4.58129 0
M  V30 1997 H 230.184 3.29901 -2.89935 0
M  V30 1998 H 230.79 1.89492 -3.80753 0
M  V30 1999 N 229.106 1.52395 0.401703 0
M  V30 2000 C 230.039 1.70999 1.51111 0
M  V30 2001 C 231.017 0.55765 1.52738 0
M  V30 2002 O 232.201 0.785912 1.71335 0
M  V30 2003 C 229.328 1.75607 2.8962 0
M  V30 2004 C 228.374 2.97227 3.05873 0
M  V30 2005 S 229.207 4.57439 2.78405 0
M  V30 2006 C 230.363 4.64844 4.19131 0
M  V30 2007 H 230.596 2.6483 1.35102 0
M  V30 2008 H 228.129 1.42527 0.593762 0
M  V30 2009 H 230.087 1.78947 3.69443 0
M  V30 2010 H 228.748 0.828914 3.02965 0
M  V30 2011 H 227.941 2.96955 4.07227 0
M  V30 2012 H 227.543 2.91813 2.33925 0
M  V30 2013 H 229.835 4.42677 5.12877 0
M  V30 2014 H 230.778 5.66807 4.24424 0
M  V30 2015 H 231.186 3.93804 4.04448 0
M  V30 2016 N 230.584 -0.659388 1.43143 0
M  V30 2017 C 231.494 -1.80167 1.50256 0
M  V30 2018 C 232.51 -1.69571 0.390106 0
M  V30 2019 O 233.686 -1.90849 0.643319 0
M  V30 2020 C 230.751 -3.16409 1.41725 0
M  V30 2021 C 229.812 -3.38848 2.63591 0
M  V30 2022 C 229.045 -4.68591 2.55458 0
M  V30 2023 O 229.268 -5.47532 1.59891 0
M  V30 2024 O 228.202 -4.92614 3.45854 0
M  V30 2025 H 232.028 -1.77121 2.46702 0
M  V30 2026 H 229.613 -0.817092 1.25076 0
M  V30 2027 H 231.495 -3.9768 1.39387 0
M  V30 2028 H 230.17 -3.20059 0.484118 0
M  V30 2029 H 229.077 -2.57366 2.71502 0
M  V30 2030 H 230.41 -3.4004 3.55856 0
M  V30 2031 N 232.062 -1.29571 -0.897171 0
M  V30 2032 C 233.308 -1.17863 -1.65034 0
M  V30 2033 C 233.641 0.268729 -1.92332 0
M  V30 2034 O 232.916 1.19378 -1.53555 0
M  V30 2035 C 233.199 -1.995 -2.99786 0
M  V30 2036 C 233.052 -3.5239 -2.79538 0
M  V30 2037 C 234.371 -1.82335 -4.00552 0
M  V30 2038 H 231.49 -0.429528 -0.598895 0
M  V30 2039 H 234.132 -1.59072 -1.03905 0
M  V30 2040 H 232.282 -1.64485 -3.51962 0
M  V30 2041 H 233.954 -3.97401 -2.34244 0
M  V30 2042 H 232.197 -3.77187 -2.14273 0
M  V30 2043 H 232.868 -4.04787 -3.75302 0
M  V30 2044 H 235.344 -2.12924 -3.57495 0
M  V30 2045 H 234.22 -2.41801 -4.92771 0
M  V30 2046 H 234.481 -0.779209 -4.35179 0
M  V30 2047 N 233.54 1.10788 -1.12088 0
M  V30 2048 C 234.47 2.19083 -0.807755 0
M  V30 2049 C 235.451 1.6858 0.226859 0
M  V30 2050 O 236.636 1.93997 0.0888475 0
M  V30 2051 C 233.766 3.46344 -0.257576 0
M  V30 2052 C 232.72 4.101 -1.22483 0
M  V30 2053 C 232.046 5.32016 -0.535052 0
M  V30 2054 C 233.346 4.54236 -2.57811 0
M  V30 2055 H 235.04 2.45534 -1.71328 0
M  V30 2056 H 232.586 1.1801 -0.825205 0
M  V30 2057 H 234.539 4.21392 -0.0262679 0
M  V30 2058 H 233.263 3.19373 0.683278 0
M  V30 2059 H 231.922 3.37054 -1.44189 0
M  V30 2060 H 231.57 5.01319 0.410827 0
M  V30 2061 H 231.27 5.75625 -1.18024 0
M  V30 2062 H 232.794 6.09799 -0.312695 0
M  V30 2063 H 234.208 5.20575 -2.40155 0
M  V30 2064 H 232.605 5.08682 -3.18375 0
M  V30 2065 H 233.675 3.6734 -3.16528 0
M  V30 2066 N 235.018 0.912232 1.28515 0
M  V30 2067 C 236.266 0.543523 1.94654 0
M  V30 2068 C 236.587 -0.9155 1.72173 0
M  V30 2069 O 235.857 -1.64708 1.06058 0
M  V30 2070 H 234.437 0.198017 0.720277 0
M  V30 2071 H 237.099 1.16126 1.56527 0
M  V30 2072 H 236.195 0.736684 3.03281 0
M  V30 2073 N 236.496 -1.42363 0.676048 0
M  V30 2074 C 237.743 -2.01522 0.19883 0
M  V30 2075 C 238.071 -1.53456 -1.19505 0
M  V30 2076 O 237.326 -0.727967 -1.81657 0
M  V30 2077 C 237.625 -3.56929 0.183431 0
M  V30 2078 C 237.291 -4.24431 1.52215 0
M  V30 2079 C 235.953 -4.42585 1.8887 0
M  V30 2080 C 238.305 -4.62459 2.40377 0
M  V30 2081 C 235.633 -4.96039 3.13309 0
M  V30 2082 C 237.985 -5.17294 3.64129 0
M  V30 2083 C 236.649 -5.33661 4.00951 0
M  V30 2084 H 235.919 -0.737419 0.0727571 0
M  V30 2085 H 238.566 -1.70531 0.871281 0
M  V30 2086 H 236.871 -3.87594 -0.572532 0
M  V30 2087 H 238.568 -4.00486 -0.203035 0
M  V30 2088 H 235.158 -4.10661 1.22701 0
M  V30 2089 H 239.342 -4.48105 2.13343 0
M  V30 2090 H 234.598 -5.06896 3.41857 0
M  V30 2091 H 238.772 -5.45704 4.32644 0
M  V30 2092 H 236.399 -5.74845 4.9745 0
M  V30 2093 N 237.974 -0.419461 -1.51915 0
M  V30 2094 C 239.22 0.145505 -2.02879 0
M  V30 2095 C 239.575 1.41926 -1.29903 0
M  V30 2096 O 238.868 1.87383 -0.399782 0
M  V30 2097 C 239.062 0.437067 -3.54717 0
M  V30 2098 C 238.891 -0.806877 -4.42402 0
M  V30 2099 C 237.661 -1.33514 -4.87342 0
M  V30 2100 C 239.859 -1.68796 -4.85811 0
M  V30 2101 N 237.841 -2.53349 -5.59185 0
M  V30 2102 C 239.212 -2.73247 -5.56539 0
M  V30 2103 C 241.267 -1.70449 -4.67816 0
M  V30 2104 C 239.97 -3.79276 -6.11181 0
M  V30 2105 C 241.996 -2.75403 -5.23361 0
M  V30 2106 C 241.358 -3.78575 -5.9402 0
M  V30 2107 H 237.457 0.0145424 -0.781865 0
M  V30 2108 H 240.041 -0.576126 -1.85981 0
M  V30 2109 H 238.212 1.12774 -3.71667 0
M  V30 2110 H 239.944 0.99182 -3.92358 0
M  V30 2111 H 236.699 -0.891657 -4.65131 0
M  V30 2112 H 237.123 -3.14066 -5.99743 0
M  V30 2113 H 241.765 -0.920209 -4.12664 0
M  V30 2114 H 239.483 -4.58554 -6.65397 0
M  V30 2115 H 243.069 -2.77603 -5.113 0
M  V30 2116 H 241.949 -4.58453 -6.36231 0
M  V30 2117 N 239.452 1.56882 -0.150215 0
M  V30 2118 C 240.415 2.1573 0.774157 0
M  V30 2119 C 241.415 1.0999 1.17298 0
M  V30 2120 O 242.605 1.35613 1.09338 0
M  V30 2121 C 239.737 2.72302 2.05096 0
M  V30 2122 H 240.93 2.98752 0.262201 0
M  V30 2123 H 238.483 1.55985 0.099248 0
M  V30 2124 H 239.218 1.92956 2.6065 0
M  V30 2125 H 239.003 3.49665 1.77416 0
M  V30 2126 H 240.493 3.17632 2.71109 0
M  V30 2127 N 240.93 -0.123565 1.57115 0
M  V30 2128 C 242.177 -0.832153 1.84612 0
M  V30 2129 C 242.505 -1.80093 0.734627 0
M  V30 2130 O 241.76 -1.93766 -0.27442 0
M  V30 2131 C 242.059 -1.62016 3.18568 0
M  V30 2132 C 241.725 -0.796084 4.43817 0
M  V30 2133 C 240.387 -0.568816 4.77826 0
M  V30 2134 C 242.739 -0.221364 5.2073 0
M  V30 2135 C 240.067 0.243499 5.86194 0
M  V30 2136 C 242.419 0.578117 6.29953 0
M  V30 2137 C 241.083 0.815744 6.62497 0
M  V30 2138 H 240.353 -0.304507 0.675542 0
M  V30 2139 H 243 -0.0947248 1.91266 0
M  V30 2140 H 241.305 -2.42837 3.0747 0
M  V30 2141 H 243.002 -2.17231 3.37064 0
M  V30 2142 H 239.592 -0.983307 4.17168 0
M  V30 2143 H 243.776 -0.384173 4.94811 0
M  V30 2144 H 239.032 0.436871 6.09837 0
M  V30 2145 H 243.206 1.03046 6.88734 0
M  V30 2146 H 240.833 1.44701 7.46301 0
M  V30 2147 N 242.408 -1.52605 -0.393616 0
M  V30 2148 C 243.656 -1.67093 -1.13685 0
M  V30 2149 C 243.977 -0.411011 -1.90619 0
M  V30 2150 O 243.247 0.574491 -1.87287 0
M  V30 2151 H 241.827 -0.615923 -0.422668 0
M  V30 2152 H 244.489 -1.89704 -0.447039 0
M  V30 2153 H 243.585 -2.51922 -1.84232 0
M  V30 2154 N 243.887 0.651787 -1.4349 0
M  V30 2155 C 245.303 0.96762 -1.26922 0
M  V30 2156 C 245.503 2.00602 -0.189982 0
M  V30 2157 O 244.559 2.48793 0.431107 0
M  V30 2158 C 245.872 1.45052 -2.63401 0
M  V30 2159 C 247.42 1.5671 -2.70945 0
M  V30 2160 C 247.895 2.0839 -4.07845 0
M  V30 2161 N 249.386 2.1569 -4.09917 0
M  V30 2162 C 250.121 2.56804 -5.12679 0
M  V30 2163 N 249.617 2.97203 -6.25813 0
M  V30 2164 N 251.41 2.56756 -5.00033 0
M  V30 2165 H 243.561 -0.0353158 -2.12371 0
M  V30 2166 H 245.824 0.0467858 -0.946845 0
M  V30 2167 H 245.53 0.761926 -3.43348 0
M  V30 2168 H 245.404 2.42529 -2.88894 0
M  V30 2169 H 247.791 2.2467 -1.9133 0
M  V30 2170 H 247.872 0.57662 -2.49216 0
M  V30 2171 H 247.516 1.41031 -4.87927 0
M  V30 2172 H 247.446 3.08271 -4.26938 0
M  V30 2173 H 249.937 1.87237 -3.28254 0
M  V30 2174 H 250.25 3.27328 -7.00055 0
M  V30 2175 H 248.595 2.95004 -6.29283 0
M  V30 2176 H 251.786 2.24572 -4.10713 0
M  V30 2177 H 251.959 2.88475 -5.80247 0
M  V30 2178 N 245.365 1.30045 0.890287 0
M  V30 2179 C 246.328 1.15963 1.977 0
M  V30 2180 C 247.328 0.0923777 1.60534 0
M  V30 2181 O 248.518 0.340071 1.70848 0
M  V30 2182 C 245.65 0.775451 3.31963 0
M  V30 2183 H 246.843 2.12502 2.11619 0
M  V30 2184 H 244.396 1.13366 1.07601 0
M  V30 2185 H 245.131 -0.189671 3.23745 0
M  V30 2186 H 244.916 1.54668 3.60306 0
M  V30 2187 H 246.406 0.700251 4.11687 0
M  V30 2188 N 246.843 -1.10192 1.12674 0
M  V30 2189 C 248.09 -1.82205 0.883606 0
M  V30 2190 C 248.418 -1.8532 -0.590492 0
M  V30 2191 O 247.673 -1.31137 -1.45264 0
M  V30 2192 C 247.972 -3.28552 1.4067 0
M  V30 2193 C 247.638 -3.45582 2.89627 0
M  V30 2194 C 246.3 -3.49937 3.30299 0
M  V30 2195 C 248.652 -3.50768 3.85501 0
M  V30 2196 C 245.98 -3.57049 4.65546 0
M  V30 2197 C 248.332 -3.59414 5.20581 0
M  V30 2198 C 246.996 -3.62034 5.60792 0
M  V30 2199 H 246.266 -0.666735 0.323334 0
M  V30 2200 H 248.913 -1.29868 1.40736 0
M  V30 2201 H 247.218 -3.83473 0.80347 0
M  V30 2202 H 248.915 -3.82788 1.19475 0
M  V30 2203 H 245.505 -3.42871 2.57172 0
M  V30 2204 H 249.689 -3.46651 3.55171 0
M  V30 2205 H 244.945 -3.57361 4.96088 0
M  V30 2206 H 249.119 -3.62371 5.94693 0
M  V30 2207 H 246.746 -3.67298 6.6558 0
M  V30 2208 N 248.321 -0.919034 -1.28029 0
M  V30 2209 C 249.561 -0.562107 -1.96519 0
M  V30 2210 C 249.925 0.878784 -1.70708 0
M  V30 2211 O 251.126 1.34355 -2.32813 0
M  V30 2212 C 249.397 -0.868953 -3.46676 0
M  V30 2213 S 250.956 -0.619237 -4.34409 0
M  V30 2214 H 247.774 -0.2078 -0.679956 0
M  V30 2215 H 250.376 -1.18562 -1.55446 0
M  V30 2216 H 249.08 -1.91547 -3.62957 0
M  V30 2217 H 248.611 -0.234301 -3.92702 0
M  V30 2218 H 250.626 0.526995 -4.93394 0
M  V30 2219 N 249.799 1.42003 -0.683588 0
M  V30 2220 C 251.076 1.95112 -0.138075 0
M  V30 2221 C 251.456 1.62359 1.34918 0
M  V30 2222 O 250.804 0.924311 2.08971 0
M  V30 2223 C 251.014 3.46505 -0.416581 0
M  V30 2224 C 252.362 4.23254 -0.337834 0
M  V30 2225 O 253.386 3.54468 -0.35082 0
M  V30 2226 O 252.245 5.45743 -0.287596 0
M  V30 2227 H 249.339 0.826961 -0.00797996 0
M  V30 2228 H 251.885 1.51784 -0.758924 0
M  V30 2229 H 250.657 3.63582 -1.4465 0
M  V30 2230 H 250.28 3.969 0.235839 0
M  V30 2231 N 251.277 0.427512 1.51691 0
M  V30 2232 C 252.523 -0.142439 2.02299 0
M  V30 2233 C 252.856 -1.43214 1.31162 0
M  V30 2234 O 252.131 -1.89833 0.423511 0
M  V30 2235 C 252.414 -0.371301 3.58181 0
M  V30 2236 C 252.267 0.936358 4.39946 0
M  V30 2237 C 253.586 -1.14542 4.24933 0
M  V30 2238 H 250.705 -0.0502937 0.735282 0
M  V30 2239 H 253.347 0.564584 1.81418 0
M  V30 2240 H 251.497 -0.973559 3.76104 0
M  V30 2241 H 253.169 1.57184 4.33694 0
M  V30 2242 H 251.412 1.5432 4.05423 0
M  V30 2243 H 252.083 0.730388 5.47147 0
M  V30 2244 H 254.559 -0.635362 4.11221 0
M  V30 2245 H 253.435 -1.27431 5.33903 0
M  V30 2246 H 253.696 -2.17093 3.85127 0
M  V30 2247 N 252.755 -1.56801 0.158532 0
M  V30 2248 C 254.001 -1.97559 -0.483957 0
M  V30 2249 C 254.356 -1.04239 -1.61716 0
M  V30 2250 O 253.649 -0.079603 -1.91435 0
M  V30 2251 C 253.843 -3.4235 -1.02623 0
M  V30 2252 C 253.672 -4.49669 0.0528929 0
M  V30 2253 C 252.442 -5.02838 0.498234 0
M  V30 2254 C 254.64 -5.0725 0.848616 0
M  V30 2255 N 252.622 -5.93775 1.559 0
M  V30 2256 C 253.993 -5.94506 1.7596 0
M  V30 2257 C 256.048 -4.89788 0.895121 0
M  V30 2258 C 254.751 -6.66169 2.71314 0
M  V30 2259 C 256.777 -5.62161 1.83654 0
M  V30 2260 C 256.139 -6.49134 2.73503 0
M  V30 2261 H 252.238 -0.768332 -0.145566 0
M  V30 2262 H 254.822 -1.93012 0.255799 0
M  V30 2263 H 252.993 -3.47467 -1.73555 0
M  V30 2264 H 254.725 -3.70145 -1.63629 0
M  V30 2265 H 251.48 -4.73498 0.0983222 0
M  V30 2266 H 251.904 -6.43948 2.08949 0
M  V30 2267 H 256.546 -4.22255 0.21453 0
M  V30 2268 H 254.264 -7.32923 3.40367 0
M  V30 2269 H 257.85 -5.5064 1.87847 0
M  V30 2270 H 256.73 -7.04153 3.45163 0
M  V30 2271 N 254.233 0.115231 -1.57178 0
M  V30 2272 C 255.196 1.12526 -1.99676 0
M  V30 2273 C 256.196 1.34095 -0.88742 0
M  V30 2274 O 257.386 1.30548 -1.15337 0
M  V30 2275 C 254.518 2.4789 -2.34015 0
M  V30 2276 H 255.711 0.759912 -2.90113 0
M  V30 2277 H 253.264 0.359648 -1.52106 0
M  V30 2278 H 253.999 2.89339 -1.4647 0
M  V30 2279 H 253.784 2.33588 -3.14927 0
M  V30 2280 H 255.274 3.20575 -2.67622 0
M  V30 2281 N 255.711 1.52812 0.385517 0
M  V30 2282 C 256.674 1.77188 1.45386 0
M  V30 2283 C 257.674 0.641953 1.4743 0
M  V30 2284 O 258.864 0.910033 1.4854 0
M  V30 2285 C 255.996 1.87582 2.8465 0
M  V30 2286 H 257.189 2.72583 1.25054 0
M  V30 2287 H 254.742 1.43586 0.617467 0
M  V30 2288 H 255.477 0.941849 3.10322 0
M  V30 2289 H 255.262 2.69748 2.84567 0
M  V30 2290 H 256.752 2.08102 3.62054 0
M  V30 2291 N 257.189 -0.644168 1.43834 0
M  V30 2292 C 258.435 -1.40603 1.46146 0
M  V30 2293 C 258.768 -1.93997 0.0887717 0
M  V30 2294 O 258.043 -1.72854 -0.891724 0
M  V30 2295 C 258.326 -2.58086 2.51124 0
M  V30 2296 C 258.179 -2.10126 3.97702 0
M  V30 2297 C 259.498 -3.60291 2.52742 0
M  V30 2298 H 256.617 -0.509905 0.532134 0
M  V30 2299 H 259.259 -0.729502 1.75437 0
M  V30 2300 H 257.409 -3.15801 2.26278 0
M  V30 2301 H 259.081 -1.57342 4.33637 0
M  V30 2302 H 257.324 -1.41419 4.10101 0
M  V30 2303 H 257.995 -2.94649 4.66783 0
M  V30 2304 H 260.471 -3.12352 2.7491 0
M  V30 2305 H 259.347 -4.40032 3.28121 0
M  V30 2306 H 259.608 -4.1349 1.56455 0
M  V30 2307 N 258.668 -1.30515 -0.883378 0
M  V30 2308 C 259.945 -1.10086 -1.6168 0
M  V30 2309 C 260.325 0.349269 -2.08191 0
M  V30 2310 O 259.673 1.34105 -1.85008 0
M  V30 2311 C 259.883 -2.10315 -2.78511 0
M  V30 2312 C 261.231 -2.42119 -3.48803 0
M  V30 2313 O 262.255 -2.08638 -2.88702 0
M  V30 2314 O 261.114 -2.99396 -4.57192 0
M  V30 2315 H 258.208 -0.422907 -0.710689 0
M  V30 2316 H 260.754 -1.41947 -0.930015 0
M  V30 2317 H 259.526 -3.07917 -2.41459 0
M  V30 2318 H 259.149 -1.79282 -3.54886 0
M  V30 2319 N 260.146 1.09593 -1.13257 0
M  V30 2320 C 261.392 1.82003 -0.89458 0
M  V30 2321 C 261.725 1.85402 0.577906 0
M  V30 2322 O 261 1.32099 1.42759 0
M  V30 2323 C 261.283 3.28237 -1.48096 0
M  V30 2324 C 261.136 3.3312 -3.02244 0
M  V30 2325 C 262.455 4.24871 -1.14774 0
M  V30 2326 H 259.574 0.66077 -0.326424 0
M  V30 2327 H 262.216 1.28389 -1.40058 0
M  V30 2328 H 260.366 3.74024 -1.05062 0
M  V30 2329 H 262.038 2.95748 -3.54021 0
M  V30 2330 H 260.281 2.72756 -3.37323 0
M  V30 2331 H 260.952 4.3613 -3.38371 0
M  V30 2332 H 263.428 3.87361 -1.51957 0
M  V30 2333 H 262.304 5.25532 -1.58452 0
M  V30 2334 H 262.565 4.42058 -0.0611849 0
M  V30 2335 N 261.624 0.925811 1.2754 0
M  V30 2336 C 262.554 0.440748 2.29303 0
M  V30 2337 C 263.535 -0.497971 1.62648 0
M  V30 2338 O 264.72 -0.403126 1.8997 0
M  V30 2339 C 261.85 -0.309048 3.45922 0
M  V30 2340 C 260.804 0.54166 4.24559 0
M  V30 2341 C 260.13 -0.337191 5.33636 0
M  V30 2342 C 261.43 1.80516 4.90114 0
M  V30 2343 H 263.124 1.29121 2.70126 0
M  V30 2344 H 260.67 0.622323 1.29858 0
M  V30 2345 H 262.623 -0.659315 4.1621 0
M  V30 2346 H 261.347 -1.19352 3.04011 0
M  V30 2347 H 260.006 0.874609 3.56014 0
M  V30 2348 H 259.654 -1.22056 4.87966 0
M  V30 2349 H 259.354 0.228497 5.87156 0
M  V30 2350 H 260.878 -0.683072 6.06767 0
M  V30 2351 H 262.292 1.52307 5.52698 0
M  V30 2352 H 260.689 2.3142 5.53683 0
M  V30 2353 H 261.759 2.52581 4.13921 0
M  V30 2354 N 263.102 -1.41638 0.69111 0
M  V30 2355 C 264.342 -2.03166 0.224291 0
M  V30 2356 C 264.706 -1.53537 -1.15284 0
M  V30 2357 O 265.907 -2.0696 -1.71525 0
M  V30 2358 C 264.178 -3.56342 0.274758 0
M  V30 2359 S 265.737 -4.3864 -0.118669 0
M  V30 2360 H 262.555 -0.705188 0.0907263 0
M  V30 2361 H 265.157 -1.7314 0.907895 0
M  V30 2362 H 263.861 -3.89958 1.2791 0
M  V30 2363 H 263.392 -3.91063 -0.428142 0
M  V30 2364 H 265.407 -4.77549 -1.34764 0
M  V30 2365 N 264.58 -0.43555 -1.51462 0
M  V30 2366 C 265.82 0.130708 -2.03982 0
M  V30 2367 C 266.184 1.40117 -1.31268 0
M  V30 2368 O 267.385 2.04755 -1.74152 0
M  V30 2369 C 265.656 0.346102 -3.5572 0
M  V30 2370 S 267.215 0.876022 -4.29967 0
M  V30 2371 H 264.033 0.0326881 -0.710248 0
M  V30 2372 H 266.635 -0.594544 -1.8624 0
M  V30 2373 H 265.339 -0.584911 -4.0621 0
M  V30 2374 H 264.87 1.09849 -3.77752 0
M  V30 2375 H 266.885 2.15379 -4.47019 0
M  V30 2376 N 266.058 1.56714 -0.166846 0
M  V30 2377 C 267.286 2.0112 0.485644 0
M  V30 2378 C 267.701 1.04705 1.57106 0
M  V30 2379 O 267.058 0.0471923 1.82439 0
M  V30 2380 C 267.109 3.45361 1.06808 0
M  V30 2381 O 266.83 4.38092 0.0259995 0
M  V30 2382 C 268.331 4.05145 1.79924 0
M  V30 2383 H 265.551 0.65931 0.124704 0
M  V30 2384 H 268.095 2.02746 -0.267262 0
M  V30 2385 H 266.25 3.44524 1.7715 0
M  V30 2386 H 266.664 5.22519 0.455398 0
M  V30 2387 H 268.138 5.08009 2.15942 0
M  V30 2388 H 268.615 3.46982 2.69258 0
M  V30 2389 H 269.221 4.09672 1.14234 0
M  V30 2390 N 267.536 -0.106894 1.57237 0
M  V30 2391 C 268.499 -1.11466 2.0027 0
M  V30 2392 C 269.499 -1.33623 0.894519 0
M  V30 2393 O 270.689 -1.29935 1.16028 0
M  V30 2394 C 267.821 -2.46646 2.35327 0
M  V30 2395 H 269.014 -0.744516 2.90512 0
M  V30 2396 H 266.567 -0.351576 1.52295 0
M  V30 2397 H 267.302 -2.88558 1.48003 0
M  V30 2398 H 267.087 -2.31915 3.16161 0
M  V30 2399 H 268.577 -3.19151 2.69318 0
M  V30 2400 N 269.014 -1.53014 -0.377408 0
M  V30 2401 C 270.239 -1.72818 -1.14668 0
M  V30 2402 C 270.664 -0.450725 -1.8262 0
M  V30 2403 O 270.022 0.59439 -1.7128 0
M  V30 2404 C 270.07 -2.88627 -2.16164 0
M  V30 2405 O 269.174 -2.56409 -3.22998 0
M  V30 2406 H 268.515 -0.574301 -0.333278 0
M  V30 2407 H 271.045 -1.99853 -0.438152 0
M  V30 2408 H 271.055 -3.14455 -2.59966 0
M  V30 2409 H 269.73 -3.81294 -1.66095 0
M  V30 2410 H 268.307 -2.4136 -2.84253 0
M  V30 2411 N 270.492 0.636531 -1.44174 0
M  V30 2412 C 271.741 1.39213 -1.45954 0
M  V30 2413 C 272.054 1.95374 -0.0939119 0
M  V30 2414 O 273.26 2.71498 0.0107767 0
M  V30 2415 C 271.716 2.52025 -2.56927 0
M  V30 2416 C 271.324 2.024 -3.99673 0
M  V30 2417 C 273.068 3.29269 -2.67922 0
M  V30 2418 C 270.975 3.12521 -5.0208 0
M  V30 2419 H 269.905 0.523132 -0.542999 0
M  V30 2420 H 272.556 0.685349 -1.70221 0
M  V30 2421 H 270.938 3.25253 -2.25891 0
M  V30 2422 H 272.112 1.36073 -4.40251 0
M  V30 2423 H 270.427 1.37987 -3.92872 0
M  V30 2424 H 273.024 4.11352 -3.41605 0
M  V30 2425 H 273.367 3.78397 -1.73555 0
M  V30 2426 H 273.9 2.63129 -2.98342 0
M  V30 2427 H 270.639 2.68343 -5.98057 0
M  V30 2428 H 270.159 3.77507 -4.66099 0
M  V30 2429 H 271.838 3.77385 -5.25538 0
M  V30 2430 N 271.97 1.30982 0.876444 0
M  V30 2431 C 272.9 1.20668 1.99903 0
M  V30 2432 C 273.881 0.095354 1.69833 0
M  V30 2433 O 275.066 0.27885 1.92188 0
M  V30 2434 C 272.196 0.90655 3.3526 0
M  V30 2435 C 271.15 1.97675 3.79617 0
M  V30 2436 C 270.476 1.52943 5.1236 0
M  V30 2437 C 271.776 3.389 3.97422 0
M  V30 2438 H 273.47 2.14586 2.0879 0
M  V30 2439 H 271.016 1.03308 1.00317 0
M  V30 2440 H 272.969 0.821025 4.13324 0
M  V30 2441 H 271.693 -0.0682969 3.26529 0
M  V30 2442 H 270.352 2.05205 3.03787 0
M  V30 2443 H 270 0.54262 5.00065 0
M  V30 2444 H 269.7 2.24532 5.43009 0
M  V30 2445 H 271.224 1.45786 5.92941 0
M  V30 2446 H 272.638 3.34081 4.659 0
M  V30 2447 H 271.035 4.0865 4.3946 0
M  V30 2448 H 272.105 3.80163 3.01006 0
M  V30 2449 N 273.449 -1.08991 1.13837 0
M  V30 2450 C 274.674 -1.85551 0.926585 0
M  V30 2451 C 275.099 -1.80782 -0.519566 0
M  V30 2452 O 274.457 -1.18855 -1.36906 0
M  V30 2453 C 274.505 -3.31266 1.42462 0
M  V30 2454 O 273.609 -4.07822 0.612789 0
M  V30 2455 H 272.95 -0.575192 0.331738 0
M  V30 2456 H 275.48 -1.37604 1.51414 0
M  V30 2457 H 275.49 -3.82112 1.43019 0
M  V30 2458 H 274.165 -3.34052 2.47754 0
M  V30 2459 H 272.742 -3.66731 0.675463 0
M  V30 2460 N 274.927 -0.932562 -1.27047 0
M  V30 2461 C 275.857 -0.452902 -2.29066 0
M  V30 2462 C 276.838 0.489338 -1.62909 0
M  V30 2463 O 278.023 0.393046 -1.90181 0
M  V30 2464 C 275.153 0.290698 -3.46081 0
M  V30 2465 C 274.107 -0.564168 -4.24265 0
M  V30 2466 C 273.433 0.308886 -5.33807 0
M  V30 2467 C 274.733 -1.83112 -4.89149 0
M  V30 2468 H 276.427 -1.30552 -2.69437 0
M  V30 2469 H 273.973 -0.629201 -1.29526 0
M  V30 2470 H 275.926 0.637233 -4.16554 0
M  V30 2471 H 274.65 1.17738 -3.0464 0
M  V30 2472 H 273.309 -0.893477 -3.55545 0
M  V30 2473 H 272.957 1.19467 -4.88607 0
M  V30 2474 H 272.657 -0.259633 -5.87026 0
M  V30 2475 H 274.181 0.650884 -6.07121 0
M  V30 2476 H 275.595 -1.55236 -5.51883 0
M  V30 2477 H 273.992 -2.34353 -5.52448 0
M  V30 2478 H 275.062 -2.54772 -4.12576 0
M  V30 2479 N 276.405 1.4127 -0.698611 0
M  V30 2480 C 277.645 2.03044 -0.235062 0
M  V30 2481 C 278.009 1.54146 1.14468 0
M  V30 2482 O 279.21 2.07867 1.70425 0
M  V30 2483 C 277.481 3.56192 -0.293651 0
M  V30 2484 S 279.04 4.38696 0.0954053 0
M  V30 2485 H 275.858 0.704697 -0.0944648 0
M  V30 2486 H 278.46 1.72656 -0.917064 0
M  V30 2487 H 277.164 3.89274 -1.29977 0
M  V30 2488 H 276.695 3.91285 0.407397 0
M  V30 2489 H 278.71 4.78257 1.3223 0
M  V30 2490 N 277.883 0.443576 1.51229 0
M  V30 2491 C 279.111 -0.11929 2.06556 0
M  V30 2492 C 279.526 -1.35921 1.31038 0
M  V30 2493 O 278.883 -1.78675 0.371704 0
M  V30 2494 C 278.934 -0.435228 3.5887 0
M  V30 2495 O 278.655 0.755486 4.31537 0
M  V30 2496 C 280.156 -1.04808 4.30732 0
M  V30 2497 H 277.376 -0.0051584 0.67098 0
M  V30 2498 H 279.92 0.624453 1.94733 0
M  V30 2499 H 278.075 -1.12887 3.70588 0
M  V30 2500 H 278.489 0.483491 5.22267 0
M  V30 2501 H 279.963 -1.2191 5.3837 0
M  V30 2502 H 280.44 -2.03081 3.89429 0
M  V30 2503 H 281.046 -0.393637 4.23474 0
M  V30 2504 N 279.361 -1.56624 0.175154 0
M  V30 2505 C 280.61 -1.96173 -0.468921 0
M  V30 2506 C 280.923 -1.06401 -1.64128 0
M  V30 2507 O 282.129 -1.35648 -2.35185 0
M  V30 2508 C 280.585 -3.48833 -0.885633 0
M  V30 2509 C 280.193 -4.47237 0.261343 0
M  V30 2510 C 281.937 -3.97194 -1.49791 0
M  V30 2511 C 279.844 -5.9114 -0.175214 0
M  V30 2512 H 278.774 -0.732455 -0.178958 0
M  V30 2513 H 281.425 -1.81591 0.263997 0
M  V30 2514 H 279.807 -3.58848 -1.67464 0
M  V30 2515 H 280.981 -4.4894 1.03871 0
M  V30 2516 H 279.296 -4.08956 0.783827 0
M  V30 2517 H 281.893 -5.02167 -1.83665 0
M  V30 2518 H 282.236 -3.40351 -2.39722 0
M  V30 2519 H 282.769 -3.90212 -0.773267 0
M  V30 2520 H 279.508 -6.51865 0.689414 0
M  V30 2521 H 279.028 -5.92735 -0.91786 0
M  V30 2522 H 280.707 -6.44044 -0.617792 0
M  V30 2523 N 280.839 0.0985539 -1.57292 0
M  V30 2524 C 282.064 0.820196 -1.90493 0
M  V30 2525 C 282.489 1.71658 -0.769094 0
M  V30 2526 O 281.847 1.79133 0.279495 0
M  V30 2527 C 281.895 1.61242 -3.22542 0
M  V30 2528 O 280.999 2.72108 -3.09888 0
M  V30 2529 H 280.34 0.225547 -0.62452 0
M  V30 2530 H 282.87 0.0748159 -2.04463 0
M  V30 2531 H 282.88 1.99737 -3.55766 0
M  V30 2532 H 281.555 0.954535 -4.04798 0
M  V30 2533 H 280.132 2.36667 -2.88172 0
M  V30 2534 N 282.317 1.53212 0.369288 0
M  V30 2535 C 283.563 1.69466 1.11397 0
M  V30 2536 C 283.896 0.443257 1.89074 0
M  V30 2537 O 283.171 -0.559386 1.86282 0
M  V30 2538 C 283.454 2.9422 2.07621 0
M  V30 2539 C 283.307 4.29508 1.33577 0
M  V30 2540 C 284.626 3.14565 3.07794 0
M  V30 2541 H 281.745 0.616667 0.403597 0
M  V30 2542 H 284.387 1.85845 0.395179 0
M  V30 2543 H 282.537 2.80387 2.68916 0
M  V30 2544 H 284.209 4.55147 0.750955 0
M  V30 2545 H 282.452 4.29088 0.637618 0
M  V30 2546 H 283.123 5.12926 2.03989 0
M  V30 2547 H 285.599 3.2756 2.56601 0
M  V30 2548 H 284.475 4.03297 3.72348 0
M  V30 2549 H 284.736 2.29675 3.77759 0
M  V30 2550 N 283.795 -0.628877 1.44509 0
M  V30 2551 C 285.072 -1.38733 1.37886 0
M  V30 2552 C 285.452 -2.11065 0.0387008 0
M  V30 2553 O 284.8 -2.06476 -0.97878 0
M  V30 2554 C 285.01 -2.35188 2.57852 0
M  V30 2555 C 286.358 -2.9845 3.02014 0
M  V30 2556 O 287.382 -2.45513 2.58073 0
M  V30 2557 O 286.241 -3.94487 3.78209 0
M  V30 2558 H 283.335 -0.621015 0.54614 0
M  V30 2559 H 285.881 -0.653744 1.56602 0
M  V30 2560 H 284.653 -1.80855 3.46998 0
M  V30 2561 H 284.276 -3.1596 2.4136 0
M  V30 2562 N 285.273 -1.31445 -0.869486 0
M  V30 2563 C 286.689 -1.10113 -1.15531 0
M  V30 2564 C 286.889 0.128087 -2.01092 0
M  V30 2565 O 285.945 0.817276 -2.38908 0
M  V30 2566 C 287.258 -2.37291 -1.84698 0
M  V30 2567 C 288.806 -2.42906 -1.97397 0
M  V30 2568 C 289.281 -3.69967 -2.69979 0
M  V30 2569 N 290.772 -3.70864 -2.77514 0
M  V30 2570 C 291.507 -4.65875 -3.34287 0
M  V30 2571 N 291.003 -5.71242 -3.91988 0
M  V30 2572 N 292.796 -4.53394 -3.3225 0
M  V30 2573 H 284.947 -2.1028 -0.299347 0
M  V30 2574 H 287.21 -0.927683 -0.195214 0
M  V30 2575 H 286.916 -3.27078 -1.29278 0
M  V30 2576 H 286.79 -2.47125 -2.84972 0
M  V30 2577 H 289.177 -1.53588 -2.51982 0
M  V30 2578 H 289.258 -2.37036 -0.961643 0
M  V30 2579 H 288.902 -4.59652 -2.16062 0
M  V30 2580 H 288.832 -3.73103 -3.7162 0
M  V30 2581 H 291.323 -2.94697 -2.36563 0
M  V30 2582 H 291.636 -6.39817 -4.33421 0
M  V30 2583 H 289.981 -5.75015 -3.90362 0
M  V30 2584 H 293.172 -3.70252 -2.8641 0
M  V30 2585 H 293.345 -5.27617 -3.76197 0
M  V30 2586 N 286.751 1.08385 -1.14413 0
M  V30 2587 C 287.981 1.8425 -0.934644 0
M  V30 2588 C 288.389 1.81907 0.520234 0
M  V30 2589 O 287.732 1.22126 1.37226 0
M  V30 2590 C 287.794 3.32853 -1.35828 0
M  V30 2591 C 287.458 3.5893 -2.82875 0
M  V30 2592 C 288.455 3.53756 -3.80989 0
M  V30 2593 C 286.14 3.86934 -3.20293 0
M  V30 2594 C 288.134 3.76216 -5.14529 0
M  V30 2595 C 285.821 4.09047 -4.54008 0
M  V30 2596 C 286.819 4.03682 -5.50936 0
M  V30 2597 O 286.507 4.25214 -6.82238 0
M  V30 2598 H 286.239 0.588502 -0.332628 0
M  V30 2599 H 288.793 1.37792 -1.52324 0
M  V30 2600 H 287.023 3.8007 -0.713019 0
M  V30 2601 H 288.712 3.90154 -1.11957 0
M  V30 2602 H 289.478 3.32135 -3.53428 0
M  V30 2603 H 285.357 3.9023 -2.45442 0
M  V30 2604 H 288.901 3.71943 -5.90173 0
M  V30 2605 H 284.798 4.30151 -4.8129 0
M  V30 2606 H 285.566 4.42619 -6.88499 0
M  V30 2607 N 288.23 0.939286 1.26551 0
M  V30 2608 C 289.476 0.586715 1.94128 0
M  V30 2609 C 289.809 -0.8717 1.73537 0
M  V30 2610 O 289.084 -1.62339 1.07127 0
M  V30 2611 C 289.367 0.927497 3.4795 0
M  V30 2612 C 289.22 2.44052 3.77834 0
M  V30 2613 C 290.539 0.441569 4.37879 0
M  V30 2614 H 287.658 0.21463 0.705055 0
M  V30 2615 H 290.3 1.17316 1.49455 0
M  V30 2616 H 288.45 0.428431 3.8613 0
M  V30 2617 H 290.122 3.01216 3.4938 0
M  V30 2618 H 288.365 2.8848 3.23978 0
M  V30 2619 H 289.036 2.62947 4.85348 0
M  V30 2620 H 291.512 0.869448 4.06915 0
M  V30 2621 H 290.388 0.708856 5.44304 0
M  V30 2622 H 290.649 -0.658467 4.37169 0
M  V30 2623 N 289.708 -1.40897 0.706093 0
M  V30 2624 C 290.956 -2.00657 0.241054 0
M  V30 2625 C 291.277 -1.56241 -1.16678 0
M  V30 2626 O 290.547 -0.79765 -1.78926 0
M  V30 2627 H 289.127 -0.742018 0.0861308 0
M  V30 2628 H 291.789 -1.72372 0.909604 0
M  V30 2629 H 290.885 -3.10958 0.266705 0
M  V30 2630 N 291.186 -0.45159 -1.50991 0
M  V30 2631 C 292.432 0.110237 -2.025 0
M  V30 2632 C 292.765 1.41109 -1.33424 0
M  V30 2633 O 292.04 1.89135 -0.453659 0
M  V30 2634 C 292.323 0.314271 -3.58726 0
M  V30 2635 C 292.176 -1.00623 -4.38401 0
M  V30 2636 C 293.495 1.07767 -4.26702 0
M  V30 2637 H 290.614 0.0385897 -0.735989 0
M  V30 2638 H 293.256 -0.593374 -1.80497 0
M  V30 2639 H 291.406 0.913601 -3.77605 0
M  V30 2640 H 293.078 -1.64064 -4.31139 0
M  V30 2641 H 291.321 -1.6075 -4.02917 0
M  V30 2642 H 291.992 -0.817341 -5.45915 0
M  V30 2643 H 294.468 0.56986 -4.12179 0
M  V30 2644 H 293.344 1.18921 -5.35863 0
M  V30 2645 H 293.605 2.10939 -3.88532 0
M  V30 2646 N 292.664 1.56529 -0.183458 0
M  V30 2647 C 294.08 1.58664 0.172554 0
M  V30 2648 C 294.28 1.19925 1.61926 0
M  V30 2649 O 293.336 0.916534 2.35278 0
M  V30 2650 C 294.649 3.00463 -0.119262 0
M  V30 2651 C 296.197 3.12945 -0.0584396 0
M  V30 2652 C 296.672 4.56857 -0.323408 0
M  V30 2653 N 298.163 4.62403 -0.271612 0
M  V30 2654 C 298.898 5.71626 -0.450639 0
M  V30 2655 N 298.394 6.89362 -0.689384 0
M  V30 2656 N 300.187 5.60775 -0.385701 0
M  V30 2657 H 292.338 1.79994 -1.12765 0
M  V30 2658 H 294.601 0.834808 -0.449222 0
M  V30 2659 H 294.307 3.33326 -1.12192 0
M  V30 2660 H 294.181 3.72659 0.583544 0
M  V30 2661 H 296.568 2.79902 0.934805 0
M  V30 2662 H 296.649 2.4316 -0.794144 0
M  V30 2663 H 296.293 4.9061 -1.31392 0
M  V30 2664 H 296.223 5.24816 0.43305 0
M  V30 2665 H 298.714 3.77785 -0.0932256 0
M  V30 2666 H 299.027 7.68489 -0.815113 0
M  V30 2667 H 297.372 6.91196 -0.726142 0
M  V30 2668 H 300.563 4.67674 -0.199687 0
M  V30 2669 H 300.736 6.4584 -0.528646 0
M  V30 2670 N 294.142 -0.090211 1.57342 0
M  V30 2671 C 295.092 -1.11557 1.98844 0
M  V30 2672 C 296.076 -1.35503 0.867624 0
M  V30 2673 O 297.268 -1.36113 1.13148 0
M  V30 2674 C 294.397 -2.43446 2.42051 0
M  V30 2675 C 293.483 -2.22853 3.60828 0
M  V30 2676 N 293.874 -1.72141 4.75606 0
M  V30 2677 C 292.172 -2.53401 3.67021 0
M  V30 2678 C 292.873 -1.65932 5.57531 0
M  V30 2679 N 291.849 -2.11323 5.00843 0
M  V30 2680 H 295.651 -0.716499 2.85032 0
M  V30 2681 H 293.165 -0.297567 1.59651 0
M  V30 2682 H 295.162 -3.17644 2.70014 0
M  V30 2683 H 293.822 -2.84087 1.57241 0
M  V30 2684 H 294.833 -1.41268 4.98261 0
M  V30 2685 H 291.51 -2.97532 2.92884 0
M  V30 2686 H 292.9 -1.27733 6.59647 0
M  V30 2687 N 295.62 -1.53406 -0.361157 0
M  V30 2688 C 296.845 -1.74024 -1.12829 0
M  V30 2689 C 297.27 -0.470069 -1.82132 0
M  V30 2690 O 296.628 0.57619 -1.719 0
M  V30 2691 C 296.676 -2.90903 -2.13091 0
M  V30 2692 O 295.78 -2.59821 -3.20261 0
M  V30 2693 H 295.121 -0.577804 -0.327168 0
M  V30 2694 H 297.651 -2.00307 -0.41693 0
M  V30 2695 H 297.661 -3.17194 -2.56616 0
M  V30 2696 H 296.336 -3.83034 -1.62042 0
M  V30 2697 H 294.913 -2.44362 -2.81677 0
M  V30 2698 N 297.098 0.621204 -1.44841 0
M  V30 2699 C 298.028 1.74366 -1.55303 0
M  V30 2700 C 299.009 1.65199 -0.405385 0
M  V30 2701 O 300.194 1.83807 -0.626787 0
M  V30 2702 C 297.324 3.12931 -1.50637 0
M  V30 2703 C 296.278 3.36896 -2.63979 0
M  V30 2704 C 295.604 4.75594 -2.44366 0
M  V30 2705 C 296.904 3.28483 -4.06074 0
M  V30 2706 H 298.598 1.65867 -2.49256 0
M  V30 2707 H 296.144 0.796558 -1.19962 0
M  V30 2708 H 298.097 3.9124 -1.56555 0
M  V30 2709 H 296.821 3.22237 -0.532057 0
M  V30 2710 H 295.48 2.60972 -2.57467 0
M  V30 2711 H 295.128 4.81616 -1.45105 0
M  V30 2712 H 294.828 4.92586 -3.20364 0
M  V30 2713 H 296.352 5.5612 -2.52117 0
M  V30 2714 H 297.766 3.96684 -4.13902 0
M  V30 2715 H 296.163 3.57008 -4.82354 0
M  V30 2716 H 297.233 2.26133 -4.28943 0
M  V30 2717 N 298.576 1.31904 0.862503 0
M  V30 2718 C 299.523 1.20182 1.9704 0
M  V30 2719 C 300.493 0.0858247 1.65878 0
M  V30 2720 O 301.678 0.26 1.8902 0
M  V30 2721 C 298.818 0.922797 3.32533 0
M  V30 2722 C 297.931 2.12284 3.76244 0
M  V30 2723 C 297.066 1.77996 5.00491 0
M  V30 2724 C 296.105 2.94366 5.36671 0
M  V30 2725 N 295.242 2.60223 6.52095 0
M  V30 2726 H 300.082 2.14951 2.06398 0
M  V30 2727 H 297.619 1.06917 1.01031 0
M  V30 2728 H 299.577 0.741548 4.10557 0
M  V30 2729 H 298.207 0.0119227 3.22798 0
M  V30 2730 H 297.259 2.41461 2.9394 0
M  V30 2731 H 298.571 2.99357 3.98982 0
M  V30 2732 H 297.725 1.56377 5.862 0
M  V30 2733 H 296.464 0.881252 4.79672 0
M  V30 2734 H 295.469 3.16625 4.49476 0
M  V30 2735 H 296.694 3.84957 5.59451 0
M  V30 2736 H 294.64 1.72884 6.32809 0
M  V30 2737 H 294.557 3.40827 6.74814 0
M  V30 2738 H 295.825 2.42016 7.40978 0
M  V30 2739 N 300.054 -1.07777 1.14986 0
M  V30 2740 C 301.284 -1.83752 0.944402 0
M  V30 2741 C 301.692 -1.8218 -0.51058 0
M  V30 2742 O 301.035 -1.22852 -1.36576 0
M  V30 2743 C 301.097 -3.32128 1.37592 0
M  V30 2744 C 300.761 -3.57425 2.84775 0
M  V30 2745 C 301.758 -3.5173 3.8286 0
M  V30 2746 C 299.443 -3.8523 3.2234 0
M  V30 2747 C 301.437 -3.73482 5.16517 0
M  V30 2748 C 299.124 -4.06634 4.56171 0
M  V30 2749 C 300.122 -4.00754 5.53069 0
M  V30 2750 O 299.81 -4.2159 6.84483 0
M  V30 2751 H 299.542 -0.58673 0.335744 0
M  V30 2752 H 302.096 -1.36982 1.53052 0
M  V30 2753 H 300.326 -3.79686 0.733165 0
M  V30 2754 H 302.015 -3.89555 1.14024 0
M  V30 2755 H 302.781 -3.30256 3.55184 0
M  V30 2756 H 298.66 -3.88923 2.47508 0
M  V30 2757 H 302.204 -3.68808 5.92137 0
M  V30 2758 H 298.101 -4.27593 4.83564 0
M  V30 2759 H 298.869 -4.38961 6.90837 0
M  V30 2760 N 301.532 -0.945985 -1.26051 0
M  V30 2761 C 302.943 -0.638096 -1.75457 0
M  V30 2762 C 303.294 0.846672 -1.76991 0
M  V30 2763 O 302.419 1.66262 -1.38513 0
M  V30 2764 C 303.014 -1.15157 -3.18629 0
M  V30 2765 C 301.573 -0.894004 -3.65629 0
M  V30 2766 C 300.72 -1.29967 -2.44957 0
M  V30 2767 H 303.671 -1.12376 -1.1206 0
M  V30 2768 H 303.692 -0.507615 -3.77099 0
M  V30 2769 H 303.204 -2.23222 -3.1748 0
M  V30 2770 H 301.305 0.172057 -3.72203 0
M  V30 2771 H 301.418 -1.52439 -4.54202 0
M  V30 2772 H 299.782 -0.718078 -2.44368 0
M  V30 2773 H 300.565 -2.38935 -2.46505 0
M  V30 2774 N 303.011 1.40521 -0.713556 0
M  V30 2775 C 303.974 2.29098 -0.0684347 0
M  V30 2776 C 304.974 1.45268 0.689472 0
M  V30 2777 O 306.164 1.66205 0.521677 0
M  V30 2778 C 303.296 3.28446 0.913024 0
M  V30 2779 H 304.489 2.87645 -0.84855 0
M  V30 2780 H 302.042 1.48809 -0.47809 0
M  V30 2781 H 302.777 2.74913 1.72027 0
M  V30 2782 H 302.562 3.90327 0.372472 0
M  V30 2783 H 304.052 3.94777 1.36165 0
M  V30 2784 N 304.489 0.459591 1.5075 0
M  V30 2785 C 305.738 -0.100971 2.01447 0
M  V30 2786 C 306.051 -1.41816 1.34713 0
M  V30 2787 O 307.257 -2.06299 1.76502 0
M  V30 2788 C 305.713 -0.23047 3.59161 0
M  V30 2789 C 305.321 1.0776 4.34847 0
M  V30 2790 C 307.065 -0.743608 4.17936 0
M  V30 2791 C 304.972 0.91253 5.84317 0
M  V30 2792 H 303.902 -0.0415102 0.752856 0
M  V30 2793 H 306.553 0.592742 1.73663 0
M  V30 2794 H 304.935 -0.987703 3.83485 0
M  V30 2795 H 306.109 1.8449 4.22256 0
M  V30 2796 H 304.424 1.52097 3.87628 0
M  V30 2797 H 307.021 -0.883959 5.27343 0
M  V30 2798 H 307.364 -1.73196 3.78562 0
M  V30 2799 H 307.897 -0.04408 3.97776 0
M  V30 2800 H 304.636 1.87391 6.28144 0
M  V30 2801 H 304.156 0.185422 5.99513 0
M  V30 2802 H 305.835 0.574547 6.44444 0
M  V30 2803 N 305.967 -1.56429 0.191757 0
M  V30 2804 C 306.9 -2.14829 -0.76967 0
M  V30 2805 C 307.878 -1.08405 -1.2119 0
M  V30 2806 O 309.062 -1.36498 -1.30002 0
M  V30 2807 C 306.189 -2.70446 -2.03903 0
M  V30 2808 C 305.235 -3.89428 -1.7392 0
M  V30 2809 S 306.068 -5.28048 -0.890265 0
M  V30 2810 C 307.224 -5.87085 -2.16984 0
M  V30 2811 H 307.457 -2.96042 -0.273204 0
M  V30 2812 H 304.99 -1.54383 -0.0231975 0
M  V30 2813 H 306.948 -3.03134 -2.76803 0
M  V30 2814 H 305.609 -1.89281 -2.50662 0
M  V30 2815 H 304.802 -4.26742 -2.68155 0
M  V30 2816 H 304.404 -3.57732 -1.09103 0
M  V30 2817 H 306.696 -6.01244 -3.12269 0
M  V30 2818 H 307.639 -6.83747 -1.84108 0
M  V30 2819 H 308.047 -5.15663 -2.29678 0
M  V30 2820 N 307.445 0.0818655 -1.57387 0
M  V30 2821 C 308.673 0.796108 -1.9097 0
M  V30 2822 C 309.088 1.71626 -0.786757 0
M  V30 2823 O 308.445 1.80908 0.240513 0
M  V30 2824 C 308.496 1.59829 -3.24248 0
M  V30 2825 O 308.217 0.715131 -4.32224 0
M  V30 2826 C 309.718 2.41442 -3.7178 0
M  V30 2827 H 306.938 0.22691 -0.631469 0
M  V30 2828 H 309.482 0.0551439 -2.04426 0
M  V30 2829 H 307.637 2.29163 -3.12351 0
M  V30 2830 H 308.051 1.27205 -5.08841 0
M  V30 2831 H 309.525 2.932 -4.67694 0
M  V30 2832 H 310.002 3.2051 -3.00283 0
M  V30 2833 H 310.608 1.77283 -3.86589 0
M  V30 2834 N 308.923 1.53595 0.353017 0
M  V30 2835 C 309.833 1.83897 1.45667 0
M  V30 2836 C 310.849 0.728334 1.58023 0
M  V30 2837 O 312.025 1.01968 1.73679 0
M  V30 2838 C 309.09 2.03383 2.80778 0
M  V30 2839 C 308.151 3.27262 2.77845 0
M  V30 2840 C 307.384 3.45809 4.06512 0
M  V30 2841 O 307.607 2.68387 5.03314 0
M  V30 2842 O 306.541 4.39207 4.11559 0
M  V30 2843 H 310.367 2.77686 1.2298 0
M  V30 2844 H 307.952 1.39132 0.544308 0
M  V30 2845 H 309.834 2.17698 3.60812 0
M  V30 2846 H 308.509 1.12783 3.03417 0
M  V30 2847 H 307.416 3.18359 1.96465 0
M  V30 2848 H 308.749 4.17824 2.60161 0
M  V30 2849 N 310.401 -0.613514 1.45168 0
M  V30 2850 C 311.817 -0.933629 1.29443 0
M  V30 2851 C 312.017 -2.00028 0.243101 0
M  V30 2852 O 311.073 -2.49848 -0.364992 0
M  V30 2853 C 312.386 -1.38018 2.67155 0
M  V30 2854 C 313.934 -1.49471 2.75004 0
M  V30 2855 C 314.409 -1.97503 4.13227 0
M  V30 2856 N 315.9 -2.04746 4.15491 0
M  V30 2857 C 316.635 -2.43121 5.19307 0
M  V30 2858 N 316.131 -2.80506 6.33473 0
M  V30 2859 N 317.924 -2.43408 5.06664 0
M  V30 2860 H 310.075 0.0916097 2.12202 0
M  V30 2861 H 312.338 -0.0216655 0.947752 0
M  V30 2862 H 312.044 -0.670625 3.45247 0
M  V30 2863 H 311.918 -2.34784 2.95222 0
M  V30 2864 H 314.305 -2.19519 1.9722 0
M  V30 2865 H 314.386 -0.510342 2.50657 0
M  V30 2866 H 314.03 -1.28045 4.91495 0
M  V30 2867 H 313.96 -2.96843 4.34962 0
M  V30 2868 H 316.451 -1.78468 3.33103 0
M  V30 2869 H 316.764 -3.08652 7.08487 0
M  V30 2870 H 315.109 -2.78216 6.36884 0
M  V30 2871 H 318.3 -2.13604 4.16523 0
M  V30 2872 H 318.473 -2.72989 5.87691 0
M  V30 2873 N 311.879 -1.3236 -0.855495 0
M  V30 2874 C 312.826 -1.21225 -1.964 0
M  V30 2875 C 313.796 -0.0946204 -1.6583 0
M  V30 2876 O 314.981 -0.27002 -1.8888 0
M  V30 2877 C 312.121 -0.940419 -3.32039 0
M  V30 2878 C 311.234 -2.14276 -3.75113 0
M  V30 2879 C 310.369 -1.80648 -4.9954 0
M  V30 2880 C 309.408 -2.97208 -5.35102 0
M  V30 2881 N 308.545 -2.63678 -6.50706 0
M  V30 2882 H 313.385 -2.16042 -2.05255 0
M  V30 2883 H 310.922 -1.07451 -1.00463 0
M  V30 2884 H 312.88 -0.763311 -4.10158 0
M  V30 2885 H 311.51 -0.0290413 -3.22787 0
M  V30 2886 H 310.562 -2.43017 -2.92655 0
M  V30 2887 H 311.874 -3.01468 -3.97389 0
M  V30 2888 H 311.028 -1.59484 -5.85363 0
M  V30 2889 H 309.767 -0.906678 -4.79198 0
M  V30 2890 H 308.772 -3.19004 -4.47791 0
M  V30 2891 H 309.997 -3.87918 -5.57401 0
M  V30 2892 H 307.943 -1.76238 -6.31883 0
M  V30 2893 H 307.86 -3.444 -6.72997 0
M  V30 2894 H 309.128 -2.45942 -7.39684 0
M  V30 2895 N 313.357 1.07166 -1.15556 0
M  V30 2896 C 314.32 2.12589 -0.856644 0
M  V30 2897 C 315.32 1.6015 0.14444 0
M  V30 2898 O 316.51 1.7399 -0.0854163 0
M  V30 2899 C 313.642 3.39753 -0.279405 0
M  V30 2900 H 314.835 2.40539 -1.79112 0
M  V30 2901 H 312.388 1.23086 -0.963298 0
M  V30 2902 H 313.123 3.17447 0.663174 0
M  V30 2903 H 312.908 3.79117 -1.00063 0
M  V30 2904 H 314.398 4.17507 -0.0879113 0
M  V30 2905 N 314.835 0.952656 1.25548 0
M  V30 2906 C 315.798 0.475794 2.24207 0
M  V30 2907 C 316.798 -0.419428 1.55234 0
M  V30 2908 O 317.988 -0.216994 1.72843 0
M  V30 2909 C 315.12 -0.312814 3.39462 0
M  V30 2910 H 316.313 1.34779 2.67908 0
M  V30 2911 H 313.866 0.735739 1.37901 0
M  V30 2912 H 314.601 -1.20257 3.01179 0
M  V30 2913 H 314.386 0.329404 3.90714 0
M  V30 2914 H 315.876 -0.635986 4.12729 0
M  V30 2915 N 316.313 -1.40141 0.720998 0
M  V30 2916 C 317.276 -2.29058 0.0805834 0
M  V30 2917 C 318.276 -1.45632 -0.681758 0
M  V30 2918 O 319.466 -1.6648 -0.512856 0
M  V30 2919 C 316.598 -3.28925 -0.895593 0
M  V30 2920 H 317.791 -2.87191 0.863793 0
M  V30 2921 H 315.344 -1.48553 0.485975 0
M  V30 2922 H 316.079 -2.75822 -1.70566 0
M  V30 2923 H 315.864 -3.90519 -0.351766 0
M  V30 2924 H 317.354 -3.95494 -1.34069 0
M  V30 2925 N 317.792 -0.46758 -1.50504 0
M  V30 2926 C 319.041 0.0902868 -2.01498 0
M  V30 2927 C 319.354 1.411 -1.35463 0
M  V30 2928 O 320.56 2.0536 -1.77594 0
M  V30 2929 C 319.016 0.21142 -3.59278 0
M  V30 2930 C 318.624 -1.10065 -4.34269 0
M  V30 2931 C 320.368 0.721433 -4.18325 0
M  V30 2932 C 318.275 -0.943505 -5.83825 0
M  V30 2933 H 317.205 0.037517 -0.753066 0
M  V30 2934 H 319.856 -0.601943 -1.73346 0
M  V30 2935 H 318.238 0.967352 -3.84003 0
M  V30 2936 H 319.412 -1.86726 -4.21272 0
M  V30 2937 H 317.727 -1.5415 -3.86816 0
M  V30 2938 H 320.324 0.85598 -5.27804 0
M  V30 2939 H 320.667 1.71186 -3.79475 0
M  V30 2940 H 321.2 0.0229843 -3.97793 0
M  V30 2941 H 317.939 -1.90719 -6.27141 0
M  V30 2942 H 317.459 -0.217213 -5.99407 0
M  V30 2943 H 319.138 -0.608715 -6.4413 0
M  V30 2944 N 319.27 1.56325 -0.20005 0
M  V30 2945 C 320.2 2.22318 0.713916 0
M  V30 2946 C 321.181 1.18788 1.21752 0
M  V30 2947 O 322.366 1.47309 1.26545 0
M  V30 2948 C 319.496 2.88639 1.93144 0
M  V30 2949 C 318.45 3.98457 1.56255 0
M  V30 2950 C 317.776 4.51967 2.85709 0
M  V30 2951 C 319.076 5.16612 0.768747 0
M  V30 2952 H 320.77 2.98952 0.163755 0
M  V30 2953 H 318.316 1.43792 0.0773219 0
M  V30 2954 H 320.269 3.33491 2.57608 0
M  V30 2955 H 318.993 2.09419 2.50621 0
M  V30 2956 H 317.652 3.54305 0.941471 0
M  V30 2957 H 317.3 3.69503 3.41287 0
M  V30 2958 H 317 5.26071 2.6177 0
M  V30 2959 H 318.524 4.99523 3.51154 0
M  V30 2960 H 319.938 5.57977 1.3166 0
M  V30 2961 H 318.335 5.96812 0.627286 0
M  V30 2962 H 319.405 4.84358 -0.229168 0
M  V30 2963 N 320.748 -0.0735177 1.57428 0
M  V30 2964 C 321.711 -1.07192 2.02589 0
M  V30 2965 C 322.711 -1.31695 0.922661 0
M  V30 2966 O 323.901 -1.27445 1.18758 0
M  V30 2967 C 321.033 -2.41599 2.40506 0
M  V30 2968 H 322.226 -0.682727 2.92025 0
M  V30 2969 H 319.779 -0.319193 1.53006 0
M  V30 2970 H 320.514 -2.85354 1.5409 0
M  V30 2971 H 320.299 -2.25156 3.21009 0
M  V30 2972 H 321.789 -3.13367 2.76027 0
M  V30 2973 N 322.226 -1.5378 -0.344866 0
M  V30 2974 C 323.156 -1.84662 -1.42906 0
M  V30 2975 C 324.137 -0.701648 -1.54955 0
M  V30 2976 O 325.322 -0.953438 -1.69184 0
M  V30 2977 C 322.452 -2.05503 -2.79974 0
M  V30 2978 C 321.406 -3.21318 -2.82734 0
M  V30 2979 C 320.732 -3.2749 -4.22675 0
M  V30 2980 C 322.032 -4.59456 -2.48389 0
M  V30 2981 H 323.726 -2.75461 -1.17311 0
M  V30 2982 H 321.272 -1.32542 -0.562896 0
M  V30 2983 H 323.225 -2.25691 -3.55867 0
M  V30 2984 H 321.949 -1.11434 -3.07002 0
M  V30 2985 H 320.608 -3.00984 -2.09294 0
M  V30 2986 H 320.256 -2.31019 -4.4681 0
M  V30 2987 H 319.956 -4.05316 -4.25433 0
M  V30 2988 H 321.48 -3.49887 -5.00412 0
M  V30 2989 H 322.894 -4.79667 -3.13995 0
M  V30 2990 H 321.291 -5.39675 -2.62432 0
M  V30 2991 H 322.361 -4.63155 -1.4358 0
M  V30 2992 N 323.704 0.605807 -1.45491 0
M  V30 2993 C 324.634 1.72709 -1.57143 0
M  V30 2994 C 325.615 1.6476 -0.422884 0
M  V30 2995 O 326.8 1.83132 -0.646247 0
M  V30 2996 C 323.93 3.11316 -1.53948 0
M  V30 2997 C 322.884 3.34077 -2.67537 0
M  V30 2998 C 322.21 4.72975 -2.49397 0
M  V30 2999 C 323.51 3.24158 -4.09535 0
M  V30 3000 H 325.204 1.63214 -2.51001 0
M  V30 3001 H 322.75 0.78379 -1.208 0
M  V30 3002 H 324.703 3.89557 -1.60696 0
M  V30 3003 H 323.427 3.21655 -0.566205 0
M  V30 3004 H 322.086 2.58227 -2.6022 0
M  V30 3005 H 321.734 4.8005 -1.50205 0
M  V30 3006 H 321.434 4.8916 -3.25571 0
M  V30 3007 H 322.958 5.53414 -2.58002 0
M  V30 3008 H 324.372 3.92271 -4.18086 0
M  V30 3009 H 322.769 3.51872 -4.86113 0
M  V30 3010 H 323.839 2.2157 -4.31317 0
M  V30 3011 N 325.182 1.32811 0.848464 0
M  V30 3012 C 326.428 1.24917 1.60522 0
M  V30 3013 C 326.783 -0.185761 1.91501 0
M  V30 3014 O 326.076 -1.12524 1.55077 0
M  V30 3015 C 326.27 2.04831 2.92881 0
M  V30 3016 C 326.099 3.55949 2.74828 0
M  V30 3017 C 324.869 4.25277 2.72887 0
M  V30 3018 C 327.067 4.50476 2.48145 0
M  V30 3019 N 325.049 5.62408 2.46111 0
M  V30 3020 C 326.42 5.75427 2.30832 0
M  V30 3021 C 328.475 4.39665 2.33664 0
M  V30 3022 C 327.178 6.90789 2.00508 0
M  V30 3023 C 329.204 5.54833 2.04731 0
M  V30 3024 C 328.566 6.78787 1.88223 0
M  V30 3025 H 324.665 0.512279 0.590842 0
M  V30 3026 H 327.249 1.67246 0.996839 0
M  V30 3027 H 325.42 1.64837 3.51686 0
M  V30 3028 H 327.152 1.88782 3.57971 0
M  V30 3029 H 323.907 3.77456 2.86049 0
M  V30 3030 H 324.331 6.3467 2.35634 0
M  V30 3031 H 328.973 3.44477 2.45144 0
M  V30 3032 H 326.691 7.85984 1.87765 0
M  V30 3033 H 330.277 5.48398 1.94295 0
M  V30 3034 H 329.157 7.66396 1.66155 0
M  V30 3035 N 326.66 -1.06551 1.16123 0
M  V30 3036 C 327.906 -1.79567 0.94252 0
M  V30 3037 C 328.239 -1.86869 -0.528547 0
M  V30 3038 O 327.514 -1.35838 -1.39206 0
M  V30 3039 C 327.797 -3.24195 1.56747 0
M  V30 3040 C 327.65 -3.24989 3.10969 0
M  V30 3041 C 328.969 -4.21678 1.25998 0
M  V30 3042 H 326.088 -0.651883 0.343828 0
M  V30 3043 H 328.73 -1.2463 1.43413 0
M  V30 3044 H 326.88 -3.71107 1.14942 0
M  V30 3045 H 328.552 -2.86258 3.61737 0
M  V30 3046 H 326.795 -2.63716 3.44436 0
M  V30 3047 H 327.466 -4.27005 3.49815 0
M  V30 3048 H 329.942 -3.83196 1.62174 0
M  V30 3049 H 328.818 -5.21146 1.7233 0
M  V30 3050 H 329.079 -4.4174 0.178367 0
M  V30 3051 N 328.138 -0.959301 -1.25041 0
M  V30 3052 C 329.384 -0.617525 -1.9317 0
M  V30 3053 C 329.717 0.843981 -1.74902 0
M  V30 3054 O 328.992 1.60615 -1.09696 0
M  V30 3055 C 329.275 -0.982736 -3.46431 0
M  V30 3056 C 329.128 -2.50032 -3.73904 0
M  V30 3057 C 330.447 -0.511176 -4.37121 0
M  V30 3058 H 327.566 -0.22582 -0.701552 0
M  V30 3059 H 330.208 -1.19679 -1.4757 0
M  V30 3060 H 328.358 -0.489806 -3.854 0
M  V30 3061 H 330.03 -3.06737 -3.44544 0
M  V30 3062 H 328.273 -2.93598 -3.19348 0
M  V30 3063 H 328.944 -2.70635 -4.81103 0
M  V30 3064 H 331.42 -0.934075 -4.0548 0
M  V30 3065 H 330.296 -0.795361 -5.43107 0
M  V30 3066 H 330.557 0.588834 -4.38161 0
M  V30 3067 N 329.616 1.39756 -0.72842 0
M  V30 3068 C 330.579 2.29012 -0.0927297 0
M  V30 3069 C 331.579 1.45992 0.674025 0
M  V30 3070 O 332.769 1.66749 0.50402 0
M  V30 3071 C 329.901 3.29396 0.878137 0
M  V30 3072 H 331.094 2.86729 -0.879011 0
M  V30 3073 H 328.647 1.48293 -0.493847 0
M  V30 3074 H 329.382 2.76722 1.69101 0
M  V30 3075 H 329.167 3.907 0.331051 0
M  V30 3076 H 330.657 3.96199 1.3197 0
M  V30 3077 N 331.094 0.475555 1.50254 0
M  V30 3078 C 332.024 -0.30611 2.31485 0
M  V30 3079 C 333.005 -0.986228 1.38591 0
M  V30 3080 O 334.19 -0.982541 1.67511 0
M  V30 3081 C 331.32 -1.38588 3.1845 0
M  V30 3082 C 330.274 -0.827115 4.19932 0
M  V30 3083 C 329.6 -2.00551 4.95665 0
M  V30 3084 C 330.9 0.16463 5.2204 0
M  V30 3085 H 332.594 0.371866 2.97082 0
M  V30 3086 H 330.14 0.180282 1.42867 0
M  V30 3087 H 332.093 -1.94023 3.74076 0
M  V30 3088 H 330.817 -2.09269 2.50747 0
M  V30 3089 H 329.476 -0.294702 3.65414 0
M  V30 3090 H 329.124 -2.6994 4.2443 0
M  V30 3091 H 328.824 -1.63784 5.64313 0
M  V30 3092 H 330.348 -2.56468 5.54127 0
M  V30 3093 H 331.762 -0.300699 5.72511 0
M  V30 3094 H 330.159 0.446813 5.98434 0
M  V30 3095 H 331.229 1.08905 4.72512 0
M  V30 3096 N 332.573 -1.56217 0.208337 0
M  V30 3097 C 333.819 -1.98242 -0.427552 0
M  V30 3098 C 334.152 -1.09554 -1.60348 0
M  V30 3099 O 333.427 -0.15035 -1.93918 0
M  V30 3100 C 333.71 -3.4931 -0.874907 0
M  V30 3101 C 333.563 -4.48773 0.303751 0
M  V30 3102 C 334.882 -4.04424 -1.73577 0
M  V30 3103 H 332.001 -0.720744 -0.153936 0
M  V30 3104 H 334.643 -1.87586 0.30192 0
M  V30 3105 H 332.793 -3.58522 -1.49648 0
M  V30 3106 H 334.465 -4.51586 0.941682 0
M  V30 3107 H 332.708 -4.23194 0.953375 0
M  V30 3108 H 333.379 -5.51976 -0.0519883 0
M  V30 3109 H 335.855 -3.98075 -1.21143 0
M  V30 3110 H 334.731 -5.1047 -2.01771 0
M  V30 3111 H 334.992 -3.50494 -2.69456 0
M  V30 3112 N 334.051 0.0651679 -1.57465 0
M  V30 3113 C 335.297 0.764193 -1.87851 0
M  V30 3114 C 335.63 1.76889 -0.801495 0
M  V30 3115 O 334.905 1.93594 0.187528 0
M  V30 3116 C 335.188 1.46625 -3.28897 0
M  V30 3117 C 335.041 0.477515 -4.47258 0
M  V30 3118 C 336.36 2.4095 -3.68281 0
M  V30 3119 H 333.479 0.276351 -0.683227 0
M  V30 3120 H 336.121 0.0272868 -1.8998 0
M  V30 3121 H 334.271 2.09438 -3.27212 0
M  V30 3122 H 335.943 -0.145922 -4.61069 0
M  V30 3123 H 334.186 -0.206576 -4.33308 0
M  V30 3124 H 334.857 1.0065 -5.42746 0
M  V30 3125 H 337.333 1.88209 -3.71102 0
M  V30 3126 H 336.209 2.87072 -4.67847 0
M  V30 3127 H 336.47 3.26049 -2.98571 0
M  V30 3128 N 335.529 1.53961 0.336706 0
M  V30 3129 C 336.754 1.75797 1.10046 0
M  V30 3130 C 337.179 0.498985 1.81361 0
M  V30 3131 O 336.537 -0.548769 1.72795 0
M  V30 3132 C 336.585 2.94257 2.08436 0
M  V30 3133 O 335.689 2.64883 3.16087 0
M  V30 3134 H 335.03 0.582936 0.317934 0
M  V30 3135 H 337.56 2.00945 0.38501 0
M  V30 3136 H 337.57 3.21237 2.51537 0
M  V30 3137 H 336.245 3.85564 1.55927 0
M  V30 3138 H 334.822 2.48812 2.77753 0
M  V30 3139 N 337.007 -0.598083 1.45811 0
M  V30 3140 C 338.253 -1.35882 1.50545 0
M  V30 3141 C 338.586 -1.93616 0.150445 0
M  V30 3142 O 337.861 -1.75604 -0.83628 0
M  V30 3143 C 338.144 -2.49966 2.59208 0
M  V30 3144 C 337.997 -1.97367 4.04186 0
M  V30 3145 C 339.316 -3.52068 2.64076 0
M  V30 3146 H 336.435 -0.492717 0.548087 0
M  V30 3147 H 339.077 -0.673319 1.77669 0
M  V30 3148 H 337.227 -3.08443 2.3621 0
M  V30 3149 H 338.899 -1.43466 4.38423 0
M  V30 3150 H 337.142 -1.283 4.14393 0
M  V30 3151 H 337.813 -2.79649 4.75921 0
M  V30 3152 H 340.289 -3.03448 2.84708 0
M  V30 3153 H 339.165 -4.2937 3.41954 0
M  V30 3154 H 339.426 -4.08304 1.69531 0
M  V30 3155 N 338.485 -1.33259 -0.841409 0
M  V30 3156 C 339.733 -1.24326 -1.59334 0
M  V30 3157 C 340.054 0.191564 -1.94057 0
M  V30 3158 O 339.324 1.11967 -1.60749 0
M  V30 3159 H 337.904 -0.457174 -0.590763 0
M  V30 3160 H 340.566 -1.66947 -1.00571 0
M  V30 3161 H 339.662 -1.8352 -2.52442 0
M  V30 3162 N 339.963 1.05934 -1.16686 0
M  V30 3163 C 341.374 1.60263 -0.957745 0
M  V30 3164 C 341.725 1.89789 0.49745 0
M  V30 3165 O 340.85 1.67401 1.37135 0
M  V30 3166 C 341.445 2.91172 -1.73218 0
M  V30 3167 C 340.004 3.42188 -1.56794 0
M  V30 3168 C 339.151 2.16028 -1.73859 0
M  V30 3169 H 342.102 0.888392 -1.31504 0
M  V30 3170 H 342.123 3.60744 -1.21014 0
M  V30 3171 H 341.635 2.6965 -2.79124 0
M  V30 3172 H 339.736 3.68762 -0.533437 0
M  V30 3173 H 339.849 4.17273 -2.35414 0
M  V30 3174 H 338.213 2.26426 -1.16633 0
M  V30 3175 H 338.996 1.96985 -2.81161 0
M  V30 3176 N 341.441 0.965919 1.2453 0
M  V30 3177 C 342.371 0.513476 2.27784 0
M  V30 3178 C 343.352 -0.445974 1.6415 0
M  V30 3179 O 344.537 -0.342485 1.91156 0
M  V30 3180 C 341.667 -0.198839 3.4673 0
M  V30 3181 C 340.621 0.676456 4.2262 0
M  V30 3182 C 339.947 -0.167248 5.34438 0
M  V30 3183 C 341.247 1.96017 4.84123 0
M  V30 3184 H 342.941 1.3765 2.65881 0
M  V30 3185 H 340.487 0.663321 1.27813 0
M  V30 3186 H 342.44 -0.526567 4.18097 0
M  V30 3187 H 341.164 -1.0962 3.07654 0
M  V30 3188 H 339.823 0.98743 3.53052 0
M  V30 3189 H 339.471 -1.0647 4.91603 0
M  V30 3190 H 339.171 0.415181 5.86131 0
M  V30 3191 H 340.695 -0.489688 6.08633 0
M  V30 3192 H 342.109 1.69814 5.47573 0
M  V30 3193 H 340.506 2.48918 5.4604 0
M  V30 3194 H 341.576 2.65622 4.05676 0
M  V30 3195 N 342.919 -1.39368 0.735821 0
M  V30 3196 C 343.849 -2.33234 0.111506 0
M  V30 3197 C 344.83 -1.53954 -0.723334 0
M  V30 3198 O 346.015 -1.82344 -0.668147 0
M  V30 3199 C 343.145 -3.38057 -0.795917 0
M  V30 3200 C 342.099 -4.2795 -0.065172 0
M  V30 3201 C 341.425 -5.23479 -1.08967 0
M  V30 3202 C 342.725 -5.10741 1.09273 0
M  V30 3203 H 344.419 -2.85692 0.895571 0
M  V30 3204 H 341.965 -1.37364 0.432109 0
M  V30 3205 H 343.918 -4.02675 -1.24221 0
M  V30 3206 H 342.642 -2.8404 -1.61211 0
M  V30 3207 H 341.301 -3.64813 0.361511 0
M  V30 3208 H 340.949 -4.65758 -1.89944 0
M  V30 3209 H 340.649 -5.84472 -0.605489 0
M  V30 3210 H 342.173 -5.90974 -1.53565 0
M  V30 3211 H 343.587 -5.68699 0.724841 0
M  V30 3212 H 341.984 -5.8088 1.50659 0
M  V30 3213 H 343.054 -4.45525 1.91404 0
M  V30 3214 N 344.397 -0.483516 -1.5 0
M  V30 3215 C 345.645 0.067027 -2.01989 0
M  V30 3216 C 345.966 1.3909 -1.36671 0
M  V30 3217 O 345.236 1.88978 -0.516152 0
M  V30 3218 H 343.816 0.0277606 -0.746484 0
M  V30 3219 H 346.478 -0.636773 -1.84204 0
M  V30 3220 H 345.574 0.209484 -3.11396 0
M  V30 3221 N 345.875 1.56104 -0.216619 0
M  V30 3222 C 347.121 1.99219 0.410301 0
M  V30 3223 C 347.476 1.10169 1.57735 0
M  V30 3224 O 346.769 0.150598 1.91007 0
M  V30 3225 C 346.963 3.45923 0.898464 0
M  V30 3226 C 346.792 4.49163 -0.219748 0
M  V30 3227 C 345.562 5.00642 -0.684516 0
M  V30 3228 C 347.76 5.03751 -1.03629 0
M  V30 3229 N 345.742 5.87579 -1.7783 0
M  V30 3230 C 347.113 5.87566 -1.97904 0
M  V30 3231 C 349.168 4.86128 -1.07629 0
M  V30 3232 C 347.871 6.5564 -2.95851 0
M  V30 3233 C 349.897 5.54958 -2.04392 0
M  V30 3234 C 349.259 6.38536 -2.97407 0
M  V30 3235 H 345.358 0.773206 0.11695 0
M  V30 3236 H 347.942 1.9193 -0.327258 0
M  V30 3237 H 346.113 3.53669 1.6054 0
M  V30 3238 H 347.845 3.75963 1.49779 0
M  V30 3239 H 344.6 4.72807 -0.27399 0
M  V30 3240 H 345.024 6.3575 -2.32705 0
M  V30 3241 H 349.666 4.21168 -0.371099 0
M  V30 3242 H 347.384 7.19785 -3.67335 0
M  V30 3243 H 350.97 5.43289 -2.08154 0
M  V30 3244 H 349.85 6.90858 -3.71059 0
M  V30 3245 N 347.353 -0.0568162 1.57498 0
M  V30 3246 C 348.3 -1.06591 2.04712 0
M  V30 3247 C 349.27 -1.3758 0.930644 0
M  V30 3248 O 350.455 -1.48392 1.19935 0
M  V30 3249 C 347.595 -2.3701 2.50839 0
M  V30 3250 C 346.708 -2.12421 3.76167 0
M  V30 3251 C 345.843 -3.36511 4.11015 0
M  V30 3252 C 344.882 -3.07353 5.2934 0
M  V30 3253 N 344.019 -4.23816 5.59754 0
M  V30 3254 H 348.859 -0.65631 2.90683 0
M  V30 3255 H 346.396 -0.312481 1.43743 0
M  V30 3256 H 348.354 -3.13175 2.7564 0
M  V30 3257 H 346.984 -2.75744 1.67825 0
M  V30 3258 H 346.036 -1.2688 3.58616 0
M  V30 3259 H 347.348 -1.86894 4.62463 0
M  V30 3260 H 346.502 -4.21062 4.36797 0
M  V30 3261 H 345.241 -3.65128 3.23315 0
M  V30 3262 H 344.246 -2.212 5.03339 0
M  V30 3263 H 345.471 -2.80043 6.1867 0
M  V30 3264 H 343.417 -4.52436 4.75014 0
M  V30 3265 H 343.334 -4.01614 6.40501 0
M  V30 3266 H 344.602 -5.0932 5.90096 0
M  V30 3267 N 348.832 -1.54138 -0.328536 0
M  V30 3268 C 349.742 -1.86192 -1.42723 0
M  V30 3269 C 350.758 -0.753382 -1.56844 0
M  V30 3270 O 351.934 -1.04718 -1.72035 0
M  V30 3271 C 348.999 -2.07824 -2.77507 0
M  V30 3272 C 348.06 -3.31641 -2.72603 0
M  V30 3273 C 347.293 -3.52232 -4.00959 0
M  V30 3274 O 347.516 -2.7636 -4.9898 0
M  V30 3275 O 346.45 -4.45699 -4.0452 0
M  V30 3276 H 350.276 -2.79608 -1.18547 0
M  V30 3277 H 347.861 -1.3998 -0.522104 0
M  V30 3278 H 349.743 -2.23411 -3.57303 0
M  V30 3279 H 348.418 -1.17596 -3.01584 0
M  V30 3280 H 347.325 -3.21444 -1.91376 0
M  V30 3281 H 348.658 -4.2191 -2.53481 0
M  V30 3282 N 350.31 0.590341 -1.46126 0
M  V30 3283 C 351.721 1.17243 -1.45296 0
M  V30 3284 C 352.072 1.95281 -0.189723 0
M  V30 3285 O 351.197 2.04502 0.707674 0
M  V30 3286 C 351.792 2.13284 -2.6324 0
M  V30 3287 C 350.351 2.66832 -2.65476 0
M  V30 3288 C 349.498 1.42557 -2.3785 0
M  V30 3289 H 352.449 0.378692 -1.54116 0
M  V30 3290 H 352.47 2.96619 -2.38323 0
M  V30 3291 H 351.982 1.56459 -3.55165 0
M  V30 3292 H 350.083 3.27548 -1.77603 0
M  V30 3293 H 350.196 3.10088 -3.65215 0
M  V30 3294 H 348.56 1.72107 -1.87753 0
M  V30 3295 H 349.343 0.875741 -3.31942 0
M  V30 3296 N 351.788 1.33704 0.83433 0
M  V30 3297 C 353.034 1.25603 1.59222 0
M  V30 3298 C 353.367 -0.176659 1.93395 0
M  V30 3299 O 352.642 -1.11915 1.59076 0
M  V30 3300 C 352.925 2.13576 2.89926 0
M  V30 3301 C 352.778 3.65326 2.62406 0
M  V30 3302 C 354.097 2.01238 3.91397 0
M  V30 3303 H 351.216 0.457613 0.577719 0
M  V30 3304 H 353.858 1.63848 0.961972 0
M  V30 3305 H 352.008 1.8109 3.43713 0
M  V30 3306 H 353.68 4.08124 2.15017 0
M  V30 3307 H 351.923 3.8698 1.96033 0
M  V30 3308 H 352.594 4.22232 3.55562 0
M  V30 3309 H 355.07 2.29738 3.46929 0
M  V30 3310 H 353.946 2.65036 4.80673 0
M  V30 3311 H 354.207 0.985951 4.30966 0
M  V30 3312 N 353.266 -1.05314 1.17247 0
M  V30 3313 C 354.677 -1.59753 0.96623 0
M  V30 3314 C 355.028 -1.9005 -0.487378 0
M  V30 3315 O 354.153 -1.68126 -1.36245 0
M  V30 3316 C 354.748 -2.90249 1.74759 0
M  V30 3317 C 353.307 -3.41352 1.58606 0
M  V30 3318 C 352.454 -2.15103 1.75002 0
M  V30 3319 H 355.405 -0.881406 1.31973 0
M  V30 3320 H 355.426 -3.60097 1.22925 0
M  V30 3321 H 354.938 -2.68166 2.8055 0
M  V30 3322 H 353.039 -3.68474 0.552985 0
M  V30 3323 H 353.152 -4.16019 2.37624 0
M  V30 3324 H 351.516 -2.25804 1.17833 0
M  V30 3325 H 352.299 -1.95491 2.82202 0
M  V30 3326 N 354.744 -0.972509 -1.24016 0
M  V30 3327 C 356.155 -0.67517 -1.74064 0
M  V30 3328 C 356.506 0.808939 -1.78747 0
M  V30 3329 O 355.631 1.63286 -1.42009 0
M  V30 3330 C 356.226 -1.21889 -3.16115 0
M  V30 3331 C 354.785 -0.971358 -3.6365 0
M  V30 3332 C 353.932 -1.35134 -2.42145 0
M  V30 3333 H 356.883 -1.14727 -1.09651 0
M  V30 3334 H 356.904 -0.587489 -3.75937 0
M  V30 3335 H 356.416 -2.29906 -3.12674 0
M  V30 3336 H 354.517 0.0930686 -3.72484 0
M  V30 3337 H 354.63 -1.62039 -4.50866 0
M  V30 3338 H 352.994 -0.769751 -2.4279 0
M  V30 3339 H 353.777 -2.4411 -2.41381 0
M  V30 3340 N 356.222 1.38976 -0.743202 0
M  V30 3341 C 357.499 1.94351 -0.220705 0
M  V30 3342 C 357.879 1.67935 1.2791 0
M  V30 3343 O 357.227 1.01211 2.04862 0
M  V30 3344 C 357.437 3.44426 -0.563171 0
M  V30 3345 C 358.785 4.2144 -0.517046 0
M  V30 3346 O 359.809 3.52661 -0.500846 0
M  V30 3347 O 358.668 5.44032 -0.518806 0
M  V30 3348 H 355.762 0.825879 -0.043047 0
M  V30 3349 H 358.308 1.48429 -0.822618 0
M  V30 3350 H 357.08 3.5712 -1.59941 0
M  V30 3351 H 356.703 3.97543 0.0672883 0
M  V30 3352 N 357.7 0.491464 1.49741 0
M  V30 3353 C 358.61 -0.296835 2.32715 0
M  V30 3354 C 359.626 -0.976536 1.44013 0
M  V30 3355 O 360.802 -0.960023 1.77047 0
M  V30 3356 C 357.867 -1.35288 3.19215 0
M  V30 3357 C 356.928 -0.687632 4.23757 0
M  V30 3358 C 356.161 -1.69336 5.06123 0
M  V30 3359 O 356.384 -2.92219 4.89861 0
M  V30 3360 O 355.318 -1.25394 5.88693 0
M  V30 3361 H 359.144 0.382048 3.01287 0
M  V30 3362 H 356.729 0.252953 1.47243 0
M  V30 3363 H 358.611 -1.96411 3.72828 0
M  V30 3364 H 357.286 -2.01487 2.53347 0
M  V30 3365 H 356.193 -0.0369159 3.74082 0
M  V30 3366 H 357.526 -0.0682566 4.92153 0
M  V30 3367 N 359.178 -1.55987 0.224894 0
M  V30 3368 C 360.594 -1.59066 -0.130426 0
M  V30 3369 C 360.794 -1.24176 -1.5869 0
M  V30 3370 O 359.85 -0.978592 -2.32766 0
M  V30 3371 C 361.163 -3.00042 0.198883 0
M  V30 3372 C 362.711 -3.1268 0.141391 0
M  V30 3373 C 363.186 -4.55839 0.444422 0
M  V30 3374 N 364.677 -4.6152 0.394115 0
M  V30 3375 C 365.412 -5.70231 0.602038 0
M  V30 3376 N 364.908 -6.87291 0.871914 0
M  V30 3377 N 366.701 -5.59555 0.534245 0
M  V30 3378 H 358.852 -1.76941 1.17497 0
M  V30 3379 H 361.115 -0.822604 0.471197 0
M  V30 3380 H 360.821 -3.30234 1.2099 0
M  V30 3381 H 360.695 -3.74075 -0.484535 0
M  V30 3382 H 363.082 -2.82283 -0.860265 0
M  V30 3383 H 363.163 -2.40969 0.858335 0
M  V30 3384 H 362.807 -4.86954 1.44353 0
M  V30 3385 H 362.737 -5.2578 -0.293752 0
M  V30 3386 H 365.228 -3.77405 0.193356 0
M  V30 3387 H 365.541 -7.66058 1.01858 0
M  V30 3388 H 363.886 -6.89028 0.909145 0
M  V30 3389 H 367.077 -4.6698 0.323612 0
M  V30 3390 H 367.25 -6.44211 0.699693 0
M  V30 3391 N 360.656 0.0484629 -1.57525 0
M  V30 3392 C 361.903 0.743125 -1.88372 0
M  V30 3393 C 362.231 1.76383 -0.819715 0
M  V30 3394 O 361.486 1.94855 0.181659 0
M  V30 3395 C 361.785 1.46632 -3.25935 0
M  V30 3396 C 361.451 0.583427 -4.4711 0
M  V30 3397 C 360.113 0.340191 -4.79996 0
M  V30 3398 C 362.465 -0.0273345 -5.21193 0
M  V30 3399 C 359.793 -0.522903 -5.84365 0
M  V30 3400 C 362.145 -0.878017 -6.26477 0
M  V30 3401 C 360.809 -1.1309 -6.5785 0
M  V30 3402 H 360.079 0.271929 -0.689301 0
M  V30 3403 H 362.726 0.00336166 -1.915 0
M  V30 3404 H 361.031 2.2789 -3.18706 0
M  V30 3405 H 362.728 2.00902 -3.47044 0
M  V30 3406 H 359.318 0.783151 -4.21384 0
M  V30 3407 H 363.502 0.147654 -4.9608 0
M  V30 3408 H 358.758 -0.727335 -6.07058 0
M  V30 3409 H 362.932 -1.35789 -6.83033 0
M  V30 3410 H 360.559 -1.80144 -7.38547 0
M  V30 3411 N 362.134 1.5431 0.320358 0
M  V30 3412 C 363.374 1.74395 1.0661 0
M  V30 3413 C 363.738 0.508602 1.85141 0
M  V30 3414 O 364.939 0.586856 2.62316 0
M  V30 3415 C 363.21 2.98619 1.96371 0
M  V30 3416 S 364.769 3.39621 2.77854 0
M  V30 3417 H 361.587 0.613204 0.359863 0
M  V30 3418 H 364.189 1.9249 0.341727 0
M  V30 3419 H 362.893 3.86673 1.3752 0
M  V30 3420 H 362.424 2.83055 2.73209 0
M  V30 3421 H 364.439 2.95172 3.98858 0
M  V30 3422 N 363.613 -0.582584 1.46437 0
M  V30 3423 C 364.861 -1.33814 1.51453 0
M  V30 3424 C 365.182 -1.94277 0.167792 0
M  V30 3425 O 364.452 -1.78566 -0.805677 0
M  V30 3426 H 363.032 -0.496838 0.557818 0
M  V30 3427 H 365.694 -0.682281 1.82568 0
M  V30 3428 H 364.79 -2.14479 2.26728 0
M  V30 3429 N 365.091 -1.34144 -0.827227 0
M  V30 3430 C 366.34 -1.25602 -1.5782 0
M  V30 3431 C 366.653 0.173445 -1.94829 0
M  V30 3432 O 367.859 0.380984 -2.68814 0
M  V30 3433 C 366.315 -2.20151 -2.84713 0
M  V30 3434 C 365.923 -3.68331 -2.55021 0
M  V30 3435 C 367.667 -2.20508 -3.62735 0
M  V30 3436 C 365.574 -4.54762 -3.78082 0
M  V30 3437 H 364.504 -0.466573 -0.592306 0
M  V30 3438 H 367.155 -1.59283 -0.911116 0
M  V30 3439 H 365.537 -1.79417 -3.53023 0
M  V30 3440 H 366.711 -4.17577 -1.94849 0
M  V30 3441 H 365.026 -3.7038 -1.90283 0
M  V30 3442 H 367.623 -2.82306 -4.54101 0
M  V30 3443 H 367.966 -1.20322 -3.98533 0
M  V30 3444 H 368.499 -2.59664 -3.01362 0
M  V30 3445 H 365.238 -5.55867 -3.47407 0
M  V30 3446 H 364.758 -4.10254 -4.37552 0
M  V30 3447 H 366.437 -4.69153 -4.45538 0
M  V30 3448 N 366.569 1.04691 -1.17803 0
M  V30 3449 C 367.797 1.81446 -0.99423 0
M  V30 3450 C 368.212 1.83174 0.457459 0
M  V30 3451 O 367.569 1.26265 1.31771 0
M  V30 3452 C 367.62 3.27334 -1.5341 0
M  V30 3453 O 367.341 3.25798 -2.92895 0
M  V30 3454 C 368.842 4.20759 -1.39559 0
M  V30 3455 H 366.062 0.571599 -0.351447 0
M  V30 3456 H 368.606 1.31982 -1.56208 0
M  V30 3457 H 366.761 3.74052 -1.00815 0
M  V30 3458 H 367.175 4.17144 -3.17949 0
M  V30 3459 H 368.649 5.21084 -1.82141 0
M  V30 3460 H 369.126 4.37856 -0.343394 0
M  V30 3461 H 369.732 3.79901 -1.91195 0
M  V30 3462 N 368.047 0.979072 1.23499 0
M  V30 3463 C 368.957 0.526431 2.28617 0
M  V30 3464 C 369.973 -0.418126 1.68901 0
M  V30 3465 O 371.149 -0.288372 1.99325 0
M  V30 3466 C 368.214 -0.165235 3.46306 0
M  V30 3467 C 367.275 0.82056 4.21385 0
M  V30 3468 C 366.508 0.161807 5.33455 0
M  V30 3469 O 366.731 -1.04742 5.60701 0
M  V30 3470 O 365.665 0.859708 5.95729 0
M  V30 3471 H 369.491 1.4006 2.69475 0
M  V30 3472 H 367.076 0.746643 1.29405 0
M  V30 3473 H 368.958 -0.553287 4.17752 0
M  V30 3474 H 367.633 -1.01419 3.07402 0
M  V30 3475 H 366.54 1.25929 3.52268 0
M  V30 3476 H 367.873 1.63828 4.64135 0
M  V30 3477 N 369.525 -1.3858 0.750561 0
M  V30 3478 C 370.435 -2.34278 0.122825 0
M  V30 3479 C 371.451 -1.59116 -0.704131 0
M  V30 3480 O 372.627 -1.91326 -0.628987 0
M  V30 3481 C 369.692 -3.38221 -0.762086 0
M  V30 3482 C 368.753 -4.29227 0.078896 0
M  V30 3483 C 367.986 -5.28205 -0.763874 0
M  V30 3484 O 368.209 -5.34112 -2.00201 0
M  V30 3485 O 367.143 -6.01618 -0.18428 0
M  V30 3486 H 370.969 -2.89649 0.913088 0
M  V30 3487 H 368.554 -1.40374 0.511417 0
M  V30 3488 H 370.436 -4.01872 -1.26793 0
M  V30 3489 H 369.111 -2.85211 -1.5309 0
M  V30 3490 H 368.018 -3.68747 0.630621 0
M  V30 3491 H 369.351 -4.85484 0.810289 0
M  V30 3492 N 371.003 -0.499398 -1.49478 0
M  V30 3493 C 371.966 0.268838 -2.27618 0
M  V30 3494 C 372.966 0.895383 -1.33565 0
M  V30 3495 O 374.156 0.760164 -1.56739 0
M  V30 3496 C 371.288 1.38559 -3.11471 0
M  V30 3497 H 372.481 -0.416812 -2.96989 0
M  V30 3498 H 370.034 -0.254313 -1.54217 0
M  V30 3499 H 370.769 2.10544 -2.46661 0
M  V30 3500 H 370.554 0.941797 -3.80621 0
M  V30 3501 H 372.044 1.92678 -3.70493 0
M  V30 3502 N 372.481 1.55866 -0.233164 0
M  V30 3503 C 373.729 1.9821 0.394593 0
M  V30 3504 C 374.05 1.12234 1.59463 0
M  V30 3505 O 373.32 0.201981 1.94856 0
M  V30 3506 H 371.9 0.732034 0.148778 0
M  V30 3507 H 374.562 1.92107 -0.32876 0
M  V30 3508 H 373.658 3.03845 0.713063 0
M  V30 3509 N 373.959 -0.0401083 1.57549 0
M  V30 3510 C 375.189 -0.744115 1.92734 0
M  V30 3511 C 375.597 -1.70005 0.830348 0
M  V30 3512 O 374.94 -1.82576 -0.20286 0
M  V30 3513 C 375.002 -1.56516 3.2364 0
M  V30 3514 C 374.666 -0.7752 4.50377 0
M  V30 3515 C 375.663 -0.0803326 5.19838 0
M  V30 3516 C 373.348 -0.733002 4.96923 0
M  V30 3517 C 375.342 0.646154 6.34116 0
M  V30 3518 C 373.029 -0.00276321 6.111 0
M  V30 3519 C 374.027 0.685585 6.7955 0
M  V30 3520 O 373.715 1.40399 7.91545 0
M  V30 3521 H 373.447 -0.214861 0.640945 0
M  V30 3522 H 376.001 -0.00503675 2.05399 0
M  V30 3523 H 374.231 -2.3478 3.07271 0
M  V30 3524 H 375.92 -2.15076 3.44234 0
M  V30 3525 H 376.686 -0.104035 4.84888 0
M  V30 3526 H 372.565 -1.25827 4.43496 0
M  V30 3527 H 376.109 1.18398 6.87479 0
M  V30 3528 H 372.006 0.0229012 6.45496 0
M  V30 3529 H 372.774 1.31653 8.07843 0
M  V30 3530 N 375.437 -1.54477 -0.31217 0
M  V30 3531 C 376.4 -1.83923 -1.36766 0
M  V30 3532 C 377.4 -0.711563 -1.44199 0
M  V30 3533 O 378.59 -0.979866 -1.44029 0
M  V30 3534 C 375.722 -2.0095 -2.75376 0
M  V30 3535 H 376.915 -2.78239 -1.11906 0
M  V30 3536 H 374.468 -1.46369 -0.548257 0
M  V30 3537 H 375.203 -1.08883 -3.05475 0
M  V30 3538 H 374.988 -2.83018 -2.71373 0
M  V30 3539 H 376.478 -2.2514 -3.51713 0
M  V30 3540 N 376.915 0.57481 -1.46744 0
M  V30 3541 C 378.161 1.3347 -1.52688 0
M  V30 3542 C 378.494 1.93353 -0.181229 0
M  V30 3543 O 377.769 1.76912 0.808237 0
M  V30 3544 C 378.052 2.45811 -2.63152 0
M  V30 3545 C 377.905 1.90912 -4.07275 0
M  V30 3546 C 379.224 3.47822 -2.69644 0
M  V30 3547 H 376.343 0.483935 -0.555856 0
M  V30 3548 H 378.985 0.644968 -1.78718 0
M  V30 3549 H 377.135 3.04646 -2.41088 0
M  V30 3550 H 378.807 1.36473 -4.4065 0
M  V30 3551 H 377.05 1.21691 -4.16382 0
M  V30 3552 H 377.721 2.72042 -4.80309 0
M  V30 3553 H 380.197 2.9888 -2.895 0
M  V30 3554 H 379.073 4.23876 -3.48742 0
M  V30 3555 H 379.334 4.05555 -1.76005 0
M  V30 3556 N 378.394 1.34581 0.820102 0
M  V30 3557 C 379.641 1.27096 1.57648 0
M  V30 3558 C 379.969 -0.158317 1.93855 0
M  V30 3559 O 379.224 -1.12028 1.60463 0
M  V30 3560 C 379.523 2.10997 2.8847 0
M  V30 3561 C 379.189 3.59966 2.71543 0
M  V30 3562 C 377.851 4.00575 2.66634 0
M  V30 3563 C 380.203 4.54548 2.55021 0
M  V30 3564 C 377.531 5.33953 2.43128 0
M  V30 3565 C 379.883 5.88109 2.33047 0
M  V30 3566 C 378.547 6.27878 2.26552 0
M  V30 3567 H 377.817 0.465078 0.576874 0
M  V30 3568 H 380.464 1.6635 0.948671 0
M  V30 3569 H 378.769 1.6458 3.55557 0
M  V30 3570 H 380.466 2.0255 3.46084 0
M  V30 3571 H 377.056 3.27733 2.76205 0
M  V30 3572 H 381.24 4.24069 2.57835 0
M  V30 3573 H 376.496 5.63781 2.3656 0
M  V30 3574 H 380.67 6.60985 2.19251 0
M  V30 3575 H 378.297 7.31162 2.081 0
M  V30 3576 N 379.872 -1.04064 1.18357 0
M  V30 3577 C 381.097 -1.81454 1.00445 0
M  V30 3578 C 381.522 -1.82823 -0.442423 0
M  V30 3579 O 380.88 -1.24555 -1.31741 0
M  V30 3580 C 380.928 -3.24925 1.56384 0
M  V30 3581 O 380.032 -4.04856 0.785209 0
M  V30 3582 H 379.373 -0.560604 0.355835 0
M  V30 3583 H 381.903 -1.31059 1.57114 0
M  V30 3584 H 381.913 -3.75702 1.59097 0
M  V30 3585 H 380.588 -3.23244 2.61699 0
M  V30 3586 H 379.165 -3.63537 0.830399 0
M  V30 3587 N 381.35 -0.985608 -1.22978 0
M  V30 3588 C 382.575 -0.675254 -1.961 0
M  V30 3589 C 383 0.752154 -1.72407 0
M  V30 3590 O 382.358 1.5131 -0.998751 0
M  V30 3591 C 382.406 -0.977899 -3.47087 0
M  V30 3592 O 381.51 -0.072685 -4.12336 0
M  V30 3593 H 380.851 -0.253443 -0.613728 0
M  V30 3594 H 383.381 -1.32061 -1.56272 0
M  V30 3595 H 383.391 -0.916739 -3.97567 0
M  V30 3596 H 382.066 -2.01807 -3.63657 0
M  V30 3597 H 380.643 -0.188703 -3.72422 0
M  V30 3598 N 382.828 1.3818 -0.7579 0
M  V30 3599 C 384.074 2.00316 -0.316453 0
M  V30 3600 C 384.407 1.60026 1.10025 0
M  V30 3601 O 383.682 0.839835 1.75434 0
M  V30 3602 C 383.965 3.57349 -0.444245 0
M  V30 3603 C 383.818 4.07591 -1.90236 0
M  V30 3604 C 385.137 4.3981 0.1598 0
M  V30 3605 H 382.256 0.727741 -0.116459 0
M  V30 3606 H 384.898 1.6406 -0.958352 0
M  V30 3607 H 383.048 3.88365 0.102233 0
M  V30 3608 H 384.72 3.87199 -2.50748 0
M  V30 3609 H 382.963 3.60297 -2.41595 0
M  V30 3610 H 383.634 5.16677 -1.94291 0
M  V30 3611 H 386.11 4.14971 -0.306314 0
M  V30 3612 H 384.986 5.48885 0.0401675 0
M  V30 3613 H 385.247 4.24102 1.24859 0
M  V30 3614 N 384.306 0.507319 1.49211 0
M  V30 3615 C 385.546 -0.0332372 2.04373 0
M  V30 3616 C 385.91 -1.33694 1.37804 0
M  V30 3617 O 387.111 -1.96213 1.83722 0
M  V30 3618 C 385.382 -0.17599 3.56966 0
M  V30 3619 S 386.941 -0.669882 4.33657 0
M  V30 3620 H 383.759 0.00123603 0.710999 0
M  V30 3621 H 386.361 0.682725 1.83191 0
M  V30 3622 H 385.065 0.778053 4.02957 0
M  V30 3623 H 384.596 -0.917005 3.82563 0
M  V30 3624 H 386.611 -1.93806 4.56786 0
M  V30 3625 N 385.784 -1.5574 0.241426 0
M  V30 3626 C 387.009 -2.0366 -0.392111 0
M  V30 3627 C 387.434 -1.11969 -1.51144 0
M  V30 3628 O 386.792 -0.111594 -1.80956 0
M  V30 3629 C 386.84 -3.49638 -0.882371 0
M  V30 3630 O 385.944 -3.6108 -1.99235 0
M  V30 3631 H 385.285 -0.658379 -0.0862122 0
M  V30 3632 H 387.815 -2.01302 0.365881 0
M  V30 3633 H 387.825 -3.90351 -1.18702 0
M  V30 3634 H 386.5 -4.15852 -0.0632361 0
M  V30 3635 H 385.077 -3.32262 -1.69282 0
M  V30 3636 N 387.262 0.0317525 -1.57568 0
M  V30 3637 C 388.509 0.723104 -1.89149 0
M  V30 3638 C 388.837 1.75504 -0.838377 0
M  V30 3639 O 388.092 1.95037 0.160982 0
M  V30 3640 C 388.391 1.43167 -3.27472 0
M  V30 3641 C 388.057 0.535972 -4.47703 0
M  V30 3642 C 386.719 0.289262 -4.8033 0
M  V30 3643 C 389.071 -0.0826125 -5.21135 0
M  V30 3644 C 386.399 -0.584853 -5.83778 0
M  V30 3645 C 388.751 -0.944414 -6.25511 0
M  V30 3646 C 387.415 -1.20061 -6.56614 0
M  V30 3647 H 386.685 0.264602 -0.692146 0
M  V30 3648 H 389.332 -0.0169496 -1.91492 0
M  V30 3649 H 387.637 2.24497 -3.21105 0
M  V30 3650 H 389.334 1.97209 -3.49155 0
M  V30 3651 H 385.924 0.738414 -4.22191 0
M  V30 3652 H 390.108 0.0950302 -4.96209 0
M  V30 3653 H 385.364 -0.79168 -6.06253 0
M  V30 3654 H 389.538 -1.43026 -6.81554 0
M  V30 3655 H 387.165 -1.87967 -7.36595 0
M  V30 3656 N 388.74 1.54641 0.303973 0
M  V30 3657 C 389.97 1.77511 1.05705 0
M  V30 3658 C 390.378 0.533228 1.81531 0
M  V30 3659 O 389.721 -0.506423 1.76582 0
M  V30 3660 C 389.783 2.92779 2.08617 0
M  V30 3661 C 389.447 4.30977 1.52013 0
M  V30 3662 C 390.444 5.11115 0.9517 0
M  V30 3663 C 388.129 4.77571 1.55665 0
M  V30 3664 C 390.123 6.35966 0.427327 0
M  V30 3665 C 387.81 6.02384 1.02841 0
M  V30 3666 C 388.808 6.81417 0.464713 0
M  V30 3667 O 388.496 8.03881 -0.0555283 0
M  V30 3668 H 388.228 0.59579 0.319391 0
M  V30 3669 H 390.782 2.02401 0.349712 0
M  V30 3670 H 389.012 2.63506 2.83022 0
M  V30 3671 H 390.701 3.03252 2.69802 0
M  V30 3672 H 391.467 4.76264 0.916407 0
M  V30 3673 H 387.346 4.16085 1.9848 0
M  V30 3674 H 390.89 6.97599 -0.0133062 0
M  V30 3675 H 386.787 6.36723 1.06084 0
M  V30 3676 H 387.555 8.18479 0.0580522 0
M  V30 3677 N 390.218 -0.567019 1.47046 0
M  V30 3678 C 391.148 -1.68482 1.61667 0
M  V30 3679 C 392.129 -1.6358 0.466418 0
M  V30 3680 O 393.314 -1.81354 0.694574 0
M  V30 3681 C 390.444 -3.07124 1.62148 0
M  V30 3682 C 389.398 -3.26867 2.76301 0
M  V30 3683 C 388.724 -4.66196 2.61849 0
M  V30 3684 C 390.024 -3.13186 4.17986 0
M  V30 3685 H 391.718 -1.56502 2.5524 0
M  V30 3686 H 389.264 -0.751486 1.22836 0
M  V30 3687 H 391.217 -3.8516 1.70968 0
M  V30 3688 H 389.941 -3.2004 0.651287 0
M  V30 3689 H 388.6 -2.51237 2.66975 0
M  V30 3690 H 388.248 -4.75898 1.62879 0
M  V30 3691 H 387.948 -4.80356 3.38425 0
M  V30 3692 H 389.472 -5.46379 2.72584 0
M  V30 3693 H 390.886 -3.81049 4.2834 0
M  V30 3694 H 389.283 -3.3886 4.95272 0
M  V30 3695 H 390.353 -2.10057 4.3704 0
M  V30 3696 N 391.696 -1.35014 -0.812953 0
M  V30 3697 C 393.107 -1.25035 -1.38648 0
M  V30 3698 C 393.458 0.119967 -1.95833 0
M  V30 3699 O 392.583 1.02069 -1.90816 0
M  V30 3700 C 393.178 -2.26394 -2.52054 0
M  V30 3701 C 391.737 -2.20175 -3.05287 0
M  V30 3702 C 390.884 -2.12451 -1.78213 0
M  V30 3703 H 393.835 -1.46235 -0.616516 0
M  V30 3704 H 393.856 -1.88672 -3.30429 0
M  V30 3705 H 393.368 -3.26116 -2.10404 0
M  V30 3706 H 391.469 -1.23841 -3.51417 0
M  V30 3707 H 391.582 -3.11863 -3.63701 0
M  V30 3708 H 389.946 -1.58328 -1.9951 0
M  V30 3709 H 390.729 -3.14024 -1.38723 0
M  V30 3710 N 393.175 1.03435 -1.18907 0
M  V30 3711 C 394.108 2.11162 -0.86521 0
M  V30 3712 C 395.086 1.6165 0.175473 0
M  V30 3713 O 396.27 1.88425 0.0530129 0
M  V30 3714 C 393.397 3.37423 -0.293868 0
M  V30 3715 C 392.443 4.05795 -1.31274 0
M  V30 3716 S 393.276 4.52027 -2.8711 0
M  V30 3717 C 394.432 5.81513 -2.31504 0
M  V30 3718 H 394.665 2.38308 -1.77754 0
M  V30 3719 H 392.198 1.16295 -1.01562 0
M  V30 3720 H 394.156 4.1049 0.0292572 0
M  V30 3721 H 392.817 3.0838 0.596682 0
M  V30 3722 H 392.01 4.96574 -0.86198 0
M  V30 3723 H 391.612 3.38874 -1.58242 0
M  V30 3724 H 393.904 6.55784 -1.70157 0
M  V30 3725 H 394.847 6.3136 -3.20608 0
M  V30 3726 H 395.255 5.36921 -1.74286 0
M  V30 3727 N 394.653 0.992116 1.22453 0
M  V30 3728 C 395.616 0.546883 2.2258 0
M  V30 3729 C 396.616 -0.369829 1.56489 0
M  V30 3730 O 397.806 -0.161896 1.73446 0
M  V30 3731 C 394.938 -0.204659 3.40285 0
M  V30 3732 H 396.131 1.43234 2.63484 0
M  V30 3733 H 393.684 0.779239 1.3549 0
M  V30 3734 H 394.419 -1.10614 3.04853 0
M  V30 3735 H 394.204 0.45354 3.89468 0
M  V30 3736 H 395.694 -0.504358 4.14543 0
M  V30 3737 N 396.131 -1.37776 0.765217 0
M  V30 3738 C 397.377 -2.00145 0.327072 0
M  V30 3739 C 397.71 -1.60607 -1.09175 0
M  V30 3740 O 396.985 -0.849127 -1.74986 0
M  V30 3741 C 397.268 -3.57109 0.46319 0
M  V30 3742 C 397.121 -4.06576 1.92395 0
M  V30 3743 C 398.44 -4.39888 -0.136473 0
M  V30 3744 H 395.559 -0.727113 0.120316 0
M  V30 3745 H 398.201 -1.63549 0.967039 0
M  V30 3746 H 396.351 -3.88414 -0.0816358 0
M  V30 3747 H 398.023 -3.85864 2.52798 0
M  V30 3748 H 396.266 -3.59011 2.43503 0
M  V30 3749 H 396.937 -5.15639 1.97028 0
M  V30 3750 H 399.413 -4.14803 0.328317 0
M  V30 3751 H 398.289 -5.48899 -0.0110582 0
M  V30 3752 H 398.55 -4.24758 -1.22608 0
M  V30 3753 N 397.609 -0.515225 -1.4894 0
M  V30 3754 C 398.858 0.0261361 -2.01683 0
M  V30 3755 C 399.171 1.36719 -1.39883 0
M  V30 3756 O 400.377 1.99606 -1.84037 0
M  V30 3757 C 398.833 0.0970111 -3.59769 0
M  V30 3758 C 398.441 -1.23825 -4.30548 0
M  V30 3759 C 400.185 0.587981 -4.20408 0
M  V30 3760 C 398.092 -1.12877 -5.80528 0
M  V30 3761 H 397.022 0.0135398 -0.753878 0
M  V30 3762 H 399.673 -0.656787 -1.71343 0
M  V30 3763 H 398.055 0.844694 -3.86886 0
M  V30 3764 H 399.229 -2.00034 -4.15118 0
M  V30 3765 H 397.544 -1.66379 -3.81716 0
M  V30 3766 H 400.141 0.68763 -5.3026 0
M  V30 3767 H 400.484 1.59026 -3.84729 0
M  V30 3768 H 401.017 -0.103582 -3.97665 0
M  V30 3769 H 397.756 -2.10575 -6.20756 0
M  V30 3770 H 397.276 -0.407799 -5.98412 0
M  V30 3771 H 398.955 -0.813332 -6.41868 0
M  V30 3772 N 399.087 1.5561 -0.249682 0
M  V30 3773 C 400.333 1.99306 0.374841 0
M  V30 3774 C 400.666 1.13767 1.57387 0
M  V30 3775 O 399.941 0.201711 1.93451 0
M  V30 3776 C 400.224 3.51507 0.781986 0
M  V30 3777 C 400.077 4.4781 -0.422629 0
M  V30 3778 C 401.396 4.08884 1.62793 0
M  V30 3779 H 398.515 0.724572 0.134773 0
M  V30 3780 H 401.157 1.86719 -0.351549 0
M  V30 3781 H 399.307 3.62363 1.4009 0
M  V30 3782 H 400.979 4.48931 -1.06108 0
M  V30 3783 H 399.222 4.20518 -1.06524 0
M  V30 3784 H 399.893 5.51919 -0.0943766 0
M  V30 3785 H 402.369 4.01147 1.10547 0
M  V30 3786 H 401.245 5.1564 1.88166 0
M  V30 3787 H 401.506 3.57515 2.60068 0
M  V30 3788 N 400.565 -0.0233959 1.57583 0
M  V30 3789 C 401.811 -0.714119 1.89811 0
M  V30 3790 C 402.144 -1.74702 0.848113 0
M  V30 3791 O 401.419 -1.94023 -0.136135 0
M  V30 3792 C 401.702 -1.37853 3.32669 0
M  V30 3793 C 401.555 -0.358764 4.48367 0
M  V30 3794 C 402.874 -2.31101 3.7454 0
M  V30 3795 H 399.993 -0.25814 0.690314 0
M  V30 3796 H 402.635 0.0230927 1.89986 0
M  V30 3797 H 400.785 -2.00689 3.3265 0
M  V30 3798 H 402.457 0.268115 4.6052 0
M  V30 3799 H 400.7 0.321387 4.32608 0
M  V30 3800 H 401.371 -0.862242 5.45224 0
M  V30 3801 H 403.847 -1.78304 3.75961 0
M  V30 3802 H 402.723 -2.74567 4.75294 0
M  V30 3803 H 402.984 -3.18018 3.0711 0
M  V30 3804 N 402.043 -1.548 -0.295768 0
M  V30 3805 C 402.976 -1.81003 -1.38972 0
M  V30 3806 C 403.954 -0.661544 -1.48534 0
M  V30 3807 O 405.138 -0.902074 -1.65514 0
M  V30 3808 C 402.265 -1.95141 -2.76835 0
M  V30 3809 C 401.311 -3.17592 -2.84671 0
M  V30 3810 S 402.144 -4.75531 -2.46232 0
M  V30 3811 C 403.3 -4.92613 -3.86114 0
M  V30 3812 H 403.533 -2.73507 -1.16537 0
M  V30 3813 H 401.066 -1.46278 -0.494168 0
M  V30 3814 H 403.024 -2.03972 -3.56238 0
M  V30 3815 H 401.685 -1.03565 -2.96535 0
M  V30 3816 H 400.878 -3.24303 -3.85803 0
M  V30 3817 H 400.48 -3.07235 -2.13267 0
M  V30 3818 H 402.772 -4.76957 -4.81164 0
M  V30 3819 H 403.715 -5.94698 -3.8437 0
M  V30 3820 H 404.123 -4.2073 -3.76359 0
M  V30 3821 N 403.521 0.559213 -1.47345 0
M  V30 3822 C 404.751 1.33999 -1.57251 0
M  V30 3823 C 405.159 1.87905 -0.220978 0
M  V30 3824 O 404.502 1.65577 0.795617 0
M  V30 3825 C 404.564 2.54798 -2.53611 0
M  V30 3826 C 404.228 2.22192 -3.99349 0
M  V30 3827 C 405.225 1.79607 -4.87891 0
M  V30 3828 C 402.91 2.33613 -4.44669 0
M  V30 3829 C 404.904 1.48868 -6.19772 0
M  V30 3830 C 402.591 2.02487 -5.76578 0
M  V30 3831 C 403.589 1.60183 -6.63951 0
M  V30 3832 O 403.277 1.29451 -7.93409 0
M  V30 3833 H 403.009 0.414858 -0.533731 0
M  V30 3834 H 405.563 0.684465 -1.9366 0
M  V30 3835 H 403.793 3.23235 -2.12265 0
M  V30 3836 H 405.482 3.16873 -2.53666 0
M  V30 3837 H 406.248 1.70278 -4.54126 0
M  V30 3838 H 402.127 2.65501 -3.76869 0
M  V30 3839 H 405.671 1.15775 -6.87926 0
M  V30 3840 H 401.568 2.11448 -6.09885 0
M  V30 3841 H 402.336 1.43098 -8.05894 0
M  V30 3842 N 404.999 1.35443 0.805782 0
M  V30 3843 C 406.239 1.30127 1.57627 0
M  V30 3844 C 406.603 -0.122567 1.91608 0
M  V30 3845 O 407.804 -0.300107 2.67119 0
M  V30 3846 C 406.075 2.18314 2.82973 0
M  V30 3847 S 407.634 2.30521 3.7337 0
M  V30 3848 H 404.452 0.462439 0.540066 0
M  V30 3849 H 407.054 1.70843 0.95042 0
M  V30 3850 H 405.758 3.20741 2.56034 0
M  V30 3851 H 405.289 1.78558 3.50543 0
M  V30 3852 H 407.304 1.49062 4.73281 0
M  V30 3853 N 406.477 -1.02803 1.19454 0
M  V30 3854 C 407.893 -1.28473 0.946937 0
M  V30 3855 C 408.093 -1.97881 -0.380202 0
M  V30 3856 O 407.149 -2.26719 -1.11151 0
M  V30 3857 C 408.462 -2.13099 2.12154 0
M  V30 3858 C 410.01 -2.26404 2.16126 0
M  V30 3859 C 410.485 -3.14402 3.33039 0
M  V30 3860 N 411.976 -3.21991 3.32981 0
M  V30 3861 C 412.711 -3.90272 4.20089 0
M  V30 3862 N 412.207 -4.60777 5.17355 0
M  V30 3863 N 414 -3.8668 4.07964 0
M  V30 3864 H 406.151 -0.561665 2.04839 0
M  V30 3865 H 408.414 -0.310438 0.89573 0
M  V30 3866 H 408.12 -1.69422 3.08203 0
M  V30 3867 H 407.994 -3.13813 2.09287 0
M  V30 3868 H 410.381 -2.69311 1.20647 0
M  V30 3869 H 410.462 -1.25237 2.23045 0
M  V30 3870 H 410.106 -2.72204 4.28798 0
M  V30 3871 H 410.036 -4.1563 3.23356 0
M  V30 3872 H 412.527 -2.71778 2.62574 0
M  V30 3873 H 412.84 -5.10513 5.80169 0
M  V30 3874 H 411.185 -4.5964 5.21302 0
M  V30 3875 H 414.376 -3.30739 3.31254 0
M  V30 3876 H 414.549 -4.39621 4.76064 0
M  V30 3877 N 407.956 -0.998596 -1.21925 0
M  V30 3878 C 409.202 -0.678667 -1.91107 0
M  V30 3879 C 409.535 0.78791 -1.77498 0
M  V30 3880 O 408.81 1.57043 -1.1475 0
M  V30 3881 C 409.093 -1.09245 -3.43129 0
M  V30 3882 C 408.946 -2.61801 -3.6576 0
M  V30 3883 C 410.265 -0.649984 -4.35274 0
M  V30 3884 H 407.384 -0.248025 -0.694012 0
M  V30 3885 H 410.026 -1.24314 -1.43688 0
M  V30 3886 H 408.176 -0.612171 -3.83647 0
M  V30 3887 H 409.848 -3.17543 -3.34611 0
M  V30 3888 H 408.091 -3.03609 -3.09845 0
M  V30 3889 H 408.762 -2.85804 -4.7225 0
M  V30 3890 H 411.238 -1.0626 -4.02303 0
M  V30 3891 H 410.114 -0.967743 -5.40302 0
M  V30 3892 H 410.375 0.449139 -4.39813 0
M  V30 3893 N 409.434 1.37368 -0.772513 0
M  V30 3894 C 410.664 2.03647 -0.348082 0
M  V30 3895 C 411.072 1.58392 1.03482 0
M  V30 3896 O 410.415 0.760921 1.672 0
M  V30 3897 C 410.477 3.58131 -0.313404 0
M  V30 3898 C 410.141 4.2652 -1.64102 0
M  V30 3899 C 411.138 4.50587 -2.5936 0
M  V30 3900 C 408.823 4.64335 -1.91567 0
M  V30 3901 C 410.817 5.11526 -3.80289 0
M  V30 3902 C 408.504 5.24996 -3.12766 0
M  V30 3903 C 409.502 5.48529 -4.06946 0
M  V30 3904 O 409.19 6.07921 -5.26011 0
M  V30 3905 H 408.922 0.660538 -0.143753 0
M  V30 3906 H 411.476 1.76669 -1.04772 0
M  V30 3907 H 409.706 3.84159 0.442617 0
M  V30 3908 H 411.395 4.05813 0.0840613 0
M  V30 3909 H 412.161 4.21784 -2.39423 0
M  V30 3910 H 408.04 4.45353 -1.19088 0
M  V30 3911 H 411.584 5.29811 -4.53813 0
M  V30 3912 H 407.481 5.53223 -3.32588 0
M  V30 3913 H 408.249 6.26398 -5.26847 0
M  V30 3914 N 410.912 0.523116 1.48665 0
M  V30 3915 C 412.158 -0.0134963 2.02796 0
M  V30 3916 C 412.491 -1.34582 1.40004 0
M  V30 3917 O 411.766 -1.86756 0.543381 0
M  V30 3918 C 412.049 -0.14276 3.59817 0
M  V30 3919 C 411.902 1.21425 4.331 0
M  V30 3920 C 413.221 -0.872856 4.31357 0
M  V30 3921 H 410.34 -0.00343074 0.736992 0
M  V30 3922 H 412.982 0.678816 1.7746 0
M  V30 3923 H 411.132 -0.732401 3.81534 0
M  V30 3924 H 412.804 1.84447 4.2282 0
M  V30 3925 H 411.047 1.79791 3.94788 0
M  V30 3926 H 411.718 1.07687 5.41394 0
M  V30 3927 H 414.194 -0.372555 4.14429 0
M  V30 3928 H 413.07 -0.932185 5.40927 0
M  V30 3929 H 413.331 -1.92161 3.98154 0
M  V30 3930 N 412.39 -1.55475 0.257931 0
M  V30 3931 C 413.636 -1.99502 -0.364266 0
M  V30 3932 C 413.969 -1.146 -1.56782 0
M  V30 3933 O 413.244 -0.211968 -1.93342 0
M  V30 3934 C 413.527 -3.51917 -0.763333 0
M  V30 3935 C 413.38 -4.4758 0.446371 0
M  V30 3936 C 414.699 -4.09742 -1.60623 0
M  V30 3937 H 411.818 -0.725277 -0.130929 0
M  V30 3938 H 414.46 -1.8653 0.361446 0
M  V30 3939 H 412.61 -3.63101 -1.38166 0
M  V30 3940 H 414.282 -4.48362 1.08487 0
M  V30 3941 H 412.525 -4.19947 1.08753 0
M  V30 3942 H 413.196 -5.51862 0.123645 0
M  V30 3943 H 415.672 -4.01727 -1.08418 0
M  V30 3944 H 414.548 -5.16631 -1.85429 0
M  V30 3945 H 414.809 -3.58889 -2.58169 0
M  V30 3946 N 413.868 0.0150385 -1.57593 0
M  V30 3947 C 414.831 0.995996 -2.06428 0
M  V30 3948 C 415.831 1.2818 -0.970903 0
M  V30 3949 O 417.021 1.22949 -1.23406 0
M  V30 3950 C 414.153 2.32506 -2.49307 0
M  V30 3951 H 415.346 0.573873 -2.94358 0
M  V30 3952 H 412.899 0.262186 -1.54085 0
M  V30 3953 H 413.634 2.79438 -1.64575 0
M  V30 3954 H 413.419 2.13087 -3.29145 0
M  V30 3955 H 414.909 3.02906 -2.87468 0
M  V30 3956 N 415.346 1.54954 0.287554 0
M  V30 3957 C 416.762 1.46469 0.633964 0
M  V30 3958 C 416.962 0.666865 1.90145 0
M  V30 3959 O 416.018 0.179906 2.51858 0
M  V30 3960 C 417.331 2.90556 0.774454 0
M  V30 3961 C 418.879 3.00681 0.869462 0
M  V30 3962 C 419.354 4.45993 1.04184 0
M  V30 3963 N 420.845 4.4976 1.10772 0
M  V30 3964 C 421.58 5.59393 1.25964 0
M  V30 3965 N 421.076 6.78923 1.37968 0
M  V30 3966 N 422.869 5.47107 1.28959 0
M  V30 3967 H 415.02 2.05288 -0.545041 0
M  V30 3968 H 417.283 0.930305 -0.182308 0
M  V30 3969 H 416.989 3.51594 -0.086207 0
M  V30 3970 H 416.863 3.38743 1.6593 0
M  V30 3971 H 419.25 2.39749 1.7206 0
M  V30 3972 H 419.331 2.55769 -0.0396831 0
M  V30 3973 H 418.975 5.07524 0.195422 0
M  V30 3974 H 418.905 4.88548 1.96542 0
M  V30 3975 H 421.396 3.63651 1.02794 0
M  V30 3976 H 421.709 7.58231 1.49353 0
M  V30 3977 H 420.054 6.81763 1.34999 0
M  V30 3978 H 423.245 4.52668 1.19202 0
M  V30 3979 H 423.418 6.32595 1.40455 0
M  V30 3980 N 416.824 -0.551391 1.4764 0
M  V30 3981 C 418.049 -1.33837 1.58437 0
M  V30 3982 C 418.474 -1.866 0.237063 0
M  V30 3983 O 417.832 -1.6328 -0.787994 0
M  V30 3984 C 417.88 -2.48014 2.61766 0
M  V30 3985 O 416.984 -3.50419 2.1744 0
M  V30 3986 H 416.325 -0.397299 0.532024 0
M  V30 3987 H 418.855 -0.665759 1.93465 0
M  V30 3988 H 418.865 -2.94503 2.82369 0
M  V30 3989 H 417.54 -2.08969 3.5959 0
M  V30 3990 H 416.117 -3.10196 2.06961 0
M  V30 3991 N 418.302 -1.35869 -0.798587 0
M  V30 3992 C 419.53 -1.32722 -1.58722 0
M  V30 3993 C 419.945 0.0935631 -1.88568 0
M  V30 3994 O 419.302 1.04784 -1.49421 0
M  V30 3995 C 419.353 -2.13974 -2.91371 0
M  V30 3996 O 419.074 -3.50514 -2.62815 0
M  V30 3997 C 420.575 -2.18504 -3.85708 0
M  V30 3998 H 417.795 -0.45562 -0.492596 0
M  V30 3999 H 420.339 -1.78837 -0.991843 0
M  V30 4000 H 418.494 -1.71438 -3.47402 0
M  V30 4001 H 418.908 -3.92806 -3.47568 0
M  V30 4002 H 420.382 -2.79732 -4.75872 0
M  V30 4003 H 420.859 -1.18597 -4.22885 0
M  V30 4004 H 421.465 -2.61236 -3.35612 0
M  V30 4005 N 419.78 1.02168 -1.19998 0
M  V30 4006 C 421.008 1.79296 -1.03249 0
M  V30 4007 C 421.423 1.84103 0.418502 0
M  V30 4008 O 420.78 1.29031 1.29063 0
M  V30 4009 C 420.831 3.24007 -1.60319 0
M  V30 4010 O 420.552 3.19512 -2.99739 0
M  V30 4011 C 422.053 4.17704 -1.48453 0
M  V30 4012 H 419.273 0.564016 -0.363493 0
M  V30 4013 H 421.817 1.28639 -1.58973 0
M  V30 4014 H 419.972 3.7183 -1.08727 0
M  V30 4015 H 420.386 4.10306 -3.26725 0
M  V30 4016 H 421.86 5.17104 -1.93153 0
M  V30 4017 H 422.337 4.37029 -0.436193 0
M  V30 4018 H 422.943 3.7576 -1.99211 0
M  V30 4019 N 421.258 1.00505 1.21394 0
M  V30 4020 C 422.674 0.717873 1.42544 0
M  V30 4021 C 422.874 -0.706936 1.88692 0
M  V30 4022 O 421.93 -1.47627 2.04847 0
M  V30 4023 C 423.243 1.73377 2.45684 0
M  V30 4024 C 424.791 1.75059 2.59467 0
M  V30 4025 C 425.266 2.75545 3.6584 0
M  V30 4026 N 426.757 2.74213 3.73311 0
M  V30 4027 C 427.492 3.48626 4.55245 0
M  V30 4028 N 426.988 4.32678 5.41075 0
M  V30 4029 N 428.781 3.37276 4.49668 0
M  V30 4030 H 420.932 1.92506 0.897503 0
M  V30 4031 H 423.195 0.830919 0.456375 0
M  V30 4032 H 422.901 2.75395 2.18748 0
M  V30 4033 H 422.775 1.53647 3.44489 0
M  V30 4034 H 425.162 0.737337 2.8574 0
M  V30 4035 H 425.243 1.98861 1.60897 0
M  V30 4036 H 424.887 3.77028 3.40313 0
M  V30 4037 H 424.817 2.49009 4.64007 0
M  V30 4038 H 427.308 2.13234 3.11993 0
M  V30 4039 H 427.621 4.86253 6.00648 0
M  V30 4040 H 425.966 4.3676 5.40616 0
M  V30 4041 H 429.157 2.71043 3.81646 0
M  V30 4042 H 429.33 3.95524 5.13288 0
M  V30 4043 N 422.737 -1.36956 0.779787 0
M  V30 4044 C 423.962 -2.04283 0.358224 0
M  V30 4045 C 424.387 -1.58422 -1.01411 0
M  V30 4046 O 423.745 -0.748179 -1.65142 0
M  V30 4047 C 423.793 -3.58152 0.419479 0
M  V30 4048 O 422.897 -4.08342 -0.577142 0
M  V30 4049 H 422.238 -0.645967 0.153698 0
M  V30 4050 H 424.768 -1.75108 1.05822 0
M  V30 4051 H 424.778 -4.07041 0.279636 0
M  V30 4052 H 423.453 -3.90886 1.42061 0
M  V30 4053 H 422.03 -3.70751 -0.399755 0
M  V30 4054 N 424.215 -0.530993 -1.48385 0
M  V30 4055 C 425.145 0.219985 -2.32461 0
M  V30 4056 C 426.126 0.934111 -1.42156 0
M  V30 4057 O 427.311 0.919694 -1.71042 0
M  V30 4058 C 424.441 1.26674 -3.23375 0
M  V30 4059 C 423.395 0.67069 -4.22712 0
M  V30 4060 C 422.721 1.82017 -5.02766 0
M  V30 4061 C 424.021 -0.358268 -5.2107 0
M  V30 4062 H 425.715 -0.48187 -2.95497 0
M  V30 4063 H 423.261 -0.233182 -1.42099 0
M  V30 4064 H 425.214 1.80006 -3.81019 0
M  V30 4065 H 423.938 1.99818 -2.58341 0
M  V30 4066 H 422.597 0.158878 -3.66256 0
M  V30 4067 H 422.245 2.54002 -4.34157 0
M  V30 4068 H 421.945 1.42727 -5.70003 0
M  V30 4069 H 423.469 2.35725 -5.63264 0
M  V30 4070 H 424.883 0.0880081 -5.73232 0
M  V30 4071 H 423.28 -0.66861 -5.96364 0
M  V30 4072 H 424.35 -1.26367 -4.68145 0
M  V30 4073 N 425.693 1.55336 -0.266172 0
M  V30 4074 C 426.603 2.2583 0.635458 0
M  V30 4075 C 427.619 1.28106 1.17749 0
M  V30 4076 O 428.795 1.61024 1.20968 0
M  V30 4077 C 425.86 2.95879 1.80712 0
M  V30 4078 C 424.921 4.09059 1.30265 0
M  V30 4079 C 424.154 4.75759 2.41846 0
M  V30 4080 O 424.377 4.41622 3.61007 0
M  V30 4081 O 423.311 5.63888 2.1051 0
M  V30 4082 H 427.137 3.03631 0.0646693 0
M  V30 4083 H 424.722 1.49361 -0.0339177 0
M  V30 4084 H 426.604 3.39932 2.49047 0
M  V30 4085 H 425.279 2.21002 2.36516 0
M  V30 4086 H 424.186 3.69482 0.586019 0
M  V30 4087 H 425.519 4.85811 0.790458 0
M  V30 4088 N 427.171 -0.0066808 1.57599 0
M  V30 4089 C 428.134 -0.985035 2.06953 0
M  V30 4090 C 429.134 -1.27663 0.977687 0
M  V30 4091 O 430.324 -1.22293 1.24057 0
M  V30 4092 C 427.456 -2.3118 2.50536 0
M  V30 4093 H 428.649 -0.558255 2.94658 0
M  V30 4094 H 426.202 -0.254011 1.54222 0
M  V30 4095 H 426.937 -2.78561 1.66054 0
M  V30 4096 H 426.722 -2.11338 3.3027 0
M  V30 4097 H 428.212 -3.01377 2.8907 0
M  V30 4098 N 428.649 -1.55105 -0.279332 0
M  V30 4099 C 429.897 -1.75066 -1.00977 0
M  V30 4100 C 430.218 -0.551276 -1.87045 0
M  V30 4101 O 429.488 0.433984 -1.91032 0
M  V30 4102 H 428.068 -0.645578 -0.375816 0
M  V30 4103 H 430.73 -1.92497 -0.305089 0
M  V30 4104 H 429.826 -2.64894 -1.65038 0
M  V30 4105 N 430.127 0.543554 -1.4793 0
M  V30 4106 C 431.373 1.30201 -1.55485 0
M  V30 4107 C 431.706 1.92925 -0.222201 0
M  V30 4108 O 430.981 1.78586 0.77053 0
M  V30 4109 C 431.264 2.40174 -2.68307 0
M  V30 4110 C 431.117 1.8223 -4.11233 0
M  V30 4111 C 432.436 3.42024 -2.76961 0
M  V30 4112 H 429.555 0.472036 -0.565996 0
M  V30 4113 H 432.197 0.606914 -1.80046 0
M  V30 4114 H 430.347 2.99463 -2.47495 0
M  V30 4115 H 432.019 1.27096 -4.43446 0
M  V30 4116 H 430.262 1.12832 -4.18869 0
M  V30 4117 H 430.933 2.61793 -4.85972 0
M  V30 4118 H 433.409 2.92672 -2.95774 0
M  V30 4119 H 432.285 4.16383 -3.57654 0
M  V30 4120 H 432.546 4.0173 -1.84568 0
M  V30 4121 N 431.605 1.3629 0.791371 0
M  V30 4122 C 432.552 1.30458 1.90393 0
M  V30 4123 C 433.522 0.173632 1.6519 0
M  V30 4124 O 434.707 0.35983 1.87376 0
M  V30 4125 C 431.847 1.09777 3.27174 0
M  V30 4126 C 430.96 2.31929 3.64462 0
M  V30 4127 C 430.095 2.04276 4.90352 0
M  V30 4128 C 429.134 3.224 5.20312 0
M  V30 4129 N 428.271 2.94424 6.37385 0
M  V30 4130 H 433.111 2.25589 1.94714 0
M  V30 4131 H 430.648 1.12122 0.952216 0
M  V30 4132 H 432.606 0.958133 4.06049 0
M  V30 4133 H 431.236 0.183014 3.22281 0
M  V30 4134 H 430.288 2.56703 2.80727 0
M  V30 4135 H 431.6 3.20085 3.82553 0
M  V30 4136 H 430.754 1.87231 5.77087 0
M  V30 4137 H 429.493 1.13428 4.74326 0
M  V30 4138 H 428.498 3.40005 4.32061 0
M  V30 4139 H 429.723 4.14071 5.38258 0
M  V30 4140 H 427.669 2.06185 6.22755 0
M  V30 4141 H 427.586 3.76118 6.55798 0
M  V30 4142 H 428.854 2.80953 7.27108 0
M  V30 4143 N 433.083 -1.0153 1.20538 0
M  V30 4144 C 434.499 -1.27461 0.96051 0
M  V30 4145 C 434.699 -1.98273 -0.359193 0
M  V30 4146 O 433.755 -2.27886 -1.0874 0
M  V30 4147 C 435.068 -2.10837 2.14402 0
M  V30 4148 C 436.616 -2.24099 2.18515 0
M  V30 4149 C 437.091 -3.10852 3.36355 0
M  V30 4150 N 438.582 -3.18441 3.36377 0
M  V30 4151 C 439.317 -3.85795 4.24205 0
M  V30 4152 N 438.813 -4.55264 5.22213 0
M  V30 4153 N 440.606 -3.82331 4.12043 0
M  V30 4154 H 432.757 -0.539907 2.05423 0
M  V30 4155 H 435.02 -0.30092 0.898972 0
M  V30 4156 H 434.726 -1.66144 3.09983 0
M  V30 4157 H 434.6 -3.11576 2.12604 0
M  V30 4158 H 436.987 -2.68016 1.23497 0
M  V30 4159 H 437.068 -1.22865 2.24361 0
M  V30 4160 H 436.712 -2.6764 4.31661 0
M  V30 4161 H 436.642 -4.12177 3.27746 0
M  V30 4162 H 439.133 -2.68978 2.65442 0
M  V30 4163 H 439.446 -5.04331 5.85551 0
M  V30 4164 H 437.791 -4.54085 5.26148 0
M  V30 4165 H 440.982 -3.27207 3.34743 0
M  V30 4166 H 441.155 -4.34547 4.807 0
M  V30 4167 N 434.561 -1.01147 -1.20859 0
M  V30 4168 C 435.471 -0.58686 -2.27141 0
M  V30 4169 C 436.487 0.373198 -1.69951 0
M  V30 4170 O 437.663 0.235423 -2.00019 0
M  V30 4171 C 434.728 0.0733602 -3.46622 0
M  V30 4172 C 433.789 -0.931995 -4.19061 0
M  V30 4173 C 433.022 -0.303186 -5.32838 0
M  V30 4174 O 433.245 0.898395 -5.63281 0
M  V30 4175 O 432.179 -1.01735 -5.9324 0
M  V30 4176 H 436.005 -1.47155 -2.65667 0
M  V30 4177 H 433.59 -0.780689 -1.2738 0
M  V30 4178 H 435.472 0.442333 -4.19072 0
M  V30 4179 H 434.147 0.932329 -3.09983 0
M  V30 4180 H 433.054 -1.35224 -3.48805 0
M  V30 4181 H 434.387 -1.76076 -4.59628 0
M  V30 4182 N 436.039 1.36541 -0.78704 0
M  V30 4183 C 437.455 1.52571 -0.46844 0
M  V30 4184 C 437.655 1.7415 1.01361 0
M  V30 4185 O 436.711 1.77163 1.79915 0
M  V30 4186 C 438.024 2.71299 -1.29682 0
M  V30 4187 C 439.572 2.85169 -1.29027 0
M  V30 4188 C 440.047 4.06898 -2.10233 0
M  V30 4189 N 441.538 4.1404 -2.07666 0
M  V30 4190 C 442.273 5.07301 -2.67271 0
M  V30 4191 N 441.769 6.06021 -3.35724 0
M  V30 4192 N 443.562 4.99898 -2.57018 0
M  V30 4193 H 435.713 1.20788 -1.74711 0
M  V30 4194 H 437.976 0.589364 -0.742532 0
M  V30 4195 H 437.682 2.61868 -2.34773 0
M  V30 4196 H 437.556 3.6539 -0.936479 0
M  V30 4197 H 439.943 2.94062 -0.247284 0
M  V30 4198 H 440.024 1.91992 -1.69035 0
M  V30 4199 H 439.668 3.98766 -3.1456 0
M  V30 4200 H 439.598 4.99218 -1.67597 0
M  V30 4201 H 442.089 3.43357 -1.57843 0
M  V30 4202 H 442.402 6.73741 -3.78541 0
M  V30 4203 H 440.747 6.06253 -3.39826 0
M  V30 4204 H 443.938 4.21724 -2.03142 0
M  V30 4205 H 444.111 5.72392 -3.03761 0
M  V30 4206 N 437.518 0.538854 1.48102 0
M  V30 4207 C 438.766 0.00798599 2.02098 0
M  V30 4208 C 439.087 -1.33922 1.41739 0
M  V30 4209 O 438.357 -1.86932 0.585934 0
M  V30 4210 H 436.937 -3.62179e-05 0.747 0
M  V30 4211 H 439.599 0.7047 1.81714 0
M  V30 4212 H 438.695 -0.0937672 3.11959 0
M  V30 4213 N 438.996 -1.55193 0.274407 0
M  V30 4214 C 439.943 -2.225 -0.613374 0
M  V30 4215 C 440.913 -1.19823 -1.15029 0
M  V30 4216 O 442.098 -1.48362 -1.19973 0
M  V30 4217 C 439.238 -2.94927 -1.79199 0
M  V30 4218 C 438.351 -4.12322 -1.28899 0
M  V30 4219 C 437.486 -4.72394 -2.42934 0
M  V30 4220 C 436.525 -5.81984 -1.89634 0
M  V30 4221 N 435.662 -6.36123 -2.9714 0
M  V30 4222 H 440.502 -2.97982 -0.032756 0
M  V30 4223 H 438.039 -1.47099 -0.00440146 0
M  V30 4224 H 439.997 -3.35134 -2.48478 0
M  V30 4225 H 438.627 -2.2187 -2.34465 0
M  V30 4226 H 437.679 -3.7724 -0.489327 0
M  V30 4227 H 438.991 -4.91355 -0.858587 0
M  V30 4228 H 438.145 -5.15317 -3.20208 0
M  V30 4229 H 436.884 -3.92636 -2.8929 0
M  V30 4230 H 435.889 -5.38511 -1.1084 0
M  V30 4231 H 437.114 -6.6361 -1.44215 0
M  V30 4232 H 435.06 -5.59259 -3.42878 0
M  V30 4233 H 434.977 -7.10427 -2.58515 0
M  V30 4234 H 436.245 -6.83704 -3.74391 0
M  V30 4235 N 440.474 -0.00167713 -1.576 0
M  V30 4236 C 441.437 0.974046 -2.07473 0
M  V30 4237 C 442.437 1.27143 -0.984444 0
M  V30 4238 O 443.627 1.21633 -1.24703 0
M  V30 4239 C 440.759 2.29849 -2.51759 0
M  V30 4240 H 441.952 0.54262 -2.9495 0
M  V30 4241 H 439.505 0.245829 -1.54355 0
M  V30 4242 H 440.24 2.77677 -1.67529 0
M  V30 4243 H 440.025 2.09584 -3.31386 0
M  V30 4244 H 441.515 2.9984 -2.90664 0
M  V30 4245 N 441.952 1.55251 0.271103 0
M  V30 4246 C 443.177 1.80306 1.02491 0
M  V30 4247 C 443.602 0.575457 1.79081 0
M  V30 4248 O 442.96 -0.474987 1.74967 0
M  V30 4249 C 443.008 3.02832 1.95768 0
M  V30 4250 O 442.112 2.78051 3.04568 0
M  V30 4251 H 441.453 0.595896 0.292923 0
M  V30 4252 H 443.983 2.02397 0.299436 0
M  V30 4253 H 443.993 3.31616 2.37686 0
M  V30 4254 H 442.668 3.9183 1.39434 0
M  V30 4255 H 441.245 2.60369 2.66951 0
M  V30 4256 N 443.43 -0.535701 1.48216 0
M  V30 4257 C 444.34 -1.66785 1.64985 0
M  V30 4258 C 445.356 -1.65654 0.532414 0
M  V30 4259 O 446.532 -1.8471 0.80275 0
M  V30 4260 C 443.597 -3.0326 1.68031 0
M  V30 4261 C 442.658 -3.1529 2.9136 0
M  V30 4262 C 441.891 -4.45255 2.94252 0
M  V30 4263 O 442.114 -5.32011 2.05719 0
M  V30 4264 O 441.048 -4.6153 3.86359 0
M  V30 4265 H 444.874 -1.55576 2.60825 0
M  V30 4266 H 442.459 -0.70815 1.31551 0
M  V30 4267 H 444.341 -3.84436 1.72589 0
M  V30 4268 H 443.016 -3.14805 0.753628 0
M  V30 4269 H 441.923 -2.3343 2.92337 0
M  V30 4270 H 443.256 -3.08658 3.83394 0
M  V30 4271 N 444.908 -1.36708 -0.784132 0
M  V30 4272 C 446.154 -1.31426 -1.54451 0
M  V30 4273 C 446.487 0.10476 -1.93917 0
M  V30 4274 O 445.762 1.05934 -1.6312 0
M  V30 4275 C 446.045 -2.24189 -2.818 0
M  V30 4276 C 445.898 -3.74813 -2.48667 0
M  V30 4277 C 447.217 -2.15626 -3.83658 0
M  V30 4278 H 444.336 -0.478739 -0.560337 0
M  V30 4279 H 446.978 -1.67305 -0.900498 0
M  V30 4280 H 445.128 -1.93722 -3.36755 0
M  V30 4281 H 446.8 -4.15823 -1.99722 0
M  V30 4282 H 445.043 -3.93989 -1.81535 0
M  V30 4283 H 445.714 -4.35138 -3.39646 0
M  V30 4284 H 448.19 -2.42456 -3.38163 0
M  V30 4285 H 447.066 -2.82694 -4.70506 0
M  V30 4286 H 447.327 -1.14522 -4.27009 0
M  V30 4287 N 446.386 1.0089 -1.21074 0
M  V30 4288 C 447.632 1.74866 -1.02712 0
M  V30 4289 C 447.965 1.89178 0.438787 0
M  V30 4290 O 447.24 1.42325 1.32567 0
M  V30 4291 C 447.523 3.16347 -1.72036 0
M  V30 4292 C 447.376 3.09782 -3.26121 0
M  V30 4293 C 448.695 4.15187 -1.45973 0
M  V30 4294 H 445.814 0.634736 -0.374539 0
M  V30 4295 H 448.456 1.17646 -1.49196 0
M  V30 4296 H 446.606 3.65201 -1.32517 0
M  V30 4297 H 448.278 2.68673 -3.74983 0
M  V30 4298 H 446.521 2.46982 -3.56626 0
M  V30 4299 H 447.192 4.09829 -3.6979 0
M  V30 4300 H 449.668 3.75022 -1.80272 0
M  V30 4301 H 448.544 5.12331 -1.96999 0
M  V30 4302 H 448.805 4.40386 -0.388924 0
M  V30 4303 N 447.864 1.01787 1.20321 0
M  V30 4304 C 448.794 0.609625 2.25401 0
M  V30 4305 C 449.775 -0.375951 1.65893 0
M  V30 4306 O 450.96 -0.261101 1.92437 0
M  V30 4307 C 448.09 -0.0515995 3.47262 0
M  V30 4308 C 447.044 0.855095 4.19371 0
M  V30 4309 C 446.37 0.0595757 5.34667 0
M  V30 4310 C 447.67 2.16374 4.75373 0
M  V30 4311 H 449.364 1.48803 2.59804 0
M  V30 4312 H 446.91 0.716934 1.24884 0
M  V30 4313 H 448.863 -0.348764 4.19954 0
M  V30 4314 H 447.587 -0.964726 3.12027 0
M  V30 4315 H 446.246 1.13628 3.48546 0
M  V30 4316 H 445.894 -0.85524 4.95676 0
M  V30 4317 H 445.594 0.663406 5.83843 0
M  V30 4318 H 447.118 -0.231105 6.10162 0
M  V30 4319 H 448.532 1.92885 5.39878 0
M  V30 4320 H 446.929 2.71853 5.34991 0
M  V30 4321 H 447.999 2.82589 3.94045 0
M  V30 4322 N 449.342 -1.36122 0.79427 0
M  V30 4323 C 450.758 -1.5232 0.476525 0
M  V30 4324 C 450.958 -1.74685 -1.00436 0
M  V30 4325 O 450.014 -1.78115 -1.78973 0
M  V30 4326 C 451.327 -2.70607 1.31119 0
M  V30 4327 C 452.875 -2.8448 1.30537 0
M  V30 4328 C 453.35 -4.05778 2.12387 0
M  V30 4329 N 454.841 -4.12933 2.09859 0
M  V30 4330 C 455.576 -5.05876 2.69957 0
M  V30 4331 N 455.072 -6.04232 3.38934 0
M  V30 4332 N 456.865 -4.98528 2.59665 0
M  V30 4333 H 449.016 -1.1986 1.75349 0
M  V30 4334 H 451.279 -0.585418 0.745647 0
M  V30 4335 H 450.985 -2.60619 2.36158 0
M  V30 4336 H 450.859 -3.64888 0.955843 0
M  V30 4337 H 453.246 -2.93927 0.262876 0
M  V30 4338 H 453.327 -1.91093 1.70051 0
M  V30 4339 H 452.971 -3.97092 3.1667 0
M  V30 4340 H 452.901 -4.98323 1.70242 0
M  V30 4341 H 455.392 -3.42515 1.59662 0
M  V30 4342 H 455.705 -6.71724 3.82109 0
M  V30 4343 H 454.05 -6.04443 3.43036 0
M  V30 4344 H 457.241 -4.20641 2.05375 0
M  V30 4345 H 457.414 -5.70773 3.06793 0
M  V30 4346 N 450.82 -0.546701 -1.47814 0
M  V30 4347 C 452.069 -0.0166497 -2.01693 0
M  V30 4348 C 452.382 1.33721 -1.42752 0
M  V30 4349 O 453.588 1.95658 -1.8823 0
M  V30 4350 C 452.044 0.0206769 -3.59894 0
M  V30 4351 C 451.652 -1.3293 -4.27824 0
M  V30 4352 C 453.396 0.498674 -4.21561 0
M  V30 4353 C 451.303 -1.25165 -5.78003 0
M  V30 4354 H 450.233 -0.0024541 -0.753996 0
M  V30 4355 H 452.884 -0.692984 -1.69912 0
M  V30 4356 H 451.266 0.76244 -3.88591 0
M  V30 4357 H 452.44 -2.08795 -4.10781 0
M  V30 4358 H 450.755 -1.74438 -3.78101 0
M  V30 4359 H 453.352 0.575 -5.31599 0
M  V30 4360 H 453.695 1.5083 -3.88016 0
M  V30 4361 H 454.228 -0.18791 -3.97356 0
M  V30 4362 H 450.967 -2.23695 -6.1615 0
M  V30 4363 H 450.487 -0.53464 -5.97412 0
M  V30 4364 H 452.166 -0.949299 -6.39998 0
M  V30 4365 N 452.299 1.55045 -0.282633 0
M  V30 4366 C 453.249 2.19514 0.616249 0
M  V30 4367 C 454.233 1.16216 1.11277 0
M  V30 4368 O 455.425 1.42004 1.05659 0
M  V30 4369 C 452.554 2.92548 1.7964 0
M  V30 4370 C 451.64 4.03142 1.31671 0
M  V30 4371 N 452.031 5.0276 0.553695 0
M  V30 4372 C 450.329 4.1635 1.59903 0
M  V30 4373 C 451.03 5.80923 0.30054 0
M  V30 4374 N 450.006 5.3651 0.875116 0
M  V30 4375 H 453.808 2.93889 0.0255363 0
M  V30 4376 H 451.322 1.62169 -0.0865362 0
M  V30 4377 H 453.319 3.37188 2.45173 0
M  V30 4378 H 451.979 2.19685 2.39099 0
M  V30 4379 H 452.99 5.17512 0.20032 0
M  V30 4380 H 449.667 3.54682 2.20243 0
M  V30 4381 H 451.057 6.7118 -0.311053 0
M  V30 4382 N 453.777 0.010035 1.57597 0
M  V30 4383 C 455.017 -0.677084 1.9286 0
M  V30 4384 C 455.381 -1.70377 0.885192 0
M  V30 4385 O 456.582 -2.44199 1.12339 0
M  V30 4386 C 454.853 -1.29452 3.33132 0
M  V30 4387 S 456.412 -2.00537 3.90295 0
M  V30 4388 H 453.23 -0.223409 0.674989 0
M  V30 4389 H 455.832 0.0691289 1.95378 0
M  V30 4390 H 454.536 -0.534593 4.06903 0
M  V30 4391 H 454.067 -2.07845 3.34012 0
M  V30 4392 H 456.082 -3.28168 3.72183 0
M  V30 4393 N 455.255 -1.55392 -0.262866 0
M  V30 4394 C 456.671 -1.47459 -0.610582 0
M  V30 4395 C 456.871 -0.697031 -1.8906 0
M  V30 4396 O 455.927 -0.219952 -2.5154 0
M  V30 4397 C 457.24 -2.91751 -0.728131 0
M  V30 4398 C 458.788 -3.02027 -0.821517 0
M  V30 4399 C 459.263 -4.47594 -0.97076 0
M  V30 4400 N 460.754 -4.51465 -1.03603 0
M  V30 4401 C 461.489 -5.61326 -1.17049 0
M  V30 4402 N 460.985 -6.81032 -1.2715 0
M  V30 4403 N 462.778 -5.49089 -1.20239 0
M  V30 4404 H 454.929 -2.04395 0.577632 0
M  V30 4405 H 457.192 -0.927287 0.197086 0
M  V30 4406 H 456.898 -3.51413 0.142132 0
M  V30 4407 H 456.772 -3.4134 -1.6052 0
M  V30 4408 H 459.159 -2.42456 -1.68224 0
M  V30 4409 H 459.24 -2.55674 0.0803688 0
M  V30 4410 H 458.884 -5.07771 -0.114655 0
M  V30 4411 H 458.814 -4.91613 -1.88745 0
M  V30 4412 H 461.305 -3.6524 -0.96996 0
M  V30 4413 H 461.618 -7.60511 -1.37271 0
M  V30 4414 H 459.963 -6.83824 -1.24136 0
M  V30 4415 H 463.154 -4.54507 -1.11985 0
M  V30 4416 H 463.327 -6.34749 -1.30373 0
M  V30 4417 N 456.733 0.527833 -1.48498 0
M  V30 4418 C 457.981 1.28101 -1.56316 0
M  V30 4419 C 458.302 1.9352 -0.239781 0
M  V30 4420 O 457.572 1.81433 0.738849 0
M  V30 4421 H 456.152 0.475793 -0.575873 0
M  V30 4422 H 458.814 0.614052 -1.84974 0
M  V30 4423 H 457.91 2.05916 -2.34532 0
M  V30 4424 N 458.211 1.37122 0.776871 0
M  V30 4425 C 459.174 1.32301 1.8716 0
M  V30 4426 C 460.174 0.228099 1.59174 0
M  V30 4427 O 461.364 0.483642 1.67352 0
M  V30 4428 C 458.496 1.054 3.24197 0
M  V30 4429 H 459.689 2.29673 1.92848 0
M  V30 4430 H 457.242 1.22077 0.97606 0
M  V30 4431 H 457.977 0.0853872 3.24188 0
M  V30 4432 H 457.762 1.84648 3.45901 0
M  V30 4433 H 459.252 1.04664 4.04271 0
M  V30 4434 N 459.689 -1.00246 1.21608 0
M  V30 4435 C 460.652 -2.07233 0.979133 0
M  V30 4436 C 461.652 -1.6072 -0.0508219 0
M  V30 4437 O 462.842 -1.73196 0.186712 0
M  V30 4438 C 459.974 -3.37546 0.477016 0
M  V30 4439 H 461.167 -2.29687 1.92831 0
M  V30 4440 H 458.72 -1.17261 1.03342 0
M  V30 4441 H 459.455 -3.20773 -0.476966 0
M  V30 4442 H 459.24 -3.72638 1.21997 0
M  V30 4443 H 460.73 -4.16285 0.331181 0
M  V30 4444 N 461.167 -1.02423 -1.1978 0
M  V30 4445 C 462.395 -0.737456 -1.93311 0
M  V30 4446 C 462.81 0.703023 -1.75223 0
M  V30 4447 O 462.167 1.47761 -1.07112 0
M  V30 4448 C 462.218 -1.0733 -3.45199 0
M  V30 4449 O 461.939 -2.4572 -3.62702 0
M  V30 4450 C 463.44 -0.80866 -4.35862 0
M  V30 4451 H 460.66 -0.2702 -0.614193 0
M  V30 4452 H 463.204 -1.36747 -1.52054 0
M  V30 4453 H 461.359 -0.488545 -3.84307 0
M  V30 4454 H 461.773 -2.58081 -4.56612 0
M  V30 4455 H 463.247 -1.09365 -5.41057 0
M  V30 4456 H 463.724 0.257025 -4.38447 0
M  V30 4457 H 464.33 -1.37592 -4.02428 0
M  V30 4458 N 462.645 1.35699 -0.801477 0
M  V30 4459 C 463.893 1.9852 -0.37871 0
M  V30 4460 C 464.214 1.63907 1.05638 0
M  V30 4461 O 463.484 0.919013 1.73006 0
M  V30 4462 H 462.064 0.734322 -0.137042 0
M  V30 4463 H 464.726 1.65697 -1.02619 0
M  V30 4464 H 463.822 3.08382 -0.480284 0
M  V30 4465 N 464.123 0.554532 1.47522 0
M  V30 4466 C 465.086 -0.184174 2.28459 0
M  V30 4467 C 466.086 -0.845195 1.36796 0
M  V30 4468 O 467.276 -0.701467 1.59452 0
M  V30 4469 C 464.408 -1.26903 3.16399 0
M  V30 4470 H 465.601 0.526751 2.95238 0
M  V30 4471 H 463.154 0.311375 1.53167 0
M  V30 4472 H 463.889 -2.01244 2.54306 0
M  V30 4473 H 463.674 -0.799883 3.83854 0
M  V30 4474 H 465.164 -1.78794 3.77389 0
M  V30 4475 N 465.601 -1.54893 0.290851 0
M  V30 4476 C 466.878 -1.91991 -0.373989 0
M  V30 4477 C 467.258 -1.21694 -1.72493 0
M  V30 4478 O 466.606 -0.34917 -2.25816 0
M  V30 4479 C 466.816 -3.45419 -0.498703 0
M  V30 4480 C 468.164 -4.1748 -0.774298 0
M  V30 4481 O 469.188 -3.51398 -0.582908 0
M  V30 4482 O 468.047 -5.3445 -1.14129 0
M  V30 4483 H 465.141 -0.800593 -0.207315 0
M  V30 4484 H 467.687 -1.66297 0.338164 0
M  V30 4485 H 466.459 -3.88688 0.451392 0
M  V30 4486 H 466.082 -3.77117 -1.25972 0
M  V30 4487 N 467.08 -0.0183926 -1.57589 0
M  V30 4488 C 468.328 0.661253 -1.90976 0
M  V30 4489 C 468.649 1.73281 -0.894353 0
M  V30 4490 O 467.919 1.9579 0.0656788 0
M  V30 4491 H 466.499 0.247233 -0.704901 0
M  V30 4492 H 469.161 -0.0636639 -1.94796 0
M  V30 4493 H 468.257 1.12083 -2.9128 0
M  V30 4494 N 468.558 1.5553 0.254621 0
M  V30 4495 C 469.521 1.88872 1.29846 0
M  V30 4496 C 470.521 0.764591 1.41459 0
M  V30 4497 O 471.711 1.03265 1.40293 0
M  V30 4498 C 468.843 2.11032 2.67728 0
M  V30 4499 H 470.036 2.82201 1.01502 0
M  V30 4500 H 467.589 1.48303 0.493556 0
M  V30 4501 H 468.324 1.20146 3.01223 0
M  V30 4502 H 468.109 2.92895 2.60682 0
M  V30 4503 H 469.599 2.38038 3.43115 0
M  V30 4504 N 470.036 -0.519951 1.48776 0
M  V30 4505 C 470.986 -1.61995 1.60442 0
M  V30 4506 C 471.97 -1.54155 0.460991 0
M  V30 4507 O 473.162 -1.62006 0.712965 0
M  V30 4508 C 470.291 -3.00683 1.65664 0
M  V30 4509 C 469.377 -3.1359 2.8552 0
M  V30 4510 N 469.768 -2.96441 4.09825 0
M  V30 4511 C 468.066 -3.44662 2.83062 0
M  V30 4512 C 468.767 -3.1303 4.90293 0
M  V30 4513 N 467.743 -3.41058 4.23297 0
M  V30 4514 H 471.545 -1.47362 2.54287 0
M  V30 4515 H 469.059 -0.725649 1.45286 0
M  V30 4516 H 471.056 -3.79712 1.72117 0
M  V30 4517 H 469.716 -3.16401 0.729425 0
M  V30 4518 H 470.727 -2.72999 4.40104 0
M  V30 4519 H 467.404 -3.66675 1.9964 0
M  V30 4520 H 468.794 -3.04424 5.98979 0
M  V30 4521 N 471.514 -1.37532 -0.769588 0
M  V30 4522 C 472.762 -1.32597 -1.5252 0
M  V30 4523 C 473.083 0.0884294 -1.94799 0
M  V30 4524 O 472.353 1.03289 -1.66458 0
M  V30 4525 H 470.933 -0.487846 -0.565699 0
M  V30 4526 H 473.595 -1.72044 -0.915806 0
M  V30 4527 H 472.691 -1.96643 -2.42359 0
M  V30 4528 N 472.992 0.995999 -1.22138 0
M  V30 4529 C 473.925 2.08302 -0.931952 0
M  V30 4530 C 474.903 1.62127 0.123956 0
M  V30 4531 O 476.087 1.88499 -0.00696004 0
M  V30 4532 C 473.214 3.36317 -0.401068 0
M  V30 4533 C 472.26 4.01413 -1.44117 0
M  V30 4534 S 473.093 4.42664 -3.01345 0
M  V30 4535 C 474.249 5.73853 -2.49887 0
M  V30 4536 H 474.482 2.32532 -1.85246 0
M  V30 4537 H 472.015 1.13005 -1.0521 0
M  V30 4538 H 473.973 4.10375 -0.101352 0
M  V30 4539 H 472.634 3.10123 0.498272 0
M  V30 4540 H 471.827 4.9358 -1.01952 0
M  V30 4541 H 471.429 3.33668 -1.68943 0
M  V30 4542 H 473.721 6.50039 -1.90934 0
M  V30 4543 H 474.664 6.20841 -3.40532 0
M  V30 4544 H 475.072 5.31105 -1.9128 0
M  V30 4545 N 474.47 1.03057 1.19235 0
M  V30 4546 C 475.886 0.747947 1.40989 0
M  V30 4547 C 476.086 -0.666752 1.90149 0
M  V30 4548 O 475.142 -1.43249 2.07933 0
M  V30 4549 C 476.455 1.7855 2.41951 0
M  V30 4550 C 478.003 1.80524 2.55695 0
M  V30 4551 C 478.478 2.83243 3.59913 0
M  V30 4552 N 479.969 2.8207 3.67411 0
M  V30 4553 C 480.704 3.58204 4.47747 0
M  V30 4554 N 480.2 4.44057 5.31775 0
M  V30 4555 N 481.993 3.46738 4.42413 0
M  V30 4556 H 474.144 1.94367 0.856468 0
M  V30 4557 H 476.407 0.840412 0.438647 0
M  V30 4558 H 476.113 2.79973 2.12857 0
M  V30 4559 H 475.987 1.6092 3.41152 0
M  V30 4560 H 478.374 0.79778 2.84112 0
M  V30 4561 H 478.455 2.02229 1.56643 0
M  V30 4562 H 478.099 3.84161 3.32239 0
M  V30 4563 H 478.029 2.58795 4.5862 0
M  V30 4564 H 480.52 2.19803 3.074 0
M  V30 4565 H 480.833 4.98884 5.90199 0
M  V30 4566 H 479.178 4.48129 5.3123 0
M  V30 4567 H 482.369 2.79077 3.75811 0
M  V30 4568 H 482.542 4.06322 5.04783 0
M  V30 4569 N 475.948 -1.35272 0.808662 0
M  V30 4570 C 477.173 -2.03477 0.401475 0
M  V30 4571 C 477.598 -1.60537 -0.980279 0
M  V30 4572 O 476.956 -0.78304 -1.63518 0
M  V30 4573 C 477.004 -3.57181 0.495354 0
M  V30 4574 O 476.108 -4.09474 -0.490397 0
M  V30 4575 H 475.449 -0.642561 0.167366 0
M  V30 4576 H 477.979 -1.72824 1.09512 0
M  V30 4577 H 477.989 -4.06356 0.365912 0
M  V30 4578 H 476.664 -3.87784 1.5032 0
M  V30 4579 H 475.241 -3.71516 -0.321023 0
M  V30 4580 N 477.426 -0.562348 -1.47226 0
M  V30 4581 C 478.389 0.172056 -2.28553 0
M  V30 4582 C 479.389 0.837928 -1.37242 0
M  V30 4583 O 480.579 0.693001 -1.59822 0
M  V30 4584 C 477.711 1.25223 -3.17068 0
M  V30 4585 H 478.904 -0.542401 -2.94954 0
M  V30 4586 H 476.457 -0.319493 -1.53 0
M  V30 4587 H 477.192 1.99892 -2.55369 0
M  V30 4588 H 476.977 0.779515 -3.84273 0
M  V30 4589 H 478.467 1.76791 -3.78332 0
M  V30 4590 N 478.904 1.54736 -0.299062 0
M  V30 4591 C 479.851 2.23448 0.577899 0
M  V30 4592 C 480.821 1.21637 1.13109 0
M  V30 4593 O 482.006 1.50252 1.17597 0
M  V30 4594 C 479.146 2.9774 1.74484 0
M  V30 4595 C 478.259 4.1432 1.22323 0
M  V30 4596 C 477.394 4.76199 2.35388 0
M  V30 4597 C 476.433 5.84927 1.80351 0
M  V30 4598 N 475.57 6.4077 2.86982 0
M  V30 4599 H 480.41 2.97996 -0.0146545 0
M  V30 4600 H 477.947 1.47088 -0.0190013 0
M  V30 4601 H 479.905 3.39045 2.43114 0
M  V30 4602 H 478.535 2.25572 2.30905 0
M  V30 4603 H 477.587 3.7797 0.429249 0
M  V30 4604 H 478.899 4.92659 0.780309 0
M  V30 4605 H 478.053 5.20346 3.11969 0
M  V30 4606 H 476.792 3.97188 2.83006 0
M  V30 4607 H 475.797 5.40207 1.02259 0
M  V30 4608 H 477.022 6.65821 1.3364 0
M  V30 4609 H 474.968 5.64643 3.33938 0
M  V30 4610 H 474.885 7.1445 2.4718 0
M  V30 4611 H 476.153 6.89574 3.63466 0
M  V30 4612 N 480.382 0.0267497 1.57577 0
M  V30 4613 C 481.63 -0.651116 1.91324 0
M  V30 4614 C 481.951 -1.72804 0.90353 0
M  V30 4615 O 481.221 -1.95822 -0.0552946 0
M  V30 4616 H 479.801 -0.243491 0.706202 0
M  V30 4617 H 482.463 0.0739935 1.94759 0
M  V30 4618 H 481.559 -1.10536 2.9187 0
M  V30 4619 N 481.861 -1.55662 -0.24637 0
M  V30 4620 C 482.811 -1.86753 -1.30795 0
M  V30 4621 C 483.795 -0.728445 -1.43466 0
M  V30 4622 O 484.987 -0.99038 -1.46699 0
M  V30 4623 C 482.116 -2.16618 -2.66329 0
M  V30 4624 C 481.202 -3.36855 -2.57661 0
M  V30 4625 N 481.593 -4.56111 -2.18624 0
M  V30 4626 C 479.891 -3.39976 -2.88673 0
M  V30 4627 C 480.592 -5.38247 -2.20601 0
M  V30 4628 N 479.568 -4.77322 -2.60124 0
M  V30 4629 H 483.37 -2.76486 -0.996642 0
M  V30 4630 H 480.884 -1.55896 -0.454994 0
M  V30 4631 H 482.881 -2.37057 -3.42942 0
M  V30 4632 H 481.541 -1.28185 -2.98327 0
M  V30 4633 H 482.552 -4.81726 -1.9016 0
M  V30 4634 H 479.229 -2.61815 -3.25206 0
M  V30 4635 H 480.619 -6.43657 -1.92756 0
M  V30 4636 N 483.339 0.512053 -1.4905 0
M  V30 4637 C 484.567 1.29116 -1.61669 0
M  V30 4638 C 484.982 1.86655 -0.283787 0
M  V30 4639 O 484.339 1.67293 0.729331 0
M  V30 4640 C 484.39 2.4293 -2.67707 0
M  V30 4641 O 484.111 1.87758 -3.95826 0
M  V30 4642 C 485.612 3.34476 -2.90931 0
M  V30 4643 H 482.832 0.392009 -0.544583 0
M  V30 4644 H 485.376 0.615881 -1.95006 0
M  V30 4645 H 483.531 3.06308 -2.37179 0
M  V30 4646 H 483.945 2.62393 -4.54148 0
M  V30 4647 H 485.419 4.10642 -3.68886 0
M  V30 4648 H 485.896 3.90801 -2.00427 0
M  V30 4649 H 486.502 2.76874 -3.22832 0
M  V30 4650 N 484.817 1.37938 0.762283 0
M  V30 4651 C 486.064 1.33668 1.52115 0
M  V30 4652 C 486.392 -0.0759538 1.94352 0
M  V30 4653 O 485.647 -1.05121 1.6507 0
M  V30 4654 C 485.946 2.23042 2.79261 0
M  V30 4655 C 485.612 3.71159 2.56031 0
M  V30 4656 C 484.274 4.11523 2.49404 0
M  V30 4657 C 486.626 4.64955 2.35513 0
M  V30 4658 C 483.954 5.43784 2.20263 0
M  V30 4659 C 486.306 5.97464 2.07894 0
M  V30 4660 C 484.97 6.36922 1.99718 0
M  V30 4661 H 484.24 0.489127 0.556629 0
M  V30 4662 H 486.887 1.70224 0.877262 0
M  V30 4663 H 485.192 1.79512 3.48256 0
M  V30 4664 H 486.889 2.17047 3.37182 0
M  V30 4665 H 483.479 3.39153 2.62056 0
M  V30 4666 H 487.663 4.34623 2.39617 0
M  V30 4667 H 482.919 5.73307 2.12435 0
M  V30 4668 H 487.093 6.6969 1.91019 0
M  V30 4669 H 484.72 7.39331 1.76902 0
M  V30 4670 N 486.295 -0.989507 1.22664 0
M  V30 4671 C 487.711 -1.25395 0.987331 0
M  V30 4672 C 487.911 -1.9899 -0.317056 0
M  V30 4673 O 486.967 -2.30141 -1.03882 0
M  V30 4674 C 488.28 -2.06242 2.18826 0
M  V30 4675 C 489.828 -2.19413 2.23219 0
M  V30 4676 C 490.303 -3.03648 3.42873 0
M  V30 4677 N 491.794 -3.11234 3.43056 0
M  V30 4678 C 492.529 -3.7671 4.32293 0
M  V30 4679 N 492.025 -4.44085 5.31752 0
M  V30 4680 N 493.818 -3.73505 4.2006 0
M  V30 4681 H 485.969 -0.496212 2.06522 0
M  V30 4682 H 488.232 -0.281784 0.905153 0
M  V30 4683 H 487.938 -1.59531 3.13437 0
M  V30 4684 H 487.812 -3.06996 2.19165 0
M  V30 4685 H 490.199 -2.65336 1.29154 0
M  V30 4686 H 490.28 -1.18078 2.26917 0
M  V30 4687 H 489.924 -2.58424 4.37241 0
M  V30 4688 H 489.854 -4.05132 3.36416 0
M  V30 4689 H 492.345 -2.63287 2.71088 0
M  V30 4690 H 492.658 -4.91797 5.96117 0
M  V30 4691 H 491.003 -4.42822 5.35662 0
M  V30 4692 H 494.194 -3.20033 3.41609 0
M  V30 4693 H 494.367 -4.24253 4.8981 0
M  V30 4694 N 487.773 -1.03688 -1.18687 0
M  V30 4695 C 488.998 -0.757819 -1.93059 0
M  V30 4696 C 489.423 0.678353 -1.75442 0
M  V30 4697 O 488.781 1.46938 -1.06203 0
M  V30 4698 C 488.829 -1.12423 -3.42627 0
M  V30 4699 O 487.933 -0.247505 -4.11657 0
M  V30 4700 H 487.274 -0.279245 -0.602427 0
M  V30 4701 H 489.804 -1.3857 -1.5053 0
M  V30 4702 H 489.814 -1.08454 -3.93322 0
M  V30 4703 H 488.489 -2.17049 -3.54771 0
M  V30 4704 H 487.066 -0.34649 -3.71287 0
M  V30 4705 N 489.251 1.34841 -0.815825 0
M  V30 4706 C 490.476 2.03261 -0.41226 0
M  V30 4707 C 490.901 1.61055 0.971751 0
M  V30 4708 O 490.259 0.7917 1.63101 0
M  V30 4709 C 490.307 3.56914 -0.514289 0
M  V30 4710 O 489.411 4.09728 0.468675 0
M  V30 4711 H 488.752 0.641664 -0.170771 0
M  V30 4712 H 491.282 1.72241 -1.10427 0
M  V30 4713 H 491.292 4.06156 -0.387457 0
M  V30 4714 H 489.967 3.86982 -1.52375 0
M  V30 4715 H 488.544 3.71681 0.301316 0
M  V30 4716 N 490.729 0.570148 1.46925 0
M  V30 4717 C 491.659 -0.158274 2.32963 0
M  V30 4718 C 492.64 -0.896093 1.44583 0
M  V30 4719 O 493.825 -0.874022 1.7342 0
M  V30 4720 C 490.955 -1.18055 3.26619 0
M  V30 4721 C 489.909 -0.558379 4.24342 0
M  V30 4722 C 489.235 -1.68623 5.07415 0
M  V30 4723 C 490.535 0.496295 5.19937 0
M  V30 4724 H 492.229 0.560046 2.94115 0
M  V30 4725 H 489.775 0.270775 1.41431 0
M  V30 4726 H 491.728 -1.69841 3.85658 0
M  V30 4727 H 490.452 -1.92899 2.63548 0
M  V30 4728 H 489.111 -0.0617157 3.66548 0
M  V30 4729 H 488.759 -2.42402 4.40738 0
M  V30 4730 H 488.459 -1.27564 5.73586 0
M  V30 4731 H 489.983 -2.20709 5.69315 0
M  V30 4732 H 491.397 0.0640052 5.73264 0
M  V30 4733 H 489.794 0.82649 5.94381 0
M  V30 4734 H 490.864 1.38735 4.6463 0
M  V30 4735 N 492.207 -1.54576 0.307264 0
M  V30 4736 C 493.432 -2.05139 -0.305379 0
M  V30 4737 C 493.857 -1.18278 -1.46259 0
M  V30 4738 O 493.215 -0.188243 -1.8032 0
M  V30 4739 C 493.263 -3.53066 -0.733283 0
M  V30 4740 O 492.367 -3.69206 -1.83741 0
M  V30 4741 H 491.708 -0.661444 -0.0582105 0
M  V30 4742 H 494.238 -1.99569 0.450931 0
M  V30 4743 H 494.248 -3.95034 -1.02039 0
M  V30 4744 H 492.923 -4.15746 0.113198 0
M  V30 4745 H 491.5 -3.39143 -1.55037 0
M  V30 4746 N 493.685 -0.035106 -1.57561 0
M  V30 4747 C 494.931 0.64318 -1.92331 0
M  V30 4748 C 495.264 1.71434 -0.912368 0
M  V30 4749 O 494.539 1.94395 0.0640303 0
M  V30 4750 C 494.822 1.25411 -3.37556 0
M  V30 4751 C 494.675 0.192109 -4.4939 0
M  V30 4752 C 495.994 2.17041 -3.82859 0
M  V30 4753 H 493.113 0.232341 -0.699419 0
M  V30 4754 H 495.755 -0.0935889 -1.89769 0
M  V30 4755 H 493.905 1.88205 -3.39869 0
M  V30 4756 H 495.577 -0.438849 -4.59208 0
M  V30 4757 H 493.82 -0.481725 -4.31117 0
M  V30 4758 H 494.491 0.659292 -5.48049 0
M  V30 4759 H 496.967 1.64228 -3.8232 0
M  V30 4760 H 495.843 2.56738 -4.85157 0
M  V30 4761 H 496.104 3.06401 -3.18702 0
M  V30 4762 N 495.163 1.55791 0.238111 0
M  V30 4763 C 496.579 1.48411 0.587045 0
M  V30 4764 C 496.779 0.72702 1.87927 0
M  V30 4765 O 495.835 0.259942 2.51158 0
M  V30 4766 C 497.148 2.92873 0.681623 0
M  V30 4767 C 498.696 3.03295 0.773363 0
M  V30 4768 C 499.171 4.49082 0.899428 0
M  V30 4769 N 500.662 4.53056 0.964075 0
M  V30 4770 C 501.397 5.63117 1.08104 0
M  V30 4771 N 500.893 6.82969 1.16299 0
M  V30 4772 N 502.686 5.50933 1.11488 0
M  V30 4773 H 494.837 2.0345 -0.610076 0
M  V30 4774 H 497.1 0.924034 -0.211813 0
M  V30 4775 H 496.806 3.51142 -0.19802 0
M  V30 4776 H 496.68 3.43851 1.55069 0
M  V30 4777 H 499.067 2.45101 1.64346 0
M  V30 4778 H 499.148 2.55513 -0.121034 0
M  V30 4779 H 498.792 5.07889 0.0338586 0
M  V30 4780 H 498.722 4.94553 1.809 0
M  V30 4781 H 501.213 3.66737 0.91173 0
M  V30 4782 H 501.526 7.62598 1.25155 0
M  V30 4783 H 499.871 6.85712 1.13241 0
M  V30 4784 H 503.062 4.56231 1.0474 0
M  V30 4785 H 503.235 6.36743 1.20259 0
M  V30 4786 N 496.642 -0.504142 1.49319 0
M  V30 4787 C 497.572 -1.61473 1.68667 0
M  V30 4788 C 498.553 -1.61455 0.535378 0
M  V30 4789 O 499.738 -1.78245 0.770868 0
M  V30 4790 C 496.868 -2.99971 1.75028 0
M  V30 4791 C 495.822 -3.14854 2.89916 0
M  V30 4792 C 495.148 -4.54671 2.81387 0
M  V30 4793 C 496.448 -2.95176 4.30893 0
M  V30 4794 H 498.142 -1.45535 2.61648 0
M  V30 4795 H 495.688 -0.698711 1.25913 0
M  V30 4796 H 497.641 -3.77562 1.8715 0
M  V30 4797 H 496.365 -3.1699 0.786441 0
M  V30 4798 H 495.024 -2.39687 2.77391 0
M  V30 4799 H 494.672 -4.68562 1.82917 0
M  V30 4800 H 494.372 -4.6557 3.58494 0
M  V30 4801 H 495.896 -5.34327 2.95512 0
M  V30 4802 H 497.31 -3.62538 4.44116 0
M  V30 4803 H 495.707 -3.17549 5.09198 0
M  V30 4804 H 496.777 -1.91332 4.45556 0
M  V30 4805 N 498.12 -1.38341 -0.754957 0
M  V30 4806 C 499.05 -1.38176 -1.88227 0
M  V30 4807 C 500.031 -0.247873 -1.68284 0
M  V30 4808 O 501.216 -0.45075 -1.88896 0
M  V30 4809 C 498.346 -1.20471 -3.25736 0
M  V30 4810 C 497.3 -2.3105 -3.60278 0
M  V30 4811 C 496.626 -1.98452 -4.96509 0
M  V30 4812 C 497.926 -3.73305 -3.65295 0
M  V30 4813 H 499.62 -2.32512 -1.88622 0
M  V30 4814 H 497.166 -1.1192 -0.906082 0
M  V30 4815 H 499.119 -1.18982 -4.04254 0
M  V30 4816 H 497.843 -0.225965 -3.25817 0
M  V30 4817 H 496.502 -2.31723 -2.84078 0
M  V30 4818 H 496.15 -0.990641 -4.93148 0
M  V30 4819 H 495.85 -2.7251 -5.20588 0
M  V30 4820 H 497.374 -1.98578 -5.77407 0
M  V30 4821 H 498.788 -3.7467 -4.3393 0
M  V30 4822 H 497.185 -4.46557 -4.00883 0
M  V30 4823 H 498.255 -4.05719 -2.65556 0
M  V30 4824 N 499.598 0.982988 -1.23187 0
M  V30 4825 C 500.545 2.07491 -1.01075 0
M  V30 4826 C 501.515 1.65949 0.070905 0
M  V30 4827 O 502.7 1.90629 -0.0806822 0
M  V30 4828 C 499.84 3.39751 -0.605261 0
M  V30 4829 C 498.953 3.94578 -1.75876 0
M  V30 4830 C 498.088 5.15039 -1.3003 0
M  V30 4831 C 497.127 5.62027 -2.42472 0
M  V30 4832 N 496.264 6.73719 -1.97602 0
M  V30 4833 H 501.104 2.25739 -1.9454 0
M  V30 4834 H 498.641 1.10659 -0.969179 0
M  V30 4835 H 500.599 4.15719 -0.351279 0
M  V30 4836 H 499.229 3.21473 0.292382 0
M  V30 4837 H 498.281 3.1539 -2.12681 0
M  V30 4838 H 499.593 4.25422 -2.60418 0
M  V30 4839 H 498.747 5.9833 -1.00429 0
M  V30 4840 H 497.486 4.85843 -0.425216 0
M  V30 4841 H 496.491 4.77318 -2.7285 0
M  V30 4842 H 497.716 5.93244 -3.30512 0
M  V30 4843 H 495.662 6.46287 -1.1247 0
M  V30 4844 H 495.579 7.03934 -2.75705 0
M  V30 4845 H 496.847 7.6049 -1.71098 0
M  V30 4846 N 501.076 1.04316 1.18135 0
M  V30 4847 C 502.323 0.74802 1.88178 0
M  V30 4848 C 502.651 -0.72441 1.80506 0
M  V30 4849 O 501.906 -1.54463 1.20165 0
M  V30 4850 C 502.205 1.16271 3.37958 0
M  V30 4851 C 501.871 2.63585 3.65833 0
M  V30 4852 C 500.533 3.03829 3.73151 0
M  V30 4853 C 502.885 3.58822 3.78016 0
M  V30 4854 C 500.213 4.38194 3.90132 0
M  V30 4855 C 502.565 4.92909 3.96514 0
M  V30 4856 C 501.229 5.3282 4.02068 0
M  V30 4857 H 500.499 0.27372 0.688592 0
M  V30 4858 H 503.146 1.30863 1.39811 0
M  V30 4859 H 501.451 0.520938 3.88321 0
M  V30 4860 H 503.148 0.911672 3.90499 0
M  V30 4861 H 499.738 2.31414 3.60757 0
M  V30 4862 H 503.922 3.28875 3.71692 0
M  V30 4863 H 499.178 4.68631 3.92677 0
M  V30 4864 H 503.352 5.66606 4.04883 0
M  V30 4865 H 500.979 6.36943 4.14979 0
M  V30 4866 N 502.554 -1.34406 0.822964 0
M  V30 4867 C 503.779 -2.0304 0.423034 0
M  V30 4868 C 504.204 -1.61568 -0.963196 0
M  V30 4869 O 503.562 -0.800339 -1.62678 0
M  V30 4870 C 503.61 -3.56636 0.53321 0
M  V30 4871 O 502.714 -4.09971 -0.446939 0
M  V30 4872 H 502.055 -0.64075 0.174171 0
M  V30 4873 H 504.585 -1.71653 1.11339 0
M  V30 4874 H 504.595 -4.05945 0.408991 0
M  V30 4875 H 503.27 -3.86168 1.54425 0
M  V30 4876 H 501.847 -3.71835 -0.281601 0
M  V30 4877 N 504.032 -0.577932 -1.46621 0
M  V30 4878 C 505.448 -0.239242 -1.57797 0
M  V30 4879 C 505.648 1.25843 -1.57371 0
M  V30 4880 O 504.704 2.03988 -1.48813 0
M  V30 4881 C 506.017 -0.884227 -2.87405 0
M  V30 4882 C 507.565 -0.857373 -3.01028 0
M  V30 4883 C 508.04 -1.48181 -4.33366 0
M  V30 4884 N 509.531 -1.44593 -4.40053 0
M  V30 4885 C 510.266 -1.89852 -5.41058 0
M  V30 4886 N 509.762 -2.43062 -6.48762 0
M  V30 4887 N 511.555 -1.80797 -5.3223 0
M  V30 4888 H 503.706 -1.55073 -1.45142 0
M  V30 4889 H 505.969 -0.647903 -0.692044 0
M  V30 4890 H 505.675 -1.93759 -2.93514 0
M  V30 4891 H 505.549 -0.389585 -3.75183 0
M  V30 4892 H 507.936 0.187357 -2.94505 0
M  V30 4893 H 508.017 -1.38999 -2.14739 0
M  V30 4894 H 507.661 -2.52572 -4.40647 0
M  V30 4895 H 507.591 -0.924464 -5.18422 0
M  V30 4896 H 510.082 -1.05694 -3.62819 0
M  V30 4897 H 510.395 -2.75466 -7.22038 0
M  V30 4898 H 508.74 -2.47085 -6.49595 0
M  V30 4899 H 511.931 -1.38989 -4.46989 0
M  V30 4900 H 512.104 -2.16385 -6.10804 0
M  V30 4901 N 505.51 1.54411 -0.315457 0
M  V30 4902 C 506.42 2.27737 0.56329 0
M  V30 4903 C 507.436 1.31787 1.13614 0
M  V30 4904 O 508.612 1.64791 1.15784 0
M  V30 4905 C 505.677 3.01478 1.71207 0
M  V30 4906 C 504.738 4.12997 1.17185 0
M  V30 4907 C 503.971 4.83212 2.26588 0
M  V30 4908 O 504.194 4.52884 3.46775 0
M  V30 4909 O 503.128 5.70299 1.92463 0
M  V30 4910 H 506.954 3.03683 -0.0319614 0
M  V30 4911 H 504.539 1.49178 -0.0814188 0
M  V30 4912 H 506.421 3.47683 2.38106 0
M  V30 4913 H 505.096 2.28414 2.29366 0
M  V30 4914 H 504.003 3.71159 0.468174 0
M  V30 4915 H 505.336 4.8808 0.635501 0
M  V30 4916 N 506.988 0.0434614 1.5754 0
M  V30 4917 C 507.935 -0.93356 2.11077 0
M  V30 4918 C 508.905 -1.31383 1.01626 0
M  V30 4919 O 510.09 -1.40465 1.29129 0
M  V30 4920 C 507.23 -2.20578 2.65404 0
M  V30 4921 C 506.343 -1.88068 3.88914 0
M  V30 4922 C 505.478 -3.09691 4.31584 0
M  V30 4923 C 504.517 -2.73067 5.47815 0
M  V30 4924 N 503.654 -3.87359 5.85574 0
M  V30 4925 H 508.494 -0.470118 2.94268 0
M  V30 4926 H 506.031 -0.220434 1.45439 0
M  V30 4927 H 507.989 -2.95011 2.94999 0
M  V30 4928 H 506.619 -2.64513 1.85021 0
M  V30 4929 H 505.671 -1.03816 3.6596 0
M  V30 4930 H 506.983 -1.57104 4.73413 0
M  V30 4931 H 506.137 -3.92431 4.62691 0
M  V30 4932 H 504.876 -3.43827 3.45882 0
M  V30 4933 H 503.881 -1.88742 5.16388 0
M  V30 4934 H 505.106 -2.40131 6.35227 0
M  V30 4935 H 503.052 -4.21311 5.02825 0
M  V30 4936 H 502.969 -3.60068 6.64746 0
M  V30 4937 H 504.237 -4.70761 6.21292 0
M  V30 4938 N 508.466 -1.55915 -0.229846 0
M  V30 4939 C 509.413 -1.91734 -1.28478 0
M  V30 4940 C 510.383 -0.773539 -1.46988 0
M  V30 4941 O 511.568 -1.02871 -1.60693 0
M  V30 4942 C 508.708 -2.23224 -2.63182 0
M  V30 4943 C 507.821 -3.50497 -2.52539 0
M  V30 4944 C 506.956 -3.71474 -3.79711 0
M  V30 4945 C 505.995 -4.92289 -3.63755 0
M  V30 4946 N 505.132 -5.09698 -4.82858 0
M  V30 4947 H 509.972 -2.81692 -0.972308 0
M  V30 4948 H 507.509 -1.39429 -0.468815 0
M  V30 4949 H 509.467 -2.3949 -3.41614 0
M  V30 4950 H 508.097 -1.36451 -2.92542 0
M  V30 4951 H 507.149 -3.4247 -1.65585 0
M  V30 4952 H 508.461 -4.39079 -2.36666 0
M  V30 4953 H 507.615 -3.87791 -4.66586 0
M  V30 4954 H 506.354 -2.81157 -3.985 0
M  V30 4955 H 505.359 -4.7593 -2.75264 0
M  V30 4956 H 506.584 -5.84083 -3.46445 0
M  V30 4957 H 504.53 -4.22322 -5.01976 0
M  V30 4958 H 504.447 -5.92399 -4.69681 0
M  V30 4959 H 505.715 -5.30443 -5.71183 0
M  V30 4960 N 509.944 0.496216 -1.49584 0
M  V30 4961 C 510.907 1.57952 -1.66084 0
M  V30 4962 C 511.907 1.51729 -0.53244 0
M  V30 4963 O 513.097 1.54796 -0.79899 0
M  V30 4964 C 510.229 2.97604 -1.66268 0
M  V30 4965 H 511.422 1.44649 -2.6271 0
M  V30 4966 H 508.975 0.7208 -1.38687 0
M  V30 4967 H 509.71 3.16378 -0.712432 0
M  V30 4968 H 509.495 3.03528 -2.4822 0
M  V30 4969 H 510.985 3.76301 -1.81073 0
M  V30 4970 N 511.423 1.38739 0.74761 0
M  V30 4971 C 512.386 1.36241 1.84312 0
M  V30 4972 C 513.386 0.261811 1.58654 0
M  V30 4973 O 514.576 0.519031 1.66288 0
M  V30 4974 C 511.708 1.12253 3.21888 0
M  V30 4975 H 512.901 2.33712 1.87933 0
M  V30 4976 H 510.454 1.2412 0.949946 0
M  V30 4977 H 511.189 0.154133 3.23934 0
M  V30 4978 H 510.974 1.91943 3.41907 0
M  V30 4979 H 512.464 1.13215 4.0196 0
M  V30 4980 N 512.901 -0.976442 1.23707 0
M  V30 4981 C 513.848 -2.06952 1.02174 0
M  V30 4982 C 514.818 -1.65984 -0.0621034 0
M  V30 4983 O 516.003 -1.90584 0.0907906 0
M  V30 4984 C 513.143 -3.39425 0.62327 0
M  V30 4985 C 512.256 -3.9364 1.77966 0
M  V30 4986 C 511.391 -5.14343 1.3276 0
M  V30 4987 C 510.43 -5.60733 2.45449 0
M  V30 4988 N 509.567 -6.72662 2.01172 0
M  V30 4989 H 514.407 -2.24704 1.95734 0
M  V30 4990 H 511.944 -1.10143 0.975034 0
M  V30 4991 H 513.902 -4.15526 0.37332 0
M  V30 4992 H 512.532 -3.21624 -0.275329 0
M  V30 4993 H 511.584 -3.14258 2.14351 0
M  V30 4994 H 512.896 -4.24035 2.62671 0
M  V30 4995 H 512.05 -5.97789 1.03601 0
M  V30 4996 H 510.789 -4.8561 0.450975 0
M  V30 4997 H 509.794 -4.75865 2.75378 0
M  V30 4998 H 511.019 -5.91483 3.33654 0
M  V30 4999 H 508.965 -6.45681 1.15895 0
M  V30 5000 H 508.882 -7.02462 2.79434 0
M  V30 5001 H 510.15 -7.59572 1.75129 0
M  V30 5002 N 514.379 -1.04941 -1.1758 0
M  V30 5003 C 515.607 -0.778294 -1.91703 0
M  V30 5004 C 516.022 0.665697 -1.76675 0
M  V30 5005 O 515.379 1.45456 -1.10222 0
M  V30 5006 C 515.43 -1.14628 -3.42845 0
M  V30 5007 O 515.151 -2.53359 -3.57409 0
M  V30 5008 C 516.652 -0.900931 -4.34049 0
M  V30 5009 H 513.872 -0.283167 -0.608323 0
M  V30 5010 H 516.416 -1.39942 -1.49119 0
M  V30 5011 H 514.571 -0.569953 -3.83184 0
M  V30 5012 H 514.985 -2.67709 -4.51035 0
M  V30 5013 H 516.459 -1.20817 -5.38616 0
M  V30 5014 H 516.936 0.163966 -4.38894 0
M  V30 5015 H 517.542 -1.46097 -3.99419 0
M  V30 5016 N 515.857 1.33968 -0.830081 0
M  V30 5017 C 516.787 2.31911 -0.271911 0
M  V30 5018 C 517.768 1.58571 0.61556 0
M  V30 5019 O 518.953 1.86514 0.540946 0
M  V30 5020 C 516.083 3.42737 0.561146 0
M  V30 5021 C 515.037 4.27383 -0.229789 0
M  V30 5022 C 514.363 5.29742 0.726463 0
M  V30 5023 C 515.663 5.02 -1.44197 0
M  V30 5024 H 517.357 2.78844 -1.09025 0
M  V30 5025 H 514.903 1.34061 -0.52571 0
M  V30 5026 H 516.856 4.10276 0.961867 0
M  V30 5027 H 515.58 2.94471 1.41261 0
M  V30 5028 H 514.239 3.61456 -0.611964 0
M  V30 5029 H 513.887 4.77736 1.57408 0
M  V30 5030 H 513.587 5.87255 0.20142 0
M  V30 5031 H 515.111 6.00149 1.12489 0
M  V30 5032 H 516.525 5.62355 -1.11488 0
M  V30 5033 H 514.922 5.69122 -1.90317 0
M  V30 5034 H 515.992 4.31281 -2.2164 0
M  V30 5035 N 517.335 0.585699 1.46312 0
M  V30 5036 C 518.298 -0.135673 2.28798 0
M  V30 5037 C 519.298 -0.815988 1.38558 0
M  V30 5038 O 520.488 -0.667487 1.60904 0
M  V30 5039 C 517.62 -1.20163 3.1902 0
M  V30 5040 H 518.813 0.589257 2.94054 0
M  V30 5041 H 516.366 0.343794 1.52472 0
M  V30 5042 H 517.101 -1.95804 2.58517 0
M  V30 5043 H 516.886 -0.718282 3.85465 0
M  V30 5044 H 518.376 -1.70749 3.81096 0
M  V30 5045 N 518.813 -1.54241 0.323641 0
M  V30 5046 C 520.062 -1.9975 -0.279806 0
M  V30 5047 C 520.375 -1.2156 -1.5324 0
M  V30 5048 O 521.581 -1.57447 -2.21185 0
M  V30 5049 C 520.037 -3.55686 -0.549115 0
M  V30 5050 C 519.645 -4.4271 0.686432 0
M  V30 5051 C 521.389 -4.09663 -1.11251 0
M  V30 5052 C 519.296 -5.90119 0.389022 0
M  V30 5053 H 518.226 -0.746177 -0.10833 0
M  V30 5054 H 520.877 -1.78248 0.435877 0
M  V30 5055 H 519.259 -3.73176 -1.32499 0
M  V30 5056 H 520.433 -4.36996 1.46188 0
M  V30 5057 H 518.748 -3.99623 1.17005 0
M  V30 5058 H 521.345 -5.17386 -1.34965 0
M  V30 5059 H 521.688 -3.61651 -2.06191 0
M  V30 5060 H 522.221 -3.95806 -0.39782 0
M  V30 5061 H 518.96 -6.42326 1.30759 0
M  V30 5062 H 518.48 -5.98785 -0.348722 0
M  V30 5063 H 520.159 -6.47 -0.0011164 0
M  V30 5064 N 520.291 -0.0518155 -1.57515 0
M  V30 5065 C 521.537 0.622745 -1.93002 0
M  V30 5066 C 521.87 1.70456 -0.930499 0
M  V30 5067 O 521.145 1.94452 0.0434086 0
M  V30 5068 C 521.428 1.21824 -3.38867 0
M  V30 5069 C 521.281 0.144434 -4.49568 0
M  V30 5070 C 522.6 2.12968 -3.8514 0
M  V30 5071 H 519.719 0.22491 -0.701844 0
M  V30 5072 H 522.361 -0.113711 -1.89659 0
M  V30 5073 H 520.511 1.8459 -3.41846 0
M  V30 5074 H 522.183 -0.48753 -4.58717 0
M  V30 5075 H 520.426 -0.527424 -4.30582 0
M  V30 5076 H 521.097 0.601127 -5.48717 0
M  V30 5077 H 523.573 1.60163 -3.8404 0
M  V30 5078 H 522.449 2.51578 -4.87852 0
M  V30 5079 H 522.71 3.03004 -3.21934 0
M  V30 5080 N 521.769 1.56035 0.221574 0
M  V30 5081 C 523.015 1.79312 0.947372 0
M  V30 5082 C 523.348 0.621453 1.83988 0
M  V30 5083 O 522.623 -0.379287 1.90766 0
M  V30 5084 C 522.906 3.1267 1.78633 0
M  V30 5085 C 522.759 4.40284 0.920312 0
M  V30 5086 C 524.078 3.4247 2.7641 0
M  V30 5087 H 521.197 0.652328 0.342982 0
M  V30 5088 H 523.839 1.88765 0.216244 0
M  V30 5089 H 521.989 3.04741 2.40967 0
M  V30 5090 H 523.661 4.60232 0.313718 0
M  V30 5091 H 521.904 4.33212 0.225734 0
M  V30 5092 H 522.575 5.30033 1.54171 0
M  V30 5093 H 525.051 3.50526 2.24211 0
M  V30 5094 H 523.927 4.3695 3.32213 0
M  V30 5095 H 524.188 2.64635 3.54148 0
M  V30 5096 N 523.247 -0.488276 1.49845 0
M  V30 5097 C 524.495 -1.23911 1.59657 0
M  V30 5098 C 524.816 -1.92816 0.291005 0
M  V30 5099 O 524.086 -1.83328 -0.690485 0
M  V30 5100 H 522.666 -0.460357 0.588286 0
M  V30 5101 H 525.328 -0.564794 1.86537 0
M  V30 5102 H 524.424 -1.99625 2.39909 0
M  V30 5103 N 524.725 -1.39134 -0.740242 0
M  V30 5104 C 525.971 -1.36273 -1.50192 0
M  V30 5105 C 526.304 0.0430136 -1.94152 0
M  V30 5106 O 525.579 1.00691 -1.66408 0
M  V30 5107 C 525.862 -2.33041 -2.74525 0
M  V30 5108 C 525.715 -3.82535 -2.36617 0
M  V30 5109 C 527.034 -2.27723 -3.76604 0
M  V30 5110 H 524.153 -0.496323 -0.544823 0
M  V30 5111 H 526.795 -1.70085 -0.846815 0
M  V30 5112 H 524.945 -2.04337 -3.30422 0
M  V30 5113 H 526.617 -4.21967 -1.86391 0
M  V30 5114 H 524.86 -3.99565 -1.68909 0
M  V30 5115 H 525.531 -4.45723 -3.2563 0
M  V30 5116 H 528.007 -2.53091 -3.30279 0
M  V30 5117 H 526.883 -2.97519 -4.61274 0
M  V30 5118 H 527.144 -1.28049 -4.2315 0
M  V30 5119 N 526.204 0.969867 -1.24223 0
M  V30 5120 C 527.451 1.71256 -1.08063 0
M  V30 5121 C 527.779 1.90734 0.380872 0
M  V30 5122 O 527.034 1.46469 1.29789 0
M  V30 5123 C 527.333 3.10883 -1.76314 0
M  V30 5124 C 526.999 3.11252 -3.26241 0
M  V30 5125 C 525.661 3.1106 -3.67144 0
M  V30 5126 C 528.013 3.05751 -4.22097 0
M  V30 5127 C 525.341 3.03097 -5.02344 0
M  V30 5128 C 527.693 2.9933 -5.57301 0
M  V30 5129 C 526.357 2.97466 -5.97554 0
M  V30 5130 H 525.627 0.62667 -0.395431 0
M  V30 5131 H 528.274 1.13422 -1.54297 0
M  V30 5132 H 526.579 3.72168 -1.22468 0
M  V30 5133 H 528.276 3.67138 -1.61277 0
M  V30 5134 H 524.866 3.12165 -2.93685 0
M  V30 5135 H 529.05 3.05031 -3.91497 0
M  V30 5136 H 524.306 3.00013 -5.32731 0
M  V30 5137 H 528.48 2.94033 -6.31283 0
M  V30 5138 H 526.107 2.91051 -7.02277 0
M  V30 5139 N 527.682 1.05563 1.17022 0
M  V30 5140 C 528.928 0.769074 1.87652 0
M  V30 5141 C 529.261 -0.702326 1.81055 0
M  V30 5142 O 528.536 -1.5139 1.22112 0
M  V30 5143 C 528.819 1.25492 3.37526 0
M  V30 5144 C 528.672 2.78953 3.52853 0
M  V30 5145 C 529.991 0.856919 4.31677 0
M  V30 5146 H 527.11 0.280854 0.681388 0
M  V30 5147 H 529.752 1.31027 1.37593 0
M  V30 5148 H 527.902 0.794516 3.80289 0
M  V30 5149 H 529.574 3.33146 3.19079 0
M  V30 5150 H 527.817 3.18046 2.95007 0
M  V30 5151 H 528.488 3.08011 4.58076 0
M  V30 5152 H 530.964 1.25334 3.96775 0
M  V30 5153 H 529.84 1.22443 5.35069 0
M  V30 5154 H 530.101 -0.238787 4.41455 0
M  V30 5155 N 529.16 -1.33526 0.837174 0
M  V30 5156 C 530.09 -2.31764 0.284206 0
M  V30 5157 C 531.071 -1.58896 -0.607142 0
M  V30 5158 O 532.256 -1.86798 -0.531047 0
M  V30 5159 C 529.386 -3.43029 -0.542962 0
M  V30 5160 C 528.34 -4.27255 0.252451 0
M  V30 5161 C 527.666 -5.3012 -0.69836 0
M  V30 5162 C 528.966 -5.01229 1.46858 0
M  V30 5163 H 530.66 -2.78262 1.10502 0
M  V30 5164 H 528.206 -1.3378 0.532812 0
M  V30 5165 H 530.159 -4.1078 -0.940096 0
M  V30 5166 H 528.883 -2.95216 -1.39697 0
M  V30 5167 H 527.542 -3.61127 0.631124 0
M  V30 5168 H 527.19 -4.78564 -1.54872 0
M  V30 5169 H 526.89 -5.87353 -0.170274 0
M  V30 5170 H 528.414 -6.00737 -1.09305 0
M  V30 5171 H 529.828 -5.61756 1.14469 0
M  V30 5172 H 528.225 -5.68104 1.93333 0
M  V30 5173 H 529.295 -4.301 2.23924 0
M  V30 5174 N 530.638 -0.59345 -1.46 0
M  V30 5175 C 531.878 -0.0859747 -2.04219 0
M  V30 5176 C 532.242 1.25432 -1.45364 0
M  V30 5177 O 533.443 1.85168 -1.9485 0
M  V30 5178 C 531.714 -0.0324314 -3.57385 0
M  V30 5179 S 533.273 0.415908 -4.36824 0
M  V30 5180 H 530.091 -0.0426872 -0.709717 0
M  V30 5181 H 532.693 -0.788369 -1.78899 0
M  V30 5182 H 531.397 -1.01166 -3.97735 0
M  V30 5183 H 530.928 0.6924 -3.87259 0
M  V30 5184 H 532.943 1.66844 -4.67309 0
M  V30 5185 N 532.116 1.54067 -0.331816 0
M  V30 5186 C 533.362 2.01713 0.261395 0
M  V30 5187 C 533.717 1.21566 1.49129 0
M  V30 5188 O 533.01 0.291867 1.89364 0
M  V30 5189 C 533.204 3.51634 0.639392 0
M  V30 5190 C 533.033 4.46295 -0.552321 0
M  V30 5191 C 531.803 4.94185 -1.05399 0
M  V30 5192 C 534.001 4.94677 -1.40711 0
M  V30 5193 N 531.983 5.7277 -2.20925 0
M  V30 5194 C 533.354 5.71267 -2.40943 0
M  V30 5195 C 535.409 4.76805 -1.43392 0
M  V30 5196 C 534.112 6.31889 -3.4367 0
M  V30 5197 C 536.138 5.38268 -2.44994 0
M  V30 5198 C 535.5 6.14716 -3.43952 0
M  V30 5199 H 531.599 0.77975 0.0592729 0
M  V30 5200 H 534.183 1.88974 -0.468726 0
M  V30 5201 H 532.354 3.64603 1.33863 0
M  V30 5202 H 534.086 3.86038 1.21478 0
M  V30 5203 H 530.841 4.69472 -0.623952 0
M  V30 5204 H 531.265 6.16737 -2.79222 0
M  V30 5205 H 535.907 4.17255 -0.682489 0
M  V30 5206 H 533.625 6.90554 -4.19715 0
M  V30 5207 H 537.211 5.26352 -2.4788 0
M  V30 5208 H 536.091 6.6143 -4.21283 0
M  V30 5209 N 533.594 0.0601682 1.57485 0
M  V30 5210 C 534.841 -0.611594 1.93043 0
M  V30 5211 C 535.169 -1.70317 0.939274 0
M  V30 5212 O 534.424 -1.95644 -0.046996 0
M  V30 5213 C 534.723 -1.23831 3.35262 0
M  V30 5214 C 534.389 -0.274037 4.50066 0
M  V30 5215 C 533.051 -0.00872394 4.81199 0
M  V30 5216 C 535.403 0.386308 5.19766 0
M  V30 5217 C 532.731 0.924218 5.79375 0
M  V30 5218 C 535.083 1.3075 6.1894 0
M  V30 5219 C 533.747 1.58139 6.48497 0
M  V30 5220 H 533.017 -0.223798 0.706396 0
M  V30 5221 H 535.664 0.128566 1.91068 0
M  V30 5222 H 533.969 -2.05394 3.33647 0
M  V30 5223 H 535.666 -1.76517 3.60059 0
M  V30 5224 H 532.256 -0.491008 4.25778 0
M  V30 5225 H 536.44 0.194436 4.95919 0
M  V30 5226 H 531.696 1.1438 6.00606 0
M  V30 5227 H 535.87 1.82519 6.72056 0
M  V30 5228 H 533.497 2.30593 7.24383 0
M  V30 5229 N 535.072 -1.5615 -0.213296 0
M  V30 5230 C 536.483 -1.69645 -0.779582 0
M  V30 5231 C 536.834 -0.663615 -1.84636 0
M  V30 5232 O 535.959 0.183633 -2.15619 0
M  V30 5233 C 536.554 -3.07567 -1.42084 0
M  V30 5234 C 535.113 -3.22889 -1.93442 0
M  V30 5235 C 534.26 -2.65581 -0.797612 0
M  V30 5236 H 537.211 -1.58696 0.0114951 0
M  V30 5237 H 537.232 -3.03884 -2.28986 0
M  V30 5238 H 536.744 -3.82716 -0.644187 0
M  V30 5239 H 534.845 -2.52623 -2.73884 0
M  V30 5240 H 534.958 -4.30197 -2.10872 0
M  V30 5241 H 533.322 -2.24278 -1.20712 0
M  V30 5242 H 534.105 -3.43284 -0.033494 0
M  V30 5243 N 536.55 0.480323 -1.50102 0
M  V30 5244 C 537.797 1.23307 -1.60629 0
M  V30 5245 C 538.125 1.92135 -0.302375 0
M  V30 5246 O 537.38 1.82321 0.711154 0
M  V30 5247 C 537.679 2.30708 -2.72963 0
M  V30 5248 C 537.345 1.79195 -4.13763 0
M  V30 5249 C 536.007 1.64867 -4.52076 0
M  V30 5250 C 538.359 1.40878 -5.018 0
M  V30 5251 C 535.687 1.10631 -5.76175 0
M  V30 5252 C 538.039 0.880872 -6.26437 0
M  V30 5253 C 536.703 0.724146 -6.6356 0
M  V30 5254 H 535.973 0.451211 -0.587784 0
M  V30 5255 H 538.62 0.53051 -1.84005 0
M  V30 5256 H 536.925 3.06834 -2.43639 0
M  V30 5257 H 538.622 2.88692 -2.78313 0
M  V30 5258 H 535.212 1.91313 -3.83533 0
M  V30 5259 H 539.396 1.50786 -4.7284 0
M  V30 5260 H 534.652 0.972263 -6.0362 0
M  V30 5261 H 538.826 0.575269 -6.9402 0
M  V30 5262 H 536.453 0.301722 -7.59601 0
M  V30 5263 N 538.028 1.39524 0.732853 0
M  V30 5264 C 539.275 1.36865 1.49246 0
M  V30 5265 C 539.603 -0.0347118 1.94469 0
M  V30 5266 O 538.858 -1.01596 1.67262 0
M  V30 5267 C 539.157 2.28916 2.74468 0
M  V30 5268 C 538.823 3.76506 2.481 0
M  V30 5269 C 537.485 4.16721 2.40619 0
M  V30 5270 C 539.837 4.69846 2.25598 0
M  V30 5271 C 537.165 5.48334 2.08679 0
M  V30 5272 C 539.517 6.01739 1.95174 0
M  V30 5273 C 538.181 6.41015 1.86163 0
M  V30 5274 H 537.451 0.500824 0.546129 0
M  V30 5275 H 540.098 1.72047 0.840958 0
M  V30 5276 H 538.403 1.86859 3.4437 0
M  V30 5277 H 540.1 2.2415 3.32502 0
M  V30 5278 H 536.69 3.44635 2.54803 0
M  V30 5279 H 540.874 4.39608 2.30344 0
M  V30 5280 H 536.13 5.77685 2.00226 0
M  V30 5281 H 540.304 6.73591 1.76771 0
M  V30 5282 H 537.931 7.42917 1.61179 0
M  V30 5283 N 539.506 -0.963266 1.24736 0
M  V30 5284 C 540.753 -1.7068 1.0897 0
M  V30 5285 C 541.081 -1.90934 -0.370751 0
M  V30 5286 O 540.336 -1.47155 -1.29011 0
M  V30 5287 C 540.635 -3.09944 1.7796 0
M  V30 5288 C 540.301 -3.09518 3.27887 0
M  V30 5289 C 538.963 -3.09109 3.68789 0
M  V30 5290 C 541.315 -3.03509 4.23712 0
M  V30 5291 C 538.643 -3.00429 5.03944 0
M  V30 5292 C 540.995 -2.96371 5.5888 0
M  V30 5293 C 539.659 -2.94293 5.99123 0
M  V30 5294 H 538.929 -0.624564 0.398749 0
M  V30 5295 H 541.576 -1.12603 1.54896 0
M  V30 5296 H 539.881 -3.71513 1.2444 0
M  V30 5297 H 541.578 -3.66278 1.63222 0
M  V30 5298 H 538.168 -3.10603 2.95337 0
M  V30 5299 H 542.352 -3.0295 3.93109 0
M  V30 5300 H 537.608 -2.97183 5.34314 0
M  V30 5301 H 541.782 -2.90681 6.32833 0
M  V30 5302 H 539.409 -2.87322 7.03811 0
M  V30 5303 N 540.985 -1.06182 -1.16461 0
M  V30 5304 C 542.231 -0.779015 -1.87241 0
M  V30 5305 C 542.564 0.692715 -1.81425 0
M  V30 5306 O 541.839 1.5074 -1.22913 0
M  V30 5307 C 542.122 -1.2728 -3.36856 0
M  V30 5308 C 541.975 -2.80821 -3.51368 0
M  V30 5309 C 543.294 -0.879799 -4.31216 0
M  V30 5310 H 540.413 -0.284464 -0.679889 0
M  V30 5311 H 543.055 -1.31755 -1.36896 0
M  V30 5312 H 541.205 -0.814673 -3.79862 0
M  V30 5313 H 542.877 -3.34833 -3.17308 0
M  V30 5314 H 541.12 -3.19606 -2.93316 0
M  V30 5315 H 541.791 -3.10435 -4.56436 0
M  V30 5316 H 544.267 -1.27436 -3.96105 0
M  V30 5317 H 543.143 -1.25278 -5.34412 0
M  V30 5318 H 543.404 0.215372 -4.41575 0
M  V30 5319 N 542.463 1.3308 -0.844243 0
M  V30 5320 C 543.393 2.3161 -0.296493 0
M  V30 5321 C 544.374 1.59215 0.598707 0
M  V30 5322 O 545.559 1.87077 0.521134 0
M  V30 5323 C 542.689 3.43313 0.524762 0
M  V30 5324 C 541.643 4.27115 -0.275106 0
M  V30 5325 C 540.969 5.30483 0.670236 0
M  V30 5326 C 542.269 5.00443 -1.49514 0
M  V30 5327 H 543.963 2.77672 -1.11976 0
M  V30 5328 H 541.509 1.33496 -0.539899 0
M  V30 5329 H 543.462 4.11273 0.918298 0
M  V30 5330 H 542.186 2.95952 1.3813 0
M  V30 5331 H 540.845 3.60787 -0.650267 0
M  V30 5332 H 540.493 4.79379 1.52332 0
M  V30 5333 H 540.193 5.87435 0.139123 0
M  V30 5334 H 541.717 6.01308 1.06117 0
M  V30 5335 H 543.131 5.61141 -1.17447 0
M  V30 5336 H 541.528 5.67071 -1.96343 0
M  V30 5337 H 542.598 4.28906 -2.26202 0
M  V30 5338 N 543.941 0.601185 1.45683 0
M  V30 5339 C 545.352 0.179659 1.85834 0
M  V30 5340 C 545.703 -1.26189 1.50236 0
M  V30 5341 O 544.828 -1.95587 0.925987 0
M  V30 5342 C 545.423 0.319277 3.37292 0
M  V30 5343 C 543.982 -0.0475092 3.7637 0
M  V30 5344 C 543.129 0.646692 2.69654 0
M  V30 5345 H 546.08 0.808268 1.36575 0
M  V30 5346 H 546.101 -0.4503 3.77826 0
M  V30 5347 H 545.613 1.36855 3.6317 0
M  V30 5348 H 543.714 -1.0962 3.5611 0
M  V30 5349 H 543.827 0.34168 4.7788 0
M  V30 5350 H 542.191 0.0849971 2.54558 0
M  V30 5351 H 542.974 1.69797 2.98369 0
M  V30 5352 N 545.419 -1.53889 0.339982 0
M  V30 5353 C 546.349 -2.27843 -0.510856 0
M  V30 5354 C 547.33 -1.29267 -1.10563 0
M  V30 5355 O 548.515 -1.58104 -1.12768 0
M  V30 5356 C 545.645 -3.04857 -1.66372 0
M  V30 5357 C 544.599 -4.10907 -1.19746 0
M  V30 5358 C 543.925 -4.75855 -2.43857 0
M  V30 5359 C 545.225 -5.21435 -0.300501 0
M  V30 5360 H 546.919 -2.99212 0.106067 0
M  V30 5361 H 544.465 -1.43904 0.0524533 0
M  V30 5362 H 546.418 -3.5533 -2.26537 0
M  V30 5363 H 545.142 -2.31133 -2.30749 0
M  V30 5364 H 543.801 -3.61342 -0.618654 0
M  V30 5365 H 543.449 -3.9873 -3.06633 0
M  V30 5366 H 543.149 -5.47502 -2.13343 0
M  V30 5367 H 544.673 -5.2911 -3.04754 0
M  V30 5368 H 546.087 -5.67565 -0.80889 0
M  V30 5369 H 544.484 -6.00036 -0.0874076 0
M  V30 5370 H 545.554 -4.80328 0.664321 0
M  V30 5371 N 546.897 -0.0685191 -1.57451 0
M  V30 5372 C 548.145 0.60016 -1.92983 0
M  V30 5373 C 548.466 1.70348 -0.949028 0
M  V30 5374 O 547.736 1.959 0.00335647 0
M  V30 5375 H 546.316 0.224682 -0.712409 0
M  V30 5376 H 548.978 -0.125605 -1.94495 0
M  V30 5377 H 548.074 1.02759 -2.94698 0
M  V30 5378 N 548.375 1.56261 0.205012 0
M  V30 5379 C 549.6 1.84491 0.947512 0
M  V30 5380 C 550.025 0.650894 1.76479 0
M  V30 5381 O 549.383 -0.40035 1.76824 0
M  V30 5382 C 549.431 3.10863 1.82747 0
M  V30 5383 O 548.535 2.90719 2.925 0
M  V30 5384 H 547.876 0.607783 0.267386 0
M  V30 5385 H 550.406 2.03485 0.213323 0
M  V30 5386 H 550.416 3.41399 2.23407 0
M  V30 5387 H 549.091 3.97392 1.2269 0
M  V30 5388 H 547.668 2.71457 2.55667 0
M  V30 5389 N 549.853 -0.472356 1.50355 0
M  V30 5390 C 550.783 -1.57859 1.72055 0
M  V30 5391 C 551.764 -1.60283 0.569505 0
M  V30 5392 O 552.949 -1.7657 0.808503 0
M  V30 5393 C 550.079 -2.96191 1.81351 0
M  V30 5394 C 549.033 -3.08633 2.96529 0
M  V30 5395 C 548.359 -4.486 2.90968 0
M  V30 5396 C 549.659 -2.85969 4.37057 0
M  V30 5397 H 551.353 -1.39953 2.64676 0
M  V30 5398 H 548.899 -0.671846 1.27367 0
M  V30 5399 H 550.852 -3.73507 1.95117 0
M  V30 5400 H 549.576 -3.15251 0.853502 0
M  V30 5401 H 548.235 -2.33749 2.82413 0
M  V30 5402 H 547.883 -4.64577 1.92815 0
M  V30 5403 H 547.583 -4.57861 3.68289 0
M  V30 5404 H 549.107 -5.27938 3.0678 0
M  V30 5405 H 550.521 -3.53036 4.51706 0
M  V30 5406 H 548.918 -3.06677 5.15819 0
M  V30 5407 H 549.988 -1.81838 4.49514 0
M  V30 5408 N 551.331 -1.39911 -0.725443 0
M  V30 5409 C 552.578 -1.37654 -1.48518 0
M  V30 5410 C 552.906 0.0243982 -1.94485 0
M  V30 5411 O 552.161 1.00708 -1.67799 0
M  V30 5412 C 552.46 -2.30368 -2.7325 0
M  V30 5413 C 552.126 -3.77817 -2.461 0
M  V30 5414 C 550.788 -4.17991 -2.38405 0
M  V30 5415 C 553.14 -4.71036 -2.23103 0
M  V30 5416 C 550.468 -5.49433 -2.05768 0
M  V30 5417 C 552.82 -6.02766 -1.9198 0
M  V30 5418 C 551.484 -6.41993 -1.82761 0
M  V30 5419 H 550.754 -0.503713 -0.543465 0
M  V30 5420 H 553.401 -1.7249 -0.831822 0
M  V30 5421 H 551.706 -1.88683 -3.43375 0
M  V30 5422 H 553.403 -2.2591 -3.31309 0
M  V30 5423 H 549.993 -3.45982 -2.52972 0
M  V30 5424 H 554.177 -4.40823 -2.2801 0
M  V30 5425 H 549.433 -5.78738 -1.9716 0
M  V30 5426 H 553.607 -6.74519 -1.73197 0
M  V30 5427 H 551.234 -7.43761 -1.57237 0
M  V30 5428 N 552.809 0.956637 -1.25245 0
M  V30 5429 C 554.22 1.51569 -1.09012 0
M  V30 5430 C 554.571 1.93322 0.334813 0
M  V30 5431 O 553.696 1.78421 1.22454 0
M  V30 5432 C 554.291 2.75444 -1.97271 0
M  V30 5433 C 552.85 3.27669 -1.8523 0
M  V30 5434 C 551.997 2.00517 -1.91542 0
M  V30 5435 H 554.948 0.773746 -1.3856 0
M  V30 5436 H 554.969 3.4919 -1.51151 0
M  V30 5437 H 554.481 2.45024 -3.00973 0
M  V30 5438 H 552.582 3.62914 -0.844045 0
M  V30 5439 H 552.695 3.9582 -2.69932 0
M  V30 5440 H 551.059 2.15727 -1.35404 0
M  V30 5441 H 551.842 1.72448 -2.96844 0
M  V30 5442 N 554.287 1.06798 1.15896 0
M  V30 5443 C 555.219 0.641263 2.20046 0
M  V30 5444 C 556.232 -0.303355 1.59949 0
M  V30 5445 O 557.421 -0.0935478 1.78255 0
M  V30 5446 C 554.521 -0.0794029 3.38807 0
M  V30 5447 C 553.694 0.879986 4.28457 0
M  V30 5448 C 552.753 0.197638 5.25829 0
M  V30 5449 O 551.779 0.836913 5.63014 0
M  V30 5450 N 552.981 -1.05886 5.70761 0
M  V30 5451 H 555.746 1.53718 2.57276 0
M  V30 5452 H 553.307 0.951951 1.30956 0
M  V30 5453 H 555.299 -0.546418 4.00994 0
M  V30 5454 H 553.869 -0.877193 3.0004 0
M  V30 5455 H 553.089 1.52625 3.63454 0
M  V30 5456 H 554.377 1.53065 4.8523 0
M  V30 5457 H 553.775 -1.59828 5.42652 0
M  V30 5458 H 552.332 -1.46965 6.35015 0
M  V30 5459 N 555.766 -1.3263 0.851289 0
M  V30 5460 C 556.696 -2.31449 0.308771 0
M  V30 5461 C 557.677 -1.59531 -0.590255 0
M  V30 5462 O 558.862 -1.87351 -0.511205 0
M  V30 5463 C 555.992 -3.43586 -0.506548 0
M  V30 5464 C 554.946 -4.26963 0.297753 0
M  V30 5465 C 554.272 -5.30831 -0.642094 0
M  V30 5466 C 555.572 -4.99643 1.52166 0
M  V30 5467 H 557.266 -2.77074 1.13447 0
M  V30 5468 H 554.812 -1.33207 0.546971 0
M  V30 5469 H 556.765 -4.11754 -0.896474 0
M  V30 5470 H 555.489 -2.96681 -1.36558 0
M  V30 5471 H 554.148 -3.60437 0.669391 0
M  V30 5472 H 553.796 -4.8018 -1.49788 0
M  V30 5473 H 553.496 -5.87501 -0.107968 0
M  V30 5474 H 555.02 -6.01862 -1.02927 0
M  V30 5475 H 556.434 -5.6051 1.20421 0
M  V30 5476 H 554.831 -5.66022 1.99347 0
M  V30 5477 H 555.901 -4.27701 2.28474 0
M  V30 5478 N 557.244 -0.608902 -1.45362 0
M  V30 5479 C 558.191 0.109172 -2.30542 0
M  V30 5480 C 559.161 0.858704 -1.42181 0
M  V30 5481 O 560.346 0.844178 -1.71109 0
M  V30 5482 C 557.486 1.09971 -3.27109 0
M  V30 5483 C 556.599 0.350911 -4.30572 0
M  V30 5484 C 555.734 1.33129 -5.14247 0
M  V30 5485 C 554.773 0.570377 -6.09437 0
M  V30 5486 N 553.91 1.5001 -6.85887 0
M  V30 5487 H 558.75 -0.623195 -2.91411 0
M  V30 5488 H 556.287 -0.319122 -1.43597 0
M  V30 5489 H 558.245 1.68714 -3.81564 0
M  V30 5490 H 556.875 1.79947 -2.67991 0
M  V30 5491 H 555.927 -0.352054 -3.78767 0
M  V30 5492 H 557.239 -0.242725 -4.98209 0
M  V30 5493 H 556.393 1.99074 -5.73109 0
M  V30 5494 H 555.132 1.95885 -4.46632 0
M  V30 5495 H 554.137 -0.102702 -5.49704 0
M  V30 5496 H 555.362 -0.0521607 -6.7908 0
M  V30 5497 H 553.308 2.11529 -6.2096 0
M  V30 5498 H 553.225 0.959934 -7.49881 0
M  V30 5499 H 554.493 2.14909 -7.49289 0
M  V30 5500 N 558.722 1.53707 -0.348139 0
M  V30 5501 C 560.133 1.86213 0.134797 0
M  V30 5502 C 560.484 1.26925 1.49614 0
M  V30 5503 O 559.609 0.584573 2.08355 0
M  V30 5504 C 560.204 3.37866 0.251371 0
M  V30 5505 C 558.763 3.70233 0.678543 0
M  V30 5506 C 557.91 2.76683 -0.184925 0
M  V30 5507 H 560.861 1.48204 -0.567571 0
M  V30 5508 H 560.882 3.64908 1.07806 0
M  V30 5509 H 560.394 3.80988 -0.739581 0
M  V30 5510 H 558.495 3.32659 1.67835 0
M  V30 5511 H 558.608 4.76836 0.465251 0
M  V30 5512 H 556.972 2.52374 0.343465 0
M  V30 5513 H 557.755 3.22635 -1.1731 0
M  V30 5514 N 560.2 0.0768682 1.57412 0
M  V30 5515 C 561.425 -0.603404 1.98428 0
M  V30 5516 C 561.85 -1.62047 0.955108 0
M  V30 5517 O 561.208 -1.81129 -0.0786778 0
M  V30 5518 C 561.256 -1.24396 3.38464 0
M  V30 5519 O 560.36 -2.35982 3.3821 0
M  V30 5520 H 559.701 -0.154741 0.645718 0
M  V30 5521 H 562.231 0.152885 2.04028 0
M  V30 5522 H 562.241 -1.5896 3.7576 0
M  V30 5523 H 560.916 -0.498735 4.12899 0
M  V30 5524 H 559.493 -2.03173 3.1269 0
M  V30 5525 N 561.678 -1.56367 -0.196722 0
M  V30 5526 C 562.588 -1.97617 -1.2643 0
M  V30 5527 C 563.604 -0.883598 -1.49895 0
M  V30 5528 O 564.78 -1.18921 -1.62541 0
M  V30 5529 C 561.845 -2.30595 -2.58895 0
M  V30 5530 C 560.906 -3.53551 -2.43516 0
M  V30 5531 C 560.139 -3.84946 -3.69665 0
M  V30 5532 O 560.362 -3.17655 -4.73763 0
M  V30 5533 O 559.296 -4.78379 -3.65291 0
M  V30 5534 H 563.122 -2.88648 -0.944233 0
M  V30 5535 H 560.707 -1.43901 -0.401592 0
M  V30 5536 H 562.589 -2.52889 -3.37083 0
M  V30 5537 H 561.264 -1.42732 -2.90533 0
M  V30 5538 H 560.171 -3.36507 -1.63445 0
M  V30 5539 H 561.504 -4.41875 -2.16812 0
M  V30 5540 N 563.156 0.464375 -1.50603 0
M  V30 5541 C 564.404 1.21356 -1.61608 0
M  V30 5542 C 564.725 1.92329 -0.321643 0
M  V30 5543 O 563.995 1.84403 0.661232 0
M  V30 5544 H 562.575 0.45094 -0.595535 0
M  V30 5545 H 565.237 0.535046 -1.87412 0
M  V30 5546 H 564.333 1.95783 -2.43054 0
M  V30 5547 N 564.634 1.40294 0.718013 0
M  V30 5548 C 565.88 1.38645 1.48005 0
M  V30 5549 C 566.213 -0.0121202 1.94196 0
M  V30 5550 O 565.488 -0.980309 1.67989 0
M  V30 5551 C 565.771 2.37379 2.70782 0
M  V30 5552 C 565.624 3.8625 2.30501 0
M  V30 5553 C 566.943 2.33685 3.72933 0
M  V30 5554 H 564.062 0.504928 0.536858 0
M  V30 5555 H 566.704 1.71411 0.819649 0
M  V30 5556 H 564.854 2.09568 3.27129 0
M  V30 5557 H 566.526 4.24879 1.79655 0
M  V30 5558 H 564.769 4.02202 1.6253 0
M  V30 5559 H 565.44 4.50847 3.18498 0
M  V30 5560 H 567.916 2.58314 3.2621 0
M  V30 5561 H 566.792 3.0482 4.56482 0
M  V30 5562 H 567.053 1.34765 4.21059 0
M  V30 5563 N 566.112 -0.949982 1.2575 0
M  V30 5564 C 567.359 -1.69515 1.10774 0
M  V30 5565 C 567.687 -1.91316 -0.350479 0
M  V30 5566 O 566.942 -1.48515 -1.27443 0
M  V30 5567 C 567.241 -3.08039 1.81237 0
M  V30 5568 C 566.907 -3.06023 3.31151 0
M  V30 5569 C 565.569 -3.0518 3.72047 0
M  V30 5570 C 567.921 -2.98998 4.26907 0
M  V30 5571 C 565.249 -2.95067 5.07102 0
M  V30 5572 C 567.601 -2.90426 5.61992 0
M  V30 5573 C 566.265 -2.87922 6.0221 0
M  V30 5574 H 565.535 -0.6203 0.405351 0
M  V30 5575 H 568.182 -1.10953 1.56082 0
M  V30 5576 H 566.487 -3.70172 1.28373 0
M  V30 5577 H 568.184 -3.64526 1.67098 0
M  V30 5578 H 564.774 -3.07453 2.98614 0
M  V30 5579 H 568.958 -2.98764 3.963 0
M  V30 5580 H 564.214 -2.915 5.37436 0
M  V30 5581 H 568.388 -2.83952 6.35881 0
M  V30 5582 H 566.015 -2.79841 7.06819 0
M  V30 5583 N 567.59 -1.07411 -1.15328 0
M  V30 5584 C 568.537 -0.694995 -2.20087 0
M  V30 5585 C 569.507 0.313904 -1.63107 0
M  V30 5586 O 570.692 0.200216 -1.89747 0
M  V30 5587 C 567.832 -0.0996218 -3.44956 0
M  V30 5588 C 566.945 -1.16007 -4.16133 0
M  V30 5589 C 566.08 -0.529636 -5.28553 0
M  V30 5590 C 565.119 -1.57283 -5.91548 0
M  V30 5591 N 564.256 -0.964932 -6.95438 0
M  V30 5592 H 569.096 -1.5927 -2.51867 0
M  V30 5593 H 566.633 -0.796115 -1.23695 0
M  V30 5594 H 568.591 0.263197 -4.16369 0
M  V30 5595 H 567.221 0.761435 -3.13691 0
M  V30 5596 H 566.273 -1.64045 -3.4321 0
M  V30 5597 H 567.585 -1.95101 -4.59061 0
M  V30 5598 H 566.739 -0.114487 -6.06592 0
M  V30 5599 H 565.478 0.29307 -4.86819 0
M  V30 5600 H 564.483 -1.99775 -5.12221 0
M  V30 5601 H 565.708 -2.39783 -6.35359 0
M  V30 5602 H 563.654 -0.16314 -6.55797 0
M  V30 5603 H 563.571 -1.69311 -7.36797 0
M  V30 5604 H 564.839 -0.575305 -7.77374 0
M  V30 5605 N 569.068 1.32177 -0.85831 0
M  V30 5606 C 570.314 1.97417 -0.46417 0
M  V30 5607 C 570.647 1.67746 0.978514 0
M  V30 5608 O 569.922 0.967654 1.68721 0
M  V30 5609 C 570.205 3.53069 -0.708094 0
M  V30 5610 C 570.058 3.92357 -2.19946 0
M  V30 5611 C 571.377 4.39783 -0.166881 0
M  V30 5612 H 568.496 0.717097 -0.17012 0
M  V30 5613 H 571.138 1.56499 -1.07741 0
M  V30 5614 H 569.288 3.88054 -0.186128 0
M  V30 5615 H 570.96 3.67533 -2.78779 0
M  V30 5616 H 569.203 3.41384 -2.67656 0
M  V30 5617 H 569.874 5.00841 -2.32082 0
M  V30 5618 H 572.35 4.11556 -0.613285 0
M  V30 5619 H 571.226 5.47671 -0.367093 0
M  V30 5620 H 571.487 4.32196 0.930559 0
M  V30 5621 N 570.547 0.616602 1.45037 0
M  V30 5622 C 571.796 0.112861 2.01384 0
M  V30 5623 C 572.109 -1.26758 1.48969 0
M  V30 5624 O 573.315 -1.86454 1.9735 0
M  V30 5625 C 571.771 0.151057 3.59583 0
M  V30 5626 C 571.379 1.53191 4.20995 0
M  V30 5627 C 573.123 -0.296974 4.2346 0
M  V30 5628 C 571.03 1.526 5.71373 0
M  V30 5629 H 569.96 0.0384254 0.75302 0
M  V30 5630 H 572.611 0.773262 1.66412 0
M  V30 5631 H 570.993 -0.57617 3.91786 0
M  V30 5632 H 572.167 2.28156 4.00352 0
M  V30 5633 H 570.482 1.92279 3.69348 0
M  V30 5634 H 573.079 -0.320712 5.33737 0
M  V30 5635 H 573.422 -1.32145 3.9477 0
M  V30 5636 H 573.955 0.377279 3.96007 0
M  V30 5637 H 570.694 2.52837 6.04776 0
M  V30 5638 H 570.214 0.819064 5.94181 0
M  V30 5639 H 571.893 1.25357 6.3474 0
M  V30 5640 N 572.025 -1.5352 0.356285 0
M  V30 5641 C 573.272 -2.01117 -0.236303 0
M  V30 5642 C 573.6 -1.24381 -1.49531 0
M  V30 5643 O 572.855 -0.323057 -1.93015 0
M  V30 5644 C 573.154 -3.52607 -0.583369 0
M  V30 5645 C 572.82 -4.47151 0.58023 0
M  V30 5646 C 571.482 -4.72718 0.899528 0
M  V30 5647 C 573.834 -5.03137 1.36024 0
M  V30 5648 C 571.162 -5.51523 2.00098 0
M  V30 5649 C 573.514 -5.83145 2.45204 0
M  V30 5650 C 572.178 -6.07001 2.77679 0
M  V30 5651 H 571.448 -0.735938 -0.0864695 0
M  V30 5652 H 574.095 -1.85209 0.48683 0
M  V30 5653 H 572.4 -3.66413 -1.38739 0
M  V30 5654 H 574.097 -3.86901 -1.05397 0
M  V30 5655 H 570.687 -4.27394 0.321322 0
M  V30 5656 H 574.871 -4.83339 1.12682 0
M  V30 5657 H 570.127 -5.68229 2.25668 0
M  V30 5658 H 574.301 -6.25537 3.06067 0
M  V30 5659 H 571.928 -6.67851 3.63151 0
M  V30 5660 N 573.503 -0.0852151 -1.57369 0
M  V30 5661 C 574.749 0.575588 -1.95086 0
M  V30 5662 C 575.104 1.66402 -0.96582 0
M  V30 5663 O 574.397 1.91598 0.00978463 0
M  V30 5664 C 574.591 1.18482 -3.3719 0
M  V30 5665 C 574.42 0.156928 -4.49426 0
M  V30 5666 C 573.19 -0.263126 -5.04614 0
M  V30 5667 C 575.388 -0.611068 -5.10657 0
M  V30 5668 N 573.37 -1.28032 -6.00401 0
M  V30 5669 C 574.741 -1.48036 -6.02068 0
M  V30 5670 C 576.796 -0.665669 -4.9343 0
M  V30 5671 C 575.499 -2.39943 -6.781 0
M  V30 5672 C 577.525 -1.5723 -5.70116 0
M  V30 5673 C 576.887 -2.42924 -6.61186 0
M  V30 5674 H 572.986 0.181249 -0.760705 0
M  V30 5675 H 575.57 -0.165484 -1.93995 0
M  V30 5676 H 573.741 1.89575 -3.38992 0
M  V30 5677 H 575.473 1.80718 -3.62109 0
M  V30 5678 H 572.228 0.122664 -4.73441 0
M  V30 5679 H 572.652 -1.78682 -6.52994 0
M  V30 5680 H 577.294 -0.0173214 -4.22796 0
M  V30 5681 H 575.012 -3.05807 -7.48002 0
M  V30 5682 H 578.598 -1.61956 -5.58804 0
M  V30 5683 H 577.478 -3.1194 -7.19488 0
M  V30 5684 N 574.981 1.5647 0.188427 0
M  V30 5685 C 575.911 1.98101 1.23606 0
M  V30 5686 C 576.892 0.853961 1.47111 0
M  V30 5687 O 578.077 1.11879 1.58735 0
M  V30 5688 C 575.207 2.32624 2.57882 0
M  V30 5689 C 574.161 3.48129 2.48978 0
M  V30 5690 C 573.487 3.68347 3.87588 0
M  V30 5691 C 574.787 4.82112 2.00911 0
M  V30 5692 H 576.481 2.85864 0.890068 0
M  V30 5693 H 574.027 1.37532 0.426714 0
M  V30 5694 H 575.98 2.60343 3.3136 0
M  V30 5695 H 574.704 1.41751 2.94235 0
M  V30 5696 H 573.363 3.20511 1.77956 0
M  V30 5697 H 573.011 2.74793 4.21305 0
M  V30 5698 H 572.711 4.46055 3.82503 0
M  V30 5699 H 574.235 3.98449 4.62678 0
M  V30 5700 H 575.649 5.08819 2.64151 0
M  V30 5701 H 574.046 5.63337 2.06814 0
M  V30 5702 H 575.116 4.75249 0.96262 0
M  V30 5703 N 576.459 -0.456382 1.50847 0
M  V30 5704 C 577.707 -1.20497 1.62249 0
M  V30 5705 C 578.028 -1.92156 0.331839 0
M  V30 5706 O 577.298 -1.84751 -0.651443 0
M  V30 5707 H 575.878 -0.447775 0.597918 0
M  V30 5708 H 578.54 -0.525099 1.87693 0
M  V30 5709 H 577.636 -1.94492 2.44089 0
M  V30 5710 N 577.937 -1.40673 -0.710563 0
M  V30 5711 C 579.167 -1.4234 -1.49742 0
M  V30 5712 C 579.575 -0.022821 -1.89186 0
M  V30 5713 O 578.918 0.964773 -1.56326 0
M  V30 5714 C 578.98 -2.25509 -2.79975 0
M  V30 5715 C 578.644 -3.73862 -2.62824 0
M  V30 5716 C 579.641 -4.66379 -2.29752 0
M  V30 5717 C 577.326 -4.17735 -2.78932 0
M  V30 5718 C 579.32 -6.00756 -2.13006 0
M  V30 5719 C 577.007 -5.5218 -2.61802 0
M  V30 5720 C 578.005 -6.43505 -2.28888 0
M  V30 5721 O 577.693 -7.75472 -2.11894 0
M  V30 5722 H 577.425 -0.487311 -0.468513 0
M  V30 5723 H 579.979 -1.8542 -0.883668 0
M  V30 5724 H 578.209 -1.77218 -3.43701 0
M  V30 5725 H 579.898 -2.19058 -3.41714 0
M  V30 5726 H 580.664 -4.33778 -2.16936 0
M  V30 5727 H 576.543 -3.46967 -3.03537 0
M  V30 5728 H 580.087 -6.72003 -1.87237 0
M  V30 5729 H 575.984 -5.84365 -2.74204 0
M  V30 5730 H 576.752 -7.86458 -2.26775 0
M  V30 5731 N 579.415 0.9433 -1.26252 0
M  V30 5732 C 580.662 1.68925 -1.11672 0
M  V30 5733 C 580.99 1.91499 0.340329 0
M  V30 5734 O 580.245 1.49189 1.26653 0
M  V30 5735 C 580.544 3.07073 -1.82868 0
M  V30 5736 C 580.21 3.04262 -3.32769 0
M  V30 5737 C 578.872 3.03203 -3.7366 0
M  V30 5738 C 581.224 2.96729 -4.28487 0
M  V30 5739 C 578.552 2.92373 -5.0866 0
M  V30 5740 C 580.904 2.87442 -5.63525 0
M  V30 5741 C 579.568 2.84724 -6.03729 0
M  V30 5742 H 578.838 0.618141 -0.408635 0
M  V30 5743 H 581.485 1.10124 -1.56668 0
M  V30 5744 H 579.79 3.69486 -1.30335 0
M  V30 5745 H 581.487 3.63635 -1.69029 0
M  V30 5746 H 578.077 3.05865 -3.00241 0
M  V30 5747 H 582.261 2.96658 -3.97879 0
M  V30 5748 H 577.517 2.88645 -5.38975 0
M  V30 5749 H 581.691 2.80576 -6.37377 0
M  V30 5750 H 579.318 2.76089 -7.08293 0
M  V30 5751 N 580.893 1.08022 1.14757 0
M  V30 5752 C 581.841 0.701088 2.21783 0
M  V30 5753 C 582.835 -0.291311 1.66876 0
M  V30 5754 O 584.041 -0.154296 1.79337 0
M  V30 5755 H 580.416 0.208668 0.722469 0
M  V30 5756 H 582.387 1.61321 2.51034 0
M  V30 5757 C 581.136 0.122278 3.47485 0
M  V30 5758 H 580.459 0.877065 3.90061 0
M  V30 5759 H 581.899 -0.105248 4.23869 0
M  V30 5760 C 580.358 -1.13883 3.17068 0
M  V30 5761 O 580.888 -2.22429 3.34497 0
M  V30 5762 N 579.094 -1.04767 2.71058 0
M  V30 5763 H 578.641 -0.164302 2.57075 0
M  V30 5764 H 578.599 -1.89224 2.51081 0
M  V30 5765 N 582.371 -1.3172 0.865308 0
M  V30 5766 C 583.596 -2.01591 0.487415 0
M  V30 5767 C 584.021 -1.6455 -0.911307 0
M  V30 5768 O 583.379 -0.851689 -1.6005 0
M  V30 5769 C 583.427 -3.54759 0.646401 0
M  V30 5770 O 582.531 -4.11185 -0.316284 0
M  V30 5771 H 581.872 -0.634884 0.194468 0
M  V30 5772 H 584.402 -1.68024 1.16744 0
M  V30 5773 H 584.412 -4.04438 0.537932 0
M  V30 5774 H 583.087 -3.8106 1.66632 0
M  V30 5775 H 581.664 -3.72543 -0.163162 0
M  V30 5776 N 583.85 -0.624285 -1.44708 0
M  V30 5777 C 585.09 -0.129273 -2.03991 0
M  V30 5778 C 585.454 1.22321 -1.47992 0
M  V30 5779 O 586.654 1.80993 -1.98734 0
M  V30 5780 C 584.926 -0.108231 -3.57236 0
M  V30 5781 S 586.485 0.323158 -4.37608 0
M  V30 5782 H 583.303 -0.0577318 -0.708652 0
M  V30 5783 H 585.904 -0.826139 -1.77187 0
M  V30 5784 H 584.609 -1.0958 -3.955 0
M  V30 5785 H 584.139 0.610101 -3.8864 0
M  V30 5786 H 586.154 1.56894 -4.70743 0
M  V30 5787 N 585.328 1.53329 -0.364422 0
M  V30 5788 C 586.574 2.01537 0.225969 0
M  V30 5789 C 586.907 1.25128 1.48515 0
M  V30 5790 O 586.182 0.344653 1.91422 0
M  V30 5791 C 586.465 3.56339 0.519092 0
M  V30 5792 C 586.318 4.43441 -0.753639 0
M  V30 5793 C 587.637 4.19833 1.32015 0
M  V30 5794 H 584.756 0.732573 0.0806548 0
M  V30 5795 H 587.398 1.83597 -0.489084 0
M  V30 5796 H 585.548 3.71756 1.12825 0
M  V30 5797 H 587.22 4.39823 -1.39116 0
M  V30 5798 H 585.463 4.11457 -1.37424 0
M  V30 5799 H 586.134 5.49699 -0.503517 0
M  V30 5800 H 588.61 4.08242 0.804859 0
M  V30 5801 H 587.486 5.28177 1.49399 0
M  V30 5802 H 587.747 3.75821 2.32832 0
M  V30 5803 N 586.806 0.0935595 1.57322 0
M  V30 5804 C 587.754 -0.883457 2.15169 0
M  V30 5805 C 588.748 -1.29324 1.09415 0
M  V30 5806 O 589.954 -1.26795 1.27762 0
M  V30 5807 H 586.329 -0.302923 0.688289 0
M  V30 5808 H 588.3 -0.370845 2.96087 0
M  V30 5809 C 587.049 -2.13345 2.74552 0
M  V30 5810 H 586.372 -1.82702 3.55612 0
M  V30 5811 H 587.812 -2.7977 3.18598 0
M  V30 5812 C 586.271 -2.90646 1.70371 0
M  V30 5813 O 586.801 -3.85133 1.14173 0
M  V30 5814 N 585.007 -2.54157 1.40899 0
M  V30 5815 H 584.554 -1.77391 1.86789 0
M  V30 5816 H 584.512 -3.06178 0.714301 0
M  V30 5817 N 588.284 -1.56567 -0.180126 0
M  V30 5818 C 589.695 -1.7126 -0.743422 0
M  V30 5819 C 590.046 -0.70263 -1.83187 0
M  V30 5820 O 589.171 0.137856 -2.1596 0
M  V30 5821 C 589.766 -3.10512 -1.35528 0
M  V30 5822 C 588.325 -3.26919 -1.8655 0
M  V30 5823 C 587.472 -2.67213 -0.741099 0
M  V30 5824 H 590.423 -1.58636 0.0451543 0
M  V30 5825 H 590.444 -3.08673 -2.22489 0
M  V30 5826 H 589.956 -3.83997 -0.562862 0
M  V30 5827 H 588.057 -2.58376 -2.68464 0
M  V30 5828 H 588.17 -4.34574 -2.01699 0
M  V30 5829 H 586.534 -2.26788 -1.15927 0
M  V30 5830 H 587.317 -3.43277 0.0393291 0
M  V30 5831 N 589.762 0.448376 -1.51087 0
M  V30 5832 C 590.692 1.55102 -1.74544 0
M  V30 5833 C 591.673 1.59357 -0.594932 0
M  V30 5834 O 592.858 1.75261 -0.836491 0
M  V30 5835 C 589.988 2.93268 -1.86041 0
M  V30 5836 C 588.942 3.03877 -3.01402 0
M  V30 5837 C 588.268 4.43914 -2.98068 0
M  V30 5838 C 589.568 2.7898 -4.41551 0
M  V30 5839 H 591.262 1.35724 -2.66869 0
M  V30 5840 H 588.808 0.651498 -1.28419 0
M  V30 5841 H 590.761 3.70356 -2.01034 0
M  V30 5842 H 589.485 3.13853 -0.903548 0
M  V30 5843 H 588.144 2.29227 -2.86096 0
M  V30 5844 H 587.792 4.6145 -2.00182 0
M  V30 5845 H 587.492 4.51944 -3.75527 0
M  V30 5846 H 589.016 5.22991 -3.1514 0
M  V30 5847 H 590.43 3.45805 -4.57265 0
M  V30 5848 H 588.827 2.98431 -5.20633 0
M  V30 5849 H 589.897 1.74663 -4.5235 0
M  V30 5850 N 591.24 1.41047 0.703093 0
M  V30 5851 C 592.489 1.39301 1.4587 0
M  V30 5852 C 592.802 0.00267077 1.956 0
M  V30 5853 O 594.008 -0.137414 2.71152 0
M  V30 5854 C 592.464 2.44891 2.63735 0
M  V30 5855 C 592.072 3.89796 2.20824 0
M  V30 5856 C 593.816 2.5227 3.41409 0
M  V30 5857 C 591.723 4.86955 3.35602 0
M  V30 5858 H 590.653 0.518005 0.547893 0
M  V30 5859 H 593.304 1.66839 0.764009 0
M  V30 5860 H 591.686 2.10472 3.35436 0
M  V30 5861 H 592.86 4.33424 1.56461 0
M  V30 5862 H 591.175 3.86008 1.56163 0
M  V30 5863 H 593.772 3.22044 4.26839 0
M  V30 5864 H 594.115 1.55714 3.86081 0
M  V30 5865 H 594.648 2.85742 2.7676 0
M  V30 5866 H 591.387 5.84888 2.9595 0
M  V30 5867 H 590.907 4.47982 3.98839 0
M  V30 5868 H 592.586 5.07361 4.01489 0
M  V30 5869 N 592.718 -0.936591 1.26751 0
M  V30 5870 C 593.948 -1.71509 1.15188 0
M  V30 5871 C 594.356 -1.86885 -0.295037 0
M  V30 5872 O 593.699 -1.37915 -1.21347 0
M  V30 5873 C 593.761 -3.13853 1.75318 0
M  V30 5874 C 593.425 -3.21845 3.24445 0
M  V30 5875 C 594.422 -3.04771 4.21201 0
M  V30 5876 C 592.107 -3.45088 3.64992 0
M  V30 5877 C 594.101 -3.10816 5.56482 0
M  V30 5878 C 591.788 -3.50767 5.00405 0
M  V30 5879 C 592.786 -3.33648 5.9596 0
M  V30 5880 O 592.474 -3.39045 7.28906 0
M  V30 5881 H 592.206 -0.543658 0.401761 0
M  V30 5882 H 594.76 -1.18234 1.67958 0
M  V30 5883 H 592.99 -3.6857 1.17016 0
M  V30 5884 H 594.679 -3.73634 1.58596 0
M  V30 5885 H 595.445 -2.86665 3.91214 0
M  V30 5886 H 591.324 -3.57467 2.91098 0
M  V30 5887 H 594.868 -2.97372 6.31043 0
M  V30 5888 H 590.765 -3.68396 5.30052 0
M  V30 5889 H 591.533 -3.55558 7.37238 0
M  V30 5890 N 594.196 -1.08629 -1.14182 0
M  V30 5891 C 595.607 -0.838003 -1.66836 0
M  V30 5892 C 595.958 0.634885 -1.85644 0
M  V30 5893 O 595.083 1.49008 -1.56926 0
M  V30 5894 C 595.678 -1.51465 -3.03058 0
M  V30 5895 C 594.237 -1.31355 -3.52736 0
M  V30 5896 C 593.384 -1.57599 -2.28162 0
M  V30 5897 H 596.335 -1.24656 -0.982165 0
M  V30 5898 H 596.356 -0.943134 -3.68626 0
M  V30 5899 H 595.868 -2.58661 -2.89337 0
M  V30 5900 H 593.969 -0.262384 -3.71675 0
M  V30 5901 H 594.082 -2.04275 -4.33369 0
M  V30 5902 H 592.446 -0.997659 -2.34348 0
M  V30 5903 H 593.229 -2.66006 -2.17015 0
M  V30 5904 N 595.674 1.31259 -0.872281 0
M  V30 5905 C 596.914 1.98418 -0.490894 0
M  V30 5906 C 597.278 1.67429 0.939755 0
M  V30 5907 O 598.479 2.27818 1.42661 0
M  V30 5908 C 596.75 3.49583 -0.743408 0
M  V30 5909 S 598.309 4.36359 -0.462226 0
M  V30 5910 H 595.127 0.687005 -0.183151 0
M  V30 5911 H 597.729 1.59619 -1.12881 0
M  V30 5912 H 596.433 3.69627 -1.78338 0
M  V30 5913 H 595.964 3.93291 -0.0925758 0
M  V30 5914 H 597.979 4.91173 0.704525 0
M  V30 5915 N 597.152 0.631951 1.44375 0
M  V30 5916 C 598.377 0.142146 2.06912 0
M  V30 5917 C 598.802 -1.17456 1.4692 0
M  V30 5918 O 598.16 -1.72074 0.570975 0
M  V30 5919 C 598.208 0.0417952 3.60576 0
M  V30 5920 O 597.312 -1.00194 4.00044 0
M  V30 5921 H 596.653 0.0851491 0.658518 0
M  V30 5922 H 599.183 0.868863 1.85235 0
M  V30 5923 H 599.193 -0.148517 4.0773 0
M  V30 5924 H 597.868 1.0031 4.03622 0
M  V30 5925 H 596.445 -0.786131 3.64519 0
M  V30 5926 N 598.631 -1.53133 0.372548 0
M  V30 5927 C 599.856 -2.0625 -0.218098 0
M  V30 5928 C 600.281 -1.24375 -1.41111 0
M  V30 5929 O 599.639 -0.264554 -1.79359 0
M  V30 5930 C 599.687 -3.55858 -0.582876 0
M  V30 5931 O 598.791 -3.76667 -1.67917 0
M  V30 5932 H 598.132 -0.663317 -0.030104 0
M  V30 5933 H 600.662 -1.97477 0.535169 0
M  V30 5934 H 600.672 -3.99007 -0.851925 0
M  V30 5935 H 599.347 -4.14892 0.289428 0
M  V30 5936 H 597.924 -3.45413 -1.40513 0
M  V30 5937 N 600.109 -0.101901 -1.5727 0
M  V30 5938 C 601.525 0.254739 -1.57554 0
M  V30 5939 C 601.725 1.67937 -1.11352 0
M  V30 5940 O 600.781 2.39722 -0.793081 0
M  V30 5941 C 602.094 0.036975 -3.00677 0
M  V30 5942 C 603.642 0.104199 -3.12827 0
M  V30 5943 C 604.117 -0.0856565 -4.5792 0
M  V30 5944 N 605.608 -0.0310498 -4.6319 0
M  V30 5945 C 606.343 -0.153099 -5.73196 0
M  V30 5946 N 605.839 -0.330364 -6.92012 0
M  V30 5947 N 607.632 -0.0938854 -5.62022 0
M  V30 5948 H 599.783 -1.03263 -1.85609 0
M  V30 5949 H 602.046 -0.405251 -0.857016 0
M  V30 5950 H 601.752 -0.947254 -3.38703 0
M  V30 5951 H 601.626 0.776335 -3.69124 0
M  V30 5952 H 604.013 1.07894 -2.74669 0
M  V30 5953 H 604.094 -0.666762 -2.46957 0
M  V30 5954 H 603.738 -1.05729 -4.96773 0
M  V30 5955 H 603.668 0.705082 -5.21858 0
M  V30 5956 H 606.159 0.103141 -3.77759 0
M  V30 5957 H 606.472 -0.41482 -7.71686 0
M  V30 5958 H 604.817 -0.366119 -6.94035 0
M  V30 5959 H 608.008 0.0435168 -4.6808 0
M  V30 5960 H 608.181 -0.19245 -6.47714 0
M  V30 5961 N 601.587 1.56661 0.17182 0
M  V30 5962 C 602.497 1.99604 1.2327 0
M  V30 5963 C 603.513 0.907333 1.4847 0
M  V30 5964 O 604.689 1.21492 1.60629 0
M  V30 5965 C 601.754 2.34685 2.55194 0
M  V30 5966 C 600.815 3.57381 2.3786 0
M  V30 5967 C 600.048 3.90779 3.63494 0
M  V30 5968 O 600.271 3.25152 4.6865 0
M  V30 5969 O 599.205 4.84129 3.57634 0
M  V30 5970 H 603.031 2.90114 0.898192 0
M  V30 5971 H 600.616 1.44522 0.378647 0
M  V30 5972 H 602.498 2.5822 3.33017 0
M  V30 5973 H 601.173 1.47336 2.88225 0
M  V30 5974 H 600.08 3.39064 1.5807 0
M  V30 5975 H 601.413 4.45268 2.09754 0
M  V30 5976 N 603.065 -0.440357 1.51323 0
M  V30 5977 C 604.312 -1.19004 1.63842 0
M  V30 5978 C 604.64 -1.91266 0.35321 0
M  V30 5979 O 603.895 -1.84143 -0.662565 0
M  V30 5980 C 604.194 -2.2339 2.78984 0
M  V30 5981 C 603.86 -1.68162 4.18369 0
M  V30 5982 C 602.522 -1.52823 4.56288 0
M  V30 5983 C 604.874 -1.27524 5.05358 0
M  V30 5984 C 602.202 -0.953157 5.78906 0
M  V30 5985 C 604.554 -0.714474 6.28552 0
M  V30 5986 C 603.218 -0.547961 6.65247 0
M  V30 5987 H 602.488 -0.435468 0.59954 0
M  V30 5988 H 605.135 -0.481538 1.85347 0
M  V30 5989 H 603.44 -3.00267 2.51688 0
M  V30 5990 H 605.137 -2.81211 2.85869 0
M  V30 5991 H 601.727 -1.81077 3.8847 0
M  V30 5992 H 605.911 -1.38197 4.76671 0
M  V30 5993 H 601.167 -0.811882 6.05986 0
M  V30 5994 H 605.341 -0.391059 6.95301 0
M  V30 5995 H 602.968 -0.100222 7.60134 0
M  V30 5996 N 604.543 -1.41418 -0.695603 0
M  V30 5997 C 605.49 -1.43264 -1.80954 0
M  V30 5998 C 606.46 -0.287016 -1.63601 0
M  V30 5999 O 607.645 -0.488054 -1.84452 0
M  V30 6000 C 604.785 -1.32054 -3.18835 0
M  V30 6001 C 603.898 -2.56485 -3.4762 0
M  V30 6002 C 603.033 -2.3757 -4.75115 0
M  V30 6003 C 602.072 -3.57477 -4.96867 0
M  V30 6004 N 601.209 -3.37632 -6.15588 0
M  V30 6005 H 606.049 -2.38467 -1.78711 0
M  V30 6006 H 603.586 -1.18415 -0.872715 0
M  V30 6007 H 605.544 -1.23558 -3.98484 0
M  V30 6008 H 604.174 -0.404592 -3.20254 0
M  V30 6009 H 603.226 -2.75432 -2.62376 0
M  V30 6010 H 604.538 -3.45678 -3.59594 0
M  V30 6011 H 603.692 -2.2654 -5.62818 0
M  V30 6012 H 602.431 -1.45834 -4.65386 0
M  V30 6013 H 601.436 -3.68961 -4.07612 0
M  V30 6014 H 602.661 -4.50167 -5.08455 0
M  V30 6015 H 600.607 -2.48596 -6.07072 0
M  V30 6016 H 600.524 -4.20401 -6.2833 0
M  V30 6017 H 601.792 -3.30375 -7.06026 0
M  V30 6018 N 606.021 0.929856 -1.27246 0
M  V30 6019 C 607.437 1.20542 -1.04603 0
M  V30 6020 C 607.637 2.00276 0.221754 0
M  V30 6021 O 606.693 2.34835 0.927833 0
M  V30 6022 C 608.006 1.95566 -2.28417 0
M  V30 6023 C 609.554 2.08513 -2.33433 0
M  V30 6024 C 610.029 2.86943 -3.5697 0
M  V30 6025 N 611.52 2.94512 -3.57515 0
M  V30 6026 C 612.255 3.55656 -4.49774 0
M  V30 6027 N 611.751 4.18209 -5.52334 0
M  V30 6028 N 613.544 3.53038 -4.37402 0
M  V30 6029 H 605.695 0.397113 -2.08655 0
M  V30 6030 H 607.958 0.238277 -0.917566 0
M  V30 6031 H 607.664 1.44395 -3.20691 0
M  V30 6032 H 607.538 2.9619 -2.33563 0
M  V30 6033 H 609.925 2.58872 -1.41666 0
M  V30 6034 H 610.006 1.07117 -2.32292 0
M  V30 6035 H 609.65 2.37268 -4.49072 0
M  V30 6036 H 609.58 3.8862 -3.55362 0
M  V30 6037 H 612.071 2.50053 -2.83341 0
M  V30 6038 H 612.384 4.62796 -6.18902 0
M  V30 6039 H 610.729 4.16761 -5.56179 0
M  V30 6040 H 613.92 3.0337 -3.56489 0
M  V30 6041 H 614.093 4.004 -5.09493 0
M  V30 6042 N 607.499 1.09233 1.13605 0
M  V30 6043 C 608.462 0.733553 2.17144 0
M  V30 6044 C 609.462 -0.235873 1.59061 0
M  V30 6045 O 610.652 -0.0143167 1.74194 0
M  V30 6046 C 607.784 0.084471 3.40795 0
M  V30 6047 H 608.977 1.65049 2.50397 0
M  V30 6048 H 606.53 0.891264 1.28399 0
M  V30 6049 H 607.265 -0.843795 3.1313 0
M  V30 6050 H 607.05 0.781985 3.84223 0
M  V30 6051 H 608.54 -0.151216 4.17326 0
M  V30 6052 N 608.977 -1.30795 0.87923 0
M  V30 6053 C 610.224 -1.96362 0.494786 0
M  V30 6054 C 610.552 -1.69448 -0.954868 0
M  V30 6055 O 609.807 -0.988711 -1.68888 0
M  V30 6056 C 610.106 -3.50287 0.709476 0
M  V30 6057 C 609.772 -3.9724 2.13333 0
M  V30 6058 C 608.434 -4.09772 2.52271 0
M  V30 6059 C 610.786 -4.21807 3.06151 0
M  V30 6060 C 608.114 -4.44227 3.83248 0
M  V30 6061 C 610.466 -4.5773 4.36654 0
M  V30 6062 C 609.13 -4.68469 4.75492 0
M  V30 6063 H 608.4 -0.71854 0.181055 0
M  V30 6064 H 611.047 -1.55764 1.11399 0
M  V30 6065 H 609.352 -3.91799 0.0072 0
M  V30 6066 H 611.049 -3.99082 0.391703 0
M  V30 6067 H 607.639 -3.87988 1.82107 0
M  V30 6068 H 611.823 -4.11611 2.77291 0
M  V30 6069 H 607.079 -4.50741 4.13089 0
M  V30 6070 H 611.253 -4.7569 5.08617 0
M  V30 6071 H 608.88 -4.94923 5.77022 0
M  V30 6072 N 610.455 -0.639598 -1.44038 0
M  V30 6073 C 611.385 0.0469443 -2.33453 0
M  V30 6074 C 612.366 0.82609 -1.48694 0
M  V30 6075 O 613.551 0.790285 -1.77393 0
M  V30 6076 C 610.681 1.02338 -3.3188 0
M  V30 6077 C 609.635 0.355284 -4.26523 0
M  V30 6078 C 608.961 1.44221 -5.14883 0
M  V30 6079 C 610.261 -0.743798 -5.16977 0
M  V30 6080 H 611.955 -0.699735 -2.91108 0
M  V30 6081 H 609.501 -0.337946 -1.39978 0
M  V30 6082 H 611.454 1.51247 -3.93322 0
M  V30 6083 H 610.178 1.80105 -2.72451 0
M  V30 6084 H 608.837 -0.113239 -3.66425 0
M  V30 6085 H 608.485 2.21097 -4.51802 0
M  V30 6086 H 608.185 1.00052 -5.79019 0
M  V30 6087 H 609.709 1.93295 -5.79197 0
M  V30 6088 H 611.123 -0.337444 -5.72306 0
M  V30 6089 H 609.52 -1.10914 -5.89761 0
M  V30 6090 H 610.59 -1.60745 -4.57481 0
M  V30 6091 N 611.933 1.52934 -0.380664 0
M  V30 6092 C 613.349 1.59571 -0.0302429 0
M  V30 6093 C 613.549 1.39509 1.45394 0
M  V30 6094 O 612.605 1.20777 2.21741 0
M  V30 6095 C 613.918 2.96519 -0.499691 0
M  V30 6096 C 615.466 3.09672 -0.455204 0
M  V30 6097 C 615.941 4.49056 -0.900703 0
M  V30 6098 N 617.432 4.55215 -0.856367 0
M  V30 6099 C 618.167 5.61282 -1.17259 0
M  V30 6100 N 617.663 6.75035 -1.55885 0
M  V30 6101 N 619.456 5.51343 -1.0944 0
M  V30 6102 H 611.607 1.64224 -1.347 0
M  V30 6103 H 613.87 0.771033 -0.551554 0
M  V30 6104 H 613.576 3.16388 -1.53595 0
M  V30 6105 H 613.45 3.77052 0.105789 0
M  V30 6106 H 615.837 2.89504 0.571949 0
M  V30 6107 H 615.918 2.31113 -1.09638 0
M  V30 6108 H 615.562 4.69964 -1.92604 0
M  V30 6109 H 615.492 5.26068 -0.236629 0
M  V30 6110 H 617.983 3.73546 -0.572013 0
M  V30 6111 H 618.296 7.51926 -1.784 0
M  V30 6112 H 616.641 6.76388 -1.59764 0
M  V30 6113 H 619.832 4.61356 -0.791713 0
M  V30 6114 H 620.005 6.33905 -1.34417 0
M  V30 6115 N 613.412 0.11024 1.57214 0
M  V30 6116 C 614.342 -0.840002 2.17867 0
M  V30 6117 C 615.323 -1.28352 1.11624 0
M  V30 6118 O 616.508 -1.3477 1.39824 0
M  V30 6119 C 613.638 -2.09349 2.77111 0
M  V30 6120 C 612.592 -1.78807 3.8886 0
M  V30 6121 C 611.918 -3.11112 4.34872 0
M  V30 6122 C 613.218 -1.0632 5.11364 0
M  V30 6123 H 614.912 -0.334608 2.97524 0
M  V30 6124 H 612.458 -0.159502 1.43114 0
M  V30 6125 H 614.411 -2.76275 3.18198 0
M  V30 6126 H 613.135 -2.62198 1.9473 0
M  V30 6127 H 611.794 -1.14273 3.48335 0
M  V30 6128 H 611.442 -3.61877 3.49362 0
M  V30 6129 H 611.142 -2.91453 5.10224 0
M  V30 6130 H 612.666 -3.79171 4.78604 0
M  V30 6131 H 614.08 -1.63383 5.49526 0
M  V30 6132 H 612.477 -0.967876 5.92243 0
M  V30 6133 H 613.547 -0.0484569 4.84876 0
M  V30 6134 N 614.89 -1.56749 -0.16351 0
M  V30 6135 C 615.82 -2.00042 -1.20438 0
M  V30 6136 C 616.801 -0.877256 -1.45733 0
M  V30 6137 O 617.986 -1.1439 -1.56935 0
M  V30 6138 C 615.116 -2.36697 -2.54149 0
M  V30 6139 C 614.07 -3.52046 -2.43408 0
M  V30 6140 C 613.396 -3.74466 -3.81679 0
M  V30 6141 C 614.696 -4.85247 -1.93216 0
M  V30 6142 H 616.39 -2.87244 -0.844477 0
M  V30 6143 H 613.936 -1.38194 -0.40478 0
M  V30 6144 H 615.889 -2.65582 -3.27176 0
M  V30 6145 H 614.613 -1.46414 -2.91943 0
M  V30 6146 H 613.272 -3.23301 -1.72834 0
M  V30 6147 H 612.92 -2.81461 -4.1688 0
M  V30 6148 H 612.62 -4.52084 -3.75359 0
M  V30 6149 H 614.144 -4.0576 -4.5628 0
M  V30 6150 H 615.558 -5.12957 -2.56023 0
M  V30 6151 H 613.955 -5.66556 -1.97825 0
M  V30 6152 H 615.025 -4.7672 -0.88689 0
M  V30 6153 N 616.368 0.432326 -1.51554 0
M  V30 6154 C 617.784 0.769195 -1.39841 0
M  V30 6155 C 617.984 1.95584 -0.484675 0
M  V30 6156 O 617.04 2.52433 0.0582829 0
M  V30 6157 C 618.353 1.04487 -2.81963 0
M  V30 6158 C 619.901 1.149 -2.91148 0
M  V30 6159 C 620.376 1.45758 -4.34187 0
M  V30 6160 N 621.867 1.52671 -4.37317 0
M  V30 6161 C 622.602 1.78129 -5.4503 0
M  V30 6162 N 622.098 2.01345 -6.62897 0
M  V30 6163 N 623.891 1.79953 -5.32516 0
M  V30 6164 H 616.042 -0.349122 -2.09511 0
M  V30 6165 H 618.305 -0.0938113 -0.943347 0
M  V30 6166 H 618.011 0.24557 -3.50842 0
M  V30 6167 H 617.885 1.97119 -3.21596 0
M  V30 6168 H 620.272 1.93891 -2.22464 0
M  V30 6169 H 620.353 0.201568 -2.55005 0
M  V30 6170 H 619.997 0.672917 -5.03423 0
M  V30 6171 H 619.927 2.41715 -4.67848 0
M  V30 6172 H 622.418 1.36612 -3.52343 0
M  V30 6173 H 622.731 2.20155 -7.40778 0
M  V30 6174 H 621.076 1.98657 -6.66003 0
M  V30 6175 H 624.267 1.61337 -4.39418 0
M  V30 6176 H 624.44 1.99455 -6.1654 0
M  V30 6177 N 617.846 1.41785 0.688094 0
M  V30 6178 C 619.086 1.43018 1.46032 0
M  V30 6179 C 619.45 0.0402632 1.91958 0
M  V30 6180 O 620.651 -0.0726425 2.68702 0
M  V30 6181 C 618.922 2.4151 2.63453 0
M  V30 6182 S 620.481 2.61335 3.5249 0
M  V30 6183 H 617.299 0.506546 0.498931 0
M  V30 6184 H 619.901 1.78283 0.80221 0
M  V30 6185 H 618.605 3.41286 2.27929 0
M  V30 6186 H 618.136 2.07624 3.34149 0
M  V30 6187 H 620.151 1.88637 4.58945 0
M  V30 6188 N 619.324 -0.923095 1.27737 0
M  V30 6189 C 620.256 -2.02871 1.06658 0
M  V30 6190 C 621.269 -1.62786 0.0212095 0
M  V30 6191 O 622.458 -1.76548 0.263267 0
M  V30 6192 C 619.558 -3.33603 0.59682 0
M  V30 6193 C 618.731 -4.02354 1.71551 0
M  V30 6194 C 617.79 -5.11364 1.24071 0
M  V30 6195 O 616.816 -5.35075 1.94123 0
M  V30 6196 N 618.018 -5.80416 0.0988444 0
M  V30 6197 H 620.783 -2.21515 2.01869 0
M  V30 6198 H 618.344 -1.09378 1.19365 0
M  V30 6199 H 620.336 -4.03845 0.262984 0
M  V30 6200 H 618.906 -3.11499 -0.262187 0
M  V30 6201 H 618.126 -3.25786 2.2194 0
M  V30 6202 H 619.414 -4.45035 2.46619 0
M  V30 6203 H 618.812 -5.63611 -0.485743 0
M  V30 6204 H 617.369 -6.51563 -0.17578 0
M  V30 6205 N 620.802 -1.09834 -1.13024 0
M  V30 6206 C 622.042 -0.846664 -1.8604 0
M  V30 6207 C 622.406 0.616557 -1.81831 0
M  V30 6208 O 623.607 0.984329 -2.50129 0
M  V30 6209 C 621.878 -1.37228 -3.30005 0
M  V30 6210 S 623.437 -1.25511 -4.20467 0
M  V30 6211 H 620.255 -0.30611 -0.64173 0
M  V30 6212 H 622.857 -1.40255 -1.36194 0
M  V30 6213 H 621.561 -2.43138 -3.30624 0
M  V30 6214 H 621.092 -0.81271 -3.84914 0
M  V30 6215 H 623.107 -0.208762 -4.95761 0
M  V30 6216 N 622.28 1.30327 -0.886154 0
M  V30 6217 C 623.696 1.48676 -0.580323 0
M  V30 6218 C 623.896 1.81189 0.881639 0
M  V30 6219 O 622.952 1.90021 1.66278 0
M  V30 6220 C 624.265 2.60932 -1.49449 0
M  V30 6221 C 625.813 2.74812 -1.49824 0
M  V30 6222 C 626.288 3.90183 -2.39836 0
M  V30 6223 N 627.779 3.97495 -2.37806 0
M  V30 6224 C 628.514 4.86078 -3.04165 0
M  V30 6225 N 628.01 5.79448 -3.79753 0
M  V30 6226 N 629.803 4.79456 -2.93391 0
M  V30 6227 H 621.954 1.07495 -1.8319 0
M  V30 6228 H 624.217 0.532661 -0.784204 0
M  V30 6229 H 623.923 2.43731 -2.5355 0
M  V30 6230 H 623.797 3.57437 -1.20494 0
M  V30 6231 H 626.184 2.91418 -0.464731 0
M  V30 6232 H 626.265 1.78924 -1.82811 0
M  V30 6233 H 625.909 3.74334 -3.43273 0
M  V30 6234 H 625.839 4.85411 -2.04166 0
M  V30 6235 H 628.33 3.30703 -1.82877 0
M  V30 6236 H 628.643 6.43805 -4.27475 0
M  V30 6237 H 626.988 5.79376 -3.8386 0
M  V30 6238 H 630.179 4.05494 -2.33864 0
M  V30 6239 H 630.352 5.48283 -3.45383 0
M  V30 6240 N 623.758 0.647228 1.43697 0
M  V30 6241 C 625.174 0.314256 1.56476 0
M  V30 6242 C 625.374 -1.18191 1.63196 0
M  V30 6243 O 624.43 -1.96655 1.58376 0
M  V30 6244 C 625.743 1.02034 2.82859 0
M  V30 6245 C 627.291 1.00002 2.96595 0
M  V30 6246 C 627.766 1.68689 4.25803 0
M  V30 6247 N 629.257 1.65424 4.32654 0
M  V30 6248 C 629.992 2.1545 5.31384 0
M  V30 6249 N 629.488 2.73738 6.36427 0
M  V30 6250 N 631.281 2.05985 5.22998 0
M  V30 6251 H 623.432 1.61821 1.37578 0
M  V30 6252 H 625.695 0.680184 0.660344 0
M  V30 6253 H 625.401 2.07542 2.83935 0
M  V30 6254 H 625.275 0.568146 3.72897 0
M  V30 6255 H 627.662 -0.0466319 2.95063 0
M  V30 6256 H 627.743 1.49086 2.07863 0
M  V30 6257 H 627.387 2.73308 4.28095 0
M  V30 6258 H 627.317 1.17076 5.13421 0
M  V30 6259 H 629.808 1.22884 3.57363 0
M  V30 6260 H 630.121 3.09602 7.08072 0
M  V30 6261 H 628.466 2.77796 6.37067 0
M  V30 6262 H 631.657 1.60157 4.39849 0
M  V30 6263 H 631.83 2.45281 5.99784 0
M  V30 6264 N 625.236 -1.5273 0.388769 0
M  V30 6265 C 626.652 -1.59553 0.0387049 0
M  V30 6266 C 626.852 -1.40278 -1.44652 0
M  V30 6267 O 625.908 -1.21951 -2.21098 0
M  V30 6268 C 627.221 -2.9625 0.515409 0
M  V30 6269 C 628.769 -3.09426 0.471621 0
M  V30 6270 C 629.244 -4.48572 0.924505 0
M  V30 6271 N 630.735 -4.54754 0.880496 0
M  V30 6272 C 631.47 -5.60653 1.20234 0
M  V30 6273 N 630.966 -6.74198 1.59463 0
M  V30 6274 N 632.759 -5.50755 1.12363 0
M  V30 6275 H 624.91 -1.63508 1.35569 0
M  V30 6276 H 627.173 -0.768097 0.555636 0
M  V30 6277 H 626.879 -3.15569 1.5527 0
M  V30 6278 H 626.753 -3.77102 -0.085792 0
M  V30 6279 H 629.14 -2.89804 -0.556588 0
M  V30 6280 H 629.221 -2.30528 1.10862 0
M  V30 6281 H 628.865 -4.68936 1.95094 0
M  V30 6282 H 628.795 -5.25935 0.264524 0
M  V30 6283 H 631.286 -3.73237 0.591815 0
M  V30 6284 H 631.599 -7.5097 1.82385 0
M  V30 6285 H 629.944 -6.75531 1.63349 0
M  V30 6286 H 633.135 -4.6093 0.816169 0
M  V30 6287 H 633.308 -6.33184 1.37777 0
M  V30 6288 N 626.714 -0.118576 -1.57153 0
M  V30 6289 C 628.13 0.238014 -1.57815 0
M  V30 6290 C 628.33 1.66747 -1.13127 0
M  V30 6291 O 627.386 2.38867 -0.818462 0
M  V30 6292 C 628.699 0.00508207 -3.007 0
M  V30 6293 C 630.247 0.0710139 -3.12919 0
M  V30 6294 C 630.722 -0.13422 -4.57803 0
M  V30 6295 N 632.213 -0.0801755 -4.63131 0
M  V30 6296 C 632.948 -0.213885 -5.73001 0
M  V30 6297 N 632.444 -0.403742 -6.91623 0
M  V30 6298 N 634.237 -0.15349 -5.6189 0
M  V30 6299 H 626.388 -1.05226 -1.84503 0
M  V30 6300 H 628.651 -0.414318 -0.852669 0
M  V30 6301 H 628.357 -0.983125 -3.3768 0
M  V30 6302 H 628.231 0.73714 -3.69927 0
M  V30 6303 H 630.618 1.04975 -2.75798 0
M  V30 6304 H 630.699 -0.692918 -2.46236 0
M  V30 6305 H 630.343 -1.10992 -4.95624 0
M  V30 6306 H 630.273 0.649692 -5.22577 0
M  V30 6307 H 632.764 0.0630689 -3.77847 0
M  V30 6308 H 633.077 -0.496645 -7.71202 0
M  V30 6309 H 631.422 -0.43971 -6.93608 0
M  V30 6310 H 634.613 -0.00613174 -4.681 0
M  V30 6311 H 634.786 -0.261138 -6.47474 0
M  V30 6312 N 628.193 1.56834 0.155195 0
M  V30 6313 C 629.609 1.51315 0.50755 0
M  V30 6314 C 629.809 0.825614 1.83809 0
M  V30 6315 O 628.865 0.39271 2.49427 0
M  V30 6316 C 630.178 2.96074 0.52542 0
M  V30 6317 C 631.726 3.06968 0.611505 0
M  V30 6318 C 632.201 4.53218 0.660115 0
M  V30 6319 N 633.692 4.5753 0.722564 0
M  V30 6320 C 634.427 5.68056 0.781023 0
M  V30 6321 N 633.923 6.88173 0.799327 0
M  V30 6322 N 635.716 5.56068 0.821278 0
M  V30 6323 H 627.867 1.9993 -0.717063 0
M  V30 6324 H 630.13 0.911507 -0.260496 0
M  V30 6325 H 629.836 3.49599 -0.383875 0
M  V30 6326 H 629.71 3.51587 1.36624 0
M  V30 6327 H 632.097 2.53468 1.51122 0
M  V30 6328 H 632.178 2.54513 -0.256306 0
M  V30 6329 H 631.822 5.07354 -0.23541 0
M  V30 6330 H 631.752 5.03447 1.5443 0
M  V30 6331 H 634.243 3.71054 0.716049 0
M  V30 6332 H 634.556 7.6816 0.845553 0
M  V30 6333 H 632.901 6.90751 0.767337 0
M  V30 6334 H 636.092 4.61142 0.804091 0
M  V30 6335 H 636.265 6.42223 0.863372 0
M  V30 6336 N 629.671 -0.424282 1.51781 0
M  V30 6337 C 631.087 -0.761768 1.40247 0
M  V30 6338 C 631.287 -1.95324 0.495041 0
M  V30 6339 O 630.343 -2.5246 -0.0448949 0
M  V30 6340 C 631.656 -1.0299 2.82513 0
M  V30 6341 C 633.204 -1.13354 2.91753 0
M  V30 6342 C 633.679 -1.43453 4.34954 0
M  V30 6343 N 635.17 -1.5035 4.3812 0
M  V30 6344 C 635.905 -1.75236 5.45967 0
M  V30 6345 N 635.401 -1.97827 6.63955 0
M  V30 6346 N 637.194 -1.77126 5.33463 0
M  V30 6347 H 629.345 0.360228 2.09323 0
M  V30 6348 H 631.608 0.0988128 0.942836 0
M  V30 6349 H 631.314 -0.226961 3.50967 0
M  V30 6350 H 631.188 -1.95411 3.22637 0
M  V30 6351 H 633.575 -1.92709 2.23489 0
M  V30 6352 H 633.656 -0.188041 2.55108 0
M  V30 6353 H 633.3 -0.646209 5.03772 0
M  V30 6354 H 633.23 -2.3923 4.69123 0
M  V30 6355 H 635.721 -1.34742 3.53062 0
M  V30 6356 H 636.034 -2.16223 7.41935 0
M  V30 6357 H 634.379 -1.95123 6.67047 0
M  V30 6358 H 637.57 -1.59005 4.40267 0
M  V30 6359 H 637.743 -1.96182 6.17589 0
M  V30 6360 N 631.149 -1.42148 -0.680565 0
M  V30 6361 C 632.565 -1.24947 -0.992995 0
M  V30 6362 C 632.765 -0.149527 -2.00944 0
M  V30 6363 O 631.821 0.481145 -2.47873 0
M  V30 6364 C 633.134 -2.60426 -1.5033 0
M  V30 6365 C 634.682 -2.67733 -1.62137 0
M  V30 6366 C 635.157 -4.03564 -2.16565 0
M  V30 6367 N 636.648 -4.05488 -2.23905 0
M  V30 6368 C 637.383 -5.07401 -2.67081 0
M  V30 6369 N 636.879 -6.19698 -3.09751 0
M  V30 6370 N 638.672 -4.94758 -2.66778 0
M  V30 6371 H 630.823 -2.12399 -0.0074788 0
M  V30 6372 H 633.086 -0.94571 -0.0658529 0
M  V30 6373 H 632.792 -3.41743 -0.830947 0
M  V30 6374 H 632.666 -2.83949 -2.483 0
M  V30 6375 H 635.053 -1.86765 -2.2848 0
M  V30 6376 H 635.134 -2.48004 -0.626713 0
M  V30 6377 H 634.778 -4.84987 -1.50833 0
M  V30 6378 H 634.708 -4.20641 -3.1681 0
M  V30 6379 H 637.199 -3.24415 -1.93812 0
M  V30 6380 H 637.512 -6.93318 -3.41365 0
M  V30 6381 H 635.857 -6.23212 -3.07623 0
M  V30 6382 H 639.048 -4.06105 -2.32801 0
M  V30 6383 H 639.221 -5.74317 -3.00107 0
M  V30 6384 N 632.627 0.916307 -1.28225 0
M  V30 6385 C 634.038 1.48024 -1.13779 0
M  V30 6386 C 634.389 1.94289 0.273139 0
M  V30 6387 O 633.514 1.82226 1.16716 0
M  V30 6388 C 634.109 2.69029 -2.05935 0
M  V30 6389 C 632.668 3.2161 -1.95561 0
M  V30 6390 C 631.815 1.94321 -1.97825 0
M  V30 6391 H 634.766 0.729272 -1.40951 0
M  V30 6392 H 634.787 3.44204 -1.62184 0
M  V30 6393 H 634.299 2.35325 -3.08616 0
M  V30 6394 H 632.4 3.60045 -0.959076 0
M  V30 6395 H 632.513 3.87032 -2.82388 0
M  V30 6396 H 630.877 2.1131 -1.42198 0
M  V30 6397 H 631.66 1.62917 -3.0218 0
M  V30 6398 N 634.105 1.10431 1.1244 0
M  V30 6399 C 635.035 0.775143 2.20258 0
M  V30 6400 C 636.016 -0.25186 1.68225 0
M  V30 6401 O 637.201 -0.117637 1.93843 0
M  V30 6402 C 634.331 0.206133 3.46688 0
M  V30 6403 C 633.285 1.16382 4.11873 0
M  V30 6404 C 632.611 0.456014 5.32752 0
M  V30 6405 C 633.911 2.5104 4.58013 0
M  V30 6406 H 635.605 1.67665 2.4805 0
M  V30 6407 H 633.151 0.807595 1.19222 0
M  V30 6408 H 635.104 -0.036291 4.21384 0
M  V30 6409 H 633.828 -0.730614 3.18323 0
M  V30 6410 H 632.487 1.39169 3.39157 0
M  V30 6411 H 632.135 -0.485203 5.00654 0
M  V30 6412 H 631.835 1.09466 5.77314 0
M  V30 6413 H 633.359 0.222135 6.10196 0
M  V30 6414 H 634.773 2.32401 5.24083 0
M  V30 6415 H 633.17 3.10789 5.13352 0
M  V30 6416 H 634.24 3.11039 3.71998 0
M  V30 6417 N 635.583 -1.29855 0.893053 0
M  V30 6418 C 636.829 -1.96488 0.52574 0
M  V30 6419 C 637.184 -1.69164 -0.916594 0
M  V30 6420 O 636.477 -0.990405 -1.64017 0
M  V30 6421 C 636.671 -3.49515 0.746588 0
M  V30 6422 C 636.5 -3.91715 2.20884 0
M  V30 6423 C 635.27 -4.16915 2.85499 0
M  V30 6424 C 637.468 -4.03934 3.18342 0
M  V30 6425 N 635.45 -4.45634 4.22236 0
M  V30 6426 C 636.821 -4.36629 4.40176 0
M  V30 6427 C 638.876 -3.86387 3.14021 0
M  V30 6428 C 637.579 -4.53605 5.58243 0
M  V30 6429 C 639.605 -4.04569 4.31367 0
M  V30 6430 C 638.967 -4.37617 5.5197 0
M  V30 6431 H 635.066 -0.743657 0.241863 0
M  V30 6432 H 637.65 -1.56927 1.15248 0
M  V30 6433 H 635.821 -3.88113 0.149281 0
M  V30 6434 H 637.553 -4.03224 0.345372 0
M  V30 6435 H 634.308 -4.10423 2.36326 0
M  V30 6436 H 634.732 -4.64114 4.92876 0
M  V30 6437 H 639.374 -3.59906 2.21873 0
M  V30 6438 H 637.092 -4.78925 6.50889 0
M  V30 6439 H 640.678 -3.92452 4.29503 0
M  V30 6440 H 639.558 -4.51395 6.41258 0
M  V30 6441 N 637.061 -0.65484 -1.43351 0
M  V30 6442 C 638.477 -0.32255 -1.56307 0
M  V30 6443 C 638.677 1.17324 -1.63821 0
M  V30 6444 O 637.733 1.95813 -1.59417 0
M  V30 6445 C 639.046 -1.03533 -2.82314 0
M  V30 6446 C 640.594 -1.01574 -2.9606 0
M  V30 6447 C 641.069 -1.70945 -4.24902 0
M  V30 6448 N 642.56 -1.67716 -4.3177 0
M  V30 6449 C 643.295 -2.18265 -5.30234 0
M  V30 6450 N 642.791 -2.7711 -6.34966 0
M  V30 6451 N 644.584 -2.08756 -5.21898 0
M  V30 6452 H 636.735 -1.62549 -1.36717 0
M  V30 6453 H 638.998 -0.683676 -0.656727 0
M  V30 6454 H 638.704 -2.09045 -2.8283 0
M  V30 6455 H 638.578 -0.587913 -3.7259 0
M  V30 6456 H 640.965 0.0309834 -2.95084 0
M  V30 6457 H 641.046 -1.50186 -2.07069 0
M  V30 6458 H 640.69 -2.75574 -4.26639 0
M  V30 6459 H 640.62 -1.19797 -5.12793 0
M  V30 6460 H 643.111 -1.24777 -3.56706 0
M  V30 6461 H 643.424 -3.13353 -7.06421 0
M  V30 6462 H 641.769 -2.81171 -6.35585 0
M  V30 6463 H 644.96 -1.62488 -4.38994 0
M  V30 6464 H 645.133 -2.48459 -5.98475 0
M  V30 6465 N 638.539 1.52521 -0.396863 0
M  V30 6466 C 639.785 2.01971 0.183169 0
M  V30 6467 C 640.118 1.2825 1.45827 0
M  V30 6468 O 639.393 0.385179 1.90648 0
M  V30 6469 C 639.676 3.5736 0.443391 0
M  V30 6470 C 639.529 4.41743 -0.84753 0
M  V30 6471 C 640.848 4.22539 1.2308 0
M  V30 6472 H 637.967 0.734119 0.0650976 0
M  V30 6473 H 640.609 1.82519 -0.527918 0
M  V30 6474 H 638.759 3.74066 1.04914 0
M  V30 6475 H 640.431 4.36773 -1.48414 0
M  V30 6476 H 638.674 4.0845 -1.4612 0
M  V30 6477 H 639.345 5.48507 -0.620003 0
M  V30 6478 H 641.821 4.09857 0.718084 0
M  V30 6479 H 640.697 5.31227 1.38162 0
M  V30 6480 H 640.958 3.80675 2.24808 0
M  V30 6481 N 640.017 0.126909 1.57088 0
M  V30 6482 C 641.247 -0.535892 1.99529 0
M  V30 6483 C 641.655 -1.60259 1.00566 0
M  V30 6484 O 640.998 -1.83698 -0.00843269 0
M  V30 6485 C 641.06 -1.21374 3.38391 0
M  V30 6486 C 640.724 -0.294044 4.56053 0
M  V30 6487 C 641.721 0.470454 5.17767 0
M  V30 6488 C 639.406 -0.202808 5.0189 0
M  V30 6489 C 641.4 1.31384 6.23712 0
M  V30 6490 C 639.087 0.644203 6.07695 0
M  V30 6491 C 640.085 1.40115 6.68473 0
M  V30 6492 O 639.773 2.23408 7.72233 0
M  V30 6493 H 639.505 -0.145799 0.66009 0
M  V30 6494 H 642.059 0.212441 2.04298 0
M  V30 6495 H 640.289 -2.00931 3.30399 0
M  V30 6496 H 641.978 -1.77424 3.65069 0
M  V30 6497 H 642.744 0.409884 4.83265 0
M  V30 6498 H 638.623 -0.781688 4.54324 0
M  V30 6499 H 642.167 1.90514 6.71081 0
M  V30 6500 H 638.064 0.706137 6.41626 0
M  V30 6501 H 638.832 2.16436 7.89365 0
M  V30 6502 N 641.495 -1.56914 -0.146875 0
M  V30 6503 C 642.743 -1.82994 -0.85777 0
M  V30 6504 C 643.064 -0.707814 -1.817 0
M  V30 6505 O 642.334 0.270521 -1.94023 0
M  V30 6506 H 640.914 -0.675106 -0.319751 0
M  V30 6507 H 643.576 -1.9439 -0.140849 0
M  V30 6508 H 642.672 -2.77928 -1.41994 0
M  V30 6509 N 642.974 0.416227 -1.52004 0
M  V30 6510 C 643.924 1.50558 -1.7122 0
M  V30 6511 C 644.908 1.50613 -0.56609 0
M  V30 6512 O 646.1 1.56709 -0.822874 0
M  V30 6513 C 643.229 2.88556 -1.85984 0
M  V30 6514 C 642.315 2.93177 -3.06445 0
M  V30 6515 N 642.706 2.67505 -4.29272 0
M  V30 6516 C 641.004 3.24343 -3.06133 0
M  V30 6517 C 641.705 2.78511 -5.10692 0
M  V30 6518 N 640.681 3.11087 -4.45787 0
M  V30 6519 H 644.483 1.29494 -2.63834 0
M  V30 6520 H 641.997 0.62384 -1.4994 0
M  V30 6521 H 643.994 3.66954 -1.97865 0
M  V30 6522 H 642.654 3.10624 -0.945654 0
M  V30 6523 H 643.665 2.42033 -4.57865 0
M  V30 6524 H 640.342 3.52051 -2.24425 0
M  V30 6525 H 641.732 2.62438 -6.18527 0
M  V30 6526 N 644.452 1.42507 0.673017 0
M  V30 6527 C 645.402 1.4258 1.77919 0
M  V30 6528 C 646.386 0.296885 1.58137 0
M  V30 6529 O 647.578 0.539243 1.68586 0
M  V30 6530 C 644.707 1.33238 3.1639 0
M  V30 6531 C 643.793 2.51081 3.41788 0
M  V30 6532 N 644.184 3.76498 3.37761 0
M  V30 6533 C 642.482 2.4538 3.72431 0
M  V30 6534 C 643.183 4.54784 3.62693 0
M  V30 6535 N 642.159 3.8522 3.83544 0
M  V30 6536 H 645.961 2.37442 1.73201 0
M  V30 6537 H 643.475 1.36881 0.873924 0
M  V30 6538 H 645.472 1.31372 3.9566 0
M  V30 6539 H 644.132 0.393794 3.22303 0
M  V30 6540 H 645.143 4.09068 3.17622 0
M  V30 6541 H 641.82 1.60109 3.85579 0
M  V30 6542 H 643.21 5.63774 3.65525 0
M  V30 6543 N 645.93 -0.909495 1.28709 0
M  V30 6544 C 647.176 -1.66175 1.17293 0
M  V30 6545 C 647.531 -1.90426 -0.274891 0
M  V30 6546 O 646.824 -1.49659 -1.19635 0
M  V30 6547 C 647.018 -3.02117 1.90945 0
M  V30 6548 C 646.847 -2.91134 3.42741 0
M  V30 6549 C 645.617 -2.92429 4.12085 0
M  V30 6550 C 647.815 -2.68889 4.3841 0
M  V30 6551 N 645.797 -2.72078 5.50315 0
M  V30 6552 C 647.168 -2.57423 5.64033 0
M  V30 6553 C 649.223 -2.53919 4.28287 0
M  V30 6554 C 647.926 -2.32513 6.80683 0
M  V30 6555 C 649.952 -2.3039 5.44678 0
M  V30 6556 C 649.314 -2.19682 6.69268 0
M  V30 6557 H 645.413 -0.614095 0.48416 0
M  V30 6558 H 647.997 -1.07377 1.62414 0
M  V30 6559 H 646.168 -3.58993 1.48252 0
M  V30 6560 H 647.9 -3.66388 1.71878 0
M  V30 6561 H 644.655 -3.03345 3.63701 0
M  V30 6562 H 645.079 -2.64983 6.22987 0
M  V30 6563 H 649.721 -2.60946 3.32666 0
M  V30 6564 H 647.439 -2.24225 7.76369 0
M  V30 6565 H 651.025 -2.19665 5.38738 0
M  V30 6566 H 649.905 -2.01725 7.5781 0
M  V30 6567 N 647.408 -1.11026 -1.11852 0
M  V30 6568 C 648.824 -0.843294 -1.35502 0
M  V30 6569 C 649.024 0.534179 -1.9429 0
M  V30 6570 O 648.08 1.28585 -2.17307 0
M  V30 6571 C 649.393 -1.94793 -2.29077 0
M  V30 6572 C 650.941 -1.97709 -2.42652 0
M  V30 6573 C 651.416 -3.07364 -3.39546 0
M  V30 6574 N 652.907 -3.0671 -3.47107 0
M  V30 6575 C 653.642 -3.88197 -4.22008 0
M  V30 6576 N 653.138 -4.79635 -4.99922 0
M  V30 6577 N 654.931 -3.76391 -4.17476 0
M  V30 6578 H 647.082 -1.99805 -0.720538 0
M  V30 6579 H 649.345 -0.868633 -0.379711 0
M  V30 6580 H 649.051 -2.93971 -1.93065 0
M  V30 6581 H 648.925 -1.84039 -3.29256 0
M  V30 6582 H 651.312 -0.991604 -2.77941 0
M  V30 6583 H 651.393 -2.1254 -1.4234 0
M  V30 6584 H 651.037 -4.06136 -3.04985 0
M  V30 6585 H 650.967 -2.89774 -4.39703 0
M  V30 6586 H 653.458 -2.40457 -2.91528 0
M  V30 6587 H 653.771 -5.38357 -5.54429 0
M  V30 6588 H 652.116 -4.8366 -4.99097 0
M  V30 6589 H 655.307 -3.04303 -3.55693 0
M  V30 6590 H 655.48 -4.40131 -4.75593 0
M  V30 6591 N 648.886 1.2938 -0.899927 0
M  V30 6592 C 649.849 2.25983 -0.382677 0
M  V30 6593 C 650.849 1.53366 0.483259 0
M  V30 6594 O 652.039 1.71798 0.28828 0
M  V30 6595 C 649.171 3.37878 0.452915 0
M  V30 6596 H 650.364 2.73252 -1.23586 0
M  V30 6597 H 647.917 1.40825 -0.678088 0
M  V30 6598 H 648.652 2.95949 1.32608 0
M  V30 6599 H 648.437 3.91742 -0.167562 0
M  V30 6600 H 649.927 4.09746 0.806107 0
M  V30 6601 N 650.364 0.662433 1.43002 0
M  V30 6602 C 651.589 0.186003 2.06564 0
M  V30 6603 C 652.014 -1.14314 1.49379 0
M  V30 6604 O 651.372 -1.70824 0.607346 0
M  V30 6605 C 651.42 0.118269 3.60406 0
M  V30 6606 O 650.524 -0.916859 4.02079 0
M  V30 6607 H 649.865 0.0990981 0.656563 0
M  V30 6608 H 652.395 0.907958 1.8335 0
M  V30 6609 H 652.405 -0.0619981 4.07953 0
M  V30 6610 H 651.08 1.08849 4.01403 0
M  V30 6611 H 649.657 -0.708635 3.66105 0
M  V30 6612 N 651.842 -1.52309 0.404946 0
M  V30 6613 C 653.07 -2.06185 -0.171818 0
M  V30 6614 C 653.485 -1.27536 -1.39212 0
M  V30 6615 O 652.842 -0.326112 -1.79563 0
M  V30 6616 C 652.893 -3.57647 -0.526417 0
M  V30 6617 O 652.614 -4.3332 0.645417 0
M  V30 6618 C 654.115 -4.27925 -1.15736 0
M  V30 6619 H 651.335 -0.670632 -0.0222328 0
M  V30 6620 H 653.879 -1.96259 0.574692 0
M  V30 6621 H 652.034 -3.67595 -1.22282 0
M  V30 6622 H 652.448 -5.23328 0.35042 0
M  V30 6623 H 653.922 -5.35093 -1.35572 0
M  V30 6624 H 654.399 -3.84134 -2.12926 0
M  V30 6625 H 655.005 -4.22335 -0.501281 0
M  V30 6626 N 653.32 -0.135238 -1.57019 0
M  V30 6627 C 654.545 0.529343 -2.00531 0
M  V30 6628 C 654.97 1.58391 -1.01459 0
M  V30 6629 O 654.328 1.81296 0.0113986 0
M  V30 6630 C 654.376 1.11748 -3.42848 0
M  V30 6631 O 653.48 2.23267 -3.46736 0
M  V30 6632 H 652.821 0.130669 -0.651016 0
M  V30 6633 H 655.351 -0.228503 -2.0332 0
M  V30 6634 H 655.361 1.44905 -3.81401 0
M  V30 6635 H 654.036 0.345147 -4.14465 0
M  V30 6636 H 652.613 1.91428 -3.20015 0
M  V30 6637 N 654.798 1.5699 0.138552 0
M  V30 6638 C 656.046 1.83446 0.848053 0
M  V30 6639 C 656.367 0.71744 1.81322 0
M  V30 6640 O 655.637 -0.260228 1.94164 0
M  V30 6641 H 654.217 0.676792 0.316166 0
M  V30 6642 H 656.879 1.94462 0.130538 0
M  V30 6643 H 655.975 2.78677 1.40518 0
M  V30 6644 N 656.276 -0.40816 1.52223 0
M  V30 6645 C 657.206 -1.5042 1.78595 0
M  V30 6646 C 658.187 -1.57723 0.636974 0
M  V30 6647 O 659.372 -1.72982 0.882664 0
M  V30 6648 C 656.502 -2.88232 1.93751 0
M  V30 6649 C 655.456 -2.95779 3.09352 0
M  V30 6650 C 654.782 -4.35855 3.09732 0
M  V30 6651 C 656.082 -2.67175 4.48793 0
M  V30 6652 H 657.776 -1.28601 2.70374 0
M  V30 6653 H 655.322 -0.617221 1.30101 0
M  V30 6654 H 657.275 -3.64895 2.10783 0
M  V30 6655 H 655.999 -3.11347 0.986443 0
M  V30 6656 H 654.658 -2.21561 2.92072 0
M  V30 6657 H 654.306 -4.55981 2.12346 0
M  V30 6658 H 654.006 -4.41829 3.87377 0
M  V30 6659 H 655.53 -5.14451 3.28895 0
M  V30 6660 H 656.944 -3.3356 4.66273 0
M  V30 6661 H 655.341 -2.84523 5.28362 0
M  V30 6662 H 656.411 -1.62609 4.56822 0
M  V30 6663 N 657.755 -1.42862 -0.66545 0
M  V30 6664 C 659.171 -1.25993 -0.979687 0
M  V30 6665 C 659.371 -0.170831 -2.00775 0
M  V30 6666 O 658.427 0.454827 -2.4837 0
M  V30 6667 C 659.74 -2.62005 -1.47559 0
M  V30 6668 C 661.288 -2.69437 -1.59288 0
M  V30 6669 C 661.763 -4.05838 -2.12272 0
M  V30 6670 N 663.254 -4.0784 -2.19592 0
M  V30 6671 C 663.989 -5.10205 -2.61684 0
M  V30 6672 N 663.485 -6.22949 -3.03161 0
M  V30 6673 N 665.278 -4.9756 -2.61516 0
M  V30 6674 H 657.429 -2.12395 0.0150493 0
M  V30 6675 H 659.692 -0.946355 -0.0558187 0
M  V30 6676 H 659.398 -3.42605 -0.794654 0
M  V30 6677 H 659.272 -2.86566 -2.45275 0
M  V30 6678 H 661.659 -1.89178 -2.26486 0
M  V30 6679 H 661.74 -2.48655 -0.600374 0
M  V30 6680 H 661.384 -4.86559 -1.4568 0
M  V30 6681 H 661.314 -4.23977 -3.12331 0
M  V30 6682 H 663.805 -3.26452 -1.90361 0
M  V30 6683 H 664.118 -6.96899 -3.33993 0
M  V30 6684 H 662.463 -6.2644 -3.00995 0
M  V30 6685 H 665.654 -4.08551 -2.28481 0
M  V30 6686 H 665.827 -5.77468 -2.93999 0
M  V30 6687 N 659.233 0.902656 -1.29189 0
M  V30 6688 C 660.165 2.01149 -1.09872 0
M  V30 6689 C 661.178 1.62732 -0.0471046 0
M  V30 6690 O 662.367 1.76107 -0.29132 0
M  V30 6691 C 659.467 3.32612 -0.649818 0
M  V30 6692 C 658.64 3.99574 -1.7793 0
M  V30 6693 C 657.699 5.09325 -1.32191 0
M  V30 6694 O 656.725 5.31919 -2.02611 0
M  V30 6695 N 657.927 5.80185 -0.191171 0
M  V30 6696 H 660.692 2.18276 -2.05368 0
M  V30 6697 H 658.253 1.07466 -1.2109 0
M  V30 6698 H 660.245 4.03375 -0.327199 0
M  V30 6699 H 658.815 3.11876 0.212597 0
M  V30 6700 H 658.035 3.22213 -2.27095 0
M  V30 6701 H 659.323 4.41056 -2.53668 0
M  V30 6702 H 658.721 5.64312 0.396016 0
M  V30 6703 H 657.278 6.5176 0.0721001 0
M  V30 6704 N 660.711 1.11618 1.11262 0
M  V30 6705 C 661.988 0.777876 1.79467 0
M  V30 6706 C 662.368 -0.733774 1.97937 0
M  V30 6707 O 661.716 -1.66443 1.56554 0
M  V30 6708 C 661.926 1.5431 3.13032 0
M  V30 6709 C 663.274 1.72357 3.88044 0
M  V30 6710 O 664.298 1.5075 3.22727 0
M  V30 6711 O 663.157 2.08276 5.05256 0
M  V30 6712 H 660.251 0.282018 0.777428 0
M  V30 6713 H 662.797 1.21971 1.17988 0
M  V30 6714 H 661.569 2.57132 2.94956 0
M  V30 6715 H 661.192 1.09495 3.82226 0
M  V30 6716 N 662.189 -1.289 0.906776 0
M  V30 6717 C 663.429 -1.97046 0.543329 0
M  V30 6718 C 663.793 -1.69862 -0.895034 0
M  V30 6719 O 664.994 -2.31521 -1.36571 0
M  V30 6720 C 663.265 -3.47489 0.835833 0
M  V30 6721 S 664.824 -4.3498 0.577756 0
M  V30 6722 H 661.642 -0.681908 0.201302 0
M  V30 6723 H 664.244 -1.5657 1.17073 0
M  V30 6724 H 662.948 -3.64768 1.88075 0
M  V30 6725 H 662.479 -3.92907 0.196817 0
M  V30 6726 H 664.494 -4.92868 -0.574052 0
M  V30 6727 N 663.667 -0.670007 -1.42649 0
M  V30 6728 C 664.63 0.00204659 -2.292 0
M  V30 6729 C 665.63 0.733817 -1.4308 0
M  V30 6730 O 666.82 0.57254 -1.64522 0
M  V30 6731 C 663.952 1.01359 -3.25483 0
M  V30 6732 H 665.145 -0.759696 -2.90118 0
M  V30 6733 H 662.698 -0.432105 -1.50208 0
M  V30 6734 H 663.433 1.80399 -2.69493 0
M  V30 6735 H 663.218 0.492323 -3.88997 0
M  V30 6736 H 664.708 1.4824 -3.90403 0
M  V30 6737 N 665.145 1.52092 -0.413018 0
M  V30 6738 C 666.556 1.86617 0.0556967 0
M  V30 6739 C 666.907 1.33156 1.44097 0
M  V30 6740 O 666.032 0.672417 2.05688 0
M  V30 6741 C 666.627 3.38628 0.107844 0
M  V30 6742 C 665.186 3.72778 0.520904 0
M  V30 6743 C 664.333 2.75649 -0.302109 0
M  V30 6744 H 667.284 1.45663 -0.629919 0
M  V30 6745 H 667.305 3.69152 0.922324 0
M  V30 6746 H 666.817 3.77508 -0.900506 0
M  V30 6747 H 664.918 3.39478 1.53575 0
M  V30 6748 H 665.031 4.7838 0.262591 0
M  V30 6749 H 663.395 2.53603 0.236115 0
M  V30 6750 H 664.178 3.17369 -1.30888 0
M  V30 6751 N 666.623 0.143563 1.56945 0
M  V30 6752 C 667.848 -0.518701 2.00809 0
M  V30 6753 C 668.273 -1.5785 1.02298 0
M  V30 6754 O 667.631 -1.813 -0.0017839 0
M  V30 6755 C 667.679 -1.09929 3.43436 0
M  V30 6756 O 666.783 -2.21425 3.47915 0
M  V30 6757 H 666.124 -0.127215 0.6517 0
M  V30 6758 H 668.654 0.239283 2.03196 0
M  V30 6759 H 668.664 -1.4288 3.82164 0
M  V30 6760 H 667.339 -0.323162 4.14643 0
M  V30 6761 H 665.916 -1.89728 3.21026 0
M  V30 6762 N 668.101 -1.57061 -0.130224 0
M  V30 6763 C 669.326 -1.88802 -0.858409 0
M  V30 6764 C 669.751 -0.734353 -1.73173 0
M  V30 6765 O 669.109 0.315529 -1.78533 0
M  V30 6766 C 669.157 -3.19228 -1.67708 0
M  V30 6767 O 668.261 -3.04343 -2.78297 0
M  V30 6768 H 667.602 -0.619849 -0.238083 0
M  V30 6769 H 670.132 -2.04271 -0.115995 0
M  V30 6770 H 670.142 -3.51669 -2.06864 0
M  V30 6771 H 668.817 -4.02793 -1.0359 0
M  V30 6772 H 667.394 -2.83346 -2.42425 0
M  V30 6773 N 669.579 0.400081 -1.52437 0
M  V30 6774 C 670.827 1.14392 -1.6661 0
M  V30 6775 C 671.148 1.90792 -0.402927 0
M  V30 6776 O 670.418 1.87042 0.582425 0
M  V30 6777 H 668.998 0.425275 -0.614125 0
M  V30 6778 H 671.66 0.455076 -1.89513 0
M  V30 6779 H 670.756 1.85298 -2.51139 0
M  V30 6780 N 671.057 1.43213 0.657864 0
M  V30 6781 C 672.334 1.35063 1.41483 0
M  V30 6782 C 672.714 -0.0038314 2.111 0
M  V30 6783 O 672.062 -1.02018 2.04462 0
M  V30 6784 C 672.272 2.53061 2.40335 0
M  V30 6785 C 673.62 2.9594 3.04474 0
M  V30 6786 O 674.644 2.53074 2.50663 0
M  V30 6787 O 673.503 3.70184 4.02027 0
M  V30 6788 H 670.597 0.533517 0.631893 0
M  V30 6789 H 673.143 1.55253 0.685162 0
M  V30 6790 H 671.915 3.43283 1.87809 0
M  V30 6791 H 671.538 2.34945 3.20759 0
M  V30 6792 N 672.536 -0.895792 1.29666 0
M  V30 6793 C 673.499 -1.98189 1.15124 0
M  V30 6794 C 674.499 -1.60572 0.0855717 0
M  V30 6795 O 675.689 -1.70991 0.332826 0
M  V30 6796 C 672.821 -3.32289 0.761372 0
M  V30 6797 H 674.014 -2.12518 2.11603 0
M  V30 6798 H 671.567 -1.0808 1.12908 0
M  V30 6799 H 672.302 -3.23662 -0.203393 0
M  V30 6800 H 672.087 -3.60958 1.53139 0
M  V30 6801 H 673.577 -4.1198 0.682792 0
M  V30 6802 N 674.014 -1.12206 -1.10668 0
M  V30 6803 C 675.425 -0.890657 -1.64086 0
M  V30 6804 C 675.776 0.575502 -1.8757 0
M  V30 6805 O 674.901 1.4394 -1.61587 0
M  V30 6806 C 675.496 -1.61029 -2.98085 0
M  V30 6807 C 674.055 -1.4251 -3.48379 0
M  V30 6808 C 673.202 -1.64778 -2.23033 0
M  V30 6809 H 676.153 -1.27718 -0.94201 0
M  V30 6810 H 676.174 -1.05993 -3.65439 0
M  V30 6811 H 675.686 -2.67735 -2.80962 0
M  V30 6812 H 673.787 -0.380497 -3.70652 0
M  V30 6813 H 673.9 -2.17959 -4.26651 0
M  V30 6814 H 672.264 -1.07171 -2.31055 0
M  V30 6815 H 673.047 -2.72776 -2.08443 0
M  V30 6816 N 675.492 1.28418 -0.913599 0
M  V30 6817 C 676.903 1.77024 -0.593237 0
M  V30 6818 C 677.254 1.74779 0.891441 0
M  V30 6819 O 676.379 1.34237 1.69733 0
M  V30 6820 C 676.974 3.21456 -1.07011 0
M  V30 6821 C 675.533 3.67786 -0.800664 0
M  V30 6822 C 674.68 2.48185 -1.23691 0
M  V30 6823 H 677.631 1.14883 -1.09487 0
M  V30 6824 H 677.652 3.78269 -0.411481 0
M  V30 6825 H 677.164 3.23058 -2.1507 0
M  V30 6826 H 675.265 3.71644 0.266725 0
M  V30 6827 H 675.378 4.57934 -1.4083 0
M  V30 6828 H 673.742 2.46116 -0.655655 0
M  V30 6829 H 674.525 2.52506 -2.32585 0
M  V30 6830 N 676.97 0.677563 1.42291 0
M  V30 6831 C 678.218 0.200578 2.01102 0
M  V30 6832 C 678.539 -1.19803 1.53858 0
M  V30 6833 O 677.809 -1.80496 0.761439 0
M  V30 6834 H 676.389 0.0711634 0.743603 0
M  V30 6835 H 679.051 0.874691 1.7417 0
M  V30 6836 H 678.147 0.204 3.11433 0
M  V30 6837 N 678.448 -1.51871 0.421078 0
M  V30 6838 C 679.411 -2.25914 -0.386712 0
M  V30 6839 C 680.411 -1.28733 -0.963555 0
M  V30 6840 O 681.601 -1.52579 -0.840556 0
M  V30 6841 C 678.733 -3.03853 -1.54551 0
M  V30 6842 H 679.926 -2.98754 0.261978 0
M  V30 6843 H 677.479 -1.5533 0.173862 0
M  V30 6844 H 678.214 -2.35392 -2.23072 0
M  V30 6845 H 677.999 -3.75215 -1.13824 0
M  V30 6846 H 679.489 -3.59984 -2.11663 0
M  V30 6847 N 679.926 -0.151884 -1.56866 0
M  V30 6848 C 681.337 0.368128 -1.83035 0
M  V30 6849 C 681.688 1.64402 -1.07082 0
M  V30 6850 O 680.813 2.14056 -0.317647 0
M  V30 6851 C 681.408 0.674676 -3.32014 0
M  V30 6852 C 679.967 1.13919 -3.58747 0
M  V30 6853 C 679.114 0.164833 -2.7681 0
M  V30 6854 H 682.065 -0.376499 -1.54169 0
M  V30 6855 H 682.086 1.52883 -3.48435 0
M  V30 6856 H 681.598 -0.254113 -3.87267 0
M  V30 6857 H 679.699 2.08375 -3.08886 0
M  V30 6858 H 679.812 1.06179 -4.67186 0
M  V30 6859 H 678.176 0.658419 -2.46043 0
M  V30 6860 H 678.959 -0.757633 -3.34836 0
M  V30 6861 N 681.404 1.57128 0.121893 0
M  V30 6862 C 682.334 2.03165 1.15092 0
M  V30 6863 C 683.315 0.915587 1.43356 0
M  V30 6864 O 684.5 1.1851 1.53847 0
M  V30 6865 C 681.63 2.43352 2.47784 0
M  V30 6866 C 680.584 3.58376 2.33989 0
M  V30 6867 C 679.91 3.84454 3.71617 0
M  V30 6868 C 681.21 4.90199 1.80283 0
M  V30 6869 H 682.904 2.89382 0.768023 0
M  V30 6870 H 680.45 1.39218 0.367998 0
M  V30 6871 H 682.403 2.74163 3.20019 0
M  V30 6872 H 681.127 1.54103 2.87958 0
M  V30 6873 H 679.786 3.2777 1.64202 0
M  V30 6874 H 679.434 2.92414 4.09271 0
M  V30 6875 H 679.134 4.61877 3.6324 0
M  V30 6876 H 680.658 4.17714 4.45362 0
M  V30 6877 H 682.072 5.19565 2.42333 0
M  V30 6878 H 680.469 5.71601 1.82735 0
M  V30 6879 H 681.539 4.78904 0.760184 0
M  V30 6880 N 682.882 -0.391992 1.52647 0
M  V30 6881 C 683.845 -1.46135 1.7657 0
M  V30 6882 C 684.845 -1.47701 0.635698 0
M  V30 6883 O 686.035 -1.48924 0.903728 0
M  V30 6884 C 683.167 -2.85443 1.86374 0
M  V30 6885 H 684.36 -1.26208 2.72051 0
M  V30 6886 H 681.913 -0.623549 1.43323 0
M  V30 6887 H 682.648 -3.10718 0.928685 0
M  V30 6888 H 682.433 -2.85708 2.68539 0
M  V30 6889 H 683.923 -3.62933 2.06566 0
M  V30 6890 N 684.36 -1.4356 -0.65026 0
M  V30 6891 C 685.29 -1.51758 -1.77459 0
M  V30 6892 C 686.271 -0.372019 -1.65982 0
M  V30 6893 O 687.456 -0.589627 -1.85033 0
M  V30 6894 C 684.586 -1.44302 -3.15902 0
M  V30 6895 C 683.54 -2.57138 -3.42146 0
M  V30 6896 C 682.866 -2.34735 -4.8042 0
M  V30 6897 C 684.166 -3.99373 -3.36598 0
M  V30 6898 H 685.86 -2.45863 -1.70855 0
M  V30 6899 H 683.406 -1.18333 -0.820566 0
M  V30 6900 H 685.359 -1.48641 -3.94314 0
M  V30 6901 H 684.083 -0.467026 -3.23244 0
M  V30 6902 H 682.742 -2.52157 -2.66106 0
M  V30 6903 H 682.39 -1.35372 -4.84441 0
M  V30 6904 H 682.09 -3.10375 -4.9894 0
M  V30 6905 H 683.614 -2.40862 -5.61086 0
M  V30 6906 H 685.028 -4.05826 -4.04942 0
M  V30 6907 H 683.425 -4.75063 -3.66654 0
M  V30 6908 H 684.495 -4.243 -2.34729 0
M  V30 6909 N 685.838 0.888903 -1.30139 0
M  V30 6910 C 687.066 1.67358 -1.21651 0
M  V30 6911 C 687.481 1.87499 0.221246 0
M  V30 6912 O 686.838 1.41969 1.14677 0
M  V30 6913 C 686.889 3.05213 -1.93719 0
M  V30 6914 O 686.61 2.85984 -3.31881 0
M  V30 6915 C 688.111 3.9964 -1.9184 0
M  V30 6916 H 685.331 0.522365 -0.42116 0
M  V30 6917 H 687.875 1.11086 -1.71698 0
M  V30 6918 H 686.03 3.5823 -1.4748 0
M  V30 6919 H 686.444 3.73411 -3.68327 0
M  V30 6920 H 687.918 4.93749 -2.46811 0
M  V30 6921 H 688.395 4.29955 -0.896409 0
M  V30 6922 H 689.001 3.52558 -2.37872 0
M  V30 6923 N 687.317 1.12792 1.10072 0
M  V30 6924 C 688.28 0.802264 2.14701 0
M  V30 6925 C 689.28 -0.18515 1.59731 0
M  V30 6926 O 690.47 0.041109 1.74151 0
M  V30 6927 C 687.602 0.19285 3.40354 0
M  V30 6928 H 688.795 1.72932 2.45019 0
M  V30 6929 H 686.348 0.931662 1.25498 0
M  V30 6930 H 687.083 -0.743748 3.15656 0
M  V30 6931 H 686.868 0.903827 3.81541 0
M  V30 6932 H 688.358 -0.0183704 4.17596 0
M  V30 6933 N 688.795 -1.27931 0.920396 0
M  V30 6934 C 689.725 -2.29487 0.431024 0
M  V30 6935 C 690.706 -1.62435 -0.504861 0
M  V30 6936 O 691.891 -1.89797 -0.411176 0
M  V30 6937 C 689.021 -3.45788 -0.323709 0
M  V30 6938 C 687.975 -4.24784 0.523658 0
M  V30 6939 C 687.301 -5.33488 -0.359809 0
M  V30 6940 C 688.601 -4.90874 1.78437 0
M  V30 6941 H 690.295 -2.70671 1.27975 0
M  V30 6942 H 687.841 -1.30121 0.616813 0
M  V30 6943 H 689.794 -4.15927 -0.676952 0
M  V30 6944 H 688.518 -3.03502 -1.2064 0
M  V30 6945 H 687.177 -3.56382 0.85951 0
M  V30 6946 H 686.825 -4.87445 -1.24124 0
M  V30 6947 H 686.525 -5.87247 0.203605 0
M  V30 6948 H 688.049 -6.06472 -0.708787 0
M  V30 6949 H 689.463 -5.53339 1.49963 0
M  V30 6950 H 687.86 -5.54659 2.29071 0
M  V30 6951 H 688.93 -4.14988 2.50824 0
M  V30 6952 N 690.273 -0.685099 -1.4193 0
M  V30 6953 C 691.684 -0.287699 -1.8447 0
M  V30 6954 C 692.035 1.17215 -1.57338 0
M  V30 6955 O 691.16 1.89856 -1.03845 0
M  V30 6956 C 691.755 -0.515385 -3.34857 0
M  V30 6957 C 690.314 -0.172006 -3.76007 0
M  V30 6958 C 689.461 -0.802808 -2.65425 0
M  V30 6959 H 692.412 -0.88652 -1.3163 0
M  V30 6960 H 692.433 0.229251 -3.79809 0
M  V30 6961 H 691.945 -1.57796 -3.54573 0
M  V30 6962 H 690.046 0.886716 -3.61895 0
M  V30 6963 H 690.159 -0.619717 -4.75075 0
M  V30 6964 H 688.523 -0.233267 -2.5363 0
M  V30 6965 H 689.306 -1.86904 -2.87961 0
M  V30 6966 N 691.751 1.51645 -0.429126 0
M  V30 6967 C 693.028 1.94579 0.199614 0
M  V30 6968 C 693.408 1.3673 1.60836 0
M  V30 6969 O 692.756 0.551062 2.21756 0
M  V30 6970 C 692.966 3.48506 0.185685 0
M  V30 6971 C 694.314 4.22756 0.395282 0
M  V30 6972 O 695.338 3.55219 0.264165 0
M  V30 6973 O 694.197 5.42555 0.655475 0
M  V30 6974 H 691.291 0.816007 0.134393 0
M  V30 6975 H 693.837 1.62577 -0.486513 0
M  V30 6976 H 692.609 3.83045 -0.799508 0
M  V30 6977 H 692.232 3.86927 0.91507 0
M  V30 6978 N 693.229 0.160201 1.56784 0
M  V30 6979 C 694.64 -0.358417 1.83227 0
M  V30 6980 C 694.991 -1.63831 1.07952 0
M  V30 6981 O 694.116 -2.13885 0.328995 0
M  V30 6982 C 694.711 -0.657058 3.32368 0
M  V30 6983 C 693.27 -1.12015 3.59346 0
M  V30 6984 C 692.417 -0.15015 2.76893 0
M  V30 6985 H 695.368 0.384669 1.53967 0
M  V30 6986 H 695.389 -1.51033 3.49241 0
M  V30 6987 H 694.901 0.274647 3.87127 0
M  V30 6988 H 693.002 -2.06734 3.09987 0
M  V30 6989 H 693.115 -1.037 4.67743 0
M  V30 6990 H 691.479 -0.645361 2.46388 0
M  V30 6991 H 692.262 0.775379 3.34429 0
M  V30 6992 N 694.707 -1.5719 -0.113559 0
M  V30 6993 C 695.984 -1.76117 -0.850999 0
M  V30 6994 C 696.364 -0.737085 -1.97814 0
M  V30 6995 O 695.712 0.237942 -2.27258 0
M  V30 6996 C 695.922 -3.21298 -1.36266 0
M  V30 6997 C 697.27 -3.83955 -1.81283 0
M  V30 6998 O 698.294 -3.24934 -1.45933 0
M  V30 6999 O 697.153 -4.87707 -2.46585 0
M  V30 7000 H 694.247 -0.721308 -0.404529 0
M  V30 7001 H 696.793 -1.69423 -0.0968756 0
M  V30 7002 H 695.565 -3.87355 -0.554235 0
M  V30 7003 H 695.188 -3.32552 -2.17933 0
M  V30 7004 N 696.185 0.383891 -1.52853 0
M  V30 7005 C 697.596 0.961591 -1.60032 0
M  V30 7006 C 697.947 1.90819 -0.456333 0
M  V30 7007 O 697.072 2.12288 0.419873 0
M  V30 7008 C 697.667 1.75078 -2.90057 0
M  V30 7009 C 696.226 2.2781 -2.99632 0
M  V30 7010 C 695.373 1.08512 -2.55187 0
M  V30 7011 H 698.324 0.163269 -1.57858 0
M  V30 7012 H 698.345 2.61046 -2.7683 0
M  V30 7013 H 697.857 1.06157 -3.73299 0
M  V30 7014 H 695.958 3.00028 -2.20939 0
M  V30 7015 H 696.071 2.56947 -4.0437 0
M  V30 7016 H 694.435 1.44667 -2.09627 0
M  V30 7017 H 695.218 0.41118 -3.40829 0
M  V30 7018 N 697.663 1.43903 0.642637 0
M  V30 7019 C 698.573 1.52349 1.78401 0
M  V30 7020 C 699.589 0.409869 1.69104 0
M  V30 7021 O 700.765 0.665548 1.90085 0
M  V30 7022 C 697.83 1.45408 3.14734 0
M  V30 7023 C 696.891 2.67528 3.35749 0
M  V30 7024 C 696.124 2.60909 4.65577 0
M  V30 7025 O 696.347 1.6627 5.45628 0
M  V30 7026 O 695.281 3.5158 4.88544 0
M  V30 7027 H 699.107 2.48752 1.7423 0
M  V30 7028 H 696.692 1.26021 0.802439 0
M  V30 7029 H 698.574 1.44019 3.96026 0
M  V30 7030 H 697.249 0.521437 3.19473 0
M  V30 7031 H 696.156 2.74487 2.5418 0
M  V30 7032 H 697.489 3.598 3.35864 0
M  V30 7033 N 699.141 -0.881989 1.30609 0
M  V30 7034 C 700.552 -1.44956 1.17664 0
M  V30 7035 C 700.903 -1.94945 -0.221531 0
M  V30 7036 O 700.028 -1.85257 -1.11844 0
M  V30 7037 C 700.623 -2.63474 2.12995 0
M  V30 7038 C 699.182 -3.16312 2.04019 0
M  V30 7039 C 698.329 -1.89008 2.02907 0
M  V30 7040 H 701.28 -0.691645 1.42835 0
M  V30 7041 H 701.301 -3.39783 1.71253 0
M  V30 7042 H 700.813 -2.2706 3.14746 0
M  V30 7043 H 698.914 -3.57376 1.0542 0
M  V30 7044 H 699.027 -3.79409 2.9255 0
M  V30 7045 H 697.391 -2.07465 1.47751 0
M  V30 7046 H 698.174 -1.54848 3.06394 0
M  V30 7047 N 700.619 -1.13374 -1.09472 0
M  V30 7048 C 702.03 -0.90801 -1.63132 0
M  V30 7049 C 702.381 0.555576 -1.8817 0
M  V30 7050 O 701.506 1.42218 -1.63104 0
M  V30 7051 C 702.101 -1.64182 -2.96361 0
M  V30 7052 C 700.66 -1.46197 -3.46848 0
M  V30 7053 C 699.807 -1.67134 -2.21273 0
M  V30 7054 H 702.758 -1.2871 -0.928411 0
M  V30 7055 H 702.779 -1.09863 -3.64294 0
M  V30 7056 H 702.291 -2.707 -2.78106 0
M  V30 7057 H 700.392 -0.419788 -3.70228 0
M  V30 7058 H 700.505 -2.22472 -4.24315 0
M  V30 7059 H 698.869 -1.09616 -2.29905 0
M  V30 7060 H 699.652 -2.74971 -2.05538 0
M  V30 7061 N 702.098 1.27442 -0.927168 0
M  V30 7062 C 703.346 1.94007 -0.566203 0
M  V30 7063 C 703.667 1.7323 0.895345 0
M  V30 7064 O 702.937 1.07973 1.63459 0
M  V30 7065 H 701.517 0.717917 -0.206409 0
M  V30 7066 H 704.179 1.55161 -1.17945 0
M  V30 7067 H 703.275 3.02401 -0.772028 0
M  V30 7068 N 703.576 0.692616 1.41565 0
M  V30 7069 C 704.804 0.231279 2.05603 0
M  V30 7070 C 705.219 -1.11837 1.52111 0
M  V30 7071 O 704.576 -1.6983 0.66813 0
M  V30 7072 C 704.627 0.177125 3.61066 0
M  V30 7073 O 704.348 1.47346 4.12578 0
M  V30 7074 C 705.849 -0.30556 4.42246 0
M  V30 7075 H 703.069 0.108238 0.662213 0
M  V30 7076 H 705.613 0.944369 1.81389 0
M  V30 7077 H 703.768 -0.486769 3.8433 0
M  V30 7078 H 704.182 1.35861 5.06599 0
M  V30 7079 H 705.656 -0.29233 5.51225 0
M  V30 7080 H 706.133 -1.34393 4.18133 0
M  V30 7081 H 706.739 0.327229 4.24039 0
M  V30 7082 N 705.054 -1.51416 0.437162 0
M  V30 7083 C 706.465 -1.86682 -0.0260005 0
M  V30 7084 C 706.816 -1.35432 -1.4196 0
M  V30 7085 O 705.941 -0.705055 -2.04592 0
M  V30 7086 C 706.536 -3.38757 -0.0539577 0
M  V30 7087 C 705.095 -3.7356 -0.461532 0
M  V30 7088 C 704.242 -2.75134 0.345924 0
M  V30 7089 H 707.193 -1.44642 0.653013 0
M  V30 7090 H 707.214 -3.70573 -0.863478 0
M  V30 7091 H 706.726 -3.76028 0.96045 0
M  V30 7092 H 704.827 -3.41878 -1.48155 0
M  V30 7093 H 704.94 -4.78737 -0.186451 0
M  V30 7094 H 703.304 -2.53947 -0.195739 0
M  V30 7095 H 704.087 -3.15247 1.35921 0
M  V30 7096 N 706.532 -0.168513 -1.56696 0
M  V30 7097 C 707.442 0.775435 -2.21414 0
M  V30 7098 C 708.458 1.25529 -1.20492 0
M  V30 7099 O 709.634 1.30801 -1.53144 0
M  V30 7100 C 706.699 1.9886 -2.83999 0
M  V30 7101 C 705.76 1.5559 -4.00113 0
M  V30 7102 C 704.993 2.71124 -4.59704 0
M  V30 7103 O 705.216 3.87917 -4.18182 0
M  V30 7104 O 704.15 2.4536 -5.4962 0
M  V30 7105 H 707.976 0.254416 -3.02632 0
M  V30 7106 H 705.561 0.0595507 -1.49281 0
M  V30 7107 H 707.443 2.69816 -3.23693 0
M  V30 7108 H 706.118 2.49874 -2.05779 0
M  V30 7109 H 705.025 0.815924 -3.65094 0
M  V30 7110 H 706.358 1.09271 -4.79917 0
M  V30 7111 N 708.01 1.57248 0.105221 0
M  V30 7112 C 708.943 1.96567 1.15916 0
M  V30 7113 C 709.921 0.837355 1.39381 0
M  V30 7114 O 711.105 1.09676 1.53308 0
M  V30 7115 C 708.232 2.27375 2.51035 0
M  V30 7116 C 707.278 3.49869 2.43913 0
M  V30 7117 S 708.111 5.01958 1.86543 0
M  V30 7118 C 709.267 5.35932 3.23307 0
M  V30 7119 H 709.5 2.85655 0.823931 0
M  V30 7120 H 707.033 1.51204 0.312515 0
M  V30 7121 H 708.991 2.45801 3.28774 0
M  V30 7122 H 707.652 1.38876 2.81731 0
M  V30 7123 H 706.845 3.68835 3.43477 0
M  V30 7124 H 706.447 3.30901 1.743 0
M  V30 7125 H 708.739 5.31958 4.19556 0
M  V30 7126 H 709.682 6.37047 3.09155 0
M  V30 7127 H 710.09 4.63397 3.22372 0
M  V30 7128 N 709.488 -0.375779 1.53054 0
M  V30 7129 C 710.42 -1.47963 1.75042 0
M  V30 7130 C 711.433 -1.50073 0.631031 0
M  V30 7131 O 712.622 -1.53736 0.907052 0
M  V30 7132 C 709.722 -2.86767 1.80604 0
M  V30 7133 C 708.895 -3.08471 3.10104 0
M  V30 7134 C 707.954 -4.27332 3.07041 0
M  V30 7135 O 706.98 -4.22998 3.80869 0
M  V30 7136 N 708.182 -5.34214 2.27147 0
M  V30 7137 H 710.947 -1.29484 2.70285 0
M  V30 7138 H 708.508 -0.565416 1.51706 0
M  V30 7139 H 710.5 -3.64404 1.76045 0
M  V30 7140 H 709.07 -2.98542 0.926897 0
M  V30 7141 H 708.29 -2.18583 3.28048 0
M  V30 7142 H 709.578 -3.19834 3.95706 0
M  V30 7143 H 708.976 -5.40594 1.66656 0
M  V30 7144 H 707.533 -6.10467 2.28415 0
M  V30 7145 N 710.966 -1.44241 -0.634997 0
M  V30 7146 C 711.929 -1.50457 -1.72903 0
M  V30 7147 C 712.929 -0.387058 -1.56072 0
M  V30 7148 O 714.119 -0.649531 -1.61638 0
M  V30 7149 C 711.251 -1.37477 -3.1195 0
M  V30 7150 H 712.444 -2.47907 -1.68767 0
M  V30 7151 H 709.997 -1.31276 -0.84831 0
M  V30 7152 H 710.732 -0.41106 -3.21684 0
M  V30 7153 H 710.517 -2.18506 -3.25573 0
M  V30 7154 H 712.007 -1.44799 -3.91692 0
M  V30 7155 N 712.444 0.87505 -1.31075 0
M  V30 7156 C 713.855 1.4433 -1.18431 0
M  V30 7157 C 714.206 1.9506 0.211189 0
M  V30 7158 O 713.331 1.85847 1.10859 0
M  V30 7159 C 713.926 2.62341 -2.14389 0
M  V30 7160 C 712.485 3.15225 -2.05694 0
M  V30 7161 C 711.632 1.87929 -2.03907 0
M  V30 7162 H 714.583 0.684061 -1.432 0
M  V30 7163 H 714.604 3.3887 -1.73053 0
M  V30 7164 H 714.116 2.25388 -3.15946 0
M  V30 7165 H 712.217 3.56812 -1.07314 0
M  V30 7166 H 712.33 3.77853 -2.94558 0
M  V30 7167 H 710.694 2.06679 -1.48849 0
M  V30 7168 H 711.477 1.53221 -3.07211 0
M  V30 7169 N 713.922 1.13953 1.08869 0
M  V30 7170 C 715.168 0.906151 1.8143 0
M  V30 7171 C 715.501 -0.566089 1.85766 0
M  V30 7172 O 714.776 -1.41915 1.33006 0
M  V30 7173 C 715.059 1.50183 3.27287 0
M  V30 7174 C 714.912 3.04359 3.31189 0
M  V30 7175 C 716.231 1.17477 4.24131 0
M  V30 7176 H 713.35 0.330624 0.658678 0
M  V30 7177 H 715.992 1.40873 1.27495 0
M  V30 7178 H 714.142 1.07442 3.73348 0
M  V30 7179 H 715.814 3.55896 2.93488 0
M  V30 7180 H 714.057 3.39053 2.70602 0
M  V30 7181 H 714.728 3.41141 4.33966 0
M  V30 7182 H 717.204 1.5442 3.86385 0
M  V30 7183 H 716.08 1.61795 5.24513 0
M  V30 7184 H 716.341 0.0893312 4.4201 0
M  V30 7185 N 715.4 -1.26948 0.933913 0
M  V30 7186 C 716.363 -2.24889 0.442457 0
M  V30 7187 C 717.363 -1.54594 -0.442426 0
M  V30 7188 O 718.553 -1.72502 -0.242629 0
M  V30 7189 C 715.685 -3.3896 -0.363173 0
M  V30 7190 H 716.878 -2.69879 1.30787 0
M  V30 7191 H 714.431 -1.38978 0.715187 0
M  V30 7192 H 715.166 -2.99361 -1.24714 0
M  V30 7193 H 714.951 -3.9116 0.271366 0
M  V30 7194 H 716.441 -4.11739 -0.697186 0
M  V30 7195 N 716.879 -0.700114 -1.41195 0
M  V30 7196 C 718.104 -0.240704 -2.05998 0
M  V30 7197 C 718.529 1.10313 -1.52357 0
M  V30 7198 O 717.887 1.69154 -0.652424 0
M  V30 7199 C 717.935 -0.213783 -3.59966 0
M  V30 7200 O 717.039 0.809933 -4.04368 0
M  V30 7201 H 716.38 -0.116471 -0.653705 0
M  V30 7202 H 718.91 -0.956251 -1.80878 0
M  V30 7203 H 718.92 -0.0461852 -4.07974 0
M  V30 7204 H 717.595 -1.19454 -3.98376 0
M  V30 7205 H 716.172 0.611319 -3.67855 0
M  V30 7206 N 718.357 1.51182 -0.445186 0
M  V30 7207 C 719.773 1.59299 -0.0978954 0
M  V30 7208 C 719.973 1.4555 1.39346 0
M  V30 7209 O 719.029 1.30073 2.16419 0
M  V30 7210 C 720.342 2.94133 -0.625005 0
M  V30 7211 C 721.89 3.07463 -0.586137 0
M  V30 7212 C 722.365 4.44832 -1.09035 0
M  V30 7213 N 723.856 4.51173 -1.04867 0
M  V30 7214 C 724.591 5.55804 -1.40959 0
M  V30 7215 N 724.087 6.67816 -1.84375 0
M  V30 7216 N 725.88 5.46205 -1.32726 0
M  V30 7217 H 718.031 1.58363 -1.41544 0
M  V30 7218 H 720.294 0.746946 -0.58376 0
M  V30 7219 H 720 3.09589 -1.66876 0
M  V30 7220 H 719.874 3.77161 -0.0542262 0
M  V30 7221 H 722.261 2.9167 0.448646 0
M  V30 7222 H 722.342 2.26255 -1.19341 0
M  V30 7223 H 721.986 4.61372 -2.12364 0
M  V30 7224 H 721.916 5.24591 -0.459539 0
M  V30 7225 H 724.407 3.70783 -0.729932 0
M  V30 7226 H 724.72 7.43683 -2.10131 0
M  V30 7227 H 723.065 6.69003 -1.88308 0
M  V30 7228 H 726.256 4.57583 -0.986678 0
M  V30 7229 H 726.429 6.27634 -1.61182 0
M  V30 7230 N 719.835 0.176821 1.56605 0
M  V30 7231 C 721.251 -0.179278 1.5859 0
M  V30 7232 C 721.451 -1.62433 1.19238 0
M  V30 7233 O 720.507 -2.35665 0.906552 0
M  V30 7234 C 721.82 0.106524 3.00511 0
M  V30 7235 C 723.368 0.0451731 3.12967 0
M  V30 7236 C 723.843 0.304038 4.5699 0
M  V30 7237 N 725.334 0.252008 4.62514 0
M  V30 7238 C 726.069 0.426404 5.71812 0
M  V30 7239 N 725.565 0.660155 6.89648 0
M  V30 7240 N 727.358 0.361926 5.60934 0
M  V30 7241 H 719.509 1.12001 1.8047 0
M  V30 7242 H 721.772 0.445679 0.836704 0
M  V30 7243 H 721.478 1.10778 3.33798 0
M  V30 7244 H 721.352 -0.599337 3.72408 0
M  V30 7245 H 723.739 -0.946662 2.79504 0
M  V30 7246 H 723.82 0.78383 2.43495 0
M  V30 7247 H 723.464 1.29311 4.91163 0
M  V30 7248 H 723.394 -0.455294 5.24628 0
M  V30 7249 H 725.885 0.0772102 3.77821 0
M  V30 7250 H 726.198 0.782529 7.68828 0
M  V30 7251 H 724.543 0.696835 6.91498 0
M  V30 7252 H 727.734 0.17986 4.67754 0
M  V30 7253 H 727.907 0.501263 6.46058 0
M  V30 7254 N 721.313 -1.57302 -0.09688 0
M  V30 7255 C 722.26 -2.01933 -1.11766 0
M  V30 7256 C 723.23 -0.895329 -1.39904 0
M  V30 7257 O 724.415 -1.16119 -1.51397 0
M  V30 7258 C 721.555 -2.44726 -2.43317 0
M  V30 7259 C 720.668 -3.70639 -2.21925 0
M  V30 7260 C 719.803 -4.02318 -3.46862 0
M  V30 7261 C 718.842 -5.21346 -3.20725 0
M  V30 7262 N 717.979 -5.48787 -4.37924 0
M  V30 7263 H 722.819 -2.88919 -0.730075 0
M  V30 7264 H 720.356 -1.42901 -0.348962 0
M  V30 7265 H 722.314 -2.6758 -3.20088 0
M  V30 7266 H 720.944 -1.60753 -2.79926 0
M  V30 7267 H 719.996 -3.55271 -1.35965 0
M  V30 7268 H 721.308 -4.57557 -1.98603 0
M  V30 7269 H 720.462 -4.25939 -4.32042 0
M  V30 7270 H 719.201 -3.13918 -3.73238 0
M  V30 7271 H 718.206 -4.97547 -2.33938 0
M  V30 7272 H 719.431 -6.11343 -2.95697 0
M  V30 7273 H 717.377 -4.63346 -4.64378 0
M  V30 7274 H 717.294 -6.30073 -4.17785 0
M  V30 7275 H 718.562 -5.76943 -5.24173 0
M  V30 7276 N 722.791 0.367657 -1.53252 0
M  V30 7277 C 724.202 0.944563 -1.61043 0
M  V30 7278 C 724.553 1.90325 -0.476546 0
M  V30 7279 O 723.678 2.12721 0.397333 0
M  V30 7280 C 724.273 1.71992 -2.91898 0
M  V30 7281 C 722.832 2.2462 -3.02031 0
M  V30 7282 C 721.979 1.05799 -2.56324 0
M  V30 7283 H 724.93 0.146516 -1.58022 0
M  V30 7284 H 724.951 2.58095 -2.79584 0
M  V30 7285 H 724.463 1.02192 -3.74404 0
M  V30 7286 H 722.564 2.97668 -2.24108 0
M  V30 7287 H 722.677 2.52644 -4.07073 0
M  V30 7288 H 721.041 1.42435 -2.1115 0
M  V30 7289 H 721.824 0.375008 -3.41246 0
M  V30 7290 N 724.269 1.44576 0.627338 0
M  V30 7291 C 725.68 1.42266 1.20902 0
M  V30 7292 C 726.031 0.139964 1.957 0
M  V30 7293 O 725.156 -0.759489 2.02634 0
M  V30 7294 C 725.751 2.57727 2.19914 0
M  V30 7295 C 724.31 2.58599 2.73502 0
M  V30 7296 C 723.457 2.34145 1.48564 0
M  V30 7297 H 726.408 1.53102 0.417791 0
M  V30 7298 H 726.429 2.30697 3.02588 0
M  V30 7299 H 725.941 3.51068 1.65447 0
M  V30 7300 H 724.042 1.6921 3.31962 0
M  V30 7301 H 724.155 3.57205 3.19282 0
M  V30 7302 H 722.519 1.83313 1.76829 0
M  V30 7303 H 723.302 3.29606 0.959935 0
M  V30 7304 N 725.747 -0.868086 1.31537 0
M  V30 7305 C 726.972 -1.65926 1.24432 0
M  V30 7306 C 727.397 -1.87169 -0.186936 0
M  V30 7307 O 726.755 -1.4148 -1.13371 0
M  V30 7308 C 726.803 -3.00347 1.9956 0
M  V30 7309 O 725.907 -3.90221 1.33422 0
M  V30 7310 H 725.248 -0.506375 0.429512 0
M  V30 7311 H 727.778 -1.0822 1.73637 0
M  V30 7312 H 727.788 -3.50269 2.09226 0
M  V30 7313 H 726.463 -2.84205 3.03645 0
M  V30 7314 H 725.04 -3.48672 1.32219 0
M  V30 7315 N 727.225 -1.14528 -1.08264 0
M  V30 7316 C 728.188 -0.83632 -2.13397 0
M  V30 7317 C 729.188 0.159715 -1.60005 0
M  V30 7318 O 730.378 -0.0688098 -1.74064 0
M  V30 7319 C 727.51 -0.246973 -3.40004 0
M  V30 7320 H 728.703 -1.76808 -2.42237 0
M  V30 7321 H 726.256 -0.951509 -1.24 0
M  V30 7322 H 726.991 0.693436 -3.168 0
M  V30 7323 H 726.776 -0.964412 -3.80055 0
M  V30 7324 H 728.266 -0.0480679 -4.17572 0
M  V30 7325 N 728.703 1.26451 -0.940633 0
M  V30 7326 C 729.95 1.93778 -0.587909 0
M  V30 7327 C 730.278 1.73811 0.872935 0
M  V30 7328 O 729.533 1.06816 1.63978 0
M  V30 7329 C 729.832 3.46503 -0.875794 0
M  V30 7330 C 729.498 3.86609 -2.32043 0
M  V30 7331 C 728.16 3.97269 -2.71534 0
M  V30 7332 C 730.512 4.0672 -3.25927 0
M  V30 7333 C 727.84 4.25436 -4.04006 0
M  V30 7334 C 730.192 4.36375 -4.57995 0
M  V30 7335 C 728.856 4.45249 -4.97302 0
M  V30 7336 H 728.126 0.709084 -0.215131 0
M  V30 7337 H 730.773 1.50272 -1.18704 0
M  V30 7338 H 729.078 3.91319 -0.194124 0
M  V30 7339 H 730.775 3.96759 -0.581665 0
M  V30 7340 H 727.365 3.78858 -2.00411 0
M  V30 7341 H 731.549 3.97912 -2.96614 0
M  V30 7342 H 726.805 4.30519 -4.34124 0
M  V30 7343 H 730.979 4.50882 -5.30734 0
M  V30 7344 H 728.606 4.66829 -5.99979 0
M  V30 7345 N 730.181 0.707592 1.40822 0
M  V30 7346 C 731.597 0.38034 1.55002 0
M  V30 7347 C 731.797 -1.11163 1.68062 0
M  V30 7348 O 730.853 -1.89761 1.66574 0
M  V30 7349 C 732.166 1.1394 2.78277 0
M  V30 7350 C 733.714 1.12492 2.92087 0
M  V30 7351 C 734.189 1.86597 4.18265 0
M  V30 7352 N 735.68 1.83626 4.25248 0
M  V30 7353 C 736.415 2.37794 5.21768 0
M  V30 7354 N 735.911 3.00485 6.24244 0
M  V30 7355 N 737.704 2.27982 5.13791 0
M  V30 7356 H 729.855 1.67511 1.3059 0
M  V30 7357 H 732.118 0.707579 0.630901 0
M  V30 7358 H 731.824 2.19398 2.74877 0
M  V30 7359 H 731.698 0.725793 3.70151 0
M  V30 7360 H 734.085 0.0785564 2.94995 0
M  V30 7361 H 734.166 1.57768 2.01353 0
M  V30 7362 H 733.81 2.91219 4.16118 0
M  V30 7363 H 733.74 1.38746 5.07993 0
M  V30 7364 H 736.231 1.3793 3.51829 0
M  V30 7365 H 736.544 3.39355 6.94304 0
M  V30 7366 H 734.889 3.04567 6.24711 0
M  V30 7367 H 738.08 1.78669 4.3266 0
M  V30 7368 H 738.253 2.70499 5.88841 0
M  V30 7369 N 731.66 -1.50943 0.453197 0
M  V30 7370 C 732.57 -2.31884 -0.355963 0
M  V30 7371 C 733.586 -1.41481 -1.01287 0
M  V30 7372 O 734.762 -1.74546 -1.00477 0
M  V30 7373 C 731.827 -3.15668 -1.43369 0
M  V30 7374 C 730.888 -4.2187 -0.795253 0
M  V30 7375 C 730.121 -5.0165 -1.82162 0
M  V30 7376 O 730.344 -4.82266 -3.04592 0
M  V30 7377 O 729.278 -5.85311 -1.40336 0
M  V30 7378 H 733.104 -3.02162 0.305248 0
M  V30 7379 H 730.689 -1.47839 0.215398 0
M  V30 7380 H 732.571 -3.67709 -2.05836 0
M  V30 7381 H 731.246 -2.48137 -2.07869 0
M  V30 7382 H 730.153 -3.73867 -0.132106 0
M  V30 7383 H 731.486 -4.9182 -0.193484 0
M  V30 7384 N 733.138 -0.185124 -1.56509 0
M  V30 7385 C 734.384 0.450356 -1.98352 0
M  V30 7386 C 734.739 1.59923 -1.06969 0
M  V30 7387 O 734.032 1.91272 -0.112084 0
M  V30 7388 C 734.226 0.967977 -3.44042 0
M  V30 7389 C 734.055 -0.129208 -4.49514 0
M  V30 7390 C 732.825 -0.58351 -5.0192 0
M  V30 7391 C 735.023 -0.93459 -5.05737 0
M  V30 7392 N 733.005 -1.65956 -5.91043 0
M  V30 7393 C 734.376 -1.86026 -5.91434 0
M  V30 7394 C 736.431 -0.978125 -4.88198 0
M  V30 7395 C 735.134 -2.82582 -6.61468 0
M  V30 7396 C 737.16 -1.93169 -5.58963 0
M  V30 7397 C 736.522 -2.84481 -6.44399 0
M  V30 7398 H 732.621 0.132504 -0.770692 0
M  V30 7399 H 735.205 -0.288523 -1.9255 0
M  V30 7400 H 733.376 1.67633 -3.50362 0
M  V30 7401 H 735.108 1.57323 -3.72869 0
M  V30 7402 H 731.863 -0.178676 -4.73263 0
M  V30 7403 H 732.287 -2.19848 -6.40309 0
M  V30 7404 H 736.929 -0.286169 -4.2183 0
M  V30 7405 H 734.647 -3.52758 -7.2704 0
M  V30 7406 H 738.233 -1.97166 -5.47373 0
M  V30 7407 H 737.113 -3.57065 -6.98194 0
M  V30 7408 N 734.616 1.57351 0.0885366 0
M  V30 7409 C 736.032 1.53331 0.442916 0
M  V30 7410 C 736.232 0.902831 1.80142 0
M  V30 7411 O 735.288 0.498147 2.47537 0
M  V30 7412 C 736.601 2.98036 0.399372 0
M  V30 7413 C 738.149 3.09286 0.480759 0
M  V30 7414 C 738.624 4.5561 0.467296 0
M  V30 7415 N 740.115 4.60182 0.52786 0
M  V30 7416 C 740.85 5.70857 0.539388 0
M  V30 7417 N 740.346 6.90944 0.506729 0
M  V30 7418 N 742.139 5.59051 0.584691 0
M  V30 7419 H 734.29 1.96709 -0.801215 0
M  V30 7420 H 736.553 0.899639 -0.298922 0
M  V30 7421 H 736.259 3.47656 -0.531806 0
M  V30 7422 H 736.133 3.57066 1.21589 0
M  V30 7423 H 738.52 2.5965 1.40236 0
M  V30 7424 H 738.601 2.53197 -0.364023 0
M  V30 7425 H 738.245 5.05899 -0.450384 0
M  V30 7426 H 738.175 5.09544 1.32938 0
M  V30 7427 H 740.666 3.73757 0.558028 0
M  V30 7428 H 740.979 7.71055 0.518989 0
M  V30 7429 H 739.324 6.93384 0.473675 0
M  V30 7430 H 742.515 4.64138 0.607781 0
M  V30 7431 H 742.688 6.45307 0.590206 0
M  V30 7432 N 736.094 -0.359525 1.53444 0
M  V30 7433 C 737.024 -1.44662 1.8329 0
M  V30 7434 C 738.005 -1.55617 0.68683 0
M  V30 7435 O 739.19 -1.70086 0.93725 0
M  V30 7436 C 736.32 -2.81923 2.02822 0
M  V30 7437 C 735.274 -2.85787 3.18606 0
M  V30 7438 C 734.6 -4.25781 3.23442 0
M  V30 7439 C 735.9 -2.52762 4.57065 0
M  V30 7440 H 737.594 -1.19934 2.74329 0
M  V30 7441 H 735.14 -0.575517 1.31999 0
M  V30 7442 H 737.093 -3.58005 2.22285 0
M  V30 7443 H 735.817 -3.08051 1.085 0
M  V30 7444 H 734.476 -2.12157 2.98973 0
M  V30 7445 H 734.124 -4.48994 2.26745 0
M  V30 7446 H 733.824 -4.29281 4.01238 0
M  V30 7447 H 735.348 -5.03727 3.45096 0
M  V30 7448 H 736.762 -3.18557 4.76649 0
M  V30 7449 H 735.159 -2.67569 5.37147 0
M  V30 7450 H 736.229 -1.47993 4.61764 0
M  V30 7451 N 737.572 -1.44907 -0.619662 0
M  V30 7452 C 738.502 -1.55488 -1.742 0
M  V30 7453 C 739.483 -0.407143 -1.65156 0
M  V30 7454 O 740.668 -0.628743 -1.8374 0
M  V30 7455 C 737.798 -1.5097 -3.1277 0
M  V30 7456 C 736.752 -2.64337 -3.36615 0
M  V30 7457 C 736.078 -2.44872 -4.75333 0
M  V30 7458 C 737.378 -4.06423 -3.28051 0
M  V30 7459 H 739.072 -2.49432 -1.65602 0
M  V30 7460 H 736.618 -1.20047 -0.795281 0
M  V30 7461 H 738.571 -1.56971 -3.91073 0
M  V30 7462 H 737.295 -0.535486 -3.2218 0
M  V30 7463 H 735.954 -2.57744 -2.60698 0
M  V30 7464 H 735.602 -1.45617 -4.81461 0
M  V30 7465 H 735.302 -3.20888 -4.92244 0
M  V30 7466 H 736.826 -2.52709 -5.55851 0
M  V30 7467 H 738.24 -4.14324 -3.96243 0
M  V30 7468 H 736.637 -4.82733 -3.56495 0
M  V30 7469 H 737.707 -4.29183 -2.25676 0
M  V30 7470 N 739.05 0.861098 -1.31996 0
M  V30 7471 C 740.298 1.61162 -1.21947 0
M  V30 7472 C 740.619 1.93751 0.220351 0
M  V30 7473 O 739.889 1.59069 1.14341 0
M  V30 7474 H 738.469 0.597485 -0.448353 0
M  V30 7475 H 741.131 1.03039 -1.65436 0
M  V30 7476 H 740.227 2.55138 -1.79752 0
M  V30 7477 N 740.528 1.15101 1.07655 0
M  V30 7478 C 741.939 0.933848 1.61667 0
M  V30 7479 C 742.29 -0.525569 1.8903 0
M  V30 7480 O 741.415 -1.39605 1.65346 0
M  V30 7481 C 742.01 1.68876 2.93711 0
M  V30 7482 C 740.569 1.51697 3.44478 0
M  V30 7483 C 739.716 1.70633 2.18586 0
M  V30 7484 H 742.667 1.30171 0.907816 0
M  V30 7485 H 742.688 1.15645 3.625 0
M  V30 7486 H 742.2 2.7509 2.73764 0
M  V30 7487 H 740.301 0.478635 3.69513 0
M  V30 7488 H 740.414 2.29194 4.20722 0
M  V30 7489 H 738.778 1.13259 2.28132 0
M  V30 7490 H 739.561 2.78206 2.01137 0
M  V30 7491 N 742.006 -1.2595 0.947325 0
M  V30 7492 C 743.253 -1.93463 0.598178 0
M  V30 7493 C 743.581 -1.74271 -0.863705 0
M  V30 7494 O 742.836 -1.07684 -1.63409 0
M  V30 7495 C 743.135 -3.46034 0.894158 0
M  V30 7496 C 742.801 -3.85373 2.3409 0
M  V30 7497 C 741.463 -3.95823 2.73637 0
M  V30 7498 C 743.815 -4.04986 3.2808 0
M  V30 7499 C 741.143 -4.23288 4.06257 0
M  V30 7500 C 743.495 -4.3394 4.60303 0
M  V30 7501 C 742.159 -4.42606 4.99656 0
M  V30 7502 H 741.429 -0.707933 0.218889 0
M  V30 7503 H 744.076 -1.4964 1.19499 0
M  V30 7504 H 742.381 -3.9121 0.214874 0
M  V30 7505 H 744.078 -3.96445 0.602698 0
M  V30 7506 H 740.668 -3.7779 2.02417 0
M  V30 7507 H 744.852 -3.96333 2.9872 0
M  V30 7508 H 740.108 -4.28211 4.36401 0
M  V30 7509 H 744.282 -4.48061 5.33118 0
M  V30 7510 H 741.909 -4.63641 6.02446 0
M  V30 7511 N 743.484 -0.715051 -1.40445 0
M  V30 7512 C 744.9 -0.388555 -1.54798 0
M  V30 7513 C 745.1 1.10271 -1.68649 0
M  V30 7514 O 744.156 1.88875 -1.67578 0
M  V30 7515 C 745.469 -1.15414 -2.77669 0
M  V30 7516 C 747.017 -1.14039 -2.91486 0
M  V30 7517 C 747.492 -1.88812 -4.1727 0
M  V30 7518 N 748.983 -1.85878 -4.24268 0
M  V30 7519 C 749.718 -2.40558 -5.20499 0
M  V30 7520 N 749.214 -3.03791 -6.22642 0
M  V30 7521 N 751.007 -2.30703 -5.12574 0
M  V30 7522 H 743.158 -1.68201 -1.297 0
M  V30 7523 H 745.421 -0.710915 -0.627139 0
M  V30 7524 H 745.127 -2.20853 -2.7371 0
M  V30 7525 H 745.001 -0.745412 -3.69761 0
M  V30 7526 H 747.388 -0.0941996 -2.9495 0
M  V30 7527 H 747.469 -1.58834 -2.00513 0
M  V30 7528 H 747.113 -2.93422 -4.14568 0
M  V30 7529 H 747.043 -1.41438 -5.0725 0
M  V30 7530 H 749.534 -1.39794 -3.51093 0
M  V30 7531 H 749.847 -3.43032 -6.92495 0
M  V30 7532 H 748.192 -3.07875 -6.23087 0
M  V30 7533 H 751.383 -1.80961 -4.31707 0
M  V30 7534 H 751.556 -2.73618 -5.87398 0
M  V30 7535 N 744.962 1.50701 -0.461195 0
M  V30 7536 C 746.378 1.59187 -0.114786 0
M  V30 7537 C 746.578 1.4702 1.37794 0
M  V30 7538 O 745.634 1.32361 2.15027 0
M  V30 7539 C 746.947 2.93453 -0.656167 0
M  V30 7540 C 748.495 3.06824 -0.618715 0
M  V30 7541 C 748.97 4.4365 -1.13747 0
M  V30 7542 N 750.461 4.50035 -1.09646 0
M  V30 7543 C 751.196 5.54278 -1.46846 0
M  V30 7544 N 750.692 6.65822 -1.91448 0
M  V30 7545 N 752.485 5.44767 -1.38512 0
M  V30 7546 H 744.636 1.56853 -1.43216 0
M  V30 7547 H 746.899 0.740712 -0.59165 0
M  V30 7548 H 746.605 3.07802 -1.7015 0
M  V30 7549 H 746.479 3.77082 -0.0942261 0
M  V30 7550 H 748.866 2.92129 0.417685 0
M  V30 7551 H 748.947 2.24976 -1.21734 0
M  V30 7552 H 748.591 4.59093 -2.17245 0
M  V30 7553 H 748.521 5.24074 -0.515153 0
M  V30 7554 H 751.012 3.69988 -0.769217 0
M  V30 7555 H 751.325 7.41413 -2.18007 0
M  V30 7556 H 749.67 6.66968 -1.95393 0
M  V30 7557 H 752.861 4.56511 -1.03516 0
M  V30 7558 H 753.034 6.25889 -1.6783 0
M  V30 7559 N 746.441 0.193421 1.56409 0
M  V30 7560 C 747.852 -0.319471 1.83946 0
M  V30 7561 C 748.203 -1.61505 1.11403 0
M  V30 7562 O 747.328 -2.13139 0.374289 0
M  V30 7563 C 747.923 -0.586411 3.33686 0
M  V30 7564 C 746.482 -1.04368 3.61641 0
M  V30 7565 C 745.629 -0.0913834 2.77149 0
M  V30 7566 H 748.58 0.417242 1.53117 0
M  V30 7567 H 748.601 -1.43591 3.52366 0
M  V30 7568 H 748.113 0.356701 3.86457 0
M  V30 7569 H 746.214 -2.00113 3.14302 0
M  V30 7570 H 746.327 -0.937549 4.69837 0
M  V30 7571 H 744.691 -0.592954 2.47702 0
M  V30 7572 H 745.474 0.846142 3.32709 0
M  V30 7573 N 747.919 -1.57396 -0.0801906 0
M  V30 7574 C 749.147 -1.91055 -0.794075 0
M  V30 7575 C 749.562 -0.788583 -1.71542 0
M  V30 7576 O 748.919 0.238587 -1.80934 0
M  V30 7577 C 748.97 -3.24418 -1.59484 0
M  V30 7578 O 748.691 -4.323 -0.710532 0
M  V30 7579 C 750.192 -3.72037 -2.41046 0
M  V30 7580 H 747.412 -0.63171 -0.226238 0
M  V30 7581 H 749.956 -2.04431 -0.0529685 0
M  V30 7582 H 748.111 -3.12595 -2.2883 0
M  V30 7583 H 748.525 -5.08976 -1.26663 0
M  V30 7584 H 749.999 -4.68006 -2.92702 0
M  V30 7585 H 750.476 -3.00624 -3.2019 0
M  V30 7586 H 751.082 -3.86777 -1.76871 0
M  V30 7587 N 749.397 0.351382 -1.53633 0
M  V30 7588 C 750.625 1.11275 -1.74429 0
M  V30 7589 C 751.04 1.82602 -0.479798 0
M  V30 7590 O 750.397 1.74074 0.548125 0
M  V30 7591 C 750.448 2.13223 -2.91921 0
M  V30 7592 O 750.169 1.44798 -4.13479 0
M  V30 7593 C 751.67 3.01797 -3.24706 0
M  V30 7594 H 748.89 0.332153 -0.583023 0
M  V30 7595 H 751.434 0.405974 -2.0043 0
M  V30 7596 H 749.589 2.79477 -2.68274 0
M  V30 7597 H 750.003 2.12839 -4.79374 0
M  V30 7598 H 751.477 3.69282 -4.10286 0
M  V30 7599 H 751.954 3.67387 -2.40673 0
M  V30 7600 H 752.56 2.41141 -3.5033 0
M  V30 7601 N 750.875 1.45233 0.611969 0
M  V30 7602 C 751.807 1.49575 1.73666 0
M  V30 7603 C 752.82 0.386987 1.58134 0
M  V30 7604 O 754.009 0.653804 1.66095 0
M  V30 7605 C 751.109 1.33223 3.11617 0
M  V30 7606 C 750.282 2.57694 3.5343 0
M  V30 7607 C 749.341 2.35962 4.70328 0
M  V30 7608 O 748.367 3.09553 4.77667 0
M  V30 7609 N 749.569 1.40243 5.63305 0
M  V30 7610 H 752.334 2.46539 1.70407 0
M  V30 7611 H 749.895 1.40917 0.79712 0
M  V30 7612 H 751.887 1.16502 3.87569 0
M  V30 7613 H 750.457 0.44551 3.09409 0
M  V30 7614 H 749.677 2.8956 2.67486 0
M  V30 7615 H 750.965 3.40441 3.78124 0
M  V30 7616 H 750.363 0.795023 5.60086 0
M  V30 7617 H 748.92 1.29496 6.38807 0
M  V30 7618 N 752.353 -0.854086 1.3245 0
M  V30 7619 C 753.283 -1.97827 1.24044 0
M  V30 7620 C 754.264 -1.69646 0.124166 0
M  V30 7621 O 755.449 -1.91687 0.31143 0
M  V30 7622 C 752.579 -3.33673 0.963324 0
M  V30 7623 C 751.533 -3.76207 2.04089 0
M  V30 7624 C 750.859 -5.0969 1.61618 0
M  V30 7625 C 752.159 -3.91612 3.45597 0
M  V30 7626 H 753.853 -2.05118 2.18099 0
M  V30 7627 H 751.399 -0.985489 1.04996 0
M  V30 7628 H 753.352 -4.11871 0.891061 0
M  V30 7629 H 752.076 -3.26597 -0.0128649 0
M  V30 7630 H 750.735 -3.0026 2.10332 0
M  V30 7631 H 750.383 -4.99072 0.627418 0
M  V30 7632 H 750.083 -5.3912 2.33717 0
M  V30 7633 H 751.607 -5.90381 1.55829 0
M  V30 7634 H 753.021 -4.60163 3.4194 0
M  V30 7635 H 751.418 -4.3246 4.16051 0
M  V30 7636 H 752.488 -2.9451 3.85217 0
M  V30 7637 N 753.831 -1.1567 -1.07043 0
M  V30 7638 C 755.247 -0.900006 -1.31803 0
M  V30 7639 C 755.447 0.451293 -1.96381 0
M  V30 7640 O 754.503 1.19252 -2.22565 0
M  V30 7641 C 755.816 -2.04334 -2.20609 0
M  V30 7642 C 757.364 -2.07823 -2.34048 0
M  V30 7643 C 757.839 -3.21488 -3.26204 0
M  V30 7644 N 759.33 -3.21156 -3.33786 0
M  V30 7645 C 760.065 -4.05746 -4.05163 0
M  V30 7646 N 759.561 -5.00407 -4.79129 0
M  V30 7647 N 761.354 -3.93759 -4.01136 0
M  V30 7648 H 753.505 -2.02681 -0.635146 0
M  V30 7649 H 755.768 -0.883956 -0.342528 0
M  V30 7650 H 755.474 -3.01895 -1.80423 0
M  V30 7651 H 755.348 -1.97838 -3.21154 0
M  V30 7652 H 757.735 -1.1086 -2.73485 0
M  V30 7653 H 757.816 -2.18386 -1.33197 0
M  V30 7654 H 757.46 -4.18706 -2.87485 0
M  V30 7655 H 757.39 -3.08162 -4.27017 0
M  V30 7656 H 759.881 -2.52606 -2.81067 0
M  V30 7657 H 760.194 -5.61387 -5.31097 0
M  V30 7658 H 758.539 -5.04393 -4.78135 0
M  V30 7659 H 761.73 -3.19115 -3.42466 0
M  V30 7660 H 761.903 -4.59906 -4.56498 0
M  V30 7661 N 755.309 1.25446 -0.953992 0
M  V30 7662 C 756.272 2.24156 -0.478179 0
M  V30 7663 C 757.272 1.55278 0.417776 0
M  V30 7664 O 758.462 1.72866 0.215155 0
M  V30 7665 C 755.594 3.39495 0.309202 0
M  V30 7666 H 756.787 2.67764 -1.35064 0
M  V30 7667 H 754.34 1.37822 -0.737206 0
M  V30 7668 H 755.075 3.01307 1.19936 0
M  V30 7669 H 754.86 3.90679 -0.333562 0
M  V30 7670 H 756.35 4.12796 0.631594 0
M  V30 7671 N 756.787 0.722489 1.40064 0
M  V30 7672 C 757.734 0.0743738 2.3068 0
M  V30 7673 C 758.704 -0.743004 1.48555 0
M  V30 7674 O 759.889 -0.705536 1.77276 0
M  V30 7675 C 757.029 -0.836292 3.34814 0
M  V30 7676 C 756.142 -0.00764663 4.31999 0
M  V30 7677 C 755.277 -0.918428 5.232 0
M  V30 7678 C 754.316 -0.0842838 6.12042 0
M  V30 7679 N 753.453 -0.950316 6.95639 0
M  V30 7680 H 758.293 0.852794 2.85537 0
M  V30 7681 H 755.83 0.432222 1.40607 0
M  V30 7682 H 757.788 -1.3786 3.93765 0
M  V30 7683 H 756.418 -1.58082 2.81443 0
M  V30 7684 H 755.47 0.651928 3.74772 0
M  V30 7685 H 756.782 0.63786 4.94705 0
M  V30 7686 H 755.936 -1.52902 5.87116 0
M  V30 7687 H 754.675 -1.59774 4.60786 0
M  V30 7688 H 753.68 0.5392 5.4715 0
M  V30 7689 H 754.905 0.591628 6.76518 0
M  V30 7690 H 752.851 -1.61515 6.35806 0
M  V30 7691 H 752.768 -0.361004 7.55138 0
M  V30 7692 H 754.036 -1.54687 7.63997 0
M  V30 7693 N 758.265 -1.50454 0.469181 0
M  V30 7694 C 759.511 -2.02615 -0.0865971 0
M  V30 7695 C 759.844 -1.35062 -1.39542 0
M  V30 7696 O 759.119 -0.475701 -1.88593 0
M  V30 7697 C 759.402 -3.59068 -0.272385 0
M  V30 7698 C 759.255 -4.37196 1.05733 0
M  V30 7699 C 760.574 -4.2793 -1.0278 0
M  V30 7700 H 757.693 -0.736389 -0.0299977 0
M  V30 7701 H 760.335 -1.79792 0.614399 0
M  V30 7702 H 758.485 -3.78646 -0.869471 0
M  V30 7703 H 760.157 -4.29195 1.69084 0
M  V30 7704 H 758.4 -4.01013 1.65442 0
M  V30 7705 H 759.071 -5.44924 0.880997 0
M  V30 7706 H 761.547 -4.12816 -0.521718 0
M  V30 7707 H 760.423 -5.37214 -1.12659 0
M  V30 7708 H 760.684 -3.90968 -2.0639 0
M  V30 7709 N 759.743 -0.201713 -1.56304 0
M  V30 7710 C 760.968 0.443815 -2.02596 0
M  V30 7711 C 761.393 1.53945 -1.08086 0
M  V30 7712 O 760.751 1.81182 -0.0655056 0
M  V30 7713 C 760.799 0.971066 -3.47279 0
M  V30 7714 O 759.903 2.0836 -3.55893 0
M  V30 7715 H 759.244 0.10294 -0.655972 0
M  V30 7716 H 761.774 -0.314533 -2.02168 0
M  V30 7717 H 761.784 1.28598 -3.87204 0
M  V30 7718 H 760.459 0.169048 -4.15556 0
M  V30 7719 H 759.036 1.77683 -3.27846 0
M  V30 7720 N 761.222 1.57436 0.0718424 0
M  V30 7721 C 762.447 1.91858 0.787745 0
M  V30 7722 C 762.872 0.798119 1.70328 0
M  V30 7723 O 762.23 -0.24905 1.79581 0
M  V30 7724 C 762.278 3.25232 1.55744 0
M  V30 7725 O 761.382 3.14462 2.6681 0
M  V30 7726 H 760.723 0.628258 0.214914 0
M  V30 7727 H 763.253 2.04561 0.0401012 0
M  V30 7728 H 763.263 3.59105 1.9367 0
M  V30 7729 H 761.938 4.0636 0.885691 0
M  V30 7730 H 760.515 2.92148 2.31741 0
M  V30 7731 N 762.7 -0.34323 1.53817 0
M  V30 7732 C 763.63 -1.42709 1.84814 0
M  V30 7733 C 764.611 -1.5488 0.703297 0
M  V30 7734 O 765.796 -1.69082 0.955237 0
M  V30 7735 C 762.926 -2.79756 2.05801 0
M  V30 7736 C 761.88 -2.82392 3.21619 0
M  V30 7737 C 761.206 -4.22326 3.2794 0
M  V30 7738 C 762.506 -2.479 4.59721 0
M  V30 7739 H 764.2 -1.17018 2.75585 0
M  V30 7740 H 761.746 -0.561485 1.32602 0
M  V30 7741 H 763.699 -3.55627 2.26069 0
M  V30 7742 H 762.423 -3.06883 1.11761 0
M  V30 7743 H 761.082 -2.08974 3.01207 0
M  V30 7744 H 760.73 -4.46564 2.31494 0
M  V30 7745 H 760.43 -4.25001 4.05768 0
M  V30 7746 H 761.954 -5.00039 3.50419 0
M  V30 7747 H 763.368 -3.13484 4.80001 0
M  V30 7748 H 761.765 -2.61857 5.39954 0
M  V30 7749 H 762.835 -1.43087 4.63308 0
M  V30 7750 N 764.178 -1.45556 -0.604258 0
M  V30 7751 C 765.403 -1.53509 -1.39462 0
M  V30 7752 C 765.828 -0.169638 -1.87333 0
M  V30 7753 O 765.186 0.846346 -1.60333 0
M  V30 7754 C 765.234 -2.52654 -2.5729 0
M  V30 7755 O 764.338 -2.04666 -3.5803 0
M  V30 7756 H 763.679 -0.517355 -0.416221 0
M  V30 7757 H 766.209 -1.90939 -0.735072 0
M  V30 7758 H 766.219 -2.71568 -3.04491 0
M  V30 7759 H 764.894 -3.51823 -2.21797 0
M  V30 7760 H 763.471 -1.95643 -3.17456 0
M  V30 7761 N 765.656 0.84705 -1.32902 0
M  V30 7762 C 766.606 1.94451 -1.19049 0
M  V30 7763 C 767.59 1.60617 -0.095461 0
M  V30 7764 O 768.782 1.74033 -0.322739 0
M  V30 7765 C 765.911 3.30645 -0.923509 0
M  V30 7766 C 764.997 3.70675 -2.0606 0
M  V30 7767 N 765.388 3.82468 -3.30986 0
M  V30 7768 C 763.686 4.00357 -1.96547 0
M  V30 7769 C 764.387 4.17056 -4.05511 0
M  V30 7770 N 763.363 4.28985 -3.33876 0
M  V30 7771 H 767.165 2.01713 -2.1375 0
M  V30 7772 H 764.679 1.03928 -1.24791 0
M  V30 7773 H 766.676 4.0905 -0.805212 0
M  V30 7774 H 765.336 3.24697 0.0150523 0
M  V30 7775 H 766.347 3.66589 -3.65832 0
M  V30 7776 H 763.024 4.02666 -1.10299 0
M  V30 7777 H 764.414 4.33585 -5.13277 0
M  V30 7778 N 767.134 1.16236 1.06428 0
M  V30 7779 C 768.081 0.86769 2.13869 0
M  V30 7780 C 769.051 -0.183298 1.65086 0
M  V30 7781 O 770.236 -0.0488002 1.90738 0
M  V30 7782 C 767.376 0.373427 3.43074 0
M  V30 7783 C 766.489 1.48708 4.05598 0
M  V30 7784 C 765.624 0.947977 5.22673 0
M  V30 7785 C 764.663 2.03793 5.77178 0
M  V30 7786 N 763.8 1.51451 6.85571 0
M  V30 7787 H 768.64 1.78781 2.38414 0
M  V30 7788 H 766.177 0.891892 1.16977 0
M  V30 7789 H 768.135 0.0685035 4.17144 0
M  V30 7790 H 766.765 -0.509752 3.1875 0
M  V30 7791 H 765.817 1.908 3.29089 0
M  V30 7792 H 767.129 2.30964 4.42105 0
M  V30 7793 H 766.283 0.596154 6.03764 0
M  V30 7794 H 765.022 0.0947081 4.87608 0
M  V30 7795 H 764.027 2.39847 4.94726 0
M  V30 7796 H 765.252 2.89514 6.14295 0
M  V30 7797 H 763.198 0.683755 6.52427 0
M  V30 7798 H 763.115 2.27325 7.21013 0
M  V30 7799 H 764.383 1.19123 7.70344 0
M  V30 7800 N 768.612 -1.24939 0.960631 0
M  V30 7801 C 769.861 -1.92118 0.614298 0
M  V30 7802 C 770.174 -1.75998 -0.853474 0
M  V30 7803 O 771.38 -2.37804 -1.31003 0
M  V30 7804 C 769.836 -3.44303 1.04801 0
M  V30 7805 C 769.444 -3.69123 2.53875 0
M  V30 7806 C 771.188 -4.17375 0.774497 0
M  V30 7807 C 769.095 -5.14843 2.91016 0
M  V30 7808 H 768.025 -0.719319 0.226045 0
M  V30 7809 H 770.676 -1.41701 1.16589 0
M  V30 7810 H 769.058 -3.93715 0.42479 0
M  V30 7811 H 770.232 -3.30339 3.21267 0
M  V30 7812 H 768.547 -3.09323 2.78762 0
M  V30 7813 H 771.144 -5.24723 1.02808 0
M  V30 7814 H 771.487 -4.15294 -0.289192 0
M  V30 7815 H 772.02 -3.7389 1.35835 0
M  V30 7816 H 768.759 -5.2204 3.96427 0
M  V30 7817 H 768.279 -5.54652 2.28302 0
M  V30 7818 H 769.958 -5.83017 2.80535 0
M  V30 7819 N 770.09 -0.729906 -1.39679 0
M  V30 7820 C 771.506 -0.404951 -1.54377 0
M  V30 7821 C 771.706 1.08476 -1.6981 0
M  V30 7822 O 770.762 1.87087 -1.69572 0
M  V30 7823 C 772.075 -1.18352 -2.76429 0
M  V30 7824 C 773.623 -1.17124 -2.9026 0
M  V30 7825 C 774.098 -1.93227 -4.15244 0
M  V30 7826 N 775.589 -1.90368 -4.22273 0
M  V30 7827 C 776.324 -2.46065 -5.17918 0
M  V30 7828 N 775.82 -3.10378 -6.19385 0
M  V30 7829 N 777.613 -2.36127 -5.10099 0
M  V30 7830 H 769.764 -1.69567 -1.27909 0
M  V30 7831 H 772.027 -0.717527 -0.619564 0
M  V30 7832 H 771.733 -2.23743 -2.71352 0
M  V30 7833 H 771.607 -0.784589 -3.6895 0
M  V30 7834 H 773.994 -0.125478 -2.94833 0
M  V30 7835 H 774.075 -1.60951 -1.98817 0
M  V30 7836 H 773.719 -2.97802 -4.11432 0
M  V30 7837 H 773.649 -1.4681 -5.05722 0
M  V30 7838 H 776.14 -1.4351 -3.4959 0
M  V30 7839 H 776.453 -3.50358 -6.88817 0
M  V30 7840 H 774.798 -3.14467 -6.19787 0
M  V30 7841 H 777.989 -1.85529 -4.29763 0
M  V30 7842 H 778.162 -2.79833 -5.84463 0
M  V30 7843 N 771.568 1.50203 -0.477153 0
M  V30 7844 C 772.531 2.27194 0.302599 0
M  V30 7845 C 773.531 1.32221 0.915112 0
M  V30 7846 O 774.721 1.55593 0.783348 0
M  V30 7847 C 771.853 3.0938 1.43167 0
M  V30 7848 H 773.046 2.97575 -0.372678 0
M  V30 7849 H 770.599 1.54578 -0.231392 0
M  V30 7850 H 771.334 2.43509 2.14182 0
M  V30 7851 H 771.119 3.79181 0.998197 0
M  V30 7852 H 772.609 3.67592 1.98157 0
M  V30 7853 N 773.046 0.209999 1.56195 0
M  V30 7854 C 774.294 -0.423974 1.97603 0
M  V30 7855 C 774.615 -1.61112 1.09854 0
M  V30 7856 O 773.885 -1.95134 0.173032 0
M  V30 7857 H 772.465 -0.159629 0.729745 0
M  V30 7858 H 775.127 0.300205 1.92574 0
M  V30 7859 H 774.223 -0.75809 3.02753 0
M  V30 7860 N 774.524 -1.57472 -0.0634922 0
M  V30 7861 C 775.772 -1.87283 -0.759563 0
M  V30 7862 C 776.093 -0.803135 -1.77693 0
M  V30 7863 O 775.363 0.167293 -1.95184 0
M  V30 7864 H 773.943 -0.691106 -0.283516 0
M  V30 7865 H 776.605 -1.94864 -0.0376091 0
M  V30 7866 H 775.701 -2.85064 -1.27062 0
M  V30 7867 N 776.003 0.335068 -1.53997 0
M  V30 7868 C 776.966 1.39481 -1.81872 0
M  V30 7869 C 777.966 1.4524 -0.690078 0
M  V30 7870 O 779.156 1.45467 -0.958377 0
M  V30 7871 C 776.288 2.78329 -1.9684 0
M  V30 7872 H 777.481 1.16024 -2.76547 0
M  V30 7873 H 775.034 0.569926 -1.45539 0
M  V30 7874 H 775.769 3.07058 -1.04337 0
M  V30 7875 H 775.554 2.75544 -2.78958 0
M  V30 7876 H 777.044 3.55016 -2.19894 0
M  V30 7877 N 777.481 1.45874 0.596531 0
M  V30 7878 C 778.413 1.51408 1.7207 0
M  V30 7879 C 779.426 0.403738 1.57714 0
M  V30 7880 O 780.615 0.671384 1.65393 0
M  V30 7881 C 777.715 1.3652 3.10186 0
M  V30 7882 C 776.888 2.61428 3.50677 0
M  V30 7883 C 775.947 2.40937 4.67799 0
M  V30 7884 O 774.973 3.14602 4.74357 0
M  V30 7885 N 776.175 1.4621 5.61785 0
M  V30 7886 H 778.94 2.48333 1.67782 0
M  V30 7887 H 776.501 1.41755 0.782129 0
M  V30 7888 H 778.493 1.20606 3.86311 0
M  V30 7889 H 777.063 0.478302 3.08919 0
M  V30 7890 H 776.283 2.92381 2.644 0
M  V30 7891 H 777.571 3.44432 3.74491 0
M  V30 7892 H 776.969 0.854382 5.59211 0
M  V30 7893 H 775.526 1.36264 6.37397 0
M  V30 7894 N 778.959 -0.83999 1.33349 0
M  V30 7895 C 780.375 -1.13049 1.12659 0
M  V30 7896 C 780.575 -2.01328 -0.0832613 0
M  V30 7897 O 779.631 -2.40669 -0.763856 0
M  V30 7898 C 780.944 -1.79366 2.41347 0
M  V30 7899 C 782.492 -1.91937 2.47243 0
M  V30 7900 C 782.967 -2.6167 3.75889 0
M  V30 7901 N 784.458 -2.69184 3.76954 0
M  V30 7902 C 785.193 -3.23827 4.73206 0
M  V30 7903 N 784.689 -3.79166 5.79832 0
M  V30 7904 N 786.482 -3.22068 4.60683 0
M  V30 7905 H 778.633 -0.252432 2.10895 0
M  V30 7906 H 780.896 -0.174501 0.931801 0
M  V30 7907 H 780.602 -1.2196 3.29877 0
M  V30 7908 H 780.476 -2.79396 2.53412 0
M  V30 7909 H 782.863 -2.48498 1.59163 0
M  V30 7910 H 782.944 -0.908604 2.39119 0
M  V30 7911 H 782.588 -2.05769 4.64351 0
M  V30 7912 H 782.518 -3.63217 3.81289 0
M  V30 7913 H 785.009 -2.2994 2.99893 0
M  V30 7914 H 785.322 -4.19061 6.49313 0
M  V30 7915 H 783.667 -3.77457 5.83568 0
M  V30 7916 H 786.858 -2.78092 3.7654 0
M  V30 7917 H 787.031 -3.64351 5.35866 0
M  V30 7918 N 780.437 -1.16799 -1.0581 0
M  V30 7919 C 781.4 -0.881396 -2.11575 0
M  V30 7920 C 782.4 0.12574 -1.60308 0
M  V30 7921 O 783.59 -0.105716 -1.73879 0
M  V30 7922 C 780.722 -0.319037 -3.39404 0
M  V30 7923 H 781.915 -1.81907 -2.38432 0
M  V30 7924 H 779.468 -0.977597 -1.21954 0
M  V30 7925 H 780.203 0.626082 -3.18199 0
M  V30 7926 H 779.988 -1.04481 -3.77923 0
M  V30 7927 H 781.478 -0.13663 -4.17376 0
M  V30 7928 N 781.915 1.24427 -0.967243 0
M  V30 7929 C 782.825 2.29109 -0.504592 0
M  V30 7930 C 783.841 1.68495 0.434224 0
M  V30 7931 O 785.017 1.99041 0.307379 0
M  V30 7932 C 782.082 3.46133 0.198273 0
M  V30 7933 C 781.143 4.22149 -0.780313 0
M  V30 7934 C 780.376 5.33585 -0.110896 0
M  V30 7935 O 780.599 5.59676 1.10088 0
M  V30 7936 O 779.533 5.96522 -0.802823 0
M  V30 7937 H 783.359 2.708 -1.37482 0
M  V30 7938 H 780.944 1.30111 -0.73426 0
M  V30 7939 H 782.826 4.17205 0.593124 0
M  V30 7940 H 781.501 3.0642 1.04347 0
M  V30 7941 H 780.408 3.53454 -1.22561 0
M  V30 7942 H 781.741 4.65677 -1.59392 0
M  V30 7943 N 783.393 0.737304 1.3929 0
M  V30 7944 C 784.356 0.10731 2.28949 0
M  V30 7945 C 785.356 -0.664716 1.46418 0
M  V30 7946 O 786.546 -0.493392 1.67067 0
M  V30 7947 C 783.678 -0.857145 3.29948 0
M  V30 7948 H 784.871 0.89725 2.86163 0
M  V30 7949 H 782.424 0.503279 1.47976 0
M  V30 7950 H 783.159 -1.67336 2.77794 0
M  V30 7951 H 782.944 -0.306167 3.90903 0
M  V30 7952 H 784.434 -1.29444 3.97031 0
M  V30 7953 N 784.871 -1.49948 0.485112 0
M  V30 7954 C 785.834 -2.27351 -0.290546 0
M  V30 7955 C 786.834 -1.32704 -0.908087 0
M  V30 7956 O 788.024 -1.56007 -0.775085 0
M  V30 7957 C 785.156 -3.10135 -1.41524 0
M  V30 7958 H 786.349 -2.97374 0.388454 0
M  V30 7959 H 783.902 -1.54453 0.239586 0
M  V30 7960 H 784.637 -2.44641 -2.12888 0
M  V30 7961 H 784.422 -3.79705 -0.978074 0
M  V30 7962 H 785.912 -3.68638 -1.96204 0
M  V30 7963 N 786.349 -0.21828 -1.56081 0
M  V30 7964 C 787.589 0.416193 -2.00118 0
M  V30 7965 C 787.953 1.5718 -1.10265 0
M  V30 7966 O 789.154 2.27206 -1.43635 0
M  V30 7967 C 787.425 0.842781 -3.47321 0
M  V30 7968 S 788.984 1.47182 -4.1338 0
M  V30 7969 H 785.802 0.132219 -0.698598 0
M  V30 7970 H 788.404 -0.326799 -1.92749 0
M  V30 7971 H 787.108 -0.00799925 -4.10399 0
M  V30 7972 H 786.639 1.61867 -3.58556 0
M  V30 7973 H 788.654 2.76087 -4.12299 0
M  V30 7974 N 787.827 1.57504 0.0551401 0
M  V30 7975 C 788.79 2.03826 1.04821 0
M  V30 7976 C 789.79 0.937968 1.30609 0
M  V30 7977 O 790.98 1.20237 1.2605 0
M  V30 7978 C 788.112 2.43309 2.38775 0
M  V30 7979 H 789.305 2.92802 0.6486 0
M  V30 7980 H 786.858 1.53368 0.301315 0
M  V30 7981 H 787.593 1.5741 2.83536 0
M  V30 7982 H 787.378 3.23615 2.21395 0
M  V30 7983 H 788.868 2.79666 3.10124 0
M  V30 7984 N 789.305 -0.326896 1.54172 0
M  V30 7985 C 790.237 -1.42319 1.79661 0
M  V30 7986 C 791.25 -1.47989 0.678456 0
M  V30 7987 O 792.439 -1.50773 0.955503 0
M  V30 7988 C 789.539 -2.80876 1.89636 0
M  V30 7989 C 788.712 -2.98449 3.19761 0
M  V30 7990 C 787.771 -4.17347 3.2048 0
M  V30 7991 O 786.797 -4.10667 3.94134 0
M  V30 7992 N 787.999 -5.26717 2.44027 0
M  V30 7993 H 790.764 -1.20819 2.74268 0
M  V30 7994 H 788.325 -0.516866 1.53428 0
M  V30 7995 H 790.317 -3.58619 1.87549 0
M  V30 7996 H 788.887 -2.95442 1.02141 0
M  V30 7997 H 788.107 -2.08035 3.34836 0
M  V30 7998 H 789.395 -3.07083 4.05681 0
M  V30 7999 H 788.793 -5.35019 1.8377 0
M  V30 8000 H 787.35 -6.02891 2.47721 0
M  V30 8001 N 790.784 -1.46188 -0.588786 0
M  V30 8002 C 792.2 -1.31009 -0.911524 0
M  V30 8003 C 792.4 -0.277017 -1.99587 0
M  V30 8004 O 791.456 0.322532 -2.50432 0
M  V30 8005 C 792.769 -2.69459 -1.33463 0
M  V30 8006 C 794.317 -2.77502 -1.44782 0
M  V30 8007 C 794.792 -4.1652 -1.90461 0
M  V30 8008 N 796.283 -4.18907 -1.97665 0
M  V30 8009 C 797.018 -5.23359 -2.34271 0
M  V30 8010 N 796.514 -6.38143 -2.69714 0
M  V30 8011 N 798.307 -5.10723 -2.34774 0
M  V30 8012 H 790.458 -2.12016 0.127614 0
M  V30 8013 H 792.721 -0.947984 -0.00557599 0
M  V30 8014 H 792.427 -3.46336 -0.611929 0
M  V30 8015 H 792.301 -2.99165 -2.2974 0
M  V30 8016 H 794.688 -2.00917 -2.1614 0
M  V30 8017 H 794.769 -2.51488 -0.467724 0
M  V30 8018 H 794.413 -4.93597 -1.19684 0
M  V30 8019 H 794.343 -4.39937 -2.89418 0
M  V30 8020 H 796.834 -3.36084 -1.72789 0
M  V30 8021 H 797.147 -7.13624 -2.96582 0
M  V30 8022 H 795.492 -6.41514 -2.67366 0
M  V30 8023 H 798.683 -4.20088 -2.06503 0
M  V30 8024 H 798.856 -5.9224 -2.62975 0
M  V30 8025 N 792.262 0.832906 -1.33792 0
M  V30 8026 C 793.487 1.62568 -1.28788 0
M  V30 8027 C 793.912 1.87599 0.137246 0
M  V30 8028 O 793.27 1.44436 1.0958 0
M  V30 8029 C 793.318 2.9495 -2.07453 0
M  V30 8030 O 792.422 3.86546 -1.43722 0
M  V30 8031 H 791.763 0.494809 -0.442787 0
M  V30 8032 H 794.293 1.03578 -1.76445 0
M  V30 8033 H 794.303 3.44599 -2.1844 0
M  V30 8034 H 792.978 2.76055 -3.11073 0
M  V30 8035 H 791.555 3.45044 -1.41417 0
M  V30 8036 N 793.74 1.17359 1.05189 0
M  V30 8037 C 794.65 0.904984 2.16442 0
M  V30 8038 C 795.666 -0.12686 1.73537 0
M  V30 8039 O 796.842 0.0524127 2.01332 0
M  V30 8040 C 793.907 0.422019 3.44122 0
M  V30 8041 C 792.968 1.52045 4.01473 0
M  V30 8042 C 792.201 1.06044 5.23059 0
M  V30 8043 O 792.424 -0.0854023 5.70336 0
M  V30 8044 O 791.358 1.85349 5.72651 0
M  V30 8045 H 795.184 1.8356 2.41949 0
M  V30 8046 H 792.769 0.95447 1.14936 0
M  V30 8047 H 794.651 0.160208 4.21095 0
M  V30 8048 H 793.326 -0.480444 3.20115 0
M  V30 8049 H 792.233 1.83615 3.25939 0
M  V30 8050 H 793.566 2.39863 4.29798 0
M  V30 8051 N 795.218 -1.23913 0.973828 0
M  V30 8052 C 796.464 -1.92436 0.640026 0
M  V30 8053 C 796.797 -1.75875 -0.823512 0
M  V30 8054 O 796.072 -1.11563 -1.59323 0
M  V30 8055 C 796.355 -3.4526 1.0231 0
M  V30 8056 C 796.208 -3.70961 2.54378 0
M  V30 8057 C 797.527 -4.36495 0.562155 0
M  V30 8058 H 794.646 -0.698868 0.233992 0
M  V30 8059 H 797.288 -1.46163 1.21393 0
M  V30 8060 H 795.438 -3.84802 0.534751 0
M  V30 8061 H 797.11 -3.40941 3.10737 0
M  V30 8062 H 795.353 -3.15899 2.97305 0
M  V30 8063 H 796.024 -4.77912 2.76232 0
M  V30 8064 H 798.5 -4.04363 0.981333 0
M  V30 8065 H 797.376 -5.42142 0.858689 0
M  V30 8066 H 797.637 -4.38818 -0.537659 0
M  V30 8067 N 796.696 -0.74468 -1.38897 0
M  V30 8068 C 797.606 -0.112892 -2.34328 0
M  V30 8069 C 798.622 0.71087 -1.58816 0
M  V30 8070 O 799.798 0.637092 -1.91058 0
M  V30 8071 C 796.863 0.776417 -3.37894 0
M  V30 8072 C 795.924 -0.0606999 -4.29257 0
M  V30 8073 C 795.157 0.786258 -5.27877 0
M  V30 8074 O 795.38 2.02463 -5.33259 0
M  V30 8075 O 794.314 0.209781 -6.01534 0
M  V30 8076 H 798.14 -0.900801 -2.90033 0
M  V30 8077 H 795.725 -0.505462 -1.4059 0
M  V30 8078 H 797.607 1.28496 -4.01331 0
M  V30 8079 H 796.282 1.54297 -2.84559 0
M  V30 8080 H 795.189 -0.614984 -3.69011 0
M  V30 8081 H 796.522 -0.789702 -4.85824 0
M  V30 8082 N 798.174 1.49689 -0.493057 0
M  V30 8083 C 799.137 2.27502 0.278485 0
M  V30 8084 C 800.137 1.33184 0.901037 0
M  V30 8085 O 801.327 1.56415 0.766801 0
M  V30 8086 C 798.459 3.10881 1.39878 0
M  V30 8087 H 799.652 2.97163 -0.404219 0
M  V30 8088 H 797.205 1.54324 -0.247774 0
M  V30 8089 H 797.94 2.45767 2.11587 0
M  V30 8090 H 797.725 3.80219 0.957924 0
M  V30 8091 H 799.215 3.69673 1.94247 0
M  V30 8092 N 799.652 0.226554 1.55963 0
M  V30 8093 C 800.898 -0.404387 1.98727 0
M  V30 8094 C 801.231 -1.59059 1.11418 0
M  V30 8095 O 800.506 -1.93729 0.172971 0
M  V30 8096 C 800.789 -0.834081 3.50307 0
M  V30 8097 C 800.642 0.356104 4.48388 0
M  V30 8098 C 801.961 -1.68845 4.06423 0
M  V30 8099 H 799.08 -0.145515 0.722492 0
M  V30 8100 H 801.722 0.323791 1.87221 0
M  V30 8101 H 799.872 -1.45454 3.60244 0
M  V30 8102 H 801.544 0.99432 4.50456 0
M  V30 8103 H 799.787 1.0027 4.22053 0
M  V30 8104 H 800.458 0.0124333 5.51999 0
M  V30 8105 H 802.934 -1.16489 3.99461 0
M  V30 8106 H 801.81 -1.958 5.1279 0
M  V30 8107 H 802.071 -2.65347 3.53615 0
M  V30 8108 N 801.13 -1.57531 -0.0467866 0
M  V30 8109 C 802.355 -1.93087 -0.757123 0
M  V30 8110 C 802.78 -0.825116 -1.69037 0
M  V30 8111 O 802.138 0.220449 -1.79955 0
M  V30 8112 C 802.186 -3.27669 -1.5055 0
M  V30 8113 O 801.29 -3.18667 -2.61773 0
M  V30 8114 H 800.631 -0.631597 -0.204892 0
M  V30 8115 H 803.161 -2.04599 -0.00755232 0
M  V30 8116 H 803.171 -3.6214 -1.87932 0
M  V30 8117 H 801.846 -4.07717 -0.820931 0
M  V30 8118 H 800.423 -2.95798 -2.27064 0
M  V30 8119 N 802.608 0.318715 -1.54344 0
M  V30 8120 C 803.538 1.39751 -1.87061 0
M  V30 8121 C 804.519 1.53741 -0.727848 0
M  V30 8122 O 805.704 1.67541 -0.982016 0
M  V30 8123 C 802.834 2.76446 -2.10226 0
M  V30 8124 C 801.788 2.77239 -3.26071 0
M  V30 8125 C 801.114 4.17056 -3.34617 0
M  V30 8126 C 802.414 2.40555 -4.63606 0
M  V30 8127 H 804.108 1.12619 -2.77412 0
M  V30 8128 H 801.654 0.540318 -1.33479 0
M  V30 8129 H 803.607 3.51985 -2.31699 0
M  V30 8130 H 802.331 3.05066 -1.16629 0
M  V30 8131 H 800.99 2.04155 -3.04493 0
M  V30 8132 H 800.638 4.42824 -2.3857 0
M  V30 8133 H 800.338 4.18492 -4.12478 0
M  V30 8134 H 801.862 4.94401 -3.5833 0
M  V30 8135 H 803.276 3.05808 -4.84927 0
M  V30 8136 H 801.673 2.53234 -5.44052 0
M  V30 8137 H 802.743 1.35698 -4.65526 0
M  V30 8138 N 804.086 1.46499 0.581025 0
M  V30 8139 C 805.334 1.51596 1.33653 0
M  V30 8140 C 805.655 0.169859 1.94259 0
M  V30 8141 O 804.925 -0.803776 1.78651 0
M  V30 8142 H 803.505 0.558346 0.496244 0
M  V30 8143 H 806.167 1.8264 0.680338 0
M  V30 8144 H 805.263 2.26956 2.14237 0
M  V30 8145 N 805.565 -0.825799 1.34232 0
M  V30 8146 C 806.811 -1.58419 1.26614 0
M  V30 8147 C 807.144 -1.93503 -0.164341 0
M  V30 8148 O 806.419 -1.59785 -1.109 0
M  V30 8149 C 806.702 -2.8856 2.15418 0
M  V30 8150 C 806.555 -2.60075 3.66989 0
M  V30 8151 C 807.874 -3.90107 2.03726 0
M  V30 8152 H 804.993 -0.574794 0.461282 0
M  V30 8153 H 807.635 -0.951519 1.64457 0
M  V30 8154 H 805.785 -3.42553 1.83275 0
M  V30 8155 H 807.457 -2.12414 4.09485 0
M  V30 8156 H 805.7 -1.93565 3.88221 0
M  V30 8157 H 806.371 -3.52866 4.24488 0
M  V30 8158 H 808.847 -3.45459 2.31942 0
M  V30 8159 H 807.723 -4.78976 2.68092 0
M  V30 8160 H 807.984 -4.30329 1.01337 0
M  V30 8161 N 807.043 -1.17915 -1.04565 0
M  V30 8162 C 808.454 -0.976383 -1.59134 0
M  V30 8163 C 808.805 0.475267 -1.90357 0
M  V30 8164 O 807.93 1.35172 -1.6899 0
M  V30 8165 C 808.525 -1.76604 -2.89131 0
M  V30 8166 C 807.084 -1.60777 -3.40335 0
M  V30 8167 C 806.231 -1.76369 -2.13985 0
M  V30 8168 H 809.182 -1.32532 -0.872985 0
M  V30 8169 H 809.203 -1.25215 -3.59307 0
M  V30 8170 H 808.715 -2.82252 -2.66375 0
M  V30 8171 H 806.816 -0.576436 -3.68114 0
M  V30 8172 H 806.929 -2.40268 -4.14497 0
M  V30 8173 H 805.293 -1.19268 -2.25049 0
M  V30 8174 H 806.076 -2.83441 -1.9369 0
M  V30 8175 N 808.521 1.23394 -0.980386 0
M  V30 8176 C 809.471 2.22634 -0.491747 0
M  V30 8177 C 810.455 1.54958 0.433222 0
M  V30 8178 O 811.647 1.75049 0.262078 0
M  V30 8179 C 808.776 3.4269 0.204531 0
M  V30 8180 C 807.862 4.17594 -0.740007 0
M  V30 8181 N 808.253 4.69458 -1.88263 0
M  V30 8182 C 806.551 4.42554 -0.553335 0
M  V30 8183 C 807.252 5.26446 -2.47446 0
M  V30 8184 N 806.228 5.14377 -1.75834 0
M  V30 8185 H 810.03 2.60363 -1.36339 0
M  V30 8186 H 807.544 1.38924 -0.841059 0
M  V30 8187 H 809.541 4.12959 0.571901 0
M  V30 8188 H 808.201 3.06477 1.07246 0
M  V30 8189 H 809.212 4.65803 -2.26381 0
M  V30 8190 H 805.889 4.16629 0.269573 0
M  V30 8191 H 807.279 5.77195 -3.43941 0
M  V30 8192 N 809.999 0.752036 1.385 0
M  V30 8193 C 810.909 0.125318 2.34265 0
M  V30 8194 C 811.925 -0.702437 1.59191 0
M  V30 8195 O 813.101 -0.626951 1.91393 0
M  V30 8196 C 810.166 -0.758486 3.38301 0
M  V30 8197 C 809.227 0.0834636 4.29219 0
M  V30 8198 C 808.46 -0.758252 5.28286 0
M  V30 8199 O 808.683 -1.99632 5.34325 0
M  V30 8200 O 807.617 -0.177878 6.01637 0
M  V30 8201 H 811.443 0.91617 2.89551 0
M  V30 8202 H 809.028 0.512911 1.4032 0
M  V30 8203 H 810.91 -1.26365 4.02007 0
M  V30 8204 H 809.585 -1.52786 2.85374 0
M  V30 8205 H 808.492 0.634545 3.68679 0
M  V30 8206 H 809.825 0.815455 4.85398 0
M  V30 8207 N 811.477 -1.49425 0.500989 0
M  V30 8208 C 812.723 -2.02753 -0.0436 0
M  V30 8209 C 813.056 -1.37991 -1.36646 0
M  V30 8210 O 812.331 -0.515597 -1.87542 0
M  V30 8211 C 812.614 -3.59565 -0.19616 0
M  V30 8212 C 812.467 -4.34855 1.14982 0
M  V30 8213 C 813.786 -4.30014 -0.936795 0
M  V30 8214 H 810.905 -0.73686 -0.0143711 0
M  V30 8215 H 813.547 -1.78448 0.652397 0
M  V30 8216 H 811.697 -3.80405 -0.788959 0
M  V30 8217 H 813.369 -4.25512 1.7815 0
M  V30 8218 H 811.612 -3.97414 1.73911 0
M  V30 8219 H 812.283 -5.42933 0.996385 0
M  V30 8220 H 814.759 -4.1383 -0.434036 0
M  V30 8221 H 813.635 -5.39483 -1.01238 0
M  V30 8222 H 813.896 -3.95257 -1.9805 0
M  V30 8223 N 812.955 -0.234822 -1.55841 0
M  V30 8224 C 813.918 0.656378 -2.196 0
M  V30 8225 C 814.918 1.11179 -1.16171 0
M  V30 8226 O 816.108 1.01845 -1.41326 0
M  V30 8227 C 813.24 1.90072 -2.82993 0
M  V30 8228 H 814.433 0.100281 -2.99732 0
M  V30 8229 H 811.986 0.0147613 -1.56293 0
M  V30 8230 H 812.721 2.49836 -2.06767 0
M  V30 8231 H 812.506 1.5825 -3.58747 0
M  V30 8232 H 813.996 2.53538 -3.31826 0
M  V30 8233 N 814.433 1.57553 0.0384317 0
M  V30 8234 C 815.343 2.09333 1.0591 0
M  V30 8235 C 816.359 1.0299 1.40247 0
M  V30 8236 O 817.535 1.34669 1.49754 0
M  V30 8237 C 814.6 2.55468 2.34386 0
M  V30 8238 C 813.661 3.76254 2.06716 0
M  V30 8239 C 812.894 4.20179 3.29067 0
M  V30 8240 O 813.117 3.637 4.39407 0
M  V30 8241 O 812.051 5.12697 3.15317 0
M  V30 8242 H 815.877 2.96683 0.649087 0
M  V30 8243 H 813.462 1.47211 0.254802 0
M  V30 8244 H 815.344 2.85514 3.09935 0
M  V30 8245 H 814.019 1.71234 2.74701 0
M  V30 8246 H 812.926 3.51241 1.28766 0
M  V30 8247 H 814.259 4.61443 1.71263 0
M  V30 8248 N 815.911 -0.310526 1.54511 0
M  V30 8249 C 817.159 -1.04484 1.72996 0
M  V30 8250 C 817.48 -1.88118 0.513479 0
M  V30 8251 O 816.75 -1.90119 -0.472384 0
M  V30 8252 H 815.33 -0.388747 0.637875 0
M  V30 8253 H 817.992 -0.343811 1.91844 0
M  V30 8254 H 817.088 -1.70341 2.61515 0
M  V30 8255 N 817.389 -1.46805 -0.573248 0
M  V30 8256 C 818.352 -1.57655 -1.66366 0
M  V30 8257 C 819.352 -0.452905 -1.5429 0
M  V30 8258 O 820.542 -0.717502 -1.58737 0
M  V30 8259 C 817.674 -1.50584 -3.05839 0
M  V30 8260 H 818.867 -2.54842 -1.581 0
M  V30 8261 H 816.42 -1.34756 -0.791868 0
M  V30 8262 H 817.155 -0.547127 -3.19651 0
M  V30 8263 H 816.94 -2.32118 -3.16012 0
M  V30 8264 H 818.43 -1.61282 -3.85199 0
M  V30 8265 N 818.867 0.818669 -1.34668 0
M  V30 8266 C 820.095 1.60674 -1.30351 0
M  V30 8267 C 820.51 1.88408 0.121546 0
M  V30 8268 O 819.867 1.47849 1.06991 0
M  V30 8269 C 819.918 2.94516 -2.09625 0
M  V30 8270 O 819.639 2.6799 -3.46573 0
M  V30 8271 C 821.14 3.8891 -2.12754 0
M  V30 8272 H 818.36 0.499306 -0.448258 0
M  V30 8273 H 820.904 1.01828 -1.77345 0
M  V30 8274 H 819.059 3.49908 -1.66262 0
M  V30 8275 H 819.473 3.53361 -3.87603 0
M  V30 8276 H 820.947 4.79972 -2.72637 0
M  V30 8277 H 821.424 4.24599 -1.12306 0
M  V30 8278 H 822.03 3.39453 -2.56225 0
M  V30 8279 N 820.346 1.18468 1.03938 0
M  V30 8280 C 821.586 0.991823 1.78724 0
M  V30 8281 C 821.95 -0.470115 1.86156 0
M  V30 8282 O 823.151 -0.782451 2.5716 0
M  V30 8283 C 821.422 1.63018 3.18056 0
M  V30 8284 S 822.981 1.58527 4.09163 0
M  V30 8285 H 819.799 0.356137 0.615376 0
M  V30 8286 H 822.401 1.50634 1.24618 0
M  V30 8287 H 821.105 2.68642 3.10258 0
M  V30 8288 H 820.636 1.11601 3.77238 0
M  V30 8289 H 822.651 0.602059 4.92534 0
M  V30 8290 N 821.824 -1.22873 0.986916 0
M  V30 8291 C 822.756 -2.23889 0.490537 0
M  V30 8292 C 823.769 -1.57523 -0.411144 0
M  V30 8293 O 824.958 -1.7721 -0.214236 0
M  V30 8294 C 822.058 -3.37488 -0.30902 0
M  V30 8295 C 821.231 -4.33438 0.587354 0
M  V30 8296 C 820.29 -5.25958 -0.159467 0
M  V30 8297 O 819.316 -5.67394 0.453115 0
M  V30 8298 N 820.518 -5.62265 -1.44355 0
M  V30 8299 H 823.283 -2.67109 1.35914 0
M  V30 8300 H 820.844 -1.37111 0.860937 0
M  V30 8301 H 822.836 -3.96365 -0.817139 0
M  V30 8302 H 821.406 -2.934 -1.07868 0
M  V30 8303 H 820.626 -3.72969 1.27622 0
M  V30 8304 H 821.914 -4.94495 1.19801 0
M  V30 8305 H 821.312 -5.30562 -1.96266 0
M  V30 8306 H 819.869 -6.23585 -1.89698 0
M  V30 8307 N 823.302 -0.75937 -1.38099 0
M  V30 8308 C 824.265 -0.14372 -2.28749 0
M  V30 8309 C 825.265 0.641338 -1.47457 0
M  V30 8310 O 826.455 0.466751 -1.67831 0
M  V30 8311 C 823.587 0.804545 -3.3127 0
M  V30 8312 H 824.78 -0.942663 -2.847 0
M  V30 8313 H 822.333 -0.526757 -1.47156 0
M  V30 8314 H 823.068 1.62895 -2.80421 0
M  V30 8315 H 822.853 0.243939 -3.9134 0
M  V30 8316 H 824.343 1.23111 -3.99041 0
M  V30 8317 N 824.78 1.49157 -0.508906 0
M  V30 8318 C 826.01 2.06579 0.0293308 0
M  V30 8319 C 826.418 1.36852 1.30645 0
M  V30 8320 O 825.761 0.443079 1.78276 0
M  V30 8321 C 825.823 3.57838 0.345296 0
M  V30 8322 C 825.487 4.49302 -0.835256 0
M  V30 8323 C 826.484 4.90345 -1.72793 0
M  V30 8324 C 824.169 4.91494 -1.0363 0
M  V30 8325 C 826.163 5.72327 -2.80573 0
M  V30 8326 C 823.85 5.7325 -2.11726 0
M  V30 8327 C 824.848 6.13572 -3.00032 0
M  V30 8328 O 824.536 6.93691 -4.06261 0
M  V30 8329 H 824.268 0.675679 -0.0208193 0
M  V30 8330 H 826.822 1.9282 -0.707789 0
M  V30 8331 H 825.052 3.69634 1.13612 0
M  V30 8332 H 826.741 3.97467 0.823089 0
M  V30 8333 H 827.507 4.58388 -1.58446 0
M  V30 8334 H 823.386 4.59605 -0.358308 0
M  V30 8335 H 826.93 6.03719 -3.49527 0
M  V30 8336 H 822.827 6.0462 -2.26065 0
M  V30 8337 H 823.595 7.12011 -4.03711 0
M  V30 8338 N 826.258 0.243083 1.55714 0
M  V30 8339 C 827.168 -0.668913 2.24862 0
M  V30 8340 C 828.184 -1.19638 1.26344 0
M  V30 8341 O 829.36 -1.23345 1.5921 0
M  V30 8342 C 826.425 -1.85084 2.93163 0
M  V30 8343 C 825.486 -1.36323 4.07081 0
M  V30 8344 C 824.719 -2.48882 4.72116 0
M  V30 8345 O 824.942 -3.67523 4.36214 0
M  V30 8346 O 823.876 -2.18857 5.60701 0
M  V30 8347 H 827.702 -0.109737 3.03502 0
M  V30 8348 H 825.287 0.0117411 1.49395 0
M  V30 8349 H 827.169 -2.54065 3.36197 0
M  V30 8350 H 825.844 -2.39771 2.17466 0
M  V30 8351 H 824.751 -0.640804 3.68571 0
M  V30 8352 H 826.084 -0.86249 4.84584 0
M  V30 8353 N 827.736 -1.57571 -0.0300757 0
M  V30 8354 C 828.666 -2.0953 -1.03051 0
M  V30 8355 C 829.647 -0.99761 -1.37774 0
M  V30 8356 O 830.832 -1.27279 -1.46676 0
M  V30 8357 C 827.962 -2.57385 -2.33174 0
M  V30 8358 C 826.916 -3.71409 -2.12696 0
M  V30 8359 C 826.242 -4.05467 -3.4857 0
M  V30 8360 C 827.542 -4.99877 -1.51396 0
M  V30 8361 H 829.236 -2.93367 -0.597999 0
M  V30 8362 H 826.782 -1.41127 -0.286203 0
M  V30 8363 H 828.735 -2.92355 -3.03491 0
M  V30 8364 H 827.459 -1.70629 -2.78484 0
M  V30 8365 H 826.118 -3.36786 -1.44813 0
M  V30 8366 H 825.766 -3.15779 -3.91526 0
M  V30 8367 H 825.466 -4.82269 -3.35694 0
M  V30 8368 H 826.99 -4.4297 -4.2025 0
M  V30 8369 H 828.404 -5.3281 -2.11629 0
M  V30 8370 H 826.801 -5.81283 -1.49098 0
M  V30 8371 H 827.871 -4.82522 -0.479676 0
M  V30 8372 N 829.214 0.302327 -1.54673 0
M  V30 8373 C 830.177 1.35592 -1.8479 0
M  V30 8374 C 831.177 1.43743 -0.72073 0
M  V30 8375 O 832.367 1.43402 -0.989017 0
M  V30 8376 C 829.499 2.74091 -2.02699 0
M  V30 8377 H 830.692 1.10132 -2.78946 0
M  V30 8378 H 828.245 0.538926 -1.46715 0
M  V30 8379 H 828.98 3.04775 -1.10826 0
M  V30 8380 H 828.765 2.69565 -2.8474 0
M  V30 8381 H 830.255 3.50272 -2.27374 0
M  V30 8382 N 830.692 1.47107 0.565454 0
M  V30 8383 C 831.969 1.43787 1.32607 0
M  V30 8384 C 832.349 0.130428 2.10697 0
M  V30 8385 O 831.697 -0.888086 2.10536 0
M  V30 8386 C 831.907 2.67833 2.23755 0
M  V30 8387 C 833.255 3.14704 2.85037 0
M  V30 8388 O 834.279 2.68503 2.34061 0
M  V30 8389 O 833.138 3.95002 3.77671 0
M  V30 8390 H 830.232 0.572623 0.596684 0
M  V30 8391 H 832.778 1.59296 0.58504 0
M  V30 8392 H 831.55 3.54532 1.65597 0
M  V30 8393 H 831.173 2.54869 3.05168 0
M  V30 8394 N 832.17 -0.811516 1.35101 0
M  V30 8395 C 833.4 -1.59749 1.31011 0
M  V30 8396 C 833.808 -1.88847 -0.115566 0
M  V30 8397 O 833.151 -1.48854 -1.07649 0
M  V30 8398 C 833.213 -2.95714 2.04435 0
M  V30 8399 C 832.877 -2.89456 3.53645 0
M  V30 8400 C 833.874 -2.63237 4.48333 0
M  V30 8401 C 831.559 -3.08728 3.96222 0
M  V30 8402 C 833.553 -2.56361 5.83573 0
M  V30 8403 C 831.24 -3.01475 5.3156 0
M  V30 8404 C 832.238 -2.75326 6.25048 0
M  V30 8405 O 831.926 -2.68026 7.57903 0
M  V30 8406 H 831.658 -0.502889 0.45175 0
M  V30 8407 H 834.212 -1.01687 1.78462 0
M  V30 8408 H 832.442 -3.55739 1.51613 0
M  V30 8409 H 834.131 -3.56816 1.93487 0
M  V30 8410 H 834.897 -2.48072 4.16756 0
M  V30 8411 H 830.776 -3.28094 3.23845 0
M  V30 8412 H 834.32 -2.35871 6.56514 0
M  V30 8413 H 830.217 -3.16197 5.62752 0
M  V30 8414 H 830.985 -2.8367 7.67772 0
M  V30 8415 N 833.648 -1.19017 -1.03309 0
M  V30 8416 C 834.873 -1.01598 -1.80811 0
M  V30 8417 C 835.298 0.430773 -1.83101 0
M  V30 8418 O 834.656 1.30946 -1.25391 0
M  V30 8419 C 834.704 -1.5845 -3.23923 0
M  V30 8420 O 833.808 -0.810972 -4.04348 0
M  V30 8421 H 833.149 -0.359398 -0.558327 0
M  V30 8422 H 835.679 -1.57945 -1.30055 0
M  V30 8423 H 835.689 -1.61486 -3.74682 0
M  V30 8424 H 834.364 -2.63752 -3.21571 0
M  V30 8425 H 832.941 -0.85353 -3.63 0
M  V30 8426 N 835.127 1.22348 -0.993418 0
M  V30 8427 C 836.075 2.26315 -0.537052 0
M  V30 8428 C 837.069 1.643 0.412545 0
M  V30 8429 O 838.275 1.77729 0.285008 0
M  V30 8430 H 834.65 0.735792 -0.155286 0
M  V30 8431 H 836.621 2.62157 -1.42535 0
M  V30 8432 C 835.37 3.47449 0.132118 0
M  V30 8433 H 834.693 3.9543 -0.589519 0
M  V30 8434 H 836.133 4.21965 0.414884 0
M  V30 8435 C 834.592 3.07893 1.36761 0
M  V30 8436 O 835.122 3.17338 2.46291 0
M  V30 8437 N 833.328 2.62672 1.24305 0
M  V30 8438 H 832.875 2.55186 0.351826 0
M  V30 8439 H 832.833 2.36574 2.07076 0
M  V30 8440 N 836.605 0.766683 1.37694 0
M  V30 8441 C 837.535 0.163432 2.32927 0
M  V30 8442 C 838.516 -0.688861 1.55527 0
M  V30 8443 O 839.701 -0.627363 1.83787 0
M  V30 8444 C 836.831 -0.720416 3.39746 0
M  V30 8445 C 835.785 0.0301718 4.27989 0
M  V30 8446 C 835.111 -0.972788 5.25776 0
M  V30 8447 C 836.411 1.20623 5.0818 0
M  V30 8448 H 838.105 0.958988 2.83626 0
M  V30 8449 H 835.651 0.462601 1.36367 0
M  V30 8450 H 837.604 -1.15221 4.05342 0
M  V30 8451 H 836.328 -1.54844 2.8756 0
M  V30 8452 H 834.987 0.442685 3.63917 0
M  V30 8453 H 834.635 -1.79522 4.69873 0
M  V30 8454 H 834.335 -0.475145 5.85676 0
M  V30 8455 H 835.859 -1.40362 5.94248 0
M  V30 8456 H 837.273 0.851341 5.66944 0
M  V30 8457 H 835.67 1.63561 5.7738 0
M  V30 8458 H 836.74 2.01281 4.41151 0
M  V30 8459 N 838.083 -1.48885 0.516809 0
M  V30 8460 C 839.499 -1.58651 0.173788 0
M  V30 8461 C 839.699 -1.52033 -1.32243 0
M  V30 8462 O 838.755 -1.40251 -2.09967 0
M  V30 8463 C 840.068 -2.90816 0.764628 0
M  V30 8464 C 841.616 -3.04316 0.732164 0
M  V30 8465 C 842.091 -4.39123 1.30135 0
M  V30 8466 N 843.582 -4.45656 1.26273 0
M  V30 8467 C 844.317 -5.48446 1.67317 0
M  V30 8468 N 843.813 -6.58258 2.16028 0
M  V30 8469 N 845.606 -5.39251 1.58635 0
M  V30 8470 H 837.757 -1.5143 1.48939 0
M  V30 8471 H 840.02 -0.718243 0.618733 0
M  V30 8472 H 839.726 -3.01275 1.81456 0
M  V30 8473 H 839.6 -3.76473 0.234113 0
M  V30 8474 H 841.987 -2.93478 -0.308975 0
M  V30 8475 H 842.068 -2.20303 1.3 0
M  V30 8476 H 841.712 -4.50714 2.34135 0
M  V30 8477 H 841.642 -5.21801 0.709305 0
M  V30 8478 H 844.133 -3.66879 0.906006 0
M  V30 8479 H 844.446 -7.32811 2.45374 0
M  V30 8480 H 842.791 -6.59257 2.20013 0
M  V30 8481 H 845.982 -4.52354 1.20387 0
M  V30 8482 H 846.155 -6.19229 1.90944 0
M  V30 8483 N 839.561 -0.251338 -1.55583 0
M  V30 8484 C 840.471 0.656978 -2.25213 0
M  V30 8485 C 841.487 1.18966 -1.26977 0
M  V30 8486 O 842.663 1.22499 -1.59862 0
M  V30 8487 C 839.728 1.83527 -2.94141 0
M  V30 8488 C 838.789 1.34162 -4.07798 0
M  V30 8489 C 838.022 2.46375 -4.73429 0
M  V30 8490 O 838.245 3.65205 -4.38157 0
M  V30 8491 O 837.179 2.15881 -5.61853 0
M  V30 8492 H 841.005 0.0936395 -3.03556 0
M  V30 8493 H 838.59 -0.0196638 -1.49387 0
M  V30 8494 H 840.472 2.52279 -3.3754 0
M  V30 8495 H 839.147 2.38614 -2.18735 0
M  V30 8496 H 838.054 0.621249 -3.68906 0
M  V30 8497 H 839.387 0.836779 -4.85035 0
M  V30 8498 N 841.039 1.57585 0.0217189 0
M  V30 8499 C 842.267 1.93871 0.722619 0
M  V30 8500 C 842.682 0.851706 1.68498 0
M  V30 8501 O 842.039 -0.17127 1.81695 0
M  V30 8502 C 842.09 3.30114 1.47333 0
M  V30 8503 O 841.811 4.34639 0.549597 0
M  V30 8504 C 843.312 3.80727 2.27072 0
M  V30 8505 H 840.532 0.639671 0.202637 0
M  V30 8506 H 843.076 2.04487 -0.0229414 0
M  V30 8507 H 841.231 3.20872 2.17071 0
M  V30 8508 H 841.645 5.13326 1.07686 0
M  V30 8509 H 843.119 4.78547 2.75131 0
M  V30 8510 H 843.596 3.12301 3.08812 0
M  V30 8511 H 844.202 3.93075 1.62395 0
M  V30 8512 N 842.517 -0.29412 1.54831 0
M  V30 8513 C 843.794 -1.04847 1.65126 0
M  V30 8514 C 844.174 -2.04996 0.503986 0
M  V30 8515 O 843.522 -2.22996 -0.498496 0
M  V30 8516 C 843.732 -1.72418 3.03435 0
M  V30 8517 C 845.08 -2.24362 3.60481 0
M  V30 8518 O 846.104 -1.8244 3.05932 0
M  V30 8519 O 844.963 -3.01196 4.56008 0
M  V30 8520 H 842.057 -0.485032 0.669831 0
M  V30 8521 H 844.603 -0.291659 1.67175 0
M  V30 8522 H 843.375 -0.997351 3.78376 0
M  V30 8523 H 842.998 -2.54839 3.05193 0
M  V30 8524 N 843.995 -1.47404 -0.557645 0
M  V30 8525 C 845.244 -1.53268 -1.31118 0
M  V30 8526 C 845.557 -0.199414 -1.94581 0
M  V30 8527 O 846.763 -0.136039 -2.71159 0
M  V30 8528 C 845.219 -2.70178 -2.37764 0
M  V30 8529 C 844.827 -4.10032 -1.80493 0
M  V30 8530 C 846.571 -2.85334 -3.14301 0
M  V30 8531 C 844.478 -5.18244 -2.84916 0
M  V30 8532 H 843.408 -0.570491 -0.493007 0
M  V30 8533 H 846.059 -1.73678 -0.592308 0
M  V30 8534 H 844.441 -2.43147 -3.12563 0
M  V30 8535 H 845.615 -4.46964 -1.12069 0
M  V30 8536 H 843.93 -3.99759 -1.16542 0
M  V30 8537 H 846.527 -3.63347 -3.92279 0
M  V30 8538 H 846.87 -1.93761 -3.68459 0
M  V30 8539 H 847.403 -3.12133 -2.46613 0
M  V30 8540 H 844.142 -6.11691 -2.35614 0
M  V30 8541 H 843.662 -4.85829 -3.51753 0
M  V30 8542 H 845.341 -5.45174 -3.48417 0
M  V30 8543 O 845.512 0.702284 -1.45431 0
M  V30 8544 H 846.203 1.35379 -1.38536 0
M  V30 END ATOM
M  V30 BEGIN BOND
M  V30 END BOND
M  V30 END CTAB
M  END
$$$$
